# Generated by pormake.
# Topology apo, (3,6)-cn, num edge types: 1
# Building blocks:
#     Node 0, Type 0, BuildingBlock: CUQRIR_clean_linker_1, # of connection points: 3
#     Node 1, Type 0, BuildingBlock: CUQRIR_clean_linker_1, # of connection points: 3
#     Node 2, Type 0, BuildingBlock: CUQRIR_clean_linker_1, # of connection points: 3
#     Node 3, Type 0, BuildingBlock: CUQRIR_clean_linker_1, # of connection points: 3
#     Node 4, Type 0, BuildingBlock: CUQRIR_clean_linker_1, # of connection points: 3
#     Node 5, Type 0, BuildingBlock: CUQRIR_clean_linker_1, # of connection points: 3
#     Node 6, Type 0, BuildingBlock: CUQRIR_clean_linker_1, # of connection points: 3
#     Node 7, Type 0, BuildingBlock: CUQRIR_clean_linker_1, # of connection points: 3
#     Node 8, Type 1, BuildingBlock: KUMJIN_clean_sbu_1, # of connection points: 6
#     Node 9, Type 1, BuildingBlock: KUMJIN_clean_sbu_1, # of connection points: 6
#     Node 10, Type 1, BuildingBlock: KUMJIN_clean_sbu_1, # of connection points: 6
#     Node 11, Type 1, BuildingBlock: KUMJIN_clean_sbu_1, # of connection points: 6
#     Edge 12, Type (0, 1), BuildingBlock: XIVTED_clean_linker_0, # of connection points: 2
#     Edge 13, Type (0, 1), BuildingBlock: XIVTED_clean_linker_0, # of connection points: 2
#     Edge 14, Type (0, 1), BuildingBlock: XIVTED_clean_linker_0, # of connection points: 2
#     Edge 15, Type (0, 1), BuildingBlock: XIVTED_clean_linker_0, # of connection points: 2
#     Edge 16, Type (0, 1), BuildingBlock: XIVTED_clean_linker_0, # of connection points: 2
#     Edge 17, Type (0, 1), BuildingBlock: XIVTED_clean_linker_0, # of connection points: 2
#     Edge 18, Type (0, 1), BuildingBlock: XIVTED_clean_linker_0, # of connection points: 2
#     Edge 19, Type (0, 1), BuildingBlock: XIVTED_clean_linker_0, # of connection points: 2
#     Edge 20, Type (0, 1), BuildingBlock: XIVTED_clean_linker_0, # of connection points: 2
#     Edge 21, Type (0, 1), BuildingBlock: XIVTED_clean_linker_0, # of connection points: 2
#     Edge 22, Type (0, 1), BuildingBlock: XIVTED_clean_linker_0, # of connection points: 2
#     Edge 23, Type (0, 1), BuildingBlock: XIVTED_clean_linker_0, # of connection points: 2
#     Edge 24, Type (0, 1), BuildingBlock: XIVTED_clean_linker_0, # of connection points: 2
#     Edge 25, Type (0, 1), BuildingBlock: XIVTED_clean_linker_0, # of connection points: 2
#     Edge 26, Type (0, 1), BuildingBlock: XIVTED_clean_linker_0, # of connection points: 2
#     Edge 27, Type (0, 1), BuildingBlock: XIVTED_clean_linker_0, # of connection points: 2
#     Edge 28, Type (0, 1), BuildingBlock: XIVTED_clean_linker_0, # of connection points: 2
#     Edge 29, Type (0, 1), BuildingBlock: XIVTED_clean_linker_0, # of connection points: 2
#     Edge 30, Type (0, 1), BuildingBlock: XIVTED_clean_linker_0, # of connection points: 2
#     Edge 31, Type (0, 1), BuildingBlock: XIVTED_clean_linker_0, # of connection points: 2
#     Edge 32, Type (0, 1), BuildingBlock: XIVTED_clean_linker_0, # of connection points: 2
#     Edge 33, Type (0, 1), BuildingBlock: XIVTED_clean_linker_0, # of connection points: 2
#     Edge 34, Type (0, 1), BuildingBlock: XIVTED_clean_linker_0, # of connection points: 2
#     Edge 35, Type (0, 1), BuildingBlock: XIVTED_clean_linker_0, # of connection points: 2
# Relax obj value: 0.045
# Max RMSD: 0.226
# Mean RMSD: 0.177
data_MOF--net-apo--node1-KUMJIN_clean_sbu_1--node2-CUQRIR_clean_linker_1--edge1-XIVTED_clean_linker_0
_symmetry_space_group_name_H-M    P1
_symmetry_Int_Tables_number       1
_symmetry_cell_setting            triclinic
loop_
_symmetry_equiv_pos_as_xyz
'x, y, z'
_cell_length_a     25.747083
_cell_length_b     39.70329
_cell_length_c     48.164854
_cell_angle_alpha  89.932371
_cell_angle_beta   90.030031
_cell_angle_gamma 90.491603
loop_
_atom_site_label
_atom_site_type_symbol
_atom_site_fract_x
_atom_site_fract_y
_atom_site_fract_z
_atom_type_partial_charge
C0 C 0.23478 0.33781 0.41802 0.0
N1 N 0.27057 0.36299 0.42093 0.0
N2 N 0.21696 0.33627 0.3916 0.0
C3 C 0.2164 0.31471 0.44084 0.0
C4 C 0.24237 0.36168 0.37859 0.0
N5 N 0.27441 0.37816 0.3963 0.0
C6 C 0.2379 0.36924 0.34808 0.0
H7 H 0.23959 0.2913 0.44046 0.0
H8 H 0.1751 0.30757 0.43766 0.0
H9 H 0.22044 0.32682 0.46148 0.0
H10 H 0.2006 0.35951 0.3396 0.0
H11 H 0.27034 0.35693 0.33697 0.0
H12 H 0.24082 0.39676 0.34429 0.0
C13 C 0.26769 0.16913 0.9176 0.0
N14 N 0.23442 0.14268 0.92069 0.0
N15 N 0.28391 0.17176 0.8909 0.0
C16 C 0.2826 0.19341 0.94034 0.0
C17 C 0.2596 0.14577 0.87791 0.0
N18 N 0.22891 0.12836 0.89591 0.0
C19 C 0.26732 0.13703 0.84772 0.0
H20 H 0.25044 0.21146 0.94339 0.0
H21 H 0.31851 0.20762 0.93502 0.0
H22 H 0.289 0.18037 0.96033 0.0
H23 H 0.30698 0.12692 0.84495 0.0
H24 H 0.264 0.16 0.83472 0.0
H25 H 0.23993 0.11754 0.8401 0.0
C26 C 0.74529 0.16765 0.60778 0.0
N27 N 0.77514 0.13984 0.60496 0.0
N28 N 0.72503 0.16921 0.63371 0.0
C29 C 0.73786 0.19408 0.58576 0.0
C30 C 0.74312 0.14123 0.64637 0.0
N31 N 0.77305 0.12328 0.62889 0.0
C32 C 0.73454 0.13253 0.67646 0.0
H33 H 0.76541 0.21521 0.58958 0.0
H34 H 0.69798 0.20428 0.58647 0.0
H35 H 0.74496 0.18375 0.56472 0.0
H36 H 0.69866 0.14433 0.6845 0.0
H37 H 0.76819 0.14183 0.68875 0.0
H38 H 0.73184 0.10485 0.67929 0.0
C39 C 0.761 0.33505 0.10397 0.0
N40 N 0.73439 0.36421 0.10101 0.0
N41 N 0.77253 0.3295 0.13101 0.0
C42 C 0.77212 0.31063 0.08093 0.0
C43 C 0.75221 0.35617 0.14443 0.0
N44 N 0.72882 0.37705 0.1263 0.0
C45 C 0.75696 0.36299 0.17511 0.0
H46 H 0.74228 0.31226 0.06436 0.0
H47 H 0.77338 0.28443 0.08894 0.0
H48 H 0.81058 0.31682 0.07179 0.0
H49 H 0.77804 0.38717 0.17824 0.0
H50 H 0.77819 0.34303 0.18634 0.0
H51 H 0.71766 0.36584 0.18421 0.0
C52 C 0.76492 0.67145 0.60608 0.0
N53 N 0.73408 0.6439 0.60323 0.0
N54 N 0.7806 0.67483 0.63275 0.0
C55 C 0.78103 0.6942 0.58254 0.0
C56 C 0.75816 0.64843 0.64602 0.0
N57 N 0.72989 0.62959 0.62807 0.0
C58 C 0.76292 0.64172 0.67667 0.0
H59 H 0.81154 0.68151 0.57023 0.0
H60 H 0.79704 0.71855 0.58996 0.0
H61 H 0.74752 0.69879 0.56857 0.0
H62 H 0.76173 0.66573 0.68842 0.0
H63 H 0.801 0.62982 0.68077 0.0
H64 H 0.73175 0.62463 0.68428 0.0
C65 C 0.74417 0.83476 0.10443 0.0
N66 N 0.77737 0.86148 0.10183 0.0
N67 N 0.72138 0.83454 0.12984 0.0
C68 C 0.73267 0.80899 0.08226 0.0
C69 C 0.74081 0.86254 0.14223 0.0
N70 N 0.77458 0.87894 0.12539 0.0
C71 C 0.7267 0.87418 0.17096 0.0
H72 H 0.69028 0.80767 0.07851 0.0
H73 H 0.74523 0.78381 0.08951 0.0
H74 H 0.75117 0.81492 0.06212 0.0
H75 H 0.75695 0.86589 0.18583 0.0
H76 H 0.68857 0.86361 0.1775 0.0
H77 H 0.72523 0.9021 0.17166 0.0
C78 C 0.2592 0.83434 0.41486 0.0
N79 N 0.23221 0.86323 0.41815 0.0
N80 N 0.27489 0.83095 0.38815 0.0
C81 C 0.26571 0.80801 0.43705 0.0
C82 C 0.25665 0.85892 0.37546 0.0
N83 N 0.23046 0.8783 0.39359 0.0
C84 C 0.2662 0.86835 0.3456 0.0
H85 H 0.3033 0.81231 0.4478 0.0
H86 H 0.2659 0.78239 0.42788 0.0
H87 H 0.2341 0.80949 0.45264 0.0
H88 H 0.2333 0.8591 0.33275 0.0
H89 H 0.30274 0.85714 0.33784 0.0
H90 H 0.26853 0.89613 0.34324 0.0
C91 C 0.24779 0.66851 0.91757 0.0
N92 N 0.27829 0.64097 0.91993 0.0
N93 N 0.2274 0.67061 0.89171 0.0
C94 C 0.23659 0.69288 0.94062 0.0
C95 C 0.24662 0.64344 0.8784 0.0
N96 N 0.27709 0.62526 0.89562 0.0
C97 C 0.2404 0.63704 0.84776 0.0
H98 H 0.19781 0.70438 0.93774 0.0
H99 H 0.26626 0.71329 0.94035 0.0
H100 H 0.23812 0.6801 0.96111 0.0
H101 H 0.25639 0.65885 0.83602 0.0
H102 H 0.19861 0.63475 0.84252 0.0
H103 H 0.26022 0.61378 0.84097 0.0
Eu104 Eu 0.06091 0.10026 0.23281 0.0
C105 C 0.83184 0.07227 0.27297 0.0
N106 N 0.85861 0.10196 0.27293 0.0
C107 C 0.7821 0.13104 0.25798 0.0
C108 C 0.77956 0.07072 0.26415 0.0
C109 C 0.83367 0.13131 0.26698 0.0
C110 C 0.75516 0.10052 0.25605 0.0
C111 C 0.82771 0.01305 0.28563 0.0
C112 C 0.85531 0.04382 0.28397 0.0
C113 C 0.77661 0.01108 0.27552 0.0
C114 C 0.75253 0.03986 0.26492 0.0
Eu115 Eu 0.94448 0.10014 0.29067 0.0
N116 N 0.90462 0.04652 0.29395 0.0
C117 C 0.85179 0.98544 0.29817 0.0
C118 C 0.92698 0.02038 0.30781 0.0
C119 C 0.90139 0.98924 0.30961 0.0
H120 H 0.85243 0.15511 0.27075 0.0
H121 H 0.91969 0.9683 0.32004 0.0
H122 H 0.14263 0.04017 0.25543 0.0
H123 H 0.09616 0.23452 0.21349 0.0
H124 H 0.96468 0.02361 0.31728 0.0
H125 H 0.83187 0.96137 0.29981 0.0
H126 H 0.04395 0.1826 0.21566 0.0
H127 H 0.76276 0.15448 0.25329 0.0
H128 H 0.75485 0.98763 0.27653 0.0
H129 H 0.71249 0.03821 0.25807 0.0
H130 H 0.23362 0.03586 0.27067 0.0
H131 H 0.7149 0.10044 0.24949 0.0
H132 H 0.1889 0.23373 0.2267 0.0
N133 N 0.14668 0.09311 0.24857 0.0
C134 C 0.17775 0.12095 0.24717 0.0
C135 C 0.21828 0.05998 0.26436 0.0
C136 C 0.23051 0.11935 0.25501 0.0
C137 C 0.16641 0.06266 0.25615 0.0
C138 C 0.25043 0.08847 0.26393 0.0
N139 N 0.10554 0.15246 0.23101 0.0
C140 C 0.08387 0.18177 0.22206 0.0
C141 C 0.18827 0.18056 0.23677 0.0
C142 C 0.15679 0.15131 0.23802 0.0
C143 C 0.16599 0.21076 0.22794 0.0
C144 C 0.11361 0.21133 0.22056 0.0
H145 H 0.29071 0.08625 0.27015 0.0
H146 H 0.3024 0.14761 0.2595 0.0
H147 H 0.26546 0.20113 0.24361 0.0
O148 O 0.08508 0.11131 0.19007 0.0
O149 O 0.07603 0.1267 0.27415 0.0
O150 O 0.99534 0.14647 0.28585 0.0
O151 O 0.08853 0.05958 0.20603 0.0
O152 O 0.99183 0.13161 0.22071 0.0
O153 O 0.94254 0.14441 0.26005 0.0
O154 O 0.95701 0.09951 0.33698 0.0
O155 O 0.95058 0.05639 0.26023 0.0
O156 O 0.97868 0.08441 0.22184 0.0
O157 O 0.88811 0.12115 0.31801 0.0
O158 O 0.02274 0.0787 0.30242 0.0
O159 O 0.05144 0.05495 0.26139 0.0
C160 C 0.0461 0.14733 0.28821 0.0
C161 C 0.11611 0.06845 0.15793 0.0
C162 C 0.12916 0.07608 0.10799 0.0
C163 C 0.15188 0.04413 0.10676 0.0
C164 C 0.13926 0.03664 0.15608 0.0
C165 C 0.15714 0.02468 0.13066 0.0
C166 C 0.11167 0.08848 0.13372 0.0
C167 C 0.95654 0.14938 0.23387 0.0
C168 C 0.09612 0.07996 0.18507 0.0
C169 C 0.2618 0.14843 0.25361 0.0
C170 C 0.24078 0.17891 0.24451 0.0
C171 C 0.95434 0.05887 0.23317 0.0
C172 C 0.89103 0.12708 0.36719 0.0
C173 C 0.88088 0.1259 0.41755 0.0
C174 C 0.84268 0.15079 0.41546 0.0
C175 C 0.85299 0.15236 0.36588 0.0
C176 C 0.90523 0.1138 0.39332 0.0
C177 C 0.82896 0.16393 0.38981 0.0
C178 C 0.04972 0.0562 0.28872 0.0
C179 C 0.91272 0.11453 0.34075 0.0
H180 H 0.16638 0.03444 0.08724 0.0
H181 H 0.14368 0.02097 0.17433 0.0
H182 H 0.17523 1.00022 0.12948 0.0
H183 H 0.09437 0.11324 0.13478 0.0
H184 H 0.82334 0.16009 0.43388 0.0
H185 H 0.84124 0.16314 0.34621 0.0
H186 H 0.93426 0.09428 0.39479 0.0
H187 H 0.79944 0.18312 0.38845 0.0
Eu188 Eu 0.44861 0.40302 0.73318 0.0
C189 C 0.67835 0.43172 0.77063 0.0
N190 N 0.65107 0.40229 0.76955 0.0
C191 C 0.72579 0.37347 0.75229 0.0
C192 C 0.73056 0.43318 0.76175 0.0
C193 C 0.67428 0.37322 0.76136 0.0
C194 C 0.75401 0.40363 0.75232 0.0
C195 C 0.68201 0.49115 0.78239 0.0
C196 C 0.65428 0.46038 0.78107 0.0
C197 C 0.73378 0.49271 0.77322 0.0
C198 C 0.75801 0.46381 0.76304 0.0
Eu199 Eu 0.56748 0.40339 0.78908 0.0
N200 N 0.60434 0.45807 0.79039 0.0
C201 C 0.65724 0.51936 0.7934 0.0
C202 C 0.5809 0.48515 0.80221 0.0
C203 C 0.60657 0.5163 0.80345 0.0
H204 H 0.65389 0.34956 0.76279 0.0
H205 H 0.58764 0.53777 0.81269 0.0
H206 H 0.36449 0.4616 0.75794 0.0
H207 H 0.41075 0.27349 0.70286 0.0
H208 H 0.54319 0.48272 0.81153 0.0
H209 H 0.67725 0.54342 0.79477 0.0
H210 H 0.46159 0.32644 0.70676 0.0
H211 H 0.74397 0.35029 0.74581 0.0
H212 H 0.75569 0.5161 0.77425 0.0
H213 H 0.79818 0.46535 0.75641 0.0
H214 H 0.27624 0.46323 0.77702 0.0
H215 H 0.79414 0.40368 0.74555 0.0
H216 H 0.32305 0.26972 0.72367 0.0
N217 N 0.36503 0.40815 0.75324 0.0
C218 C 0.33567 0.37941 0.75327 0.0
C219 C 0.29278 0.43941 0.77086 0.0
C220 C 0.28379 0.37964 0.76275 0.0
C221 C 0.34353 0.43819 0.76066 0.0
C222 C 0.26294 0.40997 0.77218 0.0
N223 N 0.40511 0.3509 0.73145 0.0
C224 C 0.42412 0.32444 0.71664 0.0
C225 C 0.32511 0.32078 0.73948 0.0
C226 C 0.356 0.35016 0.74176 0.0
C227 C 0.34567 0.29269 0.72592 0.0
C228 C 0.39518 0.29468 0.71416 0.0
H229 H 0.22321 0.41117 0.77951 0.0
H230 H 0.21367 0.34985 0.76854 0.0
H231 H 0.24984 0.29841 0.7482 0.0
O232 O 0.46358 0.40367 0.68767 0.0
O233 O 0.45716 0.35924 0.76316 0.0
O234 O 0.48888 0.3831 0.80311 0.0
O235 O 0.38831 0.41684 0.70421 0.0
O236 O 0.5243 0.37784 0.72143 0.0
O237 O 0.55846 0.35659 0.76234 0.0
O238 O 0.59886 0.41381 0.83064 0.0
O239 O 0.57824 0.4264 0.74593 0.0
O240 O 0.49891 0.44967 0.73668 0.0
O241 O 0.60715 0.36439 0.81244 0.0
O242 O 0.49418 0.42994 0.80321 0.0
O243 O 0.45357 0.44806 0.76268 0.0
C244 C 0.46047 0.36032 0.79031 0.0
C245 C 0.40085 0.42969 0.65652 0.0
C246 C 0.3852 0.42881 0.60637 0.0
C247 C 0.35731 0.45893 0.60894 0.0
C248 C 0.37336 0.46004 0.65834 0.0
C249 C 0.35153 0.47439 0.63468 0.0
C250 C 0.40659 0.41402 0.63038 0.0
C251 C 0.55085 0.35504 0.73524 0.0
C252 C 0.41566 0.41151 0.68205 0.0
C253 C 0.25356 0.35005 0.76139 0.0
C254 C 0.27414 0.32074 0.74978 0.0
C255 C 0.54958 0.44944 0.73383 0.0
C256 C 0.60884 0.36747 0.86189 0.0
C257 C 0.6182 0.36996 0.91241 0.0
C258 C 0.60505 0.33562 0.91396 0.0
C259 C 0.59596 0.33305 0.86411 0.0
C260 C 0.6205 0.38585 0.88628 0.0
C261 C 0.59424 0.31733 0.88997 0.0
C262 C 0.46017 0.44863 0.78989 0.0
C263 C 0.61546 0.3832 0.83421 0.0
H264 H 0.33912 0.47029 0.59096 0.0
H265 H 0.36722 0.47212 0.67822 0.0
H266 H 0.3293 0.49731 0.63635 0.0
H267 H 0.42662 0.39019 0.62883 0.0
H268 H 0.60438 0.32271 0.9338 0.0
H269 H 0.58814 0.31799 0.84583 0.0
H270 H 0.6319 0.41215 0.88492 0.0
H271 H 0.58514 0.29072 0.8914 0.0
Eu272 Eu 0.0646 0.90576 0.73322 0.0
C273 C 0.83597 0.87894 0.77283 0.0
N274 N 0.8646 0.90789 0.77324 0.0
C275 C 0.79162 0.93914 0.75661 0.0
C276 C 0.78405 0.87898 0.76341 0.0
C277 C 0.84274 0.93794 0.7663 0.0
C278 C 0.76226 0.9095 0.75493 0.0
C279 C 0.82907 0.819 0.7825 0.0
C280 C 0.85831 0.84921 0.78234 0.0
C281 C 0.77765 0.81893 0.77273 0.0
C282 C 0.75522 0.84881 0.76323 0.0
Eu283 Eu 0.94952 0.90324 0.7911 0.0
N284 N 0.90818 0.84994 0.79186 0.0
C285 C 0.85208 0.78979 0.79293 0.0
C286 C 0.93 0.82187 0.80304 0.0
C287 C 0.90261 0.79131 0.80343 0.0
H288 H 0.86415 0.96123 0.76868 0.0
H289 H 0.92021 0.76905 0.81221 0.0
H290 H 0.15067 0.84582 0.75394 0.0
H291 H 0.10153 0.03628 0.70569 0.0
H292 H 0.96789 0.82309 0.81239 0.0
H293 H 0.83082 0.76613 0.7935 0.0
H294 H 0.05061 0.98315 0.70891 0.0
H295 H 0.77467 0.96299 0.75081 0.0
H296 H 0.75466 0.79594 0.77274 0.0
H297 H 0.7153 0.8484 0.75608 0.0
H298 H 0.23939 0.84339 0.77223 0.0
H299 H 0.72249 0.91056 0.74762 0.0
H300 H 0.18998 0.03925 0.72575 0.0
N301 N 0.14941 0.89953 0.7515 0.0
C302 C 0.17857 0.92833 0.75234 0.0
C303 C 0.22248 0.8675 0.76718 0.0
C304 C 0.23074 0.92772 0.76135 0.0
C305 C 0.17145 0.86914 0.75743 0.0
C306 C 0.25207 0.89695 0.76948 0.0
N307 N 0.10817 0.95782 0.73231 0.0
C308 C 0.08855 0.98484 0.7184 0.0
C309 C 0.18846 0.98759 0.74031 0.0
C310 C 0.15771 0.9581 0.74204 0.0
C311 C 0.16742 0.0162 0.72764 0.0
C312 C 0.11748 0.01467 0.71631 0.0
H313 H 0.29199 0.89547 0.77647 0.0
H314 H 0.30081 0.95738 0.76765 0.0
H315 H 0.26389 0.00968 0.74913 0.0
O316 O 0.04616 0.90876 0.68869 0.0
O317 O 0.05795 0.94826 0.76466 0.0
O318 O 0.03087 0.91967 0.80304 0.0
O319 O 0.12231 0.8933 0.70208 0.0
O320 O 0.98709 0.9291 0.72297 0.0
O321 O 0.95676 0.95067 0.76452 0.0
O322 O 0.92291 0.8907 0.83338 0.0
O323 O 0.9367 0.88046 0.74813 0.0
O324 O 0.01566 0.85838 0.73564 0.0
O325 O 0.91854 0.9426 0.81784 0.0
O326 O 0.02154 0.87339 0.80235 0.0
O327 O 0.06267 0.85892 0.76084 0.0
C328 C 0.05519 0.94523 0.79173 0.0
C329 C 0.09751 0.87737 0.65694 0.0
C330 C 0.11474 0.87147 0.60752 0.0
C331 C 0.11959 0.83656 0.61115 0.0
C332 C 0.10224 0.84242 0.66029 0.0
C333 C 0.11331 0.82214 0.63741 0.0
C334 C 0.10368 0.89186 0.63047 0.0
C335 C 0.96091 0.95144 0.73722 0.0
C336 C 0.0924 0.89959 0.68103 0.0
C337 C 0.26073 0.95744 0.76079 0.0
C338 C 0.23971 0.98725 0.75022 0.0
C339 C 0.96466 0.85723 0.7359 0.0
C340 C 0.88645 0.93283 0.86473 0.0
C341 C 0.87351 0.92783 0.91494 0.0
C342 C 0.84113 0.95616 0.91391 0.0
C343 C 0.85426 0.96117 0.86449 0.0
C344 C 0.89549 0.91571 0.89006 0.0
C345 C 0.83149 0.97254 0.8889 0.0
C346 C 0.05418 0.85515 0.78772 0.0
C347 C 0.90969 0.9217 0.8383 0.0
H348 H 0.12928 0.82057 0.59372 0.0
H349 H 0.09866 0.83099 0.68064 0.0
H350 H 0.11794 0.79527 0.6401 0.0
H351 H 0.10134 0.91895 0.62788 0.0
H352 H 0.82295 0.9656 0.9326 0.0
H353 H 0.84624 0.97442 0.84531 0.0
H354 H 0.92036 0.89383 0.89055 0.0
H355 H 0.80638 0.99426 0.88846 0.0
Eu356 Eu 0.44403 0.60067 0.23283 0.0
C357 C 0.67538 0.62677 0.27245 0.0
N358 N 0.64716 0.59763 0.27285 0.0
C359 C 0.72216 0.56667 0.25852 0.0
C360 C 0.72785 0.62702 0.26394 0.0
C361 C 0.67076 0.56762 0.26777 0.0
C362 C 0.75058 0.5966 0.25608 0.0
C363 C 0.68323 0.68566 0.28566 0.0
C364 C 0.65337 0.65587 0.2831 0.0
C365 C 0.73459 0.68637 0.2759 0.0
C366 C 0.75679 0.65715 0.26499 0.0
Eu367 Eu 0.56095 0.60201 0.28954 0.0
N368 N 0.60357 0.65456 0.2924 0.0
C369 C 0.6611 0.71354 0.29881 0.0
C370 C 0.58289 0.68088 0.30674 0.0
C371 C 0.61095 0.71096 0.30974 0.0
H372 H 0.65085 0.54429 0.27207 0.0
H373 H 0.59408 0.73202 0.32065 0.0
H374 H 0.35725 0.65744 0.25435 0.0
H375 H 0.4203 0.46534 0.21404 0.0
H376 H 0.54476 0.67855 0.31584 0.0
H377 H 0.68287 0.73681 0.30129 0.0
H378 H 0.46736 0.51941 0.21488 0.0
H379 H 0.74029 0.54278 0.25411 0.0
H380 H 0.75796 0.70911 0.27746 0.0
H381 H 0.79702 0.65781 0.25839 0.0
H382 H 0.26644 0.65881 0.27024 0.0
H383 H 0.79079 0.59573 0.24951 0.0
H384 H 0.32892 0.46226 0.22959 0.0
N385 N 0.35874 0.60431 0.2499 0.0
C386 C 0.3306 0.57518 0.24967 0.0
C387 C 0.28416 0.63506 0.2649 0.0
C388 C 0.27789 0.57492 0.25774 0.0
C389 C 0.33603 0.63414 0.25647 0.0
C390 C 0.25501 0.60528 0.26571 0.0
N391 N 0.40479 0.54663 0.23244 0.0
C392 C 0.42832 0.5184 0.22265 0.0
C393 C 0.32537 0.51522 0.23999 0.0
C394 C 0.35416 0.54561 0.24073 0.0
C395 C 0.34978 0.48605 0.23055 0.0
C396 C 0.40141 0.48768 0.22181 0.0
H397 H 0.21461 0.60612 0.27195 0.0
H398 H 0.20886 0.54403 0.26311 0.0
H399 H 0.25037 0.4918 0.24766 0.0
O400 O 0.41814 0.5883 0.19033 0.0
O401 O 0.43252 0.57703 0.27575 0.0
O402 O 0.51221 0.55445 0.28577 0.0
O403 O 0.40985 0.63954 0.20688 0.0
O404 O 0.51634 0.57321 0.22003 0.0
O405 O 0.56284 0.55718 0.25941 0.0
O406 O 0.54088 0.60283 0.33402 0.0
O407 O 0.55432 0.64576 0.25924 0.0
O408 O 0.52351 0.62033 0.21998 0.0
O409 O 0.61784 0.58849 0.32085 0.0
O410 O 0.48379 0.62619 0.30008 0.0
O411 O 0.45161 0.64778 0.25905 0.0
C412 C 0.46137 0.55406 0.28784 0.0
C413 C 0.37761 0.63035 0.16023 0.0
C414 C 0.36698 0.62903 0.1099 0.0
C415 C 0.32799 0.65337 0.11213 0.0
C416 C 0.33868 0.6548 0.16187 0.0
C417 C 0.31387 0.66606 0.13795 0.0
C418 C 0.3916 0.61714 0.13408 0.0
C419 C 0.55098 0.55444 0.23271 0.0
C420 C 0.40259 0.61902 0.18606 0.0
C421 C 0.2494 0.54465 0.25708 0.0
C422 C 0.27306 0.5149 0.24826 0.0
C423 C 0.54874 0.64498 0.23217 0.0
C424 C 0.59525 0.57476 0.36702 0.0
C425 C 0.61694 0.57426 0.41621 0.0
C426 C 0.62473 0.53938 0.41475 0.0
C427 C 0.60303 0.53987 0.3658 0.0
C428 C 0.602 0.59189 0.39232 0.0
C429 C 0.61761 0.52229 0.38968 0.0
C430 C 0.45824 0.64928 0.28614 0.0
C431 C 0.58757 0.59465 0.34173 0.0
H432 H 0.30851 0.66266 0.09373 0.0
H433 H 0.32707 0.66501 0.18175 0.0
H434 H 0.28372 0.6848 0.1394 0.0
H435 H 0.42178 0.59837 0.13251 0.0
H436 H 0.63744 0.52555 0.4329 0.0
H437 H 0.59926 0.52649 0.34631 0.0
H438 H 0.59769 0.61903 0.39316 0.0
H439 H 0.62455 0.49548 0.38863 0.0
H440 H 0.25383 0.94447 0.3972 0.0
H441 H 0.03873 0.98832 0.2843 0.0
H442 H 0.13657 0.874 0.37044 0.0
H443 H 0.11922 0.06568 0.33038 0.0
H444 H 0.0781 0.94558 0.31432 0.0
H445 H 0.20753 0.98983 0.37278 0.0
C446 C 0.21733 0.939 0.38692 0.0
C447 C 0.19815 0.90598 0.38595 0.0
C448 C 0.08733 0.97189 0.31784 0.0
C449 C 0.14642 0.95666 0.35731 0.0
C450 C 0.06534 0.99612 0.30056 0.0
C451 C 0.07612 0.03026 0.30502 0.0
C452 C 0.12128 0.98196 0.33924 0.0
C453 C 0.11001 0.03943 0.32654 0.0
C454 C 0.19125 0.9646 0.37278 0.0
C455 C 0.15173 0.89946 0.37178 0.0
N456 N 0.13187 0.01536 0.34277 0.0
N457 N 0.12767 0.92449 0.35771 0.0
H458 H 0.25327 0.55932 0.89712 0.0
H459 H 0.46986 0.51668 0.78527 0.0
H460 H 0.37197 0.63022 0.87301 0.0
H461 H 0.391 0.43888 0.83172 0.0
H462 H 0.43022 0.55925 0.81533 0.0
H463 H 0.30013 0.51452 0.87258 0.0
C464 C 0.29018 0.56499 0.88733 0.0
C465 C 0.30967 0.59797 0.88731 0.0
C466 C 0.42142 0.53289 0.81892 0.0
C467 C 0.36207 0.54785 0.85835 0.0
C468 C 0.4436 0.50873 0.80164 0.0
C469 C 0.43342 0.47449 0.8062 0.0
C470 C 0.3877 0.52267 0.84034 0.0
C471 C 0.39978 0.46518 0.82778 0.0
C472 C 0.3166 0.5397 0.87315 0.0
C473 C 0.3566 0.60477 0.87372 0.0
N474 N 0.37763 0.48918 0.84395 0.0
N475 N 0.38099 0.57999 0.85944 0.0
H476 H 0.76554 0.56664 0.63405 0.0
H477 H 0.50706 0.50723 0.7134 0.0
H478 H 0.6285 0.62707 0.64071 0.0
H479 H 0.64849 0.44963 0.71246 0.0
H480 H 0.54792 0.54877 0.68288 0.0
H481 H 0.71971 0.52009 0.65754 0.0
C482 C 0.72513 0.5695 0.63973 0.0
C483 C 0.70007 0.60012 0.6351 0.0
C484 C 0.57 0.52699 0.68924 0.0
C485 C 0.64809 0.54803 0.66282 0.0
C486 C 0.54669 0.50324 0.7067 0.0
C487 C 0.5744 0.4749 0.71558 0.0
C488 C 0.62144 0.52241 0.68041 0.0
C489 C 0.62577 0.47121 0.70634 0.0
C490 C 0.6992 0.54326 0.65342 0.0
C491 C 0.64836 0.60339 0.64345 0.0
N492 N 0.64762 0.49469 0.68927 0.0
N493 N 0.62411 0.57775 0.65714 0.0
H494 H 0.85773 0.87001 0.15787 0.0
H495 H 0.92585 0.06416 0.17857 0.0
H496 H 0.76729 0.94642 0.11764 0.0
H497 H 0.93008 0.99342 0.24657 0.0
H498 H 0.88671 0.02025 0.14914 0.0
H499 H 0.90494 0.91419 0.18363 0.0
C500 C 0.84951 0.89623 0.15364 0.0
C501 C 0.81015 0.90474 0.13484 0.0
C502 C 0.8963 0.01447 0.17051 0.0
C503 C 0.86308 0.95521 0.16432 0.0
C504 C 0.9187 0.0394 0.1873 0.0
C505 C 0.93092 0.03252 0.21515 0.0
C506 C 0.88733 0.98217 0.18142 0.0
C507 C 0.92081 0.99994 0.22533 0.0
C508 C 0.87577 0.92129 0.16856 0.0
C509 C 0.79904 0.93895 0.13092 0.0
N510 N 0.89996 0.9759 0.20842 0.0
N511 N 0.82558 0.96301 0.14543 0.0
H512 H 0.74689 0.05781 0.6314 0.0
H513 H 0.97893 0.01906 0.73593 0.0
H514 H 0.8711 0.12812 0.64732 0.0
H515 H 0.88157 0.94095 0.70135 0.0
H516 H 0.938 0.06006 0.70471 0.0
H517 H 0.79484 0.01418 0.65672 0.0
C518 C 0.78517 0.06351 0.63954 0.0
C519 C 0.8058 0.09605 0.63716 0.0
C520 C 0.92535 0.03399 0.70406 0.0
C521 C 0.85978 0.04733 0.66694 0.0
C522 C 0.94823 0.01081 0.72205 0.0
C523 C 0.93288 0.97696 0.72125 0.0
C524 C 0.88625 0.02319 0.6856 0.0
C525 C 0.89398 0.96705 0.70255 0.0
C526 C 0.81227 0.03891 0.65419 0.0
C527 C 0.8547 0.10298 0.64857 0.0
N528 N 0.87161 0.99013 0.68559 0.0
N529 N 0.87988 0.07891 0.66332 0.0
H530 H 0.76959 0.4376 0.13836 0.0
H531 H 0.54126 0.54578 0.17667 0.0
H532 H 0.62654 0.38101 0.1358 0.0
H533 H 0.61541 0.50207 0.24859 0.0
H534 H 0.58288 0.50365 0.14755 0.0
H535 H 0.72507 0.48225 0.16466 0.0
C536 C 0.72828 0.43548 0.14228 0.0
C537 C 0.70085 0.40657 0.13407 0.0
C538 C 0.59048 0.50391 0.16968 0.0
C539 C 0.65083 0.45623 0.16427 0.0
C540 C 0.56692 0.52784 0.18644 0.0
C541 C 0.57635 0.52852 0.21527 0.0
C542 C 0.62447 0.48094 0.18164 0.0
C543 C 0.60906 0.50385 0.2265 0.0
C544 C 0.70336 0.46041 0.15754 0.0
C545 C 0.64804 0.40376 0.14075 0.0
N546 N 0.63259 0.48121 0.20956 0.0
N547 N 0.62443 0.42842 0.15549 0.0
H548 H 0.36694 0.36983 0.37164 0.0
H549 H 0.38257 0.56383 0.32468 0.0
H550 H 0.25974 0.4451 0.39908 0.0
H551 H 0.48357 0.48715 0.29266 0.0
H552 H 0.34251 0.52193 0.35561 0.0
H553 H 0.41644 0.41348 0.34657 0.0
C554 C 0.35525 0.39589 0.37324 0.0
C555 C 0.31048 0.40425 0.38813 0.0
C556 C 0.3733 0.51417 0.34178 0.0
C557 C 0.36531 0.45417 0.35881 0.0
C558 C 0.39598 0.53805 0.32407 0.0
C559 C 0.43636 0.52883 0.30618 0.0
C560 C 0.3905 0.48064 0.34126 0.0
C561 C 0.45285 0.49526 0.3064 0.0
C562 C 0.3829 0.42071 0.35866 0.0
C563 C 0.29513 0.43801 0.38857 0.0
N564 N 0.42963 0.47232 0.32351 0.0
N565 N 0.32236 0.46173 0.37408 0.0
H566 H 0.22874 0.063 0.91272 0.0
H567 H 0.08878 0.008 0.77626 0.0
H568 H 0.1479 0.13412 0.8614 0.0
H569 H 0.07025 0.94428 0.8483 0.0
H570 H 0.12421 0.0523 0.80593 0.0
H571 H 0.18001 0.01667 0.88992 0.0
C572 C 0.19974 0.06878 0.89718 0.0
C573 C 0.1925 0.10212 0.88851 0.0
C574 C 0.11205 0.02867 0.81524 0.0
C575 C 0.13885 0.04996 0.86189 0.0
C576 C 0.09234 0.0032 0.79827 0.0
C577 C 0.0768 0.97222 0.80971 0.0
C578 C 0.11681 0.02318 0.84391 0.0
C579 C 0.08186 0.96776 0.83858 0.0
C580 C 0.17237 0.04251 0.88409 0.0
C581 C 0.1546 0.10859 0.86835 0.0
N582 N 0.10189 0.99289 0.85473 0.0
N583 N 0.13023 0.08274 0.85516 0.0
H584 H 0.28547 0.11878 0.96479 0.0
H585 H 0.06385 0.06845 0.06367 0.0
H586 H 0.13214 0.14156 0.93508 0.0
H587 H 0.1945 0.1268 0.09294 0.0
H588 H 0.08229 0.08771 0.01597 0.0
H589 H 0.25016 0.11017 0.01153 0.0
C590 C 0.24415 0.1215 0.9682 0.0
C591 C 0.21171 0.13141 0.94644 0.0
C592 C 0.10579 0.0971 0.033 0.0
C593 C 0.17091 0.12125 0.9995 0.0
C594 C 0.09513 0.08637 0.06014 0.0
C595 C 0.12775 0.0962 0.08214 0.0
C596 C 0.15031 0.11674 0.02796 0.0
C597 C 0.16839 0.11883 0.07654 0.0
C598 C 0.22415 0.11697 0.99478 0.0
C599 C 0.15822 0.1341 0.95156 0.0
N600 N 0.17939 0.12765 0.04989 0.0
N601 N 0.13918 0.12894 0.97772 0.0
H602 H 0.32245 0.31811 0.45315 0.0
H603 H 0.42113 0.45818 0.55925 0.0
H604 H 0.28927 0.42379 0.44479 0.0
H605 H 0.35678 0.36466 0.58977 0.0
H606 H 0.40552 0.43915 0.51163 0.0
H607 H 0.36341 0.32955 0.49837 0.0
C608 C 0.32425 0.34375 0.46067 0.0
C609 C 0.30166 0.37004 0.44532 0.0
C610 C 0.39577 0.42255 0.52875 0.0
C611 C 0.35078 0.38336 0.4961 0.0
C612 C 0.40484 0.43328 0.55586 0.0
C613 C 0.38926 0.41326 0.57842 0.0
C614 C 0.37119 0.39147 0.52408 0.0
C615 C 0.36905 0.38094 0.57291 0.0
C616 C 0.34788 0.3502 0.48631 0.0
C617 C 0.30664 0.40288 0.45559 0.0
N618 N 0.35976 0.37117 0.54618 0.0
N619 N 0.33065 0.40861 0.48032 0.0
H620 H 0.63611 0.3812 0.08667 0.0
H621 H 0.71286 0.39609 0.92702 0.0
H622 H 0.79324 0.3793 0.05638 0.0
H623 H 0.55693 0.38146 0.95731 0.0
H624 H 0.74191 0.40745 0.97471 0.0
H625 H 0.60639 0.39829 0.04058 0.0
C626 C 0.66451 0.38538 0.07052 0.0
C627 C 0.71716 0.379 0.07529 0.0
C628 C 0.70109 0.40263 0.97084 0.0
C629 C 0.68342 0.39717 0.02215 0.0
C630 C 0.68448 0.3965 0.94362 0.0
C631 C 0.63262 0.38747 0.93844 0.0
C632 C 0.66547 0.39958 0.99288 0.0
C633 C 0.59736 0.38805 0.96061 0.0
C634 C 0.64753 0.39475 0.04408 0.0
C635 C 0.75223 0.3838 0.05334 0.0
N636 N 0.61455 0.39341 0.98692 0.0
N637 N 0.73471 0.39212 0.02761 0.0
H638 H 0.84979 0.17769 0.58073 0.0
H639 H 0.84115 0.07067 0.44378 0.0
H640 H 0.77162 0.0817 0.57597 0.0
H641 H 0.94271 0.15609 0.45565 0.0
H642 H 0.82869 0.06711 0.49415 0.0
H643 H 0.89488 0.16528 0.53726 0.0
C644 C 0.84279 0.15378 0.57055 0.0
C645 C 0.80657 0.13087 0.58145 0.0
C646 C 0.85519 0.08592 0.48589 0.0
C647 C 0.85782 0.11622 0.53182 0.0
C648 C 0.86291 0.08758 0.45716 0.0
C649 C 0.893 0.11369 0.44571 0.0
C650 C 0.87696 0.111 0.50302 0.0
C651 C 0.91943 0.1355 0.4638 0.0
C652 C 0.86866 0.14654 0.54586 0.0
C653 C 0.79913 0.1 0.56791 0.0
N654 N 0.9098 0.13421 0.49151 0.0
N655 N 0.82386 0.09375 0.54349 0.0
H656 H 0.77769 0.92101 0.07499 0.0
H657 H 0.85558 0.86221 0.93184 0.0
H658 H 0.8444 0.82204 0.07281 0.0
H659 H 0.91117 0.95855 0.96103 0.0
H660 H 0.84717 0.84338 0.98054 0.0
H661 H 0.82031 0.93429 0.03099 0.0
C662 C 0.80257 0.90244 0.06567 0.0
C663 C 0.80783 0.87057 0.07769 0.0
C664 C 0.86273 0.86825 0.97612 0.0
C665 C 0.85409 0.88474 0.02637 0.0
C666 C 0.86772 0.87894 0.94841 0.0
C667 C 0.8832 0.9122 0.94251 0.0
C668 C 0.87248 0.89128 0.99772 0.0
C669 C 0.89814 0.93294 0.96476 0.0
C670 C 0.82634 0.90981 0.04036 0.0
C671 C 0.83898 0.84683 0.06396 0.0
N672 N 0.89109 0.9225 0.99134 0.0
N673 N 0.8599 0.85403 0.03859 0.0
H674 H 0.63312 0.64302 0.58785 0.0
H675 H 0.70851 0.60356 0.43023 0.0
H676 H 0.78731 0.61939 0.56017 0.0
H677 H 0.55412 0.58427 0.46109 0.0
H678 H 0.7347 0.62276 0.47657 0.0
H679 H 0.60002 0.63126 0.54066 0.0
C680 C 0.65958 0.63457 0.5719 0.0
C681 C 0.71268 0.63162 0.57763 0.0
C682 C 0.69493 0.61464 0.47317 0.0
C683 C 0.67616 0.61962 0.52397 0.0
C684 C 0.67998 0.60402 0.44675 0.0
C685 C 0.62941 0.59211 0.4422 0.0
C686 C 0.65899 0.61323 0.4951 0.0
C687 C 0.59361 0.59312 0.46409 0.0
C688 C 0.64099 0.62832 0.54505 0.0
C689 C 0.74606 0.62165 0.55635 0.0
N690 N 0.60917 0.60328 0.48979 0.0
N691 N 0.72736 0.61621 0.5304 0.0
H692 H 0.35193 0.67877 0.94483 0.0
H693 H 0.332 0.5732 0.08244 0.0
H694 H 0.27422 0.58259 0.94886 0.0
H695 H 0.42952 0.66105 0.07302 0.0
H696 H 0.32623 0.56854 0.03175 0.0
H697 H 0.39415 0.66694 0.98926 0.0
C698 C 0.34462 0.65487 0.95501 0.0
C699 C 0.30933 0.63175 0.94357 0.0
C700 C 0.35028 0.58823 0.04069 0.0
C701 C 0.35686 0.61791 0.99449 0.0
C702 C 0.35405 0.59061 0.06962 0.0
C703 C 0.381 0.61766 0.08174 0.0
C704 C 0.37275 0.61354 0.024 0.0
C705 C 0.4083 0.63987 0.06434 0.0
C706 C 0.36876 0.64798 0.98029 0.0
C707 C 0.30121 0.60098 0.95723 0.0
N708 N 0.40253 0.6378 0.03636 0.0
N709 N 0.32405 0.59516 0.98228 0.0
H710 H 0.28979 0.87852 0.46271 0.0
H711 H 0.05014 0.87323 0.5628 0.0
H712 H 0.13286 0.87791 0.43205 0.0
H713 H 0.20402 0.90118 0.58972 0.0
H714 H 0.07629 0.88339 0.51451 0.0
H715 H 0.25796 0.89395 0.50875 0.0
C716 C 0.24858 0.88231 0.46576 0.0
C717 C 0.21374 0.87684 0.44391 0.0
C718 C 0.10405 0.88812 0.53097 0.0
C719 C 0.17663 0.89407 0.49639 0.0
C720 C 0.08904 0.88241 0.55846 0.0
C721 C 0.12527 0.88609 0.57995 0.0
C722 C 0.15601 0.89661 0.52509 0.0
C723 C 0.17519 0.89795 0.57354 0.0
C724 C 0.23034 0.89122 0.49193 0.0
C725 C 0.16072 0.88199 0.44855 0.0
N726 N 0.18947 0.90214 0.54659 0.0
N727 N 0.14356 0.88979 0.47449 0.0
H728 H 0.2619 0.29202 0.35763 0.0
H729 H 0.99823 0.19209 0.32316 0.0
H730 H 0.11597 0.31659 0.39564 0.0
H731 H 0.14979 0.16233 0.29446 0.0
H732 H 0.03918 0.23718 0.35032 0.0
H733 H 0.2202 0.24449 0.33392 0.0
C734 C 0.22093 0.28711 0.36094 0.0
C735 C 0.19214 0.3079 0.37845 0.0
C736 C 0.06337 0.22089 0.3379 0.0
C737 C 0.14385 0.25372 0.3516 0.0
C738 C 0.04005 0.19515 0.32232 0.0
C739 C 0.07045 0.17385 0.30575 0.0
C740 C 0.11745 0.22557 0.33673 0.0
C741 C 0.12451 0.1786 0.30612 0.0
C742 C 0.1971 0.26003 0.34754 0.0
C743 C 0.13924 0.30082 0.38231 0.0
N744 N 0.14613 0.20407 0.32108 0.0
N745 N 0.11659 0.27429 0.36888 0.0
H746 H 0.36872 0.16664 0.85766 0.0
H747 H 0.42992 0.36121 0.84486 0.0
H748 H 0.26608 0.2386 0.89522 0.0
H749 H 0.43651 0.29662 0.77298 0.0
H750 H 0.38851 0.3149 0.871 0.0
H751 H 0.41287 0.21295 0.83306 0.0
C752 C 0.35547 0.19214 0.86069 0.0
C753 C 0.31331 0.1988 0.87821 0.0
C754 C 0.39905 0.31111 0.84947 0.0
C755 C 0.36502 0.25175 0.85135 0.0
C756 C 0.42274 0.33735 0.83461 0.0
C757 C 0.43615 0.33284 0.80663 0.0
C758 C 0.39009 0.28001 0.83642 0.0
C759 C 0.42611 0.30136 0.79436 0.0
C760 C 0.38086 0.21848 0.84687 0.0
C761 C 0.2988 0.23248 0.88214 0.0
N762 N 0.40402 0.27605 0.80938 0.0
N763 N 0.32482 0.25779 0.86895 0.0
H764 H 0.7619 0.20509 0.67679 0.0
H765 H 0.54921 0.34494 0.67892 0.0
H766 H 0.6319 0.19654 0.62088 0.0
H767 H 0.60352 0.3003 0.75537 0.0
H768 H 0.5902 0.29923 0.65306 0.0
H769 H 0.7167 0.25002 0.70182 0.0
C770 C 0.7239 0.21292 0.66978 0.0
C771 C 0.70034 0.19731 0.64689 0.0
C772 C 0.59303 0.29967 0.6755 0.0
C773 C 0.64928 0.24869 0.67481 0.0
C774 C 0.56985 0.3257 0.69031 0.0
C775 C 0.57384 0.32693 0.71942 0.0
C776 C 0.62138 0.27525 0.68982 0.0
C777 C 0.60059 0.30099 0.73297 0.0
C778 C 0.69826 0.23835 0.684 0.0
C779 C 0.65143 0.20844 0.63823 0.0
N780 N 0.6241 0.27649 0.71802 0.0
N781 N 0.62742 0.23373 0.65214 0.0
H782 H 0.73219 0.28694 0.16873 0.0
H783 H 0.96817 0.16374 0.17853 0.0
H784 H 0.86983 0.30802 0.12088 0.0
H785 H 0.8912 0.19921 0.25249 0.0
H786 H 0.92416 0.20734 0.15177 0.0
H787 H 0.77916 0.24261 0.19379 0.0
C788 C 0.77225 0.28185 0.16346 0.0
C789 C 0.79777 0.30106 0.14319 0.0
C790 C 0.91655 0.20506 0.17382 0.0
C791 C 0.851 0.25083 0.17116 0.0
C792 C 0.94148 0.18022 0.18918 0.0
C793 C 0.93156 0.17662 0.21778 0.0
C794 C 0.88048 0.22578 0.18696 0.0
C795 C 0.89761 0.19944 0.23036 0.0
C796 C 0.79892 0.25692 0.17774 0.0
C797 C 0.8493 0.29354 0.13651 0.0
N798 N 0.87249 0.22268 0.21476 0.0
N799 N 0.87453 0.26887 0.15056 0.0
H800 H 0.75322 0.73991 0.63457 0.0
H801 H 0.99998 0.79394 0.72612 0.0
H802 H 0.87225 0.67078 0.65952 0.0
H803 H 0.86986 0.85903 0.71046 0.0
H804 H 0.95692 0.74947 0.6993 0.0
H805 H 0.79943 0.78545 0.65887 0.0
C806 C 0.78954 0.73463 0.64498 0.0
C807 C 0.80948 0.70197 0.64508 0.0
C808 C 0.93784 0.7735 0.70164 0.0
C809 C 0.86187 0.75324 0.67329 0.0
C810 C 0.96241 0.79886 0.71689 0.0
C811 C 0.93839 0.83012 0.72039 0.0
C812 C 0.88919 0.77963 0.68954 0.0
C813 C 0.88949 0.83516 0.70835 0.0
C814 C 0.81567 0.76039 0.65898 0.0
C815 C 0.85604 0.69583 0.6591 0.0
N816 N 0.86659 0.8102 0.69331 0.0
N817 N 0.88076 0.72127 0.67273 0.0
H818 H 0.75039 0.80394 0.17709 0.0
H819 H 0.54803 0.65336 0.17509 0.0
H820 H 0.63223 0.80191 0.11372 0.0
H821 H 0.59652 0.70231 0.25071 0.0
H822 H 0.58787 0.70002 0.14855 0.0
H823 H 0.70525 0.75813 0.20125 0.0
C824 C 0.7149 0.7938 0.16827 0.0
C825 C 0.69503 0.80679 0.14341 0.0
C826 C 0.58989 0.70018 0.171 0.0
C827 C 0.64418 0.75349 0.17037 0.0
C828 C 0.5674 0.67359 0.18617 0.0
C829 C 0.57054 0.67317 0.21534 0.0
C830 C 0.61645 0.72601 0.18515 0.0
C831 C 0.59516 0.70051 0.22846 0.0
C832 C 0.68935 0.76758 0.18195 0.0
C833 C 0.64949 0.79217 0.13249 0.0
N834 N 0.61776 0.72544 0.21335 0.0
N835 N 0.62563 0.76605 0.14597 0.0
H836 H 0.36189 0.79977 0.40635 0.0
H837 H 0.40924 0.70489 0.26533 0.0
H838 H 0.24726 0.79854 0.34114 0.0
H839 H 0.45263 0.65749 0.34264 0.0
H840 H 0.36346 0.74805 0.29154 0.0
H841 H 0.40846 0.75428 0.38242 0.0
C842 C 0.34648 0.78977 0.38712 0.0
C843 C 0.30117 0.80309 0.37543 0.0
C844 C 0.38296 0.72808 0.30266 0.0
C845 C 0.35464 0.75246 0.34776 0.0
C846 C 0.4089 0.70336 0.28778 0.0
C847 C 0.43349 0.67689 0.30176 0.0
C848 C 0.38303 0.72699 0.33174 0.0
C849 C 0.43349 0.67711 0.33096 0.0
C850 C 0.37306 0.76409 0.37348 0.0
C851 C 0.28284 0.78955 0.35038 0.0
N852 N 0.40869 0.70188 0.34505 0.0
N853 N 0.31003 0.76529 0.33714 0.0
H854 H 0.25942 0.73532 0.88904 0.0
H855 H 0.03322 0.78809 0.78418 0.0
H856 H 0.13421 0.66853 0.86599 0.0
H857 H 0.13376 0.86037 0.82427 0.0
H858 H 0.07313 0.743 0.81163 0.0
H859 H 0.21682 0.7812 0.86381 0.0
C860 C 0.22251 0.73059 0.87893 0.0
C861 C 0.20016 0.69833 0.87938 0.0
C862 C 0.08667 0.76868 0.81436 0.0
C863 C 0.15177 0.7501 0.85011 0.0
C864 C 0.06414 0.79425 0.79862 0.0
C865 C 0.08042 0.82767 0.80224 0.0
C866 C 0.12653 0.77666 0.83328 0.0
C867 C 0.12024 0.83474 0.82117 0.0
C868 C 0.19838 0.75659 0.86442 0.0
C869 C 0.15278 0.69308 0.86569 0.0
N870 N 0.14225 0.80938 0.83592 0.0
N871 N 0.13023 0.71865 0.85143 0.0
loop_
_geom_bond_atom_site_label_1
_geom_bond_atom_site_label_2
_geom_bond_distance
_geom_bond_site_symmetry_2
_ccdc_geom_bond_type
C0 N1 1.317 . S
C0 N2 1.348 . S
C0 C3 1.485 . S
N1 C0 1.317 . S
N1 N5 1.370 . S
N2 C0 1.348 . S
N2 C4 1.346 . S
C3 C0 1.485 . S
C3 H7 0.960 . S
C3 H8 0.961 . S
C3 H9 0.960 . S
C4 N2 1.346 . S
C4 N5 1.307 . S
C4 C6 1.486 . S
N5 N1 1.370 . S
N5 C4 1.307 . S
C6 C4 1.486 . S
C6 H10 0.960 . S
C6 H11 0.960 . S
C6 H12 0.959 . S
H7 C3 0.960 . S
H8 C3 0.961 . S
H9 C3 0.960 . S
H10 C6 0.960 . S
H11 C6 0.960 . S
H12 C6 0.959 . S
C13 N14 1.317 . S
C13 N15 1.348 . S
C13 C16 1.485 . S
N14 C13 1.317 . S
N14 N18 1.370 . S
N15 C13 1.348 . S
N15 C17 1.346 . S
C16 C13 1.485 . S
C16 H20 0.960 . S
C16 H21 0.961 . S
C16 H22 0.960 . S
C17 N15 1.346 . S
C17 N18 1.307 . S
C17 C19 1.486 . S
N18 N14 1.370 . S
N18 C17 1.307 . S
C19 C17 1.486 . S
C19 H23 0.960 . S
C19 H24 0.960 . S
C19 H25 0.959 . S
H20 C16 0.960 . S
H21 C16 0.961 . S
H22 C16 0.960 . S
H23 C19 0.960 . S
H24 C19 0.960 . S
H25 C19 0.959 . S
C26 N27 1.317 . S
C26 N28 1.348 . S
C26 C29 1.485 . S
N27 C26 1.317 . S
N27 N31 1.370 . S
N28 C26 1.348 . S
N28 C30 1.346 . S
C29 C26 1.485 . S
C29 H33 0.960 . S
C29 H34 0.961 . S
C29 H35 0.960 . S
C30 N28 1.346 . S
C30 N31 1.307 . S
C30 C32 1.486 . S
N31 N27 1.370 . S
N31 C30 1.307 . S
C32 C30 1.486 . S
C32 H36 0.960 . S
C32 H37 0.960 . S
C32 H38 0.959 . S
H33 C29 0.960 . S
H34 C29 0.961 . S
H35 C29 0.960 . S
H36 C32 0.960 . S
H37 C32 0.960 . S
H38 C32 0.959 . S
C39 N40 1.317 . S
C39 N41 1.348 . S
C39 C42 1.485 . S
N40 C39 1.317 . S
N40 N44 1.370 . S
N41 C39 1.348 . S
N41 C43 1.346 . S
C42 C39 1.485 . S
C42 H46 0.960 . S
C42 H47 0.961 . S
C42 H48 0.960 . S
C43 N41 1.346 . S
C43 N44 1.307 . S
C43 C45 1.486 . S
N44 N40 1.370 . S
N44 C43 1.307 . S
C45 C43 1.486 . S
C45 H49 0.960 . S
C45 H50 0.960 . S
C45 H51 0.959 . S
H46 C42 0.960 . S
H47 C42 0.961 . S
H48 C42 0.960 . S
H49 C45 0.960 . S
H50 C45 0.960 . S
H51 C45 0.959 . S
C52 N53 1.317 . S
C52 N54 1.348 . S
C52 C55 1.485 . S
N53 C52 1.317 . S
N53 N57 1.370 . S
N54 C52 1.348 . S
N54 C56 1.346 . S
C55 C52 1.485 . S
C55 H59 0.960 . S
C55 H60 0.961 . S
C55 H61 0.960 . S
C56 N54 1.346 . S
C56 N57 1.307 . S
C56 C58 1.486 . S
N57 N53 1.370 . S
N57 C56 1.307 . S
C58 C56 1.486 . S
C58 H62 0.960 . S
C58 H63 0.960 . S
C58 H64 0.959 . S
H59 C55 0.960 . S
H60 C55 0.961 . S
H61 C55 0.960 . S
H62 C58 0.960 . S
H63 C58 0.960 . S
H64 C58 0.959 . S
C65 N66 1.317 . S
C65 N67 1.348 . S
C65 C68 1.485 . S
N66 C65 1.317 . S
N66 N70 1.370 . S
N67 C65 1.348 . S
N67 C69 1.346 . S
C68 C65 1.485 . S
C68 H72 0.960 . S
C68 H73 0.961 . S
C68 H74 0.960 . S
C69 N67 1.346 . S
C69 N70 1.307 . S
C69 C71 1.486 . S
N70 N66 1.370 . S
N70 C69 1.307 . S
C71 C69 1.486 . S
C71 H75 0.960 . S
C71 H76 0.960 . S
C71 H77 0.959 . S
H72 C68 0.960 . S
H73 C68 0.961 . S
H74 C68 0.960 . S
H75 C71 0.960 . S
H76 C71 0.960 . S
H77 C71 0.959 . S
C78 N79 1.317 . S
C78 N80 1.348 . S
C78 C81 1.485 . S
N79 C78 1.317 . S
N79 N83 1.370 . S
N80 C78 1.348 . S
N80 C82 1.346 . S
C81 C78 1.485 . S
C81 H85 0.960 . S
C81 H86 0.961 . S
C81 H87 0.960 . S
C82 N80 1.346 . S
C82 N83 1.307 . S
C82 C84 1.486 . S
N83 N79 1.370 . S
N83 C82 1.307 . S
C84 C82 1.486 . S
C84 H88 0.960 . S
C84 H89 0.960 . S
C84 H90 0.959 . S
H85 C81 0.960 . S
H86 C81 0.961 . S
H87 C81 0.960 . S
H88 C84 0.960 . S
H89 C84 0.960 . S
H90 C84 0.959 . S
C91 N92 1.317 . S
C91 N93 1.348 . S
C91 C94 1.485 . S
N92 C91 1.317 . S
N92 N96 1.370 . S
N93 C91 1.348 . S
N93 C95 1.346 . S
C94 C91 1.485 . S
C94 H98 0.960 . S
C94 H99 0.961 . S
C94 H100 0.960 . S
C95 N93 1.346 . S
C95 N96 1.307 . S
C95 C97 1.486 . S
N96 N92 1.370 . S
N96 C95 1.307 . S
C97 C95 1.486 . S
C97 H101 0.960 . S
C97 H102 0.960 . S
C97 H103 0.959 . S
H98 C94 0.960 . S
H99 C94 0.961 . S
H100 C94 0.960 . S
H101 C97 0.960 . S
H102 C97 0.960 . S
H103 C97 0.959 . S
Eu104 N133 2.600 . S
Eu104 N139 2.562 . S
Eu104 O148 2.462 . S
Eu104 O149 2.373 . S
Eu104 O151 2.432 . S
Eu104 O152 2.274 1_455 S
Eu104 O156 2.331 1_455 S
Eu104 O159 2.372 . S
Eu104 C168 2.787 . S
C105 N106 1.365 . S
C105 C108 1.405 . S
C105 C112 1.448 . S
N106 C105 1.365 . S
N106 C109 1.319 . S
N106 Eu115 2.600 . S
C107 C109 1.397 . S
C107 C110 1.367 . S
C107 H127 0.931 . S
C108 C105 1.405 . S
C108 C110 1.403 . S
C108 C114 1.439 . S
C109 N106 1.319 . S
C109 C107 1.397 . S
C109 H120 0.930 . S
C110 C107 1.367 . S
C110 C108 1.403 . S
C110 H131 0.929 . S
C111 C112 1.430 . S
C111 C113 1.387 . S
C111 C117 1.404 1_545 S
C112 C105 1.448 . S
C112 C111 1.430 . S
C112 N116 1.351 . S
C113 C111 1.387 . S
C113 C114 1.374 . S
C113 H128 0.931 1_545 S
C114 C108 1.439 . S
C114 C113 1.374 . S
C114 H129 0.931 . S
Eu115 N106 2.600 . S
Eu115 N116 2.562 . S
Eu115 O150 2.335 1_655 S
Eu115 O153 2.372 . S
Eu115 O154 2.462 . S
Eu115 O155 2.373 . S
Eu115 O157 2.432 . S
Eu115 O158 2.291 1_655 S
Eu115 C179 2.787 . S
N116 C112 1.351 . S
N116 Eu115 2.562 . S
N116 C118 1.325 . S
C117 C111 1.404 1_565 S
C117 C119 1.366 . S
C117 H125 0.930 . S
C118 N116 1.325 . S
C118 C119 1.416 1_545 S
C118 H124 0.929 . S
C119 C117 1.366 . S
C119 C118 1.416 1_565 S
C119 H121 0.930 . S
H120 C109 0.930 . S
H121 C119 0.930 . S
H122 C137 0.930 . S
H123 C144 0.930 . S
H124 C118 0.929 . S
H125 C117 0.930 . S
H126 C140 0.929 . S
H127 C107 0.931 . S
H128 C113 0.931 1_565 S
H129 C114 0.931 . S
H130 C135 0.931 . S
H131 C110 0.929 . S
H132 C143 0.930 . S
N133 Eu104 2.600 . S
N133 C134 1.365 . S
N133 C137 1.319 . S
C134 N133 1.365 . S
C134 C136 1.405 . S
C134 C142 1.448 . S
C135 H130 0.931 . S
C135 C137 1.397 . S
C135 C138 1.367 . S
C136 C134 1.405 . S
C136 C138 1.403 . S
C136 C169 1.439 . S
C137 H122 0.930 . S
C137 N133 1.319 . S
C137 C135 1.397 . S
C138 C135 1.367 . S
C138 C136 1.403 . S
C138 H145 0.929 . S
N139 Eu104 2.562 . S
N139 C140 1.325 . S
N139 C142 1.351 . S
C140 H126 0.929 . S
C140 N139 1.325 . S
C140 C144 1.416 . S
C141 C142 1.430 . S
C141 C143 1.404 . S
C141 C170 1.387 . S
C142 C134 1.448 . S
C142 N139 1.351 . S
C142 C141 1.430 . S
C143 H132 0.930 . S
C143 C141 1.404 . S
C143 C144 1.366 . S
C144 H123 0.930 . S
C144 C140 1.416 . S
C144 C143 1.366 . S
H145 C138 0.929 . S
H146 C169 0.931 . S
H147 C170 0.931 . S
O148 Eu104 2.462 . S
O148 C168 1.252 . S
O149 Eu104 2.373 . S
O149 C160 1.249 . S
O150 Eu115 2.335 1_455 S
O150 C160 1.264 . S
O151 Eu104 2.432 . S
O151 C168 1.268 . S
O152 Eu104 2.274 1_655 S
O152 C167 1.275 . S
O153 Eu115 2.372 . S
O153 C167 1.257 . S
O154 Eu115 2.462 . S
O154 C179 1.252 . S
O155 Eu115 2.373 . S
O155 C171 1.249 . S
O156 Eu104 2.331 1_655 S
O156 C171 1.269 . S
O157 Eu115 2.432 . S
O157 C179 1.268 . S
O158 Eu115 2.291 1_455 S
O158 C178 1.255 . S
O159 Eu104 2.372 . S
O159 C178 1.257 . S
C160 O149 1.249 . S
C160 O150 1.264 . S
C161 C164 1.382 . S
C161 C166 1.390 . S
C161 C168 1.506 . S
C162 C163 1.398 . S
C162 C166 1.392 . S
C163 C162 1.398 . S
C163 C165 1.372 . S
C163 H180 0.931 . S
C164 C161 1.382 . S
C164 C165 1.390 . S
C164 H181 0.931 . S
C165 C163 1.372 . S
C165 C164 1.390 . S
C165 H182 0.929 . S
C166 C161 1.390 . S
C166 C162 1.392 . S
C166 H183 0.930 . S
C167 O152 1.275 . S
C167 O153 1.257 . S
C168 Eu104 2.787 . S
C168 O148 1.252 . S
C168 O151 1.268 . S
C168 C161 1.506 . S
C169 C136 1.439 . S
C169 H146 0.931 . S
C169 C170 1.374 . S
C170 C141 1.387 . S
C170 H147 0.931 . S
C170 C169 1.374 . S
C171 O155 1.249 . S
C171 O156 1.269 . S
C172 C175 1.382 . S
C172 C176 1.390 . S
C172 C179 1.506 . S
C173 C174 1.398 . S
C173 C176 1.392 . S
C174 C173 1.398 . S
C174 C177 1.372 . S
C174 H184 0.931 . S
C175 C172 1.382 . S
C175 C177 1.390 . S
C175 H185 0.931 . S
C176 C172 1.390 . S
C176 C173 1.392 . S
C176 H186 0.930 . S
C177 C174 1.372 . S
C177 C175 1.390 . S
C177 H187 0.929 . S
C178 O158 1.255 . S
C178 O159 1.257 . S
C179 Eu115 2.787 . S
C179 O154 1.252 . S
C179 O157 1.268 . S
C179 C172 1.506 . S
H180 C163 0.931 . S
H181 C164 0.931 . S
H182 C165 0.929 . S
H183 C166 0.930 . S
H184 C174 0.931 . S
H185 C175 0.931 . S
H186 C176 0.930 . S
H187 C177 0.929 . S
Eu188 N217 2.600 . S
Eu188 N223 2.562 . S
Eu188 O232 2.462 . S
Eu188 O233 2.373 . S
Eu188 O235 2.432 . S
Eu188 O236 2.291 . S
Eu188 O240 2.335 . S
Eu188 O243 2.372 . S
Eu188 C252 2.787 . S
C189 N190 1.365 . S
C189 C192 1.405 . S
C189 C196 1.448 . S
N190 C189 1.365 . S
N190 C193 1.319 . S
N190 Eu199 2.600 . S
C191 C193 1.397 . S
C191 C194 1.367 . S
C191 H211 0.931 . S
C192 C189 1.405 . S
C192 C194 1.403 . S
C192 C198 1.439 . S
C193 N190 1.319 . S
C193 C191 1.397 . S
C193 H204 0.930 . S
C194 C191 1.367 . S
C194 C192 1.403 . S
C194 H215 0.929 . S
C195 C196 1.430 . S
C195 C197 1.387 . S
C195 C201 1.404 . S
C196 C189 1.448 . S
C196 C195 1.430 . S
C196 N200 1.351 . S
C197 C195 1.387 . S
C197 C198 1.374 . S
C197 H212 0.931 . S
C198 C192 1.439 . S
C198 C197 1.374 . S
C198 H213 0.931 . S
Eu199 N190 2.600 . S
Eu199 N200 2.562 . S
Eu199 O234 2.335 . S
Eu199 O237 2.372 . S
Eu199 O238 2.462 . S
Eu199 O239 2.373 . S
Eu199 O241 2.432 . S
Eu199 O242 2.291 . S
Eu199 C263 2.787 . S
N200 C196 1.351 . S
N200 Eu199 2.562 . S
N200 C202 1.325 . S
C201 C195 1.404 . S
C201 C203 1.366 . S
C201 H209 0.930 . S
C202 N200 1.325 . S
C202 C203 1.416 . S
C202 H208 0.929 . S
C203 C201 1.366 . S
C203 C202 1.416 . S
C203 H205 0.930 . S
H204 C193 0.930 . S
H205 C203 0.930 . S
H206 C221 0.930 . S
H207 C228 0.930 . S
H208 C202 0.929 . S
H209 C201 0.930 . S
H210 C224 0.929 . S
H211 C191 0.931 . S
H212 C197 0.931 . S
H213 C198 0.931 . S
H214 C219 0.931 . S
H215 C194 0.929 . S
H216 C227 0.930 . S
N217 Eu188 2.600 . S
N217 C218 1.365 . S
N217 C221 1.319 . S
C218 N217 1.365 . S
C218 C220 1.405 . S
C218 C226 1.448 . S
C219 H214 0.931 . S
C219 C221 1.397 . S
C219 C222 1.367 . S
C220 C218 1.405 . S
C220 C222 1.403 . S
C220 C253 1.439 . S
C221 H206 0.930 . S
C221 N217 1.319 . S
C221 C219 1.397 . S
C222 C219 1.367 . S
C222 C220 1.403 . S
C222 H229 0.929 . S
N223 Eu188 2.562 . S
N223 C224 1.325 . S
N223 C226 1.351 . S
C224 H210 0.929 . S
C224 N223 1.325 . S
C224 C228 1.416 . S
C225 C226 1.430 . S
C225 C227 1.404 . S
C225 C254 1.387 . S
C226 C218 1.448 . S
C226 N223 1.351 . S
C226 C225 1.430 . S
C227 H216 0.930 . S
C227 C225 1.404 . S
C227 C228 1.366 . S
C228 H207 0.930 . S
C228 C224 1.416 . S
C228 C227 1.366 . S
H229 C222 0.929 . S
H230 C253 0.931 . S
H231 C254 0.931 . S
O232 Eu188 2.462 . S
O232 C252 1.252 . S
O233 Eu188 2.373 . S
O233 C244 1.249 . S
O234 Eu199 2.335 . S
O234 C244 1.264 . S
O235 Eu188 2.432 . S
O235 C252 1.268 . S
O236 Eu188 2.291 . S
O236 C251 1.255 . S
O237 Eu199 2.372 . S
O237 C251 1.257 . S
O238 Eu199 2.462 . S
O238 C263 1.252 . S
O239 Eu199 2.373 . S
O239 C255 1.249 . S
O240 Eu188 2.335 . S
O240 C255 1.264 . S
O241 Eu199 2.432 . S
O241 C263 1.268 . S
O242 Eu199 2.291 . S
O242 C262 1.255 . S
O243 Eu188 2.372 . S
O243 C262 1.257 . S
C244 O233 1.249 . S
C244 O234 1.264 . S
C245 C248 1.382 . S
C245 C250 1.390 . S
C245 C252 1.506 . S
C246 C247 1.398 . S
C246 C250 1.392 . S
C247 C246 1.398 . S
C247 C249 1.372 . S
C247 H264 0.931 . S
C248 C245 1.382 . S
C248 C249 1.390 . S
C248 H265 0.931 . S
C249 C247 1.372 . S
C249 C248 1.390 . S
C249 H266 0.929 . S
C250 C245 1.390 . S
C250 C246 1.392 . S
C250 H267 0.930 . S
C251 O236 1.255 . S
C251 O237 1.257 . S
C252 Eu188 2.787 . S
C252 O232 1.252 . S
C252 O235 1.268 . S
C252 C245 1.506 . S
C253 C220 1.439 . S
C253 H230 0.931 . S
C253 C254 1.374 . S
C254 C225 1.387 . S
C254 H231 0.931 . S
C254 C253 1.374 . S
C255 O239 1.249 . S
C255 O240 1.264 . S
C256 C259 1.382 . S
C256 C260 1.390 . S
C256 C263 1.506 . S
C257 C258 1.398 . S
C257 C260 1.392 . S
C258 C257 1.398 . S
C258 C261 1.372 . S
C258 H268 0.931 . S
C259 C256 1.382 . S
C259 C261 1.390 . S
C259 H269 0.931 . S
C260 C256 1.390 . S
C260 C257 1.392 . S
C260 H270 0.930 . S
C261 C258 1.372 . S
C261 C259 1.390 . S
C261 H271 0.929 . S
C262 O242 1.255 . S
C262 O243 1.257 . S
C263 Eu199 2.787 . S
C263 O238 1.252 . S
C263 O241 1.268 . S
C263 C256 1.506 . S
H264 C247 0.931 . S
H265 C248 0.931 . S
H266 C249 0.929 . S
H267 C250 0.930 . S
H268 C258 0.931 . S
H269 C259 0.931 . S
H270 C260 0.930 . S
H271 C261 0.929 . S
Eu272 N301 2.600 . S
Eu272 N307 2.562 . S
Eu272 O316 2.462 . S
Eu272 O317 2.373 . S
Eu272 O319 2.432 . S
Eu272 O320 2.291 . S
Eu272 O324 2.335 . S
Eu272 O327 2.372 . S
Eu272 C336 2.787 . S
C273 N274 1.365 . S
C273 C276 1.405 . S
C273 C280 1.448 . S
N274 C273 1.365 . S
N274 C277 1.319 . S
N274 Eu283 2.600 . S
C275 C277 1.397 . S
C275 C278 1.367 . S
C275 H295 0.931 . S
C276 C273 1.405 . S
C276 C278 1.403 . S
C276 C282 1.439 . S
C277 N274 1.319 . S
C277 C275 1.397 . S
C277 H288 0.930 . S
C278 C275 1.367 . S
C278 C276 1.403 . S
C278 H299 0.929 . S
C279 C280 1.430 . S
C279 C281 1.387 . S
C279 C285 1.404 . S
C280 C273 1.448 . S
C280 C279 1.430 . S
C280 N284 1.351 . S
C281 C279 1.387 . S
C281 C282 1.374 . S
C281 H296 0.931 . S
C282 C276 1.439 . S
C282 C281 1.374 . S
C282 H297 0.931 . S
Eu283 N274 2.600 . S
Eu283 N284 2.562 . S
Eu283 O318 2.335 1_655 S
Eu283 O321 2.372 . S
Eu283 O322 2.462 . S
Eu283 O323 2.373 . S
Eu283 O325 2.432 . S
Eu283 O326 2.291 1_655 S
Eu283 C347 2.787 . S
N284 C280 1.351 . S
N284 Eu283 2.562 . S
N284 C286 1.325 . S
C285 C279 1.404 . S
C285 C287 1.366 . S
C285 H293 0.930 . S
C286 N284 1.325 . S
C286 C287 1.416 . S
C286 H292 0.929 . S
C287 C285 1.366 . S
C287 C286 1.416 . S
C287 H289 0.930 . S
H288 C277 0.930 . S
H289 C287 0.930 . S
H290 C305 0.930 . S
H291 C312 0.930 . S
H292 C286 0.929 . S
H293 C285 0.930 . S
H294 C308 0.929 . S
H295 C275 0.931 . S
H296 C281 0.931 . S
H297 C282 0.931 . S
H298 C303 0.931 . S
H299 C278 0.929 . S
H300 C311 0.930 . S
N301 Eu272 2.600 . S
N301 C302 1.365 . S
N301 C305 1.319 . S
C302 N301 1.365 . S
C302 C304 1.405 . S
C302 C310 1.448 . S
C303 H298 0.931 . S
C303 C305 1.397 . S
C303 C306 1.367 . S
C304 C302 1.405 . S
C304 C306 1.403 . S
C304 C337 1.439 . S
C305 H290 0.930 . S
C305 N301 1.319 . S
C305 C303 1.397 . S
C306 C303 1.367 . S
C306 C304 1.403 . S
C306 H313 0.929 . S
N307 Eu272 2.562 . S
N307 C308 1.325 . S
N307 C310 1.351 . S
C308 H294 0.929 . S
C308 N307 1.325 . S
C308 C312 1.416 1_565 S
C309 C310 1.430 . S
C309 C311 1.404 1_565 S
C309 C338 1.387 . S
C310 C302 1.448 . S
C310 N307 1.351 . S
C310 C309 1.430 . S
C311 H300 0.930 . S
C311 C309 1.404 1_545 S
C311 C312 1.366 . S
C312 H291 0.930 . S
C312 C308 1.416 1_545 S
C312 C311 1.366 . S
H313 C306 0.929 . S
H314 C337 0.931 . S
H315 C338 0.931 1_545 S
O316 Eu272 2.462 . S
O316 C336 1.252 . S
O317 Eu272 2.373 . S
O317 C328 1.249 . S
O318 Eu283 2.335 1_455 S
O318 C328 1.264 . S
O319 Eu272 2.432 . S
O319 C336 1.268 . S
O320 Eu272 2.291 . S
O320 C335 1.255 1_455 S
O321 Eu283 2.372 . S
O321 C335 1.257 . S
O322 Eu283 2.462 . S
O322 C347 1.252 . S
O323 Eu283 2.373 . S
O323 C339 1.249 . S
O324 Eu272 2.335 . S
O324 C339 1.264 1_455 S
O325 Eu283 2.432 . S
O325 C347 1.268 . S
O326 Eu283 2.291 1_455 S
O326 C346 1.255 . S
O327 Eu272 2.372 . S
O327 C346 1.257 . S
C328 O317 1.249 . S
C328 O318 1.264 . S
C329 C332 1.382 . S
C329 C334 1.390 . S
C329 C336 1.506 . S
C330 C331 1.398 . S
C330 C334 1.392 . S
C331 C330 1.398 . S
C331 C333 1.372 . S
C331 H348 0.931 . S
C332 C329 1.382 . S
C332 C333 1.390 . S
C332 H349 0.931 . S
C333 C331 1.372 . S
C333 C332 1.390 . S
C333 H350 0.929 . S
C334 C329 1.390 . S
C334 C330 1.392 . S
C334 H351 0.930 . S
C335 O320 1.255 1_655 S
C335 O321 1.257 . S
C336 Eu272 2.787 . S
C336 O316 1.252 . S
C336 O319 1.268 . S
C336 C329 1.506 . S
C337 C304 1.439 . S
C337 H314 0.931 . S
C337 C338 1.374 . S
C338 C309 1.387 . S
C338 H315 0.931 1_565 S
C338 C337 1.374 . S
C339 O323 1.249 . S
C339 O324 1.264 1_655 S
C340 C343 1.382 . S
C340 C344 1.390 . S
C340 C347 1.506 . S
C341 C342 1.398 . S
C341 C344 1.392 . S
C342 C341 1.398 . S
C342 C345 1.372 . S
C342 H352 0.931 . S
C343 C340 1.382 . S
C343 C345 1.390 . S
C343 H353 0.931 . S
C344 C340 1.390 . S
C344 C341 1.392 . S
C344 H354 0.930 . S
C345 C342 1.372 . S
C345 C343 1.390 . S
C345 H355 0.929 . S
C346 O326 1.255 . S
C346 O327 1.257 . S
C347 Eu283 2.787 . S
C347 O322 1.252 . S
C347 O325 1.268 . S
C347 C340 1.506 . S
H348 C331 0.931 . S
H349 C332 0.931 . S
H350 C333 0.929 . S
H351 C334 0.930 . S
H352 C342 0.931 . S
H353 C343 0.931 . S
H354 C344 0.930 . S
H355 C345 0.929 . S
Eu356 N385 2.600 . S
Eu356 N391 2.562 . S
Eu356 O400 2.462 . S
Eu356 O401 2.373 . S
Eu356 O403 2.432 . S
Eu356 O404 2.291 . S
Eu356 O408 2.335 . S
Eu356 O411 2.372 . S
Eu356 C420 2.787 . S
C357 N358 1.365 . S
C357 C360 1.405 . S
C357 C364 1.448 . S
N358 C357 1.365 . S
N358 C361 1.319 . S
N358 Eu367 2.600 . S
C359 C361 1.397 . S
C359 C362 1.367 . S
C359 H379 0.931 . S
C360 C357 1.405 . S
C360 C362 1.403 . S
C360 C366 1.439 . S
C361 N358 1.319 . S
C361 C359 1.397 . S
C361 H372 0.930 . S
C362 C359 1.367 . S
C362 C360 1.403 . S
C362 H383 0.929 . S
C363 C364 1.430 . S
C363 C365 1.387 . S
C363 C369 1.404 . S
C364 C357 1.448 . S
C364 C363 1.430 . S
C364 N368 1.351 . S
C365 C363 1.387 . S
C365 C366 1.374 . S
C365 H380 0.931 . S
C366 C360 1.439 . S
C366 C365 1.374 . S
C366 H381 0.931 . S
Eu367 N358 2.600 . S
Eu367 N368 2.562 . S
Eu367 O402 2.335 . S
Eu367 O405 2.372 . S
Eu367 O406 2.462 . S
Eu367 O407 2.373 . S
Eu367 O409 2.432 . S
Eu367 O410 2.291 . S
Eu367 C431 2.787 . S
N368 C364 1.351 . S
N368 Eu367 2.562 . S
N368 C370 1.325 . S
C369 C363 1.404 . S
C369 C371 1.366 . S
C369 H377 0.930 . S
C370 N368 1.325 . S
C370 C371 1.416 . S
C370 H376 0.929 . S
C371 C369 1.366 . S
C371 C370 1.416 . S
C371 H373 0.930 . S
H372 C361 0.930 . S
H373 C371 0.930 . S
H374 C389 0.930 . S
H375 C396 0.930 . S
H376 C370 0.929 . S
H377 C369 0.930 . S
H378 C392 0.929 . S
H379 C359 0.931 . S
H380 C365 0.931 . S
H381 C366 0.931 . S
H382 C387 0.931 . S
H383 C362 0.929 . S
H384 C395 0.930 . S
N385 Eu356 2.600 . S
N385 C386 1.365 . S
N385 C389 1.319 . S
C386 N385 1.365 . S
C386 C388 1.405 . S
C386 C394 1.448 . S
C387 H382 0.931 . S
C387 C389 1.397 . S
C387 C390 1.367 . S
C388 C386 1.405 . S
C388 C390 1.403 . S
C388 C421 1.439 . S
C389 H374 0.930 . S
C389 N385 1.319 . S
C389 C387 1.397 . S
C390 C387 1.367 . S
C390 C388 1.403 . S
C390 H397 0.929 . S
N391 Eu356 2.562 . S
N391 C392 1.325 . S
N391 C394 1.351 . S
C392 H378 0.929 . S
C392 N391 1.325 . S
C392 C396 1.416 . S
C393 C394 1.430 . S
C393 C395 1.404 . S
C393 C422 1.387 . S
C394 C386 1.448 . S
C394 N391 1.351 . S
C394 C393 1.430 . S
C395 H384 0.930 . S
C395 C393 1.404 . S
C395 C396 1.366 . S
C396 H375 0.930 . S
C396 C392 1.416 . S
C396 C395 1.366 . S
H397 C390 0.929 . S
H398 C421 0.931 . S
H399 C422 0.931 . S
O400 Eu356 2.462 . S
O400 C420 1.252 . S
O401 Eu356 2.373 . S
O401 C412 1.249 . S
O402 Eu367 2.335 . S
O402 C412 1.264 . S
O403 Eu356 2.432 . S
O403 C420 1.268 . S
O404 Eu356 2.291 . S
O404 C419 1.255 . S
O405 Eu367 2.372 . S
O405 C419 1.257 . S
O406 Eu367 2.462 . S
O406 C431 1.252 . S
O407 Eu367 2.373 . S
O407 C423 1.249 . S
O408 Eu356 2.335 . S
O408 C423 1.264 . S
O409 Eu367 2.432 . S
O409 C431 1.268 . S
O410 Eu367 2.291 . S
O410 C430 1.255 . S
O411 Eu356 2.372 . S
O411 C430 1.257 . S
C412 O401 1.249 . S
C412 O402 1.264 . S
C413 C416 1.382 . S
C413 C418 1.390 . S
C413 C420 1.506 . S
C414 C415 1.398 . S
C414 C418 1.392 . S
C415 C414 1.398 . S
C415 C417 1.372 . S
C415 H432 0.931 . S
C416 C413 1.382 . S
C416 C417 1.390 . S
C416 H433 0.931 . S
C417 C415 1.372 . S
C417 C416 1.390 . S
C417 H434 0.929 . S
C418 C413 1.390 . S
C418 C414 1.392 . S
C418 H435 0.930 . S
C419 O404 1.255 . S
C419 O405 1.257 . S
C420 Eu356 2.787 . S
C420 O400 1.252 . S
C420 O403 1.268 . S
C420 C413 1.506 . S
C421 C388 1.439 . S
C421 H398 0.931 . S
C421 C422 1.374 . S
C422 C393 1.387 . S
C422 H399 0.931 . S
C422 C421 1.374 . S
C423 O407 1.249 . S
C423 O408 1.264 . S
C424 C427 1.382 . S
C424 C428 1.390 . S
C424 C431 1.506 . S
C425 C426 1.398 . S
C425 C428 1.392 . S
C426 C425 1.398 . S
C426 C429 1.372 . S
C426 H436 0.931 . S
C427 C424 1.382 . S
C427 C429 1.390 . S
C427 H437 0.931 . S
C428 C424 1.390 . S
C428 C425 1.392 . S
C428 H438 0.930 . S
C429 C426 1.372 . S
C429 C427 1.390 . S
C429 H439 0.929 . S
C430 O410 1.255 . S
C430 O411 1.257 . S
C431 Eu367 2.787 . S
C431 O406 1.252 . S
C431 O409 1.268 . S
C431 C424 1.506 . S
H432 C415 0.931 . S
H433 C416 0.931 . S
H434 C417 0.929 . S
H435 C418 0.930 . S
H436 C426 0.931 . S
H437 C427 0.931 . S
H438 C428 0.930 . S
H439 C429 0.929 . S
H440 C446 0.930 . S
H441 C450 0.930 . S
H442 C455 0.929 . S
H443 C453 0.929 . S
H444 C448 0.929 . S
H445 C454 0.929 . S
C446 H440 0.930 . S
C446 C447 1.367 . S
C446 C454 1.378 . S
C447 C446 1.367 . S
C447 C455 1.433 . S
C448 H444 0.929 . S
C448 C450 1.378 . S
C448 C452 1.350 . S
C449 C452 1.463 . S
C449 C454 1.350 . S
C449 N457 1.427 . S
C450 H441 0.930 . S
C450 C448 1.378 . S
C450 C451 1.367 1_565 S
C451 C450 1.367 1_545 S
C451 C453 1.433 . S
C452 C448 1.350 . S
C452 C449 1.463 . S
C452 N456 1.427 1_565 S
C453 H443 0.929 . S
C453 C451 1.433 . S
C453 N456 1.384 . S
C454 H445 0.929 . S
C454 C446 1.378 . S
C454 C449 1.350 . S
C455 H442 0.929 . S
C455 C447 1.433 . S
C455 N457 1.384 . S
N456 C452 1.427 1_545 S
N456 C453 1.384 . S
N457 C449 1.427 . S
N457 C455 1.384 . S
H458 C464 0.930 . S
H459 C468 0.930 . S
H460 C473 0.929 . S
H461 C471 0.929 . S
H462 C466 0.929 . S
H463 C472 0.929 . S
C464 H458 0.930 . S
C464 C465 1.367 . S
C464 C472 1.378 . S
C465 C464 1.367 . S
C465 C473 1.433 . S
C466 H462 0.929 . S
C466 C468 1.378 . S
C466 C470 1.350 . S
C467 C470 1.463 . S
C467 C472 1.350 . S
C467 N475 1.427 . S
C468 H459 0.930 . S
C468 C466 1.378 . S
C468 C469 1.367 . S
C469 C468 1.367 . S
C469 C471 1.433 . S
C470 C466 1.350 . S
C470 C467 1.463 . S
C470 N474 1.427 . S
C471 H461 0.929 . S
C471 C469 1.433 . S
C471 N474 1.384 . S
C472 H463 0.929 . S
C472 C464 1.378 . S
C472 C467 1.350 . S
C473 H460 0.929 . S
C473 C465 1.433 . S
C473 N475 1.384 . S
N474 C470 1.427 . S
N474 C471 1.384 . S
N475 C467 1.427 . S
N475 C473 1.384 . S
H476 C482 0.930 . S
H477 C486 0.930 . S
H478 C491 0.929 . S
H479 C489 0.929 . S
H480 C484 0.929 . S
H481 C490 0.929 . S
C482 H476 0.930 . S
C482 C483 1.367 . S
C482 C490 1.378 . S
C483 C482 1.367 . S
C483 C491 1.433 . S
C484 H480 0.929 . S
C484 C486 1.378 . S
C484 C488 1.350 . S
C485 C488 1.463 . S
C485 C490 1.350 . S
C485 N493 1.427 . S
C486 H477 0.930 . S
C486 C484 1.378 . S
C486 C487 1.367 . S
C487 C486 1.367 . S
C487 C489 1.433 . S
C488 C484 1.350 . S
C488 C485 1.463 . S
C488 N492 1.427 . S
C489 H479 0.929 . S
C489 C487 1.433 . S
C489 N492 1.384 . S
C490 H481 0.929 . S
C490 C482 1.378 . S
C490 C485 1.350 . S
C491 H478 0.929 . S
C491 C483 1.433 . S
C491 N493 1.384 . S
N492 C488 1.427 . S
N492 C489 1.384 . S
N493 C485 1.427 . S
N493 C491 1.384 . S
H494 C500 0.930 . S
H495 C504 0.930 . S
H496 C509 0.929 . S
H497 C507 0.929 . S
H498 C502 0.929 . S
H499 C508 0.929 . S
C500 H494 0.930 . S
C500 C501 1.367 . S
C500 C508 1.378 . S
C501 C500 1.367 . S
C501 C509 1.433 . S
C502 H498 0.929 . S
C502 C504 1.378 . S
C502 C506 1.350 1_545 S
C503 C506 1.463 . S
C503 C508 1.350 . S
C503 N511 1.427 . S
C504 H495 0.930 . S
C504 C502 1.378 . S
C504 C505 1.367 . S
C505 C504 1.367 . S
C505 C507 1.433 1_545 S
C506 C502 1.350 1_565 S
C506 C503 1.463 . S
C506 N510 1.427 . S
C507 H497 0.929 . S
C507 C505 1.433 1_565 S
C507 N510 1.384 . S
C508 H499 0.929 . S
C508 C500 1.378 . S
C508 C503 1.350 . S
C509 H496 0.929 . S
C509 C501 1.433 . S
C509 N511 1.384 . S
N510 C506 1.427 . S
N510 C507 1.384 . S
N511 C503 1.427 . S
N511 C509 1.384 . S
H512 C518 0.930 . S
H513 C522 0.930 . S
H514 C527 0.929 . S
H515 C525 0.929 . S
H516 C520 0.929 . S
H517 C526 0.929 . S
C518 H512 0.930 . S
C518 C519 1.367 . S
C518 C526 1.378 . S
C519 C518 1.367 . S
C519 C527 1.433 . S
C520 H516 0.929 . S
C520 C522 1.378 . S
C520 C524 1.350 . S
C521 C524 1.463 . S
C521 C526 1.350 . S
C521 N529 1.427 . S
C522 H513 0.930 . S
C522 C520 1.378 . S
C522 C523 1.367 1_545 S
C523 C522 1.367 1_565 S
C523 C525 1.433 . S
C524 C520 1.350 . S
C524 C521 1.463 . S
C524 N528 1.427 1_545 S
C525 H515 0.929 . S
C525 C523 1.433 . S
C525 N528 1.384 . S
C526 H517 0.929 . S
C526 C518 1.378 . S
C526 C521 1.350 . S
C527 H514 0.929 . S
C527 C519 1.433 . S
C527 N529 1.384 . S
N528 C524 1.427 1_565 S
N528 C525 1.384 . S
N529 C521 1.427 . S
N529 C527 1.384 . S
H530 C536 0.930 . S
H531 C540 0.930 . S
H532 C545 0.929 . S
H533 C543 0.929 . S
H534 C538 0.929 . S
H535 C544 0.929 . S
C536 H530 0.930 . S
C536 C537 1.367 . S
C536 C544 1.378 . S
C537 C536 1.367 . S
C537 C545 1.433 . S
C538 H534 0.929 . S
C538 C540 1.378 . S
C538 C542 1.350 . S
C539 C542 1.463 . S
C539 C544 1.350 . S
C539 N547 1.427 . S
C540 H531 0.930 . S
C540 C538 1.378 . S
C540 C541 1.367 . S
C541 C540 1.367 . S
C541 C543 1.433 . S
C542 C538 1.350 . S
C542 C539 1.463 . S
C542 N546 1.427 . S
C543 H533 0.929 . S
C543 C541 1.433 . S
C543 N546 1.384 . S
C544 H535 0.929 . S
C544 C536 1.378 . S
C544 C539 1.350 . S
C545 H532 0.929 . S
C545 C537 1.433 . S
C545 N547 1.384 . S
N546 C542 1.427 . S
N546 C543 1.384 . S
N547 C539 1.427 . S
N547 C545 1.384 . S
H548 C554 0.930 . S
H549 C558 0.930 . S
H550 C563 0.929 . S
H551 C561 0.929 . S
H552 C556 0.929 . S
H553 C562 0.929 . S
C554 H548 0.930 . S
C554 C555 1.367 . S
C554 C562 1.378 . S
C555 C554 1.367 . S
C555 C563 1.433 . S
C556 H552 0.929 . S
C556 C558 1.378 . S
C556 C560 1.350 . S
C557 C560 1.463 . S
C557 C562 1.350 . S
C557 N565 1.427 . S
C558 H549 0.930 . S
C558 C556 1.378 . S
C558 C559 1.367 . S
C559 C558 1.367 . S
C559 C561 1.433 . S
C560 C556 1.350 . S
C560 C557 1.463 . S
C560 N564 1.427 . S
C561 H551 0.929 . S
C561 C559 1.433 . S
C561 N564 1.384 . S
C562 H553 0.929 . S
C562 C554 1.378 . S
C562 C557 1.350 . S
C563 H550 0.929 . S
C563 C555 1.433 . S
C563 N565 1.384 . S
N564 C560 1.427 . S
N564 C561 1.384 . S
N565 C557 1.427 . S
N565 C563 1.384 . S
H566 C572 0.930 . S
H567 C576 0.932 . S
H568 C581 0.929 . S
H569 C579 0.929 . S
H570 C574 0.929 . S
H571 C580 0.929 . S
C572 H566 0.930 . S
C572 C573 1.367 . S
C572 C580 1.378 . S
C573 C572 1.367 . S
C573 C581 1.433 . S
C574 H570 0.929 . S
C574 C576 1.394 . S
C574 C578 1.350 . S
C575 C578 1.463 . S
C575 C580 1.350 . S
C575 N583 1.427 . S
C576 H567 0.932 . S
C576 C574 1.394 . S
C576 C577 1.350 1_545 S
C577 C576 1.350 1_565 S
C577 C579 1.433 . S
C578 C574 1.350 . S
C578 C575 1.463 . S
C578 N582 1.427 1_545 S
C579 H569 0.929 . S
C579 C577 1.433 . S
C579 N582 1.384 . S
C580 H571 0.929 . S
C580 C572 1.378 . S
C580 C575 1.350 . S
C581 H568 0.929 . S
C581 C573 1.433 . S
C581 N583 1.384 . S
N582 C578 1.427 1_565 S
N582 C579 1.384 . S
N583 C575 1.427 . S
N583 C581 1.384 . S
H584 C590 0.930 . S
H585 C594 0.930 . S
H586 C599 0.929 . S
H587 C597 0.929 . S
H588 C592 0.929 . S
H589 C598 0.929 1_554 S
C590 H584 0.930 . S
C590 C591 1.367 . S
C590 C598 1.378 . S
C591 C590 1.367 . S
C591 C599 1.433 . S
C592 H588 0.929 . S
C592 C594 1.378 . S
C592 C596 1.350 . S
C593 C596 1.463 1_556 S
C593 C598 1.350 . S
C593 N601 1.427 . S
C594 H585 0.930 . S
C594 C592 1.378 . S
C594 C595 1.367 . S
C595 C594 1.367 . S
C595 C597 1.433 . S
C596 C592 1.350 . S
C596 C593 1.463 1_554 S
C596 N600 1.427 . S
C597 H587 0.929 . S
C597 C595 1.433 . S
C597 N600 1.384 . S
C598 H589 0.929 1_556 S
C598 C590 1.378 . S
C598 C593 1.350 . S
C599 H586 0.929 . S
C599 C591 1.433 . S
C599 N601 1.384 . S
N600 C596 1.427 . S
N600 C597 1.384 . S
N601 C593 1.427 . S
N601 C599 1.384 . S
H602 C608 0.930 . S
H603 C612 0.930 . S
H604 C617 0.929 . S
H605 C615 0.929 . S
H606 C610 0.929 . S
H607 C616 0.929 . S
C608 H602 0.930 . S
C608 C609 1.367 . S
C608 C616 1.378 . S
C609 C608 1.367 . S
C609 C617 1.433 . S
C610 H606 0.929 . S
C610 C612 1.378 . S
C610 C614 1.350 . S
C611 C614 1.463 . S
C611 C616 1.350 . S
C611 N619 1.427 . S
C612 H603 0.930 . S
C612 C610 1.378 . S
C612 C613 1.367 . S
C613 C612 1.367 . S
C613 C615 1.433 . S
C614 C610 1.350 . S
C614 C611 1.463 . S
C614 N618 1.427 . S
C615 H605 0.929 . S
C615 C613 1.433 . S
C615 N618 1.384 . S
C616 H607 0.929 . S
C616 C608 1.378 . S
C616 C611 1.350 . S
C617 H604 0.929 . S
C617 C609 1.433 . S
C617 N619 1.384 . S
N618 C614 1.427 . S
N618 C615 1.384 . S
N619 C611 1.427 . S
N619 C617 1.384 . S
H620 C626 0.930 . S
H621 C630 0.930 . S
H622 C635 0.929 . S
H623 C633 0.929 . S
H624 C628 0.929 . S
H625 C634 0.929 . S
C626 H620 0.930 . S
C626 C627 1.367 . S
C626 C634 1.378 . S
C627 C626 1.367 . S
C627 C635 1.433 . S
C628 H624 0.929 . S
C628 C630 1.378 . S
C628 C632 1.350 . S
C629 C632 1.463 1_554 S
C629 C634 1.350 . S
C629 N637 1.427 . S
C630 H621 0.930 . S
C630 C628 1.378 . S
C630 C631 1.367 . S
C631 C630 1.367 . S
C631 C633 1.433 . S
C632 C628 1.350 . S
C632 C629 1.463 1_556 S
C632 N636 1.427 . S
C633 H623 0.929 . S
C633 C631 1.433 . S
C633 N636 1.384 . S
C634 H625 0.929 . S
C634 C626 1.378 . S
C634 C629 1.350 . S
C635 H622 0.929 . S
C635 C627 1.433 . S
C635 N637 1.384 . S
N636 C632 1.427 . S
N636 C633 1.384 . S
N637 C629 1.427 . S
N637 C635 1.384 . S
H638 C644 0.930 . S
H639 C648 0.930 . S
H640 C653 0.929 . S
H641 C651 0.929 . S
H642 C646 0.929 . S
H643 C652 0.929 . S
C644 H638 0.930 . S
C644 C645 1.367 . S
C644 C652 1.378 . S
C645 C644 1.367 . S
C645 C653 1.433 . S
C646 H642 0.929 . S
C646 C648 1.378 . S
C646 C650 1.350 . S
C647 C650 1.463 . S
C647 C652 1.350 . S
C647 N655 1.427 . S
C648 H639 0.930 . S
C648 C646 1.378 . S
C648 C649 1.367 . S
C649 C648 1.367 . S
C649 C651 1.433 . S
C650 C646 1.350 . S
C650 C647 1.463 . S
C650 N654 1.427 . S
C651 H641 0.929 . S
C651 C649 1.433 . S
C651 N654 1.384 . S
C652 H643 0.929 . S
C652 C644 1.378 . S
C652 C647 1.350 . S
C653 H640 0.929 . S
C653 C645 1.433 . S
C653 N655 1.384 . S
N654 C650 1.427 . S
N654 C651 1.384 . S
N655 C647 1.427 . S
N655 C653 1.384 . S
H656 C662 0.930 . S
H657 C666 0.930 . S
H658 C671 0.929 . S
H659 C669 0.929 . S
H660 C664 0.929 . S
H661 C670 0.929 . S
C662 H656 0.930 . S
C662 C663 1.367 . S
C662 C670 1.378 . S
C663 C662 1.367 . S
C663 C671 1.433 . S
C664 H660 0.929 . S
C664 C666 1.378 . S
C664 C668 1.350 . S
C665 C668 1.463 1_554 S
C665 C670 1.350 . S
C665 N673 1.427 . S
C666 H657 0.930 . S
C666 C664 1.378 . S
C666 C667 1.367 . S
C667 C666 1.367 . S
C667 C669 1.433 . S
C668 C664 1.350 . S
C668 C665 1.463 1_556 S
C668 N672 1.427 . S
C669 H659 0.929 . S
C669 C667 1.433 . S
C669 N672 1.384 . S
C670 H661 0.929 . S
C670 C662 1.378 . S
C670 C665 1.350 . S
C671 H658 0.929 . S
C671 C663 1.433 . S
C671 N673 1.384 . S
N672 C668 1.427 . S
N672 C669 1.384 . S
N673 C665 1.427 . S
N673 C671 1.384 . S
H674 C680 0.930 . S
H675 C684 0.930 . S
H676 C689 0.929 . S
H677 C687 0.929 . S
H678 C682 0.929 . S
H679 C688 0.929 . S
C680 H674 0.930 . S
C680 C681 1.367 . S
C680 C688 1.378 . S
C681 C680 1.367 . S
C681 C689 1.433 . S
C682 H678 0.929 . S
C682 C684 1.378 . S
C682 C686 1.350 . S
C683 C686 1.463 . S
C683 C688 1.350 . S
C683 N691 1.427 . S
C684 H675 0.930 . S
C684 C682 1.378 . S
C684 C685 1.367 . S
C685 C684 1.367 . S
C685 C687 1.433 . S
C686 C682 1.350 . S
C686 C683 1.463 . S
C686 N690 1.427 . S
C687 H677 0.929 . S
C687 C685 1.433 . S
C687 N690 1.384 . S
C688 H679 0.929 . S
C688 C680 1.378 . S
C688 C683 1.350 . S
C689 H676 0.929 . S
C689 C681 1.433 . S
C689 N691 1.384 . S
N690 C686 1.427 . S
N690 C687 1.384 . S
N691 C683 1.427 . S
N691 C689 1.384 . S
H692 C698 0.930 . S
H693 C702 0.930 . S
H694 C707 0.929 . S
H695 C705 0.929 . S
H696 C700 0.929 . S
H697 C706 0.929 . S
C698 H692 0.930 . S
C698 C699 1.367 . S
C698 C706 1.378 . S
C699 C698 1.367 . S
C699 C707 1.433 . S
C700 H696 0.929 . S
C700 C702 1.378 . S
C700 C704 1.350 . S
C701 C704 1.463 1_556 S
C701 C706 1.350 . S
C701 N709 1.427 . S
C702 H693 0.930 . S
C702 C700 1.378 . S
C702 C703 1.367 . S
C703 C702 1.367 . S
C703 C705 1.433 . S
C704 C700 1.350 . S
C704 C701 1.463 1_554 S
C704 N708 1.427 . S
C705 H695 0.929 . S
C705 C703 1.433 . S
C705 N708 1.384 . S
C706 H697 0.929 . S
C706 C698 1.378 . S
C706 C701 1.350 . S
C707 H694 0.929 . S
C707 C699 1.433 . S
C707 N709 1.384 . S
N708 C704 1.427 . S
N708 C705 1.384 . S
N709 C701 1.427 . S
N709 C707 1.384 . S
H710 C716 0.930 . S
H711 C720 0.930 . S
H712 C725 0.929 . S
H713 C723 0.929 . S
H714 C718 0.929 . S
H715 C724 0.929 . S
C716 H710 0.930 . S
C716 C717 1.367 . S
C716 C724 1.378 . S
C717 C716 1.367 . S
C717 C725 1.433 . S
C718 H714 0.929 . S
C718 C720 1.378 . S
C718 C722 1.350 . S
C719 C722 1.463 . S
C719 C724 1.350 . S
C719 N727 1.427 . S
C720 H711 0.930 . S
C720 C718 1.378 . S
C720 C721 1.367 . S
C721 C720 1.367 . S
C721 C723 1.433 . S
C722 C718 1.350 . S
C722 C719 1.463 . S
C722 N726 1.427 . S
C723 H713 0.929 . S
C723 C721 1.433 . S
C723 N726 1.384 . S
C724 H715 0.929 . S
C724 C716 1.378 . S
C724 C719 1.350 . S
C725 H712 0.929 . S
C725 C717 1.433 . S
C725 N727 1.384 . S
N726 C722 1.427 . S
N726 C723 1.384 . S
N727 C719 1.427 . S
N727 C725 1.384 . S
H728 C734 0.930 . S
H729 C738 0.930 . S
H730 C743 0.929 . S
H731 C741 0.929 . S
H732 C736 0.929 . S
H733 C742 0.929 . S
C734 H728 0.930 . S
C734 C735 1.367 . S
C734 C742 1.378 . S
C735 C734 1.367 . S
C735 C743 1.433 . S
C736 H732 0.929 . S
C736 C738 1.378 . S
C736 C740 1.350 . S
C737 C740 1.463 . S
C737 C742 1.350 . S
C737 N745 1.427 . S
C738 H729 0.930 . S
C738 C736 1.378 . S
C738 C739 1.367 . S
C739 C738 1.367 . S
C739 C741 1.433 . S
C740 C736 1.350 . S
C740 C737 1.463 . S
C740 N744 1.427 . S
C741 H731 0.929 . S
C741 C739 1.433 . S
C741 N744 1.384 . S
C742 H733 0.929 . S
C742 C734 1.378 . S
C742 C737 1.350 . S
C743 H730 0.929 . S
C743 C735 1.433 . S
C743 N745 1.384 . S
N744 C740 1.427 . S
N744 C741 1.384 . S
N745 C737 1.427 . S
N745 C743 1.384 . S
H746 C752 0.930 . S
H747 C756 0.930 . S
H748 C761 0.929 . S
H749 C759 0.929 . S
H750 C754 0.929 . S
H751 C760 0.929 . S
C752 H746 0.930 . S
C752 C753 1.367 . S
C752 C760 1.378 . S
C753 C752 1.367 . S
C753 C761 1.433 . S
C754 H750 0.929 . S
C754 C756 1.378 . S
C754 C758 1.350 . S
C755 C758 1.463 . S
C755 C760 1.350 . S
C755 N763 1.427 . S
C756 H747 0.930 . S
C756 C754 1.378 . S
C756 C757 1.367 . S
C757 C756 1.367 . S
C757 C759 1.433 . S
C758 C754 1.350 . S
C758 C755 1.463 . S
C758 N762 1.427 . S
C759 H749 0.929 . S
C759 C757 1.433 . S
C759 N762 1.384 . S
C760 H751 0.929 . S
C760 C752 1.378 . S
C760 C755 1.350 . S
C761 H748 0.929 . S
C761 C753 1.433 . S
C761 N763 1.384 . S
N762 C758 1.427 . S
N762 C759 1.384 . S
N763 C755 1.427 . S
N763 C761 1.384 . S
H764 C770 0.930 . S
H765 C774 0.930 . S
H766 C779 0.929 . S
H767 C777 0.929 . S
H768 C772 0.929 . S
H769 C778 0.929 . S
C770 H764 0.930 . S
C770 C771 1.367 . S
C770 C778 1.378 . S
C771 C770 1.367 . S
C771 C779 1.433 . S
C772 H768 0.929 . S
C772 C774 1.378 . S
C772 C776 1.350 . S
C773 C776 1.463 . S
C773 C778 1.350 . S
C773 N781 1.427 . S
C774 H765 0.930 . S
C774 C772 1.378 . S
C774 C775 1.367 . S
C775 C774 1.367 . S
C775 C777 1.433 . S
C776 C772 1.350 . S
C776 C773 1.463 . S
C776 N780 1.427 . S
C777 H767 0.929 . S
C777 C775 1.433 . S
C777 N780 1.384 . S
C778 H769 0.929 . S
C778 C770 1.378 . S
C778 C773 1.350 . S
C779 H766 0.929 . S
C779 C771 1.433 . S
C779 N781 1.384 . S
N780 C776 1.427 . S
N780 C777 1.384 . S
N781 C773 1.427 . S
N781 C779 1.384 . S
H782 C788 0.930 . S
H783 C792 0.930 . S
H784 C797 0.929 . S
H785 C795 0.929 . S
H786 C790 0.929 . S
H787 C796 0.929 . S
C788 H782 0.930 . S
C788 C789 1.367 . S
C788 C796 1.378 . S
C789 C788 1.367 . S
C789 C797 1.433 . S
C790 H786 0.929 . S
C790 C792 1.378 . S
C790 C794 1.350 . S
C791 C794 1.463 . S
C791 C796 1.350 . S
C791 N799 1.427 . S
C792 H783 0.930 . S
C792 C790 1.378 . S
C792 C793 1.367 . S
C793 C792 1.367 . S
C793 C795 1.433 . S
C794 C790 1.350 . S
C794 C791 1.463 . S
C794 N798 1.427 . S
C795 H785 0.929 . S
C795 C793 1.433 . S
C795 N798 1.384 . S
C796 H787 0.929 . S
C796 C788 1.378 . S
C796 C791 1.350 . S
C797 H784 0.929 . S
C797 C789 1.433 . S
C797 N799 1.384 . S
N798 C794 1.427 . S
N798 C795 1.384 . S
N799 C791 1.427 . S
N799 C797 1.384 . S
H800 C806 0.930 . S
H801 C810 0.930 . S
H802 C815 0.929 . S
H803 C813 0.929 . S
H804 C808 0.929 . S
H805 C814 0.929 . S
C806 H800 0.930 . S
C806 C807 1.367 . S
C806 C814 1.378 . S
C807 C806 1.367 . S
C807 C815 1.433 . S
C808 H804 0.929 . S
C808 C810 1.378 . S
C808 C812 1.350 . S
C809 C812 1.463 . S
C809 C814 1.350 . S
C809 N817 1.427 . S
C810 H801 0.930 . S
C810 C808 1.378 . S
C810 C811 1.367 . S
C811 C810 1.367 . S
C811 C813 1.433 . S
C812 C808 1.350 . S
C812 C809 1.463 . S
C812 N816 1.427 . S
C813 H803 0.929 . S
C813 C811 1.433 . S
C813 N816 1.384 . S
C814 H805 0.929 . S
C814 C806 1.378 . S
C814 C809 1.350 . S
C815 H802 0.929 . S
C815 C807 1.433 . S
C815 N817 1.384 . S
N816 C812 1.427 . S
N816 C813 1.384 . S
N817 C809 1.427 . S
N817 C815 1.384 . S
H818 C824 0.930 . S
H819 C828 0.930 . S
H820 C833 0.929 . S
H821 C831 0.929 . S
H822 C826 0.929 . S
H823 C832 0.929 . S
C824 H818 0.930 . S
C824 C825 1.367 . S
C824 C832 1.378 . S
C825 C824 1.367 . S
C825 C833 1.433 . S
C826 H822 0.929 . S
C826 C828 1.378 . S
C826 C830 1.350 . S
C827 C830 1.463 . S
C827 C832 1.350 . S
C827 N835 1.427 . S
C828 H819 0.930 . S
C828 C826 1.378 . S
C828 C829 1.367 . S
C829 C828 1.367 . S
C829 C831 1.433 . S
C830 C826 1.350 . S
C830 C827 1.463 . S
C830 N834 1.427 . S
C831 H821 0.929 . S
C831 C829 1.433 . S
C831 N834 1.384 . S
C832 H823 0.929 . S
C832 C824 1.378 . S
C832 C827 1.350 . S
C833 H820 0.929 . S
C833 C825 1.433 . S
C833 N835 1.384 . S
N834 C830 1.427 . S
N834 C831 1.384 . S
N835 C827 1.427 . S
N835 C833 1.384 . S
H836 C842 0.930 . S
H837 C846 0.930 . S
H838 C851 0.929 . S
H839 C849 0.929 . S
H840 C844 0.929 . S
H841 C850 0.929 . S
C842 H836 0.930 . S
C842 C843 1.367 . S
C842 C850 1.378 . S
C843 C842 1.367 . S
C843 C851 1.433 . S
C844 H840 0.929 . S
C844 C846 1.378 . S
C844 C848 1.350 . S
C845 C848 1.463 . S
C845 C850 1.350 . S
C845 N853 1.427 . S
C846 H837 0.930 . S
C846 C844 1.378 . S
C846 C847 1.367 . S
C847 C846 1.367 . S
C847 C849 1.433 . S
C848 C844 1.350 . S
C848 C845 1.463 . S
C848 N852 1.427 . S
C849 H839 0.929 . S
C849 C847 1.433 . S
C849 N852 1.384 . S
C850 H841 0.929 . S
C850 C842 1.378 . S
C850 C845 1.350 . S
C851 H838 0.929 . S
C851 C843 1.433 . S
C851 N853 1.384 . S
N852 C848 1.427 . S
N852 C849 1.384 . S
N853 C845 1.427 . S
N853 C851 1.384 . S
H854 C860 0.930 . S
H855 C864 0.930 . S
H856 C869 0.929 . S
H857 C867 0.929 . S
H858 C862 0.929 . S
H859 C868 0.929 . S
C860 H854 0.930 . S
C860 C861 1.367 . S
C860 C868 1.378 . S
C861 C860 1.367 . S
C861 C869 1.433 . S
C862 H858 0.929 . S
C862 C864 1.378 . S
C862 C866 1.350 . S
C863 C866 1.463 . S
C863 C868 1.350 . S
C863 N871 1.427 . S
C864 H855 0.930 . S
C864 C862 1.378 . S
C864 C865 1.367 . S
C865 C864 1.367 . S
C865 C867 1.433 . S
C866 C862 1.350 . S
C866 C863 1.463 . S
C866 N870 1.427 . S
C867 H857 0.929 . S
C867 C865 1.433 . S
C867 N870 1.384 . S
C868 H859 0.929 . S
C868 C860 1.378 . S
C868 C863 1.350 . S
C869 H856 0.929 . S
C869 C861 1.433 . S
C869 N871 1.384 . S
N870 C866 1.427 . S
N870 C867 1.384 . S
N871 C863 1.427 . S
N871 C869 1.384 . S
C447 N83 1.643 . S
C451 C178 1.638 . S
C469 C262 1.638 . S
C465 N96 1.643 . S
C487 C255 1.654 . S
C483 N57 1.634 . S
C501 N70 1.628 . S
C505 C171 1.651 . S
C523 C335 1.639 . S
C519 N31 1.643 . S
C541 C419 1.643 . S
C537 N44 1.638 . S
C555 N5 1.630 . S
C559 C412 1.650 . S
C573 N18 1.638 . S
C577 C328 1.653 . S
C595 C162 1.460 . S
C591 N14 1.614 . S
C613 C246 1.453 . S
C609 N1 1.614 . S
C631 C257 1.376 . S
C627 N40 1.619 . S
C649 C173 1.396 . S
C645 N27 1.616 . S
C667 C341 1.456 . S
C663 N66 1.610 . S
C681 N53 1.605 . S
C685 C425 1.442 . S
C703 C414 1.396 . S
C699 N92 1.606 . S
C717 N79 1.609 . S
C721 C330 1.402 . S
C739 C160 1.544 . S
C735 N2 1.542 . S
C757 C244 1.542 . S
C753 N15 1.543 . S
C771 N28 1.540 . S
C775 C251 1.520 . S
C793 C167 1.519 . S
C789 N41 1.540 . S
C811 C339 1.545 . S
C807 N54 1.538 . S
C825 N67 1.537 . S
C829 C423 1.543 . S
C843 N80 1.539 . S
C847 C430 1.511 . S
C861 N93 1.536 . S
C865 C346 1.514 . S
