# Generated by pormake.
# Topology anh, (6,3)-cn, num edge types: 1
# Building blocks:
#     Node 0, Type 0, BuildingBlock: BETGAK_clean_sbu_0, # of connection points: 6
#     Node 1, Type 0, BuildingBlock: BETGAK_clean_sbu_0, # of connection points: 6
#     Node 2, Type 0, BuildingBlock: BETGAK_clean_sbu_0, # of connection points: 6
#     Node 3, Type 1, BuildingBlock: BETDAH_clean_linker_0, # of connection points: 3
#     Node 4, Type 1, BuildingBlock: BETDAH_clean_linker_0, # of connection points: 3
#     Node 5, Type 1, BuildingBlock: BETDAH_clean_linker_0, # of connection points: 3
#     Node 6, Type 1, BuildingBlock: BETDAH_clean_linker_0, # of connection points: 3
#     Node 7, Type 1, BuildingBlock: BETDAH_clean_linker_0, # of connection points: 3
#     Node 8, Type 1, BuildingBlock: BETDAH_clean_linker_0, # of connection points: 3
#     Edge 9, Type (0, 1), BuildingBlock: EZIPEK_clean_linker_0, # of connection points: 2
#     Edge 10, Type (0, 1), BuildingBlock: EZIPEK_clean_linker_0, # of connection points: 2
#     Edge 11, Type (0, 1), BuildingBlock: EZIPEK_clean_linker_0, # of connection points: 2
#     Edge 12, Type (0, 1), BuildingBlock: EZIPEK_clean_linker_0, # of connection points: 2
#     Edge 13, Type (0, 1), BuildingBlock: EZIPEK_clean_linker_0, # of connection points: 2
#     Edge 14, Type (0, 1), BuildingBlock: EZIPEK_clean_linker_0, # of connection points: 2
#     Edge 15, Type (0, 1), BuildingBlock: EZIPEK_clean_linker_0, # of connection points: 2
#     Edge 16, Type (0, 1), BuildingBlock: EZIPEK_clean_linker_0, # of connection points: 2
#     Edge 17, Type (0, 1), BuildingBlock: EZIPEK_clean_linker_0, # of connection points: 2
#     Edge 18, Type (0, 1), BuildingBlock: EZIPEK_clean_linker_0, # of connection points: 2
#     Edge 19, Type (0, 1), BuildingBlock: EZIPEK_clean_linker_0, # of connection points: 2
#     Edge 20, Type (0, 1), BuildingBlock: EZIPEK_clean_linker_0, # of connection points: 2
#     Edge 21, Type (0, 1), BuildingBlock: EZIPEK_clean_linker_0, # of connection points: 2
#     Edge 22, Type (0, 1), BuildingBlock: EZIPEK_clean_linker_0, # of connection points: 2
#     Edge 23, Type (0, 1), BuildingBlock: EZIPEK_clean_linker_0, # of connection points: 2
#     Edge 24, Type (0, 1), BuildingBlock: EZIPEK_clean_linker_0, # of connection points: 2
#     Edge 25, Type (0, 1), BuildingBlock: EZIPEK_clean_linker_0, # of connection points: 2
#     Edge 26, Type (0, 1), BuildingBlock: EZIPEK_clean_linker_0, # of connection points: 2
# Relax obj value: 0.217
# Max RMSD: 0.212
# Mean RMSD: 0.121
data_MOF--net-anh--node1-BETGAK_clean_sbu_0--node2-BETDAH_clean_linker_0--edge1-EZIPEK_clean_linker_0
_symmetry_space_group_name_H-M    P1
_symmetry_Int_Tables_number       1
_symmetry_cell_setting            triclinic
loop_
_symmetry_equiv_pos_as_xyz
'x, y, z'
_cell_length_a     24.614651
_cell_length_b     29.845384
_cell_length_c     36.380004
_cell_angle_alpha  93.825082
_cell_angle_beta   91.621499
_cell_angle_gamma 132.67855
loop_
_atom_site_label
_atom_site_type_symbol
_atom_site_fract_x
_atom_site_fract_y
_atom_site_fract_z
_atom_type_partial_charge
La0 La 0.18609 0.57805 0.14565 0.0
La1 La 0.0918 0.60732 0.16777 0.0
C2 C 0.23607 0.54567 0.104 0.0
C3 C 0.22931 0.49297 0.10084 0.0
C4 C 0.28018 0.49591 0.08192 0.0
C5 C 0.27599 0.44681 0.08001 0.0
C6 C 0.2207 0.39436 0.09689 0.0
C7 C 0.16881 0.39081 0.11525 0.0
C8 C 0.17341 0.44017 0.11743 0.0
C9 C 0.1787 0.58072 0.21859 0.0
C10 C 0.26864 0.71946 0.1638 0.0
C11 C 1.03028 0.63575 0.2018 0.0
C12 C 0.9508 0.59668 0.20596 0.0
C13 C 0.91402 0.61376 0.19216 0.0
C14 C 0.83735 0.56943 0.18297 0.0
C15 C 0.79718 0.50798 0.18777 0.0
C16 C 0.83219 0.49236 0.20609 0.0
C17 C 0.90886 0.53654 0.21509 0.0
C18 C 0.08737 0.58168 0.09605 0.0
C19 C 1.01227 0.46688 0.1585 0.0
O20 O 0.17445 0.53301 0.09527 0.0
O21 O 0.2735 0.5837 0.13449 0.0
O22 O 0.21481 0.56956 0.20151 0.0
O23 O 0.14874 0.58733 0.19381 0.0
O24 O 0.2742 0.6796 0.15177 0.0
O25 O 0.20373 0.70066 0.17146 0.0
O26 O 1.04726 0.64722 0.16771 0.0
O27 O 1.0633 0.6208 0.21834 0.0
O28 O 1.03183 0.56782 0.11207 0.0
O29 O 0.14327 0.61212 0.11983 0.0
O30 O 1.00767 0.50749 0.16964 0.0
O31 O 1.07414 0.48431 0.1462 0.0
H32 H 0.32361 0.53642 0.06908 0.0
H33 H 0.31639 0.44994 0.0658 0.0
H34 H 0.1261 0.35058 0.1285 0.0
H35 H 0.13399 0.43741 0.13239 0.0
H36 H 0.94529 0.65978 0.18494 0.0
H37 H 0.81063 0.58193 0.16886 0.0
H38 H 0.80159 0.44497 0.20989 0.0
H39 H 0.93564 0.52196 0.22578 0.0
La40 La 0.72307 0.09887 0.47383 0.0
La41 La 0.62459 0.12165 0.46823 0.0
C42 C 0.78562 0.0648 0.49808 0.0
C43 C 0.76124 1.00763 0.50987 0.0
C44 C 0.78632 0.98184 0.49262 0.0
C45 C 0.76372 0.92753 0.50295 0.0
C46 C 0.71608 0.89836 0.53085 0.0
C47 C 0.69132 0.92414 0.54849 0.0
C48 C 0.71352 0.97836 0.53799 0.0
C49 C 0.69802 0.11045 0.40578 0.0
C50 C 0.5453 0.98252 0.46034 0.0
C51 C 0.56109 0.15944 0.45483 0.0
C52 C 0.57316 0.21153 0.47279 0.0
C53 C 0.61857 0.24314 0.50641 0.0
C54 C 0.62773 0.29097 0.5245 0.0
C55 C 0.59208 0.30816 0.50906 0.0
C56 C 0.54758 0.27715 0.47515 0.0
C57 C 0.53805 0.22897 0.45714 0.0
C58 C 0.6526 0.11157 0.53658 0.0
C59 C 0.80322 0.23692 0.47054 0.0
O60 O 0.77226 0.06371 0.46282 0.0
O61 O 0.772 0.09305 0.51901 0.0
O62 O 0.75898 0.12648 0.41952 0.0
O63 O 0.65046 0.08331 0.42909 0.0
O64 O 0.61184 1.00393 0.4717 0.0
O65 O 0.53909 0.02179 0.45242 0.0
O66 O 0.53607 0.1161 0.47564 0.0
O67 O 0.61525 0.1734 0.43695 0.0
O68 O 0.59189 0.09605 0.5238 0.0
O69 O 0.69763 0.13772 0.51232 0.0
O70 O 0.73504 0.21559 0.46607 0.0
O71 O 0.81321 0.19954 0.47696 0.0
H72 H 0.82323 1.00365 0.47101 0.0
H73 H 0.78331 0.90811 0.48914 0.0
H74 H 0.65438 0.902 0.57004 0.0
H75 H 0.69315 0.99711 0.55177 0.0
H76 H 0.64615 0.23024 0.51886 0.0
H77 H 0.66228 0.31443 0.5506 0.0
H78 H 0.51976 0.28993 0.46287 0.0
H79 H 0.50285 0.20504 0.43124 0.0
La80 La 0.65257 0.60621 0.86337 0.0
La81 La 0.55001 0.47756 0.8352 0.0
C82 C 0.74173 0.72119 0.86191 0.0
C83 C 0.72972 0.76098 0.84992 0.0
C84 C 0.77225 0.82099 0.86736 0.0
C85 C 0.76427 0.85975 0.85424 0.0
C86 C 0.71395 0.83939 0.82327 0.0
C87 C 0.67094 0.77924 0.80604 0.0
C88 C 0.67842 0.74042 0.8193 0.0
C89 C 0.58134 0.53186 0.91552 0.0
C90 C 0.47359 0.53681 0.85108 0.0
C91 C 0.48559 0.36735 0.81376 0.0
C92 C 0.50642 0.33098 0.81002 0.0
C93 C 0.4679 0.28133 0.78201 0.0
C94 C 0.49147 0.25043 0.77449 0.0
C95 C 0.55431 0.2687 0.79474 0.0
C96 C 0.59204 0.3175 0.82342 0.0
C97 C 0.56824 0.34837 0.83104 0.0
C98 C 0.58734 0.55179 0.78449 0.0
C99 C 0.73121 0.5488 0.85694 0.0
O100 O 0.71425 0.69508 0.89212 0.0
O101 O 0.72962 0.68273 0.83556 0.0
O102 O 0.60172 0.58492 0.91586 0.0
O103 O 0.60628 0.52468 0.88831 0.0
O104 O 0.54607 0.58949 0.85283 0.0
O105 O 0.46252 0.48514 0.84734 0.0
O106 O 0.51716 0.4107 0.79226 0.0
O107 O 0.48429 0.38597 0.84702 0.0
O108 O 0.52074 0.5007 0.78746 0.0
O109 O 0.62833 0.55888 0.81031 0.0
O110 O 0.661 0.49859 0.84193 0.0
O111 O 0.73981 0.59764 0.8692 0.0
H112 H 0.81237 0.83818 0.8908 0.0
H113 H 0.798 0.90595 0.86799 0.0
H114 H 0.63164 0.76239 0.78224 0.0
H115 H 0.64482 0.69449 0.80512 0.0
H116 H 0.42057 0.26746 0.76521 0.0
H117 H 0.46162 0.21306 0.75224 0.0
H118 H 0.64072 0.33242 0.83937 0.0
H119 H 0.59909 0.38657 0.85272 0.0
H120 H 0.5341 0.96864 0.25073 0.0
H121 H 0.71878 0.15541 0.23259 0.0
H122 H 0.56092 0.02169 0.14067 0.0
C123 C 0.56454 1.00308 0.23171 0.0
C124 C 0.53873 0.98614 0.19387 0.0
C125 C 0.62798 0.06369 0.24587 0.0
C126 C 0.66929 0.109 0.22158 0.0
C127 C 0.64604 0.09463 0.18343 0.0
C128 C 0.58003 0.03301 0.16988 0.0
N129 N 0.68679 0.14033 0.15809 0.0
C130 C 0.75138 0.2037 0.16588 0.0
H131 H 0.61302 0.48582 0.63557 0.0
H132 H 0.63812 0.6395 0.61595 0.0
H133 H 0.63126 0.535 0.52521 0.0
C134 C 0.61928 0.51533 0.61665 0.0
C135 C 0.62127 0.50472 0.57879 0.0
C136 C 0.62504 0.5638 0.63011 0.0
C137 C 0.63362 0.60218 0.60545 0.0
C138 C 0.63596 0.59173 0.56744 0.0
C139 C 0.62962 0.54305 0.5545 0.0
N140 N 0.6446 0.62871 0.54116 0.0
C141 C 0.65129 0.67854 0.54892 0.0
H142 H 0.97948 0.55637 0.93616 0.0
H143 H 0.14977 0.55189 0.92651 0.0
H144 H 1.03671 0.54115 0.82721 0.0
C145 C 1.01116 0.55369 0.91764 0.0
C146 C 0.99603 0.54946 0.8791 0.0
C147 C 1.06566 0.55524 0.93403 0.0
C148 C 0.10938 0.55077 0.91249 0.0
C149 C 0.1026 0.54533 0.87366 0.0
C150 C 1.04403 0.54463 0.85704 0.0
N151 N 0.15245 0.54113 0.85236 0.0
C152 C 0.21345 0.54101 0.8597 0.0
H153 H 0.29845 0.72689 0.37347 0.0
H154 H 0.11377 0.54074 0.39321 0.0
H155 H 0.23741 0.68614 0.48428 0.0
C156 C 0.26283 0.69417 0.39271 0.0
C157 C 0.27678 0.71507 0.43054 0.0
C158 C 0.20442 0.63199 0.37901 0.0
C159 C 0.15816 0.5887 0.40378 0.0
C160 C 0.16892 0.60755 0.44194 0.0
C161 C 0.22849 0.67108 0.45501 0.0
N162 N 0.1219 0.56477 0.4679 0.0
C163 C 1.05978 0.50069 0.46112 0.0
H164 H 0.63905 0.15418 0.68992 0.0
H165 H 0.70375 0.05359 0.70719 0.0
H166 H 0.66854 0.12603 0.80016 0.0
C167 C 0.65267 0.13539 0.70851 0.0
C168 C 0.65021 0.14302 0.74667 0.0
C169 C 0.6726 0.10389 0.69401 0.0
C170 C 0.68851 0.07801 0.71819 0.0
C171 C 0.68695 0.08598 0.75677 0.0
C172 C 0.66891 0.11926 0.77056 0.0
N173 N 0.70778 0.06546 0.78315 0.0
C174 C 0.70141 1.01514 0.77855 0.0
H175 H 0.60776 0.43945 0.05975 0.0
H176 H 0.37583 0.31586 0.02047 0.0
H177 H 0.44667 0.27718 0.1124 0.0
C178 C 0.55048 0.39761 0.06127 0.0
C179 C 0.53296 0.36132 0.08959 0.0
C180 C 0.49444 0.38177 0.03596 0.0
C181 C 0.42028 0.32802 0.0391 0.0
C182 C 0.40344 0.28887 0.06559 0.0
C183 C 0.46005 0.30553 0.09067 0.0
N184 N 0.32894 0.23613 0.06977 0.0
C185 C 0.28094 0.24395 0.07739 0.0
C186 C 0.18486 0.29941 0.06512 0.0
C187 C 0.22004 0.3445 0.09637 0.0
C188 C 0.27939 0.31036 0.11991 0.0
C189 C 0.2484 0.26837 0.08741 0.0
N190 N 0.15907 0.21111 0.03393 0.0
N191 N 0.28575 0.3844 0.15749 0.0
C192 C 0.19646 0.25878 0.06165 0.0
C193 C 0.26206 0.34685 0.12525 0.0
N194 N 0.1431 0.29744 0.03824 0.0
N195 N 0.32838 0.31741 0.14458 0.0
H196 H 0.27541 0.41283 0.16187 0.0
H197 H 0.31091 0.38443 0.18096 0.0
H198 H 0.33888 0.28887 0.14247 0.0
H199 H 0.36067 0.35256 0.16635 0.0
H200 H 0.12224 0.2703 0.01286 0.0
H201 H 0.13124 0.32502 0.04085 0.0
H202 H 0.11639 0.19839 0.01552 0.0
H203 H 0.16712 0.18096 0.03123 0.0
C204 C 0.92584 0.32442 0.44392 0.0
C205 C 0.87001 0.30511 0.46799 0.0
C206 C 0.93418 0.4147 0.48265 0.0
C207 C 0.99366 0.4339 0.46182 0.0
N208 N 1.05051 0.40655 0.42662 0.0
N209 N 0.83015 0.33516 0.51537 0.0
C210 C 0.99071 0.38853 0.44374 0.0
C211 C 0.87657 0.35128 0.48857 0.0
N212 N 0.91516 0.28187 0.41938 0.0
N213 N 0.93202 0.4571 0.49653 0.0
H214 H 0.78969 0.29027 0.52174 0.0
H215 H 0.83648 0.36691 0.53388 0.0
H216 H 0.97337 0.50363 0.49339 0.0
H217 H 0.88634 0.44551 0.50824 0.0
H218 H 0.94921 0.2932 0.39842 0.0
H219 H 0.86793 0.23537 0.41736 0.0
H220 H 1.05601 0.37633 0.41678 0.0
H221 H 0.09735 0.45253 0.42474 0.0
C222 C 0.7583 0.92514 0.78516 0.0
C223 C 0.70648 0.88113 0.80873 0.0
C224 C 0.64536 0.92077 0.80817 0.0
C225 C 0.69734 0.96484 0.78479 0.0
N226 N 0.79408 1.00245 0.74543 0.0
N227 N 0.59322 0.82967 0.83758 0.0
C228 C 0.75097 0.96489 0.77151 0.0
C229 C 0.64753 0.8766 0.81854 0.0
N230 N 0.81545 0.92968 0.77647 0.0
N231 N 0.59551 0.92266 0.82162 0.0
H232 H 0.59463 0.79825 0.84711 0.0
H233 H 0.54421 0.81913 0.84195 0.0
H234 H 0.58962 0.95201 0.81315 0.0
H235 H 0.56237 0.89748 0.84242 0.0
H236 H 0.85991 0.96475 0.76294 0.0
H237 H 0.8206 0.8997 0.7845 0.0
H238 H 0.82987 1.00139 0.73183 0.0
H239 H 0.78968 0.03181 0.73515 0.0
C240 C 0.71955 0.43204 0.13184 0.0
C241 C 0.72393 0.45962 0.16657 0.0
C242 C 0.59627 0.41344 0.15355 0.0
C243 C 0.59182 0.38507 0.11915 0.0
N244 N 0.63989 0.35268 0.08044 0.0
N245 N 0.66317 0.46593 0.21438 0.0
C246 C 0.65039 0.38924 0.1101 0.0
C247 C 0.66084 0.44642 0.17882 0.0
N248 N 0.78226 0.45 0.11829 0.0
N249 N 0.5412 0.41223 0.16105 0.0
H250 H 0.71037 0.49072 0.23324 0.0
H251 H 0.61679 0.45302 0.22604 0.0
H252 H 0.49282 0.38843 0.14336 0.0
H253 H 0.54552 0.43812 0.18367 0.0
H254 H 0.78322 0.4375 0.09105 0.0
H255 H 0.83474 0.48154 0.13299 0.0
H256 H 0.67862 0.34971 0.07454 0.0
H257 H 0.58927 0.3208 0.064 0.0
C258 C 0.46705 0.8701 0.47594 0.0
C259 C 0.47679 0.91309 0.45406 0.0
C260 C 0.34815 0.82749 0.4251 0.0
C261 C 0.34246 0.78347 0.44269 0.0
N262 N 0.40601 0.76403 0.47968 0.0
N263 N 0.43098 0.9226 0.39812 0.0
C264 C 0.40452 0.80515 0.46677 0.0
C265 C 0.41836 0.889 0.42605 0.0
N266 N 0.51556 0.8902 0.50622 0.0
N267 N 0.2862 0.81072 0.40725 0.0
H268 H 0.48355 0.96396 0.39426 0.0
H269 H 0.3917 0.90498 0.37567 0.0
H270 H 0.2336 0.76683 0.40687 0.0
H271 H 0.28615 0.84227 0.39658 0.0
H272 H 0.50589 0.86129 0.52515 0.0
H273 H 0.56169 0.93601 0.51483 0.0
H274 H 0.4529 0.77706 0.49396 0.0
H275 H 0.36296 0.71671 0.47323 0.0
C276 C 0.54014 0.17633 0.79206 0.0
C277 C 0.58158 0.23775 0.78476 0.0
C278 C 0.67404 0.23978 0.75834 0.0
C279 C 0.62796 0.17619 0.76143 0.0
N280 N 0.5109 0.08136 0.77607 0.0
N281 N 0.68135 0.32453 0.75496 0.0
C282 C 0.55937 0.14375 0.77706 0.0
C283 C 0.64697 0.26868 0.76638 0.0
N284 N 0.48324 0.14948 0.814 0.0
N285 N 0.74451 0.273 0.74858 0.0
H286 H 0.66224 0.3465 0.7595 0.0
H287 H 0.7246 0.34643 0.73808 0.0
H288 H 0.76657 0.25362 0.74291 0.0
H289 H 0.78333 0.32064 0.7496 0.0
H290 H 0.45595 0.10723 0.82353 0.0
H291 H 0.46777 0.17197 0.82549 0.0
H292 H 0.45682 0.05451 0.78329 0.0
H293 H 0.52221 0.05563 0.76491 0.0
C294 C 0.62525 0.78349 0.5231 0.0
C295 C 0.69203 0.84024 0.54103 0.0
C296 C 0.72045 0.78669 0.57203 0.0
C297 C 0.65926 0.73146 0.55029 0.0
N298 N 0.55155 0.67463 0.50601 0.0
N299 N 0.80319 0.89767 0.58292 0.0
C300 C 0.6104 0.72891 0.52648 0.0
C301 C 0.73921 0.84226 0.56603 0.0
N302 N 0.57642 0.78213 0.50279 0.0
N303 N 0.76019 0.78565 0.59841 0.0
H304 H 0.81672 0.9388 0.58043 0.0
H305 H 0.8445 0.90366 0.59816 0.0
H306 H 0.74796 0.74559 0.60294 0.0
H307 H 0.80151 0.82296 0.61759 0.0
H308 H 0.52361 0.742 0.49173 0.0
H309 H 0.5867 0.82152 0.49888 0.0
H310 H 0.5186 0.67045 0.48483 0.0
H311 H 0.53701 0.63326 0.50927 0.0
C312 C 0.86642 0.59099 0.88713 0.0
C313 C 0.80079 0.54974 0.86041 0.0
C314 C 0.86286 0.50684 0.84367 0.0
C315 C 0.93143 0.55222 0.86782 0.0
N316 N 0.9983 0.64917 0.90477 0.0
N317 N 0.75442 0.4761 0.80675 0.0
C318 C 0.9321 0.59715 0.887 0.0
C319 C 0.80467 0.50996 0.83718 0.0
N320 N 0.86589 0.62332 0.91518 0.0
N321 N 0.85081 0.45812 0.82709 0.0
H322 H 0.71469 0.47779 0.79957 0.0
H323 H 0.75824 0.45244 0.78632 0.0
H324 H 0.89021 0.45479 0.83015 0.0
H325 H 0.8 0.41933 0.81311 0.0
H326 H 0.9065 0.64865 0.93765 0.0
H327 H 0.82041 0.61847 0.91867 0.0
H328 H 1.00684 0.68686 0.91586 0.0
H329 H 1.04688 0.65757 0.90422 0.0
C330 C 0.34625 0.82657 0.19965 0.0
C331 C 0.33762 0.78846 0.1695 0.0
C332 C 0.46301 0.88057 0.15412 0.0
C333 C 0.46688 0.91941 0.18152 0.0
N334 N 0.39724 0.9281 0.22159 0.0
N335 N 0.38263 0.78643 0.11173 0.0
C336 C 0.40354 0.89189 0.20132 0.0
C337 C 0.39453 0.81755 0.14485 0.0
N338 N 0.30331 0.80108 0.22837 0.0
N339 N 0.52511 0.90239 0.13791 0.0
H340 H 0.33221 0.74239 0.10258 0.0
H341 H 0.41962 0.80722 0.09153 0.0
H342 H 0.57645 0.94694 0.14454 0.0
H343 H 0.52702 0.87429 0.1206 0.0
H344 H 0.31195 0.82737 0.25224 0.0
H345 H 0.26635 0.75423 0.23077 0.0
H346 H 0.34946 0.9102 0.23413 0.0
H347 H 0.43596 0.97577 0.22212 0.0
C348 C 0.6694 0.42 0.53065 0.0
C349 C 0.60059 0.35823 0.52872 0.0
C350 C 0.5449 0.39224 0.55995 0.0
C351 C 0.61492 0.45353 0.56395 0.0
N352 N 0.74704 0.52446 0.56011 0.0
N353 N 0.47749 0.28404 0.54818 0.0
C354 C 0.67823 0.46699 0.55143 0.0
C355 C 0.53964 0.34388 0.54537 0.0
N356 N 0.72533 0.43409 0.51142 0.0
N357 N 0.48287 0.38043 0.56869 0.0
H358 H 0.47174 0.24736 0.53802 0.0
H359 H 0.43449 0.271 0.56347 0.0
H360 H 0.48438 0.41449 0.57968 0.0
H361 H 0.42918 0.33771 0.56234 0.0
H362 H 0.77372 0.47886 0.50847 0.0
H363 H 0.72092 0.40105 0.49569 0.0
H364 H 0.79616 0.5355 0.55509 0.0
H365 H 0.75555 0.55988 0.57549 0.0
C366 C 0.33432 0.49068 0.86839 0.0
C367 C 0.40515 0.53714 0.8533 0.0
C368 C 0.35263 0.58929 0.84703 0.0
C369 C 0.27966 0.54015 0.85868 0.0
N370 N 0.2035 0.43803 0.8754 0.0
N371 N 0.46742 0.62726 0.82162 0.0
C372 C 0.27214 0.48953 0.86771 0.0
C373 C 0.40964 0.58536 0.84122 0.0
N374 N 0.32668 0.44802 0.88599 0.0
N375 N 0.36942 0.64222 0.84184 0.0
H376 H 0.50735 0.62615 0.81521 0.0
H377 H 0.47134 0.65886 0.80806 0.0
H378 H 0.33104 0.64659 0.84448 0.0
H379 H 0.42274 0.68308 0.83843 0.0
H380 H 0.28265 0.41744 0.90141 0.0
H381 H 0.36856 0.44769 0.88871 0.0
H382 H 0.18876 0.39641 0.87752 0.0
H383 H 0.15945 0.43587 0.87655 0.0
C384 C 0.95212 0.36273 0.18042 0.0
C385 C 0.94524 0.39886 0.1608 0.0
C386 C 0.80917 0.3084 0.15005 0.0
C387 C 0.81724 0.27089 0.16626 0.0
N388 N 0.89866 0.26111 0.19315 0.0
N389 N 0.8668 0.40064 0.12103 0.0
C390 C 0.88948 0.29781 0.18032 0.0
C391 C 0.8735 0.3702 0.14425 0.0
N392 N 1.01758 0.39087 0.20083 0.0
N393 N 0.73949 0.28538 0.14065 0.0
H394 H 0.9114 0.44545 0.11585 0.0
H395 H 0.81844 0.37921 0.10397 0.0
H396 H 0.69136 0.24053 0.14392 0.0
H397 H 0.72936 0.31227 0.13278 0.0
H398 H 1.02415 0.36886 0.21886 0.0
H399 H 1.06377 0.43785 0.20249 0.0
H400 H 0.95044 0.27582 0.1997 0.0
H401 H 0.85417 0.21445 0.19481 0.0
C402 C 1.03792 0.51575 0.03435 0.0
C403 C 0.0881 0.57519 0.05473 0.0
C404 C 0.13244 0.62064 -0.00401 0.0
C405 C 1.07653 0.56169 0.97566 0.0
N406 N 0.97192 0.45325 0.97521 0.0
N407 N 0.17739 0.68518 0.05455 0.0
C408 C 1.02823 0.50929 -0.00517 0.0
C409 C 0.13452 0.62794 0.03546 0.0
N410 N 1.00151 0.46523 0.05282 0.0
N411 N 0.18372 0.66984 0.9775 0.0
H412 H 0.18005 0.69285 0.08318 0.0
H413 H 0.20585 0.72511 0.04188 0.0
H414 H 0.18213 0.66682 0.9487 0.0
H415 H 0.23099 0.71255 0.99064 0.0
H416 H 0.97007 0.42084 0.03982 0.0
H417 H 1.0085 0.46833 0.0815 0.0
H418 H 0.929 0.41462 0.98736 0.0
H419 H 0.96534 0.44607 0.94634 0.0
C420 C 0.67069 0.05174 0.34441 0.0
C421 C 0.67835 0.09809 0.36506 0.0
C422 C 0.64932 0.12028 0.30787 0.0
C423 C 0.64973 0.07866 0.28677 0.0
N424 N 0.67817 1.01547 0.28498 0.0
N425 N 0.69262 0.18635 0.36529 0.0
C426 C 0.66549 0.04746 0.30509 0.0
C427 C 0.67283 0.13531 0.34647 0.0
N428 N 0.6667 1.01084 0.36226 0.0
N429 N 0.62352 0.14352 0.29156 0.0
H430 H 0.71254 0.19981 0.39322 0.0
H431 H 0.69651 0.21843 0.35235 0.0
H432 H 0.60356 0.13235 0.26367 0.0
H433 H 0.61517 0.1691 0.30655 0.0
H434 H 0.65352 0.97236 0.34845 0.0
H435 H 0.66943 1.01195 0.39102 0.0
H436 H 0.69684 0.99675 0.29704 0.0
H437 H 0.67762 1.01318 0.25621 0.0
C438 C 0.5563 0.56453 0.72261 0.0
C439 C 0.61038 0.57508 0.74748 0.0
C440 C 0.68495 0.59871 0.69544 0.0
C441 C 0.6231 0.5744 0.67042 0.0
N442 N 0.49821 0.53245 0.65974 0.0
N443 N 0.73326 0.6113 0.75783 0.0
C444 C 0.55871 0.55779 0.68384 0.0
C445 C 0.67744 0.59586 0.73415 0.0
N446 N 0.50298 0.5616 0.73629 0.0
N447 N 0.75151 0.62599 0.68212 0.0
H448 H 0.73854 0.62193 0.78622 0.0
H449 H 0.77571 0.61462 0.74913 0.0
H450 H 0.75873 0.62895 0.65397 0.0
H451 H 0.80104 0.65045 0.6989 0.0
H452 H 0.46587 0.55946 0.71975 0.0
H453 H 0.50152 0.56832 0.76462 0.0
H454 H 0.44676 0.51286 0.66828 0.0
H455 H 0.49765 0.52677 0.6311 0.0
C456 C 0.60751 0.05065 0.59104 0.0
C457 C 0.66628 0.10537 0.57566 0.0
C458 C 0.73847 0.14855 0.63702 0.0
C459 C 0.67506 0.09853 0.65302 0.0
N460 N 0.54795 1.0023 0.64588 0.0
N461 N 0.78681 0.20934 0.58554 0.0
C462 C 0.60959 0.04926 0.6301 0.0
C463 C 0.7323 0.15475 0.59885 0.0
N464 N 0.5498 0.99936 0.56819 0.0
N465 N 0.80458 0.19053 0.6586 0.0
H466 H 0.7852 0.21709 0.55828 0.0
H467 H 0.83146 0.24906 0.60228 0.0
H468 H 0.81019 0.1874 0.68663 0.0
H469 H 0.85485 0.22471 0.64812 0.0
H470 H 0.50986 0.95634 0.57715 0.0
H471 H 0.54536 0.9982 0.53955 0.0
H472 H 0.49539 0.9693 0.63147 0.0
H473 H 0.54846 0.99822 0.67413 0.0
C474 C 0.58976 0.52307 0.98447 0.0
C475 C 0.55537 0.49517 0.94777 0.0
C476 C 0.4876 0.39444 0.96869 0.0
C477 C 0.51408 0.42114 0.00595 0.0
N478 N 0.57411 0.51137 0.04961 0.0
N479 N 0.44702 0.40282 0.91142 0.0
C480 C 0.5603 0.48574 0.01406 0.0
C481 C 0.49724 0.43041 0.94166 0.0
N482 N 0.65207 0.58412 -0.00872 0.0
N483 N 0.45559 0.3356 0.95838 0.0
H484 H 0.44842 0.42822 0.89281 0.0
H485 H 0.39978 0.3559 0.9077 0.0
H486 H 0.45244 0.30858 0.97663 0.0
H487 H 0.44041 0.31673 0.93068 0.0
H488 H 0.68226 0.60468 0.01727 0.0
H489 H 0.67816 0.61275 0.9705 0.0
H490 H 0.60251 0.55755 0.05631 0.0
H491 H 0.54991 0.48524 0.07166 0.0
C492 C 0.11939 0.56838 0.27799 0.0
C493 C 0.18337 0.59277 0.25973 0.0
C494 C 0.25453 0.62873 0.32048 0.0
C495 C 0.19412 0.61361 0.33823 0.0
N496 N 1.07284 0.58014 0.33178 0.0
N497 N 0.31723 0.66067 0.26489 0.0
C498 C 0.12749 0.58659 0.31642 0.0
C499 C 0.25255 0.62693 0.28132 0.0
N500 N 1.05039 0.52494 0.25945 0.0
N501 N 0.31342 0.64377 0.34088 0.0
H502 H 0.31952 0.66508 0.23666 0.0
H503 H 0.36935 0.69042 0.27999 0.0
H504 H 0.31557 0.64323 0.36952 0.0
H505 H 0.35578 0.64999 0.32886 0.0
H506 H 1.00171 0.50198 0.27235 0.0
H507 H 1.04229 0.5064 0.23249 0.0
H508 H 1.02654 0.56611 0.316 0.0
H509 H 1.07719 0.59453 0.35949 0.0
loop_
_geom_bond_atom_site_label_1
_geom_bond_atom_site_label_2
_geom_bond_distance
_geom_bond_site_symmetry_2
_ccdc_geom_bond_type
La0 C2 2.928 . S
La0 O20 2.521 . S
La0 O21 2.628 . S
La0 O22 2.554 . S
La0 O23 2.757 . S
La0 O24 2.470 . S
La0 O29 2.482 . S
La0 O31 2.503 1_455 S
La1 C11 2.928 . S
La1 O23 2.482 1_655 S
La1 O25 2.503 1_655 S
La1 O26 2.521 . S
La1 O27 2.628 . S
La1 O28 2.554 . S
La1 O29 2.757 1_655 S
La1 O30 2.470 . S
C2 La0 2.928 . S
C2 C3 1.503 . S
C2 O20 1.261 . S
C2 O21 1.243 . S
C3 C2 1.503 . S
C3 C4 1.394 . S
C3 C8 1.373 . S
C4 C3 1.394 . S
C4 C5 1.380 . S
C4 H32 0.930 . S
C5 C4 1.380 . S
C5 C6 1.376 . S
C5 H33 0.930 . S
C6 C5 1.376 . S
C6 C7 1.370 . S
C7 C6 1.370 . S
C7 C8 1.396 . S
C7 H34 0.929 . S
C8 C3 1.373 . S
C8 C7 1.396 . S
C8 H35 0.929 . S
C9 O22 1.240 . S
C9 O23 1.289 . S
C10 O24 1.258 . S
C10 O25 1.256 . S
C11 La1 2.928 . S
C11 C12 1.503 . S
C11 O26 1.261 . S
C11 O27 1.243 . S
C12 C11 1.503 . S
C12 C13 1.394 . S
C12 C17 1.373 . S
C13 C12 1.394 . S
C13 C14 1.380 . S
C13 H36 0.930 . S
C14 C13 1.380 . S
C14 C15 1.376 . S
C14 H37 0.930 . S
C15 C14 1.376 . S
C15 C16 1.370 . S
C16 C15 1.370 . S
C16 C17 1.396 . S
C16 H38 0.929 . S
C17 C12 1.373 . S
C17 C16 1.396 . S
C17 H39 0.929 . S
C18 O28 1.240 1_455 S
C18 O29 1.289 . S
C19 O30 1.258 . S
C19 O31 1.256 . S
O20 La0 2.521 . S
O20 C2 1.261 . S
O21 La0 2.628 . S
O21 C2 1.243 . S
O22 La0 2.554 . S
O22 C9 1.240 . S
O23 La0 2.757 . S
O23 La1 2.482 1_455 S
O23 C9 1.289 . S
O24 La0 2.470 . S
O24 C10 1.258 . S
O25 La1 2.503 1_455 S
O25 C10 1.256 . S
O26 La1 2.521 . S
O26 C11 1.261 . S
O27 La1 2.628 . S
O27 C11 1.243 . S
O28 La1 2.554 . S
O28 C18 1.240 1_655 S
O29 La0 2.482 . S
O29 La1 2.757 1_455 S
O29 C18 1.289 . S
O30 La1 2.470 . S
O30 C19 1.258 . S
O31 La0 2.503 1_655 S
O31 C19 1.256 . S
H32 C4 0.930 . S
H33 C5 0.930 . S
H34 C7 0.929 . S
H35 C8 0.929 . S
H36 C13 0.930 . S
H37 C14 0.930 . S
H38 C16 0.929 . S
H39 C17 0.929 . S
La40 C42 2.928 1_545 S
La40 O60 2.521 1_545 S
La40 O61 2.628 1_545 S
La40 O62 2.554 . S
La40 O63 2.757 . S
La40 O64 2.470 1_545 S
La40 O69 2.482 . S
La40 O71 2.503 . S
La41 C51 2.928 . S
La41 O63 2.482 . S
La41 O65 2.503 1_545 S
La41 O66 2.521 . S
La41 O67 2.628 . S
La41 O68 2.554 . S
La41 O69 2.757 . S
La41 O70 2.470 . S
C42 La40 2.928 1_565 S
C42 C43 1.503 . S
C42 O60 1.261 . S
C42 O61 1.243 . S
C43 C42 1.503 . S
C43 C44 1.394 . S
C43 C48 1.373 . S
C44 C43 1.394 . S
C44 C45 1.380 . S
C44 H72 0.930 . S
C45 C44 1.380 . S
C45 C46 1.376 . S
C45 H73 0.930 . S
C46 C45 1.376 . S
C46 C47 1.370 . S
C47 C46 1.370 . S
C47 C48 1.396 . S
C47 H74 0.929 . S
C48 C43 1.373 . S
C48 C47 1.396 . S
C48 H75 0.929 . S
C49 O62 1.240 . S
C49 O63 1.289 . S
C50 O64 1.258 . S
C50 O65 1.256 . S
C51 La41 2.928 . S
C51 C52 1.503 . S
C51 O66 1.261 . S
C51 O67 1.243 . S
C52 C51 1.503 . S
C52 C53 1.394 . S
C52 C57 1.373 . S
C53 C52 1.394 . S
C53 C54 1.380 . S
C53 H76 0.930 . S
C54 C53 1.380 . S
C54 C55 1.376 . S
C54 H77 0.930 . S
C55 C54 1.376 . S
C55 C56 1.370 . S
C56 C55 1.370 . S
C56 C57 1.396 . S
C56 H78 0.929 . S
C57 C52 1.373 . S
C57 C56 1.396 . S
C57 H79 0.929 . S
C58 O68 1.240 . S
C58 O69 1.289 . S
C59 O70 1.258 . S
C59 O71 1.256 . S
O60 La40 2.521 1_565 S
O60 C42 1.261 . S
O61 La40 2.628 1_565 S
O61 C42 1.243 . S
O62 La40 2.554 . S
O62 C49 1.240 . S
O63 La40 2.757 . S
O63 La41 2.482 . S
O63 C49 1.289 . S
O64 La40 2.470 1_565 S
O64 C50 1.258 . S
O65 La41 2.503 1_565 S
O65 C50 1.256 . S
O66 La41 2.521 . S
O66 C51 1.261 . S
O67 La41 2.628 . S
O67 C51 1.243 . S
O68 La41 2.554 . S
O68 C58 1.240 . S
O69 La40 2.482 . S
O69 La41 2.757 . S
O69 C58 1.289 . S
O70 La41 2.470 . S
O70 C59 1.258 . S
O71 La40 2.503 . S
O71 C59 1.256 . S
H72 C44 0.930 . S
H73 C45 0.930 . S
H74 C47 0.929 . S
H75 C48 0.929 . S
H76 C53 0.930 . S
H77 C54 0.930 . S
H78 C56 0.929 . S
H79 C57 0.929 . S
La80 C82 2.928 . S
La80 O100 2.521 . S
La80 O101 2.628 . S
La80 O102 2.554 . S
La80 O103 2.757 . S
La80 O104 2.470 . S
La80 O109 2.482 . S
La80 O111 2.503 . S
La81 C91 2.928 . S
La81 O103 2.482 . S
La81 O105 2.503 . S
La81 O106 2.521 . S
La81 O107 2.628 . S
La81 O108 2.554 . S
La81 O109 2.757 . S
La81 O110 2.470 . S
C82 La80 2.928 . S
C82 C83 1.503 . S
C82 O100 1.261 . S
C82 O101 1.243 . S
C83 C82 1.503 . S
C83 C84 1.394 . S
C83 C88 1.373 . S
C84 C83 1.394 . S
C84 C85 1.380 . S
C84 H112 0.930 . S
C85 C84 1.380 . S
C85 C86 1.376 . S
C85 H113 0.930 . S
C86 C85 1.376 . S
C86 C87 1.370 . S
C87 C86 1.370 . S
C87 C88 1.396 . S
C87 H114 0.929 . S
C88 C83 1.373 . S
C88 C87 1.396 . S
C88 H115 0.929 . S
C89 O102 1.240 . S
C89 O103 1.289 . S
C90 O104 1.258 . S
C90 O105 1.256 . S
C91 La81 2.928 . S
C91 C92 1.503 . S
C91 O106 1.261 . S
C91 O107 1.243 . S
C92 C91 1.503 . S
C92 C93 1.394 . S
C92 C97 1.373 . S
C93 C92 1.394 . S
C93 C94 1.380 . S
C93 H116 0.930 . S
C94 C93 1.380 . S
C94 C95 1.376 . S
C94 H117 0.930 . S
C95 C94 1.376 . S
C95 C96 1.370 . S
C96 C95 1.370 . S
C96 C97 1.396 . S
C96 H118 0.929 . S
C97 C92 1.373 . S
C97 C96 1.396 . S
C97 H119 0.929 . S
C98 O108 1.240 . S
C98 O109 1.289 . S
C99 O110 1.258 . S
C99 O111 1.256 . S
O100 La80 2.521 . S
O100 C82 1.261 . S
O101 La80 2.628 . S
O101 C82 1.243 . S
O102 La80 2.554 . S
O102 C89 1.240 . S
O103 La80 2.757 . S
O103 La81 2.482 . S
O103 C89 1.289 . S
O104 La80 2.470 . S
O104 C90 1.258 . S
O105 La81 2.503 . S
O105 C90 1.256 . S
O106 La81 2.521 . S
O106 C91 1.261 . S
O107 La81 2.628 . S
O107 C91 1.243 . S
O108 La81 2.554 . S
O108 C98 1.240 . S
O109 La80 2.482 . S
O109 La81 2.757 . S
O109 C98 1.289 . S
O110 La81 2.470 . S
O110 C99 1.258 . S
O111 La80 2.503 . S
O111 C99 1.256 . S
H112 C84 0.930 . S
H113 C85 0.930 . S
H114 C87 0.929 . S
H115 C88 0.929 . S
H116 C93 0.930 . S
H117 C94 0.930 . S
H118 C96 0.929 . S
H119 C97 0.929 . S
H120 C123 0.929 . S
H121 C126 0.929 . S
H122 C128 0.930 1_565 S
C123 H120 0.929 . S
C123 C124 1.398 . S
C123 C125 1.396 1_565 S
C124 C123 1.398 . S
C124 C128 1.407 1_565 S
C125 C123 1.396 1_545 S
C125 C126 1.394 . S
C126 H121 0.929 . S
C126 C125 1.394 . S
C126 C127 1.382 . S
C127 C126 1.382 . S
C127 C128 1.392 . S
C127 N129 1.420 . S
C128 H122 0.930 1_545 S
C128 C124 1.407 1_545 S
C128 C127 1.392 . S
N129 C127 1.420 . S
N129 C130 1.244 . S
C130 N129 1.244 . S
H131 C134 0.929 . S
H132 C137 0.929 . S
H133 C139 0.930 . S
C134 H131 0.929 . S
C134 C135 1.398 . S
C134 C136 1.396 . S
C135 C134 1.398 . S
C135 C139 1.407 . S
C136 C134 1.396 . S
C136 C137 1.394 . S
C137 H132 0.929 . S
C137 C136 1.394 . S
C137 C138 1.382 . S
C138 C137 1.382 . S
C138 C139 1.392 . S
C138 N140 1.420 . S
C139 H133 0.930 . S
C139 C135 1.407 . S
C139 C138 1.392 . S
N140 C138 1.420 . S
N140 C141 1.244 . S
C141 N140 1.244 . S
H142 C145 0.929 1_655 S
H143 C148 0.929 . S
H144 C150 0.930 . S
C145 H142 0.929 1_455 S
C145 C146 1.398 1_455 S
C145 C147 1.396 . S
C146 C145 1.398 1_655 S
C146 C150 1.407 1_655 S
C147 C145 1.396 . S
C147 C148 1.394 . S
C148 H143 0.929 . S
C148 C147 1.394 . S
C148 C149 1.382 . S
C149 C148 1.382 . S
C149 C150 1.392 . S
C149 N151 1.420 . S
C150 H144 0.930 . S
C150 C146 1.407 1_455 S
C150 C149 1.392 . S
N151 C149 1.420 . S
N151 C152 1.244 . S
C152 N151 1.244 . S
H153 C156 0.929 . S
H154 C159 0.929 . S
H155 C161 0.930 . S
C156 H153 0.929 . S
C156 C157 1.398 . S
C156 C158 1.396 . S
C157 C156 1.398 . S
C157 C161 1.407 . S
C158 C156 1.396 . S
C158 C159 1.394 1_455 S
C159 H154 0.929 . S
C159 C158 1.394 1_655 S
C159 C160 1.382 . S
C160 C159 1.382 . S
C160 C161 1.392 1_655 S
C160 N162 1.420 . S
C161 H155 0.930 . S
C161 C157 1.407 . S
C161 C160 1.392 1_455 S
N162 C160 1.420 . S
N162 C163 1.244 . S
C163 N162 1.244 . S
H164 C167 0.929 . S
H165 C170 0.929 1_565 S
H166 C172 0.930 . S
C167 H164 0.929 . S
C167 C168 1.398 . S
C167 C169 1.396 . S
C168 C167 1.398 . S
C168 C172 1.407 . S
C169 C167 1.396 . S
C169 C170 1.394 . S
C170 H165 0.929 1_545 S
C170 C169 1.394 . S
C170 C171 1.382 . S
C171 C170 1.382 . S
C171 C172 1.392 . S
C171 N173 1.435 . S
C172 H166 0.930 . S
C172 C168 1.407 . S
C172 C171 1.392 . S
N173 C171 1.435 . S
N173 C174 1.230 1_545 S
C174 N173 1.230 1_565 S
H175 C178 0.929 . S
H176 C181 0.929 . S
H177 C183 0.930 . S
C178 H175 0.929 . S
C178 C179 1.398 . S
C178 C180 1.396 . S
C179 C178 1.398 . S
C179 C183 1.407 . S
C180 C178 1.396 . S
C180 C181 1.394 . S
C181 H176 0.929 . S
C181 C180 1.394 . S
C181 C182 1.382 . S
C182 C181 1.382 . S
C182 C183 1.392 . S
C182 N184 1.420 . S
C183 H177 0.930 . S
C183 C179 1.407 . S
C183 C182 1.392 . S
N184 C182 1.420 . S
N184 C185 1.244 . S
C185 N184 1.244 . S
C186 C187 1.363 . S
C186 C192 1.379 . S
C186 N194 1.356 . S
C187 C186 1.363 . S
C187 C193 1.363 . S
C188 C189 1.363 . S
C188 C193 1.379 . S
C188 N195 1.356 . S
C189 C188 1.363 . S
C189 C192 1.363 . S
N190 C192 1.356 . S
N190 H202 0.984 . S
N190 H203 0.985 . S
N191 C193 1.356 . S
N191 H196 0.984 . S
N191 H197 0.985 . S
C192 C186 1.379 . S
C192 C189 1.363 . S
C192 N190 1.356 . S
C193 C187 1.363 . S
C193 C188 1.379 . S
C193 N191 1.356 . S
N194 C186 1.356 . S
N194 H200 0.984 . S
N194 H201 0.984 . S
N195 C188 1.356 . S
N195 H198 0.984 . S
N195 H199 0.985 . S
H196 N191 0.984 . S
H197 N191 0.985 . S
H198 N195 0.984 . S
H199 N195 0.985 . S
H200 N194 0.984 . S
H201 N194 0.984 . S
H202 N190 0.984 . S
H203 N190 0.985 . S
C204 C205 1.363 . S
C204 C210 1.379 . S
C204 N212 1.356 . S
C205 C204 1.363 . S
C205 C211 1.363 . S
C206 C207 1.363 . S
C206 C211 1.379 . S
C206 N213 1.356 . S
C207 C206 1.363 . S
C207 C210 1.363 . S
N208 C210 1.356 . S
N208 H220 0.984 . S
N208 H221 0.985 . S
N209 C211 1.356 . S
N209 H214 0.984 . S
N209 H215 0.985 . S
C210 C204 1.379 . S
C210 C207 1.363 . S
C210 N208 1.356 . S
C211 C205 1.363 . S
C211 C206 1.379 . S
C211 N209 1.356 . S
N212 C204 1.356 . S
N212 H218 0.984 . S
N212 H219 0.984 . S
N213 C206 1.356 . S
N213 H216 0.984 . S
N213 H217 0.985 . S
H214 N209 0.984 . S
H215 N209 0.985 . S
H216 N213 0.984 . S
H217 N213 0.985 . S
H218 N212 0.984 . S
H219 N212 0.984 . S
H220 N208 0.984 . S
H221 N208 0.985 . S
C222 C223 1.363 . S
C222 C228 1.379 . S
C222 N230 1.356 . S
C223 C222 1.363 . S
C223 C229 1.363 . S
C224 C225 1.363 . S
C224 C229 1.379 . S
C224 N231 1.356 . S
C225 C224 1.363 . S
C225 C228 1.363 . S
N226 C228 1.356 . S
N226 H238 0.984 . S
N226 H239 0.985 . S
N227 C229 1.356 . S
N227 H232 0.984 . S
N227 H233 0.985 . S
C228 C222 1.379 . S
C228 C225 1.363 . S
C228 N226 1.356 . S
C229 C223 1.363 . S
C229 C224 1.379 . S
C229 N227 1.356 . S
N230 C222 1.356 . S
N230 H236 0.984 . S
N230 H237 0.984 . S
N231 C224 1.356 . S
N231 H234 0.984 . S
N231 H235 0.985 . S
H232 N227 0.984 . S
H233 N227 0.985 . S
H234 N231 0.984 . S
H235 N231 0.985 . S
H236 N230 0.984 . S
H237 N230 0.984 . S
H238 N226 0.984 . S
H239 N226 0.985 . S
C240 C241 1.363 . S
C240 C246 1.379 . S
C240 N248 1.356 . S
C241 C240 1.363 . S
C241 C247 1.363 . S
C242 C243 1.363 . S
C242 C247 1.379 . S
C242 N249 1.356 . S
C243 C242 1.363 . S
C243 C246 1.363 . S
N244 C246 1.356 . S
N244 H256 0.984 . S
N244 H257 0.985 . S
N245 C247 1.356 . S
N245 H250 0.984 . S
N245 H251 0.985 . S
C246 C240 1.379 . S
C246 C243 1.363 . S
C246 N244 1.356 . S
C247 C241 1.363 . S
C247 C242 1.379 . S
C247 N245 1.356 . S
N248 C240 1.356 . S
N248 H254 0.984 . S
N248 H255 0.984 . S
N249 C242 1.356 . S
N249 H252 0.984 . S
N249 H253 0.985 . S
H250 N245 0.984 . S
H251 N245 0.985 . S
H252 N249 0.984 . S
H253 N249 0.985 . S
H254 N248 0.984 . S
H255 N248 0.984 . S
H256 N244 0.984 . S
H257 N244 0.985 . S
C258 C259 1.363 . S
C258 C264 1.379 . S
C258 N266 1.356 . S
C259 C258 1.363 . S
C259 C265 1.363 . S
C260 C261 1.363 . S
C260 C265 1.379 . S
C260 N267 1.356 . S
C261 C260 1.363 . S
C261 C264 1.363 . S
N262 C264 1.356 . S
N262 H274 0.984 . S
N262 H275 0.985 . S
N263 C265 1.356 . S
N263 H268 0.984 . S
N263 H269 0.985 . S
C264 C258 1.379 . S
C264 C261 1.363 . S
C264 N262 1.356 . S
C265 C259 1.363 . S
C265 C260 1.379 . S
C265 N263 1.356 . S
N266 C258 1.356 . S
N266 H272 0.984 . S
N266 H273 0.984 . S
N267 C260 1.356 . S
N267 H270 0.984 . S
N267 H271 0.985 . S
H268 N263 0.984 . S
H269 N263 0.985 . S
H270 N267 0.984 . S
H271 N267 0.985 . S
H272 N266 0.984 . S
H273 N266 0.984 . S
H274 N262 0.984 . S
H275 N262 0.985 . S
C276 C277 1.363 . S
C276 C282 1.379 . S
C276 N284 1.356 . S
C277 C276 1.363 . S
C277 C283 1.363 . S
C278 C279 1.363 . S
C278 C283 1.379 . S
C278 N285 1.356 . S
C279 C278 1.363 . S
C279 C282 1.363 . S
N280 C282 1.356 . S
N280 H292 0.984 . S
N280 H293 0.985 . S
N281 C283 1.356 . S
N281 H286 0.984 . S
N281 H287 0.985 . S
C282 C276 1.379 . S
C282 C279 1.363 . S
C282 N280 1.356 . S
C283 C277 1.363 . S
C283 C278 1.379 . S
C283 N281 1.356 . S
N284 C276 1.356 . S
N284 H290 0.984 . S
N284 H291 0.984 . S
N285 C278 1.356 . S
N285 H288 0.984 . S
N285 H289 0.985 . S
H286 N281 0.984 . S
H287 N281 0.985 . S
H288 N285 0.984 . S
H289 N285 0.985 . S
H290 N284 0.984 . S
H291 N284 0.984 . S
H292 N280 0.984 . S
H293 N280 0.985 . S
C294 C295 1.363 . S
C294 C300 1.379 . S
C294 N302 1.356 . S
C295 C294 1.363 . S
C295 C301 1.363 . S
C296 C297 1.363 . S
C296 C301 1.379 . S
C296 N303 1.356 . S
C297 C296 1.363 . S
C297 C300 1.363 . S
N298 C300 1.356 . S
N298 H310 0.984 . S
N298 H311 0.985 . S
N299 C301 1.356 . S
N299 H304 0.984 . S
N299 H305 0.985 . S
C300 C294 1.379 . S
C300 C297 1.363 . S
C300 N298 1.356 . S
C301 C295 1.363 . S
C301 C296 1.379 . S
C301 N299 1.356 . S
N302 C294 1.356 . S
N302 H308 0.984 . S
N302 H309 0.984 . S
N303 C296 1.356 . S
N303 H306 0.984 . S
N303 H307 0.985 . S
H304 N299 0.984 . S
H305 N299 0.985 . S
H306 N303 0.984 . S
H307 N303 0.985 . S
H308 N302 0.984 . S
H309 N302 0.984 . S
H310 N298 0.984 . S
H311 N298 0.985 . S
C312 C313 1.363 . S
C312 C318 1.379 . S
C312 N320 1.356 . S
C313 C312 1.363 . S
C313 C319 1.363 . S
C314 C315 1.363 . S
C314 C319 1.379 . S
C314 N321 1.356 . S
C315 C314 1.363 . S
C315 C318 1.363 . S
N316 C318 1.356 . S
N316 H328 0.984 . S
N316 H329 0.985 . S
N317 C319 1.356 . S
N317 H322 0.984 . S
N317 H323 0.985 . S
C318 C312 1.379 . S
C318 C315 1.363 . S
C318 N316 1.356 . S
C319 C313 1.363 . S
C319 C314 1.379 . S
C319 N317 1.356 . S
N320 C312 1.356 . S
N320 H326 0.984 . S
N320 H327 0.984 . S
N321 C314 1.356 . S
N321 H324 0.984 . S
N321 H325 0.985 . S
H322 N317 0.984 . S
H323 N317 0.985 . S
H324 N321 0.984 . S
H325 N321 0.985 . S
H326 N320 0.984 . S
H327 N320 0.984 . S
H328 N316 0.984 . S
H329 N316 0.985 . S
C330 C331 1.363 . S
C330 C336 1.379 . S
C330 N338 1.356 . S
C331 C330 1.363 . S
C331 C337 1.363 . S
C332 C333 1.363 . S
C332 C337 1.379 . S
C332 N339 1.356 . S
C333 C332 1.363 . S
C333 C336 1.363 . S
N334 C336 1.356 . S
N334 H346 0.984 . S
N334 H347 0.985 . S
N335 C337 1.356 . S
N335 H340 0.984 . S
N335 H341 0.985 . S
C336 C330 1.379 . S
C336 C333 1.363 . S
C336 N334 1.356 . S
C337 C331 1.363 . S
C337 C332 1.379 . S
C337 N335 1.356 . S
N338 C330 1.356 . S
N338 H344 0.984 . S
N338 H345 0.984 . S
N339 C332 1.356 . S
N339 H342 0.984 . S
N339 H343 0.985 . S
H340 N335 0.984 . S
H341 N335 0.985 . S
H342 N339 0.984 . S
H343 N339 0.985 . S
H344 N338 0.984 . S
H345 N338 0.984 . S
H346 N334 0.984 . S
H347 N334 0.985 . S
C348 C349 1.363 . S
C348 C354 1.379 . S
C348 N356 1.356 . S
C349 C348 1.363 . S
C349 C355 1.363 . S
C350 C351 1.363 . S
C350 C355 1.379 . S
C350 N357 1.356 . S
C351 C350 1.363 . S
C351 C354 1.363 . S
N352 C354 1.356 . S
N352 H364 0.984 . S
N352 H365 0.985 . S
N353 C355 1.356 . S
N353 H358 0.984 . S
N353 H359 0.985 . S
C354 C348 1.379 . S
C354 C351 1.363 . S
C354 N352 1.356 . S
C355 C349 1.363 . S
C355 C350 1.379 . S
C355 N353 1.356 . S
N356 C348 1.356 . S
N356 H362 0.984 . S
N356 H363 0.984 . S
N357 C350 1.356 . S
N357 H360 0.984 . S
N357 H361 0.985 . S
H358 N353 0.984 . S
H359 N353 0.985 . S
H360 N357 0.984 . S
H361 N357 0.985 . S
H362 N356 0.984 . S
H363 N356 0.984 . S
H364 N352 0.984 . S
H365 N352 0.985 . S
C366 C367 1.363 . S
C366 C372 1.379 . S
C366 N374 1.356 . S
C367 C366 1.363 . S
C367 C373 1.363 . S
C368 C369 1.363 . S
C368 C373 1.379 . S
C368 N375 1.356 . S
C369 C368 1.363 . S
C369 C372 1.363 . S
N370 C372 1.356 . S
N370 H382 0.984 . S
N370 H383 0.985 . S
N371 C373 1.356 . S
N371 H376 0.984 . S
N371 H377 0.985 . S
C372 C366 1.379 . S
C372 C369 1.363 . S
C372 N370 1.356 . S
C373 C367 1.363 . S
C373 C368 1.379 . S
C373 N371 1.356 . S
N374 C366 1.356 . S
N374 H380 0.984 . S
N374 H381 0.984 . S
N375 C368 1.356 . S
N375 H378 0.984 . S
N375 H379 0.985 . S
H376 N371 0.984 . S
H377 N371 0.985 . S
H378 N375 0.984 . S
H379 N375 0.985 . S
H380 N374 0.984 . S
H381 N374 0.984 . S
H382 N370 0.984 . S
H383 N370 0.985 . S
C384 C385 1.363 . S
C384 C390 1.379 . S
C384 N392 1.356 . S
C385 C384 1.363 . S
C385 C391 1.363 . S
C386 C387 1.363 . S
C386 C391 1.379 . S
C386 N393 1.356 . S
C387 C386 1.363 . S
C387 C390 1.363 . S
N388 C390 1.356 . S
N388 H400 0.984 . S
N388 H401 0.985 . S
N389 C391 1.356 . S
N389 H394 0.984 . S
N389 H395 0.985 . S
C390 C384 1.379 . S
C390 C387 1.363 . S
C390 N388 1.356 . S
C391 C385 1.363 . S
C391 C386 1.379 . S
C391 N389 1.356 . S
N392 C384 1.356 . S
N392 H398 0.984 . S
N392 H399 0.984 . S
N393 C386 1.356 . S
N393 H396 0.984 . S
N393 H397 0.985 . S
H394 N389 0.984 . S
H395 N389 0.985 . S
H396 N393 0.984 . S
H397 N393 0.985 . S
H398 N392 0.984 . S
H399 N392 0.984 . S
H400 N388 0.984 . S
H401 N388 0.985 . S
C402 C403 1.363 . S
C402 C408 1.379 . S
C402 N410 1.356 . S
C403 C402 1.363 . S
C403 C409 1.363 . S
C404 C405 1.366 . S
C404 C409 1.372 1_556 S
C404 N411 1.361 . S
C405 C404 1.366 . S
C405 C408 1.363 1_556 S
N406 C408 1.356 1_556 S
N406 H418 0.984 . S
N406 H419 0.985 . S
N407 C409 1.356 . S
N407 H412 0.984 . S
N407 H413 0.985 . S
C408 C402 1.379 . S
C408 C405 1.363 1_554 S
C408 N406 1.356 1_554 S
C409 C403 1.363 . S
C409 C404 1.372 1_554 S
C409 N407 1.356 . S
N410 C402 1.356 . S
N410 H416 0.984 . S
N410 H417 0.984 . S
N411 C404 1.361 . S
N411 H414 0.984 . S
N411 H415 0.985 . S
H412 N407 0.984 . S
H413 N407 0.985 . S
H414 N411 0.984 . S
H415 N411 0.985 . S
H416 N410 0.984 . S
H417 N410 0.984 . S
H418 N406 0.984 . S
H419 N406 0.985 . S
C420 C421 1.363 1_565 S
C420 C426 1.379 . S
C420 N428 1.356 . S
C421 C420 1.363 1_545 S
C421 C427 1.363 . S
C422 C423 1.363 . S
C422 C427 1.379 . S
C422 N429 1.356 . S
C423 C422 1.363 . S
C423 C426 1.363 1_545 S
N424 C426 1.356 . S
N424 H436 0.984 . S
N424 H437 0.985 . S
N425 C427 1.356 . S
N425 H430 0.984 . S
N425 H431 0.985 . S
C426 C420 1.379 . S
C426 C423 1.363 1_565 S
C426 N424 1.356 . S
C427 C421 1.363 . S
C427 C422 1.379 . S
C427 N425 1.356 . S
N428 C420 1.356 . S
N428 H434 0.984 . S
N428 H435 0.984 . S
N429 C422 1.356 . S
N429 H432 0.984 . S
N429 H433 0.985 . S
H430 N425 0.984 . S
H431 N425 0.985 . S
H432 N429 0.984 . S
H433 N429 0.985 . S
H434 N428 0.984 . S
H435 N428 0.984 . S
H436 N424 0.984 . S
H437 N424 0.985 . S
C438 C439 1.363 . S
C438 C444 1.379 . S
C438 N446 1.356 . S
C439 C438 1.363 . S
C439 C445 1.363 . S
C440 C441 1.363 . S
C440 C445 1.379 . S
C440 N447 1.356 . S
C441 C440 1.363 . S
C441 C444 1.363 . S
N442 C444 1.356 . S
N442 H454 0.984 . S
N442 H455 0.985 . S
N443 C445 1.356 . S
N443 H448 0.984 . S
N443 H449 0.985 . S
C444 C438 1.379 . S
C444 C441 1.363 . S
C444 N442 1.356 . S
C445 C439 1.363 . S
C445 C440 1.379 . S
C445 N443 1.356 . S
N446 C438 1.356 . S
N446 H452 0.984 . S
N446 H453 0.984 . S
N447 C440 1.356 . S
N447 H450 0.984 . S
N447 H451 0.985 . S
H448 N443 0.984 . S
H449 N443 0.985 . S
H450 N447 0.984 . S
H451 N447 0.985 . S
H452 N446 0.984 . S
H453 N446 0.984 . S
H454 N442 0.984 . S
H455 N442 0.985 . S
C456 C457 1.363 . S
C456 C462 1.379 . S
C456 N464 1.356 1_545 S
C457 C456 1.363 . S
C457 C463 1.363 . S
C458 C459 1.363 . S
C458 C463 1.379 . S
C458 N465 1.356 . S
C459 C458 1.363 . S
C459 C462 1.363 . S
N460 C462 1.356 1_565 S
N460 H472 0.984 . S
N460 H473 0.985 . S
N461 C463 1.356 . S
N461 H466 0.984 . S
N461 H467 0.985 . S
C462 C456 1.379 . S
C462 C459 1.363 . S
C462 N460 1.356 1_545 S
C463 C457 1.363 . S
C463 C458 1.379 . S
C463 N461 1.356 . S
N464 C456 1.356 1_565 S
N464 H470 0.984 . S
N464 H471 0.984 . S
N465 C458 1.356 . S
N465 H468 0.984 . S
N465 H469 0.985 . S
H466 N461 0.984 . S
H467 N461 0.985 . S
H468 N465 0.984 . S
H469 N465 0.985 . S
H470 N464 0.984 . S
H471 N464 0.984 . S
H472 N460 0.984 . S
H473 N460 0.985 . S
C474 C475 1.363 . S
C474 C480 1.379 1_556 S
C474 N482 1.356 . S
C475 C474 1.363 . S
C475 C481 1.363 . S
C476 C477 1.363 1_556 S
C476 C481 1.379 . S
C476 N483 1.356 . S
C477 C476 1.363 1_554 S
C477 C480 1.363 . S
N478 C480 1.356 . S
N478 H490 0.984 . S
N478 H491 0.985 . S
N479 C481 1.356 . S
N479 H484 0.984 . S
N479 H485 0.985 . S
C480 C474 1.379 1_554 S
C480 C477 1.363 . S
C480 N478 1.356 . S
C481 C475 1.363 . S
C481 C476 1.379 . S
C481 N479 1.356 . S
N482 C474 1.356 . S
N482 H488 0.984 . S
N482 H489 0.984 . S
N483 C476 1.356 . S
N483 H486 0.984 1_556 S
N483 H487 0.985 . S
H484 N479 0.984 . S
H485 N479 0.985 . S
H486 N483 0.984 1_554 S
H487 N483 0.985 . S
H488 N482 0.984 . S
H489 N482 0.984 . S
H490 N478 0.984 . S
H491 N478 0.985 . S
C492 C493 1.363 1_655 S
C492 C498 1.379 . S
C492 N500 1.356 . S
C493 C492 1.363 1_455 S
C493 C499 1.363 . S
C494 C495 1.363 . S
C494 C499 1.379 . S
C494 N501 1.356 . S
C495 C494 1.363 . S
C495 C498 1.363 1_455 S
N496 C498 1.356 . S
N496 H508 0.984 . S
N496 H509 0.985 . S
N497 C499 1.356 . S
N497 H502 0.984 . S
N497 H503 0.985 . S
C498 C492 1.379 . S
C498 C495 1.363 1_655 S
C498 N496 1.356 . S
C499 C493 1.363 . S
C499 C494 1.379 . S
C499 N497 1.356 . S
N500 C492 1.356 . S
N500 H506 0.984 . S
N500 H507 0.984 . S
N501 C494 1.356 . S
N501 H504 0.984 . S
N501 H505 0.985 . S
H502 N497 0.984 . S
H503 N497 0.985 . S
H504 N501 0.984 . S
H505 N501 0.985 . S
H506 N500 0.984 . S
H507 N500 0.984 . S
H508 N496 0.984 . S
H509 N496 0.985 . S
C187 C6 1.124 . S
C189 C185 1.249 . S
C205 C59 1.962 . S
C207 C163 1.909 . S
C223 C86 1.424 . S
C225 C174 1.486 . S
C241 C15 0.690 . S
C243 C179 0.631 . S
C261 C157 1.871 . S
C259 C50 1.912 . S
C279 C168 1.276 . S
C277 C95 1.249 . S
C295 C46 1.372 . S
C297 C141 1.408 . S
C313 C99 3.101 . S
C315 C146 3.063 . S
C331 C10 1.935 . S
C333 C124 1.921 . S
C351 C135 1.285 . S
C349 C55 1.247 . S
C369 C152 3.068 . S
C367 C90 3.104 . S
C385 C19 1.972 . S
C387 C130 1.944 . S
C405 C147 1.761 . S
C403 C18 1.718 . S
C421 C49 1.376 . S
C423 C125 1.450 . S
C439 C98 1.495 . S
C441 C136 1.535 . S
C459 C169 1.498 . S
C457 C58 1.487 . S
C477 C180 1.188 . S
C475 C89 1.190 . S
C493 C9 1.355 . S
C495 C158 1.406 . S
