# Generated by pormake.
# Topology anh, (6,3)-cn, num edge types: 1
# Building blocks:
#     Node 0, Type 0, BuildingBlock: BETFEN_clean_sbu_0, # of connection points: 6
#     Node 1, Type 0, BuildingBlock: BETFEN_clean_sbu_0, # of connection points: 6
#     Node 2, Type 0, BuildingBlock: BETFEN_clean_sbu_0, # of connection points: 6
#     Node 3, Type 1, BuildingBlock: KAKCAD_clean_linker_0, # of connection points: 3
#     Node 4, Type 1, BuildingBlock: KAKCAD_clean_linker_0, # of connection points: 3
#     Node 5, Type 1, BuildingBlock: KAKCAD_clean_linker_0, # of connection points: 3
#     Node 6, Type 1, BuildingBlock: KAKCAD_clean_linker_0, # of connection points: 3
#     Node 7, Type 1, BuildingBlock: KAKCAD_clean_linker_0, # of connection points: 3
#     Node 8, Type 1, BuildingBlock: KAKCAD_clean_linker_0, # of connection points: 3
#     Edge 9, Type (0, 1), None
#     Edge 10, Type (0, 1), None
#     Edge 11, Type (0, 1), None
#     Edge 12, Type (0, 1), None
#     Edge 13, Type (0, 1), None
#     Edge 14, Type (0, 1), None
#     Edge 15, Type (0, 1), None
#     Edge 16, Type (0, 1), None
#     Edge 17, Type (0, 1), None
#     Edge 18, Type (0, 1), None
#     Edge 19, Type (0, 1), None
#     Edge 20, Type (0, 1), None
#     Edge 21, Type (0, 1), None
#     Edge 22, Type (0, 1), None
#     Edge 23, Type (0, 1), None
#     Edge 24, Type (0, 1), None
#     Edge 25, Type (0, 1), None
#     Edge 26, Type (0, 1), None
# Relax obj value: 0.287
# Max RMSD: 0.258
# Mean RMSD: 0.181
data_MOF--net-anh--node1-BETFEN_clean_sbu_0--node2-KAKCAD_clean_linker_0--edge1-none
_symmetry_space_group_name_H-M    P1
_symmetry_Int_Tables_number       1
_symmetry_cell_setting            triclinic
loop_
_symmetry_equiv_pos_as_xyz
'x, y, z'
_cell_length_a     19.280784
_cell_length_b     19.704369
_cell_length_c     37.768416
_cell_angle_alpha  92.913162
_cell_angle_beta   89.684718
_cell_angle_gamma 92.638685
loop_
_atom_site_label
_atom_site_type_symbol
_atom_site_fract_x
_atom_site_fract_y
_atom_site_fract_z
_atom_type_partial_charge
Pr0 Pr 0.11627 0.56329 0.14636 0.0
Pr1 Pr 0.12796 0.71309 0.14024 0.0
C2 C 0.08367 0.43461 0.16323 0.0
C3 C 1.02268 0.39839 0.1774 0.0
C4 C 1.02109 0.32749 0.17845 0.0
C5 C 0.96224 0.29255 0.19118 0.0
C6 C 0.90411 0.3282 0.2029 0.0
C7 C 0.90626 0.39949 0.20184 0.0
C8 C 0.96521 0.43431 0.18926 0.0
C9 C 0.14061 0.60126 0.07722 0.0
C10 C 0.97314 0.64823 0.13554 0.0
C11 C 0.1653 0.8423 0.12683 0.0
C12 C 0.22052 0.88734 0.14285 0.0
C13 C 0.24188 0.87734 0.17755 0.0
C14 C 0.29865 0.91476 0.19207 0.0
C15 C 0.33616 0.96229 0.17204 0.0
C16 C 0.31387 0.97332 0.13746 0.0
C17 C 0.25642 0.93584 0.12292 0.0
C18 C 0.10192 0.6746 0.20934 0.0
C19 C 0.2745 0.62722 0.14459 0.0
O20 O 0.11498 0.47954 0.18504 0.0
O21 O 0.07693 0.45598 0.13131 0.0
O22 O 0.09809 0.62873 0.09838 0.0
O23 O 0.17144 0.5521 0.09133 0.0
O24 O 1.01402 0.69521 0.12161 0.0
O25 O 1.00005 0.5977 0.15177 0.0
O26 O 0.18699 0.79023 0.10772 0.0
O27 O 0.11362 0.82609 0.14783 0.0
O28 O 0.14495 0.64729 0.18839 0.0
O29 O 0.07404 0.72564 0.19554 0.0
O30 O 0.23683 0.57184 0.15121 0.0
O31 O 0.24533 0.6848 0.13862 0.0
H32 H 0.06527 0.29921 0.16939 0.0
H33 H 0.96253 0.23773 0.19217 0.0
H34 H 0.86207 0.42832 0.21027 0.0
H35 H 0.96582 0.48918 0.18863 0.0
H36 H 0.21544 0.83951 0.19328 0.0
H37 H 0.31342 0.90604 0.21904 0.0
H38 H 0.34193 1.00936 0.12134 0.0
H39 H 0.2411 0.94348 0.09591 0.0
Pr40 Pr 0.60748 0.15093 0.52596 0.0
Pr41 Pr 0.45181 1.12639 0.51721 0.0
C42 C 0.74562 0.17023 0.51756 0.0
C43 C 0.79083 0.22317 0.50099 0.0
C44 C 0.83019 0.27089 0.52236 0.0
C45 C 0.86953 0.32359 0.50721 0.0
C46 C 0.87099 0.32971 0.47021 0.0
C47 C 0.83284 0.28084 0.44881 0.0
C48 C 0.79322 0.2284 0.46397 0.0
C49 C 0.53052 0.14378 0.58888 0.0
C50 C 0.51812 0.28733 0.52658 0.0
C51 C 0.31364 1.10316 0.51697 0.0
C52 C 0.27259 1.04189 0.50357 0.0
C53 C 0.28398 1.01422 0.46911 0.0
C54 C 0.25282 0.95158 0.45794 0.0
C55 C 0.20992 0.9144 0.48096 0.0
C56 C 0.19647 0.94307 0.51506 0.0
C57 C 0.22773 1.00621 0.52628 0.0
C58 C 0.52678 1.11946 0.45421 0.0
C59 C 0.54171 0.98723 0.52119 0.0
O60 O 0.70711 0.12976 0.4963 0.0
O61 O 0.71312 0.18905 0.54672 0.0
O62 O 0.5241 1.10536 0.5617 0.0
O63 O 0.58072 0.18925 0.58514 0.0
O64 O 0.46463 0.24565 0.53463 0.0
O65 O 0.57676 0.26179 0.51533 0.0
O66 O 0.35154 1.09516 0.54496 0.0
O67 O 0.34624 0.13901 0.4932 0.0
O68 O 0.53644 0.16511 0.47855 0.0
O69 O 0.47646 1.07665 0.4617 0.0
O70 O 0.59841 1.02854 0.52029 0.0
O71 O 0.47931 1.01239 0.52263 0.0
H72 H 0.82956 0.26824 0.55094 0.0
H73 H 0.89745 0.3605 0.52465 0.0
H74 H 0.83359 0.28291 0.42022 0.0
H75 H 0.76388 0.19246 0.44657 0.0
H76 H 0.31861 1.03994 0.45093 0.0
H77 H 0.26304 0.9319 0.43121 0.0
H78 H 0.16376 0.91572 0.53346 0.0
H79 H 0.21867 1.02611 0.5531 0.0
Pr80 Pr 0.6407 0.59539 0.81642 0.0
Pr81 Pr 0.66003 0.7414 0.83605 0.0
C82 C 0.61227 0.47187 0.7873 0.0
C83 C 0.54172 0.44037 0.78622 0.0
C84 C 0.49647 0.45126 0.81513 0.0
C85 C 0.42602 0.43254 0.81226 0.0
C86 C 0.39932 0.40313 0.78033 0.0
C87 C 0.44457 0.39263 0.75135 0.0
C88 C 0.51513 0.41126 0.75426 0.0
C89 C 0.62107 0.62572 0.88867 0.0
C90 C 0.80295 0.65493 0.82836 0.0
C91 C 0.66668 0.87053 0.86013 0.0
C92 C 0.6118 0.91756 0.85229 0.0
C93 C 0.59934 0.93199 0.81685 0.0
C94 C 0.53524 0.95431 0.80692 0.0
C95 C 0.48254 0.96377 0.83217 0.0
C96 C 0.49677 0.95616 0.86809 0.0
C97 C 0.56103 0.93289 0.87809 0.0
C98 C 0.6262 0.71306 0.76455 0.0
C99 C 0.501 0.67922 0.83055 0.0
O100 O 0.64118 0.48074 0.81865 0.0
O101 O 0.61968 0.52524 0.7682 0.0
O102 O 0.67049 0.64954 0.87041 0.0
O103 O 0.57944 0.58528 0.86984 0.0
O104 O 0.77698 0.71499 0.83544 0.0
O105 O 0.76263 0.60019 0.82028 0.0
O106 O 0.64635 0.82127 0.88036 0.0
O107 O 0.70451 0.84938 0.83311 0.0
O108 O 0.67043 0.68327 0.78168 0.0
O109 O 0.5978 0.75987 0.7842 0.0
O110 O 0.52756 0.6321 0.80932 0.0
O111 O 0.54245 0.72153 0.84951 0.0
H112 H 0.51514 0.47549 0.83983 0.0
H113 H 0.39247 0.44063 0.83505 0.0
H114 H 0.4258 0.3682 0.72666 0.0
H115 H 0.54868 0.40415 0.73139 0.0
H116 H 0.63701 0.92126 0.79618 0.0
H117 H 0.52603 0.96214 0.77917 0.0
H118 H 0.4571 0.96465 0.88804 0.0
H119 H 0.56905 0.92206 0.90557 0.0
C120 C 0.58626 0.18256 0.40594 0.0
C121 C 0.55679 1.12186 0.41846 0.0
C122 C 0.604 0.18638 0.3701 0.0
C123 C 0.59322 0.12927 0.3465 0.0
C124 C 0.56886 1.06734 0.35992 0.0
C125 C 0.55027 1.06385 0.39546 0.0
C126 C 0.60175 0.1351 0.30769 0.0
C127 C 0.65711 0.17396 0.29366 0.0
C128 C 0.66364 0.18033 0.25682 0.0
C129 C 0.61381 0.14752 0.234 0.0
C130 C 0.5591 1.10771 0.24775 0.0
C131 C 0.55305 1.10219 0.28444 0.0
C132 C 0.50825 1.07008 0.22429 0.0
C133 C 0.4661 1.10434 0.20158 0.0
C134 C 0.4978 0.99969 0.22699 0.0
C135 C 0.44395 0.96441 0.20859 0.0
C136 C 0.39861 0.999 0.18755 0.0
C137 C 0.72374 0.21945 0.24229 0.0
C138 C 0.74749 0.28142 0.25904 0.0
C139 C 0.759 0.1941 0.21213 0.0
C140 C 0.81721 0.22964 0.1992 0.0
C141 C 0.84151 0.29116 0.21622 0.0
C142 C 0.80584 0.31685 0.24618 0.0
C143 C 0.41137 1.06904 0.18339 0.0
H144 H 0.59204 0.22789 0.42334 0.0
H145 H 0.62268 0.23485 0.36058 0.0
H146 H 0.56202 1.02189 0.3427 0.0
H147 H 0.52878 1.01612 0.40471 0.0
H148 H 0.69617 0.19771 0.31136 0.0
H149 H 0.50918 1.07298 0.29484 0.0
H150 H 0.61793 0.15213 0.20558 0.0
H151 H 0.47337 0.15879 0.19929 0.0
H152 H 0.53039 0.97225 0.24407 0.0
H153 H 0.4368 0.91014 0.21154 0.0
H154 H 0.72097 0.30258 0.28212 0.0
H155 H 0.74242 0.14611 0.19887 0.0
H156 H 0.37729 1.09709 0.16742 0.0
H157 H 0.82366 0.36382 0.26007 0.0
H158 H 0.84305 0.20901 0.17578 0.0
C159 C 0.55847 0.73328 0.71021 0.0
C160 C 0.60819 0.69631 0.727 0.0
C161 C 0.5422 0.71886 0.67452 0.0
C162 C 0.57498 0.66685 0.65484 0.0
C163 C 0.62341 0.6286 0.67189 0.0
C164 C 0.64016 0.64346 0.7076 0.0
C165 C 0.56173 0.65599 0.61615 0.0
C166 C 0.56349 0.71221 0.59489 0.0
C167 C 0.55147 0.70517 0.55831 0.0
C168 C 0.53745 0.63857 0.54256 0.0
C169 C 0.53565 0.5804 0.56378 0.0
C170 C 0.54807 0.5906 0.60048 0.0
C171 C 0.52292 0.50799 0.54912 0.0
C172 C 0.47205 0.46454 0.5645 0.0
C173 C 0.56813 0.4785 0.524 0.0
C174 C 0.56486 0.40758 0.51592 0.0
C175 C 0.51548 0.36375 0.5322 0.0
C176 C 0.55228 0.77019 0.53892 0.0
C177 C 0.48972 0.79776 0.52898 0.0
C178 C 0.61286 0.81335 0.53924 0.0
C179 C 0.61045 0.88257 0.53157 0.0
C180 C 0.54707 0.91134 0.52387 0.0
C181 C 0.48712 0.86715 0.52161 0.0
C182 C 0.46788 0.39384 0.55592 0.0
H183 H 0.5326 0.77395 0.72454 0.0
H184 H 0.50418 0.74879 0.66219 0.0
H185 H 0.64991 0.58865 0.65733 0.0
H186 H 0.67873 0.61412 0.71988 0.0
H187 H 0.57445 0.76261 0.60706 0.0
H188 H 0.54723 0.54718 0.61704 0.0
H189 H 0.52792 0.63212 0.51434 0.0
H190 H 0.4367 0.48512 0.58423 0.0
H191 H 0.60863 0.50973 0.51203 0.0
H192 H 0.60252 0.3868 0.49747 0.0
H193 H 0.44179 0.76689 0.52938 0.0
H194 H 0.66169 0.79441 0.54762 0.0
H195 H 0.4294 0.36234 0.56921 0.0
H196 H 0.4372 0.88679 0.51562 0.0
H197 H 0.65775 0.91432 0.53366 0.0
C198 C 0.09757 0.65594 0.02371 0.0
C199 C 0.1442 0.61337 0.03905 0.0
C200 C 0.09892 0.66431 0.98717 0.0
C201 C 0.14736 0.63079 0.96541 0.0
C202 C 0.19475 0.58921 0.98095 0.0
C203 C 0.19304 0.58043 0.0174 0.0
C204 C 0.14859 0.63908 0.9266 0.0
C205 C 0.21169 0.65149 0.90901 0.0
C206 C 0.21386 0.65978 0.87231 0.0
C207 C 0.15137 0.6556 0.85289 0.0
C208 C 0.08753 0.64311 0.87037 0.0
C209 C 0.08683 0.63474 0.90707 0.0
C210 C 1.01997 0.64225 0.85178 0.0
C211 C 0.99448 0.70312 0.8406 0.0
C212 C 0.9755 0.58364 0.85128 0.0
C213 C 0.90583 0.58658 0.84133 0.0
C214 C 0.87892 0.64865 0.83255 0.0
C215 C 0.28268 0.67232 0.85546 0.0
C216 C 0.32681 0.72615 0.86889 0.0
C217 C 0.30901 0.6249 0.83044 0.0
C218 C 0.3795 0.62881 0.82084 0.0
C219 C 0.42468 0.68037 0.83608 0.0
C220 C 0.39686 0.73032 0.85923 0.0
C221 C 0.9245 0.70644 0.83132 0.0
H222 H 0.05946 0.68203 0.03984 0.0
H223 H 0.06237 0.69734 0.97595 0.0
H224 H 0.23235 0.56242 0.9648 0.0
H225 H 0.22963 0.54739 0.02859 0.0
H226 H 0.25964 0.65503 0.92402 0.0
H227 H 1.03774 0.62522 0.9205 0.0
H228 H 0.15234 0.66261 0.82461 0.0
H229 H 1.02751 0.74917 0.84131 0.0
H230 H 0.99389 0.53633 0.86027 0.0
H231 H 0.87215 0.54125 0.84269 0.0
H232 H 0.30771 0.76332 0.88826 0.0
H233 H 0.27621 0.58248 0.82003 0.0
H234 H 0.90548 0.75496 0.82449 0.0
H235 H 0.42981 0.77115 0.87118 0.0
H236 H 0.39914 0.58962 0.80283 0.0
C237 C 1.04728 0.6965 0.26846 0.0
C238 C 0.0891 0.65592 0.24633 0.0
C239 C 1.03704 0.68192 0.30392 0.0
C240 C 0.06749 0.62586 0.31793 0.0
C241 C 0.10722 0.58352 0.29563 0.0
C242 C 0.11831 0.59868 0.26006 0.0
C243 C 0.06434 0.61759 0.35662 0.0
C244 C 1.02973 0.56127 0.37125 0.0
C245 C 1.02389 0.55723 0.40841 0.0
C246 C 0.05409 0.61031 0.43063 0.0
C247 C 0.09002 0.66594 0.416 0.0
C248 C 0.09452 0.66911 0.37911 0.0
C249 C 0.12269 0.72244 0.43831 0.0
C250 C 0.08249 0.76402 0.46078 0.0
C251 C 0.19307 0.74072 0.43321 0.0
C252 C 0.22191 0.80133 0.44857 0.0
C253 C 0.18083 0.8457 0.46906 0.0
C254 C 0.98535 0.49837 0.42397 0.0
C255 C 0.92159 0.47312 0.40959 0.0
C256 C 1.0116 0.46734 0.45351 0.0
C257 C 0.97502 0.41248 0.46828 0.0
C258 C 0.91092 0.38741 0.45407 0.0
C259 C 0.88479 0.41859 0.42449 0.0
C260 C 0.11132 0.82532 0.47603 0.0
H261 H 1.02372 0.7407 0.25863 0.0
H262 H 1.00655 0.71546 0.32074 0.0
H263 H 0.13186 0.54049 0.30607 0.0
H264 H 0.15062 0.56645 0.24355 0.0
H265 H 1.00683 0.52121 0.35372 0.0
H266 H 0.12114 0.71265 0.36774 0.0
H267 H 0.04954 0.60861 0.45919 0.0
H268 H 1.02789 0.75115 0.46482 0.0
H269 H 0.22517 0.7092 0.41614 0.0
H270 H 0.27611 0.81444 0.44349 0.0
H271 H 0.89932 0.49645 0.38719 0.0
H272 H 0.06099 0.48492 0.46496 0.0
H273 H 0.07829 0.85829 0.49169 0.0
H274 H 0.83508 0.40181 0.41315 0.0
H275 H 0.99752 0.38924 0.49064 0.0
C276 C 0.43298 1.0845 0.61949 0.0
C277 C 0.47897 0.1418 0.61778 0.0
C278 C 0.38044 1.0824 0.64495 0.0
C279 C 0.3725 0.13769 0.6692 0.0
C280 C 0.41876 0.19506 0.66766 0.0
C281 C 0.47172 0.19705 0.64215 0.0
C282 C 0.32006 0.13319 0.69797 0.0
C283 C 0.31955 1.07797 0.71979 0.0
C284 C 0.28344 1.07977 0.75221 0.0
C285 C 0.24154 0.13472 0.76081 0.0
C286 C 0.24586 0.19323 0.74077 0.0
C287 C 0.28147 0.18945 0.70796 0.0
C288 C 0.23909 0.26202 0.75897 0.0
C289 C 0.24161 0.31987 0.73844 0.0
C290 C 0.26208 0.27116 0.79439 0.0
C291 C 0.30765 0.32578 0.804 0.0
C292 C 0.32802 0.37232 0.77865 0.0
C293 C 0.30978 1.03868 0.78071 0.0
C294 C 0.32858 0.97155 0.77277 0.0
C295 C 0.33562 1.07279 0.81198 0.0
C296 C 0.38732 1.04468 0.83156 0.0
C297 C 0.41368 0.98231 0.8201 0.0
C298 C 0.38076 0.94379 0.79216 0.0
C299 C 0.28871 0.3739 0.74755 0.0
H300 H 0.43742 1.04107 0.60097 0.0
H301 H 0.34597 1.03748 0.64572 0.0
H302 H 0.41485 0.23785 0.68664 0.0
H303 H 0.50627 0.24187 0.64124 0.0
H304 H 0.35511 1.03789 0.71374 0.0
H305 H 0.28703 0.23328 0.69188 0.0
H306 H 0.21475 0.13603 0.78609 0.0
H307 H 0.21858 0.31767 0.71229 0.0
H308 H 0.25667 0.23101 0.81278 0.0
H309 H 0.33482 0.32495 0.82899 0.0
H310 H 0.30887 0.94372 0.74918 0.0
H311 H 0.32261 1.12465 0.81893 0.0
H312 H 0.30081 0.41169 0.72831 0.0
H313 H 0.39969 0.89479 0.78336 0.0
H314 H 0.41177 1.07495 0.85319 0.0
C315 C 0.67865 0.60846 0.9458 0.0
C316 C 0.62066 0.62817 0.92751 0.0
C317 C 0.67734 0.60711 0.9827 0.0
C318 C 0.61894 0.62828 0.00232 0.0
C319 C 0.56102 0.6487 0.98354 0.0
C320 C 0.56148 0.64739 0.94645 0.0
C321 C 0.61942 0.63001 0.04202 0.0
C322 C 0.68211 0.64206 0.06055 0.0
C323 C 0.68456 0.64239 0.09767 0.0
C324 C 0.62242 0.63393 0.11702 0.0
C325 C 0.55868 0.62404 0.09899 0.0
C326 C 0.55788 0.62045 0.06172 0.0
C327 C 0.49141 0.62177 0.11813 0.0
C328 C 0.4498 0.56135 0.11771 0.0
C329 C 0.4634 0.68258 0.13123 0.0
C330 C 0.39363 0.68374 0.14173 0.0
C331 C 0.35081 0.62385 0.13977 0.0
C332 C 0.75369 0.65051 0.11486 0.0
C333 C 0.78008 0.59742 0.13345 0.0
C334 C 0.79842 0.70583 0.10672 0.0
C335 C 0.86897 0.70617 0.11487 0.0
C336 C 0.89672 0.651 0.13129 0.0
C337 C 0.85109 0.59763 0.14161 0.0
C338 C 0.38035 0.5622 0.12887 0.0
H339 H 0.72432 0.59216 0.93147 0.0
H340 H 0.72215 0.58859 -0.00437 0.0
H341 H 0.5155 0.66663 -0.00269 0.0
H342 H 0.51614 0.66268 0.93258 0.0
H343 H 0.73009 0.65121 0.04618 0.0
H344 H 0.50866 0.61086 0.04828 0.0
H345 H 0.62351 0.63595 0.14574 0.0
H346 H 0.47012 0.51409 0.10716 0.0
H347 H 0.49426 0.72995 0.13125 0.0
H348 H 0.3725 0.73205 0.15001 0.0
H349 H 0.74678 0.55378 0.13961 0.0
H350 H 0.77934 0.74728 0.09228 0.0
H351 H 0.3487 0.51532 0.12674 0.0
H352 H 0.87061 0.55458 0.15453 0.0
H353 H 0.90219 0.7486 0.10694 0.0
loop_
_geom_bond_atom_site_label_1
_geom_bond_atom_site_label_2
_geom_bond_distance
_geom_bond_site_symmetry_2
_ccdc_geom_bond_type
Pr0 C2 2.880 . S
Pr0 O20 2.562 . S
Pr0 O21 2.490 . S
Pr0 O22 2.695 1_655 S
Pr0 O23 2.512 . S
Pr0 O25 2.437 . S
Pr0 O28 2.436 . S
Pr0 O30 2.438 1_655 S
Pr1 C11 2.880 . S
Pr1 O22 2.436 . S
Pr1 O24 2.438 1_455 S
Pr1 O26 2.562 . S
Pr1 O27 2.490 . S
Pr1 O28 2.695 1_455 S
Pr1 O29 2.512 . S
Pr1 O31 2.437 . S
C2 Pr0 2.880 . S
C2 C3 1.491 . S
C2 O20 1.254 . S
C2 O21 1.225 . S
C3 C2 1.491 . S
C3 C4 1.392 . S
C3 C8 1.356 . S
C4 C3 1.392 . S
C4 C5 1.368 . S
C4 H32 0.929 . S
C5 C4 1.368 . S
C5 C6 1.386 . S
C5 H33 0.929 . S
C6 C5 1.386 . S
C6 C7 1.373 . S
C7 C6 1.373 . S
C7 C8 1.409 . S
C7 H34 0.931 . S
C8 C3 1.356 . S
C8 C7 1.409 . S
C8 H35 0.930 . S
C9 O22 1.270 . S
C9 O23 1.248 1_455 S
C10 O24 1.267 . S
C10 O25 1.278 . S
C11 Pr1 2.880 . S
C11 C12 1.491 . S
C11 O26 1.254 . S
C11 O27 1.225 . S
C12 C11 1.491 . S
C12 C13 1.392 . S
C12 C17 1.356 . S
C13 C12 1.392 . S
C13 C14 1.368 . S
C13 H36 0.929 . S
C14 C13 1.368 . S
C14 C15 1.386 . S
C14 H37 0.929 . S
C15 C14 1.386 . S
C15 C16 1.373 . S
C16 C15 1.373 . S
C16 C17 1.409 . S
C16 H38 0.931 . S
C17 C12 1.356 . S
C17 C16 1.409 . S
C17 H39 0.930 . S
C18 O28 1.270 1_455 S
C18 O29 1.248 . S
C19 O30 1.267 . S
C19 O31 1.278 . S
O20 Pr0 2.562 . S
O20 C2 1.254 . S
O21 Pr0 2.490 . S
O21 C2 1.225 . S
O22 Pr0 2.695 1_455 S
O22 Pr1 2.436 . S
O22 C9 1.270 . S
O23 Pr0 2.512 . S
O23 C9 1.248 1_655 S
O24 Pr1 2.438 1_655 S
O24 C10 1.267 . S
O25 Pr0 2.437 . S
O25 C10 1.278 . S
O26 Pr1 2.562 . S
O26 C11 1.254 . S
O27 Pr1 2.490 . S
O27 C11 1.225 . S
O28 Pr0 2.436 . S
O28 Pr1 2.695 1_655 S
O28 C18 1.270 1_655 S
O29 Pr1 2.512 . S
O29 C18 1.248 . S
O30 Pr0 2.438 1_455 S
O30 C19 1.267 . S
O31 Pr1 2.437 . S
O31 C19 1.278 . S
H32 C4 0.929 . S
H33 C5 0.929 . S
H34 C7 0.931 . S
H35 C8 0.930 . S
H36 C13 0.929 . S
H37 C14 0.929 . S
H38 C16 0.931 . S
H39 C17 0.930 . S
Pr40 C42 2.880 . S
Pr40 O60 2.562 . S
Pr40 O61 2.490 . S
Pr40 O62 2.695 1_545 S
Pr40 O63 2.512 . S
Pr40 O65 2.437 . S
Pr40 O68 2.436 . S
Pr40 O70 2.438 1_545 S
Pr41 C51 2.880 . S
Pr41 O62 2.436 . S
Pr41 O64 2.438 1_565 S
Pr41 O66 2.562 . S
Pr41 O67 2.490 . S
Pr41 O68 2.695 1_565 S
Pr41 O69 2.512 . S
Pr41 O71 2.437 . S
C42 Pr40 2.880 . S
C42 C43 1.491 . S
C42 O60 1.254 . S
C42 O61 1.225 . S
C43 C42 1.491 . S
C43 C44 1.392 . S
C43 C48 1.356 . S
C44 C43 1.392 . S
C44 C45 1.368 . S
C44 H72 0.929 . S
C45 C44 1.368 . S
C45 C46 1.386 . S
C45 H73 0.929 . S
C46 C45 1.386 . S
C46 C47 1.373 . S
C47 C46 1.373 . S
C47 C48 1.409 . S
C47 H74 0.931 . S
C48 C43 1.356 . S
C48 C47 1.409 . S
C48 H75 0.930 . S
C49 O62 1.270 1_545 S
C49 O63 1.248 . S
C50 O64 1.267 . S
C50 O65 1.278 . S
C51 Pr41 2.880 . S
C51 C52 1.491 . S
C51 O66 1.254 . S
C51 O67 1.225 . S
C52 C51 1.491 . S
C52 C53 1.392 . S
C52 C57 1.356 . S
C53 C52 1.392 . S
C53 C54 1.368 . S
C53 H76 0.929 . S
C54 C53 1.368 . S
C54 C55 1.386 . S
C54 H77 0.929 . S
C55 C54 1.386 . S
C55 C56 1.373 . S
C56 C55 1.373 . S
C56 C57 1.409 . S
C56 H78 0.931 . S
C57 C52 1.356 . S
C57 C56 1.409 . S
C57 H79 0.930 . S
C58 O68 1.270 . S
C58 O69 1.248 1_545 S
C59 O70 1.267 . S
C59 O71 1.278 . S
O60 Pr40 2.562 . S
O60 C42 1.254 . S
O61 Pr40 2.490 . S
O61 C42 1.225 . S
O62 Pr40 2.695 1_565 S
O62 Pr41 2.436 . S
O62 C49 1.270 1_565 S
O63 Pr40 2.512 . S
O63 C49 1.248 . S
O64 Pr41 2.438 1_545 S
O64 C50 1.267 . S
O65 Pr40 2.437 . S
O65 C50 1.278 . S
O66 Pr41 2.562 . S
O66 C51 1.254 . S
O67 Pr41 2.490 . S
O67 C51 1.225 . S
O68 Pr40 2.436 . S
O68 Pr41 2.695 1_545 S
O68 C58 1.270 . S
O69 Pr41 2.512 . S
O69 C58 1.248 1_565 S
O70 Pr40 2.438 1_565 S
O70 C59 1.267 . S
O71 Pr41 2.437 . S
O71 C59 1.278 . S
H72 C44 0.929 . S
H73 C45 0.929 . S
H74 C47 0.931 . S
H75 C48 0.930 . S
H76 C53 0.929 . S
H77 C54 0.929 . S
H78 C56 0.931 . S
H79 C57 0.930 . S
Pr80 C82 2.880 . S
Pr80 O100 2.562 . S
Pr80 O101 2.490 . S
Pr80 O102 2.695 . S
Pr80 O103 2.512 . S
Pr80 O105 2.437 . S
Pr80 O108 2.436 . S
Pr80 O110 2.438 . S
Pr81 C91 2.880 . S
Pr81 O102 2.436 . S
Pr81 O104 2.438 . S
Pr81 O106 2.562 . S
Pr81 O107 2.490 . S
Pr81 O108 2.695 . S
Pr81 O109 2.512 . S
Pr81 O111 2.437 . S
C82 Pr80 2.880 . S
C82 C83 1.491 . S
C82 O100 1.254 . S
C82 O101 1.225 . S
C83 C82 1.491 . S
C83 C84 1.392 . S
C83 C88 1.356 . S
C84 C83 1.392 . S
C84 C85 1.368 . S
C84 H112 0.929 . S
C85 C84 1.368 . S
C85 C86 1.386 . S
C85 H113 0.929 . S
C86 C85 1.386 . S
C86 C87 1.373 . S
C87 C86 1.373 . S
C87 C88 1.409 . S
C87 H114 0.931 . S
C88 C83 1.356 . S
C88 C87 1.409 . S
C88 H115 0.930 . S
C89 O102 1.270 . S
C89 O103 1.248 . S
C90 O104 1.267 . S
C90 O105 1.278 . S
C91 Pr81 2.880 . S
C91 C92 1.491 . S
C91 O106 1.254 . S
C91 O107 1.225 . S
C92 C91 1.491 . S
C92 C93 1.392 . S
C92 C97 1.356 . S
C93 C92 1.392 . S
C93 C94 1.368 . S
C93 H116 0.929 . S
C94 C93 1.368 . S
C94 C95 1.386 . S
C94 H117 0.929 . S
C95 C94 1.386 . S
C95 C96 1.373 . S
C96 C95 1.373 . S
C96 C97 1.409 . S
C96 H118 0.931 . S
C97 C92 1.356 . S
C97 C96 1.409 . S
C97 H119 0.930 . S
C98 O108 1.270 . S
C98 O109 1.248 . S
C99 O110 1.267 . S
C99 O111 1.278 . S
O100 Pr80 2.562 . S
O100 C82 1.254 . S
O101 Pr80 2.490 . S
O101 C82 1.225 . S
O102 Pr80 2.695 . S
O102 Pr81 2.436 . S
O102 C89 1.270 . S
O103 Pr80 2.512 . S
O103 C89 1.248 . S
O104 Pr81 2.438 . S
O104 C90 1.267 . S
O105 Pr80 2.437 . S
O105 C90 1.278 . S
O106 Pr81 2.562 . S
O106 C91 1.254 . S
O107 Pr81 2.490 . S
O107 C91 1.225 . S
O108 Pr80 2.436 . S
O108 Pr81 2.695 . S
O108 C98 1.270 . S
O109 Pr81 2.512 . S
O109 C98 1.248 . S
O110 Pr80 2.438 . S
O110 C99 1.267 . S
O111 Pr81 2.437 . S
O111 C99 1.278 . S
H112 C84 0.929 . S
H113 C85 0.929 . S
H114 C87 0.931 . S
H115 C88 0.930 . S
H116 C93 0.929 . S
H117 C94 0.929 . S
H118 C96 0.931 . S
H119 C97 0.930 . S
C120 C121 1.386 . S
C120 C122 1.397 . S
C120 H144 0.931 . S
C121 C120 1.386 . S
C121 C125 1.397 1_545 S
C122 C120 1.397 . S
C122 C123 1.384 . S
C122 H145 0.930 . S
C123 C122 1.384 . S
C123 C124 1.377 1_545 S
C123 C126 1.481 . S
C124 C123 1.377 1_565 S
C124 C125 1.389 . S
C124 H146 0.929 . S
C125 C121 1.397 1_565 S
C125 C124 1.389 . S
C125 H147 0.931 . S
C126 C123 1.481 . S
C126 C127 1.387 . S
C126 C131 1.390 1_545 S
C127 C126 1.387 . S
C127 C128 1.401 . S
C127 H148 0.930 . S
C128 C127 1.401 . S
C128 C129 1.376 . S
C128 C137 1.511 . S
C129 C128 1.376 . S
C129 C130 1.392 1_545 S
C129 H150 0.931 . S
C130 C129 1.392 1_565 S
C130 C131 1.361 . S
C130 C132 1.500 . S
C131 C126 1.390 1_565 S
C131 C130 1.361 . S
C131 H149 0.931 . S
C132 C130 1.500 . S
C132 C133 1.371 . S
C132 C134 1.365 . S
C133 C132 1.371 . S
C133 C143 1.386 . S
C133 H151 0.931 . S
C134 C132 1.365 . S
C134 C135 1.409 . S
C134 H152 0.929 . S
C135 C134 1.409 . S
C135 C136 1.380 . S
C135 H153 0.930 . S
C136 C135 1.380 . S
C136 C143 1.357 . S
C137 C128 1.511 . S
C137 C138 1.341 . S
C137 C139 1.371 . S
C138 C137 1.341 . S
C138 C142 1.394 . S
C138 H154 0.930 . S
C139 C137 1.371 . S
C139 C140 1.392 . S
C139 H155 0.931 . S
C140 C139 1.392 . S
C140 C141 1.331 . S
C140 H158 0.932 . S
C141 C140 1.331 . S
C141 C142 1.336 . S
C142 C138 1.394 . S
C142 C141 1.336 . S
C142 H157 0.929 . S
C143 C133 1.386 . S
C143 C136 1.357 . S
C143 H156 0.928 . S
H144 C120 0.931 . S
H145 C122 0.930 . S
H146 C124 0.929 . S
H147 C125 0.931 . S
H148 C127 0.930 . S
H149 C131 0.931 . S
H150 C129 0.931 . S
H151 C133 0.931 . S
H152 C134 0.929 . S
H153 C135 0.930 . S
H154 C138 0.930 . S
H155 C139 0.931 . S
H156 C143 0.928 . S
H157 C142 0.929 . S
H158 C140 0.932 . S
C159 C160 1.386 . S
C159 C161 1.397 . S
C159 H183 0.931 . S
C160 C159 1.386 . S
C160 C164 1.397 . S
C161 C159 1.397 . S
C161 C162 1.384 . S
C161 H184 0.930 . S
C162 C161 1.384 . S
C162 C163 1.377 . S
C162 C165 1.481 . S
C163 C162 1.377 . S
C163 C164 1.389 . S
C163 H185 0.929 . S
C164 C160 1.397 . S
C164 C163 1.389 . S
C164 H186 0.931 . S
C165 C162 1.481 . S
C165 C166 1.387 . S
C165 C170 1.390 . S
C166 C165 1.387 . S
C166 C167 1.401 . S
C166 H187 0.930 . S
C167 C166 1.401 . S
C167 C168 1.376 . S
C167 C176 1.511 . S
C168 C167 1.376 . S
C168 C169 1.392 . S
C168 H189 0.931 . S
C169 C168 1.392 . S
C169 C170 1.361 . S
C169 C171 1.500 . S
C170 C165 1.390 . S
C170 C169 1.361 . S
C170 H188 0.931 . S
C171 C169 1.500 . S
C171 C172 1.371 . S
C171 C173 1.365 . S
C172 C171 1.371 . S
C172 C182 1.386 . S
C172 H190 0.931 . S
C173 C171 1.365 . S
C173 C174 1.409 . S
C173 H191 0.929 . S
C174 C173 1.409 . S
C174 C175 1.380 . S
C174 H192 0.930 . S
C175 C174 1.380 . S
C175 C182 1.357 . S
C176 C167 1.511 . S
C176 C177 1.341 . S
C176 C178 1.371 . S
C177 C176 1.341 . S
C177 C181 1.394 . S
C177 H193 0.930 . S
C178 C176 1.371 . S
C178 C179 1.392 . S
C178 H194 0.931 . S
C179 C178 1.392 . S
C179 C180 1.331 . S
C179 H197 0.932 . S
C180 C179 1.331 . S
C180 C181 1.336 . S
C181 C177 1.394 . S
C181 C180 1.336 . S
C181 H196 0.929 . S
C182 C172 1.386 . S
C182 C175 1.357 . S
C182 H195 0.928 . S
H183 C159 0.931 . S
H184 C161 0.930 . S
H185 C163 0.929 . S
H186 C164 0.931 . S
H187 C166 0.930 . S
H188 C170 0.931 . S
H189 C168 0.931 . S
H190 C172 0.931 . S
H191 C173 0.929 . S
H192 C174 0.930 . S
H193 C177 0.930 . S
H194 C178 0.931 . S
H195 C182 0.928 . S
H196 C181 0.929 . S
H197 C179 0.932 . S
C198 C199 1.386 . S
C198 C200 1.397 1_554 S
C198 H222 0.931 . S
C199 C198 1.386 . S
C199 C203 1.397 1_455 S
C200 C198 1.397 1_556 S
C200 C201 1.384 . S
C200 H223 0.930 . S
C201 C200 1.384 . S
C201 C202 1.377 1_455 S
C201 C204 1.481 . S
C202 C201 1.377 1_655 S
C202 C203 1.389 1_556 S
C202 H224 0.929 . S
C203 C199 1.397 1_655 S
C203 C202 1.389 1_554 S
C203 H225 0.931 . S
C204 C201 1.481 . S
C204 C205 1.387 . S
C204 C209 1.390 1_455 S
C205 C204 1.387 . S
C205 C206 1.401 . S
C205 H226 0.930 . S
C206 C205 1.401 . S
C206 C207 1.376 . S
C206 C215 1.511 . S
C207 C206 1.376 . S
C207 C208 1.392 1_455 S
C207 H228 0.931 . S
C208 C207 1.392 1_655 S
C208 C209 1.361 . S
C208 C210 1.500 . S
C209 C204 1.390 1_655 S
C209 C208 1.361 . S
C209 H227 0.931 . S
C210 C208 1.500 . S
C210 C211 1.371 . S
C210 C212 1.365 . S
C211 C210 1.371 . S
C211 C221 1.386 . S
C211 H229 0.931 . S
C212 C210 1.365 . S
C212 C213 1.409 . S
C212 H230 0.929 . S
C213 C212 1.409 . S
C213 C214 1.380 . S
C213 H231 0.930 . S
C214 C213 1.380 . S
C214 C221 1.357 . S
C215 C206 1.511 . S
C215 C216 1.341 . S
C215 C217 1.371 . S
C216 C215 1.341 . S
C216 C220 1.394 . S
C216 H232 0.930 . S
C217 C215 1.371 . S
C217 C218 1.392 . S
C217 H233 0.931 . S
C218 C217 1.392 . S
C218 C219 1.331 . S
C218 H236 0.932 . S
C219 C218 1.331 . S
C219 C220 1.336 . S
C220 C216 1.394 . S
C220 C219 1.336 . S
C220 H235 0.929 . S
C221 C211 1.386 . S
C221 C214 1.357 . S
C221 H234 0.928 . S
H222 C198 0.931 . S
H223 C200 0.930 . S
H224 C202 0.929 . S
H225 C203 0.931 . S
H226 C205 0.930 . S
H227 C209 0.931 . S
H228 C207 0.931 . S
H229 C211 0.931 . S
H230 C212 0.929 . S
H231 C213 0.930 . S
H232 C216 0.930 . S
H233 C217 0.931 . S
H234 C221 0.928 . S
H235 C220 0.929 . S
H236 C218 0.932 . S
C237 C238 1.386 . S
C237 C239 1.397 . S
C237 H261 0.931 . S
C238 C237 1.386 . S
C238 C242 1.397 1_655 S
C239 C237 1.397 . S
C239 C240 1.384 . S
C239 H262 0.930 . S
C240 C239 1.384 . S
C240 C241 1.377 1_655 S
C240 C243 1.481 . S
C241 C240 1.377 1_455 S
C241 C242 1.389 . S
C241 H263 0.929 . S
C242 C238 1.397 1_455 S
C242 C241 1.389 . S
C242 H264 0.931 . S
C243 C240 1.481 . S
C243 C244 1.387 . S
C243 C248 1.390 1_655 S
C244 C243 1.387 . S
C244 C245 1.401 . S
C244 H265 0.930 . S
C245 C244 1.401 . S
C245 C246 1.376 1_655 S
C245 C254 1.511 . S
C246 C245 1.376 1_455 S
C246 C247 1.392 . S
C246 H267 0.931 . S
C247 C246 1.392 . S
C247 C248 1.361 . S
C247 C249 1.500 . S
C248 C243 1.390 1_455 S
C248 C247 1.361 . S
C248 H266 0.931 . S
C249 C247 1.500 . S
C249 C250 1.371 . S
C249 C251 1.365 . S
C250 C249 1.371 . S
C250 C260 1.386 . S
C250 H268 0.931 . S
C251 C249 1.365 . S
C251 C252 1.409 . S
C251 H269 0.929 . S
C252 C251 1.409 . S
C252 C253 1.380 . S
C252 H270 0.930 . S
C253 C252 1.380 . S
C253 C260 1.357 . S
C254 C245 1.511 . S
C254 C255 1.341 . S
C254 C256 1.371 . S
C255 C254 1.341 . S
C255 C259 1.394 . S
C255 H271 0.930 . S
C256 C254 1.371 . S
C256 C257 1.392 . S
C256 H272 0.931 . S
C257 C256 1.392 . S
C257 C258 1.331 . S
C257 H275 0.932 . S
C258 C257 1.331 . S
C258 C259 1.336 . S
C259 C255 1.394 . S
C259 C258 1.336 . S
C259 H274 0.929 . S
C260 C250 1.386 . S
C260 C253 1.357 . S
C260 H273 0.928 . S
H261 C237 0.931 . S
H262 C239 0.930 . S
H263 C241 0.929 . S
H264 C242 0.931 . S
H265 C244 0.930 . S
H266 C248 0.931 . S
H267 C246 0.931 . S
H268 C250 0.931 . S
H269 C251 0.929 . S
H270 C252 0.930 . S
H271 C255 0.930 . S
H272 C256 0.931 . S
H273 C260 0.928 . S
H274 C259 0.929 . S
H275 C257 0.932 . S
C276 C277 1.386 1_565 S
C276 C278 1.397 . S
C276 H300 0.931 . S
C277 C276 1.386 1_545 S
C277 C281 1.397 . S
C278 C276 1.397 . S
C278 C279 1.396 . S
C278 H301 0.930 . S
C279 C278 1.396 . S
C279 C280 1.365 1_565 S
C279 C282 1.481 . S
C280 C279 1.365 1_545 S
C280 C281 1.389 . S
C280 H302 0.929 . S
C281 C277 1.397 . S
C281 C280 1.389 . S
C281 H303 0.931 . S
C282 C279 1.481 . S
C282 C283 1.405 . S
C282 C287 1.372 1_565 S
C283 C282 1.405 . S
C283 C284 1.401 . S
C283 H304 0.930 . S
C284 C283 1.401 . S
C284 C285 1.373 1_565 S
C284 C293 1.511 . S
C285 C284 1.373 1_545 S
C285 C286 1.395 . S
C285 H306 0.931 . S
C286 C285 1.395 . S
C286 C287 1.361 . S
C286 C288 1.500 . S
C287 C282 1.372 1_545 S
C287 C286 1.361 . S
C287 H305 0.931 . S
C288 C286 1.500 . S
C288 C289 1.371 . S
C288 C290 1.365 . S
C289 C288 1.371 . S
C289 C299 1.386 . S
C289 H307 0.931 . S
C290 C288 1.365 . S
C290 C291 1.409 . S
C290 H308 0.929 . S
C291 C290 1.409 . S
C291 C292 1.380 . S
C291 H309 0.930 . S
C292 C291 1.380 . S
C292 C299 1.357 . S
C293 C284 1.511 . S
C293 C294 1.341 . S
C293 C295 1.371 . S
C294 C293 1.341 . S
C294 C298 1.394 . S
C294 H310 0.930 . S
C295 C293 1.371 . S
C295 C296 1.392 . S
C295 H311 0.931 . S
C296 C295 1.392 . S
C296 C297 1.331 . S
C296 H314 0.932 . S
C297 C296 1.331 . S
C297 C298 1.336 . S
C298 C294 1.394 . S
C298 C297 1.336 . S
C298 H313 0.929 . S
C299 C289 1.386 . S
C299 C292 1.357 . S
C299 H312 0.928 . S
H300 C276 0.931 . S
H301 C278 0.930 . S
H302 C280 0.929 . S
H303 C281 0.931 . S
H304 C283 0.930 . S
H305 C287 0.931 . S
H306 C285 0.931 . S
H307 C289 0.931 . S
H308 C290 0.929 . S
H309 C291 0.930 . S
H310 C294 0.930 . S
H311 C295 0.931 . S
H312 C299 0.928 . S
H313 C298 0.929 . S
H314 C296 0.932 . S
C315 C316 1.386 . S
C315 C317 1.397 1_556 S
C315 H339 0.931 . S
C316 C315 1.386 . S
C316 C320 1.397 . S
C317 C315 1.397 1_554 S
C317 C318 1.384 . S
C317 H340 0.930 . S
C318 C317 1.384 . S
C318 C319 1.377 . S
C318 C321 1.481 . S
C319 C318 1.377 . S
C319 C320 1.389 1_554 S
C319 H341 0.929 . S
C320 C316 1.397 . S
C320 C319 1.389 1_556 S
C320 H342 0.931 . S
C321 C318 1.481 . S
C321 C322 1.387 . S
C321 C326 1.390 . S
C322 C321 1.387 . S
C322 C323 1.401 . S
C322 H343 0.930 . S
C323 C322 1.401 . S
C323 C324 1.376 . S
C323 C332 1.511 . S
C324 C323 1.376 . S
C324 C325 1.392 . S
C324 H345 0.931 . S
C325 C324 1.392 . S
C325 C326 1.361 . S
C325 C327 1.500 . S
C326 C321 1.390 . S
C326 C325 1.361 . S
C326 H344 0.931 . S
C327 C325 1.500 . S
C327 C328 1.371 . S
C327 C329 1.365 . S
C328 C327 1.371 . S
C328 C338 1.386 . S
C328 H346 0.931 . S
C329 C327 1.365 . S
C329 C330 1.409 . S
C329 H347 0.929 . S
C330 C329 1.409 . S
C330 C331 1.380 . S
C330 H348 0.930 . S
C331 C330 1.380 . S
C331 C338 1.357 . S
C332 C323 1.511 . S
C332 C333 1.341 . S
C332 C334 1.371 . S
C333 C332 1.341 . S
C333 C337 1.394 . S
C333 H349 0.930 . S
C334 C332 1.371 . S
C334 C335 1.392 . S
C334 H350 0.931 . S
C335 C334 1.392 . S
C335 C336 1.331 . S
C335 H353 0.932 . S
C336 C335 1.331 . S
C336 C337 1.336 . S
C337 C333 1.394 . S
C337 C336 1.336 . S
C337 H352 0.929 . S
C338 C328 1.386 . S
C338 C331 1.357 . S
C338 H351 0.928 . S
H339 C315 0.931 . S
H340 C317 0.930 . S
H341 C319 0.929 . S
H342 C320 0.931 . S
H343 C322 0.930 . S
H344 C326 0.931 . S
H345 C324 0.931 . S
H346 C328 0.931 . S
H347 C329 0.929 . S
H348 C330 0.930 . S
H349 C333 0.930 . S
H350 C334 0.931 . S
H351 C338 0.928 . S
H352 C337 0.929 . S
H353 C335 0.932 . S
C19 C331 2.818 . S
C46 C258 2.365 . S
C95 C297 1.767 . S
C10 C336 3.239 . S
C253 C55 1.622 . S
C292 C86 3.167 . S
C59 C180 5.033 . S
C90 C214 3.341 . S
C15 C136 1.786 . S
C175 C50 4.943 . S
C219 C99 2.893 . S
C6 C141 1.670 . S
C199 C9 1.170 . S
C58 C121 1.442 . S
C98 C160 2.042 . S
C277 C49 1.508 . S
C316 C89 1.150 . S
C18 C238 1.433 1_455 S
