# Generated by pormake.
# Topology nom, (4,4)-cn, num edge types: 1
# Building blocks:
#     Node 0, Type 0, BuildingBlock: AZAVOO_clean_linker_0, # of connection points: 4
#     Node 1, Type 0, BuildingBlock: AZAVOO_clean_linker_0, # of connection points: 4
#     Node 2, Type 0, BuildingBlock: AZAVOO_clean_linker_0, # of connection points: 4
#     Node 3, Type 0, BuildingBlock: AZAVOO_clean_linker_0, # of connection points: 4
#     Node 4, Type 0, BuildingBlock: AZAVOO_clean_linker_0, # of connection points: 4
#     Node 5, Type 0, BuildingBlock: AZAVOO_clean_linker_0, # of connection points: 4
#     Node 6, Type 1, BuildingBlock: UXUYUI_clean_sbu_0, # of connection points: 4
#     Node 7, Type 1, BuildingBlock: UXUYUI_clean_sbu_0, # of connection points: 4
#     Node 8, Type 1, BuildingBlock: UXUYUI_clean_sbu_0, # of connection points: 4
#     Node 9, Type 1, BuildingBlock: UXUYUI_clean_sbu_0, # of connection points: 4
#     Node 10, Type 1, BuildingBlock: UXUYUI_clean_sbu_0, # of connection points: 4
#     Node 11, Type 1, BuildingBlock: UXUYUI_clean_sbu_0, # of connection points: 4
#     Edge 12, Type (0, 1), BuildingBlock: CIFDUS_clean_linker_0, # of connection points: 2
#     Edge 13, Type (0, 1), BuildingBlock: CIFDUS_clean_linker_0, # of connection points: 2
#     Edge 14, Type (0, 1), BuildingBlock: CIFDUS_clean_linker_0, # of connection points: 2
#     Edge 15, Type (0, 1), BuildingBlock: CIFDUS_clean_linker_0, # of connection points: 2
#     Edge 16, Type (0, 1), BuildingBlock: CIFDUS_clean_linker_0, # of connection points: 2
#     Edge 17, Type (0, 1), BuildingBlock: CIFDUS_clean_linker_0, # of connection points: 2
#     Edge 18, Type (0, 1), BuildingBlock: CIFDUS_clean_linker_0, # of connection points: 2
#     Edge 19, Type (0, 1), BuildingBlock: CIFDUS_clean_linker_0, # of connection points: 2
#     Edge 20, Type (0, 1), BuildingBlock: CIFDUS_clean_linker_0, # of connection points: 2
#     Edge 21, Type (0, 1), BuildingBlock: CIFDUS_clean_linker_0, # of connection points: 2
#     Edge 22, Type (0, 1), BuildingBlock: CIFDUS_clean_linker_0, # of connection points: 2
#     Edge 23, Type (0, 1), BuildingBlock: CIFDUS_clean_linker_0, # of connection points: 2
#     Edge 24, Type (0, 1), BuildingBlock: CIFDUS_clean_linker_0, # of connection points: 2
#     Edge 25, Type (0, 1), BuildingBlock: CIFDUS_clean_linker_0, # of connection points: 2
#     Edge 26, Type (0, 1), BuildingBlock: CIFDUS_clean_linker_0, # of connection points: 2
#     Edge 27, Type (0, 1), BuildingBlock: CIFDUS_clean_linker_0, # of connection points: 2
#     Edge 28, Type (0, 1), BuildingBlock: CIFDUS_clean_linker_0, # of connection points: 2
#     Edge 29, Type (0, 1), BuildingBlock: CIFDUS_clean_linker_0, # of connection points: 2
#     Edge 30, Type (0, 1), BuildingBlock: CIFDUS_clean_linker_0, # of connection points: 2
#     Edge 31, Type (0, 1), BuildingBlock: CIFDUS_clean_linker_0, # of connection points: 2
#     Edge 32, Type (0, 1), BuildingBlock: CIFDUS_clean_linker_0, # of connection points: 2
#     Edge 33, Type (0, 1), BuildingBlock: CIFDUS_clean_linker_0, # of connection points: 2
#     Edge 34, Type (0, 1), BuildingBlock: CIFDUS_clean_linker_0, # of connection points: 2
#     Edge 35, Type (0, 1), BuildingBlock: CIFDUS_clean_linker_0, # of connection points: 2
# Relax obj value: 0.174
# Max RMSD: 0.224
# Mean RMSD: 0.184
data_MOF--net-nom--node1-UXUYUI_clean_sbu_0--node2-AZAVOO_clean_linker_0--edge1-CIFDUS_clean_linker_0
_symmetry_space_group_name_H-M    P1
_symmetry_Int_Tables_number       1
_symmetry_cell_setting            triclinic
loop_
_symmetry_equiv_pos_as_xyz
'x, y, z'
_cell_length_a     52.730848
_cell_length_b     53.685803
_cell_length_c     65.980503
_cell_angle_alpha  89.94544
_cell_angle_beta   89.894459
_cell_angle_gamma 121.32559
loop_
_atom_site_label
_atom_site_type_symbol
_atom_site_fract_x
_atom_site_fract_y
_atom_site_fract_z
_atom_type_partial_charge
H0 H 0.08152 0.52955 0.1863 0.0
H1 H 0.21935 0.64754 0.39509 0.0
H2 H 0.01592 0.47316 0.28859 0.0
H3 H 0.98194 0.45248 0.26003 0.0
H4 H 0.9568 0.51672 0.26815 0.0
H5 H 0.99157 0.53771 0.29659 0.0
H6 H 0.08382 0.51583 0.27413 0.0
H7 H 0.08701 0.51694 0.23709 0.0
H8 H 0.04627 0.56904 0.235 0.0
H9 H 0.04364 0.56811 0.27205 0.0
H10 H 0.13548 0.55135 0.30555 0.0
H11 H 0.18421 0.58888 0.29238 0.0
H12 H 0.14972 0.64483 0.27994 0.0
H13 H 0.10133 0.60742 0.29336 0.0
H14 H 0.10996 0.52744 0.35147 0.0
H15 H 0.15319 0.55066 0.37383 0.0
H16 H 0.16332 0.63455 0.36163 0.0
H17 H 0.11973 0.61095 0.33958 0.0
H18 H 0.0439 0.48984 0.36329 0.0
H19 H 0.05689 0.49012 0.39895 0.0
H20 H 0.08087 0.5801 0.40367 0.0
H21 H 0.06718 0.57931 0.36826 0.0
H22 H 0.98178 0.46788 0.33183 0.0
H23 H 0.93297 0.45325 0.34643 0.0
H24 H 0.96568 0.54295 0.36259 0.0
H25 H 0.01368 0.55734 0.34762 0.0
O26 O 0.08026 0.5296 0.20094 0.0
O27 O 0.05896 0.55609 0.20069 0.0
O28 O 0.19597 0.59413 0.39213 0.0
O29 O 0.20239 0.63784 0.38617 0.0
C30 C 0.0326 0.52378 0.3076 0.0
C31 C 0.06073 0.54026 0.29818 0.0
C32 C 0.08645 0.55573 0.31008 0.0
C33 C 0.08446 0.55302 0.33134 0.0
C34 C 0.05632 0.53715 0.3408 0.0
C35 C 0.03027 0.52365 0.32894 0.0
C36 C 0.00614 0.50687 0.29463 0.0
C37 C 0.00229 0.4821 0.28464 0.0
C38 C 0.98288 0.47036 0.26829 0.0
C39 C 0.96691 0.48318 0.26165 0.0
C40 C 0.96915 0.50666 0.27271 0.0
C41 C 0.98864 0.51841 0.28912 0.0
C42 C 0.0633 0.54169 0.27572 0.0
C43 C 0.07573 0.52757 0.26563 0.0
C44 C 0.07745 0.52818 0.24448 0.0
C45 C 0.06679 0.54298 0.23307 0.0
C46 C 0.0546 0.55737 0.24331 0.0
C47 C 0.053 0.55681 0.26446 0.0
C48 C 0.11506 0.57681 0.3004 0.0
C49 C 0.13847 0.5716 0.29976 0.0
C50 C 0.16613 0.59295 0.29217 0.0
C51 C 0.17069 0.61977 0.28523 0.0
C52 C 0.14687 0.62448 0.28539 0.0
C53 C 0.11926 0.60312 0.2929 0.0
C54 C 0.11182 0.56753 0.34388 0.0
C55 C 0.12164 0.55084 0.35359 0.0
C56 C 0.14631 0.56416 0.36636 0.0
C57 C 0.16171 0.59449 0.36952 0.0
C58 C 0.15198 0.61117 0.35952 0.0
C59 C 0.1272 0.59779 0.34684 0.0
C60 C 0.0548 0.5346 0.36321 0.0
C61 C 0.05073 0.50917 0.3723 0.0
C62 C 0.05854 0.50951 0.39258 0.0
C63 C 0.07045 0.5353 0.40402 0.0
C64 C 0.07164 0.55984 0.39536 0.0
C65 C 0.0638 0.55945 0.37511 0.0
C66 C 0.00121 0.51365 0.33869 0.0
C67 C 0.9783 0.48425 0.33859 0.0
C68 C 0.95058 0.47596 0.347 0.0
C69 C 0.94547 0.49702 0.3555 0.0
C70 C 0.96875 0.5263 0.35587 0.0
C71 C 0.99627 0.53451 0.3475 0.0
C72 C 0.06839 0.54336 0.2106 0.0
C73 C 0.1877 0.60869 0.38328 0.0
H74 H 0.56564 0.07845 0.35672 0.0
H75 H 0.58517 0.16167 0.5936 0.0
H76 H 0.54957 0.98838 0.46602 0.0
H77 H 0.54388 0.9597 0.43579 0.0
H78 H 0.47049 0.96834 0.4165 0.0
H79 H 0.47678 0.9975 0.4467 0.0
H80 H 0.57255 0.04648 0.44041 0.0
H81 H 0.57633 0.05829 0.40429 0.0
H82 H 0.5069 0.07786 0.41118 0.0
H83 H 0.50309 0.06559 0.44723 0.0
H84 H 0.59687 0.10618 0.46322 0.0
H85 H 0.61496 0.15629 0.45212 0.0
H86 H 0.53755 0.15142 0.47883 0.0
H87 H 0.5193 0.10114 0.48927 0.0
H88 H 0.60233 0.09809 0.51225 0.0
H89 H 0.62424 0.13356 0.53983 0.0
H90 H 0.5366 0.11343 0.55774 0.0
H91 H 0.51508 0.0784 0.5299 0.0
H92 H 0.57598 0.034 0.52983 0.0
H93 H 0.58516 0.04199 0.5662 0.0
H94 H 0.49735 0.02783 0.57467 0.0
H95 H 0.48817 0.01926 0.53822 0.0
H96 H 0.53628 0.97607 0.51373 0.0
H97 H 0.50406 0.92596 0.52618 0.0
H98 H 0.42751 0.92567 0.50257 0.0
H99 H 0.45968 0.9757 0.49059 0.0
O100 O 0.56381 0.07392 0.37105 0.0
O101 O 0.5283 0.08407 0.37545 0.0
O102 O 0.62202 0.16165 0.57043 0.0
O103 O 0.57719 0.14871 0.58208 0.0
C104 C 0.52191 0.0178 0.47419 0.0
C105 C 0.53484 0.04732 0.46822 0.0
C106 C 0.54508 0.0694 0.48303 0.0
C107 C 0.54389 0.06221 0.50368 0.0
C108 C 0.53091 0.03273 0.50967 0.0
C109 C 0.51886 0.01041 0.49499 0.0
C110 C 0.51369 0.99511 0.45848 0.0
C111 C 0.53174 0.98337 0.45554 0.0
C112 C 0.52848 0.96703 0.43822 0.0
C113 C 0.507 0.96207 0.42356 0.0
C114 C 0.48765 0.97229 0.42728 0.0
C115 C 0.49096 0.98865 0.44461 0.0
C116 C 0.53751 0.05512 0.44639 0.0
C117 C 0.55815 0.05326 0.43406 0.0
C118 C 0.56028 0.06006 0.41345 0.0
C119 C 0.5419 0.06901 0.40483 0.0
C120 C 0.52137 0.07103 0.41732 0.0
C121 C 0.51919 0.06411 0.43791 0.0
C122 C 0.55677 0.1001 0.47698 0.0
C123 C 0.58387 0.11601 0.46662 0.0
C124 C 0.59422 0.14463 0.46042 0.0
C125 C 0.57762 0.15778 0.46454 0.0
C126 C 0.55063 0.14178 0.47515 0.0
C127 C 0.5403 0.11318 0.48129 0.0
C128 C 0.55716 0.08567 0.51916 0.0
C129 C 0.58798 0.10171 0.52198 0.0
C130 C 0.60039 0.12183 0.53779 0.0
C131 C 0.58213 0.12619 0.55107 0.0
C132 C 0.55128 0.11051 0.54786 0.0
C133 C 0.53893 0.09055 0.53196 0.0
C134 C 0.53151 0.02625 0.53143 0.0
C135 C 0.5582 0.03118 0.53968 0.0
C136 C 0.56353 0.03609 0.56041 0.0
C137 C 0.54223 0.03623 0.57318 0.0
C138 C 0.51416 0.02784 0.56522 0.0
C139 C 0.50881 0.02282 0.54441 0.0
C140 C 0.50027 0.97952 0.50137 0.0
C141 C 0.51256 0.96509 0.51125 0.0
C142 C 0.49417 0.93648 0.51823 0.0
C143 C 0.46322 0.92199 0.51551 0.0
C144 C 0.45118 0.93641 0.50521 0.0
C145 C 0.46954 0.96487 0.49821 0.0
C146 C 0.54417 0.07615 0.38292 0.0
C147 C 0.59509 0.14666 0.56837 0.0
H148 H 0.55326 0.50136 0.7863 0.0
H149 H 0.58207 0.41816 0.56527 0.0
H150 H 0.54494 0.5668 0.68271 0.0
H151 H 0.53895 0.58552 0.7151 0.0
H152 H 0.45158 0.50892 0.72194 0.0
H153 H 0.45804 0.48985 0.68977 0.0
H154 H 0.5671 0.53184 0.70021 0.0
H155 H 0.5697 0.52624 0.73684 0.0
H156 H 0.48525 0.44485 0.73478 0.0
H157 H 0.48289 0.45092 0.69815 0.0
H158 H 0.58769 0.49984 0.6739 0.0
H159 H 0.60403 0.46719 0.686 0.0
H160 H 0.51706 0.39281 0.67286 0.0
H161 H 0.50086 0.42566 0.66144 0.0
H162 H 0.5881 0.52194 0.62432 0.0
H163 H 0.61168 0.50639 0.59952 0.0
H164 H 0.53117 0.42155 0.59657 0.0
H165 H 0.50775 0.43758 0.62118 0.0
H166 H 0.55923 0.55621 0.61438 0.0
H167 H 0.5738 0.5597 0.57891 0.0
H168 H 0.49657 0.47459 0.56782 0.0
H169 H 0.48242 0.47116 0.60351 0.0
H170 H 0.52102 0.56943 0.63158 0.0
H171 H 0.48645 0.58544 0.62234 0.0
H172 H 0.41257 0.50119 0.64025 0.0
H173 H 0.44703 0.4856 0.64939 0.0
O174 O 0.55202 0.50289 0.77176 0.0
O175 O 0.50904 0.46071 0.76982 0.0
O176 O 0.6126 0.47003 0.57496 0.0
O177 O 0.5732 0.42495 0.57495 0.0
C178 C 0.50965 0.51251 0.66839 0.0
C179 C 0.52242 0.49632 0.67472 0.0
C180 C 0.5327 0.48443 0.66024 0.0
C181 C 0.53226 0.49053 0.63955 0.0
C182 C 0.51908 0.50644 0.6332 0.0
C183 C 0.50649 0.51626 0.64761 0.0
C184 C 0.50181 0.52714 0.68392 0.0
C185 C 0.52406 0.55462 0.69082 0.0
C186 C 0.52078 0.56511 0.70934 0.0
C187 C 0.49494 0.54845 0.7209 0.0
C188 C 0.47161 0.52211 0.71313 0.0
C189 C 0.47514 0.51135 0.69477 0.0
C190 C 0.52484 0.49176 0.69663 0.0
C191 C 0.54931 0.51274 0.70771 0.0
C192 C 0.55069 0.50951 0.72862 0.0
C193 C 0.52764 0.48513 0.73875 0.0
C194 C 0.50335 0.4639 0.72746 0.0
C195 C 0.50198 0.46723 0.70655 0.0
C196 C 0.54319 0.46499 0.66678 0.0
C197 C 0.57231 0.47648 0.67364 0.0
C198 C 0.58157 0.45781 0.68044 0.0
C199 C 0.5618 0.4274 0.68045 0.0
C200 C 0.53268 0.4161 0.67336 0.0
C201 C 0.52345 0.43477 0.66666 0.0
C202 C 0.54633 0.48082 0.62456 0.0
C203 C 0.57563 0.50002 0.61827 0.0
C204 C 0.58901 0.49109 0.60411 0.0
C205 C 0.57335 0.46266 0.59615 0.0
C206 C 0.5439 0.44352 0.60249 0.0
C207 C 0.53049 0.45257 0.61655 0.0
C208 C 0.51993 0.51335 0.61146 0.0
C209 C 0.54457 0.53905 0.60404 0.0
C210 C 0.55291 0.54096 0.58375 0.0
C211 C 0.53665 0.51712 0.57074 0.0
C212 C 0.50973 0.49308 0.57764 0.0
C213 C 0.50143 0.49119 0.59794 0.0
C214 C 0.48646 0.5264 0.64119 0.0
C215 C 0.49735 0.55447 0.63333 0.0
C216 C 0.47761 0.56352 0.62806 0.0
C217 C 0.4468 0.54463 0.63074 0.0
C218 C 0.43616 0.51642 0.63834 0.0
C219 C 0.45579 0.50743 0.64348 0.0
C220 C 0.52891 0.48205 0.76103 0.0
C221 C 0.58766 0.45289 0.58139 0.0
H222 H 0.05011 0.53484 0.961 0.0
H223 H 0.19838 0.58977 0.75117 0.0
H224 H 0.98916 0.53515 0.86336 0.0
H225 H 0.95747 0.51295 0.89278 0.0
H226 H 0.93384 0.42759 0.87082 0.0
H227 H 0.96764 0.45046 0.84221 0.0
H228 H 0.05563 0.56472 0.87516 0.0
H229 H 0.05712 0.56097 0.91207 0.0
H230 H 0.02157 0.46829 0.90663 0.0
H231 H 0.0207 0.47247 0.86973 0.0
H232 H 0.10737 0.58672 0.84961 0.0
H233 H 0.15418 0.59652 0.8652 0.0
H234 H 0.12592 0.50565 0.85853 0.0
H235 H 0.07938 0.49603 0.84339 0.0
H236 H 0.08698 0.59066 0.7987 0.0
H237 H 0.1311 0.61514 0.777 0.0
H238 H 0.14049 0.53996 0.78157 0.0
H239 H 0.09611 0.51561 0.80301 0.0
H240 H 0.02577 0.55923 0.78021 0.0
H241 H 0.04346 0.57117 0.74505 0.0
H242 H 0.05966 0.50021 0.74472 0.0
H243 H 0.04163 0.48818 0.77965 0.0
H244 H 0.96004 0.51703 0.81325 0.0
H245 H 0.91045 0.48288 0.7998 0.0
H246 H 0.93861 0.42242 0.78489 0.0
H247 H 0.98804 0.45701 0.79767 0.0
O248 O 0.04969 0.5359 0.94637 0.0
O249 O 0.03099 0.48828 0.94275 0.0
O250 O 0.17407 0.61801 0.75691 0.0
O251 O 0.1811 0.58076 0.75992 0.0
C252 C 0.00803 0.50863 0.83784 0.0
C253 C 0.03599 0.52107 0.84748 0.0
C254 C 0.06215 0.53406 0.83582 0.0
C255 C 0.06076 0.53621 0.81467 0.0
C256 C 0.03289 0.5227 0.80488 0.0
C257 C 0.00645 0.50815 0.81642 0.0
C258 C 0.98094 0.49449 0.85072 0.0
C259 C 0.97633 0.51158 0.86455 0.0
C260 C 0.95809 0.49874 0.88143 0.0
C261 C 0.94351 0.4684 0.88455 0.0
C262 C 0.94544 0.45108 0.86929 0.0
C263 C 0.96425 0.46405 0.85262 0.0
C264 C 0.03788 0.51885 0.86983 0.0
C265 C 0.04838 0.54369 0.88198 0.0
C266 C 0.04911 0.54145 0.90305 0.0
C267 C 0.03934 0.5143 0.91231 0.0
C268 C 0.02918 0.48951 0.9 0.0
C269 C 0.02861 0.49182 0.87894 0.0
C270 C 0.09028 0.54074 0.84537 0.0
C271 C 0.1114 0.56904 0.85163 0.0
C272 C 0.13788 0.57453 0.86054 0.0
C273 C 0.1435 0.55181 0.86289 0.0
C274 C 0.12214 0.52352 0.85668 0.0
C275 C 0.09565 0.51801 0.84811 0.0
C276 C 0.08857 0.55153 0.80255 0.0
C277 C 0.09875 0.57964 0.7951 0.0
C278 C 0.12389 0.59352 0.78268 0.0
C279 C 0.13937 0.57952 0.77759 0.0
C280 C 0.12918 0.5514 0.78526 0.0
C281 C 0.10396 0.53751 0.79761 0.0
C282 C 0.03242 0.52285 0.78243 0.0
C283 C 0.03166 0.54535 0.77217 0.0
C284 C 0.04195 0.55226 0.75218 0.0
C285 C 0.05329 0.53683 0.74239 0.0
C286 C 0.05121 0.51251 0.75204 0.0
C287 C 0.04063 0.50544 0.77187 0.0
C288 C 0.9776 0.48953 0.80626 0.0
C289 C 0.95553 0.49664 0.80668 0.0
C290 C 0.92719 0.47698 0.79916 0.0
C291 C 0.92044 0.44979 0.79132 0.0
C292 C 0.94305 0.44329 0.79044 0.0
C293 C 0.97134 0.46301 0.79778 0.0
C294 C 0.03972 0.51193 0.93471 0.0
C295 C 0.16588 0.59402 0.7642 0.0
H296 H 0.44457 0.95068 0.86229 0.0
H297 H 0.47169 0.84572 0.07568 0.0
H298 H 0.47708 0.02848 0.95843 0.0
H299 H 0.49177 0.06226 0.92988 0.0
H300 H 0.58316 0.08662 0.9383 0.0
H301 H 0.56797 0.0518 0.96629 0.0
H302 H 0.44372 0.95854 0.95069 0.0
H303 H 0.43504 0.95109 0.91416 0.0
H304 H 0.52953 0.99155 0.90417 0.0
H305 H 0.53782 0.99846 0.94073 0.0
H306 H 0.43292 0.91052 0.98053 0.0
H307 H 0.42173 0.86258 0.96803 0.0
H308 H 0.51476 0.89888 0.95482 0.0
H309 H 0.52565 0.94638 0.96712 0.0
H310 H 0.44105 0.93552 0.02626 0.0
H311 H 0.42681 0.89644 0.05107 0.0
H312 H 0.508 0.89782 0.03827 0.0
H313 H 0.52203 0.93706 0.01363 0.0
H314 H 0.47263 0.99434 0.04207 0.0
H315 H 0.47563 0.98643 0.07843 0.0
H316 H 0.55825 0.98978 0.06837 0.0
H317 H 0.5546 0.9966 0.03206 0.0
H318 H 0.50894 0.06199 0.00632 0.0
H319 H 0.54577 0.11132 0.01825 0.0
H320 H 0.61188 0.08683 0.02084 0.0
H321 H 0.57535 0.03818 0.00879 0.0
O322 O 0.44848 0.95365 0.87667 0.0
O323 O 0.49725 0.97477 0.87235 0.0
O324 O 0.43523 0.86115 0.07184 0.0
O325 O 0.47647 0.86072 0.06564 0.0
C326 C 0.51143 0.01271 0.97849 0.0
C327 C 0.4965 0.98413 0.97047 0.0
C328 C 0.48793 0.96012 0.98339 0.0
C329 C 0.49209 0.96427 0.00445 0.0
C330 C 0.50748 0.99275 0.01246 0.0
C331 C 0.51818 0.01702 -0.00061 0.0
C332 C 0.52145 0.03777 0.96448 0.0
C333 C 0.50036 0.04167 0.95441 0.0
C334 C 0.50883 0.06102 0.93811 0.0
C335 C 0.53862 0.07693 0.93166 0.0
C336 C 0.55997 0.07432 0.94267 0.0
C337 C 0.55143 0.0548 0.95888 0.0
C338 C 0.4914 0.9793 0.9483 0.0
C339 C 0.46248 0.9657 0.94057 0.0
C340 C 0.45761 0.96153 0.91971 0.0
C341 C 0.48161 0.97084 0.90623 0.0
C342 C 0.51056 0.98422 0.91411 0.0
C343 C 0.51538 0.98828 0.93497 0.0
C344 C 0.48004 0.9317 0.97464 0.0
C345 C 0.4507 0.90804 0.9747 0.0
C346 C 0.4444 0.88087 0.96756 0.0
C347 C 0.46748 0.8772 0.96063 0.0
C348 C 0.49668 0.90117 0.96028 0.0
C349 C 0.50288 0.92823 0.96717 0.0
C350 C 0.48245 0.93893 0.01814 0.0
C351 C 0.45555 0.92712 0.02872 0.0
C352 C 0.44754 0.9049 0.04292 0.0
C353 C 0.46632 0.89406 0.0467 0.0
C354 C 0.49305 0.90567 0.03575 0.0
C355 C 0.50106 0.92796 0.0216 0.0
C356 C 0.51363 0.99649 0.0345 0.0
C357 C 0.49193 0.99449 0.04786 0.0
C358 C 0.49357 0.98982 0.06853 0.0
C359 C 0.51722 0.98761 0.0761 0.0
C360 C 0.54008 0.99189 0.06292 0.0
C361 C 0.53811 0.99596 0.04222 0.0
C362 C 0.53943 0.04649 0.00712 0.0
C363 C 0.53134 0.06736 0.00964 0.0
C364 C 0.55234 0.0954 0.01636 0.0
C365 C 0.58153 0.1027 0.02069 0.0
C366 C 0.5894 0.08162 0.01807 0.0
C367 C 0.56857 0.05385 0.01123 0.0
C368 C 0.47638 0.96659 0.88407 0.0
C369 C 0.45828 0.87097 0.06214 0.0
H370 H 0.49284 0.45056 0.02767 0.0
H371 H 0.63076 0.42412 0.22604 0.0
H372 H 0.46778 0.47758 0.13119 0.0
H373 H 0.44908 0.49279 0.10281 0.0
H374 H 0.52564 0.57992 0.10681 0.0
H375 H 0.54479 0.56439 0.13497 0.0
H376 H 0.49585 0.44203 0.11595 0.0
H377 H 0.48895 0.43666 0.07919 0.0
H378 H 0.55632 0.5277 0.07145 0.0
H379 H 0.56325 0.53264 0.1082 0.0
H380 H 0.52697 0.42101 0.1436 0.0
H381 H 0.55498 0.40082 0.12845 0.0
H382 H 0.62747 0.48845 0.11557 0.0
H383 H 0.59871 0.50795 0.12969 0.0
H384 H 0.5161 0.43306 0.19309 0.0
H385 H 0.53523 0.4085 0.21372 0.0
H386 H 0.62436 0.4712 0.19355 0.0
H387 H 0.60495 0.49576 0.17324 0.0
H388 H 0.4937 0.47521 0.20698 0.0
H389 H 0.49841 0.47188 0.24372 0.0
H390 H 0.59393 0.52493 0.23794 0.0
H391 H 0.5889 0.52856 0.20149 0.0
H392 H 0.47674 0.51495 0.17443 0.0
H393 H 0.47345 0.5553 0.18899 0.0
H394 H 0.56855 0.60438 0.19743 0.0
H395 H 0.57164 0.56429 0.18283 0.0
O396 O 0.49642 0.45296 0.04211 0.0
O397 O 0.53189 0.49964 0.03893 0.0
O398 O 0.57636 0.40179 0.22799 0.0
O399 O 0.62258 0.43335 0.21797 0.0
C400 C 0.52272 0.50811 0.14704 0.0
C401 C 0.53261 0.49134 0.13708 0.0
C402 C 0.54574 0.4787 0.14829 0.0
C403 C 0.54737 0.48121 0.16956 0.0
C404 C 0.53846 0.49882 0.1794 0.0
C405 C 0.52738 0.51337 0.16804 0.0
C406 C 0.50767 0.51986 0.13499 0.0
C407 C 0.47996 0.50022 0.12646 0.0
C408 C 0.4694 0.50883 0.11025 0.0
C409 C 0.48616 0.53735 0.10269 0.0
C410 C 0.5124 0.55785 0.11256 0.0
C411 C 0.52323 0.54908 0.12864 0.0
C412 C 0.52994 0.48773 0.1147 0.0
C413 C 0.5093 0.46068 0.10626 0.0
C414 C 0.50531 0.45773 0.08527 0.0
C415 C 0.52199 0.48179 0.07238 0.0
C416 C 0.54307 0.50875 0.08093 0.0
C417 C 0.54707 0.51164 0.1019 0.0
C418 C 0.56091 0.46585 0.13765 0.0
C419 C 0.54868 0.43564 0.13712 0.0
C420 C 0.56483 0.42424 0.12862 0.0
C421 C 0.59358 0.44298 0.1208 0.0
C422 C 0.60524 0.47326 0.12099 0.0
C423 C 0.58895 0.48452 0.1292 0.0
C424 C 0.55912 0.466 0.18158 0.0
C425 C 0.53973 0.44138 0.19313 0.0
C426 C 0.55072 0.42742 0.20489 0.0
C427 C 0.58134 0.43786 0.20525 0.0
C428 C 0.60067 0.46255 0.19359 0.0
C429 C 0.58965 0.47654 0.1819 0.0
C430 C 0.54099 0.5019 0.20168 0.0
C431 C 0.51554 0.4868 0.21381 0.0
C432 C 0.51828 0.48477 0.23471 0.0
C433 C 0.54653 0.49794 0.24367 0.0
C434 C 0.57184 0.51483 0.23156 0.0
C435 C 0.56906 0.5168 0.21072 0.0
C436 C 0.52441 0.53668 0.17764 0.0
C437 C 0.49678 0.5344 0.1795 0.0
C438 C 0.49498 0.55743 0.18776 0.0
C439 C 0.52077 0.58295 0.19439 0.0
C440 C 0.54827 0.58486 0.19276 0.0
C441 C 0.55007 0.562 0.18439 0.0
C442 C 0.51719 0.47878 0.05014 0.0
C443 C 0.59315 0.42317 0.21777 0.0
Li444 Li 0.65914 0.45609 0.43269 0.0
Li445 Li 0.64894 0.41181 0.41595 0.0
Li446 Li 0.69708 0.45467 0.41145 0.0
Li447 Li 0.65281 0.45193 0.39774 0.0
C448 C 0.67613 0.41205 0.44927 0.0
N449 N 0.66725 0.36513 0.47229 0.0
C450 C 0.65158 0.39778 0.4622 0.0
C451 C 0.69632 0.40265 0.4482 0.0
C452 C 0.64745 0.37407 0.47368 0.0
C453 C 0.6914 0.37883 0.45992 0.0
C454 C 0.59723 0.41815 0.40816 0.0
C455 C 0.56215 0.38757 0.38261 0.0
N456 N 0.54619 0.40051 0.38605 0.0
C457 C 0.58042 0.43106 0.4115 0.0
C458 C 0.58801 0.39617 0.39363 0.0
C459 C 0.55471 0.42187 0.40015 0.0
C460 C 0.63508 0.48526 0.45138 0.0
N461 N 0.64992 0.47137 0.45537 0.0
C462 C 0.64146 0.47174 0.49083 0.0
C463 C 0.6543 0.46549 0.47463 0.0
C464 C 0.62418 0.48422 0.48703 0.0
C465 C 0.622 0.49203 0.4671 0.0
H466 H 0.63215 0.48972 0.43586 0.0
H467 H 0.66653 0.45474 0.47734 0.0
C468 C 0.64631 0.3588 0.412 0.0
N469 N 0.63059 0.37087 0.41841 0.0
C470 C 0.63576 0.32942 0.41573 0.0
C471 C 0.59245 0.32527 0.43185 0.0
C472 C 0.60392 0.35479 0.42787 0.0
C473 C 0.60873 0.3124 0.42608 0.0
H474 H 0.66755 0.37229 0.40463 0.0
H475 H 0.59215 0.36517 0.43302 0.0
C476 C 0.69983 0.50925 0.42412 0.0
N477 N 0.72631 0.55699 0.44959 0.0
C478 C 0.6966 0.53311 0.42051 0.0
C479 C 0.7168 0.50981 0.44057 0.0
C480 C 0.71009 0.55701 0.43359 0.0
C481 C 0.72993 0.5341 0.4533 0.0
C482 C 0.68348 0.43528 0.37177 0.0
C483 C 0.69972 0.46456 0.36582 0.0
C484 C 0.68156 0.41384 0.35877 0.0
C485 C 0.71372 0.47186 0.3469 0.0
C486 C 0.69587 0.42203 0.33997 0.0
N487 N 0.71151 0.45063 0.33448 0.0
C488 C 0.74136 0.44433 0.40053 0.0
C489 C 0.75936 0.49456 0.40545 0.0
C490 C 0.76919 0.4506 0.3939 0.0
N491 N 0.73697 0.46619 0.40602 0.0
C492 C 0.78768 0.50184 0.39904 0.0
C493 C 0.79279 0.47972 0.39289 0.0
H494 H 0.72288 0.42202 0.40064 0.0
H495 H 0.75511 0.51158 0.40941 0.0
C496 C 0.63278 0.48563 0.37972 0.0
N497 N 0.63669 0.46288 0.37636 0.0
C498 C 0.6203 0.49434 0.36478 0.0
C499 C 0.61521 0.45532 0.3435 0.0
C500 C 0.62796 0.44751 0.35879 0.0
C501 C 0.6114 0.4791 0.34639 0.0
H502 H 0.63894 0.49669 0.39414 0.0
H503 H 0.63062 0.42902 0.35673 0.0
O504 O 0.68008 0.43477 0.43746 0.0
O505 O 0.62296 0.42742 0.41868 0.0
O506 O 0.68635 0.48538 0.41171 0.0
O507 O 0.66976 0.4274 0.39029 0.0
H508 H 0.63551 0.40454 0.46301 0.0
H509 H 0.71551 0.41351 0.43835 0.0
H510 H 0.62838 0.36264 0.48359 0.0
H511 H 0.70676 0.37121 0.45915 0.0
H512 H 0.55487 0.37073 0.37123 0.0
H513 H 0.58719 0.44808 0.42267 0.0
H514 H 0.60097 0.38622 0.39063 0.0
H515 H 0.54156 0.43175 0.40252 0.0
H516 H 0.64404 0.46586 0.50606 0.0
H517 H 0.60879 0.50156 0.46354 0.0
H518 H 0.6488 0.32024 0.41084 0.0
H519 H 0.5717 0.31297 0.44006 0.0
H520 H 0.68391 0.53329 0.40773 0.0
H521 H 0.71966 0.4916 0.44357 0.0
H522 H 0.7077 0.57558 0.43101 0.0
H523 H 0.74297 0.53475 0.46615 0.0
H524 H 0.70158 0.48152 0.37564 0.0
H525 H 0.66916 0.39109 0.36319 0.0
H526 H 0.72635 0.49442 0.34211 0.0
H527 H 0.69455 0.40565 0.32975 0.0
H528 H 0.77186 0.43288 0.38892 0.0
H529 H 0.80526 0.52457 0.39866 0.0
H530 H 0.61731 0.51251 0.36765 0.0
H531 H 0.60879 0.44314 0.32945 0.0
Li532 Li 0.23479 0.63194 0.59611 0.0
Li533 Li 0.27117 0.62601 0.57874 0.0
Li534 Li 0.27052 0.67018 0.57515 0.0
Li535 Li 0.2298 0.62518 0.56023 0.0
C536 C 0.28645 0.64736 0.6175 0.0
N537 N 0.30313 0.63175 0.65269 0.0
C538 C 0.27075 0.6184 0.6242 0.0
C539 C 0.31065 0.66834 0.62868 0.0
C540 C 0.27953 0.61096 0.64203 0.0
C541 C 0.31872 0.66002 0.64644 0.0
C542 C 0.21989 0.57136 0.57182 0.0
C543 C 0.22608 0.54457 0.5449 0.0
N544 N 0.20439 0.51918 0.55332 0.0
C545 C 0.19765 0.54501 0.58018 0.0
C546 C 0.23424 0.57118 0.55401 0.0
C547 C 0.19015 0.51885 0.57061 0.0
C548 C 0.18221 0.59922 0.61797 0.0
N549 N 0.21062 0.62192 0.61982 0.0
C550 C 0.20298 0.62693 0.65491 0.0
C551 C 0.22111 0.63621 0.6377 0.0
C552 C 0.17372 0.6031 0.65355 0.0
C553 C 0.16319 0.5895 0.63471 0.0
H554 H 0.17446 0.58845 0.60349 0.0
H555 H 0.24363 0.65454 0.63867 0.0
C556 C 0.327 0.63213 0.57734 0.0
N557 N 0.2979 0.61224 0.581 0.0
C558 C 0.34863 0.62499 0.58064 0.0
C559 C 0.30997 0.57706 0.59164 0.0
C560 C 0.28906 0.58507 0.58802 0.0
C561 C 0.34024 0.59724 0.58811 0.0
H562 H 0.3335 0.65392 0.57256 0.0
H563 H 0.26594 0.56991 0.59145 0.0
C564 C 0.2151 0.66651 0.58833 0.0
N565 N 0.1896 0.6875 0.61452 0.0
C566 C 0.18452 0.65525 0.58778 0.0
C567 C 0.23272 0.68849 0.60217 0.0
C568 C 0.17205 0.66614 0.60115 0.0
C569 C 0.2194 0.6988 0.61528 0.0
C570 C 0.28579 0.66563 0.53771 0.0
C571 C 0.26987 0.67624 0.5278 0.0
C572 C 0.31535 0.67626 0.53234 0.0
C573 C 0.28386 0.69743 0.51272 0.0
C574 C 0.32856 0.69748 0.5172 0.0
N575 N 0.31268 0.70755 0.50779 0.0
C576 C 0.32576 0.7223 0.57424 0.0
C577 C 0.28591 0.72702 0.56263 0.0
C578 C 0.34619 0.75131 0.56921 0.0
N579 N 0.29635 0.71078 0.57071 0.0
C580 C 0.30556 0.75611 0.55735 0.0
C581 C 0.33622 0.76855 0.56042 0.0
H582 H 0.33336 0.70869 0.58051 0.0
H583 H 0.26243 0.71708 0.55969 0.0
C584 C 0.17302 0.59801 0.54306 0.0
N585 N 0.20199 0.60808 0.53878 0.0
C586 C 0.15178 0.5867 0.52769 0.0
C587 C 0.19045 0.59509 0.50395 0.0
C588 C 0.21094 0.60634 0.51978 0.0
C589 C 0.16048 0.58547 0.50776 0.0
H590 H 0.16646 0.59895 0.55843 0.0
H591 H 0.23407 0.61409 0.51685 0.0
O592 O 0.27865 0.65529 0.59996 0.0
O593 O 0.2272 0.59705 0.58105 0.0
O594 O 0.22768 0.65555 0.57583 0.0
O595 O 0.2727 0.64557 0.55298 0.0
H596 H 0.25199 0.60181 0.61578 0.0
H597 H 0.32308 0.69082 0.62365 0.0
H598 H 0.26758 0.58865 0.64738 0.0
H599 H 0.33741 0.67605 0.65525 0.0
H600 H 0.237 0.54411 0.53114 0.0
H601 H 0.18632 0.5448 0.59394 0.0
H602 H 0.25154 0.59127 0.5473 0.0
H603 H 0.17298 0.49829 0.57693 0.0
H604 H 0.21177 0.63815 0.66915 0.0
H605 H 0.14083 0.57095 0.6331 0.0
H606 H 0.37176 0.64139 0.5781 0.0
H607 H 0.30256 0.55541 0.59737 0.0
H608 H 0.17053 0.63823 0.57721 0.0
H609 H 0.25636 0.69715 0.60301 0.0
H610 H 0.1484 0.65757 0.60094 0.0
H611 H 0.23275 0.71569 0.62614 0.0
H612 H 0.24711 0.66858 0.53197 0.0
H613 H 0.328 0.66829 0.5398 0.0
H614 H 0.27186 0.70596 0.50503 0.0
H615 H 0.35145 0.70598 0.51294 0.0
H616 H 0.36955 0.76008 0.57207 0.0
H617 H 0.29692 0.76843 0.55034 0.0
H618 H 0.12884 0.57903 0.53135 0.0
H619 H 0.19815 0.59471 0.48879 0.0
Li620 Li 0.66722 0.24191 0.74454 0.0
Li621 Li 0.62389 0.20619 0.76193 0.0
Li622 Li 0.62765 0.2005 0.72602 0.0
Li623 Li 0.62042 0.24085 0.74014 0.0
C624 C 0.67152 0.19611 0.76028 0.0
N625 N 0.70831 0.18886 0.78619 0.0
C626 C 0.67991 0.21079 0.77879 0.0
C627 C 0.68179 0.17768 0.75494 0.0
C628 C 0.69852 0.20685 0.79169 0.0
C629 C 0.7004 0.17433 0.76824 0.0
C630 C 0.64536 0.26439 0.78103 0.0
C631 C 0.62344 0.28455 0.80257 0.0
N632 N 0.64805 0.29668 0.81446 0.0
C633 C 0.67052 0.27723 0.79341 0.0
C634 C 0.62169 0.26823 0.78557 0.0
C635 C 0.67141 0.2934 0.81026 0.0
C636 C 0.71395 0.29784 0.74951 0.0
N637 N 0.70832 0.27042 0.7464 0.0
C638 C 0.76012 0.28742 0.74774 0.0
C639 C 0.73064 0.26482 0.74514 0.0
C640 C 0.76643 0.31584 0.75166 0.0
C641 C 0.74291 0.32095 0.75219 0.0
H642 H 0.69574 0.30165 0.75012 0.0
H643 H 0.72557 0.24285 0.74239 0.0
C644 C 0.6068 0.15771 0.78741 0.0
N645 N 0.60978 0.18442 0.78676 0.0
C646 C 0.59837 0.14156 0.80538 0.0
C647 C 0.59583 0.18049 0.82164 0.0
C648 C 0.60397 0.1957 0.80331 0.0
C649 C 0.59319 0.15311 0.82294 0.0
H650 H 0.61123 0.14905 0.77397 0.0
H651 H 0.60591 0.21663 0.80248 0.0
C652 C 0.67263 0.25939 0.70702 0.0
N653 N 0.72358 0.29375 0.68465 0.0
C654 C 0.68192 0.28847 0.70295 0.0
C655 C 0.68914 0.24772 0.69964 0.0
C656 C 0.70778 0.3055 0.69163 0.0
C657 C 0.71486 0.26546 0.68837 0.0
C658 C 0.56859 0.17785 0.75161 0.0
C659 C 0.55848 0.14814 0.75032 0.0
C660 C 0.55426 0.18734 0.76449 0.0
C661 C 0.53429 0.12836 0.76217 0.0
C662 C 0.53016 0.16688 0.7761 0.0
N663 N 0.52078 0.13806 0.77472 0.0
C664 C 0.61117 0.14718 0.70565 0.0
C665 C 0.61867 0.18669 0.68504 0.0
C666 C 0.60422 0.12929 0.68859 0.0
N667 N 0.61823 0.17529 0.70351 0.0
C668 C 0.61232 0.1698 0.66764 0.0
C669 C 0.60505 0.14074 0.66928 0.0
H670 H 0.611 0.13872 0.72057 0.0
H671 H 0.62403 0.209 0.68382 0.0
C672 C 0.62459 0.29429 0.73727 0.0
N673 N 0.60533 0.26521 0.73502 0.0
C674 C 0.61586 0.31401 0.73246 0.0
C675 C 0.56736 0.27337 0.72349 0.0
C676 C 0.5771 0.25439 0.72845 0.0
C677 C 0.58703 0.30363 0.72522 0.0
H678 H 0.6469 0.30214 0.74256 0.0
H679 H 0.56239 0.2311 0.7267 0.0
O680 O 0.65336 0.19959 0.74733 0.0
O681 O 0.6443 0.24891 0.76424 0.0
O682 O 0.64793 0.24258 0.71861 0.0
O683 O 0.5928 0.19762 0.74063 0.0
H684 H 0.67198 0.22491 0.78322 0.0
H685 H 0.67546 0.16614 0.74064 0.0
H686 H 0.70514 0.21807 0.80608 0.0
H687 H 0.70855 0.16016 0.7643 0.0
H688 H 0.60522 0.28756 0.8063 0.0
H689 H 0.68925 0.27488 0.79003 0.0
H690 H 0.60205 0.2585 0.77621 0.0
H691 H 0.69072 0.30341 0.81997 0.0
H692 H 0.77765 0.28258 0.74726 0.0
H693 H 0.74683 0.3426 0.75477 0.0
H694 H 0.59601 0.12029 0.80548 0.0
H695 H 0.59239 0.19051 0.83475 0.0
H696 H 0.66942 0.29784 0.7086 0.0
H697 H 0.68236 0.2253 0.70283 0.0
H698 H 0.71532 0.32808 0.68843 0.0
H699 H 0.72796 0.25678 0.68266 0.0
H700 H 0.56942 0.14049 0.74046 0.0
H701 H 0.56184 0.21027 0.76564 0.0
H702 H 0.52634 0.10531 0.76144 0.0
H703 H 0.51895 0.17391 0.78624 0.0
H704 H 0.5988 0.10699 0.69041 0.0
H705 H 0.61282 0.17928 0.65303 0.0
H706 H 0.63155 0.33714 0.73427 0.0
H707 H 0.54505 0.26452 0.7178 0.0
Li708 Li 0.42836 0.58867 0.93063 0.0
Li709 Li 0.43559 0.63425 0.91919 0.0
Li710 Li 0.39079 0.58907 0.91144 0.0
Li711 Li 0.43581 0.59988 0.89482 0.0
C712 C 0.41211 0.61819 0.95725 0.0
N713 N 0.42633 0.64137 0.99583 0.0
C714 C 0.44154 0.63237 0.96394 0.0
C715 C 0.38997 0.61593 0.97015 0.0
C716 C 0.44825 0.6439 0.98351 0.0
C717 C 0.39759 0.62776 0.98961 0.0
C718 C 0.49128 0.64196 0.90927 0.0
C719 C 0.51942 0.68236 0.8864 0.0
N720 N 0.54486 0.68412 0.89267 0.0
C721 C 0.51771 0.64418 0.91548 0.0
C722 C 0.49212 0.6612 0.89461 0.0
C723 C 0.54457 0.66564 0.90691 0.0
C724 C 0.46145 0.57129 0.95418 0.0
N725 N 0.43554 0.57096 0.95292 0.0
C726 C 0.42207 0.55225 0.98655 0.0
C727 C 0.41559 0.56093 0.96841 0.0
C728 C 0.44913 0.5535 0.9886 0.0
C729 C 0.46866 0.56233 0.97203 0.0
H730 H 0.47694 0.57955 0.94163 0.0
H731 H 0.39519 0.56094 0.96707 0.0
C732 C 0.42541 0.67773 0.92739 0.0
N733 N 0.44832 0.67311 0.9261 0.0
C734 C 0.43037 0.70477 0.93323 0.0
C735 C 0.48266 0.72203 0.93632 0.0
C736 C 0.47656 0.69436 0.93072 0.0
C737 C 0.45935 0.72751 0.93762 0.0
H738 H 0.40309 0.66007 0.92423 0.0
H739 H 0.49428 0.68986 0.93031 0.0
C740 C 0.38672 0.53492 0.91483 0.0
N741 N 0.34823 0.47943 0.92953 0.0
C742 C 0.38731 0.51111 0.90691 0.0
C743 C 0.36652 0.53052 0.93021 0.0
C744 C 0.36768 0.48322 0.91454 0.0
C745 C 0.34726 0.5023 0.93744 0.0
C746 C 0.39686 0.62001 0.87806 0.0
C747 C 0.38448 0.59634 0.86473 0.0
C748 C 0.38916 0.64121 0.87639 0.0
C749 C 0.36441 0.59417 0.85003 0.0
C750 C 0.36899 0.63825 0.86148 0.0
N751 N 0.35711 0.61498 0.84874 0.0
C752 C 0.34088 0.59298 0.91234 0.0
C753 C 0.33237 0.54969 0.89644 0.0
C754 C 0.3132 0.58749 0.90621 0.0
N755 N 0.3501 0.57455 0.90697 0.0
C756 C 0.30418 0.54298 0.89037 0.0
C757 C 0.2946 0.56246 0.89472 0.0
H758 H 0.35581 0.61285 0.92038 0.0
H759 H 0.34057 0.53578 0.89196 0.0
C760 C 0.45436 0.57387 0.86567 0.0
N761 N 0.45093 0.59679 0.86962 0.0
C762 C 0.46058 0.56911 0.84595 0.0
C763 C 0.46033 0.61203 0.83505 0.0
C764 C 0.45457 0.61619 0.85494 0.0
C765 C 0.46272 0.5879 0.83033 0.0
H766 H 0.451 0.55866 0.87764 0.0
H767 H 0.45156 0.63413 0.85845 0.0
O768 O 0.40478 0.60659 0.93817 0.0
O769 O 0.46486 0.62076 0.91743 0.0
O770 O 0.40595 0.56232 0.90748 0.0
O771 O 0.4159 0.62207 0.89294 0.0
H772 H 0.45902 0.63441 0.9542 0.0
H773 H 0.36711 0.60508 0.96517 0.0
H774 H 0.4709 0.65485 0.98889 0.0
H775 H 0.38066 0.62612 -0.00023 0.0
H776 H 0.52038 0.69743 0.87509 0.0
H777 H 0.51745 0.62945 0.9268 0.0
H778 H 0.47202 0.66014 0.8898 0.0
H779 H 0.56518 0.66759 0.91158 0.0
H780 H 0.40644 0.54532 0.99903 0.0
H781 H 0.48979 0.56361 0.97321 0.0
H782 H 0.41154 0.70758 0.93463 0.0
H783 H 0.50537 0.73889 0.93952 0.0
H784 H 0.40281 0.51416 0.89498 0.0
H785 H 0.36563 0.54863 0.93649 0.0
H786 H 0.36791 0.46458 0.90855 0.0
H787 H 0.33152 0.49859 0.94935 0.0
H788 H 0.38991 0.57954 0.86598 0.0
H789 H 0.39857 0.65971 0.88652 0.0
H790 H 0.3545 0.57586 0.83973 0.0
H791 H 0.36274 0.65444 0.86007 0.0
H792 H 0.3072 0.60349 0.90961 0.0
H793 H 0.29046 0.52318 0.88186 0.0
H794 H 0.46219 0.55019 0.84274 0.0
H795 H 0.46208 0.62704 0.82336 0.0
Li796 Li 0.79169 0.38977 0.07925 0.0
Li797 Li 0.82981 0.38392 0.09704 0.0
Li798 Li 0.83139 0.39112 0.05948 0.0
Li799 Li 0.79404 0.34669 0.07522 0.0
C800 C 0.84118 0.4407 0.09473 0.0
N801 N 0.85352 0.48428 0.12232 0.0
C802 C 0.82487 0.43415 0.11275 0.0
C803 C 0.86378 0.46942 0.09079 0.0
C804 C 0.83145 0.45648 0.12649 0.0
C805 C 0.86966 0.49115 0.10491 0.0
C806 C 0.76562 0.3366 0.11037 0.0
C807 C 0.75096 0.28984 0.12519 0.0
N808 N 0.72374 0.28559 0.12942 0.0
C809 C 0.73765 0.33194 0.11519 0.0
C810 C 0.77248 0.31555 0.11571 0.0
C811 C 0.71674 0.30597 0.12471 0.0
C812 C 0.73548 0.38093 0.07853 0.0
N813 N 0.76436 0.40266 0.08006 0.0
C814 C 0.75038 0.43831 0.08258 0.0
C815 C 0.77225 0.43108 0.08148 0.0
C816 C 0.72032 0.41605 0.08216 0.0
C817 C 0.71295 0.3871 0.07978 0.0
H818 H 0.72996 0.35868 0.07663 0.0
H819 H 0.79539 0.44812 0.0819 0.0
C820 C 0.8806 0.4155 0.12233 0.0
N821 N 0.85176 0.39333 0.12164 0.0
C822 C 0.89556 0.42407 0.14087 0.0
C823 C 0.85107 0.38643 0.15746 0.0
C824 C 0.83694 0.37886 0.13872 0.0
C825 C 0.88066 0.40948 0.15875 0.0
H826 H 0.89171 0.42694 0.10855 0.0
H827 H 0.81387 0.3619 0.13792 0.0
C828 C 0.78222 0.38114 0.03814 0.0
N829 N 0.76966 0.40549 0.00568 0.0
C830 C 0.76245 0.36327 0.02314 0.0
C831 C 0.79559 0.41141 0.03664 0.0
C832 C 0.75638 0.376 0.00685 0.0
C833 C 0.78896 0.42329 0.02011 0.0
C834 C 0.84411 0.3417 0.076 0.0
C835 C 0.84632 0.32916 0.05803 0.0
C836 C 0.84916 0.33249 0.09457 0.0
C837 C 0.85297 0.30716 0.05899 0.0
C838 C 0.85572 0.31041 0.09489 0.0
N839 N 0.85745 0.29829 0.07724 0.0
C840 C 0.87169 0.43583 0.03235 0.0
C841 C 0.84689 0.38738 0.01988 0.0
C842 C 0.88364 0.44672 0.01315 0.0
N843 N 0.85353 0.40664 0.03524 0.0
C844 C 0.8586 0.39725 0.00055 0.0
C845 C 0.87686 0.42729 0.99693 0.0
H846 H 0.87593 0.45067 0.04472 0.0
H847 H 0.83137 0.36442 0.02243 0.0
C848 C 0.7397 0.30196 0.06534 0.0
N849 N 0.76665 0.30631 0.07043 0.0
C850 C 0.71593 0.27407 0.06146 0.0
C851 C 0.74795 0.25522 0.06802 0.0
C852 C 0.77114 0.28363 0.07208 0.0
C853 C 0.71991 0.25022 0.06249 0.0
H854 H 0.73663 0.32032 0.06449 0.0
H855 H 0.79242 0.28733 0.0767 0.0
O856 O 0.83563 0.41917 0.08116 0.0
O857 O 0.78631 0.36178 0.10077 0.0
O858 O 0.78851 0.3689 0.05406 0.0
O859 O 0.83821 0.36367 0.07536 0.0
H860 H 0.80731 0.41212 0.11615 0.0
H861 H 0.87673 0.47487 0.07698 0.0
H862 H 0.81902 0.45171 0.14048 0.0
H863 H 0.8871 0.51347 0.10204 0.0
H864 H 0.7559 0.27325 0.12915 0.0
H865 H 0.7322 0.34831 0.11187 0.0
H866 H 0.79407 0.31887 0.11232 0.0
H867 H 0.69497 0.30206 0.12842 0.0
H868 H 0.75687 0.46093 0.08434 0.0
H869 H 0.69 0.36942 0.07903 0.0
H870 H 0.91844 0.44193 0.14125 0.0
H871 H 0.83864 0.37498 0.17091 0.0
H872 H 0.75196 0.3398 0.02407 0.0
H873 H 0.81099 0.42562 0.04807 0.0
H874 H 0.74114 0.36242 0.99512 0.0
H875 H 0.79919 0.44667 0.01875 0.0
H876 H 0.84279 0.33619 0.04352 0.0
H877 H 0.8481 0.3423 0.1086 0.0
H878 H 0.85456 0.29713 0.04522 0.0
H879 H 0.85953 0.30297 0.10916 0.0
H880 H 0.89768 0.47005 0.01093 0.0
H881 H 0.8524 0.38162 0.98838 0.0
H882 H 0.69459 0.27129 0.05782 0.0
H883 H 0.75207 0.23749 0.06896 0.0
Li884 Li 0.48429 0.82407 0.26479 0.0
Li885 Li 0.4398 0.7917 0.24702 0.0
Li886 Li 0.4843 0.79065 0.24031 0.0
Li887 Li 0.4806 0.83162 0.229 0.0
C888 C 0.47348 0.77033 0.27919 0.0
N889 N 0.49763 0.74879 0.30604 0.0
C890 C 0.45501 0.74496 0.29025 0.0
C891 C 0.50425 0.7847 0.28173 0.0
C892 C 0.46764 0.73444 0.30378 0.0
C893 C 0.51602 0.77348 0.29539 0.0
C894 C 0.4412 0.83884 0.26576 0.0
C895 C 0.42446 0.86914 0.28013 0.0
N896 N 0.41069 0.84935 0.29529 0.0
C897 C 0.42684 0.81878 0.28147 0.0
C898 C 0.44 0.86422 0.26506 0.0
C899 C 0.41155 0.82449 0.29625 0.0
C900 C 0.51528 0.87246 0.29119 0.0
N901 N 0.49701 0.84298 0.29053 0.0
C902 C 0.48934 0.84102 0.32636 0.0
C903 C 0.48422 0.82721 0.30766 0.0
C904 C 0.50738 0.87147 0.32748 0.0
C905 C 0.52078 0.88726 0.30963 0.0
H906 H 0.5246 0.88455 0.27728 0.0
H907 H 0.46872 0.80402 0.30677 0.0
C908 C 0.38954 0.73785 0.25145 0.0
N909 N 0.39839 0.76622 0.2483 0.0
C910 C 0.35948 0.71674 0.25265 0.0
C911 C 0.34814 0.75447 0.24697 0.0
C912 C 0.37854 0.77491 0.24587 0.0
C913 C 0.33833 0.72497 0.25051 0.0
H914 H 0.40596 0.7317 0.25315 0.0
H915 H 0.38629 0.79764 0.24311 0.0
C916 C 0.53772 0.84132 0.22984 0.0
N917 N 0.58345 0.85782 0.20241 0.0
C918 C 0.53234 0.82687 0.21129 0.0
C919 C 0.56635 0.86414 0.23444 0.0
C920 C 0.55575 0.83554 0.19763 0.0
C921 C 0.58918 0.87216 0.22037 0.0
C922 C 0.43555 0.78409 0.20599 0.0
C923 C 0.42719 0.76061 0.19292 0.0
C924 C 0.42219 0.80068 0.20419 0.0
C925 C 0.4056 0.75413 0.17822 0.0
C926 C 0.40072 0.79352 0.18928 0.0
N927 N 0.39292 0.77058 0.17671 0.0
C928 C 0.46926 0.7369 0.22826 0.0
C929 C 0.52136 0.76551 0.23313 0.0
C930 C 0.47125 0.71336 0.22176 0.0
N931 N 0.49406 0.76241 0.23341 0.0
C932 C 0.52439 0.7423 0.22675 0.0
C933 C 0.49909 0.71597 0.22066 0.0
H934 H 0.44783 0.73498 0.22908 0.0
H935 H 0.54069 0.78598 0.23758 0.0
C936 C 0.4932 0.88503 0.21051 0.0
N937 N 0.48966 0.85839 0.20723 0.0
C938 C 0.49553 0.90265 0.19407 0.0
C939 C 0.49115 0.86525 0.1714 0.0
C940 C 0.48941 0.84867 0.18816 0.0
C941 C 0.49366 0.89229 0.17428 0.0
H942 H 0.49314 0.89212 0.22584 0.0
H943 H 0.48654 0.82743 0.18589 0.0
O944 O 0.46131 0.78063 0.26576 0.0
O945 O 0.45677 0.83407 0.25125 0.0
O946 O 0.51523 0.83344 0.24352 0.0
O947 O 0.4563 0.7904 0.22069 0.0
H948 H 0.43115 0.73355 0.28841 0.0
H949 H 0.51894 0.80431 0.27329 0.0
H950 H 0.45361 0.71485 0.31246 0.0
H951 H 0.53977 0.78438 0.29752 0.0
H952 H 0.42339 0.88872 0.27979 0.0
H953 H 0.42758 0.79906 0.28233 0.0
H954 H 0.45105 0.88 0.25302 0.0
H955 H 0.40041 0.80918 0.30852 0.0
H956 H 0.47804 0.82809 0.33965 0.0
H957 H 0.53485 0.9108 0.30988 0.0
H958 H 0.3529 0.69434 0.25569 0.0
H959 H 0.33251 0.76163 0.24504 0.0
H960 H 0.5104 0.80907 0.20748 0.0
H961 H 0.57087 0.87554 0.24874 0.0
H962 H 0.55188 0.82453 0.18323 0.0
H963 H 0.61146 0.8898 0.22373 0.0
H964 H 0.43729 0.74754 0.1941 0.0
H965 H 0.42824 0.81882 0.21426 0.0
H966 H 0.39891 0.73601 0.168 0.0
H967 H 0.3902 0.80616 0.18772 0.0
H968 H 0.45115 0.69326 0.21765 0.0
H969 H 0.54625 0.74509 0.22614 0.0
H970 H 0.49741 0.92344 0.19677 0.0
H971 H 0.48984 0.85673 0.1563 0.0
H972 H 0.20912 0.61543 0.2602 0.0
H973 H 0.19913 0.67689 0.29615 0.0
H974 H 0.24952 0.71549 0.28734 0.0
H975 H 0.29741 0.73087 0.27135 0.0
H976 H 0.30769 0.66954 0.23541 0.0
H977 H 0.25625 0.63166 0.24246 0.0
C978 C 0.21804 0.6373 0.26607 0.0
C979 C 0.20056 0.64333 0.27883 0.0
C980 C 0.24707 0.65931 0.26106 0.0
C981 C 0.21212 0.67181 0.28614 0.0
C982 C 0.24096 0.69384 0.28121 0.0
C983 C 0.28823 0.70938 0.26474 0.0
C984 C 0.30636 0.70296 0.253 0.0
C985 C 0.25874 0.68774 0.26889 0.0
C986 C 0.29427 0.67488 0.24476 0.0
C987 C 0.26487 0.65325 0.24873 0.0
H988 H 0.54516 0.17847 0.44761 0.0
H989 H 0.63414 0.20502 0.46624 0.0
H990 H 0.65168 0.25494 0.4554 0.0
H991 H 0.64148 0.29128 0.44158 0.0
H992 H 0.55243 0.26496 0.42336 0.0
H993 H 0.53501 0.21476 0.43354 0.0
C994 C 0.56835 0.19523 0.44945 0.0
C995 C 0.5883 0.18803 0.45775 0.0
C996 C 0.57822 0.22391 0.44337 0.0
C997 C 0.61838 0.2099 0.45969 0.0
C998 C 0.6284 0.23848 0.45361 0.0
C999 C 0.61833 0.27447 0.43959 0.0
C1000 C 0.59829 0.28178 0.43166 0.0
C1001 C 0.6085 0.24573 0.44548 0.0
C1002 C 0.56824 0.2599 0.42957 0.0
C1003 C 0.5583 0.2312 0.43531 0.0
H1004 H 0.44595 0.57433 0.59736 0.0
H1005 H 0.39982 0.53607 0.65352 0.0
H1006 H 0.3628 0.54866 0.64518 0.0
H1007 H 0.34312 0.56998 0.62188 0.0
H1008 H 0.38888 0.60853 0.56571 0.0
H1009 H 0.42666 0.59679 0.57423 0.0
C1010 C 0.42797 0.56905 0.60785 0.0
C1011 C 0.42554 0.55409 0.62596 0.0
C1012 C 0.40665 0.57634 0.60295 0.0
C1013 C 0.40195 0.54717 0.63933 0.0
C1014 C 0.38081 0.55445 0.63462 0.0
C1015 C 0.3612 0.57556 0.6114 0.0
C1016 C 0.36305 0.58989 0.59312 0.0
C1017 C 0.38278 0.56877 0.6164 0.0
C1018 C 0.38701 0.59757 0.57992 0.0
C1019 C 0.40857 0.5908 0.58476 0.0
H1020 H 0.90267 0.41162 0.7596 0.0
H1021 H 0.86872 0.43727 0.80989 0.0
H1022 H 0.81832 0.39879 0.8016 0.0
H1023 H 0.78409 0.35643 0.78124 0.0
H1024 H 0.81765 0.32924 0.73173 0.0
H1025 H 0.86819 0.36917 0.73902 0.0
C1026 C 0.88428 0.40873 0.76882 0.0
C1027 C 0.88961 0.42747 0.78533 0.0
C1028 C 0.85533 0.38604 0.76429 0.0
C1029 C 0.86537 0.42362 0.79688 0.0
C1030 C 0.8365 0.40138 0.79229 0.0
C1031 C 0.80242 0.35943 0.77189 0.0
C1032 C 0.79714 0.33998 0.75592 0.0
C1033 C 0.83128 0.38234 0.77616 0.0
C1034 C 0.82119 0.34379 0.74421 0.0
C1035 C 0.85003 0.3667 0.7483 0.0
H1036 H 0.49536 0.85027 0.97406 0.0
H1037 H 0.4265 0.83973 0.93346 0.0
H1038 H 0.41855 0.79268 0.92224 0.0
H1039 H 0.43213 0.75548 0.92354 0.0
H1040 H 0.49896 0.76478 0.96587 0.0
H1041 H 0.5075 0.81204 0.97638 0.0
C1042 C 0.47867 0.83762 0.96272 0.0
C1043 C 0.46162 0.84831 0.95446 0.0
C1044 C 0.47416 0.8107 0.95651 0.0
C1045 C 0.43974 0.83172 0.94003 0.0
C1046 C 0.43533 0.80498 0.93357 0.0
C1047 C 0.44829 0.76759 0.93527 0.0
C1048 C 0.4649 0.7565 0.94384 0.0
C1049 C 0.4525 0.79434 0.94168 0.0
C1050 C 0.48622 0.77293 0.95871 0.0
C1051 C 0.49093 0.79985 0.96489 0.0
H1052 H 0.6332 0.46283 0.08941 0.0
H1053 H 0.5966 0.39743 0.13664 0.0
H1054 H 0.63098 0.38183 0.12752 0.0
H1055 H 0.6743 0.38958 0.10829 0.0
H1056 H 0.7139 0.45766 0.0632 0.0
H1057 H 0.67602 0.47007 0.06978 0.0
C1058 C 0.63278 0.44525 0.09781 0.0
C1059 C 0.61234 0.43148 0.11377 0.0
C1060 C 0.65345 0.43717 0.09307 0.0
C1061 C 0.61171 0.40821 0.12409 0.0
C1062 C 0.63163 0.39947 0.11905 0.0
C1063 C 0.67436 0.40687 0.09973 0.0
C1064 C 0.69672 0.4227 0.08529 0.0
C1065 C 0.65295 0.41417 0.10386 0.0
C1066 C 0.69694 0.44536 0.07449 0.0
C1067 C 0.67528 0.45236 0.0782 0.0
H1068 H 0.41124 0.90168 0.53578 0.0
H1069 H 0.47066 0.87526 0.51342 0.0
H1070 H 0.43701 0.82566 0.52582 0.0
H1071 H 0.38982 0.78946 0.54186 0.0
H1072 H 0.3307 0.81622 0.56441 0.0
H1073 H 0.36486 0.86591 0.55266 0.0
C1074 C 0.41674 0.88501 0.53351 0.0
C1075 C 0.44332 0.8921 0.52359 0.0
C1076 C 0.39726 0.85659 0.54058 0.0
C1077 C 0.45043 0.87042 0.52113 0.0
C1078 C 0.43113 0.84203 0.52812 0.0
C1079 C 0.38458 0.80624 0.54447 0.0
C1080 C 0.35765 0.79905 0.55397 0.0
C1081 C 0.40441 0.83484 0.53777 0.0
C1082 C 0.35104 0.82101 0.55689 0.0
C1083 C 0.37063 0.84949 0.55027 0.0
H1084 H 0.53046 0.3791 0.704 0.0
H1085 H 0.61466 0.43087 0.67342 0.0
H1086 H 0.63008 0.39755 0.68505 0.0
H1087 H 0.61906 0.35298 0.70298 0.0
H1088 H 0.53457 0.30064 0.73304 0.0
H1089 H 0.5195 0.33458 0.72206 0.0
C1090 C 0.55209 0.38296 0.69973 0.0
C1091 C 0.57135 0.40742 0.68783 0.0
C1092 C 0.56066 0.36353 0.70624 0.0
C1093 C 0.59953 0.41241 0.68276 0.0
C1094 C 0.60829 0.39326 0.68929 0.0
C1095 C 0.59747 0.34917 0.70732 0.0
C1096 C 0.57798 0.32438 0.71885 0.0
C1097 C 0.58899 0.36872 0.70097 0.0
C1098 C 0.54986 0.31944 0.72403 0.0
C1099 C 0.5413 0.33889 0.71784 0.0
H1100 H 0.18094 0.53788 0.84598 0.0
H1101 H 0.16888 0.57779 0.89881 0.0
H1102 H 0.21417 0.58362 0.91382 0.0
H1103 H 0.25606 0.57587 0.91214 0.0
H1104 H 0.26979 0.53922 0.85788 0.0
H1105 H 0.22426 0.53261 0.84352 0.0
C1106 C 0.18834 0.54788 0.86078 0.0
C1107 C 0.17176 0.55728 0.8714 0.0
C1108 C 0.21431 0.55126 0.86915 0.0
C1109 C 0.18154 0.57056 0.8904 0.0
C1110 C 0.20725 0.57369 0.89899 0.0
C1111 C 0.24937 0.56675 0.89707 0.0
C1112 C 0.26634 0.5578 0.88627 0.0
C1113 C 0.22369 0.56395 0.88853 0.0
C1114 C 0.25689 0.5456 0.86686 0.0
C1115 C 0.231 0.54213 0.85847 0.0
H1116 H 0.62083 0.11749 0.05142 0.0
H1117 H 0.59341 0.15435 0.00441 0.0
H1118 H 0.63389 0.2033 0.01327 0.0
H1119 H 0.67837 0.23502 0.03308 0.0
H1120 H 0.70514 0.19849 0.08084 0.0
H1121 H 0.6641 0.1497 0.07246 0.0
C1122 C 0.62374 0.13629 0.04316 0.0
C1123 C 0.60431 0.13241 0.02725 0.0
C1124 C 0.64714 0.16424 0.04823 0.0
C1125 C 0.60796 0.15688 0.01683 0.0
C1126 C 0.63122 0.18479 0.02178 0.0
C1127 C 0.67502 0.2165 0.04191 0.0
C1128 C 0.6949 0.22049 0.05757 0.0
C1129 C 0.6511 0.18866 0.03729 0.0
C1130 C 0.69052 0.19606 0.06851 0.0
C1131 C 0.66689 0.16817 0.06384 0.0
H1132 H 0.49015 0.6062 0.17864 0.0
H1133 H 0.54874 0.61629 0.22767 0.0
H1134 H 0.54825 0.6591 0.23975 0.0
H1135 H 0.53068 0.69345 0.23651 0.0
H1136 H 0.47208 0.68296 0.18736 0.0
H1137 H 0.47288 0.64044 0.1753 0.0
C1138 C 0.50251 0.61757 0.19211 0.0
C1139 C 0.51935 0.60805 0.20228 0.0
C1140 C 0.5022 0.64215 0.19892 0.0
C1141 C 0.53574 0.62333 0.2195 0.0
C1142 C 0.53544 0.64776 0.22643 0.0
C1143 C 0.51836 0.68199 0.22305 0.0
C1144 C 0.50126 0.69124 0.2129 0.0
C1145 C 0.51882 0.65744 0.21622 0.0
C1146 C 0.48513 0.67603 0.19559 0.0
C1147 C 0.48561 0.65176 0.18865 0.0
H1148 H 0.916 0.52526 0.34937 0.0
H1149 H 0.90863 0.45061 0.37981 0.0
H1150 H 0.8608 0.43877 0.39425 0.0
H1151 H 0.82189 0.45057 0.39892 0.0
H1152 H 0.82935 0.52493 0.3678 0.0
H1153 H 0.87691 0.5365 0.35349 0.0
C1154 C 0.90402 0.50651 0.35929 0.0
C1155 C 0.91591 0.48895 0.36363 0.0
C1156 C 0.87677 0.5 0.36761 0.0
C1157 C 0.89984 0.46435 0.37613 0.0
C1158 C 0.87262 0.4577 0.38449 0.0
C1159 C 0.83379 0.46918 0.38888 0.0
C1160 C 0.82207 0.48695 0.38458 0.0
C1161 C 0.86096 0.47548 0.38041 0.0
C1162 C 0.83804 0.5112 0.37173 0.0
C1163 C 0.86514 0.5177 0.36337 0.0
H1164 H 0.06833 0.56235 0.43847 0.0
H1165 H 0.10685 0.5151 0.41349 0.0
H1166 H 0.13653 0.52467 0.44398 0.0
H1167 H 0.15449 0.54964 0.4766 0.0
H1168 H 0.11769 0.5987 0.50105 0.0
H1169 H 0.08443 0.58519 0.47202 0.0
C1170 C 0.08307 0.55399 0.43978 0.0
C1171 C 0.08526 0.53798 0.42372 0.0
C1172 C 0.10059 0.56008 0.45721 0.0
C1173 C 0.10428 0.52705 0.42574 0.0
C1174 C 0.12155 0.53278 0.44309 0.0
C1175 C 0.13918 0.55736 0.47556 0.0
C1176 C 0.13874 0.57531 0.49089 0.0
C1177 C 0.12034 0.54978 0.45873 0.0
C1178 C 0.11836 0.58468 0.48953 0.0
C1179 C 0.09944 0.57711 0.47287 0.0
H1180 H 0.59228 0.08654 0.58273 0.0
H1181 H 0.5112 0.01698 0.60902 0.0
H1182 H 0.52434 0.04246 0.64169 0.0
H1183 H 0.55794 0.08602 0.66216 0.0
H1184 H 0.63798 0.15576 0.63484 0.0
H1185 H 0.62643 0.12846 0.60322 0.0
C1186 C 0.57777 0.07659 0.59572 0.0
C1187 C 0.55098 0.04974 0.59355 0.0
C1188 C 0.58522 0.09152 0.6142 0.0
C1189 C 0.53198 0.03761 0.61036 0.0
C1190 C 0.53949 0.05217 0.629 0.0
C1191 C 0.57297 0.09498 0.64933 0.0
C1192 C 0.59871 0.12288 0.65076 0.0
C1193 C 0.5659 0.07934 0.63102 0.0
C1194 C 0.61788 0.13446 0.63399 0.0
C1195 C 0.61132 0.11887 0.61594 0.0
H1196 H 0.45416 0.55872 0.73719 0.0
H1197 H 0.53269 0.55648 0.75136 0.0
H1198 H 0.52964 0.56817 0.78681 0.0
H1199 H 0.50406 0.57841 0.81386 0.0
H1200 H 0.42681 0.58277 0.79928 0.0
H1201 H 0.42984 0.57098 0.76391 0.0
C1202 C 0.47059 0.56096 0.74811 0.0
C1203 C 0.49363 0.55694 0.74189 0.0
C1204 C 0.46888 0.56801 0.76832 0.0
C1205 C 0.51496 0.55987 0.75595 0.0
C1206 C 0.51314 0.56638 0.77617 0.0
C1207 C 0.48796 0.57672 0.80287 0.0
C1208 C 0.46526 0.58134 0.809 0.0
C1209 C 0.49013 0.5704 0.78254 0.0
C1210 C 0.44459 0.57944 0.79473 0.0
C1211 C 0.44625 0.57263 0.77458 0.0
H1212 H 0.91334 0.48461 0.90997 0.0
H1213 H 0.94334 0.42373 0.90476 0.0
H1214 H 0.9246 0.40521 0.93855 0.0
H1215 H 0.90201 0.40777 0.97041 0.0
H1216 H 0.8754 0.47093 0.9768 0.0
H1217 H 0.89159 0.48783 0.94207 0.0
C1218 C 0.91597 0.4674 0.9162 0.0
C1219 C 0.92958 0.45553 0.90456 0.0
C1220 C 0.90621 0.45756 0.93606 0.0
C1221 C 0.93228 0.43288 0.91296 0.0
C1222 C 0.92195 0.42249 0.93248 0.0
C1223 C 0.89968 0.42517 0.96414 0.0
C1224 C 0.88763 0.43815 0.97613 0.0
C1225 C 0.90918 0.43487 0.94425 0.0
C1226 C 0.88499 0.46087 0.96793 0.0
C1227 C 0.89402 0.47037 0.94804 0.0
H1228 H 0.47267 0.93796 0.09202 0.0
H1229 H 0.55936 0.01145 0.10582 0.0
H1230 H 0.55879 0.98945 0.13859 0.0
H1231 H 0.53474 0.94742 0.16222 0.0
H1232 H 0.4497 0.87268 0.14665 0.0
H1233 H 0.44827 0.89701 0.11572 0.0
C1234 C 0.49113 0.9494 0.10243 0.0
C1235 C 0.51583 0.97639 0.09678 0.0
C1236 C 0.49098 0.93623 0.12081 0.0
C1237 C 0.54004 0.99071 0.11004 0.0
C1238 C 0.53973 0.97811 0.12869 0.0
C1239 C 0.51581 0.93677 0.15212 0.0
C1240 C 0.49236 0.90841 0.15656 0.0
C1241 C 0.51551 0.95063 0.13409 0.0
C1242 C 0.46802 0.89451 0.14337 0.0
C1243 C 0.46719 0.90838 0.12574 0.0
H1244 H 0.58448 0.53519 0.2722 0.0
H1245 H 0.51708 0.44497 0.26236 0.0
H1246 H 0.52916 0.43163 0.29466 0.0
H1247 H 0.56292 0.44461 0.32353 0.0
H1248 H 0.63214 0.53431 0.33256 0.0
H1249 H 0.61529 0.54887 0.30283 0.0
C1250 C 0.57224 0.51268 0.27727 0.0
C1251 C 0.5501 0.49111 0.26484 0.0
C1252 C 0.57987 0.50501 0.29559 0.0
C1253 C 0.53404 0.46207 0.27172 0.0
C1254 C 0.54115 0.45435 0.29009 0.0
C1255 C 0.57417 0.46736 0.31901 0.0
C1256 C 0.59895 0.4883 0.32997 0.0
C1257 C 0.56467 0.47547 0.30178 0.0
C1258 C 0.61298 0.5178 0.32432 0.0
C1259 C 0.60347 0.52611 0.30728 0.0
H1260 H 0.51338 0.91538 0.41711 0.0
H1261 H 0.49933 0.97779 0.38573 0.0
H1262 H 0.49924 0.95599 0.3533 0.0
H1263 H 0.50278 0.91896 0.33378 0.0
H1264 H 0.5177 0.8571 0.36501 0.0
H1265 H 0.51834 0.87924 0.39751 0.0
C1266 C 0.51049 0.92434 0.40317 0.0
C1267 C 0.50612 0.94805 0.40392 0.0
C1268 C 0.51083 0.91193 0.38451 0.0
C1269 C 0.50211 0.95917 0.38569 0.0
C1270 C 0.50235 0.9469 0.36709 0.0
C1271 C 0.50664 0.91064 0.34767 0.0
C1272 C 0.51029 0.8865 0.34698 0.0
C1273 C 0.50671 0.9233 0.36631 0.0
C1274 C 0.51469 0.87558 0.36516 0.0
C1275 C 0.51505 0.88822 0.38374 0.0
H1276 H 0.54037 0.47106 0.5594 0.0
H1277 H 0.56642 0.55835 0.54109 0.0
H1278 H 0.59615 0.55603 0.51334 0.0
H1279 H 0.61652 0.52971 0.49545 0.0
H1280 H 0.59025 0.44263 0.51471 0.0
H1281 H 0.55838 0.44422 0.54079 0.0
C1282 C 0.55189 0.48933 0.54903 0.0
C1283 C 0.55089 0.5147 0.5521 0.0
C1284 C 0.56929 0.48804 0.53352 0.0
C1285 C 0.56676 0.53853 0.53893 0.0
C1286 C 0.58384 0.53725 0.52316 0.0
C1287 C 0.60383 0.51115 0.50542 0.0
C1288 C 0.60606 0.48626 0.50336 0.0
C1289 C 0.58565 0.51226 0.52054 0.0
C1290 C 0.5895 0.46232 0.51632 0.0
C1291 C 0.57113 0.46312 0.53116 0.0
H1292 H 0.10951 0.55029 0.737 0.0
H1293 H 0.03759 0.55068 0.70643 0.0
H1294 H 0.0686 0.57136 0.67599 0.0
H1295 H 0.11645 0.58928 0.65822 0.0
H1296 H 0.18866 0.5906 0.68986 0.0
H1297 H 0.15732 0.56935 0.71981 0.0
C1298 C 0.10059 0.55468 0.72358 0.0
C1299 C 0.07126 0.54859 0.72372 0.0
C1300 C 0.11867 0.56705 0.70645 0.0
C1301 C 0.06008 0.55502 0.70651 0.0
C1302 C 0.0778 0.56684 0.68918 0.0
C1303 C 0.12523 0.58489 0.67171 0.0
C1304 C 0.15478 0.59146 0.67188 0.0
C1305 C 0.10715 0.57294 0.68898 0.0
C1306 C 0.16607 0.58599 0.68947 0.0
C1307 C 0.14814 0.57373 0.70656 0.0
H1308 H 0.57633 0.08002 0.9023 0.0
H1309 H 0.51887 0.11211 0.9179 0.0
H1310 H 0.52991 0.13767 0.88543 0.0
H1311 H 0.55516 0.15011 0.85243 0.0
H1312 H 0.61498 0.12031 0.8379 0.0
H1313 H 0.60343 0.09441 0.87011 0.0
C1314 C 0.56663 0.09304 0.89881 0.0
C1315 C 0.54687 0.09421 0.91259 0.0
C1316 C 0.57321 0.10781 0.8802 0.0
C1317 C 0.53395 0.11063 0.90752 0.0
C1318 C 0.54031 0.12531 0.88897 0.0
C1319 C 0.56601 0.13828 0.85637 0.0
C1320 C 0.58584 0.13714 0.8426 0.0
C1321 C 0.55979 0.12392 0.87515 0.0
C1322 C 0.59918 0.12117 0.84792 0.0
C1323 C 0.59282 0.10655 0.86647 0.0
H1324 H 0.48442 0.51219 0.06731 0.0
H1325 H 0.47189 0.57825 0.09402 0.0
H1326 H 0.45903 0.58898 0.0607 0.0
H1327 H 0.45108 0.57902 0.02413 0.0
H1328 H 0.46625 0.51474 0.9972 0.0
H1329 H 0.47857 0.50372 0.03054 0.0
C1330 C 0.47872 0.52883 0.06573 0.0
C1331 C 0.47859 0.54422 0.08288 0.0
C1332 C 0.47199 0.53514 0.04661 0.0
C1333 C 0.47185 0.56614 0.08088 0.0
C1334 C 0.46455 0.5722 0.06192 0.0
C1335 C 0.45704 0.56257 0.02566 0.0
C1336 C 0.45755 0.54744 0.00845 0.0
C1337 C 0.46447 0.55676 0.04472 0.0
C1338 C 0.46577 0.52656 0.01035 0.0
C1339 C 0.47272 0.52025 0.02935 0.0
H1340 H 0.93164 0.42775 0.24758 0.0
H1341 H 0.966 0.51779 0.23168 0.0
H1342 H 0.94263 0.50303 0.19844 0.0
H1343 H 0.9135 0.46461 0.17347 0.0
H1344 H 0.88015 0.37472 0.1891 0.0
H1345 H 0.90244 0.38938 0.22271 0.0
C1346 C 0.93402 0.44414 0.23684 0.0
C1347 C 0.95043 0.47381 0.24219 0.0
C1348 C 0.92096 0.43555 0.21761 0.0
C1349 C 0.95302 0.49476 0.22815 0.0
C1350 C 0.93995 0.48637 0.20903 0.0
C1351 C 0.9114 0.44829 0.18418 0.0
C1352 C 0.89534 0.41865 0.17879 0.0
C1353 C 0.92411 0.45686 0.20352 0.0
C1354 C 0.8923 0.39767 0.19294 0.0
C1355 C 0.90504 0.40603 0.21215 0.0
loop_
_geom_bond_atom_site_label_1
_geom_bond_atom_site_label_2
_geom_bond_distance
_geom_bond_site_symmetry_2
_ccdc_geom_bond_type
H0 O26 0.856 . S
H1 O29 0.854 . S
H2 C37 0.930 . S
H3 C38 0.930 . S
H4 C40 0.930 . S
H5 C41 0.922 . S
H6 C43 0.931 . S
H7 C44 0.930 . S
H8 C46 0.930 . S
H9 C47 0.929 . S
H10 C49 0.930 . S
H11 C50 0.931 . S
H12 C52 0.930 . S
H13 C53 0.929 . S
H14 C55 0.931 . S
H15 C56 0.930 . S
H16 C58 0.930 . S
H17 C59 0.932 . S
H18 C61 0.930 . S
H19 C62 0.929 . S
H20 C64 0.931 . S
H21 C65 0.930 . S
H22 C67 0.929 . S
H23 C68 0.931 . S
H24 C70 0.930 . S
H25 C71 0.930 . S
O26 H0 0.856 . S
O26 C72 1.300 . S
O27 C72 1.209 . S
O28 C73 1.199 . S
O29 H1 0.854 . S
O29 C73 1.297 . S
C30 C31 1.404 . S
C30 C35 1.397 . S
C30 C36 1.492 . S
C31 C30 1.404 . S
C31 C32 1.396 . S
C31 C42 1.492 . S
C32 C31 1.396 . S
C32 C33 1.397 . S
C32 C48 1.509 . S
C33 C32 1.397 . S
C33 C34 1.412 . S
C33 C54 1.485 . S
C34 C33 1.412 . S
C34 C35 1.388 . S
C34 C60 1.490 . S
C35 C30 1.397 . S
C35 C34 1.388 . S
C35 C66 1.519 . S
C36 C30 1.492 . S
C36 C37 1.363 . S
C36 C41 1.390 1_455 S
C37 H2 0.930 . S
C37 C36 1.363 . S
C37 C38 1.372 1_455 S
C38 H3 0.930 . S
C38 C37 1.372 1_655 S
C38 C39 1.383 . S
C39 C38 1.383 . S
C39 C40 1.395 . S
C40 H4 0.930 . S
C40 C39 1.395 . S
C40 C41 1.362 . S
C41 H5 0.922 . S
C41 C36 1.390 1_655 S
C41 C40 1.362 . S
C42 C31 1.492 . S
C42 C43 1.377 . S
C42 C47 1.397 . S
C43 H6 0.931 . S
C43 C42 1.377 . S
C43 C44 1.376 . S
C44 H7 0.930 . S
C44 C43 1.376 . S
C44 C45 1.376 . S
C45 C44 1.376 . S
C45 C46 1.378 . S
C45 C72 1.486 . S
C46 H8 0.930 . S
C46 C45 1.378 . S
C46 C47 1.376 . S
C47 H9 0.929 . S
C47 C42 1.397 . S
C47 C46 1.376 . S
C48 C32 1.509 . S
C48 C49 1.391 . S
C48 C53 1.386 . S
C49 H10 0.930 . S
C49 C48 1.391 . S
C49 C50 1.375 . S
C50 H11 0.931 . S
C50 C49 1.375 . S
C50 C51 1.375 . S
C51 C50 1.375 . S
C51 C52 1.361 . S
C52 H12 0.930 . S
C52 C51 1.361 . S
C52 C53 1.399 . S
C53 H13 0.929 . S
C53 C48 1.386 . S
C53 C52 1.399 . S
C54 C33 1.485 . S
C54 C55 1.394 . S
C54 C59 1.360 . S
C55 H14 0.931 . S
C55 C54 1.394 . S
C55 C56 1.372 . S
C56 H15 0.930 . S
C56 C55 1.372 . S
C56 C57 1.397 . S
C57 C56 1.397 . S
C57 C58 1.390 . S
C57 C73 1.476 . S
C58 H16 0.930 . S
C58 C57 1.390 . S
C58 C59 1.366 . S
C59 H17 0.932 . S
C59 C54 1.360 . S
C59 C58 1.366 . S
C60 C34 1.490 . S
C60 C61 1.380 . S
C60 C65 1.386 . S
C61 H18 0.930 . S
C61 C60 1.380 . S
C61 C62 1.381 . S
C62 H19 0.929 . S
C62 C61 1.381 . S
C62 C63 1.371 . S
C63 C62 1.371 . S
C63 C64 1.380 . S
C64 H20 0.931 . S
C64 C63 1.380 . S
C64 C65 1.387 . S
C65 H21 0.930 . S
C65 C60 1.386 . S
C65 C64 1.387 . S
C66 C35 1.519 . S
C66 C67 1.377 1_455 S
C66 C71 1.363 . S
C67 H22 0.929 . S
C67 C66 1.377 1_655 S
C67 C68 1.386 . S
C68 H23 0.931 . S
C68 C67 1.386 . S
C68 C69 1.363 . S
C69 C68 1.363 . S
C69 C70 1.385 . S
C70 H24 0.930 . S
C70 C69 1.385 . S
C70 C71 1.393 1_655 S
C71 H25 0.930 . S
C71 C66 1.363 . S
C71 C70 1.393 1_455 S
C72 O26 1.300 . S
C72 O27 1.209 . S
C72 C45 1.486 . S
C73 O28 1.199 . S
C73 O29 1.297 . S
C73 C57 1.476 . S
H74 O100 0.856 . S
H75 O103 0.854 . S
H76 C111 0.930 . S
H77 C112 0.930 . S
H78 C114 0.930 . S
H79 C115 0.930 . S
H80 C117 0.931 . S
H81 C118 0.930 . S
H82 C120 0.930 . S
H83 C121 0.929 . S
H84 C123 0.930 . S
H85 C124 0.931 . S
H86 C126 0.930 . S
H87 C127 0.929 . S
H88 C129 0.931 . S
H89 C130 0.930 . S
H90 C132 0.930 . S
H91 C133 0.932 . S
H92 C135 0.930 . S
H93 C136 0.929 . S
H94 C138 0.931 . S
H95 C139 0.930 . S
H96 C141 0.929 . S
H97 C142 0.931 . S
H98 C144 0.930 . S
H99 C145 0.929 1_545 S
O100 H74 0.856 . S
O100 C146 1.300 . S
O101 C146 1.209 . S
O102 C147 1.199 . S
O103 H75 0.854 . S
O103 C147 1.297 . S
C104 C105 1.404 . S
C104 C109 1.397 . S
C104 C110 1.492 . S
C105 C104 1.404 . S
C105 C106 1.396 . S
C105 C116 1.492 . S
C106 C105 1.396 . S
C106 C107 1.397 . S
C106 C122 1.509 . S
C107 C106 1.397 . S
C107 C108 1.412 . S
C107 C128 1.485 . S
C108 C107 1.412 . S
C108 C109 1.388 . S
C108 C134 1.490 . S
C109 C104 1.397 . S
C109 C108 1.388 . S
C109 C140 1.519 . S
C110 C104 1.492 . S
C110 C111 1.363 . S
C110 C115 1.390 1_545 S
C111 H76 0.930 . S
C111 C110 1.363 . S
C111 C112 1.372 1_545 S
C112 H77 0.930 . S
C112 C111 1.372 1_565 S
C112 C113 1.383 . S
C113 C112 1.383 . S
C113 C114 1.395 . S
C114 H78 0.930 . S
C114 C113 1.395 . S
C114 C115 1.362 . S
C115 H79 0.930 . S
C115 C110 1.390 1_565 S
C115 C114 1.362 . S
C116 C105 1.492 . S
C116 C117 1.377 . S
C116 C121 1.397 . S
C117 H80 0.931 . S
C117 C116 1.377 . S
C117 C118 1.376 . S
C118 H81 0.930 . S
C118 C117 1.376 . S
C118 C119 1.376 . S
C119 C118 1.376 . S
C119 C120 1.378 . S
C119 C146 1.486 . S
C120 H82 0.930 . S
C120 C119 1.378 . S
C120 C121 1.376 . S
C121 H83 0.929 . S
C121 C116 1.397 . S
C121 C120 1.376 . S
C122 C106 1.509 . S
C122 C123 1.391 . S
C122 C127 1.386 . S
C123 H84 0.930 . S
C123 C122 1.391 . S
C123 C124 1.375 . S
C124 H85 0.931 . S
C124 C123 1.375 . S
C124 C125 1.375 . S
C125 C124 1.375 . S
C125 C126 1.361 . S
C126 H86 0.930 . S
C126 C125 1.361 . S
C126 C127 1.399 . S
C127 H87 0.929 . S
C127 C122 1.386 . S
C127 C126 1.399 . S
C128 C107 1.485 . S
C128 C129 1.394 . S
C128 C133 1.360 . S
C129 H88 0.931 . S
C129 C128 1.394 . S
C129 C130 1.372 . S
C130 H89 0.930 . S
C130 C129 1.372 . S
C130 C131 1.397 . S
C131 C130 1.397 . S
C131 C132 1.390 . S
C131 C147 1.476 . S
C132 H90 0.930 . S
C132 C131 1.390 . S
C132 C133 1.366 . S
C133 H91 0.932 . S
C133 C128 1.360 . S
C133 C132 1.366 . S
C134 C108 1.490 . S
C134 C135 1.380 . S
C134 C139 1.386 . S
C135 H92 0.930 . S
C135 C134 1.380 . S
C135 C136 1.381 . S
C136 H93 0.929 . S
C136 C135 1.381 . S
C136 C137 1.371 . S
C137 C136 1.371 . S
C137 C138 1.380 . S
C138 H94 0.931 . S
C138 C137 1.380 . S
C138 C139 1.387 . S
C139 H95 0.930 . S
C139 C134 1.386 . S
C139 C138 1.387 . S
C140 C109 1.519 . S
C140 C141 1.377 1_545 S
C140 C145 1.361 1_545 S
C141 H96 0.929 . S
C141 C140 1.377 1_565 S
C141 C142 1.386 . S
C142 H97 0.931 . S
C142 C141 1.386 . S
C142 C143 1.363 . S
C143 C142 1.363 . S
C143 C144 1.385 . S
C144 H98 0.930 . S
C144 C143 1.385 . S
C144 C145 1.396 . S
C145 H99 0.929 1_565 S
C145 C140 1.361 1_565 S
C145 C144 1.396 . S
C146 O100 1.300 . S
C146 O101 1.209 . S
C146 C119 1.486 . S
C147 O102 1.199 . S
C147 O103 1.297 . S
C147 C131 1.476 . S
H148 O174 0.856 . S
H149 O177 0.854 . S
H150 C185 0.930 . S
H151 C186 0.930 . S
H152 C188 0.930 . S
H153 C189 0.930 . S
H154 C191 0.931 . S
H155 C192 0.930 . S
H156 C194 0.930 . S
H157 C195 0.929 . S
H158 C197 0.930 . S
H159 C198 0.931 . S
H160 C200 0.930 . S
H161 C201 0.929 . S
H162 C203 0.931 . S
H163 C204 0.930 . S
H164 C206 0.930 . S
H165 C207 0.932 . S
H166 C209 0.930 . S
H167 C210 0.929 . S
H168 C212 0.931 . S
H169 C213 0.930 . S
H170 C215 0.929 . S
H171 C216 0.931 . S
H172 C218 0.930 . S
H173 C219 0.929 . S
O174 H148 0.856 . S
O174 C220 1.300 . S
O175 C220 1.209 . S
O176 C221 1.199 . S
O177 H149 0.854 . S
O177 C221 1.297 . S
C178 C179 1.404 . S
C178 C183 1.397 . S
C178 C184 1.492 . S
C179 C178 1.404 . S
C179 C180 1.396 . S
C179 C190 1.492 . S
C180 C179 1.396 . S
C180 C181 1.397 . S
C180 C196 1.509 . S
C181 C180 1.397 . S
C181 C182 1.412 . S
C181 C202 1.485 . S
C182 C181 1.412 . S
C182 C183 1.388 . S
C182 C208 1.490 . S
C183 C178 1.397 . S
C183 C182 1.388 . S
C183 C214 1.519 . S
C184 C178 1.492 . S
C184 C185 1.363 . S
C184 C189 1.390 . S
C185 H150 0.930 . S
C185 C184 1.363 . S
C185 C186 1.372 . S
C186 H151 0.930 . S
C186 C185 1.372 . S
C186 C187 1.383 . S
C187 C186 1.383 . S
C187 C188 1.395 . S
C188 H152 0.930 . S
C188 C187 1.395 . S
C188 C189 1.362 . S
C189 H153 0.930 . S
C189 C184 1.390 . S
C189 C188 1.362 . S
C190 C179 1.492 . S
C190 C191 1.377 . S
C190 C195 1.397 . S
C191 H154 0.931 . S
C191 C190 1.377 . S
C191 C192 1.376 . S
C192 H155 0.930 . S
C192 C191 1.376 . S
C192 C193 1.376 . S
C193 C192 1.376 . S
C193 C194 1.378 . S
C193 C220 1.486 . S
C194 H156 0.930 . S
C194 C193 1.378 . S
C194 C195 1.376 . S
C195 H157 0.929 . S
C195 C190 1.397 . S
C195 C194 1.376 . S
C196 C180 1.509 . S
C196 C197 1.391 . S
C196 C201 1.386 . S
C197 H158 0.930 . S
C197 C196 1.391 . S
C197 C198 1.375 . S
C198 H159 0.931 . S
C198 C197 1.375 . S
C198 C199 1.375 . S
C199 C198 1.375 . S
C199 C200 1.361 . S
C200 H160 0.930 . S
C200 C199 1.361 . S
C200 C201 1.399 . S
C201 H161 0.929 . S
C201 C196 1.386 . S
C201 C200 1.399 . S
C202 C181 1.485 . S
C202 C203 1.394 . S
C202 C207 1.360 . S
C203 H162 0.931 . S
C203 C202 1.394 . S
C203 C204 1.372 . S
C204 H163 0.930 . S
C204 C203 1.372 . S
C204 C205 1.397 . S
C205 C204 1.397 . S
C205 C206 1.390 . S
C205 C221 1.476 . S
C206 H164 0.930 . S
C206 C205 1.390 . S
C206 C207 1.366 . S
C207 H165 0.932 . S
C207 C202 1.360 . S
C207 C206 1.366 . S
C208 C182 1.490 . S
C208 C209 1.380 . S
C208 C213 1.386 . S
C209 H166 0.930 . S
C209 C208 1.380 . S
C209 C210 1.381 . S
C210 H167 0.929 . S
C210 C209 1.381 . S
C210 C211 1.371 . S
C211 C210 1.371 . S
C211 C212 1.380 . S
C212 H168 0.931 . S
C212 C211 1.380 . S
C212 C213 1.387 . S
C213 H169 0.930 . S
C213 C208 1.386 . S
C213 C212 1.387 . S
C214 C183 1.519 . S
C214 C215 1.377 . S
C214 C219 1.361 . S
C215 H170 0.929 . S
C215 C214 1.377 . S
C215 C216 1.386 . S
C216 H171 0.931 . S
C216 C215 1.386 . S
C216 C217 1.363 . S
C217 C216 1.363 . S
C217 C218 1.385 . S
C218 H172 0.930 . S
C218 C217 1.385 . S
C218 C219 1.396 . S
C219 H173 0.929 . S
C219 C214 1.361 . S
C219 C218 1.396 . S
C220 O174 1.300 . S
C220 O175 1.209 . S
C220 C193 1.486 . S
C221 O176 1.199 . S
C221 O177 1.297 . S
C221 C205 1.476 . S
H222 O248 0.856 . S
H223 O251 0.854 . S
H224 C259 0.930 1_455 S
H225 C260 0.930 . S
H226 C262 0.930 . S
H227 C263 0.930 . S
H228 C265 0.931 . S
H229 C266 0.930 . S
H230 C268 0.930 . S
H231 C269 0.929 . S
H232 C271 0.930 . S
H233 C272 0.931 . S
H234 C274 0.930 . S
H235 C275 0.929 . S
H236 C277 0.931 . S
H237 C278 0.930 . S
H238 C280 0.930 . S
H239 C281 0.932 . S
H240 C283 0.930 . S
H241 C284 0.929 . S
H242 C286 0.931 . S
H243 C287 0.930 . S
H244 C289 0.929 . S
H245 C290 0.931 . S
H246 C292 0.930 . S
H247 C293 0.929 1_455 S
O248 H222 0.856 . S
O248 C294 1.300 . S
O249 C294 1.209 . S
O250 C295 1.199 . S
O251 H223 0.854 . S
O251 C295 1.297 . S
C252 C253 1.404 . S
C252 C257 1.397 . S
C252 C258 1.492 . S
C253 C252 1.404 . S
C253 C254 1.396 . S
C253 C264 1.492 . S
C254 C253 1.396 . S
C254 C255 1.397 . S
C254 C270 1.509 . S
C255 C254 1.397 . S
C255 C256 1.412 . S
C255 C276 1.485 . S
C256 C255 1.412 . S
C256 C257 1.388 . S
C256 C282 1.490 . S
C257 C252 1.397 . S
C257 C256 1.388 . S
C257 C288 1.519 1_455 S
C258 C252 1.492 . S
C258 C259 1.363 1_455 S
C258 C263 1.390 1_455 S
C259 H224 0.930 1_655 S
C259 C258 1.363 1_655 S
C259 C260 1.372 . S
C260 H225 0.930 . S
C260 C259 1.372 . S
C260 C261 1.383 . S
C261 C260 1.383 . S
C261 C262 1.395 . S
C262 H226 0.930 . S
C262 C261 1.395 . S
C262 C263 1.362 . S
C263 H227 0.930 . S
C263 C258 1.390 1_655 S
C263 C262 1.362 . S
C264 C253 1.492 . S
C264 C265 1.377 . S
C264 C269 1.397 . S
C265 H228 0.931 . S
C265 C264 1.377 . S
C265 C266 1.376 . S
C266 H229 0.930 . S
C266 C265 1.376 . S
C266 C267 1.376 . S
C267 C266 1.376 . S
C267 C268 1.378 . S
C267 C294 1.486 . S
C268 H230 0.930 . S
C268 C267 1.378 . S
C268 C269 1.376 . S
C269 H231 0.929 . S
C269 C264 1.397 . S
C269 C268 1.376 . S
C270 C254 1.509 . S
C270 C271 1.391 . S
C270 C275 1.386 . S
C271 H232 0.930 . S
C271 C270 1.391 . S
C271 C272 1.375 . S
C272 H233 0.931 . S
C272 C271 1.375 . S
C272 C273 1.375 . S
C273 C272 1.375 . S
C273 C274 1.361 . S
C274 H234 0.930 . S
C274 C273 1.361 . S
C274 C275 1.399 . S
C275 H235 0.929 . S
C275 C270 1.386 . S
C275 C274 1.399 . S
C276 C255 1.485 . S
C276 C277 1.394 . S
C276 C281 1.360 . S
C277 H236 0.931 . S
C277 C276 1.394 . S
C277 C278 1.372 . S
C278 H237 0.930 . S
C278 C277 1.372 . S
C278 C279 1.397 . S
C279 C278 1.397 . S
C279 C280 1.390 . S
C279 C295 1.476 . S
C280 H238 0.930 . S
C280 C279 1.390 . S
C280 C281 1.366 . S
C281 H239 0.932 . S
C281 C276 1.360 . S
C281 C280 1.366 . S
C282 C256 1.490 . S
C282 C283 1.380 . S
C282 C287 1.386 . S
C283 H240 0.930 . S
C283 C282 1.380 . S
C283 C284 1.381 . S
C284 H241 0.929 . S
C284 C283 1.381 . S
C284 C285 1.371 . S
C285 C284 1.371 . S
C285 C286 1.380 . S
C286 H242 0.931 . S
C286 C285 1.380 . S
C286 C287 1.387 . S
C287 H243 0.930 . S
C287 C282 1.386 . S
C287 C286 1.387 . S
C288 C257 1.519 1_655 S
C288 C289 1.377 . S
C288 C293 1.361 . S
C289 H244 0.929 . S
C289 C288 1.377 . S
C289 C290 1.386 . S
C290 H245 0.931 . S
C290 C289 1.386 . S
C290 C291 1.363 . S
C291 C290 1.363 . S
C291 C292 1.385 . S
C292 H246 0.930 . S
C292 C291 1.385 . S
C292 C293 1.396 . S
C293 H247 0.929 1_655 S
C293 C288 1.361 . S
C293 C292 1.396 . S
C294 O248 1.300 . S
C294 O249 1.209 . S
C294 C267 1.486 . S
C295 O250 1.199 . S
C295 O251 1.297 . S
C295 C279 1.476 . S
H296 O322 0.856 . S
H297 O325 0.854 . S
H298 C333 0.930 . S
H299 C334 0.930 . S
H300 C336 0.930 . S
H301 C337 0.930 . S
H302 C339 0.931 . S
H303 C340 0.930 . S
H304 C342 0.930 . S
H305 C343 0.929 . S
H306 C345 0.930 . S
H307 C346 0.931 . S
H308 C348 0.930 . S
H309 C349 0.929 . S
H310 C351 0.931 . S
H311 C352 0.930 . S
H312 C354 0.930 . S
H313 C355 0.932 . S
H314 C357 0.930 . S
H315 C358 0.929 . S
H316 C360 0.931 . S
H317 C361 0.930 . S
H318 C363 0.929 1_556 S
H319 C364 0.931 . S
H320 C366 0.930 . S
H321 C367 0.929 . S
O322 H296 0.856 . S
O322 C368 1.300 . S
O323 C368 1.209 . S
O324 C369 1.199 . S
O325 H297 0.854 . S
O325 C369 1.297 . S
C326 C327 1.404 . S
C326 C331 1.397 . S
C326 C332 1.492 1_565 S
C327 C326 1.404 . S
C327 C328 1.396 . S
C327 C338 1.492 . S
C328 C327 1.396 . S
C328 C329 1.397 . S
C328 C344 1.509 . S
C329 C328 1.397 . S
C329 C330 1.413 1_556 S
C329 C350 1.485 1_556 S
C330 C329 1.413 1_554 S
C330 C331 1.388 1_554 S
C330 C356 1.490 . S
C331 C326 1.397 . S
C331 C330 1.388 1_556 S
C331 C362 1.519 1_566 S
C332 C326 1.492 1_545 S
C332 C333 1.363 . S
C332 C337 1.390 . S
C333 H298 0.930 . S
C333 C332 1.363 . S
C333 C334 1.372 . S
C334 H299 0.930 . S
C334 C333 1.372 . S
C334 C335 1.383 . S
C335 C334 1.383 . S
C335 C336 1.395 . S
C336 H300 0.930 . S
C336 C335 1.395 . S
C336 C337 1.362 . S
C337 H301 0.930 . S
C337 C332 1.390 . S
C337 C336 1.362 . S
C338 C327 1.492 . S
C338 C339 1.377 . S
C338 C343 1.397 . S
C339 H302 0.931 . S
C339 C338 1.377 . S
C339 C340 1.376 . S
C340 H303 0.930 . S
C340 C339 1.376 . S
C340 C341 1.376 . S
C341 C340 1.376 . S
C341 C342 1.378 . S
C341 C368 1.486 . S
C342 H304 0.930 . S
C342 C341 1.378 . S
C342 C343 1.376 . S
C343 H305 0.929 . S
C343 C338 1.397 . S
C343 C342 1.376 . S
C344 C328 1.509 . S
C344 C345 1.391 . S
C344 C349 1.386 . S
C345 H306 0.930 . S
C345 C344 1.391 . S
C345 C346 1.375 . S
C346 H307 0.931 . S
C346 C345 1.375 . S
C346 C347 1.375 . S
C347 C346 1.375 . S
C347 C348 1.361 . S
C348 H308 0.930 . S
C348 C347 1.361 . S
C348 C349 1.399 . S
C349 H309 0.929 . S
C349 C344 1.386 . S
C349 C348 1.399 . S
C350 C329 1.485 1_554 S
C350 C351 1.394 . S
C350 C355 1.360 . S
C351 H310 0.931 . S
C351 C350 1.394 . S
C351 C352 1.372 . S
C352 H311 0.930 . S
C352 C351 1.372 . S
C352 C353 1.397 . S
C353 C352 1.397 . S
C353 C354 1.390 . S
C353 C369 1.476 . S
C354 H312 0.930 . S
C354 C353 1.390 . S
C354 C355 1.366 . S
C355 H313 0.932 . S
C355 C350 1.360 . S
C355 C354 1.366 . S
C356 C330 1.490 . S
C356 C357 1.380 . S
C356 C361 1.386 . S
C357 H314 0.930 . S
C357 C356 1.380 . S
C357 C358 1.381 . S
C358 H315 0.929 . S
C358 C357 1.381 . S
C358 C359 1.371 . S
C359 C358 1.371 . S
C359 C360 1.380 . S
C360 H316 0.931 . S
C360 C359 1.380 . S
C360 C361 1.387 . S
C361 H317 0.930 . S
C361 C356 1.386 . S
C361 C360 1.387 . S
C362 C331 1.519 1_544 S
C362 C363 1.377 . S
C362 C367 1.361 . S
C363 H318 0.929 1_554 S
C363 C362 1.377 . S
C363 C364 1.386 . S
C364 H319 0.931 . S
C364 C363 1.386 . S
C364 C365 1.363 . S
C365 C364 1.363 . S
C365 C366 1.385 . S
C366 H320 0.930 . S
C366 C365 1.385 . S
C366 C367 1.396 . S
C367 H321 0.929 . S
C367 C362 1.361 . S
C367 C366 1.396 . S
C368 O322 1.300 . S
C368 O323 1.209 . S
C368 C341 1.486 . S
C369 O324 1.199 . S
C369 O325 1.297 . S
C369 C353 1.476 . S
H370 O396 0.856 . S
H371 O399 0.854 . S
H372 C407 0.930 . S
H373 C408 0.930 . S
H374 C410 0.930 . S
H375 C411 0.930 . S
H376 C413 0.931 . S
H377 C414 0.930 . S
H378 C416 0.930 . S
H379 C417 0.929 . S
H380 C419 0.930 . S
H381 C420 0.931 . S
H382 C422 0.930 . S
H383 C423 0.929 . S
H384 C425 0.931 . S
H385 C426 0.930 . S
H386 C428 0.930 . S
H387 C429 0.932 . S
H388 C431 0.930 . S
H389 C432 0.929 . S
H390 C434 0.931 . S
H391 C435 0.930 . S
H392 C437 0.929 . S
H393 C438 0.931 . S
H394 C440 0.930 . S
H395 C441 0.929 . S
O396 H370 0.856 . S
O396 C442 1.300 . S
O397 C442 1.209 . S
O398 C443 1.199 . S
O399 H371 0.854 . S
O399 C443 1.297 . S
C400 C401 1.404 . S
C400 C405 1.397 . S
C400 C406 1.492 . S
C401 C400 1.404 . S
C401 C402 1.396 . S
C401 C412 1.492 . S
C402 C401 1.396 . S
C402 C403 1.397 . S
C402 C418 1.509 . S
C403 C402 1.397 . S
C403 C404 1.412 . S
C403 C424 1.485 . S
C404 C403 1.412 . S
C404 C405 1.388 . S
C404 C430 1.490 . S
C405 C400 1.397 . S
C405 C404 1.388 . S
C405 C436 1.519 . S
C406 C400 1.492 . S
C406 C407 1.363 . S
C406 C411 1.390 . S
C407 H372 0.930 . S
C407 C406 1.363 . S
C407 C408 1.372 . S
C408 H373 0.930 . S
C408 C407 1.372 . S
C408 C409 1.383 . S
C409 C408 1.383 . S
C409 C410 1.395 . S
C410 H374 0.930 . S
C410 C409 1.395 . S
C410 C411 1.362 . S
C411 H375 0.930 . S
C411 C406 1.390 . S
C411 C410 1.362 . S
C412 C401 1.492 . S
C412 C413 1.377 . S
C412 C417 1.397 . S
C413 H376 0.931 . S
C413 C412 1.377 . S
C413 C414 1.376 . S
C414 H377 0.930 . S
C414 C413 1.376 . S
C414 C415 1.376 . S
C415 C414 1.376 . S
C415 C416 1.378 . S
C415 C442 1.486 . S
C416 H378 0.930 . S
C416 C415 1.378 . S
C416 C417 1.376 . S
C417 H379 0.929 . S
C417 C412 1.397 . S
C417 C416 1.376 . S
C418 C402 1.509 . S
C418 C419 1.391 . S
C418 C423 1.386 . S
C419 H380 0.930 . S
C419 C418 1.391 . S
C419 C420 1.375 . S
C420 H381 0.931 . S
C420 C419 1.375 . S
C420 C421 1.375 . S
C421 C420 1.375 . S
C421 C422 1.361 . S
C422 H382 0.930 . S
C422 C421 1.361 . S
C422 C423 1.399 . S
C423 H383 0.929 . S
C423 C418 1.386 . S
C423 C422 1.399 . S
C424 C403 1.485 . S
C424 C425 1.394 . S
C424 C429 1.360 . S
C425 H384 0.931 . S
C425 C424 1.394 . S
C425 C426 1.372 . S
C426 H385 0.930 . S
C426 C425 1.372 . S
C426 C427 1.397 . S
C427 C426 1.397 . S
C427 C428 1.390 . S
C427 C443 1.476 . S
C428 H386 0.930 . S
C428 C427 1.390 . S
C428 C429 1.366 . S
C429 H387 0.932 . S
C429 C424 1.360 . S
C429 C428 1.366 . S
C430 C404 1.490 . S
C430 C431 1.380 . S
C430 C435 1.386 . S
C431 H388 0.930 . S
C431 C430 1.380 . S
C431 C432 1.381 . S
C432 H389 0.929 . S
C432 C431 1.381 . S
C432 C433 1.371 . S
C433 C432 1.371 . S
C433 C434 1.380 . S
C434 H390 0.931 . S
C434 C433 1.380 . S
C434 C435 1.387 . S
C435 H391 0.930 . S
C435 C430 1.386 . S
C435 C434 1.387 . S
C436 C405 1.519 . S
C436 C437 1.377 . S
C436 C441 1.361 . S
C437 H392 0.929 . S
C437 C436 1.377 . S
C437 C438 1.386 . S
C438 H393 0.931 . S
C438 C437 1.386 . S
C438 C439 1.363 . S
C439 C438 1.363 . S
C439 C440 1.385 . S
C440 H394 0.930 . S
C440 C439 1.385 . S
C440 C441 1.396 . S
C441 H395 0.929 . S
C441 C436 1.361 . S
C441 C440 1.396 . S
C442 O396 1.300 . S
C442 O397 1.209 . S
C442 C415 1.486 . S
C443 O398 1.199 . S
C443 O399 1.297 . S
C443 C427 1.476 . S
Li444 N461 1.990 . S
Li444 O504 1.956 . S
Li444 O505 1.970 . S
Li444 O506 1.961 . S
Li445 N469 1.990 . S
Li445 O504 1.970 . S
Li445 O505 1.956 . S
Li445 O507 1.961 . S
Li446 N491 1.990 . S
Li446 O504 1.961 . S
Li446 O506 1.956 . S
Li446 O507 1.970 . S
Li447 N497 1.990 . S
Li447 O505 1.961 . S
Li447 O506 1.970 . S
Li447 O507 1.956 . S
C448 C450 1.348 . S
C448 C451 1.356 . S
C448 O504 1.325 . S
N449 C452 1.314 . S
N449 C453 1.279 . S
C450 C448 1.348 . S
C450 C452 1.353 . S
C450 H508 0.929 . S
C451 C448 1.356 . S
C451 C453 1.358 . S
C451 H509 0.930 . S
C452 N449 1.314 . S
C452 C450 1.353 . S
C452 H510 0.930 . S
C453 N449 1.279 . S
C453 C451 1.358 . S
C453 H511 0.930 . S
C454 C457 1.348 . S
C454 C458 1.356 . S
C454 O505 1.325 . S
C455 N456 1.279 . S
C455 C458 1.358 . S
C455 H512 0.930 . S
N456 C455 1.279 . S
N456 C459 1.314 . S
C457 C454 1.348 . S
C457 C459 1.353 . S
C457 H513 0.929 . S
C458 C454 1.356 . S
C458 C455 1.358 . S
C458 H514 0.930 . S
C459 N456 1.314 . S
C459 C457 1.353 . S
C459 H515 0.930 . S
C460 N461 1.314 . S
C460 C465 1.353 . S
C460 H466 0.930 . S
N461 Li444 1.990 . S
N461 C460 1.314 . S
N461 C463 1.279 . S
C462 C463 1.358 . S
C462 C464 1.356 . S
C462 H516 0.930 . S
C463 N461 1.279 . S
C463 C462 1.358 . S
C463 H467 0.930 . S
C464 C462 1.356 . S
C464 C465 1.348 . S
C465 C460 1.353 . S
C465 C464 1.348 . S
C465 H517 0.929 . S
H466 C460 0.930 . S
H467 C463 0.930 . S
C468 N469 1.314 . S
C468 C470 1.353 . S
C468 H474 0.930 . S
N469 Li445 1.990 . S
N469 C468 1.314 . S
N469 C472 1.279 . S
C470 C468 1.353 . S
C470 C473 1.348 . S
C470 H518 0.929 . S
C471 C472 1.358 . S
C471 C473 1.356 . S
C471 H519 0.930 . S
C472 N469 1.279 . S
C472 C471 1.358 . S
C472 H475 0.930 . S
C473 C470 1.348 . S
C473 C471 1.356 . S
H474 C468 0.930 . S
H475 C472 0.930 . S
C476 C478 1.348 . S
C476 C479 1.356 . S
C476 O506 1.325 . S
N477 C480 1.314 . S
N477 C481 1.279 . S
C478 C476 1.348 . S
C478 C480 1.353 . S
C478 H520 0.929 . S
C479 C476 1.356 . S
C479 C481 1.358 . S
C479 H521 0.930 . S
C480 N477 1.314 . S
C480 C478 1.353 . S
C480 H522 0.930 . S
C481 N477 1.279 . S
C481 C479 1.358 . S
C481 H523 0.930 . S
C482 C483 1.348 . S
C482 C484 1.356 . S
C482 O507 1.325 . S
C483 C482 1.348 . S
C483 C485 1.353 . S
C483 H524 0.929 . S
C484 C482 1.356 . S
C484 C486 1.358 . S
C484 H525 0.930 . S
C485 C483 1.353 . S
C485 N487 1.314 . S
C485 H526 0.930 . S
C486 C484 1.358 . S
C486 N487 1.279 . S
C486 H527 0.930 . S
N487 C485 1.314 . S
N487 C486 1.279 . S
C488 C490 1.353 . S
C488 N491 1.314 . S
C488 H494 0.930 . S
C489 N491 1.279 . S
C489 C492 1.358 . S
C489 H495 0.930 . S
C490 C488 1.353 . S
C490 C493 1.348 . S
C490 H528 0.929 . S
N491 Li446 1.990 . S
N491 C488 1.314 . S
N491 C489 1.279 . S
C492 C489 1.358 . S
C492 C493 1.356 . S
C492 H529 0.930 . S
C493 C490 1.348 . S
C493 C492 1.356 . S
H494 C488 0.930 . S
H495 C489 0.930 . S
C496 N497 1.314 . S
C496 C498 1.353 . S
C496 H502 0.930 . S
N497 Li447 1.990 . S
N497 C496 1.314 . S
N497 C500 1.279 . S
C498 C496 1.353 . S
C498 C501 1.348 . S
C498 H530 0.929 . S
C499 C500 1.358 . S
C499 C501 1.356 . S
C499 H531 0.930 . S
C500 N497 1.279 . S
C500 C499 1.358 . S
C500 H503 0.930 . S
C501 C498 1.348 . S
C501 C499 1.356 . S
H502 C496 0.930 . S
H503 C500 0.930 . S
O504 Li444 1.956 . S
O504 Li445 1.970 . S
O504 Li446 1.961 . S
O504 C448 1.325 . S
O505 Li444 1.970 . S
O505 Li445 1.956 . S
O505 Li447 1.961 . S
O505 C454 1.325 . S
O506 Li444 1.961 . S
O506 Li446 1.956 . S
O506 Li447 1.970 . S
O506 C476 1.325 . S
O507 Li445 1.961 . S
O507 Li446 1.970 . S
O507 Li447 1.956 . S
O507 C482 1.325 . S
H508 C450 0.929 . S
H509 C451 0.930 . S
H510 C452 0.930 . S
H511 C453 0.930 . S
H512 C455 0.930 . S
H513 C457 0.929 . S
H514 C458 0.930 . S
H515 C459 0.930 . S
H516 C462 0.930 . S
H517 C465 0.929 . S
H518 C470 0.929 . S
H519 C471 0.930 . S
H520 C478 0.929 . S
H521 C479 0.930 . S
H522 C480 0.930 . S
H523 C481 0.930 . S
H524 C483 0.929 . S
H525 C484 0.930 . S
H526 C485 0.930 . S
H527 C486 0.930 . S
H528 C490 0.929 . S
H529 C492 0.930 . S
H530 C498 0.929 . S
H531 C499 0.930 . S
Li532 N549 1.990 . S
Li532 O592 1.956 . S
Li532 O593 1.970 . S
Li532 O594 1.961 . S
Li533 N557 1.990 . S
Li533 O592 1.970 . S
Li533 O593 1.956 . S
Li533 O595 1.961 . S
Li534 N579 1.990 . S
Li534 O592 1.961 . S
Li534 O594 1.956 . S
Li534 O595 1.970 . S
Li535 N585 1.990 . S
Li535 O593 1.961 . S
Li535 O594 1.970 . S
Li535 O595 1.956 . S
C536 C538 1.348 . S
C536 C539 1.356 . S
C536 O592 1.325 . S
N537 C540 1.314 . S
N537 C541 1.279 . S
C538 C536 1.348 . S
C538 C540 1.353 . S
C538 H596 0.929 . S
C539 C536 1.356 . S
C539 C541 1.358 . S
C539 H597 0.930 . S
C540 N537 1.314 . S
C540 C538 1.353 . S
C540 H598 0.930 . S
C541 N537 1.279 . S
C541 C539 1.358 . S
C541 H599 0.930 . S
C542 C545 1.348 . S
C542 C546 1.356 . S
C542 O593 1.325 . S
C543 N544 1.279 . S
C543 C546 1.358 . S
C543 H600 0.930 . S
N544 C543 1.279 . S
N544 C547 1.314 . S
C545 C542 1.348 . S
C545 C547 1.353 . S
C545 H601 0.929 . S
C546 C542 1.356 . S
C546 C543 1.358 . S
C546 H602 0.930 . S
C547 N544 1.314 . S
C547 C545 1.353 . S
C547 H603 0.930 . S
C548 N549 1.314 . S
C548 C553 1.353 . S
C548 H554 0.930 . S
N549 Li532 1.990 . S
N549 C548 1.314 . S
N549 C551 1.279 . S
C550 C551 1.358 . S
C550 C552 1.356 . S
C550 H604 0.930 . S
C551 N549 1.279 . S
C551 C550 1.358 . S
C551 H555 0.930 . S
C552 C550 1.356 . S
C552 C553 1.348 . S
C553 C548 1.353 . S
C553 C552 1.348 . S
C553 H605 0.929 . S
H554 C548 0.930 . S
H555 C551 0.930 . S
C556 N557 1.314 . S
C556 C558 1.353 . S
C556 H562 0.930 . S
N557 Li533 1.990 . S
N557 C556 1.314 . S
N557 C560 1.279 . S
C558 C556 1.353 . S
C558 C561 1.348 . S
C558 H606 0.929 . S
C559 C560 1.358 . S
C559 C561 1.356 . S
C559 H607 0.930 . S
C560 N557 1.279 . S
C560 C559 1.358 . S
C560 H563 0.930 . S
C561 C558 1.348 . S
C561 C559 1.356 . S
H562 C556 0.930 . S
H563 C560 0.930 . S
C564 C566 1.348 . S
C564 C567 1.356 . S
C564 O594 1.325 . S
N565 C568 1.314 . S
N565 C569 1.279 . S
C566 C564 1.348 . S
C566 C568 1.353 . S
C566 H608 0.929 . S
C567 C564 1.356 . S
C567 C569 1.358 . S
C567 H609 0.930 . S
C568 N565 1.314 . S
C568 C566 1.353 . S
C568 H610 0.930 . S
C569 N565 1.279 . S
C569 C567 1.358 . S
C569 H611 0.930 . S
C570 C571 1.348 . S
C570 C572 1.356 . S
C570 O595 1.325 . S
C571 C570 1.348 . S
C571 C573 1.353 . S
C571 H612 0.929 . S
C572 C570 1.356 . S
C572 C574 1.358 . S
C572 H613 0.930 . S
C573 C571 1.353 . S
C573 N575 1.314 . S
C573 H614 0.930 . S
C574 C572 1.358 . S
C574 N575 1.279 . S
C574 H615 0.930 . S
N575 C573 1.314 . S
N575 C574 1.279 . S
C576 C578 1.353 . S
C576 N579 1.314 . S
C576 H582 0.930 . S
C577 N579 1.279 . S
C577 C580 1.358 . S
C577 H583 0.930 . S
C578 C576 1.353 . S
C578 C581 1.348 . S
C578 H616 0.929 . S
N579 Li534 1.990 . S
N579 C576 1.314 . S
N579 C577 1.279 . S
C580 C577 1.358 . S
C580 C581 1.356 . S
C580 H617 0.930 . S
C581 C578 1.348 . S
C581 C580 1.356 . S
H582 C576 0.930 . S
H583 C577 0.930 . S
C584 N585 1.314 . S
C584 C586 1.353 . S
C584 H590 0.930 . S
N585 Li535 1.990 . S
N585 C584 1.314 . S
N585 C588 1.279 . S
C586 C584 1.353 . S
C586 C589 1.348 . S
C586 H618 0.929 . S
C587 C588 1.358 . S
C587 C589 1.356 . S
C587 H619 0.930 . S
C588 N585 1.279 . S
C588 C587 1.358 . S
C588 H591 0.930 . S
C589 C586 1.348 . S
C589 C587 1.356 . S
H590 C584 0.930 . S
H591 C588 0.930 . S
O592 Li532 1.956 . S
O592 Li533 1.970 . S
O592 Li534 1.961 . S
O592 C536 1.325 . S
O593 Li532 1.970 . S
O593 Li533 1.956 . S
O593 Li535 1.961 . S
O593 C542 1.325 . S
O594 Li532 1.961 . S
O594 Li534 1.956 . S
O594 Li535 1.970 . S
O594 C564 1.325 . S
O595 Li533 1.961 . S
O595 Li534 1.970 . S
O595 Li535 1.956 . S
O595 C570 1.325 . S
H596 C538 0.929 . S
H597 C539 0.930 . S
H598 C540 0.930 . S
H599 C541 0.930 . S
H600 C543 0.930 . S
H601 C545 0.929 . S
H602 C546 0.930 . S
H603 C547 0.930 . S
H604 C550 0.930 . S
H605 C553 0.929 . S
H606 C558 0.929 . S
H607 C559 0.930 . S
H608 C566 0.929 . S
H609 C567 0.930 . S
H610 C568 0.930 . S
H611 C569 0.930 . S
H612 C571 0.929 . S
H613 C572 0.930 . S
H614 C573 0.930 . S
H615 C574 0.930 . S
H616 C578 0.929 . S
H617 C580 0.930 . S
H618 C586 0.929 . S
H619 C587 0.930 . S
Li620 N637 1.990 . S
Li620 O680 1.956 . S
Li620 O681 1.970 . S
Li620 O682 1.961 . S
Li621 N645 1.990 . S
Li621 O680 1.970 . S
Li621 O681 1.956 . S
Li621 O683 1.961 . S
Li622 N667 1.990 . S
Li622 O680 1.961 . S
Li622 O682 1.956 . S
Li622 O683 1.970 . S
Li623 N673 1.990 . S
Li623 O681 1.961 . S
Li623 O682 1.970 . S
Li623 O683 1.956 . S
C624 C626 1.348 . S
C624 C627 1.356 . S
C624 O680 1.325 . S
N625 C628 1.314 . S
N625 C629 1.279 . S
C626 C624 1.348 . S
C626 C628 1.353 . S
C626 H684 0.929 . S
C627 C624 1.356 . S
C627 C629 1.358 . S
C627 H685 0.930 . S
C628 N625 1.314 . S
C628 C626 1.353 . S
C628 H686 0.930 . S
C629 N625 1.279 . S
C629 C627 1.358 . S
C629 H687 0.930 . S
C630 C633 1.348 . S
C630 C634 1.356 . S
C630 O681 1.325 . S
C631 N632 1.279 . S
C631 C634 1.358 . S
C631 H688 0.930 . S
N632 C631 1.279 . S
N632 C635 1.314 . S
C633 C630 1.348 . S
C633 C635 1.353 . S
C633 H689 0.929 . S
C634 C630 1.356 . S
C634 C631 1.358 . S
C634 H690 0.930 . S
C635 N632 1.314 . S
C635 C633 1.353 . S
C635 H691 0.930 . S
C636 N637 1.314 . S
C636 C641 1.353 . S
C636 H642 0.930 . S
N637 Li620 1.990 . S
N637 C636 1.314 . S
N637 C639 1.279 . S
C638 C639 1.358 . S
C638 C640 1.356 . S
C638 H692 0.930 . S
C639 N637 1.279 . S
C639 C638 1.358 . S
C639 H643 0.930 . S
C640 C638 1.356 . S
C640 C641 1.348 . S
C641 C636 1.353 . S
C641 C640 1.348 . S
C641 H693 0.929 . S
H642 C636 0.930 . S
H643 C639 0.930 . S
C644 N645 1.314 . S
C644 C646 1.353 . S
C644 H650 0.930 . S
N645 Li621 1.990 . S
N645 C644 1.314 . S
N645 C648 1.279 . S
C646 C644 1.353 . S
C646 C649 1.348 . S
C646 H694 0.929 . S
C647 C648 1.358 . S
C647 C649 1.356 . S
C647 H695 0.930 . S
C648 N645 1.279 . S
C648 C647 1.358 . S
C648 H651 0.930 . S
C649 C646 1.348 . S
C649 C647 1.356 . S
H650 C644 0.930 . S
H651 C648 0.930 . S
C652 C654 1.348 . S
C652 C655 1.356 . S
C652 O682 1.325 . S
N653 C656 1.314 . S
N653 C657 1.279 . S
C654 C652 1.348 . S
C654 C656 1.353 . S
C654 H696 0.929 . S
C655 C652 1.356 . S
C655 C657 1.358 . S
C655 H697 0.930 . S
C656 N653 1.314 . S
C656 C654 1.353 . S
C656 H698 0.930 . S
C657 N653 1.279 . S
C657 C655 1.358 . S
C657 H699 0.930 . S
C658 C659 1.348 . S
C658 C660 1.356 . S
C658 O683 1.325 . S
C659 C658 1.348 . S
C659 C661 1.353 . S
C659 H700 0.929 . S
C660 C658 1.356 . S
C660 C662 1.358 . S
C660 H701 0.930 . S
C661 C659 1.353 . S
C661 N663 1.314 . S
C661 H702 0.930 . S
C662 C660 1.358 . S
C662 N663 1.279 . S
C662 H703 0.930 . S
N663 C661 1.314 . S
N663 C662 1.279 . S
C664 C666 1.353 . S
C664 N667 1.314 . S
C664 H670 0.930 . S
C665 N667 1.279 . S
C665 C668 1.358 . S
C665 H671 0.930 . S
C666 C664 1.353 . S
C666 C669 1.348 . S
C666 H704 0.929 . S
N667 Li622 1.990 . S
N667 C664 1.314 . S
N667 C665 1.279 . S
C668 C665 1.358 . S
C668 C669 1.356 . S
C668 H705 0.930 . S
C669 C666 1.348 . S
C669 C668 1.356 . S
H670 C664 0.930 . S
H671 C665 0.930 . S
C672 N673 1.314 . S
C672 C674 1.353 . S
C672 H678 0.930 . S
N673 Li623 1.990 . S
N673 C672 1.314 . S
N673 C676 1.279 . S
C674 C672 1.353 . S
C674 C677 1.348 . S
C674 H706 0.929 . S
C675 C676 1.358 . S
C675 C677 1.356 . S
C675 H707 0.930 . S
C676 N673 1.279 . S
C676 C675 1.358 . S
C676 H679 0.930 . S
C677 C674 1.348 . S
C677 C675 1.356 . S
H678 C672 0.930 . S
H679 C676 0.930 . S
O680 Li620 1.956 . S
O680 Li621 1.970 . S
O680 Li622 1.961 . S
O680 C624 1.325 . S
O681 Li620 1.970 . S
O681 Li621 1.956 . S
O681 Li623 1.961 . S
O681 C630 1.325 . S
O682 Li620 1.961 . S
O682 Li622 1.956 . S
O682 Li623 1.970 . S
O682 C652 1.325 . S
O683 Li621 1.961 . S
O683 Li622 1.970 . S
O683 Li623 1.956 . S
O683 C658 1.325 . S
H684 C626 0.929 . S
H685 C627 0.930 . S
H686 C628 0.930 . S
H687 C629 0.930 . S
H688 C631 0.930 . S
H689 C633 0.929 . S
H690 C634 0.930 . S
H691 C635 0.930 . S
H692 C638 0.930 . S
H693 C641 0.929 . S
H694 C646 0.929 . S
H695 C647 0.930 . S
H696 C654 0.929 . S
H697 C655 0.930 . S
H698 C656 0.930 . S
H699 C657 0.930 . S
H700 C659 0.929 . S
H701 C660 0.930 . S
H702 C661 0.930 . S
H703 C662 0.930 . S
H704 C666 0.929 . S
H705 C668 0.930 . S
H706 C674 0.929 . S
H707 C675 0.930 . S
Li708 N725 1.990 . S
Li708 O768 1.956 . S
Li708 O769 1.970 . S
Li708 O770 1.961 . S
Li709 N733 1.990 . S
Li709 O768 1.970 . S
Li709 O769 1.956 . S
Li709 O771 1.961 . S
Li710 N755 1.990 . S
Li710 O768 1.961 . S
Li710 O770 1.956 . S
Li710 O771 1.970 . S
Li711 N761 1.990 . S
Li711 O769 1.961 . S
Li711 O770 1.970 . S
Li711 O771 1.956 . S
C712 C714 1.348 . S
C712 C715 1.356 . S
C712 O768 1.325 . S
N713 C716 1.314 . S
N713 C717 1.279 . S
C714 C712 1.348 . S
C714 C716 1.353 . S
C714 H772 0.929 . S
C715 C712 1.356 . S
C715 C717 1.358 . S
C715 H773 0.930 . S
C716 N713 1.314 . S
C716 C714 1.353 . S
C716 H774 0.930 . S
C717 N713 1.279 . S
C717 C715 1.358 . S
C717 H775 0.930 . S
C718 C721 1.348 . S
C718 C722 1.356 . S
C718 O769 1.325 . S
C719 N720 1.279 . S
C719 C722 1.358 . S
C719 H776 0.930 . S
N720 C719 1.279 . S
N720 C723 1.314 . S
C721 C718 1.348 . S
C721 C723 1.353 . S
C721 H777 0.929 . S
C722 C718 1.356 . S
C722 C719 1.358 . S
C722 H778 0.930 . S
C723 N720 1.314 . S
C723 C721 1.353 . S
C723 H779 0.930 . S
C724 N725 1.314 . S
C724 C729 1.353 . S
C724 H730 0.930 . S
N725 Li708 1.990 . S
N725 C724 1.314 . S
N725 C727 1.279 . S
C726 C727 1.358 . S
C726 C728 1.356 . S
C726 H780 0.930 1_556 S
C727 N725 1.279 . S
C727 C726 1.358 . S
C727 H731 0.930 . S
C728 C726 1.356 . S
C728 C729 1.348 . S
C729 C724 1.353 . S
C729 C728 1.348 . S
C729 H781 0.929 . S
H730 C724 0.930 . S
H731 C727 0.930 . S
C732 N733 1.314 . S
C732 C734 1.353 . S
C732 H738 0.930 . S
N733 Li709 1.990 . S
N733 C732 1.314 . S
N733 C736 1.279 . S
C734 C732 1.353 . S
C734 C737 1.348 . S
C734 H782 0.929 . S
C735 C736 1.358 . S
C735 C737 1.356 . S
C735 H783 0.930 . S
C736 N733 1.279 . S
C736 C735 1.358 . S
C736 H739 0.930 . S
C737 C734 1.348 . S
C737 C735 1.356 . S
H738 C732 0.930 . S
H739 C736 0.930 . S
C740 C742 1.348 . S
C740 C743 1.356 . S
C740 O770 1.325 . S
N741 C744 1.314 . S
N741 C745 1.279 . S
C742 C740 1.348 . S
C742 C744 1.353 . S
C742 H784 0.929 . S
C743 C740 1.356 . S
C743 C745 1.358 . S
C743 H785 0.930 . S
C744 N741 1.314 . S
C744 C742 1.353 . S
C744 H786 0.930 . S
C745 N741 1.279 . S
C745 C743 1.358 . S
C745 H787 0.930 . S
C746 C747 1.348 . S
C746 C748 1.356 . S
C746 O771 1.325 . S
C747 C746 1.348 . S
C747 C749 1.353 . S
C747 H788 0.929 . S
C748 C746 1.356 . S
C748 C750 1.358 . S
C748 H789 0.930 . S
C749 C747 1.353 . S
C749 N751 1.314 . S
C749 H790 0.930 . S
C750 C748 1.358 . S
C750 N751 1.279 . S
C750 H791 0.930 . S
N751 C749 1.314 . S
N751 C750 1.279 . S
C752 C754 1.353 . S
C752 N755 1.314 . S
C752 H758 0.930 . S
C753 N755 1.279 . S
C753 C756 1.358 . S
C753 H759 0.930 . S
C754 C752 1.353 . S
C754 C757 1.348 . S
C754 H792 0.929 . S
N755 Li710 1.990 . S
N755 C752 1.314 . S
N755 C753 1.279 . S
C756 C753 1.358 . S
C756 C757 1.356 . S
C756 H793 0.930 . S
C757 C754 1.348 . S
C757 C756 1.356 . S
H758 C752 0.930 . S
H759 C753 0.930 . S
C760 N761 1.314 . S
C760 C762 1.353 . S
C760 H766 0.930 . S
N761 Li711 1.990 . S
N761 C760 1.314 . S
N761 C764 1.279 . S
C762 C760 1.353 . S
C762 C765 1.348 . S
C762 H794 0.929 . S
C763 C764 1.358 . S
C763 C765 1.356 . S
C763 H795 0.930 . S
C764 N761 1.279 . S
C764 C763 1.358 . S
C764 H767 0.930 . S
C765 C762 1.348 . S
C765 C763 1.356 . S
H766 C760 0.930 . S
H767 C764 0.930 . S
O768 Li708 1.956 . S
O768 Li709 1.970 . S
O768 Li710 1.961 . S
O768 C712 1.325 . S
O769 Li708 1.970 . S
O769 Li709 1.956 . S
O769 Li711 1.961 . S
O769 C718 1.325 . S
O770 Li708 1.961 . S
O770 Li710 1.956 . S
O770 Li711 1.970 . S
O770 C740 1.325 . S
O771 Li709 1.961 . S
O771 Li710 1.970 . S
O771 Li711 1.956 . S
O771 C746 1.325 . S
H772 C714 0.929 . S
H773 C715 0.930 . S
H774 C716 0.930 . S
H775 C717 0.930 . S
H776 C719 0.930 . S
H777 C721 0.929 . S
H778 C722 0.930 . S
H779 C723 0.930 . S
H780 C726 0.930 1_554 S
H781 C729 0.929 . S
H782 C734 0.929 . S
H783 C735 0.930 . S
H784 C742 0.929 . S
H785 C743 0.930 . S
H786 C744 0.930 . S
H787 C745 0.930 . S
H788 C747 0.929 . S
H789 C748 0.930 . S
H790 C749 0.930 . S
H791 C750 0.930 . S
H792 C754 0.929 . S
H793 C756 0.930 . S
H794 C762 0.929 . S
H795 C763 0.930 . S
Li796 N813 1.990 . S
Li796 O856 1.956 . S
Li796 O857 1.970 . S
Li796 O858 1.961 . S
Li797 N821 1.990 . S
Li797 O856 1.970 . S
Li797 O857 1.956 . S
Li797 O859 1.961 . S
Li798 N843 1.990 . S
Li798 O856 1.961 . S
Li798 O858 1.956 . S
Li798 O859 1.970 . S
Li799 N849 1.990 . S
Li799 O857 1.961 . S
Li799 O858 1.970 . S
Li799 O859 1.956 . S
C800 C802 1.348 . S
C800 C803 1.356 . S
C800 O856 1.325 . S
N801 C804 1.314 . S
N801 C805 1.279 . S
C802 C800 1.348 . S
C802 C804 1.353 . S
C802 H860 0.929 . S
C803 C800 1.356 . S
C803 C805 1.358 . S
C803 H861 0.930 . S
C804 N801 1.314 . S
C804 C802 1.353 . S
C804 H862 0.930 . S
C805 N801 1.279 . S
C805 C803 1.358 . S
C805 H863 0.930 . S
C806 C809 1.348 . S
C806 C810 1.356 . S
C806 O857 1.325 . S
C807 N808 1.279 . S
C807 C810 1.358 . S
C807 H864 0.930 . S
N808 C807 1.279 . S
N808 C811 1.314 . S
C809 C806 1.348 . S
C809 C811 1.353 . S
C809 H865 0.929 . S
C810 C806 1.356 . S
C810 C807 1.358 . S
C810 H866 0.930 . S
C811 N808 1.314 . S
C811 C809 1.353 . S
C811 H867 0.930 . S
C812 N813 1.314 . S
C812 C817 1.353 . S
C812 H818 0.930 . S
N813 Li796 1.990 . S
N813 C812 1.314 . S
N813 C815 1.279 . S
C814 C815 1.358 . S
C814 C816 1.356 . S
C814 H868 0.930 . S
C815 N813 1.279 . S
C815 C814 1.358 . S
C815 H819 0.930 . S
C816 C814 1.356 . S
C816 C817 1.348 . S
C817 C812 1.353 . S
C817 C816 1.348 . S
C817 H869 0.929 . S
H818 C812 0.930 . S
H819 C815 0.930 . S
C820 N821 1.314 . S
C820 C822 1.353 . S
C820 H826 0.930 . S
N821 Li797 1.990 . S
N821 C820 1.314 . S
N821 C824 1.279 . S
C822 C820 1.353 . S
C822 C825 1.348 . S
C822 H870 0.929 . S
C823 C824 1.358 . S
C823 C825 1.356 . S
C823 H871 0.930 . S
C824 N821 1.279 . S
C824 C823 1.358 . S
C824 H827 0.930 . S
C825 C822 1.348 . S
C825 C823 1.356 . S
H826 C820 0.930 . S
H827 C824 0.930 . S
C828 C830 1.348 . S
C828 C831 1.356 . S
C828 O858 1.325 . S
N829 C832 1.314 . S
N829 C833 1.279 . S
C830 C828 1.348 . S
C830 C832 1.353 . S
C830 H872 0.929 . S
C831 C828 1.356 . S
C831 C833 1.358 . S
C831 H873 0.930 . S
C832 N829 1.314 . S
C832 C830 1.353 . S
C832 H874 0.930 . S
C833 N829 1.279 . S
C833 C831 1.358 . S
C833 H875 0.930 . S
C834 C835 1.348 . S
C834 C836 1.356 . S
C834 O859 1.325 . S
C835 C834 1.348 . S
C835 C837 1.353 . S
C835 H876 0.929 . S
C836 C834 1.356 . S
C836 C838 1.358 . S
C836 H877 0.930 . S
C837 C835 1.353 . S
C837 N839 1.314 . S
C837 H878 0.930 . S
C838 C836 1.358 . S
C838 N839 1.279 . S
C838 H879 0.930 . S
N839 C837 1.314 . S
N839 C838 1.279 . S
C840 C842 1.353 . S
C840 N843 1.314 . S
C840 H846 0.930 . S
C841 N843 1.279 . S
C841 C844 1.358 1_554 S
C841 H847 0.930 . S
C842 C840 1.353 . S
C842 C845 1.348 1_554 S
C842 H880 0.929 . S
N843 Li798 1.990 . S
N843 C840 1.314 . S
N843 C841 1.279 . S
C844 C841 1.358 1_556 S
C844 C845 1.356 . S
C844 H881 0.930 . S
C845 C842 1.348 1_556 S
C845 C844 1.356 . S
H846 C840 0.930 . S
H847 C841 0.930 . S
C848 N849 1.314 . S
C848 C850 1.353 . S
C848 H854 0.930 . S
N849 Li799 1.990 . S
N849 C848 1.314 . S
N849 C852 1.279 . S
C850 C848 1.353 . S
C850 C853 1.348 . S
C850 H882 0.929 . S
C851 C852 1.358 . S
C851 C853 1.356 . S
C851 H883 0.930 . S
C852 N849 1.279 . S
C852 C851 1.358 . S
C852 H855 0.930 . S
C853 C850 1.348 . S
C853 C851 1.356 . S
H854 C848 0.930 . S
H855 C852 0.930 . S
O856 Li796 1.956 . S
O856 Li797 1.970 . S
O856 Li798 1.961 . S
O856 C800 1.325 . S
O857 Li796 1.970 . S
O857 Li797 1.956 . S
O857 Li799 1.961 . S
O857 C806 1.325 . S
O858 Li796 1.961 . S
O858 Li798 1.956 . S
O858 Li799 1.970 . S
O858 C828 1.325 . S
O859 Li797 1.961 . S
O859 Li798 1.970 . S
O859 Li799 1.956 . S
O859 C834 1.325 . S
H860 C802 0.929 . S
H861 C803 0.930 . S
H862 C804 0.930 . S
H863 C805 0.930 . S
H864 C807 0.930 . S
H865 C809 0.929 . S
H866 C810 0.930 . S
H867 C811 0.930 . S
H868 C814 0.930 . S
H869 C817 0.929 . S
H870 C822 0.929 . S
H871 C823 0.930 . S
H872 C830 0.929 . S
H873 C831 0.930 . S
H874 C832 0.930 . S
H875 C833 0.930 . S
H876 C835 0.929 . S
H877 C836 0.930 . S
H878 C837 0.930 . S
H879 C838 0.930 . S
H880 C842 0.929 . S
H881 C844 0.930 . S
H882 C850 0.929 . S
H883 C851 0.930 . S
Li884 N901 1.990 . S
Li884 O944 1.956 . S
Li884 O945 1.970 . S
Li884 O946 1.961 . S
Li885 N909 1.990 . S
Li885 O944 1.970 . S
Li885 O945 1.956 . S
Li885 O947 1.961 . S
Li886 N931 1.990 . S
Li886 O944 1.961 . S
Li886 O946 1.956 . S
Li886 O947 1.970 . S
Li887 N937 1.990 . S
Li887 O945 1.961 . S
Li887 O946 1.970 . S
Li887 O947 1.956 . S
C888 C890 1.348 . S
C888 C891 1.356 . S
C888 O944 1.325 . S
N889 C892 1.314 . S
N889 C893 1.279 . S
C890 C888 1.348 . S
C890 C892 1.353 . S
C890 H948 0.929 . S
C891 C888 1.356 . S
C891 C893 1.358 . S
C891 H949 0.930 . S
C892 N889 1.314 . S
C892 C890 1.353 . S
C892 H950 0.930 . S
C893 N889 1.279 . S
C893 C891 1.358 . S
C893 H951 0.930 . S
C894 C897 1.348 . S
C894 C898 1.356 . S
C894 O945 1.325 . S
C895 N896 1.279 . S
C895 C898 1.358 . S
C895 H952 0.930 . S
N896 C895 1.279 . S
N896 C899 1.314 . S
C897 C894 1.348 . S
C897 C899 1.353 . S
C897 H953 0.929 . S
C898 C894 1.356 . S
C898 C895 1.358 . S
C898 H954 0.930 . S
C899 N896 1.314 . S
C899 C897 1.353 . S
C899 H955 0.930 . S
C900 N901 1.314 . S
C900 C905 1.353 . S
C900 H906 0.930 . S
N901 Li884 1.990 . S
N901 C900 1.314 . S
N901 C903 1.279 . S
C902 C903 1.358 . S
C902 C904 1.356 . S
C902 H956 0.930 . S
C903 N901 1.279 . S
C903 C902 1.358 . S
C903 H907 0.930 . S
C904 C902 1.356 . S
C904 C905 1.348 . S
C905 C900 1.353 . S
C905 C904 1.348 . S
C905 H957 0.929 . S
H906 C900 0.930 . S
H907 C903 0.930 . S
C908 N909 1.314 . S
C908 C910 1.353 . S
C908 H914 0.930 . S
N909 Li885 1.990 . S
N909 C908 1.314 . S
N909 C912 1.279 . S
C910 C908 1.353 . S
C910 C913 1.348 . S
C910 H958 0.929 . S
C911 C912 1.358 . S
C911 C913 1.356 . S
C911 H959 0.930 . S
C912 N909 1.279 . S
C912 C911 1.358 . S
C912 H915 0.930 . S
C913 C910 1.348 . S
C913 C911 1.356 . S
H914 C908 0.930 . S
H915 C912 0.930 . S
C916 C918 1.348 . S
C916 C919 1.356 . S
C916 O946 1.325 . S
N917 C920 1.314 . S
N917 C921 1.279 . S
C918 C916 1.348 . S
C918 C920 1.353 . S
C918 H960 0.929 . S
C919 C916 1.356 . S
C919 C921 1.358 . S
C919 H961 0.930 . S
C920 N917 1.314 . S
C920 C918 1.353 . S
C920 H962 0.930 . S
C921 N917 1.279 . S
C921 C919 1.358 . S
C921 H963 0.930 . S
C922 C923 1.348 . S
C922 C924 1.356 . S
C922 O947 1.325 . S
C923 C922 1.348 . S
C923 C925 1.353 . S
C923 H964 0.929 . S
C924 C922 1.356 . S
C924 C926 1.358 . S
C924 H965 0.930 . S
C925 C923 1.353 . S
C925 N927 1.314 . S
C925 H966 0.930 . S
C926 C924 1.358 . S
C926 N927 1.279 . S
C926 H967 0.930 . S
N927 C925 1.314 . S
N927 C926 1.279 . S
C928 C930 1.353 . S
C928 N931 1.314 . S
C928 H934 0.930 . S
C929 N931 1.279 . S
C929 C932 1.358 . S
C929 H935 0.930 . S
C930 C928 1.353 . S
C930 C933 1.348 . S
C930 H968 0.929 . S
N931 Li886 1.990 . S
N931 C928 1.314 . S
N931 C929 1.279 . S
C932 C929 1.358 . S
C932 C933 1.356 . S
C932 H969 0.930 . S
C933 C930 1.348 . S
C933 C932 1.356 . S
H934 C928 0.930 . S
H935 C929 0.930 . S
C936 N937 1.314 . S
C936 C938 1.353 . S
C936 H942 0.930 . S
N937 Li887 1.990 . S
N937 C936 1.314 . S
N937 C940 1.279 . S
C938 C936 1.353 . S
C938 C941 1.348 . S
C938 H970 0.929 . S
C939 C940 1.358 . S
C939 C941 1.356 . S
C939 H971 0.930 . S
C940 N937 1.279 . S
C940 C939 1.358 . S
C940 H943 0.930 . S
C941 C938 1.348 . S
C941 C939 1.356 . S
H942 C936 0.930 . S
H943 C940 0.930 . S
O944 Li884 1.956 . S
O944 Li885 1.970 . S
O944 Li886 1.961 . S
O944 C888 1.325 . S
O945 Li884 1.970 . S
O945 Li885 1.956 . S
O945 Li887 1.961 . S
O945 C894 1.325 . S
O946 Li884 1.961 . S
O946 Li886 1.956 . S
O946 Li887 1.970 . S
O946 C916 1.325 . S
O947 Li885 1.961 . S
O947 Li886 1.970 . S
O947 Li887 1.956 . S
O947 C922 1.325 . S
H948 C890 0.929 . S
H949 C891 0.930 . S
H950 C892 0.930 . S
H951 C893 0.930 . S
H952 C895 0.930 . S
H953 C897 0.929 . S
H954 C898 0.930 . S
H955 C899 0.930 . S
H956 C902 0.930 . S
H957 C905 0.929 . S
H958 C910 0.929 . S
H959 C911 0.930 . S
H960 C918 0.929 . S
H961 C919 0.930 . S
H962 C920 0.930 . S
H963 C921 0.930 . S
H964 C923 0.929 . S
H965 C924 0.930 . S
H966 C925 0.930 . S
H967 C926 0.930 . S
H968 C930 0.929 . S
H969 C932 0.930 . S
H970 C938 0.929 . S
H971 C939 0.930 . S
H972 C978 0.930 . S
H973 C981 0.930 . S
H974 C982 0.930 . S
H975 C983 0.930 . S
H976 C986 0.930 . S
H977 C987 0.930 . S
C978 H972 0.930 . S
C978 C979 1.355 . S
C978 C980 1.415 . S
C979 C978 1.355 . S
C979 C981 1.419 . S
C980 C978 1.415 . S
C980 C985 1.425 . S
C980 C987 1.409 . S
C981 H973 0.930 . S
C981 C979 1.419 . S
C981 C982 1.362 . S
C982 H974 0.930 . S
C982 C981 1.362 . S
C982 C985 1.409 . S
C983 H975 0.930 . S
C983 C984 1.355 . S
C983 C985 1.415 . S
C984 C983 1.355 . S
C984 C986 1.419 . S
C985 C980 1.425 . S
C985 C982 1.409 . S
C985 C983 1.415 . S
C986 H976 0.930 . S
C986 C984 1.419 . S
C986 C987 1.362 . S
C987 H977 0.930 . S
C987 C980 1.409 . S
C987 C986 1.362 . S
H988 C994 0.930 . S
H989 C997 0.930 . S
H990 C998 0.930 . S
H991 C999 0.930 . S
H992 C1002 0.930 . S
H993 C1003 0.930 . S
C994 H988 0.930 . S
C994 C995 1.355 . S
C994 C996 1.415 . S
C995 C994 1.355 . S
C995 C997 1.419 . S
C996 C994 1.415 . S
C996 C1001 1.425 . S
C996 C1003 1.409 . S
C997 H989 0.930 . S
C997 C995 1.419 . S
C997 C998 1.362 . S
C998 H990 0.930 . S
C998 C997 1.362 . S
C998 C1001 1.409 . S
C999 H991 0.930 . S
C999 C1000 1.355 . S
C999 C1001 1.415 . S
C1000 C999 1.355 . S
C1000 C1002 1.419 . S
C1001 C996 1.425 . S
C1001 C998 1.409 . S
C1001 C999 1.415 . S
C1002 H992 0.930 . S
C1002 C1000 1.419 . S
C1002 C1003 1.362 . S
C1003 H993 0.930 . S
C1003 C996 1.409 . S
C1003 C1002 1.362 . S
H1004 C1010 0.930 . S
H1005 C1013 0.930 . S
H1006 C1014 0.930 . S
H1007 C1015 0.930 . S
H1008 C1018 0.930 . S
H1009 C1019 0.930 . S
C1010 H1004 0.930 . S
C1010 C1011 1.355 . S
C1010 C1012 1.415 . S
C1011 C1010 1.355 . S
C1011 C1013 1.419 . S
C1012 C1010 1.415 . S
C1012 C1017 1.425 . S
C1012 C1019 1.409 . S
C1013 H1005 0.930 . S
C1013 C1011 1.419 . S
C1013 C1014 1.362 . S
C1014 H1006 0.930 . S
C1014 C1013 1.362 . S
C1014 C1017 1.409 . S
C1015 H1007 0.930 . S
C1015 C1016 1.355 . S
C1015 C1017 1.415 . S
C1016 C1015 1.355 . S
C1016 C1018 1.419 . S
C1017 C1012 1.425 . S
C1017 C1014 1.409 . S
C1017 C1015 1.415 . S
C1018 H1008 0.930 . S
C1018 C1016 1.419 . S
C1018 C1019 1.362 . S
C1019 H1009 0.930 . S
C1019 C1012 1.409 . S
C1019 C1018 1.362 . S
H1020 C1026 0.930 . S
H1021 C1029 0.930 . S
H1022 C1030 0.930 . S
H1023 C1031 0.930 . S
H1024 C1034 0.930 . S
H1025 C1035 0.930 . S
C1026 H1020 0.930 . S
C1026 C1027 1.355 . S
C1026 C1028 1.415 . S
C1027 C1026 1.355 . S
C1027 C1029 1.419 . S
C1028 C1026 1.415 . S
C1028 C1033 1.425 . S
C1028 C1035 1.409 . S
C1029 H1021 0.930 . S
C1029 C1027 1.419 . S
C1029 C1030 1.362 . S
C1030 H1022 0.930 . S
C1030 C1029 1.362 . S
C1030 C1033 1.409 . S
C1031 H1023 0.930 . S
C1031 C1032 1.355 . S
C1031 C1033 1.415 . S
C1032 C1031 1.355 . S
C1032 C1034 1.419 . S
C1033 C1028 1.425 . S
C1033 C1030 1.409 . S
C1033 C1031 1.415 . S
C1034 H1024 0.930 . S
C1034 C1032 1.419 . S
C1034 C1035 1.362 . S
C1035 H1025 0.930 . S
C1035 C1028 1.409 . S
C1035 C1034 1.362 . S
H1036 C1042 0.930 . S
H1037 C1045 0.930 . S
H1038 C1046 0.930 . S
H1039 C1047 0.930 . S
H1040 C1050 0.930 . S
H1041 C1051 0.930 . S
C1042 H1036 0.930 . S
C1042 C1043 1.355 . S
C1042 C1044 1.415 . S
C1043 C1042 1.355 . S
C1043 C1045 1.419 . S
C1044 C1042 1.415 . S
C1044 C1049 1.425 . S
C1044 C1051 1.409 . S
C1045 H1037 0.930 . S
C1045 C1043 1.419 . S
C1045 C1046 1.362 . S
C1046 H1038 0.930 . S
C1046 C1045 1.362 . S
C1046 C1049 1.409 . S
C1047 H1039 0.930 . S
C1047 C1048 1.355 . S
C1047 C1049 1.415 . S
C1048 C1047 1.355 . S
C1048 C1050 1.419 . S
C1049 C1044 1.425 . S
C1049 C1046 1.409 . S
C1049 C1047 1.415 . S
C1050 H1040 0.930 . S
C1050 C1048 1.419 . S
C1050 C1051 1.362 . S
C1051 H1041 0.930 . S
C1051 C1044 1.409 . S
C1051 C1050 1.362 . S
H1052 C1058 0.930 . S
H1053 C1061 0.930 . S
H1054 C1062 0.930 . S
H1055 C1063 0.930 . S
H1056 C1066 0.930 . S
H1057 C1067 0.930 . S
C1058 H1052 0.930 . S
C1058 C1059 1.355 . S
C1058 C1060 1.415 . S
C1059 C1058 1.355 . S
C1059 C1061 1.419 . S
C1060 C1058 1.415 . S
C1060 C1065 1.425 . S
C1060 C1067 1.409 . S
C1061 H1053 0.930 . S
C1061 C1059 1.419 . S
C1061 C1062 1.362 . S
C1062 H1054 0.930 . S
C1062 C1061 1.362 . S
C1062 C1065 1.409 . S
C1063 H1055 0.930 . S
C1063 C1064 1.355 . S
C1063 C1065 1.415 . S
C1064 C1063 1.355 . S
C1064 C1066 1.419 . S
C1065 C1060 1.425 . S
C1065 C1062 1.409 . S
C1065 C1063 1.415 . S
C1066 H1056 0.930 . S
C1066 C1064 1.419 . S
C1066 C1067 1.362 . S
C1067 H1057 0.930 . S
C1067 C1060 1.409 . S
C1067 C1066 1.362 . S
H1068 C1074 0.930 . S
H1069 C1077 0.930 . S
H1070 C1078 0.930 . S
H1071 C1079 0.930 . S
H1072 C1082 0.930 . S
H1073 C1083 0.930 . S
C1074 H1068 0.930 . S
C1074 C1075 1.355 . S
C1074 C1076 1.415 . S
C1075 C1074 1.355 . S
C1075 C1077 1.419 . S
C1076 C1074 1.415 . S
C1076 C1081 1.425 . S
C1076 C1083 1.409 . S
C1077 H1069 0.930 . S
C1077 C1075 1.419 . S
C1077 C1078 1.362 . S
C1078 H1070 0.930 . S
C1078 C1077 1.362 . S
C1078 C1081 1.409 . S
C1079 H1071 0.930 . S
C1079 C1080 1.355 . S
C1079 C1081 1.415 . S
C1080 C1079 1.355 . S
C1080 C1082 1.419 . S
C1081 C1076 1.425 . S
C1081 C1078 1.409 . S
C1081 C1079 1.415 . S
C1082 H1072 0.930 . S
C1082 C1080 1.419 . S
C1082 C1083 1.362 . S
C1083 H1073 0.930 . S
C1083 C1076 1.409 . S
C1083 C1082 1.362 . S
H1084 C1090 0.930 . S
H1085 C1093 0.930 . S
H1086 C1094 0.930 . S
H1087 C1095 0.930 . S
H1088 C1098 0.930 . S
H1089 C1099 0.930 . S
C1090 H1084 0.930 . S
C1090 C1091 1.355 . S
C1090 C1092 1.415 . S
C1091 C1090 1.355 . S
C1091 C1093 1.419 . S
C1092 C1090 1.415 . S
C1092 C1097 1.425 . S
C1092 C1099 1.409 . S
C1093 H1085 0.930 . S
C1093 C1091 1.419 . S
C1093 C1094 1.362 . S
C1094 H1086 0.930 . S
C1094 C1093 1.362 . S
C1094 C1097 1.409 . S
C1095 H1087 0.930 . S
C1095 C1096 1.355 . S
C1095 C1097 1.415 . S
C1096 C1095 1.355 . S
C1096 C1098 1.419 . S
C1097 C1092 1.425 . S
C1097 C1094 1.409 . S
C1097 C1095 1.415 . S
C1098 H1088 0.930 . S
C1098 C1096 1.419 . S
C1098 C1099 1.362 . S
C1099 H1089 0.930 . S
C1099 C1092 1.409 . S
C1099 C1098 1.362 . S
H1100 C1106 0.930 . S
H1101 C1109 0.930 . S
H1102 C1110 0.930 . S
H1103 C1111 0.930 . S
H1104 C1114 0.930 . S
H1105 C1115 0.930 . S
C1106 H1100 0.930 . S
C1106 C1107 1.355 . S
C1106 C1108 1.415 . S
C1107 C1106 1.355 . S
C1107 C1109 1.419 . S
C1108 C1106 1.415 . S
C1108 C1113 1.425 . S
C1108 C1115 1.409 . S
C1109 H1101 0.930 . S
C1109 C1107 1.419 . S
C1109 C1110 1.362 . S
C1110 H1102 0.930 . S
C1110 C1109 1.362 . S
C1110 C1113 1.409 . S
C1111 H1103 0.930 . S
C1111 C1112 1.355 . S
C1111 C1113 1.415 . S
C1112 C1111 1.355 . S
C1112 C1114 1.419 . S
C1113 C1108 1.425 . S
C1113 C1110 1.409 . S
C1113 C1111 1.415 . S
C1114 H1104 0.930 . S
C1114 C1112 1.419 . S
C1114 C1115 1.362 . S
C1115 H1105 0.930 . S
C1115 C1108 1.409 . S
C1115 C1114 1.362 . S
H1116 C1122 0.930 . S
H1117 C1125 0.930 . S
H1118 C1126 0.930 . S
H1119 C1127 0.930 . S
H1120 C1130 0.930 . S
H1121 C1131 0.930 . S
C1122 H1116 0.930 . S
C1122 C1123 1.355 . S
C1122 C1124 1.415 . S
C1123 C1122 1.355 . S
C1123 C1125 1.419 . S
C1124 C1122 1.415 . S
C1124 C1129 1.425 . S
C1124 C1131 1.409 . S
C1125 H1117 0.930 . S
C1125 C1123 1.419 . S
C1125 C1126 1.362 . S
C1126 H1118 0.930 . S
C1126 C1125 1.362 . S
C1126 C1129 1.409 . S
C1127 H1119 0.930 . S
C1127 C1128 1.355 . S
C1127 C1129 1.415 . S
C1128 C1127 1.355 . S
C1128 C1130 1.419 . S
C1129 C1124 1.425 . S
C1129 C1126 1.409 . S
C1129 C1127 1.415 . S
C1130 H1120 0.930 . S
C1130 C1128 1.419 . S
C1130 C1131 1.362 . S
C1131 H1121 0.930 . S
C1131 C1124 1.409 . S
C1131 C1130 1.362 . S
H1132 C1138 0.930 . S
H1133 C1141 0.930 . S
H1134 C1142 0.930 . S
H1135 C1143 0.930 . S
H1136 C1146 0.930 . S
H1137 C1147 0.930 . S
C1138 H1132 0.930 . S
C1138 C1139 1.355 . S
C1138 C1140 1.415 . S
C1139 C1138 1.355 . S
C1139 C1141 1.419 . S
C1140 C1138 1.415 . S
C1140 C1145 1.425 . S
C1140 C1147 1.409 . S
C1141 H1133 0.930 . S
C1141 C1139 1.419 . S
C1141 C1142 1.362 . S
C1142 H1134 0.930 . S
C1142 C1141 1.362 . S
C1142 C1145 1.409 . S
C1143 H1135 0.930 . S
C1143 C1144 1.355 . S
C1143 C1145 1.415 . S
C1144 C1143 1.355 . S
C1144 C1146 1.419 . S
C1145 C1140 1.425 . S
C1145 C1142 1.409 . S
C1145 C1143 1.415 . S
C1146 H1136 0.930 . S
C1146 C1144 1.419 . S
C1146 C1147 1.362 . S
C1147 H1137 0.930 . S
C1147 C1140 1.409 . S
C1147 C1146 1.362 . S
H1148 C1154 0.930 . S
H1149 C1157 0.930 . S
H1150 C1158 0.930 . S
H1151 C1159 0.930 . S
H1152 C1162 0.930 . S
H1153 C1163 0.930 . S
C1154 H1148 0.930 . S
C1154 C1155 1.355 . S
C1154 C1156 1.415 . S
C1155 C1154 1.355 . S
C1155 C1157 1.419 . S
C1156 C1154 1.415 . S
C1156 C1161 1.425 . S
C1156 C1163 1.409 . S
C1157 H1149 0.930 . S
C1157 C1155 1.419 . S
C1157 C1158 1.362 . S
C1158 H1150 0.930 . S
C1158 C1157 1.362 . S
C1158 C1161 1.409 . S
C1159 H1151 0.930 . S
C1159 C1160 1.355 . S
C1159 C1161 1.415 . S
C1160 C1159 1.355 . S
C1160 C1162 1.419 . S
C1161 C1156 1.425 . S
C1161 C1158 1.409 . S
C1161 C1159 1.415 . S
C1162 H1152 0.930 . S
C1162 C1160 1.419 . S
C1162 C1163 1.362 . S
C1163 H1153 0.930 . S
C1163 C1156 1.409 . S
C1163 C1162 1.362 . S
H1164 C1170 0.930 . S
H1165 C1173 0.930 . S
H1166 C1174 0.930 . S
H1167 C1175 0.930 . S
H1168 C1178 0.930 . S
H1169 C1179 0.930 . S
C1170 H1164 0.930 . S
C1170 C1171 1.355 . S
C1170 C1172 1.415 . S
C1171 C1170 1.355 . S
C1171 C1173 1.419 . S
C1172 C1170 1.415 . S
C1172 C1177 1.425 . S
C1172 C1179 1.409 . S
C1173 H1165 0.930 . S
C1173 C1171 1.419 . S
C1173 C1174 1.362 . S
C1174 H1166 0.930 . S
C1174 C1173 1.362 . S
C1174 C1177 1.409 . S
C1175 H1167 0.930 . S
C1175 C1176 1.355 . S
C1175 C1177 1.415 . S
C1176 C1175 1.355 . S
C1176 C1178 1.419 . S
C1177 C1172 1.425 . S
C1177 C1174 1.409 . S
C1177 C1175 1.415 . S
C1178 H1168 0.930 . S
C1178 C1176 1.419 . S
C1178 C1179 1.362 . S
C1179 H1169 0.930 . S
C1179 C1172 1.409 . S
C1179 C1178 1.362 . S
H1180 C1186 0.930 . S
H1181 C1189 0.930 . S
H1182 C1190 0.930 . S
H1183 C1191 0.930 . S
H1184 C1194 0.930 . S
H1185 C1195 0.930 . S
C1186 H1180 0.930 . S
C1186 C1187 1.355 . S
C1186 C1188 1.415 . S
C1187 C1186 1.355 . S
C1187 C1189 1.419 . S
C1188 C1186 1.415 . S
C1188 C1193 1.425 . S
C1188 C1195 1.409 . S
C1189 H1181 0.930 . S
C1189 C1187 1.419 . S
C1189 C1190 1.362 . S
C1190 H1182 0.930 . S
C1190 C1189 1.362 . S
C1190 C1193 1.409 . S
C1191 H1183 0.930 . S
C1191 C1192 1.355 . S
C1191 C1193 1.415 . S
C1192 C1191 1.355 . S
C1192 C1194 1.419 . S
C1193 C1188 1.425 . S
C1193 C1190 1.409 . S
C1193 C1191 1.415 . S
C1194 H1184 0.930 . S
C1194 C1192 1.419 . S
C1194 C1195 1.362 . S
C1195 H1185 0.930 . S
C1195 C1188 1.409 . S
C1195 C1194 1.362 . S
H1196 C1202 0.930 . S
H1197 C1205 0.930 . S
H1198 C1206 0.930 . S
H1199 C1207 0.930 . S
H1200 C1210 0.930 . S
H1201 C1211 0.930 . S
C1202 H1196 0.930 . S
C1202 C1203 1.355 . S
C1202 C1204 1.415 . S
C1203 C1202 1.355 . S
C1203 C1205 1.419 . S
C1204 C1202 1.415 . S
C1204 C1209 1.425 . S
C1204 C1211 1.409 . S
C1205 H1197 0.930 . S
C1205 C1203 1.419 . S
C1205 C1206 1.362 . S
C1206 H1198 0.930 . S
C1206 C1205 1.362 . S
C1206 C1209 1.409 . S
C1207 H1199 0.930 . S
C1207 C1208 1.355 . S
C1207 C1209 1.415 . S
C1208 C1207 1.355 . S
C1208 C1210 1.419 . S
C1209 C1204 1.425 . S
C1209 C1206 1.409 . S
C1209 C1207 1.415 . S
C1210 H1200 0.930 . S
C1210 C1208 1.419 . S
C1210 C1211 1.362 . S
C1211 H1201 0.930 . S
C1211 C1204 1.409 . S
C1211 C1210 1.362 . S
H1212 C1218 0.930 . S
H1213 C1221 0.930 . S
H1214 C1222 0.930 . S
H1215 C1223 0.930 . S
H1216 C1226 0.930 . S
H1217 C1227 0.930 . S
C1218 H1212 0.930 . S
C1218 C1219 1.355 . S
C1218 C1220 1.415 . S
C1219 C1218 1.355 . S
C1219 C1221 1.419 . S
C1220 C1218 1.415 . S
C1220 C1225 1.425 . S
C1220 C1227 1.409 . S
C1221 H1213 0.930 . S
C1221 C1219 1.419 . S
C1221 C1222 1.362 . S
C1222 H1214 0.930 . S
C1222 C1221 1.362 . S
C1222 C1225 1.409 . S
C1223 H1215 0.930 . S
C1223 C1224 1.355 . S
C1223 C1225 1.415 . S
C1224 C1223 1.355 . S
C1224 C1226 1.419 . S
C1225 C1220 1.425 . S
C1225 C1222 1.409 . S
C1225 C1223 1.415 . S
C1226 H1216 0.930 . S
C1226 C1224 1.419 . S
C1226 C1227 1.362 . S
C1227 H1217 0.930 . S
C1227 C1220 1.409 . S
C1227 C1226 1.362 . S
H1228 C1234 0.930 . S
H1229 C1237 0.930 1_545 S
H1230 C1238 0.930 . S
H1231 C1239 0.930 . S
H1232 C1242 0.930 . S
H1233 C1243 0.930 . S
C1234 H1228 0.930 . S
C1234 C1235 1.355 . S
C1234 C1236 1.415 . S
C1235 C1234 1.355 . S
C1235 C1237 1.419 . S
C1236 C1234 1.415 . S
C1236 C1241 1.425 . S
C1236 C1243 1.409 . S
C1237 H1229 0.930 1_565 S
C1237 C1235 1.419 . S
C1237 C1238 1.362 . S
C1238 H1230 0.930 . S
C1238 C1237 1.362 . S
C1238 C1241 1.409 . S
C1239 H1231 0.930 . S
C1239 C1240 1.355 . S
C1239 C1241 1.415 . S
C1240 C1239 1.355 . S
C1240 C1242 1.419 . S
C1241 C1236 1.425 . S
C1241 C1238 1.409 . S
C1241 C1239 1.415 . S
C1242 H1232 0.930 . S
C1242 C1240 1.419 . S
C1242 C1243 1.362 . S
C1243 H1233 0.930 . S
C1243 C1236 1.409 . S
C1243 C1242 1.362 . S
H1244 C1250 0.930 . S
H1245 C1253 0.930 . S
H1246 C1254 0.930 . S
H1247 C1255 0.930 . S
H1248 C1258 0.930 . S
H1249 C1259 0.930 . S
C1250 H1244 0.930 . S
C1250 C1251 1.355 . S
C1250 C1252 1.415 . S
C1251 C1250 1.355 . S
C1251 C1253 1.419 . S
C1252 C1250 1.415 . S
C1252 C1257 1.425 . S
C1252 C1259 1.409 . S
C1253 H1245 0.930 . S
C1253 C1251 1.419 . S
C1253 C1254 1.362 . S
C1254 H1246 0.930 . S
C1254 C1253 1.362 . S
C1254 C1257 1.409 . S
C1255 H1247 0.930 . S
C1255 C1256 1.355 . S
C1255 C1257 1.415 . S
C1256 C1255 1.355 . S
C1256 C1258 1.419 . S
C1257 C1252 1.425 . S
C1257 C1254 1.409 . S
C1257 C1255 1.415 . S
C1258 H1248 0.930 . S
C1258 C1256 1.419 . S
C1258 C1259 1.362 . S
C1259 H1249 0.930 . S
C1259 C1252 1.409 . S
C1259 C1258 1.362 . S
H1260 C1266 0.930 . S
H1261 C1269 0.930 . S
H1262 C1270 0.930 . S
H1263 C1271 0.930 . S
H1264 C1274 0.930 . S
H1265 C1275 0.930 . S
C1266 H1260 0.930 . S
C1266 C1267 1.355 . S
C1266 C1268 1.415 . S
C1267 C1266 1.355 . S
C1267 C1269 1.419 . S
C1268 C1266 1.415 . S
C1268 C1273 1.425 . S
C1268 C1275 1.409 . S
C1269 H1261 0.930 . S
C1269 C1267 1.419 . S
C1269 C1270 1.362 . S
C1270 H1262 0.930 . S
C1270 C1269 1.362 . S
C1270 C1273 1.409 . S
C1271 H1263 0.930 . S
C1271 C1272 1.355 . S
C1271 C1273 1.415 . S
C1272 C1271 1.355 . S
C1272 C1274 1.419 . S
C1273 C1268 1.425 . S
C1273 C1270 1.409 . S
C1273 C1271 1.415 . S
C1274 H1264 0.930 . S
C1274 C1272 1.419 . S
C1274 C1275 1.362 . S
C1275 H1265 0.930 . S
C1275 C1268 1.409 . S
C1275 C1274 1.362 . S
H1276 C1282 0.930 . S
H1277 C1285 0.930 . S
H1278 C1286 0.930 . S
H1279 C1287 0.930 . S
H1280 C1290 0.930 . S
H1281 C1291 0.930 . S
C1282 H1276 0.930 . S
C1282 C1283 1.355 . S
C1282 C1284 1.415 . S
C1283 C1282 1.355 . S
C1283 C1285 1.419 . S
C1284 C1282 1.415 . S
C1284 C1289 1.425 . S
C1284 C1291 1.409 . S
C1285 H1277 0.930 . S
C1285 C1283 1.419 . S
C1285 C1286 1.362 . S
C1286 H1278 0.930 . S
C1286 C1285 1.362 . S
C1286 C1289 1.409 . S
C1287 H1279 0.930 . S
C1287 C1288 1.355 . S
C1287 C1289 1.415 . S
C1288 C1287 1.355 . S
C1288 C1290 1.419 . S
C1289 C1284 1.425 . S
C1289 C1286 1.409 . S
C1289 C1287 1.415 . S
C1290 H1280 0.930 . S
C1290 C1288 1.419 . S
C1290 C1291 1.362 . S
C1291 H1281 0.930 . S
C1291 C1284 1.409 . S
C1291 C1290 1.362 . S
H1292 C1298 0.930 . S
H1293 C1301 0.930 . S
H1294 C1302 0.930 . S
H1295 C1303 0.930 . S
H1296 C1306 0.930 . S
H1297 C1307 0.930 . S
C1298 H1292 0.930 . S
C1298 C1299 1.355 . S
C1298 C1300 1.415 . S
C1299 C1298 1.355 . S
C1299 C1301 1.419 . S
C1300 C1298 1.415 . S
C1300 C1305 1.425 . S
C1300 C1307 1.409 . S
C1301 H1293 0.930 . S
C1301 C1299 1.419 . S
C1301 C1302 1.362 . S
C1302 H1294 0.930 . S
C1302 C1301 1.362 . S
C1302 C1305 1.409 . S
C1303 H1295 0.930 . S
C1303 C1304 1.355 . S
C1303 C1305 1.415 . S
C1304 C1303 1.355 . S
C1304 C1306 1.419 . S
C1305 C1300 1.425 . S
C1305 C1302 1.409 . S
C1305 C1303 1.415 . S
C1306 H1296 0.930 . S
C1306 C1304 1.419 . S
C1306 C1307 1.362 . S
C1307 H1297 0.930 . S
C1307 C1300 1.409 . S
C1307 C1306 1.362 . S
H1308 C1314 0.930 . S
H1309 C1317 0.930 . S
H1310 C1318 0.930 . S
H1311 C1319 0.930 . S
H1312 C1322 0.930 . S
H1313 C1323 0.930 . S
C1314 H1308 0.930 . S
C1314 C1315 1.355 . S
C1314 C1316 1.415 . S
C1315 C1314 1.355 . S
C1315 C1317 1.419 . S
C1316 C1314 1.415 . S
C1316 C1321 1.425 . S
C1316 C1323 1.409 . S
C1317 H1309 0.930 . S
C1317 C1315 1.419 . S
C1317 C1318 1.362 . S
C1318 H1310 0.930 . S
C1318 C1317 1.362 . S
C1318 C1321 1.409 . S
C1319 H1311 0.930 . S
C1319 C1320 1.355 . S
C1319 C1321 1.415 . S
C1320 C1319 1.355 . S
C1320 C1322 1.419 . S
C1321 C1316 1.425 . S
C1321 C1318 1.409 . S
C1321 C1319 1.415 . S
C1322 H1312 0.930 . S
C1322 C1320 1.419 . S
C1322 C1323 1.362 . S
C1323 H1313 0.930 . S
C1323 C1316 1.409 . S
C1323 C1322 1.362 . S
H1324 C1330 0.930 . S
H1325 C1333 0.930 . S
H1326 C1334 0.930 . S
H1327 C1335 0.930 . S
H1328 C1338 0.901 1_556 S
H1329 C1339 0.930 . S
C1330 H1324 0.930 . S
C1330 C1331 1.355 . S
C1330 C1332 1.415 . S
C1331 C1330 1.355 . S
C1331 C1333 1.419 . S
C1332 C1330 1.415 . S
C1332 C1337 1.425 . S
C1332 C1339 1.409 . S
C1333 H1325 0.930 . S
C1333 C1331 1.419 . S
C1333 C1334 1.362 . S
C1334 H1326 0.930 . S
C1334 C1333 1.362 . S
C1334 C1337 1.409 . S
C1335 H1327 0.930 . S
C1335 C1336 1.355 . S
C1335 C1337 1.415 . S
C1336 C1335 1.355 . S
C1336 C1338 1.419 . S
C1337 C1332 1.425 . S
C1337 C1334 1.409 . S
C1337 C1335 1.415 . S
C1338 H1328 0.901 1_554 S
C1338 C1336 1.419 . S
C1338 C1339 1.362 . S
C1339 H1329 0.930 . S
C1339 C1332 1.409 . S
C1339 C1338 1.362 . S
H1340 C1346 0.930 . S
H1341 C1349 0.930 . S
H1342 C1350 0.930 . S
H1343 C1351 0.930 . S
H1344 C1354 0.930 . S
H1345 C1355 0.930 . S
C1346 H1340 0.930 . S
C1346 C1347 1.355 . S
C1346 C1348 1.415 . S
C1347 C1346 1.355 . S
C1347 C1349 1.419 . S
C1348 C1346 1.415 . S
C1348 C1353 1.425 . S
C1348 C1355 1.409 . S
C1349 H1341 0.930 . S
C1349 C1347 1.419 . S
C1349 C1350 1.362 . S
C1350 H1342 0.930 . S
C1350 C1349 1.362 . S
C1350 C1353 1.409 . S
C1351 H1343 0.930 . S
C1351 C1352 1.355 . S
C1351 C1353 1.415 . S
C1352 C1351 1.355 . S
C1352 C1354 1.419 . S
C1353 C1348 1.425 . S
C1353 C1350 1.409 . S
C1353 C1351 1.415 . S
C1354 H1344 0.930 . S
C1354 C1352 1.419 . S
C1354 C1355 1.362 . S
C1355 H1345 0.930 . S
C1355 C1348 1.409 . S
C1355 C1354 1.362 . S
C984 C913 1.219 . S
C979 C51 1.179 . S
C995 C125 1.679 . S
C1000 C473 1.692 . S
C1011 C217 2.566 . S
C1016 C561 2.578 . S
C1027 C291 1.889 . S
C1032 C640 1.894 . S
C1048 C737 0.788 . S
C1043 C347 0.816 . S
C1059 C421 1.004 . S
C1064 C816 1.032 . S
C1075 C143 2.601 . S
C1080 C581 2.603 . S
C1091 C199 1.489 . S
C1096 C677 1.480 . S
C1107 C273 0.795 . S
C1112 C757 0.772 . S
C1128 C853 1.611 . S
C1123 C365 1.620 . S
C1144 C933 2.207 . S
C1139 C439 2.242 . S
C1160 C493 2.504 . S
C1155 C69 2.531 . S
C1171 C63 1.342 . S
C1176 C589 1.468 . S
C1187 C137 1.492 . S
C1192 C669 1.501 . S
C1208 C765 1.304 . S
C1203 C187 1.281 . S
C1219 C261 1.343 . S
C1224 C845 1.417 . S
C1240 C941 1.349 . S
C1235 C359 1.269 . S
C1256 C501 1.119 . S
C1251 C433 1.019 . S
C1272 C904 1.648 . S
C1267 C113 1.646 . S
C1283 C211 1.410 . S
C1288 C464 1.407 . S
C1304 C552 1.526 . S
C1299 C285 1.477 . S
C1315 C335 1.310 . S
C1320 C649 1.333 . S
C1331 C409 1.370 . S
C1336 C728 1.422 1_554 S
C1347 C39 1.725 . S
C1352 C825 1.756 . S
