# Generated by pormake.
# Topology anh, (6,3)-cn, num edge types: 1
# Building blocks:
#     Node 0, Type 0, BuildingBlock: MIFKUJ_clean_sbu_0, # of connection points: 6
#     Node 1, Type 0, BuildingBlock: MIFKUJ_clean_sbu_0, # of connection points: 6
#     Node 2, Type 0, BuildingBlock: MIFKUJ_clean_sbu_0, # of connection points: 6
#     Node 3, Type 1, BuildingBlock: QEWDON_clean_linker_0, # of connection points: 3
#     Node 4, Type 1, BuildingBlock: QEWDON_clean_linker_0, # of connection points: 3
#     Node 5, Type 1, BuildingBlock: QEWDON_clean_linker_0, # of connection points: 3
#     Node 6, Type 1, BuildingBlock: QEWDON_clean_linker_0, # of connection points: 3
#     Node 7, Type 1, BuildingBlock: QEWDON_clean_linker_0, # of connection points: 3
#     Node 8, Type 1, BuildingBlock: QEWDON_clean_linker_0, # of connection points: 3
#     Edge 9, Type (0, 1), BuildingBlock: FUNLAD_clean_linker_1, # of connection points: 2
#     Edge 10, Type (0, 1), BuildingBlock: FUNLAD_clean_linker_1, # of connection points: 2
#     Edge 11, Type (0, 1), BuildingBlock: FUNLAD_clean_linker_1, # of connection points: 2
#     Edge 12, Type (0, 1), BuildingBlock: FUNLAD_clean_linker_1, # of connection points: 2
#     Edge 13, Type (0, 1), BuildingBlock: FUNLAD_clean_linker_1, # of connection points: 2
#     Edge 14, Type (0, 1), BuildingBlock: FUNLAD_clean_linker_1, # of connection points: 2
#     Edge 15, Type (0, 1), BuildingBlock: FUNLAD_clean_linker_1, # of connection points: 2
#     Edge 16, Type (0, 1), BuildingBlock: FUNLAD_clean_linker_1, # of connection points: 2
#     Edge 17, Type (0, 1), BuildingBlock: FUNLAD_clean_linker_1, # of connection points: 2
#     Edge 18, Type (0, 1), BuildingBlock: FUNLAD_clean_linker_1, # of connection points: 2
#     Edge 19, Type (0, 1), BuildingBlock: FUNLAD_clean_linker_1, # of connection points: 2
#     Edge 20, Type (0, 1), BuildingBlock: FUNLAD_clean_linker_1, # of connection points: 2
#     Edge 21, Type (0, 1), BuildingBlock: FUNLAD_clean_linker_1, # of connection points: 2
#     Edge 22, Type (0, 1), BuildingBlock: FUNLAD_clean_linker_1, # of connection points: 2
#     Edge 23, Type (0, 1), BuildingBlock: FUNLAD_clean_linker_1, # of connection points: 2
#     Edge 24, Type (0, 1), BuildingBlock: FUNLAD_clean_linker_1, # of connection points: 2
#     Edge 25, Type (0, 1), BuildingBlock: FUNLAD_clean_linker_1, # of connection points: 2
#     Edge 26, Type (0, 1), BuildingBlock: FUNLAD_clean_linker_1, # of connection points: 2
# Relax obj value: 0.064
# Max RMSD: 0.126
# Mean RMSD: 0.114
data_MOF--net-anh--node1-MIFKUJ_clean_sbu_0--node2-QEWDON_clean_linker_0--edge1-FUNLAD_clean_linker_1
_symmetry_space_group_name_H-M    P1
_symmetry_Int_Tables_number       1
_symmetry_cell_setting            triclinic
loop_
_symmetry_equiv_pos_as_xyz
'x, y, z'
_cell_length_a     34.811578
_cell_length_b     34.628451
_cell_length_c     47.966852
_cell_angle_alpha  98.397363
_cell_angle_beta   95.059041
_cell_angle_gamma 120.04506
loop_
_atom_site_label
_atom_site_type_symbol
_atom_site_fract_x
_atom_site_fract_y
_atom_site_fract_z
_atom_type_partial_charge
Zn0 Zn 0.08757 0.62511 0.16986 0.0
Zn1 Zn 0.94551 0.53723 0.1591 0.0
C2 C 0.16918 0.63106 0.18149 0.0
O3 O 0.17607 0.66849 0.19803 0.0
C4 C 0.89847 0.58823 0.16367 0.0
O5 O 0.92822 0.61744 0.15076 0.0
O6 O 0.12366 0.69172 0.16842 0.0
O7 O 0.03304 0.59174 0.13625 0.0
O8 O 0.9593 0.54789 0.12026 0.0
C9 C 0.14024 0.69941 0.14585 0.0
O10 O 0.12867 0.66482 0.12468 0.0
O11 O 0.13058 0.60304 0.1658 0.0
C12 C 0.88772 0.45511 0.17456 0.0
O13 O 0.88589 0.48455 0.1942 0.0
O14 O 0.91523 0.46984 0.15758 0.0
O15 O 0.0039 0.57439 0.18574 0.0
O16 O 0.07193 0.61782 0.20958 0.0
O17 O 0.9014 0.55504 0.16913 0.0
C18 C -0.00079 0.57105 0.11547 0.0
C19 C 0.03049 0.59109 0.20966 0.0
Zn20 Zn 0.53774 0.10729 0.49716 0.0
Zn21 Zn 0.49859 0.98153 0.4959 0.0
C22 C 0.62875 0.17608 0.50218 0.0
O23 O 0.61372 0.19752 0.51841 0.0
C24 C 0.40934 0.90778 0.46923 0.0
O25 O 0.43193 0.90042 0.4508 0.0
O26 O 0.52473 0.15758 0.497 0.0
O27 O 0.49338 0.05275 0.46569 0.0
O28 O 0.52002 0.00703 0.46162 0.0
C29 C 0.49906 0.16045 0.47799 0.0
O30 O 0.47438 0.12621 0.45589 0.0
O31 O 0.60218 0.13409 0.49007 0.0
C32 C 0.5061 0.91399 0.51824 0.0
O33 O 0.47852 0.9177 0.53388 0.0
O34 O 0.52026 0.93874 0.50003 0.0
O35 O 0.52085 0.02514 0.53391 0.0
O36 O 0.53811 0.097 0.53734 0.0
O37 O 0.43028 0.94266 0.48992 0.0
C38 C 0.51022 0.03328 0.45126 0.0
C39 C 0.53364 0.06445 0.54873 0.0
Zn40 Zn 0.61497 0.51239 0.83256 0.0
Zn41 Zn 0.52764 0.53421 0.83203 0.0
C42 C 0.59786 0.42551 0.84088 0.0
O43 O 0.63405 0.45307 0.86078 0.0
C44 C 0.55408 0.62434 0.82393 0.0
O45 O 0.5171 0.59977 0.80424 0.0
O46 O 0.67895 0.52824 0.83292 0.0
O47 O 0.60041 0.53189 0.79741 0.0
O48 O 0.52692 0.50413 0.79282 0.0
C49 C 0.68518 0.50557 0.81236 0.0
O50 O 0.65083 0.47547 0.79194 0.0
O51 O 0.58014 0.44264 0.82641 0.0
C52 C 0.46 0.54507 0.85338 0.0
O53 O 0.49526 0.57572 0.87306 0.0
O54 O 0.46505 0.52192 0.83248 0.0
O55 O 0.53935 0.51157 0.86591 0.0
O56 O 0.61308 0.5409 0.87198 0.0
O57 O 0.56759 0.60392 0.83845 0.0
C58 C 0.56221 0.51734 0.78201 0.0
C59 C 0.57744 0.52954 0.88224 0.0
H60 H 0.54235 0.13207 0.23384 0.0
C61 C 0.51371 0.09765 0.22565 0.0
C62 C 0.49157 0.07149 0.24513 0.0
C63 C 0.49664 0.08049 0.19586 0.0
H64 H 0.43485 0.00938 0.25058 0.0
C65 C 0.45254 0.02861 0.2352 0.0
C66 C 0.43541 0.01049 0.20592 0.0
C67 C 0.45808 0.03594 0.18619 0.0
C68 C 0.51501 0.11093 0.17532 0.0
H69 H 0.44443 0.02214 0.16347 0.0
C70 C 0.56137 0.14497 0.17954 0.0
C71 C 0.57651 0.17685 0.16186 0.0
C72 C 0.48498 0.10862 0.15246 0.0
H73 H 0.44907 0.08403 0.14887 0.0
C74 C 0.50038 0.13953 0.13463 0.0
H75 H 0.58521 0.14778 0.19702 0.0
C76 C 0.54569 0.17384 0.13954 0.0
H77 H 0.55677 0.19833 0.1259 0.0
H78 H 0.47682 0.13764 0.11739 0.0
H79 H 0.57088 0.59747 0.56781 0.0
C80 C 0.57675 0.57105 0.55811 0.0
C81 C 0.59687 0.55442 0.57561 0.0
C82 C 0.56249 0.55213 0.52838 0.0
H83 H 0.61659 0.50494 0.5774 0.0
C84 C 0.60282 0.51898 0.56356 0.0
C85 C 0.58639 0.49803 0.53447 0.0
C86 C 0.5674 0.51541 0.51678 0.0
C87 C 0.53981 0.56841 0.50973 0.0
H88 H 0.55593 0.4998 0.49406 0.0
C89 C 0.55525 0.61535 0.51342 0.0
C90 C 0.53293 0.63033 0.49617 0.0
C91 C 0.5021 0.53682 0.48815 0.0
H92 H 0.48877 0.50044 0.48506 0.0
C93 C 0.48066 0.55172 0.4705 0.0
H94 H 0.58438 0.64022 0.52982 0.0
C95 C 0.49592 0.59813 0.47438 0.0
H96 H 0.47893 0.60874 0.46012 0.0
H97 H 0.45196 0.52715 0.45381 0.0
H98 H 0.10986 0.56065 0.89936 0.0
C99 C 0.07758 0.55306 0.88822 0.0
C100 C 0.04273 0.54519 0.90363 0.0
C101 C 0.0718 0.5538 0.85888 0.0
H102 H 0.97323 0.52769 0.8999 0.0
C103 C 0.00099 0.53518 0.88881 0.0
C104 C 0.99525 0.53712 0.85987 0.0
C105 C 0.03067 0.54656 0.84508 0.0
C106 C 0.10924 0.56442 0.84284 0.0
H107 H 0.02595 0.54804 0.8227 0.0
C108 C 0.13571 0.54457 0.84589 0.0
C109 C 0.17084 0.55453 0.83044 0.0
C110 C 0.11828 0.59423 0.82399 0.0
H111 H 0.09901 0.61062 0.8215 0.0
C112 C 0.15245 0.60345 0.80819 0.0
H113 H 0.12897 0.52132 0.8602 0.0
C114 C 0.17846 0.58362 0.81121 0.0
H115 H 0.20405 0.59069 0.79815 0.0
H116 H 0.15875 0.62599 0.79349 0.0
H117 H 0.9834 0.52029 0.42956 0.0
C118 C 0.0161 0.54938 0.44025 0.0
C119 C 0.04779 0.57308 0.42351 0.0
C120 C 0.02671 0.56379 0.47052 0.0
H121 H 0.11248 0.63072 0.42327 0.0
C122 C 0.08956 0.61193 0.43673 0.0
C123 C 0.10045 0.62805 0.4666 0.0
C124 C 0.06949 0.60311 0.48324 0.0
C125 C 0.99345 0.53939 0.48907 0.0
H126 H 0.07932 0.61492 0.50632 0.0
C127 C 0.96007 0.49205 0.48073 0.0
C128 C 0.93051 0.46986 0.49918 0.0
C129 C 0.99508 0.56395 0.51581 0.0
H130 H 0.01784 0.60055 0.52265 0.0
C131 C 0.96677 0.54202 0.53426 0.0
H132 H 0.95714 0.47212 0.46018 0.0
C133 C 0.93502 0.49547 0.52622 0.0
H134 H 0.91283 0.48029 0.54091 0.0
H135 H 0.96887 0.56149 0.55477 0.0
H136 H 0.56848 0.99516 0.77129 0.0
C137 C 0.57549 0.02842 0.78191 0.0
C138 C 0.57622 0.05844 0.7649 0.0
C139 C 0.5821 0.04056 0.81211 0.0
H140 H 0.58614 0.12527 0.76541 0.0
C141 C 0.58342 0.10098 0.77816 0.0
C142 C 0.5889 0.11358 0.80793 0.0
C143 C 0.59 0.08419 0.82486 0.0
C144 C 0.57859 0.00722 0.83017 0.0
H145 H 0.59642 0.09542 0.84795 0.0
C146 C 0.5883 0.97256 0.82118 0.0
C147 C 0.58406 0.94138 0.83841 0.0
C148 C 0.56363 0.00884 0.85646 0.0
H149 H 0.55354 0.0329 0.86375 0.0
C150 C 0.55999 0.97843 0.87361 0.0
H151 H 0.59955 0.96978 0.80107 0.0
C152 C 0.5702 0.94507 0.86477 0.0
H153 H 0.56545 0.92095 0.87812 0.0
H154 H 0.54822 0.98011 0.89365 0.0
H155 H 0.49263 0.57228 0.10365 0.0
C156 C 0.51981 0.56959 0.11415 0.0
C157 C 0.54319 0.55496 0.09743 0.0
C158 C 0.53376 0.58434 0.14415 0.0
H159 H 0.59608 0.53984 0.09869 0.0
C160 C 0.57874 0.5522 0.11129 0.0
C161 C 0.59419 0.56838 0.14104 0.0
C162 C 0.57122 0.58388 0.15732 0.0
C163 C 0.51288 0.60534 0.16138 0.0
H164 H 0.58339 0.59677 0.18027 0.0
C165 C 0.46563 0.58549 0.15707 0.0
C166 C 0.44674 0.60726 0.1726 0.0
C167 C 0.54074 0.6466 0.18185 0.0
H168 H 0.57718 0.66307 0.18535 0.0
C169 C 0.522 0.66772 0.19762 0.0
H170 H 0.44369 0.55353 0.14154 0.0
C171 C 0.47539 0.64838 0.19301 0.0
H172 H 0.46187 0.66547 0.20573 0.0
H173 H 0.54373 0.69938 0.21337 0.0
H174 H 0.24086 0.65544 0.18513 0.0
C175 C 0.20741 0.62463 0.18011 0.0
H176 H 0.17001 0.55245 0.17059 0.0
H177 H 0.33223 0.54908 0.12056 0.0
H178 H 0.26733 0.49647 0.08279 0.0
H179 H 0.19134 0.48172 0.08733 0.0
H180 H 0.17976 0.51947 0.12963 0.0
C181 C 0.20323 0.58342 0.17531 0.0
C182 C 0.24459 0.58051 0.17611 0.0
C183 C 0.25043 0.55719 0.15159 0.0
C184 C 0.29424 0.56537 0.14914 0.0
C185 C 0.29963 0.54343 0.12381 0.0
C186 C 0.26268 0.51333 0.10191 0.0
C187 C 0.21989 0.50506 0.10444 0.0
C188 C 0.2137 0.52698 0.12883 0.0
H189 H 0.37569 0.55003 0.16702 0.0
C190 C 0.39711 0.58651 0.16832 0.0
H191 H 0.40058 0.64898 0.16865 0.0
H192 H 0.24095 0.61602 0.22999 0.0
H193 H 0.30485 0.6665 0.26888 0.0
H194 H 0.3819 0.68564 0.2635 0.0
H195 H 0.39508 0.65339 0.21977 0.0
C196 C 0.37884 0.61261 0.16761 0.0
C197 C 0.33168 0.59652 0.17141 0.0
C198 C 0.32469 0.61588 0.19719 0.0
C199 C 0.28081 0.60653 0.19988 0.0
C200 C 0.2742 0.62423 0.22637 0.0
C201 C 0.31044 0.65276 0.24894 0.0
C202 C 0.35376 0.66344 0.24593 0.0
C203 C 0.36091 0.64491 0.22057 0.0
H204 H 0.70033 0.19553 0.50758 0.0
C205 C 0.67555 0.2021 0.49762 0.0
H206 H 0.66254 0.24469 0.47693 0.0
H207 H 0.83401 0.43328 0.52862 0.0
H208 H 0.77569 0.44111 0.54775 0.0
H209 H 0.69885 0.37416 0.54205 0.0
H210 H 0.67995 0.29937 0.517 0.0
C211 C 0.68843 0.23884 0.48606 0.0
C212 C 0.73628 0.27762 0.49123 0.0
C213 C 0.74709 0.32118 0.50659 0.0
C214 C 0.79175 0.35952 0.5107 0.0
C215 C 0.80107 0.40274 0.52546 0.0
C216 C 0.76779 0.4078 0.53648 0.0
C217 C 0.72454 0.37018 0.5332 0.0
C218 C 0.71412 0.32736 0.51853 0.0
H219 H 0.8758 0.40989 0.46665 0.0
C220 C 0.89199 0.42156 0.48914 0.0
H221 H 0.88976 0.40512 0.5299 0.0
H222 H 0.72695 0.20005 0.45928 0.0
H223 H 0.78671 0.1917 0.44252 0.0
H224 H 0.86508 0.25739 0.45221 0.0
H225 H 0.88411 0.3322 0.47846 0.0
C226 C 0.8735 0.39418 0.50749 0.0
C227 C 0.82612 0.35428 0.50025 0.0
C228 C 0.81561 0.31073 0.48526 0.0
C229 C 0.7705 0.27244 0.48038 0.0
C230 C 0.76076 0.22983 0.46442 0.0
C231 C 0.79472 0.22466 0.45451 0.0
C232 C 0.83886 0.26168 0.45993 0.0
C233 C 0.84935 0.30437 0.47502 0.0
H234 H 0.60603 0.6943 0.84854 0.0
C235 C 0.57669 0.67495 0.83128 0.0
H236 H 0.53087 0.67783 0.80096 0.0
H237 H 0.58148 0.86419 0.89107 0.0
H238 H 0.54754 0.81547 0.92375 0.0
H239 H 0.52638 0.73475 0.91282 0.0
H240 H 0.53936 0.70249 0.86906 0.0
C241 C 0.55973 0.69689 0.81854 0.0
C242 C 0.57848 0.74722 0.82739 0.0
C243 C 0.57081 0.76576 0.8532 0.0
C244 C 0.58275 0.8124 0.85937 0.0
C245 C 0.57371 0.82942 0.88513 0.0
C246 C 0.55397 0.80168 0.90418 0.0
C247 C 0.54208 0.75627 0.89803 0.0
C248 C 0.54998 0.73825 0.87282 0.0
H249 H 0.57128 0.8811 0.8065 0.0
C250 C 0.58921 0.90186 0.82788 0.0
H251 H 0.62874 0.91 0.86642 0.0
H252 H 0.60109 0.72365 0.77743 0.0
H253 H 0.63896 0.77344 0.74556 0.0
H254 H 0.66186 0.85473 0.75691 0.0
H255 H 0.64653 0.88666 0.79999 0.0
C256 C 0.61025 0.88814 0.84537 0.0
C257 C 0.60192 0.84052 0.83957 0.0
C258 C 0.61203 0.82263 0.81461 0.0
C259 C 0.59977 0.77588 0.80839 0.0
C260 C 0.60961 0.7588 0.78311 0.0
C261 C 0.63151 0.78704 0.76473 0.0
C262 C 0.64434 0.83281 0.7711 0.0
C263 C 0.63496 0.85062 0.79576 0.0
H264 H 0.83015 0.55716 0.17283 0.0
C265 C 0.85681 0.58757 0.16736 0.0
H266 H 0.87451 0.6498 0.15551 0.0
H267 H 0.67377 0.57368 0.09518 0.0
H268 H 0.71535 0.59508 0.05671 0.0
H269 H 0.79676 0.62264 0.06409 0.0
H270 H 0.83708 0.62993 0.11014 0.0
C271 C 0.84862 0.61978 0.1617 0.0
C272 C 0.80155 0.61016 0.15875 0.0
C273 C 0.77854 0.6059 0.13152 0.0
C274 C 0.73137 0.58861 0.127 0.0
C275 C 0.70932 0.58549 0.09972 0.0
C276 C 0.73284 0.59782 0.07739 0.0
C277 C 0.77866 0.61342 0.08157 0.0
C278 C 0.80141 0.61746 0.10822 0.0
H279 H 0.65905 0.60748 0.17181 0.0
C280 C 0.63879 0.57738 0.15446 0.0
H281 H 0.63776 0.52359 0.12653 0.0
H282 H 0.83707 0.6232 0.21491 0.0
H283 H 0.79497 0.59925 0.25318 0.0
H284 H 0.71195 0.56226 0.24411 0.0
H285 H 0.67069 0.54998 0.19696 0.0
C286 C 0.65741 0.55407 0.1436 0.0
C287 C 0.70712 0.57457 0.1495 0.0
C288 C 0.73033 0.58022 0.17697 0.0
C289 C 0.77786 0.59937 0.18182 0.0
C290 C 0.80069 0.60686 0.2098 0.0
C291 C 0.77699 0.59362 0.23197 0.0
C292 C 0.73028 0.57295 0.22689 0.0
C293 C 0.70702 0.56629 0.19976 0.0
H294 H 0.34553 0.84413 0.4488 0.0
C295 C 0.36144 0.87258 0.4674 0.0
H296 H 0.3547 0.89858 0.50816 0.0
H297 H 0.14867 0.72814 0.43591 0.0
H298 H 0.15274 0.78265 0.40778 0.0
H299 H 0.22161 0.85893 0.41555 0.0
H300 H 0.28647 0.88195 0.45224 0.0
C301 C 0.3386 0.87164 0.48877 0.0
C302 C 0.29362 0.83029 0.4879 0.0
C303 C 0.25626 0.81732 0.46632 0.0
C304 C 0.21671 0.77319 0.46169 0.0
C305 C 0.17974 0.76111 0.44008 0.0
C306 C 0.18161 0.79204 0.42383 0.0
C307 C 0.22037 0.83508 0.42826 0.0
C308 C 0.25741 0.84775 0.44921 0.0
H309 H 0.14057 0.69202 0.50043 0.0
C310 C 0.14164 0.67323 0.48056 0.0
H311 H 0.18108 0.67476 0.44917 0.0
H312 H 0.35459 0.84885 0.5356 0.0
H313 H 0.34646 0.79826 0.56769 0.0
H314 H 0.27825 0.72121 0.55917 0.0
H315 H 0.21754 0.69434 0.51848 0.0
C316 C 0.17865 0.69293 0.4687 0.0
C317 C 0.21464 0.74211 0.47859 0.0
C318 C 0.24962 0.75714 0.50242 0.0
C319 C 0.28909 0.80156 0.50724 0.0
C320 C 0.32391 0.81555 0.53093 0.0
C321 C 0.31967 0.78682 0.54952 0.0
C322 C 0.28125 0.74343 0.54472 0.0
C323 C 0.24667 0.72842 0.52132 0.0
H324 H 0.55157 0.3539 0.81653 0.0
C325 C 0.58189 0.37614 0.83279 0.0
H326 H 0.63633 0.38132 0.85982 0.0
H327 H 0.55171 0.17322 0.8608 0.0
H328 H 0.54675 0.20254 0.90849 0.0
H329 H 0.56336 0.28152 0.9227 0.0
H330 H 0.5845 0.33149 0.88911 0.0
C331 C 0.60622 0.35929 0.84337 0.0
C332 C 0.59381 0.31071 0.83388 0.0
C333 C 0.58242 0.28205 0.8539 0.0
C334 C 0.5739 0.23675 0.84592 0.0
C335 C 0.56034 0.20839 0.86598 0.0
C336 C 0.55693 0.22467 0.8934 0.0
C337 C 0.56621 0.26911 0.90139 0.0
C338 C 0.57854 0.29751 0.88192 0.0
H339 H 0.61931 0.17891 0.84054 0.0
C340 C 0.59423 0.15809 0.82111 0.0
H341 H 0.54331 0.15132 0.79 0.0
H342 H 0.61768 0.35715 0.79053 0.0
H343 H 0.62259 0.32788 0.74289 0.0
H344 H 0.6077 0.24951 0.729 0.0
H345 H 0.58805 0.20013 0.76271 0.0
C346 C 0.56906 0.17305 0.80902 0.0
C347 C 0.57805 0.22048 0.8181 0.0
C348 C 0.58901 0.24901 0.79795 0.0
C349 C 0.59715 0.29416 0.80586 0.0
C350 C 0.60981 0.32223 0.78557 0.0
C351 C 0.61312 0.30597 0.75812 0.0
C352 C 0.60477 0.26188 0.75031 0.0
C353 C 0.59321 0.23374 0.76991 0.0
H354 H 0.49759 0.853 0.53231 0.0
C355 C 0.51621 0.87787 0.5198 0.0
H356 H 0.56301 0.89709 0.49181 0.0
H357 H 0.55921 0.73051 0.55163 0.0
H358 H 0.59384 0.78775 0.59627 0.0
H359 H 0.60923 0.86593 0.59822 0.0
H360 H 0.58925 0.88701 0.55551 0.0
C361 C 0.54495 0.87297 0.50485 0.0
C362 C 0.54705 0.83084 0.50239 0.0
C363 C 0.56103 0.81977 0.52713 0.0
C364 C 0.55385 0.77528 0.5257 0.0
C365 C 0.56523 0.76419 0.5512 0.0
C366 C 0.58498 0.79671 0.57703 0.0
C367 C 0.59353 0.84069 0.57816 0.0
C368 C 0.58167 0.85226 0.55357 0.0
H369 H 0.58483 0.70458 0.50761 0.0
C370 C 0.54886 0.67969 0.50087 0.0
H371 H 0.48362 0.66945 0.49156 0.0
H372 H 0.52217 0.84329 0.45007 0.0
H373 H 0.49378 0.7885 0.4046 0.0
H374 H 0.48479 0.7126 0.40164 0.0
H375 H 0.50375 0.69094 0.44428 0.0
C376 C 0.5197 0.69409 0.49771 0.0
C377 C 0.53448 0.74277 0.49916 0.0
C378 C 0.52471 0.75548 0.4739 0.0
C379 C 0.53076 0.7995 0.47552 0.0
C380 C 0.51887 0.81055 0.45011 0.0
C381 C 0.50248 0.77938 0.42381 0.0
C382 C 0.49735 0.73663 0.42215 0.0
C383 C 0.5082 0.7246 0.44682 0.0
H384 H 0.72783 0.47836 0.80045 0.0
C385 C 0.72814 0.50694 0.81357 0.0
H386 H 0.76643 0.56858 0.84473 0.0
H387 H 0.90042 0.51896 0.90218 0.0
H388 H 0.86698 0.53274 0.94151 0.0
H389 H 0.80442 0.54661 0.93339 0.0
H390 H 0.77556 0.54747 0.88593 0.0
C391 C 0.76621 0.5402 0.83144 0.0
C392 C 0.8063 0.53541 0.83642 0.0
C393 C 0.82202 0.53395 0.86433 0.0
C394 C 0.85719 0.52463 0.86886 0.0
C395 C 0.87318 0.52483 0.89717 0.0
C396 C 0.85432 0.53282 0.92009 0.0
C397 C 0.81917 0.5407 0.91553 0.0
C398 C 0.80299 0.54118 0.88806 0.0
H399 H 0.95976 0.5618 0.83432 0.0
C400 C 0.95471 0.53577 0.84628 0.0
H401 H 0.90835 0.48072 0.86254 0.0
H402 H 0.79166 0.54632 0.78182 0.0
H403 H 0.82295 0.52959 0.74175 0.0
H404 H 0.87624 0.50289 0.74818 0.0
H405 H 0.89978 0.49447 0.7949 0.0
C406 C 0.91326 0.50694 0.85081 0.0
C407 C 0.87582 0.51563 0.84534 0.0
C408 C 0.86006 0.51711 0.81744 0.0
C409 C 0.82674 0.52905 0.81325 0.0
C410 C 0.81474 0.53458 0.78577 0.0
C411 C 0.83277 0.5255 0.76266 0.0
C412 C 0.86295 0.51073 0.76632 0.0
C413 C 0.8765 0.50644 0.79332 0.0
H414 H 0.19232 0.7482 0.12554 0.0
C415 C 0.17842 0.74462 0.14509 0.0
H416 H 0.18801 0.77478 0.18858 0.0
H417 H 0.39973 0.89305 0.20353 0.0
H418 H 0.38942 0.84091 0.23487 0.0
H419 H 0.31324 0.77746 0.23599 0.0
H420 H 0.24709 0.76589 0.20591 0.0
C421 C 0.20014 0.77885 0.16847 0.0
C422 C 0.24557 0.81877 0.16879 0.0
C423 C 0.28386 0.82483 0.18656 0.0
C424 C 0.3277 0.86159 0.18615 0.0
C425 C 0.36553 0.86641 0.20363 0.0
C426 C 0.36013 0.83649 0.22153 0.0
C427 C 0.31726 0.80077 0.22214 0.0
C428 C 0.27951 0.79462 0.20477 0.0
H429 H 0.37015 0.9581 0.21375 0.0
C430 C 0.39145 0.96689 0.1976 0.0
H431 H 0.39688 0.94268 0.15571 0.0
H432 H 0.17916 0.81932 0.13387 0.0
H433 H 0.19001 0.87162 0.1026 0.0
H434 H 0.26655 0.93354 0.10061 0.0
H435 H 0.33271 0.94381 0.13022 0.0
C436 C 0.37721 0.93634 0.17266 0.0
C437 C 0.33311 0.89278 0.16848 0.0
C438 C 0.29513 0.88592 0.15009 0.0
C439 C 0.25115 0.84939 0.15062 0.0
C440 C 0.21348 0.8453 0.13348 0.0
C441 C 0.2192 0.87537 0.11562 0.0
C442 C 0.26228 0.91032 0.11456 0.0
C443 C 0.29993 0.91586 0.13167 0.0
H444 H 0.47855 0.20599 0.46285 0.0
C445 C 0.50008 0.20377 0.47958 0.0
H446 H 0.54993 0.23898 0.5175 0.0
H447 H 0.58289 0.41535 0.4641 0.0
H448 H 0.6138 0.38781 0.42823 0.0
H449 H 0.60835 0.31349 0.42582 0.0
H450 H 0.57169 0.26614 0.45903 0.0
C451 C 0.52869 0.24086 0.50039 0.0
C452 C 0.53187 0.28539 0.50146 0.0
C453 C 0.55378 0.31266 0.48194 0.0
C454 C 0.55785 0.35592 0.48369 0.0
C455 C 0.57944 0.38245 0.46386 0.0
C456 C 0.59726 0.36703 0.44318 0.0
C457 C 0.59413 0.32516 0.44179 0.0
C458 C 0.57276 0.29818 0.46091 0.0
H459 H 0.61166 0.45075 0.53346 0.0
C460 C 0.58465 0.45483 0.52405 0.0
H461 H 0.51764 0.42009 0.50081 0.0
H462 H 0.4895 0.24215 0.54271 0.0
H463 H 0.46173 0.2714 0.57986 0.0
H464 H 0.46945 0.34683 0.58316 0.0
H465 H 0.50504 0.39349 0.54936 0.0
C466 C 0.54684 0.41798 0.50812 0.0
C467 C 0.54081 0.37201 0.50524 0.0
C468 C 0.51937 0.34502 0.52495 0.0
C469 C 0.51505 0.30167 0.52312 0.0
C470 C 0.49386 0.27548 0.54322 0.0
C471 C 0.47771 0.29182 0.56463 0.0
C472 C 0.48204 0.33427 0.56648 0.0
C473 C 0.50254 0.3607 0.54693 0.0
H474 H 0.41642 0.56982 0.8676 0.0
C475 C 0.41634 0.54158 0.8542 0.0
H476 H 0.37723 0.47801 0.82477 0.0
H477 H 0.2479 0.5489 0.88521 0.0
H478 H 0.27588 0.53857 0.92993 0.0
H479 H 0.32979 0.51206 0.93179 0.0
H480 H 0.35668 0.49659 0.88891 0.0
C481 C 0.37742 0.50622 0.83824 0.0
C482 C 0.33566 0.50835 0.83578 0.0
C483 C 0.31832 0.51466 0.86061 0.0
C484 C 0.28581 0.52804 0.85924 0.0
C485 C 0.27154 0.53735 0.88479 0.0
C486 C 0.28744 0.53167 0.91064 0.0
C487 C 0.31789 0.51687 0.91172 0.0
C488 C 0.33329 0.50844 0.88705 0.0
H489 H 0.18321 0.50029 0.83982 0.0
C490 C 0.19851 0.53348 0.83414 0.0
H491 H 0.25835 0.58851 0.82653 0.0
H492 H 0.35587 0.4907 0.78307 0.0
H493 H 0.32242 0.49362 0.73759 0.0
H494 H 0.26365 0.51366 0.73491 0.0
H495 H 0.23824 0.53122 0.77789 0.0
C496 C 0.24212 0.55489 0.83152 0.0
C497 C 0.26934 0.53297 0.83272 0.0
C498 C 0.28285 0.52149 0.80735 0.0
C499 C 0.31618 0.50925 0.80885 0.0
C500 C 0.33033 0.49973 0.78326 0.0
C501 C 0.31139 0.50129 0.75694 0.0
C502 C 0.27834 0.51262 0.75543 0.0
C503 C 0.26419 0.52276 0.78027 0.0
H504 H 0.85856 0.38169 0.15534 0.0
C505 C 0.85408 0.40589 0.16967 0.0
H506 H 0.81187 0.4153 0.19532 0.0
H507 H 0.65521 0.21554 0.11676 0.0
H508 H 0.66549 0.2536 0.0769 0.0
H509 H 0.72828 0.33309 0.08229 0.0
H510 H 0.78177 0.37455 0.12726 0.0
C511 C 0.81657 0.39122 0.18102 0.0
C512 C 0.78119 0.34214 0.17627 0.0
C513 C 0.75026 0.31881 0.14982 0.0
C514 C 0.71284 0.27382 0.1471 0.0
C515 C 0.68309 0.25051 0.12026 0.0
C516 C 0.68882 0.27181 0.09718 0.0
C517 C 0.72426 0.31651 0.1002 0.0
C518 C 0.7548 0.33989 0.12613 0.0
H519 H 0.62759 0.2487 0.16459 0.0
C520 C 0.6233 0.21613 0.16718 0.0
H521 H 0.65715 0.18049 0.17289 0.0
H522 H 0.83668 0.37586 0.22871 0.0
H523 H 0.8259 0.33796 0.26857 0.0
H524 H 0.76005 0.26037 0.26411 0.0
H525 H 0.70446 0.22048 0.21975 0.0
C526 C 0.66003 0.21263 0.17086 0.0
C527 C 0.70511 0.25336 0.17124 0.0
C528 C 0.73778 0.27536 0.19691 0.0
C529 C 0.77574 0.31997 0.19947 0.0
C530 C 0.80721 0.34199 0.22569 0.0
C531 C 0.80144 0.32056 0.2487 0.0
C532 C 0.76435 0.27691 0.24618 0.0
C533 C 0.73268 0.25444 0.22065 0.0
H534 H 0.97532 0.56473 0.07007 0.0
C535 C 0.00488 0.57386 0.08558 0.0
H536 H 0.07192 0.58818 0.09085 0.0
H537 H 0.01517 0.4791 0.95896 0.0
H538 H 0.00859 0.42001 0.98309 0.0
H539 H 0.01923 0.4329 0.03587 0.0
H540 H 0.03596 0.50498 0.06478 0.0
C541 C 0.04317 0.58285 0.07632 0.0
C542 C 0.04424 0.57847 0.04511 0.0
C543 C 0.03671 0.53708 0.02856 0.0
C544 C 0.03195 0.53022 0.99816 0.0
C545 C 0.02098 0.48712 0.98212 0.0
C546 C 0.0167 0.45262 0.99571 0.0
C547 C 0.02259 0.45983 0.02541 0.0
C548 C 0.03222 0.50138 0.04174 0.0
H549 H 0.08031 0.54888 0.94492 0.0
C550 C 0.05136 0.54979 0.93532 0.0
H551 H -0.00022 0.56272 0.94412 0.0
H552 H 0.06216 0.663 0.07088 0.0
H553 H 0.07143 0.72372 0.04712 0.0
H554 H 0.06599 0.71319 0.99463 0.0
H555 H 0.05108 0.64202 0.96555 0.0
C556 C 0.02637 0.55763 0.95267 0.0
C557 C 0.03655 0.56567 0.98451 0.0
C558 C 0.04627 0.60793 0.00131 0.0
C559 C 0.04982 0.61421 0.0316 0.0
C560 C 0.0589 0.65646 0.04777 0.0
C561 C 0.06444 0.6916 0.03443 0.0
C562 C 0.06135 0.68567 0.00487 0.0
C563 C 0.05252 0.64449 0.98841 0.0
H564 H 0.54456 0.03455 0.41475 0.0
C565 C 0.5201 0.04179 0.42285 0.0
H566 H 0.47289 0.06156 0.41378 0.0
H567 H 0.56218 0.16447 0.31767 0.0
H568 H 0.56878 0.2257 0.35351 0.0
H569 H 0.54792 0.21266 0.40058 0.0
H570 H 0.52086 0.13856 0.41212 0.0
C571 C 0.49775 0.05472 0.40602 0.0
C572 C 0.50719 0.06129 0.37682 0.0
C573 C 0.52304 0.1049 0.37041 0.0
C574 C 0.53413 0.11219 0.34305 0.0
C575 C 0.5515 0.15655 0.33766 0.0
C576 C 0.55593 0.19215 0.35816 0.0
C577 C 0.54427 0.18484 0.38467 0.0
C578 C 0.52854 0.14199 0.39096 0.0
H579 H 0.48273 0.09729 0.28682 0.0
C580 C 0.50505 0.08919 0.27631 0.0
H581 H 0.55241 0.06891 0.28083 0.0
H582 H 0.46993 0.97123 0.38011 0.0
H583 H 0.46139 0.90963 0.34395 0.0
H584 H 0.48324 0.92279 0.29716 0.0
H585 H 0.51323 0.99739 0.28623 0.0
C586 C 0.53294 0.08075 0.29177 0.0
C587 C 0.5281 0.07551 0.3218 0.0
C588 C 0.51213 0.03174 0.32818 0.0
C589 C 0.50078 0.0244 0.3555 0.0
C590 C 0.48156 0.97953 0.36043 0.0
C591 C 0.4758 0.94355 0.33966 0.0
C592 C 0.48798 0.95093 0.31331 0.0
C593 C 0.50545 0.99422 0.30739 0.0
H594 H 0.52584 0.50691 0.73895 0.0
C595 C 0.55883 0.51856 0.75138 0.0
H596 H 0.6287 0.54797 0.75086 0.0
H597 H 0.55508 0.47003 0.61227 0.0
H598 H 0.54739 0.40052 0.62316 0.0
H599 H 0.55948 0.39402 0.67331 0.0
H600 H 0.57946 0.45718 0.71293 0.0
C601 C 0.59519 0.53529 0.73884 0.0
C602 C 0.59088 0.54009 0.70872 0.0
C603 C 0.57928 0.50293 0.68594 0.0
C604 C 0.57258 0.50683 0.65708 0.0
C605 C 0.56076 0.46907 0.63464 0.0
C606 C 0.55617 0.42892 0.64058 0.0
C607 C 0.56298 0.42526 0.66882 0.0
C608 C 0.57433 0.46169 0.69133 0.0
H609 H 0.63979 0.58225 0.61866 0.0
C610 C 0.60567 0.56817 0.60707 0.0
H611 H 0.53642 0.53303 0.60902 0.0
H612 H 0.6156 0.61847 0.74765 0.0
H613 H 0.6255 0.68887 0.73683 0.0
H614 H 0.61339 0.69554 0.68672 0.0
H615 H 0.59164 0.63179 0.64704 0.0
C616 C 0.57093 0.55167 0.62098 0.0
C617 C 0.57813 0.54814 0.6512 0.0
C618 C 0.59072 0.58561 0.67398 0.0
C619 C 0.59729 0.58163 0.70284 0.0
C620 C 0.60993 0.61958 0.72531 0.0
C621 C 0.61573 0.66018 0.7194 0.0
C622 C 0.60898 0.66394 0.69117 0.0
C623 C 0.59658 0.62718 0.66862 0.0
H624 H 0.54059 0.09976 0.59277 0.0
C625 C 0.54199 0.07187 0.58018 0.0
H626 H 0.55261 0.01707 0.58064 0.0
H627 H 0.62038 0.14065 0.71628 0.0
H628 H 0.67576 0.20383 0.69819 0.0
H629 H 0.67795 0.19577 0.64648 0.0
H630 H 0.62425 0.12483 0.61256 0.0
C631 C 0.55095 0.04474 0.5933 0.0
C632 C 0.55421 0.04827 0.62476 0.0
C633 C 0.58719 0.08945 0.64436 0.0
C634 C 0.58694 0.09356 0.67422 0.0
C635 C 0.61921 0.13554 0.69334 0.0
C636 C 0.65131 0.17206 0.68327 0.0
C637 C 0.65248 0.16755 0.65416 0.0
C638 C 0.62109 0.12675 0.63486 0.0
H639 H 0.58234 0.02337 0.72443 0.0
C640 C 0.57088 0.04575 0.73327 0.0
H641 H 0.54032 0.08314 0.72357 0.0
H642 H 0.48806 0.96328 0.59312 0.0
H643 H 0.43549 0.89918 0.6116 0.0
H644 H 0.4368 0.90586 0.66364 0.0
H645 H 0.49077 0.97692 0.69747 0.0
C646 C 0.55326 0.06185 0.71543 0.0
C647 C 0.55511 0.05588 0.68448 0.0
C648 C 0.52384 0.01392 0.66511 0.0
C649 C 0.52328 0.0101 0.63515 0.0
C650 C 0.49066 0.96813 0.61614 0.0
C651 C 0.46006 0.93099 0.62645 0.0
C652 C 0.46078 0.93476 0.65574 0.0
C653 C 0.49205 0.97572 0.67494 0.0
H654 H 0.61151 0.5455 0.92709 0.0
C655 C 0.58013 0.53631 0.91356 0.0
H656 H 0.51368 0.52313 0.91222 0.0
H657 H 0.4958 0.4653 0.03162 0.0
H658 H 0.43944 0.39462 0.99874 0.0
H659 H 0.43131 0.38858 0.94643 0.0
H660 H 0.47994 0.45317 0.92676 0.0
C661 C 0.54524 0.53254 0.92561 0.0
C662 C 0.54729 0.53814 0.95714 0.0
C663 C 0.51757 0.50043 0.96832 0.0
C664 C 0.52157 0.50423 0.99852 0.0
C665 C 0.4933 0.4651 0.009 0.0
C666 C 0.46095 0.42404 0.99031 0.0
C667 C 0.45642 0.42062 0.96087 0.0
C668 C 0.48451 0.45809 0.94987 0.0
H669 H 0.50003 0.5402 0.05556 0.0
C670 C 0.53249 0.54644 0.06555 0.0
H671 H 0.59689 0.56008 0.05838 0.0
H672 H 0.60381 0.61942 0.94277 0.0
H673 H 0.65898 0.69095 0.9756 0.0
H674 H 0.66683 0.69739 0.02795 0.0
H675 H 0.61924 0.63248 0.04772 0.0
C676 C 0.56282 0.54976 0.04889 0.0
C677 C 0.55451 0.54622 0.01743 0.0
C678 C 0.58282 0.58454 0.0062 0.0
C679 C 0.5789 0.58064 0.97603 0.0
C680 C 0.6065 0.61991 0.96546 0.0
C681 C 0.63804 0.66138 0.98409 0.0
C682 C 0.64242 0.66502 0.01355 0.0
C683 C 0.61503 0.62732 0.0246 0.0
H684 H 0.98033 0.57198 0.23842 0.0
C685 C 0.01441 0.58035 0.23662 0.0
H686 H 0.07557 0.58938 0.25625 0.0
H687 H 0.08017 0.6501 0.38486 0.0
H688 H 0.14428 0.7168 0.37526 0.0
H689 H 0.15561 0.72277 0.32578 0.0
H690 H 0.10389 0.66123 0.28558 0.0
C691 C 0.04179 0.58142 0.25875 0.0
C692 C 0.03104 0.57843 0.28812 0.0
C693 C 0.06067 0.61556 0.31143 0.0
C694 C 0.05381 0.61249 0.34002 0.0
C695 C 0.08423 0.65006 0.36279 0.0
C696 C 0.12089 0.68893 0.35759 0.0
C697 C 0.12737 0.69218 0.32972 0.0
C698 C 0.09751 0.65631 0.30683 0.0
H699 H 0.06141 0.55139 0.38202 0.0
C700 C 0.03847 0.55928 0.39186 0.0
H701 H 0.99158 0.58027 0.38543 0.0
H702 H 0.96999 0.49885 0.24908 0.0
H703 H 0.90753 0.43128 0.25907 0.0
H704 H 0.89355 0.42771 0.30841 0.0
H705 H 0.94306 0.49184 0.34835 0.0
C706 C 0.01198 0.56858 0.37563 0.0
C707 C 0.01724 0.5723 0.34541 0.0
C708 C 0.98708 0.53555 0.32218 0.0
C709 C 0.99429 0.53823 0.29352 0.0
C710 C 0.96523 0.49965 0.27106 0.0
C711 C 0.92929 0.46039 0.27653 0.0
C712 C 0.92156 0.45834 0.30434 0.0
C713 C 0.95015 0.49532 0.32703 0.0
loop_
_geom_bond_atom_site_label_1
_geom_bond_atom_site_label_2
_geom_bond_distance
_geom_bond_site_symmetry_2
_ccdc_geom_bond_type
Zn0 O6 1.969 . S
Zn0 O7 1.965 . S
Zn0 O11 2.024 . S
Zn0 O16 1.969 . S
Zn1 O8 1.969 . S
Zn1 O14 1.969 . S
Zn1 O15 1.965 1_655 S
Zn1 O17 2.024 . S
C2 O3 1.229 . S
C2 O11 1.058 . S
O3 C2 1.229 . S
C4 O5 1.229 . S
C4 O17 1.058 . S
O5 C4 1.229 . S
O6 Zn0 1.969 . S
O6 C9 1.267 . S
O7 Zn0 1.965 . S
O7 C18 1.260 . S
O8 Zn1 1.969 . S
O8 C18 1.258 1_655 S
C9 O6 1.267 . S
C9 O10 1.228 . S
O10 C9 1.228 . S
O11 Zn0 2.024 . S
O11 C2 1.058 . S
C12 O13 1.228 . S
C12 O14 1.267 . S
O13 C12 1.228 . S
O14 Zn1 1.969 . S
O14 C12 1.267 . S
O15 Zn1 1.965 1_455 S
O15 C19 1.260 . S
O16 Zn0 1.969 . S
O16 C19 1.258 . S
O17 Zn1 2.024 . S
O17 C4 1.058 . S
C18 O7 1.260 . S
C18 O8 1.258 1_455 S
C19 O15 1.260 . S
C19 O16 1.258 . S
Zn20 O26 1.969 . S
Zn20 O27 1.965 . S
Zn20 O31 2.024 . S
Zn20 O36 1.969 . S
Zn21 O28 1.969 . S
Zn21 O34 1.969 . S
Zn21 O35 1.965 1_565 S
Zn21 O37 2.024 . S
C22 O23 1.229 . S
C22 O31 1.058 . S
O23 C22 1.229 . S
C24 O25 1.229 . S
C24 O37 1.058 . S
O25 C24 1.229 . S
O26 Zn20 1.969 . S
O26 C29 1.267 . S
O27 Zn20 1.965 . S
O27 C38 1.260 . S
O28 Zn21 1.969 . S
O28 C38 1.258 1_565 S
C29 O26 1.267 . S
C29 O30 1.228 . S
O30 C29 1.228 . S
O31 Zn20 2.024 . S
O31 C22 1.058 . S
C32 O33 1.228 . S
C32 O34 1.267 . S
O33 C32 1.228 . S
O34 Zn21 1.969 . S
O34 C32 1.267 . S
O35 Zn21 1.965 1_545 S
O35 C39 1.260 . S
O36 Zn20 1.969 . S
O36 C39 1.258 . S
O37 Zn21 2.024 . S
O37 C24 1.058 . S
C38 O27 1.260 . S
C38 O28 1.258 1_545 S
C39 O35 1.260 . S
C39 O36 1.258 . S
Zn40 O46 1.969 . S
Zn40 O47 1.965 . S
Zn40 O51 2.024 . S
Zn40 O56 1.969 . S
Zn41 O48 1.969 . S
Zn41 O54 1.969 . S
Zn41 O55 1.965 . S
Zn41 O57 2.024 . S
C42 O43 1.229 . S
C42 O51 1.058 . S
O43 C42 1.229 . S
C44 O45 1.229 . S
C44 O57 1.058 . S
O45 C44 1.229 . S
O46 Zn40 1.969 . S
O46 C49 1.267 . S
O47 Zn40 1.965 . S
O47 C58 1.260 . S
O48 Zn41 1.969 . S
O48 C58 1.258 . S
C49 O46 1.267 . S
C49 O50 1.228 . S
O50 C49 1.228 . S
O51 Zn40 2.024 . S
O51 C42 1.058 . S
C52 O53 1.228 . S
C52 O54 1.267 . S
O53 C52 1.228 . S
O54 Zn41 1.969 . S
O54 C52 1.267 . S
O55 Zn41 1.965 . S
O55 C59 1.260 . S
O56 Zn40 1.969 . S
O56 C59 1.258 . S
O57 Zn41 2.024 . S
O57 C44 1.058 . S
C58 O47 1.260 . S
C58 O48 1.258 . S
C59 O55 1.260 . S
C59 O56 1.258 . S
H60 C61 0.949 . S
C61 H60 0.949 . S
C61 C62 1.395 . S
C61 C63 1.391 . S
C62 C61 1.395 . S
C62 C65 1.390 . S
C63 C61 1.391 . S
C63 C67 1.387 . S
C63 C68 1.491 . S
H64 C65 0.950 1_565 S
C65 C62 1.390 . S
C65 H64 0.950 1_545 S
C65 C66 1.378 . S
C66 C65 1.378 . S
C66 C67 1.409 . S
C67 C63 1.387 . S
C67 C66 1.409 . S
C67 H69 0.951 . S
C68 C63 1.491 . S
C68 C70 1.382 . S
C68 C72 1.404 . S
H69 C67 0.951 . S
C70 C68 1.382 . S
C70 C71 1.390 . S
C70 H75 0.949 . S
C71 C70 1.390 . S
C71 C76 1.399 . S
C72 C68 1.404 . S
C72 H73 0.950 . S
C72 C74 1.375 . S
H73 C72 0.950 . S
C74 C72 1.375 . S
C74 C76 1.382 . S
C74 H78 0.950 . S
H75 C70 0.949 . S
C76 C71 1.399 . S
C76 C74 1.382 . S
C76 H77 0.952 . S
H77 C76 0.952 . S
H78 C74 0.950 . S
H79 C80 0.949 . S
C80 H79 0.949 . S
C80 C81 1.395 . S
C80 C82 1.391 . S
C81 C80 1.395 . S
C81 C84 1.390 . S
C82 C80 1.391 . S
C82 C86 1.387 . S
C82 C87 1.491 . S
H83 C84 0.950 . S
C84 C81 1.390 . S
C84 H83 0.950 . S
C84 C85 1.378 . S
C85 C84 1.378 . S
C85 C86 1.409 . S
C86 C82 1.387 . S
C86 C85 1.409 . S
C86 H88 0.951 . S
C87 C82 1.491 . S
C87 C89 1.382 . S
C87 C91 1.404 . S
H88 C86 0.951 . S
C89 C87 1.382 . S
C89 C90 1.390 . S
C89 H94 0.949 . S
C90 C89 1.390 . S
C90 C95 1.399 . S
C91 C87 1.404 . S
C91 H92 0.950 . S
C91 C93 1.375 . S
H92 C91 0.950 . S
C93 C91 1.375 . S
C93 C95 1.382 . S
C93 H97 0.950 . S
H94 C89 0.949 . S
C95 C90 1.399 . S
C95 C93 1.382 . S
C95 H96 0.952 . S
H96 C95 0.952 . S
H97 C93 0.950 . S
H98 C99 0.949 . S
C99 H98 0.949 . S
C99 C100 1.395 . S
C99 C101 1.391 . S
C100 C99 1.395 . S
C100 C103 1.368 1_455 S
C101 C99 1.391 . S
C101 C105 1.387 . S
C101 C106 1.491 . S
H102 C103 0.971 . S
C103 C100 1.368 1_655 S
C103 H102 0.971 . S
C103 C104 1.380 . S
C104 C103 1.380 . S
C104 C105 1.409 1_655 S
C105 C101 1.387 . S
C105 C104 1.409 1_455 S
C105 H107 0.951 . S
C106 C101 1.491 . S
C106 C108 1.382 . S
C106 C110 1.404 . S
H107 C105 0.951 . S
C108 C106 1.382 . S
C108 C109 1.390 . S
C108 H113 0.949 . S
C109 C108 1.390 . S
C109 C114 1.399 . S
C110 C106 1.404 . S
C110 H111 0.950 . S
C110 C112 1.375 . S
H111 C110 0.950 . S
C112 C110 1.375 . S
C112 C114 1.382 . S
C112 H116 0.950 . S
H113 C108 0.949 . S
C114 C109 1.399 . S
C114 C112 1.382 . S
C114 H115 0.952 . S
H115 C114 0.952 . S
H116 C112 0.950 . S
H117 C118 0.949 1_655 S
C118 H117 0.949 1_455 S
C118 C119 1.395 . S
C118 C120 1.391 . S
C119 C118 1.395 . S
C119 C122 1.390 . S
C120 C118 1.391 . S
C120 C124 1.387 . S
C120 C125 1.491 1_455 S
H121 C122 0.950 . S
C122 C119 1.390 . S
C122 H121 0.950 . S
C122 C123 1.378 . S
C123 C122 1.378 . S
C123 C124 1.409 . S
C124 C120 1.387 . S
C124 C123 1.409 . S
C124 H126 0.951 . S
C125 C120 1.491 1_655 S
C125 C127 1.382 . S
C125 C129 1.404 . S
H126 C124 0.951 . S
C127 C125 1.382 . S
C127 C128 1.390 . S
C127 H132 0.949 . S
C128 C127 1.390 . S
C128 C133 1.399 . S
C129 C125 1.404 . S
C129 H130 0.950 1_655 S
C129 C131 1.375 . S
H130 C129 0.950 1_455 S
C131 C129 1.375 . S
C131 C133 1.382 . S
C131 H135 0.950 . S
H132 C127 0.949 . S
C133 C128 1.399 . S
C133 C131 1.382 . S
C133 H134 0.952 . S
H134 C133 0.952 . S
H135 C131 0.950 . S
H136 C137 0.949 . S
C137 H136 0.949 . S
C137 C138 1.395 . S
C137 C139 1.391 . S
C138 C137 1.395 . S
C138 C141 1.390 . S
C139 C137 1.391 . S
C139 C143 1.387 . S
C139 C144 1.491 . S
H140 C141 0.950 . S
C141 C138 1.390 . S
C141 H140 0.950 . S
C141 C142 1.378 . S
C142 C141 1.378 . S
C142 C143 1.409 . S
C143 C139 1.387 . S
C143 C142 1.409 . S
C143 H145 0.951 . S
C144 C139 1.491 . S
C144 C146 1.382 1_545 S
C144 C148 1.405 1_545 S
H145 C143 0.951 . S
C146 C144 1.382 1_565 S
C146 C147 1.390 . S
C146 H151 0.949 . S
C147 C146 1.390 . S
C147 C152 1.399 . S
C148 C144 1.405 1_565 S
C148 H149 0.931 1_565 S
C148 C150 1.393 . S
H149 C148 0.931 1_545 S
C150 C148 1.393 . S
C150 C152 1.382 . S
C150 H154 0.950 . S
H151 C146 0.949 . S
C152 C147 1.399 . S
C152 C150 1.382 . S
C152 H153 0.952 . S
H153 C152 0.952 . S
H154 C150 0.950 . S
H155 C156 0.949 . S
C156 H155 0.949 . S
C156 C157 1.395 . S
C156 C158 1.391 . S
C157 C156 1.395 . S
C157 C160 1.390 . S
C158 C156 1.391 . S
C158 C162 1.387 . S
C158 C163 1.491 . S
H159 C160 0.950 . S
C160 C157 1.390 . S
C160 H159 0.950 . S
C160 C161 1.378 . S
C161 C160 1.378 . S
C161 C162 1.409 . S
C162 C158 1.387 . S
C162 C161 1.409 . S
C162 H164 0.951 . S
C163 C158 1.491 . S
C163 C165 1.382 . S
C163 C167 1.404 . S
H164 C162 0.951 . S
C165 C163 1.382 . S
C165 C166 1.390 . S
C165 H170 0.949 . S
C166 C165 1.390 . S
C166 C171 1.399 . S
C167 C163 1.404 . S
C167 H168 0.950 . S
C167 C169 1.375 . S
H168 C167 0.950 . S
C169 C167 1.375 . S
C169 C171 1.382 . S
C169 H173 0.950 . S
H170 C165 0.949 . S
C171 C166 1.399 . S
C171 C169 1.382 . S
C171 H172 0.952 . S
H172 C171 0.952 . S
H173 C169 0.950 . S
H174 C175 0.951 . S
C175 H174 0.951 . S
C175 C181 1.265 . S
H176 C181 0.950 . S
H177 C185 0.949 . S
H178 C186 0.950 . S
H179 C187 0.951 . S
H180 C188 0.951 . S
C181 C175 1.265 . S
C181 H176 0.950 . S
C181 C182 1.478 . S
C182 C181 1.478 . S
C182 C183 1.397 . S
C182 C199 1.394 . S
C183 C182 1.397 . S
C183 C184 1.438 . S
C183 C188 1.429 . S
C184 C183 1.438 . S
C184 C185 1.428 . S
C184 C197 1.394 . S
C185 H177 0.949 . S
C185 C184 1.428 . S
C185 C186 1.345 . S
C186 H178 0.950 . S
C186 C185 1.345 . S
C186 C187 1.424 . S
C187 H179 0.951 . S
C187 C186 1.424 . S
C187 C188 1.347 . S
C188 H180 0.951 . S
C188 C183 1.429 . S
C188 C187 1.347 . S
H189 C190 0.951 . S
C190 H189 0.951 . S
C190 C196 1.265 . S
H191 C196 0.950 . S
H192 C200 0.949 . S
H193 C201 0.950 . S
H194 C202 0.951 . S
H195 C203 0.951 . S
C196 C190 1.265 . S
C196 H191 0.950 . S
C196 C197 1.478 . S
C197 C184 1.394 . S
C197 C196 1.478 . S
C197 C198 1.397 . S
C198 C197 1.397 . S
C198 C199 1.438 . S
C198 C203 1.429 . S
C199 C182 1.394 . S
C199 C198 1.438 . S
C199 C200 1.428 . S
C200 H192 0.949 . S
C200 C199 1.428 . S
C200 C201 1.345 . S
C201 H193 0.950 . S
C201 C200 1.345 . S
C201 C202 1.424 . S
C202 H194 0.951 . S
C202 C201 1.424 . S
C202 C203 1.347 . S
C203 H195 0.951 . S
C203 C198 1.429 . S
C203 C202 1.347 . S
H204 C205 0.951 . S
C205 H204 0.951 . S
C205 C211 1.265 . S
H206 C211 0.950 . S
H207 C215 0.949 . S
H208 C216 0.950 . S
H209 C217 0.951 . S
H210 C218 0.951 . S
C211 C205 1.265 . S
C211 H206 0.950 . S
C211 C212 1.478 . S
C212 C211 1.478 . S
C212 C213 1.397 . S
C212 C229 1.394 . S
C213 C212 1.397 . S
C213 C214 1.438 . S
C213 C218 1.429 . S
C214 C213 1.438 . S
C214 C215 1.428 . S
C214 C227 1.394 . S
C215 H207 0.949 . S
C215 C214 1.428 . S
C215 C216 1.345 . S
C216 H208 0.950 . S
C216 C215 1.345 . S
C216 C217 1.424 . S
C217 H209 0.951 . S
C217 C216 1.424 . S
C217 C218 1.347 . S
C218 H210 0.951 . S
C218 C213 1.429 . S
C218 C217 1.347 . S
H219 C220 0.951 . S
C220 H219 0.951 . S
C220 C226 1.265 . S
H221 C226 0.950 . S
H222 C230 0.949 . S
H223 C231 0.950 . S
H224 C232 0.951 . S
H225 C233 0.951 . S
C226 C220 1.265 . S
C226 H221 0.950 . S
C226 C227 1.478 . S
C227 C214 1.394 . S
C227 C226 1.478 . S
C227 C228 1.397 . S
C228 C227 1.397 . S
C228 C229 1.438 . S
C228 C233 1.429 . S
C229 C212 1.394 . S
C229 C228 1.438 . S
C229 C230 1.428 . S
C230 H222 0.949 . S
C230 C229 1.428 . S
C230 C231 1.345 . S
C231 H223 0.950 . S
C231 C230 1.345 . S
C231 C232 1.424 . S
C232 H224 0.951 . S
C232 C231 1.424 . S
C232 C233 1.347 . S
C233 H225 0.951 . S
C233 C228 1.429 . S
C233 C232 1.347 . S
H234 C235 0.951 . S
C235 H234 0.951 . S
C235 C241 1.265 . S
H236 C241 0.950 . S
H237 C245 0.949 . S
H238 C246 0.950 . S
H239 C247 0.951 . S
H240 C248 0.951 . S
C241 C235 1.265 . S
C241 H236 0.950 . S
C241 C242 1.478 . S
C242 C241 1.478 . S
C242 C243 1.397 . S
C242 C259 1.394 . S
C243 C242 1.397 . S
C243 C244 1.438 . S
C243 C248 1.429 . S
C244 C243 1.438 . S
C244 C245 1.428 . S
C244 C257 1.394 . S
C245 H237 0.949 . S
C245 C244 1.428 . S
C245 C246 1.345 . S
C246 H238 0.950 . S
C246 C245 1.345 . S
C246 C247 1.424 . S
C247 H239 0.951 . S
C247 C246 1.424 . S
C247 C248 1.347 . S
C248 H240 0.951 . S
C248 C243 1.429 . S
C248 C247 1.347 . S
H249 C250 0.951 . S
C250 H249 0.951 . S
C250 C256 1.265 . S
H251 C256 0.950 . S
H252 C260 0.949 . S
H253 C261 0.950 . S
H254 C262 0.951 . S
H255 C263 0.951 . S
C256 C250 1.265 . S
C256 H251 0.950 . S
C256 C257 1.478 . S
C257 C244 1.394 . S
C257 C256 1.478 . S
C257 C258 1.397 . S
C258 C257 1.397 . S
C258 C259 1.438 . S
C258 C263 1.429 . S
C259 C242 1.394 . S
C259 C258 1.438 . S
C259 C260 1.428 . S
C260 H252 0.949 . S
C260 C259 1.428 . S
C260 C261 1.345 . S
C261 H253 0.950 . S
C261 C260 1.345 . S
C261 C262 1.424 . S
C262 H254 0.951 . S
C262 C261 1.424 . S
C262 C263 1.347 . S
C263 H255 0.951 . S
C263 C258 1.429 . S
C263 C262 1.347 . S
H264 C265 0.951 . S
C265 H264 0.951 . S
C265 C271 1.265 . S
H266 C271 0.950 . S
H267 C275 0.949 . S
H268 C276 0.950 . S
H269 C277 0.951 . S
H270 C278 0.951 . S
C271 C265 1.265 . S
C271 H266 0.950 . S
C271 C272 1.478 . S
C272 C271 1.478 . S
C272 C273 1.397 . S
C272 C289 1.394 . S
C273 C272 1.397 . S
C273 C274 1.438 . S
C273 C278 1.429 . S
C274 C273 1.438 . S
C274 C275 1.428 . S
C274 C287 1.394 . S
C275 H267 0.949 . S
C275 C274 1.428 . S
C275 C276 1.345 . S
C276 H268 0.950 . S
C276 C275 1.345 . S
C276 C277 1.424 . S
C277 H269 0.951 . S
C277 C276 1.424 . S
C277 C278 1.347 . S
C278 H270 0.951 . S
C278 C273 1.429 . S
C278 C277 1.347 . S
H279 C280 0.951 . S
C280 H279 0.951 . S
C280 C286 1.265 . S
H281 C286 0.950 . S
H282 C290 0.949 . S
H283 C291 0.950 . S
H284 C292 0.951 . S
H285 C293 0.951 . S
C286 C280 1.265 . S
C286 H281 0.950 . S
C286 C287 1.478 . S
C287 C274 1.394 . S
C287 C286 1.478 . S
C287 C288 1.397 . S
C288 C287 1.397 . S
C288 C289 1.438 . S
C288 C293 1.429 . S
C289 C272 1.394 . S
C289 C288 1.438 . S
C289 C290 1.428 . S
C290 H282 0.949 . S
C290 C289 1.428 . S
C290 C291 1.345 . S
C291 H283 0.950 . S
C291 C290 1.345 . S
C291 C292 1.424 . S
C292 H284 0.951 . S
C292 C291 1.424 . S
C292 C293 1.347 . S
C293 H285 0.951 . S
C293 C288 1.429 . S
C293 C292 1.347 . S
H294 C295 0.951 . S
C295 H294 0.951 . S
C295 C301 1.265 . S
H296 C301 0.950 . S
H297 C305 0.949 . S
H298 C306 0.950 . S
H299 C307 0.951 . S
H300 C308 0.951 . S
C301 C295 1.265 . S
C301 H296 0.950 . S
C301 C302 1.478 . S
C302 C301 1.478 . S
C302 C303 1.397 . S
C302 C319 1.394 . S
C303 C302 1.397 . S
C303 C304 1.438 . S
C303 C308 1.429 . S
C304 C303 1.438 . S
C304 C305 1.428 . S
C304 C317 1.394 . S
C305 H297 0.949 . S
C305 C304 1.428 . S
C305 C306 1.345 . S
C306 H298 0.950 . S
C306 C305 1.345 . S
C306 C307 1.424 . S
C307 H299 0.951 . S
C307 C306 1.424 . S
C307 C308 1.347 . S
C308 H300 0.951 . S
C308 C303 1.429 . S
C308 C307 1.347 . S
H309 C310 0.951 . S
C310 H309 0.951 . S
C310 C316 1.265 . S
H311 C316 0.950 . S
H312 C320 0.949 . S
H313 C321 0.950 . S
H314 C322 0.951 . S
H315 C323 0.951 . S
C316 C310 1.265 . S
C316 H311 0.950 . S
C316 C317 1.478 . S
C317 C304 1.394 . S
C317 C316 1.478 . S
C317 C318 1.397 . S
C318 C317 1.397 . S
C318 C319 1.438 . S
C318 C323 1.429 . S
C319 C302 1.394 . S
C319 C318 1.438 . S
C319 C320 1.428 . S
C320 H312 0.949 . S
C320 C319 1.428 . S
C320 C321 1.345 . S
C321 H313 0.950 . S
C321 C320 1.345 . S
C321 C322 1.424 . S
C322 H314 0.951 . S
C322 C321 1.424 . S
C322 C323 1.347 . S
C323 H315 0.951 . S
C323 C318 1.429 . S
C323 C322 1.347 . S
H324 C325 0.951 . S
C325 H324 0.951 . S
C325 C331 1.265 . S
H326 C331 0.950 . S
H327 C335 0.949 . S
H328 C336 0.950 . S
H329 C337 0.951 . S
H330 C338 0.951 . S
C331 C325 1.265 . S
C331 H326 0.950 . S
C331 C332 1.478 . S
C332 C331 1.478 . S
C332 C333 1.397 . S
C332 C349 1.394 . S
C333 C332 1.397 . S
C333 C334 1.438 . S
C333 C338 1.429 . S
C334 C333 1.438 . S
C334 C335 1.428 . S
C334 C347 1.394 . S
C335 H327 0.949 . S
C335 C334 1.428 . S
C335 C336 1.345 . S
C336 H328 0.950 . S
C336 C335 1.345 . S
C336 C337 1.424 . S
C337 H329 0.951 . S
C337 C336 1.424 . S
C337 C338 1.347 . S
C338 H330 0.951 . S
C338 C333 1.429 . S
C338 C337 1.347 . S
H339 C340 0.951 . S
C340 H339 0.951 . S
C340 C346 1.265 . S
H341 C346 0.950 . S
H342 C350 0.949 . S
H343 C351 0.950 . S
H344 C352 0.951 . S
H345 C353 0.951 . S
C346 C340 1.265 . S
C346 H341 0.950 . S
C346 C347 1.478 . S
C347 C334 1.394 . S
C347 C346 1.478 . S
C347 C348 1.397 . S
C348 C347 1.397 . S
C348 C349 1.438 . S
C348 C353 1.429 . S
C349 C332 1.394 . S
C349 C348 1.438 . S
C349 C350 1.428 . S
C350 H342 0.949 . S
C350 C349 1.428 . S
C350 C351 1.345 . S
C351 H343 0.950 . S
C351 C350 1.345 . S
C351 C352 1.424 . S
C352 H344 0.951 . S
C352 C351 1.424 . S
C352 C353 1.347 . S
C353 H345 0.951 . S
C353 C348 1.429 . S
C353 C352 1.347 . S
H354 C355 0.951 . S
C355 H354 0.951 . S
C355 C361 1.265 . S
H356 C361 0.950 . S
H357 C365 0.949 . S
H358 C366 0.950 . S
H359 C367 0.951 . S
H360 C368 0.951 . S
C361 C355 1.265 . S
C361 H356 0.950 . S
C361 C362 1.478 . S
C362 C361 1.478 . S
C362 C363 1.397 . S
C362 C379 1.394 . S
C363 C362 1.397 . S
C363 C364 1.438 . S
C363 C368 1.429 . S
C364 C363 1.438 . S
C364 C365 1.428 . S
C364 C377 1.394 . S
C365 H357 0.949 . S
C365 C364 1.428 . S
C365 C366 1.345 . S
C366 H358 0.950 . S
C366 C365 1.345 . S
C366 C367 1.424 . S
C367 H359 0.951 . S
C367 C366 1.424 . S
C367 C368 1.347 . S
C368 H360 0.951 . S
C368 C363 1.429 . S
C368 C367 1.347 . S
H369 C370 0.951 . S
C370 H369 0.951 . S
C370 C376 1.265 . S
H371 C376 0.950 . S
H372 C380 0.949 . S
H373 C381 0.950 . S
H374 C382 0.951 . S
H375 C383 0.951 . S
C376 C370 1.265 . S
C376 H371 0.950 . S
C376 C377 1.478 . S
C377 C364 1.394 . S
C377 C376 1.478 . S
C377 C378 1.397 . S
C378 C377 1.397 . S
C378 C379 1.438 . S
C378 C383 1.429 . S
C379 C362 1.394 . S
C379 C378 1.438 . S
C379 C380 1.428 . S
C380 H372 0.949 . S
C380 C379 1.428 . S
C380 C381 1.345 . S
C381 H373 0.950 . S
C381 C380 1.345 . S
C381 C382 1.424 . S
C382 H374 0.951 . S
C382 C381 1.424 . S
C382 C383 1.347 . S
C383 H375 0.951 . S
C383 C378 1.429 . S
C383 C382 1.347 . S
H384 C385 0.951 . S
C385 H384 0.951 . S
C385 C391 1.265 . S
H386 C391 0.950 . S
H387 C395 0.949 . S
H388 C396 0.950 . S
H389 C397 0.951 . S
H390 C398 0.951 . S
C391 C385 1.265 . S
C391 H386 0.950 . S
C391 C392 1.478 . S
C392 C391 1.478 . S
C392 C393 1.397 . S
C392 C409 1.394 . S
C393 C392 1.397 . S
C393 C394 1.438 . S
C393 C398 1.429 . S
C394 C393 1.438 . S
C394 C395 1.428 . S
C394 C407 1.394 . S
C395 H387 0.949 . S
C395 C394 1.428 . S
C395 C396 1.345 . S
C396 H388 0.950 . S
C396 C395 1.345 . S
C396 C397 1.424 . S
C397 H389 0.951 . S
C397 C396 1.424 . S
C397 C398 1.347 . S
C398 H390 0.951 . S
C398 C393 1.429 . S
C398 C397 1.347 . S
H399 C400 0.951 . S
C400 H399 0.951 . S
C400 C406 1.265 . S
H401 C406 0.950 . S
H402 C410 0.949 . S
H403 C411 0.950 . S
H404 C412 0.951 . S
H405 C413 0.951 . S
C406 C400 1.265 . S
C406 H401 0.950 . S
C406 C407 1.478 . S
C407 C394 1.394 . S
C407 C406 1.478 . S
C407 C408 1.397 . S
C408 C407 1.397 . S
C408 C409 1.438 . S
C408 C413 1.429 . S
C409 C392 1.394 . S
C409 C408 1.438 . S
C409 C410 1.428 . S
C410 H402 0.949 . S
C410 C409 1.428 . S
C410 C411 1.345 . S
C411 H403 0.950 . S
C411 C410 1.345 . S
C411 C412 1.424 . S
C412 H404 0.951 . S
C412 C411 1.424 . S
C412 C413 1.347 . S
C413 H405 0.951 . S
C413 C408 1.429 . S
C413 C412 1.347 . S
H414 C415 0.951 . S
C415 H414 0.951 . S
C415 C421 1.265 . S
H416 C421 0.950 . S
H417 C425 0.949 . S
H418 C426 0.950 . S
H419 C427 0.951 . S
H420 C428 0.951 . S
C421 C415 1.265 . S
C421 H416 0.950 . S
C421 C422 1.478 . S
C422 C421 1.478 . S
C422 C423 1.397 . S
C422 C439 1.394 . S
C423 C422 1.397 . S
C423 C424 1.438 . S
C423 C428 1.429 . S
C424 C423 1.438 . S
C424 C425 1.428 . S
C424 C437 1.394 . S
C425 H417 0.949 . S
C425 C424 1.428 . S
C425 C426 1.345 . S
C426 H418 0.950 . S
C426 C425 1.345 . S
C426 C427 1.424 . S
C427 H419 0.951 . S
C427 C426 1.424 . S
C427 C428 1.347 . S
C428 H420 0.951 . S
C428 C423 1.429 . S
C428 C427 1.347 . S
H429 C430 0.951 . S
C430 H429 0.951 . S
C430 C436 1.265 . S
H431 C436 0.950 . S
H432 C440 0.949 . S
H433 C441 0.950 . S
H434 C442 0.951 . S
H435 C443 0.951 . S
C436 C430 1.265 . S
C436 H431 0.950 . S
C436 C437 1.478 . S
C437 C424 1.394 . S
C437 C436 1.478 . S
C437 C438 1.397 . S
C438 C437 1.397 . S
C438 C439 1.438 . S
C438 C443 1.429 . S
C439 C422 1.394 . S
C439 C438 1.438 . S
C439 C440 1.428 . S
C440 H432 0.949 . S
C440 C439 1.428 . S
C440 C441 1.345 . S
C441 H433 0.950 . S
C441 C440 1.345 . S
C441 C442 1.424 . S
C442 H434 0.951 . S
C442 C441 1.424 . S
C442 C443 1.347 . S
C443 H435 0.951 . S
C443 C438 1.429 . S
C443 C442 1.347 . S
H444 C445 0.951 . S
C445 H444 0.951 . S
C445 C451 1.265 . S
H446 C451 0.950 . S
H447 C455 0.949 . S
H448 C456 0.950 . S
H449 C457 0.951 . S
H450 C458 0.951 . S
C451 C445 1.265 . S
C451 H446 0.950 . S
C451 C452 1.478 . S
C452 C451 1.478 . S
C452 C453 1.397 . S
C452 C469 1.394 . S
C453 C452 1.397 . S
C453 C454 1.438 . S
C453 C458 1.429 . S
C454 C453 1.438 . S
C454 C455 1.428 . S
C454 C467 1.394 . S
C455 H447 0.949 . S
C455 C454 1.428 . S
C455 C456 1.345 . S
C456 H448 0.950 . S
C456 C455 1.345 . S
C456 C457 1.424 . S
C457 H449 0.951 . S
C457 C456 1.424 . S
C457 C458 1.347 . S
C458 H450 0.951 . S
C458 C453 1.429 . S
C458 C457 1.347 . S
H459 C460 0.951 . S
C460 H459 0.951 . S
C460 C466 1.265 . S
H461 C466 0.950 . S
H462 C470 0.949 . S
H463 C471 0.950 . S
H464 C472 0.951 . S
H465 C473 0.951 . S
C466 C460 1.265 . S
C466 H461 0.950 . S
C466 C467 1.478 . S
C467 C454 1.394 . S
C467 C466 1.478 . S
C467 C468 1.397 . S
C468 C467 1.397 . S
C468 C469 1.438 . S
C468 C473 1.429 . S
C469 C452 1.394 . S
C469 C468 1.438 . S
C469 C470 1.428 . S
C470 H462 0.949 . S
C470 C469 1.428 . S
C470 C471 1.345 . S
C471 H463 0.950 . S
C471 C470 1.345 . S
C471 C472 1.424 . S
C472 H464 0.951 . S
C472 C471 1.424 . S
C472 C473 1.347 . S
C473 H465 0.951 . S
C473 C468 1.429 . S
C473 C472 1.347 . S
H474 C475 0.951 . S
C475 H474 0.951 . S
C475 C481 1.265 . S
H476 C481 0.950 . S
H477 C485 0.949 . S
H478 C486 0.950 . S
H479 C487 0.951 . S
H480 C488 0.951 . S
C481 C475 1.265 . S
C481 H476 0.950 . S
C481 C482 1.478 . S
C482 C481 1.478 . S
C482 C483 1.397 . S
C482 C499 1.394 . S
C483 C482 1.397 . S
C483 C484 1.438 . S
C483 C488 1.429 . S
C484 C483 1.438 . S
C484 C485 1.428 . S
C484 C497 1.394 . S
C485 H477 0.949 . S
C485 C484 1.428 . S
C485 C486 1.345 . S
C486 H478 0.950 . S
C486 C485 1.345 . S
C486 C487 1.424 . S
C487 H479 0.951 . S
C487 C486 1.424 . S
C487 C488 1.347 . S
C488 H480 0.951 . S
C488 C483 1.429 . S
C488 C487 1.347 . S
H489 C490 0.951 . S
C490 H489 0.951 . S
C490 C496 1.265 . S
H491 C496 0.950 . S
H492 C500 0.949 . S
H493 C501 0.950 . S
H494 C502 0.951 . S
H495 C503 0.951 . S
C496 C490 1.265 . S
C496 H491 0.950 . S
C496 C497 1.478 . S
C497 C484 1.394 . S
C497 C496 1.478 . S
C497 C498 1.397 . S
C498 C497 1.397 . S
C498 C499 1.438 . S
C498 C503 1.429 . S
C499 C482 1.394 . S
C499 C498 1.438 . S
C499 C500 1.428 . S
C500 H492 0.949 . S
C500 C499 1.428 . S
C500 C501 1.345 . S
C501 H493 0.950 . S
C501 C500 1.345 . S
C501 C502 1.424 . S
C502 H494 0.951 . S
C502 C501 1.424 . S
C502 C503 1.347 . S
C503 H495 0.951 . S
C503 C498 1.429 . S
C503 C502 1.347 . S
H504 C505 0.951 . S
C505 H504 0.951 . S
C505 C511 1.265 . S
H506 C511 0.950 . S
H507 C515 0.949 . S
H508 C516 0.950 . S
H509 C517 0.951 . S
H510 C518 0.951 . S
C511 C505 1.265 . S
C511 H506 0.950 . S
C511 C512 1.478 . S
C512 C511 1.478 . S
C512 C513 1.397 . S
C512 C529 1.394 . S
C513 C512 1.397 . S
C513 C514 1.438 . S
C513 C518 1.429 . S
C514 C513 1.438 . S
C514 C515 1.428 . S
C514 C527 1.394 . S
C515 H507 0.949 . S
C515 C514 1.428 . S
C515 C516 1.345 . S
C516 H508 0.950 . S
C516 C515 1.345 . S
C516 C517 1.424 . S
C517 H509 0.951 . S
C517 C516 1.424 . S
C517 C518 1.347 . S
C518 H510 0.951 . S
C518 C513 1.429 . S
C518 C517 1.347 . S
H519 C520 0.951 . S
C520 H519 0.951 . S
C520 C526 1.265 . S
H521 C526 0.950 . S
H522 C530 0.949 . S
H523 C531 0.950 . S
H524 C532 0.951 . S
H525 C533 0.951 . S
C526 C520 1.265 . S
C526 H521 0.950 . S
C526 C527 1.478 . S
C527 C514 1.394 . S
C527 C526 1.478 . S
C527 C528 1.397 . S
C528 C527 1.397 . S
C528 C529 1.438 . S
C528 C533 1.429 . S
C529 C512 1.394 . S
C529 C528 1.438 . S
C529 C530 1.428 . S
C530 H522 0.949 . S
C530 C529 1.428 . S
C530 C531 1.345 . S
C531 H523 0.950 . S
C531 C530 1.345 . S
C531 C532 1.424 . S
C532 H524 0.951 . S
C532 C531 1.424 . S
C532 C533 1.347 . S
C533 H525 0.951 . S
C533 C528 1.429 . S
C533 C532 1.347 . S
H534 C535 0.951 1_655 S
C535 H534 0.951 1_455 S
C535 C541 1.265 . S
H536 C541 0.950 . S
H537 C545 0.949 . S
H538 C546 0.950 . S
H539 C547 0.951 . S
H540 C548 0.951 . S
C541 C535 1.265 . S
C541 H536 0.950 . S
C541 C542 1.478 . S
C542 C541 1.478 . S
C542 C543 1.397 . S
C542 C559 1.394 . S
C543 C542 1.397 . S
C543 C544 1.438 1_554 S
C543 C548 1.429 . S
C544 C543 1.438 1_556 S
C544 C545 1.428 . S
C544 C557 1.394 . S
C545 H537 0.949 . S
C545 C544 1.428 . S
C545 C546 1.345 . S
C546 H538 0.950 . S
C546 C545 1.345 . S
C546 C547 1.424 1_556 S
C547 H539 0.951 . S
C547 C546 1.424 1_554 S
C547 C548 1.347 . S
C548 H540 0.951 . S
C548 C543 1.429 . S
C548 C547 1.347 . S
H549 C550 0.951 . S
C550 H549 0.951 . S
C550 C556 1.265 . S
H551 C556 0.950 1_655 S
H552 C560 0.949 . S
H553 C561 0.950 . S
H554 C562 0.951 1_556 S
H555 C563 0.951 . S
C556 C550 1.265 . S
C556 H551 0.950 1_455 S
C556 C557 1.478 . S
C557 C544 1.394 . S
C557 C556 1.478 . S
C557 C558 1.383 1_556 S
C558 C557 1.383 1_554 S
C558 C559 1.473 . S
C558 C563 1.409 1_554 S
C559 C542 1.394 . S
C559 C558 1.473 . S
C559 C560 1.428 . S
C560 H552 0.949 . S
C560 C559 1.428 . S
C560 C561 1.345 . S
C561 H553 0.950 . S
C561 C560 1.345 . S
C561 C562 1.424 . S
C562 H554 0.951 1_554 S
C562 C561 1.424 . S
C562 C563 1.347 1_554 S
C563 H555 0.951 . S
C563 C558 1.409 1_556 S
C563 C562 1.347 1_556 S
H564 C565 0.951 . S
C565 H564 0.951 . S
C565 C571 1.265 . S
H566 C571 0.950 . S
H567 C575 0.949 . S
H568 C576 0.950 . S
H569 C577 0.951 . S
H570 C578 0.951 . S
C571 C565 1.265 . S
C571 H566 0.950 . S
C571 C572 1.478 . S
C572 C571 1.478 . S
C572 C573 1.397 . S
C572 C589 1.394 . S
C573 C572 1.397 . S
C573 C574 1.438 . S
C573 C578 1.429 . S
C574 C573 1.438 . S
C574 C575 1.428 . S
C574 C587 1.394 . S
C575 H567 0.949 . S
C575 C574 1.428 . S
C575 C576 1.345 . S
C576 H568 0.950 . S
C576 C575 1.345 . S
C576 C577 1.424 . S
C577 H569 0.951 . S
C577 C576 1.424 . S
C577 C578 1.347 . S
C578 H570 0.951 . S
C578 C573 1.429 . S
C578 C577 1.347 . S
H579 C580 0.951 . S
C580 H579 0.951 . S
C580 C586 1.265 . S
H581 C586 0.950 . S
H582 C590 0.949 . S
H583 C591 0.950 . S
H584 C592 0.951 . S
H585 C593 0.951 . S
C586 C580 1.265 . S
C586 H581 0.950 . S
C586 C587 1.478 . S
C587 C574 1.394 . S
C587 C586 1.478 . S
C587 C588 1.397 . S
C588 C587 1.397 . S
C588 C589 1.438 . S
C588 C593 1.429 1_545 S
C589 C572 1.394 . S
C589 C588 1.438 . S
C589 C590 1.428 1_545 S
C590 H582 0.949 . S
C590 C589 1.428 1_565 S
C590 C591 1.345 . S
C591 H583 0.950 . S
C591 C590 1.345 . S
C591 C592 1.424 . S
C592 H584 0.951 . S
C592 C591 1.424 . S
C592 C593 1.347 . S
C593 H585 0.951 . S
C593 C588 1.429 1_565 S
C593 C592 1.347 . S
H594 C595 0.951 . S
C595 H594 0.951 . S
C595 C601 1.265 . S
H596 C601 0.950 . S
H597 C605 0.949 . S
H598 C606 0.950 . S
H599 C607 0.951 . S
H600 C608 0.951 . S
C601 C595 1.265 . S
C601 H596 0.950 . S
C601 C602 1.478 . S
C602 C601 1.478 . S
C602 C603 1.397 . S
C602 C619 1.394 . S
C603 C602 1.397 . S
C603 C604 1.438 . S
C603 C608 1.429 . S
C604 C603 1.438 . S
C604 C605 1.428 . S
C604 C617 1.394 . S
C605 H597 0.949 . S
C605 C604 1.428 . S
C605 C606 1.345 . S
C606 H598 0.950 . S
C606 C605 1.345 . S
C606 C607 1.424 . S
C607 H599 0.951 . S
C607 C606 1.424 . S
C607 C608 1.347 . S
C608 H600 0.951 . S
C608 C603 1.429 . S
C608 C607 1.347 . S
H609 C610 0.951 . S
C610 H609 0.951 . S
C610 C616 1.265 . S
H611 C616 0.950 . S
H612 C620 0.949 . S
H613 C621 0.950 . S
H614 C622 0.951 . S
H615 C623 0.951 . S
C616 C610 1.265 . S
C616 H611 0.950 . S
C616 C617 1.478 . S
C617 C604 1.394 . S
C617 C616 1.478 . S
C617 C618 1.397 . S
C618 C617 1.397 . S
C618 C619 1.438 . S
C618 C623 1.429 . S
C619 C602 1.394 . S
C619 C618 1.438 . S
C619 C620 1.428 . S
C620 H612 0.949 . S
C620 C619 1.428 . S
C620 C621 1.345 . S
C621 H613 0.950 . S
C621 C620 1.345 . S
C621 C622 1.424 . S
C622 H614 0.951 . S
C622 C621 1.424 . S
C622 C623 1.347 . S
C623 H615 0.951 . S
C623 C618 1.429 . S
C623 C622 1.347 . S
H624 C625 0.951 . S
C625 H624 0.951 . S
C625 C631 1.265 . S
H626 C631 0.950 . S
H627 C635 0.949 . S
H628 C636 0.950 . S
H629 C637 0.951 . S
H630 C638 0.951 . S
C631 C625 1.265 . S
C631 H626 0.950 . S
C631 C632 1.478 . S
C632 C631 1.478 . S
C632 C633 1.397 . S
C632 C649 1.394 . S
C633 C632 1.397 . S
C633 C634 1.438 . S
C633 C638 1.429 . S
C634 C633 1.438 . S
C634 C635 1.428 . S
C634 C647 1.394 . S
C635 H627 0.949 . S
C635 C634 1.428 . S
C635 C636 1.345 . S
C636 H628 0.950 . S
C636 C635 1.345 . S
C636 C637 1.424 . S
C637 H629 0.951 . S
C637 C636 1.424 . S
C637 C638 1.347 . S
C638 H630 0.951 . S
C638 C633 1.429 . S
C638 C637 1.347 . S
H639 C640 0.951 . S
C640 H639 0.951 . S
C640 C646 1.265 . S
H641 C646 0.950 . S
H642 C650 0.949 . S
H643 C651 0.950 . S
H644 C652 0.951 . S
H645 C653 0.951 . S
C646 C640 1.265 . S
C646 H641 0.950 . S
C646 C647 1.478 . S
C647 C634 1.394 . S
C647 C646 1.478 . S
C647 C648 1.397 . S
C648 C647 1.397 . S
C648 C649 1.438 . S
C648 C653 1.429 1_545 S
C649 C632 1.394 . S
C649 C648 1.438 . S
C649 C650 1.428 1_545 S
C650 H642 0.949 . S
C650 C649 1.428 1_565 S
C650 C651 1.345 . S
C651 H643 0.950 . S
C651 C650 1.345 . S
C651 C652 1.424 . S
C652 H644 0.951 . S
C652 C651 1.424 . S
C652 C653 1.347 . S
C653 H645 0.951 . S
C653 C648 1.429 1_565 S
C653 C652 1.347 . S
H654 C655 0.951 . S
C655 H654 0.951 . S
C655 C661 1.265 . S
H656 C661 0.950 . S
H657 C665 0.949 . S
H658 C666 0.950 . S
H659 C667 0.951 . S
H660 C668 0.951 . S
C661 C655 1.265 . S
C661 H656 0.950 . S
C661 C662 1.478 . S
C662 C661 1.478 . S
C662 C663 1.397 . S
C662 C679 1.394 . S
C663 C662 1.397 . S
C663 C664 1.438 . S
C663 C668 1.429 . S
C664 C663 1.438 . S
C664 C665 1.428 1_556 S
C664 C677 1.394 1_556 S
C665 H657 0.949 . S
C665 C664 1.428 1_554 S
C665 C666 1.345 1_554 S
C666 H658 0.950 . S
C666 C665 1.345 1_556 S
C666 C667 1.424 . S
C667 H659 0.951 . S
C667 C666 1.424 . S
C667 C668 1.347 . S
C668 H660 0.951 . S
C668 C663 1.429 . S
C668 C667 1.347 . S
H669 C670 0.951 . S
C670 H669 0.951 . S
C670 C676 1.265 . S
H671 C676 0.950 . S
H672 C680 0.949 . S
H673 C681 0.950 . S
H674 C682 0.951 . S
H675 C683 0.951 . S
C676 C670 1.265 . S
C676 H671 0.950 . S
C676 C677 1.478 . S
C677 C664 1.394 1_554 S
C677 C676 1.478 . S
C677 C678 1.397 . S
C678 C677 1.397 . S
C678 C679 1.438 1_554 S
C678 C683 1.429 . S
C679 C662 1.394 . S
C679 C678 1.438 1_556 S
C679 C680 1.428 . S
C680 H672 0.949 . S
C680 C679 1.428 . S
C680 C681 1.345 . S
C681 H673 0.950 . S
C681 C680 1.345 . S
C681 C682 1.424 1_556 S
C682 H674 0.951 . S
C682 C681 1.424 1_554 S
C682 C683 1.347 . S
C683 H675 0.951 . S
C683 C678 1.429 . S
C683 C682 1.347 . S
H684 C685 0.951 1_655 S
C685 H684 0.951 1_455 S
C685 C691 1.265 . S
H686 C691 0.950 . S
H687 C695 0.949 . S
H688 C696 0.950 . S
H689 C697 0.951 . S
H690 C698 0.951 . S
C691 C685 1.265 . S
C691 H686 0.950 . S
C691 C692 1.478 . S
C692 C691 1.478 . S
C692 C693 1.397 . S
C692 C709 1.394 . S
C693 C692 1.397 . S
C693 C694 1.438 . S
C693 C698 1.429 . S
C694 C693 1.438 . S
C694 C695 1.428 . S
C694 C707 1.394 . S
C695 H687 0.949 . S
C695 C694 1.428 . S
C695 C696 1.345 . S
C696 H688 0.950 . S
C696 C695 1.345 . S
C696 C697 1.424 . S
C697 H689 0.951 . S
C697 C696 1.424 . S
C697 C698 1.347 . S
C698 H690 0.951 . S
C698 C693 1.429 . S
C698 C697 1.347 . S
H699 C700 0.951 . S
C700 H699 0.951 . S
C700 C706 1.265 . S
H701 C706 0.950 1_655 S
H702 C710 0.949 . S
H703 C711 0.950 . S
H704 C712 0.951 . S
H705 C713 0.951 . S
C706 C700 1.265 . S
C706 H701 0.950 1_455 S
C706 C707 1.478 . S
C707 C694 1.394 . S
C707 C706 1.478 . S
C707 C708 1.397 1_455 S
C708 C707 1.397 1_655 S
C708 C709 1.438 1_655 S
C708 C713 1.429 . S
C709 C692 1.394 . S
C709 C708 1.438 1_455 S
C709 C710 1.428 1_455 S
C710 H702 0.949 . S
C710 C709 1.428 1_655 S
C710 C711 1.345 . S
C711 H703 0.950 . S
C711 C710 1.345 . S
C711 C712 1.424 . S
C712 H704 0.951 . S
C712 C711 1.424 . S
C712 C713 1.347 . S
C713 H705 0.951 . S
C713 C708 1.429 . S
C713 C712 1.347 . S
C175 C2 1.433 . S
C190 C166 1.539 . S
C205 C22 1.527 . S
C220 C128 1.487 . S
C235 C44 1.556 . S
C250 C147 1.482 . S
C265 C4 1.350 . S
C280 C161 1.489 . S
C310 C123 1.495 . S
C295 C24 1.362 . S
C340 C142 1.503 . S
C325 C42 1.446 . S
C355 C32 1.449 . S
C370 C90 1.472 . S
C385 C49 1.071 . S
C400 C104 1.122 . S
C415 C9 1.086 . S
C430 C66 1.099 1_565 S
C460 C85 1.179 . S
C445 C29 1.194 . S
C490 C109 1.404 . S
C475 C52 1.311 . S
C505 C12 1.406 . S
C520 C71 1.301 . S
C550 C100 1.559 . S
C535 C18 1.538 . S
C565 C38 1.511 . S
C580 C62 1.476 . S
C595 C58 1.468 . S
C610 C81 1.522 . S
C640 C138 1.550 . S
C625 C39 1.551 . S
C670 C157 1.573 . S
C655 C59 1.549 . S
C685 C19 1.574 . S
C700 C119 1.549 . S
