# Generated by pormake.
# Topology pyr, (3,6)-cn, num edge types: 1
# Building blocks:
#     Node 0, Type 0, BuildingBlock: MIDCAF_clean_linker_0, # of connection points: 3
#     Node 1, Type 0, BuildingBlock: MIDCAF_clean_linker_0, # of connection points: 3
#     Node 2, Type 0, BuildingBlock: MIDCAF_clean_linker_0, # of connection points: 3
#     Node 3, Type 0, BuildingBlock: MIDCAF_clean_linker_0, # of connection points: 3
#     Node 4, Type 0, BuildingBlock: MIDCAF_clean_linker_0, # of connection points: 3
#     Node 5, Type 0, BuildingBlock: MIDCAF_clean_linker_0, # of connection points: 3
#     Node 6, Type 0, BuildingBlock: MIDCAF_clean_linker_0, # of connection points: 3
#     Node 7, Type 0, BuildingBlock: MIDCAF_clean_linker_0, # of connection points: 3
#     Node 8, Type 1, BuildingBlock: BETFAJ_clean_sbu_0, # of connection points: 6
#     Node 9, Type 1, BuildingBlock: BETFAJ_clean_sbu_0, # of connection points: 6
#     Node 10, Type 1, BuildingBlock: BETFAJ_clean_sbu_0, # of connection points: 6
#     Node 11, Type 1, BuildingBlock: BETFAJ_clean_sbu_0, # of connection points: 6
#     Edge 12, Type (0, 1), None
#     Edge 13, Type (0, 1), None
#     Edge 14, Type (0, 1), None
#     Edge 15, Type (0, 1), None
#     Edge 16, Type (0, 1), None
#     Edge 17, Type (0, 1), None
#     Edge 18, Type (0, 1), None
#     Edge 19, Type (0, 1), None
#     Edge 20, Type (0, 1), None
#     Edge 21, Type (0, 1), None
#     Edge 22, Type (0, 1), None
#     Edge 23, Type (0, 1), None
#     Edge 24, Type (0, 1), None
#     Edge 25, Type (0, 1), None
#     Edge 26, Type (0, 1), None
#     Edge 27, Type (0, 1), None
#     Edge 28, Type (0, 1), None
#     Edge 29, Type (0, 1), None
#     Edge 30, Type (0, 1), None
#     Edge 31, Type (0, 1), None
#     Edge 32, Type (0, 1), None
#     Edge 33, Type (0, 1), None
#     Edge 34, Type (0, 1), None
#     Edge 35, Type (0, 1), None
# Relax obj value: 0.231
# Max RMSD: 0.157
# Mean RMSD: 0.077
data_MOF--net-pyr--node1-BETFAJ_clean_sbu_0--node2-MIDCAF_clean_linker_0--edge1-none
_symmetry_space_group_name_H-M    P1
_symmetry_Int_Tables_number       1
_symmetry_cell_setting            triclinic
loop_
_symmetry_equiv_pos_as_xyz
'x, y, z'
_cell_length_a     26.66681
_cell_length_b     26.657689
_cell_length_c     22.375606
_cell_angle_alpha  90.380229
_cell_angle_beta   87.937983
_cell_angle_gamma 105.11445
loop_
_atom_site_label
_atom_site_type_symbol
_atom_site_fract_x
_atom_site_fract_y
_atom_site_fract_z
_atom_type_partial_charge
C0 C 0.32499 0.34718 0.53307 0.0
C1 C 0.32848 0.29602 0.54172 0.0
C2 C 0.3765 0.28494 0.52862 0.0
C3 C 0.41419 0.3191 0.49291 0.0
H4 H 0.52218 0.30879 0.33574 0.0
H5 H 0.54499 0.23306 0.29023 0.0
H6 H 0.41636 0.21327 0.17292 0.0
H7 H 0.39474 0.28924 0.21633 0.0
H8 H 0.33496 0.3763 0.20985 0.0
H9 H 0.25284 0.39199 0.18062 0.0
H10 H 0.24952 0.4836 0.33971 0.0
H11 H 0.33135 0.46857 0.3689 0.0
H12 H 0.35564 0.41793 0.485 0.0
H13 H 0.28959 0.35823 0.54475 0.0
H14 H 0.38178 0.2469 0.53819 0.0
H15 H 0.44678 0.30576 0.47519 0.0
N16 N 0.44191 0.34841 0.37267 0.0
N17 N 0.40632 0.37073 0.28532 0.0
N18 N 0.38724 0.40405 0.37786 0.0
C19 C 0.43764 0.34531 0.31233 0.0
C20 C 0.38174 0.40116 0.31785 0.0
C21 C 0.41652 0.37749 0.40608 0.0
C22 C 0.45677 0.30512 0.27946 0.0
C23 C 0.49949 0.28875 0.2994 0.0
C24 C 0.51243 0.24541 0.27367 0.0
C25 C 0.48176 0.21684 0.22905 0.0
C26 C 0.4401 0.23411 0.20806 0.0
C27 C 0.42813 0.27808 0.23242 0.0
C28 C 0.33953 0.42044 0.29226 0.0
C29 C 0.31752 0.40095 0.23783 0.0
C30 C 0.27032 0.40973 0.22115 0.0
C31 C 0.2442 0.43795 0.25867 0.0
C32 C 0.26813 0.46061 0.31068 0.0
C33 C 0.31529 0.45221 0.32712 0.0
C34 C 0.40351 0.3641 0.47012 0.0
C35 C 0.36322 0.38169 0.49841 0.0
C36 C 0.05458 0.96913 0.76445 0.0
C37 C 0.06043 0.96857 0.70189 0.0
C38 C 0.07136 0.92512 0.6739 0.0
C39 C 0.07884 0.88411 0.7076 0.0
H40 H 0.21175 0.82655 0.72183 0.0
H41 H 0.29349 0.80429 0.69765 0.0
H42 H 0.24831 0.67337 0.81825 0.0
H43 H 0.16708 0.69629 0.84392 0.0
H44 H 0.15976 0.76767 0.97527 0.0
H45 H 0.2102 0.81842 1.05235 0.0
H46 H 0.11121 0.9235 1.05285 0.0
H47 H 0.06274 0.87453 0.972 0.0
H48 H 0.05913 0.93003 0.84676 0.0
H49 H 0.04569 1.00199 0.78705 0.0
H50 H 0.07535 0.92317 0.62564 0.0
H51 H 0.08862 0.85199 0.6843 0.0
N52 N 0.121 0.81671 0.77838 0.0
N53 N 0.13223 0.78136 0.8707 0.0
N54 N 0.08357 0.84261 0.86584 0.0
C55 C 0.14116 0.78426 0.81072 0.0
C56 C 0.10372 0.81038 0.89895 0.0
C57 C 0.0912 0.84528 0.80539 0.0
C58 C 0.18302 0.76308 0.78478 0.0
C59 C 0.21851 0.79212 0.74188 0.0
C60 C 0.26551 0.77984 0.72852 0.0
C61 C 0.27716 0.73759 0.75666 0.0
C62 C 0.24007 0.70619 0.79605 0.0
C63 C 0.19362 0.71917 0.81052 0.0
C64 C 0.11019 0.81978 0.96397 0.0
C65 C 0.14734 0.80055 0.99306 0.0
C66 C 0.17636 0.82971 1.038 0.0
C67 C 0.16721 0.87738 1.05546 0.0
C68 C 0.12127 0.88867 1.03737 0.0
C69 C 0.09308 0.86025 0.99128 0.0
C70 C 0.0755 0.88537 0.77033 0.0
C71 C 0.06199 0.92776 0.79847 0.0
C72 C 0.60404 0.21966 1.03465 0.0
C73 C 0.54968 0.2052 1.03092 0.0
C74 C 0.52573 0.23989 1.00356 0.0
C75 C 0.55506 0.28805 0.98133 0.0
H76 H 0.59765 0.39356 0.80915 0.0
H77 H 0.56307 0.43845 0.73189 0.0
H78 H 0.61095 0.58202 0.82965 0.0
H79 H 0.6479 0.5374 0.90589 0.0
H80 H 0.76583 0.53377 0.97798 0.0
H81 H 0.84735 0.57432 1.02542 0.0
H82 H 0.85052 0.42583 1.09893 0.0
H83 H 0.76872 0.38526 1.05196 0.0
H84 H 0.67513 0.27929 1.0189 0.0
H85 H 0.62355 0.19387 1.05546 0.0
H86 H 0.4839 0.23006 0.99995 0.0
H87 H 0.53488 0.31381 0.96144 0.0
N88 N 0.6207 0.38376 0.92607 0.0
N89 N 0.69097 0.45701 0.93902 0.0
N90 N 0.68456 0.38082 0.99461 0.0
C91 C 0.64626 0.43362 0.91103 0.0
C92 C 0.71069 0.43074 0.98063 0.0
C93 C 0.63937 0.35711 0.96806 0.0
C94 C 0.62557 0.46175 0.86391 0.0
C95 C 0.60112 0.43476 0.81411 0.0
C96 C 0.58149 0.46061 0.76959 0.0
C97 C 0.58412 0.51391 0.77444 0.0
C98 C 0.60815 0.54096 0.8245 0.0
C99 C 0.62944 0.5154 0.86812 0.0
C100 C 0.76036 0.45601 1.01062 0.0
C101 C 0.78371 0.50963 1.0043 0.0
C102 C 0.83057 0.53301 1.03184 0.0
C103 C 0.85588 0.50344 1.06611 0.0
C104 C 0.83239 0.44993 1.07288 0.0
C105 C 0.78525 0.42662 1.04581 0.0
C106 C 0.60923 0.30371 0.98715 0.0
C107 C 0.63345 0.26869 1.0138 0.0
C108 C 0.69734 0.68667 0.60484 0.0
C109 C 0.65398 0.6532 0.57893 0.0
C110 C 0.65889 0.63779 0.51907 0.0
C111 C 0.70597 0.6562 0.48576 0.0
H112 H 0.82707 0.61388 0.36893 0.0
H113 H 0.86521 0.56442 0.29694 0.0
H114 H 0.98881 0.70107 0.2547 0.0
H115 H 0.95071 0.75123 0.32744 0.0
H116 H 0.96222 0.85927 0.42478 0.0
H117 H 1.00177 0.94659 0.46483 0.0
H118 H 0.86224 0.93828 0.57229 0.0
H119 H 0.82312 0.85332 0.53298 0.0
H120 H 0.77565 0.73281 0.59262 0.0
H121 H 0.69515 0.69928 0.65076 0.0
H122 H 0.62617 0.61199 0.4978 0.0
H123 H 0.70836 0.64455 0.43951 0.0
N124 N 0.81723 0.69204 0.43173 0.0
N125 N 0.88641 0.76728 0.41493 0.0
N126 N 0.82109 0.76705 0.48809 0.0
C127 C 0.86241 0.71653 0.40125 0.0
C128 C 0.86541 0.79295 0.45835 0.0
C129 C 0.79661 0.71715 0.47552 0.0
C130 C 0.88562 0.68699 0.35482 0.0
C131 C 0.86229 0.63387 0.34441 0.0
C132 C 0.88424 0.60522 0.30285 0.0
C133 C 0.93029 0.6285 0.26995 0.0
C134 C 0.95337 0.68175 0.27927 0.0
C135 C 0.93144 0.71055 0.32117 0.0
C136 C 0.88961 0.84827 0.47606 0.0
C137 C 0.93978 0.87652 0.4562 0.0
C138 C 0.96234 0.92674 0.47888 0.0
C139 C 0.93526 0.9495 0.52202 0.0
C140 C 0.8845 0.92211 0.53949 0.0
C141 C 0.86207 0.87276 0.51683 0.0
C142 C 0.74854 0.69149 0.51125 0.0
C143 C 0.74363 0.70593 0.57137 0.0
C144 C 0.50591 0.92039 0.99756 0.0
C145 C 0.53647 0.94893 1.04226 0.0
C146 C 0.57832 0.93188 1.06308 0.0
C147 C 0.59057 0.88815 1.03847 0.0
H148 H 0.68504 0.79077 1.0601 0.0
H149 H 0.7673 0.77496 1.0887 0.0
H150 H 0.76923 0.68261 0.92995 0.0
H151 H 0.68728 0.69773 0.90142 0.0
H152 H 0.64869 0.73687 0.78198 0.0
H153 H 0.71941 0.78756 0.71839 0.0
H154 H 0.65573 0.92018 0.73729 0.0
H155 H 0.58532 0.86984 0.80033 0.0
H156 H 0.49647 0.85725 0.93522 0.0
H157 H 0.47322 0.93259 0.98112 0.0
H158 H 0.602 0.95271 1.09827 0.0
H159 H 0.62409 0.87714 1.05445 0.0
N160 N 0.6129 0.7959 0.98526 0.0
N161 N 0.63127 0.76206 0.8928 0.0
N162 N 0.57661 0.81772 0.89809 0.0
C163 C 0.63731 0.76536 0.95269 0.0
C164 C 0.60171 0.78838 0.8647 0.0
C165 C 0.5813 0.82111 0.95838 0.0
C166 C 0.67975 0.74623 0.97795 0.0
C167 C 0.70222 0.76595 1.03207 0.0
C168 C 0.7495 0.7571 1.04838 0.0
C169 C 0.77525 0.7286 1.01077 0.0
C170 C 0.75092 0.70581 0.95904 0.0
C171 C 0.70368 0.71425 0.94299 0.0
C172 C 0.61438 0.80099 0.80052 0.0
C173 C 0.64798 0.77594 0.76974 0.0
C174 C 0.68882 0.80507 0.73348 0.0
C175 C 0.6949 0.85869 0.72648 0.0
C176 C 0.65313 0.87932 0.74363 0.0
C177 C 0.61239 0.85016 0.78001 0.0
C178 C 0.56203 0.86114 0.99135 0.0
C179 C 0.51912 0.87729 0.97158 0.0
C180 C 0.89755 0.27324 0.23565 0.0
C181 C 0.85211 0.28531 0.21715 0.0
C182 C 0.84355 0.33322 0.2346 0.0
C183 C 0.87248 0.36185 0.27995 0.0
H184 H 0.85158 0.46479 0.42988 0.0
H185 H 0.7704 0.48809 0.45441 0.0
H186 H 0.72274 0.35609 0.57326 0.0
H187 H 0.80446 0.33339 0.55008 0.0
H188 H 0.92841 0.30813 0.58925 0.0
H189 H 0.94274 0.23736 0.64777 0.0
H190 H 0.97406 0.1596 0.48622 0.0
H191 H 0.95961 0.2312 0.42666 0.0
H192 H 0.95541 0.28621 0.30174 0.0
H193 H 0.90717 0.23818 0.22021 0.0
H194 H 0.81014 0.34509 0.21991 0.0
H195 H 0.8604 0.39494 0.29771 0.0
N196 N 0.8859 0.37951 0.40274 0.0
N197 N 0.8963 0.34357 0.49502 0.0
N198 N 0.93464 0.31835 0.40776 0.0
C199 C 0.87639 0.37621 0.46262 0.0
C200 C 0.92645 0.31529 0.46813 0.0
C201 C 0.91472 0.35074 0.37462 0.0
C202 C 0.83441 0.39741 0.48818 0.0
C203 C 0.82449 0.44173 0.46266 0.0
C204 C 0.77805 0.45493 0.47649 0.0
C205 C 0.74028 0.42338 0.51505 0.0
C206 C 0.75123 0.38067 0.543 0.0
C207 C 0.79822 0.36814 0.53025 0.0
C208 C 0.94232 0.27528 0.50318 0.0
C209 C 0.93874 0.27633 0.56589 0.0
C210 C 0.94686 0.23556 0.59951 0.0
C211 C 0.95862 0.19251 0.57144 0.0
C212 C 0.96456 0.19215 0.50888 0.0
C213 C 0.95655 0.2333 0.47495 0.0
C214 C 0.90889 0.34183 0.30944 0.0
C215 C 0.92561 0.30113 0.28216 0.0
C216 C 0.18818 0.63154 0.23644 0.0
C217 C 0.16294 0.66123 0.20226 0.0
C218 C 0.18642 0.71477 0.19578 0.0
C219 C 0.23349 0.73798 0.22307 0.0
H220 H 0.34309 0.8855 0.2523 0.0
H221 H 0.39454 0.97131 0.21664 0.0
H222 H 0.5344 0.93459 0.2705 0.0
H223 H 0.48356 0.85049 0.3082 0.0
H224 H 0.42086 0.76976 0.46007 0.0
H225 H 0.45517 0.7244 0.53706 0.0
H226 H 0.40705 0.58128 0.4385 0.0
H227 H 0.37037 0.6264 0.36248 0.0
H228 H 0.25278 0.63057 0.2904 0.0
H229 H 0.17142 0.5902 0.24262 0.0
H230 H 0.16833 0.73897 0.16981 0.0
H231 H 0.25002 0.77936 0.21715 0.0
N232 N 0.33394 0.78364 0.27495 0.0
N233 N 0.39771 0.78029 0.34345 0.0
N234 N 0.32759 0.70706 0.32977 0.0
C235 C 0.37906 0.80722 0.30173 0.0
C236 C 0.37222 0.7303 0.35799 0.0
C237 C 0.30789 0.7336 0.28842 0.0
C238 C 0.40912 0.8608 0.28318 0.0
C239 C 0.38479 0.89606 0.25722 0.0
C240 C 0.41413 0.94529 0.23686 0.0
C241 C 0.4685 0.95973 0.24037 0.0
C242 C 0.49255 0.9248 0.26706 0.0
C243 C 0.46331 0.87643 0.28883 0.0
C244 C 0.39284 0.70186 0.4049 0.0
C245 C 0.41729 0.72856 0.45486 0.0
C246 C 0.43676 0.70243 0.49923 0.0
C247 C 0.43397 0.64911 0.49411 0.0
C248 C 0.40997 0.62234 0.44388 0.0
C249 C 0.38883 0.64819 0.40038 0.0
C250 C 0.25831 0.70846 0.25817 0.0
C251 C 0.23497 0.65481 0.26417 0.0
C252 C 0.13567 0.23807 0.73683 0.0
C253 C 0.08383 0.2121 0.75132 0.0
C254 C 0.05545 0.23639 0.79133 0.0
C255 C 0.07787 0.28678 0.81352 0.0
H256 H 0.0679 0.41252 0.94242 0.0
H257 H 0.02999 0.46324 1.01463 0.0
H258 H 0.15326 0.59968 0.97059 0.0
H259 H 0.19122 0.54964 0.89906 0.0
H260 H 0.30944 0.51895 0.82884 0.0
H261 H 0.39143 0.55147 0.77023 0.0
H262 H 0.32316 0.4612 0.61885 0.0
H263 H 0.24286 0.42766 0.67741 0.0
H264 H 0.19776 0.30618 0.74502 0.0
H265 H 0.15897 0.22047 0.70687 0.0
H266 H 0.0152 0.21761 0.80306 0.0
H267 H 0.05447 0.30527 0.84224 0.0
N268 N 0.13211 0.39561 0.85542 0.0
N269 N 0.20101 0.4708 0.83728 0.0
N270 N 0.19734 0.395 0.78242 0.0
C271 C 0.15596 0.4466 0.86816 0.0
C272 C 0.22165 0.44516 0.79402 0.0
C273 C 0.15314 0.36941 0.81262 0.0
C274 C 0.13282 0.47659 0.91416 0.0
C275 C 0.08714 0.45328 0.94816 0.0
C276 C 0.06531 0.4824 0.98976 0.0
C277 C 0.08836 0.53574 0.99846 0.0
C278 C 0.13426 0.5588 0.96517 0.0
C279 C 0.15611 0.52983 0.92388 0.0
C280 C 0.26962 0.47054 0.75796 0.0
C281 C 0.31193 0.50662 0.78286 0.0
C282 C 0.3589 0.52504 0.74937 0.0
C283 C 0.36392 0.50888 0.68983 0.0
C284 C 0.32084 0.47449 0.66449 0.0
C285 C 0.27467 0.4552 0.6982 0.0
C286 C 0.12914 0.31375 0.7962 0.0
C287 C 0.15792 0.28772 0.75889 0.0
Sm288 Sm 0.05314 0.09379 0.59178 0.0
Sm289 Sm 0.96664 1.06755 0.68122 0.0
C290 C 0.13318 0.14204 0.52229 0.0
C291 C 0.18302 0.18042 0.53144 0.0
C292 C 0.18719 0.22265 0.57062 0.0
C293 C 0.2353 0.25863 0.57786 0.0
C294 C 0.27995 0.25296 0.54592 0.0
C295 C 0.27549 0.20933 0.50854 0.0
C296 C 0.22764 0.17355 0.50153 0.0
C297 C 0.0568 1.0128 0.66447 0.0
C298 C 0.05893 0.1637 0.7181 0.0
C299 C 0.88644 1.01624 0.74802 0.0
C300 C 0.83996 0.97373 0.73569 0.0
C301 C 0.83227 0.92594 0.76502 0.0
C302 C 0.78682 0.88664 0.75732 0.0
C303 C 0.74776 0.89446 0.72047 0.0
C304 C 0.75674 0.94127 0.68849 0.0
C305 C 0.80255 0.98047 0.69576 0.0
C306 C 0.963 0.14851 0.60879 0.0
C307 C 0.96054 0.99782 0.5552 0.0
O308 O 0.09077 0.15782 0.52887 0.0
O309 O 0.12875 0.09635 0.5457 0.0
O310 O 0.04639 1.05413 0.68288 0.0
O311 O 0.06754 1.01456 0.60753 0.0
O312 O 0.07657 0.15891 0.66289 0.0
O313 O 0.01835 0.12881 0.74105 0.0
O314 O 0.9311 1.00437 0.74632 0.0
O315 O 0.88905 1.06132 0.72374 0.0
O316 O 0.97338 0.10718 0.59012 0.0
O317 O 0.95209 0.14662 0.66574 0.0
O318 O 0.94393 1.00198 0.61089 0.0
O319 O 1.00028 1.03341 0.53176 0.0
H320 H 0.1532 0.22841 0.59471 0.0
H321 H 0.23721 0.29162 0.60702 0.0
H322 H 0.30838 0.20405 0.48181 0.0
H323 H 0.22528 0.14099 0.47152 0.0
H324 H 0.86062 0.91961 0.79564 0.0
H325 H 0.7808 0.85148 0.78367 0.0
H326 H 0.72735 0.94841 0.65997 0.0
H327 H 0.80773 1.01662 0.67159 0.0
Sm328 Sm 0.56467 0.09506 0.15454 0.0
Sm329 Sm 0.4532 1.07024 1.11726 0.0
C330 C 0.6653 0.12659 0.17307 0.0
C331 C 0.71357 0.16747 0.17942 0.0
C332 C 0.72266 0.21625 0.15169 0.0
C333 C 0.76958 0.25394 0.15988 0.0
C334 C 0.80779 0.24327 0.19609 0.0
C335 C 0.79865 0.19338 0.22162 0.0
C336 C 0.75219 0.15605 0.21324 0.0
C337 C 0.50151 1.00846 0.21251 0.0
C338 C 0.49187 0.16893 0.20383 0.0
C339 C 0.35257 1.03838 1.0987 0.0
C340 C 0.30469 0.99692 1.09253 0.0
C341 C 0.29653 0.94814 1.12 0.0
C342 C 0.24998 0.90987 1.11204 0.0
C343 C 0.21121 0.91993 1.07626 0.0
C344 C 0.21942 0.9698 1.05094 0.0
C345 C 0.26551 1.00772 1.05914 0.0
C346 C 0.51659 0.15673 1.05921 0.0
C347 C 0.52618 0.99667 1.06767 0.0
O348 O 0.64611 0.11841 1.11988 0.0
O349 O 0.63001 0.11906 0.21672 0.0
O350 O 0.48813 1.04953 0.20097 0.0
O351 O 0.55016 1.01456 0.19858 0.0
O352 O 0.54 0.16661 0.19155 0.0
O353 O 0.45155 0.13147 0.18849 0.0
O354 O 0.37175 1.04687 0.15188 0.0
O355 O 0.38789 1.04601 1.05509 0.0
O356 O 0.5297 0.11552 1.07067 0.0
O357 O 0.46796 0.15081 1.07316 0.0
O358 O 0.47802 0.9988 1.08013 0.0
O359 O 0.56642 1.03422 1.08295 0.0
H360 H 0.69333 0.22553 1.12485 0.0
H361 H 0.77524 0.29179 0.1394 0.0
H362 H 0.82605 0.1837 0.25113 0.0
H363 H 0.74593 0.11838 0.23449 0.0
H364 H 0.32632 0.9393 0.14645 0.0
H365 H 0.24505 0.87206 1.13237 0.0
H366 H 0.19157 0.97905 1.02174 0.0
H367 H 0.27105 1.04538 1.03807 0.0
Sm368 Sm 0.50883 0.53737 0.59433 0.0
Sm369 Sm 0.50903 0.62528 0.67415 0.0
C370 C 0.53924 0.46566 0.53148 0.0
C371 C 0.59013 0.4539 0.52863 0.0
C372 C 0.63486 0.49254 0.54334 0.0
C373 C 0.68366 0.4825 0.53953 0.0
C374 C 0.68836 0.43316 0.52259 0.0
C375 C 0.64338 0.39391 0.50983 0.0
C376 C 0.59452 0.40434 0.51248 0.0
C377 C 0.41387 0.52574 0.65431 0.0
C378 C 0.56055 0.5401 0.7281 0.0
C379 C 0.47874 0.69694 0.73721 0.0
C380 C 0.42772 0.70836 0.74066 0.0
C381 C 0.38311 0.66966 0.72573 0.0
C382 C 0.33414 0.67925 0.73042 0.0
C383 C 0.32917 0.72823 0.7484 0.0
C384 C 0.37401 0.76759 0.76134 0.0
C385 C 0.42303 0.75758 0.75787 0.0
C386 C 0.60393 0.63661 0.61428 0.0
C387 C 0.45733 0.62265 0.54042 0.0
O388 O 0.53873 0.51081 0.50948 0.0
O389 O 0.51327 0.45558 0.58252 0.0
O390 O 0.45782 0.54312 0.6768 0.0
O391 O 0.41934 0.51099 0.59957 0.0
O392 O 0.55931 0.52324 0.67231 0.0
O393 O 0.53962 0.57819 0.74334 0.0
O394 O 0.47967 0.65193 0.75925 0.0
O395 O 0.50424 0.70697 0.68588 0.0
O396 O 0.55998 0.61952 0.59167 0.0
O397 O 0.59849 0.65134 0.66903 0.0
O398 O 0.45856 0.63946 0.59623 0.0
O399 O 0.47818 0.5845 0.52516 0.0
H400 H 0.63204 0.53065 0.55744 0.0
H401 H 0.71772 0.51321 0.54991 0.0
H402 H 0.64623 0.35563 0.49628 0.0
H403 H 0.56035 0.37396 0.5016 0.0
H404 H 0.38617 0.63184 0.71081 0.0
H405 H 0.30016 0.64848 0.7199 0.0
H406 H 0.37091 0.8056 0.77566 0.0
H407 H 0.4571 0.788 0.76897 0.0
Sm408 Sm 0.00864 0.53497 0.1671 0.0
Sm409 Sm 0.01029 0.62974 1.10091 0.0
C410 C 0.03734 0.45624 0.21346 0.0
C411 C 0.08932 0.44838 0.22329 0.0
C412 C 0.12822 0.45798 0.17739 0.0
C413 C 0.17837 0.454 0.18851 0.0
C414 C 0.19083 0.44123 0.24592 0.0
C415 C 0.15178 0.43129 0.29158 0.0
C416 C 0.10151 0.43465 0.2803 0.0
C417 C 0.95429 0.59653 0.22787 0.0
C418 C 0.11163 0.6366 0.17569 0.0
C419 C 0.9818 0.7086 1.05448 0.0
C420 C 0.92994 0.71691 1.04503 0.0
C421 C 0.89131 0.70776 1.09123 0.0
C422 C 0.84125 0.71221 1.08048 0.0
C423 C 0.82859 0.72502 1.02317 0.0
C424 C 0.86739 0.73455 0.97722 0.0
C425 C 0.91758 0.73072 0.98813 0.0
C426 C 0.06446 0.56795 1.04035 0.0
C427 C 0.90724 0.52813 1.0925 0.0
O428 O 0.02406 0.45734 0.1579 0.0
O429 O 0.02451 0.49201 0.24626 0.0
O430 O 0.99767 0.61281 0.2 0.0
O431 O 0.93895 0.54609 0.22543 0.0
O432 O 0.09318 0.58557 0.17842 0.0
O433 O 0.08454 0.66554 0.1514 0.0
O434 O 0.99542 0.70762 1.10993 0.0
O435 O 0.99408 0.6725 1.02175 0.0
O436 O 0.02099 0.55185 1.06807 0.0
O437 O 0.07998 0.61838 1.04273 0.0
O438 O 0.92567 0.57917 1.08977 0.0
O439 O 0.93438 0.49918 1.11669 0.0
H440 H 0.12023 0.46938 0.13308 0.0
H441 H 0.2077 0.4621 0.1526 0.0
H442 H 0.16008 0.42067 0.33609 0.0
H443 H 0.0723 0.4273 0.31639 0.0
H444 H 0.89943 0.69633 0.13547 0.0
H445 H 0.8121 0.70441 1.1166 0.0
H446 H 0.85895 0.74519 0.93277 0.0
H447 H 0.94659 0.73775 0.95182 0.0
loop_
_geom_bond_atom_site_label_1
_geom_bond_atom_site_label_2
_geom_bond_distance
_geom_bond_site_symmetry_2
_ccdc_geom_bond_type
C0 C1 1.384 . S
C0 H13 0.947 . S
C0 C35 1.382 . S
C1 C0 1.384 . S
C1 C2 1.378 . S
C2 C1 1.378 . S
C2 C3 1.378 . S
C2 H14 0.952 . S
C3 C2 1.378 . S
C3 H15 0.950 . S
C3 C34 1.383 . S
H4 C23 0.947 . S
H5 C24 0.946 . S
H6 C26 0.953 . S
H7 C27 0.945 . S
H8 C29 0.952 . S
H9 C30 0.949 . S
H10 C32 0.950 . S
H11 C33 0.948 . S
H12 C35 0.951 . S
H13 C0 0.947 . S
H14 C2 0.952 . S
H15 C3 0.950 . S
N16 C19 1.382 . S
N16 C21 1.363 . S
N17 C19 1.371 . S
N17 C20 1.372 . S
N18 C20 1.361 . S
N18 C21 1.377 . S
C19 N16 1.382 . S
C19 N17 1.371 . S
C19 C22 1.480 . S
C20 N17 1.372 . S
C20 N18 1.361 . S
C20 C28 1.457 . S
C21 N16 1.363 . S
C21 N18 1.377 . S
C21 C34 1.479 . S
C22 C19 1.480 . S
C22 C23 1.383 . S
C22 C27 1.385 . S
C23 H4 0.947 . S
C23 C22 1.383 . S
C23 C24 1.388 . S
C24 H5 0.946 . S
C24 C23 1.388 . S
C24 C25 1.384 . S
C25 C24 1.384 . S
C25 C26 1.377 . S
C26 H6 0.953 . S
C26 C25 1.377 . S
C26 C27 1.369 . S
C27 H7 0.945 . S
C27 C22 1.385 . S
C27 C26 1.369 . S
C28 C20 1.457 . S
C28 C29 1.372 . S
C28 C33 1.364 . S
C29 H8 0.952 . S
C29 C28 1.372 . S
C29 C30 1.389 . S
C30 H9 0.949 . S
C30 C29 1.389 . S
C30 C31 1.387 . S
C31 C30 1.387 . S
C31 C32 1.372 . S
C32 H10 0.950 . S
C32 C31 1.372 . S
C32 C33 1.379 . S
C33 H11 0.948 . S
C33 C28 1.364 . S
C33 C32 1.379 . S
C34 C3 1.383 . S
C34 C21 1.479 . S
C34 C35 1.398 . S
C35 C0 1.382 . S
C35 H12 0.951 . S
C35 C34 1.398 . S
C36 C37 1.384 . S
C36 H49 0.947 . S
C36 C71 1.382 . S
C37 C36 1.384 . S
C37 C38 1.378 . S
C38 C37 1.378 . S
C38 C39 1.378 . S
C38 H50 0.952 . S
C39 C38 1.378 . S
C39 H51 0.950 . S
C39 C70 1.383 . S
H40 C59 0.947 . S
H41 C60 0.946 . S
H42 C62 0.953 . S
H43 C63 0.945 . S
H44 C65 0.952 . S
H45 C66 0.949 . S
H46 C68 0.950 . S
H47 C69 0.948 . S
H48 C71 0.951 . S
H49 C36 0.947 . S
H50 C38 0.952 . S
H51 C39 0.950 . S
N52 C55 1.382 . S
N52 C57 1.363 . S
N53 C55 1.371 . S
N53 C56 1.372 . S
N54 C56 1.361 . S
N54 C57 1.377 . S
C55 N52 1.382 . S
C55 N53 1.371 . S
C55 C58 1.480 . S
C56 N53 1.372 . S
C56 N54 1.361 . S
C56 C64 1.457 . S
C57 N52 1.363 . S
C57 N54 1.377 . S
C57 C70 1.479 . S
C58 C55 1.480 . S
C58 C59 1.383 . S
C58 C63 1.385 . S
C59 H40 0.947 . S
C59 C58 1.383 . S
C59 C60 1.388 . S
C60 H41 0.946 . S
C60 C59 1.388 . S
C60 C61 1.384 . S
C61 C60 1.384 . S
C61 C62 1.377 . S
C62 H42 0.953 . S
C62 C61 1.377 . S
C62 C63 1.369 . S
C63 H43 0.945 . S
C63 C58 1.385 . S
C63 C62 1.369 . S
C64 C56 1.457 . S
C64 C65 1.372 . S
C64 C69 1.364 . S
C65 H44 0.952 . S
C65 C64 1.372 . S
C65 C66 1.389 . S
C66 H45 0.949 . S
C66 C65 1.389 . S
C66 C67 1.387 . S
C67 C66 1.387 . S
C67 C68 1.372 . S
C68 H46 0.950 . S
C68 C67 1.372 . S
C68 C69 1.379 . S
C69 H47 0.948 . S
C69 C64 1.364 . S
C69 C68 1.379 . S
C70 C39 1.383 . S
C70 C57 1.479 . S
C70 C71 1.398 . S
C71 C36 1.382 . S
C71 H48 0.951 . S
C71 C70 1.398 . S
C72 C73 1.384 . S
C72 H85 0.947 . S
C72 C107 1.382 . S
C73 C72 1.384 . S
C73 C74 1.378 . S
C74 C73 1.378 . S
C74 C75 1.378 . S
C74 H86 0.952 . S
C75 C74 1.378 . S
C75 H87 0.950 . S
C75 C106 1.383 . S
H76 C95 0.947 . S
H77 C96 0.946 . S
H78 C98 0.953 . S
H79 C99 0.945 . S
H80 C101 0.952 . S
H81 C102 0.949 . S
H82 C104 0.950 . S
H83 C105 0.948 . S
H84 C107 0.951 . S
H85 C72 0.947 . S
H86 C74 0.952 . S
H87 C75 0.950 . S
N88 C91 1.382 . S
N88 C93 1.363 . S
N89 C91 1.371 . S
N89 C92 1.372 . S
N90 C92 1.361 . S
N90 C93 1.377 . S
C91 N88 1.382 . S
C91 N89 1.371 . S
C91 C94 1.480 . S
C92 N89 1.372 . S
C92 N90 1.361 . S
C92 C100 1.457 . S
C93 N88 1.363 . S
C93 N90 1.377 . S
C93 C106 1.479 . S
C94 C91 1.480 . S
C94 C95 1.383 . S
C94 C99 1.385 . S
C95 H76 0.947 . S
C95 C94 1.383 . S
C95 C96 1.388 . S
C96 H77 0.946 . S
C96 C95 1.388 . S
C96 C97 1.384 . S
C97 C96 1.384 . S
C97 C98 1.377 . S
C98 H78 0.953 . S
C98 C97 1.377 . S
C98 C99 1.369 . S
C99 H79 0.945 . S
C99 C94 1.385 . S
C99 C98 1.369 . S
C100 C92 1.457 . S
C100 C101 1.372 . S
C100 C105 1.364 . S
C101 H80 0.952 . S
C101 C100 1.372 . S
C101 C102 1.389 . S
C102 H81 0.949 . S
C102 C101 1.389 . S
C102 C103 1.387 . S
C103 C102 1.387 . S
C103 C104 1.372 . S
C104 H82 0.950 . S
C104 C103 1.372 . S
C104 C105 1.379 . S
C105 H83 0.948 . S
C105 C100 1.364 . S
C105 C104 1.379 . S
C106 C75 1.383 . S
C106 C93 1.479 . S
C106 C107 1.398 . S
C107 C72 1.382 . S
C107 H84 0.951 . S
C107 C106 1.398 . S
C108 C109 1.384 . S
C108 H121 0.947 . S
C108 C143 1.382 . S
C109 C108 1.384 . S
C109 C110 1.378 . S
C110 C109 1.378 . S
C110 C111 1.378 . S
C110 H122 0.952 . S
C111 C110 1.378 . S
C111 H123 0.950 . S
C111 C142 1.383 . S
H112 C131 0.947 . S
H113 C132 0.946 . S
H114 C134 0.953 . S
H115 C135 0.945 . S
H116 C137 0.952 . S
H117 C138 0.949 . S
H118 C140 0.950 . S
H119 C141 0.948 . S
H120 C143 0.951 . S
H121 C108 0.947 . S
H122 C110 0.952 . S
H123 C111 0.950 . S
N124 C127 1.382 . S
N124 C129 1.363 . S
N125 C127 1.371 . S
N125 C128 1.372 . S
N126 C128 1.361 . S
N126 C129 1.377 . S
C127 N124 1.382 . S
C127 N125 1.371 . S
C127 C130 1.480 . S
C128 N125 1.372 . S
C128 N126 1.361 . S
C128 C136 1.457 . S
C129 N124 1.363 . S
C129 N126 1.377 . S
C129 C142 1.479 . S
C130 C127 1.480 . S
C130 C131 1.383 . S
C130 C135 1.385 . S
C131 H112 0.947 . S
C131 C130 1.383 . S
C131 C132 1.388 . S
C132 H113 0.946 . S
C132 C131 1.388 . S
C132 C133 1.384 . S
C133 C132 1.384 . S
C133 C134 1.377 . S
C134 H114 0.953 . S
C134 C133 1.377 . S
C134 C135 1.369 . S
C135 H115 0.945 . S
C135 C130 1.385 . S
C135 C134 1.369 . S
C136 C128 1.457 . S
C136 C137 1.372 . S
C136 C141 1.364 . S
C137 H116 0.952 . S
C137 C136 1.372 . S
C137 C138 1.389 . S
C138 H117 0.949 . S
C138 C137 1.389 . S
C138 C139 1.387 . S
C139 C138 1.387 . S
C139 C140 1.372 . S
C140 H118 0.950 . S
C140 C139 1.372 . S
C140 C141 1.379 . S
C141 H119 0.948 . S
C141 C136 1.364 . S
C141 C140 1.379 . S
C142 C111 1.383 . S
C142 C129 1.479 . S
C142 C143 1.398 . S
C143 C108 1.382 . S
C143 H120 0.951 . S
C143 C142 1.398 . S
C144 C145 1.384 . S
C144 H157 0.947 . S
C144 C179 1.382 . S
C145 C144 1.384 . S
C145 C146 1.378 . S
C146 C145 1.378 . S
C146 C147 1.378 . S
C146 H158 0.952 . S
C147 C146 1.378 . S
C147 H159 0.950 . S
C147 C178 1.383 . S
H148 C167 0.947 . S
H149 C168 0.946 . S
H150 C170 0.953 . S
H151 C171 0.945 . S
H152 C173 0.952 . S
H153 C174 0.949 . S
H154 C176 0.950 . S
H155 C177 0.948 . S
H156 C179 0.951 . S
H157 C144 0.947 . S
H158 C146 0.952 . S
H159 C147 0.950 . S
N160 C163 1.382 . S
N160 C165 1.363 . S
N161 C163 1.371 . S
N161 C164 1.372 . S
N162 C164 1.361 . S
N162 C165 1.377 . S
C163 N160 1.382 . S
C163 N161 1.371 . S
C163 C166 1.480 . S
C164 N161 1.372 . S
C164 N162 1.361 . S
C164 C172 1.457 . S
C165 N160 1.363 . S
C165 N162 1.377 . S
C165 C178 1.479 . S
C166 C163 1.480 . S
C166 C167 1.383 . S
C166 C171 1.385 . S
C167 H148 0.947 . S
C167 C166 1.383 . S
C167 C168 1.388 . S
C168 H149 0.946 . S
C168 C167 1.388 . S
C168 C169 1.384 . S
C169 C168 1.384 . S
C169 C170 1.377 . S
C170 H150 0.953 . S
C170 C169 1.377 . S
C170 C171 1.369 . S
C171 H151 0.945 . S
C171 C166 1.385 . S
C171 C170 1.369 . S
C172 C164 1.457 . S
C172 C173 1.372 . S
C172 C177 1.364 . S
C173 H152 0.952 . S
C173 C172 1.372 . S
C173 C174 1.389 . S
C174 H153 0.949 . S
C174 C173 1.389 . S
C174 C175 1.387 . S
C175 C174 1.387 . S
C175 C176 1.372 . S
C176 H154 0.950 . S
C176 C175 1.372 . S
C176 C177 1.379 . S
C177 H155 0.948 . S
C177 C172 1.364 . S
C177 C176 1.379 . S
C178 C147 1.383 . S
C178 C165 1.479 . S
C178 C179 1.398 . S
C179 C144 1.382 . S
C179 H156 0.951 . S
C179 C178 1.398 . S
C180 C181 1.384 . S
C180 H193 0.947 . S
C180 C215 1.382 . S
C181 C180 1.384 . S
C181 C182 1.378 . S
C182 C181 1.378 . S
C182 C183 1.378 . S
C182 H194 0.952 . S
C183 C182 1.378 . S
C183 H195 0.950 . S
C183 C214 1.383 . S
H184 C203 0.947 . S
H185 C204 0.946 . S
H186 C206 0.953 . S
H187 C207 0.945 . S
H188 C209 0.952 . S
H189 C210 0.949 . S
H190 C212 0.950 . S
H191 C213 0.948 . S
H192 C215 0.951 . S
H193 C180 0.947 . S
H194 C182 0.952 . S
H195 C183 0.950 . S
N196 C199 1.382 . S
N196 C201 1.363 . S
N197 C199 1.371 . S
N197 C200 1.372 . S
N198 C200 1.361 . S
N198 C201 1.377 . S
C199 N196 1.382 . S
C199 N197 1.371 . S
C199 C202 1.480 . S
C200 N197 1.372 . S
C200 N198 1.361 . S
C200 C208 1.457 . S
C201 N196 1.363 . S
C201 N198 1.377 . S
C201 C214 1.479 . S
C202 C199 1.480 . S
C202 C203 1.383 . S
C202 C207 1.385 . S
C203 H184 0.947 . S
C203 C202 1.383 . S
C203 C204 1.388 . S
C204 H185 0.946 . S
C204 C203 1.388 . S
C204 C205 1.384 . S
C205 C204 1.384 . S
C205 C206 1.377 . S
C206 H186 0.953 . S
C206 C205 1.377 . S
C206 C207 1.369 . S
C207 H187 0.945 . S
C207 C202 1.385 . S
C207 C206 1.369 . S
C208 C200 1.457 . S
C208 C209 1.372 . S
C208 C213 1.364 . S
C209 H188 0.952 . S
C209 C208 1.372 . S
C209 C210 1.389 . S
C210 H189 0.949 . S
C210 C209 1.389 . S
C210 C211 1.387 . S
C211 C210 1.387 . S
C211 C212 1.372 . S
C212 H190 0.950 . S
C212 C211 1.372 . S
C212 C213 1.379 . S
C213 H191 0.948 . S
C213 C208 1.364 . S
C213 C212 1.379 . S
C214 C183 1.383 . S
C214 C201 1.479 . S
C214 C215 1.398 . S
C215 C180 1.382 . S
C215 H192 0.951 . S
C215 C214 1.398 . S
C216 C217 1.384 . S
C216 H229 0.947 . S
C216 C251 1.382 . S
C217 C216 1.384 . S
C217 C218 1.378 . S
C218 C217 1.378 . S
C218 C219 1.378 . S
C218 H230 0.952 . S
C219 C218 1.378 . S
C219 H231 0.950 . S
C219 C250 1.383 . S
H220 C239 0.947 . S
H221 C240 0.946 . S
H222 C242 0.953 . S
H223 C243 0.945 . S
H224 C245 0.952 . S
H225 C246 0.949 . S
H226 C248 0.950 . S
H227 C249 0.948 . S
H228 C251 0.951 . S
H229 C216 0.947 . S
H230 C218 0.952 . S
H231 C219 0.950 . S
N232 C235 1.382 . S
N232 C237 1.363 . S
N233 C235 1.371 . S
N233 C236 1.372 . S
N234 C236 1.361 . S
N234 C237 1.377 . S
C235 N232 1.382 . S
C235 N233 1.371 . S
C235 C238 1.480 . S
C236 N233 1.372 . S
C236 N234 1.361 . S
C236 C244 1.457 . S
C237 N232 1.363 . S
C237 N234 1.377 . S
C237 C250 1.479 . S
C238 C235 1.480 . S
C238 C239 1.383 . S
C238 C243 1.385 . S
C239 H220 0.947 . S
C239 C238 1.383 . S
C239 C240 1.388 . S
C240 H221 0.946 . S
C240 C239 1.388 . S
C240 C241 1.384 . S
C241 C240 1.384 . S
C241 C242 1.377 . S
C242 H222 0.953 . S
C242 C241 1.377 . S
C242 C243 1.369 . S
C243 H223 0.945 . S
C243 C238 1.385 . S
C243 C242 1.369 . S
C244 C236 1.457 . S
C244 C245 1.372 . S
C244 C249 1.364 . S
C245 H224 0.952 . S
C245 C244 1.372 . S
C245 C246 1.389 . S
C246 H225 0.949 . S
C246 C245 1.389 . S
C246 C247 1.387 . S
C247 C246 1.387 . S
C247 C248 1.372 . S
C248 H226 0.950 . S
C248 C247 1.372 . S
C248 C249 1.379 . S
C249 H227 0.948 . S
C249 C244 1.364 . S
C249 C248 1.379 . S
C250 C219 1.383 . S
C250 C237 1.479 . S
C250 C251 1.398 . S
C251 C216 1.382 . S
C251 H228 0.951 . S
C251 C250 1.398 . S
C252 C253 1.384 . S
C252 H265 0.947 . S
C252 C287 1.382 . S
C253 C252 1.384 . S
C253 C254 1.378 . S
C254 C253 1.378 . S
C254 C255 1.378 . S
C254 H266 0.952 . S
C255 C254 1.378 . S
C255 H267 0.950 . S
C255 C286 1.383 . S
H256 C275 0.947 . S
H257 C276 0.946 . S
H258 C278 0.953 . S
H259 C279 0.945 . S
H260 C281 0.952 . S
H261 C282 0.949 . S
H262 C284 0.950 . S
H263 C285 0.948 . S
H264 C287 0.951 . S
H265 C252 0.947 . S
H266 C254 0.952 . S
H267 C255 0.950 . S
N268 C271 1.382 . S
N268 C273 1.363 . S
N269 C271 1.371 . S
N269 C272 1.372 . S
N270 C272 1.361 . S
N270 C273 1.377 . S
C271 N268 1.382 . S
C271 N269 1.371 . S
C271 C274 1.480 . S
C272 N269 1.372 . S
C272 N270 1.361 . S
C272 C280 1.457 . S
C273 N268 1.363 . S
C273 N270 1.377 . S
C273 C286 1.479 . S
C274 C271 1.480 . S
C274 C275 1.383 . S
C274 C279 1.385 . S
C275 H256 0.947 . S
C275 C274 1.383 . S
C275 C276 1.388 . S
C276 H257 0.946 . S
C276 C275 1.388 . S
C276 C277 1.384 . S
C277 C276 1.384 . S
C277 C278 1.377 . S
C278 H258 0.953 . S
C278 C277 1.377 . S
C278 C279 1.369 . S
C279 H259 0.945 . S
C279 C274 1.385 . S
C279 C278 1.369 . S
C280 C272 1.457 . S
C280 C281 1.372 . S
C280 C285 1.364 . S
C281 H260 0.952 . S
C281 C280 1.372 . S
C281 C282 1.389 . S
C282 H261 0.949 . S
C282 C281 1.389 . S
C282 C283 1.387 . S
C283 C282 1.387 . S
C283 C284 1.372 . S
C284 H262 0.950 . S
C284 C283 1.372 . S
C284 C285 1.379 . S
C285 H263 0.948 . S
C285 C280 1.364 . S
C285 C284 1.379 . S
C286 C255 1.383 . S
C286 C273 1.479 . S
C286 C287 1.398 . S
C287 C252 1.382 . S
C287 H264 0.951 . S
C287 C286 1.398 . S
Sm288 C290 2.846 . S
Sm288 O308 2.543 . S
Sm288 O309 2.450 . S
Sm288 O310 2.681 1_545 S
Sm288 O311 2.464 1_545 S
Sm288 O312 2.396 . S
Sm288 O316 2.386 1_455 S
Sm288 O319 2.408 1_445 S
Sm289 C299 2.846 . S
Sm289 O310 2.386 1_655 S
Sm289 O313 2.408 1_665 S
Sm289 O314 2.543 . S
Sm289 O315 2.450 . S
Sm289 O316 2.681 1_565 S
Sm289 O317 2.464 1_565 S
Sm289 O318 2.396 . S
C290 Sm288 2.846 . S
C290 C291 1.506 . S
C290 O308 1.261 . S
C290 O309 1.242 . S
C291 C290 1.506 . S
C291 C292 1.358 . S
C291 C296 1.382 . S
C292 C291 1.358 . S
C292 C293 1.385 . S
C292 H320 0.930 . S
C293 C292 1.385 . S
C293 C294 1.395 . S
C293 H321 0.929 . S
C294 C293 1.395 . S
C294 C295 1.335 . S
C295 C294 1.335 . S
C295 C296 1.398 . S
C295 H322 0.930 . S
C296 C291 1.382 . S
C296 C295 1.398 . S
C296 H323 0.929 . S
C297 O310 1.271 . S
C297 O311 1.251 . S
C298 O312 1.252 . S
C298 O313 1.272 . S
C299 Sm289 2.846 . S
C299 C300 1.506 . S
C299 O314 1.261 . S
C299 O315 1.242 . S
C300 C299 1.506 . S
C300 C301 1.358 . S
C300 C305 1.382 . S
C301 C300 1.358 . S
C301 C302 1.385 . S
C301 H324 0.930 . S
C302 C301 1.385 . S
C302 C303 1.395 . S
C302 H325 0.929 . S
C303 C302 1.395 . S
C303 C304 1.335 . S
C304 C303 1.335 . S
C304 C305 1.398 . S
C304 H326 0.930 . S
C305 C300 1.382 . S
C305 C304 1.398 . S
C305 H327 0.929 . S
C306 O316 1.271 . S
C306 O317 1.251 . S
C307 O318 1.252 . S
C307 O319 1.272 . S
O308 Sm288 2.543 . S
O308 C290 1.261 . S
O309 Sm288 2.450 . S
O309 C290 1.242 . S
O310 Sm288 2.681 1_565 S
O310 Sm289 2.386 1_455 S
O310 C297 1.271 . S
O311 Sm288 2.464 1_565 S
O311 C297 1.251 . S
O312 Sm288 2.396 . S
O312 C298 1.252 . S
O313 Sm289 2.408 1_445 S
O313 C298 1.272 . S
O314 Sm289 2.543 . S
O314 C299 1.261 . S
O315 Sm289 2.450 . S
O315 C299 1.242 . S
O316 Sm288 2.386 1_655 S
O316 Sm289 2.681 1_545 S
O316 C306 1.271 . S
O317 Sm289 2.464 1_545 S
O317 C306 1.251 . S
O318 Sm289 2.396 . S
O318 C307 1.252 . S
O319 Sm288 2.408 1_665 S
O319 C307 1.272 . S
H320 C292 0.930 . S
H321 C293 0.929 . S
H322 C295 0.930 . S
H323 C296 0.929 . S
H324 C301 0.930 . S
H325 C302 0.929 . S
H326 C304 0.930 . S
H327 C305 0.929 . S
Sm328 C330 2.846 1_565 S
Sm328 O348 2.543 1_565 S
Sm328 O349 2.450 1_565 S
Sm328 O350 2.681 . S
Sm328 O351 2.464 . S
Sm328 O352 2.396 1_565 S
Sm328 O356 2.386 1_564 S
Sm328 O359 2.408 1_554 S
Sm329 C339 2.846 1_545 S
Sm329 O350 2.386 1_546 S
Sm329 O353 2.408 1_556 S
Sm329 O354 2.543 1_545 S
Sm329 O355 2.450 1_545 S
Sm329 O356 2.681 . S
Sm329 O357 2.464 . S
Sm329 O358 2.396 1_545 S
C330 Sm328 2.846 1_545 S
C330 C331 1.506 . S
C330 O348 1.261 . S
C330 O349 1.242 . S
C331 C330 1.506 . S
C331 C332 1.358 . S
C331 C336 1.382 . S
C332 C331 1.358 . S
C332 C333 1.385 . S
C332 H360 0.930 . S
C333 C332 1.385 . S
C333 C334 1.395 . S
C333 H361 0.929 . S
C334 C333 1.395 . S
C334 C335 1.335 . S
C335 C334 1.335 . S
C335 C336 1.398 . S
C335 H362 0.930 . S
C336 C331 1.382 . S
C336 C335 1.398 . S
C336 H363 0.929 . S
C337 O350 1.271 . S
C337 O351 1.251 . S
C338 O352 1.252 . S
C338 O353 1.272 . S
C339 Sm329 2.846 1_565 S
C339 C340 1.506 . S
C339 O354 1.261 . S
C339 O355 1.242 . S
C340 C339 1.506 . S
C340 C341 1.358 . S
C340 C345 1.382 . S
C341 C340 1.358 . S
C341 C342 1.385 . S
C341 H364 0.930 . S
C342 C341 1.385 . S
C342 C343 1.395 . S
C342 H365 0.929 . S
C343 C342 1.395 . S
C343 C344 1.335 . S
C344 C343 1.335 . S
C344 C345 1.398 . S
C344 H366 0.930 . S
C345 C340 1.382 . S
C345 C344 1.398 . S
C345 H367 0.929 . S
C346 O356 1.271 . S
C346 O357 1.251 . S
C347 O358 1.252 . S
C347 O359 1.272 . S
O348 Sm328 2.543 1_545 S
O348 C330 1.261 . S
O349 Sm328 2.450 1_545 S
O349 C330 1.242 . S
O350 Sm328 2.681 . S
O350 Sm329 2.386 1_564 S
O350 C337 1.271 . S
O351 Sm328 2.464 . S
O351 C337 1.251 . S
O352 Sm328 2.396 1_545 S
O352 C338 1.252 . S
O353 Sm329 2.408 1_554 S
O353 C338 1.272 . S
O354 Sm329 2.543 1_565 S
O354 C339 1.261 . S
O355 Sm329 2.450 1_565 S
O355 C339 1.242 . S
O356 Sm328 2.386 1_546 S
O356 Sm329 2.681 . S
O356 C346 1.271 . S
O357 Sm329 2.464 . S
O357 C346 1.251 . S
O358 Sm329 2.396 1_565 S
O358 C347 1.252 . S
O359 Sm328 2.408 1_556 S
O359 C347 1.272 . S
H360 C332 0.930 . S
H361 C333 0.929 . S
H362 C335 0.930 . S
H363 C336 0.929 . S
H364 C341 0.930 . S
H365 C342 0.929 . S
H366 C344 0.930 . S
H367 C345 0.929 . S
Sm368 C370 2.846 . S
Sm368 O388 2.543 . S
Sm368 O389 2.450 . S
Sm368 O390 2.681 . S
Sm368 O391 2.464 . S
Sm368 O392 2.396 . S
Sm368 O396 2.386 . S
Sm368 O399 2.408 . S
Sm369 C379 2.846 . S
Sm369 O390 2.386 . S
Sm369 O393 2.408 . S
Sm369 O394 2.543 . S
Sm369 O395 2.450 . S
Sm369 O396 2.681 . S
Sm369 O397 2.464 . S
Sm369 O398 2.396 . S
C370 Sm368 2.846 . S
C370 C371 1.506 . S
C370 O388 1.261 . S
C370 O389 1.242 . S
C371 C370 1.506 . S
C371 C372 1.358 . S
C371 C376 1.382 . S
C372 C371 1.358 . S
C372 C373 1.385 . S
C372 H400 0.930 . S
C373 C372 1.385 . S
C373 C374 1.395 . S
C373 H401 0.929 . S
C374 C373 1.395 . S
C374 C375 1.335 . S
C375 C374 1.335 . S
C375 C376 1.398 . S
C375 H402 0.930 . S
C376 C371 1.382 . S
C376 C375 1.398 . S
C376 H403 0.929 . S
C377 O390 1.271 . S
C377 O391 1.251 . S
C378 O392 1.252 . S
C378 O393 1.272 . S
C379 Sm369 2.846 . S
C379 C380 1.506 . S
C379 O394 1.261 . S
C379 O395 1.242 . S
C380 C379 1.506 . S
C380 C381 1.358 . S
C380 C385 1.382 . S
C381 C380 1.358 . S
C381 C382 1.385 . S
C381 H404 0.930 . S
C382 C381 1.385 . S
C382 C383 1.395 . S
C382 H405 0.929 . S
C383 C382 1.395 . S
C383 C384 1.335 . S
C384 C383 1.335 . S
C384 C385 1.398 . S
C384 H406 0.930 . S
C385 C380 1.382 . S
C385 C384 1.398 . S
C385 H407 0.929 . S
C386 O396 1.271 . S
C386 O397 1.251 . S
C387 O398 1.252 . S
C387 O399 1.272 . S
O388 Sm368 2.543 . S
O388 C370 1.261 . S
O389 Sm368 2.450 . S
O389 C370 1.242 . S
O390 Sm368 2.681 . S
O390 Sm369 2.386 . S
O390 C377 1.271 . S
O391 Sm368 2.464 . S
O391 C377 1.251 . S
O392 Sm368 2.396 . S
O392 C378 1.252 . S
O393 Sm369 2.408 . S
O393 C378 1.272 . S
O394 Sm369 2.543 . S
O394 C379 1.261 . S
O395 Sm369 2.450 . S
O395 C379 1.242 . S
O396 Sm368 2.386 . S
O396 Sm369 2.681 . S
O396 C386 1.271 . S
O397 Sm369 2.464 . S
O397 C386 1.251 . S
O398 Sm369 2.396 . S
O398 C387 1.252 . S
O399 Sm368 2.408 . S
O399 C387 1.272 . S
H400 C372 0.930 . S
H401 C373 0.929 . S
H402 C375 0.930 . S
H403 C376 0.929 . S
H404 C381 0.930 . S
H405 C382 0.929 . S
H406 C384 0.930 . S
H407 C385 0.929 . S
Sm408 C410 2.846 . S
Sm408 O428 2.543 . S
Sm408 O429 2.450 . S
Sm408 O430 2.681 1_455 S
Sm408 O431 2.464 1_455 S
Sm408 O432 2.396 . S
Sm408 O436 2.386 1_554 S
Sm408 O439 2.408 1_454 S
Sm409 C419 2.846 . S
Sm409 O430 2.386 1_556 S
Sm409 O433 2.408 1_656 S
Sm409 O434 2.543 . S
Sm409 O435 2.450 . S
Sm409 O436 2.681 1_655 S
Sm409 O437 2.464 1_655 S
Sm409 O438 2.396 . S
C410 Sm408 2.846 . S
C410 C411 1.506 . S
C410 O428 1.261 . S
C410 O429 1.242 . S
C411 C410 1.506 . S
C411 C412 1.358 . S
C411 C416 1.382 . S
C412 C411 1.358 . S
C412 C413 1.385 . S
C412 H440 0.930 . S
C413 C412 1.385 . S
C413 C414 1.395 . S
C413 H441 0.929 . S
C414 C413 1.395 . S
C414 C415 1.335 . S
C415 C414 1.335 . S
C415 C416 1.398 . S
C415 H442 0.930 . S
C416 C411 1.382 . S
C416 C415 1.398 . S
C416 H443 0.929 . S
C417 O430 1.271 . S
C417 O431 1.251 . S
C418 O432 1.252 . S
C418 O433 1.272 . S
C419 Sm409 2.846 . S
C419 C420 1.506 . S
C419 O434 1.261 . S
C419 O435 1.242 . S
C420 C419 1.506 . S
C420 C421 1.358 . S
C420 C425 1.382 . S
C421 C420 1.358 . S
C421 C422 1.385 . S
C421 H444 0.930 . S
C422 C421 1.385 . S
C422 C423 1.395 . S
C422 H445 0.929 . S
C423 C422 1.395 . S
C423 C424 1.335 . S
C424 C423 1.335 . S
C424 C425 1.398 . S
C424 H446 0.930 . S
C425 C420 1.382 . S
C425 C424 1.398 . S
C425 H447 0.929 . S
C426 O436 1.271 . S
C426 O437 1.251 . S
C427 O438 1.252 . S
C427 O439 1.272 . S
O428 Sm408 2.543 . S
O428 C410 1.261 . S
O429 Sm408 2.450 . S
O429 C410 1.242 . S
O430 Sm408 2.681 1_655 S
O430 Sm409 2.386 1_554 S
O430 C417 1.271 . S
O431 Sm408 2.464 1_655 S
O431 C417 1.251 . S
O432 Sm408 2.396 . S
O432 C418 1.252 . S
O433 Sm409 2.408 1_454 S
O433 C418 1.272 . S
O434 Sm409 2.543 . S
O434 C419 1.261 . S
O435 Sm409 2.450 . S
O435 C419 1.242 . S
O436 Sm408 2.386 1_556 S
O436 Sm409 2.681 1_455 S
O436 C426 1.271 . S
O437 Sm409 2.464 1_455 S
O437 C426 1.251 . S
O438 Sm409 2.396 . S
O438 C427 1.252 . S
O439 Sm408 2.408 1_656 S
O439 C427 1.272 . S
H440 C412 0.930 . S
H441 C413 0.929 . S
H442 C415 0.930 . S
H443 C416 0.929 . S
H444 C421 0.930 . S
H445 C422 0.929 . S
H446 C424 0.930 . S
H447 C425 0.929 . S
C1 C294 2.270 . S
C67 C343 1.874 . S
C378 C97 3.591 . S
C133 C417 3.578 . S
C338 C25 4.621 . S
C297 C37 1.562 . S
C427 C103 2.523 . S
C386 C109 2.286 . S
C31 C414 2.986 . S
C346 C73 3.312 . S
C139 C307 3.362 . S
C61 C383 2.524 . S
C303 C175 2.095 . S
C181 C334 1.764 . S
C247 C387 3.644 . S
C277 C426 3.527 . S
C145 C347 4.435 . S
C306 C211 1.546 . S
C418 C217 2.465 . S
C377 C283 2.278 . S
C169 C423 2.807 . S
C337 C241 3.336 . S
C298 C253 3.336 . S
C205 C374 2.615 . S
