# Generated by pormake.
# Topology tsx, (6,3)-cn, num edge types: 1
# Building blocks:
#     Node 0, Type 0, BuildingBlock: LEVNOQ01_clean_sbu_1, # of connection points: 6
#     Node 1, Type 0, BuildingBlock: LEVNOQ01_clean_sbu_1, # of connection points: 6
#     Node 2, Type 1, BuildingBlock: VETTIZ_charged_linker_0, # of connection points: 3
#     Node 3, Type 1, BuildingBlock: VETTIZ_charged_linker_0, # of connection points: 3
#     Node 4, Type 1, BuildingBlock: VETTIZ_charged_linker_0, # of connection points: 3
#     Node 5, Type 1, BuildingBlock: VETTIZ_charged_linker_0, # of connection points: 3
#     Edge 6, Type (0, 1), BuildingBlock: TEMPAE_clean_linker_10, # of connection points: 2
#     Edge 7, Type (0, 1), BuildingBlock: TEMPAE_clean_linker_10, # of connection points: 2
#     Edge 8, Type (0, 1), BuildingBlock: TEMPAE_clean_linker_10, # of connection points: 2
#     Edge 9, Type (0, 1), BuildingBlock: TEMPAE_clean_linker_10, # of connection points: 2
#     Edge 10, Type (0, 1), BuildingBlock: TEMPAE_clean_linker_10, # of connection points: 2
#     Edge 11, Type (0, 1), BuildingBlock: TEMPAE_clean_linker_10, # of connection points: 2
#     Edge 12, Type (0, 1), BuildingBlock: TEMPAE_clean_linker_10, # of connection points: 2
#     Edge 13, Type (0, 1), BuildingBlock: TEMPAE_clean_linker_10, # of connection points: 2
#     Edge 14, Type (0, 1), BuildingBlock: TEMPAE_clean_linker_10, # of connection points: 2
#     Edge 15, Type (0, 1), BuildingBlock: TEMPAE_clean_linker_10, # of connection points: 2
#     Edge 16, Type (0, 1), BuildingBlock: TEMPAE_clean_linker_10, # of connection points: 2
#     Edge 17, Type (0, 1), BuildingBlock: TEMPAE_clean_linker_10, # of connection points: 2
# Relax obj value: 0.135
# Max RMSD: 0.160
# Mean RMSD: 0.123
data_MOF--net-tsx--node1-LEVNOQ01_clean_sbu_1--node2-VETTIZ_charged_linker_0--edge1-TEMPAE_clean_linker_10
_symmetry_space_group_name_H-M    P1
_symmetry_Int_Tables_number       1
_symmetry_cell_setting            triclinic
loop_
_symmetry_equiv_pos_as_xyz
'x, y, z'
_cell_length_a     22.18955
_cell_length_b     26.837728
_cell_length_c     46.168218
_cell_angle_alpha  97.205233
_cell_angle_beta   90.595787
_cell_angle_gamma 90.534072
loop_
_atom_site_label
_atom_site_type_symbol
_atom_site_fract_x
_atom_site_fract_y
_atom_site_fract_z
_atom_type_partial_charge
O0 O 0.12562 0.05082 0.07555 0.0
Mg1 Mg 0.18164 0.06508 0.04105 0.0
O2 O 0.04729 0.02843 0.04662 0.0
Mg3 Mg 0.07388 0.04193 -0.00103 0.0
O4 O 0.14061 0.10829 0.01296 0.0
O5 O 0.21969 0.13444 0.04163 0.0
O6 O 0.10552 0.06237 0.95282 0.0
O7 O 0.99819 0.10111 -0.00159 0.0
Mg8 Mg 0.021 0.00659 0.95174 0.0
O9 O 1.00432 0.97289 -0.01234 0.0
O10 O 0.1016 0.98806 0.92868 0.0
O11 O 0.97931 0.07849 0.95158 0.0
O12 O 0.96095 0.95001 0.94366 0.0
C13 C 0.20065 0.97021 0.00437 0.0
C14 C 0.07216 0.03396 0.07196 0.0
C15 C 0.18002 0.14298 0.02227 0.0
C16 C 0.11986 0.0328 0.93031 0.0
C17 C 0.97206 0.10894 0.97464 0.0
C18 C 0.96818 0.94343 0.97067 0.0
O19 O 0.22971 0.00307 0.02112 0.0
O20 O 0.14691 0.97884 -0.00368 0.0
O21 O 0.62775 0.54594 0.57801 0.0
Mg22 Mg 0.67703 0.56686 0.54309 0.0
O23 O 0.54613 0.53542 0.55035 0.0
Mg24 Mg 0.57719 0.55367 0.50401 0.0
O25 O 0.64228 0.62264 0.52085 0.0
O26 O 0.71937 0.63293 0.55305 0.0
O27 O 0.61058 0.57797 0.45923 0.0
O28 O 0.50079 0.61271 0.50354 0.0
Mg29 Mg 0.52646 0.52021 0.45476 0.0
O30 O 0.50913 0.48494 0.49004 0.0
O31 O 0.60915 0.50557 0.43281 0.0
O32 O 0.48433 0.59208 0.45624 0.0
O33 O 0.46789 0.46246 0.44557 0.0
C34 C 0.70406 0.48005 0.50554 0.0
C35 C 0.57265 0.53394 0.57492 0.0
C36 C 0.6842 0.65114 0.53467 0.0
C37 C 0.62596 0.55084 0.43597 0.0
C38 C 0.47589 0.62152 0.47961 0.0
C39 C 0.47407 0.45537 0.47256 0.0
O40 O 0.73386 0.51241 0.5221 0.0
O41 O 0.64941 0.48898 0.4992 0.0
C42 C 0.12319 0.8919 0.43972 0.0
C43 C 0.15217 0.84878 0.42613 0.0
C44 C 0.13798 0.83136 0.39674 0.0
C45 C 0.06678 0.89866 0.39492 0.0
C46 C 0.08007 0.91582 0.42382 0.0
C47 C 0.04309 0.96111 0.43479 0.0
H48 H 0.83088 0.12975 0.40557 0.0
C49 C 0.01894 0.93029 0.3847 0.0
C50 C 1.00338 0.96622 0.40821 0.0
H51 H 0.93804 0.132 0.48417 0.0
H52 H 0.98258 0.05222 0.4652 0.0
H53 H 0.94224 0.09726 0.36219 0.0
H54 H 0.7947 0.019 0.39639 0.0
H55 H 0.81179 0.98294 0.36307 0.0
H56 H 0.78636 0.04681 0.36328 0.0
H57 H 0.86379 0.10787 0.35543 0.0
H58 H 0.90414 0.06062 0.33323 0.0
C59 C 0.08685 0.00635 0.44182 0.0
C60 C 0.00582 0.94885 0.46119 0.0
C61 C 0.96365 0.91997 0.27675 0.0
C62 C 0.91963 0.94517 0.2619 0.0
C63 C 0.87286 0.96995 0.27818 0.0
C64 C 0.87418 0.97527 0.30867 0.0
C65 C 0.92285 0.95589 0.32313 0.0
C66 C 0.96382 0.92535 0.30744 0.0
C67 C 0.00731 0.90254 0.32734 0.0
C68 C 0.98986 0.92973 0.35706 0.0
C69 C 0.94153 0.96197 0.35409 0.0
C70 C 0.07244 0.91583 0.31919 0.0
C71 C 0.99425 0.84521 0.32484 0.0
C72 C 0.86401 0.11311 0.41874 0.0
C73 C 0.88174 0.13745 0.44617 0.0
C74 C 0.92384 0.11393 0.46293 0.0
C75 C 0.95 0.06798 0.45176 0.0
C76 C 0.93399 0.0455 0.42351 0.0
C77 C 0.89098 0.06797 0.40775 0.0
C78 C 0.88127 0.04111 0.37759 0.0
C79 C 0.92592 -0.00136 0.37758 0.0
C80 C 0.95686 0.00118 0.40449 0.0
C81 C 0.89842 0.07832 0.35578 0.0
C82 C 0.81513 0.02161 0.37471 0.0
H83 H 0.08723 0.84118 0.35881 0.0
H84 H 0.13302 0.90603 0.46231 0.0
H85 H 0.96602 0.97296 0.46508 0.0
H86 H 0.03391 0.95238 0.48142 0.0
H87 H 0.98775 0.90974 0.45732 0.0
H88 H 0.12287 0.0054 0.42517 0.0
H89 H 0.1091 0.00573 0.46343 0.0
H90 H 0.06482 0.0429 0.44136 0.0
H91 H 0.99921 0.89922 0.26494 0.0
H92 H 0.8367 0.98751 0.26736 0.0
H93 H 0.83888 0.99651 0.31984 0.0
H94 H 0.07683 0.95675 0.31768 0.0
H95 H 0.08484 0.89514 0.29776 0.0
H96 H 0.10613 0.90707 0.3355 0.0
H97 H 0.95 0.83483 0.3141 0.0
H98 H 0.99142 0.83184 0.34658 0.0
H99 H 0.02917 0.82337 0.31184 0.0
H100 H 0.16023 0.79867 0.3857 0.0
C101 C 0.09564 0.85602 0.38112 0.0
C102 C 0.16053 0.17262 0.53755 0.0
C103 C 0.21504 0.19341 0.54971 0.0
C104 C 0.23252 0.18452 0.57795 0.0
C105 C 0.14 0.13814 0.58263 0.0
C106 C 0.12405 0.14443 0.55431 0.0
C107 C 0.06547 0.11769 0.54499 0.0
H108 H 0.82936 0.97624 0.58166 0.0
C109 C 0.09071 0.11093 0.59512 0.0
C110 C 0.0469 0.0983 0.57325 0.0
H111 H 0.87818 0.0082 0.49551 0.0
H112 H 0.95954 0.06306 0.51662 0.0
H113 H 0.9621 0.95769 0.60415 0.0
H114 H 0.85049 0.08901 0.61452 0.0
H115 H 0.89627 0.09246 0.64599 0.0
H116 H 0.84317 0.04094 0.63798 0.0
H117 H 0.89218 0.96199 0.62359 0.0
H118 H 0.96143 0.98367 0.64127 0.0
C119 C 0.07906 0.07445 0.52043 0.0
C120 C 0.02017 0.15646 0.53593 0.0
C121 C 0.10019 0.08997 0.70262 0.0
C122 C 0.05762 0.07509 0.72234 0.0
C123 C 0.99947 0.06006 0.71151 0.0
C124 C 0.98484 0.05868 0.68178 0.0
C125 C 0.02828 0.07322 0.66253 0.0
C126 C 0.08417 0.08984 0.67326 0.0
C127 C 0.12238 0.10932 0.65044 0.0
C128 C 0.08071 0.10039 0.624 0.0
C129 C 0.02631 0.07806 0.63098 0.0
C130 C 0.17957 0.07655 0.6464 0.0
C131 C 0.13488 0.1661 0.66008 0.0
C132 C 0.85667 0.99591 0.56733 0.0
C133 C 0.84743 0.98793 0.53692 0.0
C134 C 0.88477 0.01348 0.51897 0.0
C135 C 0.93217 0.04473 0.53115 0.0
C136 C 0.94307 0.04964 0.56142 0.0
C137 C 0.90488 0.02616 0.57904 0.0
C138 C 0.92454 0.03382 0.61059 0.0
C139 C 0.98285 0.06314 0.60872 0.0
C140 C 0.99316 0.07295 0.57994 0.0
C141 C 0.93552 0.9817 0.62067 0.0
C142 C 0.87619 0.06538 0.62839 0.0
H143 H 0.21074 0.15256 0.61604 0.0
H144 H 0.14677 0.17831 0.51564 0.0
H145 H 0.02024 0.1906 0.55231 0.0
H146 H 0.97337 0.14194 0.53467 0.0
H147 H 0.0321 0.16821 0.51446 0.0
H148 H 0.12668 0.06208 0.5214 0.0
H149 H 0.07136 0.08631 0.49851 0.0
H150 H 0.0521 0.04016 0.52231 0.0
H151 H 0.1454 0.10157 0.70964 0.0
H152 H 0.96468 0.04989 0.726 0.0
H153 H 0.94015 0.04658 0.67492 0.0
H154 H 0.16859 0.03652 0.64821 0.0
H155 H 0.21426 0.08915 0.66332 0.0
H156 H 0.19965 0.07616 0.62457 0.0
H157 H 0.09865 0.18333 0.6744 0.0
H158 H 0.13547 0.18852 0.64157 0.0
H159 H 0.17806 0.17211 0.67246 0.0
H160 H 0.27431 0.20028 0.58763 0.0
C161 C 0.19531 0.15714 0.59447 0.0
C162 C 0.61716 0.38086 0.9404 0.0
C163 C 0.64674 0.33861 0.92618 0.0
C164 C 0.63265 0.32213 0.89668 0.0
C165 C 0.56063 0.38905 0.89583 0.0
C166 C 0.57359 0.40504 0.92491 0.0
C167 C 0.53548 0.4492 0.93662 0.0
H168 H 0.32587 0.62052 0.9091 0.0
C169 C 0.51253 0.42085 0.88605 0.0
C170 C 0.49618 0.45542 0.91008 0.0
H171 H 0.42756 0.61655 -0.01118 0.0
H172 H 0.47148 0.53696 0.96902 0.0
H173 H 0.4369 0.59071 0.8671 0.0
H174 H 0.2884 0.50879 0.89758 0.0
H175 H 0.30622 0.47556 0.86354 0.0
H176 H 0.28115 0.53982 0.86557 0.0
H177 H 0.35893 0.60029 0.85874 0.0
H178 H 0.40248 0.55465 0.8369 0.0
C179 C 0.57807 0.49487 0.94493 0.0
C180 C 0.49787 0.43452 0.96235 0.0
C181 C 0.45966 0.41549 0.77803 0.0
C182 C 0.41658 0.44194 0.76339 0.0
C183 C 0.37021 0.46714 0.77973 0.0
C184 C 0.37079 0.47116 0.81019 0.0
C185 C 0.41842 0.45016 0.82458 0.0
C186 C 0.45926 0.41975 0.8087 0.0
C187 C 0.50221 0.3959 0.82838 0.0
C188 C 0.48425 0.42183 0.85834 0.0
C189 C 0.43626 0.45452 0.85565 0.0
C190 C 0.56754 0.40955 0.82073 0.0
C191 C 0.48899 0.33854 0.82496 0.0
C192 C 0.35761 0.60248 0.92231 0.0
C193 C 0.37448 0.6252 0.95023 0.0
C194 C 0.41448 0.59988 0.96712 0.0
C195 C 0.44028 0.55405 0.95544 0.0
C196 C 0.42599 0.53365 0.92654 0.0
C197 C 0.38417 0.5575 0.91084 0.0
C198 C 0.37561 0.53256 0.88018 0.0
C199 C 0.41986 0.48979 0.87969 0.0
C200 C 0.44958 0.49047 0.90681 0.0
C201 C 0.39407 0.57124 0.85945 0.0
C202 C 0.30946 0.51337 0.87629 0.0
H203 H 0.58161 0.33302 0.85903 0.0
H204 H 0.62684 0.39406 0.96313 0.0
H205 H 0.45671 0.45708 0.96607 0.0
H206 H 0.52505 0.4382 0.98287 0.0
H207 H 0.48179 0.39489 0.95781 0.0
H208 H 0.61403 0.49597 0.9284 0.0
H209 H 0.60038 0.49284 0.9664 0.0
H210 H 0.55504 0.53119 0.94559 0.0
H211 H 0.49497 0.39461 0.76609 0.0
H212 H 0.33501 0.48597 0.769 0.0
H213 H 0.33583 0.49274 0.82142 0.0
H214 H 0.57202 0.45063 0.81978 0.0
H215 H 0.58034 0.38966 0.79915 0.0
H216 H 0.60093 0.40018 0.83701 0.0
H217 H 0.44463 0.32877 0.81415 0.0
H218 H 0.48621 0.32404 0.84637 0.0
H219 H 0.52378 0.31722 0.81158 0.0
H220 H 0.65526 0.28995 0.88527 0.0
C221 C 0.58997 0.34712 0.88147 0.0
C222 C 0.65542 0.66434 0.04069 0.0
C223 C 0.70925 0.68732 0.05226 0.0
C224 C 0.72566 0.68385 0.08141 0.0
C225 C 0.63293 0.63909 0.08809 0.0
C226 C 0.6183 0.63961 0.05895 0.0
C227 C 0.56005 0.61151 0.05069 0.0
H228 H 0.3221 0.48078 0.09499 0.0
C229 C 0.58275 0.6154 0.10201 0.0
C230 C 0.53995 0.5986 0.08034 0.0
H231 H 0.38156 0.48736 0.00664 0.0
H232 H 0.45754 0.54964 0.02462 0.0
H233 H 0.45205 0.46891 0.12151 0.0
H234 H 0.34237 0.60021 0.11919 0.0
H235 H 0.38395 0.609 0.15207 0.0
H236 H 0.33024 0.55762 0.14561 0.0
H237 H 0.38083 0.47782 0.13954 0.0
H238 H 0.44897 0.50306 0.15672 0.0
C239 C 0.57431 0.564 0.02911 0.0
C240 C 0.51521 0.64732 0.03829 0.0
C241 C 0.58784 0.61523 0.21173 0.0
C242 C 0.54462 0.60411 0.23215 0.0
C243 C 0.48596 0.58958 0.22184 0.0
C244 C 0.47174 0.58414 0.19191 0.0
C245 C 0.51626 0.59381 0.17191 0.0
C246 C 0.57236 0.61087 0.1821 0.0
C247 C 0.61192 0.6249 0.15818 0.0
C248 C 0.57102 0.6116 0.13176 0.0
C249 C 0.51569 0.59214 0.13977 0.0
C250 C 0.66839 0.59111 0.15677 0.0
C251 C 0.62557 0.6822 0.16427 0.0
C252 C 0.3514 0.49555 0.07942 0.0
C253 C 0.34667 0.478 0.04944 0.0
C254 C 0.38436 0.49972 0.02986 0.0
C255 C 0.42918 0.53508 0.04031 0.0
C256 C 0.43697 0.54817 0.07059 0.0
C257 C 0.39751 0.52932 0.08956 0.0
C258 C 0.41475 0.54452 0.12107 0.0
C259 C 0.47331 0.57278 0.11785 0.0
C260 C 0.48555 0.57566 0.08825 0.0
C261 C 0.42454 0.49628 0.13571 0.0
C262 C 0.3653 0.5794 0.13547 0.0
H263 H 0.70222 0.65969 0.12158 0.0
H264 H 0.64253 0.66597 0.01814 0.0
H265 H 0.51384 0.68388 0.05257 0.0
H266 H 0.46871 0.63207 0.03712 0.0
H267 H 0.52858 0.65483 0.0161 0.0
H268 H 0.62316 0.555 0.02897 0.0
H269 H 0.56116 0.5689 0.00637 0.0
H270 H 0.55155 0.52991 0.03516 0.0
H271 H 0.63338 0.62646 0.21835 0.0
H272 H 0.45072 0.58243 0.23686 0.0
H273 H 0.42672 0.57239 0.18543 0.0
H274 H 0.65618 0.55232 0.16087 0.0
H275 H 0.70257 0.60599 0.17346 0.0
H276 H 0.68959 0.58654 0.13506 0.0
H277 H 0.59001 0.70236 0.17779 0.0
H278 H 0.62615 0.70065 0.14417 0.0
H279 H 0.66911 0.68979 0.17616 0.0
H280 H 0.76695 0.70138 0.09061 0.0
C281 C 0.68775 0.66003 0.0994 0.0
C282 C 0.14264 0.22952 0.0207 0.0
C283 C 0.18313 0.19163 0.01086 0.0
C284 C 0.15844 0.28038 0.02036 0.0
C285 C 0.21603 0.29298 0.01017 0.0
C286 C 0.25308 0.25442 -0.00344 0.0
C287 C 0.23636 0.20411 -0.00266 0.0
C288 C 0.11686 0.3203 0.03433 0.0
C289 C 0.31426 0.26589 0.98487 0.0
C290 C 0.27654 0.42742 0.01297 0.0
C291 C 0.3087 0.43274 0.03958 0.0
C292 C 0.24386 0.38294 0.00336 0.0
C293 C 0.24402 0.34283 0.02064 0.0
C294 C 0.2755 0.34857 0.04772 0.0
C295 C 0.30749 0.39305 0.05668 0.0
C296 C 0.21094 0.37843 0.9744 0.0
C297 C 0.27743 0.30689 0.06693 0.0
H298 H 0.10163 0.21977 0.03136 0.0
H299 H 0.26768 0.1746 -0.01017 0.0
H300 H 0.13193 0.33205 0.05719 0.0
H301 H 0.11798 0.35397 0.02263 0.0
H302 H 0.06968 0.30618 0.03471 0.0
H303 H 0.33196 0.2335 0.97018 0.0
H304 H 0.31239 0.29903 0.97278 0.0
H305 H 0.34648 0.27478 0.0034 0.0
H306 H 0.2771 0.45785 -0.0004 0.0
H307 H 0.33348 0.39594 0.07683 0.0
H308 H 0.16669 0.35925 0.97561 0.0
H309 H 0.23796 0.35551 0.95769 0.0
H310 H 0.20363 0.41574 0.96697 0.0
H311 H 0.23102 0.29497 0.07182 0.0
H312 H 0.3016 0.31833 0.08794 0.0
H313 H 0.30043 0.27375 0.05537 0.0
C314 C 0.28815 0.91177 0.00346 0.0
C315 C 0.22788 0.92023 -0.00394 0.0
C316 C 0.31367 0.86399 -0.00253 0.0
C317 C 0.27807 0.82352 0.98385 0.0
C318 C 0.21727 0.83174 0.97624 0.0
C319 C 0.19296 0.88002 0.98233 0.0
C320 C 0.37887 0.85686 0.0056 0.0
C321 C 0.17788 0.78949 0.96166 0.0
C322 C 0.35581 0.71322 0.94096 0.0
C323 C 0.35325 0.6767 0.96018 0.0
C324 C 0.33219 0.7612 0.94858 0.0
C325 C 0.30531 0.77318 0.97618 0.0
C326 C 0.30405 0.73698 -0.00392 0.0
C327 C 0.32837 0.68909 -0.01212 0.0
C328 C 0.3352 0.79882 0.92686 0.0
C329 C 0.27581 0.7485 0.02573 0.0
H330 H 0.31554 0.94253 0.01409 0.0
H331 H 0.14627 0.88606 0.97671 0.0
H332 H 0.38242 0.82731 0.02029 0.0
H333 H 0.40492 0.84401 0.98572 0.0
H334 H 0.40006 0.89194 0.01665 0.0
H335 H 0.13099 0.80168 0.95804 0.0
H336 H 0.1971 0.77452 0.94027 0.0
H337 H 0.1766 0.75818 0.97523 0.0
H338 H 0.37611 0.70406 0.91972 0.0
H339 H 0.32632 0.6609 0.00274 0.0
H340 H 0.35872 0.83357 0.93679 0.0
H341 H 0.28897 0.8095 0.92085 0.0
H342 H 0.35904 0.78394 0.90661 0.0
H343 H 0.29717 0.78251 0.03788 0.0
H344 H 0.28016 0.71691 0.039 0.0
H345 H 0.22726 0.75666 0.02312 0.0
C346 C 0.92853 0.90059 0.01192 0.0
C347 C 0.93447 0.90222 0.98188 0.0
C348 C 0.89347 0.86296 0.0224 0.0
C349 C 0.86396 0.82617 0.00229 0.0
C350 C 0.87163 0.82665 0.97198 0.0
C351 C 0.90649 0.86478 0.96215 0.0
C352 C 0.88637 0.86388 0.05494 0.0
C353 C 0.84224 0.78731 0.94989 0.0
C354 C 0.80809 0.7083 0.03155 0.0
C355 C 0.74674 0.71863 0.03537 0.0
C356 C 0.84659 0.74234 0.01998 0.0
C357 C 0.82323 0.78822 0.01283 0.0
C358 C 0.76091 0.79821 0.01606 0.0
C359 C 0.72321 0.76293 0.02704 0.0
C360 C 0.91255 0.73003 0.01635 0.0
C361 C 0.73456 0.84705 0.00909 0.0
H362 H 0.95 0.9294 0.02727 0.0
H363 H 0.91151 0.86536 0.93886 0.0
H364 H 0.84128 0.8788 0.06129 0.0
H365 H 0.88924 0.82558 0.06145 0.0
H366 H 0.9212 0.88801 0.06734 0.0
H367 H 0.85579 0.79118 0.92718 0.0
H368 H 0.85428 0.74917 0.95476 0.0
H369 H 0.7925 0.79032 0.95126 0.0
H370 H 0.8261 0.67409 0.03831 0.0
H371 H 0.6759 0.77113 0.03057 0.0
H372 H 0.94004 0.75701 0.03131 0.0
H373 H 0.92679 0.73385 -0.00624 0.0
H374 H 0.92268 0.69137 0.02106 0.0
H375 H 0.75604 0.8789 0.02327 0.0
H376 H 0.68504 0.84861 0.01233 0.0
H377 H 0.74411 0.8524 0.98614 0.0
C378 C 0.92239 0.17061 0.9465 0.0
C379 C 0.93129 0.15202 0.97327 0.0
C380 C 0.87825 0.20649 0.94312 0.0
C381 C 0.84121 0.22387 0.967 0.0
C382 C 0.85206 0.2073 -0.00544 0.0
C383 C 0.8974 0.17173 -0.00256 0.0
C384 C 0.8692 0.22371 0.91347 0.0
C385 C 0.81352 0.22478 0.02051 0.0
C386 C 0.74406 0.33545 0.95407 0.0
C387 C 0.69234 0.31095 0.94145 0.0
C388 C 0.79196 0.3079 0.96417 0.0
C389 C 0.78747 0.25481 0.96185 0.0
C390 C 0.73342 0.23046 0.95098 0.0
C391 C 0.68679 0.25877 0.94072 0.0
C392 C 0.84878 0.33531 0.97548 0.0
C393 C 0.72616 0.17407 0.94851 0.0
H394 H 0.94909 0.15603 0.92784 0.0
H395 H 0.90409 0.15744 0.01816 0.0
H396 H 0.82549 0.20898 0.90393 0.0
H397 H 0.86754 0.2653 0.91549 0.0
H398 H 0.90557 0.21063 0.89807 0.0
H399 H 0.83284 0.21422 0.04116 0.0
H400 H 0.80802 0.26613 0.0228 0.0
H401 H 0.76792 0.20756 0.01717 0.0
H402 H 0.74845 0.37582 0.95453 0.0
H403 H 0.6465 0.23989 0.93122 0.0
H404 H 0.88469 0.32834 0.95895 0.0
H405 H 0.86514 0.32119 -0.00431 0.0
H406 H 0.84197 0.37649 0.98007 0.0
H407 H 0.7564 0.15618 0.93133 0.0
H408 H 0.67916 0.16159 0.94283 0.0
H409 H 0.73926 0.16031 0.96934 0.0
C410 C 0.73546 0.73367 0.54778 0.0
C411 C 0.69406 0.70424 0.52969 0.0
C412 C 0.75018 0.7827 0.54307 0.0
C413 C 0.7225 0.80372 0.51971 0.0
C414 C 0.67918 0.77501 0.50175 0.0
C415 C 0.66561 0.72533 0.50687 0.0
C416 C 0.79641 0.81169 0.56302 0.0
C417 C 0.64835 0.79604 0.47674 0.0
C418 C 0.74822 0.94262 0.53699 0.0
C419 C 0.80495 0.94751 0.52445 0.0
C420 C 0.71563 0.89718 0.53212 0.0
C421 C 0.74096 0.85554 0.51472 0.0
C422 C 0.7942 0.86253 0.49895 0.0
C423 C 0.82561 0.90857 0.50397 0.0
C424 C 0.65796 0.892 0.54854 0.0
C425 C 0.82231 0.81953 0.47975 0.0
H426 H 0.75741 0.71816 0.56567 0.0
H427 H 0.63365 0.70287 0.49274 0.0
H428 H 0.83515 0.82266 0.5501 0.0
H429 H 0.77635 0.84667 0.57403 0.0
H430 H 0.81382 0.78967 0.58009 0.0
H431 H 0.60709 0.77415 0.46926 0.0
H432 H 0.63601 0.83589 0.48294 0.0
H433 H 0.67967 0.79462 0.4581 0.0
H434 H 0.73147 0.97307 0.55238 0.0
H435 H 0.86928 0.91217 0.49407 0.0
H436 H 0.66776 0.87404 0.56843 0.0
H437 H 0.62482 0.8678 0.53503 0.0
H438 H 0.63736 0.92913 0.55539 0.0
H439 H 0.8456 0.79469 0.49369 0.0
H440 H 0.85589 0.83297 0.46473 0.0
H441 H 0.78737 0.7967 0.46668 0.0
C442 C 0.69532 0.3902 0.48296 0.0
C443 C 0.73123 0.43058 0.49568 0.0
C444 C 0.71986 0.34222 0.47568 0.0
C445 C 0.78189 0.33454 0.48098 0.0
C446 C 0.81853 0.3753 0.49338 0.0
C447 C 0.79275 0.42273 0.50066 0.0
C448 C 0.67932 0.29964 0.46251 0.0
C449 C 0.885 0.36882 0.49901 0.0
C450 C 0.83702 0.20123 0.48436 0.0
C451 C 0.8586 0.18849 0.456 0.0
C452 C 0.81193 0.24872 0.49288 0.0
C453 C 0.80897 0.28426 0.47263 0.0
C454 C 0.83206 0.27188 0.44422 0.0
C455 C 0.85655 0.22426 0.43629 0.0
C456 C 0.78772 0.2606 0.52336 0.0
C457 C 0.83056 0.30884 0.4221 0.0
H458 H 0.6477 0.3958 0.4792 0.0
H459 H 0.8209 0.45368 0.51045 0.0
H460 H 0.69581 0.28441 0.4406 0.0
H461 H 0.68044 0.26859 0.47626 0.0
H462 H 0.63185 0.31156 0.4603 0.0
H463 H 0.90723 0.40428 0.50888 0.0
H464 H 0.89168 0.33985 0.51387 0.0
H465 H 0.90785 0.35548 0.47825 0.0
H466 H 0.83839 0.17365 0.49961 0.0
H467 H 0.87427 0.21493 0.41451 0.0
H468 H 0.73889 0.26884 0.52229 0.0
H469 H 0.81046 0.29467 0.5347 0.0
H470 H 0.79415 0.22919 0.5366 0.0
H471 H 0.78329 0.31916 0.41781 0.0
H472 H 0.85116 0.29356 0.40105 0.0
H473 H 0.85497 0.34387 0.43084 0.0
C474 C 0.43411 0.41119 0.51325 0.0
C475 C 0.44004 0.41379 0.48329 0.0
C476 C 0.39884 0.37328 0.52333 0.0
C477 C 0.36907 0.33716 0.50291 0.0
C478 C 0.37656 0.33869 0.47267 0.0
C479 C 0.41166 0.37708 0.46323 0.0
C480 C 0.39192 0.37305 0.5558 0.0
C481 C 0.34682 0.30014 0.45024 0.0
C482 C 0.31418 0.21725 0.53028 0.0
C483 C 0.25271 0.227 0.53428 0.0
C484 C 0.35241 0.25229 0.51941 0.0
C485 C 0.32869 0.29855 0.51308 0.0
C486 C 0.26633 0.30811 0.51661 0.0
C487 C 0.2289 0.27189 0.5269 0.0
C488 C 0.41842 0.24041 0.51546 0.0
C489 C 0.23958 0.3573 0.51048 0.0
H490 H 0.45586 0.43942 0.52886 0.0
H491 H 0.41656 0.37843 0.44001 0.0
H492 H 0.34638 0.38674 0.56229 0.0
H493 H 0.39603 0.33452 0.56185 0.0
H494 H 0.42604 0.39755 0.56847 0.0
H495 H 0.35985 0.305 0.42758 0.0
H496 H 0.35912 0.26171 0.45448 0.0
H497 H 0.2971 0.30298 0.4519 0.0
H498 H 0.33244 0.1825 0.53616 0.0
H499 H 0.18149 0.27962 0.5305 0.0
H500 H 0.44597 0.26727 0.53047 0.0
H501 H 0.43218 0.24478 0.49287 0.0
H502 H 0.42901 0.20165 0.51984 0.0
H503 H 0.26123 0.38872 0.52493 0.0
H504 H 0.19013 0.35859 0.514 0.0
H505 H 0.24857 0.36361 0.48763 0.0
C506 C 0.3984 0.68277 0.50148 0.0
C507 C 0.43545 0.66482 0.47813 0.0
C508 C 0.35303 0.71806 0.49791 0.0
C509 C 0.34527 0.73602 0.4705 0.0
C510 C 0.38557 0.72053 0.44761 0.0
C511 C 0.42976 0.68502 0.45167 0.0
C512 C 0.31115 0.73367 0.52287 0.0
C513 C 0.37985 0.73914 0.41816 0.0
C514 C 0.19307 0.7689 0.44051 0.0
C515 C 0.19729 0.8213 0.44194 0.0
C516 C 0.23925 0.74108 0.45159 0.0
C517 C 0.29145 0.76615 0.46422 0.0
C518 C 0.29443 0.81936 0.46727 0.0
C519 C 0.2471 0.84638 0.45619 0.0
C520 C 0.23364 0.68451 0.44817 0.0
C521 C 0.34918 0.84757 0.48055 0.0
H522 H 0.40261 0.66723 0.52197 0.0
H523 H 0.4589 0.67181 0.43365 0.0
H524 H 0.30435 0.77488 0.5255 0.0
H525 H 0.26643 0.7155 0.51806 0.0
H526 H 0.32841 0.72268 0.54381 0.0
H527 H 0.41832 0.72745 0.40373 0.0
H528 H 0.33764 0.72403 0.40714 0.0
H529 H 0.37715 0.7807 0.42076 0.0
H530 H 0.15419 0.74947 0.42988 0.0
H531 H 0.25055 0.8869 0.4573 0.0
H532 H 0.24426 0.67014 0.46912 0.0
H533 H 0.26655 0.66797 0.43185 0.0
H534 H 0.18776 0.6712 0.44083 0.0
H535 H 0.36336 0.83292 0.50096 0.0
H536 H 0.34086 0.8885 0.48544 0.0
H537 H 0.38723 0.84204 0.46511 0.0
C538 C 0.98128 -0.00056 0.09561 0.0
C539 C 0.04078 0.01795 0.09757 0.0
C540 C 0.95301 0.98328 0.12005 0.0
C541 C 0.98536 0.98512 0.1468 0.0
C542 C 0.04547 0.00331 0.14873 0.0
C543 C 0.07219 0.0196 0.12424 0.0
C544 C 0.88862 0.96457 0.11735 0.0
C545 C 0.0816 0.00623 0.17686 0.0
C546 C 0.91563 -0.00106 0.22148 0.0
C547 C 0.92656 0.95172 0.23052 0.0
C548 C 0.9299 0.00898 0.1933 0.0
C549 C 0.95637 0.97108 0.17359 0.0
C550 C 0.96394 0.92237 0.1818 0.0
C551 C 0.9491 0.91326 0.21024 0.0
C552 C 0.92119 0.06151 0.18555 0.0
C553 C 0.99145 0.88083 0.16123 0.0
H554 H 0.95675 -0.00228 0.07508 0.0
H555 H 0.11827 0.03349 0.12608 0.0
H556 H 0.88663 0.92457 0.12113 0.0
H557 H 0.86054 0.9859 0.13427 0.0
H558 H 0.86864 0.96801 0.09554 0.0
H559 H 0.12846 0.01993 0.17445 0.0
H560 H 0.0594 0.03193 0.19414 0.0
H561 H 0.08351 0.96868 0.18448 0.0
H562 H 0.89923 0.02932 0.23698 0.0
H563 H 0.95684 0.87648 0.21685 0.0
H564 H 0.90092 0.06046 0.16342 0.0
H565 H 0.96566 0.08073 0.18535 0.0
H566 H 0.892 0.08427 0.20142 0.0
H567 H 0.97083 0.87918 0.13913 0.0
H568 H 0.98593 0.84359 0.16908 0.0
H569 H 0.04034 0.88853 0.15915 0.0
C570 C 0.16639 0.02563 0.88123 0.0
C571 C 0.13177 0.05297 0.90273 0.0
C572 C 0.1634 0.03574 0.85215 0.0
C573 C 0.12265 0.07231 0.84439 0.0
C574 C 0.09096 0.10245 0.86645 0.0
C575 C 0.09693 0.09303 0.89551 0.0
C576 C 0.20009 0.00444 0.82944 0.0
C577 C 0.04554 0.14069 0.85914 0.0
C578 C 0.11669 0.1096 0.76767 0.0
C579 C 0.07387 0.07521 0.75387 0.0
C580 C 0.13427 0.1084 0.79688 0.0
C581 C 0.10635 0.07366 0.8132 0.0
C582 C 0.062 0.03984 0.79979 0.0
C583 C 0.04737 0.04027 0.77022 0.0
C584 C 0.18307 0.14397 0.81019 0.0
C585 C 0.02986 0.00303 0.81669 0.0
H586 H 0.19321 0.99459 0.88686 0.0
H587 H 0.06941 0.11374 0.91208 0.0
H588 H 0.17071 0.9754 0.81706 0.0
H589 H 0.21908 0.02808 0.81361 0.0
H590 H 0.23759 0.9852 0.83949 0.0
H591 H 0.03106 0.16556 0.87886 0.0
H592 H 0.06403 0.1643 0.84323 0.0
H593 H 0.00512 0.1208 0.84889 0.0
H594 H 0.13665 0.13776 0.75578 0.0
H595 H 0.01546 0.01262 0.75994 0.0
H596 H 0.21973 0.12246 0.81925 0.0
H597 H 0.16472 0.16973 0.82857 0.0
H598 H 0.20266 0.16682 0.79409 0.0
H599 H 0.06245 0.97562 0.8236 0.0
H600 H 0.99336 0.98195 0.80365 0.0
H601 H 0.00996 0.02312 0.83676 0.0
C602 C 0.57311 0.51428 0.62621 0.0
C603 C 0.54095 0.51659 0.60006 0.0
C604 C 0.54576 0.49765 0.65045 0.0
C605 C 0.48436 0.48289 0.64874 0.0
C606 C 0.45142 0.48459 0.62242 0.0
C607 C 0.4802 0.50132 0.59827 0.0
C608 C 0.58255 0.49694 0.67815 0.0
C609 C 0.38584 0.4691 0.6199 0.0
C610 C 0.44395 0.41046 0.71141 0.0
C611 C 0.42423 0.44933 0.73221 0.0
C612 C 0.45892 0.41982 0.68303 0.0
C613 C 0.45476 0.46928 0.67549 0.0
C614 C 0.43142 0.50788 0.69583 0.0
C615 C 0.41659 0.49747 0.72387 0.0
C616 C 0.4828 0.37754 0.66175 0.0
C617 C 0.42675 0.56125 0.68887 0.0
H618 H 0.62012 0.5257 0.62792 0.0
H619 H 0.45512 0.50261 0.57811 0.0
H620 H 0.56276 0.52292 0.69606 0.0
H621 H 0.58167 0.45877 0.685 0.0
H622 H 0.6303 0.50824 0.67557 0.0
H623 H 0.36587 0.4746 0.59838 0.0
H624 H 0.38114 0.42892 0.62299 0.0
H625 H 0.35954 0.49099 0.63732 0.0
H626 H 0.44923 0.37305 0.71755 0.0
H627 H 0.40235 0.52805 0.73983 0.0
H628 H 0.53217 0.38247 0.65951 0.0
H629 H 0.46205 0.37804 0.63982 0.0
H630 H 0.47419 0.34025 0.66906 0.0
H631 H 0.47263 0.57788 0.68825 0.0
H632 H 0.40017 0.58517 0.70538 0.0
H633 H 0.40556 0.56219 0.66709 0.0
C634 C 0.66716 0.54818 0.38593 0.0
C635 C 0.63637 0.57438 0.40928 0.0
C636 C 0.66073 0.56137 0.35761 0.0
C637 C 0.62063 0.60023 0.35254 0.0
C638 C 0.59378 0.62965 0.37649 0.0
C639 C 0.60299 0.6169 0.40472 0.0
C640 C 0.69239 0.53061 0.33279 0.0
C641 C 0.54948 0.67055 0.3722 0.0
C642 C 0.60628 0.63953 0.27647 0.0
C643 C 0.56138 0.60606 0.26373 0.0
C644 C 0.62632 0.63818 0.30532 0.0
C645 C 0.59913 0.60409 0.32231 0.0
C646 C 0.55186 0.57201 0.31018 0.0
C647 C 0.5345 0.57265 0.28096 0.0
C648 C 0.67766 0.67221 0.31734 0.0
C649 C 0.5203 0.5361 0.32789 0.0
H650 H 0.69307 0.51539 0.38949 0.0
H651 H 0.57864 0.63705 0.42271 0.0
H652 H 0.65988 0.50366 0.32082 0.0
H653 H 0.71008 0.55508 0.31709 0.0
H654 H 0.73025 0.50896 0.34074 0.0
H655 H 0.5433 0.69658 0.39262 0.0
H656 H 0.56394 0.6926 0.3547 0.0
H657 H 0.50509 0.65308 0.36559 0.0
H658 H 0.62644 0.66662 0.26389 0.0
H659 H 0.50075 0.54586 0.27153 0.0
H660 H 0.71622 0.64917 0.32311 0.0
H661 H 0.66389 0.69562 0.33766 0.0
H662 H 0.69322 0.69737 0.30151 0.0
H663 H 0.55217 0.50684 0.33314 0.0
H664 H 0.48078 0.5172 0.31612 0.0
H665 H 0.50478 0.5564 0.34887 0.0
loop_
_geom_bond_atom_site_label_1
_geom_bond_atom_site_label_2
_geom_bond_distance
_geom_bond_site_symmetry_2
_ccdc_geom_bond_type
O0 Mg1 1.990 . S
O0 C14 1.253 . S
Mg1 O0 1.990 . S
Mg1 O4 2.180 . S
Mg1 O5 2.117 . S
Mg1 O19 2.030 1_545 S
O2 Mg3 2.072 . S
O2 C14 1.260 . S
Mg3 O2 2.072 . S
Mg3 O4 2.099 . S
Mg3 O6 2.079 1_554 S
Mg3 O7 2.072 . S
Mg3 O9 2.099 1_444 S
Mg3 O20 2.079 1_544 S
O4 Mg1 2.180 . S
O4 Mg3 2.099 . S
O4 C15 1.279 . S
O5 Mg1 2.117 . S
O5 C15 1.250 . S
O6 Mg3 2.079 1_556 S
O6 C16 1.264 . S
O7 Mg3 2.072 . S
O7 C17 1.260 1_455 S
Mg8 O9 2.180 1_545 S
Mg8 O10 2.030 . S
Mg8 O11 1.990 . S
Mg8 O12 2.117 1_545 S
O9 Mg3 2.099 1_666 S
O9 Mg8 2.180 1_565 S
O9 C18 1.279 1_556 S
O10 Mg8 2.030 . S
O10 C16 1.248 1_655 S
O11 Mg8 1.990 . S
O11 C17 1.253 1_556 S
O12 Mg8 2.117 1_565 S
O12 C18 1.250 1_556 S
C13 O19 1.248 . S
C13 O20 1.264 1_554 S
C14 O0 1.253 . S
C14 O2 1.260 . S
C15 O4 1.279 . S
C15 O5 1.250 . S
C16 O6 1.264 . S
C16 O10 1.248 1_455 S
C17 O7 1.260 1_655 S
C17 O11 1.253 1_554 S
C18 O9 1.279 1_554 S
C18 O12 1.250 1_554 S
O19 Mg1 2.030 1_565 S
O19 C13 1.248 . S
O20 Mg3 2.079 1_566 S
O20 C13 1.264 1_556 S
O21 Mg22 1.990 . S
O21 C35 1.253 . S
Mg22 O21 1.990 . S
Mg22 O25 2.180 . S
Mg22 O26 2.117 . S
Mg22 O40 2.030 . S
O23 Mg24 2.072 . S
O23 C35 1.260 . S
Mg24 O23 2.072 . S
Mg24 O25 2.099 . S
Mg24 O27 2.079 . S
Mg24 O28 2.072 . S
Mg24 O30 2.099 . S
Mg24 O41 2.079 . S
O25 Mg22 2.180 . S
O25 Mg24 2.099 . S
O25 C36 1.279 . S
O26 Mg22 2.117 . S
O26 C36 1.250 . S
O27 Mg24 2.079 . S
O27 C37 1.264 . S
O28 Mg24 2.072 . S
O28 C38 1.260 . S
Mg29 O30 2.180 . S
Mg29 O31 2.030 . S
Mg29 O32 1.990 . S
Mg29 O33 2.117 . S
O30 Mg24 2.099 . S
O30 Mg29 2.180 . S
O30 C39 1.279 . S
O31 Mg29 2.030 . S
O31 C37 1.248 . S
O32 Mg29 1.990 . S
O32 C38 1.253 . S
O33 Mg29 2.117 . S
O33 C39 1.250 . S
C34 O40 1.248 . S
C34 O41 1.264 . S
C35 O21 1.253 . S
C35 O23 1.260 . S
C36 O25 1.279 . S
C36 O26 1.250 . S
C37 O27 1.264 . S
C37 O31 1.248 . S
C38 O28 1.260 . S
C38 O32 1.253 . S
C39 O30 1.279 . S
C39 O33 1.250 . S
O40 Mg22 2.030 . S
O40 C34 1.248 . S
O41 Mg24 2.079 . S
O41 C34 1.264 . S
C42 C43 1.391 . S
C42 C46 1.391 . S
C42 H84 0.948 . S
C43 C42 1.391 . S
C43 C44 1.391 . S
C44 C43 1.391 . S
C44 H100 0.947 . S
C44 C101 1.392 . S
C45 C46 1.391 . S
C45 C49 1.397 . S
C45 C101 1.419 . S
C46 C42 1.391 . S
C46 C45 1.391 . S
C46 C47 1.399 . S
C47 C46 1.399 . S
C47 C50 1.396 . S
C47 C59 1.453 1_565 S
C47 C60 1.684 . S
H48 C72 0.948 . S
C49 C45 1.397 . S
C49 C50 1.394 . S
C49 C68 1.723 . S
C50 C47 1.396 . S
C50 C49 1.394 . S
C50 C80 1.723 1_565 S
H51 C74 0.947 . S
H52 C75 0.948 . S
H53 C81 0.982 1_455 S
H54 C82 0.979 . S
H55 C82 0.980 . S
H56 C82 0.983 . S
H57 C81 0.979 . S
H58 C81 0.977 . S
C59 C47 1.453 1_545 S
C59 H88 0.982 . S
C59 H89 0.979 1_545 S
C59 H90 0.977 . S
C60 C47 1.684 . S
C60 H85 0.979 1_455 S
C60 H86 0.980 1_455 S
C60 H87 0.983 . S
C61 C62 1.391 . S
C61 C66 1.391 . S
C61 H91 0.948 . S
C62 C61 1.391 . S
C62 C63 1.391 1_565 S
C63 C62 1.391 1_545 S
C63 C64 1.391 1_455 S
C63 H92 0.947 1_455 S
C64 C63 1.391 1_655 S
C64 C65 1.414 1_655 S
C64 H93 0.954 . S
C65 C64 1.414 1_455 S
C65 C66 1.391 1_545 S
C65 C69 1.397 . S
C66 C61 1.391 . S
C66 C65 1.391 1_565 S
C66 C67 1.399 . S
C67 C66 1.399 . S
C67 C68 1.396 . S
C67 C70 1.453 . S
C67 C71 1.684 . S
C68 C49 1.723 . S
C68 C67 1.396 . S
C68 C69 1.394 1_565 S
C69 C65 1.397 . S
C69 C68 1.394 1_545 S
C69 C79 1.723 . S
C70 C67 1.453 . S
C70 H94 0.982 . S
C70 H95 0.979 . S
C70 H96 0.977 . S
C71 C67 1.684 . S
C71 H97 0.979 . S
C71 H98 0.980 . S
C71 H99 0.983 . S
C72 H48 0.948 . S
C72 C73 1.391 . S
C72 C77 1.391 . S
C73 C72 1.391 . S
C73 C74 1.391 . S
C74 H51 0.947 . S
C74 C73 1.391 . S
C74 C75 1.392 . S
C75 H52 0.948 . S
C75 C74 1.392 . S
C75 C76 1.419 . S
C76 C75 1.419 . S
C76 C77 1.391 . S
C76 C80 1.397 1_655 S
C77 C72 1.391 . S
C77 C76 1.391 . S
C77 C78 1.399 . S
C78 C77 1.399 . S
C78 C79 1.396 1_655 S
C78 C81 1.453 . S
C78 C82 1.684 . S
C79 C69 1.723 . S
C79 C78 1.396 1_455 S
C79 C80 1.394 . S
C80 C50 1.723 1_545 S
C80 C76 1.397 1_455 S
C80 C79 1.394 . S
C81 H53 0.982 1_655 S
C81 H57 0.979 . S
C81 H58 0.977 . S
C81 C78 1.453 . S
C82 H54 0.979 . S
C82 H55 0.980 . S
C82 H56 0.983 . S
C82 C78 1.684 . S
H83 C101 0.948 . S
H84 C42 0.948 . S
H85 C60 0.979 1_655 S
H86 C60 0.980 1_655 S
H87 C60 0.983 . S
H88 C59 0.982 . S
H89 C59 0.979 1_565 S
H90 C59 0.977 . S
H91 C61 0.948 . S
H92 C63 0.947 1_655 S
H93 C64 0.954 . S
H94 C70 0.982 . S
H95 C70 0.979 . S
H96 C70 0.977 . S
H97 C71 0.979 . S
H98 C71 0.980 . S
H99 C71 0.983 . S
H100 C44 0.947 . S
C101 C44 1.392 . S
C101 C45 1.419 . S
C101 H83 0.948 . S
C102 C103 1.391 . S
C102 C106 1.391 . S
C102 H144 0.948 . S
C103 C102 1.391 . S
C103 C104 1.391 . S
C104 C103 1.391 . S
C104 H160 0.947 . S
C104 C161 1.392 . S
C105 C106 1.391 . S
C105 C109 1.397 . S
C105 C161 1.419 . S
C106 C102 1.391 . S
C106 C105 1.391 . S
C106 C107 1.399 . S
C107 C106 1.399 . S
C107 C110 1.396 . S
C107 C119 1.453 . S
C107 C120 1.684 1_455 S
H108 C132 0.948 . S
C109 C105 1.397 . S
C109 C110 1.394 . S
C109 C128 1.723 . S
C110 C107 1.396 . S
C110 C109 1.394 . S
C110 C140 1.723 1_455 S
H111 C134 0.947 . S
H112 C135 0.948 . S
H113 C141 0.982 . S
H114 C142 0.979 . S
H115 C142 0.980 . S
H116 C142 0.983 1_565 S
H117 C141 0.979 . S
H118 C141 0.977 . S
C119 C107 1.453 . S
C119 H148 0.982 . S
C119 H149 0.979 . S
C119 H150 0.977 . S
C120 C107 1.684 1_655 S
C120 H145 0.979 . S
C120 H146 0.980 . S
C120 H147 0.983 . S
C121 C122 1.391 1_455 S
C121 C126 1.391 . S
C121 H151 0.948 . S
C122 C121 1.391 1_655 S
C122 C123 1.391 . S
C123 C122 1.391 . S
C123 C124 1.392 . S
C123 H152 0.947 . S
C124 C123 1.392 . S
C124 C125 1.419 . S
C124 H153 0.948 . S
C125 C124 1.419 . S
C125 C126 1.391 1_655 S
C125 C129 1.397 . S
C126 C121 1.391 . S
C126 C125 1.391 1_455 S
C126 C127 1.399 . S
C127 C126 1.399 . S
C127 C128 1.396 . S
C127 C130 1.453 . S
C127 C131 1.684 . S
C128 C109 1.723 . S
C128 C127 1.396 . S
C128 C129 1.394 1_455 S
C129 C125 1.397 . S
C129 C128 1.394 1_655 S
C129 C139 1.723 . S
C130 C127 1.453 . S
C130 H154 0.982 . S
C130 H155 0.979 . S
C130 H156 0.977 . S
C131 C127 1.684 . S
C131 H157 0.979 . S
C131 H158 0.980 . S
C131 H159 0.983 . S
C132 H108 0.948 . S
C132 C133 1.391 . S
C132 C137 1.391 . S
C133 C132 1.391 . S
C133 C134 1.391 . S
C134 H111 0.947 . S
C134 C133 1.391 . S
C134 C135 1.392 1_565 S
C135 H112 0.948 . S
C135 C134 1.392 1_545 S
C135 C136 1.419 . S
C136 C135 1.419 . S
C136 C137 1.391 1_545 S
C136 C140 1.397 . S
C137 C132 1.391 . S
C137 C136 1.391 1_565 S
C137 C138 1.398 1_565 S
C138 C137 1.398 1_545 S
C138 C139 1.406 . S
C138 C141 1.441 1_545 S
C138 C142 1.683 . S
C139 C129 1.723 . S
C139 C138 1.406 . S
C139 C140 1.394 . S
C140 C110 1.723 1_655 S
C140 C136 1.397 . S
C140 C139 1.394 . S
C141 H113 0.982 . S
C141 H117 0.979 . S
C141 H118 0.977 . S
C141 C138 1.441 1_565 S
C142 H114 0.979 . S
C142 H115 0.980 . S
C142 H116 0.983 1_545 S
C142 C138 1.683 . S
H143 C161 0.948 . S
H144 C102 0.948 . S
H145 C120 0.979 . S
H146 C120 0.980 . S
H147 C120 0.983 . S
H148 C119 0.982 . S
H149 C119 0.979 . S
H150 C119 0.977 . S
H151 C121 0.948 . S
H152 C123 0.947 . S
H153 C124 0.948 . S
H154 C130 0.982 . S
H155 C130 0.979 . S
H156 C130 0.977 . S
H157 C131 0.979 . S
H158 C131 0.980 . S
H159 C131 0.983 . S
H160 C104 0.947 . S
C161 C104 1.392 . S
C161 C105 1.419 . S
C161 H143 0.948 . S
C162 C163 1.391 . S
C162 C166 1.391 . S
C162 H204 0.948 1_556 S
C163 C162 1.391 . S
C163 C164 1.391 . S
C164 C163 1.391 . S
C164 H220 0.947 . S
C164 C221 1.392 . S
C165 C166 1.391 . S
C165 C169 1.397 . S
C165 C221 1.419 . S
C166 C162 1.391 . S
C166 C165 1.391 . S
C166 C167 1.399 . S
C167 C166 1.399 . S
C167 C170 1.396 . S
C167 C179 1.453 . S
C167 C180 1.684 1_556 S
H168 C192 0.948 . S
C169 C165 1.397 . S
C169 C170 1.394 . S
C169 C188 1.723 . S
C170 C167 1.396 . S
C170 C169 1.394 . S
C170 C200 1.723 . S
H171 C194 0.947 . S
H172 C195 0.932 1_554 S
H173 C201 0.982 . S
H174 C202 0.979 . S
H175 C202 0.980 . S
H176 C202 0.983 . S
H177 C201 0.979 . S
H178 C201 0.977 . S
C179 C167 1.453 . S
C179 H208 0.982 . S
C179 H209 0.979 1_556 S
C179 H210 0.977 1_556 S
C180 C167 1.684 1_554 S
C180 H205 0.979 1_554 S
C180 H206 0.980 . S
C180 H207 0.983 . S
C181 C182 1.391 . S
C181 C186 1.391 . S
C181 H211 0.948 . S
C182 C181 1.391 . S
C182 C183 1.391 . S
C183 C182 1.391 . S
C183 C184 1.392 . S
C183 H212 0.947 . S
C184 C183 1.392 . S
C184 C185 1.419 . S
C184 H213 0.948 . S
C185 C184 1.419 . S
C185 C186 1.391 . S
C185 C189 1.397 . S
C186 C181 1.391 . S
C186 C185 1.391 . S
C186 C187 1.399 . S
C187 C186 1.399 . S
C187 C188 1.396 . S
C187 C190 1.453 . S
C187 C191 1.684 . S
C188 C169 1.723 . S
C188 C187 1.396 . S
C188 C189 1.394 . S
C189 C185 1.397 . S
C189 C188 1.394 . S
C189 C199 1.723 . S
C190 C187 1.453 . S
C190 H214 0.982 . S
C190 H215 0.979 . S
C190 H216 0.977 . S
C191 C187 1.684 . S
C191 H217 0.979 . S
C191 H218 0.980 . S
C191 H219 0.983 . S
C192 H168 0.948 . S
C192 C193 1.391 . S
C192 C197 1.391 . S
C193 C192 1.391 . S
C193 C194 1.391 1_556 S
C194 H171 0.947 . S
C194 C193 1.391 1_554 S
C194 C195 1.392 1_554 S
C195 H172 0.932 1_556 S
C195 C194 1.392 1_556 S
C195 C196 1.419 . S
C196 C195 1.419 . S
C196 C197 1.391 . S
C196 C200 1.397 . S
C197 C192 1.391 . S
C197 C196 1.391 . S
C197 C198 1.399 . S
C198 C197 1.399 . S
C198 C199 1.396 . S
C198 C201 1.453 . S
C198 C202 1.684 . S
C199 C189 1.723 . S
C199 C198 1.396 . S
C199 C200 1.394 . S
C200 C170 1.723 . S
C200 C196 1.397 . S
C200 C199 1.394 . S
C201 H173 0.982 . S
C201 H177 0.979 . S
C201 H178 0.977 . S
C201 C198 1.453 . S
C202 H174 0.979 . S
C202 H175 0.980 . S
C202 H176 0.983 . S
C202 C198 1.684 . S
H203 C221 0.948 . S
H204 C162 0.948 1_554 S
H205 C180 0.979 1_556 S
H206 C180 0.980 . S
H207 C180 0.983 . S
H208 C179 0.982 . S
H209 C179 0.979 1_554 S
H210 C179 0.977 1_554 S
H211 C181 0.948 . S
H212 C183 0.947 . S
H213 C184 0.948 . S
H214 C190 0.982 . S
H215 C190 0.979 . S
H216 C190 0.977 . S
H217 C191 0.979 . S
H218 C191 0.980 . S
H219 C191 0.983 . S
H220 C164 0.947 . S
C221 C164 1.392 . S
C221 C165 1.419 . S
C221 H203 0.948 . S
C222 C223 1.391 . S
C222 C226 1.391 . S
C222 H264 0.948 . S
C223 C222 1.391 . S
C223 C224 1.391 . S
C224 C223 1.391 . S
C224 H280 0.947 . S
C224 C281 1.392 . S
C225 C226 1.391 . S
C225 C229 1.397 . S
C225 C281 1.419 . S
C226 C222 1.391 . S
C226 C225 1.391 . S
C226 C227 1.399 . S
C227 C226 1.399 . S
C227 C230 1.396 . S
C227 C239 1.453 . S
C227 C240 1.684 . S
H228 C252 0.948 . S
C229 C225 1.397 . S
C229 C230 1.394 . S
C229 C248 1.723 . S
C230 C227 1.396 . S
C230 C229 1.394 . S
C230 C260 1.723 . S
H231 C254 0.947 1_556 S
H232 C255 0.948 . S
H233 C261 0.982 . S
H234 C262 0.979 . S
H235 C262 0.980 . S
H236 C262 0.983 . S
H237 C261 0.979 . S
H238 C261 0.977 . S
C239 C227 1.453 . S
C239 H268 0.982 . S
C239 H269 0.989 . S
C239 H270 0.977 . S
C240 C227 1.684 . S
C240 H265 0.979 . S
C240 H266 0.980 . S
C240 H267 0.983 1_554 S
C241 C242 1.391 . S
C241 C246 1.391 . S
C241 H271 0.948 . S
C242 C241 1.391 . S
C242 C243 1.391 . S
C243 C242 1.391 . S
C243 C244 1.392 . S
C243 H272 0.947 . S
C244 C243 1.392 . S
C244 C245 1.419 . S
C244 H273 0.948 . S
C245 C244 1.419 . S
C245 C246 1.391 . S
C245 C249 1.397 . S
C246 C241 1.391 . S
C246 C245 1.391 . S
C246 C247 1.399 . S
C247 C246 1.399 . S
C247 C248 1.396 . S
C247 C250 1.453 . S
C247 C251 1.684 . S
C248 C229 1.723 . S
C248 C247 1.396 . S
C248 C249 1.394 . S
C249 C245 1.397 . S
C249 C248 1.394 . S
C249 C259 1.723 . S
C250 C247 1.453 . S
C250 H274 0.982 . S
C250 H275 0.979 . S
C250 H276 0.977 . S
C251 C247 1.684 . S
C251 H277 0.979 . S
C251 H278 0.980 . S
C251 H279 0.983 . S
C252 H228 0.948 . S
C252 C253 1.391 . S
C252 C257 1.391 . S
C253 C252 1.391 . S
C253 C254 1.391 . S
C254 H231 0.947 1_554 S
C254 C253 1.391 . S
C254 C255 1.392 . S
C255 H232 0.948 . S
C255 C254 1.392 . S
C255 C256 1.419 . S
C256 C255 1.419 . S
C256 C257 1.391 . S
C256 C260 1.397 . S
C257 C252 1.391 . S
C257 C256 1.391 . S
C257 C258 1.399 . S
C258 C257 1.399 . S
C258 C259 1.396 . S
C258 C261 1.453 . S
C258 C262 1.684 . S
C259 C249 1.723 . S
C259 C258 1.396 . S
C259 C260 1.394 . S
C260 C230 1.723 . S
C260 C256 1.397 . S
C260 C259 1.394 . S
C261 H233 0.982 . S
C261 H237 0.979 . S
C261 H238 0.977 . S
C261 C258 1.453 . S
C262 H234 0.979 . S
C262 H235 0.980 . S
C262 H236 0.983 . S
C262 C258 1.684 . S
H263 C281 0.948 . S
H264 C222 0.948 . S
H265 C240 0.979 . S
H266 C240 0.980 . S
H267 C240 0.983 1_556 S
H268 C239 0.982 . S
H269 C239 0.989 . S
H270 C239 0.977 . S
H271 C241 0.948 . S
H272 C243 0.947 . S
H273 C244 0.948 . S
H274 C250 0.982 . S
H275 C250 0.979 . S
H276 C250 0.977 . S
H277 C251 0.979 . S
H278 C251 0.980 . S
H279 C251 0.983 . S
H280 C224 0.947 . S
C281 C224 1.392 . S
C281 C225 1.419 . S
C281 H263 0.948 . S
C282 C283 1.391 . S
C282 C284 1.394 . S
C282 H298 0.931 . S
C283 C282 1.391 . S
C283 C287 1.376 . S
C284 C282 1.394 . S
C284 C285 1.369 . S
C284 C288 1.531 . S
C285 C284 1.369 . S
C285 C286 1.410 . S
C285 C293 1.503 . S
C286 C285 1.410 . S
C286 C287 1.392 . S
C286 C289 1.511 1_554 S
C287 C283 1.376 . S
C287 C286 1.392 . S
C287 H299 0.929 1_554 S
C288 C284 1.531 . S
C288 H300 0.960 . S
C288 H301 0.962 . S
C288 H302 0.960 . S
C289 C286 1.511 1_556 S
C289 H303 0.961 . S
C289 H304 0.961 . S
C289 H305 0.961 1_556 S
C290 C291 1.370 . S
C290 C292 1.363 . S
C290 H306 0.931 1_554 S
C291 C290 1.370 . S
C291 C295 1.408 . S
C292 C290 1.363 . S
C292 C293 1.369 . S
C292 C296 1.525 1_554 S
C293 C285 1.503 . S
C293 C292 1.369 . S
C293 C294 1.403 . S
C294 C293 1.403 . S
C294 C295 1.404 . S
C294 C297 1.539 . S
C295 C291 1.408 . S
C295 C294 1.404 . S
C295 H307 0.930 . S
C296 C292 1.525 1_556 S
C296 H308 0.956 . S
C296 H309 0.961 . S
C296 H310 0.961 . S
C297 C294 1.539 . S
C297 H311 0.958 . S
C297 H312 0.961 . S
C297 H313 0.960 . S
H298 C282 0.931 . S
H299 C287 0.929 1_556 S
H300 C288 0.960 . S
H301 C288 0.962 . S
H302 C288 0.960 . S
H303 C289 0.961 . S
H304 C289 0.961 . S
H305 C289 0.961 1_554 S
H306 C290 0.931 1_556 S
H307 C295 0.930 . S
H308 C296 0.956 . S
H309 C296 0.961 . S
H310 C296 0.961 . S
H311 C297 0.958 . S
H312 C297 0.961 . S
H313 C297 0.960 . S
C314 C315 1.391 . S
C314 C316 1.394 . S
C314 H330 0.931 . S
C315 C314 1.391 . S
C315 C319 1.376 1_554 S
C316 C314 1.394 . S
C316 C317 1.369 . S
C316 C320 1.531 . S
C317 C316 1.369 . S
C317 C318 1.410 1_554 S
C317 C325 1.503 . S
C318 C317 1.410 1_556 S
C318 C319 1.392 . S
C318 C321 1.511 . S
C319 C315 1.376 1_556 S
C319 C318 1.392 . S
C319 H331 0.929 . S
C320 C316 1.531 . S
C320 H332 0.960 . S
C320 H333 0.962 . S
C320 H334 0.960 . S
C321 C318 1.511 . S
C321 H335 0.961 . S
C321 H336 0.961 . S
C321 H337 0.961 . S
C322 C323 1.370 . S
C322 C324 1.363 . S
C322 H338 0.931 . S
C323 C322 1.370 . S
C323 C327 1.408 1_556 S
C324 C322 1.363 . S
C324 C325 1.370 1_556 S
C324 C328 1.524 . S
C325 C317 1.503 . S
C325 C324 1.370 1_554 S
C325 C326 1.403 . S
C326 C325 1.403 . S
C326 C327 1.404 . S
C326 C329 1.539 . S
C327 C323 1.408 1_554 S
C327 C326 1.404 . S
C327 H339 0.930 . S
C328 C324 1.524 . S
C328 H340 0.956 . S
C328 H341 0.961 . S
C328 H342 0.961 . S
C329 C326 1.539 . S
C329 H343 0.958 . S
C329 H344 0.961 . S
C329 H345 0.960 . S
H330 C314 0.931 . S
H331 C319 0.929 . S
H332 C320 0.960 . S
H333 C320 0.962 . S
H334 C320 0.960 . S
H335 C321 0.961 . S
H336 C321 0.961 . S
H337 C321 0.961 . S
H338 C322 0.931 . S
H339 C327 0.930 . S
H340 C328 0.956 . S
H341 C328 0.961 . S
H342 C328 0.961 . S
H343 C329 0.958 . S
H344 C329 0.961 . S
H345 C329 0.960 . S
C346 C347 1.391 . S
C346 C348 1.394 . S
C346 H362 0.931 . S
C347 C346 1.391 . S
C347 C351 1.376 1_554 S
C348 C346 1.394 . S
C348 C349 1.369 . S
C348 C352 1.531 . S
C349 C348 1.369 . S
C349 C350 1.410 1_554 S
C349 C357 1.503 . S
C350 C349 1.410 1_556 S
C350 C351 1.392 . S
C350 C353 1.511 . S
C351 C347 1.376 1_556 S
C351 C350 1.392 . S
C351 H363 0.929 . S
C352 C348 1.531 . S
C352 H364 0.960 . S
C352 H365 0.962 . S
C352 H366 0.960 . S
C353 C350 1.511 . S
C353 H367 0.961 . S
C353 H368 0.961 . S
C353 H369 0.961 . S
C354 C355 1.370 . S
C354 C356 1.363 . S
C354 H370 0.931 . S
C355 C354 1.370 . S
C355 C359 1.408 . S
C356 C354 1.363 . S
C356 C357 1.370 . S
C356 C360 1.524 . S
C357 C349 1.503 . S
C357 C356 1.370 . S
C357 C358 1.403 . S
C358 C357 1.403 . S
C358 C359 1.404 . S
C358 C361 1.539 1_554 S
C359 C355 1.408 . S
C359 C358 1.404 . S
C359 H371 0.930 1_554 S
C360 C356 1.524 . S
C360 H372 0.956 . S
C360 H373 0.961 . S
C360 H374 0.961 . S
C361 C358 1.539 1_556 S
C361 H375 0.958 . S
C361 H376 0.961 . S
C361 H377 0.960 . S
H362 C346 0.931 . S
H363 C351 0.929 . S
H364 C352 0.960 . S
H365 C352 0.962 . S
H366 C352 0.960 . S
H367 C353 0.961 . S
H368 C353 0.961 . S
H369 C353 0.961 . S
H370 C354 0.931 . S
H371 C359 0.930 1_556 S
H372 C360 0.956 . S
H373 C360 0.961 . S
H374 C360 0.961 . S
H375 C361 0.958 . S
H376 C361 0.961 . S
H377 C361 0.960 . S
C378 C379 1.358 1_556 S
C378 C380 1.394 . S
C378 H394 0.931 . S
C379 C378 1.358 1_554 S
C379 C383 1.400 . S
C380 C378 1.394 . S
C380 C381 1.369 . S
C380 C384 1.531 . S
C381 C380 1.369 . S
C381 C382 1.410 1_556 S
C381 C389 1.503 . S
C382 C381 1.410 1_554 S
C382 C383 1.392 . S
C382 C385 1.511 . S
C383 C379 1.400 . S
C383 C382 1.392 . S
C383 H395 0.929 . S
C384 C380 1.531 . S
C384 H396 0.960 . S
C384 H397 0.962 . S
C384 H398 0.960 . S
C385 C382 1.511 . S
C385 H399 0.961 . S
C385 H400 0.961 . S
C385 H401 0.961 . S
C386 C387 1.370 . S
C386 C388 1.363 . S
C386 H402 0.931 1_556 S
C387 C386 1.370 . S
C387 C391 1.408 . S
C388 C386 1.363 . S
C388 C389 1.370 . S
C388 C392 1.524 1_556 S
C389 C381 1.503 . S
C389 C388 1.370 . S
C389 C390 1.403 . S
C390 C389 1.403 . S
C390 C391 1.404 . S
C390 C393 1.539 . S
C391 C387 1.408 . S
C391 C390 1.404 . S
C391 H403 0.930 . S
C392 C388 1.524 1_554 S
C392 H404 0.956 1_554 S
C392 H405 0.961 . S
C392 H406 0.961 . S
C393 C390 1.539 . S
C393 H407 0.958 . S
C393 H408 0.961 . S
C393 H409 0.960 . S
H394 C378 0.931 . S
H395 C383 0.929 . S
H396 C384 0.960 . S
H397 C384 0.962 . S
H398 C384 0.960 . S
H399 C385 0.961 . S
H400 C385 0.961 . S
H401 C385 0.961 . S
H402 C386 0.931 1_554 S
H403 C391 0.930 . S
H404 C392 0.956 1_556 S
H405 C392 0.961 . S
H406 C392 0.961 . S
H407 C393 0.958 . S
H408 C393 0.961 . S
H409 C393 0.960 . S
C410 C411 1.391 . S
C410 C412 1.394 . S
C410 H426 0.931 . S
C411 C410 1.391 . S
C411 C415 1.376 . S
C412 C410 1.394 . S
C412 C413 1.369 . S
C412 C416 1.531 . S
C413 C412 1.369 . S
C413 C414 1.410 . S
C413 C421 1.503 . S
C414 C413 1.410 . S
C414 C415 1.392 . S
C414 C417 1.511 . S
C415 C411 1.376 . S
C415 C414 1.392 . S
C415 H427 0.929 . S
C416 C412 1.531 . S
C416 H428 0.960 . S
C416 H429 0.962 . S
C416 H430 0.960 . S
C417 C414 1.511 . S
C417 H431 0.961 . S
C417 H432 0.961 . S
C417 H433 0.961 . S
C418 C419 1.370 . S
C418 C420 1.363 . S
C418 H434 0.931 . S
C419 C418 1.370 . S
C419 C423 1.408 . S
C420 C418 1.363 . S
C420 C421 1.370 . S
C420 C424 1.524 . S
C421 C413 1.503 . S
C421 C420 1.370 . S
C421 C422 1.403 . S
C422 C421 1.403 . S
C422 C423 1.404 . S
C422 C425 1.539 . S
C423 C419 1.408 . S
C423 C422 1.404 . S
C423 H435 0.930 . S
C424 C420 1.524 . S
C424 H436 0.956 . S
C424 H437 0.961 . S
C424 H438 0.961 . S
C425 C422 1.539 . S
C425 H439 0.958 . S
C425 H440 0.961 . S
C425 H441 0.960 . S
H426 C410 0.931 . S
H427 C415 0.929 . S
H428 C416 0.960 . S
H429 C416 0.962 . S
H430 C416 0.960 . S
H431 C417 0.961 . S
H432 C417 0.961 . S
H433 C417 0.961 . S
H434 C418 0.931 . S
H435 C423 0.930 . S
H436 C424 0.956 . S
H437 C424 0.961 . S
H438 C424 0.961 . S
H439 C425 0.958 . S
H440 C425 0.961 . S
H441 C425 0.960 . S
C442 C443 1.391 . S
C442 C444 1.394 . S
C442 H458 0.931 . S
C443 C442 1.391 . S
C443 C447 1.376 . S
C444 C442 1.394 . S
C444 C445 1.369 . S
C444 C448 1.531 . S
C445 C444 1.369 . S
C445 C446 1.410 . S
C445 C453 1.503 . S
C446 C445 1.410 . S
C446 C447 1.392 . S
C446 C449 1.511 . S
C447 C443 1.376 . S
C447 C446 1.392 . S
C447 H459 0.929 . S
C448 C444 1.531 . S
C448 H460 0.960 . S
C448 H461 0.962 . S
C448 H462 0.960 . S
C449 C446 1.511 . S
C449 H463 0.961 . S
C449 H464 0.961 . S
C449 H465 0.961 . S
C450 C451 1.370 . S
C450 C452 1.363 . S
C450 H466 0.931 . S
C451 C450 1.370 . S
C451 C455 1.408 . S
C452 C450 1.363 . S
C452 C453 1.370 . S
C452 C456 1.524 . S
C453 C445 1.503 . S
C453 C452 1.370 . S
C453 C454 1.403 . S
C454 C453 1.403 . S
C454 C455 1.404 . S
C454 C457 1.539 . S
C455 C451 1.408 . S
C455 C454 1.404 . S
C455 H467 0.930 . S
C456 C452 1.524 . S
C456 H468 0.956 . S
C456 H469 0.961 . S
C456 H470 0.961 . S
C457 C454 1.539 . S
C457 H471 0.958 . S
C457 H472 0.961 . S
C457 H473 0.960 . S
H458 C442 0.931 . S
H459 C447 0.929 . S
H460 C448 0.960 . S
H461 C448 0.962 . S
H462 C448 0.960 . S
H463 C449 0.961 . S
H464 C449 0.961 . S
H465 C449 0.961 . S
H466 C450 0.931 . S
H467 C455 0.930 . S
H468 C456 0.956 . S
H469 C456 0.961 . S
H470 C456 0.961 . S
H471 C457 0.958 . S
H472 C457 0.961 . S
H473 C457 0.960 . S
C474 C475 1.391 . S
C474 C476 1.394 . S
C474 H490 0.931 . S
C475 C474 1.391 . S
C475 C479 1.376 . S
C476 C474 1.394 . S
C476 C477 1.369 . S
C476 C480 1.531 . S
C477 C476 1.369 . S
C477 C478 1.410 . S
C477 C485 1.503 . S
C478 C477 1.410 . S
C478 C479 1.392 . S
C478 C481 1.511 . S
C479 C475 1.376 . S
C479 C478 1.392 . S
C479 H491 0.929 . S
C480 C476 1.531 . S
C480 H492 0.960 . S
C480 H493 0.962 . S
C480 H494 0.960 . S
C481 C478 1.511 . S
C481 H495 0.961 . S
C481 H496 0.961 . S
C481 H497 0.961 . S
C482 C483 1.370 . S
C482 C484 1.363 . S
C482 H498 0.931 . S
C483 C482 1.370 . S
C483 C487 1.408 . S
C484 C482 1.363 . S
C484 C485 1.370 . S
C484 C488 1.524 . S
C485 C477 1.503 . S
C485 C484 1.370 . S
C485 C486 1.403 . S
C486 C485 1.403 . S
C486 C487 1.404 . S
C486 C489 1.539 . S
C487 C483 1.408 . S
C487 C486 1.404 . S
C487 H499 0.930 . S
C488 C484 1.524 . S
C488 H500 0.956 . S
C488 H501 0.961 . S
C488 H502 0.961 . S
C489 C486 1.539 . S
C489 H503 0.958 . S
C489 H504 0.961 . S
C489 H505 0.960 . S
H490 C474 0.931 . S
H491 C479 0.929 . S
H492 C480 0.960 . S
H493 C480 0.962 . S
H494 C480 0.960 . S
H495 C481 0.961 . S
H496 C481 0.961 . S
H497 C481 0.961 . S
H498 C482 0.931 . S
H499 C487 0.930 . S
H500 C488 0.956 . S
H501 C488 0.961 . S
H502 C488 0.961 . S
H503 C489 0.958 . S
H504 C489 0.961 . S
H505 C489 0.960 . S
C506 C507 1.391 . S
C506 C508 1.394 . S
C506 H522 0.931 . S
C507 C506 1.391 . S
C507 C511 1.376 . S
C508 C506 1.394 . S
C508 C509 1.369 . S
C508 C512 1.531 . S
C509 C508 1.369 . S
C509 C510 1.410 . S
C509 C517 1.503 . S
C510 C509 1.410 . S
C510 C511 1.392 . S
C510 C513 1.511 . S
C511 C507 1.376 . S
C511 C510 1.392 . S
C511 H523 0.929 . S
C512 C508 1.531 . S
C512 H524 0.960 . S
C512 H525 0.962 . S
C512 H526 0.960 . S
C513 C510 1.511 . S
C513 H527 0.961 . S
C513 H528 0.961 . S
C513 H529 0.961 . S
C514 C515 1.370 . S
C514 C516 1.363 . S
C514 H530 0.931 . S
C515 C514 1.370 . S
C515 C519 1.408 . S
C516 C514 1.363 . S
C516 C517 1.370 . S
C516 C520 1.524 . S
C517 C509 1.503 . S
C517 C516 1.370 . S
C517 C518 1.403 . S
C518 C517 1.403 . S
C518 C519 1.404 . S
C518 C521 1.539 . S
C519 C515 1.408 . S
C519 C518 1.404 . S
C519 H531 0.930 . S
C520 C516 1.524 . S
C520 H532 0.956 . S
C520 H533 0.961 . S
C520 H534 0.961 . S
C521 C518 1.539 . S
C521 H535 0.958 . S
C521 H536 0.961 . S
C521 H537 0.960 . S
H522 C506 0.931 . S
H523 C511 0.929 . S
H524 C512 0.960 . S
H525 C512 0.962 . S
H526 C512 0.960 . S
H527 C513 0.961 . S
H528 C513 0.961 . S
H529 C513 0.961 . S
H530 C514 0.931 . S
H531 C519 0.930 . S
H532 C520 0.956 . S
H533 C520 0.961 . S
H534 C520 0.961 . S
H535 C521 0.958 . S
H536 C521 0.961 . S
H537 C521 0.960 . S
C538 C539 1.391 1_565 S
C538 C540 1.394 . S
C538 H554 0.931 1_455 S
C539 C538 1.391 1_545 S
C539 C543 1.376 . S
C540 C538 1.394 . S
C540 C541 1.369 . S
C540 C544 1.531 1_455 S
C541 C540 1.369 . S
C541 C542 1.410 1_565 S
C541 C549 1.503 . S
C542 C541 1.410 1_545 S
C542 C543 1.392 . S
C542 C545 1.511 . S
C543 C539 1.376 . S
C543 C542 1.392 . S
C543 H555 0.929 . S
C544 C540 1.531 1_655 S
C544 H556 0.960 . S
C544 H557 0.962 . S
C544 H558 0.960 . S
C545 C542 1.511 . S
C545 H559 0.961 . S
C545 H560 0.961 . S
C545 H561 0.961 . S
C546 C547 1.370 1_545 S
C546 C548 1.363 . S
C546 H562 0.931 . S
C547 C546 1.370 1_565 S
C547 C551 1.408 . S
C548 C546 1.363 . S
C548 C549 1.370 1_545 S
C548 C552 1.524 . S
C549 C541 1.503 . S
C549 C548 1.370 1_565 S
C549 C550 1.403 . S
C550 C549 1.403 . S
C550 C551 1.404 . S
C550 C553 1.539 . S
C551 C547 1.408 . S
C551 C550 1.404 . S
C551 H563 0.930 . S
C552 C548 1.524 . S
C552 H564 0.956 1_455 S
C552 H565 0.961 . S
C552 H566 0.961 . S
C553 C550 1.539 . S
C553 H567 0.958 . S
C553 H568 0.961 . S
C553 H569 0.960 . S
H554 C538 0.931 1_655 S
H555 C543 0.929 . S
H556 C544 0.960 . S
H557 C544 0.962 . S
H558 C544 0.960 . S
H559 C545 0.961 . S
H560 C545 0.961 . S
H561 C545 0.961 . S
H562 C546 0.931 . S
H563 C551 0.930 . S
H564 C552 0.956 1_655 S
H565 C552 0.961 . S
H566 C552 0.961 . S
H567 C553 0.958 . S
H568 C553 0.961 . S
H569 C553 0.960 . S
C570 C571 1.391 . S
C570 C572 1.394 . S
C570 H586 0.931 1_545 S
C571 C570 1.391 . S
C571 C575 1.376 1_455 S
C572 C570 1.394 . S
C572 C573 1.369 . S
C572 C576 1.531 1_545 S
C573 C572 1.369 . S
C573 C574 1.410 1_455 S
C573 C581 1.503 . S
C574 C573 1.410 1_655 S
C574 C575 1.392 . S
C574 C577 1.511 . S
C575 C571 1.376 1_655 S
C575 C574 1.392 . S
C575 H587 0.929 . S
C576 C572 1.531 1_565 S
C576 H588 0.960 . S
C576 H589 0.962 1_565 S
C576 H590 0.960 . S
C577 C574 1.511 . S
C577 H591 0.961 . S
C577 H592 0.961 . S
C577 H593 0.961 . S
C578 C579 1.370 . S
C578 C580 1.363 . S
C578 H594 0.931 . S
C579 C578 1.370 . S
C579 C583 1.408 1_455 S
C580 C578 1.363 . S
C580 C581 1.370 . S
C580 C584 1.524 . S
C581 C573 1.503 . S
C581 C580 1.370 . S
C581 C582 1.403 1_455 S
C582 C581 1.403 1_655 S
C582 C583 1.404 . S
C582 C585 1.539 1_545 S
C583 C579 1.408 1_655 S
C583 C582 1.404 . S
C583 H595 0.930 . S
C584 C580 1.524 . S
C584 H596 0.956 . S
C584 H597 0.961 . S
C584 H598 0.961 . S
C585 C582 1.539 1_565 S
C585 H599 0.958 . S
C585 H600 0.961 . S
C585 H601 0.960 1_565 S
H586 C570 0.931 1_565 S
H587 C575 0.929 . S
H588 C576 0.960 . S
H589 C576 0.962 1_545 S
H590 C576 0.960 . S
H591 C577 0.961 . S
H592 C577 0.961 . S
H593 C577 0.961 . S
H594 C578 0.931 . S
H595 C583 0.930 . S
H596 C584 0.956 . S
H597 C584 0.961 . S
H598 C584 0.961 . S
H599 C585 0.958 . S
H600 C585 0.961 . S
H601 C585 0.960 1_545 S
C602 C603 1.391 . S
C602 C604 1.394 . S
C602 H618 0.931 . S
C603 C602 1.391 . S
C603 C607 1.376 . S
C604 C602 1.394 . S
C604 C605 1.369 . S
C604 C608 1.531 . S
C605 C604 1.369 . S
C605 C606 1.410 . S
C605 C613 1.503 . S
C606 C605 1.410 . S
C606 C607 1.392 . S
C606 C609 1.511 . S
C607 C603 1.376 . S
C607 C606 1.392 . S
C607 H619 0.929 . S
C608 C604 1.531 . S
C608 H620 0.960 . S
C608 H621 0.962 . S
C608 H622 0.960 . S
C609 C606 1.511 . S
C609 H623 0.961 . S
C609 H624 0.961 . S
C609 H625 0.961 . S
C610 C611 1.370 . S
C610 C612 1.363 . S
C610 H626 0.931 . S
C611 C610 1.370 . S
C611 C615 1.408 . S
C612 C610 1.363 . S
C612 C613 1.370 . S
C612 C616 1.524 . S
C613 C605 1.503 . S
C613 C612 1.370 . S
C613 C614 1.403 . S
C614 C613 1.403 . S
C614 C615 1.404 . S
C614 C617 1.539 . S
C615 C611 1.408 . S
C615 C614 1.404 . S
C615 H627 0.930 . S
C616 C612 1.524 . S
C616 H628 0.956 . S
C616 H629 0.961 . S
C616 H630 0.961 . S
C617 C614 1.539 . S
C617 H631 0.958 . S
C617 H632 0.961 . S
C617 H633 0.960 . S
H618 C602 0.931 . S
H619 C607 0.929 . S
H620 C608 0.960 . S
H621 C608 0.962 . S
H622 C608 0.960 . S
H623 C609 0.961 . S
H624 C609 0.961 . S
H625 C609 0.961 . S
H626 C610 0.931 . S
H627 C615 0.930 . S
H628 C616 0.956 . S
H629 C616 0.961 . S
H630 C616 0.961 . S
H631 C617 0.958 . S
H632 C617 0.961 . S
H633 C617 0.960 . S
C634 C635 1.391 . S
C634 C636 1.394 . S
C634 H650 0.931 . S
C635 C634 1.391 . S
C635 C639 1.376 . S
C636 C634 1.394 . S
C636 C637 1.369 . S
C636 C640 1.531 . S
C637 C636 1.369 . S
C637 C638 1.410 . S
C637 C645 1.503 . S
C638 C637 1.410 . S
C638 C639 1.392 . S
C638 C641 1.511 . S
C639 C635 1.376 . S
C639 C638 1.392 . S
C639 H651 0.929 . S
C640 C636 1.531 . S
C640 H652 0.960 . S
C640 H653 0.962 . S
C640 H654 0.960 . S
C641 C638 1.511 . S
C641 H655 0.961 . S
C641 H656 0.961 . S
C641 H657 0.961 . S
C642 C643 1.370 . S
C642 C644 1.363 . S
C642 H658 0.931 . S
C643 C642 1.370 . S
C643 C647 1.408 . S
C644 C642 1.363 . S
C644 C645 1.370 . S
C644 C648 1.524 . S
C645 C637 1.503 . S
C645 C644 1.370 . S
C645 C646 1.403 . S
C646 C645 1.403 . S
C646 C647 1.404 . S
C646 C649 1.539 . S
C647 C643 1.408 . S
C647 C646 1.404 . S
C647 H659 0.930 . S
C648 C644 1.524 . S
C648 H660 0.956 . S
C648 H661 0.961 . S
C648 H662 0.961 . S
C649 C646 1.539 . S
C649 H663 0.958 . S
C649 H664 0.961 . S
C649 H665 0.960 . S
H650 C634 0.931 . S
H651 C639 0.929 . S
H652 C640 0.960 . S
H653 C640 0.962 . S
H654 C640 0.960 . S
H655 C641 0.961 . S
H656 C641 0.961 . S
H657 C641 0.961 . S
H658 C642 0.931 . S
H659 C647 0.930 . S
H660 C648 0.956 . S
H661 C648 0.961 . S
H662 C648 0.961 . S
H663 C649 0.958 . S
H664 C649 0.961 . S
H665 C649 0.960 . S
C291 C253 1.509 . S
C283 C15 1.288 . S
C315 C13 1.525 . S
C323 C193 1.551 . S
C347 C18 1.231 . S
C355 C223 1.442 . S
C379 C17 1.301 . S
C387 C163 1.319 . S
C411 C36 1.366 . S
C419 C133 1.518 . S
C443 C34 1.530 . S
C451 C73 1.547 . S
C483 C103 1.441 . S
C475 C39 1.229 . S
C515 C43 1.343 . S
C507 C38 1.354 . S
C539 C14 1.514 . S
C547 C62 1.536 . S
C571 C16 1.355 . S
C579 C122 1.398 1_455 S
C611 C182 1.519 . S
C603 C35 1.499 . S
C635 C37 1.363 . S
C643 C242 1.399 . S
