# Generated by pormake.
# Topology hwx, (6,3)-cn, num edge types: 1
# Building blocks:
#     Node 0, Type 0, BuildingBlock: OJICUG_clean_sbu_0, # of connection points: 6
#     Node 1, Type 0, BuildingBlock: OJICUG_clean_sbu_0, # of connection points: 6
#     Node 2, Type 0, BuildingBlock: OJICUG_clean_sbu_0, # of connection points: 6
#     Node 3, Type 0, BuildingBlock: OJICUG_clean_sbu_0, # of connection points: 6
#     Node 4, Type 1, BuildingBlock: ESEHIV_clean_linker_0, # of connection points: 3
#     Node 5, Type 1, BuildingBlock: ESEHIV_clean_linker_0, # of connection points: 3
#     Node 6, Type 1, BuildingBlock: ESEHIV_clean_linker_0, # of connection points: 3
#     Node 7, Type 1, BuildingBlock: ESEHIV_clean_linker_0, # of connection points: 3
#     Node 8, Type 1, BuildingBlock: ESEHIV_clean_linker_0, # of connection points: 3
#     Node 9, Type 1, BuildingBlock: ESEHIV_clean_linker_0, # of connection points: 3
#     Node 10, Type 1, BuildingBlock: ESEHIV_clean_linker_0, # of connection points: 3
#     Node 11, Type 1, BuildingBlock: ESEHIV_clean_linker_0, # of connection points: 3
#     Edge 12, Type (0, 1), BuildingBlock: MIFKUJ_clean_linker_0, # of connection points: 2
#     Edge 13, Type (0, 1), BuildingBlock: MIFKUJ_clean_linker_0, # of connection points: 2
#     Edge 14, Type (0, 1), BuildingBlock: MIFKUJ_clean_linker_0, # of connection points: 2
#     Edge 15, Type (0, 1), BuildingBlock: MIFKUJ_clean_linker_0, # of connection points: 2
#     Edge 16, Type (0, 1), BuildingBlock: MIFKUJ_clean_linker_0, # of connection points: 2
#     Edge 17, Type (0, 1), BuildingBlock: MIFKUJ_clean_linker_0, # of connection points: 2
#     Edge 18, Type (0, 1), BuildingBlock: MIFKUJ_clean_linker_0, # of connection points: 2
#     Edge 19, Type (0, 1), BuildingBlock: MIFKUJ_clean_linker_0, # of connection points: 2
#     Edge 20, Type (0, 1), BuildingBlock: MIFKUJ_clean_linker_0, # of connection points: 2
#     Edge 21, Type (0, 1), BuildingBlock: MIFKUJ_clean_linker_0, # of connection points: 2
#     Edge 22, Type (0, 1), BuildingBlock: MIFKUJ_clean_linker_0, # of connection points: 2
#     Edge 23, Type (0, 1), BuildingBlock: MIFKUJ_clean_linker_0, # of connection points: 2
#     Edge 24, Type (0, 1), BuildingBlock: MIFKUJ_clean_linker_0, # of connection points: 2
#     Edge 25, Type (0, 1), BuildingBlock: MIFKUJ_clean_linker_0, # of connection points: 2
#     Edge 26, Type (0, 1), BuildingBlock: MIFKUJ_clean_linker_0, # of connection points: 2
#     Edge 27, Type (0, 1), BuildingBlock: MIFKUJ_clean_linker_0, # of connection points: 2
#     Edge 28, Type (0, 1), BuildingBlock: MIFKUJ_clean_linker_0, # of connection points: 2
#     Edge 29, Type (0, 1), BuildingBlock: MIFKUJ_clean_linker_0, # of connection points: 2
#     Edge 30, Type (0, 1), BuildingBlock: MIFKUJ_clean_linker_0, # of connection points: 2
#     Edge 31, Type (0, 1), BuildingBlock: MIFKUJ_clean_linker_0, # of connection points: 2
#     Edge 32, Type (0, 1), BuildingBlock: MIFKUJ_clean_linker_0, # of connection points: 2
#     Edge 33, Type (0, 1), BuildingBlock: MIFKUJ_clean_linker_0, # of connection points: 2
#     Edge 34, Type (0, 1), BuildingBlock: MIFKUJ_clean_linker_0, # of connection points: 2
#     Edge 35, Type (0, 1), BuildingBlock: MIFKUJ_clean_linker_0, # of connection points: 2
# Relax obj value: 0.076
# Max RMSD: 0.101
# Mean RMSD: 0.093
data_MOF--net-hwx--node1-OJICUG_clean_sbu_0--node2-ESEHIV_clean_linker_0--edge1-MIFKUJ_clean_linker_0
_symmetry_space_group_name_H-M    P1
_symmetry_Int_Tables_number       1
_symmetry_cell_setting            triclinic
loop_
_symmetry_equiv_pos_as_xyz
'x, y, z'
_cell_length_a     61.736985
_cell_length_b     61.78612
_cell_length_c     27.926434
_cell_angle_alpha  90.020405
_cell_angle_beta   90.078618
_cell_angle_gamma 89.986526
loop_
_atom_site_label
_atom_site_type_symbol
_atom_site_fract_x
_atom_site_fract_y
_atom_site_fract_z
_atom_type_partial_charge
Sc0 Sc 0.21859 0.21709 0.05992 0.0
Sc1 Sc 0.18093 0.18252 0.00339 0.0
Sc2 Sc 0.21858 0.21237 0.93468 0.0
O3 O 0.206 0.20397 -0.00067 0.0
C4 C 0.21773 0.25759 0.98965 0.0
C5 C 0.16821 0.21627 0.08508 0.0
C6 C 0.16766 0.21141 0.91366 0.0
C7 C 0.21155 0.16773 0.08961 0.0
C8 C 0.2613 0.20945 0.99785 0.0
C9 C 0.21034 0.162 0.92131 0.0
O10 O 0.21753 0.24926 0.03123 0.0
O11 O 0.16343 0.2015 0.05527 0.0
O12 O 0.18703 0.21671 0.90375 0.0
O13 O 0.22061 0.1861 0.09403 0.0
O14 O 0.25151 0.20884 0.95792 0.0
O15 O 0.19524 0.16065 0.952 0.0
O16 O 0.25158 0.2126 0.03729 0.0
O17 O 0.1968 0.16391 0.05881 0.0
O18 O 0.22032 0.17938 0.91172 0.0
O19 O 0.18737 0.22332 0.09045 0.0
O20 O 0.2185 0.24641 0.95144 0.0
O21 O 0.16271 0.19935 0.94889 0.0
Sc22 Sc 0.2755 0.72002 0.43084 0.0
Sc23 Sc 0.31305 0.68849 0.49604 0.0
Sc24 Sc 0.27532 0.72175 0.55637 0.0
O25 O 0.28799 0.71005 0.49442 0.0
C26 C 0.27599 0.76388 0.4911 0.0
C27 C 0.32606 0.71892 0.40821 0.0
C28 C 0.326 0.72113 0.57975 0.0
C29 C 0.28347 0.66963 0.41198 0.0
C30 C 0.2328 0.71502 0.49336 0.0
C31 C 0.2832 0.67225 0.58247 0.0
O32 O 0.27552 0.7536 0.45169 0.0
O33 O 0.33086 0.70524 0.44058 0.0
O34 O 0.30667 0.72729 0.58721 0.0
O35 O 0.27441 0.68766 0.40308 0.0
O36 O 0.24239 0.71754 0.5332 0.0
O37 O 0.29816 0.66924 0.55184 0.0
O38 O 0.24262 0.71539 0.45348 0.0
O39 O 0.29776 0.66732 0.44447 0.0
O40 O 0.27349 0.69022 0.58739 0.0
O41 O 0.30687 0.72556 0.4011 0.0
O42 O 0.27595 0.75455 0.5316 0.0
O43 O 0.331 0.70743 0.5476 0.0
Sc44 Sc 0.77433 0.77445 0.94123 0.0
Sc45 Sc 0.80782 0.81305 0.99757 0.0
Sc46 Sc 0.77668 0.77656 0.06638 0.0
O47 O 0.78633 0.78808 0.00175 0.0
C48 C 0.7326 0.77573 0.0087 0.0
C49 C 0.77354 0.82447 0.91514 0.0
C50 C 0.77889 0.82748 0.08608 0.0
C51 C 0.82362 0.78296 0.912 0.0
C52 C 0.78196 0.73308 0.0055 0.0
C53 C 0.827 0.78416 0.08308 0.0
O54 O 0.74179 0.77286 0.96854 0.0
O55 O 0.78906 0.82961 0.94305 0.0
O56 O 0.77342 0.80826 0.09661 0.0
O57 O 0.80515 0.77434 0.90622 0.0
O58 O 0.779 0.74311 0.04469 0.0
O59 O 0.82883 0.799 0.05164 0.0
O60 O 0.78164 0.74238 0.96502 0.0
O61 O 0.82745 0.79689 0.94444 0.0
O62 O 0.80935 0.77426 0.09113 0.0
O63 O 0.76624 0.80532 0.91178 0.0
O64 O 0.74302 0.77831 0.0475 0.0
O65 O 0.79061 0.8321 0.05013 0.0
Sc66 Sc 0.71924 0.27526 0.56753 0.0
Sc67 Sc 0.68618 0.31029 0.49881 0.0
Sc68 Sc 0.72254 0.27433 0.44234 0.0
O69 O 0.70925 0.28665 0.50292 0.0
C70 C 0.76382 0.27672 0.51092 0.0
C71 C 0.7148 0.32592 0.58773 0.0
C72 C 0.72032 0.32467 0.41887 0.0
C73 C 0.66825 0.28047 0.58335 0.0
C74 C 0.71644 0.23202 0.50548 0.0
C75 C 0.67304 0.27987 0.41118 0.0
O76 O 0.75303 0.27706 0.54956 0.0
O77 O 0.70142 0.32963 0.55403 0.0
O78 O 0.7284 0.3059 0.41396 0.0
O79 O 0.68666 0.27239 0.59311 0.0
O80 O 0.71786 0.24153 0.4653 0.0
O81 O 0.66824 0.29373 0.44314 0.0
O82 O 0.71726 0.24197 0.54528 0.0
O83 O 0.66543 0.2944 0.55035 0.0
O84 O 0.69192 0.27201 0.40676 0.0
O85 O 0.72232 0.30719 0.59647 0.0
O86 O 0.75496 0.27529 0.47002 0.0
O87 O 0.70457 0.32872 0.4469 0.0
H88 H 0.235 0.55118 0.00552 0.0
H89 H 0.22523 0.49448 0.9194 0.0
H90 H 0.22645 0.48936 0.07324 0.0
C91 C 0.2317 0.53399 0.00287 0.0
C92 C 0.2302 0.52152 0.04474 0.0
C93 C 0.23027 0.52426 0.95762 0.0
C94 C 0.22682 0.5019 0.9544 0.0
C95 C 0.22541 0.48911 0.99585 0.0
C96 C 0.22713 0.49907 0.04098 0.0
H97 H 0.94184 0.73134 0.49485 0.0
H98 H 0.0016 0.71853 0.42132 0.0
H99 H 0.99806 0.7118 0.57444 0.0
C100 C 0.95866 0.72635 0.49552 0.0
C101 C 0.96868 0.72203 0.53963 0.0
C102 C 0.97036 0.72492 0.4525 0.0
C103 C 0.99222 0.7187 0.45408 0.0
C104 C 0.00239 0.71393 0.49785 0.0
C105 C 0.99044 0.71554 0.54045 0.0
H106 H 0.77308 0.44146 -0.00012 0.0
H107 H 0.78772 0.4984 0.08175 0.0
H108 H 0.78585 0.50138 0.92748 0.0
C109 C 0.77741 0.45846 0.00122 0.0
C110 C 0.77973 0.47011 0.95847 0.0
C111 C 0.77998 0.46863 0.04573 0.0
C112 C 0.7856 0.49058 0.04732 0.0
C113 C 0.78771 0.50263 0.00486 0.0
C114 C 0.78471 0.49224 0.96048 0.0
H115 H 0.0576 0.28415 0.50745 0.0
H116 H 0.99741 0.29103 0.58316 0.0
H117 H 0.99747 0.28618 0.42982 0.0
C118 C 0.04011 0.28552 0.50719 0.0
C119 C 0.02895 0.28453 0.46339 0.0
C120 C 0.02893 0.28733 0.55078 0.0
C121 C 0.00639 0.29019 0.54989 0.0
C122 C 0.99505 0.29024 0.50626 0.0
C123 C 0.00638 0.28719 0.4632 0.0
H124 H 0.70884 0.93791 0.49962 0.0
H125 H 0.69791 0.99638 0.57868 0.0
H126 H 0.70818 -0.00086 0.42643 0.0
C127 C 0.70673 0.95532 0.50014 0.0
C128 C 0.7083 0.96716 0.4573 0.0
C129 C 0.70356 0.96584 0.54408 0.0
C130 C 0.7008 0.98833 0.54479 0.0
C131 C 0.70222 0.0005 0.50246 0.0
C132 C 0.70596 0.98977 0.45884 0.0
H133 H 0.5548 0.22249 0.9949 0.0
H134 H 0.49806 0.20517 0.07476 0.0
H135 H 0.49407 0.21412 0.92205 0.0
C136 C 0.53775 0.21836 0.99572 0.0
C137 C 0.52576 0.21818 0.95294 0.0
C138 C 0.52776 0.21406 0.03981 0.0
C139 C 0.50566 0.20884 0.04077 0.0
C140 C 0.49334 0.20857 0.99838 0.0
C141 C 0.50358 0.21325 0.95462 0.0
H142 H 0.27701 0.05624 0.50252 0.0
H143 H 0.28772 0.99629 0.42902 0.0
H144 H 0.29358 -0.00067 0.58276 0.0
C145 C 0.28164 0.03931 0.50342 0.0
C146 C 0.28514 0.02912 0.54762 0.0
C147 C 0.28279 0.02756 0.46058 0.0
C148 C 0.28778 0.00545 0.4621 0.0
C149 C 0.29184 0.995 0.50596 0.0
C150 C 0.29091 0.00716 0.54857 0.0
H151 H 0.43943 0.78352 0.99629 0.0
H152 H 0.49789 0.79308 0.91579 0.0
H153 H 0.49979 0.79278 0.07001 0.0
C154 C 0.45668 0.78682 0.99531 0.0
C155 C 0.4683 0.78862 0.03832 0.0
C156 C 0.46727 0.78826 0.95102 0.0
C157 C 0.48964 0.79215 0.94996 0.0
C158 C 0.50157 0.79379 0.99274 0.0
C159 C 0.49072 0.79209 0.03679 0.0
H160 H 0.17246 0.24695 0.15494 0.0
H161 H 0.14484 0.25991 0.20997 0.0
H162 H 0.09714 0.21976 0.14015 0.0
H163 H 0.12485 0.20629 0.08517 0.0
H164 H 0.10761 0.28104 0.20288 0.0
H165 H 0.06374 0.19932 0.22672 0.0
H166 H 0.07121 0.16021 0.21907 0.0
H167 H 0.13868 0.17159 0.24687 0.0
H168 H 0.13155 0.2107 0.25526 0.0
H169 H 0.02247 0.29978 0.37166 0.0
H170 H 0.04168 0.28886 0.29886 0.0
H171 H 0.0817 0.24569 0.38226 0.0
H172 H 0.06178 0.2553 0.45398 0.0
H173 H 0.07111 0.2264 0.30483 0.0
H174 H 0.09875 0.29743 0.34406 0.0
H175 H 0.09615 0.33661 0.36003 0.0
H176 H 0.06912 0.34681 0.22008 0.0
H177 H 0.07133 0.30762 0.20351 0.0
C178 C 0.15609 0.24092 0.15093 0.0
C179 C 0.15097 0.22533 0.11597 0.0
C180 C 0.14027 0.24849 0.18229 0.0
C181 C 0.119 0.24066 0.17942 0.0
C182 C 0.11355 0.2258 0.14331 0.0
C183 C 0.12942 0.21813 0.11195 0.0
C184 C 0.10309 0.24702 0.21645 0.0
C185 C 0.09943 0.26911 0.22489 0.0
C186 C 0.09271 0.23145 0.24559 0.0
C187 C 0.09714 0.20794 0.24095 0.0
C188 C 0.08015 0.19345 0.23126 0.0
C189 C 0.08433 0.17129 0.22681 0.0
C190 C 0.10542 0.16343 0.23228 0.0
C191 C 0.12237 0.17771 0.24242 0.0
C192 C 0.11827 0.19987 0.24697 0.0
C193 C 0.03522 0.2878 0.37434 0.0
C194 C 0.04076 0.27866 0.41886 0.0
C195 C 0.04631 0.28172 0.33277 0.0
C196 C 0.0633 0.26662 0.33515 0.0
C197 C 0.06866 0.25736 0.37944 0.0
C198 C 0.05745 0.26318 0.42067 0.0
C199 C 0.07595 0.26049 0.2921 0.0
C200 C 0.0789 0.23838 0.28227 0.0
C201 C 0.08631 0.27606 0.26286 0.0
C202 C 0.08495 0.29959 0.27279 0.0
C203 C 0.0921 0.30802 0.31685 0.0
C204 C 0.09072 0.33022 0.32598 0.0
C205 C 0.08241 0.34418 0.29115 0.0
C206 C 0.07551 0.33597 0.24706 0.0
C207 C 0.07682 0.31377 0.23778 0.0
H208 H 0.08136 0.36137 0.29828 0.0
H209 H 0.10863 0.14628 0.2288 0.0
H210 H 0.2503 0.6722 0.64743 0.0
H211 H 0.2414 0.64432 0.70545 0.0
H212 H 0.29254 0.60389 0.65028 0.0
H213 H 0.30171 0.63187 0.59133 0.0
H214 H 0.25293 0.58138 0.67216 0.0
H215 H 0.30326 0.63022 0.74621 0.0
H216 H 0.3175 0.66604 0.76913 0.0
H217 H 0.25966 0.67893 0.84943 0.0
H218 H 0.24492 0.6433 0.82636 0.0
H219 H 0.25589 0.51432 0.88125 0.0
H220 H 0.26408 0.53709 0.81205 0.0
H221 H 0.22099 0.58635 0.86622 0.0
H222 H 0.2129 0.56369 0.93578 0.0
H223 H 0.25893 0.60308 0.84281 0.0
H224 H 0.20794 0.55504 0.76784 0.0
H225 H 0.19288 0.51969 0.74399 0.0
H226 H 0.2509 0.5054 0.66545 0.0
H227 H 0.26644 0.54057 0.6894 0.0
C228 C 0.25967 0.65738 0.64721 0.0
C229 C 0.27696 0.65442 0.61505 0.0
C230 C 0.2545 0.64145 0.68044 0.0
C231 C 0.26652 0.62225 0.68247 0.0
C232 C 0.28316 0.61869 0.64922 0.0
C233 C 0.2884 0.63472 0.61576 0.0
C234 C 0.26224 0.60659 0.72124 0.0
C235 C 0.25455 0.58591 0.70953 0.0
C236 C 0.26399 0.6128 0.76982 0.0
C237 C 0.27292 0.63415 0.78423 0.0
C238 C 0.29351 0.64076 0.76847 0.0
C239 C 0.30168 0.66102 0.78153 0.0
C240 C 0.28947 0.67477 0.81064 0.0
C241 C 0.26909 0.66827 0.82686 0.0
C242 C 0.26083 0.64803 0.81384 0.0
C243 C 0.24787 0.52985 0.87792 0.0
C244 C 0.23376 0.53728 0.91383 0.0
C245 C 0.25256 0.54283 0.83838 0.0
C246 C 0.24303 0.56334 0.83384 0.0
C247 C 0.22855 0.57057 0.86913 0.0
C248 C 0.22397 0.55766 0.90881 0.0
C249 C 0.24917 0.57787 0.79398 0.0
C250 C 0.25734 0.5984 0.80552 0.0
C251 C 0.24778 0.57148 0.74535 0.0
C252 C 0.23845 0.55035 0.73084 0.0
C253 C 0.21757 0.54429 0.74582 0.0
C254 C 0.20893 0.52429 0.73222 0.0
C255 C 0.22095 0.51028 0.70334 0.0
C256 C 0.24162 0.51626 0.68789 0.0
C257 C 0.25034 0.53623 0.70143 0.0
H258 H 0.21423 0.49481 0.69284 0.0
H259 H 0.29583 0.69046 0.8207 0.0
H260 H 0.86985 0.79477 0.06879 0.0
H261 H 0.901 0.78346 0.11752 0.0
H262 H 0.85803 0.74895 0.2123 0.0
H263 H 0.82722 0.75959 0.16385 0.0
H264 H 0.91155 0.79105 0.20739 0.0
H265 H 0.87936 0.70444 0.25457 0.0
H266 H 0.85924 0.67508 0.21454 0.0
H267 H 0.87966 0.69873 0.0773 0.0
H268 H 0.90019 0.72803 0.11646 0.0
H269 H 0.94231 0.7583 0.43501 0.0
H270 H 0.92471 0.76759 0.35979 0.0
H271 H 0.95854 0.71552 0.28898 0.0
H272 H 0.97527 0.70525 0.36508 0.0
H273 H 0.9189 0.71501 0.26224 0.0
H274 H 0.97196 0.76949 0.26779 0.0
H275 H 0.99452 0.7985 0.30227 0.0
H276 H 0.938 0.83792 0.32271 0.0
H277 H 0.91504 0.80903 0.28902 0.0
C278 C 0.86711 0.7847 0.09994 0.0
C279 C 0.84606 0.77796 0.11219 0.0
C280 C 0.8849 0.77824 0.12765 0.0
C281 C 0.88187 0.76497 0.16791 0.0
C282 C 0.86085 0.75865 0.1806 0.0
C283 C 0.84319 0.7649 0.15291 0.0
C284 C 0.90031 0.7583 0.19854 0.0
C285 C 0.91338 0.7744 0.21902 0.0
C286 C 0.90324 0.73644 0.21231 0.0
C287 C 0.89128 0.71852 0.18853 0.0
C288 C 0.87972 0.70329 0.21587 0.0
C289 C 0.8682 0.68667 0.19331 0.0
C290 C 0.86814 0.68506 0.14341 0.0
C291 C 0.87967 0.70002 0.11595 0.0
C292 C 0.89124 0.71665 0.13831 0.0
C293 C 0.94586 0.74864 0.40362 0.0
C294 C 0.9601 0.73092 0.40621 0.0
C295 C 0.93608 0.75424 0.36035 0.0
C296 C 0.94062 0.74253 0.31845 0.0
C297 C 0.95492 0.7249 0.32076 0.0
C298 C 0.96457 0.71913 0.36423 0.0
C299 C 0.92923 0.74795 0.27322 0.0
C300 C 0.91751 0.73159 0.2499 0.0
C301 C 0.92803 0.76947 0.2559 0.0
C302 C 0.94176 0.78702 0.27599 0.0
C303 C 0.96431 0.78429 0.27989 0.0
C304 C 0.97718 0.80073 0.29927 0.0
C305 C 0.9677 0.82004 0.31471 0.0
C306 C 0.94533 0.82296 0.31071 0.0
C307 C 0.93238 0.80657 0.29138 0.0
H308 H 0.97768 0.83274 0.32972 0.0
H309 H 0.85917 0.67221 0.12602 0.0
H310 H 0.74743 0.32523 0.65343 0.0
H311 H 0.75795 0.35365 0.70889 0.0
H312 H 0.70945 0.396 0.64903 0.0
H313 H 0.69875 0.36748 0.59246 0.0
H314 H 0.74939 0.41704 0.67036 0.0
H315 H 0.69729 0.37201 0.74816 0.0
H316 H 0.68093 0.33752 0.77381 0.0
H317 H 0.73822 0.3222 0.85431 0.0
H318 H 0.75507 0.35646 0.82852 0.0
H319 H 0.75426 0.48389 0.88424 0.0
H320 H 0.74359 0.46306 0.81326 0.0
H321 H 0.78516 0.41069 0.85819 0.0
H322 H 0.79579 0.43137 0.92899 0.0
H323 H 0.74437 0.39735 0.84226 0.0
H324 H 0.79714 0.44169 0.76082 0.0
H325 H 0.81352 0.47607 0.73448 0.0
H326 H 0.75466 0.49308 0.66154 0.0
H327 H 0.73782 0.45892 0.68802 0.0
C328 C 0.73897 0.34057 0.6517 0.0
C329 C 0.72197 0.34394 0.61892 0.0
C330 C 0.74507 0.35683 0.68344 0.0
C331 C 0.73424 0.37675 0.68349 0.0
C332 C 0.71792 0.38065 0.64955 0.0
C333 C 0.71179 0.36432 0.61746 0.0
C334 C 0.73937 0.3928 0.72111 0.0
C335 C 0.74797 0.41296 0.70801 0.0
C336 C 0.73766 0.3873 0.7701 0.0
C337 C 0.7275 0.36675 0.78611 0.0
C338 C 0.70646 0.36122 0.77106 0.0
C339 C 0.69709 0.34172 0.78566 0.0
C340 C 0.70854 0.32766 0.8156 0.0
C341 C 0.72937 0.3331 0.8311 0.0
C342 C 0.73883 0.35258 0.81654 0.0
C343 C 0.76149 0.46815 0.87826 0.0
C344 C 0.77571 0.45913 0.9122 0.0
C345 C 0.75537 0.45627 0.8378 0.0
C346 C 0.76354 0.43531 0.8306 0.0
C347 C 0.77857 0.42678 0.86328 0.0
C348 C 0.7846 0.43857 0.90367 0.0
C349 C 0.75512 0.42138 0.79169 0.0
C350 C 0.74568 0.40159 0.80466 0.0
C351 C 0.75602 0.42733 0.7428 0.0
C352 C 0.76614 0.44786 0.72688 0.0
C353 C 0.78762 0.45285 0.73955 0.0
C354 C 0.79701 0.47228 0.72451 0.0
C355 C 0.78512 0.48678 0.69648 0.0
C356 C 0.76384 0.48185 0.68332 0.0
C357 C 0.75437 0.46245 0.69831 0.0
H358 H 0.79242 0.50181 0.68486 0.0
H359 H 0.70126 0.31257 0.82687 0.0
H360 H 0.62969 0.29053 0.40884 0.0
H361 H 0.60251 0.27823 0.35077 0.0
H362 H 0.65109 0.24 0.27899 0.0
H363 H 0.67821 0.25215 0.33605 0.0
H364 H 0.62777 0.2643 0.21683 0.0
H365 H 0.61416 0.21623 0.34972 0.0
H366 H 0.60547 0.20752 0.43369 0.0
H367 H 0.54484 0.24109 0.42076 0.0
H368 H 0.55331 0.25028 0.33684 0.0
H369 H 0.56845 0.19939 0.0608 0.0
H370 H 0.59069 0.20904 0.13017 0.0
H371 H 0.53734 0.24525 0.18953 0.0
H372 H 0.51499 0.23561 0.12029 0.0
H373 H 0.561 0.22401 0.25961 0.0
H374 H 0.57401 0.27127 0.12659 0.0
H375 H 0.5824 0.2799 0.04243 0.0
H376 H 0.64417 0.24854 0.05612 0.0
H377 H 0.63599 0.23938 0.14017 0.0
C378 C 0.63457 0.27948 0.38074 0.0
C379 C 0.65618 0.27241 0.37711 0.0
C380 C 0.619 0.27241 0.34775 0.0
C381 C 0.62481 0.25816 0.31073 0.0
C382 C 0.64629 0.25104 0.30722 0.0
C383 C 0.66178 0.25801 0.34005 0.0
C384 C 0.60884 0.25097 0.27447 0.0
C385 C 0.61328 0.25531 0.22619 0.0
C386 C 0.58965 0.23979 0.28686 0.0
C387 C 0.58448 0.23415 0.33718 0.0
C388 C 0.59905 0.22192 0.3649 0.0
C389 C 0.59415 0.21686 0.41246 0.0
C390 C 0.57464 0.2238 0.43259 0.0
C391 C 0.55996 0.23576 0.40514 0.0
C392 C 0.5648 0.24088 0.35757 0.0
C393 C 0.56139 0.20918 0.08895 0.0
C394 C 0.54009 0.21695 0.08492 0.0
C395 C 0.57407 0.21464 0.12854 0.0
C396 C 0.56574 0.22817 0.1645 0.0
C397 C 0.54405 0.23481 0.16212 0.0
C398 C 0.53131 0.22927 0.12259 0.0
C399 C 0.58026 0.23692 0.20203 0.0
C400 C 0.57547 0.23304 0.2504 0.0
C401 C 0.59915 0.24863 0.18985 0.0
C402 C 0.6043 0.25448 0.13956 0.0
C403 C 0.58933 0.2661 0.11157 0.0
C404 C 0.59405 0.27108 0.06389 0.0
C405 C 0.61379 0.26473 0.04391 0.0
C406 C 0.62888 0.25343 0.07163 0.0
C407 C 0.62421 0.24834 0.1193 0.0
H408 H 0.6174 0.2686 0.00698 0.0
H409 H 0.57088 0.21988 0.46942 0.0
H410 H 0.24657 0.13867 0.93733 0.0
H411 H 0.2613 0.10985 0.88645 0.0
H412 H 0.205 0.11438 0.79498 0.0
H413 H 0.1899 0.14247 0.84727 0.0
H414 H 0.21799 0.07378 0.80039 0.0
H415 H 0.25306 0.14346 0.77468 0.0
H416 H 0.27378 0.17533 0.80195 0.0
H417 H 0.32662 0.13423 0.84355 0.0
H418 H 0.30603 0.10206 0.81745 0.0
H419 H 0.24951 0.05337 0.56623 0.0
H420 H 0.23955 0.07091 0.64117 0.0
H421 H 0.29857 0.04803 0.70669 0.0
H422 H 0.30886 0.03046 0.63094 0.0
H423 H 0.28858 0.09235 0.72598 0.0
H424 H 0.25504 0.02317 0.73664 0.0
H425 H 0.23373 0.99203 0.70782 0.0
H426 H 0.17777 0.0327 0.69224 0.0
H427 H 0.19883 0.06418 0.72023 0.0
C428 C 0.23717 0.13299 0.90703 0.0
C429 C 0.21718 0.14252 0.89586 0.0
C430 C 0.24561 0.11669 0.87788 0.0
C431 C 0.23446 0.1103 0.83634 0.0
C432 C 0.21389 0.11907 0.82681 0.0
C433 C 0.20527 0.13508 0.8565 0.0
C434 C 0.24485 0.09602 0.80044 0.0
C435 C 0.23341 0.07784 0.78411 0.0
C436 C 0.26531 0.10097 0.78015 0.0
C437 C 0.27791 0.12035 0.79463 0.0
C438 C 0.26906 0.14122 0.78988 0.0
C439 C 0.28076 0.15932 0.8052 0.0
C440 C 0.30146 0.15678 0.82475 0.0
C441 C 0.31054 0.13614 0.82871 0.0
C442 C 0.29887 0.11797 0.81365 0.0
C443 C 0.26056 0.05232 0.59631 0.0
C444 C 0.28004 0.04068 0.5927 0.0
C445 C 0.25473 0.06215 0.63923 0.0
C446 C 0.26821 0.06051 0.6795 0.0
C447 C 0.28793 0.04934 0.67595 0.0
C448 C 0.29374 0.03931 0.63287 0.0
C449 C 0.26133 0.07062 0.72498 0.0
C450 C 0.27342 0.08799 0.74306 0.0
C451 C 0.24141 0.06502 0.74669 0.0
C452 C 0.22857 0.04607 0.73034 0.0
C453 C 0.23823 0.02551 0.72678 0.0
C454 C 0.22619 0.00779 0.71062 0.0
C455 C 0.20442 0.01039 0.69815 0.0
C456 C 0.19463 0.03071 0.70192 0.0
C457 C 0.20661 0.0485 0.718 0.0
H458 H 0.19512 0.99665 0.68563 0.0
H459 H 0.31048 0.17081 0.8367 0.0
H460 H 0.36869 0.70609 0.40205 0.0
H461 H 0.3961 0.71943 0.34581 0.0
H462 H 0.34974 0.7646 0.28766 0.0
H463 H 0.3224 0.75144 0.3429 0.0
H464 H 0.36926 0.74091 0.21867 0.0
H465 H 0.39025 0.78149 0.35923 0.0
H466 H 0.40176 0.78546 0.44338 0.0
H467 H 0.45898 0.74816 0.41479 0.0
H468 H 0.44761 0.7436 0.33065 0.0
H469 H 0.43015 0.80619 0.06826 0.0
H470 H 0.4092 0.79608 0.13909 0.0
H471 H 0.4601 0.75249 0.18283 0.0
H472 H 0.48119 0.7626 0.11209 0.0
H473 H 0.44041 0.77323 0.26046 0.0
H474 H 0.41998 0.73258 0.12129 0.0
H475 H 0.40897 0.72801 0.03698 0.0
H476 H 0.35086 0.76426 0.06351 0.0
H477 H 0.36173 0.76939 0.14782 0.0
C478 C 0.3644 0.71897 0.37751 0.0
C479 C 0.34327 0.72752 0.37668 0.0
C480 C 0.38009 0.72661 0.34557 0.0
C481 C 0.37489 0.74299 0.31265 0.0
C482 C 0.35402 0.75188 0.31263 0.0
C483 C 0.3384 0.74428 0.3443 0.0
C484 C 0.39062 0.75024 0.27617 0.0
C485 C 0.38471 0.74819 0.22788 0.0
C486 C 0.41105 0.75908 0.28825 0.0
C487 C 0.41796 0.762 0.33874 0.0
C488 C 0.40519 0.77397 0.37096 0.0
C489 C 0.41171 0.77636 0.41865 0.0
C490 C 0.43106 0.76704 0.43443 0.0
C491 C 0.44397 0.75535 0.40253 0.0
C492 C 0.43751 0.75285 0.35484 0.0
C493 C 0.43698 0.79468 0.09335 0.0
C494 C 0.45715 0.78499 0.08449 0.0
C495 C 0.42506 0.78898 0.13379 0.0
C496 C 0.433 0.7733 0.16567 0.0
C497 C 0.45373 0.76462 0.1586 0.0
C498 C 0.46574 0.77041 0.11822 0.0
C499 C 0.41871 0.76441 0.20324 0.0
C500 C 0.42495 0.76595 0.25146 0.0
C501 C 0.39856 0.75494 0.19125 0.0
C502 C 0.39177 0.75153 0.14078 0.0
C503 C 0.40492 0.7397 0.10907 0.0
C504 C 0.39871 0.737 0.06129 0.0
C505 C 0.37925 0.74588 0.04488 0.0
C506 C 0.36594 0.75741 0.07627 0.0
C507 C 0.37212 0.76021 0.12406 0.0
H508 H 0.37447 0.74378 0.00786 0.0
H509 H 0.43607 0.76892 0.47135 0.0
H510 H 0.73813 0.82009 0.85749 0.0
H511 H 0.72331 0.84634 0.80152 0.0
H512 H 0.77123 0.89305 0.84568 0.0
H513 H 0.78632 0.86677 0.90249 0.0
H514 H 0.729 0.91079 0.83117 0.0
H515 H 0.78094 0.86643 0.74871 0.0
H516 H 0.79758 0.83196 0.72362 0.0
H517 H 0.73824 0.81318 0.6548 0.0
H518 H 0.72114 0.84742 0.68012 0.0
H519 H 0.72711 0.97708 0.62261 0.0
H520 H 0.73494 0.95492 0.69275 0.0
H521 H 0.69317 0.90466 0.63797 0.0
H522 H 0.6854 0.92678 0.56722 0.0
H523 H 0.73159 0.88904 0.66017 0.0
H524 H 0.67999 0.93442 0.73919 0.0
H525 H 0.66341 0.96885 0.76461 0.0
H526 H 0.7217 0.98602 0.83955 0.0
H527 H 0.73876 0.95181 0.81402 0.0
C528 C 0.74553 0.83595 0.85572 0.0
C529 C 0.76367 0.8412 0.88405 0.0
C530 C 0.73697 0.85095 0.82371 0.0
C531 C 0.74637 0.87146 0.81913 0.0
C532 C 0.76381 0.87722 0.84877 0.0
C533 C 0.77245 0.86217 0.88099 0.0
C534 C 0.73877 0.88621 0.78103 0.0
C535 C 0.72976 0.90623 0.79369 0.0
C536 C 0.73939 0.87992 0.73237 0.0
C537 C 0.7497 0.8594 0.71671 0.0
C538 C 0.77139 0.85488 0.72855 0.0
C539 C 0.78091 0.83539 0.71424 0.0
C540 C 0.76896 0.82037 0.68774 0.0
C541 C 0.74747 0.82483 0.67538 0.0
C542 C 0.73786 0.84427 0.68967 0.0
C543 C 0.71912 0.96155 0.62611 0.0
C544 C 0.70564 0.95362 0.58946 0.0
C545 C 0.72361 0.9489 0.66626 0.0
C546 C 0.71453 0.9282 0.67077 0.0
C547 C 0.70036 0.9206 0.63514 0.0
C548 C 0.69596 0.9332 0.59478 0.0
C549 C 0.72153 0.91369 0.71006 0.0
C550 C 0.73061 0.89366 0.6976 0.0
C551 C 0.72095 0.92004 0.75878 0.0
C552 C 0.71072 0.94062 0.77432 0.0
C553 C 0.68934 0.94561 0.76077 0.0
C554 C 0.67984 0.96508 0.77526 0.0
C555 C 0.69151 0.97964 0.80358 0.0
C556 C 0.71269 0.97473 0.81757 0.0
C557 C 0.72227 0.95529 0.80315 0.0
H558 H 0.68413 0.9947 0.81477 0.0
H559 H 0.77636 0.80529 0.67669 0.0
H560 H 0.8664 0.79556 0.91285 0.0
H561 H 0.89509 0.7839 0.85804 0.0
H562 H 0.84933 0.74351 0.78273 0.0
H563 H 0.82083 0.75468 0.83724 0.0
H564 H 0.88658 0.7225 0.79655 0.0
H565 H 0.86415 0.79304 0.7396 0.0
H566 H 0.85752 0.83227 0.74692 0.0
H567 H 0.92456 0.84263 0.78107 0.0
H568 H 0.93152 0.80339 0.77453 0.0
H569 H 0.92756 0.70925 0.56217 0.0
H570 H 0.90704 0.71815 0.63446 0.0
H571 H 0.96242 0.75215 0.69139 0.0
H572 H 0.98292 0.74358 0.61883 0.0
H573 H 0.92527 0.77616 0.69598 0.0
H574 H 0.94811 0.70519 0.74046 0.0
H575 H 0.95387 0.66598 0.73023 0.0
H576 H 0.88526 0.65624 0.71703 0.0
H577 H 0.87909 0.69544 0.72646 0.0
C578 C 0.86246 0.78418 0.88465 0.0
C579 C 0.84126 0.77616 0.87938 0.0
C580 C 0.87887 0.77755 0.85337 0.0
C581 C 0.87429 0.76293 0.81619 0.0
C582 C 0.85324 0.75473 0.81129 0.0
C583 C 0.83692 0.76127 0.84245 0.0
C584 C 0.89109 0.75638 0.78129 0.0
C585 C 0.895 0.73422 0.77441 0.0
C586 C 0.90245 0.77171 0.75332 0.0
C587 C 0.89829 0.79528 0.75718 0.0
C588 C 0.87743 0.80367 0.74906 0.0
C589 C 0.87362 0.8259 0.75299 0.0
C590 C 0.89059 0.83992 0.76461 0.0
C591 C 0.91142 0.83174 0.77218 0.0
C592 C 0.91531 0.80951 0.76835 0.0
C593 C 0.93538 0.7185 0.59025 0.0
C594 C 0.95681 0.72572 0.58495 0.0
C595 C 0.92372 0.72344 0.63162 0.0
C596 C 0.9333 0.73567 0.66837 0.0
C597 C 0.9548 0.74261 0.6635 0.0
C598 C 0.96651 0.73758 0.62224 0.0
C599 C 0.92035 0.74226 0.71045 0.0
C600 C 0.91717 0.76444 0.71868 0.0
C601 C 0.90953 0.72693 0.73938 0.0
C602 C 0.91316 0.70331 0.73384 0.0
C603 C 0.93425 0.69472 0.735 0.0
C604 C 0.93759 0.67248 0.72941 0.0
C605 C 0.91995 0.65863 0.7229 0.0
C606 C 0.89892 0.66699 0.72206 0.0
C607 C 0.89549 0.68922 0.72759 0.0
H608 H 0.92257 0.64142 0.71858 0.0
H609 H 0.88761 0.85713 0.76763 0.0
H610 H 0.75948 0.32491 0.37423 0.0
H611 H 0.77389 0.35233 0.32042 0.0
H612 H 0.71705 0.39165 0.34318 0.0
H613 H 0.70257 0.36432 0.39799 0.0
H614 H 0.7565 0.36323 0.2384 0.0
H615 H 0.73019 0.44494 0.32439 0.0
H616 H 0.72598 0.46074 0.40498 0.0
H617 H 0.77267 0.41583 0.46097 0.0
H618 H 0.7774 0.39998 0.38065 0.0
H619 H 0.74564 0.44246 0.06401 0.0
H620 H 0.73903 0.42072 0.1354 0.0
H621 H 0.79736 0.4458 0.20005 0.0
H622 H 0.80413 0.46772 0.12822 0.0
H623 H 0.76302 0.44239 0.26496 0.0
H624 H 0.79999 0.39801 0.15123 0.0
H625 H 0.80675 0.38199 0.07176 0.0
H626 H 0.74447 0.35111 0.07523 0.0
H627 H 0.73719 0.36723 0.15443 0.0
C628 C 0.75007 0.33947 0.36819 0.0
C629 C 0.72971 0.34232 0.38985 0.0
C630 C 0.7584 0.35515 0.33751 0.0
C631 C 0.74655 0.37399 0.32776 0.0
C632 C 0.72658 0.37732 0.35069 0.0
C633 C 0.71827 0.36165 0.38178 0.0
C634 C 0.75414 0.38903 0.29014 0.0
C635 C 0.75804 0.38051 0.24439 0.0
C636 C 0.75651 0.41152 0.29815 0.0
C637 C 0.75398 0.42115 0.34651 0.0
C638 C 0.73963 0.4385 0.35384 0.0
C639 C 0.73714 0.44746 0.3995 0.0
C640 C 0.749 0.43925 0.43809 0.0
C641 C 0.76343 0.42212 0.43108 0.0
C642 C 0.76599 0.41312 0.38551 0.0
C643 C 0.7571 0.44331 0.09336 0.0
C644 C 0.7756 0.45646 0.09031 0.0
C645 C 0.75324 0.431 0.13418 0.0
C646 C 0.76788 0.43147 0.1726 0.0
C647 C 0.78592 0.44524 0.17064 0.0
C648 C 0.78977 0.45768 0.12968 0.0
C649 C 0.76477 0.41655 0.21334 0.0
C650 C 0.76167 0.42507 0.2594 0.0
C651 C 0.76356 0.39394 0.20601 0.0
C652 C 0.76799 0.38395 0.15864 0.0
C653 C 0.78768 0.38791 0.13492 0.0
C654 C 0.79161 0.37881 0.08993 0.0
C655 C 0.77604 0.36557 0.06842 0.0
C656 C 0.75652 0.36137 0.09192 0.0
C657 C 0.75249 0.37047 0.13689 0.0
H658 H 0.77911 0.35855 0.03358 0.0
H659 H 0.74704 0.4462 0.47341 0.0
H660 H 0.12532 0.21869 0.9382 0.0
H661 H 0.09744 0.23648 0.88957 0.0
H662 H 0.14286 0.24214 0.77281 0.0
H663 H 0.17082 0.2252 0.82159 0.0
H664 H 0.1223 0.27831 0.78168 0.0
H665 H 0.10156 0.20241 0.77836 0.0
H666 H 0.09066 0.16762 0.81436 0.0
H667 H 0.03518 0.1981 0.87795 0.0
H668 H 0.04591 0.23313 0.84271 0.0
H669 H 0.0617 0.25872 0.56791 0.0
H670 H 0.08047 0.25175 0.6428 0.0
H671 H 0.04035 0.29869 0.71455 0.0
H672 H 0.02206 0.30692 0.63848 0.0
H673 H 0.05224 0.24286 0.74396 0.0
H674 H 0.07404 0.31962 0.73643 0.0
H675 H 0.08626 0.35164 0.69111 0.0
H676 H 0.14129 0.31609 0.63959 0.0
H677 H 0.12917 0.28377 0.68408 0.0
C678 C 0.12925 0.2236 0.90201 0.0
C679 C 0.15022 0.22052 0.88362 0.0
C680 C 0.11333 0.23379 0.87431 0.0
C681 C 0.11803 0.24062 0.82748 0.0
C682 C 0.13889 0.23723 0.809 0.0
C683 C 0.15484 0.22741 0.83682 0.0
C684 C 0.10144 0.25115 0.7969 0.0
C685 C 0.10688 0.27063 0.77396 0.0
C686 C 0.08111 0.24143 0.78732 0.0
C687 C 0.07469 0.22041 0.80848 0.0
C688 C 0.08713 0.20171 0.80034 0.0
C689 C 0.08097 0.18195 0.82053 0.0
C690 C 0.06228 0.18067 0.84857 0.0
C691 C 0.04968 0.19913 0.85633 0.0
C692 C 0.05579 0.21893 0.83626 0.0
C693 C 0.05714 0.26808 0.59909 0.0
C694 C 0.04056 0.2837 0.59678 0.0
C695 C 0.06773 0.26383 0.64204 0.0
C696 C 0.06182 0.2748 0.68382 0.0
C697 C 0.04516 0.2902 0.68235 0.0
C698 C 0.03469 0.29476 0.63897 0.0
C699 C 0.07342 0.26959 0.72846 0.0
C700 C 0.06722 0.25097 0.75357 0.0
C701 C 0.09318 0.27986 0.73958 0.0
C702 C 0.10058 0.29926 0.71313 0.0
C703 C 0.08862 0.31859 0.71503 0.0
C704 C 0.09555 0.3368 0.68961 0.0
C705 C 0.11451 0.33588 0.66238 0.0
C706 C 0.1266 0.31677 0.66064 0.0
C707 C 0.11971 0.29852 0.68598 0.0
H708 H 0.11986 0.34999 0.64273 0.0
H709 H 0.05753 0.16536 0.86417 0.0
H710 H 0.30013 0.62834 0.41446 0.0
H711 H 0.28986 0.59766 0.36372 0.0
H712 H 0.24213 0.63739 0.29285 0.0
H713 H 0.25196 0.66788 0.34343 0.0
H714 H 0.2264 0.59754 0.31095 0.0
H715 H 0.29174 0.62882 0.24356 0.0
H716 H 0.32997 0.6404 0.24554 0.0
H717 H 0.34972 0.57548 0.27886 0.0
H718 H 0.31155 0.56357 0.27766 0.0
H719 H 0.21172 0.55892 0.0765 0.0
H720 H 0.21947 0.57823 0.15089 0.0
H721 H 0.26291 0.52714 0.19432 0.0
H722 H 0.25555 0.50792 0.11927 0.0
H723 H 0.28157 0.56644 0.20176 0.0
H724 H 0.2157 0.53433 0.25348 0.0
H725 H 0.17734 0.52348 0.2485 0.0
H726 H 0.15816 0.59023 0.24262 0.0
H727 H 0.19643 0.6015 0.24683 0.0
C728 C 0.28736 0.63051 0.38826 0.0
C729 C 0.27702 0.65066 0.38278 0.0
C730 C 0.28154 0.61297 0.35929 0.0
C731 C 0.26535 0.61532 0.32432 0.0
C732 C 0.25463 0.63521 0.3197 0.0
C733 C 0.26041 0.65269 0.34851 0.0
C734 C 0.26005 0.59754 0.29071 0.0
C735 C 0.23843 0.59072 0.28699 0.0
C736 C 0.27589 0.58823 0.26048 0.0
C737 C 0.2988 0.59537 0.26115 0.0
C738 C 0.30423 0.61706 0.2517 0.0
C739 C 0.32588 0.62367 0.25261 0.0
C740 C 0.34226 0.6087 0.26249 0.0
C741 C 0.33701 0.58707 0.27133 0.0
C742 C 0.31538 0.58038 0.27054 0.0
C743 C 0.22278 0.55172 0.10211 0.0
C744 C 0.23308 0.53196 0.09208 0.0
C745 C 0.22704 0.56266 0.14478 0.0
C746 C 0.24161 0.55401 0.17833 0.0
C747 C 0.25152 0.53401 0.16899 0.0
C748 C 0.2472 0.52301 0.1263 0.0
C749 C 0.24777 0.56687 0.22098 0.0
C750 C 0.26958 0.5728 0.22641 0.0
C751 C 0.23207 0.57544 0.25258 0.0
C752 C 0.20898 0.56875 0.25022 0.0
C753 C 0.20332 0.5467 0.25078 0.0
C754 C 0.18158 0.54047 0.24815 0.0
C755 C 0.16533 0.55615 0.24518 0.0
C756 C 0.17077 0.5781 0.24493 0.0
C757 C 0.19249 0.58442 0.24752 0.0
H758 H 0.14851 0.5513 0.24314 0.0
H759 H 0.35901 0.61385 0.26315 0.0
H760 H 0.32115 0.74208 0.6649 0.0
H761 H 0.34929 0.75683 0.71636 0.0
H762 H 0.39811 0.73651 0.61542 0.0
H763 H 0.3699 0.72098 0.56405 0.0
H764 H 0.41024 0.7264 0.70142 0.0
H765 H 0.38459 0.79147 0.63003 0.0
H766 H 0.35756 0.81816 0.60267 0.0
H767 H 0.336 0.82729 0.74727 0.0
H768 H 0.3628 0.80059 0.77561 0.0
H769 H 0.46829 0.81105 0.86683 0.0
H770 H 0.44888 0.80258 0.79223 0.0
H771 H 0.42005 0.74687 0.85995 0.0
H772 H 0.43944 0.75506 0.93395 0.0
H773 H 0.40469 0.79924 0.77539 0.0
H774 H 0.4184 0.70596 0.78003 0.0
H775 H 0.44684 0.68027 0.80499 0.0
H776 H 0.49523 0.72944 0.78632 0.0
H777 H 0.46716 0.75532 0.76052 0.0
C778 C 0.33785 0.74084 0.65335 0.0
C779 C 0.34327 0.73036 0.61031 0.0
C780 C 0.35394 0.74946 0.68271 0.0
C781 C 0.3758 0.74821 0.66931 0.0
C782 C 0.38132 0.73778 0.62632 0.0
C783 C 0.3652 0.72888 0.59708 0.0
C784 C 0.39279 0.75662 0.70196 0.0
C785 C 0.40916 0.74241 0.71715 0.0
C786 C 0.39172 0.77772 0.72175 0.0
C787 C 0.37568 0.79395 0.70491 0.0
C788 C 0.37402 0.79909 0.65598 0.0
C789 C 0.35874 0.81423 0.64029 0.0
C790 C 0.34503 0.82435 0.67314 0.0
C791 C 0.34663 0.81944 0.72184 0.0
C792 C 0.36191 0.80435 0.73777 0.0
C793 C 0.45785 0.79698 0.86558 0.0
C794 C 0.45527 0.78376 0.90615 0.0
C795 C 0.44675 0.79222 0.82315 0.0
C796 C 0.43325 0.77399 0.82056 0.0
C797 C 0.43061 0.76087 0.86109 0.0
C798 C 0.44152 0.76569 0.90346 0.0
C799 C 0.42139 0.76867 0.77605 0.0
C800 C 0.40601 0.78342 0.75879 0.0
C801 C 0.42358 0.74822 0.75379 0.0
C802 C 0.44062 0.73262 0.76862 0.0
C803 C 0.43512 0.71126 0.78096 0.0
C804 C 0.45118 0.69667 0.79532 0.0
C805 C 0.47282 0.70323 0.79734 0.0
C806 C 0.47846 0.72439 0.78488 0.0
C807 C 0.46247 0.73903 0.77045 0.0
H808 H 0.48522 0.69192 0.80851 0.0
H809 H 0.3332 0.83603 0.66086 0.0
H810 H 0.77145 0.8701 0.0635 0.0
H811 H 0.75649 0.89817 0.11621 0.0
H812 H 0.75476 0.85229 0.23275 0.0
H813 H 0.76873 0.82424 0.18013 0.0
H814 H 0.71896 0.87301 0.23172 0.0
H815 H 0.79462 0.89353 0.22 0.0
H816 H 0.8279 0.90445 0.17761 0.0
H817 H 0.79529 0.9604 0.12158 0.0
H818 H 0.76173 0.94966 0.16324 0.0
H819 H 0.73662 0.93359 0.44452 0.0
H820 H 0.74507 0.91451 0.37052 0.0
H821 H 0.70285 0.9572 0.29187 0.0
H822 H 0.6932 0.97584 0.3665 0.0
H823 H 0.75537 0.94327 0.2621 0.0
H824 H 0.67947 0.9216 0.28389 0.0
H825 H 0.64909 0.90957 0.33463 0.0
H826 H 0.68589 0.85411 0.37916 0.0
H827 H 0.71662 0.86603 0.32922 0.0
C828 C 0.76794 0.86612 0.10046 0.0
C829 C 0.77116 0.84499 0.1177 0.0
C830 C 0.75944 0.88215 0.13054 0.0
C831 C 0.75453 0.87737 0.17854 0.0
C832 C 0.75817 0.85634 0.19577 0.0
C833 C 0.76624 0.84032 0.16567 0.0
C834 C 0.74543 0.89389 0.21142 0.0
C835 C 0.72691 0.88842 0.23798 0.0
C836 C 0.75548 0.91422 0.21921 0.0
C837 C 0.77561 0.92065 0.19419 0.0
C838 C 0.79451 0.90807 0.19832 0.0
C839 C 0.81342 0.91424 0.17449 0.0
C840 C 0.81369 0.93307 0.14677 0.0
C841 C 0.79505 0.9458 0.14296 0.0
C842 C 0.77608 0.93968 0.16668 0.0
C843 C 0.72877 0.93877 0.41179 0.0
C844 C 0.71392 0.95606 0.41171 0.0
C845 C 0.73387 0.92801 0.36945 0.0
C846 C 0.72453 0.9345 0.32609 0.0
C847 C 0.7102 0.95207 0.32523 0.0
C848 C 0.70479 0.96269 0.36783 0.0
C849 C 0.72937 0.92202 0.28246 0.0
C850 C 0.74711 0.92817 0.25434 0.0
C851 C 0.7189 0.90214 0.27365 0.0
C852 C 0.70038 0.89482 0.30321 0.0
C853 C 0.68115 0.90696 0.30486 0.0
C854 C 0.66385 0.90014 0.33339 0.0
C855 C 0.66558 0.88112 0.3602 0.0
C856 C 0.68458 0.86885 0.35842 0.0
C857 C 0.70193 0.87562 0.32998 0.0
H858 H 0.65218 0.87586 0.38226 0.0
H859 H 0.82835 0.93782 0.12836 0.0
H860 H 0.66895 0.25448 0.6622 0.0
H861 H 0.63866 0.24302 0.71123 0.0
H862 H 0.59454 0.27817 0.61997 0.0
H863 H 0.62509 0.29024 0.57066 0.0
H864 H 0.58532 0.28538 0.71078 0.0
H865 H 0.59529 0.22289 0.61699 0.0
H866 H 0.61529 0.19373 0.5761 0.0
H867 H 0.63683 0.16906 0.71177 0.0
H868 H 0.61723 0.19827 0.7535 0.0
H869 H 0.51997 0.1998 0.86439 0.0
H870 H 0.53722 0.21022 0.7889 0.0
H871 H 0.57287 0.2602 0.86273 0.0
H872 H 0.555 0.25065 0.9374 0.0
H873 H 0.57751 0.20895 0.76252 0.0
H874 H 0.58262 0.30249 0.7939 0.0
H875 H 0.56021 0.33134 0.82947 0.0
H876 H 0.50303 0.29306 0.80738 0.0
H877 H 0.52503 0.26411 0.77102 0.0
C878 C 0.65284 0.25975 0.65213 0.0
C879 C 0.64949 0.27329 0.61231 0.0
C880 C 0.63547 0.25302 0.68014 0.0
C881 C 0.61428 0.25939 0.66876 0.0
C882 C 0.61077 0.27295 0.62917 0.0
C883 C 0.62824 0.27983 0.60108 0.0
C884 C 0.59617 0.25261 0.70016 0.0
C885 C 0.58341 0.26865 0.72174 0.0
C886 C 0.59317 0.23067 0.7132 0.0
C887 C 0.60482 0.21285 0.68839 0.0
C888 C 0.60438 0.21132 0.63813 0.0
C889 C 0.61564 0.19477 0.61478 0.0
C890 C 0.62733 0.17956 0.64132 0.0
C891 C 0.62774 0.18085 0.69126 0.0
C892 C 0.61652 0.19738 0.71479 0.0
C893 C 0.53124 0.21323 0.86432 0.0
C894 C 0.53616 0.22434 0.90696 0.0
C895 C 0.54117 0.21907 0.82124 0.0
C896 C 0.55611 0.23618 0.81999 0.0
C897 C 0.56107 0.24724 0.86254 0.0
C898 C 0.55108 0.24152 0.90544 0.0
C899 C 0.56754 0.24188 0.77504 0.0
C900 C 0.57903 0.22562 0.75087 0.0
C901 C 0.56892 0.26354 0.75872 0.0
C902 C 0.55553 0.28106 0.77993 0.0
C903 C 0.56525 0.30028 0.79631 0.0
C904 C 0.55262 0.31664 0.8167 0.0
C905 C 0.53022 0.31402 0.82076 0.0
C906 C 0.52039 0.29505 0.80433 0.0
C907 C 0.53294 0.27864 0.78388 0.0
H908 H 0.52047 0.3267 0.83659 0.0
H909 H 0.63606 0.16677 0.62318 0.0
H910 H 0.19526 0.12644 0.09726 0.0
H911 H 0.20755 0.09778 0.15149 0.0
H912 H 0.25648 0.14052 0.20837 0.0
H913 H 0.24461 0.16902 0.15443 0.0
H914 H 0.2725 0.10045 0.19207 0.0
H915 H 0.20966 0.13267 0.26749 0.0
H916 H 0.17135 0.1439 0.27078 0.0
H917 H 0.15129 0.07798 0.25066 0.0
H918 H 0.18953 0.0664 0.2466 0.0
H919 H 0.29729 0.06621 0.42638 0.0
H920 H 0.28538 0.08502 0.35388 0.0
H921 H 0.24301 0.0317 0.3195 0.0
H922 H 0.25472 0.01289 0.39235 0.0
H923 H 0.22251 0.07132 0.31519 0.0
H924 H 0.28668 0.03894 0.25312 0.0
H925 H 0.32529 0.02881 0.25174 0.0
H926 H 0.34328 0.09592 0.24858 0.0
H927 H 0.30477 0.10648 0.25068 0.0
C928 C 0.20867 0.12971 0.12122 0.0
C929 C 0.21884 0.1501 0.12167 0.0
C930 C 0.21565 0.11333 0.15216 0.0
C931 C 0.23285 0.11711 0.18403 0.0
C932 C 0.24323 0.13726 0.18392 0.0
C933 C 0.23629 0.1536 0.1532 0.0
C934 C 0.2398 0.10048 0.21886 0.0
C935 C 0.26161 0.09409 0.21909 0.0
C936 C 0.2254 0.09181 0.25322 0.0
C937 C 0.20243 0.09871 0.25613 0.0
C938 C 0.19707 0.1206 0.26339 0.0
C939 C 0.17538 0.12702 0.26546 0.0
C940 C 0.15889 0.11168 0.26075 0.0
C941 C 0.16408 0.08985 0.25417 0.0
C942 C 0.18575 0.08335 0.25201 0.0
C943 C 0.28557 0.05846 0.40312 0.0
C944 C 0.27696 0.03811 0.4148 0.0
C945 C 0.27888 0.06912 0.36165 0.0
C946 C 0.26346 0.05963 0.33121 0.0
C947 C 0.25501 0.0392 0.34246 0.0
C948 C 0.26181 0.02844 0.38381 0.0
C949 C 0.25536 0.07174 0.28919 0.0
C950 C 0.23333 0.07729 0.2876 0.0
C951 C 0.26959 0.07977 0.25379 0.0
C952 C 0.29281 0.0735 0.25238 0.0
C953 C 0.29886 0.05155 0.25251 0.0
C954 C 0.32074 0.04573 0.25153 0.0
C955 C 0.33673 0.06171 0.25016 0.0
C956 C 0.33088 0.08355 0.24966 0.0
C957 C 0.30902 0.08947 0.25068 0.0
H958 H 0.35366 0.05717 0.2494 0.0
H959 H 0.14211 0.11669 0.26233 0.0
H960 H 0.2018 0.28606 0.05517 0.0
H961 H 0.20129 0.32555 0.04997 0.0
H962 H 0.2316 0.32241 0.9111 0.0
H963 H 0.23189 0.28277 0.91558 0.0
H964 H 0.25168 0.35111 0.98167 0.0
H965 H 0.18271 0.33538 0.90958 0.0
H966 H 0.14674 0.31815 0.90532 0.0
H967 H 0.12764 0.35079 0.0343 0.0
H968 H 0.16363 0.36798 0.03973 0.0
H969 H 0.24485 0.46218 0.93113 0.0
H970 H 0.24147 0.42303 0.92494 0.0
H971 H 0.19852 0.42261 0.04671 0.0
H972 H 0.20074 0.46207 0.05136 0.0
H973 H 0.18449 0.39526 0.98098 0.0
H974 H 0.25245 0.40931 0.05761 0.0
H975 H 0.28854 0.42584 0.06725 0.0
H976 H 0.30981 0.39568 0.93697 0.0
H977 H 0.27372 0.37921 0.9262 0.0
C978 C 0.20831 0.29376 0.02344 0.0
C979 C 0.21696 0.28137 0.98581 0.0
C980 C 0.20789 0.31627 0.02046 0.0
C981 C 0.21633 0.32674 0.9801 0.0
C982 C 0.22497 0.31449 0.94244 0.0
C983 C 0.22507 0.29192 0.94501 0.0
C984 C 0.21686 0.35056 0.97835 0.0
C985 C 0.23704 0.36084 0.98063 0.0
C986 C 0.19767 0.36301 0.97864 0.0
C987 C 0.17595 0.35281 0.9753 0.0
C988 C 0.17091 0.33874 0.93727 0.0
C989 C 0.1505 0.32901 0.93459 0.0
C990 C 0.13494 0.33333 0.96958 0.0
C991 C 0.13973 0.34744 0.00725 0.0
C992 C 0.16012 0.3572 0.01011 0.0
C993 C 0.23435 0.45386 0.9561 0.0
C994 C 0.22308 0.46528 0.99183 0.0
C995 C 0.23266 0.43142 0.95285 0.0
C996 C 0.22005 0.41988 0.98587 0.0
C997 C 0.20843 0.43122 0.021 0.0
C998 C 0.20991 0.45373 0.02394 0.0
C999 C 0.21938 0.39596 0.9843 0.0
C1000 C 0.19917 0.38561 0.98163 0.0
C1001 C 0.23857 0.38339 0.98439 0.0
C1002 C 0.26031 0.39321 0.99085 0.0
C1003 C 0.26477 0.40633 0.03083 0.0
C1004 C 0.28524 0.41567 0.03652 0.0
C1005 C 0.30144 0.41186 0.00267 0.0
C1006 C 0.29723 0.39865 0.96312 0.0
C1007 C 0.27678 0.38929 0.95722 0.0
H1008 H 0.31728 0.4191 0.00715 0.0
H1009 H 0.11915 0.32578 0.96745 0.0
H1010 H 0.20819 0.69674 0.42279 0.0
H1011 H 0.16905 0.69102 0.42285 0.0
H1012 H 0.16488 0.71982 0.56341 0.0
H1013 H 0.20409 0.72486 0.56432 0.0
H1014 H 0.13945 0.68614 0.55912 0.0
H1015 H 0.15238 0.74824 0.45856 0.0
H1016 H 0.16868 0.76821 0.39117 0.0
H1017 H 0.1404 0.72336 0.29162 0.0
H1018 H 0.12415 0.70296 0.35852 0.0
H1019 H 0.0325 0.72771 0.56299 0.0
H1020 H 0.07147 0.7214 0.56181 0.0
H1021 H 0.06471 0.68313 0.43351 0.0
H1022 H 0.02545 0.68868 0.43524 0.0
H1023 H 0.09524 0.71674 0.42698 0.0
H1024 H 0.07814 0.65781 0.53104 0.0
H1025 H 0.06105 0.64009 0.60044 0.0
H1026 H 0.09641 0.68157 0.69599 0.0
H1027 H 0.11349 0.69978 0.62712 0.0
C1028 C 0.19893 0.70186 0.45371 0.0
C1029 C 0.20918 0.71142 0.49341 0.0
C1030 C 0.17657 0.69859 0.45367 0.0
C1031 C 0.16401 0.7053 0.49283 0.0
C1032 C 0.17426 0.71451 0.53282 0.0
C1033 C 0.19666 0.71746 0.53321 0.0
C1034 C 0.14012 0.70325 0.49188 0.0
C1035 C 0.12978 0.69296 0.53039 0.0
C1036 C 0.12753 0.71169 0.45379 0.0
C1037 C 0.13727 0.72394 0.41355 0.0
C1038 C 0.14978 0.74255 0.42232 0.0
C1039 C 0.15899 0.75395 0.38421 0.0
C1040 C 0.15564 0.74702 0.33715 0.0
C1041 C 0.14302 0.72869 0.3281 0.0
C1042 C 0.1338 0.71721 0.36608 0.0
C1043 C 0.03916 0.71745 0.5352 0.0
C1044 C 0.02584 0.7087 0.49917 0.0
C1045 C 0.06145 0.71394 0.53451 0.0
C1046 C 0.07086 0.70172 0.49771 0.0
C1047 C 0.05766 0.6926 0.46218 0.0
C1048 C 0.0353 0.69591 0.4631 0.0
C1049 C 0.09464 0.70001 0.49458 0.0
C1050 C 0.10496 0.70963 0.45531 0.0
C1051 C 0.10715 0.69125 0.53228 0.0
C1052 C 0.09699 0.68027 0.57385 0.0
C1053 C 0.08215 0.66328 0.56682 0.0
C1054 C 0.07249 0.65312 0.60608 0.0
C1055 C 0.07761 0.65973 0.65259 0.0
C1056 C 0.09245 0.67648 0.65994 0.0
C1057 C 0.10215 0.6867 0.6208 0.0
H1058 H 0.07012 0.65184 0.68294 0.0
H1059 H 0.16277 0.75587 0.3077 0.0
H1060 H 0.80279 0.70882 0.93843 0.0
H1061 H 0.80905 0.66983 0.93942 0.0
H1062 H 0.77654 0.66524 0.0758 0.0
H1063 H 0.77098 0.70443 0.07592 0.0
H1064 H 0.81024 0.63954 0.07526 0.0
H1065 H 0.75078 0.65305 0.96752 0.0
H1066 H 0.73242 0.66992 0.89848 0.0
H1067 H 0.77983 0.64276 0.80346 0.0
H1068 H 0.79863 0.62595 0.87206 0.0
H1069 H 0.7707 0.53184 0.06807 0.0
H1070 H 0.77586 0.57091 0.06938 0.0
H1071 H 0.81791 0.56647 0.94662 0.0
H1072 H 0.81354 0.52708 0.94602 0.0
H1073 H 0.78366 0.59641 0.93725 0.0
H1074 H 0.84011 0.57898 0.04813 0.0
H1075 H 0.85627 0.56145 0.11896 0.0
H1076 H 0.81176 0.5952 0.21042 0.0
H1077 H 0.79511 0.6127 0.14007 0.0
C1078 C 0.79699 0.6995 0.96867 0.0
C1079 C 0.78615 0.7096 0.00685 0.0
C1080 C 0.80057 0.67723 0.96916 0.0
C1081 C 0.79288 0.66458 0.00722 0.0
C1082 C 0.78257 0.6747 0.04601 0.0
C1083 C 0.77932 0.69706 0.04596 0.0
C1084 C 0.79491 0.64071 0.00591 0.0
C1085 C 0.80427 0.6301 0.04526 0.0
C1086 C 0.78757 0.62843 0.96625 0.0
C1087 C 0.77624 0.63845 0.92495 0.0
C1088 C 0.75737 0.65081 0.93193 0.0
C1089 C 0.74687 0.66034 0.89288 0.0
C1090 C 0.75499 0.65747 0.84663 0.0
C1091 C 0.77358 0.64501 0.83931 0.0
C1092 C 0.78416 0.63546 0.87826 0.0
C1093 C 0.78151 0.53902 0.04205 0.0
C1094 C 0.79177 0.52629 0.00699 0.0
C1095 C 0.78436 0.56139 0.04278 0.0
C1096 C 0.79738 0.57147 0.00833 0.0
C1097 C 0.80783 0.55889 0.97354 0.0
C1098 C 0.80519 0.53645 0.97308 0.0
C1099 C 0.79868 0.59529 0.00681 0.0
C1100 C 0.78989 0.6059 0.96694 0.0
C1101 C 0.80622 0.60749 0.04627 0.0
C1102 C 0.81625 0.59703 0.08873 0.0
C1103 C 0.83364 0.58253 0.08329 0.0
C1104 C 0.84292 0.57262 0.12338 0.0
C1105 C 0.83502 0.57717 0.16915 0.0
C1106 C 0.81786 0.59168 0.17494 0.0
C1107 C 0.80851 0.60162 0.13497 0.0
H1108 H 0.84222 0.56948 0.20014 0.0
H1109 H 0.74684 0.66486 0.81644 0.0
H1110 H 0.78958 0.27722 0.59096 0.0
H1111 H 0.82888 0.28201 0.59442 0.0
H1112 H 0.83127 0.28573 0.4403 0.0
H1113 H 0.7921 0.2811 0.4363 0.0
H1114 H 0.86149 0.25728 0.55611 0.0
H1115 H 0.86937 0.32309 0.40965 0.0
H1116 H 0.8475 0.35275 0.37547 0.0
H1117 H 0.8133 0.35936 0.50843 0.0
H1118 H 0.83516 0.32998 0.54362 0.0
H1119 H 0.96692 0.26315 0.46114 0.0
H1120 H 0.92734 0.26335 0.46594 0.0
H1121 H 0.92972 0.31975 0.55684 0.0
H1122 H 0.96946 0.31961 0.55228 0.0
H1123 H 0.89716 0.32108 0.48228 0.0
H1124 H 0.9223 0.27581 0.61046 0.0
H1125 H 0.94385 0.24632 0.64613 0.0
H1126 H 0.91156 0.20009 0.5561 0.0
H1127 H 0.89005 0.22937 0.51932 0.0
C1128 C 0.79845 0.27903 0.55777 0.0
C1129 C 0.78766 0.27881 0.51335 0.0
C1130 C 0.82089 0.28173 0.55986 0.0
C1131 C 0.83286 0.28447 0.51767 0.0
C1132 C 0.82223 0.28395 0.4733 0.0
C1133 C 0.79984 0.28118 0.47113 0.0
C1134 C 0.85655 0.28763 0.51977 0.0
C1135 C 0.86929 0.27126 0.54019 0.0
C1136 C 0.86662 0.30605 0.4995 0.0
C1137 C 0.85381 0.3242 0.47913 0.0
C1138 C 0.85728 0.33097 0.43169 0.0
C1139 C 0.84486 0.34771 0.41212 0.0
C1140 C 0.82897 0.35789 0.43971 0.0
C1141 C 0.82555 0.35142 0.48704 0.0
C1142 C 0.83795 0.3347 0.5068 0.0
C1143 C 0.95898 0.27578 0.48154 0.0
C1144 C 0.97115 0.29139 0.50632 0.0
C1145 C 0.93644 0.2758 0.48445 0.0
C1146 C 0.92574 0.29149 0.51195 0.0
C1147 C 0.93778 0.30754 0.53547 0.0
C1148 C 0.96038 0.30738 0.53302 0.0
C1149 C 0.90201 0.29048 0.51758 0.0
C1150 C 0.88931 0.3072 0.49854 0.0
C1151 C 0.89193 0.2725 0.53952 0.0
C1152 C 0.9047 0.25481 0.56186 0.0
C1153 C 0.91992 0.25938 0.59799 0.0
C1154 C 0.93211 0.2427 0.61846 0.0
C1155 C 0.92911 0.22135 0.60332 0.0
C1156 C 0.91388 0.21664 0.56776 0.0
C1157 C 0.90167 0.23327 0.54713 0.0
H1158 H 0.93856 0.20846 0.61921 0.0
H1159 H 0.81933 0.3708 0.42445 0.0
H1160 H 0.7239 0.20415 0.57963 0.0
H1161 H 0.71973 0.16478 0.5794 0.0
H1162 H 0.69797 0.16699 0.43268 0.0
H1163 H 0.70225 0.20635 0.43229 0.0
H1164 H 0.6725 0.13994 0.49642 0.0
H1165 H 0.74652 0.15279 0.44794 0.0
H1166 H 0.78296 0.16865 0.4565 0.0
H1167 H 0.79111 0.13621 0.59129 0.0
H1168 H 0.75455 0.12041 0.58385 0.0
H1169 H 0.68317 0.02837 0.43856 0.0
H1170 H 0.68409 0.0679 0.43981 0.0
H1171 H 0.71968 0.06632 0.5729 0.0
H1172 H 0.72008 0.02697 0.57031 0.0
H1173 H 0.73761 0.09364 0.51575 0.0
H1174 H 0.66482 0.08035 0.56657 0.0
H1175 H 0.62801 0.06501 0.56227 0.0
H1176 H 0.61677 0.09833 0.42963 0.0
H1177 H 0.65365 0.11365 0.43279 0.0
C1178 C 0.71815 0.19628 0.54736 0.0
C1179 C 0.71355 0.20832 0.50586 0.0
C1180 C 0.71581 0.17383 0.54731 0.0
C1181 C 0.70864 0.16313 0.50596 0.0
C1182 C 0.70352 0.17508 0.46487 0.0
C1183 C 0.70613 0.1975 0.46466 0.0
C1184 C 0.70713 0.13934 0.50518 0.0
C1185 C 0.6867 0.12972 0.50007 0.0
C1186 C 0.72567 0.12623 0.5112 0.0
C1187 C 0.74771 0.1356 0.51556 0.0
C1188 C 0.756 0.14919 0.4796 0.0
C1189 C 0.7767 0.15814 0.48421 0.0
C1190 C 0.78932 0.15349 0.52448 0.0
C1191 C 0.7813 0.13983 0.56016 0.0
C1192 C 0.7606 0.13086 0.55574 0.0
C1193 C 0.69128 0.03645 0.46795 0.0
C1194 C 0.70147 0.02448 0.50441 0.0
C1195 C 0.69156 0.05905 0.46894 0.0
C1196 C 0.70171 0.07006 0.50679 0.0
C1197 C 0.71168 0.05816 0.54343 0.0
C1198 C 0.71166 0.03562 0.54217 0.0
C1199 C 0.70287 0.09399 0.50729 0.0
C1200 C 0.7233 0.10372 0.51222 0.0
C1201 C 0.68427 0.10717 0.50172 0.0
C1202 C 0.66209 0.09796 0.49967 0.0
C1203 C 0.65457 0.08426 0.53627 0.0
C1204 C 0.63368 0.0756 0.53408 0.0
C1205 C 0.62008 0.08064 0.49563 0.0
C1206 C 0.62733 0.09441 0.45935 0.0
C1207 C 0.64822 0.1031 0.46134 0.0
H1208 H 0.60391 0.07393 0.49401 0.0
H1209 H 0.80534 0.16043 0.52799 0.0
H1210 H 0.28711 0.19378 0.92606 0.0
H1211 H 0.32661 0.19067 0.92616 0.0
H1212 H 0.32874 0.21581 0.07019 0.0
H1213 H 0.28931 0.21895 0.07063 0.0
H1214 H 0.35671 0.23672 0.00598 0.0
H1215 H 0.33684 0.16405 0.05266 0.0
H1216 H 0.31779 0.12929 0.04242 0.0
H1217 H 0.35121 0.11849 0.90983 0.0
H1218 H 0.37009 0.15346 0.91868 0.0
H1219 H 0.46484 0.2227 0.06667 0.0
H1220 H 0.42563 0.21926 0.06677 0.0
H1221 H 0.42821 0.18468 0.93264 0.0
H1222 H 0.46776 0.1867 0.9339 0.0
H1223 H 0.3976 0.16808 0.98714 0.0
H1224 H 0.41687 0.23912 0.93629 0.0
H1225 H 0.43534 0.27445 0.94017 0.0
H1226 H 0.40265 0.28904 0.07191 0.0
H1227 H 0.3842 0.25364 0.06918 0.0
C1228 C 0.29597 0.19859 0.95784 0.0
C1229 C 0.28508 0.20672 0.9983 0.0
C1230 C 0.3185 0.19669 0.95787 0.0
C1231 C 0.33049 0.20296 0.99823 0.0
C1232 C 0.3197 0.21089 0.03874 0.0
C1233 C 0.29718 0.21261 0.03894 0.0
C1234 C 0.35438 0.20216 0.99773 0.0
C1235 C 0.36569 0.2217 0.00252 0.0
C1236 C 0.36593 0.18262 0.99123 0.0
C1237 C 0.35471 0.1615 0.9861 0.0
C1238 C 0.33997 0.15438 0.02107 0.0
C1239 C 0.3292 0.13463 0.01552 0.0
C1240 C 0.33321 0.12174 0.97537 0.0
C1241 C 0.34806 0.12854 0.94079 0.0
C1242 C 0.35879 0.14832 0.94605 0.0
C1243 C 0.45722 0.21385 0.03775 0.0
C1244 C 0.46953 0.20509 8e-05 0.0
C1245 C 0.43471 0.21216 0.03754 0.0
C1246 C 0.42397 0.20218 -0.00088 0.0
C1247 C 0.43618 0.19263 0.96244 0.0
C1248 C 0.45877 0.19401 0.96297 0.0
C1249 C 0.40001 0.20264 0.9964 0.0
C1250 C 0.38866 0.18311 0.99066 0.0
C1251 C 0.38834 0.22226 0.00109 0.0
C1252 C 0.3993 0.24364 0.00273 0.0
C1253 C 0.41373 0.2498 0.96626 0.0
C1254 C 0.42418 0.26985 0.96823 0.0
C1255 C 0.42021 0.28396 0.00632 0.0
C1256 C 0.40573 0.27808 0.04246 0.0
C1257 C 0.39525 0.25803 0.04069 0.0
H1258 H 0.42832 0.29948 0.00779 0.0
H1259 H 0.32486 0.10645 0.97113 0.0
H1260 H 0.28767 0.78975 0.4158 0.0
H1261 H 0.29225 0.82914 0.41637 0.0
H1262 H 0.27266 0.83114 0.56447 0.0
H1263 H 0.26808 0.79192 0.56444 0.0
H1264 H 0.25231 0.86225 0.50429 0.0
H1265 H 0.32408 0.83287 0.53758 0.0
H1266 H 0.3557 0.81031 0.51686 0.0
H1267 H 0.36563 0.84754 0.38909 0.0
H1268 H 0.33366 0.86988 0.4081 0.0
H1269 H 0.27674 0.96659 0.57369 0.0
H1270 H 0.27733 0.92736 0.57091 0.0
H1271 H 0.31163 0.92947 0.43648 0.0
H1272 H 0.31296 0.96889 0.44117 0.0
H1273 H 0.32464 0.89601 0.48352 0.0
H1274 H 0.25539 0.92401 0.44199 0.0
H1275 H 0.22231 0.94601 0.45093 0.0
H1276 H 0.20618 0.91165 0.57965 0.0
H1277 H 0.23935 0.88964 0.57186 0.0
C1278 C 0.28416 0.7986 0.44837 0.0
C1279 C 0.27753 0.78773 0.49011 0.0
C1280 C 0.28691 0.82104 0.44867 0.0
C1281 C 0.28295 0.8329 0.49058 0.0
C1282 C 0.27583 0.82219 0.53186 0.0
C1283 C 0.27328 0.79979 0.53176 0.0
C1284 C 0.28621 0.85653 0.49185 0.0
C1285 C 0.26814 0.86967 0.50029 0.0
C1286 C 0.30676 0.86608 0.48461 0.0
C1287 C 0.32631 0.85293 0.47402 0.0
C1288 C 0.33288 0.83614 0.50485 0.0
C1289 C 0.35088 0.8234 0.49345 0.0
C1290 C 0.36266 0.82752 0.45176 0.0
C1291 C 0.35648 0.84437 0.42136 0.0
C1292 C 0.3384 0.85705 0.43238 0.0
C1293 C 0.28511 0.95885 0.54427 0.0
C1294 C 0.29458 0.97107 0.5073 0.0
C1295 C 0.28509 0.93632 0.54234 0.0
C1296 C 0.29386 0.92549 0.50267 0.0
C1297 C 0.30448 0.93749 0.46714 0.0
C1298 C 0.30499 0.96007 0.46961 0.0
C1299 C 0.29075 0.90184 0.49706 0.0
C1300 C 0.30879 0.88867 0.48755 0.0
C1301 C 0.27002 0.89223 0.50189 0.0
C1302 C 0.24996 0.90531 0.50656 0.0
C1303 C 0.24486 0.92124 0.47237 0.0
C1304 C 0.22609 0.9337 0.47721 0.0
C1305 C 0.21218 0.93026 0.51589 0.0
C1306 C 0.21699 0.91431 0.54974 0.0
C1307 C 0.23576 0.90182 0.54511 0.0
H1308 H 0.19765 0.93992 0.51958 0.0
H1309 H 0.37659 0.81766 0.44302 0.0
H1310 H 0.70742 0.79563 0.07587 0.0
H1311 H 0.66823 0.80078 0.07376 0.0
H1312 H 0.66471 0.76431 0.94208 0.0
H1313 H 0.704 0.75982 0.94303 0.0
H1314 H 0.64136 0.79894 0.93416 0.0
H1315 H 0.64836 0.74331 0.05351 0.0
H1316 H 0.66217 0.72657 0.12767 0.0
H1317 H 0.63556 0.77875 0.21046 0.0
H1318 H 0.62182 0.79594 0.13669 0.0
H1319 H 0.52948 0.77239 0.93342 0.0
H1320 H 0.56895 0.77251 0.93609 0.0
H1321 H 0.56752 0.81774 0.0537 0.0
H1322 H 0.52789 0.81823 0.05048 0.0
H1323 H 0.59319 0.78132 0.07073 0.0
H1324 H 0.58395 0.83522 0.94895 0.0
H1325 H 0.56948 0.85031 0.87371 0.0
H1326 H 0.59971 0.79912 0.79408 0.0
H1327 H 0.61412 0.78353 0.86894 0.0
C1328 C 0.69826 0.78851 0.04675 0.0
C1329 C 0.70876 0.77727 0.00965 0.0
C1330 C 0.67585 0.79143 0.04563 0.0
C1331 C 0.6635 0.78274 0.00801 0.0
C1332 C 0.67393 0.77122 0.97138 0.0
C1333 C 0.69636 0.76859 0.97206 0.0
C1334 C 0.63977 0.78617 0.00593 0.0
C1335 C 0.63081 0.79483 0.96384 0.0
C1336 C 0.62606 0.78137 0.04512 0.0
C1337 C 0.63426 0.77102 0.08953 0.0
C1338 C 0.64559 0.75129 0.0875 0.0
C1339 C 0.65338 0.74171 0.12947 0.0
C1340 C 0.6498 0.75162 0.17374 0.0
C1341 C 0.63836 0.77111 0.17614 0.0
C1342 C 0.63055 0.78077 0.13427 0.0
C1343 C 0.53751 0.78282 0.95907 0.0
C1344 C 0.52553 0.79535 0.99169 0.0
C1345 C 0.56008 0.78276 0.9607 0.0
C1346 C 0.57107 0.79519 0.99497 0.0
C1347 C 0.55925 0.80802 0.02706 0.0
C1348 C 0.53665 0.80821 0.02525 0.0
C1349 C 0.59488 0.79378 0.99883 0.0
C1350 C 0.60381 0.78553 0.04124 0.0
C1351 C 0.60852 0.7987 0.95977 0.0
C1352 C 0.59997 0.80811 0.91463 0.0
C1353 C 0.58738 0.82708 0.91544 0.0
C1354 C 0.57921 0.83575 0.87285 0.0
C1355 C 0.58363 0.82566 0.82915 0.0
C1356 C 0.59628 0.80691 0.82796 0.0
C1357 C 0.60448 0.79817 0.87046 0.0
H1358 H 0.57729 0.83239 0.79622 0.0
H1359 H 0.65584 0.74418 0.20619 0.0
loop_
_geom_bond_atom_site_label_1
_geom_bond_atom_site_label_2
_geom_bond_distance
_geom_bond_site_symmetry_2
_ccdc_geom_bond_type
Sc0 O3 2.031 . S
Sc0 O10 2.105 . S
Sc0 O13 2.105 . S
Sc0 O16 2.105 . S
Sc0 O19 2.105 . S
Sc1 O3 2.025 . S
Sc1 O11 2.110 . S
Sc1 O15 2.100 1_554 S
Sc1 O17 2.110 . S
Sc1 O21 2.100 1_554 S
Sc2 O3 2.019 1_556 S
Sc2 O12 2.105 . S
Sc2 O14 2.105 . S
Sc2 O18 2.105 . S
Sc2 O20 2.105 . S
O3 Sc0 2.031 . S
O3 Sc1 2.025 . S
O3 Sc2 2.019 1_554 S
C4 O10 1.273 . S
C4 O20 1.263 1_554 S
C5 O11 1.268 . S
C5 O19 1.268 . S
C6 O12 1.268 . S
C6 O21 1.268 . S
C7 O13 1.268 . S
C7 O17 1.268 . S
C8 O14 1.261 1_554 S
C8 O16 1.275 . S
C9 O15 1.268 . S
C9 O18 1.268 . S
O10 Sc0 2.105 . S
O10 C4 1.273 . S
O11 Sc1 2.110 . S
O11 C5 1.268 . S
O12 Sc2 2.105 . S
O12 C6 1.268 . S
O13 Sc0 2.105 . S
O13 C7 1.268 . S
O14 Sc2 2.105 . S
O14 C8 1.261 1_556 S
O15 Sc1 2.100 1_556 S
O15 C9 1.268 . S
O16 Sc0 2.105 . S
O16 C8 1.275 . S
O17 Sc1 2.110 . S
O17 C7 1.268 . S
O18 Sc2 2.105 . S
O18 C9 1.268 . S
O19 Sc0 2.105 . S
O19 C5 1.268 . S
O20 Sc2 2.105 . S
O20 C4 1.263 1_556 S
O21 Sc1 2.100 1_556 S
O21 C6 1.268 . S
Sc22 O25 2.025 . S
Sc22 O32 2.105 . S
Sc22 O35 2.105 . S
Sc22 O38 2.105 . S
Sc22 O41 2.105 . S
Sc23 O25 2.025 . S
Sc23 O33 2.105 . S
Sc23 O37 2.105 . S
Sc23 O39 2.105 . S
Sc23 O43 2.105 . S
Sc24 O25 2.025 . S
Sc24 O34 2.105 . S
Sc24 O36 2.105 . S
Sc24 O40 2.105 . S
Sc24 O42 2.105 . S
O25 Sc22 2.025 . S
O25 Sc23 2.025 . S
O25 Sc24 2.025 . S
C26 O32 1.268 . S
C26 O42 1.268 . S
C27 O33 1.268 . S
C27 O41 1.268 . S
C28 O34 1.268 . S
C28 O43 1.268 . S
C29 O35 1.268 . S
C29 O39 1.268 . S
C30 O36 1.268 . S
C30 O38 1.268 . S
C31 O37 1.268 . S
C31 O40 1.268 . S
O32 Sc22 2.105 . S
O32 C26 1.268 . S
O33 Sc23 2.105 . S
O33 C27 1.268 . S
O34 Sc24 2.105 . S
O34 C28 1.268 . S
O35 Sc22 2.105 . S
O35 C29 1.268 . S
O36 Sc24 2.105 . S
O36 C30 1.268 . S
O37 Sc23 2.105 . S
O37 C31 1.268 . S
O38 Sc22 2.105 . S
O38 C30 1.268 . S
O39 Sc23 2.105 . S
O39 C29 1.268 . S
O40 Sc24 2.105 . S
O40 C31 1.268 . S
O41 Sc22 2.105 . S
O41 C27 1.268 . S
O42 Sc24 2.105 . S
O42 C26 1.268 . S
O43 Sc23 2.105 . S
O43 C28 1.268 . S
Sc44 O47 2.019 1_556 S
Sc44 O54 2.105 . S
Sc44 O57 2.105 . S
Sc44 O60 2.105 . S
Sc44 O63 2.105 . S
Sc45 O47 2.025 . S
Sc45 O55 2.100 1_554 S
Sc45 O59 2.110 . S
Sc45 O61 2.100 1_554 S
Sc45 O65 2.110 . S
Sc46 O47 2.031 . S
Sc46 O56 2.105 . S
Sc46 O58 2.105 . S
Sc46 O62 2.105 . S
Sc46 O64 2.105 . S
O47 Sc44 2.019 1_554 S
O47 Sc45 2.025 . S
O47 Sc46 2.031 . S
C48 O54 1.263 1_554 S
C48 O64 1.273 . S
C49 O55 1.268 . S
C49 O63 1.268 . S
C50 O56 1.268 . S
C50 O65 1.268 . S
C51 O57 1.268 . S
C51 O61 1.268 . S
C52 O58 1.275 . S
C52 O60 1.261 1_554 S
C53 O59 1.268 . S
C53 O62 1.268 . S
O54 Sc44 2.105 . S
O54 C48 1.263 1_556 S
O55 Sc45 2.100 1_556 S
O55 C49 1.268 . S
O56 Sc46 2.105 . S
O56 C50 1.268 . S
O57 Sc44 2.105 . S
O57 C51 1.268 . S
O58 Sc46 2.105 . S
O58 C52 1.275 . S
O59 Sc45 2.110 . S
O59 C53 1.268 . S
O60 Sc44 2.105 . S
O60 C52 1.261 1_556 S
O61 Sc45 2.100 1_556 S
O61 C51 1.268 . S
O62 Sc46 2.105 . S
O62 C53 1.268 . S
O63 Sc44 2.105 . S
O63 C49 1.268 . S
O64 Sc46 2.105 . S
O64 C48 1.273 . S
O65 Sc45 2.110 . S
O65 C50 1.268 . S
Sc66 O69 2.025 . S
Sc66 O76 2.105 . S
Sc66 O79 2.105 . S
Sc66 O82 2.105 . S
Sc66 O85 2.105 . S
Sc67 O69 2.025 . S
Sc67 O77 2.105 . S
Sc67 O81 2.105 . S
Sc67 O83 2.105 . S
Sc67 O87 2.105 . S
Sc68 O69 2.025 . S
Sc68 O78 2.105 . S
Sc68 O80 2.105 . S
Sc68 O84 2.105 . S
Sc68 O86 2.105 . S
O69 Sc66 2.025 . S
O69 Sc67 2.025 . S
O69 Sc68 2.025 . S
C70 O76 1.268 . S
C70 O86 1.268 . S
C71 O77 1.268 . S
C71 O85 1.268 . S
C72 O78 1.268 . S
C72 O87 1.268 . S
C73 O79 1.268 . S
C73 O83 1.268 . S
C74 O80 1.268 . S
C74 O82 1.268 . S
C75 O81 1.268 . S
C75 O84 1.268 . S
O76 Sc66 2.105 . S
O76 C70 1.268 . S
O77 Sc67 2.105 . S
O77 C71 1.268 . S
O78 Sc68 2.105 . S
O78 C72 1.268 . S
O79 Sc66 2.105 . S
O79 C73 1.268 . S
O80 Sc68 2.105 . S
O80 C74 1.268 . S
O81 Sc67 2.105 . S
O81 C75 1.268 . S
O82 Sc66 2.105 . S
O82 C74 1.268 . S
O83 Sc67 2.105 . S
O83 C73 1.268 . S
O84 Sc68 2.105 . S
O84 C75 1.268 . S
O85 Sc66 2.105 . S
O85 C71 1.268 . S
O86 Sc68 2.105 . S
O86 C70 1.268 . S
O87 Sc67 2.105 . S
O87 C72 1.268 . S
H88 C91 0.931 . S
H89 C94 0.928 . S
H90 C96 0.930 . S
C91 H88 0.931 . S
C91 C92 1.403 1_556 S
C91 C93 1.370 . S
C92 C91 1.403 1_554 S
C92 C96 1.429 . S
C93 C91 1.370 . S
C93 C94 1.372 . S
C94 H89 0.928 . S
C94 C93 1.372 . S
C94 C95 1.402 . S
C95 C94 1.402 . S
C95 C96 1.392 1_556 S
C96 H90 0.930 . S
C96 C92 1.429 . S
C96 C95 1.392 1_554 S
H97 C100 0.931 . S
H98 C103 0.928 . S
H99 C105 0.932 . S
C100 H97 0.931 . S
C100 C101 1.413 . S
C100 C102 1.360 . S
C101 C100 1.413 . S
C101 C105 1.429 . S
C102 C100 1.360 . S
C102 C103 1.372 . S
C103 H98 0.928 . S
C103 C102 1.372 . S
C103 C104 1.404 1_655 S
C104 C103 1.404 1_455 S
C104 C105 1.391 1_455 S
C105 H99 0.932 . S
C105 C101 1.429 . S
C105 C104 1.391 1_655 S
H106 C109 0.931 . S
H107 C112 0.928 . S
H108 C114 0.930 . S
C109 H106 0.931 . S
C109 C110 1.413 1_554 S
C109 C111 1.360 . S
C110 C109 1.413 1_556 S
C110 C114 1.429 . S
C111 C109 1.360 . S
C111 C112 1.372 . S
C112 H107 0.928 . S
C112 C111 1.372 . S
C112 C113 1.418 . S
C113 C112 1.418 . S
C113 C114 1.376 1_554 S
C114 H108 0.930 . S
C114 C110 1.429 . S
C114 C113 1.376 1_556 S
H115 C118 0.931 . S
H116 C121 0.928 . S
H117 C123 0.938 . S
C118 H115 0.931 . S
C118 C119 1.413 . S
C118 C120 1.360 . S
C119 C118 1.413 . S
C119 C123 1.429 . S
C120 C118 1.360 . S
C120 C121 1.372 . S
C121 H116 0.928 . S
C121 C120 1.372 . S
C121 C122 1.404 1_455 S
C122 C121 1.404 1_655 S
C122 C123 1.391 1_655 S
C123 H117 0.938 . S
C123 C119 1.429 . S
C123 C122 1.391 1_455 S
H124 C127 0.931 . S
H125 C130 0.928 . S
H126 C132 0.932 . S
C127 H124 0.931 . S
C127 C128 1.413 . S
C127 C129 1.360 . S
C128 C127 1.413 . S
C128 C132 1.429 . S
C129 C127 1.360 . S
C129 C130 1.372 . S
C130 H125 0.928 . S
C130 C129 1.372 . S
C130 C131 1.404 1_565 S
C131 C130 1.404 1_545 S
C131 C132 1.391 1_545 S
C132 H126 0.932 . S
C132 C128 1.429 . S
C132 C131 1.391 1_565 S
H133 C136 0.931 . S
H134 C139 0.928 . S
H135 C141 0.930 . S
C136 H133 0.931 . S
C136 C137 1.413 1_554 S
C136 C138 1.360 . S
C137 C136 1.413 1_556 S
C137 C141 1.429 . S
C138 C136 1.360 . S
C138 C139 1.372 . S
C139 H134 0.928 . S
C139 C138 1.372 . S
C139 C140 1.418 . S
C140 C139 1.418 . S
C140 C141 1.376 1_554 S
C141 H135 0.930 . S
C141 C137 1.429 . S
C141 C140 1.376 1_556 S
H142 C145 0.931 . S
H143 C148 0.928 . S
H144 C150 0.938 . S
C145 H142 0.931 . S
C145 C146 1.413 . S
C145 C147 1.360 . S
C146 C145 1.413 . S
C146 C150 1.429 . S
C147 C145 1.360 . S
C147 C148 1.372 . S
C148 H143 0.928 . S
C148 C147 1.372 . S
C148 C149 1.404 1_545 S
C149 C148 1.404 1_565 S
C149 C150 1.391 1_565 S
C150 H144 0.938 . S
C150 C146 1.429 . S
C150 C149 1.391 1_545 S
H151 C154 0.931 . S
H152 C157 0.928 . S
H153 C159 0.930 . S
C154 H151 0.931 . S
C154 C155 1.403 1_556 S
C154 C156 1.370 . S
C155 C154 1.403 1_554 S
C155 C159 1.429 . S
C156 C154 1.370 . S
C156 C157 1.372 . S
C157 H152 0.928 . S
C157 C156 1.372 . S
C157 C158 1.402 . S
C158 C157 1.402 . S
C158 C159 1.392 1_556 S
C159 H153 0.930 . S
C159 C155 1.429 . S
C159 C158 1.392 1_554 S
H160 C178 0.951 . S
H161 C180 0.951 . S
H162 C182 0.950 . S
H163 C183 0.950 . S
H164 C185 0.950 . S
H165 C188 0.950 . S
H166 C189 0.950 . S
H167 C191 0.950 . S
H168 C192 0.950 . S
H169 C193 0.951 . S
H170 C195 0.951 . S
H171 C197 0.950 . S
H172 C198 0.950 . S
H173 C200 0.950 . S
H174 C203 0.950 . S
H175 C204 0.950 . S
H176 C206 0.950 . S
H177 C207 0.950 . S
C178 H160 0.951 . S
C178 C179 1.366 . S
C178 C180 1.388 . S
C179 C178 1.366 . S
C179 C183 1.385 . S
C180 H161 0.951 . S
C180 C178 1.388 . S
C180 C181 1.366 . S
C181 C180 1.366 . S
C181 C182 1.414 . S
C181 C184 1.499 . S
C182 H162 0.950 . S
C182 C181 1.414 . S
C182 C183 1.374 . S
C183 H163 0.950 . S
C183 C179 1.385 . S
C183 C182 1.374 . S
C184 C181 1.499 . S
C184 C185 1.373 . S
C184 C186 1.389 . S
C185 H164 0.950 . S
C185 C184 1.373 . S
C185 C201 1.377 . S
C186 C184 1.389 . S
C186 C187 1.524 . S
C186 C200 1.377 . S
C187 C186 1.524 . S
C187 C188 1.397 . S
C187 C192 1.363 . S
C188 H165 0.950 . S
C188 C187 1.397 . S
C188 C189 1.334 . S
C189 H166 0.950 . S
C189 C188 1.334 . S
C189 C190 1.287 . S
C190 C189 1.287 . S
C190 C191 1.524 . S
C190 H209 0.913 . S
C191 H167 0.950 . S
C191 C190 1.524 . S
C191 C192 1.415 . S
C192 H168 0.950 . S
C192 C187 1.363 . S
C192 C191 1.415 . S
C193 H169 0.951 . S
C193 C194 1.366 . S
C193 C195 1.388 . S
C194 C193 1.366 . S
C194 C198 1.385 . S
C195 H170 0.951 . S
C195 C193 1.388 . S
C195 C196 1.366 . S
C196 C195 1.366 . S
C196 C197 1.414 . S
C196 C199 1.499 . S
C197 H171 0.950 . S
C197 C196 1.414 . S
C197 C198 1.374 . S
C198 H172 0.950 . S
C198 C194 1.385 . S
C198 C197 1.374 . S
C199 C196 1.499 . S
C199 C200 1.373 . S
C199 C201 1.389 . S
C200 H173 0.950 . S
C200 C186 1.377 . S
C200 C199 1.373 . S
C201 C185 1.377 . S
C201 C199 1.389 . S
C201 C202 1.524 . S
C202 C201 1.524 . S
C202 C203 1.397 . S
C202 C207 1.363 . S
C203 H174 0.950 . S
C203 C202 1.397 . S
C203 C204 1.334 . S
C204 H175 0.950 . S
C204 C203 1.334 . S
C204 C205 1.287 . S
C205 C204 1.287 . S
C205 C206 1.524 . S
C205 H208 0.999 . S
C206 H176 0.950 . S
C206 C205 1.524 . S
C206 C207 1.415 . S
C207 H177 0.950 . S
C207 C202 1.363 . S
C207 C206 1.415 . S
H208 C205 0.999 . S
H209 C190 0.913 . S
H210 C228 0.951 . S
H211 C230 0.951 . S
H212 C232 0.950 . S
H213 C233 0.950 . S
H214 C235 0.950 . S
H215 C238 0.950 . S
H216 C239 0.950 . S
H217 C241 0.950 . S
H218 C242 0.950 . S
H219 C243 0.951 . S
H220 C245 0.951 . S
H221 C247 0.950 . S
H222 C248 0.950 . S
H223 C250 0.950 . S
H224 C253 0.950 . S
H225 C254 0.950 . S
H226 C256 0.950 . S
H227 C257 0.950 . S
C228 H210 0.951 . S
C228 C229 1.366 . S
C228 C230 1.388 . S
C229 C228 1.366 . S
C229 C233 1.385 . S
C230 H211 0.951 . S
C230 C228 1.388 . S
C230 C231 1.366 . S
C231 C230 1.366 . S
C231 C232 1.414 . S
C231 C234 1.499 . S
C232 H212 0.950 . S
C232 C231 1.414 . S
C232 C233 1.374 . S
C233 H213 0.950 . S
C233 C229 1.385 . S
C233 C232 1.374 . S
C234 C231 1.499 . S
C234 C235 1.373 . S
C234 C236 1.389 . S
C235 H214 0.950 . S
C235 C234 1.373 . S
C235 C251 1.377 . S
C236 C234 1.389 . S
C236 C237 1.524 . S
C236 C250 1.377 . S
C237 C236 1.524 . S
C237 C238 1.397 . S
C237 C242 1.363 . S
C238 H215 0.950 . S
C238 C237 1.397 . S
C238 C239 1.334 . S
C239 H216 0.950 . S
C239 C238 1.334 . S
C239 C240 1.287 . S
C240 C239 1.287 . S
C240 C241 1.524 . S
C240 H259 0.913 . S
C241 H217 0.950 . S
C241 C240 1.524 . S
C241 C242 1.415 . S
C242 H218 0.950 . S
C242 C237 1.363 . S
C242 C241 1.415 . S
C243 H219 0.951 . S
C243 C244 1.366 . S
C243 C245 1.388 . S
C244 C243 1.366 . S
C244 C248 1.385 . S
C245 H220 0.951 . S
C245 C243 1.388 . S
C245 C246 1.366 . S
C246 C245 1.366 . S
C246 C247 1.414 . S
C246 C249 1.499 . S
C247 H221 0.950 . S
C247 C246 1.414 . S
C247 C248 1.374 . S
C248 H222 0.950 . S
C248 C244 1.385 . S
C248 C247 1.374 . S
C249 C246 1.499 . S
C249 C250 1.373 . S
C249 C251 1.389 . S
C250 H223 0.950 . S
C250 C236 1.377 . S
C250 C249 1.373 . S
C251 C235 1.377 . S
C251 C249 1.389 . S
C251 C252 1.524 . S
C252 C251 1.524 . S
C252 C253 1.397 . S
C252 C257 1.363 . S
C253 H224 0.950 . S
C253 C252 1.397 . S
C253 C254 1.334 . S
C254 H225 0.950 . S
C254 C253 1.334 . S
C254 C255 1.287 . S
C255 C254 1.287 . S
C255 C256 1.524 . S
C255 H258 0.999 . S
C256 H226 0.950 . S
C256 C255 1.524 . S
C256 C257 1.415 . S
C257 H227 0.950 . S
C257 C252 1.363 . S
C257 C256 1.415 . S
H258 C255 0.999 . S
H259 C240 0.913 . S
H260 C278 0.951 . S
H261 C280 0.951 . S
H262 C282 0.950 . S
H263 C283 0.950 . S
H264 C285 0.950 . S
H265 C288 0.950 . S
H266 C289 0.950 . S
H267 C291 0.950 . S
H268 C292 0.950 . S
H269 C293 0.951 . S
H270 C295 0.951 . S
H271 C297 0.950 . S
H272 C298 0.950 . S
H273 C300 0.950 . S
H274 C303 0.950 . S
H275 C304 0.950 . S
H276 C306 0.950 . S
H277 C307 0.950 . S
C278 H260 0.951 . S
C278 C279 1.366 . S
C278 C280 1.388 . S
C279 C278 1.366 . S
C279 C283 1.385 . S
C280 H261 0.951 . S
C280 C278 1.388 . S
C280 C281 1.366 . S
C281 C280 1.366 . S
C281 C282 1.414 . S
C281 C284 1.499 . S
C282 H262 0.950 . S
C282 C281 1.414 . S
C282 C283 1.374 . S
C283 H263 0.950 . S
C283 C279 1.385 . S
C283 C282 1.374 . S
C284 C281 1.499 . S
C284 C285 1.373 . S
C284 C286 1.389 . S
C285 H264 0.950 . S
C285 C284 1.373 . S
C285 C301 1.377 . S
C286 C284 1.389 . S
C286 C287 1.524 . S
C286 C300 1.377 . S
C287 C286 1.524 . S
C287 C288 1.397 . S
C287 C292 1.363 . S
C288 H265 0.950 . S
C288 C287 1.397 . S
C288 C289 1.334 . S
C289 H266 0.950 . S
C289 C288 1.334 . S
C289 C290 1.287 . S
C290 C289 1.287 . S
C290 C291 1.524 . S
C290 H309 0.913 . S
C291 H267 0.950 . S
C291 C290 1.524 . S
C291 C292 1.415 . S
C292 H268 0.950 . S
C292 C287 1.363 . S
C292 C291 1.415 . S
C293 H269 0.951 . S
C293 C294 1.366 . S
C293 C295 1.388 . S
C294 C293 1.366 . S
C294 C298 1.385 . S
C295 H270 0.951 . S
C295 C293 1.388 . S
C295 C296 1.366 . S
C296 C295 1.366 . S
C296 C297 1.414 . S
C296 C299 1.499 . S
C297 H271 0.950 . S
C297 C296 1.414 . S
C297 C298 1.374 . S
C298 H272 0.950 . S
C298 C294 1.385 . S
C298 C297 1.374 . S
C299 C296 1.499 . S
C299 C300 1.373 . S
C299 C301 1.389 . S
C300 H273 0.950 . S
C300 C286 1.377 . S
C300 C299 1.373 . S
C301 C285 1.377 . S
C301 C299 1.389 . S
C301 C302 1.524 . S
C302 C301 1.524 . S
C302 C303 1.397 . S
C302 C307 1.363 . S
C303 H274 0.950 . S
C303 C302 1.397 . S
C303 C304 1.334 . S
C304 H275 0.950 . S
C304 C303 1.334 . S
C304 C305 1.287 . S
C305 C304 1.287 . S
C305 C306 1.524 . S
C305 H308 0.999 . S
C306 H276 0.950 . S
C306 C305 1.524 . S
C306 C307 1.415 . S
C307 H277 0.950 . S
C307 C302 1.363 . S
C307 C306 1.415 . S
H308 C305 0.999 . S
H309 C290 0.913 . S
H310 C328 0.951 . S
H311 C330 0.951 . S
H312 C332 0.950 . S
H313 C333 0.950 . S
H314 C335 0.950 . S
H315 C338 0.950 . S
H316 C339 0.950 . S
H317 C341 0.950 . S
H318 C342 0.950 . S
H319 C343 0.951 . S
H320 C345 0.951 . S
H321 C347 0.950 . S
H322 C348 0.950 . S
H323 C350 0.950 . S
H324 C353 0.950 . S
H325 C354 0.950 . S
H326 C356 0.950 . S
H327 C357 0.950 . S
C328 H310 0.951 . S
C328 C329 1.366 . S
C328 C330 1.388 . S
C329 C328 1.366 . S
C329 C333 1.385 . S
C330 H311 0.951 . S
C330 C328 1.388 . S
C330 C331 1.366 . S
C331 C330 1.366 . S
C331 C332 1.414 . S
C331 C334 1.499 . S
C332 H312 0.950 . S
C332 C331 1.414 . S
C332 C333 1.374 . S
C333 H313 0.950 . S
C333 C329 1.385 . S
C333 C332 1.374 . S
C334 C331 1.499 . S
C334 C335 1.373 . S
C334 C336 1.389 . S
C335 H314 0.950 . S
C335 C334 1.373 . S
C335 C351 1.377 . S
C336 C334 1.389 . S
C336 C337 1.524 . S
C336 C350 1.377 . S
C337 C336 1.524 . S
C337 C338 1.397 . S
C337 C342 1.363 . S
C338 H315 0.950 . S
C338 C337 1.397 . S
C338 C339 1.334 . S
C339 H316 0.950 . S
C339 C338 1.334 . S
C339 C340 1.287 . S
C340 C339 1.287 . S
C340 C341 1.524 . S
C340 H359 0.913 . S
C341 H317 0.950 . S
C341 C340 1.524 . S
C341 C342 1.415 . S
C342 H318 0.950 . S
C342 C337 1.363 . S
C342 C341 1.415 . S
C343 H319 0.951 . S
C343 C344 1.366 . S
C343 C345 1.388 . S
C344 C343 1.366 . S
C344 C348 1.385 . S
C345 H320 0.951 . S
C345 C343 1.388 . S
C345 C346 1.366 . S
C346 C345 1.366 . S
C346 C347 1.414 . S
C346 C349 1.499 . S
C347 H321 0.950 . S
C347 C346 1.414 . S
C347 C348 1.374 . S
C348 H322 0.950 . S
C348 C344 1.385 . S
C348 C347 1.374 . S
C349 C346 1.499 . S
C349 C350 1.373 . S
C349 C351 1.389 . S
C350 H323 0.950 . S
C350 C336 1.377 . S
C350 C349 1.373 . S
C351 C335 1.377 . S
C351 C349 1.389 . S
C351 C352 1.524 . S
C352 C351 1.524 . S
C352 C353 1.397 . S
C352 C357 1.363 . S
C353 H324 0.950 . S
C353 C352 1.397 . S
C353 C354 1.334 . S
C354 H325 0.950 . S
C354 C353 1.334 . S
C354 C355 1.287 . S
C355 C354 1.287 . S
C355 C356 1.524 . S
C355 H358 0.999 . S
C356 H326 0.950 . S
C356 C355 1.524 . S
C356 C357 1.415 . S
C357 H327 0.950 . S
C357 C352 1.363 . S
C357 C356 1.415 . S
H358 C355 0.999 . S
H359 C340 0.913 . S
H360 C378 0.951 . S
H361 C380 0.951 . S
H362 C382 0.950 . S
H363 C383 0.950 . S
H364 C385 0.950 . S
H365 C388 0.950 . S
H366 C389 0.950 . S
H367 C391 0.950 . S
H368 C392 0.950 . S
H369 C393 0.951 . S
H370 C395 0.951 . S
H371 C397 0.950 . S
H372 C398 0.950 . S
H373 C400 0.950 . S
H374 C403 0.950 . S
H375 C404 0.950 . S
H376 C406 0.950 . S
H377 C407 0.950 . S
C378 H360 0.951 . S
C378 C379 1.366 . S
C378 C380 1.388 . S
C379 C378 1.366 . S
C379 C383 1.385 . S
C380 H361 0.951 . S
C380 C378 1.388 . S
C380 C381 1.366 . S
C381 C380 1.366 . S
C381 C382 1.414 . S
C381 C384 1.499 . S
C382 H362 0.950 . S
C382 C381 1.414 . S
C382 C383 1.374 . S
C383 H363 0.950 . S
C383 C379 1.385 . S
C383 C382 1.374 . S
C384 C381 1.499 . S
C384 C385 1.373 . S
C384 C386 1.389 . S
C385 H364 0.950 . S
C385 C384 1.373 . S
C385 C401 1.377 . S
C386 C384 1.389 . S
C386 C387 1.524 . S
C386 C400 1.377 . S
C387 C386 1.524 . S
C387 C388 1.397 . S
C387 C392 1.363 . S
C388 H365 0.950 . S
C388 C387 1.397 . S
C388 C389 1.334 . S
C389 H366 0.950 . S
C389 C388 1.334 . S
C389 C390 1.287 . S
C390 C389 1.287 . S
C390 C391 1.524 . S
C390 H409 0.913 . S
C391 H367 0.950 . S
C391 C390 1.524 . S
C391 C392 1.415 . S
C392 H368 0.950 . S
C392 C387 1.363 . S
C392 C391 1.415 . S
C393 H369 0.951 . S
C393 C394 1.366 . S
C393 C395 1.388 . S
C394 C393 1.366 . S
C394 C398 1.385 . S
C395 H370 0.951 . S
C395 C393 1.388 . S
C395 C396 1.366 . S
C396 C395 1.366 . S
C396 C397 1.414 . S
C396 C399 1.499 . S
C397 H371 0.950 . S
C397 C396 1.414 . S
C397 C398 1.374 . S
C398 H372 0.950 . S
C398 C394 1.385 . S
C398 C397 1.374 . S
C399 C396 1.499 . S
C399 C400 1.373 . S
C399 C401 1.389 . S
C400 H373 0.950 . S
C400 C386 1.377 . S
C400 C399 1.373 . S
C401 C385 1.377 . S
C401 C399 1.389 . S
C401 C402 1.524 . S
C402 C401 1.524 . S
C402 C403 1.397 . S
C402 C407 1.363 . S
C403 H374 0.950 . S
C403 C402 1.397 . S
C403 C404 1.334 . S
C404 H375 0.950 . S
C404 C403 1.334 . S
C404 C405 1.287 . S
C405 C404 1.287 . S
C405 C406 1.524 . S
C405 H408 0.999 . S
C406 H376 0.950 . S
C406 C405 1.524 . S
C406 C407 1.415 . S
C407 H377 0.950 . S
C407 C402 1.363 . S
C407 C406 1.415 . S
H408 C405 0.999 . S
H409 C390 0.913 . S
H410 C428 0.951 . S
H411 C430 0.951 . S
H412 C432 0.950 . S
H413 C433 0.950 . S
H414 C435 0.950 . S
H415 C438 0.950 . S
H416 C439 0.950 . S
H417 C441 0.950 . S
H418 C442 0.950 . S
H419 C443 0.951 . S
H420 C445 0.951 . S
H421 C447 0.950 . S
H422 C448 0.950 . S
H423 C450 0.950 . S
H424 C453 0.950 . S
H425 C454 0.950 . S
H426 C456 0.950 . S
H427 C457 0.950 . S
C428 H410 0.951 . S
C428 C429 1.366 . S
C428 C430 1.388 . S
C429 C428 1.366 . S
C429 C433 1.385 . S
C430 H411 0.951 . S
C430 C428 1.388 . S
C430 C431 1.366 . S
C431 C430 1.366 . S
C431 C432 1.414 . S
C431 C434 1.499 . S
C432 H412 0.950 . S
C432 C431 1.414 . S
C432 C433 1.374 . S
C433 H413 0.950 . S
C433 C429 1.385 . S
C433 C432 1.374 . S
C434 C431 1.499 . S
C434 C435 1.373 . S
C434 C436 1.389 . S
C435 H414 0.950 . S
C435 C434 1.373 . S
C435 C451 1.377 . S
C436 C434 1.389 . S
C436 C437 1.524 . S
C436 C450 1.377 . S
C437 C436 1.524 . S
C437 C438 1.397 . S
C437 C442 1.363 . S
C438 H415 0.950 . S
C438 C437 1.397 . S
C438 C439 1.334 . S
C439 H416 0.950 . S
C439 C438 1.334 . S
C439 C440 1.287 . S
C440 C439 1.287 . S
C440 C441 1.524 . S
C440 H459 0.913 . S
C441 H417 0.950 . S
C441 C440 1.524 . S
C441 C442 1.415 . S
C442 H418 0.950 . S
C442 C437 1.363 . S
C442 C441 1.415 . S
C443 H419 0.951 . S
C443 C444 1.366 . S
C443 C445 1.388 . S
C444 C443 1.366 . S
C444 C448 1.385 . S
C445 H420 0.951 . S
C445 C443 1.388 . S
C445 C446 1.366 . S
C446 C445 1.366 . S
C446 C447 1.414 . S
C446 C449 1.499 . S
C447 H421 0.950 . S
C447 C446 1.414 . S
C447 C448 1.374 . S
C448 H422 0.950 . S
C448 C444 1.385 . S
C448 C447 1.374 . S
C449 C446 1.499 . S
C449 C450 1.373 . S
C449 C451 1.389 . S
C450 H423 0.950 . S
C450 C436 1.377 . S
C450 C449 1.373 . S
C451 C435 1.377 . S
C451 C449 1.389 . S
C451 C452 1.524 . S
C452 C451 1.524 . S
C452 C453 1.397 . S
C452 C457 1.363 . S
C453 H424 0.950 . S
C453 C452 1.397 . S
C453 C454 1.334 . S
C454 H425 0.950 . S
C454 C453 1.334 . S
C454 C455 1.287 . S
C455 C454 1.287 . S
C455 C456 1.524 . S
C455 H458 0.999 . S
C456 H426 0.950 . S
C456 C455 1.524 . S
C456 C457 1.415 . S
C457 H427 0.950 . S
C457 C452 1.363 . S
C457 C456 1.415 . S
H458 C455 0.999 . S
H459 C440 0.913 . S
H460 C478 0.951 . S
H461 C480 0.951 . S
H462 C482 0.950 . S
H463 C483 0.950 . S
H464 C485 0.950 . S
H465 C488 0.950 . S
H466 C489 0.950 . S
H467 C491 0.950 . S
H468 C492 0.950 . S
H469 C493 0.951 . S
H470 C495 0.951 . S
H471 C497 0.950 . S
H472 C498 0.950 . S
H473 C500 0.950 . S
H474 C503 0.950 . S
H475 C504 0.950 . S
H476 C506 0.950 . S
H477 C507 0.950 . S
C478 H460 0.951 . S
C478 C479 1.366 . S
C478 C480 1.388 . S
C479 C478 1.366 . S
C479 C483 1.385 . S
C480 H461 0.951 . S
C480 C478 1.388 . S
C480 C481 1.366 . S
C481 C480 1.366 . S
C481 C482 1.414 . S
C481 C484 1.499 . S
C482 H462 0.950 . S
C482 C481 1.414 . S
C482 C483 1.374 . S
C483 H463 0.950 . S
C483 C479 1.385 . S
C483 C482 1.374 . S
C484 C481 1.499 . S
C484 C485 1.373 . S
C484 C486 1.389 . S
C485 H464 0.950 . S
C485 C484 1.373 . S
C485 C501 1.377 . S
C486 C484 1.389 . S
C486 C487 1.524 . S
C486 C500 1.377 . S
C487 C486 1.524 . S
C487 C488 1.397 . S
C487 C492 1.363 . S
C488 H465 0.950 . S
C488 C487 1.397 . S
C488 C489 1.334 . S
C489 H466 0.950 . S
C489 C488 1.334 . S
C489 C490 1.287 . S
C490 C489 1.287 . S
C490 C491 1.524 . S
C490 H509 0.913 . S
C491 H467 0.950 . S
C491 C490 1.524 . S
C491 C492 1.415 . S
C492 H468 0.950 . S
C492 C487 1.363 . S
C492 C491 1.415 . S
C493 H469 0.951 . S
C493 C494 1.366 . S
C493 C495 1.388 . S
C494 C493 1.366 . S
C494 C498 1.385 . S
C495 H470 0.951 . S
C495 C493 1.388 . S
C495 C496 1.366 . S
C496 C495 1.366 . S
C496 C497 1.414 . S
C496 C499 1.499 . S
C497 H471 0.950 . S
C497 C496 1.414 . S
C497 C498 1.374 . S
C498 H472 0.950 . S
C498 C494 1.385 . S
C498 C497 1.374 . S
C499 C496 1.499 . S
C499 C500 1.373 . S
C499 C501 1.389 . S
C500 H473 0.950 . S
C500 C486 1.377 . S
C500 C499 1.373 . S
C501 C485 1.377 . S
C501 C499 1.389 . S
C501 C502 1.524 . S
C502 C501 1.524 . S
C502 C503 1.397 . S
C502 C507 1.363 . S
C503 H474 0.950 . S
C503 C502 1.397 . S
C503 C504 1.334 . S
C504 H475 0.950 . S
C504 C503 1.334 . S
C504 C505 1.287 . S
C505 C504 1.287 . S
C505 C506 1.524 . S
C505 H508 0.999 . S
C506 H476 0.950 . S
C506 C505 1.524 . S
C506 C507 1.415 . S
C507 H477 0.950 . S
C507 C502 1.363 . S
C507 C506 1.415 . S
H508 C505 0.999 . S
H509 C490 0.913 . S
H510 C528 0.951 . S
H511 C530 0.951 . S
H512 C532 0.950 . S
H513 C533 0.950 . S
H514 C535 0.950 . S
H515 C538 0.950 . S
H516 C539 0.950 . S
H517 C541 0.950 . S
H518 C542 0.950 . S
H519 C543 0.951 . S
H520 C545 0.951 . S
H521 C547 0.950 . S
H522 C548 0.950 . S
H523 C550 0.950 . S
H524 C553 0.950 . S
H525 C554 0.950 . S
H526 C556 0.950 . S
H527 C557 0.950 . S
C528 H510 0.951 . S
C528 C529 1.366 . S
C528 C530 1.388 . S
C529 C528 1.366 . S
C529 C533 1.385 . S
C530 H511 0.951 . S
C530 C528 1.388 . S
C530 C531 1.366 . S
C531 C530 1.366 . S
C531 C532 1.414 . S
C531 C534 1.499 . S
C532 H512 0.950 . S
C532 C531 1.414 . S
C532 C533 1.374 . S
C533 H513 0.950 . S
C533 C529 1.385 . S
C533 C532 1.374 . S
C534 C531 1.499 . S
C534 C535 1.373 . S
C534 C536 1.389 . S
C535 H514 0.950 . S
C535 C534 1.373 . S
C535 C551 1.377 . S
C536 C534 1.389 . S
C536 C537 1.524 . S
C536 C550 1.377 . S
C537 C536 1.524 . S
C537 C538 1.397 . S
C537 C542 1.363 . S
C538 H515 0.950 . S
C538 C537 1.397 . S
C538 C539 1.334 . S
C539 H516 0.950 . S
C539 C538 1.334 . S
C539 C540 1.287 . S
C540 C539 1.287 . S
C540 C541 1.524 . S
C540 H559 0.913 . S
C541 H517 0.950 . S
C541 C540 1.524 . S
C541 C542 1.415 . S
C542 H518 0.950 . S
C542 C537 1.363 . S
C542 C541 1.415 . S
C543 H519 0.951 . S
C543 C544 1.366 . S
C543 C545 1.388 . S
C544 C543 1.366 . S
C544 C548 1.385 . S
C545 H520 0.951 . S
C545 C543 1.388 . S
C545 C546 1.366 . S
C546 C545 1.366 . S
C546 C547 1.414 . S
C546 C549 1.499 . S
C547 H521 0.950 . S
C547 C546 1.414 . S
C547 C548 1.374 . S
C548 H522 0.950 . S
C548 C544 1.385 . S
C548 C547 1.374 . S
C549 C546 1.499 . S
C549 C550 1.373 . S
C549 C551 1.389 . S
C550 H523 0.950 . S
C550 C536 1.377 . S
C550 C549 1.373 . S
C551 C535 1.377 . S
C551 C549 1.389 . S
C551 C552 1.524 . S
C552 C551 1.524 . S
C552 C553 1.397 . S
C552 C557 1.363 . S
C553 H524 0.950 . S
C553 C552 1.397 . S
C553 C554 1.334 . S
C554 H525 0.950 . S
C554 C553 1.334 . S
C554 C555 1.287 . S
C555 C554 1.287 . S
C555 C556 1.524 . S
C555 H558 0.999 1_565 S
C556 H526 0.950 . S
C556 C555 1.524 . S
C556 C557 1.415 . S
C557 H527 0.950 . S
C557 C552 1.363 . S
C557 C556 1.415 . S
H558 C555 0.999 1_545 S
H559 C540 0.913 . S
H560 C578 0.951 . S
H561 C580 0.951 . S
H562 C582 0.950 . S
H563 C583 0.950 . S
H564 C585 0.950 . S
H565 C588 0.950 . S
H566 C589 0.950 . S
H567 C591 0.950 . S
H568 C592 0.950 . S
H569 C593 0.951 . S
H570 C595 0.951 . S
H571 C597 0.950 . S
H572 C598 0.950 . S
H573 C600 0.950 . S
H574 C603 0.950 . S
H575 C604 0.950 . S
H576 C606 0.950 . S
H577 C607 0.950 . S
C578 H560 0.951 . S
C578 C579 1.366 . S
C578 C580 1.388 . S
C579 C578 1.366 . S
C579 C583 1.385 . S
C580 H561 0.951 . S
C580 C578 1.388 . S
C580 C581 1.366 . S
C581 C580 1.366 . S
C581 C582 1.414 . S
C581 C584 1.499 . S
C582 H562 0.950 . S
C582 C581 1.414 . S
C582 C583 1.374 . S
C583 H563 0.950 . S
C583 C579 1.385 . S
C583 C582 1.374 . S
C584 C581 1.499 . S
C584 C585 1.373 . S
C584 C586 1.389 . S
C585 H564 0.950 . S
C585 C584 1.373 . S
C585 C601 1.377 . S
C586 C584 1.389 . S
C586 C587 1.524 . S
C586 C600 1.377 . S
C587 C586 1.524 . S
C587 C588 1.397 . S
C587 C592 1.363 . S
C588 H565 0.950 . S
C588 C587 1.397 . S
C588 C589 1.334 . S
C589 H566 0.950 . S
C589 C588 1.334 . S
C589 C590 1.287 . S
C590 C589 1.287 . S
C590 C591 1.524 . S
C590 H609 0.913 . S
C591 H567 0.950 . S
C591 C590 1.524 . S
C591 C592 1.415 . S
C592 H568 0.950 . S
C592 C587 1.363 . S
C592 C591 1.415 . S
C593 H569 0.951 . S
C593 C594 1.366 . S
C593 C595 1.388 . S
C594 C593 1.366 . S
C594 C598 1.385 . S
C595 H570 0.951 . S
C595 C593 1.388 . S
C595 C596 1.366 . S
C596 C595 1.366 . S
C596 C597 1.414 . S
C596 C599 1.499 . S
C597 H571 0.950 . S
C597 C596 1.414 . S
C597 C598 1.374 . S
C598 H572 0.950 . S
C598 C594 1.385 . S
C598 C597 1.374 . S
C599 C596 1.499 . S
C599 C600 1.373 . S
C599 C601 1.389 . S
C600 H573 0.950 . S
C600 C586 1.377 . S
C600 C599 1.373 . S
C601 C585 1.377 . S
C601 C599 1.389 . S
C601 C602 1.524 . S
C602 C601 1.524 . S
C602 C603 1.397 . S
C602 C607 1.363 . S
C603 H574 0.950 . S
C603 C602 1.397 . S
C603 C604 1.334 . S
C604 H575 0.950 . S
C604 C603 1.334 . S
C604 C605 1.287 . S
C605 C604 1.287 . S
C605 C606 1.524 . S
C605 H608 0.999 . S
C606 H576 0.950 . S
C606 C605 1.524 . S
C606 C607 1.415 . S
C607 H577 0.950 . S
C607 C602 1.363 . S
C607 C606 1.415 . S
H608 C605 0.999 . S
H609 C590 0.913 . S
H610 C628 0.951 . S
H611 C630 0.951 . S
H612 C632 0.950 . S
H613 C633 0.950 . S
H614 C635 0.950 . S
H615 C638 0.950 . S
H616 C639 0.950 . S
H617 C641 0.950 . S
H618 C642 0.950 . S
H619 C643 0.951 . S
H620 C645 0.951 . S
H621 C647 0.950 . S
H622 C648 0.950 . S
H623 C650 0.950 . S
H624 C653 0.950 . S
H625 C654 0.950 . S
H626 C656 0.950 . S
H627 C657 0.950 . S
C628 H610 0.951 . S
C628 C629 1.366 . S
C628 C630 1.388 . S
C629 C628 1.366 . S
C629 C633 1.385 . S
C630 H611 0.951 . S
C630 C628 1.388 . S
C630 C631 1.366 . S
C631 C630 1.366 . S
C631 C632 1.414 . S
C631 C634 1.499 . S
C632 H612 0.950 . S
C632 C631 1.414 . S
C632 C633 1.374 . S
C633 H613 0.950 . S
C633 C629 1.385 . S
C633 C632 1.374 . S
C634 C631 1.499 . S
C634 C635 1.373 . S
C634 C636 1.389 . S
C635 H614 0.950 . S
C635 C634 1.373 . S
C635 C651 1.377 . S
C636 C634 1.389 . S
C636 C637 1.524 . S
C636 C650 1.377 . S
C637 C636 1.524 . S
C637 C638 1.397 . S
C637 C642 1.363 . S
C638 H615 0.950 . S
C638 C637 1.397 . S
C638 C639 1.334 . S
C639 H616 0.950 . S
C639 C638 1.334 . S
C639 C640 1.287 . S
C640 C639 1.287 . S
C640 C641 1.524 . S
C640 H659 0.913 . S
C641 H617 0.950 . S
C641 C640 1.524 . S
C641 C642 1.415 . S
C642 H618 0.950 . S
C642 C637 1.363 . S
C642 C641 1.415 . S
C643 H619 0.951 . S
C643 C644 1.366 . S
C643 C645 1.388 . S
C644 C643 1.366 . S
C644 C648 1.385 . S
C645 H620 0.951 . S
C645 C643 1.388 . S
C645 C646 1.366 . S
C646 C645 1.366 . S
C646 C647 1.414 . S
C646 C649 1.499 . S
C647 H621 0.950 . S
C647 C646 1.414 . S
C647 C648 1.374 . S
C648 H622 0.950 . S
C648 C644 1.385 . S
C648 C647 1.374 . S
C649 C646 1.499 . S
C649 C650 1.373 . S
C649 C651 1.389 . S
C650 H623 0.950 . S
C650 C636 1.377 . S
C650 C649 1.373 . S
C651 C635 1.377 . S
C651 C649 1.389 . S
C651 C652 1.524 . S
C652 C651 1.524 . S
C652 C653 1.397 . S
C652 C657 1.363 . S
C653 H624 0.950 . S
C653 C652 1.397 . S
C653 C654 1.334 . S
C654 H625 0.950 . S
C654 C653 1.334 . S
C654 C655 1.287 . S
C655 C654 1.287 . S
C655 C656 1.524 . S
C655 H658 0.999 . S
C656 H626 0.950 . S
C656 C655 1.524 . S
C656 C657 1.415 . S
C657 H627 0.950 . S
C657 C652 1.363 . S
C657 C656 1.415 . S
H658 C655 0.999 . S
H659 C640 0.913 . S
H660 C678 0.951 . S
H661 C680 0.951 . S
H662 C682 0.950 . S
H663 C683 0.950 . S
H664 C685 0.950 . S
H665 C688 0.950 . S
H666 C689 0.950 . S
H667 C691 0.950 . S
H668 C692 0.950 . S
H669 C693 0.951 . S
H670 C695 0.951 . S
H671 C697 0.950 . S
H672 C698 0.950 . S
H673 C700 0.950 . S
H674 C703 0.950 . S
H675 C704 0.950 . S
H676 C706 0.950 . S
H677 C707 0.950 . S
C678 H660 0.951 . S
C678 C679 1.366 . S
C678 C680 1.388 . S
C679 C678 1.366 . S
C679 C683 1.385 . S
C680 H661 0.951 . S
C680 C678 1.388 . S
C680 C681 1.366 . S
C681 C680 1.366 . S
C681 C682 1.414 . S
C681 C684 1.499 . S
C682 H662 0.950 . S
C682 C681 1.414 . S
C682 C683 1.374 . S
C683 H663 0.950 . S
C683 C679 1.385 . S
C683 C682 1.374 . S
C684 C681 1.499 . S
C684 C685 1.373 . S
C684 C686 1.389 . S
C685 H664 0.950 . S
C685 C684 1.373 . S
C685 C701 1.377 . S
C686 C684 1.389 . S
C686 C687 1.524 . S
C686 C700 1.377 . S
C687 C686 1.524 . S
C687 C688 1.397 . S
C687 C692 1.363 . S
C688 H665 0.950 . S
C688 C687 1.397 . S
C688 C689 1.334 . S
C689 H666 0.950 . S
C689 C688 1.334 . S
C689 C690 1.287 . S
C690 C689 1.287 . S
C690 C691 1.524 . S
C690 H709 0.913 . S
C691 H667 0.950 . S
C691 C690 1.524 . S
C691 C692 1.415 . S
C692 H668 0.950 . S
C692 C687 1.363 . S
C692 C691 1.415 . S
C693 H669 0.951 . S
C693 C694 1.366 . S
C693 C695 1.388 . S
C694 C693 1.366 . S
C694 C698 1.385 . S
C695 H670 0.951 . S
C695 C693 1.388 . S
C695 C696 1.366 . S
C696 C695 1.366 . S
C696 C697 1.414 . S
C696 C699 1.499 . S
C697 H671 0.950 . S
C697 C696 1.414 . S
C697 C698 1.374 . S
C698 H672 0.950 . S
C698 C694 1.385 . S
C698 C697 1.374 . S
C699 C696 1.499 . S
C699 C700 1.373 . S
C699 C701 1.389 . S
C700 H673 0.950 . S
C700 C686 1.377 . S
C700 C699 1.373 . S
C701 C685 1.377 . S
C701 C699 1.389 . S
C701 C702 1.524 . S
C702 C701 1.524 . S
C702 C703 1.397 . S
C702 C707 1.363 . S
C703 H674 0.950 . S
C703 C702 1.397 . S
C703 C704 1.334 . S
C704 H675 0.950 . S
C704 C703 1.334 . S
C704 C705 1.287 . S
C705 C704 1.287 . S
C705 C706 1.524 . S
C705 H708 0.999 . S
C706 H676 0.950 . S
C706 C705 1.524 . S
C706 C707 1.415 . S
C707 H677 0.950 . S
C707 C702 1.363 . S
C707 C706 1.415 . S
H708 C705 0.999 . S
H709 C690 0.913 . S
H710 C728 0.951 . S
H711 C730 0.951 . S
H712 C732 0.950 . S
H713 C733 0.950 . S
H714 C735 0.950 . S
H715 C738 0.950 . S
H716 C739 0.950 . S
H717 C741 0.950 . S
H718 C742 0.950 . S
H719 C743 0.951 . S
H720 C745 0.951 . S
H721 C747 0.950 . S
H722 C748 0.950 . S
H723 C750 0.950 . S
H724 C753 0.950 . S
H725 C754 0.950 . S
H726 C756 0.950 . S
H727 C757 0.950 . S
C728 H710 0.951 . S
C728 C729 1.366 . S
C728 C730 1.388 . S
C729 C728 1.366 . S
C729 C733 1.385 . S
C730 H711 0.951 . S
C730 C728 1.388 . S
C730 C731 1.366 . S
C731 C730 1.366 . S
C731 C732 1.414 . S
C731 C734 1.499 . S
C732 H712 0.950 . S
C732 C731 1.414 . S
C732 C733 1.374 . S
C733 H713 0.950 . S
C733 C729 1.385 . S
C733 C732 1.374 . S
C734 C731 1.499 . S
C734 C735 1.373 . S
C734 C736 1.389 . S
C735 H714 0.950 . S
C735 C734 1.373 . S
C735 C751 1.377 . S
C736 C734 1.389 . S
C736 C737 1.524 . S
C736 C750 1.377 . S
C737 C736 1.524 . S
C737 C738 1.397 . S
C737 C742 1.363 . S
C738 H715 0.950 . S
C738 C737 1.397 . S
C738 C739 1.334 . S
C739 H716 0.950 . S
C739 C738 1.334 . S
C739 C740 1.287 . S
C740 C739 1.287 . S
C740 C741 1.524 . S
C740 H759 0.913 . S
C741 H717 0.950 . S
C741 C740 1.524 . S
C741 C742 1.415 . S
C742 H718 0.950 . S
C742 C737 1.363 . S
C742 C741 1.415 . S
C743 H719 0.951 . S
C743 C744 1.366 . S
C743 C745 1.388 . S
C744 C743 1.366 . S
C744 C748 1.385 . S
C745 H720 0.951 . S
C745 C743 1.388 . S
C745 C746 1.366 . S
C746 C745 1.366 . S
C746 C747 1.414 . S
C746 C749 1.499 . S
C747 H721 0.950 . S
C747 C746 1.414 . S
C747 C748 1.374 . S
C748 H722 0.950 . S
C748 C744 1.385 . S
C748 C747 1.374 . S
C749 C746 1.499 . S
C749 C750 1.373 . S
C749 C751 1.389 . S
C750 H723 0.950 . S
C750 C736 1.377 . S
C750 C749 1.373 . S
C751 C735 1.377 . S
C751 C749 1.389 . S
C751 C752 1.524 . S
C752 C751 1.524 . S
C752 C753 1.397 . S
C752 C757 1.363 . S
C753 H724 0.950 . S
C753 C752 1.397 . S
C753 C754 1.334 . S
C754 H725 0.950 . S
C754 C753 1.334 . S
C754 C755 1.287 . S
C755 C754 1.287 . S
C755 C756 1.524 . S
C755 H758 0.999 . S
C756 H726 0.950 . S
C756 C755 1.524 . S
C756 C757 1.415 . S
C757 H727 0.950 . S
C757 C752 1.363 . S
C757 C756 1.415 . S
H758 C755 0.999 . S
H759 C740 0.913 . S
H760 C778 0.951 . S
H761 C780 0.951 . S
H762 C782 0.950 . S
H763 C783 0.950 . S
H764 C785 0.950 . S
H765 C788 0.950 . S
H766 C789 0.950 . S
H767 C791 0.950 . S
H768 C792 0.950 . S
H769 C793 0.951 . S
H770 C795 0.951 . S
H771 C797 0.950 . S
H772 C798 0.950 . S
H773 C800 0.950 . S
H774 C803 0.950 . S
H775 C804 0.950 . S
H776 C806 0.950 . S
H777 C807 0.950 . S
C778 H760 0.951 . S
C778 C779 1.366 . S
C778 C780 1.388 . S
C779 C778 1.366 . S
C779 C783 1.385 . S
C780 H761 0.951 . S
C780 C778 1.388 . S
C780 C781 1.366 . S
C781 C780 1.366 . S
C781 C782 1.414 . S
C781 C784 1.499 . S
C782 H762 0.950 . S
C782 C781 1.414 . S
C782 C783 1.374 . S
C783 H763 0.950 . S
C783 C779 1.385 . S
C783 C782 1.374 . S
C784 C781 1.499 . S
C784 C785 1.373 . S
C784 C786 1.389 . S
C785 H764 0.950 . S
C785 C784 1.373 . S
C785 C801 1.377 . S
C786 C784 1.389 . S
C786 C787 1.524 . S
C786 C800 1.377 . S
C787 C786 1.524 . S
C787 C788 1.397 . S
C787 C792 1.363 . S
C788 H765 0.950 . S
C788 C787 1.397 . S
C788 C789 1.334 . S
C789 H766 0.950 . S
C789 C788 1.334 . S
C789 C790 1.287 . S
C790 C789 1.287 . S
C790 C791 1.524 . S
C790 H809 0.913 . S
C791 H767 0.950 . S
C791 C790 1.524 . S
C791 C792 1.415 . S
C792 H768 0.950 . S
C792 C787 1.363 . S
C792 C791 1.415 . S
C793 H769 0.951 . S
C793 C794 1.366 . S
C793 C795 1.388 . S
C794 C793 1.366 . S
C794 C798 1.385 . S
C795 H770 0.951 . S
C795 C793 1.388 . S
C795 C796 1.366 . S
C796 C795 1.366 . S
C796 C797 1.414 . S
C796 C799 1.499 . S
C797 H771 0.950 . S
C797 C796 1.414 . S
C797 C798 1.374 . S
C798 H772 0.950 . S
C798 C794 1.385 . S
C798 C797 1.374 . S
C799 C796 1.499 . S
C799 C800 1.373 . S
C799 C801 1.389 . S
C800 H773 0.950 . S
C800 C786 1.377 . S
C800 C799 1.373 . S
C801 C785 1.377 . S
C801 C799 1.389 . S
C801 C802 1.524 . S
C802 C801 1.524 . S
C802 C803 1.397 . S
C802 C807 1.363 . S
C803 H774 0.950 . S
C803 C802 1.397 . S
C803 C804 1.334 . S
C804 H775 0.950 . S
C804 C803 1.334 . S
C804 C805 1.287 . S
C805 C804 1.287 . S
C805 C806 1.524 . S
C805 H808 0.999 . S
C806 H776 0.950 . S
C806 C805 1.524 . S
C806 C807 1.415 . S
C807 H777 0.950 . S
C807 C802 1.363 . S
C807 C806 1.415 . S
H808 C805 0.999 . S
H809 C790 0.913 . S
H810 C828 0.951 . S
H811 C830 0.951 . S
H812 C832 0.950 . S
H813 C833 0.950 . S
H814 C835 0.950 . S
H815 C838 0.950 . S
H816 C839 0.950 . S
H817 C841 0.950 . S
H818 C842 0.950 . S
H819 C843 0.951 . S
H820 C845 0.951 . S
H821 C847 0.950 . S
H822 C848 0.950 . S
H823 C850 0.950 . S
H824 C853 0.950 . S
H825 C854 0.950 . S
H826 C856 0.950 . S
H827 C857 0.950 . S
C828 H810 0.951 . S
C828 C829 1.366 . S
C828 C830 1.388 . S
C829 C828 1.366 . S
C829 C833 1.385 . S
C830 H811 0.951 . S
C830 C828 1.388 . S
C830 C831 1.366 . S
C831 C830 1.366 . S
C831 C832 1.414 . S
C831 C834 1.499 . S
C832 H812 0.950 . S
C832 C831 1.414 . S
C832 C833 1.374 . S
C833 H813 0.950 . S
C833 C829 1.385 . S
C833 C832 1.374 . S
C834 C831 1.499 . S
C834 C835 1.373 . S
C834 C836 1.389 . S
C835 H814 0.950 . S
C835 C834 1.373 . S
C835 C851 1.377 . S
C836 C834 1.389 . S
C836 C837 1.524 . S
C836 C850 1.377 . S
C837 C836 1.524 . S
C837 C838 1.397 . S
C837 C842 1.363 . S
C838 H815 0.950 . S
C838 C837 1.397 . S
C838 C839 1.334 . S
C839 H816 0.950 . S
C839 C838 1.334 . S
C839 C840 1.287 . S
C840 C839 1.287 . S
C840 C841 1.524 . S
C840 H859 0.913 . S
C841 H817 0.950 . S
C841 C840 1.524 . S
C841 C842 1.415 . S
C842 H818 0.950 . S
C842 C837 1.363 . S
C842 C841 1.415 . S
C843 H819 0.951 . S
C843 C844 1.366 . S
C843 C845 1.388 . S
C844 C843 1.366 . S
C844 C848 1.385 . S
C845 H820 0.951 . S
C845 C843 1.388 . S
C845 C846 1.366 . S
C846 C845 1.366 . S
C846 C847 1.414 . S
C846 C849 1.499 . S
C847 H821 0.950 . S
C847 C846 1.414 . S
C847 C848 1.374 . S
C848 H822 0.950 . S
C848 C844 1.385 . S
C848 C847 1.374 . S
C849 C846 1.499 . S
C849 C850 1.373 . S
C849 C851 1.389 . S
C850 H823 0.950 . S
C850 C836 1.377 . S
C850 C849 1.373 . S
C851 C835 1.377 . S
C851 C849 1.389 . S
C851 C852 1.524 . S
C852 C851 1.524 . S
C852 C853 1.397 . S
C852 C857 1.363 . S
C853 H824 0.950 . S
C853 C852 1.397 . S
C853 C854 1.334 . S
C854 H825 0.950 . S
C854 C853 1.334 . S
C854 C855 1.287 . S
C855 C854 1.287 . S
C855 C856 1.524 . S
C855 H858 0.999 . S
C856 H826 0.950 . S
C856 C855 1.524 . S
C856 C857 1.415 . S
C857 H827 0.950 . S
C857 C852 1.363 . S
C857 C856 1.415 . S
H858 C855 0.999 . S
H859 C840 0.913 . S
H860 C878 0.951 . S
H861 C880 0.951 . S
H862 C882 0.950 . S
H863 C883 0.950 . S
H864 C885 0.950 . S
H865 C888 0.950 . S
H866 C889 0.950 . S
H867 C891 0.950 . S
H868 C892 0.950 . S
H869 C893 0.951 . S
H870 C895 0.951 . S
H871 C897 0.950 . S
H872 C898 0.950 . S
H873 C900 0.950 . S
H874 C903 0.950 . S
H875 C904 0.950 . S
H876 C906 0.950 . S
H877 C907 0.950 . S
C878 H860 0.951 . S
C878 C879 1.366 . S
C878 C880 1.388 . S
C879 C878 1.366 . S
C879 C883 1.385 . S
C880 H861 0.951 . S
C880 C878 1.388 . S
C880 C881 1.366 . S
C881 C880 1.366 . S
C881 C882 1.414 . S
C881 C884 1.499 . S
C882 H862 0.950 . S
C882 C881 1.414 . S
C882 C883 1.374 . S
C883 H863 0.950 . S
C883 C879 1.385 . S
C883 C882 1.374 . S
C884 C881 1.499 . S
C884 C885 1.373 . S
C884 C886 1.389 . S
C885 H864 0.950 . S
C885 C884 1.373 . S
C885 C901 1.377 . S
C886 C884 1.389 . S
C886 C887 1.524 . S
C886 C900 1.377 . S
C887 C886 1.524 . S
C887 C888 1.397 . S
C887 C892 1.363 . S
C888 H865 0.950 . S
C888 C887 1.397 . S
C888 C889 1.334 . S
C889 H866 0.950 . S
C889 C888 1.334 . S
C889 C890 1.287 . S
C890 C889 1.287 . S
C890 C891 1.524 . S
C890 H909 0.913 . S
C891 H867 0.950 . S
C891 C890 1.524 . S
C891 C892 1.415 . S
C892 H868 0.950 . S
C892 C887 1.363 . S
C892 C891 1.415 . S
C893 H869 0.951 . S
C893 C894 1.366 . S
C893 C895 1.388 . S
C894 C893 1.366 . S
C894 C898 1.385 . S
C895 H870 0.951 . S
C895 C893 1.388 . S
C895 C896 1.366 . S
C896 C895 1.366 . S
C896 C897 1.414 . S
C896 C899 1.499 . S
C897 H871 0.950 . S
C897 C896 1.414 . S
C897 C898 1.374 . S
C898 H872 0.950 . S
C898 C894 1.385 . S
C898 C897 1.374 . S
C899 C896 1.499 . S
C899 C900 1.373 . S
C899 C901 1.389 . S
C900 H873 0.950 . S
C900 C886 1.377 . S
C900 C899 1.373 . S
C901 C885 1.377 . S
C901 C899 1.389 . S
C901 C902 1.524 . S
C902 C901 1.524 . S
C902 C903 1.397 . S
C902 C907 1.363 . S
C903 H874 0.950 . S
C903 C902 1.397 . S
C903 C904 1.334 . S
C904 H875 0.950 . S
C904 C903 1.334 . S
C904 C905 1.287 . S
C905 C904 1.287 . S
C905 C906 1.524 . S
C905 H908 0.999 . S
C906 H876 0.950 . S
C906 C905 1.524 . S
C906 C907 1.415 . S
C907 H877 0.950 . S
C907 C902 1.363 . S
C907 C906 1.415 . S
H908 C905 0.999 . S
H909 C890 0.913 . S
H910 C928 0.951 . S
H911 C930 0.951 . S
H912 C932 0.950 . S
H913 C933 0.950 . S
H914 C935 0.950 . S
H915 C938 0.950 . S
H916 C939 0.950 . S
H917 C941 0.950 . S
H918 C942 0.950 . S
H919 C943 0.951 . S
H920 C945 0.951 . S
H921 C947 0.950 . S
H922 C948 0.950 . S
H923 C950 0.950 . S
H924 C953 0.950 . S
H925 C954 0.950 . S
H926 C956 0.950 . S
H927 C957 0.950 . S
C928 H910 0.951 . S
C928 C929 1.366 . S
C928 C930 1.388 . S
C929 C928 1.366 . S
C929 C933 1.385 . S
C930 H911 0.951 . S
C930 C928 1.388 . S
C930 C931 1.366 . S
C931 C930 1.366 . S
C931 C932 1.414 . S
C931 C934 1.499 . S
C932 H912 0.950 . S
C932 C931 1.414 . S
C932 C933 1.374 . S
C933 H913 0.950 . S
C933 C929 1.385 . S
C933 C932 1.374 . S
C934 C931 1.499 . S
C934 C935 1.373 . S
C934 C936 1.389 . S
C935 H914 0.950 . S
C935 C934 1.373 . S
C935 C951 1.377 . S
C936 C934 1.389 . S
C936 C937 1.524 . S
C936 C950 1.377 . S
C937 C936 1.524 . S
C937 C938 1.397 . S
C937 C942 1.363 . S
C938 H915 0.950 . S
C938 C937 1.397 . S
C938 C939 1.334 . S
C939 H916 0.950 . S
C939 C938 1.334 . S
C939 C940 1.287 . S
C940 C939 1.287 . S
C940 C941 1.524 . S
C940 H959 0.913 . S
C941 H917 0.950 . S
C941 C940 1.524 . S
C941 C942 1.415 . S
C942 H918 0.950 . S
C942 C937 1.363 . S
C942 C941 1.415 . S
C943 H919 0.951 . S
C943 C944 1.366 . S
C943 C945 1.388 . S
C944 C943 1.366 . S
C944 C948 1.385 . S
C945 H920 0.951 . S
C945 C943 1.388 . S
C945 C946 1.366 . S
C946 C945 1.366 . S
C946 C947 1.414 . S
C946 C949 1.499 . S
C947 H921 0.950 . S
C947 C946 1.414 . S
C947 C948 1.374 . S
C948 H922 0.950 . S
C948 C944 1.385 . S
C948 C947 1.374 . S
C949 C946 1.499 . S
C949 C950 1.373 . S
C949 C951 1.389 . S
C950 H923 0.950 . S
C950 C936 1.377 . S
C950 C949 1.373 . S
C951 C935 1.377 . S
C951 C949 1.389 . S
C951 C952 1.524 . S
C952 C951 1.524 . S
C952 C953 1.397 . S
C952 C957 1.363 . S
C953 H924 0.950 . S
C953 C952 1.397 . S
C953 C954 1.334 . S
C954 H925 0.950 . S
C954 C953 1.334 . S
C954 C955 1.287 . S
C955 C954 1.287 . S
C955 C956 1.524 . S
C955 H958 0.999 . S
C956 H926 0.950 . S
C956 C955 1.524 . S
C956 C957 1.415 . S
C957 H927 0.950 . S
C957 C952 1.363 . S
C957 C956 1.415 . S
H958 C955 0.999 . S
H959 C940 0.913 . S
H960 C978 0.951 . S
H961 C980 0.951 . S
H962 C982 0.950 . S
H963 C983 0.950 . S
H964 C985 0.950 . S
H965 C988 0.950 . S
H966 C989 0.950 . S
H967 C991 0.950 . S
H968 C992 0.950 . S
H969 C993 0.951 . S
H970 C995 0.951 . S
H971 C997 0.950 . S
H972 C998 0.950 . S
H973 C1000 0.950 . S
H974 C1003 0.950 . S
H975 C1004 0.950 . S
H976 C1006 0.950 . S
H977 C1007 0.950 . S
C978 H960 0.951 . S
C978 C979 1.367 . S
C978 C980 1.388 . S
C979 C978 1.367 . S
C979 C983 1.384 1_554 S
C980 H961 0.951 . S
C980 C978 1.388 . S
C980 C981 1.366 1_554 S
C981 C980 1.366 1_556 S
C981 C982 1.414 . S
C981 C984 1.499 . S
C982 H962 0.950 . S
C982 C981 1.414 . S
C982 C983 1.374 . S
C983 H963 0.950 . S
C983 C979 1.384 1_556 S
C983 C982 1.374 . S
C984 C981 1.499 . S
C984 C985 1.373 1_556 S
C984 C986 1.389 . S
C985 H964 0.950 . S
C985 C984 1.373 1_554 S
C985 C1001 1.377 . S
C986 C984 1.389 . S
C986 C987 1.524 . S
C986 C1000 1.377 . S
C987 C986 1.524 . S
C987 C988 1.397 . S
C987 C992 1.363 . S
C988 H965 0.950 . S
C988 C987 1.397 . S
C988 C989 1.334 . S
C989 H966 0.950 . S
C989 C988 1.334 . S
C989 C990 1.287 . S
C990 C989 1.287 . S
C990 C991 1.524 . S
C990 H1009 0.913 . S
C991 H967 0.950 . S
C991 C990 1.524 . S
C991 C992 1.415 . S
C992 H968 0.950 . S
C992 C987 1.363 . S
C992 C991 1.415 . S
C993 H969 0.951 . S
C993 C994 1.365 1_556 S
C993 C995 1.388 . S
C994 C993 1.365 1_554 S
C994 C998 1.385 . S
C995 H970 0.951 . S
C995 C993 1.388 . S
C995 C996 1.366 1_556 S
C996 C995 1.366 1_554 S
C996 C997 1.414 . S
C996 C999 1.499 . S
C997 H971 0.950 . S
C997 C996 1.414 . S
C997 C998 1.374 . S
C998 H972 0.950 . S
C998 C994 1.385 . S
C998 C997 1.374 . S
C999 C996 1.499 . S
C999 C1000 1.373 1_554 S
C999 C1001 1.389 . S
C1000 H973 0.950 . S
C1000 C986 1.377 . S
C1000 C999 1.373 1_556 S
C1001 C985 1.377 . S
C1001 C999 1.389 . S
C1001 C1002 1.524 . S
C1002 C1001 1.524 . S
C1002 C1003 1.397 . S
C1002 C1007 1.363 . S
C1003 H974 0.950 . S
C1003 C1002 1.397 . S
C1003 C1004 1.334 . S
C1004 H975 0.950 . S
C1004 C1003 1.334 . S
C1004 C1005 1.287 . S
C1005 C1004 1.287 . S
C1005 C1006 1.524 . S
C1005 H1008 0.999 . S
C1006 H976 0.950 . S
C1006 C1005 1.524 . S
C1006 C1007 1.415 . S
C1007 H977 0.950 . S
C1007 C1002 1.363 . S
C1007 C1006 1.415 . S
H1008 C1005 0.999 . S
H1009 C990 0.913 . S
H1010 C1028 0.951 . S
H1011 C1030 0.951 . S
H1012 C1032 0.950 . S
H1013 C1033 0.950 . S
H1014 C1035 0.950 . S
H1015 C1038 0.950 . S
H1016 C1039 0.950 . S
H1017 C1041 0.950 . S
H1018 C1042 0.950 . S
H1019 C1043 0.951 . S
H1020 C1045 0.951 . S
H1021 C1047 0.950 . S
H1022 C1048 0.950 . S
H1023 C1050 0.950 . S
H1024 C1053 0.950 . S
H1025 C1054 0.950 . S
H1026 C1056 0.950 . S
H1027 C1057 0.950 . S
C1028 H1010 0.951 . S
C1028 C1029 1.366 . S
C1028 C1030 1.388 . S
C1029 C1028 1.366 . S
C1029 C1033 1.385 . S
C1030 H1011 0.951 . S
C1030 C1028 1.388 . S
C1030 C1031 1.366 . S
C1031 C1030 1.366 . S
C1031 C1032 1.414 . S
C1031 C1034 1.499 . S
C1032 H1012 0.950 . S
C1032 C1031 1.414 . S
C1032 C1033 1.374 . S
C1033 H1013 0.950 . S
C1033 C1029 1.385 . S
C1033 C1032 1.374 . S
C1034 C1031 1.499 . S
C1034 C1035 1.373 . S
C1034 C1036 1.389 . S
C1035 H1014 0.950 . S
C1035 C1034 1.373 . S
C1035 C1051 1.377 . S
C1036 C1034 1.389 . S
C1036 C1037 1.524 . S
C1036 C1050 1.377 . S
C1037 C1036 1.524 . S
C1037 C1038 1.397 . S
C1037 C1042 1.363 . S
C1038 H1015 0.950 . S
C1038 C1037 1.397 . S
C1038 C1039 1.334 . S
C1039 H1016 0.950 . S
C1039 C1038 1.334 . S
C1039 C1040 1.287 . S
C1040 C1039 1.287 . S
C1040 C1041 1.524 . S
C1040 H1059 0.913 . S
C1041 H1017 0.950 . S
C1041 C1040 1.524 . S
C1041 C1042 1.415 . S
C1042 H1018 0.950 . S
C1042 C1037 1.363 . S
C1042 C1041 1.415 . S
C1043 H1019 0.951 . S
C1043 C1044 1.366 . S
C1043 C1045 1.388 . S
C1044 C1043 1.366 . S
C1044 C1048 1.385 . S
C1045 H1020 0.951 . S
C1045 C1043 1.388 . S
C1045 C1046 1.366 . S
C1046 C1045 1.366 . S
C1046 C1047 1.414 . S
C1046 C1049 1.499 . S
C1047 H1021 0.950 . S
C1047 C1046 1.414 . S
C1047 C1048 1.374 . S
C1048 H1022 0.950 . S
C1048 C1044 1.385 . S
C1048 C1047 1.374 . S
C1049 C1046 1.499 . S
C1049 C1050 1.373 . S
C1049 C1051 1.389 . S
C1050 H1023 0.950 . S
C1050 C1036 1.377 . S
C1050 C1049 1.373 . S
C1051 C1035 1.377 . S
C1051 C1049 1.389 . S
C1051 C1052 1.524 . S
C1052 C1051 1.524 . S
C1052 C1053 1.397 . S
C1052 C1057 1.363 . S
C1053 H1024 0.950 . S
C1053 C1052 1.397 . S
C1053 C1054 1.334 . S
C1054 H1025 0.950 . S
C1054 C1053 1.334 . S
C1054 C1055 1.287 . S
C1055 C1054 1.287 . S
C1055 C1056 1.524 . S
C1055 H1058 0.999 . S
C1056 H1026 0.950 . S
C1056 C1055 1.524 . S
C1056 C1057 1.415 . S
C1057 H1027 0.950 . S
C1057 C1052 1.363 . S
C1057 C1056 1.415 . S
H1058 C1055 0.999 . S
H1059 C1040 0.913 . S
H1060 C1078 0.951 . S
H1061 C1080 0.951 . S
H1062 C1082 0.950 . S
H1063 C1083 0.950 . S
H1064 C1085 0.950 . S
H1065 C1088 0.950 . S
H1066 C1089 0.950 . S
H1067 C1091 0.950 . S
H1068 C1092 0.950 . S
H1069 C1093 0.951 . S
H1070 C1095 0.951 . S
H1071 C1097 0.950 . S
H1072 C1098 0.950 . S
H1073 C1100 0.950 . S
H1074 C1103 0.950 . S
H1075 C1104 0.950 . S
H1076 C1106 0.950 . S
H1077 C1107 0.950 . S
C1078 H1060 0.951 . S
C1078 C1079 1.362 1_556 S
C1078 C1080 1.388 . S
C1079 C1078 1.362 1_554 S
C1079 C1083 1.388 . S
C1080 H1061 0.951 . S
C1080 C1078 1.388 . S
C1080 C1081 1.366 . S
C1081 C1080 1.366 . S
C1081 C1082 1.414 1_556 S
C1081 C1084 1.499 . S
C1082 H1062 0.950 . S
C1082 C1081 1.414 1_554 S
C1082 C1083 1.374 . S
C1083 H1063 0.950 . S
C1083 C1079 1.388 . S
C1083 C1082 1.374 . S
C1084 C1081 1.499 . S
C1084 C1085 1.373 1_556 S
C1084 C1086 1.389 . S
C1085 H1064 0.950 . S
C1085 C1084 1.373 1_554 S
C1085 C1101 1.377 . S
C1086 C1084 1.389 . S
C1086 C1087 1.524 . S
C1086 C1100 1.377 . S
C1087 C1086 1.524 . S
C1087 C1088 1.397 . S
C1087 C1092 1.363 . S
C1088 H1065 0.950 . S
C1088 C1087 1.397 . S
C1088 C1089 1.334 . S
C1089 H1066 0.950 . S
C1089 C1088 1.334 . S
C1089 C1090 1.287 . S
C1090 C1089 1.287 . S
C1090 C1091 1.524 . S
C1090 H1109 0.913 . S
C1091 H1067 0.950 . S
C1091 C1090 1.524 . S
C1091 C1092 1.415 . S
C1092 H1068 0.950 . S
C1092 C1087 1.363 . S
C1092 C1091 1.415 . S
C1093 H1069 0.951 . S
C1093 C1094 1.366 . S
C1093 C1095 1.388 . S
C1094 C1093 1.366 . S
C1094 C1098 1.384 1_554 S
C1095 H1070 0.951 . S
C1095 C1093 1.388 . S
C1095 C1096 1.366 . S
C1096 C1095 1.366 . S
C1096 C1097 1.414 1_554 S
C1096 C1099 1.499 . S
C1097 H1071 0.950 . S
C1097 C1096 1.414 1_556 S
C1097 C1098 1.374 . S
C1098 H1072 0.950 . S
C1098 C1094 1.384 1_556 S
C1098 C1097 1.374 . S
C1099 C1096 1.499 . S
C1099 C1100 1.373 1_554 S
C1099 C1101 1.389 . S
C1100 H1073 0.950 . S
C1100 C1086 1.377 . S
C1100 C1099 1.373 1_556 S
C1101 C1085 1.377 . S
C1101 C1099 1.389 . S
C1101 C1102 1.524 . S
C1102 C1101 1.524 . S
C1102 C1103 1.397 . S
C1102 C1107 1.363 . S
C1103 H1074 0.950 . S
C1103 C1102 1.397 . S
C1103 C1104 1.334 . S
C1104 H1075 0.950 . S
C1104 C1103 1.334 . S
C1104 C1105 1.287 . S
C1105 C1104 1.287 . S
C1105 C1106 1.524 . S
C1105 H1108 0.999 . S
C1106 H1076 0.950 . S
C1106 C1105 1.524 . S
C1106 C1107 1.415 . S
C1107 H1077 0.950 . S
C1107 C1102 1.363 . S
C1107 C1106 1.415 . S
H1108 C1105 0.999 . S
H1109 C1090 0.913 . S
H1110 C1128 0.951 . S
H1111 C1130 0.951 . S
H1112 C1132 0.950 . S
H1113 C1133 0.950 . S
H1114 C1135 0.950 . S
H1115 C1138 0.950 . S
H1116 C1139 0.950 . S
H1117 C1141 0.950 . S
H1118 C1142 0.950 . S
H1119 C1143 0.951 . S
H1120 C1145 0.951 . S
H1121 C1147 0.950 . S
H1122 C1148 0.950 . S
H1123 C1150 0.950 . S
H1124 C1153 0.950 . S
H1125 C1154 0.950 . S
H1126 C1156 0.950 . S
H1127 C1157 0.950 . S
C1128 H1110 0.951 . S
C1128 C1129 1.366 . S
C1128 C1130 1.388 . S
C1129 C1128 1.366 . S
C1129 C1133 1.385 . S
C1130 H1111 0.951 . S
C1130 C1128 1.388 . S
C1130 C1131 1.366 . S
C1131 C1130 1.366 . S
C1131 C1132 1.414 . S
C1131 C1134 1.499 . S
C1132 H1112 0.950 . S
C1132 C1131 1.414 . S
C1132 C1133 1.374 . S
C1133 H1113 0.950 . S
C1133 C1129 1.385 . S
C1133 C1132 1.374 . S
C1134 C1131 1.499 . S
C1134 C1135 1.373 . S
C1134 C1136 1.389 . S
C1135 H1114 0.950 . S
C1135 C1134 1.373 . S
C1135 C1151 1.377 . S
C1136 C1134 1.389 . S
C1136 C1137 1.524 . S
C1136 C1150 1.377 . S
C1137 C1136 1.524 . S
C1137 C1138 1.397 . S
C1137 C1142 1.363 . S
C1138 H1115 0.950 . S
C1138 C1137 1.397 . S
C1138 C1139 1.334 . S
C1139 H1116 0.950 . S
C1139 C1138 1.334 . S
C1139 C1140 1.287 . S
C1140 C1139 1.287 . S
C1140 C1141 1.524 . S
C1140 H1159 0.913 . S
C1141 H1117 0.950 . S
C1141 C1140 1.524 . S
C1141 C1142 1.415 . S
C1142 H1118 0.950 . S
C1142 C1137 1.363 . S
C1142 C1141 1.415 . S
C1143 H1119 0.951 . S
C1143 C1144 1.366 . S
C1143 C1145 1.388 . S
C1144 C1143 1.366 . S
C1144 C1148 1.385 . S
C1145 H1120 0.951 . S
C1145 C1143 1.388 . S
C1145 C1146 1.366 . S
C1146 C1145 1.366 . S
C1146 C1147 1.414 . S
C1146 C1149 1.499 . S
C1147 H1121 0.950 . S
C1147 C1146 1.414 . S
C1147 C1148 1.374 . S
C1148 H1122 0.950 . S
C1148 C1144 1.385 . S
C1148 C1147 1.374 . S
C1149 C1146 1.499 . S
C1149 C1150 1.373 . S
C1149 C1151 1.389 . S
C1150 H1123 0.950 . S
C1150 C1136 1.377 . S
C1150 C1149 1.373 . S
C1151 C1135 1.377 . S
C1151 C1149 1.389 . S
C1151 C1152 1.524 . S
C1152 C1151 1.524 . S
C1152 C1153 1.397 . S
C1152 C1157 1.363 . S
C1153 H1124 0.950 . S
C1153 C1152 1.397 . S
C1153 C1154 1.334 . S
C1154 H1125 0.950 . S
C1154 C1153 1.334 . S
C1154 C1155 1.287 . S
C1155 C1154 1.287 . S
C1155 C1156 1.524 . S
C1155 H1158 0.999 . S
C1156 H1126 0.950 . S
C1156 C1155 1.524 . S
C1156 C1157 1.415 . S
C1157 H1127 0.950 . S
C1157 C1152 1.363 . S
C1157 C1156 1.415 . S
H1158 C1155 0.999 . S
H1159 C1140 0.913 . S
H1160 C1178 0.951 . S
H1161 C1180 0.951 . S
H1162 C1182 0.950 . S
H1163 C1183 0.950 . S
H1164 C1185 0.950 . S
H1165 C1188 0.950 . S
H1166 C1189 0.950 . S
H1167 C1191 0.950 . S
H1168 C1192 0.950 . S
H1169 C1193 0.951 . S
H1170 C1195 0.951 . S
H1171 C1197 0.950 . S
H1172 C1198 0.950 . S
H1173 C1200 0.950 . S
H1174 C1203 0.950 . S
H1175 C1204 0.950 . S
H1176 C1206 0.950 . S
H1177 C1207 0.950 . S
C1178 H1160 0.951 . S
C1178 C1179 1.366 . S
C1178 C1180 1.388 . S
C1179 C1178 1.366 . S
C1179 C1183 1.385 . S
C1180 H1161 0.951 . S
C1180 C1178 1.388 . S
C1180 C1181 1.366 . S
C1181 C1180 1.366 . S
C1181 C1182 1.414 . S
C1181 C1184 1.499 . S
C1182 H1162 0.950 . S
C1182 C1181 1.414 . S
C1182 C1183 1.374 . S
C1183 H1163 0.950 . S
C1183 C1179 1.385 . S
C1183 C1182 1.374 . S
C1184 C1181 1.499 . S
C1184 C1185 1.373 . S
C1184 C1186 1.389 . S
C1185 H1164 0.950 . S
C1185 C1184 1.373 . S
C1185 C1201 1.377 . S
C1186 C1184 1.389 . S
C1186 C1187 1.524 . S
C1186 C1200 1.377 . S
C1187 C1186 1.524 . S
C1187 C1188 1.397 . S
C1187 C1192 1.363 . S
C1188 H1165 0.950 . S
C1188 C1187 1.397 . S
C1188 C1189 1.334 . S
C1189 H1166 0.950 . S
C1189 C1188 1.334 . S
C1189 C1190 1.287 . S
C1190 C1189 1.287 . S
C1190 C1191 1.524 . S
C1190 H1209 0.913 . S
C1191 H1167 0.950 . S
C1191 C1190 1.524 . S
C1191 C1192 1.415 . S
C1192 H1168 0.950 . S
C1192 C1187 1.363 . S
C1192 C1191 1.415 . S
C1193 H1169 0.951 . S
C1193 C1194 1.366 . S
C1193 C1195 1.388 . S
C1194 C1193 1.366 . S
C1194 C1198 1.385 . S
C1195 H1170 0.951 . S
C1195 C1193 1.388 . S
C1195 C1196 1.366 . S
C1196 C1195 1.366 . S
C1196 C1197 1.414 . S
C1196 C1199 1.499 . S
C1197 H1171 0.950 . S
C1197 C1196 1.414 . S
C1197 C1198 1.374 . S
C1198 H1172 0.950 . S
C1198 C1194 1.385 . S
C1198 C1197 1.374 . S
C1199 C1196 1.499 . S
C1199 C1200 1.373 . S
C1199 C1201 1.389 . S
C1200 H1173 0.950 . S
C1200 C1186 1.377 . S
C1200 C1199 1.373 . S
C1201 C1185 1.377 . S
C1201 C1199 1.389 . S
C1201 C1202 1.524 . S
C1202 C1201 1.524 . S
C1202 C1203 1.397 . S
C1202 C1207 1.363 . S
C1203 H1174 0.950 . S
C1203 C1202 1.397 . S
C1203 C1204 1.334 . S
C1204 H1175 0.950 . S
C1204 C1203 1.334 . S
C1204 C1205 1.287 . S
C1205 C1204 1.287 . S
C1205 C1206 1.524 . S
C1205 H1208 0.999 . S
C1206 H1176 0.950 . S
C1206 C1205 1.524 . S
C1206 C1207 1.415 . S
C1207 H1177 0.950 . S
C1207 C1202 1.363 . S
C1207 C1206 1.415 . S
H1208 C1205 0.999 . S
H1209 C1190 0.913 . S
H1210 C1228 0.951 . S
H1211 C1230 0.951 . S
H1212 C1232 0.950 . S
H1213 C1233 0.950 . S
H1214 C1235 0.950 . S
H1215 C1238 0.950 . S
H1216 C1239 0.950 . S
H1217 C1241 0.950 1_556 S
H1218 C1242 0.950 . S
H1219 C1243 0.951 . S
H1220 C1245 0.951 . S
H1221 C1247 0.950 . S
H1222 C1248 0.950 . S
H1223 C1250 0.950 . S
H1224 C1253 0.950 . S
H1225 C1254 0.950 . S
H1226 C1256 0.950 1_554 S
H1227 C1257 0.950 . S
C1228 H1210 0.951 . S
C1228 C1229 1.362 1_556 S
C1228 C1230 1.388 . S
C1229 C1228 1.362 1_554 S
C1229 C1233 1.389 . S
C1230 H1211 0.951 . S
C1230 C1228 1.388 . S
C1230 C1231 1.366 1_556 S
C1231 C1230 1.366 1_554 S
C1231 C1232 1.414 . S
C1231 C1234 1.499 . S
C1232 H1212 0.950 . S
C1232 C1231 1.414 . S
C1232 C1233 1.374 . S
C1233 H1213 0.950 . S
C1233 C1229 1.389 . S
C1233 C1232 1.374 . S
C1234 C1231 1.499 . S
C1234 C1235 1.373 1_554 S
C1234 C1236 1.389 . S
C1235 H1214 0.950 . S
C1235 C1234 1.373 1_556 S
C1235 C1251 1.377 . S
C1236 C1234 1.389 . S
C1236 C1237 1.524 . S
C1236 C1250 1.377 . S
C1237 C1236 1.524 . S
C1237 C1238 1.397 . S
C1237 C1242 1.363 1_554 S
C1238 H1215 0.950 . S
C1238 C1237 1.397 . S
C1238 C1239 1.334 . S
C1239 H1216 0.950 . S
C1239 C1238 1.334 . S
C1239 C1240 1.287 . S
C1240 C1239 1.287 . S
C1240 C1241 1.524 . S
C1240 H1259 0.913 . S
C1241 H1217 0.950 1_554 S
C1241 C1240 1.524 . S
C1241 C1242 1.415 1_554 S
C1242 H1218 0.950 . S
C1242 C1237 1.363 1_556 S
C1242 C1241 1.415 1_556 S
C1243 H1219 0.951 . S
C1243 C1244 1.369 . S
C1243 C1245 1.388 . S
C1244 C1243 1.369 . S
C1244 C1248 1.382 1_554 S
C1245 H1220 0.951 . S
C1245 C1243 1.388 . S
C1245 C1246 1.366 1_554 S
C1246 C1245 1.366 1_556 S
C1246 C1247 1.414 . S
C1246 C1249 1.499 . S
C1247 H1221 0.950 . S
C1247 C1246 1.414 . S
C1247 C1248 1.374 . S
C1248 H1222 0.950 . S
C1248 C1244 1.382 1_556 S
C1248 C1247 1.374 . S
C1249 C1246 1.499 . S
C1249 C1250 1.373 1_556 S
C1249 C1251 1.389 . S
C1250 H1223 0.950 . S
C1250 C1236 1.377 . S
C1250 C1249 1.373 1_554 S
C1251 C1235 1.377 . S
C1251 C1249 1.389 . S
C1251 C1252 1.524 . S
C1252 C1251 1.524 . S
C1252 C1253 1.397 . S
C1252 C1257 1.363 1_556 S
C1253 H1224 0.950 . S
C1253 C1252 1.397 . S
C1253 C1254 1.334 . S
C1254 H1225 0.950 . S
C1254 C1253 1.334 . S
C1254 C1255 1.287 . S
C1255 C1254 1.287 . S
C1255 C1256 1.524 . S
C1255 H1258 0.999 . S
C1256 H1226 0.950 1_556 S
C1256 C1255 1.524 . S
C1256 C1257 1.415 1_556 S
C1257 H1227 0.950 . S
C1257 C1252 1.363 1_554 S
C1257 C1256 1.415 1_554 S
H1258 C1255 0.999 . S
H1259 C1240 0.913 . S
H1260 C1278 0.951 . S
H1261 C1280 0.951 . S
H1262 C1282 0.950 . S
H1263 C1283 0.950 . S
H1264 C1285 0.950 . S
H1265 C1288 0.950 . S
H1266 C1289 0.950 . S
H1267 C1291 0.950 . S
H1268 C1292 0.950 . S
H1269 C1293 0.951 . S
H1270 C1295 0.951 . S
H1271 C1297 0.950 . S
H1272 C1298 0.950 . S
H1273 C1300 0.950 . S
H1274 C1303 0.950 . S
H1275 C1304 0.950 . S
H1276 C1306 0.950 . S
H1277 C1307 0.950 . S
C1278 H1260 0.951 . S
C1278 C1279 1.366 . S
C1278 C1280 1.388 . S
C1279 C1278 1.366 . S
C1279 C1283 1.385 . S
C1280 H1261 0.951 . S
C1280 C1278 1.388 . S
C1280 C1281 1.366 . S
C1281 C1280 1.366 . S
C1281 C1282 1.414 . S
C1281 C1284 1.499 . S
C1282 H1262 0.950 . S
C1282 C1281 1.414 . S
C1282 C1283 1.374 . S
C1283 H1263 0.950 . S
C1283 C1279 1.385 . S
C1283 C1282 1.374 . S
C1284 C1281 1.499 . S
C1284 C1285 1.373 . S
C1284 C1286 1.389 . S
C1285 H1264 0.950 . S
C1285 C1284 1.373 . S
C1285 C1301 1.377 . S
C1286 C1284 1.389 . S
C1286 C1287 1.524 . S
C1286 C1300 1.377 . S
C1287 C1286 1.524 . S
C1287 C1288 1.397 . S
C1287 C1292 1.363 . S
C1288 H1265 0.950 . S
C1288 C1287 1.397 . S
C1288 C1289 1.334 . S
C1289 H1266 0.950 . S
C1289 C1288 1.334 . S
C1289 C1290 1.287 . S
C1290 C1289 1.287 . S
C1290 C1291 1.524 . S
C1290 H1309 0.913 . S
C1291 H1267 0.950 . S
C1291 C1290 1.524 . S
C1291 C1292 1.415 . S
C1292 H1268 0.950 . S
C1292 C1287 1.363 . S
C1292 C1291 1.415 . S
C1293 H1269 0.951 . S
C1293 C1294 1.366 . S
C1293 C1295 1.388 . S
C1294 C1293 1.366 . S
C1294 C1298 1.385 . S
C1295 H1270 0.951 . S
C1295 C1293 1.388 . S
C1295 C1296 1.366 . S
C1296 C1295 1.366 . S
C1296 C1297 1.414 . S
C1296 C1299 1.499 . S
C1297 H1271 0.950 . S
C1297 C1296 1.414 . S
C1297 C1298 1.374 . S
C1298 H1272 0.950 . S
C1298 C1294 1.385 . S
C1298 C1297 1.374 . S
C1299 C1296 1.499 . S
C1299 C1300 1.373 . S
C1299 C1301 1.389 . S
C1300 H1273 0.950 . S
C1300 C1286 1.377 . S
C1300 C1299 1.373 . S
C1301 C1285 1.377 . S
C1301 C1299 1.389 . S
C1301 C1302 1.524 . S
C1302 C1301 1.524 . S
C1302 C1303 1.397 . S
C1302 C1307 1.363 . S
C1303 H1274 0.950 . S
C1303 C1302 1.397 . S
C1303 C1304 1.334 . S
C1304 H1275 0.950 . S
C1304 C1303 1.334 . S
C1304 C1305 1.287 . S
C1305 C1304 1.287 . S
C1305 C1306 1.524 . S
C1305 H1308 0.999 . S
C1306 H1276 0.950 . S
C1306 C1305 1.524 . S
C1306 C1307 1.415 . S
C1307 H1277 0.950 . S
C1307 C1302 1.363 . S
C1307 C1306 1.415 . S
H1308 C1305 0.999 . S
H1309 C1290 0.913 . S
H1310 C1328 0.951 . S
H1311 C1330 0.951 . S
H1312 C1332 0.951 . S
H1313 C1333 0.950 . S
H1314 C1335 0.950 . S
H1315 C1338 0.950 . S
H1316 C1339 0.950 . S
H1317 C1341 0.950 . S
H1318 C1342 0.950 . S
H1319 C1343 0.951 1_554 S
H1320 C1345 0.951 . S
H1321 C1347 0.950 1_554 S
H1322 C1348 0.950 . S
H1323 C1350 0.950 . S
H1324 C1353 0.950 . S
H1325 C1354 0.950 . S
H1326 C1356 0.950 . S
H1327 C1357 0.950 . S
C1328 H1310 0.951 . S
C1328 C1329 1.366 . S
C1328 C1330 1.389 . S
C1329 C1328 1.366 . S
C1329 C1333 1.385 . S
C1330 H1311 0.951 . S
C1330 C1328 1.389 . S
C1330 C1331 1.366 . S
C1331 C1330 1.366 . S
C1331 C1332 1.414 . S
C1331 C1334 1.499 . S
C1332 H1312 0.951 . S
C1332 C1331 1.414 . S
C1332 C1333 1.374 . S
C1333 H1313 0.950 . S
C1333 C1329 1.385 . S
C1333 C1332 1.374 . S
C1334 C1331 1.499 . S
C1334 C1335 1.373 1_554 S
C1334 C1336 1.389 . S
C1335 H1314 0.950 . S
C1335 C1334 1.373 1_556 S
C1335 C1351 1.377 . S
C1336 C1334 1.389 . S
C1336 C1337 1.524 . S
C1336 C1350 1.377 . S
C1337 C1336 1.524 . S
C1337 C1338 1.397 . S
C1337 C1342 1.363 . S
C1338 H1315 0.950 . S
C1338 C1337 1.397 . S
C1338 C1339 1.334 . S
C1339 H1316 0.950 . S
C1339 C1338 1.334 . S
C1339 C1340 1.287 . S
C1340 C1339 1.287 . S
C1340 C1341 1.524 . S
C1340 H1359 0.913 . S
C1341 H1317 0.950 . S
C1341 C1340 1.524 . S
C1341 C1342 1.415 . S
C1342 H1318 0.950 . S
C1342 C1337 1.363 . S
C1342 C1341 1.415 . S
C1343 H1319 0.951 1_556 S
C1343 C1344 1.366 1_556 S
C1343 C1345 1.388 . S
C1344 C1343 1.366 1_554 S
C1344 C1348 1.385 . S
C1345 H1320 0.951 . S
C1345 C1343 1.388 . S
C1345 C1346 1.366 . S
C1346 C1345 1.366 . S
C1346 C1347 1.414 . S
C1346 C1349 1.499 . S
C1347 H1321 0.950 1_556 S
C1347 C1346 1.414 . S
C1347 C1348 1.374 1_556 S
C1348 H1322 0.950 . S
C1348 C1344 1.385 . S
C1348 C1347 1.374 1_554 S
C1349 C1346 1.499 . S
C1349 C1350 1.373 1_556 S
C1349 C1351 1.389 . S
C1350 H1323 0.950 . S
C1350 C1336 1.377 . S
C1350 C1349 1.373 1_554 S
C1351 C1335 1.377 . S
C1351 C1349 1.389 . S
C1351 C1352 1.524 . S
C1352 C1351 1.524 . S
C1352 C1353 1.397 . S
C1352 C1357 1.363 . S
C1353 H1324 0.950 . S
C1353 C1352 1.397 . S
C1353 C1354 1.334 . S
C1354 H1325 0.950 . S
C1354 C1353 1.334 . S
C1354 C1355 1.287 . S
C1355 C1354 1.287 . S
C1355 C1356 1.524 . S
C1355 H1358 0.999 . S
C1356 H1326 0.950 . S
C1356 C1355 1.524 . S
C1356 C1357 1.415 . S
C1357 H1327 0.950 . S
C1357 C1352 1.363 . S
C1357 C1356 1.415 . S
H1358 C1355 0.999 . S
H1359 C1340 0.913 . S
C179 C5 1.381 . S
C194 C119 1.401 . S
C229 C31 1.381 . S
C244 C93 1.403 . S
C294 C102 1.404 . S
C279 C53 1.381 . S
C329 C71 1.381 . S
C344 C110 1.401 . S
C394 C138 1.404 . S
C379 C75 1.381 . S
C444 C146 1.401 . S
C429 C9 1.380 . S
C494 C155 1.401 . S
C479 C27 1.380 . S
C544 C129 1.403 . S
C529 C49 1.381 . S
C579 C51 1.381 . S
C594 C101 1.402 . S
C629 C72 1.381 . S
C644 C111 1.401 . S
C679 C6 1.381 . S
C694 C120 1.401 . S
C744 C92 1.402 . S
C729 C29 1.381 . S
C779 C28 1.381 . S
C794 C156 1.401 . S
C844 C128 1.402 . S
C829 C50 1.380 . S
C894 C137 1.402 . S
C879 C73 1.380 . S
C929 C7 1.381 . S
C944 C147 1.401 . S
C994 C95 1.473 1_554 S
C979 C4 1.462 . S
C1044 C104 1.473 . S
C1029 C30 1.462 . S
C1079 C52 1.462 . S
C1094 C113 1.471 . S
C1129 C70 1.462 . S
C1144 C122 1.471 . S
C1194 C131 1.473 . S
C1179 C74 1.463 . S
C1229 C8 1.462 . S
C1244 C140 1.473 . S
C1279 C26 1.462 . S
C1294 C149 1.471 . S
C1329 C48 1.462 . S
C1344 C158 1.471 1_554 S
