# Generated by pormake.
# Topology wbl, (4,4)-cn, num edge types: 1
# Building blocks:
#     Node 0, Type 0, BuildingBlock: NAWXER_clean_linker_0, # of connection points: 4
#     Node 1, Type 0, BuildingBlock: NAWXER_clean_linker_0, # of connection points: 4
#     Node 2, Type 0, BuildingBlock: NAWXER_clean_linker_0, # of connection points: 4
#     Node 3, Type 0, BuildingBlock: NAWXER_clean_linker_0, # of connection points: 4
#     Node 4, Type 0, BuildingBlock: NAWXER_clean_linker_0, # of connection points: 4
#     Node 5, Type 0, BuildingBlock: NAWXER_clean_linker_0, # of connection points: 4
#     Node 6, Type 0, BuildingBlock: NAWXER_clean_linker_0, # of connection points: 4
#     Node 7, Type 0, BuildingBlock: NAWXER_clean_linker_0, # of connection points: 4
#     Node 8, Type 1, BuildingBlock: GALJAG_clean_sbu_0, # of connection points: 4
#     Node 9, Type 1, BuildingBlock: GALJAG_clean_sbu_0, # of connection points: 4
#     Node 10, Type 1, BuildingBlock: GALJAG_clean_sbu_0, # of connection points: 4
#     Node 11, Type 1, BuildingBlock: GALJAG_clean_sbu_0, # of connection points: 4
#     Node 12, Type 1, BuildingBlock: GALJAG_clean_sbu_0, # of connection points: 4
#     Node 13, Type 1, BuildingBlock: GALJAG_clean_sbu_0, # of connection points: 4
#     Node 14, Type 1, BuildingBlock: GALJAG_clean_sbu_0, # of connection points: 4
#     Node 15, Type 1, BuildingBlock: GALJAG_clean_sbu_0, # of connection points: 4
#     Edge 16, Type (0, 1), BuildingBlock: CIFDUS_clean_linker_0, # of connection points: 2
#     Edge 17, Type (0, 1), BuildingBlock: CIFDUS_clean_linker_0, # of connection points: 2
#     Edge 18, Type (0, 1), BuildingBlock: CIFDUS_clean_linker_0, # of connection points: 2
#     Edge 19, Type (0, 1), BuildingBlock: CIFDUS_clean_linker_0, # of connection points: 2
#     Edge 20, Type (0, 1), BuildingBlock: CIFDUS_clean_linker_0, # of connection points: 2
#     Edge 21, Type (0, 1), BuildingBlock: CIFDUS_clean_linker_0, # of connection points: 2
#     Edge 22, Type (0, 1), BuildingBlock: CIFDUS_clean_linker_0, # of connection points: 2
#     Edge 23, Type (0, 1), BuildingBlock: CIFDUS_clean_linker_0, # of connection points: 2
#     Edge 24, Type (0, 1), BuildingBlock: CIFDUS_clean_linker_0, # of connection points: 2
#     Edge 25, Type (0, 1), BuildingBlock: CIFDUS_clean_linker_0, # of connection points: 2
#     Edge 26, Type (0, 1), BuildingBlock: CIFDUS_clean_linker_0, # of connection points: 2
#     Edge 27, Type (0, 1), BuildingBlock: CIFDUS_clean_linker_0, # of connection points: 2
#     Edge 28, Type (0, 1), BuildingBlock: CIFDUS_clean_linker_0, # of connection points: 2
#     Edge 29, Type (0, 1), BuildingBlock: CIFDUS_clean_linker_0, # of connection points: 2
#     Edge 30, Type (0, 1), BuildingBlock: CIFDUS_clean_linker_0, # of connection points: 2
#     Edge 31, Type (0, 1), BuildingBlock: CIFDUS_clean_linker_0, # of connection points: 2
#     Edge 32, Type (0, 1), BuildingBlock: CIFDUS_clean_linker_0, # of connection points: 2
#     Edge 33, Type (0, 1), BuildingBlock: CIFDUS_clean_linker_0, # of connection points: 2
#     Edge 34, Type (0, 1), BuildingBlock: CIFDUS_clean_linker_0, # of connection points: 2
#     Edge 35, Type (0, 1), BuildingBlock: CIFDUS_clean_linker_0, # of connection points: 2
#     Edge 36, Type (0, 1), BuildingBlock: CIFDUS_clean_linker_0, # of connection points: 2
#     Edge 37, Type (0, 1), BuildingBlock: CIFDUS_clean_linker_0, # of connection points: 2
#     Edge 38, Type (0, 1), BuildingBlock: CIFDUS_clean_linker_0, # of connection points: 2
#     Edge 39, Type (0, 1), BuildingBlock: CIFDUS_clean_linker_0, # of connection points: 2
#     Edge 40, Type (0, 1), BuildingBlock: CIFDUS_clean_linker_0, # of connection points: 2
#     Edge 41, Type (0, 1), BuildingBlock: CIFDUS_clean_linker_0, # of connection points: 2
#     Edge 42, Type (0, 1), BuildingBlock: CIFDUS_clean_linker_0, # of connection points: 2
#     Edge 43, Type (0, 1), BuildingBlock: CIFDUS_clean_linker_0, # of connection points: 2
#     Edge 44, Type (0, 1), BuildingBlock: CIFDUS_clean_linker_0, # of connection points: 2
#     Edge 45, Type (0, 1), BuildingBlock: CIFDUS_clean_linker_0, # of connection points: 2
#     Edge 46, Type (0, 1), BuildingBlock: CIFDUS_clean_linker_0, # of connection points: 2
#     Edge 47, Type (0, 1), BuildingBlock: CIFDUS_clean_linker_0, # of connection points: 2
# Relax obj value: 0.140
# Max RMSD: 0.149
# Mean RMSD: 0.132
data_MOF--net-wbl--node1-GALJAG_clean_sbu_0--node2-NAWXER_clean_linker_0--edge1-CIFDUS_clean_linker_0
_symmetry_space_group_name_H-M    P1
_symmetry_Int_Tables_number       1
_symmetry_cell_setting            triclinic
loop_
_symmetry_equiv_pos_as_xyz
'x, y, z'
_cell_length_a     39.229181
_cell_length_b     39.356166
_cell_length_c     76.443451
_cell_angle_alpha  90.039101
_cell_angle_beta   90.065449
_cell_angle_gamma 89.993406
loop_
_atom_site_label
_atom_site_type_symbol
_atom_site_fract_x
_atom_site_fract_y
_atom_site_fract_z
_atom_type_partial_charge
C0 C 0.06596 0.92465 0.37812 0.0
C1 C 0.08338 0.93972 0.39221 0.0
C2 C 0.05039 0.94486 0.36538 0.0
C3 C 0.05246 0.98046 0.36637 0.0
C4 C 0.08591 0.97532 0.39297 0.0
C5 C 0.07046 0.99545 0.38022 0.0
C6 C 0.0331 0.00235 0.35418 0.0
C7 C 0.11204 0.94836 0.32405 0.0
C8 C 0.0994 0.92555 0.31152 0.0
C9 C 0.09078 0.97284 0.33141 0.0
C10 C 0.05615 0.97436 0.32678 0.0
C11 C 0.06531 0.9283 0.30605 0.0
C12 C 0.04378 0.95254 0.31367 0.0
C13 C 0.03291 0.99824 0.33584 0.0
C14 C 0.93697 0.11293 0.31404 0.0
C15 C 0.9192 0.09575 0.30068 0.0
C16 C 0.96118 0.09597 0.32422 0.0
C17 C 0.96728 0.06109 0.32176 0.0
C18 C 0.92749 0.06153 0.29734 0.0
C19 C 0.95105 0.0444 0.30783 0.0
C20 C 0.99041 0.04164 0.33344 0.0
C21 C 0.91383 0.08326 0.37388 0.0
C22 C 0.9293 0.10394 0.38664 0.0
C23 C 0.93381 0.066 0.36156 0.0
C24 C 0.96943 0.06951 0.36177 0.0
C25 C 0.96474 0.10894 0.38606 0.0
C26 C 0.98459 0.09171 0.37383 0.0
C27 C 0.99152 0.04621 0.35179 0.0
H28 H 0.06325 0.8973 0.37733 0.0
H29 H 0.03581 0.93269 0.35509 0.0
H30 H 0.09955 0.98764 0.40354 0.0
H31 H 0.07219 0.02285 0.38131 0.0
H32 H 0.13847 0.94728 0.32814 0.0
H33 H 0.10135 0.99028 0.34095 0.0
H34 H 0.05515 0.91113 0.29627 0.0
H35 H 0.01728 0.95358 0.30971 0.0
H36 H 0.93152 0.13923 0.31707 0.0
H37 H 0.97467 0.11015 0.33418 0.0
H38 H 0.91538 0.04768 0.2868 0.0
H39 H 0.95589 0.01774 0.3053 0.0
H40 H 0.88659 0.07877 0.37409 0.0
H41 H 0.92167 0.04848 0.35256 0.0
H42 H 0.9773 0.12516 0.39554 0.0
H43 H 0.01205 0.09461 0.37426 0.0
N44 N 0.01277 0.0264 0.36133 0.0
N45 N 0.01126 0.01775 0.32617 0.0
C46 C 0.922 0.41807 0.62486 0.0
C47 C 0.93762 0.40405 0.63975 0.0
C48 C 0.94116 0.43696 0.61289 0.0
C49 C 0.97631 0.44173 0.61554 0.0
C50 C 0.97304 0.40742 0.64186 0.0
C51 C 0.99214 0.4262 0.62992 0.0
C52 C 0.99576 0.46663 0.60506 0.0
C53 C 0.97134 0.38304 0.56762 0.0
C54 C 0.94615 0.39187 0.55537 0.0
C55 C 0.98692 0.40798 0.57784 0.0
C56 C 0.97776 0.44223 0.5759 0.0
C57 C 0.93696 0.42616 0.55342 0.0
C58 C 0.95302 0.45125 0.56347 0.0
C59 C 0.99455 0.4685 0.58666 0.0
C60 C 0.1005 0.57655 0.57164 0.0
C61 C 0.08482 0.59251 0.55726 0.0
C62 C 0.08312 0.55197 0.58131 0.0
C63 C 0.04926 0.54348 0.57718 0.0
C64 C 0.05142 0.58285 0.5527 0.0
C65 C 0.03386 0.55867 0.56257 0.0
C66 C 0.03026 0.51767 0.58739 0.0
C67 C 0.05344 0.59719 0.62956 0.0
C68 C 0.07584 0.58511 0.64253 0.0
C69 C 0.04019 0.57499 0.61694 0.0
C70 C 0.04894 0.5404 0.61723 0.0
C71 C 0.08536 0.5507 0.64237 0.0
C72 C 0.07178 0.52853 0.62996 0.0
C73 C 0.03145 0.51561 0.60584 0.0
H74 H 0.89469 0.41614 0.623 0.0
H75 H 0.92814 0.44941 0.60217 0.0
H76 H 0.98583 0.39647 0.65309 0.0
H77 H 0.01918 0.4296 0.63225 0.0
H78 H 0.97872 0.35675 0.56943 0.0
H79 H 0.00631 0.40055 0.58719 0.0
H80 H 0.91772 0.43354 0.54398 0.0
H81 H 0.9458 0.4776 0.56173 0.0
H82 H 0.12609 0.58335 0.57564 0.0
H83 H 0.09636 0.53956 0.59196 0.0
H84 H 0.03878 0.59388 0.54146 0.0
H85 H 0.00804 0.55204 0.55885 0.0
H86 H 0.04574 0.62361 0.6294 0.0
H87 H 0.02213 0.58454 0.60741 0.0
H88 H 0.10218 0.54058 0.65234 0.0
H89 H 0.07852 0.50184 0.63052 0.0
N90 N 0.01427 0.49016 0.61388 0.0
N91 N 0.01169 0.49401 0.5785 0.0
C92 C 0.57059 0.41813 0.87523 0.0
C93 C 0.59477 0.43118 0.88699 0.0
C94 C 0.55303 0.4399 0.86395 0.0
C95 C 0.55904 0.47505 0.86449 0.0
C96 C 0.60192 0.46613 0.88694 0.0
C97 C 0.58383 0.48799 0.87592 0.0
C98 C 0.53659 0.49845 0.85478 0.0
C99 C 0.61005 0.45876 0.81554 0.0
C100 C 0.59606 0.43283 0.80514 0.0
C101 C 0.58902 0.47944 0.82566 0.0
C102 C 0.55358 0.4748 0.82546 0.0
C103 C 0.56054 0.42822 0.80487 0.0
C104 C 0.53937 0.44942 0.81481 0.0
C105 C 0.53174 0.49636 0.83657 0.0
C106 C 0.43175 0.61203 0.82365 0.0
C107 C 0.41217 0.59659 0.81042 0.0
C108 C 0.45692 0.59364 0.83251 0.0
C109 C 0.46239 0.55908 0.82872 0.0
C110 C 0.41912 0.56256 0.80599 0.0
C111 C 0.44376 0.54404 0.81508 0.0
C112 C 0.48807 0.5385 0.83831 0.0
C113 C 0.41821 0.57303 0.88279 0.0
C114 C 0.43437 0.5958 0.8943 0.0
C115 C 0.43703 0.5561 0.86991 0.0
C116 C 0.47229 0.56152 0.86849 0.0
C117 C 0.46949 0.60178 0.89251 0.0
C118 C 0.48834 0.58448 0.87985 0.0
C119 C 0.49327 0.54066 0.85661 0.0
H120 H 0.56457 0.39126 0.87517 0.0
H121 H 0.53356 0.42949 0.85543 0.0
H122 H 0.6202 0.47673 0.89608 0.0
H123 H 0.58853 0.51509 0.87663 0.0
H124 H 0.63737 0.46263 0.81608 0.0
H125 H 0.60043 0.49908 0.8337 0.0
H126 H 0.54922 0.40843 0.7969 0.0
H127 H 0.51204 0.44555 0.81448 0.0
H128 H 0.42726 0.63815 0.82745 0.0
H129 H 0.47202 0.60657 0.84232 0.0
H130 H 0.40543 0.55003 0.79551 0.0
H131 H 0.44793 0.51769 0.81157 0.0
H132 H 0.39115 0.56805 0.8839 0.0
H133 H 0.42431 0.53799 0.86145 0.0
H134 H 0.48262 0.61891 0.90134 0.0
H135 H 0.5156 0.58863 0.87909 0.0
N136 N 0.51736 0.52061 0.86409 0.0
N137 N 0.5076 0.51629 0.82898 0.0
C138 C 0.43822 0.88433 0.07515 0.0
C139 C 0.41563 0.89582 0.06219 0.0
C140 C 0.462 0.90639 0.08253 0.0
C141 C 0.46301 0.94071 0.07751 0.0
C142 C 0.41805 0.92954 0.0563 0.0
C143 C 0.44157 0.95188 0.06395 0.0
C144 C 0.48566 0.96491 0.08678 0.0
C145 C 0.40915 0.93074 0.1275 0.0
C146 C 0.42346 0.91548 0.14246 0.0
C147 C 0.43 0.94649 0.11509 0.0
C148 C 0.46559 0.94666 0.11721 0.0
C149 C 0.4591 0.91574 0.14448 0.0
C150 C 0.47987 0.93112 0.132 0.0
C151 C 0.48806 0.96587 0.10521 0.0
C152 C 0.5692 0.08577 0.12489 0.0
C153 C 0.58829 0.07073 0.13841 0.0
C154 C 0.55225 0.06543 0.11259 0.0
C155 C 0.55466 0.02986 0.11355 0.0
C156 C 0.59196 0.03525 0.13874 0.0
C157 C 0.57521 0.01505 0.12648 0.0
C158 C 0.5319 0.0076 0.10328 0.0
C159 C 0.60126 0.06136 0.06656 0.0
C160 C 0.58462 0.07897 0.05299 0.0
C161 C 0.58389 0.03696 0.0764 0.0
C162 C 0.54913 0.03048 0.07334 0.0
C163 C 0.5507 0.07013 0.04898 0.0
C164 C 0.53315 0.04637 0.0591 0.0
C165 C 0.52893 0.00768 0.08483 0.0
H166 H 0.43741 0.8582 0.07959 0.0
H167 H 0.47915 0.89676 0.09248 0.0
H168 H 0.40107 0.93883 0.04619 0.0
H169 H 0.44223 0.97812 0.05969 0.0
H170 H 0.38183 0.93086 0.12548 0.0
H171 H 0.41821 0.95923 0.10409 0.0
H172 H 0.47103 0.905 0.156 0.0
H173 H 0.5072 0.9314 0.13408 0.0
H174 H 0.56582 0.11307 0.12441 0.0
H175 H 0.53594 0.07735 0.10294 0.0
H176 H 0.60692 0.02302 0.14886 0.0
H177 H 0.57724 0.98766 0.12751 0.0
H178 H 0.62735 0.06719 0.07006 0.0
H179 H 0.59756 0.02376 0.08666 0.0
H180 H 0.53734 0.0821 0.03823 0.0
H181 H 0.50664 0.04122 0.0561 0.0
N182 N 0.50583 0.98622 0.07729 0.0
N183 N 0.51134 0.98678 0.11261 0.0
C184 C 0.04822 0.5771 0.87393 0.0
C185 C 0.06366 0.56039 0.85974 0.0
C186 C 0.03537 0.55849 0.88805 0.0
C187 C 0.03823 0.52289 0.88833 0.0
C188 C 0.06723 0.52487 0.86029 0.0
C189 C 0.05452 0.50634 0.8744 0.0
C190 C 0.02049 0.50241 0.90176 0.0
C191 C 0.10091 0.56048 0.92985 0.0
C192 C 0.08969 0.58195 0.94334 0.0
C193 C 0.07884 0.53673 0.9224 0.0
C194 C 0.04469 0.53464 0.92788 0.0
C195 C 0.05594 0.57916 0.94929 0.0
C196 C 0.0336 0.55576 0.94158 0.0
C197 C 0.02098 0.50964 0.91987 0.0
C198 C 0.91788 0.40476 0.94669 0.0
C199 C 0.90068 0.42618 0.95852 0.0
C200 C 0.94434 0.41733 0.93629 0.0
C201 C 0.95331 0.45191 0.93695 0.0
C202 C 0.91209 0.45993 0.96033 0.0
C203 C 0.93782 0.47267 0.94959 0.0
C204 C 0.978 0.4673 0.9245 0.0
C205 C 0.90307 0.42008 0.88402 0.0
C206 C 0.91853 0.39303 0.87492 0.0
C207 C 0.92221 0.44034 0.89544 0.0
C208 C 0.95703 0.43383 0.89791 0.0
C209 C 0.95287 0.3853 0.87847 0.0
C210 C 0.97202 0.40579 0.88966 0.0
C211 C 0.97916 0.45901 0.90652 0.0
H212 H 0.04477 0.60441 0.87378 0.0
H213 H 0.022 0.57182 0.89837 0.0
H214 H 0.07946 0.51133 0.84967 0.0
H215 H 0.05679 0.4789 0.87425 0.0
H216 H 0.12707 0.56151 0.92535 0.0
H217 H 0.0887 0.51975 0.91247 0.0
H218 H 0.0468 0.59528 0.95977 0.0
H219 H 0.00757 0.55436 0.94624 0.0
H220 H 0.91019 0.37858 0.94493 0.0
H221 H 0.95721 0.39998 0.92754 0.0
H222 H 0.90056 0.47692 0.96976 0.0
H223 H 0.94477 0.49921 0.95079 0.0
H224 H 0.87679 0.42696 0.88149 0.0
H225 H 0.91038 0.46224 0.90153 0.0
H226 H 0.96539 0.36422 0.87201 0.0
H227 H 0.99893 0.40052 0.89137 0.0
N228 N 0.00011 0.47701 0.89594 0.0
N229 N 0.99927 0.49217 0.93047 0.0
C230 C 0.42534 0.56442 0.12676 0.0
C231 C 0.44295 0.58582 0.11509 0.0
C232 C 0.44233 0.54944 0.14091 0.0
C233 C 0.47716 0.55568 0.14365 0.0
C234 C 0.4774 0.59325 0.11846 0.0
C235 C 0.49437 0.57808 0.13247 0.0
C236 C 0.49706 0.53526 0.15626 0.0
C237 C 0.43115 0.60265 0.18952 0.0
C238 C 0.41317 0.58683 0.20311 0.0
C239 C 0.4552 0.58449 0.17982 0.0
C240 C 0.46086 0.54978 0.18313 0.0
C241 C 0.41883 0.55233 0.20657 0.0
C242 C 0.44227 0.53391 0.19658 0.0
C243 C 0.48831 0.53063 0.17405 0.0
C244 C 0.60486 0.44335 0.20043 0.0
C245 C 0.58627 0.42006 0.21061 0.0
C246 C 0.58797 0.4665 0.18959 0.0
C247 C 0.5522 0.46667 0.18865 0.0
C248 C 0.55043 0.42093 0.20992 0.0
C249 C 0.53362 0.44414 0.19915 0.0
C250 C 0.53378 0.49042 0.177 0.0
C251 C 0.58572 0.42065 0.13765 0.0
C252 C 0.60699 0.43735 0.12561 0.0
C253 C 0.56635 0.43934 0.14962 0.0
C254 C 0.56823 0.47498 0.14985 0.0
C255 C 0.61047 0.47284 0.12669 0.0
C256 C 0.59109 0.49147 0.13861 0.0
C257 C 0.54251 0.49534 0.1593 0.0
H258 H 0.3989 0.55786 0.12447 0.0
H259 H 0.42872 0.53165 0.14915 0.0
H260 H 0.49157 0.61017 0.10999 0.0
H261 H 0.5213 0.58312 0.13431 0.0
H262 H 0.42772 0.6295 0.18693 0.0
H263 H 0.47022 0.59812 0.17027 0.0
H264 H 0.4054 0.53976 0.21712 0.0
H265 H 0.44635 0.50733 0.19961 0.0
H266 H 0.63244 0.44376 0.20088 0.0
H267 H 0.60287 0.48432 0.18197 0.0
H268 H 0.53528 0.40305 0.21735 0.0
H269 H 0.50601 0.44391 0.1987 0.0
H270 H 0.58221 0.39338 0.13701 0.0
H271 H 0.54828 0.42606 0.15785 0.0
H272 H 0.62703 0.48637 0.11776 0.0
H273 H 0.5928 0.51895 0.13851 0.0
N274 N 0.52387 0.5176 0.14971 0.0
N275 N 0.50704 0.50822 0.18365 0.0
C276 C 0.44146 0.89992 0.37869 0.0
C277 C 0.42163 0.91533 0.36554 0.0
C278 C 0.45833 0.91979 0.3912 0.0
C279 C 0.45551 0.95537 0.39081 0.0
C280 C 0.41819 0.95091 0.36556 0.0
C281 C 0.43519 0.97068 0.37795 0.0
C282 C 0.47593 0.97708 0.40264 0.0
C283 C 0.3998 0.92507 0.43716 0.0
C284 C 0.41284 0.90846 0.45196 0.0
C285 C 0.42082 0.94561 0.42693 0.0
C286 C 0.45566 0.94901 0.43093 0.0
C287 C 0.44746 0.91211 0.45617 0.0
C288 C 0.46872 0.93206 0.44568 0.0
C289 C 0.47779 0.97269 0.42096 0.0
C290 C 0.56311 0.09099 0.44542 0.0
C291 C 0.58605 0.07372 0.45647 0.0
C292 C 0.54117 0.07286 0.43436 0.0
C293 C 0.54192 0.03719 0.43412 0.0
C294 C 0.58619 0.03796 0.45632 0.0
C295 C 0.56417 0.01996 0.44539 0.0
C296 C 0.5192 0.01726 0.4226 0.0
C297 C 0.591 0.07261 0.38561 0.0
C298 C 0.57567 0.08798 0.37091 0.0
C299 C 0.57201 0.05191 0.39685 0.0
C300 C 0.53688 0.04723 0.39413 0.0
C301 C 0.5404 0.08345 0.3684 0.0
C302 C 0.52132 0.06364 0.37991 0.0
C303 C 0.51663 0.02223 0.40433 0.0
H304 H 0.44496 0.87264 0.37894 0.0
H305 H 0.47444 0.90744 0.40079 0.0
H306 H 0.40259 0.96359 0.35586 0.0
H307 H 0.43269 0.99808 0.37739 0.0
H308 H 0.37295 0.92331 0.43393 0.0
H309 H 0.40939 0.9597 0.41629 0.0
H310 H 0.45796 0.89972 0.46762 0.0
H311 H 0.49533 0.93464 0.44925 0.0
H312 H 0.56197 0.11847 0.44538 0.0
H313 H 0.52362 0.08666 0.42604 0.0
H314 H 0.60389 0.02375 0.46436 0.0
H315 H 0.56506 0.99243 0.44546 0.0
H316 H 0.61793 0.07574 0.38823 0.0
H317 H 0.58525 0.03861 0.40721 0.0
H318 H 0.52749 0.09388 0.3571 0.0
H319 H 0.49438 0.06018 0.3773 0.0
N320 N 0.49511 0.00182 0.39518 0.0
N321 N 0.49969 0.99274 0.43014 0.0
C322 C 0.09279 0.94452 0.63071 0.0
C323 C 0.07884 0.92003 0.61942 0.0
C324 C 0.07182 0.96229 0.64232 0.0
C325 C 0.03656 0.95605 0.64266 0.0
C326 C 0.04359 0.91376 0.61984 0.0
C327 C 0.02257 0.93193 0.63122 0.0
C328 C 0.01402 0.97541 0.65449 0.0
C329 C 0.07201 0.90141 0.6862 0.0
C330 C 0.09339 0.9152 0.69908 0.0
C331 C 0.04759 0.92155 0.678 0.0
C332 C 0.04483 0.95631 0.682 0.0
C333 C 0.08969 0.94948 0.70381 0.0
C334 C 0.06564 0.96997 0.69525 0.0
C335 C 0.01959 0.97788 0.67271 0.0
C336 C 0.89933 0.0618 0.697 0.0
C337 C 0.91634 0.08506 0.70794 0.0
C338 C 0.9178 0.03967 0.68626 0.0
C339 C 0.95361 0.04055 0.68616 0.0
C340 C 0.95222 0.08533 0.70802 0.0
C341 C 0.9706 0.06315 0.69734 0.0
C342 C 0.97373 0.01764 0.67481 0.0
C343 C 0.92009 0.08558 0.63454 0.0
C344 C 0.89775 0.06749 0.62349 0.0
C345 C 0.94141 0.06831 0.64624 0.0
C346 C 0.94076 0.0327 0.64708 0.0
C347 C 0.89588 0.03193 0.62519 0.0
C348 C 0.91745 0.01474 0.6367 0.0
C349 C 0.96726 0.01376 0.65673 0.0
H350 H 0.11989 0.94983 0.63056 0.0
H351 H 0.08302 0.98119 0.65088 0.0
H352 H 0.0322 0.89531 0.61108 0.0
H353 H 0.9954 0.92697 0.6312 0.0
H354 H 0.07379 0.87477 0.68272 0.0
H355 H 0.03072 0.90976 0.66857 0.0
H356 H 0.10566 0.96042 0.71392 0.0
H357 H 0.06356 0.99653 0.69883 0.0
H358 H 0.87176 0.06053 0.69683 0.0
H359 H 0.90408 0.02174 0.67813 0.0
H360 H 0.9662 0.10323 0.71605 0.0
H361 H 0.99821 0.06417 0.69755 0.0
H362 H 0.92252 0.1129 0.63348 0.0
H363 H 0.95966 0.08263 0.65393 0.0
H364 H 0.87848 0.01722 0.6172 0.0
H365 H 0.91662 0.98723 0.63715 0.0
N366 N 0.98779 0.99295 0.64728 0.0
N367 N -0.00042 -0.00061 0.68214 0.0
In368 In 0.30127 0.68377 0.00689 0.0
O369 O 0.29537 0.73268 0.02291 0.0
O370 O 0.32595 0.73467 0.00015 0.0
C371 C 0.23551 0.67109 0.99809 0.0
C372 C 0.32984 0.657 0.03603 0.0
C373 C 0.33249 0.65351 0.97957 0.0
O374 O 0.25327 0.6931 0.99034 0.0
O375 O 0.25038 0.65672 0.01066 0.0
O376 O 0.31678 0.63677 0.99113 0.0
O377 O 0.33287 0.68521 0.98201 0.0
C378 C 0.31486 0.75012 0.01338 0.0
O379 O 0.34597 0.66023 0.02185 0.0
O380 O 0.29926 0.66674 0.0354 0.0
In381 In 0.3051 0.80247 0.25337 0.0
O382 O 0.28728 0.75647 0.23772 0.0
O383 O 0.32519 0.74852 0.25711 0.0
C384 C 0.24062 0.82048 0.26151 0.0
C385 C 0.33838 0.82521 0.22495 0.0
C386 C 0.3399 0.83341 0.27945 0.0
O387 O 0.25892 0.8025 0.27143 0.0
O388 O 0.25431 0.82814 0.24713 0.0
O389 O 0.33369 0.84734 0.26496 0.0
O390 O 0.32878 0.80343 0.28088 0.0
C391 C 0.30777 0.73597 0.24481 0.0
O392 O 0.35097 0.80372 0.23537 0.0
O393 O 0.30903 0.83582 0.22903 0.0
In394 In 0.18641 0.82074 0.50554 0.0
O395 O 0.1833 0.86842 0.52245 0.0
O396 O 0.18011 0.82044 0.53514 0.0
C397 C 0.1524 0.85246 0.47946 0.0
C398 C 0.15502 0.76119 0.51218 0.0
C399 C 0.25218 0.82162 0.49475 0.0
O400 O 0.15138 0.86238 0.49512 0.0
O401 O 0.17006 0.82618 0.47697 0.0
O402 O 0.22993 0.80249 0.48811 0.0
O403 O 0.24176 0.83904 0.5075 0.0
C404 C 0.17904 0.85237 0.53658 0.0
O405 O 0.18687 0.76488 0.51379 0.0
O406 O 0.13941 0.78718 0.50678 0.0
In407 In 0.18151 0.69672 0.7571 0.0
O408 O 0.14009 0.66456 0.76973 0.0
O409 O 0.16864 0.69781 0.78613 0.0
C410 C 0.162 0.67187 0.7257 0.0
C411 C 0.24081 0.66759 0.76694 0.0
C412 C 0.1738 0.76423 0.75167 0.0
O413 O 0.1408 0.68167 0.73705 0.0
O414 O 0.19281 0.67473 0.73019 0.0
O415 O 0.19609 0.74688 0.74381 0.0
O416 O 0.15664 0.74787 0.76273 0.0
C417 C 0.14575 0.67534 0.78503 0.0
O418 O 0.23745 0.69955 0.76645 0.0
O419 O 0.21497 0.6512 0.76204 0.0
In420 In 0.81078 0.18126 0.50576 0.0
O421 O 0.80364 0.2351 0.51689 0.0
O422 O 0.85217 0.22142 0.50694 0.0
C423 C 0.74506 0.17136 0.49626 0.0
C424 C 0.82345 0.1434 0.5345 0.0
C425 C 0.84641 0.16059 0.47742 0.0
O426 O 0.76244 0.19616 0.49084 0.0
O427 O 0.76036 0.15246 0.50702 0.0
O428 O 0.85582 0.15462 0.49289 0.0
O429 O 0.81902 0.17716 0.47617 0.0
C430 C 0.83415 0.24382 0.5142 0.0
O431 O 0.82597 0.13193 0.51913 0.0
O432 O 0.81344 0.17385 0.53545 0.0
In433 In 0.81335 0.31138 0.75404 0.0
O434 O 0.85124 0.34901 0.74267 0.0
O435 O 0.82247 0.31937 0.72474 0.0
C436 C 0.84689 0.32185 0.7844 0.0
C437 C 0.81802 0.24459 0.7458 0.0
C438 C 0.75327 0.34374 0.7589 0.0
O439 O 0.86135 0.32178 0.76967 0.0
O440 O 0.81528 0.31571 0.78396 0.0
O441 O 0.75743 0.31294 0.76301 0.0
O442 O 0.7789 0.35749 0.75198 0.0
C443 C 0.8452 0.34166 0.72691 0.0
O444 O 0.79653 0.26409 0.73875 0.0
O445 O 0.83559 0.25833 0.75764 0.0
In446 In 0.67179 0.31782 0.00515 0.0
O447 O 0.6776 0.26147 0.01299 0.0
O448 O 0.62811 0.28089 0.00784 0.0
C449 C 0.73711 0.33524 0.99915 0.0
C450 C 0.65796 0.35463 0.0341 0.0
C451 C 0.64353 0.33331 0.97394 0.0
O452 O 0.72772 0.30445 0.9992 0.0
O453 O 0.7139 0.35635 0.00259 0.0
O454 O 0.62849 0.33812 0.98829 0.0
O455 O 0.67262 0.3199 0.97521 0.0
C456 C 0.64588 0.25581 0.01244 0.0
O457 O 0.64975 0.36394 0.0189 0.0
O458 O 0.67342 0.32653 0.03481 0.0
In459 In 0.68147 0.18793 0.25487 0.0
O460 O 0.63429 0.18484 0.27235 0.0
O461 O 0.68277 0.17691 0.28414 0.0
C462 C 0.65236 0.155 0.22754 0.0
C463 C 0.74338 0.15981 0.25994 0.0
C464 C 0.67681 0.25478 0.24707 0.0
O465 O 0.64614 0.14758 0.24324 0.0
O466 O 0.67317 0.17903 0.22559 0.0
O467 O 0.69909 0.23567 0.24039 0.0
O468 O 0.65806 0.24052 0.25824 0.0
C469 C 0.65087 0.17793 0.28607 0.0
O470 O 0.73808 0.1912 0.26221 0.0
O471 O 0.71784 0.14322 0.25471 0.0
H472 H 0.11318 0.91239 0.27735 0.0
H473 H 0.13684 0.87991 0.32982 0.0
H474 H 0.17986 0.84064 0.3186 0.0
H475 H 0.21471 0.82023 0.29426 0.0
H476 H 0.19421 0.85549 0.24188 0.0
H477 H 0.14562 0.88848 0.25256 0.0
C478 C 0.1274 0.89621 0.28623 0.0
C479 C 0.12216 0.89906 0.30435 0.0
C480 C 0.15272 0.87436 0.27971 0.0
C481 C 0.1408 0.87827 0.31582 0.0
C482 C 0.16533 0.85585 0.30942 0.0
C483 C 0.19922 0.83461 0.28513 0.0
C484 C 0.20809 0.83557 0.26734 0.0
C485 C 0.17212 0.85435 0.29144 0.0
C486 C 0.18791 0.85446 0.25566 0.0
C487 C 0.16023 0.87343 0.26177 0.0
H488 H 0.05751 0.65 0.54315 0.0
H489 H 0.15298 0.59655 0.54916 0.0
H490 H 0.18304 0.64345 0.53517 0.0
H491 H 0.18254 0.7009 0.5224 0.0
H492 H 0.08655 0.75267 0.51523 0.0
H493 H 0.05631 0.70459 0.528 0.0
C494 C 0.08478 0.64812 0.5411 0.0
C495 C 0.10287 0.61978 0.54742 0.0
C496 C 0.10188 0.67489 0.53277 0.0
C497 C 0.13838 0.61832 0.54484 0.0
C498 C 0.15562 0.64505 0.5367 0.0
C499 C 0.15498 0.70145 0.52347 0.0
C500 C 0.13684 0.73037 0.51799 0.0
C501 C 0.13769 0.67367 0.53083 0.0
C502 C 0.10112 0.7307 0.51936 0.0
C503 C 0.0838 0.70328 0.52672 0.0
H504 H 0.35112 0.57119 0.79983 0.0
H505 H 0.40905 0.66443 0.80141 0.0
H506 H 0.36133 0.69491 0.78812 0.0
H507 H 0.30247 0.69506 0.77624 0.0
H508 H 0.24716 0.60035 0.77338 0.0
H509 H 0.29497 0.57045 0.78648 0.0
C510 C 0.3538 0.59803 0.79697 0.0
C511 C 0.38383 0.61532 0.80166 0.0
C512 C 0.32666 0.61523 0.789 0.0
C513 C 0.38613 0.65041 0.79823 0.0
C514 C 0.3589 0.66787 0.79049 0.0
C515 C 0.30107 0.66786 0.7784 0.0
C516 C 0.27125 0.65003 0.77388 0.0
C517 C 0.32893 0.65056 0.78589 0.0
C518 C 0.26979 0.61475 0.7767 0.0
C519 C 0.2971 0.59757 0.78425 0.0
H520 H 0.40378 0.87982 0.02812 0.0
H521 H 0.36968 0.85892 0.0806 0.0
H522 H 0.33118 0.81493 0.06964 0.0
H523 H 0.3121 0.77832 0.04563 0.0
H524 H 0.3494 0.79598 0.99338 0.0
H525 H 0.38117 0.84567 0.00361 0.0
C526 C 0.38742 0.86599 0.03705 0.0
C527 C 0.38961 0.8723 0.05511 0.0
C528 C 0.36603 0.84009 0.0307 0.0
C529 C 0.36857 0.85413 0.06664 0.0
C530 C 0.34657 0.82905 0.06039 0.0
C531 C 0.32656 0.79351 0.03642 0.0
C532 C 0.32847 0.78351 0.0188 0.0
C533 C 0.34575 0.8212 0.04251 0.0
C534 C 0.34759 0.80319 0.00703 0.0
C535 C 0.3659 0.83149 0.01288 0.0
H536 H 0.10384 0.58918 0.97787 0.0
H537 H 0.13009 0.62821 0.92697 0.0
H538 H 0.17488 0.6634 0.93995 0.0
H539 H 0.21032 0.67835 0.96532 0.0
H540 H 0.18708 0.63565 0.01585 0.0
H541 H 0.13701 0.60718 0.00362 0.0
C542 C 0.11899 0.60591 0.96972 0.0
C543 C 0.11386 0.60611 0.95152 0.0
C544 C 0.14529 0.62531 0.97722 0.0
C545 C 0.13385 0.62752 0.94101 0.0
C546 C 0.1594 0.64763 0.94842 0.0
C547 C 0.19383 0.66343 0.97371 0.0
C548 C 0.20229 0.65909 0.99144 0.0
C549 C 0.1659 0.64609 0.96645 0.0
C550 C 0.18103 0.63931 0.00214 0.0
C551 C 0.15251 0.62292 0.99515 0.0
H552 H 0.35715 0.62246 0.19359 0.0
H553 H 0.41991 0.59728 0.23799 0.0
H554 H 0.3891 0.63857 0.25602 0.0
H555 H 0.3495 0.68696 0.25782 0.0
H556 H 0.28605 0.71139 0.21343 0.0
H557 H 0.31121 0.66472 0.19686 0.0
C558 C 0.36351 0.62568 0.2073 0.0
C559 C 0.39081 0.60733 0.2145 0.0
C560 C 0.34564 0.64933 0.21755 0.0
C561 C 0.39889 0.61127 0.23227 0.0
C562 C 0.3814 0.63493 0.24252 0.0
C563 C 0.34058 0.68151 0.24468 0.0
C564 C 0.31633 0.70289 0.23678 0.0
C565 C 0.35544 0.65484 0.23514 0.0
C566 C 0.30479 0.69538 0.2198 0.0
C567 C 0.31937 0.66887 0.21024 0.0
H568 H 0.37075 0.85682 0.44303 0.0
H569 H 0.40247 0.9184 0.48673 0.0
H570 H 0.35744 0.89369 0.50487 0.0
H571 H 0.30489 0.85969 0.50703 0.0
H572 H 0.27379 0.79758 0.46329 0.0
H573 H 0.32304 0.81682 0.44655 0.0
C574 C 0.36803 0.86433 0.45662 0.0
C575 C 0.38948 0.88952 0.46355 0.0
C576 C 0.34215 0.85004 0.46691 0.0
C577 C 0.38616 0.89895 0.48118 0.0
C578 C 0.36035 0.88498 0.49151 0.0
C579 C 0.30931 0.84985 0.49397 0.0
C580 C 0.28551 0.82763 0.48632 0.0
C581 C 0.33758 0.86122 0.48435 0.0
C582 C 0.29167 0.81483 0.46945 0.0
C583 C 0.31972 0.82598 0.45981 0.0
H584 H 0.09582 0.89853 0.73338 0.0
H585 H 0.14553 0.88089 0.684 0.0
H586 H 0.17987 0.83556 0.69704 0.0
H587 H 0.18939 0.79579 0.72125 0.0
H588 H 0.1356 0.80992 0.76987 0.0
H589 H 0.10973 0.86202 0.75861 0.0
C590 C 0.11486 0.88527 0.72568 0.0
C591 C 0.11833 0.89283 0.70783 0.0
C592 C 0.13349 0.85839 0.73311 0.0
C593 C 0.14259 0.87531 0.69779 0.0
C594 C 0.16207 0.84937 0.70522 0.0
C595 C 0.1727 0.81077 0.72952 0.0
C596 C 0.16426 0.799 0.74632 0.0
C597 C 0.15686 0.8399 0.7227 0.0
C598 C 0.14235 0.81845 0.75686 0.0
C599 C 0.12743 0.84814 0.7504 0.0
H600 H 0.64533 0.45216 0.78264 0.0
H601 H 0.59821 0.36351 0.80512 0.0
H602 H 0.64134 0.32709 0.79143 0.0
H603 H 0.69576 0.32143 0.7754 0.0
H604 H 0.74219 0.41082 0.75301 0.0
H605 H 0.69595 0.44591 0.76419 0.0
C606 C 0.64438 0.42481 0.78437 0.0
C607 C 0.61901 0.41047 0.79497 0.0
C608 C 0.66924 0.40422 0.77656 0.0
C609 C 0.61758 0.37502 0.79696 0.0
C610 C 0.64232 0.35427 0.78923 0.0
C611 C 0.69543 0.3485 0.77276 0.0
C612 C 0.72257 0.36353 0.76357 0.0
C613 C 0.66876 0.36869 0.77933 0.0
C614 C 0.72174 0.39862 0.76015 0.0
C615 C 0.69534 0.41877 0.76658 0.0
H616 H 0.55518 0.13735 0.04143 0.0
H617 H 0.65256 0.08643 0.04425 0.0
H618 H 0.68034 0.13636 0.03174 0.0
H619 H 0.67708 0.19566 0.0209 0.0
H620 H 0.57852 0.24389 0.01675 0.0
H621 H 0.55114 0.19333 0.02836 0.0
C622 C 0.58236 0.13657 0.03894 0.0
C623 C 0.60159 0.10795 0.0439 0.0
C624 C 0.59807 0.16501 0.03146 0.0
C625 C 0.63702 0.10821 0.04091 0.0
C626 C 0.65297 0.13672 0.03363 0.0
C627 C 0.6496 0.1949 0.02241 0.0
C628 C 0.62994 0.2236 0.01807 0.0
C629 C 0.63379 0.16547 0.02904 0.0
C630 C 0.59433 0.22221 0.02 0.0
C631 C 0.57858 0.19332 0.02669 0.0
H632 H 0.86045 0.06694 0.28871 0.0
H633 H 0.91348 0.16308 0.29101 0.0
H634 H 0.86413 0.19141 0.27816 0.0
H635 H 0.80457 0.18926 0.26764 0.0
H636 H 0.75399 0.09216 0.26367 0.0
H637 H 0.80435 0.06376 0.27524 0.0
C638 C 0.86184 0.09394 0.28602 0.0
C639 C 0.89078 0.11272 0.29106 0.0
C640 C 0.83373 0.10999 0.27828 0.0
C641 C 0.89136 0.14792 0.28771 0.0
C642 C 0.8632 0.16418 0.28022 0.0
C643 C 0.80479 0.16185 0.26914 0.0
C644 C 0.77552 0.14288 0.26495 0.0
C645 C 0.83401 0.14555 0.27572 0.0
C646 C 0.77619 0.10737 0.26681 0.0
C647 C 0.80493 0.09109 0.2735 0.0
H648 H 0.8783 0.38032 0.55123 0.0
H649 H 0.97735 0.34317 0.53604 0.0
H650 H 0.95096 0.29558 0.52059 0.0
H651 H 0.90028 0.26253 0.51321 0.0
H652 H 0.80103 0.29733 0.52958 0.0
H653 H 0.82681 0.34812 0.54259 0.0
C654 C 0.89395 0.36201 0.5443 0.0
C655 C 0.92965 0.36503 0.54478 0.0
C656 C 0.87859 0.3343 0.53576 0.0
C657 C 0.94981 0.34107 0.53594 0.0
C658 C 0.93475 0.31394 0.52711 0.0
C659 C 0.8842 0.2814 0.51945 0.0
C660 C 0.84883 0.27617 0.52048 0.0
C661 C 0.89924 0.30998 0.52721 0.0
C662 C 0.82835 0.3008 0.52864 0.0
C663 C 0.84309 0.32977 0.53612 0.0
H664 H 0.62114 0.13165 0.44851 0.0
H665 H 0.60665 0.05814 0.48975 0.0
H666 H 0.6529 0.08382 0.50645 0.0
H667 H 0.70091 0.12367 0.50808 0.0
H668 H 0.71455 0.19817 0.46733 0.0
H669 H 0.66449 0.17624 0.45198 0.0
C670 C 0.62749 0.12169 0.46132 0.0
C671 C 0.6108 0.09252 0.46766 0.0
C672 C 0.65403 0.13674 0.47096 0.0
C673 C 0.61965 0.07995 0.48429 0.0
C674 C 0.64599 0.09475 0.49393 0.0
C675 C 0.69257 0.13546 0.49599 0.0
C676 C 0.71158 0.16223 0.48875 0.0
C677 C 0.66395 0.12257 0.48718 0.0
C678 C 0.70036 0.17748 0.47316 0.0
C679 C 0.67185 0.16481 0.46432 0.0
H680 H 0.85889 0.12023 0.69905 0.0
H681 H 0.9304 0.1057 0.74137 0.0
H682 H 0.9035 0.15157 0.75777 0.0
H683 H 0.86353 0.19939 0.75881 0.0
H684 H 0.79197 0.21412 0.71659 0.0
H685 H 0.81427 0.16381 0.70173 0.0
C686 C 0.86814 0.12654 0.71202 0.0
C687 C 0.89705 0.10987 0.71881 0.0
C688 C 0.85252 0.15298 0.72143 0.0
C689 C 0.90876 0.11864 0.73562 0.0
C690 C 0.89326 0.14475 0.74507 0.0
C691 C 0.85235 0.19121 0.74652 0.0
C692 C 0.82637 0.21063 0.73873 0.0
C693 C 0.86573 0.16268 0.7379 0.0
C694 C 0.81203 0.19963 0.72285 0.0
C695 C 0.82495 0.171 0.71429 0.0
H696 H 0.88613 0.36217 0.97116 0.0
H697 H 0.84405 0.46341 0.9667 0.0
H698 H 0.79189 0.4446 0.98053 0.0
H699 H 0.75635 0.39925 0.99193 0.0
H700 H 0.79461 0.29659 0.99393 0.0
H701 H 0.84988 0.31606 0.98274 0.0
C702 C 0.86555 0.38014 0.97309 0.0
C703 C 0.86953 0.41435 0.96793 0.0
C704 C 0.83473 0.36886 0.9805 0.0
C705 C 0.84248 0.43719 0.97088 0.0
C706 C 0.81228 0.42638 0.97863 0.0
C707 C 0.77686 0.38109 0.9901 0.0
C708 C 0.77146 0.34655 0.99378 0.0
C709 C 0.80798 0.39227 0.98327 0.0
C710 C 0.7982 0.32335 0.9912 0.0
C711 C 0.82973 0.33448 0.98477 0.0
H712 H 0.64311 0.38369 0.20216 0.0
H713 H 0.56902 0.39747 0.24328 0.0
H714 H 0.59303 0.34935 0.25917 0.0
H715 H 0.63128 0.30009 0.25994 0.0
H716 H 0.7056 0.28642 0.21898 0.0
H717 H 0.68599 0.33849 0.20477 0.0
C718 C 0.63268 0.37673 0.21479 0.0
C719 C 0.6039 0.39387 0.22135 0.0
C720 C 0.64664 0.34902 0.22389 0.0
C721 C 0.59062 0.38422 0.2377 0.0
C722 C 0.60445 0.35681 0.24685 0.0
C723 C 0.64359 0.30884 0.24807 0.0
C724 C 0.66958 0.28927 0.24042 0.0
C725 C 0.63185 0.33848 0.23984 0.0
C726 C 0.68547 0.30101 0.22511 0.0
C727 C 0.67412 0.33067 0.21692 0.0
H728 H 0.078 0.95108 0.42703 0.0
H729 H 0.12014 0.88083 0.38949 0.0
H730 H 0.14408 0.84669 0.41328 0.0
H731 H 0.15446 0.83795 0.44472 0.0
H732 H 0.11283 0.90901 0.48206 0.0
H733 H 0.08739 0.94185 0.45832 0.0
C734 C 0.09268 0.92845 0.42405 0.0
C735 C 0.09758 0.91865 0.40654 0.0
C736 C 0.10642 0.90912 0.43774 0.0
C737 C 0.11594 0.88882 0.40288 0.0
C738 C 0.12972 0.86939 0.41646 0.0
C739 C 0.13966 0.86052 0.44765 0.0
C740 C 0.13557 0.87109 0.4651 0.0
C741 C 0.12527 0.87942 0.43393 0.0
C742 C 0.11636 0.90038 0.46873 0.0
C743 C 0.10185 0.9192 0.45517 0.0
H744 H 0.14023 0.59212 0.65504 0.0
H745 H 0.03727 0.62745 0.66265 0.0
H746 H 0.05497 0.65864 0.68882 0.0
H747 H 0.09908 0.67255 0.71068 0.0
H748 H 0.20217 0.63762 0.70272 0.0
H749 H 0.18508 0.60949 0.67562 0.0
C750 C 0.12177 0.60687 0.66238 0.0
C751 C 0.0875 0.60737 0.657 0.0
C752 C 0.13209 0.62454 0.67744 0.0
C753 C 0.06386 0.62691 0.66647 0.0
C754 C 0.07391 0.64451 0.68151 0.0
C755 C 0.11779 0.65892 0.70295 0.0
C756 C 0.15174 0.65687 0.70877 0.0
C757 C 0.10783 0.64298 0.6873 0.0
C758 C 0.17584 0.63947 0.69854 0.0
C759 C 0.16609 0.62334 0.68305 0.0
H760 H 0.39287 0.56522 0.91789 0.0
H761 H 0.43385 0.66278 0.90324 0.0
H762 H 0.40555 0.68932 0.92826 0.0
H763 H 0.37046 0.68448 0.95467 0.0
H764 H 0.33073 0.58668 0.96994 0.0
H765 H 0.35723 0.56047 0.9443 0.0
C766 C 0.39519 0.59236 0.92008 0.0
C767 C 0.41525 0.6121 0.90874 0.0
C768 C 0.37933 0.60729 0.93465 0.0
C769 C 0.4186 0.64712 0.91186 0.0
C770 C 0.40245 0.66226 0.92614 0.0
C771 C 0.36758 0.65742 0.95238 0.0
C772 C 0.34873 0.63753 0.96419 0.0
C773 C 0.38303 0.64254 0.93771 0.0
C774 C 0.34524 0.60252 0.96107 0.0
C775 C 0.36031 0.58754 0.9464 0.0
H776 H 0.43517 0.85842 0.16164 0.0
H777 H 0.36239 0.93963 0.15472 0.0
H778 H 0.32862 0.91777 0.17902 0.0
H779 H 0.32152 0.8775 0.20338 0.0
H780 H 0.39652 0.79875 0.2113 0.0
H781 H 0.42803 0.81823 0.18571 0.0
C782 C 0.41205 0.87153 0.16549 0.0
C783 C 0.40152 0.90074 0.15637 0.0
C784 C 0.3933 0.85946 0.17979 0.0
C785 C 0.37098 0.91685 0.16132 0.0
C786 C 0.35178 0.90456 0.17535 0.0
C787 C 0.34469 0.86457 0.19945 0.0
C788 C 0.35677 0.83685 0.20924 0.0
C789 C 0.36295 0.87617 0.18483 0.0
C790 C 0.38683 0.82031 0.20403 0.0
C791 C 0.40483 0.83137 0.18938 0.0
H792 H 0.09863 0.62022 0.85858 0.0
H793 H 0.05302 0.54363 0.82561 0.0
H794 H 0.07247 0.57368 0.79957 0.0
H795 H 0.10434 0.62035 0.78616 0.0
H796 H 0.15112 0.69652 0.81893 0.0
H797 H 0.12873 0.66842 0.84502 0.0
C798 C 0.09268 0.61034 0.84568 0.0
C799 C 0.07471 0.57958 0.84404 0.0
C800 C 0.10404 0.62771 0.83073 0.0
C801 C 0.06738 0.56692 0.82724 0.0
C802 C 0.07829 0.5842 0.81233 0.0
C803 C 0.1093 0.63103 0.799 0.0
C804 C 0.12934 0.66044 0.80062 0.0
C805 C 0.09692 0.61441 0.81393 0.0
C806 C 0.13574 0.67387 0.81735 0.0
C807 C 0.12304 0.65776 0.83227 0.0
H808 H 0.37769 0.60918 0.11102 0.0
H809 H 0.47073 0.59049 0.08245 0.0
H810 H 0.44414 0.61092 0.05567 0.0
H811 H 0.39447 0.63376 0.04016 0.0
H812 H 0.30081 0.65112 0.0683 0.0
H813 H 0.32743 0.63101 0.0953 0.0
C814 C 0.39207 0.60935 0.09891 0.0
C815 C 0.4263 0.59859 0.09886 0.0
C816 C 0.37647 0.62073 0.08342 0.0
C817 C 0.4446 0.5993 0.08303 0.0
C818 C 0.42933 0.61071 0.06763 0.0
C819 C 0.37986 0.63306 0.05219 0.0
C820 C 0.34574 0.64389 0.05222 0.0
C821 C 0.39531 0.62149 0.06766 0.0
C822 C 0.32713 0.64285 0.06792 0.0
C823 C 0.34235 0.63141 0.08338 0.0
H824 H 0.41831 0.93074 0.33099 0.0
H825 H 0.38967 0.85339 0.36815 0.0
H826 H 0.36323 0.82025 0.34468 0.0
H827 H 0.34664 0.81424 0.3136 0.0
H828 H 0.37363 0.89336 0.27707 0.0
H829 H 0.4019 0.92499 0.30035 0.0
C830 C 0.40593 0.90683 0.33404 0.0
C831 C 0.40575 0.89476 0.35136 0.0
C832 C 0.39042 0.88822 0.32057 0.0
C833 C 0.39039 0.86322 0.35493 0.0
C834 C 0.37511 0.84433 0.34152 0.0
C835 C 0.35888 0.83832 0.31076 0.0
C836 C 0.35803 0.85144 0.29364 0.0
C837 C 0.37481 0.85668 0.32429 0.0
C838 C 0.37384 0.88274 0.29014 0.0
C839 C 0.39003 0.90086 0.30344 0.0
H840 H 0.12256 0.94758 0.59597 0.0
H841 H 0.08306 0.8518 0.61427 0.0
H842 H 0.11453 0.82179 0.59136 0.0
H843 H 0.1489 0.82343 0.56463 0.0
H844 H 0.18475 0.9196 0.54484 0.0
H845 H 0.15967 0.94887 0.56999 0.0
C846 C 0.12138 0.92009 0.59507 0.0
C847 C 0.10057 0.90183 0.60669 0.0
C848 C 0.1388 0.90317 0.58159 0.0
C849 C 0.09879 0.86629 0.60534 0.0
C850 C 0.11678 0.84918 0.59228 0.0
C851 C 0.15178 0.85072 0.566 0.0
C852 C 0.16863 0.86937 0.55294 0.0
C853 C 0.13625 0.86743 0.58011 0.0
C854 C 0.17185 0.90474 0.55475 0.0
C855 C 0.1574 0.92148 0.56907 0.0
H856 H 0.5606 0.39582 0.91137 0.0
H857 H 0.66203 0.4188 0.89342 0.0
H858 H 0.68636 0.38664 0.91794 0.0
H859 H 0.67842 0.35591 0.94574 0.0
H860 H 0.57674 0.3386 0.96515 0.0
H861 H 0.55264 0.36421 0.93874 0.0
C862 C 0.58801 0.39321 0.91273 0.0
C863 C 0.60962 0.40922 0.90065 0.0
C864 C 0.60163 0.37586 0.92714 0.0
C865 C 0.64508 0.40646 0.90261 0.0
C866 C 0.6589 0.38818 0.91661 0.0
C867 C 0.651 0.35728 0.944 0.0
C868 C 0.62928 0.3453 0.95723 0.0
C869 C 0.63741 0.37329 0.92912 0.0
C870 C 0.59384 0.34771 0.95507 0.0
C871 C 0.5801 0.36238 0.94001 0.0
H872 H 0.58157 0.05809 0.17291 0.0
H873 H 0.62512 0.12984 0.13667 0.0
H874 H 0.64854 0.16275 0.16115 0.0
H875 H 0.65759 0.1701 0.19291 0.0
H876 H 0.61298 0.09823 0.22885 0.0
H877 H 0.58915 0.06618 0.20439 0.0
C878 C 0.59643 0.08081 0.17037 0.0
C879 C 0.60203 0.09134 0.15304 0.0
C880 C 0.60959 0.09949 0.18444 0.0
C881 C 0.62054 0.12127 0.14992 0.0
C882 C 0.63399 0.13998 0.1639 0.0
C883 C 0.6426 0.14745 0.19536 0.0
C884 C 0.63717 0.13644 0.21265 0.0
C885 C 0.62882 0.1292 0.18121 0.0
C886 C 0.61754 0.1072 0.21566 0.0
C887 C 0.60394 0.08883 0.20169 0.0
H888 H 0.94662 0.10163 0.42079 0.0
H889 H 0.86694 0.13567 0.38606 0.0
H890 H 0.83416 0.15662 0.41115 0.0
H891 H 0.82838 0.16498 0.44306 0.0
H892 H 0.90839 0.12986 0.47739 0.0
H893 H 0.94108 0.10996 0.45228 0.0
C894 C 0.92229 0.11407 0.41867 0.0
C895 C 0.90938 0.11747 0.40159 0.0
C896 C 0.90368 0.12581 0.43308 0.0
C897 C 0.87738 0.13277 0.3991 0.0
C898 C 0.85872 0.1448 0.41342 0.0
C899 C 0.85301 0.15305 0.44501 0.0
C900 C 0.86599 0.14894 0.46205 0.0
C901 C 0.87162 0.14141 0.43048 0.0
C902 C 0.89784 0.1333 0.46441 0.0
C903 C 0.91656 0.12192 0.45007 0.0
H904 H 0.94273 0.41672 0.67433 0.0
H905 H 0.88536 0.35805 0.63682 0.0
H906 H 0.85088 0.33398 0.66051 0.0
H907 H 0.83782 0.32921 0.69203 0.0
H908 H 0.89575 0.38855 0.72914 0.0
H909 H 0.92941 0.41266 0.70542 0.0
C910 C 0.92295 0.39834 0.67135 0.0
C911 C 0.91685 0.38882 0.6539 0.0
C912 C 0.9033 0.38485 0.68495 0.0
C913 C 0.89051 0.36572 0.65018 0.0
C914 C 0.87088 0.35194 0.6637 0.0
C915 C 0.85773 0.34752 0.69489 0.0
C916 C 0.86431 0.35706 0.71231 0.0
C917 C 0.87709 0.3613 0.68115 0.0
C918 C 0.89017 0.3808 0.71584 0.0
C919 C 0.90948 0.39456 0.7023 0.0
H920 H 0.55658 0.14132 0.34985 0.0
H921 H 0.64208 0.07549 0.36121 0.0
H922 H 0.67411 0.10101 0.33748 0.0
H923 H 0.67607 0.13757 0.31153 0.0
H924 H 0.58794 0.19712 0.29751 0.0
H925 H 0.55844 0.17781 0.32392 0.0
C926 C 0.58207 0.13215 0.34711 0.0
C927 C 0.5965 0.10617 0.35746 0.0
C928 C 0.59984 0.14559 0.33275 0.0
C929 C 0.63015 0.09574 0.35386 0.0
C930 C 0.6485 0.11005 0.34006 0.0
C931 C 0.65056 0.14664 0.3144 0.0
C932 C 0.63416 0.16876 0.30268 0.0
C933 C 0.63334 0.1344 0.32919 0.0
C934 C 0.60099 0.18001 0.30637 0.0
C935 C 0.58415 0.16896 0.32145 0.0
H936 H 0.88743 0.04502 0.5903 0.0
H937 H 0.86627 0.12999 0.62434 0.0
H938 H 0.83979 0.16046 0.59998 0.0
H939 H 0.8252 0.16392 0.56859 0.0
H940 H 0.84618 0.07819 0.53503 0.0
H941 H 0.86933 0.04672 0.5598 0.0
C942 C 0.87636 0.06988 0.59257 0.0
C943 C 0.8789 0.08511 0.6092 0.0
C944 C 0.86112 0.08716 0.57856 0.0
C945 C 0.86509 0.11776 0.61166 0.0
C946 C 0.84979 0.13515 0.59775 0.0
C947 C 0.83448 0.13821 0.56676 0.0
C948 C 0.8341 0.12348 0.54997 0.0
C949 C 0.84808 0.12027 0.58107 0.0
C950 C 0.84624 0.09016 0.54779 0.0
C951 C 0.85958 0.07215 0.56195 0.0
H952 H 0.9446 0.37471 0.8435 0.0
H953 H 0.85132 0.37293 0.87337 0.0
H954 H 0.821 0.34894 0.84821 0.0
H955 H 0.82067 0.3312 0.81714 0.0
H956 H 0.91472 0.33331 0.78788 0.0
H957 H 0.94522 0.35363 0.8136 0.0
C958 C 0.91782 0.36834 0.84473 0.0
C959 C 0.90035 0.37554 0.86037 0.0
C960 C 0.90065 0.35464 0.83029 0.0
C961 C 0.86537 0.36795 0.86145 0.0
C962 C 0.84805 0.35412 0.84708 0.0
C963 C 0.84791 0.33574 0.81649 0.0
C964 C 0.86537 0.33089 0.8006 0.0
C965 C 0.86535 0.3478 0.83134 0.0
C966 C 0.90064 0.33694 0.79992 0.0
C967 C 0.91812 0.34863 0.81461 0.0
H968 H 0.60673 0.45648 0.09172 0.0
H969 H 0.63953 0.3755 0.1258 0.0
H970 H 0.65954 0.34298 0.10044 0.0
H971 H 0.66548 0.3369 0.06839 0.0
H972 H 0.6311 0.4181 0.03477 0.0
H973 H 0.61438 0.45145 0.06021 0.0
C974 C 0.6189 0.43202 0.09367 0.0
C975 C 0.62191 0.41855 0.11063 0.0
C976 C 0.62989 0.41346 0.0791 0.0
C977 C 0.63687 0.38638 0.11286 0.0
C978 C 0.64832 0.36783 0.09838 0.0
C979 C 0.65454 0.36198 0.06668 0.0
C980 C 0.64944 0.37498 0.04973 0.0
C981 C 0.64459 0.38097 0.0814 0.0
C982 C 0.63516 0.40746 0.04767 0.0
C983 C 0.62559 0.42658 0.06221 0.0
loop_
_geom_bond_atom_site_label_1
_geom_bond_atom_site_label_2
_geom_bond_distance
_geom_bond_site_symmetry_2
_ccdc_geom_bond_type
C0 C1 1.384 . S
C0 C2 1.384 . S
C0 H28 0.931 . S
C1 C0 1.384 . S
C1 C4 1.382 . S
C2 C0 1.384 . S
C2 C3 1.381 . S
C2 H29 0.930 . S
C3 C2 1.381 . S
C3 C5 1.381 . S
C3 C6 1.487 . S
C4 C1 1.382 . S
C4 C5 1.387 . S
C4 H30 0.930 . S
C5 C3 1.381 . S
C5 C4 1.387 . S
C5 H31 0.931 1_565 S
C6 C3 1.487 . S
C6 C13 1.399 . S
C6 N44 1.343 1_565 S
C7 C8 1.384 . S
C7 C9 1.384 . S
C7 H32 0.931 . S
C8 C7 1.384 . S
C8 C11 1.382 . S
C9 C7 1.384 . S
C9 C10 1.381 . S
C9 H33 0.930 . S
C10 C9 1.381 . S
C10 C12 1.381 . S
C10 C13 1.487 . S
C11 C8 1.382 . S
C11 C12 1.387 . S
C11 H34 0.930 . S
C12 C10 1.381 . S
C12 C11 1.387 . S
C12 H35 0.931 . S
C13 C6 1.399 . S
C13 C10 1.487 . S
C13 N45 1.324 1_455 S
C14 C15 1.384 . S
C14 C16 1.384 . S
C14 H36 0.931 . S
C15 C14 1.384 . S
C15 C18 1.382 . S
C16 C14 1.384 . S
C16 C17 1.381 . S
C16 H37 0.930 . S
C17 C16 1.381 . S
C17 C19 1.381 . S
C17 C20 1.487 . S
C18 C15 1.382 . S
C18 C19 1.387 . S
C18 H38 0.930 . S
C19 C17 1.381 . S
C19 C18 1.387 . S
C19 H39 0.931 1_545 S
C20 C17 1.487 . S
C20 C27 1.399 . S
C20 N45 1.360 1_545 S
C21 C22 1.384 . S
C21 C23 1.384 . S
C21 H40 0.931 . S
C22 C21 1.384 . S
C22 C25 1.382 . S
C23 C21 1.384 . S
C23 C24 1.381 . S
C23 H41 0.930 . S
C24 C23 1.381 . S
C24 C26 1.381 . S
C24 C27 1.487 . S
C25 C22 1.382 . S
C25 C26 1.387 . S
C25 H42 0.930 . S
C26 C24 1.381 . S
C26 C25 1.387 . S
C26 H43 0.931 . S
C27 C20 1.399 . S
C27 C24 1.487 . S
C27 N44 1.343 1_655 S
H28 C0 0.931 . S
H29 C2 0.930 . S
H30 C4 0.930 . S
H31 C5 0.931 1_545 S
H32 C7 0.931 . S
H33 C9 0.930 . S
H34 C11 0.930 . S
H35 C12 0.931 . S
H36 C14 0.931 . S
H37 C16 0.930 . S
H38 C18 0.930 . S
H39 C19 0.931 1_565 S
H40 C21 0.931 . S
H41 C23 0.930 . S
H42 C25 0.930 . S
H43 C26 0.931 . S
N44 C6 1.343 1_545 S
N44 C27 1.343 1_455 S
N45 C13 1.324 1_655 S
N45 C20 1.360 1_565 S
C46 C47 1.384 . S
C46 C48 1.384 . S
C46 H74 0.931 . S
C47 C46 1.384 . S
C47 C50 1.382 . S
C48 C46 1.384 . S
C48 C49 1.381 . S
C48 H75 0.930 . S
C49 C48 1.381 . S
C49 C51 1.381 . S
C49 C52 1.487 . S
C50 C47 1.382 . S
C50 C51 1.387 . S
C50 H76 0.930 . S
C51 C49 1.381 . S
C51 C50 1.387 . S
C51 H77 0.931 1_655 S
C52 C49 1.487 . S
C52 C59 1.399 . S
C52 N90 1.343 1_655 S
C53 C54 1.384 . S
C53 C55 1.384 . S
C53 H78 0.931 . S
C54 C53 1.384 . S
C54 C57 1.382 . S
C55 C53 1.384 . S
C55 C56 1.381 . S
C55 H79 0.930 . S
C56 C55 1.381 . S
C56 C58 1.381 . S
C56 C59 1.487 . S
C57 C54 1.382 . S
C57 C58 1.387 . S
C57 H80 0.930 . S
C58 C56 1.381 . S
C58 C57 1.387 . S
C58 H81 0.931 . S
C59 C52 1.399 . S
C59 C56 1.487 . S
C59 N91 1.343 . S
C60 C61 1.384 . S
C60 C62 1.384 . S
C60 H82 0.931 . S
C61 C60 1.384 . S
C61 C64 1.382 . S
C62 C60 1.384 . S
C62 C63 1.381 . S
C62 H83 0.930 . S
C63 C62 1.381 . S
C63 C65 1.381 . S
C63 C66 1.487 . S
C64 C61 1.382 . S
C64 C65 1.387 . S
C64 H84 0.930 . S
C65 C63 1.381 . S
C65 C64 1.387 . S
C65 H85 0.931 1_455 S
C66 C63 1.487 . S
C66 C73 1.399 . S
C66 N91 1.343 1_455 S
C67 C68 1.384 . S
C67 C69 1.384 . S
C67 H86 0.931 . S
C68 C67 1.384 . S
C68 C71 1.382 . S
C69 C67 1.384 . S
C69 C70 1.381 . S
C69 H87 0.930 . S
C70 C69 1.381 . S
C70 C72 1.381 . S
C70 C73 1.487 . S
C71 C68 1.382 . S
C71 C72 1.387 . S
C71 H88 0.930 . S
C72 C70 1.381 . S
C72 C71 1.387 . S
C72 H89 0.931 . S
C73 C66 1.399 . S
C73 C70 1.487 . S
C73 N90 1.343 . S
H74 C46 0.931 . S
H75 C48 0.930 . S
H76 C50 0.930 . S
H77 C51 0.931 1_455 S
H78 C53 0.931 . S
H79 C55 0.930 . S
H80 C57 0.930 . S
H81 C58 0.931 . S
H82 C60 0.931 . S
H83 C62 0.930 . S
H84 C64 0.930 . S
H85 C65 0.931 1_655 S
H86 C67 0.931 . S
H87 C69 0.930 . S
H88 C71 0.930 . S
H89 C72 0.931 . S
N90 C52 1.343 1_455 S
N90 C73 1.343 . S
N91 C59 1.343 . S
N91 C66 1.343 1_655 S
C92 C93 1.384 . S
C92 C94 1.384 . S
C92 H120 0.931 . S
C93 C92 1.384 . S
C93 C96 1.382 . S
C94 C92 1.384 . S
C94 C95 1.381 . S
C94 H121 0.930 . S
C95 C94 1.381 . S
C95 C97 1.381 . S
C95 C98 1.487 . S
C96 C93 1.382 . S
C96 C97 1.387 . S
C96 H122 0.930 . S
C97 C95 1.381 . S
C97 C96 1.387 . S
C97 H123 0.931 . S
C98 C95 1.487 . S
C98 C105 1.399 . S
C98 N136 1.343 . S
C99 C100 1.384 . S
C99 C101 1.384 . S
C99 H124 0.931 . S
C100 C99 1.384 . S
C100 C103 1.382 . S
C101 C99 1.384 . S
C101 C102 1.381 . S
C101 H125 0.930 . S
C102 C101 1.381 . S
C102 C104 1.381 . S
C102 C105 1.487 . S
C103 C100 1.382 . S
C103 C104 1.387 . S
C103 H126 0.930 . S
C104 C102 1.381 . S
C104 C103 1.387 . S
C104 H127 0.931 . S
C105 C98 1.399 . S
C105 C102 1.487 . S
C105 N137 1.343 . S
C106 C107 1.384 . S
C106 C108 1.384 . S
C106 H128 0.931 . S
C107 C106 1.384 . S
C107 C110 1.382 . S
C108 C106 1.384 . S
C108 C109 1.381 . S
C108 H129 0.930 . S
C109 C108 1.381 . S
C109 C111 1.381 . S
C109 C112 1.487 . S
C110 C107 1.382 . S
C110 C111 1.387 . S
C110 H130 0.930 . S
C111 C109 1.381 . S
C111 C110 1.387 . S
C111 H131 0.931 . S
C112 C109 1.487 . S
C112 C119 1.399 . S
C112 N137 1.343 . S
C113 C114 1.384 . S
C113 C115 1.384 . S
C113 H132 0.931 . S
C114 C113 1.384 . S
C114 C117 1.382 . S
C115 C113 1.384 . S
C115 C116 1.381 . S
C115 H133 0.930 . S
C116 C115 1.381 . S
C116 C118 1.381 . S
C116 C119 1.487 . S
C117 C114 1.382 . S
C117 C118 1.387 . S
C117 H134 0.930 . S
C118 C116 1.381 . S
C118 C117 1.387 . S
C118 H135 0.931 . S
C119 C112 1.399 . S
C119 C116 1.487 . S
C119 N136 1.343 . S
H120 C92 0.931 . S
H121 C94 0.930 . S
H122 C96 0.930 . S
H123 C97 0.931 . S
H124 C99 0.931 . S
H125 C101 0.930 . S
H126 C103 0.930 . S
H127 C104 0.931 . S
H128 C106 0.931 . S
H129 C108 0.930 . S
H130 C110 0.930 . S
H131 C111 0.931 . S
H132 C113 0.931 . S
H133 C115 0.930 . S
H134 C117 0.930 . S
H135 C118 0.931 . S
N136 C98 1.343 . S
N136 C119 1.343 . S
N137 C105 1.343 . S
N137 C112 1.343 . S
C138 C139 1.384 . S
C138 C140 1.384 . S
C138 H166 0.931 . S
C139 C138 1.384 . S
C139 C142 1.382 . S
C140 C138 1.384 . S
C140 C141 1.381 . S
C140 H167 0.930 . S
C141 C140 1.381 . S
C141 C143 1.381 . S
C141 C144 1.487 . S
C142 C139 1.382 . S
C142 C143 1.387 . S
C142 H168 0.930 . S
C143 C141 1.381 . S
C143 C142 1.387 . S
C143 H169 0.931 . S
C144 C141 1.487 . S
C144 C151 1.399 . S
C144 N182 1.343 1_565 S
C145 C146 1.384 . S
C145 C147 1.384 . S
C145 H170 0.931 . S
C146 C145 1.384 . S
C146 C149 1.382 . S
C147 C145 1.384 . S
C147 C148 1.381 . S
C147 H171 0.930 . S
C148 C147 1.381 . S
C148 C150 1.381 . S
C148 C151 1.487 . S
C149 C146 1.382 . S
C149 C150 1.387 . S
C149 H172 0.930 . S
C150 C148 1.381 . S
C150 C149 1.387 . S
C150 H173 0.931 . S
C151 C144 1.399 . S
C151 C148 1.487 . S
C151 N183 1.350 . S
C152 C153 1.384 . S
C152 C154 1.384 . S
C152 H174 0.931 . S
C153 C152 1.384 . S
C153 C156 1.382 . S
C154 C152 1.384 . S
C154 C155 1.381 . S
C154 H175 0.930 . S
C155 C154 1.381 . S
C155 C157 1.381 . S
C155 C158 1.487 . S
C156 C153 1.382 . S
C156 C157 1.387 . S
C156 H176 0.930 . S
C157 C155 1.381 . S
C157 C156 1.387 . S
C157 H177 0.931 . S
C158 C155 1.487 . S
C158 C165 1.399 . S
C158 N183 1.336 1_545 S
C159 C160 1.384 . S
C159 C161 1.384 . S
C159 H178 0.931 . S
C160 C159 1.384 . S
C160 C163 1.382 . S
C161 C159 1.384 . S
C161 C162 1.381 . S
C161 H179 0.930 . S
C162 C161 1.381 . S
C162 C164 1.381 . S
C162 C165 1.487 . S
C163 C160 1.382 . S
C163 C164 1.387 . S
C163 H180 0.930 . S
C164 C162 1.381 . S
C164 C163 1.387 . S
C164 H181 0.931 . S
C165 C158 1.399 . S
C165 C162 1.487 . S
C165 N182 1.343 . S
H166 C138 0.931 . S
H167 C140 0.930 . S
H168 C142 0.930 . S
H169 C143 0.931 . S
H170 C145 0.931 . S
H171 C147 0.930 . S
H172 C149 0.930 . S
H173 C150 0.931 . S
H174 C152 0.931 . S
H175 C154 0.930 . S
H176 C156 0.930 . S
H177 C157 0.931 . S
H178 C159 0.931 . S
H179 C161 0.930 . S
H180 C163 0.930 . S
H181 C164 0.931 . S
N182 C144 1.343 1_545 S
N182 C165 1.343 . S
N183 C151 1.350 . S
N183 C158 1.336 1_565 S
C184 C185 1.384 . S
C184 C186 1.384 . S
C184 H212 0.931 . S
C185 C184 1.384 . S
C185 C188 1.382 . S
C186 C184 1.384 . S
C186 C187 1.381 . S
C186 H213 0.930 . S
C187 C186 1.381 . S
C187 C189 1.381 . S
C187 C190 1.487 . S
C188 C185 1.382 . S
C188 C189 1.387 . S
C188 H214 0.930 . S
C189 C187 1.381 . S
C189 C188 1.387 . S
C189 H215 0.931 . S
C190 C187 1.487 . S
C190 C197 1.399 . S
C190 N228 1.343 . S
C191 C192 1.384 . S
C191 C193 1.384 . S
C191 H216 0.931 . S
C192 C191 1.384 . S
C192 C195 1.382 . S
C193 C191 1.384 . S
C193 C194 1.381 . S
C193 H217 0.930 . S
C194 C193 1.381 . S
C194 C196 1.381 . S
C194 C197 1.487 . S
C195 C192 1.382 . S
C195 C196 1.387 . S
C195 H218 0.930 . S
C196 C194 1.381 . S
C196 C195 1.387 . S
C196 H219 0.931 . S
C197 C190 1.399 . S
C197 C194 1.487 . S
C197 N229 1.343 1_455 S
C198 C199 1.384 . S
C198 C200 1.384 . S
C198 H220 0.931 . S
C199 C198 1.384 . S
C199 C202 1.382 . S
C200 C198 1.384 . S
C200 C201 1.381 . S
C200 H221 0.930 . S
C201 C200 1.381 . S
C201 C203 1.381 . S
C201 C204 1.487 . S
C202 C199 1.382 . S
C202 C203 1.387 . S
C202 H222 0.930 . S
C203 C201 1.381 . S
C203 C202 1.387 . S
C203 H223 0.931 . S
C204 C201 1.487 . S
C204 C211 1.399 . S
C204 N229 1.343 . S
C205 C206 1.384 . S
C205 C207 1.384 . S
C205 H224 0.931 . S
C206 C205 1.384 . S
C206 C209 1.382 . S
C207 C205 1.384 . S
C207 C208 1.381 . S
C207 H225 0.930 . S
C208 C207 1.381 . S
C208 C210 1.381 . S
C208 C211 1.487 . S
C209 C206 1.382 . S
C209 C210 1.387 . S
C209 H226 0.930 . S
C210 C208 1.381 . S
C210 C209 1.387 . S
C210 H227 0.931 . S
C211 C204 1.399 . S
C211 C208 1.487 . S
C211 N228 1.343 1_655 S
H212 C184 0.931 . S
H213 C186 0.930 . S
H214 C188 0.930 . S
H215 C189 0.931 . S
H216 C191 0.931 . S
H217 C193 0.930 . S
H218 C195 0.930 . S
H219 C196 0.931 . S
H220 C198 0.931 . S
H221 C200 0.930 . S
H222 C202 0.930 . S
H223 C203 0.931 . S
H224 C205 0.931 . S
H225 C207 0.930 . S
H226 C209 0.930 . S
H227 C210 0.931 . S
N228 C190 1.343 . S
N228 C211 1.343 1_455 S
N229 C197 1.343 1_655 S
N229 C204 1.343 . S
C230 C231 1.384 . S
C230 C232 1.384 . S
C230 H258 0.931 . S
C231 C230 1.384 . S
C231 C234 1.382 . S
C232 C230 1.384 . S
C232 C233 1.381 . S
C232 H259 0.930 . S
C233 C232 1.381 . S
C233 C235 1.381 . S
C233 C236 1.487 . S
C234 C231 1.382 . S
C234 C235 1.387 . S
C234 H260 0.930 . S
C235 C233 1.381 . S
C235 C234 1.387 . S
C235 H261 0.931 . S
C236 C233 1.487 . S
C236 C243 1.399 . S
C236 N274 1.343 . S
C237 C238 1.384 . S
C237 C239 1.384 . S
C237 H262 0.931 . S
C238 C237 1.384 . S
C238 C241 1.382 . S
C239 C237 1.384 . S
C239 C240 1.381 . S
C239 H263 0.930 . S
C240 C239 1.381 . S
C240 C242 1.381 . S
C240 C243 1.487 . S
C241 C238 1.382 . S
C241 C242 1.387 . S
C241 H264 0.930 . S
C242 C240 1.381 . S
C242 C241 1.387 . S
C242 H265 0.931 . S
C243 C236 1.399 . S
C243 C240 1.487 . S
C243 N275 1.343 . S
C244 C245 1.384 . S
C244 C246 1.384 . S
C244 H266 0.931 . S
C245 C244 1.384 . S
C245 C248 1.382 . S
C246 C244 1.384 . S
C246 C247 1.381 . S
C246 H267 0.930 . S
C247 C246 1.381 . S
C247 C249 1.381 . S
C247 C250 1.487 . S
C248 C245 1.382 . S
C248 C249 1.387 . S
C248 H268 0.930 . S
C249 C247 1.381 . S
C249 C248 1.387 . S
C249 H269 0.931 . S
C250 C247 1.487 . S
C250 C257 1.399 . S
C250 N275 1.343 . S
C251 C252 1.384 . S
C251 C253 1.384 . S
C251 H270 0.931 . S
C252 C251 1.384 . S
C252 C255 1.382 . S
C253 C251 1.384 . S
C253 C254 1.381 . S
C253 H271 0.930 . S
C254 C253 1.381 . S
C254 C256 1.381 . S
C254 C257 1.487 . S
C255 C252 1.382 . S
C255 C256 1.387 . S
C255 H272 0.930 . S
C256 C254 1.381 . S
C256 C255 1.387 . S
C256 H273 0.931 . S
C257 C250 1.399 . S
C257 C254 1.487 . S
C257 N274 1.343 . S
H258 C230 0.931 . S
H259 C232 0.930 . S
H260 C234 0.930 . S
H261 C235 0.931 . S
H262 C237 0.931 . S
H263 C239 0.930 . S
H264 C241 0.930 . S
H265 C242 0.931 . S
H266 C244 0.931 . S
H267 C246 0.930 . S
H268 C248 0.930 . S
H269 C249 0.931 . S
H270 C251 0.931 . S
H271 C253 0.930 . S
H272 C255 0.930 . S
H273 C256 0.931 . S
N274 C236 1.343 . S
N274 C257 1.343 . S
N275 C243 1.343 . S
N275 C250 1.343 . S
C276 C277 1.384 . S
C276 C278 1.384 . S
C276 H304 0.931 . S
C277 C276 1.384 . S
C277 C280 1.382 . S
C278 C276 1.384 . S
C278 C279 1.381 . S
C278 H305 0.930 . S
C279 C278 1.381 . S
C279 C281 1.381 . S
C279 C282 1.487 . S
C280 C277 1.382 . S
C280 C281 1.387 . S
C280 H306 0.930 . S
C281 C279 1.381 . S
C281 C280 1.387 . S
C281 H307 0.931 1_565 S
C282 C279 1.487 . S
C282 C289 1.399 . S
C282 N320 1.343 1_565 S
C283 C284 1.384 . S
C283 C285 1.384 . S
C283 H308 0.931 . S
C284 C283 1.384 . S
C284 C287 1.382 . S
C285 C283 1.384 . S
C285 C286 1.381 . S
C285 H309 0.930 . S
C286 C285 1.381 . S
C286 C288 1.381 . S
C286 C289 1.487 . S
C287 C284 1.382 . S
C287 C288 1.387 . S
C287 H310 0.930 . S
C288 C286 1.381 . S
C288 C287 1.387 . S
C288 H311 0.931 . S
C289 C282 1.399 . S
C289 C286 1.487 . S
C289 N321 1.343 . S
C290 C291 1.384 . S
C290 C292 1.384 . S
C290 H312 0.931 . S
C291 C290 1.384 . S
C291 C294 1.382 . S
C292 C290 1.384 . S
C292 C293 1.381 . S
C292 H313 0.930 . S
C293 C292 1.381 . S
C293 C295 1.381 . S
C293 C296 1.487 . S
C294 C291 1.382 . S
C294 C295 1.387 . S
C294 H314 0.930 . S
C295 C293 1.381 . S
C295 C294 1.387 . S
C295 H315 0.931 1_545 S
C296 C293 1.487 . S
C296 C303 1.399 . S
C296 N321 1.343 1_545 S
C297 C298 1.384 . S
C297 C299 1.384 . S
C297 H316 0.931 . S
C298 C297 1.384 . S
C298 C301 1.382 . S
C299 C297 1.384 . S
C299 C300 1.381 . S
C299 H317 0.930 . S
C300 C299 1.381 . S
C300 C302 1.381 . S
C300 C303 1.487 . S
C301 C298 1.382 . S
C301 C302 1.387 . S
C301 H318 0.930 . S
C302 C300 1.381 . S
C302 C301 1.387 . S
C302 H319 0.931 . S
C303 C296 1.399 . S
C303 C300 1.487 . S
C303 N320 1.343 . S
H304 C276 0.931 . S
H305 C278 0.930 . S
H306 C280 0.930 . S
H307 C281 0.931 1_545 S
H308 C283 0.931 . S
H309 C285 0.930 . S
H310 C287 0.930 . S
H311 C288 0.931 . S
H312 C290 0.931 . S
H313 C292 0.930 . S
H314 C294 0.930 . S
H315 C295 0.931 1_565 S
H316 C297 0.931 . S
H317 C299 0.930 . S
H318 C301 0.930 . S
H319 C302 0.931 . S
N320 C282 1.343 1_545 S
N320 C303 1.343 . S
N321 C289 1.343 . S
N321 C296 1.343 1_565 S
C322 C323 1.384 . S
C322 C324 1.384 . S
C322 H350 0.931 . S
C323 C322 1.384 . S
C323 C326 1.382 . S
C324 C322 1.384 . S
C324 C325 1.381 . S
C324 H351 0.930 . S
C325 C324 1.381 . S
C325 C327 1.381 . S
C325 C328 1.487 . S
C326 C323 1.382 . S
C326 C327 1.387 . S
C326 H352 0.930 . S
C327 C325 1.381 . S
C327 C326 1.387 . S
C327 H353 0.931 1_455 S
C328 C325 1.487 . S
C328 C335 1.399 . S
C328 N366 1.343 1_455 S
C329 C330 1.384 . S
C329 C331 1.384 . S
C329 H354 0.931 . S
C330 C329 1.384 . S
C330 C333 1.382 . S
C331 C329 1.384 . S
C331 C332 1.381 . S
C331 H355 0.930 . S
C332 C331 1.381 . S
C332 C334 1.381 . S
C332 C335 1.487 . S
C333 C330 1.382 . S
C333 C334 1.387 . S
C333 H356 0.930 . S
C334 C332 1.381 . S
C334 C333 1.387 . S
C334 H357 0.931 . S
C335 C328 1.399 . S
C335 C332 1.487 . S
C335 N367 1.343 1_565 S
C336 C337 1.384 . S
C336 C338 1.384 . S
C336 H358 0.931 . S
C337 C336 1.384 . S
C337 C340 1.382 . S
C338 C336 1.384 . S
C338 C339 1.381 . S
C338 H359 0.930 . S
C339 C338 1.381 . S
C339 C341 1.381 . S
C339 C342 1.487 . S
C340 C337 1.382 . S
C340 C341 1.387 . S
C340 H360 0.930 . S
C341 C339 1.381 . S
C341 C340 1.387 . S
C341 H361 0.931 1_655 S
C342 C339 1.487 . S
C342 C349 1.399 . S
C342 N367 1.343 1_655 S
C343 C344 1.384 . S
C343 C345 1.384 . S
C343 H362 0.931 . S
C344 C343 1.384 . S
C344 C347 1.382 . S
C345 C343 1.384 . S
C345 C346 1.381 . S
C345 H363 0.930 . S
C346 C345 1.381 . S
C346 C348 1.381 . S
C346 C349 1.487 . S
C347 C344 1.382 . S
C347 C348 1.387 . S
C347 H364 0.930 . S
C348 C346 1.381 . S
C348 C347 1.387 . S
C348 H365 0.931 . S
C349 C342 1.399 . S
C349 C346 1.487 . S
C349 N366 1.343 1_545 S
H350 C322 0.931 . S
H351 C324 0.930 . S
H352 C326 0.930 . S
H353 C327 0.931 1_655 S
H354 C329 0.931 . S
H355 C331 0.930 . S
H356 C333 0.930 . S
H357 C334 0.931 . S
H358 C336 0.931 . S
H359 C338 0.930 . S
H360 C340 0.930 . S
H361 C341 0.931 1_455 S
H362 C343 0.931 . S
H363 C345 0.930 . S
H364 C347 0.930 . S
H365 C348 0.931 . S
N366 C328 1.343 1_655 S
N366 C349 1.343 1_565 S
N367 C335 1.343 1_545 S
N367 C342 1.343 1_455 S
In368 O369 2.294 . S
In368 O370 2.326 . S
In368 O374 2.266 1_554 S
In368 O375 2.326 1_554 S
In368 O376 2.266 1_554 S
In368 O377 2.326 1_554 S
In368 O379 2.294 . S
In368 O380 2.326 . S
O369 In368 2.294 . S
O369 C378 1.240 . S
O370 In368 2.326 . S
O370 C378 1.252 . S
C371 O374 1.252 . S
C371 O375 1.260 . S
C372 O379 1.240 . S
C372 O380 1.252 . S
C373 O376 1.252 . S
C373 O377 1.260 . S
O374 In368 2.266 1_556 S
O374 C371 1.252 . S
O375 In368 2.326 1_556 S
O375 C371 1.260 . S
O376 In368 2.266 1_556 S
O376 C373 1.252 . S
O377 In368 2.326 1_556 S
O377 C373 1.260 . S
C378 O369 1.240 . S
C378 O370 1.252 . S
O379 In368 2.294 . S
O379 C372 1.240 . S
O380 In368 2.326 . S
O380 C372 1.252 . S
In381 O382 2.294 . S
In381 O383 2.326 . S
In381 O387 2.266 . S
In381 O388 2.326 . S
In381 O389 2.266 . S
In381 O390 2.326 . S
In381 O392 2.294 . S
In381 O393 2.326 . S
O382 In381 2.294 . S
O382 C391 1.240 . S
O383 In381 2.326 . S
O383 C391 1.252 . S
C384 O387 1.252 . S
C384 O388 1.260 . S
C385 O392 1.240 . S
C385 O393 1.252 . S
C386 O389 1.252 . S
C386 O390 1.260 . S
O387 In381 2.266 . S
O387 C384 1.252 . S
O388 In381 2.326 . S
O388 C384 1.260 . S
O389 In381 2.266 . S
O389 C386 1.252 . S
O390 In381 2.326 . S
O390 C386 1.260 . S
C391 O382 1.240 . S
C391 O383 1.252 . S
O392 In381 2.294 . S
O392 C385 1.240 . S
O393 In381 2.326 . S
O393 C385 1.252 . S
In394 O395 2.294 . S
In394 O396 2.326 . S
In394 O400 2.266 . S
In394 O401 2.326 . S
In394 O402 2.266 . S
In394 O403 2.326 . S
In394 O405 2.294 . S
In394 O406 2.326 . S
O395 In394 2.294 . S
O395 C404 1.240 . S
O396 In394 2.326 . S
O396 C404 1.252 . S
C397 O400 1.252 . S
C397 O401 1.260 . S
C398 O405 1.240 . S
C398 O406 1.252 . S
C399 O402 1.252 . S
C399 O403 1.260 . S
O400 In394 2.266 . S
O400 C397 1.252 . S
O401 In394 2.326 . S
O401 C397 1.260 . S
O402 In394 2.266 . S
O402 C399 1.252 . S
O403 In394 2.326 . S
O403 C399 1.260 . S
C404 O395 1.240 . S
C404 O396 1.252 . S
O405 In394 2.294 . S
O405 C398 1.240 . S
O406 In394 2.326 . S
O406 C398 1.252 . S
In407 O408 2.294 . S
In407 O409 2.326 . S
In407 O413 2.266 . S
In407 O414 2.326 . S
In407 O415 2.266 . S
In407 O416 2.326 . S
In407 O418 2.294 . S
In407 O419 2.326 . S
O408 In407 2.294 . S
O408 C417 1.240 . S
O409 In407 2.326 . S
O409 C417 1.252 . S
C410 O413 1.252 . S
C410 O414 1.260 . S
C411 O418 1.240 . S
C411 O419 1.252 . S
C412 O415 1.252 . S
C412 O416 1.260 . S
O413 In407 2.266 . S
O413 C410 1.252 . S
O414 In407 2.326 . S
O414 C410 1.260 . S
O415 In407 2.266 . S
O415 C412 1.252 . S
O416 In407 2.326 . S
O416 C412 1.260 . S
C417 O408 1.240 . S
C417 O409 1.252 . S
O418 In407 2.294 . S
O418 C411 1.240 . S
O419 In407 2.326 . S
O419 C411 1.252 . S
In420 O421 2.294 . S
In420 O422 2.326 . S
In420 O426 2.266 . S
In420 O427 2.326 . S
In420 O428 2.266 . S
In420 O429 2.326 . S
In420 O431 2.294 . S
In420 O432 2.326 . S
O421 In420 2.294 . S
O421 C430 1.240 . S
O422 In420 2.326 . S
O422 C430 1.252 . S
C423 O426 1.252 . S
C423 O427 1.260 . S
C424 O431 1.240 . S
C424 O432 1.252 . S
C425 O428 1.252 . S
C425 O429 1.260 . S
O426 In420 2.266 . S
O426 C423 1.252 . S
O427 In420 2.326 . S
O427 C423 1.260 . S
O428 In420 2.266 . S
O428 C425 1.252 . S
O429 In420 2.326 . S
O429 C425 1.260 . S
C430 O421 1.240 . S
C430 O422 1.252 . S
O431 In420 2.294 . S
O431 C424 1.240 . S
O432 In420 2.326 . S
O432 C424 1.252 . S
In433 O434 2.294 . S
In433 O435 2.326 . S
In433 O439 2.266 . S
In433 O440 2.326 . S
In433 O441 2.266 . S
In433 O442 2.326 . S
In433 O444 2.294 . S
In433 O445 2.326 . S
O434 In433 2.294 . S
O434 C443 1.240 . S
O435 In433 2.326 . S
O435 C443 1.252 . S
C436 O439 1.252 . S
C436 O440 1.260 . S
C437 O444 1.240 . S
C437 O445 1.252 . S
C438 O441 1.252 . S
C438 O442 1.260 . S
O439 In433 2.266 . S
O439 C436 1.252 . S
O440 In433 2.326 . S
O440 C436 1.260 . S
O441 In433 2.266 . S
O441 C438 1.252 . S
O442 In433 2.326 . S
O442 C438 1.260 . S
C443 O434 1.240 . S
C443 O435 1.252 . S
O444 In433 2.294 . S
O444 C437 1.240 . S
O445 In433 2.326 . S
O445 C437 1.252 . S
In446 O447 2.294 . S
In446 O448 2.326 . S
In446 O452 2.266 1_554 S
In446 O453 2.326 1_554 S
In446 O454 2.266 1_554 S
In446 O455 2.326 1_554 S
In446 O457 2.294 . S
In446 O458 2.326 . S
O447 In446 2.294 . S
O447 C456 1.240 . S
O448 In446 2.326 . S
O448 C456 1.252 . S
C449 O452 1.252 . S
C449 O453 1.260 . S
C450 O457 1.240 . S
C450 O458 1.252 . S
C451 O454 1.252 . S
C451 O455 1.260 . S
O452 In446 2.266 1_556 S
O452 C449 1.252 . S
O453 In446 2.326 1_556 S
O453 C449 1.260 . S
O454 In446 2.266 1_556 S
O454 C451 1.252 . S
O455 In446 2.326 1_556 S
O455 C451 1.260 . S
C456 O447 1.240 . S
C456 O448 1.252 . S
O457 In446 2.294 . S
O457 C450 1.240 . S
O458 In446 2.326 . S
O458 C450 1.252 . S
In459 O460 2.294 . S
In459 O461 2.326 . S
In459 O465 2.266 . S
In459 O466 2.326 . S
In459 O467 2.266 . S
In459 O468 2.326 . S
In459 O470 2.294 . S
In459 O471 2.326 . S
O460 In459 2.294 . S
O460 C469 1.240 . S
O461 In459 2.326 . S
O461 C469 1.252 . S
C462 O465 1.252 . S
C462 O466 1.260 . S
C463 O470 1.240 . S
C463 O471 1.252 . S
C464 O467 1.252 . S
C464 O468 1.260 . S
O465 In459 2.266 . S
O465 C462 1.252 . S
O466 In459 2.326 . S
O466 C462 1.260 . S
O467 In459 2.266 . S
O467 C464 1.252 . S
O468 In459 2.326 . S
O468 C464 1.260 . S
C469 O460 1.240 . S
C469 O461 1.252 . S
O470 In459 2.294 . S
O470 C463 1.240 . S
O471 In459 2.326 . S
O471 C463 1.252 . S
H472 C478 0.930 . S
H473 C481 0.930 . S
H474 C482 0.930 . S
H475 C483 0.930 . S
H476 C486 0.930 . S
H477 C487 0.930 . S
C478 H472 0.930 . S
C478 C479 1.355 . S
C478 C480 1.415 . S
C479 C478 1.355 . S
C479 C481 1.419 . S
C480 C478 1.415 . S
C480 C485 1.425 . S
C480 C487 1.409 . S
C481 H473 0.930 . S
C481 C479 1.419 . S
C481 C482 1.362 . S
C482 H474 0.930 . S
C482 C481 1.362 . S
C482 C485 1.409 . S
C483 H475 0.930 . S
C483 C484 1.355 . S
C483 C485 1.415 . S
C484 C483 1.355 . S
C484 C486 1.419 . S
C485 C480 1.425 . S
C485 C482 1.409 . S
C485 C483 1.415 . S
C486 H476 0.930 . S
C486 C484 1.419 . S
C486 C487 1.362 . S
C487 H477 0.930 . S
C487 C480 1.409 . S
C487 C486 1.362 . S
H488 C494 0.930 . S
H489 C497 0.930 . S
H490 C498 0.930 . S
H491 C499 0.930 . S
H492 C502 0.930 . S
H493 C503 0.930 . S
C494 H488 0.930 . S
C494 C495 1.355 . S
C494 C496 1.415 . S
C495 C494 1.355 . S
C495 C497 1.419 . S
C496 C494 1.415 . S
C496 C501 1.425 . S
C496 C503 1.409 . S
C497 H489 0.930 . S
C497 C495 1.419 . S
C497 C498 1.362 . S
C498 H490 0.930 . S
C498 C497 1.362 . S
C498 C501 1.409 . S
C499 H491 0.930 . S
C499 C500 1.355 . S
C499 C501 1.415 . S
C500 C499 1.355 . S
C500 C502 1.419 . S
C501 C496 1.425 . S
C501 C498 1.409 . S
C501 C499 1.415 . S
C502 H492 0.930 . S
C502 C500 1.419 . S
C502 C503 1.362 . S
C503 H493 0.930 . S
C503 C496 1.409 . S
C503 C502 1.362 . S
H504 C510 0.930 . S
H505 C513 0.930 . S
H506 C514 0.930 . S
H507 C515 0.930 . S
H508 C518 0.930 . S
H509 C519 0.930 . S
C510 H504 0.930 . S
C510 C511 1.355 . S
C510 C512 1.415 . S
C511 C510 1.355 . S
C511 C513 1.419 . S
C512 C510 1.415 . S
C512 C517 1.425 . S
C512 C519 1.409 . S
C513 H505 0.930 . S
C513 C511 1.419 . S
C513 C514 1.362 . S
C514 H506 0.930 . S
C514 C513 1.362 . S
C514 C517 1.409 . S
C515 H507 0.930 . S
C515 C516 1.355 . S
C515 C517 1.415 . S
C516 C515 1.355 . S
C516 C518 1.419 . S
C517 C512 1.425 . S
C517 C514 1.409 . S
C517 C515 1.415 . S
C518 H508 0.930 . S
C518 C516 1.419 . S
C518 C519 1.362 . S
C519 H509 0.930 . S
C519 C512 1.409 . S
C519 C518 1.362 . S
H520 C526 0.930 . S
H521 C529 0.930 . S
H522 C530 0.930 . S
H523 C531 0.930 . S
H524 C534 0.930 1_556 S
H525 C535 0.930 1_556 S
C526 H520 0.930 . S
C526 C527 1.355 . S
C526 C528 1.415 . S
C527 C526 1.355 . S
C527 C529 1.419 . S
C528 C526 1.415 . S
C528 C533 1.425 . S
C528 C535 1.409 . S
C529 H521 0.930 . S
C529 C527 1.419 . S
C529 C530 1.362 . S
C530 H522 0.930 . S
C530 C529 1.362 . S
C530 C533 1.409 . S
C531 H523 0.930 . S
C531 C532 1.355 . S
C531 C533 1.415 . S
C532 C531 1.355 . S
C532 C534 1.419 . S
C533 C528 1.425 . S
C533 C530 1.409 . S
C533 C531 1.415 . S
C534 H524 0.930 1_554 S
C534 C532 1.419 . S
C534 C535 1.362 . S
C535 H525 0.930 1_554 S
C535 C528 1.409 . S
C535 C534 1.362 . S
H536 C542 0.930 . S
H537 C545 0.930 . S
H538 C546 0.930 . S
H539 C547 0.930 . S
H540 C550 0.930 . S
H541 C551 0.930 . S
C542 H536 0.930 . S
C542 C543 1.355 . S
C542 C544 1.415 . S
C543 C542 1.355 . S
C543 C545 1.419 . S
C544 C542 1.415 . S
C544 C549 1.425 . S
C544 C551 1.409 1_556 S
C545 H537 0.930 . S
C545 C543 1.419 . S
C545 C546 1.362 . S
C546 H538 0.930 . S
C546 C545 1.362 . S
C546 C549 1.409 . S
C547 H539 0.930 . S
C547 C548 1.355 . S
C547 C549 1.415 . S
C548 C547 1.355 . S
C548 C550 1.419 1_556 S
C549 C544 1.425 . S
C549 C546 1.409 . S
C549 C547 1.415 . S
C550 H540 0.930 . S
C550 C548 1.419 1_554 S
C550 C551 1.362 . S
C551 H541 0.930 . S
C551 C544 1.409 1_554 S
C551 C550 1.362 . S
H552 C558 0.930 . S
H553 C561 0.930 . S
H554 C562 0.930 . S
H555 C563 0.930 . S
H556 C566 0.930 . S
H557 C567 0.930 . S
C558 H552 0.930 . S
C558 C559 1.355 . S
C558 C560 1.415 . S
C559 C558 1.355 . S
C559 C561 1.419 . S
C560 C558 1.415 . S
C560 C565 1.425 . S
C560 C567 1.409 . S
C561 H553 0.930 . S
C561 C559 1.419 . S
C561 C562 1.362 . S
C562 H554 0.930 . S
C562 C561 1.362 . S
C562 C565 1.409 . S
C563 H555 0.930 . S
C563 C564 1.355 . S
C563 C565 1.415 . S
C564 C563 1.355 . S
C564 C566 1.419 . S
C565 C560 1.425 . S
C565 C562 1.409 . S
C565 C563 1.415 . S
C566 H556 0.930 . S
C566 C564 1.419 . S
C566 C567 1.362 . S
C567 H557 0.930 . S
C567 C560 1.409 . S
C567 C566 1.362 . S
H568 C574 0.930 . S
H569 C577 0.930 . S
H570 C578 0.930 . S
H571 C579 0.930 . S
H572 C582 0.930 . S
H573 C583 0.930 . S
C574 H568 0.930 . S
C574 C575 1.355 . S
C574 C576 1.415 . S
C575 C574 1.355 . S
C575 C577 1.419 . S
C576 C574 1.415 . S
C576 C581 1.425 . S
C576 C583 1.409 . S
C577 H569 0.930 . S
C577 C575 1.419 . S
C577 C578 1.362 . S
C578 H570 0.930 . S
C578 C577 1.362 . S
C578 C581 1.409 . S
C579 H571 0.930 . S
C579 C580 1.355 . S
C579 C581 1.415 . S
C580 C579 1.355 . S
C580 C582 1.419 . S
C581 C576 1.425 . S
C581 C578 1.409 . S
C581 C579 1.415 . S
C582 H572 0.930 . S
C582 C580 1.419 . S
C582 C583 1.362 . S
C583 H573 0.930 . S
C583 C576 1.409 . S
C583 C582 1.362 . S
H584 C590 0.930 . S
H585 C593 0.930 . S
H586 C594 0.930 . S
H587 C595 0.930 . S
H588 C598 0.930 . S
H589 C599 0.930 . S
C590 H584 0.930 . S
C590 C591 1.355 . S
C590 C592 1.415 . S
C591 C590 1.355 . S
C591 C593 1.419 . S
C592 C590 1.415 . S
C592 C597 1.425 . S
C592 C599 1.409 . S
C593 H585 0.930 . S
C593 C591 1.419 . S
C593 C594 1.362 . S
C594 H586 0.930 . S
C594 C593 1.362 . S
C594 C597 1.409 . S
C595 H587 0.930 . S
C595 C596 1.355 . S
C595 C597 1.415 . S
C596 C595 1.355 . S
C596 C598 1.419 . S
C597 C592 1.425 . S
C597 C594 1.409 . S
C597 C595 1.415 . S
C598 H588 0.930 . S
C598 C596 1.419 . S
C598 C599 1.362 . S
C599 H589 0.930 . S
C599 C592 1.409 . S
C599 C598 1.362 . S
H600 C606 0.930 . S
H601 C609 0.930 . S
H602 C610 0.930 . S
H603 C611 0.930 . S
H604 C614 0.930 . S
H605 C615 0.930 . S
C606 H600 0.930 . S
C606 C607 1.355 . S
C606 C608 1.415 . S
C607 C606 1.355 . S
C607 C609 1.419 . S
C608 C606 1.415 . S
C608 C613 1.425 . S
C608 C615 1.409 . S
C609 H601 0.930 . S
C609 C607 1.419 . S
C609 C610 1.362 . S
C610 H602 0.930 . S
C610 C609 1.362 . S
C610 C613 1.409 . S
C611 H603 0.930 . S
C611 C612 1.355 . S
C611 C613 1.415 . S
C612 C611 1.355 . S
C612 C614 1.419 . S
C613 C608 1.425 . S
C613 C610 1.409 . S
C613 C611 1.415 . S
C614 H604 0.930 . S
C614 C612 1.419 . S
C614 C615 1.362 . S
C615 H605 0.930 . S
C615 C608 1.409 . S
C615 C614 1.362 . S
H616 C622 0.930 . S
H617 C625 0.930 . S
H618 C626 0.930 . S
H619 C627 0.930 . S
H620 C630 0.930 . S
H621 C631 0.930 . S
C622 H616 0.930 . S
C622 C623 1.355 . S
C622 C624 1.415 . S
C623 C622 1.355 . S
C623 C625 1.419 . S
C624 C622 1.415 . S
C624 C629 1.425 . S
C624 C631 1.409 . S
C625 H617 0.930 . S
C625 C623 1.419 . S
C625 C626 1.362 . S
C626 H618 0.930 . S
C626 C625 1.362 . S
C626 C629 1.409 . S
C627 H619 0.930 . S
C627 C628 1.355 . S
C627 C629 1.415 . S
C628 C627 1.355 . S
C628 C630 1.419 . S
C629 C624 1.425 . S
C629 C626 1.409 . S
C629 C627 1.415 . S
C630 H620 0.930 . S
C630 C628 1.419 . S
C630 C631 1.362 . S
C631 H621 0.930 . S
C631 C624 1.409 . S
C631 C630 1.362 . S
H632 C638 0.930 . S
H633 C641 0.930 . S
H634 C642 0.930 . S
H635 C643 0.930 . S
H636 C646 0.930 . S
H637 C647 0.930 . S
C638 H632 0.930 . S
C638 C639 1.355 . S
C638 C640 1.415 . S
C639 C638 1.355 . S
C639 C641 1.419 . S
C640 C638 1.415 . S
C640 C645 1.425 . S
C640 C647 1.409 . S
C641 H633 0.930 . S
C641 C639 1.419 . S
C641 C642 1.362 . S
C642 H634 0.930 . S
C642 C641 1.362 . S
C642 C645 1.409 . S
C643 H635 0.930 . S
C643 C644 1.355 . S
C643 C645 1.415 . S
C644 C643 1.355 . S
C644 C646 1.419 . S
C645 C640 1.425 . S
C645 C642 1.409 . S
C645 C643 1.415 . S
C646 H636 0.930 . S
C646 C644 1.419 . S
C646 C647 1.362 . S
C647 H637 0.930 . S
C647 C640 1.409 . S
C647 C646 1.362 . S
H648 C654 0.930 . S
H649 C657 0.930 . S
H650 C658 0.930 . S
H651 C659 0.930 . S
H652 C662 0.930 . S
H653 C663 0.930 . S
C654 H648 0.930 . S
C654 C655 1.355 . S
C654 C656 1.415 . S
C655 C654 1.355 . S
C655 C657 1.419 . S
C656 C654 1.415 . S
C656 C661 1.425 . S
C656 C663 1.409 . S
C657 H649 0.930 . S
C657 C655 1.419 . S
C657 C658 1.362 . S
C658 H650 0.930 . S
C658 C657 1.362 . S
C658 C661 1.409 . S
C659 H651 0.930 . S
C659 C660 1.355 . S
C659 C661 1.415 . S
C660 C659 1.355 . S
C660 C662 1.419 . S
C661 C656 1.425 . S
C661 C658 1.409 . S
C661 C659 1.415 . S
C662 H652 0.930 . S
C662 C660 1.419 . S
C662 C663 1.362 . S
C663 H653 0.930 . S
C663 C656 1.409 . S
C663 C662 1.362 . S
H664 C670 0.930 . S
H665 C673 0.930 . S
H666 C674 0.930 . S
H667 C675 0.930 . S
H668 C678 0.930 . S
H669 C679 0.930 . S
C670 H664 0.930 . S
C670 C671 1.355 . S
C670 C672 1.415 . S
C671 C670 1.355 . S
C671 C673 1.419 . S
C672 C670 1.415 . S
C672 C677 1.425 . S
C672 C679 1.409 . S
C673 H665 0.930 . S
C673 C671 1.419 . S
C673 C674 1.362 . S
C674 H666 0.930 . S
C674 C673 1.362 . S
C674 C677 1.409 . S
C675 H667 0.930 . S
C675 C676 1.355 . S
C675 C677 1.415 . S
C676 C675 1.355 . S
C676 C678 1.419 . S
C677 C672 1.425 . S
C677 C674 1.409 . S
C677 C675 1.415 . S
C678 H668 0.930 . S
C678 C676 1.419 . S
C678 C679 1.362 . S
C679 H669 0.930 . S
C679 C672 1.409 . S
C679 C678 1.362 . S
H680 C686 0.930 . S
H681 C689 0.930 . S
H682 C690 0.930 . S
H683 C691 0.930 . S
H684 C694 0.930 . S
H685 C695 0.930 . S
C686 H680 0.930 . S
C686 C687 1.355 . S
C686 C688 1.415 . S
C687 C686 1.355 . S
C687 C689 1.419 . S
C688 C686 1.415 . S
C688 C693 1.425 . S
C688 C695 1.409 . S
C689 H681 0.930 . S
C689 C687 1.419 . S
C689 C690 1.362 . S
C690 H682 0.930 . S
C690 C689 1.362 . S
C690 C693 1.409 . S
C691 H683 0.930 . S
C691 C692 1.355 . S
C691 C693 1.415 . S
C692 C691 1.355 . S
C692 C694 1.419 . S
C693 C688 1.425 . S
C693 C690 1.409 . S
C693 C691 1.415 . S
C694 H684 0.930 . S
C694 C692 1.419 . S
C694 C695 1.362 . S
C695 H685 0.930 . S
C695 C688 1.409 . S
C695 C694 1.362 . S
H696 C702 0.930 . S
H697 C705 0.930 . S
H698 C706 0.930 . S
H699 C707 0.930 . S
H700 C710 0.916 1_554 S
H701 C711 0.930 . S
C702 H696 0.930 . S
C702 C703 1.355 . S
C702 C704 1.415 . S
C703 C702 1.355 . S
C703 C705 1.419 . S
C704 C702 1.415 . S
C704 C709 1.425 . S
C704 C711 1.409 . S
C705 H697 0.930 . S
C705 C703 1.419 . S
C705 C706 1.362 . S
C706 H698 0.930 . S
C706 C705 1.362 . S
C706 C709 1.409 . S
C707 H699 0.930 . S
C707 C708 1.355 . S
C707 C709 1.415 . S
C708 C707 1.355 . S
C708 C710 1.419 . S
C709 C704 1.425 . S
C709 C706 1.409 . S
C709 C707 1.415 . S
C710 H700 0.916 1_556 S
C710 C708 1.419 . S
C710 C711 1.362 . S
C711 H701 0.930 . S
C711 C704 1.409 . S
C711 C710 1.362 . S
H712 C718 0.930 . S
H713 C721 0.930 . S
H714 C722 0.930 . S
H715 C723 0.930 . S
H716 C726 0.930 . S
H717 C727 0.930 . S
C718 H712 0.930 . S
C718 C719 1.355 . S
C718 C720 1.415 . S
C719 C718 1.355 . S
C719 C721 1.419 . S
C720 C718 1.415 . S
C720 C725 1.425 . S
C720 C727 1.409 . S
C721 H713 0.930 . S
C721 C719 1.419 . S
C721 C722 1.362 . S
C722 H714 0.930 . S
C722 C721 1.362 . S
C722 C725 1.409 . S
C723 H715 0.930 . S
C723 C724 1.355 . S
C723 C725 1.415 . S
C724 C723 1.355 . S
C724 C726 1.419 . S
C725 C720 1.425 . S
C725 C722 1.409 . S
C725 C723 1.415 . S
C726 H716 0.930 . S
C726 C724 1.419 . S
C726 C727 1.362 . S
C727 H717 0.930 . S
C727 C720 1.409 . S
C727 C726 1.362 . S
H728 C734 0.930 . S
H729 C737 0.930 . S
H730 C738 0.930 . S
H731 C739 0.930 . S
H732 C742 0.930 . S
H733 C743 0.930 . S
C734 H728 0.930 . S
C734 C735 1.355 . S
C734 C736 1.415 . S
C735 C734 1.355 . S
C735 C737 1.419 . S
C736 C734 1.415 . S
C736 C741 1.425 . S
C736 C743 1.409 . S
C737 H729 0.930 . S
C737 C735 1.419 . S
C737 C738 1.362 . S
C738 H730 0.930 . S
C738 C737 1.362 . S
C738 C741 1.409 . S
C739 H731 0.930 . S
C739 C740 1.355 . S
C739 C741 1.415 . S
C740 C739 1.355 . S
C740 C742 1.419 . S
C741 C736 1.425 . S
C741 C738 1.409 . S
C741 C739 1.415 . S
C742 H732 0.930 . S
C742 C740 1.419 . S
C742 C743 1.362 . S
C743 H733 0.930 . S
C743 C736 1.409 . S
C743 C742 1.362 . S
H744 C750 0.930 . S
H745 C753 0.930 . S
H746 C754 0.930 . S
H747 C755 0.930 . S
H748 C758 0.930 . S
H749 C759 0.930 . S
C750 H744 0.930 . S
C750 C751 1.355 . S
C750 C752 1.415 . S
C751 C750 1.355 . S
C751 C753 1.419 . S
C752 C750 1.415 . S
C752 C757 1.425 . S
C752 C759 1.409 . S
C753 H745 0.930 . S
C753 C751 1.419 . S
C753 C754 1.362 . S
C754 H746 0.930 . S
C754 C753 1.362 . S
C754 C757 1.409 . S
C755 H747 0.930 . S
C755 C756 1.355 . S
C755 C757 1.415 . S
C756 C755 1.355 . S
C756 C758 1.419 . S
C757 C752 1.425 . S
C757 C754 1.409 . S
C757 C755 1.415 . S
C758 H748 0.930 . S
C758 C756 1.419 . S
C758 C759 1.362 . S
C759 H749 0.930 . S
C759 C752 1.409 . S
C759 C758 1.362 . S
H760 C766 0.930 . S
H761 C769 0.930 . S
H762 C770 0.930 . S
H763 C771 0.930 . S
H764 C774 0.930 . S
H765 C775 0.930 . S
C766 H760 0.930 . S
C766 C767 1.355 . S
C766 C768 1.415 . S
C767 C766 1.355 . S
C767 C769 1.419 . S
C768 C766 1.415 . S
C768 C773 1.425 . S
C768 C775 1.409 . S
C769 H761 0.930 . S
C769 C767 1.419 . S
C769 C770 1.362 . S
C770 H762 0.930 . S
C770 C769 1.362 . S
C770 C773 1.409 . S
C771 H763 0.930 . S
C771 C772 1.355 . S
C771 C773 1.415 . S
C772 C771 1.355 . S
C772 C774 1.419 . S
C773 C768 1.425 . S
C773 C770 1.409 . S
C773 C771 1.415 . S
C774 H764 0.930 . S
C774 C772 1.419 . S
C774 C775 1.362 . S
C775 H765 0.930 . S
C775 C768 1.409 . S
C775 C774 1.362 . S
H776 C782 0.930 . S
H777 C785 0.930 . S
H778 C786 0.930 . S
H779 C787 0.930 . S
H780 C790 0.930 . S
H781 C791 0.930 . S
C782 H776 0.930 . S
C782 C783 1.355 . S
C782 C784 1.415 . S
C783 C782 1.355 . S
C783 C785 1.419 . S
C784 C782 1.415 . S
C784 C789 1.425 . S
C784 C791 1.409 . S
C785 H777 0.930 . S
C785 C783 1.419 . S
C785 C786 1.362 . S
C786 H778 0.930 . S
C786 C785 1.362 . S
C786 C789 1.409 . S
C787 H779 0.930 . S
C787 C788 1.355 . S
C787 C789 1.415 . S
C788 C787 1.355 . S
C788 C790 1.419 . S
C789 C784 1.425 . S
C789 C786 1.409 . S
C789 C787 1.415 . S
C790 H780 0.930 . S
C790 C788 1.419 . S
C790 C791 1.362 . S
C791 H781 0.930 . S
C791 C784 1.409 . S
C791 C790 1.362 . S
H792 C798 0.930 . S
H793 C801 0.930 . S
H794 C802 0.930 . S
H795 C803 0.930 . S
H796 C806 0.930 . S
H797 C807 0.930 . S
C798 H792 0.930 . S
C798 C799 1.355 . S
C798 C800 1.415 . S
C799 C798 1.355 . S
C799 C801 1.419 . S
C800 C798 1.415 . S
C800 C805 1.425 . S
C800 C807 1.409 . S
C801 H793 0.930 . S
C801 C799 1.419 . S
C801 C802 1.362 . S
C802 H794 0.930 . S
C802 C801 1.362 . S
C802 C805 1.409 . S
C803 H795 0.930 . S
C803 C804 1.355 . S
C803 C805 1.415 . S
C804 C803 1.355 . S
C804 C806 1.419 . S
C805 C800 1.425 . S
C805 C802 1.409 . S
C805 C803 1.415 . S
C806 H796 0.930 . S
C806 C804 1.419 . S
C806 C807 1.362 . S
C807 H797 0.930 . S
C807 C800 1.409 . S
C807 C806 1.362 . S
H808 C814 0.930 . S
H809 C817 0.930 . S
H810 C818 0.930 . S
H811 C819 0.930 . S
H812 C822 0.930 . S
H813 C823 0.930 . S
C814 H808 0.930 . S
C814 C815 1.355 . S
C814 C816 1.415 . S
C815 C814 1.355 . S
C815 C817 1.419 . S
C816 C814 1.415 . S
C816 C821 1.425 . S
C816 C823 1.409 . S
C817 H809 0.930 . S
C817 C815 1.419 . S
C817 C818 1.362 . S
C818 H810 0.930 . S
C818 C817 1.362 . S
C818 C821 1.409 . S
C819 H811 0.930 . S
C819 C820 1.355 . S
C819 C821 1.415 . S
C820 C819 1.355 . S
C820 C822 1.419 . S
C821 C816 1.425 . S
C821 C818 1.409 . S
C821 C819 1.415 . S
C822 H812 0.930 . S
C822 C820 1.419 . S
C822 C823 1.362 . S
C823 H813 0.930 . S
C823 C816 1.409 . S
C823 C822 1.362 . S
H824 C830 0.930 . S
H825 C833 0.930 . S
H826 C834 0.930 . S
H827 C835 0.930 . S
H828 C838 0.930 . S
H829 C839 0.930 . S
C830 H824 0.930 . S
C830 C831 1.355 . S
C830 C832 1.415 . S
C831 C830 1.355 . S
C831 C833 1.419 . S
C832 C830 1.415 . S
C832 C837 1.425 . S
C832 C839 1.409 . S
C833 H825 0.930 . S
C833 C831 1.419 . S
C833 C834 1.362 . S
C834 H826 0.930 . S
C834 C833 1.362 . S
C834 C837 1.409 . S
C835 H827 0.930 . S
C835 C836 1.355 . S
C835 C837 1.415 . S
C836 C835 1.355 . S
C836 C838 1.419 . S
C837 C832 1.425 . S
C837 C834 1.409 . S
C837 C835 1.415 . S
C838 H828 0.930 . S
C838 C836 1.419 . S
C838 C839 1.362 . S
C839 H829 0.930 . S
C839 C832 1.409 . S
C839 C838 1.362 . S
H840 C846 0.930 . S
H841 C849 0.930 . S
H842 C850 0.930 . S
H843 C851 0.930 . S
H844 C854 0.930 . S
H845 C855 0.930 . S
C846 H840 0.930 . S
C846 C847 1.355 . S
C846 C848 1.415 . S
C847 C846 1.355 . S
C847 C849 1.419 . S
C848 C846 1.415 . S
C848 C853 1.425 . S
C848 C855 1.409 . S
C849 H841 0.930 . S
C849 C847 1.419 . S
C849 C850 1.362 . S
C850 H842 0.930 . S
C850 C849 1.362 . S
C850 C853 1.409 . S
C851 H843 0.930 . S
C851 C852 1.355 . S
C851 C853 1.415 . S
C852 C851 1.355 . S
C852 C854 1.419 . S
C853 C848 1.425 . S
C853 C850 1.409 . S
C853 C851 1.415 . S
C854 H844 0.930 . S
C854 C852 1.419 . S
C854 C855 1.362 . S
C855 H845 0.930 . S
C855 C848 1.409 . S
C855 C854 1.362 . S
H856 C862 0.930 . S
H857 C865 0.930 . S
H858 C866 0.930 . S
H859 C867 0.930 . S
H860 C870 0.930 . S
H861 C871 0.930 . S
C862 H856 0.930 . S
C862 C863 1.355 . S
C862 C864 1.415 . S
C863 C862 1.355 . S
C863 C865 1.419 . S
C864 C862 1.415 . S
C864 C869 1.425 . S
C864 C871 1.409 . S
C865 H857 0.930 . S
C865 C863 1.419 . S
C865 C866 1.362 . S
C866 H858 0.930 . S
C866 C865 1.362 . S
C866 C869 1.409 . S
C867 H859 0.930 . S
C867 C868 1.355 . S
C867 C869 1.415 . S
C868 C867 1.355 . S
C868 C870 1.419 . S
C869 C864 1.425 . S
C869 C866 1.409 . S
C869 C867 1.415 . S
C870 H860 0.930 . S
C870 C868 1.419 . S
C870 C871 1.362 . S
C871 H861 0.930 . S
C871 C864 1.409 . S
C871 C870 1.362 . S
H872 C878 0.930 . S
H873 C881 0.930 . S
H874 C882 0.930 . S
H875 C883 0.930 . S
H876 C886 0.930 . S
H877 C887 0.930 . S
C878 H872 0.930 . S
C878 C879 1.355 . S
C878 C880 1.415 . S
C879 C878 1.355 . S
C879 C881 1.419 . S
C880 C878 1.415 . S
C880 C885 1.425 . S
C880 C887 1.409 . S
C881 H873 0.930 . S
C881 C879 1.419 . S
C881 C882 1.362 . S
C882 H874 0.930 . S
C882 C881 1.362 . S
C882 C885 1.409 . S
C883 H875 0.930 . S
C883 C884 1.355 . S
C883 C885 1.415 . S
C884 C883 1.355 . S
C884 C886 1.419 . S
C885 C880 1.425 . S
C885 C882 1.409 . S
C885 C883 1.415 . S
C886 H876 0.930 . S
C886 C884 1.419 . S
C886 C887 1.362 . S
C887 H877 0.930 . S
C887 C880 1.409 . S
C887 C886 1.362 . S
H888 C894 0.930 . S
H889 C897 0.930 . S
H890 C898 0.930 . S
H891 C899 0.930 . S
H892 C902 0.930 . S
H893 C903 0.930 . S
C894 H888 0.930 . S
C894 C895 1.355 . S
C894 C896 1.415 . S
C895 C894 1.355 . S
C895 C897 1.419 . S
C896 C894 1.415 . S
C896 C901 1.425 . S
C896 C903 1.409 . S
C897 H889 0.930 . S
C897 C895 1.419 . S
C897 C898 1.362 . S
C898 H890 0.930 . S
C898 C897 1.362 . S
C898 C901 1.409 . S
C899 H891 0.930 . S
C899 C900 1.355 . S
C899 C901 1.415 . S
C900 C899 1.355 . S
C900 C902 1.419 . S
C901 C896 1.425 . S
C901 C898 1.409 . S
C901 C899 1.415 . S
C902 H892 0.930 . S
C902 C900 1.419 . S
C902 C903 1.362 . S
C903 H893 0.930 . S
C903 C896 1.409 . S
C903 C902 1.362 . S
H904 C910 0.930 . S
H905 C913 0.930 . S
H906 C914 0.930 . S
H907 C915 0.930 . S
H908 C918 0.930 . S
H909 C919 0.930 . S
C910 H904 0.930 . S
C910 C911 1.355 . S
C910 C912 1.415 . S
C911 C910 1.355 . S
C911 C913 1.419 . S
C912 C910 1.415 . S
C912 C917 1.425 . S
C912 C919 1.409 . S
C913 H905 0.930 . S
C913 C911 1.419 . S
C913 C914 1.362 . S
C914 H906 0.930 . S
C914 C913 1.362 . S
C914 C917 1.409 . S
C915 H907 0.930 . S
C915 C916 1.355 . S
C915 C917 1.415 . S
C916 C915 1.355 . S
C916 C918 1.419 . S
C917 C912 1.425 . S
C917 C914 1.409 . S
C917 C915 1.415 . S
C918 H908 0.930 . S
C918 C916 1.419 . S
C918 C919 1.362 . S
C919 H909 0.930 . S
C919 C912 1.409 . S
C919 C918 1.362 . S
H920 C926 0.930 . S
H921 C929 0.930 . S
H922 C930 0.930 . S
H923 C931 0.930 . S
H924 C934 0.930 . S
H925 C935 0.930 . S
C926 H920 0.930 . S
C926 C927 1.355 . S
C926 C928 1.415 . S
C927 C926 1.355 . S
C927 C929 1.419 . S
C928 C926 1.415 . S
C928 C933 1.425 . S
C928 C935 1.409 . S
C929 H921 0.930 . S
C929 C927 1.419 . S
C929 C930 1.362 . S
C930 H922 0.930 . S
C930 C929 1.362 . S
C930 C933 1.409 . S
C931 H923 0.930 . S
C931 C932 1.355 . S
C931 C933 1.415 . S
C932 C931 1.355 . S
C932 C934 1.419 . S
C933 C928 1.425 . S
C933 C930 1.409 . S
C933 C931 1.415 . S
C934 H924 0.930 . S
C934 C932 1.419 . S
C934 C935 1.362 . S
C935 H925 0.930 . S
C935 C928 1.409 . S
C935 C934 1.362 . S
H936 C942 0.930 . S
H937 C945 0.930 . S
H938 C946 0.930 . S
H939 C947 0.930 . S
H940 C950 0.930 . S
H941 C951 0.930 . S
C942 H936 0.930 . S
C942 C943 1.355 . S
C942 C944 1.415 . S
C943 C942 1.355 . S
C943 C945 1.419 . S
C944 C942 1.415 . S
C944 C949 1.425 . S
C944 C951 1.409 . S
C945 H937 0.930 . S
C945 C943 1.419 . S
C945 C946 1.362 . S
C946 H938 0.930 . S
C946 C945 1.362 . S
C946 C949 1.409 . S
C947 H939 0.930 . S
C947 C948 1.355 . S
C947 C949 1.415 . S
C948 C947 1.355 . S
C948 C950 1.419 . S
C949 C944 1.425 . S
C949 C946 1.409 . S
C949 C947 1.415 . S
C950 H940 0.930 . S
C950 C948 1.419 . S
C950 C951 1.362 . S
C951 H941 0.930 . S
C951 C944 1.409 . S
C951 C950 1.362 . S
H952 C958 0.930 . S
H953 C961 0.930 . S
H954 C962 0.930 . S
H955 C963 0.930 . S
H956 C966 0.930 . S
H957 C967 0.930 . S
C958 H952 0.930 . S
C958 C959 1.355 . S
C958 C960 1.415 . S
C959 C958 1.355 . S
C959 C961 1.419 . S
C960 C958 1.415 . S
C960 C965 1.425 . S
C960 C967 1.409 . S
C961 H953 0.930 . S
C961 C959 1.419 . S
C961 C962 1.362 . S
C962 H954 0.930 . S
C962 C961 1.362 . S
C962 C965 1.409 . S
C963 H955 0.930 . S
C963 C964 1.355 . S
C963 C965 1.415 . S
C964 C963 1.355 . S
C964 C966 1.419 . S
C965 C960 1.425 . S
C965 C962 1.409 . S
C965 C963 1.415 . S
C966 H956 0.930 . S
C966 C964 1.419 . S
C966 C967 1.362 . S
C967 H957 0.930 . S
C967 C960 1.409 . S
C967 C966 1.362 . S
H968 C974 0.930 . S
H969 C977 0.930 . S
H970 C978 0.930 . S
H971 C979 0.930 . S
H972 C982 0.930 . S
H973 C983 0.930 . S
C974 H968 0.930 . S
C974 C975 1.355 . S
C974 C976 1.415 . S
C975 C974 1.355 . S
C975 C977 1.419 . S
C976 C974 1.415 . S
C976 C981 1.425 . S
C976 C983 1.409 . S
C977 H969 0.930 . S
C977 C975 1.419 . S
C977 C978 1.362 . S
C978 H970 0.930 . S
C978 C977 1.362 . S
C978 C981 1.409 . S
C979 H971 0.930 . S
C979 C980 1.355 . S
C979 C981 1.415 . S
C980 C979 1.355 . S
C980 C982 1.419 . S
C981 C976 1.425 . S
C981 C978 1.409 . S
C981 C979 1.415 . S
C982 H972 0.930 . S
C982 C980 1.419 . S
C982 C983 1.362 . S
C983 H973 0.930 . S
C983 C976 1.409 . S
C983 C982 1.362 . S
C484 C384 1.347 . S
C479 C8 1.324 . S
C500 C398 1.339 . S
C495 C61 1.341 . S
C516 C411 1.343 . S
C511 C107 1.365 . S
C527 C139 1.319 . S
C532 C378 1.363 . S
C543 C192 1.323 . S
C548 C371 1.367 . S
C559 C238 1.330 . S
C564 C391 1.378 . S
C580 C399 1.369 . S
C575 C284 1.320 . S
C596 C412 1.345 . S
C591 C330 1.355 . S
C607 C100 1.356 . S
C612 C438 1.341 . S
C628 C456 1.339 . S
C623 C160 1.363 . S
C639 C15 1.368 . S
C644 C463 1.345 . S
C660 C430 1.377 . S
C655 C54 1.331 . S
C671 C291 1.376 . S
C676 C423 1.362 . S
C687 C337 1.347 . S
C692 C437 1.374 . S
C708 C449 1.372 . S
C703 C199 1.316 . S
C719 C245 1.372 . S
C724 C464 1.355 . S
C740 C397 1.715 . S
C735 C1 1.755 . S
C756 C410 1.746 . S
C751 C68 1.726 . S
C767 C114 1.730 . S
C772 C373 1.704 . S
C783 C146 1.739 . S
C788 C385 1.692 . S
C799 C185 1.721 . S
C804 C417 1.696 . S
C820 C372 1.721 . S
C815 C231 1.720 . S
C836 C386 1.724 . S
C831 C277 1.757 . S
C852 C404 1.735 . S
C847 C323 1.750 . S
C868 C451 1.744 . S
C863 C93 1.757 . S
C884 C462 1.727 . S
C879 C153 1.755 . S
C895 C22 1.748 . S
C900 C425 1.718 . S
C916 C443 1.704 . S
C911 C47 1.751 . S
C932 C469 1.730 . S
C927 C298 1.739 . S
C943 C344 1.740 . S
C948 C424 1.703 . S
C964 C436 1.709 . S
C959 C206 1.740 . S
C980 C450 1.713 . S
C975 C252 1.747 . S
