# Generated by pormake.
# Topology rtl, (3,6)-cn, num edge types: 1
# Building blocks:
#     Node 0, Type 0, BuildingBlock: BELTOD_clean_linker_0, # of connection points: 3
#     Node 1, Type 0, BuildingBlock: BELTOD_clean_linker_0, # of connection points: 3
#     Node 2, Type 0, BuildingBlock: BELTOD_clean_linker_0, # of connection points: 3
#     Node 3, Type 0, BuildingBlock: BELTOD_clean_linker_0, # of connection points: 3
#     Node 4, Type 1, BuildingBlock: KUMJIN_clean_sbu_1, # of connection points: 6
#     Node 5, Type 1, BuildingBlock: KUMJIN_clean_sbu_1, # of connection points: 6
#     Edge 6, Type (0, 1), BuildingBlock: AJUNOK_clean_linker_0, # of connection points: 2
#     Edge 7, Type (0, 1), BuildingBlock: AJUNOK_clean_linker_0, # of connection points: 2
#     Edge 8, Type (0, 1), BuildingBlock: AJUNOK_clean_linker_0, # of connection points: 2
#     Edge 9, Type (0, 1), BuildingBlock: AJUNOK_clean_linker_0, # of connection points: 2
#     Edge 10, Type (0, 1), BuildingBlock: AJUNOK_clean_linker_0, # of connection points: 2
#     Edge 11, Type (0, 1), BuildingBlock: AJUNOK_clean_linker_0, # of connection points: 2
#     Edge 12, Type (0, 1), BuildingBlock: AJUNOK_clean_linker_0, # of connection points: 2
#     Edge 13, Type (0, 1), BuildingBlock: AJUNOK_clean_linker_0, # of connection points: 2
#     Edge 14, Type (0, 1), BuildingBlock: AJUNOK_clean_linker_0, # of connection points: 2
#     Edge 15, Type (0, 1), BuildingBlock: AJUNOK_clean_linker_0, # of connection points: 2
#     Edge 16, Type (0, 1), BuildingBlock: AJUNOK_clean_linker_0, # of connection points: 2
#     Edge 17, Type (0, 1), BuildingBlock: AJUNOK_clean_linker_0, # of connection points: 2
# Relax obj value: 0.020
# Max RMSD: 0.118
# Mean RMSD: 0.074
data_MOF--net-rtl--node1-KUMJIN_clean_sbu_1--node2-BELTOD_clean_linker_0--edge1-AJUNOK_clean_linker_0
_symmetry_space_group_name_H-M    P1
_symmetry_Int_Tables_number       1
_symmetry_cell_setting            triclinic
loop_
_symmetry_equiv_pos_as_xyz
'x, y, z'
_cell_length_a     28.806667
_cell_length_b     29.524366
_cell_length_c     26.080702
_cell_angle_alpha  75.494398
_cell_angle_beta   100.04768
_cell_angle_gamma 90.733151
loop_
_atom_site_label
_atom_site_type_symbol
_atom_site_fract_x
_atom_site_fract_y
_atom_site_fract_z
_atom_type_partial_charge
P0 P 0.27149 0.88327 0.02859 0.0
H1 H 0.28241 0.84446 0.14555 0.0
H2 H 0.23655 0.85631 0.21223 0.0
H3 H 0.13579 0.94385 0.08479 0.0
H4 H 0.18302 0.93424 0.01934 0.0
H5 H 0.36521 0.86049 0.0138 0.0
H6 H 0.40616 0.7864 0.02196 0.0
H7 H 0.28836 0.71085 0.07922 0.0
H8 H 0.24723 0.78558 0.07108 0.0
H9 H 0.28728 0.93359 0.92165 0.0
H10 H 0.17931 0.84922 0.99018 0.0
O11 O 0.30978 0.92624 0.0277 0.0
H12 H 0.23813 0.94791 0.83234 0.0
H13 H 0.12879 0.86556 0.90162 0.0
C14 C 0.23518 0.88692 0.07721 0.0
C15 C 0.25001 0.86553 0.13201 0.0
C16 C 0.22365 0.8722 0.17004 0.0
C17 C 0.18201 0.90041 0.15375 0.0
C18 C 0.16762 0.92191 0.09876 0.0
C19 C 0.19429 0.91581 0.06108 0.0
C20 C 0.30363 0.82845 0.04291 0.0
C21 C 0.34848 0.82806 0.02913 0.0
C22 C 0.37168 0.78577 0.03332 0.0
C23 C 0.35017 0.74307 0.05079 0.0
C24 C 0.30568 0.74338 0.06588 0.0
C25 C 0.28231 0.78591 0.06139 0.0
C26 C 0.23627 0.89153 0.96261 0.0
C27 C 0.25288 0.91834 0.91749 0.0
C28 C 0.22473 0.92653 0.8665 0.0
C29 C 0.17947 0.908 0.8598 0.0
C30 C 0.16374 0.87968 0.90505 0.0
C31 C 0.19229 0.87087 0.95588 0.0
P32 P 0.73165 0.65454 0.67571 0.0
H33 H 0.77035 0.66316 0.57873 0.0
H34 H 0.73995 0.64485 0.49307 0.0
H35 H 0.60403 0.61744 0.54068 0.0
H36 H 0.63439 0.6365 0.6262 0.0
H37 H 0.82313 0.68048 0.72658 0.0
H38 H 0.8689 0.75063 0.70483 0.0
H39 H 0.7484 0.82147 0.59162 0.0
H40 H 0.70308 0.75028 0.61241 0.0
H41 H 0.68179 0.57075 0.7126 0.0
H42 H 0.69434 0.70747 0.74374 0.0
O43 O 0.77407 0.61272 0.69747 0.0
H44 H 0.63224 0.54711 0.78101 0.0
H45 H 0.64552 0.68339 0.81396 0.0
C46 C 0.70498 0.65044 0.60924 0.0
C47 C 0.73365 0.65439 0.57022 0.0
C48 C 0.71612 0.64429 0.52108 0.0
C49 C 0.66955 0.62989 0.51017 0.0
C50 C 0.64006 0.62846 0.54816 0.0
C51 C 0.65756 0.63904 0.59721 0.0
C52 C 0.75999 0.70992 0.67036 0.0
C53 C 0.80622 0.71129 0.69769 0.0
C54 C 0.8324 0.7515 0.68527 0.0
C55 C 0.8127 0.79121 0.64546 0.0
C56 C 0.76503 0.79093 0.62127 0.0
C57 C 0.73891 0.75051 0.63358 0.0
C58 C 0.69143 0.64092 0.72283 0.0
C59 C 0.67344 0.59587 0.73389 0.0
C60 C 0.64531 0.5823 0.77319 0.0
C61 C 0.63491 0.61336 0.80284 0.0
C62 C 0.65228 0.65895 0.79112 0.0
C63 C 0.68039 0.67267 0.75127 0.0
P64 P 0.84212 0.22545 0.0748 0.0
H65 H 0.80234 0.26627 0.96258 0.0
H66 H 0.8078 0.24391 0.87963 0.0
H67 H 0.88514 0.1172 0.97258 0.0
H68 H 0.87893 0.1392 0.05576 0.0
H69 H 0.82062 0.29924 0.12334 0.0
H70 H 0.74736 0.34081 0.12214 0.0
H71 H 0.66935 0.25441 0.02808 0.0
H72 H 0.74293 0.21249 0.02977 0.0
H73 H 0.93307 0.1803 0.12718 0.0
H74 H 0.79101 0.17453 0.15958 0.0
O75 O 0.88304 0.2661 0.07154 0.0
H76 H 0.9609 0.12874 0.21643 0.0
H77 H 0.81894 0.1243 0.2496 0.0
C78 C 0.83947 0.20408 0.01547 0.0
C79 C 0.81936 0.23304 0.9653 0.0
C80 C 0.82258 0.22034 0.91793 0.0
C81 C 0.847 0.17896 0.91986 0.0
C82 C 0.86633 0.14943 0.97015 0.0
C83 C 0.8626 0.16192 0.01766 0.0
C84 C 0.78732 0.25384 0.07528 0.0
C85 C 0.78779 0.28926 0.10239 0.0
C86 C 0.74595 0.31277 0.10195 0.0
C87 C 0.70292 0.30117 0.07438 0.0
C88 C 0.70225 0.26454 0.04874 0.0
C89 C 0.74419 0.24067 0.04967 0.0
C90 C 0.86013 0.18157 0.13692 0.0
C91 C 0.90779 0.16747 0.15326 0.0
C92 C 0.92366 0.1382 0.20429 0.0
C93 C 0.89212 0.12261 0.24002 0.0
C94 C 0.84396 0.13517 0.22268 0.0
C95 C 0.82803 0.16424 0.17133 0.0
P96 P 0.36568 0.26204 0.49694 0.0
H97 H 0.43141 0.25448 0.59815 0.0
H98 H 0.44556 0.30429 0.66081 0.0
H99 H 0.33525 0.40098 0.56131 0.0
H100 H 0.32097 0.35083 0.49841 0.0
H101 H 0.32631 0.19129 0.44408 0.0
H102 H 0.2567 0.14378 0.45171 0.0
H103 H 0.20986 0.22667 0.54917 0.0
H104 H 0.28082 0.2723 0.54383 0.0
H105 H 0.44503 0.26014 0.44174 0.0
H106 H 0.31194 0.3362 0.40965 0.0
O107 O 0.40508 0.21741 0.51986 0.0
H108 H 0.46464 0.30746 0.35815 0.0
H109 H 0.33269 0.3858 0.32642 0.0
C110 C 0.37498 0.2988 0.5435 0.0
C111 C 0.41008 0.28627 0.58962 0.0
C112 C 0.41831 0.31482 0.62544 0.0
C113 C 0.39133 0.35629 0.61606 0.0
C114 C 0.35614 0.36886 0.56985 0.0
C115 C 0.34818 0.3404 0.53373 0.0
C116 C 0.3088 0.23558 0.493 0.0
C117 C 0.30053 0.19988 0.46613 0.0
C118 C 0.26047 0.17287 0.47029 0.0
C119 C 0.22736 0.18155 0.50078 0.0
C120 C 0.23479 0.21882 0.52569 0.0
C121 C 0.27526 0.24537 0.52214 0.0
C122 C 0.37704 0.29467 0.43218 0.0
C123 C 0.41989 0.28705 0.41672 0.0
C124 C 0.4314 0.31461 0.36909 0.0
C125 C 0.40082 0.35128 0.33634 0.0
C126 C 0.35713 0.35802 0.35099 0.0
C127 C 0.34534 0.32987 0.39862 0.0
Eu128 Eu 0.03662 0.94611 0.53063 0.0
C129 C 0.91237 0.11802 0.48133 0.0
N130 N 0.95594 0.11418 0.51248 0.0
C131 C 0.97586 0.18869 0.46087 0.0
C132 C 0.8994 0.1571 0.43735 0.0
C133 C 0.98739 0.14902 0.50371 0.0
C134 C 0.93182 0.19261 0.42731 0.0
C135 C 0.83589 0.08499 0.46115 0.0
C136 C 0.88134 0.08192 0.49274 0.0
C137 C 0.82321 0.12334 0.41647 0.0
C138 C 0.85488 0.15927 0.40458 0.0
Eu139 Eu 0.97406 0.04451 0.58111 0.0
N140 N 0.89497 0.04463 0.5356 0.0
C141 C 0.8041 0.05003 0.47621 0.0
C142 C 0.86235 0.01355 0.55369 0.0
C143 C 0.81703 0.0148 0.52347 0.0
H144 H 0.02167 0.14563 0.52927 0.0
H145 H 0.79183 0.98909 0.5372 0.0
H146 H 0.96301 0.85732 0.52795 0.0
H147 H 0.21637 0.94682 0.64085 0.0
H148 H 0.87052 0.98835 0.59206 0.0
H149 H 0.76887 0.05109 0.45302 0.0
H150 H 0.14406 0.98117 0.5784 0.0
H151 H 1.00105 0.21603 0.45349 0.0
H152 H 0.78867 0.12592 0.39136 0.0
H153 H 0.84445 0.18878 0.37022 0.0
H154 H 0.96141 0.77288 0.57148 0.0
H155 H 0.92319 0.22318 0.39383 0.0
H156 H 0.22148 0.86234 0.68637 0.0
N157 N 0.0319 0.86529 0.56882 0.0
C158 C 0.07112 0.84386 0.60276 0.0
C159 C 0.99238 0.79247 0.58085 0.0
C160 C 0.0722 0.79551 0.62755 0.0
C161 C 0.99308 0.84039 0.55688 0.0
C162 C 0.03207 0.76992 0.61644 0.0
N163 N 0.10765 0.91732 0.58996 0.0
C164 C 0.14548 0.94448 0.59843 0.0
C165 C 0.15116 0.84927 0.64879 0.0
C166 C 0.11024 0.87045 0.61321 0.0
C167 C 0.1895 0.87727 0.65908 0.0
C168 C 0.1867 0.92501 0.63359 0.0
H169 H 0.03148 0.73274 0.63482 0.0
H170 H 0.11454 0.73717 0.68207 0.0
H171 H 0.18356 0.78421 0.70072 0.0
O172 O 0.07779 0.96447 0.46593 0.0
O173 O 0.04605 0.936 0.62144 0.0
O174 O 0.03977 0.00946 0.63669 0.0
O175 O 0.03976 0.90026 0.47724 0.0
O176 O 0.06989 0.01796 0.51793 0.0
O177 O 0.05169 0.05671 0.58008 0.0
O178 O 0.93676 0.04539 0.64712 0.0
O179 O 0.98358 0.05533 0.49428 0.0
O180 O 0.9694 0.98319 0.48045 0.0
O181 O 0.98088 0.10258 0.61958 0.0
O182 O 0.95471 0.96804 0.6083 0.0
O183 O 0.95884 0.9414 0.53378 0.0
C184 C 0.05452 0.96542 0.65214 0.0
C185 C 0.04912 0.93777 0.38892 0.0
C186 C 0.06498 0.9383 0.30005 0.0
C187 C 0.01998 0.95884 0.27704 0.0
C188 C 0.00388 0.95712 0.36548 0.0
C189 C 0.98952 0.96793 0.30973 0.0
C190 C 0.07949 0.92802 0.35617 0.0
C191 C 0.07688 0.05101 0.54432 0.0
C192 C 0.06522 0.92825 0.4473 0.0
C193 C 0.11309 0.77427 0.66265 0.0
C194 C 0.15243 0.80106 0.67325 0.0
C195 C 0.96665 0.02875 0.46268 0.0
C196 C 0.91558 0.11957 0.6559 0.0
C197 C 0.87568 0.15411 0.71295 0.0
C198 C 0.84979 0.18426 0.66643 0.0
C199 C 0.88947 0.14989 0.61001 0.0
C200 C 0.90811 0.1213 0.7071 0.0
C201 C 0.85658 0.18195 0.61537 0.0
C202 C 0.94254 0.93837 0.57845 0.0
C203 C 0.95128 0.08634 0.65151 0.0
H204 H 0.00819 0.96717 0.23387 0.0
H205 H 0.97979 0.9637 0.39034 0.0
H206 H 0.95466 0.98321 0.29186 0.0
H207 H 0.11448 0.91296 0.3742 0.0
H208 H 0.82481 0.21013 0.66954 0.0
H209 H 0.89465 0.149 0.57022 0.0
H210 H 0.92761 0.09699 0.74234 0.0
H211 H 0.83664 0.20544 0.57986 0.0
Eu212 Eu 0.44475 0.48284 0.00783 0.0
C213 C 0.62952 0.57701 0.04629 0.0
N214 N 0.62227 0.53206 0.07202 0.0
C215 C 0.69294 0.50606 0.04981 0.0
C216 C 0.66811 0.58786 0.01924 0.0
C217 C 0.65383 0.49682 0.07546 0.0
C218 C 0.69986 0.55168 0.02111 0.0
C219 C 0.60439 0.6589 0.01995 0.0
C220 C 0.59751 0.61195 0.04608 0.0
C221 C 0.64189 0.66964 0.99143 0.0
C222 C 0.67365 0.63422 0.99107 0.0
Eu223 Eu 0.55317 0.51909 0.11027 0.0
N224 N 0.56107 0.60047 0.07343 0.0
C225 C 0.57428 0.69385 0.0247 0.0
C226 C 0.53543 0.63494 0.08331 0.0
C227 C 0.54044 0.68191 0.05769 0.0
H228 H 0.64802 0.46145 0.09695 0.0
H229 H 0.51873 0.70892 0.06415 0.0
H230 H 0.36334 0.5707 0.97019 0.0
H231 H 0.43214 0.29927 0.11288 0.0
H232 H 0.51145 0.62665 0.11155 0.0
H233 H 0.57835 0.73031 0.0052 0.0
H234 H 0.47247 0.36942 0.07143 0.0
H235 H 0.71744 0.47795 0.05173 0.0
H236 H 0.64726 0.70542 0.97051 0.0
H237 H 0.70273 0.64316 0.96945 0.0
H238 H 0.27904 0.58232 0.97277 0.0
H239 H 0.7299 0.55862 1.00077 0.0
H240 H 0.34689 0.304 0.11508 0.0
N241 N 0.36516 0.49822 0.00913 0.0
C242 C 0.34053 0.46059 0.03018 0.0
C243 C 0.29596 0.54798 0.98925 0.0
C244 C 0.2922 0.46546 0.03168 0.0
C245 C 0.34377 0.54145 0.98843 0.0
C246 C 0.27003 0.50984 0.01094 0.0
N247 N 0.41122 0.41399 0.05203 0.0
C248 C 0.43554 0.37225 0.07284 0.0
C249 C 0.33946 0.37778 0.07447 0.0
C250 C 0.36398 0.41718 0.05145 0.0
C251 C 0.36444 0.33503 0.0969 0.0
C252 C 0.41264 0.33227 0.09599 0.0
H253 H 0.23295 0.51501 0.01142 0.0
H254 H 0.23046 0.42923 0.0555 0.0
H255 H 0.27178 0.35257 0.09289 0.0
O256 O 0.4523 0.44299 0.94943 0.0
O257 O 0.43326 0.4704 0.09522 0.0
O258 O 0.50882 0.45857 0.14244 0.0
O259 O 0.39813 0.49757 0.92952 0.0
O260 O 0.51366 0.44001 0.02509 0.0
O261 O 0.55053 0.44246 0.1104 0.0
O262 O 0.56468 0.54241 0.18623 0.0
O263 O 0.56114 0.51702 0.02575 0.0
O264 O 0.48933 0.54411 0.97605 0.0
O265 O 0.61283 0.4918 0.17289 0.0
O266 O 0.48025 0.55301 0.1008 0.0
O267 O 0.4504 0.55827 0.01167 0.0
C268 C 0.46317 0.45806 0.1411 0.0
C269 C 0.43173 0.48362 0.85832 0.0
C270 C 0.43298 0.47093 0.76961 0.0
C271 C 0.45797 0.51226 0.75672 0.0
C272 C 0.45591 0.52519 0.8444 0.0
C273 C 0.46917 0.53927 0.79392 0.0
C274 C 0.42022 0.45666 0.82081 0.0
C275 C 0.54628 0.42488 0.06825 0.0
C276 C 0.41948 0.46728 0.91222 0.0
C277 C 0.26763 0.42615 0.05409 0.0
C278 C 0.29116 0.38246 0.07534 0.0
C279 C 0.53528 0.54046 0.98081 0.0
C280 C 0.6316 0.50972 0.25909 0.0
C281 C 0.65135 0.53062 0.34489 0.0
C282 C 0.68493 0.49344 0.36318 0.0
C283 C 0.6657 0.47289 0.27829 0.0
C284 C 0.62472 0.5389 0.29255 0.0
C285 C 0.69215 0.46493 0.32994 0.0
C286 C 0.45108 0.57227 0.05581 0.0
C287 C 0.60221 0.51517 0.20541 0.0
H288 H 0.46835 0.52388 0.71766 0.0
H289 H 0.46453 0.54662 0.87255 0.0
H290 H 0.48813 0.57124 0.78358 0.0
H291 H 0.402 0.42424 0.83178 0.0
H292 H 0.70594 0.48673 0.40321 0.0
H293 H 0.6716 0.44967 0.25365 0.0
H294 H 0.59842 0.56726 0.27849 0.0
H295 H 0.71817 0.43641 0.34436 0.0
C296 C 0.17675 0.13389 0.56232 0.0
C297 C 0.18733 0.14969 0.5101 0.0
C298 C 0.14081 0.10223 0.573 0.0
C299 C 0.11448 0.08453 0.53207 0.0
H300 H 0.19703 0.14533 0.59559 0.0
H301 H 0.13424 0.0908 0.61387 0.0
S302 S 0.12462 0.11778 0.38768 0.0
N303 N 0.16562 0.14774 0.41623 0.0
N304 N 0.09923 0.08707 0.43678 0.0
C305 C 0.12404 0.10042 0.47959 0.0
C306 C 0.16016 0.13323 0.46849 0.0
C307 C 0.38324 0.66227 0.09815 0.0
C308 C 0.37356 0.69863 0.05085 0.0
C309 C 0.40795 0.6212 0.09934 0.0
C310 C 0.42312 0.61486 0.05306 0.0
H311 H 0.37265 0.6661 0.13476 0.0
H312 H 0.41542 0.59433 0.13682 0.0
S313 S 0.40439 0.69905 0.91854 0.0
N314 N 0.37938 0.72515 0.95629 0.0
N315 N 0.42567 0.64826 0.95834 0.0
C316 C 0.41256 0.65061 0.00522 0.0
C317 C 0.38786 0.69244 0.00419 0.0
C318 C 0.87387 0.84893 0.66516 0.0
C319 C 0.84304 0.83118 0.62721 0.0
C320 C 0.90541 0.88408 0.64899 0.0
C321 C 0.90772 0.90246 0.5943 0.0
H322 H 0.87383 0.83532 0.70777 0.0
H323 H 0.92886 0.89622 0.67967 0.0
S324 S 0.83366 0.86941 0.47874 0.0
N325 N 0.81653 0.83536 0.53225 0.0
N326 N 0.87491 0.9021 0.50199 0.0
C327 C 0.87644 0.88586 0.55587 0.0
C328 C 0.84432 0.85011 0.57227 0.0
C329 C 0.64719 0.33493 0.11941 0.0
C330 C 0.65931 0.32832 0.07183 0.0
C331 C 0.60912 0.36453 0.11788 0.0
C332 C 0.58181 0.38888 0.06866 0.0
H333 H 0.66794 0.31778 0.15812 0.0
H334 H 0.60189 0.36929 0.15562 0.0
S335 S 0.59933 0.38344 0.93256 0.0
N336 N 0.64102 0.34793 0.97418 0.0
N337 N 0.56938 0.40373 0.97102 0.0
C338 C 0.59274 0.38145 0.02076 0.0
C339 C 0.63154 0.35116 0.02242 0.0
C340 C 0.13693 0.95481 0.18855 0.0
C341 C 0.15413 0.90914 0.19354 0.0
C342 C 0.10851 0.96397 0.22347 0.0
C343 C 0.09671 0.92796 0.26519 0.0
H344 H 0.14541 0.98383 0.15726 0.0
H345 H 0.09569 0.99953 0.21783 0.0
S346 S 0.13136 0.80234 0.29533 0.0
N347 N 0.15607 0.82731 0.24309 0.0
N348 N 0.10368 0.845 0.30967 0.0
C349 C 0.1141 0.88233 0.27138 0.0
C350 C 0.14262 0.87281 0.2354 0.0
C351 C 0.6223 0.55338 0.88534 0.0
C352 C 0.60861 0.59647 0.84797 0.0
C353 C 0.59794 0.53554 0.92765 0.0
C354 C 0.55878 0.55995 0.93434 0.0
H355 H 0.65243 0.53333 0.88213 0.0
H356 H 0.60987 0.50221 0.95533 0.0
S357 S 0.50868 0.67434 0.84824 0.0
N358 N 0.55319 0.66314 0.82052 0.0
N359 N 0.50774 0.62968 0.90087 0.0
C360 C 0.54468 0.60309 0.89758 0.0
C361 C 0.56963 0.62143 0.85436 0.0
C362 C 0.94898 0.11463 0.32596 0.0
C363 C 0.91044 0.09697 0.29657 0.0
C364 C 0.96688 0.09214 0.37958 0.0
C365 C 0.94718 0.05092 0.40584 0.0
H366 H 0.96507 0.14657 0.30759 0.0
H367 H 0.99648 0.10717 0.40062 0.0
S368 S 0.84551 0.99058 0.34768 0.0
N369 N 0.85294 0.0358 0.29799 0.0
N370 N 0.88651 0.99375 0.39939 0.0
C371 C 0.90854 0.03289 0.37729 0.0
C372 C 0.89011 0.05592 0.32256 0.0
C373 C 0.44682 0.40058 0.66921 0.0
C374 C 0.40066 0.38643 0.65433 0.0
C375 C 0.45685 0.42829 0.70606 0.0
C376 C 0.4212 0.44232 0.72998 0.0
H377 H 0.47539 0.39032 0.65201 0.0
H378 H 0.49292 0.43826 0.71652 0.0
S379 S 0.29462 0.41463 0.70458 0.0
N380 N 0.31899 0.38854 0.66626 0.0
N381 N 0.33784 0.44062 0.7356 0.0
C382 C 0.3749 0.42847 0.71541 0.0
C383 C 0.36461 0.40063 0.67748 0.0
C384 C 0.63884 0.56347 0.47266 0.0
C385 C 0.65473 0.60958 0.46351 0.0
C386 C 0.63455 0.53914 0.43246 0.0
C387 C 0.64539 0.56023 0.38152 0.0
H388 H 0.63283 0.54491 0.51227 0.0
H389 H 0.62506 0.50273 0.44215 0.0
S390 S 0.68216 0.68215 0.33489 0.0
N391 N 0.67663 0.67697 0.3981 0.0
N392 N 0.66826 0.63105 0.3223 0.0
C393 C 0.65778 0.60737 0.37047 0.0
C394 C 0.66261 0.63208 0.4116 0.0
C395 C 0.81646 0.16819 0.8279 0.0
C396 C 0.85485 0.1687 0.86919 0.0
C397 C 0.82346 0.16244 0.77798 0.0
C398 C 0.86917 0.15755 0.76728 0.0
H399 H 0.78075 0.17259 0.83415 0.0
H400 H 0.79281 0.1621 0.74742 0.0
S401 S 0.9815 0.15921 0.86152 0.0
N402 N 0.94003 0.16479 0.89614 0.0
N403 N 0.95346 0.15522 0.80202 0.0
C404 C 0.90785 0.15792 0.80848 0.0
C405 C 0.90063 0.16323 0.85947 0.0
C406 C 0.38446 0.39341 0.2378 0.0
C407 C 0.41535 0.38249 0.28769 0.0
C408 C 0.39933 0.41958 0.19086 0.0
C409 C 0.44589 0.43497 0.19174 0.0
H410 H 0.34894 0.38061 0.23467 0.0
H411 H 0.37429 0.42691 0.15367 0.0
S412 S 0.53747 0.42354 0.31437 0.0
N413 N 0.49218 0.3954 0.3366 0.0
N414 N 0.5206 0.44287 0.24872 0.0
C415 C 0.4761 0.42669 0.24214 0.0
C416 C 0.46078 0.40077 0.28988 0.0
C417 C 0.14393 0.96793 0.77641 0.0
C418 C 0.14786 0.92092 0.80642 0.0
C419 C 0.11343 0.98187 0.72687 0.0
C420 C 0.08556 0.94938 0.7052 0.0
H421 H 0.16409 0.99446 0.79169 0.0
H422 H 0.11202 0.01844 0.70522 0.0
S423 S 0.0819 0.82217 0.76791 0.0
N424 N 0.12152 0.84167 0.81045 0.0
N425 N 0.06273 0.86828 0.71817 0.0
C426 C 0.08888 0.90227 0.73474 0.0
C427 C 0.12027 0.88797 0.78516 0.0
loop_
_geom_bond_atom_site_label_1
_geom_bond_atom_site_label_2
_geom_bond_distance
_geom_bond_site_symmetry_2
_ccdc_geom_bond_type
P0 O11 1.490 . S
P0 C14 1.812 . S
P0 C20 1.803 . S
P0 C26 1.819 1_554 S
H1 C15 0.941 . S
H2 C16 0.939 . S
H3 C18 0.940 . S
H4 C19 0.940 . S
H5 C21 0.939 1_556 S
H6 C22 0.942 . S
H7 C24 0.940 . S
H8 C25 0.939 . S
H9 C27 0.941 . S
H10 C31 0.939 . S
O11 P0 1.490 . S
H12 C28 0.939 1_545 S
H13 C30 0.940 . S
C14 P0 1.812 . S
C14 C15 1.389 . S
C14 C19 1.391 . S
C15 H1 0.941 . S
C15 C14 1.389 . S
C15 C16 1.397 . S
C16 H2 0.939 . S
C16 C15 1.397 . S
C16 C17 1.378 . S
C17 C16 1.378 . S
C17 C18 1.378 . S
C18 H3 0.940 . S
C18 C17 1.378 . S
C18 C19 1.396 . S
C19 H4 0.940 . S
C19 C14 1.391 . S
C19 C18 1.396 . S
C20 P0 1.803 . S
C20 C21 1.378 . S
C20 C25 1.400 . S
C21 H5 0.939 1_554 S
C21 C20 1.378 . S
C21 C22 1.361 . S
C22 H6 0.942 . S
C22 C21 1.361 . S
C22 C23 1.369 . S
C23 C22 1.369 . S
C23 C24 1.404 . S
C24 H7 0.940 . S
C24 C23 1.404 . S
C24 C25 1.389 . S
C25 H8 0.939 . S
C25 C20 1.400 . S
C25 C24 1.389 . S
C26 P0 1.819 1_556 S
C26 C27 1.391 . S
C26 C31 1.391 . S
C27 H9 0.941 . S
C27 C26 1.391 . S
C27 C28 1.396 . S
C28 H12 0.939 1_565 S
C28 C27 1.396 . S
C28 C29 1.397 . S
C29 C28 1.397 . S
C29 C30 1.385 . S
C30 H13 0.940 . S
C30 C29 1.385 . S
C30 C31 1.388 . S
C31 H10 0.939 . S
C31 C26 1.391 . S
C31 C30 1.388 . S
P32 O43 1.490 . S
P32 C46 1.812 . S
P32 C52 1.803 . S
P32 C58 1.819 . S
H33 C47 0.941 . S
H34 C48 0.939 . S
H35 C50 0.940 . S
H36 C51 0.940 . S
H37 C53 0.939 . S
H38 C54 0.942 . S
H39 C56 0.940 . S
H40 C57 0.939 . S
H41 C59 0.941 . S
H42 C63 0.939 . S
O43 P32 1.490 . S
H44 C60 0.939 . S
H45 C62 0.940 . S
C46 P32 1.812 . S
C46 C47 1.389 . S
C46 C51 1.391 . S
C47 H33 0.941 . S
C47 C46 1.389 . S
C47 C48 1.397 . S
C48 H34 0.939 . S
C48 C47 1.397 . S
C48 C49 1.378 . S
C49 C48 1.378 . S
C49 C50 1.378 . S
C50 H35 0.940 . S
C50 C49 1.378 . S
C50 C51 1.396 . S
C51 H36 0.940 . S
C51 C46 1.391 . S
C51 C50 1.396 . S
C52 P32 1.803 . S
C52 C53 1.378 . S
C52 C57 1.400 . S
C53 H37 0.939 . S
C53 C52 1.378 . S
C53 C54 1.361 . S
C54 H38 0.942 . S
C54 C53 1.361 . S
C54 C55 1.369 . S
C55 C54 1.369 . S
C55 C56 1.404 . S
C56 H39 0.940 . S
C56 C55 1.404 . S
C56 C57 1.389 . S
C57 H40 0.939 . S
C57 C52 1.400 . S
C57 C56 1.389 . S
C58 P32 1.819 . S
C58 C59 1.391 . S
C58 C63 1.391 . S
C59 H41 0.941 . S
C59 C58 1.391 . S
C59 C60 1.396 . S
C60 H44 0.939 . S
C60 C59 1.396 . S
C60 C61 1.397 . S
C61 C60 1.397 . S
C61 C62 1.385 . S
C62 H45 0.940 . S
C62 C61 1.385 . S
C62 C63 1.388 . S
C63 H42 0.939 . S
C63 C58 1.391 . S
C63 C62 1.388 . S
P64 O75 1.490 . S
P64 C78 1.812 . S
P64 C84 1.803 . S
P64 C90 1.819 . S
H65 C79 0.941 . S
H66 C80 0.939 . S
H67 C82 0.940 1_554 S
H68 C83 0.940 . S
H69 C85 0.939 . S
H70 C86 0.942 . S
H71 C88 0.940 . S
H72 C89 0.939 . S
H73 C91 0.941 . S
H74 C95 0.939 . S
O75 P64 1.490 . S
H76 C92 0.939 . S
H77 C94 0.940 . S
C78 P64 1.812 . S
C78 C79 1.389 1_554 S
C78 C83 1.391 . S
C79 H65 0.941 . S
C79 C78 1.389 1_556 S
C79 C80 1.397 . S
C80 H66 0.939 . S
C80 C79 1.397 . S
C80 C81 1.378 . S
C81 C80 1.378 . S
C81 C82 1.378 . S
C82 H67 0.940 1_556 S
C82 C81 1.378 . S
C82 C83 1.396 1_556 S
C83 H68 0.940 . S
C83 C78 1.391 . S
C83 C82 1.396 1_554 S
C84 P64 1.803 . S
C84 C85 1.378 . S
C84 C89 1.400 . S
C85 H69 0.939 . S
C85 C84 1.378 . S
C85 C86 1.361 . S
C86 H70 0.942 . S
C86 C85 1.361 . S
C86 C87 1.369 . S
C87 C86 1.369 . S
C87 C88 1.404 . S
C88 H71 0.940 . S
C88 C87 1.404 . S
C88 C89 1.389 . S
C89 H72 0.939 . S
C89 C84 1.400 . S
C89 C88 1.389 . S
C90 P64 1.819 . S
C90 C91 1.391 . S
C90 C95 1.391 . S
C91 H73 0.941 . S
C91 C90 1.391 . S
C91 C92 1.396 . S
C92 H76 0.939 . S
C92 C91 1.396 . S
C92 C93 1.397 . S
C93 C92 1.397 . S
C93 C94 1.385 . S
C94 H77 0.940 . S
C94 C93 1.385 . S
C94 C95 1.388 . S
C95 H74 0.939 . S
C95 C90 1.391 . S
C95 C94 1.388 . S
P96 O107 1.490 . S
P96 C110 1.812 . S
P96 C116 1.803 . S
P96 C122 1.819 . S
H97 C111 0.941 . S
H98 C112 0.939 . S
H99 C114 0.940 . S
H100 C115 0.940 . S
H101 C117 0.939 . S
H102 C118 0.942 . S
H103 C120 0.940 . S
H104 C121 0.939 . S
H105 C123 0.941 . S
H106 C127 0.939 . S
O107 P96 1.490 . S
H108 C124 0.939 . S
H109 C126 0.940 . S
C110 P96 1.812 . S
C110 C111 1.389 . S
C110 C115 1.391 . S
C111 H97 0.941 . S
C111 C110 1.389 . S
C111 C112 1.397 . S
C112 H98 0.939 . S
C112 C111 1.397 . S
C112 C113 1.378 . S
C113 C112 1.378 . S
C113 C114 1.378 . S
C114 H99 0.940 . S
C114 C113 1.378 . S
C114 C115 1.396 . S
C115 H100 0.940 . S
C115 C110 1.391 . S
C115 C114 1.396 . S
C116 P96 1.803 . S
C116 C117 1.378 . S
C116 C121 1.400 . S
C117 H101 0.939 . S
C117 C116 1.378 . S
C117 C118 1.361 . S
C118 H102 0.942 . S
C118 C117 1.361 . S
C118 C119 1.369 . S
C119 C118 1.369 . S
C119 C120 1.404 . S
C120 H103 0.940 . S
C120 C119 1.404 . S
C120 C121 1.389 . S
C121 H104 0.939 . S
C121 C116 1.400 . S
C121 C120 1.389 . S
C122 P96 1.819 . S
C122 C123 1.391 . S
C122 C127 1.391 . S
C123 H105 0.941 . S
C123 C122 1.391 . S
C123 C124 1.396 . S
C124 H108 0.939 . S
C124 C123 1.396 . S
C124 C125 1.397 . S
C125 C124 1.397 . S
C125 C126 1.385 . S
C126 H109 0.940 . S
C126 C125 1.385 . S
C126 C127 1.388 . S
C127 H106 0.939 . S
C127 C122 1.391 . S
C127 C126 1.388 . S
Eu128 N157 2.600 . S
Eu128 N163 2.562 . S
Eu128 O172 2.462 . S
Eu128 O173 2.373 . S
Eu128 O175 2.432 . S
Eu128 O176 2.291 1_565 S
Eu128 O180 2.335 1_465 S
Eu128 O183 2.372 1_455 S
Eu128 C192 2.787 . S
C129 N130 1.365 . S
C129 C132 1.405 . S
C129 C136 1.448 . S
N130 C129 1.365 . S
N130 C133 1.319 . S
N130 Eu139 2.600 . S
C131 C133 1.397 . S
C131 C134 1.367 . S
C131 H151 0.931 1_655 S
C132 C129 1.405 . S
C132 C134 1.403 . S
C132 C138 1.439 . S
C133 N130 1.319 . S
C133 C131 1.397 . S
C133 H144 0.930 1_655 S
C134 C131 1.367 . S
C134 C132 1.403 . S
C134 H155 0.929 . S
C135 C136 1.430 . S
C135 C137 1.387 . S
C135 C141 1.404 . S
C136 C129 1.448 . S
C136 C135 1.430 . S
C136 N140 1.351 . S
C137 C135 1.387 . S
C137 C138 1.374 . S
C137 H152 0.931 . S
C138 C132 1.439 . S
C138 C137 1.374 . S
C138 H153 0.931 . S
Eu139 N130 2.600 . S
Eu139 N140 2.562 . S
Eu139 O174 2.335 1_655 S
Eu139 O177 2.372 1_655 S
Eu139 O178 2.462 . S
Eu139 O179 2.373 . S
Eu139 O181 2.432 . S
Eu139 O182 2.291 1_545 S
Eu139 C203 2.787 . S
N140 C136 1.351 . S
N140 Eu139 2.562 . S
N140 C142 1.325 . S
C141 C135 1.404 . S
C141 C143 1.366 . S
C141 H149 0.930 . S
C142 N140 1.325 . S
C142 C143 1.416 . S
C142 H148 0.929 . S
C143 C141 1.366 . S
C143 C142 1.416 . S
C143 H145 0.930 . S
H144 C133 0.930 1_455 S
H145 C143 0.930 . S
H146 C161 0.930 1_655 S
H147 C168 0.930 . S
H148 C142 0.929 . S
H149 C141 0.930 . S
H150 C164 0.929 . S
H151 C131 0.931 1_455 S
H152 C137 0.931 . S
H153 C138 0.931 . S
H154 C159 0.931 1_655 S
H155 C134 0.929 . S
H156 C167 0.930 . S
N157 Eu128 2.600 . S
N157 C158 1.365 . S
N157 C161 1.319 . S
C158 N157 1.365 . S
C158 C160 1.405 . S
C158 C166 1.448 . S
C159 H154 0.931 1_455 S
C159 C161 1.397 . S
C159 C162 1.367 . S
C160 C158 1.405 . S
C160 C162 1.403 . S
C160 C193 1.439 . S
C161 H146 0.930 1_455 S
C161 N157 1.319 . S
C161 C159 1.397 . S
C162 C159 1.367 . S
C162 C160 1.403 . S
C162 H169 0.929 . S
N163 Eu128 2.562 . S
N163 C164 1.325 . S
N163 C166 1.351 . S
C164 H150 0.929 . S
C164 N163 1.325 . S
C164 C168 1.416 . S
C165 C166 1.430 . S
C165 C167 1.404 . S
C165 C194 1.387 . S
C166 C158 1.448 . S
C166 N163 1.351 . S
C166 C165 1.430 . S
C167 H156 0.930 . S
C167 C165 1.404 . S
C167 C168 1.366 . S
C168 H147 0.930 . S
C168 C164 1.416 . S
C168 C167 1.366 . S
H169 C162 0.929 . S
H170 C193 0.931 . S
H171 C194 0.931 . S
O172 Eu128 2.462 . S
O172 C192 1.252 . S
O173 Eu128 2.373 . S
O173 C184 1.249 . S
O174 Eu139 2.335 1_455 S
O174 C184 1.264 1_545 S
O175 Eu128 2.432 . S
O175 C192 1.268 . S
O176 Eu128 2.291 1_545 S
O176 C191 1.255 . S
O177 Eu139 2.372 1_455 S
O177 C191 1.257 . S
O178 Eu139 2.462 . S
O178 C203 1.252 . S
O179 Eu139 2.373 . S
O179 C195 1.249 . S
O180 Eu128 2.335 1_645 S
O180 C195 1.264 . S
O181 Eu139 2.432 . S
O181 C203 1.268 . S
O182 Eu139 2.291 1_565 S
O182 C202 1.255 . S
O183 Eu128 2.372 1_655 S
O183 C202 1.257 . S
C184 O173 1.249 . S
C184 O174 1.264 1_565 S
C185 C188 1.382 . S
C185 C190 1.390 . S
C185 C192 1.506 . S
C186 C187 1.398 . S
C186 C190 1.392 . S
C187 C186 1.398 . S
C187 C189 1.372 . S
C187 H204 0.931 . S
C188 C185 1.382 . S
C188 C189 1.390 . S
C188 H205 0.931 . S
C189 C187 1.372 . S
C189 C188 1.390 . S
C189 H206 0.929 . S
C190 C185 1.390 . S
C190 C186 1.392 . S
C190 H207 0.930 . S
C191 O176 1.255 . S
C191 O177 1.257 . S
C192 Eu128 2.787 . S
C192 O172 1.252 . S
C192 O175 1.268 . S
C192 C185 1.506 . S
C193 C160 1.439 . S
C193 H170 0.931 . S
C193 C194 1.374 . S
C194 C165 1.387 . S
C194 H171 0.931 . S
C194 C193 1.374 . S
C195 O179 1.249 . S
C195 O180 1.264 . S
C196 C199 1.382 . S
C196 C200 1.390 . S
C196 C203 1.506 . S
C197 C198 1.398 . S
C197 C200 1.392 . S
C198 C197 1.398 . S
C198 C201 1.372 . S
C198 H208 0.931 . S
C199 C196 1.382 . S
C199 C201 1.390 . S
C199 H209 0.931 . S
C200 C196 1.390 . S
C200 C197 1.392 . S
C200 H210 0.930 . S
C201 C198 1.372 . S
C201 C199 1.390 . S
C201 H211 0.929 . S
C202 O182 1.255 . S
C202 O183 1.257 . S
C203 Eu139 2.787 . S
C203 O178 1.252 . S
C203 O181 1.268 . S
C203 C196 1.506 . S
H204 C187 0.931 . S
H205 C188 0.931 . S
H206 C189 0.929 . S
H207 C190 0.930 . S
H208 C198 0.931 . S
H209 C199 0.931 . S
H210 C200 0.930 . S
H211 C201 0.929 . S
Eu212 N241 2.598 1_556 S
Eu212 N247 2.560 1_556 S
Eu212 O256 2.470 . S
Eu212 O257 2.363 1_556 S
Eu212 O259 2.440 . S
Eu212 O260 2.289 1_556 S
Eu212 O264 2.340 . S
Eu212 O267 2.368 1_556 S
Eu212 C276 2.796 . S
C213 N214 1.365 . S
C213 C216 1.405 . S
C213 C220 1.448 . S
N214 C213 1.365 . S
N214 C217 1.319 . S
N214 Eu223 2.600 . S
C215 C217 1.397 . S
C215 C218 1.367 . S
C215 H235 0.931 . S
C216 C213 1.405 . S
C216 C218 1.403 . S
C216 C222 1.439 . S
C217 N214 1.319 . S
C217 C215 1.397 . S
C217 H228 0.930 . S
C218 C215 1.367 . S
C218 C216 1.403 . S
C218 H239 0.929 . S
C219 C220 1.430 . S
C219 C221 1.387 . S
C219 C225 1.404 . S
C220 C213 1.448 . S
C220 C219 1.430 . S
C220 N224 1.351 . S
C221 C219 1.387 . S
C221 C222 1.374 . S
C221 H236 0.931 . S
C222 C216 1.439 . S
C222 C221 1.374 . S
C222 H237 0.931 . S
Eu223 N214 2.600 . S
Eu223 N224 2.562 . S
Eu223 O258 2.335 . S
Eu223 O261 2.372 . S
Eu223 O262 2.462 . S
Eu223 O263 2.373 . S
Eu223 O265 2.432 . S
Eu223 O266 2.291 . S
Eu223 C287 2.787 . S
N224 C220 1.351 . S
N224 Eu223 2.562 . S
N224 C226 1.325 . S
C225 C219 1.404 . S
C225 C227 1.366 . S
C225 H233 0.930 . S
C226 N224 1.325 . S
C226 C227 1.416 . S
C226 H232 0.929 . S
C227 C225 1.366 . S
C227 C226 1.416 . S
C227 H229 0.930 . S
H228 C217 0.930 . S
H229 C227 0.930 . S
H230 C245 0.930 . S
H231 C252 0.930 . S
H232 C226 0.929 . S
H233 C225 0.930 . S
H234 C248 0.929 . S
H235 C215 0.931 . S
H236 C221 0.931 . S
H237 C222 0.931 . S
H238 C243 0.931 . S
H239 C218 0.929 . S
H240 C251 0.930 . S
N241 Eu212 2.598 1_554 S
N241 C242 1.365 . S
N241 C245 1.319 1_554 S
C242 N241 1.365 . S
C242 C244 1.405 . S
C242 C250 1.448 . S
C243 H238 0.931 . S
C243 C245 1.397 . S
C243 C246 1.367 1_556 S
C244 C242 1.405 . S
C244 C246 1.403 . S
C244 C277 1.439 . S
C245 H230 0.930 . S
C245 N241 1.319 1_556 S
C245 C243 1.397 . S
C246 C243 1.367 1_554 S
C246 C244 1.403 . S
C246 H253 0.929 . S
N247 Eu212 2.560 1_554 S
N247 C248 1.325 . S
N247 C250 1.351 . S
C248 H234 0.929 . S
C248 N247 1.325 . S
C248 C252 1.416 . S
C249 C250 1.430 . S
C249 C251 1.404 . S
C249 C278 1.387 . S
C250 C242 1.448 . S
C250 N247 1.351 . S
C250 C249 1.430 . S
C251 H240 0.930 . S
C251 C249 1.404 . S
C251 C252 1.366 . S
C252 H231 0.930 . S
C252 C248 1.416 . S
C252 C251 1.366 . S
H253 C246 0.929 . S
H254 C277 0.931 . S
H255 C278 0.931 . S
O256 Eu212 2.470 . S
O256 C276 1.252 . S
O257 Eu212 2.363 1_554 S
O257 C268 1.249 . S
O258 Eu223 2.335 . S
O258 C268 1.264 . S
O259 Eu212 2.440 . S
O259 C276 1.268 . S
O260 Eu212 2.289 1_554 S
O260 C275 1.255 . S
O261 Eu223 2.372 . S
O261 C275 1.257 . S
O262 Eu223 2.462 . S
O262 C287 1.252 . S
O263 Eu223 2.373 . S
O263 C279 1.249 1_554 S
O264 Eu212 2.340 . S
O264 C279 1.264 . S
O265 Eu223 2.432 . S
O265 C287 1.268 . S
O266 Eu223 2.291 . S
O266 C286 1.255 . S
O267 Eu212 2.368 1_554 S
O267 C286 1.257 . S
C268 O257 1.249 . S
C268 O258 1.264 . S
C269 C272 1.382 . S
C269 C274 1.390 . S
C269 C276 1.506 . S
C270 C271 1.398 . S
C270 C274 1.392 . S
C271 C270 1.398 . S
C271 C273 1.372 . S
C271 H288 0.931 . S
C272 C269 1.382 . S
C272 C273 1.390 . S
C272 H289 0.931 . S
C273 C271 1.372 . S
C273 C272 1.390 . S
C273 H290 0.929 . S
C274 C269 1.390 . S
C274 C270 1.392 . S
C274 H291 0.930 . S
C275 O260 1.255 . S
C275 O261 1.257 . S
C276 Eu212 2.796 . S
C276 O256 1.252 . S
C276 O259 1.268 . S
C276 C269 1.506 . S
C277 C244 1.439 . S
C277 H254 0.931 . S
C277 C278 1.374 . S
C278 C249 1.387 . S
C278 H255 0.931 . S
C278 C277 1.374 . S
C279 O263 1.249 1_556 S
C279 O264 1.264 . S
C280 C283 1.382 . S
C280 C284 1.390 . S
C280 C287 1.506 . S
C281 C282 1.398 . S
C281 C284 1.392 . S
C282 C281 1.398 . S
C282 C285 1.372 . S
C282 H292 0.931 . S
C283 C280 1.382 . S
C283 C285 1.390 . S
C283 H293 0.931 . S
C284 C280 1.390 . S
C284 C281 1.392 . S
C284 H294 0.930 . S
C285 C282 1.372 . S
C285 C283 1.390 . S
C285 H295 0.929 . S
C286 O266 1.255 . S
C286 O267 1.257 . S
C287 Eu223 2.787 . S
C287 O262 1.252 . S
C287 O265 1.268 . S
C287 C280 1.506 . S
H288 C271 0.931 . S
H289 C272 0.931 . S
H290 C273 0.929 . S
H291 C274 0.930 . S
H292 C282 0.931 . S
H293 C283 0.931 . S
H294 C284 0.930 . S
H295 C285 0.929 . S
C296 C297 1.369 . S
C296 C298 1.419 . S
C296 H300 0.930 . S
C297 C296 1.369 . S
C297 C306 1.429 . S
C298 C296 1.419 . S
C298 C299 1.363 . S
C298 H301 0.929 . S
C299 C298 1.363 . S
C299 C305 1.428 . S
H300 C296 0.930 . S
H301 C298 0.929 . S
S302 N303 1.613 . S
S302 N304 1.610 . S
N303 S302 1.613 . S
N303 C306 1.350 . S
N304 S302 1.610 . S
N304 C305 1.351 . S
C305 C299 1.428 . S
C305 N304 1.351 . S
C305 C306 1.434 . S
C306 C297 1.429 . S
C306 N303 1.350 . S
C306 C305 1.434 . S
C307 C308 1.369 . S
C307 C309 1.419 . S
C307 H311 0.930 . S
C308 C307 1.369 . S
C308 C317 1.429 . S
C309 C307 1.419 . S
C309 C310 1.363 . S
C309 H312 0.929 . S
C310 C309 1.363 . S
C310 C316 1.428 . S
H311 C307 0.930 . S
H312 C309 0.929 . S
S313 N314 1.613 . S
S313 N315 1.610 . S
N314 S313 1.613 . S
N314 C317 1.350 1_556 S
N315 S313 1.610 . S
N315 C316 1.351 1_556 S
C316 C310 1.428 . S
C316 N315 1.351 1_554 S
C316 C317 1.434 . S
C317 C308 1.429 . S
C317 N314 1.350 1_554 S
C317 C316 1.434 . S
C318 C319 1.369 . S
C318 C320 1.419 . S
C318 H322 0.930 . S
C319 C318 1.369 . S
C319 C328 1.429 . S
C320 C318 1.419 . S
C320 C321 1.363 . S
C320 H323 0.929 . S
C321 C320 1.363 . S
C321 C327 1.428 . S
H322 C318 0.930 . S
H323 C320 0.929 . S
S324 N325 1.613 . S
S324 N326 1.610 . S
N325 S324 1.613 . S
N325 C328 1.350 . S
N326 S324 1.610 . S
N326 C327 1.351 . S
C327 C321 1.428 . S
C327 N326 1.351 . S
C327 C328 1.434 . S
C328 C319 1.429 . S
C328 N325 1.350 . S
C328 C327 1.434 . S
C329 C330 1.369 . S
C329 C331 1.419 . S
C329 H333 0.930 . S
C330 C329 1.369 . S
C330 C339 1.429 . S
C331 C329 1.419 . S
C331 C332 1.363 . S
C331 H334 0.929 . S
C332 C331 1.363 . S
C332 C338 1.428 . S
H333 C329 0.930 . S
H334 C331 0.929 . S
S335 N336 1.613 . S
S335 N337 1.610 . S
N336 S335 1.613 . S
N336 C339 1.350 1_556 S
N337 S335 1.610 . S
N337 C338 1.351 1_556 S
C338 C332 1.428 . S
C338 N337 1.351 1_554 S
C338 C339 1.434 . S
C339 C330 1.429 . S
C339 N336 1.350 1_554 S
C339 C338 1.434 . S
C340 C341 1.369 . S
C340 C342 1.419 . S
C340 H344 0.930 . S
C341 C340 1.369 . S
C341 C350 1.429 . S
C342 C340 1.419 . S
C342 C343 1.363 . S
C342 H345 0.929 . S
C343 C342 1.363 . S
C343 C349 1.428 . S
H344 C340 0.930 . S
H345 C342 0.929 . S
S346 N347 1.613 . S
S346 N348 1.610 . S
N347 S346 1.613 . S
N347 C350 1.350 . S
N348 S346 1.610 . S
N348 C349 1.351 . S
C349 C343 1.428 . S
C349 N348 1.351 . S
C349 C350 1.434 . S
C350 C341 1.429 . S
C350 N347 1.350 . S
C350 C349 1.434 . S
C351 C352 1.369 . S
C351 C353 1.419 . S
C351 H355 0.930 . S
C352 C351 1.369 . S
C352 C361 1.429 . S
C353 C351 1.419 . S
C353 C354 1.363 . S
C353 H356 0.929 . S
C354 C353 1.363 . S
C354 C360 1.428 . S
H355 C351 0.930 . S
H356 C353 0.929 . S
S357 N358 1.613 . S
S357 N359 1.610 . S
N358 S357 1.613 . S
N358 C361 1.350 . S
N359 S357 1.610 . S
N359 C360 1.351 . S
C360 C354 1.428 . S
C360 N359 1.351 . S
C360 C361 1.434 . S
C361 C352 1.429 . S
C361 N358 1.350 . S
C361 C360 1.434 . S
C362 C363 1.369 . S
C362 C364 1.419 . S
C362 H366 0.930 . S
C363 C362 1.369 . S
C363 C372 1.429 . S
C364 C362 1.419 . S
C364 C365 1.363 . S
C364 H367 0.929 . S
C365 C364 1.363 . S
C365 C371 1.428 . S
H366 C362 0.930 . S
H367 C364 0.929 . S
S368 N369 1.613 . S
S368 N370 1.610 . S
N369 S368 1.613 . S
N369 C372 1.350 1_565 S
N370 S368 1.610 . S
N370 C371 1.351 1_565 S
C371 C365 1.428 . S
C371 N370 1.351 1_545 S
C371 C372 1.434 . S
C372 C363 1.429 . S
C372 N369 1.350 1_545 S
C372 C371 1.434 . S
C373 C374 1.369 . S
C373 C375 1.419 . S
C373 H377 0.930 . S
C374 C373 1.369 . S
C374 C383 1.429 . S
C375 C373 1.419 . S
C375 C376 1.363 . S
C375 H378 0.929 . S
C376 C375 1.363 . S
C376 C382 1.428 . S
H377 C373 0.930 . S
H378 C375 0.929 . S
S379 N380 1.613 . S
S379 N381 1.610 . S
N380 S379 1.613 . S
N380 C383 1.350 . S
N381 S379 1.610 . S
N381 C382 1.351 . S
C382 C376 1.428 . S
C382 N381 1.351 . S
C382 C383 1.434 . S
C383 C374 1.429 . S
C383 N380 1.350 . S
C383 C382 1.434 . S
C384 C385 1.369 . S
C384 C386 1.419 . S
C384 H388 0.930 . S
C385 C384 1.369 . S
C385 C394 1.429 . S
C386 C384 1.419 . S
C386 C387 1.363 . S
C386 H389 0.929 . S
C387 C386 1.363 . S
C387 C393 1.428 . S
H388 C384 0.930 . S
H389 C386 0.929 . S
S390 N391 1.613 . S
S390 N392 1.610 . S
N391 S390 1.613 . S
N391 C394 1.350 . S
N392 S390 1.610 . S
N392 C393 1.351 . S
C393 C387 1.428 . S
C393 N392 1.351 . S
C393 C394 1.434 . S
C394 C385 1.429 . S
C394 N391 1.350 . S
C394 C393 1.434 . S
C395 C396 1.369 . S
C395 C397 1.419 . S
C395 H399 0.930 . S
C396 C395 1.369 . S
C396 C405 1.429 . S
C397 C395 1.419 . S
C397 C398 1.363 . S
C397 H400 0.929 . S
C398 C397 1.363 . S
C398 C404 1.428 . S
H399 C395 0.930 . S
H400 C397 0.929 . S
S401 N402 1.613 . S
S401 N403 1.610 . S
N402 S401 1.613 . S
N402 C405 1.350 . S
N403 S401 1.610 . S
N403 C404 1.351 . S
C404 C398 1.428 . S
C404 N403 1.351 . S
C404 C405 1.434 . S
C405 C396 1.429 . S
C405 N402 1.350 . S
C405 C404 1.434 . S
C406 C407 1.369 . S
C406 C408 1.419 . S
C406 H410 0.930 . S
C407 C406 1.369 . S
C407 C416 1.429 . S
C408 C406 1.419 . S
C408 C409 1.363 . S
C408 H411 0.929 . S
C409 C408 1.363 . S
C409 C415 1.428 . S
H410 C406 0.930 . S
H411 C408 0.929 . S
S412 N413 1.613 . S
S412 N414 1.610 . S
N413 S412 1.613 . S
N413 C416 1.350 . S
N414 S412 1.610 . S
N414 C415 1.351 . S
C415 C409 1.428 . S
C415 N414 1.351 . S
C415 C416 1.434 . S
C416 C407 1.429 . S
C416 N413 1.350 . S
C416 C415 1.434 . S
C417 C418 1.369 . S
C417 C419 1.419 . S
C417 H421 0.930 1_565 S
C418 C417 1.369 . S
C418 C427 1.429 . S
C419 C417 1.419 . S
C419 C420 1.363 . S
C419 H422 0.929 1_565 S
C420 C419 1.363 . S
C420 C426 1.428 . S
H421 C417 0.930 1_545 S
H422 C419 0.929 1_545 S
S423 N424 1.613 . S
S423 N425 1.610 . S
N424 S423 1.613 . S
N424 C427 1.350 . S
N425 S423 1.610 . S
N425 C426 1.351 . S
C426 C420 1.428 . S
C426 N425 1.351 . S
C426 C427 1.434 . S
C427 C418 1.429 . S
C427 N424 1.350 . S
C427 C426 1.434 . S
C299 C191 1.654 . S
C297 C119 1.636 . S
C308 C23 1.639 . S
C310 C286 1.618 . S
C319 C55 1.564 . S
C321 C202 1.651 . S
C330 C87 1.528 . S
C332 C275 1.622 . S
C343 C186 1.399 . S
C341 C17 1.538 . S
C354 C279 1.618 . S
C352 C61 1.541 . S
C363 C93 1.502 . S
C365 C195 1.634 . S
C374 C113 1.520 . S
C376 C270 1.396 . S
C387 C281 1.406 . S
C385 C49 1.489 . S
C398 C197 1.393 . S
C396 C81 1.486 . S
C409 C268 1.619 . S
C407 C125 1.609 . S
C418 C29 1.633 . S
C420 C184 1.635 . S
