# Generated by pormake.
# Topology pto, (3,4)-cn, num edge types: 1
# Building blocks:
#     Node 0, Type 0, BuildingBlock: BETDIP_clean_linker_0, # of connection points: 3
#     Node 1, Type 0, BuildingBlock: BETDIP_clean_linker_0, # of connection points: 3
#     Node 2, Type 0, BuildingBlock: BETDIP_clean_linker_0, # of connection points: 3
#     Node 3, Type 0, BuildingBlock: BETDIP_clean_linker_0, # of connection points: 3
#     Node 4, Type 0, BuildingBlock: BETDIP_clean_linker_0, # of connection points: 3
#     Node 5, Type 0, BuildingBlock: BETDIP_clean_linker_0, # of connection points: 3
#     Node 6, Type 0, BuildingBlock: BETDIP_clean_linker_0, # of connection points: 3
#     Node 7, Type 0, BuildingBlock: BETDIP_clean_linker_0, # of connection points: 3
#     Node 8, Type 1, BuildingBlock: NAWXER_clean_sbu_0, # of connection points: 4
#     Node 9, Type 1, BuildingBlock: NAWXER_clean_sbu_0, # of connection points: 4
#     Node 10, Type 1, BuildingBlock: NAWXER_clean_sbu_0, # of connection points: 4
#     Node 11, Type 1, BuildingBlock: NAWXER_clean_sbu_0, # of connection points: 4
#     Node 12, Type 1, BuildingBlock: NAWXER_clean_sbu_0, # of connection points: 4
#     Node 13, Type 1, BuildingBlock: NAWXER_clean_sbu_0, # of connection points: 4
#     Edge 14, Type (0, 1), BuildingBlock: XUDNAN_clean_linker_2, # of connection points: 2
#     Edge 15, Type (0, 1), BuildingBlock: XUDNAN_clean_linker_2, # of connection points: 2
#     Edge 16, Type (0, 1), BuildingBlock: XUDNAN_clean_linker_2, # of connection points: 2
#     Edge 17, Type (0, 1), BuildingBlock: XUDNAN_clean_linker_2, # of connection points: 2
#     Edge 18, Type (0, 1), BuildingBlock: XUDNAN_clean_linker_2, # of connection points: 2
#     Edge 19, Type (0, 1), BuildingBlock: XUDNAN_clean_linker_2, # of connection points: 2
#     Edge 20, Type (0, 1), BuildingBlock: XUDNAN_clean_linker_2, # of connection points: 2
#     Edge 21, Type (0, 1), BuildingBlock: XUDNAN_clean_linker_2, # of connection points: 2
#     Edge 22, Type (0, 1), BuildingBlock: XUDNAN_clean_linker_2, # of connection points: 2
#     Edge 23, Type (0, 1), BuildingBlock: XUDNAN_clean_linker_2, # of connection points: 2
#     Edge 24, Type (0, 1), BuildingBlock: XUDNAN_clean_linker_2, # of connection points: 2
#     Edge 25, Type (0, 1), BuildingBlock: XUDNAN_clean_linker_2, # of connection points: 2
#     Edge 26, Type (0, 1), BuildingBlock: XUDNAN_clean_linker_2, # of connection points: 2
#     Edge 27, Type (0, 1), BuildingBlock: XUDNAN_clean_linker_2, # of connection points: 2
#     Edge 28, Type (0, 1), BuildingBlock: XUDNAN_clean_linker_2, # of connection points: 2
#     Edge 29, Type (0, 1), BuildingBlock: XUDNAN_clean_linker_2, # of connection points: 2
#     Edge 30, Type (0, 1), BuildingBlock: XUDNAN_clean_linker_2, # of connection points: 2
#     Edge 31, Type (0, 1), BuildingBlock: XUDNAN_clean_linker_2, # of connection points: 2
#     Edge 32, Type (0, 1), BuildingBlock: XUDNAN_clean_linker_2, # of connection points: 2
#     Edge 33, Type (0, 1), BuildingBlock: XUDNAN_clean_linker_2, # of connection points: 2
#     Edge 34, Type (0, 1), BuildingBlock: XUDNAN_clean_linker_2, # of connection points: 2
#     Edge 35, Type (0, 1), BuildingBlock: XUDNAN_clean_linker_2, # of connection points: 2
#     Edge 36, Type (0, 1), BuildingBlock: XUDNAN_clean_linker_2, # of connection points: 2
#     Edge 37, Type (0, 1), BuildingBlock: XUDNAN_clean_linker_2, # of connection points: 2
# Relax obj value: 0.016
# Max RMSD: 0.144
# Mean RMSD: 0.062
data_MOF--net-pto--node1-NAWXER_clean_sbu_0--node2-BETDIP_clean_linker_0--edge1-XUDNAN_clean_linker_2
_symmetry_space_group_name_H-M    P1
_symmetry_Int_Tables_number       1
_symmetry_cell_setting            triclinic
loop_
_symmetry_equiv_pos_as_xyz
'x, y, z'
_cell_length_a     41.864977
_cell_length_b     40.273783
_cell_length_c     38.082814
_cell_angle_alpha  100.86811
_cell_angle_beta   100.89302
_cell_angle_gamma 102.22279
loop_
_atom_site_label
_atom_site_type_symbol
_atom_site_fract_x
_atom_site_fract_y
_atom_site_fract_z
_atom_type_partial_charge
H0 H 0.23135 0.33796 0.29254 0.0
H1 H 0.33294 0.33901 0.28615 0.0
H2 H 0.27537 0.39021 0.2181 0.0
H3 H 0.23361 0.29174 0.31562 0.0
C4 C 0.25955 0.29541 0.33002 0.0
C5 C 0.25247 0.34517 0.28055 0.0
C6 C 0.24971 0.36479 0.25377 0.0
C7 C 0.28239 0.33536 0.29186 0.0
C8 C 0.30972 0.34605 0.27682 0.0
C9 C 0.30745 0.36579 0.25017 0.0
C10 C 0.27729 0.37494 0.23864 0.0
N11 N 0.2863 0.31552 0.31883 0.0
H12 H 0.22447 0.76967 0.68935 0.0
H13 H 0.32613 0.83069 0.73631 0.0
H14 H 0.28457 0.7461 0.78168 0.0
H15 H 0.31593 0.86424 0.69951 0.0
C16 C 0.29092 0.85422 0.68151 0.0
C17 C 0.24809 0.77471 0.70945 0.0
C18 C 0.25145 0.75393 0.73499 0.0
C19 C 0.27453 0.80266 0.70989 0.0
C20 C 0.3051 0.80982 0.73615 0.0
C21 C 0.30892 0.78968 0.76237 0.0
C22 C 0.28192 0.76174 0.76158 0.0
N23 N 0.26878 0.82304 0.68379 0.0
H24 H 0.74513 0.69198 0.23278 0.0
H25 H 0.80717 0.74324 0.34082 0.0
H26 H 0.71905 0.77614 0.29913 0.0
H27 H 0.84239 0.71182 0.32609 0.0
C28 C 0.83249 0.69492 0.29865 0.0
C29 C 0.74969 0.71111 0.25857 0.0
C30 C 0.7282 0.73309 0.26299 0.0
C31 C 0.77838 0.71478 0.28598 0.0
C32 C 0.7853 0.74037 0.31915 0.0
C33 C 0.76374 0.76255 0.32437 0.0
C34 C 0.73528 0.75863 0.29601 0.0
N35 N 0.80001 0.69312 0.27771 0.0
H36 H 0.70108 0.25029 0.81745 0.0
H37 H 0.76454 0.35463 0.83755 0.0
H38 H 0.78189 0.27018 0.76299 0.0
H39 H 0.7205 0.37054 0.85225 0.0
C40 C 0.70854 0.35082 0.86485 0.0
C41 C 0.72199 0.26824 0.81238 0.0
C42 C 0.74084 0.25573 0.78842 0.0
C43 C 0.72993 0.30393 0.82993 0.0
C44 C 0.75752 0.32719 0.82381 0.0
C45 C 0.77608 0.31518 0.79932 0.0
C46 C 0.76763 0.27949 0.78198 0.0
N47 N 0.70989 0.31546 0.85367 0.0
H48 H 0.80362 0.79825 0.88674 0.0
H49 H 0.85921 0.82232 0.80717 0.0
H50 H 0.78084 0.87303 0.82543 0.0
H51 H 0.85827 0.76373 0.79937 0.0
C52 C 0.86417 0.76209 0.82794 0.0
C53 C 0.80805 0.81248 0.8659 0.0
C54 C 0.78998 0.83723 0.85905 0.0
C55 C 0.83211 0.80607 0.84625 0.0
C56 C 0.83899 0.8256 0.82033 0.0
C57 C 0.82075 0.85006 0.81227 0.0
C58 C 0.79603 0.8553 0.83176 0.0
N59 N 0.84971 0.78056 0.8538 0.0
H60 H 0.72833 0.26621 0.32904 0.0
H61 H 0.83592 0.2965 0.37283 0.0
H62 H 0.78938 0.35626 0.30663 0.0
H63 H 0.8269 0.26118 0.40848 0.0
C64 C 0.80217 0.24313 0.39826 0.0
C65 C 0.75283 0.2835 0.33192 0.0
C66 C 0.75545 0.31188 0.31514 0.0
C67 C 0.7815 0.27804 0.35368 0.0
C68 C 0.81331 0.30076 0.35744 0.0
C69 C 0.81635 0.32886 0.34026 0.0
C70 C 0.78728 0.33427 0.31945 0.0
N71 N 0.77718 0.24956 0.37116 0.0
H72 H 0.1721 0.3255 0.80737 0.0
H73 H 0.23717 0.26063 0.83423 0.0
H74 H 0.2641 0.37015 0.89065 0.0
H75 H 0.17845 0.21663 0.80819 0.0
C76 C 0.17853 0.2272 0.78397 0.0
C77 C 0.19477 0.3224 0.8242 0.0
C78 C 0.2163 0.35091 0.85124 0.0
C79 C 0.20242 0.29013 0.81785 0.0
C80 C 0.23191 0.28603 0.83917 0.0
C81 C 0.25511 0.31474 0.86537 0.0
C82 C 0.24681 0.34736 0.87128 0.0
N83 N 0.18215 0.2635 0.78702 0.0
H84 H 0.30567 0.87783 0.25316 0.0
H85 H 0.29794 0.76712 0.22655 0.0
H86 H 0.22578 0.80635 0.27748 0.0
H87 H 0.32987 0.77992 0.18795 0.0
C88 C 0.34424 0.80705 0.19763 0.0
C89 C 0.29298 0.85133 0.25291 0.0
C90 C 0.26429 0.84527 0.26713 0.0
C91 C 0.30485 0.82339 0.23719 0.0
C92 C 0.28847 0.78893 0.23725 0.0
C93 C 0.26008 0.78259 0.25225 0.0
C94 C 0.24803 0.81095 0.2666 0.0
N95 N 0.33333 0.83128 0.22195 0.0
C96 C 0.0111 0.49641 0.31009 0.0
C97 C 0.09587 0.58092 0.27607 0.0
O98 O 0.03579 0.51969 0.33227 0.0
Zn99 Zn 0.05352 0.54016 0.29508 0.0
O100 O 1.00674 0.49399 0.27538 0.0
Zn101 Zn 0.02927 0.51862 0.23786 0.0
O102 O 0.04235 0.48079 0.20937 0.0
O103 O 0.07097 0.49851 0.26749 0.0
O104 O 0.07353 0.5601 0.24859 0.0
O105 O 0.09363 0.57943 0.30863 0.0
O106 O 0.01429 0.56262 0.27402 0.0
O107 O 0.99384 0.53724 0.21501 0.0
C108 C 0.06508 0.47828 0.23539 0.0
C109 C 0.99342 0.55933 0.24348 0.0
C110 C 0.97472 0.48928 0.78514 0.0
C111 C 0.06457 0.58005 0.77166 0.0
O112 O 0.99229 0.50726 0.81709 0.0
Zn113 Zn 0.03695 0.55092 0.83724 0.0
O114 O 0.9832 0.49663 0.75677 0.0
Zn115 Zn 0.02069 0.53548 0.78023 0.0
O116 O 0.06016 0.51334 0.80347 0.0
O117 O 0.06975 0.53118 0.86382 0.0
O118 O 0.04088 0.55759 0.74752 0.0
O119 O 0.06646 0.58106 0.80602 0.0
O120 O 0.02082 0.58613 0.86569 0.0
O121 O 0.99926 0.57529 0.80603 0.0
C122 C 0.07629 0.51384 0.83581 0.0
C123 C 1.0016 0.59223 0.83894 0.0
C124 C 0.24773 0.02781 0.54137 0.0
C125 C 0.25666 0.12835 0.48642 0.0
O126 O 0.2196 0.02892 0.52191 0.0
Zn127 Zn 0.20023 0.06219 0.49049 0.0
O128 O 0.27393 0.05226 0.54549 0.0
Zn129 Zn 0.25261 0.07891 0.51525 0.0
O130 O 0.22127 0.09889 0.54809 0.0
O131 O 0.16842 0.0764 0.51687 0.0
O132 O 0.27994 0.12042 0.50723 0.0
O133 O 0.22644 0.1091 0.47863 0.0
O134 O 0.18321 0.03103 0.4423 0.0
O135 O 0.23848 0.04348 0.46156 0.0
C136 C 0.18972 0.09553 0.54565 0.0
C137 C 0.21141 0.02719 0.43691 0.0
C138 C 0.58041 0.77157 0.05081 0.0
C139 C 0.50817 0.80243 0.95302 0.0
O140 O 0.55974 0.75096 0.02234 0.0
Zn141 Zn 0.5455 0.78662 1.00083 0.0
O142 O 0.58483 0.80473 0.05515 0.0
Zn143 Zn 0.56568 0.84034 0.02683 0.0
O144 O 0.54586 0.8639 0.06287 0.0
O145 O 0.51974 0.80806 0.04037 0.0
O146 O 0.52712 0.82932 0.97741 0.0
O147 O 0.51082 0.77211 0.95567 0.0
O148 O 0.58978 0.81122 0.98476 0.0
O149 O 0.60478 0.86657 0.01496 0.0
C150 C 0.52244 0.83763 0.06203 0.0
C151 C 0.60981 0.84188 0.99224 0.0
C152 C 0.82008 0.99502 0.63297 0.0
C153 C 0.79476 0.06383 0.54263 0.0
O154 O 0.78902 0.9864 0.61576 0.0
Zn155 Zn 0.75706 1.00097 0.57336 0.0
O156 O 0.84101 0.01902 0.62559 0.0
Zn157 Zn 0.80896 0.02996 0.58826 0.0
O158 O 0.77745 0.05078 0.61966 0.0
O159 O 0.72535 0.01773 0.59921 0.0
O160 O 0.82326 0.06697 0.5637 0.0
O161 O 0.76919 0.04052 0.54399 0.0
O162 O 0.74262 0.95802 0.53421 0.0
O163 O 0.79675 0.98363 0.54533 0.0
C164 C 0.74656 0.04424 0.62149 0.0
C165 C 0.77126 0.95845 0.52727 0.0
C166 C 0.5674 0.33559 0.13112 0.0
C167 C 0.47086 0.32091 0.02832 0.0
O168 O 0.54854 0.30683 0.11048 0.0
Zn169 Zn 0.52052 0.32694 0.0776 0.0
O170 O 0.56298 0.36448 0.12422 0.0
Zn171 Zn 0.5305 0.38211 0.0852 0.0
O172 O 0.51057 0.41011 0.11691 0.0
O173 O 0.49495 0.35347 0.11405 0.0
O174 O 0.48636 0.35298 0.04318 0.0
O175 O 0.48256 0.29676 0.03879 0.0
O176 O 0.55411 0.34819 0.04672 0.0
O177 O 0.56006 0.40511 0.05889 0.0
C178 C 0.49317 0.38485 0.12634 0.0
C179 C 0.5671 0.37832 0.04194 0.0
H180 H 0.2142 0.39397 0.29853 0.0
H181 H 0.21516 0.36096 0.18367 0.0
H182 H 0.16421 0.38165 0.16544 0.0
H183 H 0.12249 0.37214 0.28614 0.0
H184 H 0.12424 0.41008 0.32096 0.0
H185 H 0.15879 0.38977 0.32437 0.0
H186 H 0.19996 0.44903 0.32806 0.0
H187 H 0.16561 0.46947 0.32472 0.0
H188 H 0.19177 0.47186 0.29226 0.0
H189 H 0.11459 0.40905 0.16038 0.0
H190 H 0.07316 0.44373 0.16926 0.0
H191 H 0.10602 0.45861 0.28755 0.0
C192 C 0.20327 0.39043 0.26951 0.0
C193 C 0.21838 0.37565 0.24247 0.0
C194 C 0.20393 0.37233 0.2048 0.0
C195 C 0.17491 0.38376 0.1942 0.0
C196 C 0.16073 0.39844 0.22164 0.0
C197 C 0.17454 0.40184 0.25853 0.0
C198 C 0.15611 0.42069 0.28285 0.0
C199 C 0.13942 0.39673 0.30487 0.0
C200 C 0.17977 0.45478 0.30846 0.0
C201 C 0.13015 0.428 0.25397 0.0
C202 C 0.1328 0.4146 0.21878 0.0
C203 C 0.11212 0.41941 0.18782 0.0
C204 C 0.08862 0.43904 0.19309 0.0
C205 C 0.0864 0.45388 0.22906 0.0
C206 C 0.10706 0.44761 0.25967 0.0
H207 H 0.2281 0.7346 0.79314 0.0
H208 H 0.21012 0.70643 0.67395 0.0
H209 H 0.16052 0.65941 0.67089 0.0
H210 H 0.20387 0.64523 0.80409 0.0
H211 H 0.18446 0.65715 0.84136 0.0
H212 H 0.21903 0.68836 0.83437 0.0
H213 H 0.18237 0.73257 0.83084 0.0
H214 H 0.14762 0.70142 0.83753 0.0
H215 H 0.14232 0.71982 0.79782 0.0
H216 H 0.11227 0.61719 0.68012 0.0
H217 H 0.06902 0.57978 0.70114 0.0
H218 H 0.11847 0.63358 0.81478 0.0
C219 C 0.21401 0.71822 0.76645 0.0
C220 C 0.22287 0.72436 0.73373 0.0
C221 C 0.2035 0.7026 0.69931 0.0
C222 C 0.1754 0.67571 0.69729 0.0
C223 C 0.16707 0.67073 0.72995 0.0
C224 C 0.18587 0.69111 0.76391 0.0
C225 C 0.17113 0.6802 0.79471 0.0
C226 C 0.19611 0.66694 0.82013 0.0
C227 C 0.16021 0.7103 0.8165 0.0
C228 C 0.14099 0.6507 0.77264 0.0
C229 C 0.1392 0.64581 0.73535 0.0
C230 C 0.11345 0.6206 0.70925 0.0
C231 C 0.08893 0.59953 0.72154 0.0
C232 C 0.0903 0.60367 0.75966 0.0
C233 C 0.11672 0.62972 0.7855 0.0
H234 H 0.89296 0.68697 0.33267 0.0
H235 H 0.81906 0.65494 0.22799 0.0
H236 H 0.85383 0.61951 0.20142 0.0
H237 H 0.96718 0.69229 0.29513 0.0
H238 H 0.98907 0.675 0.33002 0.0
H239 H 0.9591 0.69925 0.34046 0.0
H240 H 0.92622 0.64708 0.36099 0.0
H241 H 0.95615 0.62278 0.35076 0.0
H242 H 0.91195 0.60444 0.32971 0.0
H243 H 0.89592 0.58602 0.18655 0.0
H244 H 0.94119 0.55536 0.18558 0.0
H245 H 0.98728 0.60893 0.29993 0.0
C246 C 0.88426 0.67263 0.30412 0.0
C247 C 0.85337 0.67373 0.28248 0.0
C248 C 0.84262 0.65448 0.24523 0.0
C249 C 0.86226 0.63434 0.22978 0.0
C250 C 0.89257 0.6337 0.25189 0.0
C251 C 0.9035 0.65225 0.28828 0.0
C252 C 0.93641 0.64603 0.30645 0.0
C253 C 0.9646 0.68018 0.31873 0.0
C254 C 0.93243 0.62907 0.33888 0.0
C255 C 0.94205 0.62082 0.27472 0.0
C256 C 0.91666 0.61423 0.24339 0.0
C257 C 0.91606 0.59109 0.21087 0.0
C258 C 0.9419 0.57384 0.21055 0.0
C259 C 0.96783 0.57973 0.24261 0.0
C260 C 0.96794 0.6039 0.27487 0.0
H261 H 0.82765 0.36811 0.84726 0.0
H262 H 0.78648 0.31778 0.7313 0.0
H263 H 0.83304 0.35638 0.71574 0.0
H264 H 0.85593 0.45606 0.83488 0.0
H265 H 0.89369 0.46734 0.87118 0.0
H266 H 0.85685 0.43599 0.87344 0.0
H267 H 0.89185 0.39063 0.8799 0.0
H268 H 0.92874 0.42176 0.87744 0.0
H269 H 0.91462 0.37944 0.84558 0.0
H270 H 0.88369 0.3992 0.71237 0.0
H271 H 0.93545 0.44525 0.72102 0.0
H272 H 0.94473 0.46905 0.83922 0.0
C273 C 0.82832 0.3655 0.8186 0.0
C274 C 0.80356 0.33976 0.79048 0.0
C275 C 0.80544 0.33693 0.75332 0.0
C276 C 0.8317 0.35883 0.74418 0.0
C277 C 0.85591 0.38355 0.7725 0.0
C278 C 0.8545 0.38719 0.80894 0.0
C279 C 0.88406 0.41586 0.83391 0.0
C280 C 0.8719 0.44557 0.85457 0.0
C281 C 0.90612 0.40102 0.86079 0.0
C282 C 0.90224 0.42764 0.80573 0.0
C283 C 0.88545 0.40856 0.77053 0.0
C284 C 0.89708 0.4144 0.73979 0.0
C285 C 0.92658 0.44065 0.74505 0.0
C286 C 0.94425 0.46084 0.78081 0.0
C287 C 0.93189 0.45404 0.81156 0.0
H288 H 0.21391 0.24863 0.35003 0.0
H289 H 0.32087 0.29757 0.37364 0.0
H290 H 0.33166 0.26255 0.41928 0.0
H291 H 0.21034 0.24246 0.44363 0.0
H292 H 0.18005 0.20047 0.42855 0.0
H293 H 0.18073 0.231 0.39951 0.0
H294 H 0.18733 0.18413 0.34638 0.0
H295 H 0.18664 0.1535 0.37523 0.0
H296 H 0.2215 0.16361 0.35422 0.0
H297 H 0.33078 0.21996 0.46042 0.0
H298 H 0.31838 0.17255 0.49258 0.0
H299 H 0.21201 0.15176 0.44139 0.0
C300 C 0.23956 0.25219 0.36511 0.0
C301 C 0.26652 0.27574 0.3584 0.0
C302 C 0.29981 0.27961 0.37836 0.0
C303 C 0.30617 0.25991 0.4044 0.0
C304 C 0.27898 0.23661 0.41014 0.0
C305 C 0.24633 0.23271 0.39105 0.0
C306 C 0.2217 0.20488 0.40108 0.0
C307 C 0.19674 0.22066 0.41928 0.0
C308 C 0.20322 0.17475 0.36721 0.0
C309 C 0.2456 0.19336 0.42843 0.0
C310 C 0.27851 0.2121 0.43355 0.0
C311 C 0.30507 0.20527 0.4568 0.0
C312 C 0.29778 0.17832 0.47496 0.0
C313 C 0.26423 0.15846 0.46958 0.0
C314 C 0.23792 0.1665 0.44628 0.0
H315 H 0.34235 0.74426 0.78929 0.0
H316 H 0.34775 0.8548 0.80048 0.0
H317 H 0.40114 0.86966 0.84736 0.0
H318 H 0.37251 0.75063 0.88535 0.0
H319 H 0.3958 0.71808 0.8783 0.0
H320 H 0.35898 0.71606 0.84391 0.0
H321 H 0.39418 0.71628 0.79476 0.0
H322 H 0.43118 0.71852 0.82908 0.0
H323 H 0.43161 0.75112 0.80248 0.0
H324 H 0.4527 0.8728 0.89389 0.0
H325 H 0.49833 0.86414 0.93959 0.0
H326 H 0.45895 0.7515 0.90009 0.0
C327 C 0.35467 0.77159 0.80168 0.0
C328 C 0.34097 0.79836 0.79086 0.0
C329 C 0.35807 0.83382 0.80766 0.0
C330 C 0.38834 0.84255 0.83446 0.0
C331 C 0.40115 0.81555 0.84434 0.0
C332 C 0.38484 0.7808 0.82867 0.0
C333 C 0.40345 0.75691 0.84535 0.0
C334 C 0.38137 0.73408 0.86436 0.0
C335 C 0.41584 0.73438 0.81617 0.0
C336 C 0.43257 0.78372 0.8731 0.0
C337 C 0.43084 0.81736 0.87178 0.0
C338 C 0.45442 0.8466 0.89517 0.0
C339 C 0.48026 0.84136 0.92104 0.0
C340 C 0.48226 0.80713 0.92345 0.0
C341 C 0.45825 0.77798 0.8988 0.0
H342 H 0.71992 0.78575 0.36299 0.0
H343 H 0.82577 0.80536 0.36177 0.0
H344 H 0.83888 0.85573 0.41489 0.0
H345 H 0.7179 0.87498 0.38264 0.0
H346 H 0.68901 0.8699 0.41202 0.0
H347 H 0.68799 0.83352 0.37577 0.0
H348 H 0.69618 0.79576 0.42317 0.0
H349 H 0.69709 0.83199 0.45959 0.0
H350 H 0.73153 0.81151 0.46261 0.0
H351 H 0.84036 0.90569 0.46533 0.0
H352 H 0.83064 0.95167 0.51134 0.0
H353 H 0.72345 0.90125 0.47967 0.0
C354 C 0.7459 0.80054 0.37394 0.0
C355 C 0.77184 0.79133 0.3582 0.0
C356 C 0.80551 0.81132 0.37366 0.0
C357 C 0.8132 0.84019 0.4037 0.0
C358 C 0.78698 0.84882 0.41805 0.0
C359 C 0.75402 0.82956 0.40384 0.0
C360 C 0.73047 0.84525 0.42366 0.0
C361 C 0.70484 0.85659 0.39692 0.0
C362 C 0.71278 0.8196 0.44344 0.0
C363 C 0.75535 0.87662 0.45096 0.0
C364 C 0.78779 0.878 0.44722 0.0
C365 C 0.81511 0.90479 0.46867 0.0
C366 C 0.80923 0.93089 0.49472 0.0
C367 C 0.77623 0.93019 0.49924 0.0
C368 C 0.74895 0.90253 0.47701 0.0
H369 H 0.67066 0.30937 0.90026 0.0
H370 H 0.70277 0.41618 0.89022 0.0
H371 H 0.67065 0.43531 0.93498 0.0
H372 H 0.58664 0.31158 0.90681 0.0
H373 H 0.58517 0.28491 0.93983 0.0
H374 H 0.61112 0.27977 0.90751 0.0
H375 H 0.66318 0.29086 0.96144 0.0
H376 H 0.63737 0.29603 0.99392 0.0
H377 H 0.67428 0.33024 0.99761 0.0
H378 H 0.63484 0.44271 0.98058 0.0
H379 H 0.59739 0.43778 0.02334 0.0
H380 H 0.58839 0.32601 0.00319 0.0
C381 C 0.67098 0.33678 0.90752 0.0
C382 C 0.68919 0.3614 0.89184 0.0
C383 C 0.68893 0.39698 0.90199 0.0
C384 C 0.67081 0.40807 0.92737 0.0
C385 C 0.65305 0.38319 0.94232 0.0
C386 C 0.65295 0.34829 0.93277 0.0
C387 C 0.6315 0.32684 0.95259 0.0
C388 C 0.60185 0.29915 0.92504 0.0
C389 C 0.65287 0.31001 0.97789 0.0
C390 C 0.61953 0.35512 0.97467 0.0
C391 C 0.63229 0.38745 0.96843 0.0
C392 C 0.62469 0.41753 0.9857 0.0
C393 C 0.6034 0.41446 0.00996 0.0
C394 C 0.5899 0.38153 0.01665 0.0
C395 C 0.59823 0.35158 0.9987 0.0
H396 H 0.32555 0.91633 0.6725 0.0
H397 H 0.22946 0.83856 0.63276 0.0
H398 H 0.20914 0.87414 0.59189 0.0
H399 H 0.29278 0.99123 0.6739 0.0
H400 H 0.3263 0.01587 0.65838 0.0
H401 H 0.33415 0.98372 0.68366 0.0
H402 H 0.35584 0.95243 0.6306 0.0
H403 H 0.34815 0.98457 0.60518 0.0
H404 H 0.32939 0.93873 0.58453 0.0
H405 H 0.1982 0.91848 0.55742 0.0
H406 H 0.19741 0.96883 0.52982 0.0
H407 H 0.30072 0.01853 0.5908 0.0
C408 C 0.30034 0.90676 0.65494 0.0
C409 C 0.27911 0.87475 0.65579 0.0
C410 C 0.24622 0.863 0.63261 0.0
C411 C 0.23442 0.88302 0.60925 0.0
C412 C 0.25584 0.91459 0.6093 0.0
C413 C 0.28814 0.92641 0.63134 0.0
C414 C 0.30569 0.96166 0.6264 0.0
C415 C 0.31528 0.98978 0.66275 0.0
C416 C 0.3366 0.95918 0.61074 0.0
C417 C 0.27799 0.96792 0.59848 0.0
C418 C 0.24953 0.94034 0.58902 0.0
C419 C 0.22036 0.94018 0.56442 0.0
C420 C 0.22018 0.96902 0.54897 0.0
C421 C 0.24902 0.99769 0.55811 0.0
C422 C 0.27835 0.99698 0.58314 0.0
H423 H 0.7113 0.78765 0.23765 0.0
H424 H 0.6831 0.6744 0.21674 0.0
H425 H 0.64101 0.67149 0.16032 0.0
H426 H 0.62662 0.79794 0.20457 0.0
H427 H 0.64215 0.83373 0.18498 0.0
H428 H 0.66813 0.82652 0.22481 0.0
H429 H 0.71542 0.82376 0.18998 0.0
H430 H 0.68946 0.83048 0.1499 0.0
H431 H 0.70641 0.79273 0.14629 0.0
H432 H 0.60441 0.68119 0.10406 0.0
H433 H 0.57465 0.70291 0.05411 0.0
H434 H 0.62729 0.80964 0.1132 0.0
C435 C 0.69568 0.76226 0.22177 0.0
C436 C 0.70031 0.73125 0.23164 0.0
C437 C 0.68 0.69848 0.20953 0.0
C438 C 0.65601 0.69657 0.17754 0.0
C439 C 0.65262 0.72768 0.16819 0.0
C440 C 0.67172 0.7599 0.18986 0.0
C441 C 0.66422 0.7894 0.17314 0.0
C442 C 0.64939 0.8133 0.19838 0.0
C443 C 0.69575 0.8103 0.1643 0.0
C444 C 0.63821 0.76875 0.13843 0.0
C445 C 0.63173 0.7332 0.136 0.0
C446 C 0.6091 0.709 0.1058 0.0
C447 C 0.59243 0.72155 0.07752 0.0
C448 C 0.5986 0.75795 0.07975 0.0
C449 C 0.62188 0.78165 0.11064 0.0
H450 H 0.78462 0.21522 0.77948 0.0
H451 H 0.67858 0.21215 0.75189 0.0
H452 H 0.6667 0.15302 0.71108 0.0
H453 H 0.78945 0.18053 0.69204 0.0
H454 H 0.8192 0.15597 0.70507 0.0
H455 H 0.81817 0.19462 0.73686 0.0
H456 H 0.80927 0.15894 0.78581 0.0
H457 H 0.8105 0.1201 0.75417 0.0
H458 H 0.77488 0.12023 0.77433 0.0
H459 H 0.6681 0.09723 0.66665 0.0
H460 H 0.68269 0.05125 0.624 0.0
H461 H 0.78796 0.09311 0.68077 0.0
C462 C 0.75878 0.20182 0.76544 0.0
C463 C 0.73252 0.21825 0.76884 0.0
C464 C 0.69903 0.19986 0.75005 0.0
C465 C 0.69209 0.16632 0.72672 0.0
C466 C 0.71888 0.15146 0.72285 0.0
C467 C 0.75152 0.16863 0.7421 0.0
C468 C 0.77638 0.14896 0.73087 0.0
C469 C 0.8023 0.17135 0.71528 0.0
C470 C 0.79378 0.1363 0.76323 0.0
C471 C 0.75289 0.11866 0.70127 0.0
C472 C 0.71973 0.12004 0.69729 0.0
C473 C 0.69395 0.09567 0.66996 0.0
C474 C 0.70243 0.06965 0.64585 0.0
C475 C 0.73645 0.06861 0.649 0.0
C476 C 0.7617 0.09311 0.67758 0.0
H477 H 0.34658 0.32521 0.22437 0.0
H478 H 0.33364 0.43061 0.23978 0.0
H479 H 0.38209 0.44827 0.21276 0.0
H480 H 0.43777 0.34876 0.24513 0.0
H481 H 0.43953 0.31242 0.2104 0.0
H482 H 0.4048 0.30871 0.2323 0.0
H483 H 0.36277 0.29214 0.16846 0.0
H484 H 0.39734 0.29566 0.1464 0.0
H485 H 0.36714 0.32083 0.13763 0.0
H486 H 0.43152 0.45381 0.18288 0.0
H487 H 0.47578 0.446 0.14963 0.0
H488 H 0.45541 0.33673 0.15395 0.0
C489 C 0.35422 0.35212 0.22248 0.0
C490 C 0.33656 0.37662 0.23429 0.0
C491 C 0.3468 0.41141 0.23067 0.0
C492 C 0.37437 0.42171 0.21561 0.0
C493 C 0.39128 0.39685 0.20425 0.0
C494 C 0.38146 0.36273 0.20736 0.0
C495 C 0.40281 0.34064 0.19168 0.0
C496 C 0.42239 0.32683 0.22167 0.0
C497 C 0.38122 0.31056 0.15911 0.0
C498 C 0.4261 0.36758 0.17905 0.0
C499 C 0.41929 0.39992 0.18676 0.0
C500 C 0.43716 0.42863 0.17684 0.0
C501 C 0.4623 0.42397 0.15805 0.0
C502 C 0.4691 0.39079 0.14922 0.0
C503 C 0.45094 0.36248 0.16036 0.0
H504 H 0.88663 0.71756 0.78156 0.0
H505 H 0.88875 0.75284 0.89702 0.0
H506 H 0.92422 0.7132 0.91264 0.0
H507 H 0.8813 0.62709 0.78206 0.0
H508 H 0.90761 0.62177 0.7501 0.0
H509 H 0.88264 0.65302 0.74835 0.0
H510 H 0.93627 0.70214 0.75537 0.0
H511 H 0.9614 0.67104 0.75719 0.0
H512 H 0.97156 0.70983 0.79394 0.0
H513 H 0.96071 0.67016 0.91541 0.0
H514 H 0.99335 0.62623 0.90502 0.0
H515 H 0.96584 0.61835 0.78742 0.0
C516 C 0.89454 0.71688 0.81013 0.0
C517 C 0.88497 0.73822 0.83808 0.0
C518 C 0.89572 0.73664 0.87515 0.0
C519 C 0.91592 0.71424 0.88427 0.0
C520 C 0.92496 0.69352 0.85598 0.0
C521 C 0.91445 0.69455 0.81964 0.0
C522 C 0.92732 0.66952 0.79433 0.0
C523 C 0.89797 0.64117 0.76711 0.0
C524 C 0.95052 0.68932 0.77402 0.0
C525 C 0.94684 0.65426 0.82207 0.0
C526 C 0.94532 0.6685 0.85751 0.0
C527 C 0.96193 0.65877 0.88775 0.0
C528 C 0.98046 0.63382 0.88157 0.0
C529 C 0.98211 0.61869 0.8454 0.0
C530 C 0.96497 0.62919 0.81539 0.0
H531 H 0.84089 0.35268 0.28556 0.0
H532 H 0.86702 0.35947 0.40289 0.0
H533 H 0.921 0.40231 0.40867 0.0
H534 H 0.92478 0.35981 0.27093 0.0
H535 H 0.91885 0.38549 0.2374 0.0
H536 H 0.88335 0.35446 0.24288 0.0
H537 H 0.85273 0.40368 0.25441 0.0
H538 H 0.88816 0.43486 0.24908 0.0
H539 H 0.87318 0.44256 0.2905 0.0
H540 H 0.97128 0.44751 0.4013 0.0
H541 H 0.01344 0.48816 0.381 0.0
H542 H 0.95293 0.45013 0.26871 0.0
C543 C 0.85797 0.36312 0.3125 0.0
C544 C 0.84973 0.35285 0.3438 0.0
C545 C 0.87297 0.36678 0.37848 0.0
C546 C 0.90358 0.39124 0.38204 0.0
C547 C 0.91064 0.40124 0.3506 0.0
C548 C 0.8885 0.38732 0.31648 0.0
C549 C 0.90147 0.40246 0.28694 0.0
C550 C 0.90748 0.37385 0.25783 0.0
C551 C 0.87746 0.42205 0.26921 0.0
C552 C 0.93425 0.4274 0.30971 0.0
C553 C 0.93928 0.4265 0.34639 0.0
C554 C 0.96765 0.44819 0.37258 0.0
C555 C 0.99143 0.47124 0.36084 0.0
C556 C 0.98665 0.47228 0.32326 0.0
C557 C 0.95762 0.44992 0.29762 0.0
H558 H 0.16886 0.36923 0.88541 0.0
H559 H 0.24038 0.40617 0.82396 0.0
H560 H 0.21495 0.45566 0.81782 0.0
H561 H 0.09989 0.38489 0.83407 0.0
H562 H 0.08157 0.39963 0.87141 0.0
H563 H 0.10839 0.37047 0.87612 0.0
H564 H 0.14723 0.41419 0.93509 0.0
H565 H 0.12017 0.44333 0.931 0.0
H566 H 0.16446 0.45881 0.93377 0.0
H567 H 0.17533 0.49377 0.80856 0.0
H568 H 0.12902 0.52327 0.80403 0.0
H569 H 0.08541 0.46496 0.87563 0.0
C570 C 0.17997 0.3887 0.87209 0.0
C571 C 0.20698 0.38459 0.85582 0.0
C572 C 0.22025 0.40958 0.83734 0.0
C573 C 0.20581 0.43755 0.83355 0.0
C574 C 0.17843 0.44032 0.84888 0.0
C575 C 0.16615 0.41707 0.86859 0.0
C576 C 0.13526 0.42468 0.88041 0.0
C577 C 0.10448 0.39304 0.86454 0.0
C578 C 0.14221 0.43593 0.92258 0.0
C579 C 0.13125 0.45493 0.86303 0.0
C580 C 0.15639 0.46345 0.84486 0.0
C581 C 0.15611 0.48802 0.82353 0.0
C582 C 0.12965 0.50446 0.82091 0.0
C583 C 0.10415 0.49669 0.83996 0.0
C584 C 0.10515 0.4719 0.86158 0.0
H585 H 0.23424 0.76045 0.30752 0.0
H586 H 0.24363 0.72358 0.19619 0.0
H587 H 0.20678 0.66584 0.1929 0.0
H588 H 0.22915 0.67624 0.33537 0.0
H589 H 0.19855 0.68351 0.36151 0.0
H590 H 0.22939 0.72018 0.357 0.0
H591 H 0.1816 0.747 0.33115 0.0
H592 H 0.15064 0.71037 0.33529 0.0
H593 H 0.14891 0.72155 0.29143 0.0
H594 H 0.16348 0.61536 0.19858 0.0
H595 H 0.11867 0.57406 0.21361 0.0
H596 H 0.13682 0.64322 0.32157 0.0
C597 C 0.22895 0.74006 0.28262 0.0
C598 C 0.24186 0.74655 0.25206 0.0
C599 C 0.23447 0.71912 0.22009 0.0
C600 C 0.21341 0.68629 0.21793 0.0
C601 C 0.20023 0.68121 0.2481 0.0
C602 C 0.20799 0.7072 0.28001 0.0
C603 C 0.18872 0.6958 0.30753 0.0
C604 C 0.2129 0.69381 0.34242 0.0
C605 C 0.16613 0.72012 0.31688 0.0
C606 C 0.16802 0.65971 0.28562 0.0
C607 C 0.1753 0.65179 0.25153 0.0
C608 C 0.15794 0.62104 0.22538 0.0
C609 C 0.13237 0.59784 0.23414 0.0
C610 C 0.1243 0.60537 0.26882 0.0
C611 C 0.14275 0.63654 0.29507 0.0
H612 H 0.81252 0.9161 0.80784 0.0
H613 H 0.8429 0.82864 0.74975 0.0
H614 H 0.85362 0.86062 0.70263 0.0
H615 H 0.76491 0.92931 0.72649 0.0
H616 H 0.7746 0.97614 0.74301 0.0
H617 H 0.77405 0.94864 0.77516 0.0
H618 H 0.83506 0.98305 0.80964 0.0
H619 H 0.83591 0.01041 0.77726 0.0
H620 H 0.86771 0.98682 0.78471 0.0
H621 H 0.85882 0.90084 0.65976 0.0
H622 H 0.85092 0.94278 0.6209 0.0
H623 H 0.81099 1.0004 0.70259 0.0
C624 C 0.82127 0.9033 0.78529 0.0
C625 C 0.82734 0.86973 0.78344 0.0
C626 C 0.83909 0.85468 0.7531 0.0
C627 C 0.84509 0.8726 0.72581 0.0
C628 C 0.83872 0.90543 0.7286 0.0
C629 C 0.82651 0.92038 0.75723 0.0
C630 C 0.81837 0.95428 0.75179 0.0
C631 C 0.78075 0.95193 0.74893 0.0
C632 C 0.8406 0.98548 0.78269 0.0
C633 C 0.82746 0.95578 0.71533 0.0
C634 C 0.83994 0.92776 0.70286 0.0
C635 C 0.84933 0.92301 0.66937 0.0
C636 C 0.845 0.94699 0.64762 0.0
C637 C 0.83103 0.97495 0.65928 0.0
C638 C 0.82246 0.97959 0.69364 0.0
H639 H 0.70503 0.26791 0.25713 0.0
H640 H 0.73839 0.37372 0.32553 0.0
H641 H 0.69198 0.3897 0.28779 0.0
H642 H 0.68393 0.29125 0.17251 0.0
H643 H 0.64716 0.25524 0.15242 0.0
H644 H 0.68096 0.25066 0.18668 0.0
H645 H 0.6393 0.23356 0.22653 0.0
H646 H 0.60529 0.23787 0.19225 0.0
H647 H 0.61349 0.26221 0.23927 0.0
H648 H 0.64561 0.3959 0.2408 0.0
H649 H 0.60027 0.39192 0.18756 0.0
H650 H 0.59516 0.28199 0.14807 0.0
C651 C 0.702 0.29418 0.26452 0.0
C652 C 0.72523 0.31962 0.29429 0.0
C653 C 0.72094 0.35393 0.30277 0.0
C654 C 0.69461 0.36321 0.28156 0.0
C655 C 0.67263 0.33788 0.25191 0.0
C656 C 0.67579 0.304 0.24337 0.0
C657 C 0.64957 0.28255 0.20871 0.0
C658 C 0.66642 0.26914 0.17829 0.0
C659 C 0.62548 0.25225 0.21721 0.0
C660 C 0.63169 0.30989 0.19888 0.0
C661 C 0.64543 0.34151 0.2244 0.0
C662 C 0.6344 0.37121 0.2208 0.0
C663 C 0.60866 0.36867 0.19028 0.0
C664 C 0.59402 0.33664 0.16354 0.0
C665 C 0.60559 0.30676 0.16816 0.0
H666 H 0.21009 0.23806 0.72949 0.0
H667 H 0.13429 0.16293 0.75728 0.0
H668 H 0.12459 0.12304 0.69583 0.0
H669 H 0.17302 0.22194 0.63123 0.0
H670 H 0.21299 0.22552 0.6191 0.0
H671 H 0.21089 0.24966 0.66319 0.0
H672 H 0.25442 0.22152 0.69608 0.0
H673 H 0.25677 0.19749 0.65215 0.0
H674 H 0.24635 0.17453 0.68643 0.0
H675 H 0.12341 0.09179 0.63098 0.0
H676 H 0.13703 0.06733 0.57251 0.0
H677 H 0.21821 0.16031 0.59097 0.0
C678 C 0.19104 0.21344 0.72226 0.0
C679 C 0.1723 0.20363 0.74743 0.0
C680 C 0.14851 0.17082 0.73791 0.0
C681 C 0.14277 0.14821 0.70312 0.0
C682 C 0.16168 0.15863 0.67875 0.0
C683 C 0.18582 0.19019 0.68822 0.0
C684 C 0.20536 0.19362 0.6589 0.0
C685 C 0.20024 0.22452 0.64211 0.0
C686 C 0.24294 0.19697 0.67432 0.0
C687 C 0.18858 0.159 0.63146 0.0
C688 C 0.16286 0.13955 0.64291 0.0
C689 C 0.14355 0.10675 0.62182 0.0
C690 C 0.1513 0.09316 0.58863 0.0
C691 C 0.17863 0.11201 0.5775 0.0
C692 C 0.19721 0.14543 0.59901 0.0
H693 H 0.36759 0.7679 0.14674 0.0
H694 H 0.38669 0.87321 0.21348 0.0
H695 H 0.43446 0.89258 0.18629 0.0
H696 H 0.4546 0.76744 0.15227 0.0
H697 H 0.44659 0.74264 0.10546 0.0
H698 H 0.4142 0.73713 0.13057 0.0
H699 H 0.37353 0.75195 0.07901 0.0
H700 H 0.40582 0.75757 0.0538 0.0
H701 H 0.38609 0.79244 0.06557 0.0
H702 H 0.48013 0.90051 0.15106 0.0
H703 H 0.51997 0.89616 0.11104 0.0
H704 H 0.47064 0.78567 0.06734 0.0
C705 C 0.38193 0.79501 0.15569 0.0
C706 C 0.37343 0.81902 0.18219 0.0
C707 C 0.39269 0.85431 0.19319 0.0
C708 C 0.4199 0.86558 0.1779 0.0
C709 C 0.42752 0.84125 0.15165 0.0
C710 C 0.4091 0.80668 0.14068 0.0
C711 C 0.4223 0.78581 0.11185 0.0
C712 C 0.43519 0.75653 0.12589 0.0
C713 C 0.39533 0.77109 0.0754 0.0
C714 C 0.45097 0.81402 0.10823 0.0
C715 C 0.45363 0.84582 0.13142 0.0
C716 C 0.47827 0.87571 0.13281 0.0
C717 C 0.50079 0.873 0.10995 0.0
C718 C 0.4985 0.84061 0.08598 0.0
C719 C 0.47315 0.81085 0.08527 0.0
H720 H 0.84495 0.22477 0.45018 0.0
H721 H 0.74224 0.19307 0.38408 0.0
H722 H 0.72999 0.14341 0.41311 0.0
H723 H 0.85547 0.1371 0.44728 0.0
H724 H 0.88023 0.14828 0.49402 0.0
H725 H 0.88117 0.18103 0.46761 0.0
H726 H 0.86371 0.22093 0.51836 0.0
H727 H 0.8627 0.18831 0.54491 0.0
H728 H 0.82603 0.2043 0.53269 0.0
H729 H 0.72847 0.09814 0.45008 0.0
H730 H 0.7375 0.0598 0.49218 0.0
H731 H 0.84156 0.12017 0.53462 0.0
C732 C 0.81992 0.20726 0.44177 0.0
C733 C 0.79455 0.21277 0.41488 0.0
C734 C 0.76209 0.18938 0.40456 0.0
C735 C 0.7549 0.16108 0.42091 0.0
C736 C 0.78045 0.15646 0.44741 0.0
C737 C 0.81235 0.17881 0.45775 0.0
C738 C 0.83515 0.16809 0.48716 0.0
C739 C 0.86475 0.15802 0.47317 0.0
C740 C 0.84762 0.19714 0.5229 0.0
C741 C 0.81099 0.13638 0.49202 0.0
C742 C 0.77962 0.13015 0.46871 0.0
C743 C 0.75295 0.10269 0.46835 0.0
C744 C 0.75839 0.08104 0.49248 0.0
C745 C 0.79028 0.08684 0.5168 0.0
C746 C 0.81694 0.1149 0.51634 0.0
H747 H 0.2946 0.35023 0.93534 0.0
H748 H 0.29239 0.27069 0.83949 0.0
H749 H 0.34469 0.26113 0.8721 0.0
H750 H 0.3844 0.38764 0.95416 0.0
H751 H 0.38967 0.39816 0.0034 0.0
H752 H 0.35032 0.397 0.97363 0.0
H753 H 0.31888 0.35225 0.00431 0.0
H754 H 0.35819 0.35306 0.03395 0.0
H755 H 0.3312 0.31212 0.00541 0.0
H756 H 0.39677 0.25825 0.91609 0.0
H757 H 0.44869 0.26875 0.96502 0.0
H758 H 0.4212 0.35498 0.0284 0.0
C759 C 0.30505 0.33096 0.92088 0.0
C760 C 0.28819 0.31054 0.88494 0.0
C761 C 0.30341 0.28573 0.8675 0.0
C762 C 0.33355 0.28025 0.88568 0.0
C763 C 0.34901 0.30036 0.92113 0.0
C764 C 0.33569 0.32575 0.93826 0.0
C765 C 0.35856 0.34535 0.97556 0.0
C766 C 0.37151 0.38435 0.97674 0.0
C767 C 0.34063 0.34039 0.00664 0.0
C768 C 0.38668 0.32693 0.97662 0.0
C769 C 0.38038 0.30058 0.94526 0.0
C770 C 0.40217 0.27907 0.94061 0.0
C771 C 0.43146 0.28506 0.96852 0.0
C772 C 0.43898 0.31282 1.00013 0.0
C773 C 0.41619 0.33384 0.0042 0.0
H774 H 0.29889 0.90424 0.32045 0.0
H775 H 0.19971 0.85109 0.25085 0.0
H776 H 0.17602 0.89596 0.28278 0.0
H777 H 0.27291 0.92357 0.40125 0.0
H778 H 0.30247 0.96579 0.41994 0.0
H779 H 0.31249 0.93272 0.38818 0.0
H780 H 0.32202 0.97506 0.34545 0.0
H781 H 0.3122 0.00842 0.37726 0.0
H782 H 0.2892 0.99522 0.32972 0.0
H783 H 0.16224 0.94273 0.32645 0.0
H784 H 0.15936 0.98777 0.37885 0.0
H785 H 0.26756 0.01007 0.42025 0.0
C786 C 0.2724 0.90274 0.31127 0.0
C787 C 0.25111 0.8745 0.28307 0.0
C788 C 0.21637 0.87266 0.27241 0.0
C789 C 0.20276 0.89806 0.29026 0.0
C790 C 0.22425 0.92514 0.31866 0.0
C791 C 0.25837 0.92774 0.32901 0.0
C792 C 0.27541 0.95753 0.3625 0.0
C793 C 0.29176 0.94409 0.39487 0.0
C794 C 0.30123 0.98573 0.35316 0.0
C795 C 0.24543 0.97062 0.36994 0.0
C796 C 0.21622 0.95191 0.3441 0.0
C797 C 0.18503 0.95792 0.34656 0.0
C798 C 0.18362 0.9835 0.37647 0.0
C799 C 0.21321 1.00256 0.40361 0.0
C800 C 0.2445 0.99626 0.39981 0.0
H801 H 0.74025 0.7903 0.87584 0.0
H802 H 0.78362 0.90136 0.89117 0.0
H803 H 0.7426 0.91465 0.92706 0.0
H804 H 0.65412 0.79512 0.86444 0.0
H805 H 0.64263 0.76176 0.88867 0.0
H806 H 0.67581 0.76095 0.86477 0.0
H807 H 0.71668 0.76069 0.92494 0.0
H808 H 0.68362 0.76148 0.94901 0.0
H809 H 0.7229 0.79466 0.96577 0.0
H810 H 0.69747 0.91593 0.96223 0.0
H811 H 0.64998 0.9051 0.99201 0.0
H812 H 0.63474 0.79319 0.95245 0.0
C813 C 0.74122 0.8174 0.88698 0.0
C814 C 0.76516 0.84482 0.88073 0.0
C815 C 0.76533 0.87995 0.89534 0.0
C816 C 0.74223 0.88775 0.91591 0.0
C817 C 0.71892 0.86015 0.92148 0.0
C818 C 0.7181 0.82567 0.90729 0.0
C819 C 0.68998 0.80093 0.91666 0.0
C820 C 0.66411 0.77837 0.88154 0.0
C821 C 0.70415 0.7781 0.94052 0.0
C822 C 0.67522 0.82688 0.93841 0.0
C823 C 0.69242 0.8609 0.94104 0.0
C824 C 0.68375 0.88939 0.96024 0.0
C825 C 0.65675 0.88297 0.97713 0.0
C826 C 0.63849 0.84832 0.97451 0.0
C827 C 0.64799 0.81999 0.9548 0.0
loop_
_geom_bond_atom_site_label_1
_geom_bond_atom_site_label_2
_geom_bond_distance
_geom_bond_site_symmetry_2
_ccdc_geom_bond_type
H0 C5 0.930 . S
H1 C8 0.930 . S
H2 C10 0.930 . S
H3 C4 1.016 . S
C4 H3 1.016 . S
C4 N11 1.286 . S
C5 H0 0.930 . S
C5 C6 1.397 . S
C5 C7 1.361 . S
C6 C5 1.397 . S
C6 C10 1.390 . S
C7 C5 1.361 . S
C7 C8 1.393 . S
C7 N11 1.413 . S
C8 H1 0.930 . S
C8 C7 1.393 . S
C8 C9 1.399 . S
C9 C8 1.399 . S
C9 C10 1.381 . S
C10 H2 0.930 . S
C10 C6 1.390 . S
C10 C9 1.381 . S
N11 C4 1.286 . S
N11 C7 1.413 . S
H12 C17 0.930 . S
H13 C20 0.930 . S
H14 C22 0.930 . S
H15 C16 1.016 . S
C16 H15 1.016 . S
C16 N23 1.286 . S
C17 H12 0.930 . S
C17 C18 1.397 . S
C17 C19 1.361 . S
C18 C17 1.397 . S
C18 C22 1.390 . S
C19 C17 1.361 . S
C19 C20 1.393 . S
C19 N23 1.413 . S
C20 H13 0.930 . S
C20 C19 1.393 . S
C20 C21 1.399 . S
C21 C20 1.399 . S
C21 C22 1.381 . S
C22 H14 0.930 . S
C22 C18 1.390 . S
C22 C21 1.381 . S
N23 C16 1.286 . S
N23 C19 1.413 . S
H24 C29 0.930 . S
H25 C32 0.930 . S
H26 C34 0.930 . S
H27 C28 1.016 . S
C28 H27 1.016 . S
C28 N35 1.286 . S
C29 H24 0.930 . S
C29 C30 1.397 . S
C29 C31 1.361 . S
C30 C29 1.397 . S
C30 C34 1.390 . S
C31 C29 1.361 . S
C31 C32 1.393 . S
C31 N35 1.413 . S
C32 H25 0.930 . S
C32 C31 1.393 . S
C32 C33 1.399 . S
C33 C32 1.399 . S
C33 C34 1.381 . S
C34 H26 0.930 . S
C34 C30 1.390 . S
C34 C33 1.381 . S
N35 C28 1.286 . S
N35 C31 1.413 . S
H36 C41 0.930 . S
H37 C44 0.930 . S
H38 C46 0.930 . S
H39 C40 1.016 . S
C40 H39 1.016 . S
C40 N47 1.286 . S
C41 H36 0.930 . S
C41 C42 1.397 . S
C41 C43 1.361 . S
C42 C41 1.397 . S
C42 C46 1.390 . S
C43 C41 1.361 . S
C43 C44 1.393 . S
C43 N47 1.413 . S
C44 H37 0.930 . S
C44 C43 1.393 . S
C44 C45 1.399 . S
C45 C44 1.399 . S
C45 C46 1.381 . S
C46 H38 0.930 . S
C46 C42 1.390 . S
C46 C45 1.381 . S
N47 C40 1.286 . S
N47 C43 1.413 . S
H48 C53 0.930 . S
H49 C56 0.930 . S
H50 C58 0.930 . S
H51 C52 1.016 . S
C52 H51 1.016 . S
C52 N59 1.286 . S
C53 H48 0.930 . S
C53 C54 1.397 . S
C53 C55 1.361 . S
C54 C53 1.397 . S
C54 C58 1.390 . S
C55 C53 1.361 . S
C55 C56 1.393 . S
C55 N59 1.413 . S
C56 H49 0.930 . S
C56 C55 1.393 . S
C56 C57 1.399 . S
C57 C56 1.399 . S
C57 C58 1.381 . S
C58 H50 0.930 . S
C58 C54 1.390 . S
C58 C57 1.381 . S
N59 C52 1.286 . S
N59 C55 1.413 . S
H60 C65 0.930 . S
H61 C68 0.930 . S
H62 C70 0.930 . S
H63 C64 1.016 . S
C64 H63 1.016 . S
C64 N71 1.286 . S
C65 H60 0.930 . S
C65 C66 1.397 . S
C65 C67 1.361 . S
C66 C65 1.397 . S
C66 C70 1.390 . S
C67 C65 1.361 . S
C67 C68 1.393 . S
C67 N71 1.413 . S
C68 H61 0.930 . S
C68 C67 1.393 . S
C68 C69 1.399 . S
C69 C68 1.399 . S
C69 C70 1.381 . S
C70 H62 0.930 . S
C70 C66 1.390 . S
C70 C69 1.381 . S
N71 C64 1.286 . S
N71 C67 1.413 . S
H72 C77 0.930 . S
H73 C80 0.930 . S
H74 C82 0.930 . S
H75 C76 1.016 . S
C76 H75 1.016 . S
C76 N83 1.286 . S
C77 H72 0.930 . S
C77 C78 1.397 . S
C77 C79 1.361 . S
C78 C77 1.397 . S
C78 C82 1.390 . S
C79 C77 1.361 . S
C79 C80 1.393 . S
C79 N83 1.413 . S
C80 H73 0.930 . S
C80 C79 1.393 . S
C80 C81 1.399 . S
C81 C80 1.399 . S
C81 C82 1.381 . S
C82 H74 0.930 . S
C82 C78 1.390 . S
C82 C81 1.381 . S
N83 C76 1.286 . S
N83 C79 1.413 . S
H84 C89 0.930 . S
H85 C92 0.930 . S
H86 C94 0.930 . S
H87 C88 1.016 . S
C88 H87 1.016 . S
C88 N95 1.286 . S
C89 H84 0.930 . S
C89 C90 1.397 . S
C89 C91 1.361 . S
C90 C89 1.397 . S
C90 C94 1.390 . S
C91 C89 1.361 . S
C91 C92 1.393 . S
C91 N95 1.413 . S
C92 H85 0.930 . S
C92 C91 1.393 . S
C92 C93 1.399 . S
C93 C92 1.399 . S
C93 C94 1.381 . S
C94 H86 0.930 . S
C94 C90 1.390 . S
C94 C93 1.381 . S
N95 C88 1.286 . S
N95 C91 1.413 . S
C96 O98 1.247 . S
C96 O100 1.258 . S
C97 O104 1.247 . S
C97 O105 1.258 . S
O98 C96 1.247 . S
O98 Zn99 2.028 1_655 S
Zn99 O98 2.028 1_455 S
Zn99 O103 2.035 . S
Zn99 O105 2.035 . S
Zn99 O106 2.028 . S
O100 C96 1.258 . S
O100 Zn101 2.035 1_655 S
Zn101 O100 2.035 1_455 S
Zn101 O102 2.028 . S
Zn101 O104 2.028 . S
Zn101 O107 2.035 1_455 S
O102 Zn101 2.028 . S
O102 C108 1.247 . S
O103 Zn99 2.035 . S
O103 C108 1.258 . S
O104 C97 1.247 . S
O104 Zn101 2.028 . S
O105 C97 1.258 . S
O105 Zn99 2.035 . S
O106 Zn99 2.028 . S
O106 C109 1.247 1_455 S
O107 Zn101 2.035 1_655 S
O107 C109 1.258 . S
C108 O102 1.247 . S
C108 O103 1.258 . S
C109 O106 1.247 1_655 S
C109 O107 1.258 . S
C110 O112 1.247 . S
C110 O114 1.258 . S
C111 O118 1.247 . S
C111 O119 1.258 . S
O112 C110 1.247 . S
O112 Zn113 2.028 . S
Zn113 O112 2.028 . S
Zn113 O117 2.035 . S
Zn113 O119 2.035 . S
Zn113 O120 2.028 . S
O114 C110 1.258 . S
O114 Zn115 2.035 . S
Zn115 O114 2.035 . S
Zn115 O116 2.028 . S
Zn115 O118 2.028 . S
Zn115 O121 2.035 . S
O116 Zn115 2.028 . S
O116 C122 1.247 . S
O117 Zn113 2.035 . S
O117 C122 1.258 . S
O118 C111 1.247 . S
O118 Zn115 2.028 . S
O119 C111 1.258 . S
O119 Zn113 2.035 . S
O120 Zn113 2.028 . S
O120 C123 1.247 . S
O121 Zn115 2.035 . S
O121 C123 1.258 . S
C122 O116 1.247 . S
C122 O117 1.258 . S
C123 O120 1.247 . S
C123 O121 1.258 . S
C124 O126 1.247 . S
C124 O128 1.258 . S
C125 O132 1.247 . S
C125 O133 1.258 . S
O126 C124 1.247 . S
O126 Zn127 2.028 . S
Zn127 O126 2.028 . S
Zn127 O131 2.035 1_565 S
Zn127 O133 2.035 1_565 S
Zn127 O134 2.028 . S
O128 C124 1.258 . S
O128 Zn129 2.035 1_565 S
Zn129 O128 2.035 1_545 S
Zn129 O130 2.028 . S
Zn129 O132 2.028 . S
Zn129 O135 2.035 1_545 S
O130 Zn129 2.028 . S
O130 C136 1.247 . S
O131 Zn127 2.035 1_545 S
O131 C136 1.258 . S
O132 C125 1.247 . S
O132 Zn129 2.028 . S
O133 C125 1.258 . S
O133 Zn127 2.035 1_545 S
O134 Zn127 2.028 . S
O134 C137 1.247 . S
O135 Zn129 2.035 1_565 S
O135 C137 1.258 . S
C136 O130 1.247 . S
C136 O131 1.258 . S
C137 O134 1.247 . S
C137 O135 1.258 . S
C138 O140 1.247 . S
C138 O142 1.258 . S
C139 O146 1.247 . S
C139 O147 1.258 . S
O140 C138 1.247 . S
O140 Zn141 2.028 1_554 S
Zn141 O140 2.028 1_556 S
Zn141 O145 2.035 1_556 S
Zn141 O147 2.035 . S
Zn141 O148 2.028 . S
O142 C138 1.258 . S
O142 Zn143 2.035 . S
Zn143 O142 2.035 . S
Zn143 O144 2.028 . S
Zn143 O146 2.028 1_554 S
Zn143 O149 2.035 1_554 S
O144 Zn143 2.028 . S
O144 C150 1.247 . S
O145 Zn141 2.035 1_554 S
O145 C150 1.258 . S
O146 C139 1.247 . S
O146 Zn143 2.028 1_556 S
O147 C139 1.258 . S
O147 Zn141 2.035 . S
O148 Zn141 2.028 . S
O148 C151 1.247 . S
O149 Zn143 2.035 1_556 S
O149 C151 1.258 . S
C150 O144 1.247 . S
C150 O145 1.258 . S
C151 O148 1.247 . S
C151 O149 1.258 . S
C152 O154 1.247 . S
C152 O156 1.258 1_565 S
C153 O160 1.247 . S
C153 O161 1.258 . S
O154 C152 1.247 . S
O154 Zn155 2.028 1_565 S
Zn155 O154 2.028 1_545 S
Zn155 O159 2.035 . S
Zn155 O161 2.035 . S
Zn155 O162 2.028 1_545 S
O156 C152 1.258 1_545 S
O156 Zn157 2.035 . S
Zn157 O156 2.035 . S
Zn157 O158 2.028 . S
Zn157 O160 2.028 . S
Zn157 O163 2.035 . S
O158 Zn157 2.028 . S
O158 C164 1.247 . S
O159 Zn155 2.035 . S
O159 C164 1.258 . S
O160 C153 1.247 . S
O160 Zn157 2.028 . S
O161 C153 1.258 . S
O161 Zn155 2.035 . S
O162 Zn155 2.028 1_565 S
O162 C165 1.247 . S
O163 Zn157 2.035 . S
O163 C165 1.258 1_545 S
C164 O158 1.247 . S
C164 O159 1.258 . S
C165 O162 1.247 . S
C165 O163 1.258 1_565 S
C166 O168 1.247 . S
C166 O170 1.258 . S
C167 O174 1.247 . S
C167 O175 1.258 . S
O168 C166 1.247 . S
O168 Zn169 2.028 . S
Zn169 O168 2.028 . S
Zn169 O173 2.035 . S
Zn169 O175 2.035 . S
Zn169 O176 2.028 . S
O170 C166 1.258 . S
O170 Zn171 2.035 . S
Zn171 O170 2.035 . S
Zn171 O172 2.028 . S
Zn171 O174 2.028 . S
Zn171 O177 2.035 . S
O172 Zn171 2.028 . S
O172 C178 1.247 . S
O173 Zn169 2.035 . S
O173 C178 1.258 . S
O174 C167 1.247 . S
O174 Zn171 2.028 . S
O175 C167 1.258 . S
O175 Zn169 2.035 . S
O176 Zn169 2.028 . S
O176 C179 1.247 . S
O177 Zn171 2.035 . S
O177 C179 1.258 . S
C178 O172 1.247 . S
C178 O173 1.258 . S
C179 O176 1.247 . S
C179 O177 1.258 . S
H180 C192 0.930 . S
H181 C194 0.930 . S
H182 C195 0.930 . S
H183 C199 0.959 . S
H184 C199 0.959 . S
H185 C199 0.961 . S
H186 C200 0.960 . S
H187 C200 0.961 . S
H188 C200 0.959 . S
H189 C203 0.929 . S
H190 C204 0.931 . S
H191 C206 0.930 . S
C192 H180 0.930 . S
C192 C193 1.399 . S
C192 C197 1.399 . S
C193 C192 1.399 . S
C193 C194 1.376 . S
C194 H181 0.930 . S
C194 C193 1.376 . S
C194 C195 1.388 . S
C195 H182 0.930 . S
C195 C194 1.388 . S
C195 C196 1.390 . S
C196 C195 1.390 . S
C196 C197 1.394 . S
C196 C202 1.465 . S
C197 C192 1.399 . S
C197 C196 1.394 . S
C197 C198 1.516 . S
C198 C197 1.516 . S
C198 C199 1.502 . S
C198 C200 1.561 . S
C198 C201 1.526 . S
C199 H183 0.959 . S
C199 H184 0.959 . S
C199 H185 0.961 . S
C199 C198 1.502 . S
C200 H186 0.960 . S
C200 H187 0.961 . S
C200 H188 0.959 . S
C200 C198 1.561 . S
C201 C198 1.526 . S
C201 C202 1.396 . S
C201 C206 1.390 . S
C202 C196 1.465 . S
C202 C201 1.396 . S
C202 C203 1.399 . S
C203 H189 0.929 . S
C203 C202 1.399 . S
C203 C204 1.385 . S
C204 H190 0.931 . S
C204 C203 1.385 . S
C204 C205 1.389 . S
C205 C204 1.389 . S
C205 C206 1.387 . S
C206 H191 0.930 . S
C206 C201 1.390 . S
C206 C205 1.387 . S
H207 C219 0.930 . S
H208 C221 0.930 . S
H209 C222 0.930 . S
H210 C226 0.959 . S
H211 C226 0.959 . S
H212 C226 0.961 . S
H213 C227 0.960 . S
H214 C227 0.961 . S
H215 C227 0.959 . S
H216 C230 0.929 . S
H217 C231 0.931 . S
H218 C233 0.930 . S
C219 H207 0.930 . S
C219 C220 1.399 . S
C219 C224 1.399 . S
C220 C219 1.399 . S
C220 C221 1.376 . S
C221 H208 0.930 . S
C221 C220 1.376 . S
C221 C222 1.388 . S
C222 H209 0.930 . S
C222 C221 1.388 . S
C222 C223 1.390 . S
C223 C222 1.390 . S
C223 C224 1.394 . S
C223 C229 1.465 . S
C224 C219 1.399 . S
C224 C223 1.394 . S
C224 C225 1.516 . S
C225 C224 1.516 . S
C225 C226 1.502 . S
C225 C227 1.561 . S
C225 C228 1.526 . S
C226 H210 0.959 . S
C226 H211 0.959 . S
C226 H212 0.961 . S
C226 C225 1.502 . S
C227 H213 0.960 . S
C227 H214 0.961 . S
C227 H215 0.959 . S
C227 C225 1.561 . S
C228 C225 1.526 . S
C228 C229 1.396 . S
C228 C233 1.390 . S
C229 C223 1.465 . S
C229 C228 1.396 . S
C229 C230 1.399 . S
C230 H216 0.929 . S
C230 C229 1.399 . S
C230 C231 1.385 . S
C231 H217 0.931 . S
C231 C230 1.385 . S
C231 C232 1.389 . S
C232 C231 1.389 . S
C232 C233 1.387 . S
C233 H218 0.930 . S
C233 C228 1.390 . S
C233 C232 1.387 . S
H234 C246 0.930 . S
H235 C248 0.930 . S
H236 C249 0.930 . S
H237 C253 0.959 . S
H238 C253 0.959 . S
H239 C253 0.961 . S
H240 C254 0.960 . S
H241 C254 0.961 . S
H242 C254 0.959 . S
H243 C257 0.929 . S
H244 C258 0.931 . S
H245 C260 0.930 . S
C246 H234 0.930 . S
C246 C247 1.399 . S
C246 C251 1.399 . S
C247 C246 1.399 . S
C247 C248 1.376 . S
C248 H235 0.930 . S
C248 C247 1.376 . S
C248 C249 1.388 . S
C249 H236 0.930 . S
C249 C248 1.388 . S
C249 C250 1.390 . S
C250 C249 1.390 . S
C250 C251 1.394 . S
C250 C256 1.465 . S
C251 C246 1.399 . S
C251 C250 1.394 . S
C251 C252 1.516 . S
C252 C251 1.516 . S
C252 C253 1.502 . S
C252 C254 1.561 . S
C252 C255 1.526 . S
C253 H237 0.959 . S
C253 H238 0.959 . S
C253 H239 0.961 . S
C253 C252 1.502 . S
C254 H240 0.960 . S
C254 H241 0.961 . S
C254 H242 0.959 . S
C254 C252 1.561 . S
C255 C252 1.526 . S
C255 C256 1.396 . S
C255 C260 1.390 . S
C256 C250 1.465 . S
C256 C255 1.396 . S
C256 C257 1.399 . S
C257 H243 0.929 . S
C257 C256 1.399 . S
C257 C258 1.385 . S
C258 H244 0.931 . S
C258 C257 1.385 . S
C258 C259 1.389 . S
C259 C258 1.389 . S
C259 C260 1.387 . S
C260 H245 0.930 . S
C260 C255 1.390 . S
C260 C259 1.387 . S
H261 C273 0.930 . S
H262 C275 0.930 . S
H263 C276 0.930 . S
H264 C280 0.959 . S
H265 C280 0.959 . S
H266 C280 0.961 . S
H267 C281 0.960 . S
H268 C281 0.961 . S
H269 C281 0.959 . S
H270 C284 0.929 . S
H271 C285 0.931 . S
H272 C287 0.930 . S
C273 H261 0.930 . S
C273 C274 1.399 . S
C273 C278 1.399 . S
C274 C273 1.399 . S
C274 C275 1.376 . S
C275 H262 0.930 . S
C275 C274 1.376 . S
C275 C276 1.388 . S
C276 H263 0.930 . S
C276 C275 1.388 . S
C276 C277 1.390 . S
C277 C276 1.390 . S
C277 C278 1.394 . S
C277 C283 1.465 . S
C278 C273 1.399 . S
C278 C277 1.394 . S
C278 C279 1.516 . S
C279 C278 1.516 . S
C279 C280 1.502 . S
C279 C281 1.561 . S
C279 C282 1.526 . S
C280 H264 0.959 . S
C280 H265 0.959 . S
C280 H266 0.961 . S
C280 C279 1.502 . S
C281 H267 0.960 . S
C281 H268 0.961 . S
C281 H269 0.959 . S
C281 C279 1.561 . S
C282 C279 1.526 . S
C282 C283 1.396 . S
C282 C287 1.390 . S
C283 C277 1.465 . S
C283 C282 1.396 . S
C283 C284 1.399 . S
C284 H270 0.929 . S
C284 C283 1.399 . S
C284 C285 1.385 . S
C285 H271 0.931 . S
C285 C284 1.385 . S
C285 C286 1.389 . S
C286 C285 1.389 . S
C286 C287 1.387 . S
C287 H272 0.930 . S
C287 C282 1.390 . S
C287 C286 1.387 . S
H288 C300 0.930 . S
H289 C302 0.930 . S
H290 C303 0.930 . S
H291 C307 0.959 . S
H292 C307 0.959 . S
H293 C307 0.961 . S
H294 C308 0.960 . S
H295 C308 0.961 . S
H296 C308 0.959 . S
H297 C311 0.929 . S
H298 C312 0.931 . S
H299 C314 0.930 . S
C300 H288 0.930 . S
C300 C301 1.399 . S
C300 C305 1.399 . S
C301 C300 1.399 . S
C301 C302 1.376 . S
C302 H289 0.930 . S
C302 C301 1.376 . S
C302 C303 1.388 . S
C303 H290 0.930 . S
C303 C302 1.388 . S
C303 C304 1.390 . S
C304 C303 1.390 . S
C304 C305 1.394 . S
C304 C310 1.465 . S
C305 C300 1.399 . S
C305 C304 1.394 . S
C305 C306 1.516 . S
C306 C305 1.516 . S
C306 C307 1.502 . S
C306 C308 1.561 . S
C306 C309 1.526 . S
C307 H291 0.959 . S
C307 H292 0.959 . S
C307 H293 0.961 . S
C307 C306 1.502 . S
C308 H294 0.960 . S
C308 H295 0.961 . S
C308 H296 0.959 . S
C308 C306 1.561 . S
C309 C306 1.526 . S
C309 C310 1.396 . S
C309 C314 1.390 . S
C310 C304 1.465 . S
C310 C309 1.396 . S
C310 C311 1.399 . S
C311 H297 0.929 . S
C311 C310 1.399 . S
C311 C312 1.385 . S
C312 H298 0.931 . S
C312 C311 1.385 . S
C312 C313 1.389 . S
C313 C312 1.389 . S
C313 C314 1.387 . S
C314 H299 0.930 . S
C314 C309 1.390 . S
C314 C313 1.387 . S
H315 C327 0.930 . S
H316 C329 0.930 . S
H317 C330 0.930 . S
H318 C334 0.959 . S
H319 C334 0.959 . S
H320 C334 0.961 . S
H321 C335 0.960 . S
H322 C335 0.961 . S
H323 C335 0.959 . S
H324 C338 0.929 . S
H325 C339 0.931 . S
H326 C341 0.930 . S
C327 H315 0.930 . S
C327 C328 1.399 . S
C327 C332 1.399 . S
C328 C327 1.399 . S
C328 C329 1.376 . S
C329 H316 0.930 . S
C329 C328 1.376 . S
C329 C330 1.388 . S
C330 H317 0.930 . S
C330 C329 1.388 . S
C330 C331 1.390 . S
C331 C330 1.390 . S
C331 C332 1.394 . S
C331 C337 1.465 . S
C332 C327 1.399 . S
C332 C331 1.394 . S
C332 C333 1.516 . S
C333 C332 1.516 . S
C333 C334 1.502 . S
C333 C335 1.561 . S
C333 C336 1.526 . S
C334 H318 0.959 . S
C334 H319 0.959 . S
C334 H320 0.961 . S
C334 C333 1.502 . S
C335 H321 0.960 . S
C335 H322 0.961 . S
C335 H323 0.959 . S
C335 C333 1.561 . S
C336 C333 1.526 . S
C336 C337 1.396 . S
C336 C341 1.390 . S
C337 C331 1.465 . S
C337 C336 1.396 . S
C337 C338 1.399 . S
C338 H324 0.929 . S
C338 C337 1.399 . S
C338 C339 1.385 . S
C339 H325 0.931 . S
C339 C338 1.385 . S
C339 C340 1.389 . S
C340 C339 1.389 . S
C340 C341 1.387 . S
C341 H326 0.930 . S
C341 C336 1.390 . S
C341 C340 1.387 . S
H342 C354 0.930 . S
H343 C356 0.930 . S
H344 C357 0.930 . S
H345 C361 0.959 . S
H346 C361 0.959 . S
H347 C361 0.961 . S
H348 C362 0.960 . S
H349 C362 0.961 . S
H350 C362 0.959 . S
H351 C365 0.929 . S
H352 C366 0.931 1_545 S
H353 C368 0.930 . S
C354 H342 0.930 . S
C354 C355 1.399 . S
C354 C359 1.399 . S
C355 C354 1.399 . S
C355 C356 1.376 . S
C356 H343 0.930 . S
C356 C355 1.376 . S
C356 C357 1.388 . S
C357 H344 0.930 . S
C357 C356 1.388 . S
C357 C358 1.390 . S
C358 C357 1.390 . S
C358 C359 1.394 . S
C358 C364 1.465 . S
C359 C354 1.399 . S
C359 C358 1.394 . S
C359 C360 1.516 . S
C360 C359 1.516 . S
C360 C361 1.502 . S
C360 C362 1.561 . S
C360 C363 1.526 . S
C361 H345 0.959 . S
C361 H346 0.959 . S
C361 H347 0.961 . S
C361 C360 1.502 . S
C362 H348 0.960 . S
C362 H349 0.961 . S
C362 H350 0.959 . S
C362 C360 1.561 . S
C363 C360 1.526 . S
C363 C364 1.396 . S
C363 C368 1.390 . S
C364 C358 1.465 . S
C364 C363 1.396 . S
C364 C365 1.399 . S
C365 H351 0.929 . S
C365 C364 1.399 . S
C365 C366 1.385 . S
C366 H352 0.931 1_565 S
C366 C365 1.385 . S
C366 C367 1.389 . S
C367 C366 1.389 . S
C367 C368 1.387 . S
C368 H353 0.930 . S
C368 C363 1.390 . S
C368 C367 1.387 . S
H369 C381 0.930 . S
H370 C383 0.930 . S
H371 C384 0.930 . S
H372 C388 0.959 . S
H373 C388 0.959 . S
H374 C388 0.961 . S
H375 C389 0.960 . S
H376 C389 0.961 . S
H377 C389 0.959 . S
H378 C392 0.929 . S
H379 C393 0.931 . S
H380 C395 0.930 . S
C381 H369 0.930 . S
C381 C382 1.399 . S
C381 C386 1.399 . S
C382 C381 1.399 . S
C382 C383 1.376 . S
C383 H370 0.930 . S
C383 C382 1.376 . S
C383 C384 1.388 . S
C384 H371 0.930 . S
C384 C383 1.388 . S
C384 C385 1.390 . S
C385 C384 1.390 . S
C385 C386 1.394 . S
C385 C391 1.465 1_556 S
C386 C381 1.399 . S
C386 C385 1.394 . S
C386 C387 1.516 1_556 S
C387 C386 1.516 1_554 S
C387 C388 1.502 1_554 S
C387 C389 1.561 . S
C387 C390 1.526 . S
C388 H372 0.959 . S
C388 H373 0.959 . S
C388 H374 0.961 . S
C388 C387 1.502 1_556 S
C389 H375 0.960 . S
C389 H376 0.961 . S
C389 H377 0.959 . S
C389 C387 1.561 . S
C390 C387 1.526 . S
C390 C391 1.396 . S
C390 C395 1.390 . S
C391 C385 1.465 1_554 S
C391 C390 1.396 . S
C391 C392 1.399 . S
C392 H378 0.929 . S
C392 C391 1.399 . S
C392 C393 1.385 . S
C393 H379 0.931 . S
C393 C392 1.385 . S
C393 C394 1.389 . S
C394 C393 1.389 . S
C394 C395 1.387 . S
C395 H380 0.930 . S
C395 C390 1.390 . S
C395 C394 1.387 . S
H396 C408 0.930 . S
H397 C410 0.930 . S
H398 C411 0.930 . S
H399 C415 0.959 . S
H400 C415 0.959 . S
H401 C415 0.961 . S
H402 C416 0.960 . S
H403 C416 0.961 . S
H404 C416 0.959 . S
H405 C419 0.929 . S
H406 C420 0.931 . S
H407 C422 0.930 . S
C408 H396 0.930 . S
C408 C409 1.399 . S
C408 C413 1.399 . S
C409 C408 1.399 . S
C409 C410 1.376 . S
C410 H397 0.930 . S
C410 C409 1.376 . S
C410 C411 1.388 . S
C411 H398 0.930 . S
C411 C410 1.388 . S
C411 C412 1.390 . S
C412 C411 1.390 . S
C412 C413 1.394 . S
C412 C418 1.465 . S
C413 C408 1.399 . S
C413 C412 1.394 . S
C413 C414 1.516 . S
C414 C413 1.516 . S
C414 C415 1.502 . S
C414 C416 1.561 . S
C414 C417 1.526 . S
C415 H399 0.959 . S
C415 H400 0.959 . S
C415 H401 0.961 . S
C415 C414 1.502 . S
C416 H402 0.960 . S
C416 H403 0.961 . S
C416 H404 0.959 . S
C416 C414 1.561 . S
C417 C414 1.526 . S
C417 C418 1.396 . S
C417 C422 1.390 . S
C418 C412 1.465 . S
C418 C417 1.396 . S
C418 C419 1.399 . S
C419 H405 0.929 . S
C419 C418 1.399 . S
C419 C420 1.385 . S
C420 H406 0.931 . S
C420 C419 1.385 . S
C420 C421 1.389 . S
C421 C420 1.389 . S
C421 C422 1.387 . S
C422 H407 0.930 . S
C422 C417 1.390 . S
C422 C421 1.387 . S
H423 C435 0.930 . S
H424 C437 0.930 . S
H425 C438 0.930 . S
H426 C442 0.959 . S
H427 C442 0.959 . S
H428 C442 0.961 . S
H429 C443 0.960 . S
H430 C443 0.961 . S
H431 C443 0.959 . S
H432 C446 0.929 . S
H433 C447 0.931 . S
H434 C449 0.930 . S
C435 H423 0.930 . S
C435 C436 1.399 . S
C435 C440 1.399 . S
C436 C435 1.399 . S
C436 C437 1.376 . S
C437 H424 0.930 . S
C437 C436 1.376 . S
C437 C438 1.388 . S
C438 H425 0.930 . S
C438 C437 1.388 . S
C438 C439 1.390 . S
C439 C438 1.390 . S
C439 C440 1.394 . S
C439 C445 1.465 . S
C440 C435 1.399 . S
C440 C439 1.394 . S
C440 C441 1.516 . S
C441 C440 1.516 . S
C441 C442 1.502 . S
C441 C443 1.561 . S
C441 C444 1.526 . S
C442 H426 0.959 . S
C442 H427 0.959 . S
C442 H428 0.961 . S
C442 C441 1.502 . S
C443 H429 0.960 . S
C443 H430 0.961 . S
C443 H431 0.959 . S
C443 C441 1.561 . S
C444 C441 1.526 . S
C444 C445 1.396 . S
C444 C449 1.390 . S
C445 C439 1.465 . S
C445 C444 1.396 . S
C445 C446 1.399 . S
C446 H432 0.929 . S
C446 C445 1.399 . S
C446 C447 1.385 . S
C447 H433 0.931 . S
C447 C446 1.385 . S
C447 C448 1.389 . S
C448 C447 1.389 . S
C448 C449 1.387 . S
C449 H434 0.930 . S
C449 C444 1.390 . S
C449 C448 1.387 . S
H450 C462 0.930 . S
H451 C464 0.930 . S
H452 C465 0.930 . S
H453 C469 0.959 . S
H454 C469 0.959 . S
H455 C469 0.961 . S
H456 C470 0.960 . S
H457 C470 0.961 . S
H458 C470 0.959 . S
H459 C473 0.929 . S
H460 C474 0.931 . S
H461 C476 0.930 . S
C462 H450 0.930 . S
C462 C463 1.399 . S
C462 C467 1.399 . S
C463 C462 1.399 . S
C463 C464 1.376 . S
C464 H451 0.930 . S
C464 C463 1.376 . S
C464 C465 1.388 . S
C465 H452 0.930 . S
C465 C464 1.388 . S
C465 C466 1.390 . S
C466 C465 1.390 . S
C466 C467 1.394 . S
C466 C472 1.465 . S
C467 C462 1.399 . S
C467 C466 1.394 . S
C467 C468 1.516 . S
C468 C467 1.516 . S
C468 C469 1.502 . S
C468 C470 1.561 . S
C468 C471 1.526 . S
C469 H453 0.959 . S
C469 H454 0.959 . S
C469 H455 0.961 . S
C469 C468 1.502 . S
C470 H456 0.960 . S
C470 H457 0.961 . S
C470 H458 0.959 . S
C470 C468 1.561 . S
C471 C468 1.526 . S
C471 C472 1.396 . S
C471 C476 1.390 . S
C472 C466 1.465 . S
C472 C471 1.396 . S
C472 C473 1.399 . S
C473 H459 0.929 . S
C473 C472 1.399 . S
C473 C474 1.385 . S
C474 H460 0.931 . S
C474 C473 1.385 . S
C474 C475 1.389 . S
C475 C474 1.389 . S
C475 C476 1.387 . S
C476 H461 0.930 . S
C476 C471 1.390 . S
C476 C475 1.387 . S
H477 C489 0.930 . S
H478 C491 0.930 . S
H479 C492 0.930 . S
H480 C496 0.959 . S
H481 C496 0.959 . S
H482 C496 0.961 . S
H483 C497 0.960 . S
H484 C497 0.961 . S
H485 C497 0.959 . S
H486 C500 0.929 . S
H487 C501 0.931 . S
H488 C503 0.930 . S
C489 H477 0.930 . S
C489 C490 1.399 . S
C489 C494 1.399 . S
C490 C489 1.399 . S
C490 C491 1.376 . S
C491 H478 0.930 . S
C491 C490 1.376 . S
C491 C492 1.388 . S
C492 H479 0.930 . S
C492 C491 1.388 . S
C492 C493 1.390 . S
C493 C492 1.390 . S
C493 C494 1.394 . S
C493 C499 1.465 . S
C494 C489 1.399 . S
C494 C493 1.394 . S
C494 C495 1.516 . S
C495 C494 1.516 . S
C495 C496 1.502 . S
C495 C497 1.561 . S
C495 C498 1.526 . S
C496 H480 0.959 . S
C496 H481 0.959 . S
C496 H482 0.961 . S
C496 C495 1.502 . S
C497 H483 0.960 . S
C497 H484 0.961 . S
C497 H485 0.959 . S
C497 C495 1.561 . S
C498 C495 1.526 . S
C498 C499 1.396 . S
C498 C503 1.390 . S
C499 C493 1.465 . S
C499 C498 1.396 . S
C499 C500 1.399 . S
C500 H486 0.929 . S
C500 C499 1.399 . S
C500 C501 1.385 . S
C501 H487 0.931 . S
C501 C500 1.385 . S
C501 C502 1.389 . S
C502 C501 1.389 . S
C502 C503 1.387 . S
C503 H488 0.930 . S
C503 C498 1.390 . S
C503 C502 1.387 . S
H504 C516 0.930 . S
H505 C518 0.930 . S
H506 C519 0.930 . S
H507 C523 0.959 . S
H508 C523 0.959 . S
H509 C523 0.961 . S
H510 C524 0.960 . S
H511 C524 0.961 . S
H512 C524 0.959 . S
H513 C527 0.926 1_455 S
H514 C528 0.931 . S
H515 C530 0.930 . S
C516 H504 0.930 . S
C516 C517 1.399 . S
C516 C521 1.399 . S
C517 C516 1.399 . S
C517 C518 1.376 . S
C518 H505 0.930 . S
C518 C517 1.376 . S
C518 C519 1.388 . S
C519 H506 0.930 . S
C519 C518 1.388 . S
C519 C520 1.390 . S
C520 C519 1.390 . S
C520 C521 1.394 . S
C520 C526 1.465 . S
C521 C516 1.399 . S
C521 C520 1.394 . S
C521 C522 1.516 . S
C522 C521 1.516 . S
C522 C523 1.502 . S
C522 C524 1.561 . S
C522 C525 1.526 . S
C523 H507 0.959 . S
C523 H508 0.959 . S
C523 H509 0.961 . S
C523 C522 1.502 . S
C524 H510 0.960 . S
C524 H511 0.961 . S
C524 H512 0.959 . S
C524 C522 1.561 . S
C525 C522 1.526 . S
C525 C526 1.396 . S
C525 C530 1.390 . S
C526 C520 1.465 . S
C526 C525 1.396 . S
C526 C527 1.399 . S
C527 H513 0.926 1_655 S
C527 C526 1.399 . S
C527 C528 1.385 1_655 S
C528 H514 0.931 . S
C528 C527 1.385 1_455 S
C528 C529 1.389 1_455 S
C529 C528 1.389 1_655 S
C529 C530 1.387 . S
C530 H515 0.930 . S
C530 C525 1.390 . S
C530 C529 1.387 . S
H531 C543 0.930 . S
H532 C545 0.930 . S
H533 C546 0.930 . S
H534 C550 0.959 . S
H535 C550 0.959 . S
H536 C550 0.961 . S
H537 C551 0.960 . S
H538 C551 0.961 . S
H539 C551 0.959 . S
H540 C554 0.929 . S
H541 C555 0.931 . S
H542 C557 0.930 . S
C543 H531 0.930 . S
C543 C544 1.399 . S
C543 C548 1.399 . S
C544 C543 1.399 . S
C544 C545 1.376 . S
C545 H532 0.930 . S
C545 C544 1.376 . S
C545 C546 1.388 . S
C546 H533 0.930 . S
C546 C545 1.388 . S
C546 C547 1.390 . S
C547 C546 1.390 . S
C547 C548 1.394 . S
C547 C553 1.465 . S
C548 C543 1.399 . S
C548 C547 1.394 . S
C548 C549 1.516 . S
C549 C548 1.516 . S
C549 C550 1.502 . S
C549 C551 1.561 . S
C549 C552 1.526 . S
C550 H534 0.959 . S
C550 H535 0.959 . S
C550 H536 0.961 . S
C550 C549 1.502 . S
C551 H537 0.960 . S
C551 H538 0.961 . S
C551 H539 0.959 . S
C551 C549 1.561 . S
C552 C549 1.526 . S
C552 C553 1.396 . S
C552 C557 1.390 . S
C553 C547 1.465 . S
C553 C552 1.396 . S
C553 C554 1.399 . S
C554 H540 0.929 . S
C554 C553 1.399 . S
C554 C555 1.385 . S
C555 H541 0.931 . S
C555 C554 1.385 . S
C555 C556 1.389 . S
C556 C555 1.389 . S
C556 C557 1.387 . S
C557 H542 0.930 . S
C557 C552 1.390 . S
C557 C556 1.387 . S
H558 C570 0.930 . S
H559 C572 0.930 . S
H560 C573 0.930 . S
H561 C577 0.959 . S
H562 C577 0.959 . S
H563 C577 0.961 . S
H564 C578 0.960 . S
H565 C578 0.961 . S
H566 C578 0.959 . S
H567 C581 0.929 . S
H568 C582 0.931 . S
H569 C584 0.930 . S
C570 H558 0.930 . S
C570 C571 1.399 . S
C570 C575 1.399 . S
C571 C570 1.399 . S
C571 C572 1.376 . S
C572 H559 0.930 . S
C572 C571 1.376 . S
C572 C573 1.388 . S
C573 H560 0.930 . S
C573 C572 1.388 . S
C573 C574 1.390 . S
C574 C573 1.390 . S
C574 C575 1.394 . S
C574 C580 1.465 . S
C575 C570 1.399 . S
C575 C574 1.394 . S
C575 C576 1.516 . S
C576 C575 1.516 . S
C576 C577 1.502 . S
C576 C578 1.561 . S
C576 C579 1.526 . S
C577 H561 0.959 . S
C577 H562 0.959 . S
C577 H563 0.961 . S
C577 C576 1.502 . S
C578 H564 0.960 . S
C578 H565 0.961 . S
C578 H566 0.959 . S
C578 C576 1.561 . S
C579 C576 1.526 . S
C579 C580 1.396 . S
C579 C584 1.390 . S
C580 C574 1.465 . S
C580 C579 1.396 . S
C580 C581 1.399 . S
C581 H567 0.929 . S
C581 C580 1.399 . S
C581 C582 1.385 . S
C582 H568 0.931 . S
C582 C581 1.385 . S
C582 C583 1.389 . S
C583 C582 1.389 . S
C583 C584 1.387 . S
C584 H569 0.930 . S
C584 C579 1.390 . S
C584 C583 1.387 . S
H585 C597 0.930 . S
H586 C599 0.930 . S
H587 C600 0.930 . S
H588 C604 0.959 . S
H589 C604 0.959 . S
H590 C604 0.961 . S
H591 C605 0.960 . S
H592 C605 0.961 . S
H593 C605 0.959 . S
H594 C608 0.929 . S
H595 C609 0.931 . S
H596 C611 0.930 . S
C597 H585 0.930 . S
C597 C598 1.399 . S
C597 C602 1.399 . S
C598 C597 1.399 . S
C598 C599 1.376 . S
C599 H586 0.930 . S
C599 C598 1.376 . S
C599 C600 1.388 . S
C600 H587 0.930 . S
C600 C599 1.388 . S
C600 C601 1.390 . S
C601 C600 1.390 . S
C601 C602 1.394 . S
C601 C607 1.465 . S
C602 C597 1.399 . S
C602 C601 1.394 . S
C602 C603 1.516 . S
C603 C602 1.516 . S
C603 C604 1.502 . S
C603 C605 1.561 . S
C603 C606 1.526 . S
C604 H588 0.959 . S
C604 H589 0.959 . S
C604 H590 0.961 . S
C604 C603 1.502 . S
C605 H591 0.960 . S
C605 H592 0.961 . S
C605 H593 0.959 . S
C605 C603 1.561 . S
C606 C603 1.526 . S
C606 C607 1.396 . S
C606 C611 1.390 . S
C607 C601 1.465 . S
C607 C606 1.396 . S
C607 C608 1.399 . S
C608 H594 0.929 . S
C608 C607 1.399 . S
C608 C609 1.385 . S
C609 H595 0.931 . S
C609 C608 1.385 . S
C609 C610 1.389 . S
C610 C609 1.389 . S
C610 C611 1.387 . S
C611 H596 0.930 . S
C611 C606 1.390 . S
C611 C610 1.387 . S
H612 C624 0.930 . S
H613 C626 0.930 . S
H614 C627 0.930 . S
H615 C631 0.959 . S
H616 C631 0.959 . S
H617 C631 0.961 . S
H618 C632 0.960 . S
H619 C632 0.961 . S
H620 C632 0.959 . S
H621 C635 0.929 . S
H622 C636 0.931 . S
H623 C638 0.930 . S
C624 H612 0.930 . S
C624 C625 1.399 . S
C624 C629 1.399 . S
C625 C624 1.399 . S
C625 C626 1.376 . S
C626 H613 0.930 . S
C626 C625 1.376 . S
C626 C627 1.388 . S
C627 H614 0.930 . S
C627 C626 1.388 . S
C627 C628 1.390 . S
C628 C627 1.390 . S
C628 C629 1.394 . S
C628 C634 1.465 . S
C629 C624 1.399 . S
C629 C628 1.394 . S
C629 C630 1.516 . S
C630 C629 1.516 . S
C630 C631 1.502 . S
C630 C632 1.561 . S
C630 C633 1.526 . S
C631 H615 0.959 . S
C631 H616 0.959 . S
C631 H617 0.961 . S
C631 C630 1.502 . S
C632 H618 0.960 . S
C632 H619 0.961 . S
C632 H620 0.959 . S
C632 C630 1.561 . S
C633 C630 1.526 . S
C633 C634 1.396 . S
C633 C638 1.390 . S
C634 C628 1.465 . S
C634 C633 1.396 . S
C634 C635 1.399 . S
C635 H621 0.929 . S
C635 C634 1.399 . S
C635 C636 1.385 . S
C636 H622 0.931 . S
C636 C635 1.385 . S
C636 C637 1.389 . S
C637 C636 1.389 . S
C637 C638 1.387 . S
C638 H623 0.930 . S
C638 C633 1.390 . S
C638 C637 1.387 . S
H639 C651 0.930 . S
H640 C653 0.930 . S
H641 C654 0.930 . S
H642 C658 0.959 . S
H643 C658 0.959 . S
H644 C658 0.961 . S
H645 C659 0.960 . S
H646 C659 0.961 . S
H647 C659 0.959 . S
H648 C662 0.929 . S
H649 C663 0.931 . S
H650 C665 0.930 . S
C651 H639 0.930 . S
C651 C652 1.399 . S
C651 C656 1.399 . S
C652 C651 1.399 . S
C652 C653 1.376 . S
C653 H640 0.930 . S
C653 C652 1.376 . S
C653 C654 1.388 . S
C654 H641 0.930 . S
C654 C653 1.388 . S
C654 C655 1.390 . S
C655 C654 1.390 . S
C655 C656 1.394 . S
C655 C661 1.465 . S
C656 C651 1.399 . S
C656 C655 1.394 . S
C656 C657 1.516 . S
C657 C656 1.516 . S
C657 C658 1.502 . S
C657 C659 1.561 . S
C657 C660 1.526 . S
C658 H642 0.959 . S
C658 H643 0.959 . S
C658 H644 0.961 . S
C658 C657 1.502 . S
C659 H645 0.960 . S
C659 H646 0.961 . S
C659 H647 0.959 . S
C659 C657 1.561 . S
C660 C657 1.526 . S
C660 C661 1.396 . S
C660 C665 1.390 . S
C661 C655 1.465 . S
C661 C660 1.396 . S
C661 C662 1.399 . S
C662 H648 0.929 . S
C662 C661 1.399 . S
C662 C663 1.385 . S
C663 H649 0.931 . S
C663 C662 1.385 . S
C663 C664 1.389 . S
C664 C663 1.389 . S
C664 C665 1.387 . S
C665 H650 0.930 . S
C665 C660 1.390 . S
C665 C664 1.387 . S
H666 C678 0.930 . S
H667 C680 0.930 . S
H668 C681 0.930 . S
H669 C685 0.959 . S
H670 C685 0.959 . S
H671 C685 0.961 . S
H672 C686 0.960 . S
H673 C686 0.961 . S
H674 C686 0.959 . S
H675 C689 0.929 . S
H676 C690 0.931 . S
H677 C692 0.930 . S
C678 H666 0.930 . S
C678 C679 1.399 . S
C678 C683 1.399 . S
C679 C678 1.399 . S
C679 C680 1.376 . S
C680 H667 0.930 . S
C680 C679 1.376 . S
C680 C681 1.388 . S
C681 H668 0.930 . S
C681 C680 1.388 . S
C681 C682 1.390 . S
C682 C681 1.390 . S
C682 C683 1.394 . S
C682 C688 1.465 . S
C683 C678 1.399 . S
C683 C682 1.394 . S
C683 C684 1.516 . S
C684 C683 1.516 . S
C684 C685 1.502 . S
C684 C686 1.561 . S
C684 C687 1.526 . S
C685 H669 0.959 . S
C685 H670 0.959 . S
C685 H671 0.961 . S
C685 C684 1.502 . S
C686 H672 0.960 . S
C686 H673 0.961 . S
C686 H674 0.959 . S
C686 C684 1.561 . S
C687 C684 1.526 . S
C687 C688 1.396 . S
C687 C692 1.390 . S
C688 C682 1.465 . S
C688 C687 1.396 . S
C688 C689 1.399 . S
C689 H675 0.929 . S
C689 C688 1.399 . S
C689 C690 1.385 . S
C690 H676 0.931 . S
C690 C689 1.385 . S
C690 C691 1.389 . S
C691 C690 1.389 . S
C691 C692 1.387 . S
C692 H677 0.930 . S
C692 C687 1.390 . S
C692 C691 1.387 . S
H693 C705 0.930 . S
H694 C707 0.930 . S
H695 C708 0.930 . S
H696 C712 0.959 . S
H697 C712 0.959 . S
H698 C712 0.961 . S
H699 C713 0.960 . S
H700 C713 0.961 . S
H701 C713 0.959 . S
H702 C716 0.929 . S
H703 C717 0.931 . S
H704 C719 0.930 . S
C705 H693 0.930 . S
C705 C706 1.399 . S
C705 C710 1.399 . S
C706 C705 1.399 . S
C706 C707 1.376 . S
C707 H694 0.930 . S
C707 C706 1.376 . S
C707 C708 1.388 . S
C708 H695 0.930 . S
C708 C707 1.388 . S
C708 C709 1.390 . S
C709 C708 1.390 . S
C709 C710 1.394 . S
C709 C715 1.465 . S
C710 C705 1.399 . S
C710 C709 1.394 . S
C710 C711 1.516 . S
C711 C710 1.516 . S
C711 C712 1.502 . S
C711 C713 1.561 . S
C711 C714 1.526 . S
C712 H696 0.959 . S
C712 H697 0.959 . S
C712 H698 0.961 . S
C712 C711 1.502 . S
C713 H699 0.960 . S
C713 H700 0.961 . S
C713 H701 0.959 . S
C713 C711 1.561 . S
C714 C711 1.526 . S
C714 C715 1.396 . S
C714 C719 1.390 . S
C715 C709 1.465 . S
C715 C714 1.396 . S
C715 C716 1.399 . S
C716 H702 0.929 . S
C716 C715 1.399 . S
C716 C717 1.385 . S
C717 H703 0.931 . S
C717 C716 1.385 . S
C717 C718 1.389 . S
C718 C717 1.389 . S
C718 C719 1.387 . S
C719 H704 0.930 . S
C719 C714 1.390 . S
C719 C718 1.387 . S
H720 C732 0.930 . S
H721 C734 0.930 . S
H722 C735 0.930 . S
H723 C739 0.959 . S
H724 C739 0.959 . S
H725 C739 0.961 . S
H726 C740 0.960 . S
H727 C740 0.961 . S
H728 C740 0.959 . S
H729 C743 0.929 . S
H730 C744 0.931 . S
H731 C746 0.930 . S
C732 H720 0.930 . S
C732 C733 1.399 . S
C732 C737 1.399 . S
C733 C732 1.399 . S
C733 C734 1.376 . S
C734 H721 0.930 . S
C734 C733 1.376 . S
C734 C735 1.388 . S
C735 H722 0.930 . S
C735 C734 1.388 . S
C735 C736 1.390 . S
C736 C735 1.390 . S
C736 C737 1.394 . S
C736 C742 1.465 . S
C737 C732 1.399 . S
C737 C736 1.394 . S
C737 C738 1.516 . S
C738 C737 1.516 . S
C738 C739 1.502 . S
C738 C740 1.561 . S
C738 C741 1.526 . S
C739 H723 0.959 . S
C739 H724 0.959 . S
C739 H725 0.961 . S
C739 C738 1.502 . S
C740 H726 0.960 . S
C740 H727 0.961 . S
C740 H728 0.959 . S
C740 C738 1.561 . S
C741 C738 1.526 . S
C741 C742 1.396 . S
C741 C746 1.390 . S
C742 C736 1.465 . S
C742 C741 1.396 . S
C742 C743 1.399 . S
C743 H729 0.929 . S
C743 C742 1.399 . S
C743 C744 1.385 . S
C744 H730 0.931 . S
C744 C743 1.385 . S
C744 C745 1.389 . S
C745 C744 1.389 . S
C745 C746 1.387 . S
C746 H731 0.930 . S
C746 C741 1.390 . S
C746 C745 1.387 . S
H747 C759 0.930 . S
H748 C761 0.930 . S
H749 C762 0.930 . S
H750 C766 0.959 . S
H751 C766 0.959 1_554 S
H752 C766 0.961 . S
H753 C767 0.960 . S
H754 C767 0.961 1_554 S
H755 C767 0.959 . S
H756 C770 0.929 . S
H757 C771 0.931 . S
H758 C773 0.930 . S
C759 H747 0.930 . S
C759 C760 1.399 . S
C759 C764 1.399 . S
C760 C759 1.399 . S
C760 C761 1.376 . S
C761 H748 0.930 . S
C761 C760 1.376 . S
C761 C762 1.388 . S
C762 H749 0.930 . S
C762 C761 1.388 . S
C762 C763 1.390 . S
C763 C762 1.390 . S
C763 C764 1.394 . S
C763 C769 1.465 . S
C764 C759 1.399 . S
C764 C763 1.394 . S
C764 C765 1.516 . S
C765 C764 1.516 . S
C765 C766 1.502 . S
C765 C767 1.561 . S
C765 C768 1.526 . S
C766 H750 0.959 . S
C766 H751 0.959 1_556 S
C766 H752 0.961 . S
C766 C765 1.502 . S
C767 H753 0.960 . S
C767 H754 0.961 1_556 S
C767 H755 0.959 . S
C767 C765 1.561 . S
C768 C765 1.526 . S
C768 C769 1.396 . S
C768 C773 1.390 1_556 S
C769 C763 1.465 . S
C769 C768 1.396 . S
C769 C770 1.399 . S
C770 H756 0.929 . S
C770 C769 1.399 . S
C770 C771 1.385 . S
C771 H757 0.931 . S
C771 C770 1.385 . S
C771 C772 1.389 1_556 S
C772 C771 1.389 1_554 S
C772 C773 1.387 . S
C773 H758 0.930 . S
C773 C768 1.390 1_554 S
C773 C772 1.387 . S
H774 C786 0.930 . S
H775 C788 0.930 . S
H776 C789 0.930 . S
H777 C793 0.959 . S
H778 C793 0.959 . S
H779 C793 0.961 . S
H780 C794 0.960 . S
H781 C794 0.961 . S
H782 C794 0.959 . S
H783 C797 0.929 . S
H784 C798 0.931 . S
H785 C800 0.930 . S
C786 H774 0.930 . S
C786 C787 1.399 . S
C786 C791 1.399 . S
C787 C786 1.399 . S
C787 C788 1.376 . S
C788 H775 0.930 . S
C788 C787 1.376 . S
C788 C789 1.388 . S
C789 H776 0.930 . S
C789 C788 1.388 . S
C789 C790 1.390 . S
C790 C789 1.390 . S
C790 C791 1.394 . S
C790 C796 1.465 . S
C791 C786 1.399 . S
C791 C790 1.394 . S
C791 C792 1.516 . S
C792 C791 1.516 . S
C792 C793 1.502 . S
C792 C794 1.561 . S
C792 C795 1.526 . S
C793 H777 0.959 . S
C793 H778 0.959 . S
C793 H779 0.961 . S
C793 C792 1.502 . S
C794 H780 0.960 . S
C794 H781 0.961 . S
C794 H782 0.959 . S
C794 C792 1.561 . S
C795 C792 1.526 . S
C795 C796 1.396 . S
C795 C800 1.390 . S
C796 C790 1.465 . S
C796 C795 1.396 . S
C796 C797 1.399 . S
C797 H783 0.929 . S
C797 C796 1.399 . S
C797 C798 1.385 . S
C798 H784 0.931 . S
C798 C797 1.385 . S
C798 C799 1.389 . S
C799 C798 1.389 . S
C799 C800 1.387 . S
C800 H785 0.930 . S
C800 C795 1.390 . S
C800 C799 1.387 . S
H801 C813 0.930 . S
H802 C815 0.930 . S
H803 C816 0.930 . S
H804 C820 0.959 . S
H805 C820 0.959 . S
H806 C820 0.961 . S
H807 C821 0.960 . S
H808 C821 0.961 . S
H809 C821 0.959 . S
H810 C824 0.929 . S
H811 C825 0.931 . S
H812 C827 0.930 . S
C813 H801 0.930 . S
C813 C814 1.399 . S
C813 C818 1.399 . S
C814 C813 1.399 . S
C814 C815 1.376 . S
C815 H802 0.930 . S
C815 C814 1.376 . S
C815 C816 1.388 . S
C816 H803 0.930 . S
C816 C815 1.388 . S
C816 C817 1.390 . S
C817 C816 1.390 . S
C817 C818 1.394 . S
C817 C823 1.465 . S
C818 C813 1.399 . S
C818 C817 1.394 . S
C818 C819 1.516 . S
C819 C818 1.516 . S
C819 C820 1.502 . S
C819 C821 1.561 . S
C819 C822 1.526 . S
C820 H804 0.959 . S
C820 H805 0.959 . S
C820 H806 0.961 . S
C820 C819 1.502 . S
C821 H807 0.960 . S
C821 H808 0.961 . S
C821 H809 0.959 . S
C821 C819 1.561 . S
C822 C819 1.526 . S
C822 C823 1.396 . S
C822 C827 1.390 . S
C823 C817 1.465 . S
C823 C822 1.396 . S
C823 C824 1.399 . S
C824 H810 0.929 . S
C824 C823 1.399 . S
C824 C825 1.385 . S
C825 H811 0.931 . S
C825 C824 1.385 . S
C825 C826 1.389 . S
C826 C825 1.389 . S
C826 C827 1.387 . S
C827 H812 0.930 . S
C827 C822 1.390 . S
C827 C826 1.387 . S
C205 C108 1.567 . S
C193 C6 1.561 . S
C232 C111 1.569 . S
C220 C18 1.610 . S
C259 C109 1.540 . S
C247 C28 1.538 . S
C286 C110 1.623 1_655 S
C274 C45 1.636 . S
C313 C125 1.398 . S
C301 C4 1.419 . S
C340 C139 1.627 . S
C328 C21 1.612 . S
C355 C33 1.681 . S
C367 C165 1.678 . S
C394 C179 1.700 . S
C382 C40 1.661 . S
C421 C124 1.539 . S
C409 C16 1.495 . S
C436 C30 1.591 . S
C448 C138 1.575 . S
C475 C164 1.657 . S
C463 C42 1.638 . S
C502 C178 1.704 . S
C490 C9 1.679 . S
C517 C52 1.649 . S
C529 C123 1.644 1_655 S
C556 C96 1.697 . S
C544 C69 1.668 . S
C571 C78 1.547 . S
C583 C122 1.526 . S
C598 C93 1.311 . S
C610 C97 1.352 . S
C637 C152 1.736 . S
C625 C57 1.731 . S
C664 C166 1.736 . S
C652 C66 1.747 . S
C691 C136 1.412 . S
C679 C76 1.411 . S
C706 C88 1.403 . S
C718 C150 1.411 . S
C745 C153 1.654 . S
C733 C64 1.644 . S
C772 C167 1.621 . S
C760 C81 1.652 . S
C799 C137 1.324 . S
C787 C90 1.354 . S
C814 C54 1.577 . S
C826 C151 1.602 . S
