# Generated by pormake.
# Topology anh, (6,3)-cn, num edge types: 1
# Building blocks:
#     Node 0, Type 0, BuildingBlock: CUKXOW_clean_sbu_0, # of connection points: 6
#     Node 1, Type 0, BuildingBlock: CUKXOW_clean_sbu_0, # of connection points: 6
#     Node 2, Type 0, BuildingBlock: CUKXOW_clean_sbu_0, # of connection points: 6
#     Node 3, Type 1, BuildingBlock: MIDCAF_clean_linker_0, # of connection points: 3
#     Node 4, Type 1, BuildingBlock: MIDCAF_clean_linker_0, # of connection points: 3
#     Node 5, Type 1, BuildingBlock: MIDCAF_clean_linker_0, # of connection points: 3
#     Node 6, Type 1, BuildingBlock: MIDCAF_clean_linker_0, # of connection points: 3
#     Node 7, Type 1, BuildingBlock: MIDCAF_clean_linker_0, # of connection points: 3
#     Node 8, Type 1, BuildingBlock: MIDCAF_clean_linker_0, # of connection points: 3
#     Edge 9, Type (0, 1), None
#     Edge 10, Type (0, 1), None
#     Edge 11, Type (0, 1), None
#     Edge 12, Type (0, 1), None
#     Edge 13, Type (0, 1), None
#     Edge 14, Type (0, 1), None
#     Edge 15, Type (0, 1), None
#     Edge 16, Type (0, 1), None
#     Edge 17, Type (0, 1), None
#     Edge 18, Type (0, 1), None
#     Edge 19, Type (0, 1), None
#     Edge 20, Type (0, 1), None
#     Edge 21, Type (0, 1), None
#     Edge 22, Type (0, 1), None
#     Edge 23, Type (0, 1), None
#     Edge 24, Type (0, 1), None
#     Edge 25, Type (0, 1), None
#     Edge 26, Type (0, 1), None
# Relax obj value: 0.144
# Max RMSD: 0.196
# Mean RMSD: 0.145
data_MOF--net-anh--node1-CUKXOW_clean_sbu_0--node2-MIDCAF_clean_linker_0--edge1-none
_symmetry_space_group_name_H-M    P1
_symmetry_Int_Tables_number       1
_symmetry_cell_setting            triclinic
loop_
_symmetry_equiv_pos_as_xyz
'x, y, z'
_cell_length_a     18.245359
_cell_length_b     17.809141
_cell_length_c     36.706749
_cell_angle_alpha  91.029819
_cell_angle_beta   91.605079
_cell_angle_gamma 109.79456
loop_
_atom_site_label
_atom_site_type_symbol
_atom_site_fract_x
_atom_site_fract_y
_atom_site_fract_z
_atom_type_partial_charge
Tb0 Tb 0.1301 0.58516 0.13733 0.0
C1 C 0.08774 0.50383 0.21081 0.0
Tb2 Tb 1.04556 0.41052 0.13522 0.0
O3 O 1.02441 0.61059 0.15319 0.0
O4 O 1.01413 0.511 0.12144 0.0
O5 O 0.14183 0.56027 0.19419 0.0
C6 C 0.93235 0.26919 0.14068 0.0
O7 O 1.03572 0.44435 0.19209 0.0
C8 C 0.19791 0.44687 0.1293 0.0
C9 C 0.08953 0.49328 0.06067 0.0
O10 O 1.00019 0.29053 0.15748 0.0
O11 O 0.92912 0.32694 0.12052 0.0
O12 O 0.14535 0.38199 0.11612 0.0
O13 O 0.16411 0.48411 0.14897 0.0
O14 O 0.04885 0.4269 0.07683 0.0
O15 O 0.12731 0.56101 0.07889 0.0
C16 C 0.24123 0.72896 0.13502 0.0
O17 O 0.17556 0.71317 0.15112 0.0
O18 O 0.24333 0.66392 0.11941 0.0
C19 C 0.97495 0.54552 0.13862 0.0
Tb20 Tb 0.48525 1.00014 0.47665 0.0
C21 C 0.57364 0.03967 0.40368 0.0
Tb22 Tb 0.66444 0.08705 0.47892 0.0
O23 O 0.46612 0.10853 0.4561 0.0
O24 O 0.56356 0.11598 0.48774 0.0
O25 O 0.51431 0.98898 0.42026 0.0
C26 C 0.80071 0.20492 0.48203 0.0
O27 O 0.63304 0.09262 0.42179 0.0
C28 C 0.61647 0.92962 0.47011 0.0
C29 C 0.57674 0.04658 0.55354 0.0
O30 O 0.79173 0.13036 0.48751 0.0
O31 O 0.73366 0.21223 0.47489 0.0
O32 O 0.68247 0.97696 0.45853 0.0
O33 O 0.58661 0.97216 0.48783 0.0
O34 O 0.64385 0.08235 0.53732 0.0
O35 O 0.50889 0.00972 0.53559 0.0
C36 C 0.34993 0.88133 0.47759 0.0
O37 O 0.35826 0.95636 0.48261 0.0
O38 O 0.41687 0.87411 0.47184 0.0
C39 C 0.53269 0.15687 0.46938 0.0
Tb40 Tb 0.50769 0.50219 0.80553 0.0
C41 C 0.58834 0.54975 0.88137 0.0
Tb42 Tb 0.66703 0.59771 0.80819 0.0
O43 O 0.53159 0.40857 0.83561 0.0
O44 O 0.61035 0.47278 0.79823 0.0
O45 O 0.523 0.54228 0.8627 0.0
C46 C 0.82137 0.65766 0.80099 0.0
O47 O 0.65257 0.55617 0.86392 0.0
C48 C 0.57695 0.68471 0.81769 0.0
C49 C 0.58724 0.55381 0.73087 0.0
O50 O 0.7816 0.68556 0.82264 0.0
O51 O 0.77392 0.5953 0.78393 0.0
O52 O 0.6429 0.69622 0.83477 0.0
O53 O 0.56461 0.62589 0.7957 0.0
O54 O 0.6474 0.604 0.74968 0.0
O55 O 0.52717 0.50364 0.74719 0.0
C56 C 0.35528 0.43399 0.79236 0.0
O57 O 0.40456 0.39649 0.79396 0.0
O58 O 0.39125 0.50923 0.79959 0.0
C59 C 0.59688 0.41645 0.82041 0.0
C60 C 0.30558 0.8584 0.16826 0.0
C61 C 0.30958 0.80151 0.14219 0.0
C62 C 0.38191 0.80862 0.12752 0.0
C63 C 0.45003 0.86834 0.14075 0.0
H64 H 0.67052 0.11863 0.12651 0.0
H65 H 0.79097 0.21444 0.10453 0.0
H66 H 0.91927 0.17054 0.19755 0.0
H67 H 0.79905 0.07637 0.21989 0.0
H68 H 0.69548 0.11141 0.29411 0.0
H69 H 0.69212 0.12048 0.36012 0.0
H70 H 0.4576 0.95001 0.35611 0.0
H71 H 0.46078 0.94103 0.29003 0.0
H72 H 0.3692 0.95707 0.20362 0.0
H73 H 0.25059 0.85445 0.17997 0.0
H74 H 0.38646 0.76529 0.1074 0.0
H75 H 0.50569 0.86971 0.13066 0.0
N76 N 0.58608 1.00545 0.17254 0.0
N77 N 0.64866 0.05327 0.2294 0.0
N78 N 0.51608 0.97747 0.22636 0.0
C79 C 0.65173 0.04727 0.19259 0.0
C80 C 0.58111 0.01866 0.2465 0.0
C81 C 0.51796 0.97035 0.18954 0.0
C82 C 0.72538 0.0909 0.17509 0.0
C83 C 0.7248 0.12785 0.14168 0.0
C84 C 0.79362 0.18274 0.12917 0.0
C85 C 0.86408 0.20013 0.14955 0.0
C86 C 0.86573 0.15819 0.18133 0.0
C87 C 0.79686 0.10458 0.19417 0.0
C88 C 0.5785 0.02531 0.28668 0.0
C89 C 0.6431 0.07588 0.30723 0.0
C90 C 0.64109 0.08128 0.34516 0.0
C91 C 0.57462 0.03587 0.36343 0.0
C92 C 0.50982 0.9857 0.34291 0.0
C93 C 0.51163 0.98065 0.30495 0.0
C94 C 0.44657 0.92062 0.16923 0.0
C95 C 0.37351 0.91697 0.18188 0.0
C96 C 0.6077 0.28237 0.50387 0.0
C97 C 0.55145 0.24397 0.47649 0.0
C98 C 0.50988 0.28791 0.45915 0.0
C99 C 0.5221 0.36759 0.47032 0.0
H100 H 0.66355 0.68773 0.45915 0.0
H101 H 0.68082 0.82433 0.43946 0.0
H102 H 0.51423 0.84067 0.51777 0.0
H103 H 0.49721 0.70652 0.53691 0.0
H104 H 0.65085 0.67718 0.61995 0.0
H105 H 0.65415 0.67881 0.68677 0.0
H106 H 0.51883 0.42736 0.68439 0.0
H107 H 0.51759 0.42508 0.61782 0.0
H108 H 0.66078 0.387 0.53743 0.0
H109 H 0.64005 0.25042 0.51827 0.0
H110 H 0.46596 0.25981 0.43804 0.0
H111 H 0.48666 0.39893 0.45795 0.0
N112 N 0.57734 0.54528 0.49889 0.0
N113 N 0.58231 0.61428 0.55486 0.0
N114 N 0.57976 0.48242 0.55463 0.0
C115 C 0.57971 0.6131 0.51779 0.0
C116 C 0.58228 0.54934 0.57343 0.0
C117 C 0.57749 0.47951 0.51759 0.0
C118 C 0.57906 0.68657 0.49957 0.0
C119 C 0.629 0.71996 0.47117 0.0
C120 C 0.63924 0.79819 0.46012 0.0
C121 C 0.59888 0.8434 0.47701 0.0
C122 C 0.54563 0.80759 0.50379 0.0
C123 C 0.53606 0.73054 0.51494 0.0
C124 C 0.58403 0.55097 0.61373 0.0
C125 C 0.62195 0.62232 0.63377 0.0
C126 C 0.62417 0.62321 0.67193 0.0
C127 C 0.58659 0.55327 0.69065 0.0
C128 C 0.54792 0.48223 0.67061 0.0
C129 C 0.54754 0.48085 0.63254 0.0
C130 C 0.57537 0.4038 0.49924 0.0
C131 C 0.61939 0.36088 0.51506 0.0
C132 C 0.93849 0.69569 0.84143 0.0
C133 C 0.90391 0.66939 0.80682 0.0
C134 C 0.93816 0.62942 0.78318 0.0
C135 C 0.99594 0.60158 0.79657 0.0
H136 H 0.12339 0.46309 0.77364 0.0
H137 H 0.24456 0.45995 0.7495 0.0
H138 H 0.27989 0.33015 0.84246 0.0
H139 H 0.16082 0.33699 0.86819 0.0
H140 H 0.10356 0.62242 0.95191 0.0
H141 H 0.10921 0.62085 0.0181 0.0
H142 H 0.06762 0.36702 0.01332 0.0
H143 H 0.06338 0.36883 0.9466 0.0
H144 H 1.01475 0.6797 0.88339 0.0
H145 H 0.91385 0.72823 0.85984 0.0
H146 H 0.91319 0.61026 0.75602 0.0
H147 H 1.01504 0.56285 0.77898 0.0
N148 N 0.07272 0.50508 0.8308 0.0
N149 N 0.09865 0.44469 0.88341 0.0
N150 N 0.05509 0.55407 0.88809 0.0
C151 C 0.09622 0.44838 0.84646 0.0
C152 C 0.07784 0.49735 0.90428 0.0
C153 C 0.05234 0.55816 0.85131 0.0
C154 C 0.13606 0.40555 0.82412 0.0
C155 C 0.1547 0.43045 0.78832 0.0
C156 C 0.22377 0.42817 0.77415 0.0
C157 C 0.27157 0.3972 0.7949 0.0
C158 C 0.24349 0.35506 0.82634 0.0
C159 C 0.17552 0.35952 0.84116 0.0
C160 C 0.08269 0.49564 0.94424 0.0
C161 C 0.09574 0.56627 0.96496 0.0
C162 C 0.09948 0.56549 0.00283 0.0
C163 C 0.08872 0.49378 0.0207 0.0
C164 C 0.07573 0.423 8e-05 0.0
C165 C 0.07363 0.42409 0.96203 0.0
C166 C 1.01885 0.61328 0.83372 0.0
C167 C 0.99564 0.66701 0.85504 0.0
C168 C 0.22569 0.81977 0.44234 0.0
C169 C 0.27675 0.81533 0.47081 0.0
C170 C 0.26744 0.74171 0.48656 0.0
C171 C 0.21008 0.6724 0.47282 0.0
H172 H 0.94539 0.4712 0.48053 0.0
H173 H 0.84374 0.35821 0.50574 0.0
H174 H 0.91718 0.19494 0.44022 0.0
H175 H 1.01666 0.30828 0.41345 0.0
H176 H 0.993 0.40051 0.32231 0.0
H177 H 0.99669 0.39179 0.25603 0.0
H178 H 0.17384 0.62579 0.25673 0.0
H179 H 0.17005 0.63475 0.32263 0.0
H180 H 0.1346 0.75364 0.40409 0.0
H181 H 0.2333 0.87595 0.42936 0.0
H182 H 0.30747 0.73718 0.5081 0.0
H183 H 0.20643 0.61564 0.48427 0.0
N184 N 0.07578 0.53657 0.44214 0.0
N185 N 1.03893 0.46019 0.38759 0.0
N186 N 0.11717 0.59499 0.38617 0.0
C187 C 1.03704 0.46602 0.42449 0.0
C188 C 0.07891 0.5246 0.3682 0.0
C189 C 0.11594 0.60118 0.42305 0.0
C190 C 0.98796 0.39807 0.44484 0.0
C191 C 0.94133 0.41114 0.47231 0.0
C192 C 0.88363 0.34675 0.48686 0.0
C193 C 0.87391 0.26853 0.47515 0.0
C194 C 0.92497 0.25495 0.45009 0.0
C195 C 0.981 0.31955 0.43454 0.0
C196 C 0.08115 0.51841 0.32791 0.0
C197 C 1.03286 0.45005 0.30834 0.0
C198 C 1.03484 0.44505 0.2703 0.0
C199 C 0.08559 0.50802 0.25106 0.0
C200 C 0.13415 0.57603 0.27065 0.0
C201 C 0.13179 0.58128 0.30856 0.0
C202 C 0.16356 0.67562 0.44221 0.0
C203 C 0.17008 0.74997 0.4277 0.0
C204 C 0.66202 0.34128 0.78271 0.0
C205 C 0.61876 0.34498 0.81327 0.0
C206 C 0.58438 0.27506 0.83272 0.0
C207 C 0.58587 0.20133 0.8195 0.0
H208 H 0.60959 0.95163 0.83403 0.0
H209 H 0.61444 0.82514 0.85658 0.0
H210 H 0.48856 0.70245 0.75939 0.0
H211 H 0.48343 0.82838 0.73684 0.0
H212 H 0.48885 0.93243 0.66347 0.0
H213 H 0.48599 0.93245 0.59687 0.0
H214 H 0.66986 0.16205 0.60022 0.0
H215 H 0.67153 0.16307 0.66684 0.0
H216 H 0.69223 0.26613 0.74422 0.0
H217 H 0.68982 0.39421 0.76737 0.0
H218 H 0.55126 0.27635 0.85662 0.0
H219 H 0.55374 0.14771 0.83345 0.0
N220 N 0.58429 0.04847 0.78457 0.0
N221 N 0.56097 0.97837 0.72817 0.0
N222 N 0.60411 0.11783 0.72982 0.0
C223 C 0.5626 0.97776 0.76516 0.0
C224 C 0.58185 0.04798 0.71039 0.0
C225 C 0.60494 0.11889 0.76682 0.0
C226 C 0.54801 0.90047 0.78323 0.0
C227 C 0.58077 0.89741 0.81801 0.0
C228 C 0.58355 0.8249 0.83091 0.0
C229 C 0.55333 0.75432 0.80935 0.0
C230 C 0.51296 0.75594 0.77646 0.0
C231 C 0.51056 0.82838 0.76347 0.0
C232 C 0.58039 0.04776 0.67024 0.0
C233 C 0.52857 0.98289 0.64996 0.0
C234 C 0.52661 0.98308 0.61193 0.0
C235 C 0.57774 0.04724 0.59359 0.0
C236 C 0.63012 0.11171 0.61381 0.0
C237 C 0.63079 0.11243 0.65185 0.0
C238 C 0.62138 0.19652 0.7865 0.0
C239 C 0.66298 0.2677 0.76936 0.0
C240 C 0.84715 0.47712 0.10386 0.0
C241 C 0.8896 0.53203 0.13128 0.0
C242 C 0.85055 0.57677 0.14987 0.0
C243 C 0.77243 0.56896 0.14026 0.0
H244 H 0.46514 0.60639 0.13871 0.0
H245 H 0.32666 0.58037 0.15231 0.0
H246 H 0.26597 0.34949 0.098 0.0
H247 H 0.40223 0.37489 0.08534 0.0
H248 H 0.46772 0.52618 -0.00717 0.0
H249 H 0.46716 0.53462 0.92659 0.0
H250 H 0.71076 0.55805 0.92786 0.0
H251 H 0.71155 0.54959 -0.00614 0.0
H252 H 0.74103 0.43004 0.07143 0.0
H253 H 0.87467 0.44172 0.0888 0.0
H254 H 0.8812 0.61967 0.17118 0.0
H255 H 0.74568 0.60699 0.15389 0.0
N256 N 0.59028 0.51159 0.11329 0.0
N257 N 0.52449 0.52023 0.05802 0.0
N258 N 0.65511 0.52885 0.05773 0.0
C259 C 0.52345 0.51172 0.09477 0.0
C260 C 0.58993 0.52955 0.03931 0.0
C261 C 0.65688 0.52038 0.09443 0.0
C262 C 0.44545 0.49169 0.1118 0.0
C263 C 0.42231 0.54898 0.13098 0.0
C264 C 0.34265 0.53451 0.13829 0.0
C265 C 0.28421 0.46301 0.12598 0.0
C266 C 0.30847 0.40536 0.10796 0.0
C267 C 0.3872 0.41947 0.10098 0.0
C268 C 0.58963 0.53698 -0.00108 0.0
C269 C 0.5213 0.53339 -0.02094 0.0
C270 C 0.52093 0.53822 0.94098 0.0
C271 C 0.58886 0.54685 0.92181 0.0
C272 C 0.6573 0.55133 0.94166 0.0
C273 C 0.65769 0.54643 -0.02034 0.0
C274 C 0.73161 0.51679 0.11151 0.0
C275 C 0.77002 0.47022 0.09397 0.0
loop_
_geom_bond_atom_site_label_1
_geom_bond_atom_site_label_2
_geom_bond_distance
_geom_bond_site_symmetry_2
_ccdc_geom_bond_type
Tb0 O3 2.453 1_455 S
Tb0 O4 2.596 1_455 S
Tb0 O5 2.374 . S
Tb0 O13 2.343 . S
Tb0 O15 2.353 . S
Tb0 O17 2.427 . S
Tb0 O18 2.513 . S
C1 O5 1.251 . S
C1 O7 1.263 . S
Tb2 O4 2.343 . S
Tb2 O7 2.353 1_655 S
Tb2 O10 2.427 . S
Tb2 O11 2.513 . S
Tb2 O12 2.453 1_655 S
Tb2 O13 2.596 1_655 S
Tb2 O14 2.374 1_655 S
O3 Tb0 2.453 1_655 S
O3 C19 1.245 . S
O4 Tb0 2.596 1_655 S
O4 Tb2 2.343 . S
O4 C19 1.259 . S
O5 Tb0 2.374 . S
O5 C1 1.251 . S
C6 O10 1.275 . S
C6 O11 1.246 . S
O7 C1 1.263 . S
O7 Tb2 2.353 1_455 S
C8 O12 1.245 . S
C8 O13 1.259 . S
C9 O14 1.250 . S
C9 O15 1.263 . S
O10 Tb2 2.427 . S
O10 C6 1.275 . S
O11 Tb2 2.513 . S
O11 C6 1.246 . S
O12 Tb2 2.453 1_455 S
O12 C8 1.245 . S
O13 Tb0 2.343 . S
O13 Tb2 2.596 1_455 S
O13 C8 1.259 . S
O14 Tb2 2.374 1_455 S
O14 C9 1.250 . S
O15 Tb0 2.353 . S
O15 C9 1.263 . S
C16 O17 1.275 . S
C16 O18 1.246 . S
O17 Tb0 2.427 . S
O17 C16 1.275 . S
O18 Tb0 2.513 . S
O18 C16 1.246 . S
C19 O3 1.245 . S
C19 O4 1.259 . S
Tb20 O23 2.453 . S
Tb20 O24 2.596 . S
Tb20 O25 2.374 . S
Tb20 O33 2.343 1_545 S
Tb20 O35 2.353 . S
Tb20 O37 2.427 1_545 S
Tb20 O38 2.513 1_545 S
C21 O25 1.251 . S
C21 O27 1.263 . S
Tb22 O24 2.343 . S
Tb22 O27 2.353 . S
Tb22 O30 2.427 . S
Tb22 O31 2.513 . S
Tb22 O32 2.453 1_545 S
Tb22 O33 2.596 1_545 S
Tb22 O34 2.374 . S
O23 Tb20 2.453 . S
O23 C39 1.245 . S
O24 Tb20 2.596 . S
O24 Tb22 2.343 . S
O24 C39 1.259 . S
O25 Tb20 2.374 . S
O25 C21 1.251 . S
C26 O30 1.275 . S
C26 O31 1.246 . S
O27 C21 1.263 . S
O27 Tb22 2.353 . S
C28 O32 1.245 . S
C28 O33 1.259 . S
C29 O34 1.250 . S
C29 O35 1.263 . S
O30 Tb22 2.427 . S
O30 C26 1.275 . S
O31 Tb22 2.513 . S
O31 C26 1.246 . S
O32 Tb22 2.453 1_565 S
O32 C28 1.245 . S
O33 Tb20 2.343 1_565 S
O33 Tb22 2.596 1_565 S
O33 C28 1.259 . S
O34 Tb22 2.374 . S
O34 C29 1.250 . S
O35 Tb20 2.353 . S
O35 C29 1.263 . S
C36 O37 1.275 . S
C36 O38 1.246 . S
O37 Tb20 2.427 1_565 S
O37 C36 1.275 . S
O38 Tb20 2.513 1_565 S
O38 C36 1.246 . S
C39 O23 1.245 . S
C39 O24 1.259 . S
Tb40 O43 2.453 . S
Tb40 O44 2.596 . S
Tb40 O45 2.374 . S
Tb40 O53 2.343 . S
Tb40 O55 2.353 . S
Tb40 O57 2.427 . S
Tb40 O58 2.513 . S
C41 O45 1.251 . S
C41 O47 1.263 . S
Tb42 O44 2.343 . S
Tb42 O47 2.353 . S
Tb42 O50 2.427 . S
Tb42 O51 2.513 . S
Tb42 O52 2.453 . S
Tb42 O53 2.596 . S
Tb42 O54 2.374 . S
O43 Tb40 2.453 . S
O43 C59 1.245 . S
O44 Tb40 2.596 . S
O44 Tb42 2.343 . S
O44 C59 1.259 . S
O45 Tb40 2.374 . S
O45 C41 1.251 . S
C46 O50 1.275 . S
C46 O51 1.246 . S
O47 C41 1.263 . S
O47 Tb42 2.353 . S
C48 O52 1.245 . S
C48 O53 1.259 . S
C49 O54 1.250 . S
C49 O55 1.263 . S
O50 Tb42 2.427 . S
O50 C46 1.275 . S
O51 Tb42 2.513 . S
O51 C46 1.246 . S
O52 Tb42 2.453 . S
O52 C48 1.245 . S
O53 Tb40 2.343 . S
O53 Tb42 2.596 . S
O53 C48 1.259 . S
O54 Tb42 2.374 . S
O54 C49 1.250 . S
O55 Tb40 2.353 . S
O55 C49 1.263 . S
C56 O57 1.275 . S
C56 O58 1.246 . S
O57 Tb40 2.427 . S
O57 C56 1.275 . S
O58 Tb40 2.513 . S
O58 C56 1.246 . S
C59 O43 1.245 . S
C59 O44 1.259 . S
C60 C61 1.384 . S
C60 H73 0.947 . S
C60 C95 1.382 . S
C61 C60 1.384 . S
C61 C62 1.378 . S
C62 C61 1.378 . S
C62 C63 1.378 . S
C62 H74 0.952 . S
C63 C62 1.378 . S
C63 H75 0.950 . S
C63 C94 1.383 . S
H64 C83 0.947 . S
H65 C84 0.946 . S
H66 C86 0.953 . S
H67 C87 0.945 . S
H68 C89 0.952 . S
H69 C90 0.949 . S
H70 C92 0.950 . S
H71 C93 0.948 . S
H72 C95 0.951 . S
H73 C60 0.947 . S
H74 C62 0.952 . S
H75 C63 0.950 . S
N76 C79 1.382 . S
N76 C81 1.363 1_545 S
N77 C79 1.371 . S
N77 C80 1.372 . S
N78 C80 1.361 1_565 S
N78 C81 1.377 . S
C79 N76 1.382 . S
C79 N77 1.371 . S
C79 C82 1.480 . S
C80 N77 1.372 . S
C80 N78 1.361 1_545 S
C80 C88 1.457 . S
C81 N76 1.363 1_565 S
C81 N78 1.377 . S
C81 C94 1.479 . S
C82 C79 1.480 . S
C82 C83 1.383 . S
C82 C87 1.385 . S
C83 H64 0.947 . S
C83 C82 1.383 . S
C83 C84 1.388 . S
C84 H65 0.946 . S
C84 C83 1.388 . S
C84 C85 1.384 . S
C85 C84 1.384 . S
C85 C86 1.377 . S
C86 H66 0.953 . S
C86 C85 1.377 . S
C86 C87 1.369 . S
C87 H67 0.945 . S
C87 C82 1.385 . S
C87 C86 1.369 . S
C88 C80 1.457 . S
C88 C89 1.372 . S
C88 C93 1.364 1_545 S
C89 H68 0.952 . S
C89 C88 1.372 . S
C89 C90 1.389 . S
C90 H69 0.949 . S
C90 C89 1.389 . S
C90 C91 1.387 . S
C91 C90 1.387 . S
C91 C92 1.372 1_545 S
C92 H70 0.950 . S
C92 C91 1.372 1_565 S
C92 C93 1.379 . S
C93 H71 0.948 . S
C93 C88 1.364 1_565 S
C93 C92 1.379 . S
C94 C63 1.383 . S
C94 C81 1.479 . S
C94 C95 1.398 . S
C95 C60 1.382 . S
C95 H72 0.951 . S
C95 C94 1.398 . S
C96 C97 1.384 . S
C96 H109 0.947 . S
C96 C131 1.382 . S
C97 C96 1.384 . S
C97 C98 1.378 . S
C98 C97 1.378 . S
C98 C99 1.378 . S
C98 H110 0.952 . S
C99 C98 1.378 . S
C99 H111 0.950 . S
C99 C130 1.383 . S
H100 C119 0.947 . S
H101 C120 0.946 . S
H102 C122 0.953 . S
H103 C123 0.945 . S
H104 C125 0.952 . S
H105 C126 0.949 . S
H106 C128 0.950 . S
H107 C129 0.948 . S
H108 C131 0.951 . S
H109 C96 0.947 . S
H110 C98 0.952 . S
H111 C99 0.950 . S
N112 C115 1.382 . S
N112 C117 1.363 . S
N113 C115 1.371 . S
N113 C116 1.372 . S
N114 C116 1.361 . S
N114 C117 1.377 . S
C115 N112 1.382 . S
C115 N113 1.371 . S
C115 C118 1.480 . S
C116 N113 1.372 . S
C116 N114 1.361 . S
C116 C124 1.457 . S
C117 N112 1.363 . S
C117 N114 1.377 . S
C117 C130 1.479 . S
C118 C115 1.480 . S
C118 C119 1.383 . S
C118 C123 1.385 . S
C119 H100 0.947 . S
C119 C118 1.383 . S
C119 C120 1.388 . S
C120 H101 0.946 . S
C120 C119 1.388 . S
C120 C121 1.384 . S
C121 C120 1.384 . S
C121 C122 1.377 . S
C122 H102 0.953 . S
C122 C121 1.377 . S
C122 C123 1.369 . S
C123 H103 0.945 . S
C123 C118 1.385 . S
C123 C122 1.369 . S
C124 C116 1.457 . S
C124 C125 1.372 . S
C124 C129 1.364 . S
C125 H104 0.952 . S
C125 C124 1.372 . S
C125 C126 1.389 . S
C126 H105 0.949 . S
C126 C125 1.389 . S
C126 C127 1.387 . S
C127 C126 1.387 . S
C127 C128 1.372 . S
C128 H106 0.950 . S
C128 C127 1.372 . S
C128 C129 1.379 . S
C129 H107 0.948 . S
C129 C124 1.364 . S
C129 C128 1.379 . S
C130 C99 1.383 . S
C130 C117 1.479 . S
C130 C131 1.398 . S
C131 C96 1.382 . S
C131 H108 0.951 . S
C131 C130 1.398 . S
C132 C133 1.384 . S
C132 H145 0.947 . S
C132 C167 1.382 . S
C133 C132 1.384 . S
C133 C134 1.378 . S
C134 C133 1.378 . S
C134 C135 1.378 . S
C134 H146 0.952 . S
C135 C134 1.378 . S
C135 H147 0.950 . S
C135 C166 1.383 . S
H136 C155 0.947 . S
H137 C156 0.946 . S
H138 C158 0.953 . S
H139 C159 0.945 . S
H140 C161 0.952 . S
H141 C162 0.949 . S
H142 C164 0.950 . S
H143 C165 0.948 . S
H144 C167 0.951 . S
H145 C132 0.947 . S
H146 C134 0.952 . S
H147 C135 0.950 . S
N148 C151 1.382 . S
N148 C153 1.363 . S
N149 C151 1.371 . S
N149 C152 1.372 . S
N150 C152 1.375 . S
N150 C153 1.377 . S
C151 N148 1.382 . S
C151 N149 1.371 . S
C151 C154 1.480 . S
C152 N149 1.372 . S
C152 N150 1.375 . S
C152 C160 1.457 . S
C153 N148 1.363 . S
C153 N150 1.377 . S
C153 C166 1.479 1_455 S
C154 C151 1.480 . S
C154 C155 1.383 . S
C154 C159 1.385 . S
C155 H136 0.947 . S
C155 C154 1.383 . S
C155 C156 1.388 . S
C156 H137 0.946 . S
C156 C155 1.388 . S
C156 C157 1.384 . S
C157 C156 1.384 . S
C157 C158 1.377 . S
C158 H138 0.953 . S
C158 C157 1.377 . S
C158 C159 1.369 . S
C159 H139 0.945 . S
C159 C154 1.385 . S
C159 C158 1.369 . S
C160 C152 1.457 . S
C160 C161 1.372 . S
C160 C165 1.364 1_455 S
C161 H140 0.952 . S
C161 C160 1.372 . S
C161 C162 1.389 1_556 S
C162 H141 0.949 . S
C162 C161 1.389 1_554 S
C162 C163 1.387 . S
C163 C162 1.387 . S
C163 C164 1.372 1_455 S
C164 H142 0.950 . S
C164 C163 1.372 1_655 S
C164 C165 1.379 1_554 S
C165 H143 0.948 . S
C165 C160 1.364 1_655 S
C165 C164 1.379 1_556 S
C166 C135 1.383 . S
C166 C153 1.479 1_655 S
C166 C167 1.398 . S
C167 C132 1.382 . S
C167 H144 0.951 . S
C167 C166 1.398 . S
C168 C169 1.384 . S
C168 H181 0.947 . S
C168 C203 1.382 . S
C169 C168 1.384 . S
C169 C170 1.378 . S
C170 C169 1.378 . S
C170 C171 1.378 . S
C170 H182 0.952 . S
C171 C170 1.378 . S
C171 H183 0.950 . S
C171 C202 1.383 . S
H172 C191 0.947 . S
H173 C192 0.946 . S
H174 C194 0.953 . S
H175 C195 0.945 . S
H176 C197 0.952 . S
H177 C198 0.949 . S
H178 C200 0.950 . S
H179 C201 0.948 . S
H180 C203 0.951 . S
H181 C168 0.947 . S
H182 C170 0.952 . S
H183 C171 0.950 . S
N184 C187 1.382 1_455 S
N184 C189 1.363 . S
N185 C187 1.371 . S
N185 C188 1.372 1_655 S
N186 C188 1.361 . S
N186 C189 1.377 . S
C187 N184 1.382 1_655 S
C187 N185 1.371 . S
C187 C190 1.480 . S
C188 N185 1.372 1_455 S
C188 N186 1.361 . S
C188 C196 1.457 . S
C189 N184 1.363 . S
C189 N186 1.377 . S
C189 C202 1.479 . S
C190 C187 1.480 . S
C190 C191 1.383 . S
C190 C195 1.385 . S
C191 H172 0.947 . S
C191 C190 1.383 . S
C191 C192 1.388 . S
C192 H173 0.946 . S
C192 C191 1.388 . S
C192 C193 1.384 . S
C193 C192 1.384 . S
C193 C194 1.377 . S
C194 H174 0.953 . S
C194 C193 1.377 . S
C194 C195 1.369 . S
C195 H175 0.945 . S
C195 C190 1.385 . S
C195 C194 1.369 . S
C196 C188 1.457 . S
C196 C197 1.372 1_455 S
C196 C201 1.364 . S
C197 H176 0.952 . S
C197 C196 1.372 1_655 S
C197 C198 1.389 . S
C198 H177 0.949 . S
C198 C197 1.389 . S
C198 C199 1.387 1_655 S
C199 C198 1.387 1_455 S
C199 C200 1.372 . S
C200 H178 0.950 . S
C200 C199 1.372 . S
C200 C201 1.379 . S
C201 H179 0.948 . S
C201 C196 1.364 . S
C201 C200 1.379 . S
C202 C171 1.383 . S
C202 C189 1.479 . S
C202 C203 1.398 . S
C203 C168 1.382 . S
C203 H180 0.951 . S
C203 C202 1.398 . S
C204 C205 1.384 . S
C204 H217 0.947 . S
C204 C239 1.382 . S
C205 C204 1.384 . S
C205 C206 1.378 . S
C206 C205 1.378 . S
C206 C207 1.378 . S
C206 H218 0.952 . S
C207 C206 1.378 . S
C207 H219 0.950 . S
C207 C238 1.383 . S
H208 C227 0.947 . S
H209 C228 0.946 . S
H210 C230 0.953 . S
H211 C231 0.945 . S
H212 C233 0.952 . S
H213 C234 0.949 . S
H214 C236 0.950 . S
H215 C237 0.948 . S
H216 C239 0.951 . S
H217 C204 0.947 . S
H218 C206 0.952 . S
H219 C207 0.950 . S
N220 C223 1.382 1_545 S
N220 C225 1.363 . S
N221 C223 1.371 . S
N221 C224 1.372 1_565 S
N222 C224 1.361 . S
N222 C225 1.377 . S
C223 N220 1.382 1_565 S
C223 N221 1.371 . S
C223 C226 1.480 . S
C224 N221 1.372 1_545 S
C224 N222 1.361 . S
C224 C232 1.457 . S
C225 N220 1.363 . S
C225 N222 1.377 . S
C225 C238 1.479 . S
C226 C223 1.480 . S
C226 C227 1.383 . S
C226 C231 1.385 . S
C227 H208 0.947 . S
C227 C226 1.383 . S
C227 C228 1.388 . S
C228 H209 0.946 . S
C228 C227 1.388 . S
C228 C229 1.384 . S
C229 C228 1.384 . S
C229 C230 1.377 . S
C230 H210 0.953 . S
C230 C229 1.377 . S
C230 C231 1.369 . S
C231 H211 0.945 . S
C231 C226 1.385 . S
C231 C230 1.369 . S
C232 C224 1.457 . S
C232 C233 1.372 1_545 S
C232 C237 1.364 . S
C233 H212 0.952 . S
C233 C232 1.372 1_565 S
C233 C234 1.389 . S
C234 H213 0.949 . S
C234 C233 1.389 . S
C234 C235 1.387 1_565 S
C235 C234 1.387 1_545 S
C235 C236 1.372 . S
C236 H214 0.950 . S
C236 C235 1.372 . S
C236 C237 1.379 . S
C237 H215 0.948 . S
C237 C232 1.364 . S
C237 C236 1.379 . S
C238 C207 1.383 . S
C238 C225 1.479 . S
C238 C239 1.398 . S
C239 C204 1.382 . S
C239 H216 0.951 . S
C239 C238 1.398 . S
C240 C241 1.384 . S
C240 H253 0.947 . S
C240 C275 1.382 . S
C241 C240 1.384 . S
C241 C242 1.378 . S
C242 C241 1.378 . S
C242 C243 1.378 . S
C242 H254 0.952 . S
C243 C242 1.378 . S
C243 H255 0.950 . S
C243 C274 1.383 . S
H244 C263 0.947 . S
H245 C264 0.946 . S
H246 C266 0.953 . S
H247 C267 0.945 . S
H248 C269 0.952 . S
H249 C270 0.949 . S
H250 C272 0.950 . S
H251 C273 0.948 . S
H252 C275 0.951 . S
H253 C240 0.947 . S
H254 C242 0.952 . S
H255 C243 0.950 . S
N256 C259 1.382 . S
N256 C261 1.363 . S
N257 C259 1.371 . S
N257 C260 1.372 . S
N258 C260 1.361 . S
N258 C261 1.377 . S
C259 N256 1.382 . S
C259 N257 1.371 . S
C259 C262 1.480 . S
C260 N257 1.372 . S
C260 N258 1.361 . S
C260 C268 1.457 . S
C261 N256 1.363 . S
C261 N258 1.377 . S
C261 C274 1.479 . S
C262 C259 1.480 . S
C262 C263 1.383 . S
C262 C267 1.385 . S
C263 H244 0.947 . S
C263 C262 1.383 . S
C263 C264 1.388 . S
C264 H245 0.946 . S
C264 C263 1.388 . S
C264 C265 1.384 . S
C265 C264 1.384 . S
C265 C266 1.377 . S
C266 H246 0.953 . S
C266 C265 1.377 . S
C266 C267 1.369 . S
C267 H247 0.945 . S
C267 C262 1.385 . S
C267 C266 1.369 . S
C268 C260 1.457 . S
C268 C269 1.372 . S
C268 C273 1.364 . S
C269 H248 0.952 . S
C269 C268 1.372 . S
C269 C270 1.389 1_554 S
C270 H249 0.949 . S
C270 C269 1.389 1_556 S
C270 C271 1.387 . S
C271 C270 1.387 . S
C271 C272 1.372 . S
C272 H250 0.950 . S
C272 C271 1.372 . S
C272 C273 1.379 1_556 S
C273 H251 0.948 . S
C273 C268 1.364 . S
C273 C272 1.379 1_554 S
C274 C243 1.383 . S
C274 C261 1.479 . S
C274 C275 1.398 . S
C275 C240 1.382 . S
C275 H252 0.951 . S
C275 C274 1.398 . S
C8 C265 2.855 . S
C26 C193 1.427 . S
C48 C229 1.888 . S
C19 C241 2.813 . S
C169 C36 1.856 . S
C205 C59 2.561 . S
C28 C121 1.972 . S
C46 C133 1.348 . S
C16 C61 2.028 . S
C97 C39 2.507 . S
C157 C56 0.945 . S
C6 C85 1.707 . S
C163 C9 1.354 . S
C21 C91 1.565 . S
C49 C127 1.492 . S
C235 C29 1.511 . S
C271 C41 1.711 . S
C1 C199 1.513 . S
