# Generated by pormake.
# Topology zzz, (3,6)-cn, num edge types: 1
# Building blocks:
#     Node 0, Type 0, BuildingBlock: BETDAH_clean_linker_0, # of connection points: 3
#     Node 1, Type 0, BuildingBlock: BETDAH_clean_linker_0, # of connection points: 3
#     Node 2, Type 0, BuildingBlock: BETDAH_clean_linker_0, # of connection points: 3
#     Node 3, Type 0, BuildingBlock: BETDAH_clean_linker_0, # of connection points: 3
#     Node 4, Type 0, BuildingBlock: BETDAH_clean_linker_0, # of connection points: 3
#     Node 5, Type 0, BuildingBlock: BETDAH_clean_linker_0, # of connection points: 3
#     Node 6, Type 0, BuildingBlock: BETDAH_clean_linker_0, # of connection points: 3
#     Node 7, Type 0, BuildingBlock: BETDAH_clean_linker_0, # of connection points: 3
#     Node 8, Type 1, BuildingBlock: BETDEL_clean_sbu_0, # of connection points: 6
#     Node 9, Type 1, BuildingBlock: BETDEL_clean_sbu_0, # of connection points: 6
#     Node 10, Type 1, BuildingBlock: BETDEL_clean_sbu_0, # of connection points: 6
#     Node 11, Type 1, BuildingBlock: BETDEL_clean_sbu_0, # of connection points: 6
#     Edge 12, Type (0, 1), BuildingBlock: KIFKEQ_clean_linker_1, # of connection points: 2
#     Edge 13, Type (0, 1), BuildingBlock: KIFKEQ_clean_linker_1, # of connection points: 2
#     Edge 14, Type (0, 1), BuildingBlock: KIFKEQ_clean_linker_1, # of connection points: 2
#     Edge 15, Type (0, 1), BuildingBlock: KIFKEQ_clean_linker_1, # of connection points: 2
#     Edge 16, Type (0, 1), BuildingBlock: KIFKEQ_clean_linker_1, # of connection points: 2
#     Edge 17, Type (0, 1), BuildingBlock: KIFKEQ_clean_linker_1, # of connection points: 2
#     Edge 18, Type (0, 1), BuildingBlock: KIFKEQ_clean_linker_1, # of connection points: 2
#     Edge 19, Type (0, 1), BuildingBlock: KIFKEQ_clean_linker_1, # of connection points: 2
#     Edge 20, Type (0, 1), BuildingBlock: KIFKEQ_clean_linker_1, # of connection points: 2
#     Edge 21, Type (0, 1), BuildingBlock: KIFKEQ_clean_linker_1, # of connection points: 2
#     Edge 22, Type (0, 1), BuildingBlock: KIFKEQ_clean_linker_1, # of connection points: 2
#     Edge 23, Type (0, 1), BuildingBlock: KIFKEQ_clean_linker_1, # of connection points: 2
#     Edge 24, Type (0, 1), BuildingBlock: KIFKEQ_clean_linker_1, # of connection points: 2
#     Edge 25, Type (0, 1), BuildingBlock: KIFKEQ_clean_linker_1, # of connection points: 2
#     Edge 26, Type (0, 1), BuildingBlock: KIFKEQ_clean_linker_1, # of connection points: 2
#     Edge 27, Type (0, 1), BuildingBlock: KIFKEQ_clean_linker_1, # of connection points: 2
#     Edge 28, Type (0, 1), BuildingBlock: KIFKEQ_clean_linker_1, # of connection points: 2
#     Edge 29, Type (0, 1), BuildingBlock: KIFKEQ_clean_linker_1, # of connection points: 2
#     Edge 30, Type (0, 1), BuildingBlock: KIFKEQ_clean_linker_1, # of connection points: 2
#     Edge 31, Type (0, 1), BuildingBlock: KIFKEQ_clean_linker_1, # of connection points: 2
#     Edge 32, Type (0, 1), BuildingBlock: KIFKEQ_clean_linker_1, # of connection points: 2
#     Edge 33, Type (0, 1), BuildingBlock: KIFKEQ_clean_linker_1, # of connection points: 2
#     Edge 34, Type (0, 1), BuildingBlock: KIFKEQ_clean_linker_1, # of connection points: 2
#     Edge 35, Type (0, 1), BuildingBlock: KIFKEQ_clean_linker_1, # of connection points: 2
# Relax obj value: 0.157
# Max RMSD: 0.176
# Mean RMSD: 0.116
data_MOF--net-zzz--node1-BETDEL_clean_sbu_0--node2-BETDAH_clean_linker_0--edge1-KIFKEQ_clean_linker_1
_symmetry_space_group_name_H-M    P1
_symmetry_Int_Tables_number       1
_symmetry_cell_setting            triclinic
loop_
_symmetry_equiv_pos_as_xyz
'x, y, z'
_cell_length_a     50.45592
_cell_length_b     51.492927
_cell_length_c     15.224294
_cell_angle_alpha  91.634723
_cell_angle_beta   88.388073
_cell_angle_gamma 94.856215
loop_
_atom_site_label
_atom_site_type_symbol
_atom_site_fract_x
_atom_site_fract_y
_atom_site_fract_z
_atom_type_partial_charge
H0 H 0.8172 0.5067 0.09804 0.0
H1 H 0.74079 0.51112 0.98626 0.0
H2 H 0.75169 0.52715 0.26423 0.0
C3 C 0.79619 0.50961 0.1067 0.0
C4 C 0.78647 0.51711 0.18913 0.0
C5 C 0.77993 0.50752 0.03387 0.0
C6 C 0.75304 0.51218 0.04363 0.0
C7 C 0.74245 0.5187 0.12761 0.0
C8 C 0.75941 0.5213 0.20022 0.0
N9 N 0.71523 0.52352 0.14087 0.0
C10 C 0.69662 0.52245 0.07455 0.0
H11 H 0.02324 0.82218 0.07905 0.0
H12 H 1.00658 0.74866 0.94442 0.0
H13 H 0.98229 0.75863 0.21712 0.0
C14 C 0.016 0.80172 0.08104 0.0
C15 C 1.00336 0.79218 0.15765 0.0
C16 C 0.01706 0.78634 0.0042 0.0
C17 C 1.00625 0.76035 0.00466 0.0
C18 C 0.99435 0.74995 0.08269 0.0
C19 C 0.99236 0.76621 0.15826 0.0
N20 N 0.98347 0.72362 0.08667 0.0
C21 C 0.98718 0.70479 0.02106 0.0
H22 H 0.68705 0.01891 0.06502 0.0
H23 H 0.76751 0.01487 0.97025 0.0
H24 H 0.74136 0.97948 0.21557 0.0
C25 C 0.70692 0.013 0.07431 0.0
C26 C 0.71176 0.99858 0.1476 0.0
C27 C 0.72691 0.01904 0.01091 0.0
C28 C 0.75232 0.01057 0.02065 0.0
C29 C 0.75783 0.99654 0.09548 0.0
C30 C 0.73743 0.99073 0.159 0.0
N31 N 0.78335 0.98754 0.10793 0.0
C32 C 0.80449 0.9901 0.0469 0.0
H33 H 0.48981 0.69417 0.10876 0.0
H34 H 0.50286 0.76856 0.98865 0.0
H35 H 0.5307 0.758 0.25038 0.0
C36 C 0.49661 0.71473 0.11387 0.0
C37 C 0.50988 0.72418 0.18891 0.0
C38 C 0.4941 0.73045 0.04178 0.0
C39 C 0.50433 0.75662 0.04547 0.0
C40 C 0.51698 0.76694 0.12204 0.0
C41 C 0.52021 0.75041 0.19277 0.0
N42 N 0.52727 0.79349 0.12924 0.0
C43 C 0.52406 0.8122 0.06681 0.0
H44 H 0.20158 0.51515 0.02782 0.0
H45 H 0.27717 0.50813 0.14262 0.0
H46 H 0.26602 0.49004 0.86598 0.0
C47 C 0.22239 0.51137 0.02008 0.0
C48 C 0.23184 0.50257 0.9388 0.0
C49 C 0.23849 0.51324 0.09337 0.0
C50 C 0.26504 0.50726 0.08488 0.0
C51 C 0.27542 0.49954 0.0018 0.0
C52 C 0.25854 0.49697 0.92904 0.0
N53 N 0.30228 0.49337 0.98989 0.0
C54 C 0.32079 0.49476 0.05651 0.0
H55 H 0.01637 0.19232 0.07401 0.0
H56 H 0.01121 0.26936 0.18392 0.0
H57 H 0.04784 0.25821 0.9265 0.0
C58 C 0.02011 0.21331 0.06811 0.0
C59 C 0.03325 0.22324 0.99315 0.0
C60 C 0.01189 0.22975 0.13614 0.0
C61 C 0.01718 0.2568 0.13007 0.0
C62 C 0.03013 0.26728 0.05372 0.0
C63 C 0.03785 0.25032 0.98504 0.0
N64 N 0.03592 0.29456 0.04393 0.0
C65 C 0.03138 0.31338 0.10884 0.0
H66 H 0.32609 0.9868 0.07315 0.0
H67 H 0.24921 1.00253 0.17636 0.0
H68 H 0.27478 0.02862 0.91796 0.0
C69 C 0.30701 0.99443 0.06352 0.0
C70 C 0.30277 0.00738 0.98614 0.0
C71 C 0.28786 0.99267 0.13174 0.0
C72 C 0.2637 1.00369 0.12263 0.0
C73 C 0.25862 0.01637 0.04464 0.0
C74 C 0.27842 0.01847 0.97722 0.0
N75 N 0.23411 0.02751 0.03257 0.0
C76 C 0.21265 0.02584 0.09258 0.0
H77 H 0.52744 0.32445 0.02812 0.0
H78 H 0.51469 0.24977 0.14617 0.0
H79 H 0.48754 0.2606 0.88379 0.0
C80 C 0.52082 0.30386 0.02232 0.0
C81 C 0.50788 0.29446 0.94662 0.0
C82 C 0.52327 0.28802 0.09411 0.0
C83 C 0.51328 0.26179 0.08958 0.0
C84 C 0.50094 0.25153 0.01242 0.0
C85 C 0.49778 0.26816 0.94192 0.0
N86 N 0.49089 0.22493 0.0043 0.0
C87 C 0.49421 0.20598 0.0658 0.0
Dy88 Dy 0.01894 0.99435 0.6372 0.0
C89 C 0.98856 0.06123 0.38251 0.0
C90 C 0.02835 0.95539 0.7474 0.0
Dy91 Dy 0.99651 0.02253 0.49552 0.0
O92 O 0.04566 0.9667 0.69351 0.0
O93 O 1.0063 0.96667 0.74543 0.0
O94 O 0.05962 0.01198 0.60145 0.0
O95 O 0.03244 1.00201 0.50112 0.0
C96 C 0.05551 0.01226 0.51771 0.0
C97 C 0.95992 1.00474 0.61522 0.0
O98 O 0.99516 0.98402 0.4241 0.0
O99 O 0.99764 0.96269 0.55444 0.0
O100 O 0.97032 0.04954 0.43241 0.0
O101 O 0.01068 0.05045 0.39012 0.0
O102 O 0.95577 1.00504 0.53143 0.0
O103 O 0.98301 0.01497 0.63165 0.0
O104 O 0.02201 0.03294 0.70835 0.0
O105 O 0.017 0.05433 0.57938 0.0
C106 C 0.9932 0.96232 0.46924 0.0
C107 C 0.02301 0.05468 0.66345 0.0
Dy108 Dy 0.4845 0.99589 0.52244 0.0
C109 C 0.58103 0.0457 0.66471 0.0
C110 C 0.43462 0.97494 0.48341 0.0
Dy111 Dy 0.53164 0.02428 0.62147 0.0
O112 O 0.45568 0.9732 0.433 0.0
O113 O 0.44095 0.98783 0.55524 0.0
O114 O 0.51125 0.98981 0.4042 0.0
O115 O 0.52684 0.99107 0.53091 0.0
C116 C 0.53271 0.99025 0.44992 0.0
C117 C 0.48313 0.0295 0.69282 0.0
O118 O 0.52622 0.05245 0.51333 0.0
O119 O 0.48527 0.03511 0.46183 0.0
O120 O 0.55982 0.04607 0.71512 0.0
O121 O 0.57509 0.03402 0.59039 0.0
O122 O 0.5043 0.02925 0.73955 0.0
O123 O 0.48948 0.02912 0.61234 0.0
O124 O 0.48998 0.96777 0.63052 0.0
O125 O 0.53138 0.98466 0.67928 0.0
C126 C 0.50545 0.05344 0.4619 0.0
C127 C 0.51106 0.96647 0.68028 0.0
Dy128 Dy 0.49546 0.52332 0.64063 0.0
C129 C 0.53181 0.45648 0.37509 0.0
C130 C 0.48495 0.56196 0.75983 0.0
Dy131 Dy 0.52104 0.49513 0.49392 0.0
O132 O 0.46746 0.54912 0.71092 0.0
O133 O 0.50778 0.55236 0.74778 0.0
O134 O 0.45542 0.50603 0.59904 0.0
O135 O 0.48507 0.51566 0.50284 0.0
C136 C 0.46161 0.50557 0.51563 0.0
C137 C 0.55483 0.51304 0.61904 0.0
O138 O 0.52313 0.53367 0.42887 0.0
O139 O 0.51711 0.55534 0.56191 0.0
O140 O 0.54917 0.46927 0.4246 0.0
O141 O 0.50898 0.46614 0.38629 0.0
O142 O 0.561 0.51266 0.53561 0.0
O143 O 0.53145 0.50276 0.63164 0.0
O144 O 0.49347 0.48478 0.70566 0.0
O145 O 0.49935 0.4631 0.57257 0.0
C146 C 0.52346 0.55556 0.47696 0.0
C147 C 0.49311 0.46289 0.6576 0.0
Dy148 Dy 0.99461 0.5008 0.6491 0.0
C149 C 0.0631 0.51562 0.35436 0.0
C150 C 0.95507 0.50341 0.7735 0.0
Dy151 Dy 0.02353 0.51779 0.47886 0.0
O152 O 0.96588 0.48217 0.74944 0.0
O153 O 0.96771 0.52316 0.73538 0.0
O154 O 1.0045 0.4595 0.62452 0.0
O155 O 0.99862 0.48347 0.5181 0.0
C156 C 1.00582 0.46169 0.53946 0.0
C157 C 0.01215 0.55683 0.58875 0.0
O158 O 0.98267 0.51536 0.42368 0.0
O159 O 0.96227 0.51199 0.56193 0.0
O160 O 0.05193 0.53669 0.37814 0.0
O161 O 0.05081 0.49576 0.39289 0.0
O162 O 0.01339 0.55905 0.5037 0.0
O163 O 0.01952 0.53509 0.6097 0.0
O164 O 0.03545 0.50305 0.70425 0.0
O165 O 0.05586 0.50658 0.56605 0.0
C166 C 0.96113 0.51516 0.47602 0.0
C167 C 0.05699 0.50331 0.65192 0.0
H168 H 0.16261 0.03582 0.05534 0.0
H169 H 0.21112 0.01313 0.2639 0.0
H170 H 0.12374 0.0342 0.15597 0.0
H171 H 0.17241 0.01068 0.3641 0.0
H172 H 0.10575 0.03329 0.54649 0.0
H173 H 0.14326 0.0377 0.44234 0.0
H174 H 0.09279 1.00473 0.23569 0.0
H175 H 0.05497 1.00101 0.34026 0.0
C176 C 0.16484 0.03035 0.12277 0.0
C177 C 0.18971 0.02458 0.15219 0.0
C178 C 0.14259 0.02926 0.18031 0.0
C179 C 0.14483 0.02236 0.26851 0.0
C180 C 0.16992 0.0165 0.29724 0.0
C181 C 0.19212 0.01766 0.23973 0.0
C182 C 0.10262 0.02715 0.47865 0.0
C183 C 0.07746 0.01665 0.45168 0.0
C184 C 0.1242 0.02948 0.41894 0.0
C185 C 0.12127 0.02124 0.33057 0.0
C186 C 0.09582 0.01143 0.30299 0.0
C187 C 0.07413 0.00921 0.36291 0.0
H188 H 0.51264 0.20828 0.23194 0.0
H189 H 0.48095 0.15536 0.02918 0.0
H190 H 0.51566 0.17154 0.32933 0.0
H191 H 0.48429 0.11853 0.12505 0.0
H192 H 0.46601 0.06283 0.34993 0.0
H193 H 0.46364 0.09999 0.25629 0.0
H194 H 0.53971 0.13297 0.34852 0.0
H195 H 0.54193 0.0959 0.44379 0.0
C196 C 0.50645 0.18872 0.20832 0.0
C197 C 0.49652 0.18448 0.12358 0.0
C198 C 0.50829 0.16767 0.26372 0.0
C199 C 0.50014 0.14201 0.23529 0.0
C200 C 0.49036 0.138 0.14979 0.0
C201 C 0.48858 0.15902 0.09462 0.0
C202 C 0.48228 0.07796 0.35052 0.0
C203 C 0.50419 0.07625 0.40464 0.0
C204 C 0.48098 0.09926 0.29623 0.0
C205 C 0.50153 0.11951 0.29438 0.0
C206 C 0.52339 0.1179 0.34887 0.0
C207 C 0.52472 0.09653 0.40319 0.0
H208 H 0.36295 0.53022 0.07219 0.0
H209 H 0.32387 0.46141 0.18863 0.0
H210 H 0.39756 0.53164 0.18229 0.0
H211 H 0.35866 0.46227 0.29806 0.0
H212 H 0.40888 0.49015 0.53628 0.0
H213 H 0.37487 0.48711 0.42492 0.0
H214 H 0.43492 0.50894 0.22649 0.0
H215 H 0.46887 0.51249 0.33873 0.0
C216 C 0.36188 0.51539 0.12156 0.0
C217 C 0.34088 0.49578 0.12273 0.0
C218 C 0.38178 0.51602 0.18413 0.0
C219 C 0.38102 0.49701 0.24911 0.0
C220 C 0.35977 0.4774 0.24979 0.0
C221 C 0.3399 0.4768 0.18711 0.0
C222 C 0.41483 0.49414 0.46875 0.0
C223 C 0.44152 0.50168 0.44632 0.0
C224 C 0.39534 0.49228 0.40473 0.0
C225 C 0.40205 0.4979 0.31655 0.0
C226 C 0.42893 0.50488 0.2939 0.0
C227 C 0.44844 0.50672 0.35805 0.0
H228 H 1.00621 0.31044 0.26822 0.0
H229 H 0.0488 0.36364 0.09006 0.0
H230 H 1.00025 0.34655 0.37328 0.0
H231 H 0.04338 0.39978 0.19511 0.0
H232 H 1.00277 0.4616 0.36086 0.0
H233 H 1.00897 0.42549 0.25701 0.0
H234 H 0.02544 0.37679 0.47208 0.0
H235 H 0.01885 0.41289 0.57593 0.0
C236 C 0.01436 0.32989 0.25196 0.0
C237 C 0.0279 0.33446 0.17158 0.0
C238 C 0.01111 0.35054 0.31213 0.0
C239 C 0.02133 0.37611 0.29269 0.0
C240 C 0.03495 0.38045 0.21178 0.0
C241 C 0.03819 0.3598 0.15185 0.0
C242 C 1.00782 0.4432 0.38582 0.0
C243 C 0.01033 0.44003 0.47643 0.0
C244 C 0.01148 0.42252 0.32632 0.0
C245 C 0.01769 0.39819 0.35612 0.0
C246 C 0.02032 0.39513 0.44694 0.0
C247 C 0.0167 0.41585 0.50641 0.0
H248 H 0.84556 0.02729 0.04338 0.0
H249 H 0.81411 0.95626 0.91389 0.0
H250 H 0.88403 0.02966 0.94101 0.0
H251 H 0.85269 0.95811 0.81232 0.0
H252 H 0.90861 0.98702 0.58579 0.0
H253 H 0.87138 0.9831 0.69116 0.0
H254 H 0.92428 0.00872 0.90056 0.0
H255 H 0.96159 0.01312 0.79399 0.0
C256 C 0.84701 0.01218 0.99287 0.0
C257 C 0.827 0.9917 0.98567 0.0
C258 C 0.8691 0.01337 0.93474 0.0
C259 C 0.87157 0.99405 0.86825 0.0
C260 C 0.85135 0.9735 0.86181 0.0
C261 C 0.8293 0.97235 0.92 0.0
C262 C 0.91234 0.99168 0.65442 0.0
C263 C 0.93801 1.0005 0.68153 0.0
C264 C 0.89098 0.98929 0.71504 0.0
C265 C 0.89471 0.99566 0.80457 0.0
C266 C 0.92057 1.00401 0.83199 0.0
C267 C 0.94201 1.00634 0.77113 0.0
H268 H 0.47965 0.8357 0.03411 0.0
H269 H 0.56304 0.83563 0.96504 0.0
H270 H 0.47611 0.87286 0.93927 0.0
H271 H 0.55967 0.87242 0.86866 0.0
H272 H 0.55111 0.95618 0.78881 0.0
H273 H 0.55375 0.91837 0.87948 0.0
H274 H 0.47736 0.88608 0.78774 0.0
H275 H 0.47442 0.92422 0.69819 0.0
C276 C 0.49712 0.84354 -0.00239 0.0
C277 C 0.52158 0.83297 0.00629 0.0
C278 C 0.49513 0.86473 0.94306 0.0
C279 C 0.51763 0.87578 0.89636 0.0
C280 C 0.54203 0.86473 0.90454 0.0
C281 C 0.54396 0.84355 0.95906 0.0
C282 C 0.53483 0.94106 0.78782 0.0
C283 C 0.51255 0.94334 0.73588 0.0
C284 C 0.53644 0.91922 0.83952 0.0
C285 C 0.51583 0.89902 0.84084 0.0
C286 C 0.49349 0.90135 0.78917 0.0
C287 C 0.49188 0.9232 0.73736 0.0
H288 H 0.64759 0.53885 0.09769 0.0
H289 H 0.69962 0.5047 0.90578 0.0
H290 H 0.61272 0.53822 0.98859 0.0
H291 H 0.66483 0.50363 0.79668 0.0
H292 H 0.60733 0.52924 0.59819 0.0
H293 H 0.64149 0.53251 0.70912 0.0
H294 H 0.58221 0.50804 0.90686 0.0
H295 H 0.54794 0.50521 0.79568 0.0
C296 C 0.65146 0.53117 0.03198 0.0
C297 C 0.67616 0.52191 0.00961 0.0
C298 C 0.6315 0.53067 0.96966 0.0
C299 C 0.63593 0.52093 0.88361 0.0
C300 C 0.66083 0.51164 0.86179 0.0
C301 C 0.68073 0.51211 0.92426 0.0
C302 C 0.60157 0.52474 0.66549 0.0
C303 C 0.57498 0.51686 0.68816 0.0
C304 C 0.62119 0.52642 0.72901 0.0
C305 C 0.61472 0.52029 0.81693 0.0
C306 C 0.58792 0.51308 0.83999 0.0
C307 C 0.56827 0.51138 0.77628 0.0
H308 H 0.95752 0.6921 0.87898 0.0
H309 H 0.02524 0.67126 0.01958 0.0
H310 H 0.96287 0.65592 0.7735 0.0
H311 H 0.03111 0.63536 0.91377 0.0
H312 H 0.01594 0.55713 0.76719 0.0
H313 H 0.00951 0.59319 0.87111 0.0
H314 H 0.99242 0.64167 0.65615 0.0
H315 H 0.9983 0.60535 0.55261 0.0
C316 C 0.97367 0.67981 0.88657 0.0
C317 C 0.99101 0.68424 0.95668 0.0
C318 C 0.97683 0.65919 0.82621 0.0
C319 C 0.99738 0.64264 0.83525 0.0
C320 C 0.01484 0.64744 0.90555 0.0
C321 C 0.01165 0.66806 0.9657 0.0
C322 C 0.01068 0.57546 0.74231 0.0
C323 C 1.00763 0.57846 0.65187 0.0
C324 C 1.00719 0.5962 0.80173 0.0
C325 C 1.00057 0.62041 0.77203 0.0
C326 C 0.99724 0.62324 0.68144 0.0
C327 C 1.00075 0.60249 0.62203 0.0
H328 H 0.96165 0.20736 0.15278 0.0
H329 H 0.03575 0.22067 0.28731 0.0
H330 H 0.95193 0.16638 0.22819 0.0
H331 H 0.026 0.17986 0.36404 0.0
H332 H 0.02846 0.09182 0.30574 0.0
H333 H 0.02891 0.13805 0.27622 0.0
H334 H 0.94631 0.13722 0.35964 0.0
H335 H 0.94586 0.0906 0.38926 0.0
C336 C 0.97492 0.2024 0.20332 0.0
C337 C 0.99953 0.21691 0.21389 0.0
C338 C 0.96954 0.17874 0.24565 0.0
C339 C 0.98872 0.16954 0.29926 0.0
C340 C 0.01122 0.18625 0.32106 0.0
C341 C 0.01656 0.20989 0.2787 0.0
C342 C 0.01029 0.10139 0.31664 0.0
C343 C 0.98711 0.08764 0.34939 0.0
C344 C 0.01067 0.12798 0.30139 0.0
C345 C 0.98784 0.14141 0.31824 0.0
C346 C 0.96426 0.12742 0.34725 0.0
C347 C 0.96394 0.10074 0.36319 0.0
H348 H 0.29859 0.94291 0.16055 0.0
H349 H 0.29636 0.01873 0.28654 0.0
H350 H 0.32828 0.93018 0.2727 0.0
H351 H 0.32669 1.00658 0.397 0.0
H352 H 0.4187 0.94955 0.33293 0.0
H353 H 0.37442 0.94637 0.27315 0.0
H354 H 0.34392 0.98161 0.51232 0.0
H355 H 0.38869 0.98513 0.5716 0.0
C356 C 0.3035 0.95638 0.21481 0.0
C357 C 0.29547 0.98181 0.21505 0.0
C358 C 0.32073 0.94925 0.27838 0.0
C359 C 0.33052 0.96762 0.34219 0.0
C360 C 0.3196 0.99191 0.34892 0.0
C361 C 0.30213 0.99892 0.28575 0.0
C362 C 0.40241 0.95596 0.3736 0.0
C363 C 0.40712 0.96791 0.45611 0.0
C364 C 0.37689 0.95395 0.33976 0.0
C365 C 0.35555 0.9639 0.38775 0.0
C366 C 0.35996 0.97402 0.47338 0.0
C367 C 0.38556 0.97596 0.50736 0.0
H368 H 0.572 0.31237 0.12616 0.0
H369 H 0.49356 0.29596 0.24124 0.0
H370 H 0.57719 0.35323 0.21078 0.0
H371 H 0.49884 0.33657 0.3278 0.0
H372 H 0.49457 0.42445 0.29181 0.0
H373 H 0.49668 0.37843 0.25397 0.0
H374 H 0.57755 0.38231 0.34273 0.0
H375 H 0.57549 0.42872 0.37974 0.0
C376 C 0.55663 0.31669 0.17426 0.0
C377 C 0.53221 0.30138 0.17624 0.0
C378 C 0.55945 0.34028 0.22201 0.0
C379 C 0.53795 0.34857 0.27293 0.0
C380 C 0.5154 0.33099 0.28666 0.0
C381 C 0.51258 0.30744 0.23867 0.0
C382 C 0.51292 0.41558 0.30209 0.0
C383 C 0.5349 0.43015 0.33812 0.0
C384 C 0.51398 0.38909 0.28213 0.0
C385 C 0.53705 0.37655 0.2978 0.0
C386 C 0.55943 0.39138 0.33081 0.0
C387 C 0.55833 0.41796 0.35106 0.0
H388 H 0.21969 0.47585 0.2026 0.0
H389 H 0.22387 0.55875 0.16696 0.0
H390 H 0.17749 0.47749 0.28032 0.0
H391 H 0.18229 0.56118 0.25127 0.0
H392 H 0.09132 0.54924 0.24344 0.0
H393 H 0.13903 0.55121 0.20946 0.0
H394 H 0.14613 0.48686 0.38204 0.0
H395 H 0.09848 0.48355 0.40823 0.0
C396 C 0.21244 0.49476 0.21737 0.0
C397 C 0.2248 0.51711 0.17849 0.0
C398 C 0.18791 0.49577 0.26128 0.0
C399 C 0.17569 0.51939 0.26921 0.0
C400 C 0.19043 0.54245 0.24296 0.0
C401 C 0.2147 0.54127 0.19705 0.0
C402 C 0.10318 0.53525 0.27214 0.0
C403 C 0.0912 0.5158 0.32604 0.0
C404 C 0.13065 0.53668 0.25458 0.0
C405 C 0.14679 0.51924 0.29326 0.0
C406 C 0.13456 0.50023 0.34908 0.0
C407 C 0.10711 0.49825 0.36392 0.0
H408 H 0.9858 0.79576 0.86955 0.0
H409 H 0.06567 0.81024 0.96297 0.0
H410 H 0.99106 0.83643 0.7901 0.0
H411 H 0.07089 0.85116 0.88567 0.0
H412 H 0.07058 0.92588 0.72919 0.0
H413 H 0.07113 0.87957 0.75982 0.0
H414 H 0.99085 0.87899 0.86695 0.0
H415 H 0.9902 0.92502 0.83486 0.0
C416 C 1.00503 0.80686 0.86868 0.0
C417 C 0.02521 0.80015 0.92308 0.0
C418 C 1.00786 0.83046 0.82498 0.0
C419 C 0.03097 0.84749 0.83489 0.0
C420 C 0.05272 0.83864 0.87747 0.0
C421 C 0.04989 0.81501 0.92092 0.0
C422 C 0.05321 0.91588 0.76042 0.0
C423 C 0.03038 0.92902 0.78022 0.0
C424 C 0.05345 0.88934 0.77718 0.0
C425 C 0.03083 0.87545 0.81377 0.0
C426 C 1.00833 0.88891 0.83611 0.0
C427 C 1.00811 0.9154 0.81944 0.0
H428 H 0.71894 0.99732 0.84916 0.0
H429 H 0.71556 0.06929 -0.00117 0.0
H430 H 0.68876 0.01235 0.74321 0.0
H431 H 0.68606 0.08502 0.8913 0.0
H432 H 0.59619 0.0677 0.82142 0.0
H433 H 0.64014 0.06936 0.88316 0.0
H434 H 0.67188 0.04006 0.63638 0.0
H435 H 0.62742 0.03792 0.57522 0.0
C436 C 0.71295 0.01701 0.85627 0.0
C437 C 0.71936 0.03216 0.93181 0.0
C438 C 0.69557 0.02568 0.79571 0.0
C439 C 0.68442 0.04966 0.81 0.0
C440 C 0.6938 0.0662 0.87956 0.0
C441 C 0.71095 0.0574 0.94049 0.0
C442 C 0.61269 0.06231 0.77966 0.0
C443 C 0.60839 0.05234 0.6942 0.0
C444 C 0.63802 0.06345 0.81471 0.0
C445 C 0.65961 0.05463 0.76494 0.0
C446 C 0.65564 0.04669 0.67678 0.0
C447 C 0.63022 0.04557 0.64167 0.0
H448 H 0.44532 0.70589 0.01174 0.0
H449 H 0.52332 0.72246 0.89358 0.0
H450 H 0.4399 0.66503 0.92715 0.0
H451 H 0.5178 0.68186 0.80704 0.0
H452 H 0.44116 0.58964 0.75714 0.0
H453 H 0.43911 0.63601 0.79485 0.0
H454 H 0.52031 0.63998 0.88048 0.0
H455 H 0.5224 0.594 0.84201 0.0
C456 C 0.46052 0.70161 0.96303 0.0
C457 C 0.48491 0.71697 0.96013 0.0
C458 C 0.45758 0.67802 0.91528 0.0
C459 C 0.47891 0.66979 0.86342 0.0
C460 C 0.50138 0.6874 0.84889 0.0
C461 C 0.50434 0.71094 0.89689 0.0
C462 C 0.45839 0.60041 0.78529 0.0
C463 C 0.48191 0.58826 0.79716 0.0
C464 C 0.4573 0.62697 0.80594 0.0
C465 C 0.47977 0.64181 0.83825 0.0
C466 C 0.50293 0.62931 0.85287 0.0
C467 C 0.50399 0.60285 0.83254 0.0
H468 H 0.79956 0.5455 0.92807 0.0
H469 H 0.79345 0.46224 0.95602 0.0
H470 H 0.84171 0.54355 0.85019 0.0
H471 H 0.83499 0.45956 0.87167 0.0
H472 H 0.92604 0.46964 0.88191 0.0
H473 H 0.87833 0.46841 0.91526 0.0
H474 H 0.87284 0.53414 0.74731 0.0
H475 H 0.92051 0.53662 0.7216 0.0
C476 C 0.80637 0.52652 0.91152 0.0
C477 C 0.79349 0.50408 0.94831 0.0
C478 C 0.83087 0.52531 0.86755 0.0
C479 C 0.84252 0.50143 0.85752 0.0
C480 C 0.82726 0.47843 0.88162 0.0
C481 C 0.80301 0.47979 0.92754 0.0
C482 C 0.91454 0.48409 0.85409 0.0
C483 C 0.92699 0.50366 0.80164 0.0
C484 C 0.88708 0.4831 0.87127 0.0
C485 C 0.87139 0.50114 0.83369 0.0
C486 C 0.88407 0.52029 0.77936 0.0
C487 C 0.91153 0.5218 0.76484 0.0
H488 H 0.01278 0.21389 0.83098 0.0
H489 H 0.06985 0.18831 0.00804 0.0
H490 H 0.01464 0.17331 0.74442 0.0
H491 H 0.07215 0.14786 0.92132 0.0
H492 H 0.0314 0.06649 0.83856 0.0
H493 H 0.03988 0.10982 0.90698 0.0
H494 H 0.03995 0.14447 0.65187 0.0
H495 H 0.03114 0.10153 0.58387 0.0
C496 C 0.02667 0.20009 0.84872 0.0
C497 C 0.04134 0.20421 0.92537 0.0
C498 C 0.02761 0.17674 0.79978 0.0
C499 C 0.0432 0.15712 0.82702 0.0
C500 C 0.05956 0.16233 0.89964 0.0
C501 C 0.05861 0.18563 0.94837 0.0
C502 C 0.0335 0.08333 0.79711 0.0
C503 C 0.03033 0.08047 0.70596 0.0
C504 C 0.03853 0.10817 0.83614 0.0
C505 C 0.04052 0.13065 0.78477 0.0
C506 C 0.03819 0.12764 0.69341 0.0
C507 C 0.03318 0.10292 0.65453 0.0
H508 H 0.33389 0.96984 0.9239 0.0
H509 H 0.32259 0.05151 0.90007 0.0
H510 H 0.37674 0.97628 0.84604 0.0
H511 H 0.36541 0.0577 0.81896 0.0
H512 H 0.43859 0.04343 0.61379 0.0
H513 H 0.39241 0.03852 0.67119 0.0
H514 H 0.41933 1.00614 0.90788 0.0
H515 H 0.46533 0.01149 0.85163 0.0
C516 C 0.34029 0.98908 0.90031 0.0
C517 C 0.32501 0.01027 0.91955 0.0
C518 C 0.36485 0.99273 0.85588 0.0
C519 C 0.37454 0.01755 0.82797 0.0
C520 C 0.35835 0.03836 0.84012 0.0
C521 C 0.33379 0.03478 0.88596 0.0
C522 C 0.43457 0.03545 0.67837 0.0
C523 C 0.45547 0.02777 0.72835 0.0
C524 C 0.40823 0.03272 0.71109 0.0
C525 C 0.40235 0.02181 0.79359 0.0
C526 C 0.42333 0.01441 0.84372 0.0
C527 C 0.44963 0.0176 0.81182 0.0
H528 H 0.54512 0.32792 0.86874 0.0
H529 H 0.4607 0.3056 0.87664 0.0
H530 H 0.5372 0.36836 0.79765 0.0
H531 H 0.45289 0.34601 0.80214 0.0
H532 H 0.47427 0.4168 0.58064 0.0
H533 H 0.47495 0.37304 0.63939 0.0
H534 H 0.50466 0.40671 0.88364 0.0
H535 H 0.50345 0.45058 0.82606 0.0
C536 C 0.52494 0.33126 0.85237 0.0
C537 C 0.50351 0.31368 0.87862 0.0
C538 C 0.52043 0.35448 0.81257 0.0
C539 C 0.49444 0.3604 0.79637 0.0
C540 C 0.4731 0.34184 0.81478 0.0
C541 C 0.47759 0.31863 0.85619 0.0
C542 C 0.48032 0.41489 0.64771 0.0
C543 C 0.48882 0.43713 0.69888 0.0
C544 C 0.48066 0.38987 0.68107 0.0
C545 C 0.48999 0.38664 0.76553 0.0
C546 C 0.4974 0.40882 0.81813 0.0
C547 C 0.49655 0.43388 0.78546 0.0
H548 H 0.19628 0.46071 0.92486 0.0
H549 H 0.22084 0.53421 0.80675 0.0
H550 H 0.1539 0.45901 0.84983 0.0
H551 H 0.1785 0.5326 0.73087 0.0
H552 H 0.10489 0.5119 0.56587 0.0
H553 H 0.14908 0.50838 0.62089 0.0
H554 H 0.11479 0.48615 0.87351 0.0
H555 H 0.07008 0.48955 0.81819 0.0
C556 C 0.19302 0.4759 0.87948 0.0
C557 C 0.21198 0.4973 0.86978 0.0
C558 C 0.16859 0.4752 0.838 0.0
C559 C 0.16269 0.49586 0.78559 0.0
C560 C 0.18251 0.51633 0.77058 0.0
C561 C 0.20688 0.51714 0.81295 0.0
C562 C 0.10658 0.50614 0.6332 0.0
C563 C 0.08377 0.501 0.68771 0.0
C564 C 0.13204 0.50424 0.66467 0.0
C565 C 0.13547 0.49692 0.75132 0.0
C566 C 0.11275 0.49153 0.80592 0.0
C567 C 0.08715 0.49367 0.77457 0.0
H568 H 0.0418 0.82345 0.23774 0.0
H569 H 0.95676 0.80502 0.23693 0.0
H570 H 0.03546 0.86463 0.31591 0.0
H571 H 0.95047 0.84615 0.31807 0.0
H572 H 0.9696 0.91785 0.53903 0.0
H573 H 0.96955 0.87347 0.47637 0.0
H574 H 1.00802 0.90389 0.23986 0.0
H575 H 1.0076 0.94839 0.30142 0.0
C576 C 0.02181 0.82776 0.25753 0.0
C577 C 0.99976 0.81115 0.23106 0.0
C578 C 0.01819 0.85141 0.30117 0.0
C579 C 0.99249 0.85866 0.3208 0.0
C580 C 0.97047 0.84094 0.30275 0.0
C581 C 0.97408 0.81732 0.25759 0.0
C582 C 0.97748 0.91509 0.47278 0.0
C583 C 0.98864 0.93653 0.42492 0.0
C584 C 0.97743 0.88975 0.43724 0.0
C585 C 0.98903 0.88542 0.35406 0.0
C586 C 0.99911 0.90688 0.30455 0.0
C587 C 0.99866 0.93228 0.33934 0.0
H588 H 0.66955 0.96483 0.10983 0.0
H589 H 0.70174 0.01636 0.31556 0.0
H590 H 0.62687 0.9599 0.18959 0.0
H591 H 0.6587 0.01185 0.39574 0.0
H592 H 0.57866 0.9843 0.53668 0.0
H593 H 0.62371 0.98285 0.47303 0.0
H594 H 0.59282 0.99044 0.21407 0.0
H595 H 0.54812 0.99212 0.27767 0.0
C596 C 0.66761 0.97453 0.17353 0.0
C597 C 0.68889 0.99082 0.20701 0.0
C598 C 0.6431 0.97199 0.21872 0.0
C599 C 0.63918 0.98587 0.29827 0.0
C600 C 0.66106 1.00083 0.33477 0.0
C601 C 0.68572 1.00335 0.28928 0.0
C602 C 0.5816 0.9858 0.46621 0.0
C603 C 0.55991 0.98857 0.41214 0.0
C604 C 0.60738 0.98493 0.42979 0.0
C605 C 0.61189 0.98635 0.33838 0.0
C606 C 0.59004 0.98882 0.28457 0.0
C607 C 0.56441 0.98993 0.32099 0.0
H608 H 0.47263 0.69144 0.26984 0.0
H609 H 0.55725 0.71243 0.25568 0.0
H610 H 0.48036 0.6509 0.34076 0.0
H611 H 0.5649 0.67191 0.32987 0.0
H612 H 0.54241 0.60147 0.55465 0.0
H613 H 0.5422 0.64531 0.49617 0.0
H614 H 0.51291 0.61204 0.25086 0.0
H615 H 0.51363 0.56807 0.30821 0.0
C616 C 0.49283 0.6878 0.28488 0.0
C617 C 0.51435 0.70503 0.25698 0.0
C618 C 0.49723 0.66452 0.32455 0.0
C619 C 0.52321 0.6582 0.33887 0.0
C620 C 0.5447 0.67641 0.31872 0.0
C621 C 0.54031 0.69968 0.27751 0.0
C622 C 0.53655 0.60347 0.48743 0.0
C623 C 0.52801 0.58133 0.43589 0.0
C624 C 0.53648 0.62854 0.45422 0.0
C625 C 0.52743 0.6319 0.3695 0.0
C626 C 0.51999 0.60981 0.31654 0.0
C627 C 0.52055 0.5847 0.34909 0.0
H628 H 0.79709 0.4851 0.32064 0.0
H629 H 0.82217 0.55881 0.20481 0.0
H630 H 0.83938 0.48625 0.39668 0.0
H631 H 0.86448 0.56005 0.27997 0.0
H632 H 0.94803 0.52898 0.30988 0.0
H633 H 0.90331 0.53256 0.25484 0.0
H634 H 0.86905 0.51014 0.50728 0.0
H635 H 0.91324 0.50647 0.5621 0.0
C636 C 0.81115 0.50211 0.31499 0.0
C637 C 0.80624 0.52212 0.25859 0.0
C638 C 0.8355 0.50266 0.35743 0.0
C639 C 0.85544 0.52305 0.34298 0.0
C640 C 0.84969 0.54391 0.29127 0.0
C641 C 0.8253 0.54347 0.24972 0.0
C642 C 0.93096 0.52485 0.35352 0.0
C643 C 0.93434 0.51745 0.44028 0.0
C644 C 0.90536 0.52709 0.32233 0.0
C645 C 0.88265 0.52173 0.377 0.0
C646 C 0.88608 0.51428 0.46348 0.0
C647 C 0.91155 0.51229 0.49482 0.0
loop_
_geom_bond_atom_site_label_1
_geom_bond_atom_site_label_2
_geom_bond_distance
_geom_bond_site_symmetry_2
_ccdc_geom_bond_type
H0 C3 0.929 . S
H1 C6 0.929 1_556 S
H2 C8 0.930 . S
C3 H0 0.929 . S
C3 C4 1.398 . S
C3 C5 1.396 . S
C4 C3 1.398 . S
C4 C8 1.407 . S
C5 C3 1.396 . S
C5 C6 1.394 . S
C6 H1 0.929 1_554 S
C6 C5 1.394 . S
C6 C7 1.382 . S
C7 C6 1.382 . S
C7 C8 1.392 . S
C7 N9 1.420 . S
C8 H2 0.930 . S
C8 C4 1.407 . S
C8 C7 1.392 . S
N9 C7 1.420 . S
N9 C10 1.244 . S
C10 N9 1.244 . S
H11 C14 0.929 . S
H12 C17 0.929 . S
H13 C19 0.930 . S
C14 H11 0.929 . S
C14 C15 1.393 1_655 S
C14 C16 1.394 1_654 S
C15 C14 1.393 1_455 S
C15 C19 1.416 . S
C16 C14 1.394 1_456 S
C16 C17 1.398 . S
C17 H12 0.929 . S
C17 C16 1.398 . S
C17 C18 1.382 1_556 S
C18 C17 1.382 1_554 S
C18 C19 1.392 . S
C18 N20 1.420 . S
C19 H13 0.930 . S
C19 C15 1.416 . S
C19 C18 1.392 . S
N20 C18 1.420 . S
N20 C21 1.232 1_454 S
C21 N20 1.232 1_656 S
H22 C25 0.929 . S
H23 C28 0.929 . S
H24 C30 0.930 . S
C25 H22 0.929 . S
C25 C26 1.398 . S
C25 C27 1.396 1_554 S
C26 C25 1.398 . S
C26 C30 1.407 . S
C27 C25 1.396 1_556 S
C27 C28 1.394 . S
C28 H23 0.929 . S
C28 C27 1.394 . S
C28 C29 1.382 1_556 S
C29 C28 1.382 1_554 S
C29 C30 1.392 . S
C29 N31 1.420 . S
C30 H24 0.930 . S
C30 C26 1.407 . S
C30 C29 1.392 . S
N31 C29 1.420 . S
N31 C32 1.244 1_554 S
C32 N31 1.244 1_556 S
H33 C36 0.929 . S
H34 C39 0.929 1_556 S
H35 C41 0.930 . S
C36 H33 0.929 . S
C36 C37 1.398 . S
C36 C38 1.396 . S
C37 C36 1.398 . S
C37 C41 1.407 . S
C38 C36 1.396 . S
C38 C39 1.394 . S
C39 H34 0.929 1_554 S
C39 C38 1.394 . S
C39 C40 1.382 . S
C40 C39 1.382 . S
C40 C41 1.392 . S
C40 N42 1.420 . S
C41 H35 0.930 . S
C41 C37 1.407 . S
C41 C40 1.392 . S
N42 C40 1.420 . S
N42 C43 1.244 . S
C43 N42 1.244 . S
H44 C47 0.929 . S
H45 C50 0.929 . S
H46 C52 0.930 . S
C47 H44 0.929 . S
C47 C48 1.398 1_554 S
C47 C49 1.396 . S
C48 C47 1.398 1_556 S
C48 C52 1.407 . S
C49 C47 1.396 . S
C49 C50 1.394 . S
C50 H45 0.929 . S
C50 C49 1.394 . S
C50 C51 1.382 . S
C51 C50 1.382 . S
C51 C52 1.392 1_554 S
C51 N53 1.420 . S
C52 H46 0.930 . S
C52 C48 1.407 . S
C52 C51 1.392 1_556 S
N53 C51 1.420 . S
N53 C54 1.244 . S
C54 N53 1.244 . S
H55 C58 0.929 . S
H56 C61 0.929 . S
H57 C63 0.930 1_556 S
C58 H55 0.929 . S
C58 C59 1.398 1_654 S
C58 C60 1.394 1_655 S
C59 C58 1.398 1_456 S
C59 C63 1.412 1_556 S
C60 C58 1.394 1_455 S
C60 C61 1.396 . S
C61 H56 0.929 . S
C61 C60 1.396 . S
C61 C62 1.382 . S
C62 C61 1.382 . S
C62 C63 1.392 . S
C62 N64 1.420 . S
C63 H57 0.930 1_554 S
C63 C59 1.412 1_554 S
C63 C62 1.392 . S
N64 C62 1.420 . S
N64 C65 1.236 1_455 S
C65 N64 1.236 1_655 S
H66 C69 0.929 . S
H67 C72 0.929 . S
H68 C74 0.930 1_556 S
C69 H66 0.929 . S
C69 C70 1.398 . S
C69 C71 1.396 . S
C70 C69 1.398 . S
C70 C74 1.407 . S
C71 C69 1.396 . S
C71 C72 1.394 . S
C72 H67 0.929 . S
C72 C71 1.394 . S
C72 C73 1.382 . S
C73 C72 1.382 . S
C73 C74 1.392 . S
C73 N75 1.420 . S
C74 H68 0.930 1_554 S
C74 C70 1.407 . S
C74 C73 1.392 . S
N75 C73 1.420 . S
N75 C76 1.244 . S
C76 N75 1.244 . S
H77 C80 0.929 . S
H78 C83 0.929 . S
H79 C85 0.930 . S
C80 H77 0.929 . S
C80 C81 1.398 1_554 S
C80 C82 1.396 . S
C81 C80 1.398 1_556 S
C81 C85 1.407 . S
C82 C80 1.396 . S
C82 C83 1.394 . S
C83 H78 0.929 . S
C83 C82 1.394 . S
C83 C84 1.382 . S
C84 C83 1.382 . S
C84 C85 1.392 1_554 S
C84 N86 1.420 . S
C85 H79 0.930 . S
C85 C81 1.407 . S
C85 C84 1.392 1_556 S
N86 C84 1.420 . S
N86 C87 1.244 . S
C87 N86 1.244 . S
Dy88 O92 2.398 . S
Dy88 O93 2.491 1_455 S
Dy88 O94 2.403 . S
Dy88 O95 2.664 1_565 S
Dy88 O99 2.326 . S
Dy88 O103 2.310 1_455 S
Dy88 O104 2.351 1_565 S
C89 O100 1.185 . S
C89 O101 1.355 1_655 S
C90 O92 1.185 . S
C90 O93 1.355 1_455 S
Dy91 O95 2.310 1_655 S
Dy91 O98 2.351 1_545 S
Dy91 O100 2.398 . S
Dy91 O101 2.491 1_655 S
Dy91 O102 2.403 . S
Dy91 O103 2.664 1_545 S
Dy91 O105 2.326 . S
O92 Dy88 2.398 . S
O92 C90 1.185 . S
O93 Dy88 2.491 1_655 S
O93 C90 1.355 1_655 S
O94 Dy88 2.403 . S
O94 C96 1.254 1_565 S
O95 Dy88 2.664 1_545 S
O95 Dy91 2.310 1_455 S
O95 C96 1.268 . S
C96 O94 1.254 1_545 S
C96 O95 1.268 . S
C97 O102 1.254 1_565 S
C97 O103 1.268 . S
O98 Dy91 2.351 1_565 S
O98 C106 1.249 . S
O99 Dy88 2.326 . S
O99 C106 1.267 1_455 S
O100 C89 1.185 . S
O100 Dy91 2.398 . S
O101 C89 1.355 1_455 S
O101 Dy91 2.491 1_455 S
O102 Dy91 2.403 . S
O102 C97 1.254 1_545 S
O103 Dy88 2.310 1_655 S
O103 Dy91 2.664 1_565 S
O103 C97 1.268 . S
O104 Dy88 2.351 1_545 S
O104 C107 1.249 . S
O105 Dy91 2.326 . S
O105 C107 1.267 1_655 S
C106 O98 1.249 . S
C106 O99 1.267 1_655 S
C107 O104 1.249 . S
C107 O105 1.267 1_455 S
Dy108 O112 2.398 . S
Dy108 O113 2.491 1_565 S
Dy108 O114 2.403 . S
Dy108 O115 2.664 . S
Dy108 O119 2.326 1_565 S
Dy108 O123 2.310 1_565 S
Dy108 O124 2.351 . S
C109 O120 1.185 . S
C109 O121 1.355 1_545 S
C110 O112 1.185 1_545 S
C110 O113 1.355 . S
Dy111 O115 2.310 1_545 S
Dy111 O118 2.351 . S
Dy111 O120 2.398 . S
Dy111 O121 2.491 1_545 S
Dy111 O122 2.403 . S
Dy111 O123 2.664 . S
Dy111 O125 2.326 1_545 S
O112 Dy108 2.398 . S
O112 C110 1.185 1_565 S
O113 Dy108 2.491 1_545 S
O113 C110 1.355 . S
O114 Dy108 2.403 . S
O114 C116 1.254 . S
O115 Dy108 2.664 . S
O115 Dy111 2.310 1_565 S
O115 C116 1.268 . S
C116 O114 1.254 . S
C116 O115 1.268 . S
C117 O122 1.254 . S
C117 O123 1.268 . S
O118 Dy111 2.351 . S
O118 C126 1.249 . S
O119 Dy108 2.326 1_545 S
O119 C126 1.267 . S
O120 C109 1.185 . S
O120 Dy111 2.398 . S
O121 C109 1.355 1_565 S
O121 Dy111 2.491 1_565 S
O122 Dy111 2.403 . S
O122 C117 1.254 . S
O123 Dy108 2.310 1_545 S
O123 Dy111 2.664 . S
O123 C117 1.268 . S
O124 Dy108 2.351 . S
O124 C127 1.249 . S
O125 Dy111 2.326 1_565 S
O125 C127 1.267 . S
C126 O118 1.249 . S
C126 O119 1.267 . S
C127 O124 1.249 . S
C127 O125 1.267 . S
Dy128 O132 2.398 . S
Dy128 O133 2.491 . S
Dy128 O134 2.403 . S
Dy128 O135 2.664 . S
Dy128 O139 2.326 . S
Dy128 O143 2.310 . S
Dy128 O144 2.351 . S
C129 O140 1.185 . S
C129 O141 1.355 . S
C130 O132 1.185 . S
C130 O133 1.355 . S
Dy131 O135 2.310 . S
Dy131 O138 2.351 . S
Dy131 O140 2.398 . S
Dy131 O141 2.491 . S
Dy131 O142 2.403 . S
Dy131 O143 2.664 . S
Dy131 O145 2.326 . S
O132 Dy128 2.398 . S
O132 C130 1.185 . S
O133 Dy128 2.491 . S
O133 C130 1.355 . S
O134 Dy128 2.403 . S
O134 C136 1.254 . S
O135 Dy128 2.664 . S
O135 Dy131 2.310 . S
O135 C136 1.268 . S
C136 O134 1.254 . S
C136 O135 1.268 . S
C137 O142 1.254 . S
C137 O143 1.268 . S
O138 Dy131 2.351 . S
O138 C146 1.249 . S
O139 Dy128 2.326 . S
O139 C146 1.267 . S
O140 C129 1.185 . S
O140 Dy131 2.398 . S
O141 C129 1.355 . S
O141 Dy131 2.491 . S
O142 Dy131 2.403 . S
O142 C137 1.254 . S
O143 Dy128 2.310 . S
O143 Dy131 2.664 . S
O143 C137 1.268 . S
O144 Dy128 2.351 . S
O144 C147 1.249 . S
O145 Dy131 2.326 . S
O145 C147 1.267 . S
C146 O138 1.249 . S
C146 O139 1.267 . S
C147 O144 1.249 . S
C147 O145 1.267 . S
Dy148 O152 2.398 . S
Dy148 O153 2.491 . S
Dy148 O154 2.403 . S
Dy148 O155 2.664 1_655 S
Dy148 O159 2.326 . S
Dy148 O163 2.310 . S
Dy148 O164 2.351 1_655 S
C149 O160 1.185 . S
C149 O161 1.355 . S
C150 O152 1.185 . S
C150 O153 1.355 . S
Dy151 O155 2.310 . S
Dy151 O158 2.351 1_455 S
Dy151 O160 2.398 . S
Dy151 O161 2.491 . S
Dy151 O162 2.403 . S
Dy151 O163 2.664 1_455 S
Dy151 O165 2.326 . S
O152 Dy148 2.398 . S
O152 C150 1.185 . S
O153 Dy148 2.491 . S
O153 C150 1.355 . S
O154 Dy148 2.403 . S
O154 C156 1.254 . S
O155 Dy148 2.664 1_455 S
O155 Dy151 2.310 . S
O155 C156 1.268 1_455 S
C156 O154 1.254 . S
C156 O155 1.268 1_655 S
C157 O162 1.254 . S
C157 O163 1.268 1_455 S
O158 Dy151 2.351 1_655 S
O158 C166 1.249 . S
O159 Dy148 2.326 . S
O159 C166 1.267 . S
O160 C149 1.185 . S
O160 Dy151 2.398 . S
O161 C149 1.355 . S
O161 Dy151 2.491 . S
O162 Dy151 2.403 . S
O162 C157 1.254 . S
O163 Dy148 2.310 . S
O163 Dy151 2.664 1_655 S
O163 C157 1.268 1_655 S
O164 Dy148 2.351 1_455 S
O164 C167 1.249 . S
O165 Dy151 2.326 . S
O165 C167 1.267 . S
C166 O158 1.249 . S
C166 O159 1.267 . S
C167 O164 1.249 . S
C167 O165 1.267 . S
H168 C176 0.950 . S
H169 C181 0.950 . S
H170 C178 0.950 . S
H171 C180 0.950 . S
H172 C182 0.950 . S
H173 C184 0.950 . S
H174 C186 0.950 . S
H175 C187 0.950 . S
C176 H168 0.950 . S
C176 C177 1.386 . S
C176 C178 1.391 . S
C177 C176 1.386 . S
C177 C181 1.393 . S
C178 H170 0.950 . S
C178 C176 1.391 . S
C178 C179 1.400 . S
C179 C178 1.400 . S
C179 C180 1.398 . S
C179 C185 1.491 . S
C180 H171 0.950 . S
C180 C179 1.398 . S
C180 C181 1.391 . S
C181 H169 0.950 . S
C181 C177 1.393 . S
C181 C180 1.391 . S
C182 H172 0.950 . S
C182 C183 1.386 . S
C182 C184 1.391 . S
C183 C182 1.386 . S
C183 C187 1.393 . S
C184 H173 0.950 . S
C184 C182 1.391 . S
C184 C185 1.400 . S
C185 C179 1.491 . S
C185 C184 1.400 . S
C185 C186 1.398 . S
C186 H174 0.950 . S
C186 C185 1.398 . S
C186 C187 1.391 . S
C187 H175 0.950 . S
C187 C183 1.393 . S
C187 C186 1.391 . S
H188 C196 0.950 . S
H189 C201 0.950 . S
H190 C198 0.950 . S
H191 C200 0.950 . S
H192 C202 0.950 . S
H193 C204 0.950 . S
H194 C206 0.950 . S
H195 C207 0.950 . S
C196 H188 0.950 . S
C196 C197 1.386 . S
C196 C198 1.391 . S
C197 C196 1.386 . S
C197 C201 1.393 . S
C198 H190 0.950 . S
C198 C196 1.391 . S
C198 C199 1.400 . S
C199 C198 1.400 . S
C199 C200 1.398 . S
C199 C205 1.491 . S
C200 H191 0.950 . S
C200 C199 1.398 . S
C200 C201 1.391 . S
C201 H189 0.950 . S
C201 C197 1.393 . S
C201 C200 1.391 . S
C202 H192 0.950 . S
C202 C203 1.386 . S
C202 C204 1.391 . S
C203 C202 1.386 . S
C203 C207 1.393 . S
C204 H193 0.950 . S
C204 C202 1.391 . S
C204 C205 1.400 . S
C205 C199 1.491 . S
C205 C204 1.400 . S
C205 C206 1.398 . S
C206 H194 0.950 . S
C206 C205 1.398 . S
C206 C207 1.391 . S
C207 H195 0.950 . S
C207 C203 1.393 . S
C207 C206 1.391 . S
H208 C216 0.950 . S
H209 C221 0.950 . S
H210 C218 0.950 . S
H211 C220 0.950 . S
H212 C222 0.950 . S
H213 C224 0.950 . S
H214 C226 0.950 . S
H215 C227 0.950 . S
C216 H208 0.950 . S
C216 C217 1.386 . S
C216 C218 1.391 . S
C217 C216 1.386 . S
C217 C221 1.393 . S
C218 H210 0.950 . S
C218 C216 1.391 . S
C218 C219 1.400 . S
C219 C218 1.400 . S
C219 C220 1.398 . S
C219 C225 1.491 . S
C220 H211 0.950 . S
C220 C219 1.398 . S
C220 C221 1.391 . S
C221 H209 0.950 . S
C221 C217 1.393 . S
C221 C220 1.391 . S
C222 H212 0.950 . S
C222 C223 1.386 . S
C222 C224 1.391 . S
C223 C222 1.386 . S
C223 C227 1.393 . S
C224 H213 0.950 . S
C224 C222 1.391 . S
C224 C225 1.400 . S
C225 C219 1.491 . S
C225 C224 1.400 . S
C225 C226 1.398 . S
C226 H214 0.950 . S
C226 C225 1.398 . S
C226 C227 1.391 . S
C227 H215 0.950 . S
C227 C223 1.393 . S
C227 C226 1.391 . S
H228 C236 0.950 . S
H229 C241 0.950 . S
H230 C238 0.950 . S
H231 C240 0.950 . S
H232 C242 0.950 . S
H233 C244 0.950 . S
H234 C246 0.950 . S
H235 C247 0.950 . S
C236 H228 0.950 . S
C236 C237 1.368 1_655 S
C236 C238 1.391 . S
C237 C236 1.368 1_455 S
C237 C241 1.409 . S
C238 H230 0.950 . S
C238 C236 1.391 . S
C238 C239 1.398 . S
C239 C238 1.398 . S
C239 C240 1.401 1_655 S
C239 C245 1.490 . S
C240 H231 0.950 . S
C240 C239 1.401 1_455 S
C240 C241 1.391 . S
C241 H229 0.950 . S
C241 C237 1.409 . S
C241 C240 1.391 . S
C242 H232 0.950 . S
C242 C243 1.386 1_455 S
C242 C244 1.391 . S
C243 C242 1.386 1_655 S
C243 C247 1.393 . S
C244 H233 0.950 . S
C244 C242 1.391 . S
C244 C245 1.400 1_455 S
C245 C239 1.490 . S
C245 C244 1.400 1_655 S
C245 C246 1.398 . S
C246 H234 0.950 . S
C246 C245 1.398 . S
C246 C247 1.391 . S
C247 H235 0.950 . S
C247 C243 1.393 . S
C247 C246 1.391 . S
H248 C256 0.950 . S
H249 C261 0.950 . S
H250 C258 0.950 1_545 S
H251 C260 0.950 . S
H252 C262 0.950 . S
H253 C264 0.950 . S
H254 C266 0.950 . S
H255 C267 0.950 . S
C256 H248 0.950 . S
C256 C257 1.386 . S
C256 C258 1.391 . S
C257 C256 1.386 . S
C257 C261 1.393 . S
C258 H250 0.950 1_565 S
C258 C256 1.391 . S
C258 C259 1.400 . S
C259 C258 1.400 . S
C259 C260 1.398 . S
C259 C265 1.491 . S
C260 H251 0.950 . S
C260 C259 1.398 . S
C260 C261 1.391 . S
C261 H249 0.950 . S
C261 C257 1.393 . S
C261 C260 1.391 . S
C262 H252 0.950 . S
C262 C263 1.386 . S
C262 C264 1.391 . S
C263 C262 1.386 . S
C263 C267 1.393 1_565 S
C264 H253 0.950 . S
C264 C262 1.391 . S
C264 C265 1.400 . S
C265 C259 1.491 . S
C265 C264 1.400 . S
C265 C266 1.398 1_565 S
C266 H254 0.950 . S
C266 C265 1.398 1_545 S
C266 C267 1.391 . S
C267 H255 0.950 . S
C267 C263 1.393 1_545 S
C267 C266 1.391 . S
H268 C276 0.950 . S
H269 C281 0.950 . S
H270 C278 0.950 . S
H271 C280 0.950 . S
H272 C282 0.950 . S
H273 C284 0.950 . S
H274 C286 0.950 . S
H275 C287 0.950 . S
C276 H268 0.950 . S
C276 C277 1.386 . S
C276 C278 1.391 1_554 S
C277 C276 1.386 . S
C277 C281 1.393 1_554 S
C278 H270 0.950 . S
C278 C276 1.391 1_556 S
C278 C279 1.400 . S
C279 C278 1.400 . S
C279 C280 1.398 . S
C279 C285 1.491 . S
C280 H271 0.950 . S
C280 C279 1.398 . S
C280 C281 1.391 . S
C281 H269 0.950 . S
C281 C277 1.393 1_556 S
C281 C280 1.391 . S
C282 H272 0.950 . S
C282 C283 1.386 . S
C282 C284 1.391 . S
C283 C282 1.386 . S
C283 C287 1.393 . S
C284 H273 0.950 . S
C284 C282 1.391 . S
C284 C285 1.400 . S
C285 C279 1.491 . S
C285 C284 1.400 . S
C285 C286 1.398 . S
C286 H274 0.950 . S
C286 C285 1.398 . S
C286 C287 1.391 . S
C287 H275 0.950 . S
C287 C283 1.393 . S
C287 C286 1.391 . S
H288 C296 0.950 . S
H289 C301 0.950 . S
H290 C298 0.950 . S
H291 C300 0.950 . S
H292 C302 0.950 . S
H293 C304 0.950 . S
H294 C306 0.950 . S
H295 C307 0.950 . S
C296 H288 0.950 . S
C296 C297 1.386 1_554 S
C296 C298 1.391 1_554 S
C297 C296 1.386 1_556 S
C297 C301 1.393 . S
C298 H290 0.950 . S
C298 C296 1.391 1_556 S
C298 C299 1.400 . S
C299 C298 1.400 . S
C299 C300 1.398 . S
C299 C305 1.491 . S
C300 H291 0.950 . S
C300 C299 1.398 . S
C300 C301 1.391 . S
C301 H289 0.950 . S
C301 C297 1.393 . S
C301 C300 1.391 . S
C302 H292 0.950 . S
C302 C303 1.386 . S
C302 C304 1.391 . S
C303 C302 1.386 . S
C303 C307 1.393 . S
C304 H293 0.950 . S
C304 C302 1.391 . S
C304 C305 1.400 . S
C305 C299 1.491 . S
C305 C304 1.400 . S
C305 C306 1.398 . S
C306 H294 0.950 . S
C306 C305 1.398 . S
C306 C307 1.391 . S
C307 H295 0.950 . S
C307 C303 1.393 . S
C307 C306 1.391 . S
H308 C316 0.950 . S
H309 C321 0.950 . S
H310 C318 0.950 . S
H311 C320 0.950 . S
H312 C322 0.950 . S
H313 C324 0.950 . S
H314 C326 0.950 . S
H315 C327 0.950 . S
C316 H308 0.950 . S
C316 C317 1.377 1_655 S
C316 C318 1.391 . S
C317 C316 1.377 1_455 S
C317 C321 1.402 . S
C318 H310 0.950 . S
C318 C316 1.391 . S
C318 C319 1.378 1_655 S
C319 C318 1.378 1_455 S
C319 C320 1.419 . S
C319 C325 1.491 . S
C320 H311 0.950 . S
C320 C319 1.419 . S
C320 C321 1.391 . S
C321 H309 0.950 . S
C321 C317 1.402 . S
C321 C320 1.391 . S
C322 H312 0.950 . S
C322 C323 1.416 . S
C322 C324 1.391 . S
C323 C322 1.416 . S
C323 C327 1.361 1_455 S
C324 H313 0.950 . S
C324 C322 1.391 . S
C324 C325 1.419 . S
C325 C319 1.491 . S
C325 C324 1.419 . S
C325 C326 1.381 1_455 S
C326 H314 0.950 . S
C326 C325 1.381 1_655 S
C326 C327 1.391 . S
C327 H315 0.950 . S
C327 C323 1.361 1_655 S
C327 C326 1.391 . S
H328 C336 0.950 . S
H329 C341 0.950 . S
H330 C338 0.950 . S
H331 C340 0.950 . S
H332 C342 0.950 . S
H333 C344 0.950 . S
H334 C346 0.950 . S
H335 C347 0.950 . S
C336 H328 0.950 . S
C336 C337 1.404 . S
C336 C338 1.391 . S
C337 C336 1.404 . S
C337 C341 1.375 1_655 S
C338 H330 0.950 . S
C338 C336 1.391 . S
C338 C339 1.400 . S
C339 C338 1.400 . S
C339 C340 1.398 1_655 S
C339 C345 1.491 . S
C340 H331 0.950 . S
C340 C339 1.398 1_455 S
C340 C341 1.391 . S
C341 H329 0.950 . S
C341 C337 1.375 1_455 S
C341 C340 1.391 . S
C342 H332 0.950 . S
C342 C343 1.386 1_455 S
C342 C344 1.391 . S
C343 C342 1.386 1_655 S
C343 C347 1.393 . S
C344 H333 0.950 . S
C344 C342 1.391 . S
C344 C345 1.400 1_455 S
C345 C339 1.491 . S
C345 C344 1.400 1_655 S
C345 C346 1.398 . S
C346 H334 0.950 . S
C346 C345 1.398 . S
C346 C347 1.391 . S
C347 H335 0.950 . S
C347 C343 1.393 . S
C347 C346 1.391 . S
H348 C356 0.950 . S
H349 C361 0.950 . S
H350 C358 0.950 . S
H351 C360 0.950 . S
H352 C362 0.950 . S
H353 C364 0.950 . S
H354 C366 0.950 1_565 S
H355 C367 0.950 . S
C356 H348 0.950 . S
C356 C357 1.386 . S
C356 C358 1.391 . S
C357 C356 1.386 . S
C357 C361 1.393 . S
C358 H350 0.950 . S
C358 C356 1.391 . S
C358 C359 1.400 . S
C359 C358 1.400 . S
C359 C360 1.398 . S
C359 C365 1.491 . S
C360 H351 0.950 . S
C360 C359 1.398 . S
C360 C361 1.391 . S
C361 H349 0.950 . S
C361 C357 1.393 . S
C361 C360 1.391 . S
C362 H352 0.950 . S
C362 C363 1.386 . S
C362 C364 1.391 . S
C363 C362 1.386 . S
C363 C367 1.393 1_545 S
C364 H353 0.950 . S
C364 C362 1.391 . S
C364 C365 1.400 . S
C365 C359 1.491 . S
C365 C364 1.400 . S
C365 C366 1.398 . S
C366 H354 0.950 1_545 S
C366 C365 1.398 . S
C366 C367 1.391 1_545 S
C367 H355 0.950 . S
C367 C363 1.393 1_565 S
C367 C366 1.391 1_565 S
H368 C376 0.950 . S
H369 C381 0.950 . S
H370 C378 0.950 . S
H371 C380 0.950 . S
H372 C382 0.950 . S
H373 C384 0.950 . S
H374 C386 0.950 . S
H375 C387 0.950 . S
C376 H368 0.950 . S
C376 C377 1.386 . S
C376 C378 1.391 . S
C377 C376 1.386 . S
C377 C381 1.393 . S
C378 H370 0.950 . S
C378 C376 1.391 . S
C378 C379 1.400 . S
C379 C378 1.400 . S
C379 C380 1.398 . S
C379 C385 1.491 . S
C380 H371 0.950 . S
C380 C379 1.398 . S
C380 C381 1.391 . S
C381 H369 0.950 . S
C381 C377 1.393 . S
C381 C380 1.391 . S
C382 H372 0.950 . S
C382 C383 1.386 . S
C382 C384 1.391 . S
C383 C382 1.386 . S
C383 C387 1.393 . S
C384 H373 0.950 . S
C384 C382 1.391 . S
C384 C385 1.400 . S
C385 C379 1.491 . S
C385 C384 1.400 . S
C385 C386 1.398 . S
C386 H374 0.950 . S
C386 C385 1.398 . S
C386 C387 1.391 . S
C387 H375 0.950 . S
C387 C383 1.393 . S
C387 C386 1.391 . S
H388 C396 0.950 . S
H389 C401 0.950 . S
H390 C398 0.950 . S
H391 C400 0.950 . S
H392 C402 0.950 . S
H393 C404 0.950 . S
H394 C406 0.950 . S
H395 C407 0.950 . S
C396 H388 0.950 . S
C396 C397 1.386 . S
C396 C398 1.391 . S
C397 C396 1.386 . S
C397 C401 1.393 . S
C398 H390 0.950 . S
C398 C396 1.391 . S
C398 C399 1.400 . S
C399 C398 1.400 . S
C399 C400 1.398 . S
C399 C405 1.491 . S
C400 H391 0.950 . S
C400 C399 1.398 . S
C400 C401 1.391 . S
C401 H389 0.950 . S
C401 C397 1.393 . S
C401 C400 1.391 . S
C402 H392 0.950 . S
C402 C403 1.386 . S
C402 C404 1.391 . S
C403 C402 1.386 . S
C403 C407 1.393 . S
C404 H393 0.950 . S
C404 C402 1.391 . S
C404 C405 1.400 . S
C405 C399 1.491 . S
C405 C404 1.400 . S
C405 C406 1.398 . S
C406 H394 0.950 . S
C406 C405 1.398 . S
C406 C407 1.391 . S
C407 H395 0.950 . S
C407 C403 1.393 . S
C407 C406 1.391 . S
H408 C416 0.950 1_554 S
H409 C421 0.950 . S
H410 C418 0.950 . S
H411 C420 0.950 . S
H412 C422 0.950 . S
H413 C424 0.950 . S
H414 C426 0.950 1_655 S
H415 C427 0.956 . S
C416 H408 0.950 1_556 S
C416 C417 1.386 1_655 S
C416 C418 1.391 . S
C417 C416 1.386 1_455 S
C417 C421 1.393 . S
C418 H410 0.950 . S
C418 C416 1.391 . S
C418 C419 1.400 1_655 S
C419 C418 1.400 1_455 S
C419 C420 1.398 . S
C419 C425 1.491 . S
C420 H411 0.950 . S
C420 C419 1.398 . S
C420 C421 1.391 . S
C421 H409 0.950 . S
C421 C417 1.393 . S
C421 C420 1.391 . S
C422 H412 0.950 . S
C422 C423 1.386 . S
C422 C424 1.391 . S
C423 C422 1.386 . S
C423 C427 1.393 . S
C424 H413 0.950 . S
C424 C422 1.391 . S
C424 C425 1.400 . S
C425 C419 1.491 . S
C425 C424 1.400 . S
C425 C426 1.398 . S
C426 H414 0.950 1_455 S
C426 C425 1.398 . S
C426 C427 1.391 . S
C427 H415 0.956 . S
C427 C423 1.393 . S
C427 C426 1.391 . S
H428 C436 0.950 . S
H429 C441 0.941 1_554 S
H430 C438 0.950 . S
H431 C440 0.950 1_554 S
H432 C442 0.950 . S
H433 C444 0.950 . S
H434 C446 0.950 . S
H435 C447 0.950 . S
C436 H428 0.950 . S
C436 C437 1.386 . S
C436 C438 1.391 . S
C437 C436 1.386 . S
C437 C441 1.398 . S
C438 H430 0.950 . S
C438 C436 1.391 . S
C438 C439 1.400 . S
C439 C438 1.400 . S
C439 C440 1.398 . S
C439 C445 1.491 . S
C440 H431 0.950 1_556 S
C440 C439 1.398 . S
C440 C441 1.394 . S
C441 H429 0.941 1_556 S
C441 C437 1.398 . S
C441 C440 1.394 . S
C442 H432 0.950 . S
C442 C443 1.386 . S
C442 C444 1.391 . S
C443 C442 1.386 . S
C443 C447 1.393 . S
C444 H433 0.950 . S
C444 C442 1.391 . S
C444 C445 1.400 . S
C445 C439 1.491 . S
C445 C444 1.400 . S
C445 C446 1.398 . S
C446 H434 0.950 . S
C446 C445 1.398 . S
C446 C447 1.391 . S
C447 H435 0.950 . S
C447 C443 1.393 . S
C447 C446 1.391 . S
H448 C456 0.950 . S
H449 C461 0.950 . S
H450 C458 0.945 1_554 S
H451 C460 0.950 . S
H452 C462 0.950 . S
H453 C464 0.950 . S
H454 C466 0.950 . S
H455 C467 0.950 . S
C456 H448 0.950 . S
C456 C457 1.386 . S
C456 C458 1.386 1_554 S
C457 C456 1.386 . S
C457 C461 1.393 1_554 S
C458 H450 0.945 1_556 S
C458 C456 1.386 1_556 S
C458 C459 1.410 . S
C459 C458 1.410 . S
C459 C460 1.398 . S
C459 C465 1.491 . S
C460 H451 0.950 . S
C460 C459 1.398 . S
C460 C461 1.391 . S
C461 H449 0.950 . S
C461 C457 1.393 1_556 S
C461 C460 1.391 . S
C462 H452 0.950 . S
C462 C463 1.386 . S
C462 C464 1.391 . S
C463 C462 1.386 . S
C463 C467 1.393 . S
C464 H453 0.950 . S
C464 C462 1.391 . S
C464 C465 1.400 . S
C465 C459 1.491 . S
C465 C464 1.400 . S
C465 C466 1.398 . S
C466 H454 0.950 . S
C466 C465 1.398 . S
C466 C467 1.391 . S
C467 H455 0.950 . S
C467 C463 1.393 . S
C467 C466 1.391 . S
H468 C476 0.950 1_554 S
H469 C481 0.950 . S
H470 C478 0.950 . S
H471 C480 0.950 . S
H472 C482 0.950 . S
H473 C484 0.950 . S
H474 C486 0.950 . S
H475 C487 0.950 . S
C476 H468 0.950 1_556 S
C476 C477 1.386 . S
C476 C478 1.391 . S
C477 C476 1.386 . S
C477 C481 1.393 . S
C478 H470 0.950 . S
C478 C476 1.391 . S
C478 C479 1.400 . S
C479 C478 1.400 . S
C479 C480 1.398 . S
C479 C485 1.491 . S
C480 H471 0.950 . S
C480 C479 1.398 . S
C480 C481 1.391 . S
C481 H469 0.950 . S
C481 C477 1.393 . S
C481 C480 1.391 . S
C482 H472 0.950 . S
C482 C483 1.386 . S
C482 C484 1.391 . S
C483 C482 1.386 . S
C483 C487 1.393 . S
C484 H473 0.950 . S
C484 C482 1.391 . S
C484 C485 1.400 . S
C485 C479 1.491 . S
C485 C484 1.400 . S
C485 C486 1.398 . S
C486 H474 0.950 . S
C486 C485 1.398 . S
C486 C487 1.391 . S
C487 H475 0.950 . S
C487 C483 1.393 . S
C487 C486 1.391 . S
H488 C496 0.950 . S
H489 C501 0.950 . S
H490 C498 0.950 . S
H491 C500 0.950 . S
H492 C502 0.950 . S
H493 C504 0.950 . S
H494 C506 0.950 . S
H495 C507 0.950 . S
C496 H488 0.950 . S
C496 C497 1.386 1_655 S
C496 C498 1.391 . S
C497 C496 1.386 1_455 S
C497 C501 1.393 . S
C498 H490 0.950 . S
C498 C496 1.391 . S
C498 C499 1.400 1_655 S
C499 C498 1.400 1_455 S
C499 C500 1.398 . S
C499 C505 1.491 . S
C500 H491 0.950 . S
C500 C499 1.398 . S
C500 C501 1.391 . S
C501 H489 0.950 . S
C501 C497 1.393 . S
C501 C500 1.391 . S
C502 H492 0.950 . S
C502 C503 1.386 . S
C502 C504 1.391 . S
C503 C502 1.386 . S
C503 C507 1.393 1_455 S
C504 H493 0.950 . S
C504 C502 1.391 . S
C504 C505 1.400 . S
C505 C499 1.491 . S
C505 C504 1.400 . S
C505 C506 1.398 1_455 S
C506 H494 0.950 . S
C506 C505 1.398 1_655 S
C506 C507 1.391 . S
C507 H495 0.950 . S
C507 C503 1.393 1_655 S
C507 C506 1.391 . S
H508 C516 0.950 1_554 S
H509 C521 0.950 . S
H510 C518 0.950 . S
H511 C520 0.950 . S
H512 C522 0.950 . S
H513 C524 0.950 . S
H514 C526 0.950 . S
H515 C527 0.950 1_565 S
C516 H508 0.950 1_556 S
C516 C517 1.386 . S
C516 C518 1.391 . S
C517 C516 1.386 . S
C517 C521 1.393 . S
C518 H510 0.950 . S
C518 C516 1.391 . S
C518 C519 1.400 . S
C519 C518 1.400 . S
C519 C520 1.398 . S
C519 C525 1.491 . S
C520 H511 0.950 . S
C520 C519 1.398 . S
C520 C521 1.391 . S
C521 H509 0.950 . S
C521 C517 1.393 . S
C521 C520 1.391 . S
C522 H512 0.950 . S
C522 C523 1.386 . S
C522 C524 1.391 . S
C523 C522 1.386 . S
C523 C527 1.393 . S
C524 H513 0.950 . S
C524 C522 1.391 . S
C524 C525 1.400 . S
C525 C519 1.491 . S
C525 C524 1.400 . S
C525 C526 1.398 . S
C526 H514 0.950 . S
C526 C525 1.398 . S
C526 C527 1.391 . S
C527 H515 0.950 1_545 S
C527 C523 1.393 . S
C527 C526 1.391 . S
H528 C536 0.950 . S
H529 C541 0.950 . S
H530 C538 0.950 . S
H531 C540 0.950 . S
H532 C542 0.950 . S
H533 C544 0.950 . S
H534 C546 0.950 . S
H535 C547 0.950 . S
C536 H528 0.950 . S
C536 C537 1.386 . S
C536 C538 1.391 . S
C537 C536 1.386 . S
C537 C541 1.393 . S
C538 H530 0.950 . S
C538 C536 1.391 . S
C538 C539 1.400 . S
C539 C538 1.400 . S
C539 C540 1.398 . S
C539 C545 1.491 . S
C540 H531 0.950 . S
C540 C539 1.398 . S
C540 C541 1.391 . S
C541 H529 0.950 . S
C541 C537 1.393 . S
C541 C540 1.391 . S
C542 H532 0.950 . S
C542 C543 1.386 . S
C542 C544 1.391 . S
C543 C542 1.386 . S
C543 C547 1.393 . S
C544 H533 0.950 . S
C544 C542 1.391 . S
C544 C545 1.400 . S
C545 C539 1.491 . S
C545 C544 1.400 . S
C545 C546 1.398 . S
C546 H534 0.950 . S
C546 C545 1.398 . S
C546 C547 1.391 . S
C547 H535 0.950 . S
C547 C543 1.393 . S
C547 C546 1.391 . S
H548 C556 0.950 . S
H549 C561 0.950 . S
H550 C558 0.950 . S
H551 C560 0.950 . S
H552 C562 0.950 . S
H553 C564 0.950 . S
H554 C566 0.950 . S
H555 C567 0.950 . S
C556 H548 0.950 . S
C556 C557 1.386 . S
C556 C558 1.391 . S
C557 C556 1.386 . S
C557 C561 1.393 . S
C558 H550 0.950 . S
C558 C556 1.391 . S
C558 C559 1.400 . S
C559 C558 1.400 . S
C559 C560 1.398 . S
C559 C565 1.491 . S
C560 H551 0.950 . S
C560 C559 1.398 . S
C560 C561 1.391 . S
C561 H549 0.950 . S
C561 C557 1.393 . S
C561 C560 1.391 . S
C562 H552 0.950 . S
C562 C563 1.386 . S
C562 C564 1.391 . S
C563 C562 1.386 . S
C563 C567 1.393 . S
C564 H553 0.950 . S
C564 C562 1.391 . S
C564 C565 1.400 . S
C565 C559 1.491 . S
C565 C564 1.400 . S
C565 C566 1.398 . S
C566 H554 0.950 . S
C566 C565 1.398 . S
C566 C567 1.391 . S
C567 H555 0.950 . S
C567 C563 1.393 . S
C567 C566 1.391 . S
H568 C576 0.950 . S
H569 C581 0.950 . S
H570 C578 0.950 . S
H571 C580 0.950 . S
H572 C582 0.950 . S
H573 C584 0.950 . S
H574 C586 0.950 . S
H575 C587 0.950 . S
C576 H568 0.950 . S
C576 C577 1.386 1_455 S
C576 C578 1.391 . S
C577 C576 1.386 1_655 S
C577 C581 1.393 . S
C578 H570 0.950 . S
C578 C576 1.391 . S
C578 C579 1.400 1_455 S
C579 C578 1.400 1_655 S
C579 C580 1.398 . S
C579 C585 1.491 . S
C580 H571 0.950 . S
C580 C579 1.398 . S
C580 C581 1.391 . S
C581 H569 0.950 . S
C581 C577 1.393 . S
C581 C580 1.391 . S
C582 H572 0.950 . S
C582 C583 1.386 . S
C582 C584 1.391 . S
C583 C582 1.386 . S
C583 C587 1.393 1_655 S
C584 H573 0.950 . S
C584 C582 1.391 . S
C584 C585 1.400 . S
C585 C579 1.491 . S
C585 C584 1.400 . S
C585 C586 1.398 1_655 S
C586 H574 0.950 . S
C586 C585 1.398 1_455 S
C586 C587 1.391 . S
C587 H575 0.950 . S
C587 C583 1.393 1_455 S
C587 C586 1.391 . S
H588 C596 0.950 . S
H589 C601 0.950 . S
H590 C598 0.950 . S
H591 C600 0.950 . S
H592 C602 0.950 . S
H593 C604 0.950 1_545 S
H594 C606 0.950 . S
H595 C607 0.950 . S
C596 H588 0.950 . S
C596 C597 1.386 . S
C596 C598 1.391 . S
C597 C596 1.386 . S
C597 C601 1.393 . S
C598 H590 0.950 . S
C598 C596 1.391 . S
C598 C599 1.400 . S
C599 C598 1.400 . S
C599 C600 1.398 . S
C599 C605 1.491 . S
C600 H591 0.950 . S
C600 C599 1.398 . S
C600 C601 1.391 . S
C601 H589 0.950 . S
C601 C597 1.393 . S
C601 C600 1.391 . S
C602 H592 0.950 . S
C602 C603 1.386 1_545 S
C602 C604 1.391 1_545 S
C603 C602 1.386 1_565 S
C603 C607 1.393 . S
C604 H593 0.950 1_565 S
C604 C602 1.391 1_565 S
C604 C605 1.400 . S
C605 C599 1.491 . S
C605 C604 1.400 . S
C605 C606 1.398 . S
C606 H594 0.950 . S
C606 C605 1.398 . S
C606 C607 1.391 . S
C607 H595 0.950 . S
C607 C603 1.393 . S
C607 C606 1.391 . S
H608 C616 0.950 . S
H609 C621 0.950 . S
H610 C618 0.950 . S
H611 C620 0.950 . S
H612 C622 0.950 . S
H613 C624 0.950 . S
H614 C626 0.950 . S
H615 C627 0.950 . S
C616 H608 0.950 . S
C616 C617 1.386 . S
C616 C618 1.391 . S
C617 C616 1.386 . S
C617 C621 1.393 . S
C618 H610 0.950 . S
C618 C616 1.391 . S
C618 C619 1.400 . S
C619 C618 1.400 . S
C619 C620 1.398 . S
C619 C625 1.491 . S
C620 H611 0.950 . S
C620 C619 1.398 . S
C620 C621 1.391 . S
C621 H609 0.950 . S
C621 C617 1.393 . S
C621 C620 1.391 . S
C622 H612 0.950 . S
C622 C623 1.386 . S
C622 C624 1.391 . S
C623 C622 1.386 . S
C623 C627 1.393 . S
C624 H613 0.950 . S
C624 C622 1.391 . S
C624 C625 1.400 . S
C625 C619 1.491 . S
C625 C624 1.400 . S
C625 C626 1.398 . S
C626 H614 0.950 . S
C626 C625 1.398 . S
C626 C627 1.391 . S
C627 H615 0.950 . S
C627 C623 1.393 . S
C627 C626 1.391 . S
H628 C636 0.950 . S
H629 C641 0.950 . S
H630 C638 0.950 . S
H631 C640 0.950 . S
H632 C642 0.950 . S
H633 C644 0.950 . S
H634 C646 0.950 . S
H635 C647 0.950 . S
C636 H628 0.950 . S
C636 C637 1.386 . S
C636 C638 1.391 . S
C637 C636 1.386 . S
C637 C641 1.393 . S
C638 H630 0.950 . S
C638 C636 1.391 . S
C638 C639 1.400 . S
C639 C638 1.400 . S
C639 C640 1.398 . S
C639 C645 1.491 . S
C640 H631 0.950 . S
C640 C639 1.398 . S
C640 C641 1.391 . S
C641 H629 0.950 . S
C641 C637 1.393 . S
C641 C640 1.391 . S
C642 H632 0.950 . S
C642 C643 1.386 . S
C642 C644 1.391 . S
C643 C642 1.386 . S
C643 C647 1.393 . S
C644 H633 0.950 . S
C644 C642 1.391 . S
C644 C645 1.400 . S
C645 C639 1.491 . S
C645 C644 1.400 . S
C645 C646 1.398 . S
C646 H634 0.950 . S
C646 C645 1.398 . S
C646 C647 1.391 . S
C647 H635 0.950 . S
C647 C643 1.393 . S
C647 C646 1.391 . S
C177 C76 1.652 . S
C183 C96 1.703 . S
C203 C126 1.792 . S
C197 C87 1.736 . S
C223 C136 1.525 . S
C217 C54 1.446 . S
C243 C156 1.383 . S
C237 C65 1.343 1_455 S
C263 C97 1.701 . S
C257 C32 1.677 . S
C277 C43 1.762 . S
C283 C127 1.805 . S
C297 C10 1.461 1_556 S
C303 C137 1.517 . S
C317 C21 1.329 1_455 S
C323 C157 1.399 . S
C343 C89 0.850 . S
C337 C60 0.824 1_655 S
C363 C110 0.535 . S
C357 C71 0.556 . S
C383 C129 1.005 . S
C377 C82 0.979 . S
C397 C49 0.753 . S
C403 C149 0.718 . S
C417 C16 0.829 . S
C423 C90 0.842 . S
C443 C109 0.544 1_565 S
C437 C27 0.612 . S
C463 C130 0.997 . S
C457 C38 0.981 . S
C477 C5 0.716 1_556 S
C483 C150 0.753 . S
C497 C59 1.523 . S
C503 C107 1.586 . S
C517 C70 1.399 1_556 S
C523 C117 1.478 . S
C543 C147 1.798 . S
C537 C81 1.699 . S
C563 C167 1.797 . S
C557 C48 1.683 . S
C577 C15 1.492 1_655 S
C583 C106 1.591 . S
C603 C116 1.484 . S
C597 C26 1.398 . S
C623 C146 1.788 . S
C617 C37 1.674 . S
C637 C4 1.683 . S
C643 C166 1.801 . S
