# Generated by pormake.
# Topology ctn, (3,4)-cn, num edge types: 1
# Building blocks:
#     Node 0, Type 0, BuildingBlock: ESEHIV_clean_linker_0, # of connection points: 3
#     Node 1, Type 0, BuildingBlock: ESEHIV_clean_linker_0, # of connection points: 3
#     Node 2, Type 0, BuildingBlock: ESEHIV_clean_linker_0, # of connection points: 3
#     Node 3, Type 0, BuildingBlock: ESEHIV_clean_linker_0, # of connection points: 3
#     Node 4, Type 0, BuildingBlock: ESEHIV_clean_linker_0, # of connection points: 3
#     Node 5, Type 0, BuildingBlock: ESEHIV_clean_linker_0, # of connection points: 3
#     Node 6, Type 0, BuildingBlock: ESEHIV_clean_linker_0, # of connection points: 3
#     Node 7, Type 0, BuildingBlock: ESEHIV_clean_linker_0, # of connection points: 3
#     Node 8, Type 0, BuildingBlock: ESEHIV_clean_linker_0, # of connection points: 3
#     Node 9, Type 0, BuildingBlock: ESEHIV_clean_linker_0, # of connection points: 3
#     Node 10, Type 0, BuildingBlock: ESEHIV_clean_linker_0, # of connection points: 3
#     Node 11, Type 0, BuildingBlock: ESEHIV_clean_linker_0, # of connection points: 3
#     Node 12, Type 0, BuildingBlock: ESEHIV_clean_linker_0, # of connection points: 3
#     Node 13, Type 0, BuildingBlock: ESEHIV_clean_linker_0, # of connection points: 3
#     Node 14, Type 0, BuildingBlock: ESEHIV_clean_linker_0, # of connection points: 3
#     Node 15, Type 0, BuildingBlock: ESEHIV_clean_linker_0, # of connection points: 3
#     Node 16, Type 1, BuildingBlock: AZAVOO_clean_sbu_0, # of connection points: 4
#     Node 17, Type 1, BuildingBlock: AZAVOO_clean_sbu_0, # of connection points: 4
#     Node 18, Type 1, BuildingBlock: AZAVOO_clean_sbu_0, # of connection points: 4
#     Node 19, Type 1, BuildingBlock: AZAVOO_clean_sbu_0, # of connection points: 4
#     Node 20, Type 1, BuildingBlock: AZAVOO_clean_sbu_0, # of connection points: 4
#     Node 21, Type 1, BuildingBlock: AZAVOO_clean_sbu_0, # of connection points: 4
#     Node 22, Type 1, BuildingBlock: AZAVOO_clean_sbu_0, # of connection points: 4
#     Node 23, Type 1, BuildingBlock: AZAVOO_clean_sbu_0, # of connection points: 4
#     Node 24, Type 1, BuildingBlock: AZAVOO_clean_sbu_0, # of connection points: 4
#     Node 25, Type 1, BuildingBlock: AZAVOO_clean_sbu_0, # of connection points: 4
#     Node 26, Type 1, BuildingBlock: AZAVOO_clean_sbu_0, # of connection points: 4
#     Node 27, Type 1, BuildingBlock: AZAVOO_clean_sbu_0, # of connection points: 4
#     Edge 28, Type (0, 1), BuildingBlock: XIVTED_clean_linker_0, # of connection points: 2
#     Edge 29, Type (0, 1), BuildingBlock: XIVTED_clean_linker_0, # of connection points: 2
#     Edge 30, Type (0, 1), BuildingBlock: XIVTED_clean_linker_0, # of connection points: 2
#     Edge 31, Type (0, 1), BuildingBlock: XIVTED_clean_linker_0, # of connection points: 2
#     Edge 32, Type (0, 1), BuildingBlock: XIVTED_clean_linker_0, # of connection points: 2
#     Edge 33, Type (0, 1), BuildingBlock: XIVTED_clean_linker_0, # of connection points: 2
#     Edge 34, Type (0, 1), BuildingBlock: XIVTED_clean_linker_0, # of connection points: 2
#     Edge 35, Type (0, 1), BuildingBlock: XIVTED_clean_linker_0, # of connection points: 2
#     Edge 36, Type (0, 1), BuildingBlock: XIVTED_clean_linker_0, # of connection points: 2
#     Edge 37, Type (0, 1), BuildingBlock: XIVTED_clean_linker_0, # of connection points: 2
#     Edge 38, Type (0, 1), BuildingBlock: XIVTED_clean_linker_0, # of connection points: 2
#     Edge 39, Type (0, 1), BuildingBlock: XIVTED_clean_linker_0, # of connection points: 2
#     Edge 40, Type (0, 1), BuildingBlock: XIVTED_clean_linker_0, # of connection points: 2
#     Edge 41, Type (0, 1), BuildingBlock: XIVTED_clean_linker_0, # of connection points: 2
#     Edge 42, Type (0, 1), BuildingBlock: XIVTED_clean_linker_0, # of connection points: 2
#     Edge 43, Type (0, 1), BuildingBlock: XIVTED_clean_linker_0, # of connection points: 2
#     Edge 44, Type (0, 1), BuildingBlock: XIVTED_clean_linker_0, # of connection points: 2
#     Edge 45, Type (0, 1), BuildingBlock: XIVTED_clean_linker_0, # of connection points: 2
#     Edge 46, Type (0, 1), BuildingBlock: XIVTED_clean_linker_0, # of connection points: 2
#     Edge 47, Type (0, 1), BuildingBlock: XIVTED_clean_linker_0, # of connection points: 2
#     Edge 48, Type (0, 1), BuildingBlock: XIVTED_clean_linker_0, # of connection points: 2
#     Edge 49, Type (0, 1), BuildingBlock: XIVTED_clean_linker_0, # of connection points: 2
#     Edge 50, Type (0, 1), BuildingBlock: XIVTED_clean_linker_0, # of connection points: 2
#     Edge 51, Type (0, 1), BuildingBlock: XIVTED_clean_linker_0, # of connection points: 2
#     Edge 52, Type (0, 1), BuildingBlock: XIVTED_clean_linker_0, # of connection points: 2
#     Edge 53, Type (0, 1), BuildingBlock: XIVTED_clean_linker_0, # of connection points: 2
#     Edge 54, Type (0, 1), BuildingBlock: XIVTED_clean_linker_0, # of connection points: 2
#     Edge 55, Type (0, 1), BuildingBlock: XIVTED_clean_linker_0, # of connection points: 2
#     Edge 56, Type (0, 1), BuildingBlock: XIVTED_clean_linker_0, # of connection points: 2
#     Edge 57, Type (0, 1), BuildingBlock: XIVTED_clean_linker_0, # of connection points: 2
#     Edge 58, Type (0, 1), BuildingBlock: XIVTED_clean_linker_0, # of connection points: 2
#     Edge 59, Type (0, 1), BuildingBlock: XIVTED_clean_linker_0, # of connection points: 2
#     Edge 60, Type (0, 1), BuildingBlock: XIVTED_clean_linker_0, # of connection points: 2
#     Edge 61, Type (0, 1), BuildingBlock: XIVTED_clean_linker_0, # of connection points: 2
#     Edge 62, Type (0, 1), BuildingBlock: XIVTED_clean_linker_0, # of connection points: 2
#     Edge 63, Type (0, 1), BuildingBlock: XIVTED_clean_linker_0, # of connection points: 2
#     Edge 64, Type (0, 1), BuildingBlock: XIVTED_clean_linker_0, # of connection points: 2
#     Edge 65, Type (0, 1), BuildingBlock: XIVTED_clean_linker_0, # of connection points: 2
#     Edge 66, Type (0, 1), BuildingBlock: XIVTED_clean_linker_0, # of connection points: 2
#     Edge 67, Type (0, 1), BuildingBlock: XIVTED_clean_linker_0, # of connection points: 2
#     Edge 68, Type (0, 1), BuildingBlock: XIVTED_clean_linker_0, # of connection points: 2
#     Edge 69, Type (0, 1), BuildingBlock: XIVTED_clean_linker_0, # of connection points: 2
#     Edge 70, Type (0, 1), BuildingBlock: XIVTED_clean_linker_0, # of connection points: 2
#     Edge 71, Type (0, 1), BuildingBlock: XIVTED_clean_linker_0, # of connection points: 2
#     Edge 72, Type (0, 1), BuildingBlock: XIVTED_clean_linker_0, # of connection points: 2
#     Edge 73, Type (0, 1), BuildingBlock: XIVTED_clean_linker_0, # of connection points: 2
#     Edge 74, Type (0, 1), BuildingBlock: XIVTED_clean_linker_0, # of connection points: 2
#     Edge 75, Type (0, 1), BuildingBlock: XIVTED_clean_linker_0, # of connection points: 2
# Relax obj value: 0.002
# Max RMSD: 0.042
# Mean RMSD: 0.022
data_MOF--net-ctn--node1-AZAVOO_clean_sbu_0--node2-ESEHIV_clean_linker_0--edge1-XIVTED_clean_linker_0
_symmetry_space_group_name_H-M    P1
_symmetry_Int_Tables_number       1
_symmetry_cell_setting            triclinic
loop_
_symmetry_equiv_pos_as_xyz
'x, y, z'
_cell_length_a     51.070413
_cell_length_b     52.003835
_cell_length_c     51.951491
_cell_angle_alpha  89.998838
_cell_angle_beta   93.155723
_cell_angle_gamma 93.267317
loop_
_atom_site_label
_atom_site_type_symbol
_atom_site_fract_x
_atom_site_fract_y
_atom_site_fract_z
_atom_type_partial_charge
H0 H 0.99493 0.03569 0.01094 0.0
H1 H 0.03164 0.96389 0.02085 0.0
H2 H 0.05842 0.01822 0.96409 0.0
C3 C 0.00908 0.0224 0.00508 0.0
C4 C 0.02628 0.02979 0.9859 0.0
C5 C 0.01103 0.99887 0.01801 0.0
C6 C 0.02968 0.9819 0.0106 0.0
C7 C 0.04666 0.98859 0.99092 0.0
C8 C 0.04484 0.0126 0.97866 0.0
H9 H 0.31931 0.71549 0.27518 0.0
H10 H 0.35663 0.774 0.22834 0.0
H11 H 0.28399 0.73478 0.20146 0.0
C12 C 0.3196 0.7271 0.25787 0.0
C13 C 0.29931 0.72303 0.23879 0.0
C14 C 0.34076 0.74511 0.25426 0.0
C15 C 0.34045 0.76026 0.23176 0.0
C16 C 0.31992 0.75657 0.21281 0.0
C17 C 0.29961 0.73785 0.21634 0.0
H18 H 0.97532 0.52915 0.07859 0.0
H19 H 0.02184 0.46635 0.05904 0.0
H20 H 0.94724 0.47538 0.01877 0.0
C21 C 0.97804 0.51229 0.06697 0.0
C22 C 0.9586 0.50406 0.04801 0.0
C23 C 0.00119 0.49911 0.07065 0.0
C24 C 0.00441 0.47715 0.05574 0.0
C25 C 0.98506 0.46851 0.03709 0.0
C26 C 0.96245 0.48233 0.03287 0.0
H27 H 0.69788 0.78058 0.23088 0.0
H28 H 0.76483 0.81845 0.19783 0.0
H29 H 0.73036 0.85283 0.26241 0.0
C30 C 0.71199 0.79694 0.2303 0.0
C31 C 0.71158 0.81689 0.24846 0.0
C32 C 0.73124 0.79744 0.21214 0.0
C33 C 0.74998 0.81814 0.21199 0.0
C34 C 0.74979 0.83836 0.2299 0.0
C35 C 0.73019 0.83783 0.2479 0.0
H36 H 0.00793 0.95014 0.46232 0.0
H37 H 0.04437 0.02634 0.45665 0.0
H38 H 0.06648 0.97722 0.52004 0.0
C39 C 0.0215 0.9654 0.47 0.0
C40 C 0.03673 0.96104 0.49271 0.0
C41 C 0.02397 0.98893 0.45687 0.0
C42 C 0.04155 0.00849 0.46718 0.0
C43 C 0.05701 0.00448 0.48995 0.0
C44 C 0.05434 0.9807 0.50276 0.0
H45 H 0.16593 0.72698 0.77495 0.0
H46 H 0.23648 0.6903 0.79903 0.0
H47 H 0.20048 0.67496 0.72364 0.0
C48 C 0.18106 0.71397 0.77098 0.0
C49 C 0.18079 0.70165 0.74681 0.0
C50 C 0.20086 0.70959 0.79007 0.0
C51 C 0.22061 0.69298 0.78472 0.0
C52 C 0.22076 0.68059 0.76079 0.0
C53 C 0.20076 0.68498 0.74195 0.0
H54 H 0.92946 0.5101 0.48149 0.0
H55 H 0.98765 0.5451 0.4336 0.0
H56 H 0.94916 0.47211 0.41219 0.0
C57 C 0.94059 0.50997 0.46434 0.0
C58 C 0.93665 0.48902 0.44717 0.0
C59 C 0.95907 0.53034 0.45983 0.0
C60 C 0.97369 0.52938 0.43774 0.0
C61 C 0.97052 0.5083 0.42075 0.0
C62 C 0.95209 0.48809 0.42565 0.0
H63 H 0.76013 0.78899 0.80915 0.0
H64 H 0.80442 0.80641 0.74279 0.0
H65 H 0.82809 0.74704 0.79541 0.0
C66 C 0.77671 0.78575 0.79766 0.0
C67 C 0.79408 0.76688 0.80543 0.0
C68 C 0.78044 0.80052 0.77544 0.0
C69 C 0.80128 0.79523 0.76004 0.0
C70 C 0.8182 0.77557 0.76678 0.0
C71 C 0.81453 0.76152 0.7896 0.0
H72 H 0.24923 0.29137 0.30531 0.0
H73 H 0.29839 0.31043 0.24287 0.0
H74 H 0.31671 0.24789 0.29369 0.0
C75 C 0.26652 0.28814 0.29485 0.0
C76 C 0.2827 0.26829 0.30271 0.0
C77 C 0.27233 0.30399 0.27382 0.0
C78 C 0.29379 0.29856 0.25932 0.0
C79 C 0.30944 0.27787 0.26591 0.0
C80 C 0.30396 0.26303 0.28785 0.0
H81 H 0.46965 0.02771 0.58203 0.0
H82 H 0.51118 0.96499 0.55305 0.0
H83 H 0.4407 0.98746 0.51284 0.0
C84 C 0.47179 0.01298 0.56769 0.0
C85 C 0.45304 0.01007 0.54679 0.0
C86 C 0.49278 0.9966 0.57046 0.0
C87 C 0.49487 0.97744 0.55172 0.0
C88 C 0.47592 0.97372 0.53133 0.0
C89 C 0.45498 0.98999 0.52899 0.0
H90 H 0.18553 0.29075 0.72282 0.0
H91 H 0.24997 0.33519 0.69186 0.0
H92 H 0.21589 0.36084 0.76054 0.0
C93 C 0.19882 0.30779 0.72341 0.0
C94 C 0.19802 0.3257 0.74355 0.0
C95 C 0.21754 0.31106 0.70479 0.0
C96 C 0.23511 0.3328 0.70595 0.0
C97 C 0.23438 0.3509 0.72584 0.0
C98 C 0.21581 0.34734 0.74462 0.0
H99 H 0.81761 0.21026 0.7731 0.0
H100 H 0.84667 0.27509 0.72904 0.0
H101 H 0.78208 0.22547 0.69837 0.0
C102 C 0.81648 0.22224 0.75604 0.0
C103 C 0.79758 0.21573 0.73621 0.0
C104 C 0.83417 0.24376 0.75381 0.0
C105 C 0.83295 0.25865 0.73118 0.0
C106 C 0.81429 0.25195 0.71107 0.0
C107 C 0.79648 0.23071 0.71389 0.0
H108 H 0.50228 0.54348 0.51836 0.0
H109 H 0.5468 0.47707 0.53417 0.0
H110 H 0.57096 0.53129 0.47654 0.0
C111 C 0.51828 0.53167 0.51404 0.0
C112 C 0.53585 0.54007 0.49548 0.0
C113 C 0.52216 0.50917 0.52834 0.0
C114 C 0.54339 0.49436 0.52312 0.0
C115 C 0.56073 0.50204 0.50413 0.0
C116 C 0.55674 0.52474 0.49018 0.0
H117 H 0.50432 0.45396 0.97437 0.0
H118 H 0.54726 0.52485 0.95739 0.0
H119 H 0.57061 0.48048 0.02385 0.0
C120 C 0.51993 0.4684 0.9793 0.0
C121 C 0.53691 0.46474 0.00102 0.0
C122 C 0.52356 0.48996 0.96333 0.0
C123 C 0.54389 0.50849 0.96994 0.0
C124 C 0.56094 0.50532 0.99176 0.0
C125 C 0.55751 0.4832 0.00706 0.0
H126 H 0.65961 0.21957 0.27448 0.0
H127 H 0.73258 0.18668 0.29685 0.0
H128 H 0.69723 0.1717 0.22124 0.0
C129 C 0.67569 0.20806 0.26969 0.0
C130 C 0.67561 0.19609 0.24531 0.0
C131 C 0.69611 0.20464 0.28838 0.0
C132 C 0.71644 0.1889 0.28271 0.0
C133 C 0.71682 0.17675 0.2587 0.0
C134 C 0.69658 0.18071 0.23996 0.0
H135 H 0.42927 0.01597 0.97939 0.0
H136 H 0.50263 0.03947 0.94722 0.0
H137 H 0.46224 0.96809 0.92325 0.0
C138 C 0.44461 0.0125 0.96643 0.0
C139 C 0.44313 0.98973 0.95165 0.0
C140 C 0.46591 0.03069 0.96483 0.0
C141 C 0.48592 0.02577 0.94833 0.0
C142 C 0.48472 0.00327 0.93331 0.0
C143 C 0.46318 0.98546 0.93487 0.0
Mg144 Mg 0.23834 0.8413 0.00408 0.0
O145 O 0.276 0.86301 0.99114 0.0
O146 O 0.30697 0.83421 0.99254 0.0
Mg147 Mg 0.29028 0.79553 0.00701 0.0
C148 C 0.29954 0.8569 0.98801 0.0
C149 C 0.18865 0.86541 0.98371 0.0
O150 O 0.18216 0.84062 0.98454 0.0
O151 O 0.23307 0.82022 0.96534 0.0
O152 O 0.26321 0.79085 0.97041 0.0
O153 O 0.24937 0.85147 0.0454 0.0
O154 O 0.26074 0.81642 0.026 0.0
C155 C 0.24429 0.80061 0.9574 0.0
C156 C 0.26215 0.83066 0.04632 0.0
O157 O 0.21229 0.87304 0.98973 0.0
Mg158 Mg 0.16222 0.52085 0.27186 0.0
O159 O 0.13883 0.52286 0.23286 0.0
O160 O 0.1677 0.52737 0.20217 0.0
Mg161 Mg 0.20913 0.52907 0.22119 0.0
C162 C 0.14412 0.52519 0.2092 0.0
C163 C 0.10548 0.52062 0.28936 0.0
O164 O 0.10694 0.54141 0.27502 0.0
O165 O 0.17309 0.48 0.26292 0.0
O166 O 0.20313 0.48676 0.23354 0.0
O167 O 0.16331 0.56356 0.2763 0.0
O168 O 0.19329 0.54274 0.257 0.0
C169 C 0.18982 0.47171 0.24799 0.0
C170 C 0.18443 0.56436 0.26358 0.0
O171 O 0.12518 0.50672 0.29145 0.0
Mg172 Mg 0.77298 0.65693 0.02885 0.0
O173 O 0.73309 0.63369 0.02376 0.0
O174 O 0.70254 0.66291 0.02199 0.0
Mg175 Mg 0.72158 0.70345 0.02731 0.0
C176 C 0.70908 0.63958 0.02139 0.0
C177 C 0.79717 0.60429 0.03632 0.0
O178 O 0.78256 0.60525 0.0563 0.0
O179 O 0.77001 0.66963 0.98661 0.0
O180 O 0.74094 0.69997 0.98881 0.0
O181 O 0.7717 0.6561 0.0719 0.0
O182 O 0.75499 0.68627 0.04732 0.0
C183 C 0.75701 0.68758 0.97626 0.0
C184 C 0.75881 0.67676 0.06997 0.0
O185 O 0.79605 0.62211 0.01962 0.0
Mg186 Mg 0.91653 0.03777 0.2281 0.0
O187 O 0.89173 -0.00055 0.22736 0.0
O188 O 0.91852 0.96792 0.22045 0.0
Mg189 Mg 0.96026 0.98544 0.21818 0.0
C190 C 0.89574 0.97565 0.22419 0.0
C191 C 0.8753 0.07765 0.22764 0.0
O192 O 0.88961 0.08385 0.20807 0.0
O193 O 0.93235 0.02883 0.26926 0.0
O194 O 0.95875 0.99749 0.26043 0.0
O195 O 0.91116 0.04005 0.18517 0.0
O196 O 0.94414 0.02165 0.20557 0.0
C197 C 0.94874 0.01219 0.27648 0.0
C198 C 0.93178 0.02685 0.18413 0.0
O199 O 0.88167 0.05877 0.24177 0.0
Mg200 Mg 0.26259 0.16352 0.52688 0.0
O201 O 0.22355 0.13849 0.52439 0.0
O202 O 0.19175 0.16642 0.5223 0.0
Mg203 Mg 0.20913 0.20774 0.52451 0.0
C204 C 0.19922 0.14339 0.52266 0.0
C205 C 0.31169 0.13599 0.5232 0.0
O206 O 0.31849 0.16023 0.5286 0.0
O207 O 0.25758 0.17353 0.48399 0.0
O208 O 0.22701 0.20248 0.4855 0.0
O209 O 0.263 0.16515 0.56996 0.0
O210 O 0.24404 0.19309 0.54418 0.0
C211 C 0.24317 0.19011 0.47304 0.0
C212 C 0.24926 0.18521 0.56725 0.0
O213 O 0.2874 0.12948 0.51946 0.0
Mg214 Mg 0.41673 0.53499 0.73457 0.0
O215 O 0.38911 0.49867 0.73203 0.0
O216 O 0.41335 0.46454 0.72805 0.0
Mg217 Mg 0.45632 0.47908 0.72679 0.0
C218 C 0.39123 0.47444 0.72994 0.0
C219 C 0.37622 0.57629 0.73241 0.0
O220 O 0.38976 0.58132 0.71205 0.0
O221 O 0.4299 0.52481 0.77611 0.0
O222 O 0.45455 0.49158 0.76893 0.0
O223 O 0.41392 0.53807 0.69168 0.0
O224 O 0.44408 0.51684 0.71344 0.0
C225 C 0.44482 0.50725 0.78425 0.0
C226 C 0.43356 0.52344 0.69152 0.0
O227 O 0.38286 0.55801 0.74721 0.0
Mg228 Mg 0.73511 0.33801 0.5012 0.0
O229 O 0.77329 0.35906 0.4891 0.0
O230 O 0.80429 0.33034 0.49046 0.0
Mg231 Mg 0.78666 0.29171 0.50434 0.0
C232 C 0.79687 0.35306 0.48615 0.0
C233 C 0.71421 0.39246 0.49922 0.0
O234 O 0.73338 0.39507 0.51712 0.0
O235 O 0.72984 0.31735 0.4622 0.0
O236 O 0.7598 0.28779 0.46752 0.0
O237 O 0.74574 0.34747 0.5427 0.0
O238 O 0.75677 0.31236 0.5232 0.0
C239 C 0.74105 0.29768 0.45434 0.0
C240 C 0.75812 0.32645 0.54363 0.0
O241 O 0.71065 0.37116 0.48719 0.0
Mg242 Mg 0.66212 0.01221 0.76716 0.0
O243 O 0.63635 0.01307 0.72961 0.0
O244 O 0.66328 0.01426 0.69702 0.0
Mg245 Mg 0.70575 0.01772 0.71364 0.0
C246 C 0.64028 0.0133 0.70556 0.0
C247 C 0.63096 0.99748 0.8138 0.0
O248 O 0.65516 0.0014 0.82353 0.0
O249 O 0.67237 0.97083 0.75945 0.0
O250 O 0.70096 0.97621 0.72846 0.0
O251 O 0.6639 0.05512 0.76936 0.0
O252 O 0.69258 0.03252 0.75013 0.0
C253 C 0.68847 0.96188 0.7442 0.0
C254 C 0.68466 0.05466 0.75616 0.0
O255 O 0.62663 -0.00051 0.78959 0.0
Mg256 Mg 0.03711 0.2605 0.91698 0.0
O257 O 0.99845 0.25735 0.89214 0.0
O258 O 0.96749 0.24229 0.91795 0.0
Mg259 Mg 0.98615 0.23448 0.95801 0.0
C260 C 0.97458 0.25049 0.89607 0.0
C261 C 0.0817 0.27792 0.88677 0.0
O262 O 0.08994 0.26153 0.90426 0.0
O263 O 0.02321 0.29607 0.93661 0.0
O264 O 0.99459 0.27811 0.96338 0.0
O265 O 0.04549 0.22017 0.90698 0.0
O266 O 0.02379 0.23092 0.94058 0.0
C267 C 0.00729 0.2978 0.95457 0.0
C268 C 0.0325 0.21311 0.92672 0.0
O269 O 0.0579 0.28388 0.88648 0.0
Mg270 Mg 0.54358 0.76844 0.41881 0.0
O271 O 0.50623 0.76139 0.39226 0.0
O272 O 0.47508 0.74431 0.41689 0.0
Mg273 Mg 0.49125 0.7431 0.45859 0.0
C274 C 0.4829 0.75195 0.3951 0.0
C275 C 0.58925 0.787 0.39042 0.0
O276 O 0.59774 0.77373 0.41042 0.0
O277 O 0.52661 0.80436 0.43415 0.0
O278 O 0.49523 0.78761 0.45857 0.0
O279 O 0.55458 0.72829 0.41257 0.0
O280 O 0.53042 0.74008 0.44405 0.0
C281 C 0.50804 0.80697 0.44924 0.0
C282 C 0.54064 0.72188 0.43186 0.0
O283 O 0.56482 0.79038 0.38759 0.0
Mg284 Mg 0.97916 0.73519 0.58797 0.0
O285 O 0.01778 0.7276 0.61103 0.0
O286 O 0.04718 0.7193 0.58224 0.0
Mg287 Mg 0.02782 0.72033 0.54158 0.0
C288 C 0.04094 0.72225 0.60548 0.0
C289 C 0.94013 0.73767 0.62945 0.0
O290 O 0.93136 0.71857 0.61422 0.0
O291 O 0.9963 0.77504 0.57636 0.0
O292 O 0.02336 0.76373 0.54646 0.0
O293 O 0.96672 0.69327 0.5881 0.0
O294 O 0.9896 0.71168 0.55772 0.0
C295 C 0.01253 0.78093 0.55912 0.0
C296 C 0.97875 0.69104 0.56706 0.0
O297 O 0.96104 0.75053 0.62399 0.0
Mg298 Mg 0.47301 0.23836 0.08928 0.0
O299 O 0.51124 0.22983 0.11263 0.0
O300 O 0.54103 0.22062 0.08449 0.0
Mg301 Mg 0.52322 0.226 0.0437 0.0
C302 C 0.53413 0.22323 0.10756 0.0
C303 C 0.43535 0.23738 0.13294 0.0
O304 O 0.42838 0.21656 0.11939 0.0
O305 O 0.49025 0.27857 0.0801 0.0
O306 O 0.52011 0.26932 0.05204 0.0
O307 O 0.46134 0.19636 0.08719 0.0
O308 O 0.48411 0.21681 0.05788 0.0
C309 C 0.50821 0.28557 0.06496 0.0
C310 C 0.47371 0.19549 0.06621 0.0
O311 O 0.45439 0.25203 0.12576 0.0
H312 H 0.21047 0.6882 0.83727 0.0
H313 H 0.21325 0.81975 0.91746 0.0
H314 H 0.19327 0.76039 0.80096 0.0
H315 H 0.25334 0.7522 0.94169 0.0
H316 H 0.19846 0.79742 0.877 0.0
H317 H 0.21791 0.71044 0.87851 0.0
C318 C 0.20814 0.70876 0.83803 0.0
C319 C 0.20171 0.72255 0.81558 0.0
C320 C 0.21045 0.7876 0.89129 0.0
C321 C 0.21013 0.74818 0.86283 0.0
C322 C 0.21887 0.80027 0.91433 0.0
C323 C 0.23475 0.7879 0.9329 0.0
C324 C 0.21762 0.76231 0.88712 0.0
C325 C 0.24139 0.76264 0.92788 0.0
C326 C 0.21237 0.72145 0.86157 0.0
C327 C 0.19826 0.74906 0.81781 0.0
N328 N 0.23277 0.75073 0.90556 0.0
N329 N 0.20277 0.76112 0.84104 0.0
H330 H 0.97818 0.54617 0.38521 0.0
H331 H 0.09595 0.47993 0.32199 0.0
H332 H 0.99961 0.46927 0.40467 0.0
H333 H 0.0627 0.54938 0.29282 0.0
H334 H 0.06005 0.47448 0.35123 0.0
H335 H 0.00823 0.5468 0.35021 0.0
C336 C 0.98915 0.52935 0.38195 0.0
C337 C 0.98663 0.50772 0.39792 0.0
C338 C 0.06048 0.49074 0.33822 0.0
C339 C 0.02121 0.5083 0.35801 0.0
C340 C 0.08098 0.49388 0.32153 0.0
C341 C 0.08251 0.5153 0.30511 0.0
C342 C 0.04153 0.50927 0.33863 0.0
C343 C 0.06247 0.53269 0.30526 0.0
C344 C 0.00623 0.52965 0.36193 0.0
C345 C 0.00101 0.4863 0.39272 0.0
N346 N 0.04301 0.52943 0.32194 0.0
N347 N 0.01797 0.48723 0.37338 0.0
H348 H 0.78263 0.78905 0.85056 0.0
H349 H 0.78784 0.6661 0.94059 0.0
H350 H 0.79931 0.71562 0.81829 0.0
H351 H 0.73777 0.72905 0.95126 0.0
H352 H 0.79838 0.6841 0.89825 0.0
H353 H 0.77371 0.76799 0.8911 0.0
C354 C 0.78429 0.76841 0.85194 0.0
C355 C 0.79108 0.754 0.83073 0.0
C356 C 0.78496 0.6937 0.90993 0.0
C357 C 0.78133 0.72975 0.87754 0.0
C358 C 0.77892 0.6835 0.93403 0.0
C359 C 0.76199 0.69613 0.94965 0.0
C360 C 0.77434 0.71685 0.90179 0.0
C361 C 0.75098 0.7186 0.9401 0.0
C362 C 0.77925 0.75641 0.87515 0.0
C363 C 0.79396 0.72744 0.83411 0.0
N364 N 0.75755 0.72831 0.91701 0.0
N365 N 0.78895 0.71607 0.85712 0.0
H366 H 0.01696 0.95366 0.41786 0.0
H367 H 0.94348 0.04564 0.31711 0.0
H368 H 0.99979 0.03144 0.43716 0.0
H369 H 0.97218 0.97163 0.29893 0.0
H370 H 0.95961 0.04007 0.36221 0.0
H371 H 0.99588 0.95905 0.37535 0.0
C372 C 0.00844 0.97182 0.41329 0.0
C373 C 0.01006 0.99207 0.43123 0.0
C374 C 0.96223 0.02508 0.34827 0.0
C375 C 0.98623 0.99865 0.382 0.0
C376 C 0.95297 0.02821 0.32259 0.0
C377 C 0.95667 0.00919 0.30414 0.0
C378 C 0.97499 0.00269 0.35544 0.0
C379 C 0.96911 0.98698 0.31232 0.0
C380 C 0.99657 0.97498 0.38884 0.0
C381 C 0.99916 0.01538 0.42385 0.0
N382 N 0.97779 0.98441 0.33724 0.0
N383 N 0.98772 0.01806 0.39975 0.0
H384 H 0.17969 0.28977 0.6707 0.0
H385 H 0.27277 0.18696 0.61561 0.0
H386 H 0.26131 0.28591 0.69558 0.0
H387 H 0.20805 0.21647 0.57001 0.0
H388 H 0.26341 0.21576 0.65088 0.0
H389 H 0.18501 0.25585 0.63869 0.0
C390 C 0.19866 0.28168 0.66941 0.0
C391 C 0.22019 0.29071 0.68545 0.0
C392 C 0.25115 0.2157 0.63319 0.0
C393 C 0.22624 0.25187 0.64961 0.0
C394 C 0.25633 0.19917 0.61317 0.0
C395 C 0.24135 0.19958 0.58975 0.0
C396 C 0.23058 0.23238 0.62986 0.0
C397 C 0.22034 0.21585 0.58756 0.0
C398 C 0.20168 0.26244 0.65124 0.0
C399 C 0.24437 0.27965 0.68324 0.0
N400 N 0.21558 0.23167 0.60736 0.0
N401 N 0.24674 0.26072 0.66567 0.0
H402 H 0.46893 0.51272 0.53179 0.0
H403 H 0.47742 0.49684 0.68497 0.0
H404 H 0.53872 0.49283 0.57634 0.0
H405 H 0.41302 0.53052 0.64239 0.0
H406 H 0.49639 0.48672 0.64433 0.0
H407 H 0.44466 0.51069 0.5711 0.0
C408 C 0.47908 0.50761 0.54976 0.0
C409 C 0.50602 0.5033 0.55079 0.0
C410 C 0.47796 0.49608 0.64386 0.0
C411 C 0.47833 0.50086 0.59579 0.0
C412 C 0.46706 0.50181 0.66707 0.0
C413 C 0.44371 0.51477 0.66708 0.0
C414 C 0.46545 0.50338 0.62047 0.0
C415 C 0.43119 0.52073 0.64328 0.0
C416 C 0.4652 0.50643 0.57217 0.0
C417 C 0.51799 0.49622 0.57453 0.0
N418 N 0.44233 0.51518 0.62092 0.0
N419 N 0.50414 0.49552 0.59612 0.0
H420 H 0.80846 0.30353 0.70332 0.0
H421 H 0.78495 0.2829 0.55119 0.0
H422 H 0.8178 0.23239 0.66317 0.0
H423 H 0.76446 0.3516 0.59025 0.0
H424 H 0.80509 0.26769 0.59135 0.0
H425 H 0.80023 0.3248 0.66155 0.0
C426 C 0.80928 0.29259 0.68566 0.0
C427 C 0.8135 0.2662 0.6865 0.0
C428 C 0.79644 0.28622 0.59116 0.0
C429 C 0.80408 0.2901 0.63905 0.0
C430 C 0.78499 0.29501 0.56812 0.0
C431 C 0.77283 0.31851 0.56733 0.0
C432 C 0.79555 0.30089 0.61375 0.0
C433 C 0.77347 0.33326 0.59003 0.0
C434 C 0.80445 0.30463 0.66192 0.0
C435 C 0.81429 0.25273 0.66324 0.0
N436 N 0.78439 0.32407 0.61243 0.0
N437 N 0.80942 0.26478 0.64049 0.0
H438 H 0.51875 0.95818 0.59574 0.0
H439 H 0.59391 0.03694 0.70786 0.0
H440 H 0.51209 0.04072 0.59668 0.0
H441 H 0.63497 0.98584 0.66093 0.0
H442 H 0.55633 0.03375 0.67585 0.0
H443 H 0.55427 0.96298 0.62893 0.0
C444 C 0.52471 0.97736 0.6027 0.0
C445 C 0.51264 0.99917 0.59268 0.0
C446 C 0.57364 0.02332 0.67272 0.0
C447 C 0.55251 0.00437 0.63179 0.0
C448 C 0.59492 0.025 0.6909 0.0
C449 C 0.61748 0.01168 0.68686 0.0
C450 C 0.57476 0.00751 0.651 0.0
C451 C 0.61797 0.99653 0.6646 0.0
C452 C 0.54485 0.97995 0.62185 0.0
C453 C 0.52061 0.02331 0.60369 0.0
N454 N 0.59676 0.99457 0.64762 0.0
N455 N 0.54007 0.02527 0.62272 0.0
H456 H 0.82762 0.24441 0.80559 0.0
H457 H 0.98132 0.26268 0.84519 0.0
H458 H 0.88682 0.25613 0.74996 0.0
H459 H 0.92135 0.24252 0.89832 0.0
H460 H 0.94709 0.26473 0.81045 0.0
H461 H 0.86179 0.24865 0.84024 0.0
C462 C 0.84785 0.24802 0.80069 0.0
C463 C 0.85443 0.24963 0.77486 0.0
C464 C 0.94148 0.25994 0.82975 0.0
C465 C 0.89375 0.25448 0.81448 0.0
C466 C 0.961 0.25875 0.8496 0.0
C467 C 0.95426 0.25225 0.87474 0.0
C468 C 0.91505 0.25472 0.8351 0.0
C469 C 0.92758 0.24743 0.87927 0.0
C470 C 0.86736 0.25046 0.82048 0.0
C471 C 0.88089 0.25483 0.76963 0.0
N472 N 0.90902 0.24872 0.85966 0.0
N473 N 0.89965 0.25684 0.78928 0.0
H474 H 0.43792 0.93662 0.51697 0.0
H475 H 0.53629 0.85264 0.44212 0.0
H476 H 0.51844 0.96122 0.50524 0.0
H477 H 0.46468 0.82115 0.47333 0.0
H478 H 0.5263 0.89532 0.45724 0.0
H479 H 0.44368 0.89716 0.49257 0.0
C480 C 0.45663 0.93391 0.5088 0.0
C481 C 0.47782 0.95199 0.51326 0.0
C482 C 0.51271 0.87907 0.46061 0.0
C483 C 0.48461 0.90702 0.48564 0.0
C484 C 0.51837 0.8547 0.45195 0.0
C485 C 0.50146 0.8332 0.45673 0.0
C486 C 0.48987 0.88202 0.47392 0.0
C487 C 0.47846 0.8371 0.4695 0.0
C488 C 0.45998 0.91135 0.49508 0.0
C489 C 0.50174 0.94753 0.50246 0.0
N490 N 0.4734 0.86101 0.47774 0.0
N491 N 0.50455 0.92541 0.48927 0.0
H492 H 0.16318 0.35742 0.76385 0.0
H493 H 0.12946 0.2606 0.87746 0.0
H494 H 0.19335 0.28186 0.77155 0.0
H495 H 0.07434 0.31589 0.85043 0.0
H496 H 0.15778 0.27357 0.84307 0.0
H497 H 0.13452 0.34737 0.79962 0.0
C498 C 0.16373 0.33877 0.77311 0.0
C499 C 0.18041 0.32033 0.76475 0.0
C500 C 0.13951 0.28291 0.84467 0.0
C501 C 0.14833 0.30899 0.80551 0.0
C502 C 0.12336 0.27562 0.86439 0.0
C503 C 0.0994 0.28708 0.86674 0.0
C504 C 0.1319 0.30204 0.82726 0.0
C505 C 0.09259 0.30647 0.84919 0.0
C506 C 0.14739 0.33305 0.79334 0.0
C507 C 0.18052 0.29646 0.77725 0.0
N508 N 0.10883 0.31341 0.83012 0.0
N509 N 0.16484 0.29154 0.7971 0.0
H510 H 0.54477 0.55568 0.44576 0.0
H511 H 0.51699 0.70275 0.47433 0.0
H512 H 0.52339 0.5843 0.51933 0.0
H513 H 0.55519 0.679 0.40688 0.0
H514 H 0.51321 0.65794 0.48819 0.0
H515 H 0.54355 0.59957 0.42857 0.0
C516 C 0.53972 0.5711 0.45826 0.0
C517 C 0.53398 0.56616 0.48399 0.0
C518 C 0.52231 0.6625 0.47028 0.0
C519 C 0.53231 0.61625 0.46441 0.0
C520 C 0.52437 0.68809 0.4623 0.0
C521 C 0.53653 0.69464 0.43948 0.0
C522 C 0.53245 0.64327 0.45533 0.0
C523 C 0.5458 0.6748 0.4247 0.0
C524 C 0.53893 0.5961 0.44841 0.0
C525 C 0.52736 0.58691 0.49922 0.0
N526 N 0.54366 0.64999 0.43293 0.0
N527 N 0.52673 0.61096 0.48921 0.0
H528 H 0.83182 0.72824 0.75113 0.0
H529 H 0.94281 0.78218 0.65861 0.0
H530 H 0.8528 0.80932 0.74346 0.0
H531 H 0.90406 0.70632 0.65233 0.0
H532 H 0.91565 0.79144 0.69482 0.0
H533 H 0.86443 0.71879 0.72027 0.0
C534 C 0.84352 0.74404 0.74317 0.0
C535 C 0.83944 0.7696 0.7497 0.0
C536 C 0.91327 0.77275 0.68553 0.0
C537 C 0.87668 0.75896 0.71421 0.0
C538 C 0.92879 0.76744 0.66497 0.0
C539 C 0.92551 0.74354 0.65232 0.0
C540 C 0.89471 0.75385 0.69362 0.0
C541 C 0.90706 0.72511 0.66132 0.0
C542 C 0.86201 0.73865 0.72543 0.0
C543 C 0.85504 0.78935 0.73863 0.0
N544 N 0.89239 0.73065 0.68136 0.0
N545 N 0.87294 0.78363 0.72135 0.0
H546 H 0.04407 0.91585 0.46904 0.0
H547 H 0.99668 0.82487 0.58243 0.0
H548 H 0.02676 0.94732 0.54255 0.0
H549 H 0.04158 0.79958 0.52002 0.0
H550 H 0.00461 0.8696 0.56816 0.0
H551 H 0.04004 0.87259 0.48705 0.0
C552 C 0.03946 0.91356 0.48906 0.0
C553 C 0.03563 0.93506 0.50435 0.0
C554 C 0.01286 0.85418 0.55782 0.0
C555 C 0.0308 0.88557 0.52514 0.0
C556 C 0.0083 0.82866 0.56589 0.0
C557 C 0.01831 0.80833 0.55233 0.0
C558 C 0.0272 0.85926 0.53588 0.0
C559 C 0.03332 0.81447 0.53108 0.0
C560 C 0.03726 0.8889 0.49938 0.0
C561 C 0.02989 0.93112 0.53022 0.0
N562 N 0.03708 0.83926 0.52343 0.0
N563 N 0.02736 0.90675 0.5398 0.0
H564 H 0.12791 0.70556 0.75257 0.0
H565 H 0.09322 0.71544 0.60096 0.0
H566 H 0.18567 0.70779 0.69486 0.0
H567 H 0.03573 0.72329 0.65799 0.0
H568 H 0.12695 0.71143 0.63541 0.0
H569 H 0.09364 0.71145 0.7186 0.0
C570 C 0.13344 0.70748 0.7328 0.0
C571 C 0.15975 0.70605 0.72659 0.0
C572 C 0.10698 0.71406 0.64045 0.0
C573 C 0.12054 0.71244 0.68758 0.0
C574 C 0.08762 0.71629 0.62073 0.0
C575 C 0.06149 0.71968 0.62651 0.0
C576 C 0.10029 0.71509 0.66626 0.0
C577 C 0.05559 0.72071 0.65258 0.0
C578 C 0.11383 0.7107 0.71341 0.0
C579 C 0.16564 0.70832 0.70057 0.0
N580 N 0.07483 0.71836 0.6715 0.0
N581 N 0.14622 0.71132 0.68208 0.0
H582 H 0.92202 0.55312 0.48745 0.0
H583 H 0.01088 0.67643 0.52954 0.0
H584 H 0.00481 0.55908 0.47348 0.0
H585 H 0.94601 0.64866 0.57374 0.0
H586 H 0.00737 0.63592 0.50526 0.0
H587 H 0.92857 0.59049 0.51593 0.0
C588 C 0.94163 0.562 0.4905 0.0
C589 C 0.96286 0.55277 0.47784 0.0
C590 C 0.99411 0.63866 0.52046 0.0
C591 C 0.97022 0.59616 0.50993 0.0
C592 C 0.99606 0.66178 0.5343 0.0
C593 C 0.97871 0.66595 0.5537 0.0
C594 C 0.97428 0.61988 0.52567 0.0
C595 C 0.95986 0.64623 0.559 0.0
C596 C 0.94528 0.58346 0.5067 0.0
C597 C 0.98768 0.56571 0.48225 0.0
N598 N 0.9579 0.62418 0.54483 0.0
N599 N 0.99061 0.58688 0.49771 0.0
H600 H 0.80215 0.83263 0.22629 0.0
H601 H 0.84378 0.98337 0.23179 0.0
H602 H 0.74628 0.89072 0.23541 0.0
H603 H 0.89695 0.9234 0.21948 0.0
H604 H 0.80782 0.95036 0.23434 0.0
H605 H 0.83716 0.86623 0.22524 0.0
C606 C 0.79723 0.85254 0.22795 0.0
C607 C 0.77119 0.85891 0.23059 0.0
C608 C 0.82738 0.9445 0.23108 0.0
C609 C 0.8114 0.89766 0.22968 0.0
C610 C 0.84792 0.96332 0.22959 0.0
C611 C 0.87349 0.9562 0.22538 0.0
C612 C 0.83247 0.91841 0.22839 0.0
C613 C 0.87763 0.9299 0.22271 0.0
C614 C 0.81728 0.87174 0.22747 0.0
C615 C 0.76611 0.88499 0.23335 0.0
N616 N 0.85738 0.91204 0.22427 0.0
N617 N 0.78605 0.90348 0.23269 0.0
H618 H 0.73805 0.14007 0.28987 0.0
H619 H 0.8548 0.11576 0.19804 0.0
H620 H 0.74563 0.17613 0.21567 0.0
H621 H 0.84167 0.07184 0.26713 0.0
H622 H 0.81541 0.13863 0.20479 0.0
H623 H 0.77618 0.11527 0.28232 0.0
C624 C 0.74774 0.14272 0.27195 0.0
C625 C 0.73874 0.16028 0.25341 0.0
C626 C 0.82108 0.12398 0.21848 0.0
C627 C 0.78241 0.13196 0.24464 0.0
C628 C 0.84367 0.11094 0.2147 0.0
C629 C 0.85163 0.09185 0.23209 0.0
C630 C 0.8063 0.11806 0.23989 0.0
C631 C 0.8363 0.08642 0.25325 0.0
C632 C 0.76944 0.1285 0.26762 0.0
C633 C 0.7518 0.16269 0.2304 0.0
N634 N 0.8144 0.09951 0.2566 0.0
N635 N 0.77308 0.14883 0.22674 0.0
H636 H 0.44588 0.93736 0.9539 0.0
H637 H 0.29399 0.90884 0.98054 0.0
H638 H 0.39059 0.99698 0.95627 0.0
H639 H 0.35051 0.8504 0.97706 0.0
H640 H 0.32819 0.94134 0.96965 0.0
H641 H 0.41029 0.90517 0.96019 0.0
C642 C 0.42619 0.94369 0.95546 0.0
C643 C 0.42127 0.96996 0.95452 0.0
C644 C 0.33302 0.92137 0.97116 0.0
C645 C 0.38031 0.93308 0.96221 0.0
C646 C 0.31349 0.90278 0.97734 0.0
C647 C 0.31935 0.8768 0.97989 0.0
C648 C 0.35859 0.91392 0.96749 0.0
C649 C 0.34502 0.87016 0.97549 0.0
C650 C 0.40585 0.92528 0.95923 0.0
C651 C 0.39537 0.97698 0.95719 0.0
N652 N 0.36363 0.88857 0.96962 0.0
N653 N 0.37587 0.95866 0.96097 0.0
H654 H 0.25825 0.32476 0.22634 0.0
H655 H 0.17918 0.43676 0.286 0.0
H656 H 0.25059 0.33568 0.30801 0.0
H657 H 0.2152 0.44431 0.2129 0.0
H658 H 0.19582 0.39373 0.2907 0.0
H659 H 0.23415 0.36359 0.21805 0.0
C660 C 0.25154 0.33518 0.24253 0.0
C661 C 0.2566 0.32678 0.26796 0.0
C662 C 0.19981 0.40474 0.27351 0.0
C663 C 0.22838 0.37077 0.25844 0.0
C664 C 0.19018 0.42922 0.27073 0.0
C665 C 0.19608 0.44429 0.24917 0.0
C666 C 0.21517 0.39515 0.25448 0.0
C667 C 0.21046 0.43348 0.22999 0.0
C668 C 0.23762 0.35723 0.23773 0.0
C669 C 0.24684 0.34094 0.28806 0.0
N670 N 0.21965 0.4096 0.23316 0.0
N671 N 0.23324 0.36216 0.28286 0.0
H672 H 0.05168 0.05623 0.4946 0.0
H673 H 0.20542 0.09098 0.5221 0.0
H674 H 0.10861 0.99843 0.50514 0.0
H675 H 0.14598 0.14693 0.51864 0.0
H676 H 0.17064 0.05654 0.51722 0.0
H677 H 0.08627 0.08955 0.50492 0.0
C678 C 0.07147 0.05057 0.49927 0.0
C679 C 0.0773 0.02455 0.49893 0.0
C680 C 0.16528 0.07637 0.51767 0.0
C681 C 0.11715 0.06263 0.51062 0.0
C682 C 0.18513 0.09605 0.52042 0.0
C683 C 0.17871 0.12196 0.52064 0.0
C684 C 0.13885 0.08267 0.51505 0.0
C685 C 0.15201 0.12731 0.51845 0.0
C686 C 0.09123 0.06959 0.5052 0.0
C687 C 0.10324 0.01827 0.50537 0.0
N688 N 0.13317 0.1079 0.51565 0.0
N689 N 0.12228 0.03719 0.51073 0.0
H690 H 0.74399 0.21208 0.72999 0.0
H691 H 0.73399 0.05903 0.73868 0.0
H692 H 0.81098 0.16676 0.7465 0.0
H693 H 0.67005 0.10453 0.75905 0.0
H694 H 0.76089 0.09861 0.73243 0.0
H695 H 0.71504 0.1728 0.73255 0.0
C696 C 0.75252 0.19383 0.73413 0.0
C697 C 0.77979 0.19251 0.73821 0.0
C698 C 0.74091 0.0999 0.73811 0.0
C699 C 0.74712 0.14785 0.74067 0.0
C700 C 0.72547 0.07736 0.7415 0.0
C701 C 0.69978 0.07852 0.74951 0.0
C702 C 0.73051 0.1238 0.74244 0.0
C703 C 0.68982 0.10281 0.75298 0.0
C704 C 0.73608 0.17155 0.73564 0.0
C705 C 0.79001 0.16853 0.74352 0.0
N706 N 0.70524 0.12458 0.74942 0.0
N707 N 0.77367 0.14708 0.74444 0.0
H708 H 0.45731 0.0624 0.55233 0.0
H709 H 0.30513 0.08323 0.51767 0.0
H710 H 0.40077 -0.00029 0.53253 0.0
H711 H 0.36459 0.14486 0.53111 0.0
H712 H 0.33934 0.05205 0.52278 0.0
H713 H 0.42291 0.09265 0.54525 0.0
C714 C 0.43758 0.05497 0.54669 0.0
C715 C 0.43192 0.02846 0.54312 0.0
C716 C 0.34486 0.07242 0.52447 0.0
C717 C 0.39234 0.06311 0.5346 0.0
C718 C 0.32535 0.09021 0.52149 0.0
C719 C 0.33197 0.11671 0.52406 0.0
C720 C 0.37109 0.08121 0.53014 0.0
C721 C 0.3585 0.12465 0.52906 0.0
C722 C 0.41796 0.07229 0.54243 0.0
C723 C 0.40606 0.02001 0.53531 0.0
N724 N 0.377 0.10702 0.53204 0.0
N725 N 0.38721 0.03728 0.53137 0.0
H726 H 0.57774 0.48117 0.45995 0.0
H727 H 0.70989 0.43451 0.52977 0.0
H728 H 0.59788 0.49097 0.54116 0.0
H729 H 0.67332 0.3952 0.46273 0.0
H730 H 0.67384 0.46337 0.52895 0.0
H731 H 0.61732 0.45673 0.45602 0.0
C732 C 0.59059 0.47824 0.47685 0.0
C733 C 0.58456 0.48777 0.50095 0.0
C734 C 0.67385 0.44856 0.51429 0.0
C735 C 0.62971 0.46057 0.49655 0.0
C736 C 0.69449 0.43215 0.51463 0.0
C737 C 0.69449 0.41219 0.49645 0.0
C738 C 0.65315 0.44524 0.49548 0.0
C739 C 0.67398 0.41018 0.47725 0.0
C740 C 0.61303 0.46433 0.47463 0.0
C741 C 0.60175 0.48362 0.52232 0.0
N742 N 0.65402 0.42645 0.47732 0.0
N743 N 0.62359 0.4704 0.51961 0.0
H744 H 0.70719 0.18385 0.33561 0.0
H745 H 0.70937 0.31622 0.41448 0.0
H746 H 0.6871 0.25511 0.29904 0.0
H747 H 0.75064 0.24938 0.43873 0.0
H748 H 0.69411 0.29332 0.37447 0.0
H749 H 0.71508 0.20663 0.37652 0.0
C750 C 0.70428 0.20431 0.33626 0.0
C751 C 0.69694 0.21771 0.31383 0.0
C752 C 0.70647 0.28378 0.38866 0.0
C753 C 0.70594 0.24398 0.36067 0.0
C754 C 0.71518 0.29679 0.41145 0.0
C755 C 0.73148 0.28479 0.42991 0.0
C756 C 0.71381 0.25852 0.38465 0.0
C757 C 0.73835 0.25957 0.425 0.0
C758 C 0.7088 0.21732 0.35961 0.0
C759 C 0.69282 0.2441 0.3159 0.0
N760 N 0.72945 0.24733 0.40294 0.0
N761 N 0.69765 0.2565 0.33892 0.0
H762 H 0.53742 0.00744 0.94543 0.0
H763 H 0.57818 0.99 0.80067 0.0
H764 H 0.48101 0.98819 0.88257 0.0
H765 H 0.63369 0.99633 0.86642 0.0
H766 H 0.54222 0.98786 0.83003 0.0
H767 H 0.57292 0.00236 0.91657 0.0
C768 C 0.53255 0.00209 0.92551 0.0
C769 C 0.50628 0.99845 0.91629 0.0
C770 C 0.56228 0.98948 0.838 0.0
C771 C 0.54681 0.99258 0.88307 0.0
C772 C 0.58283 0.9907 0.82126 0.0
C773 C 0.609 0.99358 0.83109 0.0
C774 C 0.56797 0.99133 0.86473 0.0
C775 C 0.61384 0.99429 0.85794 0.0
C776 C 0.55281 0.99906 0.90906 0.0
C777 C 0.50104 0.99113 0.89043 0.0
N778 N 0.59354 0.99341 0.87378 0.0
N779 N 0.52114 0.98868 0.87462 0.0
H780 H 0.2888 0.21674 0.31425 0.0
H781 H 0.21665 0.22539 0.4448 0.0
H782 H 0.26574 0.28771 0.34732 0.0
H783 H 0.2776 0.17166 0.43896 0.0
H784 H 0.22622 0.24195 0.40247 0.0
H785 H 0.27855 0.19453 0.35467 0.0
C786 C 0.28169 0.22769 0.32988 0.0
C787 C 0.27768 0.25413 0.32707 0.0
C788 C 0.23739 0.22641 0.41039 0.0
C789 C 0.26539 0.22872 0.37275 0.0
C790 C 0.2319 0.21682 0.43456 0.0
C791 C 0.24663 0.19732 0.44576 0.0
C792 C 0.25759 0.21639 0.39699 0.0
C793 C 0.26592 0.18687 0.43119 0.0
C794 C 0.27576 0.21495 0.35282 0.0
C795 C 0.26832 0.26721 0.34805 0.0
N796 N 0.27099 0.19666 0.4075 0.0
N797 N 0.26226 0.25434 0.36978 0.0
H798 H 0.50867 0.45154 0.9288 0.0
H799 H 0.44291 0.54344 0.82288 0.0
H800 H 0.50258 0.53301 0.94128 0.0
H801 H 0.46273 0.4652 0.80916 0.0
H802 H 0.45866 0.53911 0.86819 0.0
H803 H 0.48544 0.45533 0.88697 0.0
C804 C 0.5021 0.4702 0.92293 0.0
C805 C 0.50763 0.49199 0.93864 0.0
C806 C 0.45935 0.52289 0.85522 0.0
C807 C 0.48137 0.49659 0.89025 0.0
C808 C 0.45028 0.52531 0.82943 0.0
C809 C 0.45176 0.50475 0.81215 0.0
C810 C 0.46966 0.49966 0.86372 0.0
C811 C 0.46151 0.4817 0.82166 0.0
C812 C 0.489 0.4724 0.89887 0.0
C813 C 0.49901 0.51576 0.92966 0.0
N814 N 0.47013 0.47984 0.8467 0.0
N815 N 0.4864 0.51746 0.90599 0.0
H816 H 0.77279 0.76811 0.20594 0.0
H817 H 0.7187 0.70933 0.073 0.0
H818 H 0.69321 0.77802 0.17724 0.0
H819 H 0.77952 0.67412 0.11928 0.0
H820 H 0.70914 0.73533 0.11011 0.0
H821 H 0.7764 0.73444 0.17357 0.0
C822 C 0.75605 0.763 0.19285 0.0
C823 C 0.73274 0.77582 0.19399 0.0
C824 C 0.72432 0.72165 0.11223 0.0
C825 C 0.73675 0.7377 0.15693 0.0
C826 C 0.7299 0.7069 0.091 0.0
C827 C 0.75016 0.68978 0.09297 0.0
C828 C 0.73952 0.71965 0.13539 0.0
C829 C 0.76377 0.68715 0.11694 0.0
C830 C 0.75803 0.74374 0.17455 0.0
C831 C 0.71149 0.76849 0.17685 0.0
N832 N 0.75852 0.70228 0.13713 0.0
N833 N 0.71411 0.75012 0.15869 0.0
H834 H 0.02895 0.98072 0.06477 0.0
H835 H 0.90676 0.02962 0.13625 0.0
H836 H 0.9592 0.00709 0.02479 0.0
H837 H 0.97654 0.00244 0.17552 0.0
H838 H 0.92296 0.01614 0.09521 0.0
H839 H 0.00698 0.98193 0.10522 0.0
C840 C 0.00876 0.98613 0.06438 0.0
C841 C 0.99601 0.99413 0.04139 0.0
C842 C 0.93458 0.01286 0.11284 0.0
C843 C 0.97097 0.99629 0.08781 0.0
C844 C 0.92538 0.02063 0.13628 0.0
C845 C 0.94038 0.01728 0.15935 0.0
C846 C 0.95904 0.00181 0.11247 0.0
C847 C 0.96428 0.00538 0.15824 0.0
C848 C 0.9963 0.9871 0.08757 0.0
C849 C 0.96994 0.00125 0.04217 0.0
N850 N 0.97296 0.99828 0.13519 0.0
N851 N 0.95841 0.00252 0.06505 0.0
H852 H 0.31516 0.80821 0.20537 0.0
H853 H 0.28998 0.78772 0.05348 0.0
H854 H 0.32349 0.73704 0.165 0.0
H855 H 0.26873 0.85589 0.09297 0.0
H856 H 0.31105 0.77286 0.09327 0.0
H857 H 0.30674 0.82966 0.1637 0.0
C858 C 0.31583 0.79734 0.18766 0.0
C859 C 0.31987 0.77092 0.18837 0.0
C860 C 0.30204 0.79121 0.09326 0.0
C861 C 0.31013 0.79496 0.14108 0.0
C862 C 0.29005 0.79981 0.07042 0.0
C863 C 0.2774 0.82306 0.06984 0.0
C864 C 0.30119 0.80576 0.11591 0.0
C865 C 0.2781 0.83775 0.09258 0.0
C866 C 0.31088 0.80947 0.16398 0.0
C867 C 0.32034 0.75746 0.16509 0.0
N868 N 0.28955 0.82871 0.11482 0.0
N869 N 0.31532 0.76958 0.14241 0.0
H870 H 0.05388 0.50529 0.06499 0.0
H871 H 0.09087 0.52244 0.2156 0.0
H872 H 0.99559 0.5115 0.12132 0.0
H873 H 0.1476 0.52688 0.15684 0.0
H874 H 0.05554 0.51962 0.18174 0.0
H875 H 0.08836 0.51459 0.09863 0.0
C876 C 0.04838 0.50878 0.08448 0.0
C877 C 0.0219 0.50746 0.09046 0.0
C878 C 0.07573 0.52139 0.17631 0.0
C879 C 0.06127 0.51797 0.12918 0.0
C880 C 0.09593 0.52294 0.19563 0.0
C881 C 0.12232 0.52472 0.18911 0.0
C882 C 0.08195 0.52147 0.1503 0.0
C883 C 0.12761 0.52541 0.16287 0.0
C884 C 0.06805 0.51415 0.10368 0.0
C885 C 0.0158 0.51244 0.11593 0.0
N886 N 0.10765 0.52362 0.14449 0.0
N887 N 0.03537 0.51721 0.13446 0.0
H888 H 0.37173 0.788 0.27066 0.0
H889 H 0.44211 0.71654 0.38683 0.0
H890 H 0.36275 0.70556 0.28096 0.0
H891 H 0.48021 0.78337 0.35269 0.0
H892 H 0.40903 0.7149 0.351 0.0
H893 H 0.40854 0.78945 0.30318 0.0
C894 C 0.37749 0.77022 0.27958 0.0
C895 C 0.36369 0.74668 0.27331 0.0
C896 C 0.42472 0.72983 0.35126 0.0
C897 C 0.40535 0.74838 0.31071 0.0
C898 C 0.44353 0.73083 0.37172 0.0
C899 C 0.4639 0.7501 0.37266 0.0
C900 C 0.42591 0.74857 0.33187 0.0
C901 C 0.46488 0.76811 0.35253 0.0
C902 C 0.39845 0.7711 0.29814 0.0
C903 C 0.37207 0.7243 0.28569 0.0
N904 N 0.44591 0.76711 0.33303 0.0
N905 N 0.39211 0.72576 0.30395 0.0
H906 H 0.98262 0.459 0.98502 0.0
H907 H 0.98908 0.30752 0.00166 0.0
H908 H 0.99338 0.42216 0.05889 0.0
H909 H 0.01672 0.34587 0.93374 0.0
H910 H 0.98304 0.34936 0.02092 0.0
H911 H 0.98792 0.41737 0.96376 0.0
C912 C 0.98601 0.44212 0.99667 0.0
C913 C 0.98772 0.44386 0.02366 0.0
C914 C 0.99044 0.34861 0.00181 0.0
C915 C 0.9934 0.39662 -0.00025 0.0
C916 C 0.99379 0.32475 0.99074 0.0
C917 C 0.0035 0.32321 0.96608 0.0
C918 C 0.99641 0.37116 0.98801 0.0
C919 C 0.00936 0.34623 0.95288 0.0
C920 C 0.98915 0.41853 0.98461 0.0
C921 C 0.99217 0.42157 0.03802 0.0
N922 N 0.00558 0.36935 0.96397 0.0
N923 N 0.9947 0.39884 0.0259 0.0
H924 H 0.7078 0.77746 0.28216 0.0
H925 H 0.58081 0.81856 0.34843 0.0
H926 H 0.67505 0.85008 0.26304 0.0
H927 H 0.63941 0.77317 0.3868 0.0
H928 H 0.61117 0.82805 0.31401 0.0
H929 H 0.67836 0.77237 0.31752 0.0
C930 C 0.69426 0.79228 0.28543 0.0
C931 C 0.69366 0.81415 0.26975 0.0
C932 C 0.61732 0.81623 0.33016 0.0
C933 C 0.65992 0.80847 0.31001 0.0
C934 C 0.60005 0.81077 0.34972 0.0
C935 C 0.60755 0.79494 0.37044 0.0
C936 C 0.64189 0.80534 0.33121 0.0
C937 C 0.63273 0.7854 0.3712 0.0
C938 C 0.67762 0.78947 0.30566 0.0
C939 C 0.676 0.83297 0.27484 0.0
N940 N 0.64883 0.7905 0.35175 0.0
N941 N 0.65954 0.82961 0.29449 0.0
H942 H 0.03241 0.04594 0.93582 0.0
H943 H 0.01102 0.19304 0.96978 0.0
H944 H 0.02041 0.0744 0.01214 0.0
H945 H 0.04487 0.17072 0.89937 0.0
H946 H 0.0078 0.14804 0.98271 0.0
H947 H 0.03192 0.09033 0.91965 0.0
C948 C 0.02967 0.06145 0.94915 0.0
C949 C 0.02612 0.05634 0.97533 0.0
C950 C 0.01583 0.15294 0.96436 0.0
C951 C 0.02518 0.10689 0.95694 0.0
C952 C 0.01752 0.17865 0.95688 0.0
C953 C 0.02832 0.18567 0.9335 0.0
C954 C 0.02496 0.13402 0.94836 0.0
C955 C 0.03653 0.16613 0.91763 0.0
C956 C 0.02927 0.08671 0.9399 0.0
C957 C 0.02252 0.0772 0.9917 0.0
N958 N 0.03477 0.14113 0.9254 0.0
N959 N 0.02206 0.10145 0.98222 0.0
H960 H 0.32229 0.2303 0.25016 0.0
H961 H 0.43559 0.28321 0.15973 0.0
H962 H 0.34596 0.31098 0.24421 0.0
H963 H 0.40065 0.20562 0.15731 0.0
H964 H 0.40745 0.2931 0.1949 0.0
H965 H 0.35582 0.22023 0.22063 0.0
C966 C 0.33476 0.24589 0.24288 0.0
C967 C 0.33116 0.27153 0.24953 0.0
C968 C 0.40612 0.27389 0.18671 0.0
C969 C 0.36946 0.26018 0.21538 0.0
C970 C 0.42221 0.26823 0.16673 0.0
C971 C 0.4203 0.24363 0.15543 0.0
C972 C 0.38823 0.25473 0.19553 0.0
C973 C 0.40262 0.22493 0.16524 0.0
C974 C 0.3538 0.24015 0.22586 0.0
C975 C 0.34775 0.29097 0.23925 0.0
N976 N 0.38728 0.23089 0.18462 0.0
N977 N 0.36612 0.28491 0.22259 0.0
H978 H 0.49207 0.44298 0.02032 0.0
H979 H 0.55282 0.30804 0.046 0.0
H980 H 0.57467 0.43167 0.01567 0.0
H981 H 0.47821 0.3264 0.07433 0.0
H982 H 0.5613 0.35331 0.0351 0.0
H983 H 0.48642 0.4006 0.04052 0.0
C984 C 0.50905 0.43164 0.02383 0.0
C985 C 0.53385 0.44073 0.01622 0.0
C986 C 0.5432 0.34751 0.04397 0.0
C987 C 0.52751 0.39219 0.03901 0.0
C988 C 0.5383 0.32164 0.05012 0.0
C989 C 0.51466 0.31336 0.06091 0.0
C990 C 0.52416 0.36525 0.0482 0.0
C991 C 0.49667 0.33191 0.06602 0.0
C992 C 0.50585 0.40753 0.03542 0.0
C993 C 0.55525 0.42541 0.02135 0.0
N994 N 0.50163 0.35693 0.05928 0.0
N995 N 0.55153 0.40173 0.0321 0.0
H996 H 0.65409 0.16095 0.20924 0.0
H997 H 0.53774 0.24458 0.15599 0.0
H998 H 0.64649 0.2387 0.23618 0.0
H999 H 0.57483 0.19146 0.10774 0.0
H1000 H 0.57161 0.23777 0.19042 0.0
H1001 H 0.61922 0.16724 0.17627 0.0
C1002 C 0.64533 0.17941 0.20823 0.0
C1003 C 0.65367 0.1994 0.22556 0.0
C1004 C 0.5722 0.22761 0.17228 0.0
C1005 C 0.61289 0.20624 0.18826 0.0
C1006 C 0.55286 0.23135 0.15273 0.0
C1007 C 0.55357 0.21862 0.12897 0.0
C1008 C 0.59192 0.21056 0.16819 0.0
C1009 C 0.57367 0.20179 0.1257 0.0
C1010 C 0.62524 0.18286 0.18947 0.0
C1011 C 0.64067 0.22256 0.22361 0.0
N1012 N 0.59196 0.19812 0.14514 0.0
N1013 N 0.62088 0.2253 0.20537 0.0
H1014 H 0.45391 0.03666 0.01534 0.0
H1015 H 0.49383 0.18793 0.01916 0.0
H1016 H 0.48187 0.0795 0.95016 0.0
H1017 H 0.45684 0.1472 0.08112 0.0
H1018 H 0.49299 0.1476 0.9949 0.0
H1019 H 0.45736 0.07638 0.04076 0.0
C1020 C 0.46062 0.05443 0.00631 0.0
C1021 C 0.46758 0.0547 0.98053 0.0
C1022 C 0.48517 0.14746 0.01386 0.0
C1023 C 0.47197 0.10021 0.00968 0.0
C1024 C 0.48577 0.17047 0.02778 0.0
C1025 C 0.47536 0.17095 0.05219 0.0
C1026 C 0.4741 0.12474 0.02443 0.0
C1027 C 0.46502 0.14774 0.06233 0.0
C1028 C 0.46275 0.07708 0.02089 0.0
C1029 C 0.47661 0.07826 0.97003 0.0
N1030 N 0.46459 0.1256 0.04838 0.0
N1031 N 0.47853 0.10003 0.98463 0.0
H1032 H 0.24253 0.39143 0.69337 0.0
H1033 H 0.38717 0.42512 0.74763 0.0
H1034 H 0.27334 0.35701 0.76328 0.0
H1035 H 0.34103 0.48449 0.71335 0.0
H1036 H 0.34735 0.39665 0.74846 0.0
H1037 H 0.28009 0.42339 0.69556 0.0
C1038 C 0.25708 0.39091 0.70931 0.0
C1039 C 0.25497 0.37189 0.7283 0.0
C1040 C 0.34598 0.41595 0.74085 0.0
C1041 C 0.29793 0.40747 0.73049 0.0
C1042 C 0.36867 0.43211 0.74019 0.0
C1043 C 0.36734 0.45714 0.73036 0.0
C1044 C 0.32195 0.42468 0.73103 0.0
C1045 C 0.34283 0.46533 0.72115 0.0
C1046 C 0.27838 0.40902 0.71056 0.0
C1047 C 0.27431 0.37163 0.74847 0.0
N1048 N 0.32107 0.449 0.72142 0.0
N1049 N 0.29525 0.38896 0.74886 0.0
H1050 H 0.24845 0.67852 0.7172 0.0
H1051 H 0.34412 0.5724 0.77319 0.0
H1052 H 0.24228 0.64428 0.79244 0.0
H1053 H 0.35517 0.61364 0.70212 0.0
H1054 H 0.30525 0.59661 0.77964 0.0
H1055 H 0.2857 0.6524 0.71001 0.0
C1056 C 0.25476 0.6653 0.7321 0.0
C1057 C 0.2423 0.66365 0.75549 0.0
C1058 C 0.31621 0.60035 0.76265 0.0
C1059 C 0.28513 0.63389 0.74754 0.0
C1060 C 0.33842 0.58655 0.75898 0.0
C1061 C 0.35298 0.59103 0.73712 0.0
C1062 C 0.30845 0.61866 0.74427 0.0
C1063 C 0.34462 0.60957 0.7193 0.0
C1064 C 0.27616 0.65054 0.72808 0.0
C1065 C 0.25154 0.64641 0.77425 0.0
N1066 N 0.32292 0.62266 0.72326 0.0
N1067 N 0.27241 0.63224 0.76989 0.0
H1068 H 0.93953 0.43663 0.44281 0.0
H1069 H 0.79122 0.40507 0.48115 0.0
H1070 H 0.88649 0.49479 0.46124 0.0
H1071 H 0.84761 0.34708 0.47354 0.0
H1072 H 0.82481 0.43806 0.47036 0.0
H1073 H 0.90498 0.40336 0.45052 0.0
C1074 C 0.92058 0.44239 0.44836 0.0
C1075 C 0.91593 0.46851 0.45153 0.0
C1076 C 0.8298 0.4181 0.47099 0.0
C1077 C 0.87634 0.43059 0.46043 0.0
C1078 C 0.8106 0.39922 0.47708 0.0
C1079 C 0.81658 0.37321 0.47838 0.0
C1080 C 0.85517 0.41096 0.46603 0.0
C1081 C 0.84208 0.36687 0.47292 0.0
C1082 C 0.90091 0.42341 0.45287 0.0
C1083 C 0.89106 0.47487 0.45895 0.0
N1084 N 0.86042 0.38559 0.46703 0.0
N1085 N 0.87222 0.45607 0.46313 0.0
H1086 H 0.76221 0.81723 0.72758 0.0
H1087 H 0.68163 0.92937 0.78509 0.0
H1088 H 0.75919 0.83328 0.80897 0.0
H1089 H 0.7115 0.93268 0.70894 0.0
H1090 H 0.70034 0.88741 0.79147 0.0
H1091 H 0.73518 0.85391 0.71828 0.0
C1092 C 0.75591 0.82835 0.7435 0.0
C1093 C 0.76313 0.82204 0.76913 0.0
C1094 C 0.70248 0.89722 0.77325 0.0
C1095 C 0.73161 0.86352 0.75855 0.0
C1096 C 0.69164 0.92106 0.76952 0.0
C1097 C 0.69531 0.9347 0.74657 0.0
C1098 C 0.71681 0.88684 0.75381 0.0
C1099 C 0.70852 0.92298 0.72707 0.0
C1100 C 0.74032 0.84914 0.73815 0.0
C1101 C 0.75383 0.83695 0.78892 0.0
N1102 N 0.71896 0.89979 0.73119 0.0
N1103 N 0.73859 0.85694 0.78321 0.0
H1104 H 0.55876 0.55765 0.99128 0.0
H1105 H 0.71313 0.58687 0.02169 0.0
H1106 H 0.61257 0.49769 0.00613 0.0
H1107 H 0.65642 0.64525 0.01318 0.0
H1108 H 0.6772 0.55368 0.01579 0.0
H1109 H 0.5949 0.58985 -0.0009 0.0
C1110 C 0.57823 0.55127 0.99619 0.0
C1111 C 0.58267 0.52494 0.99795 0.0
C1112 C 0.6727 0.57378 0.01527 0.0
C1113 C 0.6243 0.56179 0.00703 0.0
C1114 C 0.6932 0.59274 0.01858 0.0
C1115 C 0.68787 0.61895 0.0179 0.0
C1116 C 0.64672 0.5811 0.01116 0.0
C1117 C 0.6616 0.62536 0.01387 0.0
C1118 C 0.59888 0.56967 0.00076 0.0
C1119 C 0.60825 0.51779 0.00476 0.0
N1120 N 0.64212 0.60661 0.01062 0.0
N1121 N 0.62816 0.53612 0.00892 0.0
H1122 H 0.26959 0.71155 0.28012 0.0
H1123 H 0.21954 0.57411 0.22629 0.0
H1124 H 0.28351 0.68602 0.20332 0.0
H1125 H 0.18095 0.611 0.28696 0.0
H1126 H 0.2448 0.61428 0.21888 0.0
H1127 H 0.23858 0.67417 0.28463 0.0
C1128 C 0.26596 0.69815 0.26419 0.0
C1129 C 0.27907 0.7018 0.24133 0.0
C1130 C 0.23063 0.61367 0.23366 0.0
C1131 C 0.24401 0.65913 0.24639 0.0
C1132 C 0.21624 0.59066 0.23797 0.0
C1133 C 0.19817 0.58913 0.25734 0.0
C1134 C 0.22732 0.63521 0.24917 0.0
C1135 C 0.19466 0.61138 0.27177 0.0
C1136 C 0.24822 0.67696 0.2667 0.0
C1137 C 0.27363 0.68401 0.22118 0.0
N1138 N 0.20937 0.63347 0.26762 0.0
N1139 N 0.25673 0.66329 0.22428 0.0
H1140 H 0.93378 0.52009 0.00323 0.0
H1141 H 0.81101 0.57005 0.07384 0.0
H1142 H 0.9268 0.51788 0.08557 0.0
H1143 H 0.83103 0.59621 0.99814 0.0
H1144 H 0.84916 0.54381 0.07568 0.0
H1145 H 0.89232 0.54182 0.99867 0.0
C1146 C 0.92346 0.52413 0.0203 0.0
C1147 C 0.93376 0.51739 0.04483 0.0
C1148 C 0.8451 0.55516 0.05859 0.0
C1149 C 0.8864 0.54184 0.03975 0.0
C1150 C 0.82321 0.57003 0.05743 0.0
C1151 C 0.81793 0.58557 0.03588 0.0
C1152 C 0.86176 0.5556 0.03798 0.0
C1153 C 0.83446 0.58467 0.0152 0.0
C1154 C 0.8999 0.53655 0.0177 0.0
C1155 C 0.9197 0.52308 0.06635 0.0
N1156 N 0.85573 0.57002 0.0168 0.0
N1157 N 0.8967 0.5349 0.06331 0.0
H1158 H 0.0987 0.00142 0.98446 0.0
H1159 H 0.13632 0.85482 0.97223 0.0
H1160 H 0.04236 0.93633 0.98379 0.0
H1161 H 0.1938 0.91834 0.98489 0.0
H1162 H 0.10167 0.88522 0.96967 0.0
H1163 H 0.13355 0.97205 0.978 0.0
C1164 C 0.0936 0.98097 0.98256 0.0
C1165 C 0.0676 0.97127 0.98477 0.0
C1166 C 0.12187 0.89255 0.97282 0.0
C1167 C 0.10741 0.93756 0.97765 0.0
C1168 C 0.14172 0.8752 0.97423 0.0
C1169 C 0.16802 0.88401 0.97907 0.0
C1170 C 0.1283 0.91898 0.97628 0.0
C1171 C 0.17378 0.91067 0.9813 0.0
C1172 C 0.11353 0.96422 0.97906 0.0
C1173 C 0.06219 0.94458 0.98251 0.0
N1174 N 0.15404 0.92721 0.98009 0.0
N1175 N 0.08193 0.92867 0.97918 0.0
loop_
_geom_bond_atom_site_label_1
_geom_bond_atom_site_label_2
_geom_bond_distance
_geom_bond_site_symmetry_2
_ccdc_geom_bond_type
H0 C3 0.931 . S
H1 C6 0.928 . S
H2 C8 0.930 1_556 S
C3 H0 0.931 . S
C3 C4 1.413 . S
C3 C5 1.360 . S
C4 C3 1.413 . S
C4 C8 1.429 . S
C5 C3 1.360 . S
C5 C6 1.372 . S
C6 H1 0.928 . S
C6 C5 1.372 . S
C6 C7 1.404 . S
C7 C6 1.404 . S
C7 C8 1.391 . S
C8 H2 0.930 1_554 S
C8 C4 1.429 . S
C8 C7 1.391 . S
H9 C12 0.931 . S
H10 C15 0.928 . S
H11 C17 0.930 . S
C12 H9 0.931 . S
C12 C13 1.413 . S
C12 C14 1.360 . S
C13 C12 1.413 . S
C13 C17 1.429 . S
C14 C12 1.360 . S
C14 C15 1.372 . S
C15 H10 0.928 . S
C15 C14 1.372 . S
C15 C16 1.404 . S
C16 C15 1.404 . S
C16 C17 1.391 . S
C17 H11 0.930 . S
C17 C13 1.429 . S
C17 C16 1.391 . S
H18 C21 0.931 . S
H19 C24 0.928 . S
H20 C26 0.930 . S
C21 H18 0.931 . S
C21 C22 1.413 . S
C21 C23 1.360 . S
C22 C21 1.413 . S
C22 C26 1.429 . S
C23 C21 1.360 . S
C23 C24 1.372 1_655 S
C24 H19 0.928 . S
C24 C23 1.372 1_455 S
C24 C25 1.404 1_455 S
C25 C24 1.404 1_655 S
C25 C26 1.391 . S
C26 H20 0.930 . S
C26 C22 1.429 . S
C26 C25 1.391 . S
H27 C30 0.931 . S
H28 C33 0.928 . S
H29 C35 0.930 . S
C30 H27 0.931 . S
C30 C31 1.413 . S
C30 C32 1.360 . S
C31 C30 1.413 . S
C31 C35 1.429 . S
C32 C30 1.360 . S
C32 C33 1.372 . S
C33 H28 0.928 . S
C33 C32 1.372 . S
C33 C34 1.404 . S
C34 C33 1.404 . S
C34 C35 1.391 . S
C35 H29 0.930 . S
C35 C31 1.429 . S
C35 C34 1.391 . S
H36 C39 0.931 . S
H37 C42 0.928 1_545 S
H38 C44 0.930 . S
C39 H36 0.931 . S
C39 C40 1.413 . S
C39 C41 1.360 . S
C40 C39 1.413 . S
C40 C44 1.429 . S
C41 C39 1.360 . S
C41 C42 1.372 . S
C42 H37 0.928 1_565 S
C42 C41 1.372 . S
C42 C43 1.404 . S
C43 C42 1.404 . S
C43 C44 1.391 . S
C44 H38 0.930 . S
C44 C40 1.429 . S
C44 C43 1.391 . S
H45 C48 0.931 . S
H46 C51 0.928 . S
H47 C53 0.930 . S
C48 H45 0.931 . S
C48 C49 1.413 . S
C48 C50 1.360 . S
C49 C48 1.413 . S
C49 C53 1.429 . S
C50 C48 1.360 . S
C50 C51 1.372 . S
C51 H46 0.928 . S
C51 C50 1.372 . S
C51 C52 1.404 . S
C52 C51 1.404 . S
C52 C53 1.391 . S
C53 H47 0.930 . S
C53 C49 1.429 . S
C53 C52 1.391 . S
H54 C57 0.931 . S
H55 C60 0.940 . S
H56 C62 0.930 . S
C57 H54 0.931 . S
C57 C58 1.413 . S
C57 C59 1.360 . S
C58 C57 1.413 . S
C58 C62 1.429 . S
C59 C57 1.360 . S
C59 C60 1.372 . S
C60 H55 0.940 . S
C60 C59 1.372 . S
C60 C61 1.404 . S
C61 C60 1.404 . S
C61 C62 1.391 . S
C62 H56 0.930 . S
C62 C58 1.429 . S
C62 C61 1.391 . S
H63 C66 0.931 . S
H64 C69 0.928 . S
H65 C71 0.930 . S
C66 H63 0.931 . S
C66 C67 1.413 . S
C66 C68 1.360 . S
C67 C66 1.413 . S
C67 C71 1.429 . S
C68 C66 1.360 . S
C68 C69 1.372 . S
C69 H64 0.928 . S
C69 C68 1.372 . S
C69 C70 1.404 . S
C70 C69 1.404 . S
C70 C71 1.391 . S
C71 H65 0.930 . S
C71 C67 1.429 . S
C71 C70 1.391 . S
H72 C75 0.931 . S
H73 C78 0.928 . S
H74 C80 0.930 . S
C75 H72 0.931 . S
C75 C76 1.413 . S
C75 C77 1.360 . S
C76 C75 1.413 . S
C76 C80 1.429 . S
C77 C75 1.360 . S
C77 C78 1.372 . S
C78 H73 0.928 . S
C78 C77 1.372 . S
C78 C79 1.404 . S
C79 C78 1.404 . S
C79 C80 1.391 . S
C80 H74 0.930 . S
C80 C76 1.429 . S
C80 C79 1.391 . S
H81 C84 0.954 . S
H82 C87 0.928 . S
H83 C89 0.930 . S
C84 H81 0.954 . S
C84 C85 1.413 . S
C84 C86 1.360 . S
C85 C84 1.413 . S
C85 C89 1.429 . S
C86 C84 1.360 . S
C86 C87 1.372 . S
C87 H82 0.928 . S
C87 C86 1.372 . S
C87 C88 1.404 . S
C88 C87 1.404 . S
C88 C89 1.391 . S
C89 H83 0.930 . S
C89 C85 1.429 . S
C89 C88 1.391 . S
H90 C93 0.931 . S
H91 C96 0.928 . S
H92 C98 0.930 . S
C93 H90 0.931 . S
C93 C94 1.413 . S
C93 C95 1.360 . S
C94 C93 1.413 . S
C94 C98 1.429 . S
C95 C93 1.360 . S
C95 C96 1.372 . S
C96 H91 0.928 . S
C96 C95 1.372 . S
C96 C97 1.404 . S
C97 C96 1.404 . S
C97 C98 1.391 . S
C98 H92 0.930 . S
C98 C94 1.429 . S
C98 C97 1.391 . S
H99 C102 0.931 . S
H100 C105 0.928 . S
H101 C107 0.930 . S
C102 H99 0.931 . S
C102 C103 1.413 . S
C102 C104 1.360 . S
C103 C102 1.413 . S
C103 C107 1.429 . S
C104 C102 1.360 . S
C104 C105 1.372 . S
C105 H100 0.928 . S
C105 C104 1.372 . S
C105 C106 1.404 . S
C106 C105 1.404 . S
C106 C107 1.391 . S
C107 H101 0.930 . S
C107 C103 1.429 . S
C107 C106 1.391 . S
H108 C111 0.931 . S
H109 C114 0.928 . S
H110 C116 0.930 . S
C111 H108 0.931 . S
C111 C112 1.413 . S
C111 C113 1.360 . S
C112 C111 1.413 . S
C112 C116 1.429 . S
C113 C111 1.360 . S
C113 C114 1.372 . S
C114 H109 0.928 . S
C114 C113 1.372 . S
C114 C115 1.404 . S
C115 C114 1.404 . S
C115 C116 1.391 . S
C116 H110 0.930 . S
C116 C112 1.429 . S
C116 C115 1.391 . S
H117 C120 0.931 . S
H118 C123 0.928 . S
H119 C125 0.911 1_554 S
C120 H117 0.931 . S
C120 C121 1.413 . S
C120 C122 1.360 . S
C121 C120 1.413 . S
C121 C125 1.429 . S
C122 C120 1.360 . S
C122 C123 1.372 . S
C123 H118 0.928 . S
C123 C122 1.372 . S
C123 C124 1.404 . S
C124 C123 1.404 . S
C124 C125 1.391 . S
C125 H119 0.911 1_556 S
C125 C121 1.429 . S
C125 C124 1.391 . S
H126 C129 0.931 . S
H127 C132 0.928 . S
H128 C134 0.930 . S
C129 H126 0.931 . S
C129 C130 1.413 . S
C129 C131 1.360 . S
C130 C129 1.413 . S
C130 C134 1.429 . S
C131 C129 1.360 . S
C131 C132 1.372 . S
C132 H127 0.928 . S
C132 C131 1.372 . S
C132 C133 1.404 . S
C133 C132 1.404 . S
C133 C134 1.391 . S
C134 H128 0.930 . S
C134 C130 1.429 . S
C134 C133 1.391 . S
H135 C138 0.931 1_554 S
H136 C141 0.928 . S
H137 C143 0.930 1_565 S
C138 H135 0.931 1_556 S
C138 C139 1.413 . S
C138 C140 1.360 . S
C139 C138 1.413 . S
C139 C143 1.429 . S
C140 C138 1.360 . S
C140 C141 1.372 . S
C141 H136 0.928 . S
C141 C140 1.372 . S
C141 C142 1.404 . S
C142 C141 1.404 . S
C142 C143 1.391 . S
C143 H137 0.930 1_545 S
C143 C139 1.429 . S
C143 C142 1.391 . S
Mg144 O145 2.027 1_554 S
Mg144 O151 1.986 1_554 S
Mg144 O153 2.114 . S
Mg144 O154 2.251 . S
Mg144 O157 2.010 . S
O145 Mg144 2.027 1_556 S
O145 C148 1.252 . S
O146 Mg147 2.028 . S
O146 C148 1.248 . S
Mg147 O146 2.028 . S
Mg147 O152 2.032 . S
Mg147 O154 2.079 1_556 S
C148 O145 1.252 . S
C148 O146 1.248 . S
C149 O150 1.264 . S
C149 O157 1.249 . S
O150 C149 1.264 . S
O151 Mg144 1.986 1_556 S
O151 C155 1.246 . S
O152 Mg147 2.032 . S
O152 C155 1.259 . S
O153 Mg144 2.114 . S
O153 C156 1.252 . S
O154 Mg144 2.251 . S
O154 Mg147 2.079 1_554 S
O154 C156 1.273 . S
C155 O151 1.246 . S
C155 O152 1.259 . S
C156 O153 1.252 . S
C156 O154 1.273 . S
O157 Mg144 2.010 . S
O157 C149 1.249 . S
Mg158 O159 2.028 . S
Mg158 O165 1.986 . S
Mg158 O167 2.114 . S
Mg158 O168 2.251 . S
Mg158 O171 2.010 . S
O159 Mg158 2.028 . S
O159 C162 1.250 . S
O160 Mg161 2.028 . S
O160 C162 1.248 . S
Mg161 O160 2.028 . S
Mg161 O166 2.032 . S
Mg161 O168 2.079 . S
C162 O159 1.250 . S
C162 O160 1.248 . S
C163 O164 1.264 . S
C163 O171 1.249 . S
O164 C163 1.264 . S
O165 Mg158 1.986 . S
O165 C169 1.246 . S
O166 Mg161 2.032 . S
O166 C169 1.259 . S
O167 Mg158 2.114 . S
O167 C170 1.252 . S
O168 Mg158 2.251 . S
O168 Mg161 2.079 . S
O168 C170 1.273 . S
C169 O165 1.246 . S
C169 O166 1.259 . S
C170 O167 1.252 . S
C170 O168 1.273 . S
O171 Mg158 2.010 . S
O171 C163 1.249 . S
Mg172 O173 2.028 . S
Mg172 O179 1.986 1_554 S
Mg172 O181 2.114 . S
Mg172 O182 2.251 . S
Mg172 O185 2.010 . S
O173 Mg172 2.028 . S
O173 C176 1.250 . S
O174 Mg175 2.028 . S
O174 C176 1.248 1_556 S
Mg175 O174 2.028 . S
Mg175 O180 2.032 . S
Mg175 O182 2.079 1_556 S
C176 O173 1.250 . S
C176 O174 1.248 1_554 S
C177 O178 1.264 . S
C177 O185 1.249 . S
O178 C177 1.264 . S
O179 Mg172 1.986 1_556 S
O179 C183 1.246 . S
O180 Mg175 2.032 . S
O180 C183 1.259 . S
O181 Mg172 2.114 . S
O181 C184 1.252 . S
O182 Mg172 2.251 . S
O182 Mg175 2.079 1_554 S
O182 C184 1.273 . S
C183 O179 1.246 . S
C183 O180 1.259 . S
C184 O181 1.252 . S
C184 O182 1.273 . S
O185 Mg172 2.010 . S
O185 C177 1.249 . S
Mg186 O187 2.025 1_545 S
Mg186 O193 1.986 . S
Mg186 O195 2.114 . S
Mg186 O196 2.251 . S
Mg186 O199 2.010 . S
O187 Mg186 2.025 1_565 S
O187 C190 1.255 . S
O188 Mg189 2.028 . S
O188 C190 1.248 . S
Mg189 O188 2.028 . S
Mg189 O194 2.032 . S
Mg189 O196 2.079 1_565 S
C190 O187 1.255 . S
C190 O188 1.248 . S
C191 O192 1.264 . S
C191 O199 1.249 . S
O192 C191 1.264 . S
O193 Mg186 1.986 . S
O193 C197 1.246 . S
O194 Mg189 2.032 . S
O194 C197 1.259 1_565 S
O195 Mg186 2.114 . S
O195 C198 1.252 . S
O196 Mg186 2.251 . S
O196 Mg189 2.079 1_545 S
O196 C198 1.273 . S
C197 O193 1.246 . S
C197 O194 1.259 1_545 S
C198 O195 1.252 . S
C198 O196 1.273 . S
O199 Mg186 2.010 . S
O199 C191 1.249 . S
Mg200 O201 2.028 . S
Mg200 O207 1.986 . S
Mg200 O209 2.114 . S
Mg200 O210 2.251 . S
Mg200 O213 2.010 . S
O201 Mg200 2.028 . S
O201 C204 1.250 . S
O202 Mg203 2.028 . S
O202 C204 1.248 . S
Mg203 O202 2.028 . S
Mg203 O208 2.032 . S
Mg203 O210 2.079 . S
C204 O201 1.250 . S
C204 O202 1.248 . S
C205 O206 1.264 . S
C205 O213 1.249 . S
O206 C205 1.264 . S
O207 Mg200 1.986 . S
O207 C211 1.246 . S
O208 Mg203 2.032 . S
O208 C211 1.259 . S
O209 Mg200 2.114 . S
O209 C212 1.252 . S
O210 Mg200 2.251 . S
O210 Mg203 2.079 . S
O210 C212 1.273 . S
C211 O207 1.246 . S
C211 O208 1.259 . S
C212 O209 1.252 . S
C212 O210 1.273 . S
O213 Mg200 2.010 . S
O213 C205 1.249 . S
Mg214 O215 2.028 . S
Mg214 O221 1.986 . S
Mg214 O223 2.114 . S
Mg214 O224 2.251 . S
Mg214 O227 2.010 . S
O215 Mg214 2.028 . S
O215 C218 1.250 . S
O216 Mg217 2.028 . S
O216 C218 1.248 . S
Mg217 O216 2.028 . S
Mg217 O222 2.032 . S
Mg217 O224 2.079 . S
C218 O215 1.250 . S
C218 O216 1.248 . S
C219 O220 1.264 . S
C219 O227 1.249 . S
O220 C219 1.264 . S
O221 Mg214 1.986 . S
O221 C225 1.246 . S
O222 Mg217 2.032 . S
O222 C225 1.259 . S
O223 Mg214 2.114 . S
O223 C226 1.252 . S
O224 Mg214 2.251 . S
O224 Mg217 2.079 . S
O224 C226 1.273 . S
C225 O221 1.246 . S
C225 O222 1.259 . S
C226 O223 1.252 . S
C226 O224 1.273 . S
O227 Mg214 2.010 . S
O227 C219 1.249 . S
Mg228 O229 2.028 . S
Mg228 O235 1.986 . S
Mg228 O237 2.114 . S
Mg228 O238 2.251 . S
Mg228 O241 2.010 . S
O229 Mg228 2.028 . S
O229 C232 1.250 . S
O230 Mg231 2.028 . S
O230 C232 1.248 . S
Mg231 O230 2.028 . S
Mg231 O236 2.032 . S
Mg231 O238 2.079 . S
C232 O229 1.250 . S
C232 O230 1.248 . S
C233 O234 1.264 . S
C233 O241 1.249 . S
O234 C233 1.264 . S
O235 Mg228 1.986 . S
O235 C239 1.246 . S
O236 Mg231 2.032 . S
O236 C239 1.259 . S
O237 Mg228 2.114 . S
O237 C240 1.252 . S
O238 Mg228 2.251 . S
O238 Mg231 2.079 . S
O238 C240 1.273 . S
C239 O235 1.246 . S
C239 O236 1.259 . S
C240 O237 1.252 . S
C240 O238 1.273 . S
O241 Mg228 2.010 . S
O241 C233 1.249 . S
Mg242 O243 2.028 1_545 S
Mg242 O249 1.986 1_545 S
Mg242 O251 2.114 . S
Mg242 O252 2.251 . S
Mg242 O255 2.010 . S
O243 Mg242 2.028 1_565 S
O243 C246 1.250 . S
O244 Mg245 2.028 . S
O244 C246 1.248 . S
Mg245 O244 2.028 . S
Mg245 O250 2.032 . S
Mg245 O252 2.079 1_565 S
C246 O243 1.250 . S
C246 O244 1.248 . S
C247 O248 1.264 . S
C247 O255 1.249 . S
O248 C247 1.264 . S
O249 Mg242 1.986 1_565 S
O249 C253 1.246 . S
O250 Mg245 2.032 . S
O250 C253 1.259 . S
O251 Mg242 2.114 . S
O251 C254 1.252 . S
O252 Mg242 2.251 . S
O252 Mg245 2.079 1_545 S
O252 C254 1.273 . S
C253 O249 1.246 . S
C253 O250 1.259 . S
C254 O251 1.252 . S
C254 O252 1.273 . S
O255 Mg242 2.010 . S
O255 C247 1.249 . S
Mg256 O257 2.046 . S
Mg256 O263 1.986 . S
Mg256 O265 2.114 . S
Mg256 O266 2.251 . S
Mg256 O269 2.010 . S
O257 Mg256 2.046 . S
O257 C260 1.225 1_455 S
O258 Mg259 2.028 . S
O258 C260 1.248 . S
Mg259 O258 2.028 . S
Mg259 O264 2.032 . S
Mg259 O266 2.079 1_655 S
C260 O257 1.225 1_655 S
C260 O258 1.248 . S
C261 O262 1.264 . S
C261 O269 1.249 . S
O262 C261 1.264 . S
O263 Mg256 1.986 . S
O263 C267 1.246 . S
O264 Mg259 2.032 . S
O264 C267 1.259 1_655 S
O265 Mg256 2.114 . S
O265 C268 1.252 . S
O266 Mg256 2.251 . S
O266 Mg259 2.079 1_455 S
O266 C268 1.273 . S
C267 O263 1.246 . S
C267 O264 1.259 1_455 S
C268 O265 1.252 . S
C268 O266 1.273 . S
O269 Mg256 2.010 . S
O269 C261 1.249 . S
Mg270 O271 2.028 . S
Mg270 O277 1.986 . S
Mg270 O279 2.114 . S
Mg270 O280 2.251 . S
Mg270 O283 2.010 . S
O271 Mg270 2.028 . S
O271 C274 1.250 . S
O272 Mg273 2.028 . S
O272 C274 1.248 . S
Mg273 O272 2.028 . S
Mg273 O278 2.032 . S
Mg273 O280 2.079 . S
C274 O271 1.250 . S
C274 O272 1.248 . S
C275 O276 1.264 . S
C275 O283 1.249 . S
O276 C275 1.264 . S
O277 Mg270 1.986 . S
O277 C281 1.246 . S
O278 Mg273 2.032 . S
O278 C281 1.259 . S
O279 Mg270 2.114 . S
O279 C282 1.252 . S
O280 Mg270 2.251 . S
O280 Mg273 2.079 . S
O280 C282 1.273 . S
C281 O277 1.246 . S
C281 O278 1.259 . S
C282 O279 1.252 . S
C282 O280 1.273 . S
O283 Mg270 2.010 . S
O283 C275 1.249 . S
Mg284 O285 2.028 1_655 S
Mg284 O291 1.986 . S
Mg284 O293 2.114 . S
Mg284 O294 2.251 1_655 S
Mg284 O297 2.010 . S
O285 Mg284 2.028 1_455 S
O285 C288 1.250 . S
O286 Mg287 2.028 . S
O286 C288 1.248 . S
Mg287 O286 2.028 . S
Mg287 O292 2.032 . S
Mg287 O294 2.079 . S
C288 O285 1.250 . S
C288 O286 1.248 . S
C289 O290 1.264 . S
C289 O297 1.249 . S
O290 C289 1.264 . S
O291 Mg284 1.986 . S
O291 C295 1.246 1_655 S
O292 Mg287 2.032 . S
O292 C295 1.259 . S
O293 Mg284 2.114 . S
O293 C296 1.252 . S
O294 Mg284 2.251 1_455 S
O294 Mg287 2.079 . S
O294 C296 1.273 1_455 S
C295 O291 1.246 1_455 S
C295 O292 1.259 . S
C296 O293 1.252 . S
C296 O294 1.273 1_655 S
O297 Mg284 2.010 . S
O297 C289 1.249 . S
Mg298 O299 2.028 . S
Mg298 O305 1.986 . S
Mg298 O307 2.114 . S
Mg298 O308 2.251 . S
Mg298 O311 2.010 . S
O299 Mg298 2.028 . S
O299 C302 1.250 . S
O300 Mg301 2.028 . S
O300 C302 1.248 . S
Mg301 O300 2.028 . S
Mg301 O306 2.032 . S
Mg301 O308 2.079 . S
C302 O299 1.250 . S
C302 O300 1.248 . S
C303 O304 1.264 . S
C303 O311 1.249 . S
O304 C303 1.264 . S
O305 Mg298 1.986 . S
O305 C309 1.246 . S
O306 Mg301 2.032 . S
O306 C309 1.259 . S
O307 Mg298 2.114 . S
O307 C310 1.252 . S
O308 Mg298 2.251 . S
O308 Mg301 2.079 . S
O308 C310 1.273 . S
C309 O305 1.246 . S
C309 O306 1.259 . S
C310 O307 1.252 . S
C310 O308 1.273 . S
O311 Mg298 2.010 . S
O311 C303 1.249 . S
H312 C318 0.930 . S
H313 C322 0.930 . S
H314 C327 0.929 . S
H315 C325 0.929 . S
H316 C320 0.929 . S
H317 C326 0.929 . S
C318 H312 0.930 . S
C318 C319 1.367 . S
C318 C326 1.378 . S
C319 C318 1.367 . S
C319 C327 1.433 . S
C320 H316 0.929 . S
C320 C322 1.378 . S
C320 C324 1.350 . S
C321 C324 1.463 . S
C321 C326 1.350 . S
C321 N329 1.427 . S
C322 H313 0.930 . S
C322 C320 1.378 . S
C322 C323 1.367 . S
C323 C322 1.367 . S
C323 C325 1.433 . S
C324 C320 1.350 . S
C324 C321 1.463 . S
C324 N328 1.427 . S
C325 H315 0.929 . S
C325 C323 1.433 . S
C325 N328 1.384 . S
C326 H317 0.929 . S
C326 C318 1.378 . S
C326 C321 1.350 . S
C327 H314 0.929 . S
C327 C319 1.433 . S
C327 N329 1.384 . S
N328 C324 1.427 . S
N328 C325 1.384 . S
N329 C321 1.427 . S
N329 C327 1.384 . S
H330 C336 0.930 . S
H331 C340 0.930 . S
H332 C345 0.929 1_655 S
H333 C343 0.929 . S
H334 C338 0.929 . S
H335 C344 0.929 . S
C336 H330 0.930 . S
C336 C337 1.367 . S
C336 C344 1.378 . S
C337 C336 1.367 . S
C337 C345 1.433 . S
C338 H334 0.929 . S
C338 C340 1.378 . S
C338 C342 1.350 . S
C339 C342 1.463 . S
C339 C344 1.350 . S
C339 N347 1.427 . S
C340 H331 0.930 . S
C340 C338 1.378 . S
C340 C341 1.367 . S
C341 C340 1.367 . S
C341 C343 1.433 . S
C342 C338 1.350 . S
C342 C339 1.463 . S
C342 N346 1.427 . S
C343 H333 0.929 . S
C343 C341 1.433 . S
C343 N346 1.384 . S
C344 H335 0.929 . S
C344 C336 1.378 . S
C344 C339 1.350 . S
C345 H332 0.929 1_455 S
C345 C337 1.433 . S
C345 N347 1.384 . S
N346 C342 1.427 . S
N346 C343 1.384 . S
N347 C339 1.427 . S
N347 C345 1.384 . S
H348 C354 0.930 . S
H349 C358 0.930 . S
H350 C363 0.929 . S
H351 C361 0.929 . S
H352 C356 0.929 . S
H353 C362 0.929 . S
C354 H348 0.930 . S
C354 C355 1.367 . S
C354 C362 1.378 . S
C355 C354 1.367 . S
C355 C363 1.433 . S
C356 H352 0.929 . S
C356 C358 1.378 . S
C356 C360 1.350 . S
C357 C360 1.463 . S
C357 C362 1.350 . S
C357 N365 1.427 . S
C358 H349 0.930 . S
C358 C356 1.378 . S
C358 C359 1.367 . S
C359 C358 1.367 . S
C359 C361 1.433 . S
C360 C356 1.350 . S
C360 C357 1.463 . S
C360 N364 1.427 . S
C361 H351 0.929 . S
C361 C359 1.433 . S
C361 N364 1.384 . S
C362 H353 0.929 . S
C362 C354 1.378 . S
C362 C357 1.350 . S
C363 H350 0.929 . S
C363 C355 1.433 . S
C363 N365 1.384 . S
N364 C360 1.427 . S
N364 C361 1.384 . S
N365 C357 1.427 . S
N365 C363 1.384 . S
H366 C372 0.930 . S
H367 C376 0.930 . S
H368 C381 0.929 . S
H369 C379 0.929 . S
H370 C374 0.929 . S
H371 C380 0.929 . S
C372 H366 0.930 . S
C372 C373 1.367 . S
C372 C380 1.378 1_455 S
C373 C372 1.367 . S
C373 C381 1.433 1_565 S
C374 H370 0.929 . S
C374 C376 1.378 . S
C374 C378 1.350 1_545 S
C375 C378 1.463 . S
C375 C380 1.350 . S
C375 N383 1.427 1_665 S
C376 H367 0.930 . S
C376 C374 1.378 . S
C376 C377 1.367 . S
C377 C376 1.367 . S
C377 C379 1.433 1_545 S
C378 C374 1.350 1_565 S
C378 C375 1.463 . S
C378 N382 1.427 . S
C379 H369 0.929 . S
C379 C377 1.433 1_565 S
C379 N382 1.384 . S
C380 H371 0.929 . S
C380 C372 1.378 1_655 S
C380 C375 1.350 . S
C381 H368 0.929 . S
C381 C373 1.433 1_545 S
C381 N383 1.384 . S
N382 C378 1.427 . S
N382 C379 1.384 . S
N383 C375 1.427 1_445 S
N383 C381 1.384 . S
H384 C390 0.930 . S
H385 C394 0.930 . S
H386 C399 0.929 . S
H387 C397 0.929 . S
H388 C392 0.929 . S
H389 C398 0.929 . S
C390 H384 0.930 . S
C390 C391 1.367 . S
C390 C398 1.378 . S
C391 C390 1.367 . S
C391 C399 1.433 . S
C392 H388 0.929 . S
C392 C394 1.378 . S
C392 C396 1.350 . S
C393 C396 1.463 . S
C393 C398 1.350 . S
C393 N401 1.427 . S
C394 H385 0.930 . S
C394 C392 1.378 . S
C394 C395 1.367 . S
C395 C394 1.367 . S
C395 C397 1.433 . S
C396 C392 1.350 . S
C396 C393 1.463 . S
C396 N400 1.427 . S
C397 H387 0.929 . S
C397 C395 1.433 . S
C397 N400 1.384 . S
C398 H389 0.929 . S
C398 C390 1.378 . S
C398 C393 1.350 . S
C399 H386 0.929 . S
C399 C391 1.433 . S
C399 N401 1.384 . S
N400 C396 1.427 . S
N400 C397 1.384 . S
N401 C393 1.427 . S
N401 C399 1.384 . S
H402 C408 0.930 . S
H403 C412 0.930 . S
H404 C417 0.929 . S
H405 C415 0.929 . S
H406 C410 0.929 . S
H407 C416 0.929 . S
C408 H402 0.930 . S
C408 C409 1.367 . S
C408 C416 1.378 . S
C409 C408 1.367 . S
C409 C417 1.433 . S
C410 H406 0.929 . S
C410 C412 1.378 . S
C410 C414 1.350 . S
C411 C414 1.463 . S
C411 C416 1.350 . S
C411 N419 1.427 . S
C412 H403 0.930 . S
C412 C410 1.378 . S
C412 C413 1.367 . S
C413 C412 1.367 . S
C413 C415 1.433 . S
C414 C410 1.350 . S
C414 C411 1.463 . S
C414 N418 1.427 . S
C415 H405 0.929 . S
C415 C413 1.433 . S
C415 N418 1.384 . S
C416 H407 0.929 . S
C416 C408 1.378 . S
C416 C411 1.350 . S
C417 H404 0.929 . S
C417 C409 1.433 . S
C417 N419 1.384 . S
N418 C414 1.427 . S
N418 C415 1.384 . S
N419 C411 1.427 . S
N419 C417 1.384 . S
H420 C426 0.930 . S
H421 C430 0.930 . S
H422 C435 0.929 . S
H423 C433 0.929 . S
H424 C428 0.929 . S
H425 C434 0.929 . S
C426 H420 0.930 . S
C426 C427 1.367 . S
C426 C434 1.378 . S
C427 C426 1.367 . S
C427 C435 1.433 . S
C428 H424 0.929 . S
C428 C430 1.378 . S
C428 C432 1.350 . S
C429 C432 1.463 . S
C429 C434 1.350 . S
C429 N437 1.427 . S
C430 H421 0.930 . S
C430 C428 1.378 . S
C430 C431 1.367 . S
C431 C430 1.367 . S
C431 C433 1.433 . S
C432 C428 1.350 . S
C432 C429 1.463 . S
C432 N436 1.427 . S
C433 H423 0.929 . S
C433 C431 1.433 . S
C433 N436 1.384 . S
C434 H425 0.929 . S
C434 C426 1.378 . S
C434 C429 1.350 . S
C435 H422 0.929 . S
C435 C427 1.433 . S
C435 N437 1.384 . S
N436 C432 1.427 . S
N436 C433 1.384 . S
N437 C429 1.427 . S
N437 C435 1.384 . S
H438 C444 0.930 . S
H439 C448 0.930 . S
H440 C453 0.929 1_545 S
H441 C451 0.929 . S
H442 C446 0.929 . S
H443 C452 0.929 . S
C444 H438 0.930 . S
C444 C445 1.367 . S
C444 C452 1.378 . S
C445 C444 1.367 . S
C445 C453 1.433 . S
C446 H442 0.929 . S
C446 C448 1.378 . S
C446 C450 1.350 1_545 S
C447 C450 1.463 . S
C447 C452 1.350 . S
C447 N455 1.427 . S
C448 H439 0.930 . S
C448 C446 1.378 . S
C448 C449 1.367 1_545 S
C449 C448 1.367 1_565 S
C449 C451 1.433 . S
C450 C446 1.350 1_565 S
C450 C447 1.463 . S
C450 N454 1.427 . S
C451 H441 0.929 . S
C451 C449 1.433 . S
C451 N454 1.384 . S
C452 H443 0.929 . S
C452 C444 1.378 . S
C452 C447 1.350 . S
C453 H440 0.929 1_565 S
C453 C445 1.433 . S
C453 N455 1.384 . S
N454 C450 1.427 . S
N454 C451 1.384 . S
N455 C447 1.427 . S
N455 C453 1.384 . S
H456 C462 0.930 . S
H457 C466 0.930 . S
H458 C471 0.929 . S
H459 C469 0.929 . S
H460 C464 0.929 . S
H461 C470 0.929 . S
C462 H456 0.930 . S
C462 C463 1.367 . S
C462 C470 1.378 . S
C463 C462 1.367 . S
C463 C471 1.433 . S
C464 H460 0.929 . S
C464 C466 1.378 . S
C464 C468 1.350 . S
C465 C468 1.463 . S
C465 C470 1.350 . S
C465 N473 1.427 . S
C466 H457 0.930 . S
C466 C464 1.378 . S
C466 C467 1.367 . S
C467 C466 1.367 . S
C467 C469 1.433 . S
C468 C464 1.350 . S
C468 C465 1.463 . S
C468 N472 1.427 . S
C469 H459 0.929 . S
C469 C467 1.433 . S
C469 N472 1.384 . S
C470 H461 0.929 . S
C470 C462 1.378 . S
C470 C465 1.350 . S
C471 H458 0.929 . S
C471 C463 1.433 . S
C471 N473 1.384 . S
N472 C468 1.427 . S
N472 C469 1.384 . S
N473 C465 1.427 . S
N473 C471 1.384 . S
H474 C480 0.930 . S
H475 C484 0.930 . S
H476 C489 0.929 . S
H477 C487 0.929 . S
H478 C482 0.929 . S
H479 C488 0.929 . S
C480 H474 0.930 . S
C480 C481 1.367 . S
C480 C488 1.378 . S
C481 C480 1.367 . S
C481 C489 1.433 . S
C482 H478 0.929 . S
C482 C484 1.378 . S
C482 C486 1.350 . S
C483 C486 1.463 . S
C483 C488 1.350 . S
C483 N491 1.427 . S
C484 H475 0.930 . S
C484 C482 1.378 . S
C484 C485 1.367 . S
C485 C484 1.367 . S
C485 C487 1.433 . S
C486 C482 1.350 . S
C486 C483 1.463 . S
C486 N490 1.427 . S
C487 H477 0.929 . S
C487 C485 1.433 . S
C487 N490 1.384 . S
C488 H479 0.929 . S
C488 C480 1.378 . S
C488 C483 1.350 . S
C489 H476 0.929 . S
C489 C481 1.433 . S
C489 N491 1.384 . S
N490 C486 1.427 . S
N490 C487 1.384 . S
N491 C483 1.427 . S
N491 C489 1.384 . S
H492 C498 0.930 . S
H493 C502 0.930 . S
H494 C507 0.929 . S
H495 C505 0.929 . S
H496 C500 0.929 . S
H497 C506 0.929 . S
C498 H492 0.930 . S
C498 C499 1.367 . S
C498 C506 1.378 . S
C499 C498 1.367 . S
C499 C507 1.433 . S
C500 H496 0.929 . S
C500 C502 1.378 . S
C500 C504 1.350 . S
C501 C504 1.463 . S
C501 C506 1.350 . S
C501 N509 1.427 . S
C502 H493 0.930 . S
C502 C500 1.378 . S
C502 C503 1.367 . S
C503 C502 1.367 . S
C503 C505 1.433 . S
C504 C500 1.350 . S
C504 C501 1.463 . S
C504 N508 1.427 . S
C505 H495 0.929 . S
C505 C503 1.433 . S
C505 N508 1.384 . S
C506 H497 0.929 . S
C506 C498 1.378 . S
C506 C501 1.350 . S
C507 H494 0.929 . S
C507 C499 1.433 . S
C507 N509 1.384 . S
N508 C504 1.427 . S
N508 C505 1.384 . S
N509 C501 1.427 . S
N509 C507 1.384 . S
H510 C516 0.930 . S
H511 C520 0.930 . S
H512 C525 0.929 . S
H513 C523 0.929 . S
H514 C518 0.929 . S
H515 C524 0.929 . S
C516 H510 0.930 . S
C516 C517 1.367 . S
C516 C524 1.378 . S
C517 C516 1.367 . S
C517 C525 1.433 . S
C518 H514 0.929 . S
C518 C520 1.378 . S
C518 C522 1.350 . S
C519 C522 1.463 . S
C519 C524 1.350 . S
C519 N527 1.427 . S
C520 H511 0.930 . S
C520 C518 1.378 . S
C520 C521 1.367 . S
C521 C520 1.367 . S
C521 C523 1.433 . S
C522 C518 1.350 . S
C522 C519 1.463 . S
C522 N526 1.427 . S
C523 H513 0.929 . S
C523 C521 1.433 . S
C523 N526 1.384 . S
C524 H515 0.929 . S
C524 C516 1.378 . S
C524 C519 1.350 . S
C525 H512 0.929 . S
C525 C517 1.433 . S
C525 N527 1.384 . S
N526 C522 1.427 . S
N526 C523 1.384 . S
N527 C519 1.427 . S
N527 C525 1.384 . S
H528 C534 0.930 . S
H529 C538 0.930 . S
H530 C543 0.929 . S
H531 C541 0.929 . S
H532 C536 0.929 . S
H533 C542 0.929 . S
C534 H528 0.930 . S
C534 C535 1.367 . S
C534 C542 1.378 . S
C535 C534 1.367 . S
C535 C543 1.433 . S
C536 H532 0.929 . S
C536 C538 1.378 . S
C536 C540 1.350 . S
C537 C540 1.463 . S
C537 C542 1.350 . S
C537 N545 1.427 . S
C538 H529 0.930 . S
C538 C536 1.378 . S
C538 C539 1.367 . S
C539 C538 1.367 . S
C539 C541 1.433 . S
C540 C536 1.350 . S
C540 C537 1.463 . S
C540 N544 1.427 . S
C541 H531 0.929 . S
C541 C539 1.433 . S
C541 N544 1.384 . S
C542 H533 0.929 . S
C542 C534 1.378 . S
C542 C537 1.350 . S
C543 H530 0.929 . S
C543 C535 1.433 . S
C543 N545 1.384 . S
N544 C540 1.427 . S
N544 C541 1.384 . S
N545 C537 1.427 . S
N545 C543 1.384 . S
H546 C552 0.930 . S
H547 C556 0.930 . S
H548 C561 0.929 . S
H549 C559 0.929 . S
H550 C554 0.929 . S
H551 C560 0.929 . S
C552 H546 0.930 . S
C552 C553 1.367 . S
C552 C560 1.378 . S
C553 C552 1.367 . S
C553 C561 1.433 . S
C554 H550 0.929 . S
C554 C556 1.378 . S
C554 C558 1.350 . S
C555 C558 1.463 . S
C555 C560 1.350 . S
C555 N563 1.427 . S
C556 H547 0.930 . S
C556 C554 1.378 . S
C556 C557 1.367 . S
C557 C556 1.367 . S
C557 C559 1.433 . S
C558 C554 1.350 . S
C558 C555 1.463 . S
C558 N562 1.427 . S
C559 H549 0.929 . S
C559 C557 1.433 . S
C559 N562 1.384 . S
C560 H551 0.929 . S
C560 C552 1.378 . S
C560 C555 1.350 . S
C561 H548 0.929 . S
C561 C553 1.433 . S
C561 N563 1.384 . S
N562 C558 1.427 . S
N562 C559 1.384 . S
N563 C555 1.427 . S
N563 C561 1.384 . S
H564 C570 0.930 . S
H565 C574 0.930 . S
H566 C579 0.929 . S
H567 C577 0.929 . S
H568 C572 0.929 . S
H569 C578 0.929 . S
C570 H564 0.930 . S
C570 C571 1.367 . S
C570 C578 1.378 . S
C571 C570 1.367 . S
C571 C579 1.433 . S
C572 H568 0.929 . S
C572 C574 1.378 . S
C572 C576 1.350 . S
C573 C576 1.463 . S
C573 C578 1.350 . S
C573 N581 1.427 . S
C574 H565 0.930 . S
C574 C572 1.378 . S
C574 C575 1.367 . S
C575 C574 1.367 . S
C575 C577 1.433 . S
C576 C572 1.350 . S
C576 C573 1.463 . S
C576 N580 1.427 . S
C577 H567 0.929 . S
C577 C575 1.433 . S
C577 N580 1.384 . S
C578 H569 0.929 . S
C578 C570 1.378 . S
C578 C573 1.350 . S
C579 H566 0.929 . S
C579 C571 1.433 . S
C579 N581 1.384 . S
N580 C576 1.427 . S
N580 C577 1.384 . S
N581 C573 1.427 . S
N581 C579 1.384 . S
H582 C588 0.930 . S
H583 C592 0.930 . S
H584 C597 0.929 1_455 S
H585 C595 0.929 . S
H586 C590 0.929 . S
H587 C596 0.929 . S
C588 H582 0.930 . S
C588 C589 1.367 . S
C588 C596 1.378 . S
C589 C588 1.367 . S
C589 C597 1.433 . S
C590 H586 0.929 . S
C590 C592 1.378 . S
C590 C594 1.350 1_455 S
C591 C594 1.463 . S
C591 C596 1.350 . S
C591 N599 1.427 1_655 S
C592 H583 0.930 . S
C592 C590 1.378 . S
C592 C593 1.367 1_455 S
C593 C592 1.367 1_655 S
C593 C595 1.433 . S
C594 C590 1.350 1_655 S
C594 C591 1.463 . S
C594 N598 1.427 . S
C595 H585 0.929 . S
C595 C593 1.433 . S
C595 N598 1.384 . S
C596 H587 0.929 . S
C596 C588 1.378 . S
C596 C591 1.350 . S
C597 H584 0.929 1_655 S
C597 C589 1.433 . S
C597 N599 1.384 1_655 S
N598 C594 1.427 . S
N598 C595 1.384 . S
N599 C591 1.427 1_455 S
N599 C597 1.384 1_455 S
H600 C606 0.930 . S
H601 C610 0.930 . S
H602 C615 0.929 . S
H603 C613 0.929 . S
H604 C608 0.929 . S
H605 C614 0.929 . S
C606 H600 0.930 . S
C606 C607 1.367 . S
C606 C614 1.378 . S
C607 C606 1.367 . S
C607 C615 1.433 . S
C608 H604 0.929 . S
C608 C610 1.378 . S
C608 C612 1.350 . S
C609 C612 1.463 . S
C609 C614 1.350 . S
C609 N617 1.427 . S
C610 H601 0.930 . S
C610 C608 1.378 . S
C610 C611 1.367 . S
C611 C610 1.367 . S
C611 C613 1.433 . S
C612 C608 1.350 . S
C612 C609 1.463 . S
C612 N616 1.427 . S
C613 H603 0.929 . S
C613 C611 1.433 . S
C613 N616 1.384 . S
C614 H605 0.929 . S
C614 C606 1.378 . S
C614 C609 1.350 . S
C615 H602 0.929 . S
C615 C607 1.433 . S
C615 N617 1.384 . S
N616 C612 1.427 . S
N616 C613 1.384 . S
N617 C609 1.427 . S
N617 C615 1.384 . S
H618 C624 0.930 . S
H619 C628 0.930 . S
H620 C633 0.929 . S
H621 C631 0.929 . S
H622 C626 0.929 . S
H623 C632 0.929 . S
C624 H618 0.930 . S
C624 C625 1.367 . S
C624 C632 1.378 . S
C625 C624 1.367 . S
C625 C633 1.433 . S
C626 H622 0.929 . S
C626 C628 1.378 . S
C626 C630 1.350 . S
C627 C630 1.463 . S
C627 C632 1.350 . S
C627 N635 1.427 . S
C628 H619 0.930 . S
C628 C626 1.378 . S
C628 C629 1.367 . S
C629 C628 1.367 . S
C629 C631 1.433 . S
C630 C626 1.350 . S
C630 C627 1.463 . S
C630 N634 1.427 . S
C631 H621 0.929 . S
C631 C629 1.433 . S
C631 N634 1.384 . S
C632 H623 0.929 . S
C632 C624 1.378 . S
C632 C627 1.350 . S
C633 H620 0.929 . S
C633 C625 1.433 . S
C633 N635 1.384 . S
N634 C630 1.427 . S
N634 C631 1.384 . S
N635 C627 1.427 . S
N635 C633 1.384 . S
H636 C642 0.930 . S
H637 C646 0.930 . S
H638 C651 0.927 . S
H639 C649 0.929 . S
H640 C644 0.929 . S
H641 C650 0.929 . S
C642 H636 0.930 . S
C642 C643 1.367 . S
C642 C650 1.378 . S
C643 C642 1.367 . S
C643 C651 1.433 1_565 S
C644 H640 0.929 . S
C644 C646 1.378 . S
C644 C648 1.350 1_554 S
C645 C648 1.463 . S
C645 C650 1.350 . S
C645 N653 1.427 . S
C646 H637 0.930 . S
C646 C644 1.378 . S
C646 C647 1.367 1_554 S
C647 C646 1.367 1_556 S
C647 C649 1.433 . S
C648 C644 1.350 1_556 S
C648 C645 1.463 . S
C648 N652 1.427 . S
C649 H639 0.929 . S
C649 C647 1.433 . S
C649 N652 1.384 . S
C650 H641 0.929 . S
C650 C642 1.378 . S
C650 C645 1.350 . S
C651 H638 0.927 . S
C651 C643 1.433 1_545 S
C651 N653 1.384 1_545 S
N652 C648 1.427 . S
N652 C649 1.384 . S
N653 C645 1.427 . S
N653 C651 1.384 1_565 S
H654 C660 0.930 . S
H655 C664 0.930 . S
H656 C669 0.929 . S
H657 C667 0.929 . S
H658 C662 0.929 . S
H659 C668 0.929 . S
C660 H654 0.930 . S
C660 C661 1.367 . S
C660 C668 1.378 . S
C661 C660 1.367 . S
C661 C669 1.433 . S
C662 H658 0.929 . S
C662 C664 1.378 . S
C662 C666 1.350 . S
C663 C666 1.463 . S
C663 C668 1.350 . S
C663 N671 1.427 . S
C664 H655 0.930 . S
C664 C662 1.378 . S
C664 C665 1.367 . S
C665 C664 1.367 . S
C665 C667 1.433 . S
C666 C662 1.350 . S
C666 C663 1.463 . S
C666 N670 1.427 . S
C667 H657 0.929 . S
C667 C665 1.433 . S
C667 N670 1.384 . S
C668 H659 0.929 . S
C668 C660 1.378 . S
C668 C663 1.350 . S
C669 H656 0.929 . S
C669 C661 1.433 . S
C669 N671 1.384 . S
N670 C666 1.427 . S
N670 C667 1.384 . S
N671 C663 1.427 . S
N671 C669 1.384 . S
H672 C678 0.930 . S
H673 C682 0.930 . S
H674 C687 0.929 . S
H675 C685 0.929 . S
H676 C680 0.929 . S
H677 C686 0.929 . S
C678 H672 0.930 . S
C678 C679 1.367 . S
C678 C686 1.378 . S
C679 C678 1.367 . S
C679 C687 1.433 1_545 S
C680 H676 0.929 . S
C680 C682 1.378 . S
C680 C684 1.350 . S
C681 C684 1.463 . S
C681 C686 1.350 . S
C681 N689 1.427 . S
C682 H673 0.930 . S
C682 C680 1.378 . S
C682 C683 1.367 . S
C683 C682 1.367 . S
C683 C685 1.433 . S
C684 C680 1.350 . S
C684 C681 1.463 . S
C684 N688 1.427 . S
C685 H675 0.929 . S
C685 C683 1.433 . S
C685 N688 1.384 . S
C686 H677 0.929 . S
C686 C678 1.378 . S
C686 C681 1.350 . S
C687 H674 0.929 . S
C687 C679 1.433 1_565 S
C687 N689 1.384 1_565 S
N688 C684 1.427 . S
N688 C685 1.384 . S
N689 C681 1.427 . S
N689 C687 1.384 1_545 S
H690 C696 0.930 . S
H691 C700 0.930 . S
H692 C705 0.929 . S
H693 C703 0.929 . S
H694 C698 0.929 . S
H695 C704 0.929 . S
C696 H690 0.930 . S
C696 C697 1.367 . S
C696 C704 1.378 . S
C697 C696 1.367 . S
C697 C705 1.433 . S
C698 H694 0.929 . S
C698 C700 1.378 . S
C698 C702 1.350 . S
C699 C702 1.463 . S
C699 C704 1.350 . S
C699 N707 1.427 . S
C700 H691 0.930 . S
C700 C698 1.378 . S
C700 C701 1.367 . S
C701 C700 1.367 . S
C701 C703 1.433 . S
C702 C698 1.350 . S
C702 C699 1.463 . S
C702 N706 1.427 . S
C703 H693 0.929 . S
C703 C701 1.433 . S
C703 N706 1.384 . S
C704 H695 0.929 . S
C704 C696 1.378 . S
C704 C699 1.350 . S
C705 H692 0.929 . S
C705 C697 1.433 . S
C705 N707 1.384 . S
N706 C702 1.427 . S
N706 C703 1.384 . S
N707 C699 1.427 . S
N707 C705 1.384 . S
H708 C714 0.930 . S
H709 C718 0.930 . S
H710 C723 0.929 . S
H711 C721 0.929 . S
H712 C716 0.929 . S
H713 C722 0.929 . S
C714 H708 0.930 . S
C714 C715 1.358 1_545 S
C714 C722 1.378 . S
C715 C714 1.358 1_565 S
C715 C723 1.436 . S
C716 H712 0.929 . S
C716 C718 1.378 . S
C716 C720 1.350 . S
C717 C720 1.463 . S
C717 C722 1.350 . S
C717 N725 1.427 . S
C718 H709 0.930 . S
C718 C716 1.378 . S
C718 C719 1.367 . S
C719 C718 1.367 . S
C719 C721 1.433 . S
C720 C716 1.350 . S
C720 C717 1.463 . S
C720 N724 1.427 . S
C721 H711 0.929 . S
C721 C719 1.433 . S
C721 N724 1.384 . S
C722 H713 0.929 . S
C722 C714 1.378 . S
C722 C717 1.350 . S
C723 H710 0.929 . S
C723 C715 1.436 . S
C723 N725 1.384 1_565 S
N724 C720 1.427 . S
N724 C721 1.384 . S
N725 C717 1.427 . S
N725 C723 1.384 1_545 S
H726 C732 0.930 . S
H727 C736 0.930 . S
H728 C741 0.929 . S
H729 C739 0.929 . S
H730 C734 0.929 . S
H731 C740 0.929 . S
C732 H726 0.930 . S
C732 C733 1.367 . S
C732 C740 1.378 . S
C733 C732 1.367 . S
C733 C741 1.433 . S
C734 H730 0.929 . S
C734 C736 1.378 . S
C734 C738 1.350 . S
C735 C738 1.463 . S
C735 C740 1.350 . S
C735 N743 1.427 . S
C736 H727 0.930 . S
C736 C734 1.378 . S
C736 C737 1.367 . S
C737 C736 1.367 . S
C737 C739 1.433 . S
C738 C734 1.350 . S
C738 C735 1.463 . S
C738 N742 1.427 . S
C739 H729 0.929 . S
C739 C737 1.433 . S
C739 N742 1.384 . S
C740 H731 0.929 . S
C740 C732 1.378 . S
C740 C735 1.350 . S
C741 H728 0.929 . S
C741 C733 1.433 . S
C741 N743 1.384 . S
N742 C738 1.427 . S
N742 C739 1.384 . S
N743 C735 1.427 . S
N743 C741 1.384 . S
H744 C750 0.930 . S
H745 C754 0.930 . S
H746 C759 0.929 . S
H747 C757 0.929 . S
H748 C752 0.929 . S
H749 C758 0.929 . S
C750 H744 0.930 . S
C750 C751 1.367 . S
C750 C758 1.378 . S
C751 C750 1.367 . S
C751 C759 1.433 . S
C752 H748 0.929 . S
C752 C754 1.378 . S
C752 C756 1.350 . S
C753 C756 1.463 . S
C753 C758 1.350 . S
C753 N761 1.427 . S
C754 H745 0.930 . S
C754 C752 1.378 . S
C754 C755 1.367 . S
C755 C754 1.367 . S
C755 C757 1.433 . S
C756 C752 1.350 . S
C756 C753 1.463 . S
C756 N760 1.427 . S
C757 H747 0.929 . S
C757 C755 1.433 . S
C757 N760 1.384 . S
C758 H749 0.929 . S
C758 C750 1.378 . S
C758 C753 1.350 . S
C759 H746 0.929 . S
C759 C751 1.433 . S
C759 N761 1.384 . S
N760 C756 1.427 . S
N760 C757 1.384 . S
N761 C753 1.427 . S
N761 C759 1.384 . S
H762 C768 0.930 . S
H763 C772 0.930 . S
H764 C777 0.929 1_565 S
H765 C775 0.929 . S
H766 C770 0.929 . S
H767 C776 0.929 . S
C768 H762 0.930 . S
C768 C769 1.367 . S
C768 C776 1.378 . S
C769 C768 1.367 . S
C769 C777 1.433 . S
C770 H766 0.929 . S
C770 C772 1.378 . S
C770 C774 1.350 1_565 S
C771 C774 1.463 . S
C771 C776 1.350 . S
C771 N779 1.427 . S
C772 H763 0.930 . S
C772 C770 1.378 . S
C772 C773 1.367 1_565 S
C773 C772 1.367 1_545 S
C773 C775 1.433 . S
C774 C770 1.350 1_545 S
C774 C771 1.463 . S
C774 N778 1.427 . S
C775 H765 0.929 . S
C775 C773 1.433 . S
C775 N778 1.384 . S
C776 H767 0.929 . S
C776 C768 1.378 . S
C776 C771 1.350 . S
C777 H764 0.929 1_545 S
C777 C769 1.433 . S
C777 N779 1.384 . S
N778 C774 1.427 . S
N778 C775 1.384 . S
N779 C771 1.427 . S
N779 C777 1.384 . S
H780 C786 0.930 . S
H781 C790 0.930 . S
H782 C795 0.929 . S
H783 C793 0.929 . S
H784 C788 0.929 . S
H785 C794 0.929 . S
C786 H780 0.930 . S
C786 C787 1.367 . S
C786 C794 1.378 . S
C787 C786 1.367 . S
C787 C795 1.433 . S
C788 H784 0.929 . S
C788 C790 1.378 . S
C788 C792 1.350 . S
C789 C792 1.463 . S
C789 C794 1.350 . S
C789 N797 1.427 . S
C790 H781 0.930 . S
C790 C788 1.378 . S
C790 C791 1.367 . S
C791 C790 1.367 . S
C791 C793 1.433 . S
C792 C788 1.350 . S
C792 C789 1.463 . S
C792 N796 1.427 . S
C793 H783 0.929 . S
C793 C791 1.433 . S
C793 N796 1.384 . S
C794 H785 0.929 . S
C794 C786 1.378 . S
C794 C789 1.350 . S
C795 H782 0.929 . S
C795 C787 1.433 . S
C795 N797 1.384 . S
N796 C792 1.427 . S
N796 C793 1.384 . S
N797 C789 1.427 . S
N797 C795 1.384 . S
H798 C804 0.930 . S
H799 C808 0.930 . S
H800 C813 0.929 . S
H801 C811 0.929 . S
H802 C806 0.929 . S
H803 C812 0.929 . S
C804 H798 0.930 . S
C804 C805 1.367 . S
C804 C812 1.378 . S
C805 C804 1.367 . S
C805 C813 1.433 . S
C806 H802 0.929 . S
C806 C808 1.378 . S
C806 C810 1.350 . S
C807 C810 1.463 . S
C807 C812 1.350 . S
C807 N815 1.427 . S
C808 H799 0.930 . S
C808 C806 1.378 . S
C808 C809 1.367 . S
C809 C808 1.367 . S
C809 C811 1.433 . S
C810 C806 1.350 . S
C810 C807 1.463 . S
C810 N814 1.427 . S
C811 H801 0.929 . S
C811 C809 1.433 . S
C811 N814 1.384 . S
C812 H803 0.929 . S
C812 C804 1.378 . S
C812 C807 1.350 . S
C813 H800 0.929 . S
C813 C805 1.433 . S
C813 N815 1.384 . S
N814 C810 1.427 . S
N814 C811 1.384 . S
N815 C807 1.427 . S
N815 C813 1.384 . S
H816 C822 0.930 . S
H817 C826 0.930 . S
H818 C831 0.929 . S
H819 C829 0.929 . S
H820 C824 0.929 . S
H821 C830 0.929 . S
C822 H816 0.930 . S
C822 C823 1.367 . S
C822 C830 1.378 . S
C823 C822 1.367 . S
C823 C831 1.433 . S
C824 H820 0.929 . S
C824 C826 1.378 . S
C824 C828 1.350 . S
C825 C828 1.463 . S
C825 C830 1.350 . S
C825 N833 1.427 . S
C826 H817 0.930 . S
C826 C824 1.378 . S
C826 C827 1.367 . S
C827 C826 1.367 . S
C827 C829 1.433 . S
C828 C824 1.350 . S
C828 C825 1.463 . S
C828 N832 1.427 . S
C829 H819 0.929 . S
C829 C827 1.433 . S
C829 N832 1.384 . S
C830 H821 0.929 . S
C830 C822 1.378 . S
C830 C825 1.350 . S
C831 H818 0.929 . S
C831 C823 1.433 . S
C831 N833 1.384 . S
N832 C828 1.427 . S
N832 C829 1.384 . S
N833 C825 1.427 . S
N833 C831 1.384 . S
H834 C840 0.930 . S
H835 C844 0.930 . S
H836 C849 0.929 . S
H837 C847 0.929 . S
H838 C842 0.929 . S
H839 C848 0.929 1_455 S
C840 H834 0.930 . S
C840 C841 1.367 . S
C840 C848 1.378 1_455 S
C841 C840 1.367 . S
C841 C849 1.433 1_455 S
C842 H838 0.929 . S
C842 C844 1.378 . S
C842 C846 1.350 . S
C843 C846 1.463 . S
C843 C848 1.350 . S
C843 N851 1.427 . S
C844 H835 0.930 . S
C844 C842 1.378 . S
C844 C845 1.367 . S
C845 C844 1.367 . S
C845 C847 1.433 . S
C846 C842 1.350 . S
C846 C843 1.463 . S
C846 N850 1.427 . S
C847 H837 0.929 . S
C847 C845 1.433 . S
C847 N850 1.384 . S
C848 H839 0.929 1_655 S
C848 C840 1.378 1_655 S
C848 C843 1.350 . S
C849 H836 0.929 . S
C849 C841 1.433 1_655 S
C849 N851 1.384 . S
N850 C846 1.427 . S
N850 C847 1.384 . S
N851 C843 1.427 . S
N851 C849 1.384 . S
H852 C858 0.930 . S
H853 C862 0.930 . S
H854 C867 0.929 . S
H855 C865 0.929 . S
H856 C860 0.929 . S
H857 C866 0.929 . S
C858 H852 0.930 . S
C858 C859 1.367 . S
C858 C866 1.378 . S
C859 C858 1.367 . S
C859 C867 1.433 . S
C860 H856 0.929 . S
C860 C862 1.378 . S
C860 C864 1.350 . S
C861 C864 1.463 . S
C861 C866 1.350 . S
C861 N869 1.427 . S
C862 H853 0.930 . S
C862 C860 1.378 . S
C862 C863 1.367 . S
C863 C862 1.367 . S
C863 C865 1.433 . S
C864 C860 1.350 . S
C864 C861 1.463 . S
C864 N868 1.427 . S
C865 H855 0.929 . S
C865 C863 1.433 . S
C865 N868 1.384 . S
C866 H857 0.929 . S
C866 C858 1.378 . S
C866 C861 1.350 . S
C867 H854 0.929 . S
C867 C859 1.433 . S
C867 N869 1.384 . S
N868 C864 1.427 . S
N868 C865 1.384 . S
N869 C861 1.427 . S
N869 C867 1.384 . S
H870 C876 0.930 . S
H871 C880 0.930 . S
H872 C885 0.929 1_655 S
H873 C883 0.929 . S
H874 C878 0.929 . S
H875 C884 0.929 . S
C876 H870 0.930 . S
C876 C877 1.367 . S
C876 C884 1.378 . S
C877 C876 1.367 . S
C877 C885 1.433 . S
C878 H874 0.929 . S
C878 C880 1.378 . S
C878 C882 1.350 . S
C879 C882 1.463 . S
C879 C884 1.350 . S
C879 N887 1.427 . S
C880 H871 0.930 . S
C880 C878 1.378 . S
C880 C881 1.367 . S
C881 C880 1.367 . S
C881 C883 1.433 . S
C882 C878 1.350 . S
C882 C879 1.463 . S
C882 N886 1.427 . S
C883 H873 0.929 . S
C883 C881 1.433 . S
C883 N886 1.384 . S
C884 H875 0.929 . S
C884 C876 1.378 . S
C884 C879 1.350 . S
C885 H872 0.929 1_455 S
C885 C877 1.433 . S
C885 N887 1.384 . S
N886 C882 1.427 . S
N886 C883 1.384 . S
N887 C879 1.427 . S
N887 C885 1.384 . S
H888 C894 0.930 . S
H889 C898 0.930 . S
H890 C903 0.929 . S
H891 C901 0.929 . S
H892 C896 0.929 . S
H893 C902 0.929 . S
C894 H888 0.930 . S
C894 C895 1.367 . S
C894 C902 1.378 . S
C895 C894 1.367 . S
C895 C903 1.433 . S
C896 H892 0.929 . S
C896 C898 1.378 . S
C896 C900 1.350 . S
C897 C900 1.463 . S
C897 C902 1.350 . S
C897 N905 1.427 . S
C898 H889 0.930 . S
C898 C896 1.378 . S
C898 C899 1.367 . S
C899 C898 1.367 . S
C899 C901 1.433 . S
C900 C896 1.350 . S
C900 C897 1.463 . S
C900 N904 1.427 . S
C901 H891 0.929 . S
C901 C899 1.433 . S
C901 N904 1.384 . S
C902 H893 0.929 . S
C902 C894 1.378 . S
C902 C897 1.350 . S
C903 H890 0.929 . S
C903 C895 1.433 . S
C903 N905 1.384 . S
N904 C900 1.427 . S
N904 C901 1.384 . S
N905 C897 1.427 . S
N905 C903 1.384 . S
H906 C912 0.930 . S
H907 C916 0.930 . S
H908 C921 0.929 . S
H909 C919 0.929 . S
H910 C914 0.929 . S
H911 C920 0.929 . S
C912 H906 0.930 . S
C912 C913 1.367 1_556 S
C912 C920 1.378 . S
C913 C912 1.367 1_554 S
C913 C921 1.433 . S
C914 H910 0.929 . S
C914 C916 1.378 1_655 S
C914 C918 1.350 . S
C915 C918 1.463 . S
C915 C920 1.350 . S
C915 N923 1.427 1_556 S
C916 H907 0.930 . S
C916 C914 1.378 1_455 S
C916 C917 1.367 . S
C917 C916 1.367 . S
C917 C919 1.433 . S
C918 C914 1.350 . S
C918 C915 1.463 . S
C918 N922 1.429 . S
C919 H909 0.929 . S
C919 C917 1.433 . S
C919 N922 1.380 1_455 S
C920 H911 0.929 . S
C920 C912 1.378 . S
C920 C915 1.350 . S
C921 H908 0.929 . S
C921 C913 1.433 . S
C921 N923 1.384 . S
N922 C918 1.429 . S
N922 C919 1.380 1_655 S
N923 C915 1.427 1_554 S
N923 C921 1.384 . S
H924 C930 0.930 . S
H925 C934 0.930 . S
H926 C939 0.929 . S
H927 C937 0.929 . S
H928 C932 0.929 . S
H929 C938 0.929 . S
C930 H924 0.930 . S
C930 C931 1.367 . S
C930 C938 1.378 . S
C931 C930 1.367 . S
C931 C939 1.433 . S
C932 H928 0.929 . S
C932 C934 1.378 . S
C932 C936 1.350 . S
C933 C936 1.463 . S
C933 C938 1.350 . S
C933 N941 1.427 . S
C934 H925 0.930 . S
C934 C932 1.378 . S
C934 C935 1.367 . S
C935 C934 1.367 . S
C935 C937 1.433 . S
C936 C932 1.350 . S
C936 C933 1.463 . S
C936 N940 1.427 . S
C937 H927 0.929 . S
C937 C935 1.433 . S
C937 N940 1.384 . S
C938 H929 0.929 . S
C938 C930 1.378 . S
C938 C933 1.350 . S
C939 H926 0.929 . S
C939 C931 1.433 . S
C939 N941 1.384 . S
N940 C936 1.427 . S
N940 C937 1.384 . S
N941 C933 1.427 . S
N941 C939 1.384 . S
H942 C948 0.930 . S
H943 C952 0.930 . S
H944 C957 0.929 . S
H945 C955 0.929 . S
H946 C950 0.929 . S
H947 C956 0.929 . S
C948 H942 0.930 . S
C948 C949 1.367 . S
C948 C956 1.378 . S
C949 C948 1.367 . S
C949 C957 1.433 1_556 S
C950 H946 0.929 . S
C950 C952 1.378 . S
C950 C954 1.350 . S
C951 C954 1.463 . S
C951 C956 1.350 . S
C951 N959 1.427 . S
C952 H943 0.930 . S
C952 C950 1.378 . S
C952 C953 1.367 . S
C953 C952 1.367 . S
C953 C955 1.433 . S
C954 C950 1.350 . S
C954 C951 1.463 . S
C954 N958 1.427 . S
C955 H945 0.929 . S
C955 C953 1.433 . S
C955 N958 1.384 . S
C956 H947 0.929 . S
C956 C948 1.378 . S
C956 C951 1.350 . S
C957 H944 0.929 . S
C957 C949 1.433 1_554 S
C957 N959 1.384 1_554 S
N958 C954 1.427 . S
N958 C955 1.384 . S
N959 C951 1.427 . S
N959 C957 1.384 1_556 S
H960 C966 0.930 . S
H961 C970 0.930 . S
H962 C975 0.929 . S
H963 C973 0.929 . S
H964 C968 0.929 . S
H965 C974 0.929 . S
C966 H960 0.930 . S
C966 C967 1.367 . S
C966 C974 1.378 . S
C967 C966 1.367 . S
C967 C975 1.433 . S
C968 H964 0.929 . S
C968 C970 1.378 . S
C968 C972 1.350 . S
C969 C972 1.463 . S
C969 C974 1.350 . S
C969 N977 1.427 . S
C970 H961 0.930 . S
C970 C968 1.378 . S
C970 C971 1.367 . S
C971 C970 1.367 . S
C971 C973 1.433 . S
C972 C968 1.350 . S
C972 C969 1.463 . S
C972 N976 1.427 . S
C973 H963 0.929 . S
C973 C971 1.433 . S
C973 N976 1.384 . S
C974 H965 0.929 . S
C974 C966 1.378 . S
C974 C969 1.350 . S
C975 H962 0.929 . S
C975 C967 1.433 . S
C975 N977 1.384 . S
N976 C972 1.427 . S
N976 C973 1.384 . S
N977 C969 1.427 . S
N977 C975 1.384 . S
H978 C984 0.930 . S
H979 C988 0.930 . S
H980 C993 0.929 . S
H981 C991 0.929 . S
H982 C986 0.929 . S
H983 C992 0.929 . S
C984 H978 0.930 . S
C984 C985 1.367 1_554 S
C984 C992 1.378 . S
C985 C984 1.367 1_556 S
C985 C993 1.433 . S
C986 H982 0.929 . S
C986 C988 1.378 . S
C986 C990 1.350 . S
C987 C990 1.463 . S
C987 C992 1.350 . S
C987 N995 1.459 . S
C988 H979 0.930 . S
C988 C986 1.378 . S
C988 C989 1.367 . S
C989 C988 1.367 . S
C989 C991 1.433 . S
C990 C986 1.350 . S
C990 C987 1.463 . S
C990 N994 1.427 . S
C991 H981 0.929 . S
C991 C989 1.433 . S
C991 N994 1.384 . S
C992 H983 0.929 . S
C992 C984 1.378 . S
C992 C987 1.350 . S
C993 H980 0.929 . S
C993 C985 1.433 . S
C993 N995 1.365 1_556 S
N994 C990 1.427 . S
N994 C991 1.384 . S
N995 C987 1.459 . S
N995 C993 1.365 1_554 S
H996 C1002 0.930 . S
H997 C1006 0.930 . S
H998 C1011 0.929 . S
H999 C1009 0.929 . S
H1000 C1004 0.929 . S
H1001 C1010 0.929 . S
C1002 H996 0.930 . S
C1002 C1003 1.367 . S
C1002 C1010 1.378 . S
C1003 C1002 1.367 . S
C1003 C1011 1.433 . S
C1004 H1000 0.929 . S
C1004 C1006 1.378 . S
C1004 C1008 1.350 . S
C1005 C1008 1.463 . S
C1005 C1010 1.350 . S
C1005 N1013 1.427 . S
C1006 H997 0.930 . S
C1006 C1004 1.378 . S
C1006 C1007 1.367 . S
C1007 C1006 1.367 . S
C1007 C1009 1.433 . S
C1008 C1004 1.350 . S
C1008 C1005 1.463 . S
C1008 N1012 1.427 . S
C1009 H999 0.929 . S
C1009 C1007 1.433 . S
C1009 N1012 1.384 . S
C1010 H1001 0.929 . S
C1010 C1002 1.378 . S
C1010 C1005 1.350 . S
C1011 H998 0.929 . S
C1011 C1003 1.433 . S
C1011 N1013 1.384 . S
N1012 C1008 1.427 . S
N1012 C1009 1.384 . S
N1013 C1005 1.427 . S
N1013 C1011 1.384 . S
H1014 C1020 0.930 . S
H1015 C1024 0.930 . S
H1016 C1029 0.929 . S
H1017 C1027 0.929 . S
H1018 C1022 0.929 . S
H1019 C1028 0.929 . S
C1020 H1014 0.930 . S
C1020 C1021 1.367 . S
C1020 C1028 1.378 . S
C1021 C1020 1.367 . S
C1021 C1029 1.433 1_554 S
C1022 H1018 0.929 . S
C1022 C1024 1.378 . S
C1022 C1026 1.350 . S
C1023 C1026 1.463 . S
C1023 C1028 1.350 . S
C1023 N1031 1.427 . S
C1024 H1015 0.930 . S
C1024 C1022 1.378 . S
C1024 C1025 1.367 . S
C1025 C1024 1.367 . S
C1025 C1027 1.433 . S
C1026 C1022 1.350 . S
C1026 C1023 1.463 . S
C1026 N1030 1.427 . S
C1027 H1017 0.929 . S
C1027 C1025 1.433 . S
C1027 N1030 1.384 . S
C1028 H1019 0.929 . S
C1028 C1020 1.378 . S
C1028 C1023 1.350 . S
C1029 H1016 0.929 . S
C1029 C1021 1.433 1_556 S
C1029 N1031 1.384 1_556 S
N1030 C1026 1.427 . S
N1030 C1027 1.384 . S
N1031 C1023 1.427 . S
N1031 C1029 1.384 1_554 S
H1032 C1038 0.930 . S
H1033 C1042 0.930 . S
H1034 C1047 0.929 . S
H1035 C1045 0.929 . S
H1036 C1040 0.929 . S
H1037 C1046 0.929 . S
C1038 H1032 0.930 . S
C1038 C1039 1.367 . S
C1038 C1046 1.378 . S
C1039 C1038 1.367 . S
C1039 C1047 1.433 . S
C1040 H1036 0.929 . S
C1040 C1042 1.378 . S
C1040 C1044 1.350 . S
C1041 C1044 1.463 . S
C1041 C1046 1.350 . S
C1041 N1049 1.427 . S
C1042 H1033 0.930 . S
C1042 C1040 1.378 . S
C1042 C1043 1.367 . S
C1043 C1042 1.367 . S
C1043 C1045 1.433 . S
C1044 C1040 1.350 . S
C1044 C1041 1.463 . S
C1044 N1048 1.427 . S
C1045 H1035 0.929 . S
C1045 C1043 1.433 . S
C1045 N1048 1.384 . S
C1046 H1037 0.929 . S
C1046 C1038 1.378 . S
C1046 C1041 1.350 . S
C1047 H1034 0.929 . S
C1047 C1039 1.433 . S
C1047 N1049 1.384 . S
N1048 C1044 1.427 . S
N1048 C1045 1.384 . S
N1049 C1041 1.427 . S
N1049 C1047 1.384 . S
H1050 C1056 0.930 . S
H1051 C1060 0.930 . S
H1052 C1065 0.929 . S
H1053 C1063 0.929 . S
H1054 C1058 0.929 . S
H1055 C1064 0.929 . S
C1056 H1050 0.930 . S
C1056 C1057 1.367 . S
C1056 C1064 1.378 . S
C1057 C1056 1.367 . S
C1057 C1065 1.433 . S
C1058 H1054 0.929 . S
C1058 C1060 1.378 . S
C1058 C1062 1.350 . S
C1059 C1062 1.463 . S
C1059 C1064 1.350 . S
C1059 N1067 1.427 . S
C1060 H1051 0.930 . S
C1060 C1058 1.378 . S
C1060 C1061 1.367 . S
C1061 C1060 1.367 . S
C1061 C1063 1.433 . S
C1062 C1058 1.350 . S
C1062 C1059 1.463 . S
C1062 N1066 1.427 . S
C1063 H1053 0.929 . S
C1063 C1061 1.433 . S
C1063 N1066 1.384 . S
C1064 H1055 0.929 . S
C1064 C1056 1.378 . S
C1064 C1059 1.350 . S
C1065 H1052 0.929 . S
C1065 C1057 1.433 . S
C1065 N1067 1.384 . S
N1066 C1062 1.427 . S
N1066 C1063 1.384 . S
N1067 C1059 1.427 . S
N1067 C1065 1.384 . S
H1068 C1074 0.930 . S
H1069 C1078 0.930 . S
H1070 C1083 0.929 . S
H1071 C1081 0.929 . S
H1072 C1076 0.929 . S
H1073 C1082 0.929 . S
C1074 H1068 0.930 . S
C1074 C1075 1.367 . S
C1074 C1082 1.378 . S
C1075 C1074 1.367 . S
C1075 C1083 1.433 . S
C1076 H1072 0.929 . S
C1076 C1078 1.378 . S
C1076 C1080 1.350 . S
C1077 C1080 1.463 . S
C1077 C1082 1.350 . S
C1077 N1085 1.427 . S
C1078 H1069 0.930 . S
C1078 C1076 1.378 . S
C1078 C1079 1.367 . S
C1079 C1078 1.367 . S
C1079 C1081 1.433 . S
C1080 C1076 1.350 . S
C1080 C1077 1.463 . S
C1080 N1084 1.427 . S
C1081 H1071 0.929 . S
C1081 C1079 1.433 . S
C1081 N1084 1.384 . S
C1082 H1073 0.929 . S
C1082 C1074 1.378 . S
C1082 C1077 1.350 . S
C1083 H1070 0.929 . S
C1083 C1075 1.433 . S
C1083 N1085 1.384 . S
N1084 C1080 1.427 . S
N1084 C1081 1.384 . S
N1085 C1077 1.427 . S
N1085 C1083 1.384 . S
H1086 C1092 0.930 . S
H1087 C1096 0.930 . S
H1088 C1101 0.929 . S
H1089 C1099 0.929 . S
H1090 C1094 0.929 . S
H1091 C1100 0.929 . S
C1092 H1086 0.930 . S
C1092 C1093 1.367 . S
C1092 C1100 1.378 . S
C1093 C1092 1.367 . S
C1093 C1101 1.433 . S
C1094 H1090 0.929 . S
C1094 C1096 1.378 . S
C1094 C1098 1.350 . S
C1095 C1098 1.463 . S
C1095 C1100 1.350 . S
C1095 N1103 1.427 . S
C1096 H1087 0.930 . S
C1096 C1094 1.378 . S
C1096 C1097 1.367 . S
C1097 C1096 1.367 . S
C1097 C1099 1.433 . S
C1098 C1094 1.350 . S
C1098 C1095 1.463 . S
C1098 N1102 1.427 . S
C1099 H1089 0.929 . S
C1099 C1097 1.433 . S
C1099 N1102 1.384 . S
C1100 H1091 0.929 . S
C1100 C1092 1.378 . S
C1100 C1095 1.350 . S
C1101 H1088 0.929 . S
C1101 C1093 1.433 . S
C1101 N1103 1.384 . S
N1102 C1098 1.427 . S
N1102 C1099 1.384 . S
N1103 C1095 1.427 . S
N1103 C1101 1.384 . S
H1104 C1110 0.930 . S
H1105 C1114 0.930 . S
H1106 C1119 0.929 . S
H1107 C1117 0.929 . S
H1108 C1112 0.929 . S
H1109 C1118 0.929 . S
C1110 H1104 0.930 . S
C1110 C1111 1.367 . S
C1110 C1118 1.378 . S
C1111 C1110 1.367 . S
C1111 C1119 1.433 . S
C1112 H1108 0.929 . S
C1112 C1114 1.378 . S
C1112 C1116 1.350 . S
C1113 C1116 1.463 . S
C1113 C1118 1.350 . S
C1113 N1121 1.427 . S
C1114 H1105 0.930 . S
C1114 C1112 1.378 . S
C1114 C1115 1.367 . S
C1115 C1114 1.367 . S
C1115 C1117 1.433 . S
C1116 C1112 1.350 . S
C1116 C1113 1.463 . S
C1116 N1120 1.427 . S
C1117 H1107 0.929 . S
C1117 C1115 1.433 . S
C1117 N1120 1.384 . S
C1118 H1109 0.929 . S
C1118 C1110 1.378 . S
C1118 C1113 1.350 . S
C1119 H1106 0.929 . S
C1119 C1111 1.433 . S
C1119 N1121 1.384 . S
N1120 C1116 1.427 . S
N1120 C1117 1.384 . S
N1121 C1113 1.427 . S
N1121 C1119 1.384 . S
H1122 C1128 0.930 . S
H1123 C1132 0.930 . S
H1124 C1137 0.929 . S
H1125 C1135 0.929 . S
H1126 C1130 0.929 . S
H1127 C1136 0.929 . S
C1128 H1122 0.930 . S
C1128 C1129 1.367 . S
C1128 C1136 1.378 . S
C1129 C1128 1.367 . S
C1129 C1137 1.433 . S
C1130 H1126 0.929 . S
C1130 C1132 1.378 . S
C1130 C1134 1.350 . S
C1131 C1134 1.463 . S
C1131 C1136 1.350 . S
C1131 N1139 1.427 . S
C1132 H1123 0.930 . S
C1132 C1130 1.378 . S
C1132 C1133 1.367 . S
C1133 C1132 1.367 . S
C1133 C1135 1.433 . S
C1134 C1130 1.350 . S
C1134 C1131 1.463 . S
C1134 N1138 1.427 . S
C1135 H1125 0.929 . S
C1135 C1133 1.433 . S
C1135 N1138 1.384 . S
C1136 H1127 0.929 . S
C1136 C1128 1.378 . S
C1136 C1131 1.350 . S
C1137 H1124 0.929 . S
C1137 C1129 1.433 . S
C1137 N1139 1.384 . S
N1138 C1134 1.427 . S
N1138 C1135 1.384 . S
N1139 C1131 1.427 . S
N1139 C1137 1.384 . S
H1140 C1146 0.930 . S
H1141 C1150 0.930 . S
H1142 C1155 0.929 . S
H1143 C1153 0.904 1_556 S
H1144 C1148 0.929 . S
H1145 C1154 0.929 1_556 S
C1146 H1140 0.930 . S
C1146 C1147 1.367 . S
C1146 C1154 1.378 . S
C1147 C1146 1.367 . S
C1147 C1155 1.433 . S
C1148 H1144 0.929 . S
C1148 C1150 1.378 . S
C1148 C1152 1.350 . S
C1149 C1152 1.463 . S
C1149 C1154 1.350 . S
C1149 N1157 1.427 . S
C1150 H1141 0.930 . S
C1150 C1148 1.378 . S
C1150 C1151 1.367 . S
C1151 C1150 1.367 . S
C1151 C1153 1.457 . S
C1152 C1148 1.350 . S
C1152 C1149 1.463 . S
C1152 N1156 1.427 . S
C1153 H1143 0.904 1_554 S
C1153 C1151 1.457 . S
C1153 N1156 1.387 . S
C1154 H1145 0.929 1_554 S
C1154 C1146 1.378 . S
C1154 C1149 1.350 . S
C1155 H1142 0.929 . S
C1155 C1147 1.433 . S
C1155 N1157 1.384 . S
N1156 C1152 1.427 . S
N1156 C1153 1.387 . S
N1157 C1149 1.427 . S
N1157 C1155 1.384 . S
H1158 C1164 0.930 1_556 S
H1159 C1168 0.930 . S
H1160 C1173 0.929 . S
H1161 C1171 0.929 . S
H1162 C1166 0.929 . S
H1163 C1172 0.948 . S
C1164 H1158 0.930 1_554 S
C1164 C1165 1.367 . S
C1164 C1172 1.375 1_544 S
C1165 C1164 1.367 . S
C1165 C1173 1.433 1_545 S
C1166 H1162 0.929 . S
C1166 C1168 1.378 . S
C1166 C1170 1.350 . S
C1167 C1170 1.463 . S
C1167 C1172 1.334 1_554 S
C1167 N1175 1.427 . S
C1168 H1159 0.930 . S
C1168 C1166 1.378 . S
C1168 C1169 1.367 . S
C1169 C1168 1.367 . S
C1169 C1171 1.433 1_554 S
C1170 C1166 1.350 . S
C1170 C1167 1.463 . S
C1170 N1174 1.427 1_554 S
C1171 H1161 0.929 . S
C1171 C1169 1.433 1_556 S
C1171 N1174 1.384 . S
C1172 H1163 0.948 . S
C1172 C1164 1.375 1_566 S
C1172 C1167 1.334 1_556 S
C1173 H1160 0.929 . S
C1173 C1165 1.433 1_565 S
C1173 N1175 1.384 . S
N1174 C1170 1.427 1_556 S
N1174 C1171 1.384 . S
N1175 C1167 1.427 . S
N1175 C1173 1.384 . S
C323 C155 1.457 . S
C319 C50 1.477 . S
C341 C163 1.276 . S
C337 C61 1.522 1_455 S
C355 C67 1.448 . S
C359 C183 1.429 . S
C377 C197 1.494 . S
C373 C41 1.514 . S
C395 C212 1.518 . S
C391 C95 1.520 . S
C413 C226 1.510 . S
C409 C113 1.507 . S
C427 C106 1.546 . S
C431 C240 1.545 . S
C449 C246 1.452 . S
C445 C86 1.490 . S
C463 C104 1.515 . S
C467 C260 1.480 . S
C485 C281 1.524 . S
C481 C88 1.546 . S
C499 C94 1.483 . S
C503 C261 1.234 . S
C521 C282 1.516 . S
C517 C112 1.514 . S
C535 C70 1.475 . S
C539 C289 1.231 . S
C553 C40 1.510 . S
C557 C295 1.492 . S
C571 C49 1.510 . S
C575 C288 1.465 . S
C589 C59 1.485 . S
C593 C296 1.486 . S
C607 C34 1.493 . S
C611 C190 1.459 . S
C625 C133 1.492 . S
C629 C191 1.250 . S
C647 C148 1.513 . S
C643 C139 1.549 1_565 S
C665 C169 1.449 . S
C661 C77 1.472 . S
C679 C43 1.482 1_545 S
C683 C204 1.451 . S
C701 C254 1.525 . S
C697 C103 1.525 . S
C719 C205 1.248 . S
C715 C85 1.477 . S
C737 C233 1.259 . S
C733 C115 1.524 . S
C755 C239 1.460 . S
C751 C131 1.477 . S
C769 C142 1.523 . S
C773 C247 1.286 . S
C787 C76 1.449 . S
C791 C211 1.420 . S
C809 C225 1.496 . S
C805 C122 1.513 . S
C823 C32 1.520 . S
C827 C184 1.520 . S
C845 C198 1.510 . S
C841 C5 1.506 . S
C863 C156 1.545 . S
C859 C16 1.546 . S
C881 C162 1.454 . S
C877 C23 1.490 1_455 S
C895 C14 1.515 . S
C899 C274 1.476 . S
C913 C25 1.546 . S
C917 C267 1.517 . S
C931 C31 1.484 . S
C935 C275 1.245 . S
C949 C4 1.516 1_556 S
C953 C268 1.516 . S
C971 C303 1.240 . S
C967 C79 1.475 . S
C989 C309 1.488 . S
C985 C121 1.511 . S
C1007 C302 1.473 . S
C1003 C130 1.510 . S
C1021 C140 1.486 1_554 S
C1025 C310 1.486 . S
C1039 C97 1.493 . S
C1043 C218 1.452 . S
C1061 C219 1.260 . S
C1057 C52 1.493 . S
C1079 C232 1.513 . S
C1075 C58 1.550 . S
C1097 C253 1.451 . S
C1093 C68 1.472 . S
C1111 C124 1.482 . S
C1115 C176 1.451 1_556 S
C1133 C170 1.526 . S
C1129 C13 1.526 . S
C1147 C22 1.472 . S
C1151 C177 1.227 . S
C1169 C149 1.252 . S
C1165 C7 1.523 . S
