# Generated by pormake.
# Topology zzz, (3,6)-cn, num edge types: 1
# Building blocks:
#     Node 0, Type 0, BuildingBlock: PAMTOO_clean_linker_0, # of connection points: 3
#     Node 1, Type 0, BuildingBlock: PAMTOO_clean_linker_0, # of connection points: 3
#     Node 2, Type 0, BuildingBlock: PAMTOO_clean_linker_0, # of connection points: 3
#     Node 3, Type 0, BuildingBlock: PAMTOO_clean_linker_0, # of connection points: 3
#     Node 4, Type 0, BuildingBlock: PAMTOO_clean_linker_0, # of connection points: 3
#     Node 5, Type 0, BuildingBlock: PAMTOO_clean_linker_0, # of connection points: 3
#     Node 6, Type 0, BuildingBlock: PAMTOO_clean_linker_0, # of connection points: 3
#     Node 7, Type 0, BuildingBlock: PAMTOO_clean_linker_0, # of connection points: 3
#     Node 8, Type 1, BuildingBlock: BETDIP_clean_sbu_0, # of connection points: 6
#     Node 9, Type 1, BuildingBlock: BETDIP_clean_sbu_0, # of connection points: 6
#     Node 10, Type 1, BuildingBlock: BETDIP_clean_sbu_0, # of connection points: 6
#     Node 11, Type 1, BuildingBlock: BETDIP_clean_sbu_0, # of connection points: 6
#     Edge 12, Type (0, 1), BuildingBlock: KIFKEQ_clean_linker_1, # of connection points: 2
#     Edge 13, Type (0, 1), BuildingBlock: KIFKEQ_clean_linker_1, # of connection points: 2
#     Edge 14, Type (0, 1), BuildingBlock: KIFKEQ_clean_linker_1, # of connection points: 2
#     Edge 15, Type (0, 1), BuildingBlock: KIFKEQ_clean_linker_1, # of connection points: 2
#     Edge 16, Type (0, 1), BuildingBlock: KIFKEQ_clean_linker_1, # of connection points: 2
#     Edge 17, Type (0, 1), BuildingBlock: KIFKEQ_clean_linker_1, # of connection points: 2
#     Edge 18, Type (0, 1), BuildingBlock: KIFKEQ_clean_linker_1, # of connection points: 2
#     Edge 19, Type (0, 1), BuildingBlock: KIFKEQ_clean_linker_1, # of connection points: 2
#     Edge 20, Type (0, 1), BuildingBlock: KIFKEQ_clean_linker_1, # of connection points: 2
#     Edge 21, Type (0, 1), BuildingBlock: KIFKEQ_clean_linker_1, # of connection points: 2
#     Edge 22, Type (0, 1), BuildingBlock: KIFKEQ_clean_linker_1, # of connection points: 2
#     Edge 23, Type (0, 1), BuildingBlock: KIFKEQ_clean_linker_1, # of connection points: 2
#     Edge 24, Type (0, 1), BuildingBlock: KIFKEQ_clean_linker_1, # of connection points: 2
#     Edge 25, Type (0, 1), BuildingBlock: KIFKEQ_clean_linker_1, # of connection points: 2
#     Edge 26, Type (0, 1), BuildingBlock: KIFKEQ_clean_linker_1, # of connection points: 2
#     Edge 27, Type (0, 1), BuildingBlock: KIFKEQ_clean_linker_1, # of connection points: 2
#     Edge 28, Type (0, 1), BuildingBlock: KIFKEQ_clean_linker_1, # of connection points: 2
#     Edge 29, Type (0, 1), BuildingBlock: KIFKEQ_clean_linker_1, # of connection points: 2
#     Edge 30, Type (0, 1), BuildingBlock: KIFKEQ_clean_linker_1, # of connection points: 2
#     Edge 31, Type (0, 1), BuildingBlock: KIFKEQ_clean_linker_1, # of connection points: 2
#     Edge 32, Type (0, 1), BuildingBlock: KIFKEQ_clean_linker_1, # of connection points: 2
#     Edge 33, Type (0, 1), BuildingBlock: KIFKEQ_clean_linker_1, # of connection points: 2
#     Edge 34, Type (0, 1), BuildingBlock: KIFKEQ_clean_linker_1, # of connection points: 2
#     Edge 35, Type (0, 1), BuildingBlock: KIFKEQ_clean_linker_1, # of connection points: 2
# Relax obj value: 0.261
# Max RMSD: 0.167
# Mean RMSD: 0.147
data_MOF--net-zzz--node1-BETDIP_clean_sbu_0--node2-PAMTOO_clean_linker_0--edge1-KIFKEQ_clean_linker_1
_symmetry_space_group_name_H-M    P1
_symmetry_Int_Tables_number       1
_symmetry_cell_setting            triclinic
loop_
_symmetry_equiv_pos_as_xyz
'x, y, z'
_cell_length_a     52.537925
_cell_length_b     52.480508
_cell_length_c     13.83502
_cell_angle_alpha  89.816172
_cell_angle_beta   89.982828
_cell_angle_gamma 90.332192
loop_
_atom_site_label
_atom_site_type_symbol
_atom_site_fract_x
_atom_site_fract_y
_atom_site_fract_z
_atom_type_partial_charge
H0 H 0.81554 0.4732 0.36724 0.0
H1 H 0.74303 0.47801 0.22561 0.0
H2 H 0.76625 0.53651 0.42636 0.0
H3 H 0.73739 0.53515 0.17957 0.0
C4 C 0.72263 0.53613 0.23723 0.0
O5 O 0.72829 0.51947 0.31241 0.0
H6 H 0.72317 0.55589 0.26587 0.0
C7 C 0.79745 0.4828 0.35763 0.0
C8 C 0.79323 0.50574 0.40605 0.0
C9 C 0.7797 0.47288 0.29207 0.0
C10 C 0.75674 0.48564 0.27642 0.0
C11 C 0.7515 0.50841 0.32526 0.0
C12 C 0.77003 0.51879 0.38931 0.0
H13 H 0.07034 0.81615 0.34411 0.0
H14 H 0.05454 0.7463 0.19489 0.0
H15 H 1.00674 0.76928 0.43193 0.0
H16 H 1.01195 0.70443 0.39951 0.0
C17 C 0.02311 0.70886 0.33325 0.0
O18 O 1.01581 0.7328 0.3002 0.0
H19 H 0.04361 0.70887 0.35375 0.0
C20 C 0.05941 0.7986 0.3387 0.0
C21 C 0.03819 0.79499 0.39877 0.0
C22 C 0.06528 0.78131 0.26506 0.0
C23 C 0.05042 0.75937 0.25326 0.0
C24 C 0.02987 0.75435 0.31505 0.0
C25 C 0.02334 0.77249 0.38699 0.0
H26 H 0.72571 0.06755 0.32416 0.0
H27 H 0.80055 0.05602 0.20808 0.0
H28 H 0.77442 1.01042 0.44877 0.0
H29 H 0.80542 0.99532 0.22531 0.0
C30 C 0.8213 1.00123 0.27389 0.0
O31 O 0.81402 0.02136 0.33239 0.0
H32 H 0.82531 0.98449 0.32071 0.0
C33 C 0.74393 0.05795 0.3277 0.0
C34 C 0.74752 0.03851 0.39593 0.0
C35 C 0.76275 0.06409 0.25959 0.0
C36 C 0.78603 0.05136 0.26104 0.0
C37 C 0.79058 0.03227 0.32969 0.0
C38 C 0.77108 0.02541 0.3964 0.0
H39 H 0.47285 0.72842 0.38352 0.0
H40 H 0.48247 0.79686 0.21608 0.0
H41 H 0.54083 0.77359 0.41618 0.0
H42 H 0.53848 0.83738 0.38091 0.0
C43 C 0.52303 0.83365 0.32791 0.0
O44 O 0.52637 0.80949 0.2894 0.0
H45 H 0.50476 0.83467 0.36867 0.0
C46 C 0.48356 0.74571 0.36793 0.0
C47 C 0.50749 0.74898 0.41051 0.0
C48 C 0.47447 0.7626 0.29742 0.0
C49 C 0.489 0.78409 0.27246 0.0
C50 C 0.51251 0.78873 0.31738 0.0
C51 C 0.52211 0.77078 0.38512 0.0
H52 H 0.225 0.56923 0.17836 0.0
H53 H 0.29914 0.56112 0.30354 0.0
H54 H 0.27465 0.50973 0.07869 0.0
H55 H 0.32183 0.48633 0.22388 0.0
C56 C 0.32056 0.50489 0.26194 0.0
O57 O 0.31358 0.52341 0.195 0.0
H58 H 0.30561 0.50252 0.31847 0.0
C59 C 0.2433 0.55974 0.17961 0.0
C60 C 0.24738 0.53889 0.11868 0.0
C61 C 0.26163 0.56748 0.24696 0.0
C62 C 0.285 0.55498 0.25165 0.0
C63 C 0.29006 0.53428 0.19105 0.0
C64 C 0.27097 0.52585 0.12515 0.0
H65 H 0.96887 0.22831 0.17273 0.0
H66 H 0.98535 0.29792 0.32284 0.0
H67 H 0.03397 0.2737 0.09023 0.0
H68 H 1.00038 0.33452 0.15117 0.0
C69 C 1.01941 0.33447 0.18675 0.0
O70 O 0.02512 0.31028 0.22154 0.0
H71 H 0.03349 0.33962 0.12996 0.0
C72 C 0.98008 0.24567 0.17877 0.0
C73 C 1.00171 0.24879 0.12041 0.0
C74 C 0.9742 0.26309 0.25202 0.0
C75 C 0.98941 0.28478 0.26464 0.0
C76 C 1.01044 0.28926 0.2047 0.0
C77 C 1.017 0.27093 0.1335 0.0
H78 H 0.31434 0.97155 0.15211 0.0
H79 H 0.24654 0.98298 0.31976 0.0
H80 H 0.27069 0.03995 0.11373 0.0
H81 H 0.20914 1.00533 0.16475 0.0
C82 C 0.2106 0.02358 0.20547 0.0
O83 O 0.23491 0.02673 0.24331 0.0
H84 H 0.20706 0.03909 0.15243 0.0
C85 C 0.29741 0.98261 0.16718 0.0
C86 C 0.29454 1.00634 0.12199 0.0
C87 C 0.28046 0.97413 0.23888 0.0
C88 C 0.25941 0.98909 0.26287 0.0
C89 C 0.25524 1.01243 0.21602 0.0
C90 C 0.27318 0.02139 0.14672 0.0
H91 H 0.56908 0.31463 0.12496 0.0
H92 H 0.55908 0.24678 0.29557 0.0
H93 H 0.50049 0.27018 0.0967 0.0
H94 H 0.53578 0.20883 0.14479 0.0
C95 C 0.51769 0.21021 0.18647 0.0
O96 O 0.51483 0.2345 0.22442 0.0
H97 H 0.502 0.20661 0.13435 0.0
C98 C 0.55823 0.2975 0.14161 0.0
C99 C 0.53414 0.29439 0.10003 0.0
C100 C 0.56729 0.28071 0.21256 0.0
C101 C 0.55256 0.25946 0.23889 0.0
C102 C 0.52889 0.255 0.19505 0.0
C103 C 0.51933 0.27285 0.12692 0.0
Tb104 Tb 0.03489 1.01598 0.83959 0.0
Tb105 Tb 1.00452 0.02743 0.68133 0.0
C106 C 0.05647 0.99621 0.98316 0.0
C107 C 0.07341 0.97423 0.9909 0.0
C108 C 0.07611 0.96177 0.07956 0.0
C109 C 0.09015 0.93935 0.08551 0.0
C110 C 0.10188 0.92905 1.00272 0.0
C111 C 0.09991 0.94228 0.91452 0.0
C112 C 0.08567 0.96464 0.90858 0.0
C113 C 0.06269 0.03045 0.687 0.0
C114 C 1.02049 0.97105 0.69238 0.0
C115 C 0.98311 0.04725 0.53744 0.0
C116 C 0.96659 0.06953 0.52873 0.0
C117 C 0.96441 0.08199 0.43982 0.0
C118 C 0.95063 0.10455 0.43278 0.0
C119 C 0.93863 0.11502 0.51469 0.0
C120 C 0.94016 0.10186 0.60321 0.0
C121 C 0.95415 0.07937 0.61026 0.0
C122 C 0.9767 1.01241 0.83263 0.0
C123 C 1.01883 0.07231 0.82885 0.0
O124 O 0.03307 0.99091 0.95796 0.0
O125 O 0.06568 1.01568 0.93567 0.0
O126 O 0.04354 1.01581 0.68603 0.0
O127 O 0.06654 0.03733 0.77516 0.0
O128 O 0.02706 0.97717 0.78184 0.0
O129 O 1.01432 0.98934 0.63136 0.0
O130 O 1.00665 0.05216 0.56194 0.0
O131 O 0.97358 0.02812 0.58602 0.0
O132 O 0.99569 0.02733 0.83501 0.0
O133 O 0.97317 1.00567 0.74413 0.0
O134 O 1.01229 0.06621 0.73938 0.0
O135 O 0.02503 0.05401 0.88976 0.0
H136 H 0.0666 0.96886 0.1435 0.0
H137 H 0.09064 0.92945 0.15425 0.0
H138 H 0.10878 0.93504 0.8496 0.0
H139 H 0.08366 0.97406 0.8392 0.0
H140 H 0.97407 0.07472 0.37649 0.0
H141 H 0.95049 0.11438 0.36388 0.0
H142 H 0.93109 0.10924 0.66749 0.0
H143 H 0.95576 0.06997 0.67985 0.0
Tb144 Tb 0.52659 0.03801 0.83445 0.0
Tb145 Tb 0.51421 1.00605 0.68078 0.0
C146 C 0.54723 0.06072 0.9736 0.0
C147 C 0.57018 0.07664 0.97769 0.0
C148 C 0.58265 0.08017 0.06576 0.0
C149 C 0.606 0.09293 0.06856 0.0
C150 C 0.61725 0.10248 0.98311 0.0
C151 C 0.60406 0.09976 0.89531 0.0
C152 C 0.58074 0.08685 0.89259 0.0
C153 C 0.51203 0.06433 0.67892 0.0
C154 C 0.57086 0.02195 0.68806 0.0
C155 C 0.49465 0.98238 0.54052 0.0
C156 C 0.47222 0.9658 0.52898 0.0
C157 C 0.45121 0.96815 0.59062 0.0
C158 C 0.42937 0.95348 0.57578 0.0
C159 C 0.4282 0.93575 0.49971 0.0
C160 C 0.45001 0.93229 0.44192 0.0
C161 C 0.47177 0.94732 0.45616 0.0
C162 C 0.52884 0.97997 0.83688 0.0
C163 C 0.47012 0.02305 0.82754 0.0
O164 O 0.55117 0.03672 0.95388 0.0
O165 O 0.52841 0.07012 0.92373 0.0
O166 O 0.52645 0.04513 0.67949 0.0
O167 O 0.50544 0.06898 0.76685 0.0
O168 O 0.56499 0.02923 0.77678 0.0
O169 O 0.5524 1.01534 0.6284 0.0
O170 O 0.49026 1.00637 0.55933 0.0
O171 O 0.51268 0.9732 0.5947 0.0
O172 O 0.51421 0.99898 0.83557 0.0
O173 O 0.53574 0.97544 0.74928 0.0
O174 O 0.47589 1.0161 0.73813 0.0
O175 O 0.48868 0.02879 0.88771 0.0
H176 H 0.57481 0.07223 0.13184 0.0
H177 H 0.6158 0.09405 0.13725 0.0
H178 H 0.61205 0.10698 0.82839 0.0
H179 H 0.57132 0.08417 0.82366 0.0
H180 H 0.45135 0.98184 0.64863 0.0
H181 H 0.41299 0.95708 0.62111 0.0
H182 H 0.45003 0.91851 0.38383 0.0
H183 H 0.48805 0.94485 0.40911 0.0
Tb184 Tb 0.50849 0.53034 0.85231 0.0
Tb185 Tb 0.53352 0.51255 0.65443 0.0
C186 C 0.49977 0.5474 0.01742 0.0
C187 C 0.48161 0.56676 0.05017 0.0
C188 C 0.48766 0.58223 0.12915 0.0
C189 C 0.47227 0.60298 0.15214 0.0
C190 C 0.45063 0.60865 0.09607 0.0
C191 C 0.44401 0.59239 0.01967 0.0
C192 C 0.45936 0.57163 0.99697 0.0
C193 C 0.4734 0.52505 0.71122 0.0
C194 C 0.52279 0.57169 0.6908 0.0
C195 C 0.54227 0.49573 0.48902 0.0
C196 C 0.56042 0.47639 0.45589 0.0
C197 C 0.5541 0.46064 0.37803 0.0
C198 C 0.56953 0.43993 0.35481 0.0
C199 C 0.59149 0.4346 0.40957 0.0
C200 C 0.59836 0.45113 0.48478 0.0
C201 C 0.58297 0.47185 0.50764 0.0
C202 C 0.56857 0.51731 0.79589 0.0
C203 C 0.5192 0.47127 0.81612 0.0
O204 O 0.51817 0.55608 0.96195 0.0
O205 O 0.48973 0.52612 0.98492 0.0
O206 O 0.49711 0.52181 0.70822 0.0
O207 O 0.46874 0.53159 0.79943 0.0
O208 O 0.51792 0.56698 0.78354 0.0
O209 O 0.52648 0.55318 0.62687 0.0
O210 O 0.52381 0.487 0.54417 0.0
O211 O 0.55232 0.51695 0.522 0.0
O212 O 0.54495 0.52112 0.79852 0.0
O213 O 0.57317 0.51054 0.70789 0.0
O214 O 0.52381 0.47594 0.72312 0.0
O215 O 0.51581 0.48981 0.88015 0.0
H216 H 0.50483 0.57889 0.17055 0.0
H217 H 0.47815 0.61538 0.21056 0.0
H218 H 0.42739 0.59616 0.9757 0.0
H219 H 0.45424 0.55996 0.93576 0.0
H220 H 0.5367 0.46371 0.33771 0.0
H221 H 0.56347 0.42732 0.29734 0.0
H222 H 0.61522 0.44761 0.52772 0.0
H223 H 0.58834 0.48378 0.56786 0.0
Tb224 Tb 1.0138 0.50567 0.83824 0.0
Tb225 Tb 0.0262 0.53751 0.6836 0.0
C226 C 0.99433 0.48229 0.97994 0.0
C227 C 0.97182 0.46585 0.99264 0.0
C228 C 0.95058 0.46852 0.93234 0.0
C229 C 0.9287 0.45396 0.94832 0.0
C230 C 0.92771 0.43606 0.02423 0.0
C231 C 0.94971 0.4323 0.0807 0.0
C232 C 0.97152 0.44719 0.0653 0.0
C233 C 0.02762 0.47929 0.68192 0.0
C234 C 0.96952 0.52299 0.69301 0.0
C235 C 0.04627 0.55992 0.54178 0.0
C236 C 0.0688 0.57633 0.53347 0.0
C237 C 0.08071 0.57926 0.44387 0.0
C238 C 0.10353 0.59283 0.4367 0.0
C239 C 0.11481 0.60389 0.51919 0.0
C240 C 0.10217 0.60168 0.60851 0.0
C241 C 0.07941 0.58789 0.61566 0.0
C242 C 1.01239 0.56403 0.83922 0.0
C243 C 0.07066 0.52102 0.82893 0.0
O244 O 0.99004 0.50628 0.96021 0.0
O245 O 1.01225 0.47295 0.92584 0.0
O246 O 1.01338 0.49861 0.68343 0.0
O247 O 0.03457 0.47462 0.76945 0.0
O248 O 0.97542 0.51612 0.78248 0.0
O249 O 0.98804 0.52849 0.6321 0.0
O250 O 0.05082 0.53616 0.56424 0.0
O251 O 0.02747 0.56926 0.59167 0.0
O252 O 0.02652 0.5446 0.83848 0.0
O253 O 1.00581 0.56887 0.75133 0.0
O254 O 0.06471 0.52841 0.74018 0.0
O255 O 0.05222 0.51457 0.88912 0.0
H256 H 0.95057 0.48237 0.87454 0.0
H257 H 0.91216 0.45778 0.90403 0.0
H258 H 0.94985 0.41838 0.13866 0.0
H259 H 0.98798 0.44449 0.11134 0.0
H260 H 0.07282 0.5703 0.37998 0.0
H261 H 0.11291 0.59348 0.36706 0.0
H262 H 0.11016 0.61005 0.67326 0.0
H263 H 0.07042 0.5857 0.68574 0.0
H264 H 0.19438 0.06468 0.31205 0.0
H265 H 0.18007 0.98445 0.27348 0.0
H266 H 0.15846 0.06709 0.42458 0.0
H267 H 0.14438 0.98657 0.38668 0.0
H268 H 0.06565 1.0039 0.51544 0.0
H269 H 0.10153 1.00234 0.40227 0.0
H270 H 0.14331 0.05524 0.58151 0.0
H271 H 0.10739 0.05706 0.69288 0.0
C272 C 0.18375 0.04748 0.32882 0.0
C273 C 0.19013 0.02441 0.28375 0.0
C274 C 0.1631 0.0488 0.39343 0.0
C275 C 0.14814 0.02706 0.41483 0.0
C276 C 0.15499 1.00385 0.3711 0.0
C277 C 0.17568 1.00254 0.30682 0.0
C278 C 0.08242 1.01536 0.53005 0.0
C279 C 0.08356 0.03062 0.61336 0.0
C280 C 0.10316 1.0143 0.46559 0.0
C281 C 0.12562 0.02856 0.48234 0.0
C282 C 0.12642 0.04417 0.56496 0.0
C283 C 0.10577 0.04515 0.62934 0.0
H284 H 0.47664 0.1931 0.29258 0.0
H285 H 0.55705 0.18071 0.25589 0.0
H286 H 0.4745 0.15742 0.40692 0.0
H287 H 0.55519 0.14525 0.37101 0.0
H288 H 0.53865 0.06666 0.50673 0.0
H289 H 0.53991 0.10194 0.38995 0.0
H290 H 0.4864 0.14359 0.56511 0.0
H291 H 0.48488 0.10831 0.67985 0.0
C292 C 0.49393 0.18293 0.31006 0.0
C293 C 0.51697 0.18976 0.26503 0.0
C294 C 0.49276 0.16242 0.37571 0.0
C295 C 0.51465 0.1481 0.39832 0.0
C296 C 0.53782 0.15537 0.35449 0.0
C297 C 0.53897 0.17592 0.28913 0.0
C298 C 0.52697 0.08326 0.51955 0.0
C299 C 0.51164 0.08459 0.60273 0.0
C300 C 0.52786 0.10366 0.45308 0.0
C301 C 0.51334 0.1259 0.46769 0.0
C302 C 0.49765 0.12684 0.55016 0.0
C303 C 0.49685 0.10656 0.61648 0.0
H304 H 0.36726 0.48101 0.24363 0.0
H305 H 0.33076 0.54205 0.39696 0.0
H306 H 0.40553 0.48663 0.34281 0.0
H307 H 0.36909 0.54853 0.493 0.0
H308 H 0.42306 0.53029 0.73715 0.0
H309 H 0.3887 0.52717 0.6218 0.0
H310 H 0.44274 0.5113 0.39478 0.0
H311 H 0.47774 0.51404 0.51351 0.0
C312 C 0.36761 0.49607 0.29693 0.0
C313 C 0.34581 0.51112 0.31201 0.0
C314 C 0.38966 0.49936 0.35384 0.0
C315 C 0.39056 0.5178 0.42767 0.0
C316 C 0.36915 0.53369 0.43881 0.0
C317 C 0.34714 0.53029 0.38248 0.0
C318 C 0.42782 0.52614 0.66266 0.0
C319 C 0.45331 0.52242 0.63507 0.0
C320 C 0.40794 0.5246 0.59571 0.0
C321 C 0.41263 0.51938 0.49766 0.0
C322 C 0.43821 0.51532 0.46951 0.0
C323 C 0.45835 0.5169 0.53744 0.0
H324 H 0.98104 0.36597 0.25079 0.0
H325 H 0.06027 0.34946 0.29857 0.0
H326 H 0.98349 0.40104 0.36626 0.0
H327 H 0.06306 0.38483 0.4132 0.0
H328 H 0.05319 0.43429 0.68397 0.0
H329 H 0.05105 0.39937 0.56875 0.0
H330 H 0.99984 0.44324 0.39058 0.0
H331 H 1.00162 0.47811 0.50809 0.0
C332 C 0.99898 0.3697 0.28675 0.0
C333 C 1.02041 0.35465 0.26612 0.0
C334 C 1.0005 0.39009 0.35234 0.0
C335 C 0.02352 0.39614 0.39961 0.0
C336 C 0.04487 0.38077 0.37972 0.0
C337 C 0.04333 0.3604 0.31389 0.0
C338 C 0.04157 0.4366 0.61991 0.0
C339 C 0.02756 0.4591 0.60564 0.0
C340 C 0.04042 0.41651 0.55319 0.0
C341 C 0.02521 0.41815 0.46958 0.0
C342 C 1.01148 0.44092 0.4545 0.0
C343 C 1.01268 0.46111 0.52148 0.0
H344 H 0.82448 1.0134 0.08057 0.0
H345 H 0.87161 1.00299 0.33221 0.0
H346 H 0.86249 1.01758 0.97967 0.0
H347 H 0.90993 1.00709 0.2312 0.0
H348 H 0.97368 0.03488 0.01379 0.0
H349 H 0.93684 0.03502 0.12403 0.0
H350 H 0.89491 0.98812 0.923 0.0
H351 H 0.93129 0.98797 0.81449 0.0
C352 C 0.84302 1.0123 0.11452 0.0
C353 C 0.84499 1.00757 0.2143 0.0
C354 C 0.86488 1.0145 0.05657 0.0
C355 C 0.88947 1.01223 0.09661 0.0
C356 C 0.89143 1.00895 0.19751 0.0
C357 C 0.86947 1.00658 0.25551 0.0
C358 C 0.95662 0.02448 0.99375 0.0
C359 C 0.95549 1.01151 0.90488 0.0
C360 C 0.93547 0.02455 0.0569 0.0
C361 C 0.9126 1.01189 0.03215 0.0
C362 C 0.91185 0.99857 0.94404 0.0
C363 C 0.9329 0.99832 0.88185 0.0
H364 H 0.48386 0.86396 0.26175 0.0
H365 H 0.56393 0.85047 0.22036 0.0
H366 H 0.48578 0.89954 0.14733 0.0
H367 H 0.56616 0.88632 0.10688 0.0
H368 H 0.55577 0.93584 0.83554 0.0
H369 H 0.5542 0.90057 0.95018 0.0
H370 H 0.50119 0.94251 0.12652 0.0
H371 H 0.50243 0.97776 0.00962 0.0
C372 C 0.50188 0.86852 0.22761 0.0
C373 C 0.52375 0.85429 0.24999 0.0
C374 C 0.50307 0.88916 0.16264 0.0
C375 C 0.52617 0.89617 0.1176 0.0
C376 C 0.54794 0.88152 0.13886 0.0
C377 C 0.54673 0.86092 0.20405 0.0
C378 C 0.54389 0.93766 0.89912 0.0
C379 C 0.52922 0.9597 0.9131 0.0
C380 C 0.54307 0.91738 0.96545 0.0
C381 C 0.52751 0.91839 0.04826 0.0
C382 C 0.51313 0.94072 0.06314 0.0
C383 C 0.51401 0.9611 0.99658 0.0
H384 H 0.67891 0.5654 0.23855 0.0
H385 H 0.70808 0.49462 0.12873 0.0
H386 H 0.64003 0.55967 0.14309 0.0
H387 H 0.66909 0.48841 0.0353 0.0
H388 H 0.61777 0.50452 0.77715 0.0
H389 H 0.65213 0.50723 0.89289 0.0
H390 H 0.60014 0.53633 0.10703 0.0
H391 H 0.56514 0.53373 0.98825 0.0
C392 C 0.67677 0.54829 0.19573 0.0
C393 C 0.69672 0.53047 0.19135 0.0
C394 C 0.65437 0.54495 0.14101 0.0
C395 C 0.6513 0.52373 0.07985 0.0
C396 C 0.67079 0.50529 0.0797 0.0
C397 C 0.69313 0.50865 0.13426 0.0
C398 C 0.61343 0.51142 0.84899 0.0
C399 C 0.58855 0.51894 0.8729 0.0
C400 C 0.63328 0.51276 0.91617 0.0
C401 C 0.62917 0.52175 0.0105 0.0
C402 C 0.60418 0.52937 0.03511 0.0
C403 C 0.58405 0.52783 0.96721 0.0
H404 H 0.02377 0.71146 0.13125 0.0
H405 H 1.01536 0.65812 0.36678 0.0
H406 H 0.02085 0.67632 0.01572 0.0
H407 H 1.01226 0.62297 0.25181 0.0
H408 H 0.03505 0.5635 0.01967 0.0
H409 H 0.037 0.59827 0.13774 0.0
H410 H 0.99171 0.64521 0.94812 0.0
H411 H 0.98998 0.61069 0.83084 0.0
C412 C 0.02084 0.6923 0.15845 0.0
C413 C 1.01907 0.68778 0.25858 0.0
C414 C 1.01918 0.67204 0.09208 0.0
C415 C 1.01618 0.64658 0.12378 0.0
C416 C 1.01472 0.64214 0.22407 0.0
C417 C 1.0162 0.66238 0.29018 0.0
C418 C 0.02537 0.58118 1.00368 0.0
C419 C 1.0124 0.58422 0.9155 0.0
C420 C 0.02642 0.60118 0.0715 0.0
C421 C 1.01465 0.62484 0.05278 0.0
C422 C 1.0014 0.62759 0.96496 0.0
C423 C 1.00023 0.60762 0.89774 0.0
H424 H 0.9834 0.25443 0.44064 0.0
H425 H 0.92353 0.25268 0.22802 0.0
H426 H 0.9607 0.22369 0.53777 0.0
H427 H 0.89928 0.22308 0.32896 0.0
H428 H 0.94025 0.1531 0.65084 0.0
H429 H 0.93364 0.19814 0.62148 0.0
H430 H 0.90721 0.18072 0.3326 0.0
H431 H 0.9113 0.13592 0.36604 0.0
C432 C 0.96452 0.24859 0.41776 0.0
C433 C 0.9555 0.25521 0.32591 0.0
C434 C 0.95126 0.23082 0.47379 0.0
C435 C 0.92858 0.21961 0.43904 0.0
C436 C 0.91732 0.23019 0.3557 0.0
C437 C 0.93098 0.24745 0.2983 0.0
C438 C 0.93186 0.1588 0.58271 0.0
C439 C 0.92746 0.14095 0.50886 0.0
C440 C 0.92838 0.18481 0.56527 0.0
C441 C 0.92131 0.19347 0.47269 0.0
C442 C 0.91318 0.17525 0.40449 0.0
C443 C 0.916 0.1493 0.42287 0.0
H444 H 0.28731 0.97375 0.43283 0.0
H445 H 0.29293 0.92609 0.18053 0.0
H446 H 0.31927 0.94831 0.51349 0.0
H447 H 0.3247 0.89999 0.26213 0.0
H448 H 0.40997 0.92649 0.31825 0.0
H449 H 0.36625 0.92007 0.27301 0.0
H450 H 0.34505 0.91303 0.57374 0.0
H451 H 0.38957 0.91883 0.61981 0.0
C452 C 0.29419 0.9568 0.39695 0.0
C453 C 0.28835 0.95232 0.29954 0.0
C454 C 0.31262 0.9421 0.44327 0.0
C455 C 0.32533 0.92275 0.39253 0.0
C456 C 0.31579 0.91528 0.30191 0.0
C457 C 0.29749 0.93011 0.25533 0.0
C458 C 0.39639 0.92234 0.37511 0.0
C459 C 0.40331 0.92402 0.47297 0.0
C460 C 0.37105 0.91855 0.34892 0.0
C461 C 0.35195 0.91657 0.41992 0.0
C462 C 0.35926 0.91499 0.51744 0.0
C463 C 0.38475 0.91855 0.54372 0.0
H464 H 0.5674 0.28958 0.40477 0.0
H465 H 0.61534 0.29335 0.15221 0.0
H466 H 0.58992 0.32539 0.47385 0.0
H467 H 0.63869 0.32903 0.22249 0.0
H468 H 0.60526 0.41274 0.23874 0.0
H469 H 0.61595 0.36844 0.2139 0.0
H470 H 0.62012 0.35696 0.52317 0.0
H471 H 0.60838 0.40133 0.5477 0.0
C472 C 0.58398 0.29692 0.36701 0.0
C473 C 0.58902 0.28947 0.27172 0.0
C474 C 0.59698 0.31767 0.40656 0.0
C475 C 0.61524 0.33099 0.35114 0.0
C476 C 0.62401 0.31978 0.26521 0.0
C477 C 0.61084 0.29915 0.22531 0.0
C478 C 0.6091 0.40092 0.30135 0.0
C479 C 0.6052 0.41029 0.39494 0.0
C480 C 0.61567 0.37549 0.28734 0.0
C481 C 0.61843 0.35886 0.3668 0.0
C482 C 0.61771 0.36913 0.46049 0.0
C483 C 0.61107 0.39461 0.47448 0.0
H484 H 0.25146 0.6181 0.22463 0.0
H485 H 0.25319 0.55741 0.43471 0.0
H486 H 0.22269 0.64214 0.32792 0.0
H487 H 0.22306 0.5798 0.53403 0.0
H488 H 0.13572 0.63202 0.3718 0.0
H489 H 0.18036 0.63533 0.3353 0.0
H490 H 0.19853 0.60653 0.62056 0.0
H491 H 0.15354 0.6006 0.65255 0.0
C492 C 0.24637 0.61041 0.29485 0.0
C493 C 0.25398 0.58583 0.32151 0.0
C494 C 0.22956 0.62393 0.35356 0.0
C495 C 0.21916 0.61242 0.43706 0.0
C496 C 0.23008 0.58948 0.47018 0.0
C497 C 0.24747 0.5764 0.41296 0.0
C498 C 0.14924 0.62659 0.42716 0.0
C499 C 0.14101 0.61466 0.51266 0.0
C500 C 0.17514 0.62896 0.40705 0.0
C501 C 0.19345 0.61993 0.47312 0.0
C502 C 0.18509 0.61241 0.56571 0.0
C503 C 0.15911 0.60935 0.58476 0.0
H504 H 0.05561 0.7906 0.07726 0.0
H505 H 0.11604 0.7913 0.28764 0.0
H506 H 0.07854 0.82105 0.97946 0.0
H507 H 0.14051 0.82056 0.18597 0.0
H508 H 0.12981 0.90789 0.14926 0.0
H509 H 0.13349 0.86304 0.18222 0.0
H510 H 0.10585 0.84606 0.8946 0.0
H511 H 0.09966 0.89117 0.86587 0.0
C512 C 0.07462 0.79617 0.09947 0.0
C513 C 0.0838 0.78933 0.19083 0.0
C514 C 0.08802 0.81374 0.04306 0.0
C515 C 0.111 0.82453 0.07693 0.0
C516 C 0.12228 0.81377 0.15988 0.0
C517 C 0.10848 0.79672 0.21771 0.0
C518 C 0.12478 0.89459 0.09256 0.0
C519 C 0.11306 0.90311 0.00732 0.0
C520 C 0.12735 0.8686 0.11065 0.0
C521 C 0.11869 0.85052 0.04285 0.0
C522 C 0.11147 0.8593 0.9506 0.0
C523 C 0.10824 0.88535 0.93351 0.0
H524 H 0.75565 0.11546 0.26565 0.0
H525 H 0.75282 0.05053 0.07641 0.0
H526 H 0.72777 0.1389 0.1564 0.0
H527 H 0.72357 0.07254 0.97146 0.0
H528 H 0.64005 0.13189 0.12175 0.0
H529 H 0.68497 0.13371 0.15484 0.0
H530 H 0.7005 0.09926 0.87717 0.0
H531 H 0.65512 0.09511 0.84895 0.0
C532 C 0.7498 0.10665 0.19845 0.0
C533 C 0.75585 0.08118 0.17957 0.0
C534 C 0.73351 0.11985 0.13641 0.0
C535 C 0.72209 0.10726 0.05754 0.0
C536 C 0.73148 0.08308 0.03153 0.0
C537 C 0.74833 0.07023 0.09201 0.0
C538 C 0.65306 0.12497 0.06717 0.0
C539 C 0.64392 0.1121 0.98539 0.0
C540 C 0.67911 0.12643 0.08521 0.0
C541 C 0.69667 0.11544 0.02073 0.0
C542 C 0.68758 0.10678 0.93082 0.0
C543 C 0.66142 0.10471 0.91392 0.0
H544 H 0.42637 0.74964 0.35593 0.0
H545 H 0.47488 0.75394 0.10508 0.0
H546 H 0.40329 0.714 0.28412 0.0
H547 H 0.45266 0.71814 0.03453 0.0
H548 H 0.43439 0.6423 0.9581 0.0
H549 H 0.42271 0.68665 0.9833 0.0
H550 H 0.42585 0.67457 0.29243 0.0
H551 H 0.43641 0.63027 0.26688 0.0
C552 C 0.43106 0.74396 0.28287 0.0
C553 C 0.45293 0.75379 0.23734 0.0
C554 C 0.41805 0.72334 0.2421 0.0
C555 C 0.42706 0.71229 0.15622 0.0
C556 C 0.44542 0.72574 0.10173 0.0
C557 C 0.45824 0.74649 0.14211 0.0
C558 C 0.43149 0.64888 0.03138 0.0
C559 C 0.43701 0.63302 0.11075 0.0
C560 C 0.42489 0.67436 0.04576 0.0
C561 C 0.4239 0.68445 0.1397 0.0
C562 C 0.42634 0.66765 0.21882 0.0
C563 C 0.43285 0.64223 0.20441 0.0
H564 H 0.78587 0.473 0.09816 0.0
H565 H 0.79337 0.42525 0.35046 0.0
H566 H 0.8182 0.44834 0.01607 0.0
H567 H 0.82531 0.3998 0.26743 0.0
H568 H 0.91004 0.42666 0.20657 0.0
H569 H 0.86648 0.42019 0.25409 0.0
H570 H 0.84425 0.41361 0.95446 0.0
H571 H 0.88861 0.41953 0.90611 0.0
C572 C 0.79324 0.45614 0.13363 0.0
C573 C 0.78775 0.45136 0.23117 0.0
C574 C 0.81187 0.44191 0.08659 0.0
C575 C 0.82509 0.42271 0.13682 0.0
C576 C 0.81599 0.41497 0.22797 0.0
C577 C 0.79757 0.42939 0.27532 0.0
C578 C 0.89626 0.42262 0.15045 0.0
C579 C 0.90285 0.42442 0.05224 0.0
C580 C 0.87102 0.41881 0.17793 0.0
C581 C 0.85167 0.41689 0.10793 0.0
C582 C 0.85865 0.41552 0.01002 0.0
C583 C 0.88405 0.41912 0.98243 0.0
H584 H 0.04537 0.22003 0.11834 0.0
H585 H 0.9723 0.22699 0.98002 0.0
H586 H 0.05136 0.1785 0.04077 0.0
H587 H 0.97797 0.1856 0.90336 0.0
H588 H 1.00089 0.11478 0.73255 0.0
H589 H 0.99972 0.15891 0.78895 0.0
H590 H 0.03419 0.13583 0.05831 0.0
H591 H 0.03558 0.09192 1.0016 0.0
C592 C 0.03094 0.21309 0.06894 0.0
C593 C 1.00848 0.22708 0.05471 0.0
C594 C 0.03414 0.189 0.0256 0.0
C595 C 1.01503 0.17825 0.96616 0.0
C596 C 0.99325 0.19305 0.94768 0.0
C597 C 0.99 0.21694 0.99158 0.0
C598 C 1.00835 0.11911 0.80365 0.0
C599 C 1.01831 0.09955 0.86228 0.0
C600 C 1.00759 0.14452 0.83637 0.0
C601 C 1.01695 0.15129 0.92853 0.0
C602 C 0.02717 0.1317 0.98646 0.0
C603 C 0.02775 0.10631 0.95408 0.0
H604 H 0.32646 0.04752 0.1448 0.0
H605 H 0.3123 0.98324 0.95935 0.0
H606 H 0.36794 0.05422 0.0669 0.0
H607 H 0.35364 0.98952 0.88226 0.0
H608 H 0.45238 0.03336 0.0099 0.0
H609 H 0.40864 0.0332 0.06839 0.0
H610 H 0.38205 1.01416 0.78225 0.0
H611 H 0.42595 1.01422 0.72377 0.0
C612 C 0.33181 0.03538 0.08505 0.0
C613 C 0.31584 1.01508 0.05748 0.0
C614 C 0.35584 0.03888 0.0414 0.0
C615 C 0.36456 0.02222 0.96862 0.0
C616 C 0.34777 1.00293 0.93715 0.0
C617 C 0.3239 0.99936 0.98116 0.0
C618 C 0.43726 0.02922 0.95903 0.0
C619 C 0.44298 0.02352 0.86196 0.0
C620 C 0.412 0.02934 0.99263 0.0
C621 C 0.39148 0.02371 0.93047 0.0
C622 C 0.39719 1.0183 0.83298 0.0
C623 C 0.4225 1.01831 0.79923 0.0
H624 H 0.49436 0.32683 0.13362 0.0
H625 H 0.5549 0.31196 0.93207 0.0
H626 H 0.4879 0.36882 0.05943 0.0
H627 H 0.54897 0.35381 0.85883 0.0
H628 H 0.52561 0.42729 0.71032 0.0
H629 H 0.52451 0.3832 0.76679 0.0
H630 H 0.50981 0.40914 0.05723 0.0
H631 H 0.51038 0.45315 1.00045 0.0
C632 C 0.50564 0.33214 0.07109 0.0
C633 C 0.52484 0.31581 0.03776 0.0
C634 C 0.50233 0.35647 0.0296 0.0
C635 C 0.51812 0.36514 0.95344 0.0
C636 C 0.53621 0.34801 0.91642 0.0
C637 C 0.53957 0.32383 0.95812 0.0
C638 C 0.52202 0.42366 0.78623 0.0
C639 C 0.51817 0.44406 0.85051 0.0
C640 C 0.52148 0.39824 0.81888 0.0
C641 C 0.51704 0.39228 0.91698 0.0
C642 C 0.51286 0.4127 0.98096 0.0
C643 C 0.51343 0.43812 0.94834 0.0
H644 H 0.22637 0.56686 0.97351 0.0
H645 H 0.21793 0.49533 0.12363 0.0
H646 H 0.18484 0.56087 0.89788 0.0
H647 H 0.17624 0.48892 0.04699 0.0
H648 H 0.09001 0.50464 1.0031 0.0
H649 H 0.13395 0.50596 0.05996 0.0
H650 H 0.15753 0.53894 0.78779 0.0
H651 H 0.11344 0.53797 0.73157 0.0
C652 C 0.21598 0.54934 0.98756 0.0
C653 C 0.22578 0.53137 0.0534 0.0
C654 C 0.19198 0.54591 0.94441 0.0
C655 C 0.17671 0.52448 0.96639 0.0
C656 C 0.1871 0.50588 0.02893 0.0
C657 C 0.21128 0.50927 0.07169 0.0
C658 C 0.10454 0.51211 0.95503 0.0
C659 C 0.09791 0.52124 0.86253 0.0
C660 C 0.12994 0.51266 0.9875 0.0
C661 C 0.14969 0.52248 0.92887 0.0
C662 C 0.14305 0.53143 0.83591 0.0
C663 C 0.11763 0.53077 0.80325 0.0
H664 H 0.06781 0.81688 0.53823 0.0
H665 H 0.99423 0.82322 0.40345 0.0
H666 H 0.06198 0.85815 0.61572 0.0
H667 H 0.98809 0.86464 0.48177 0.0
H668 H 1.00343 0.95136 0.52025 0.0
H669 H 1.00497 0.90746 0.46338 0.0
H670 H 0.04023 0.88456 0.73147 0.0
H671 H 0.03888 0.92868 0.78808 0.0
C672 C 0.04997 0.82675 0.52771 0.0
C673 C 0.03137 0.81649 0.46534 0.0
C674 C 0.04662 0.85058 0.57205 0.0
C675 C 0.02465 0.86517 0.5547 0.0
C676 C 1.00546 0.85428 0.49606 0.0
C677 C 1.00874 0.83027 0.45231 0.0
C678 C 1.01145 0.937 0.56747 0.0
C679 C 0.02106 0.94381 0.65897 0.0
C680 C 1.01213 0.91163 0.53501 0.0
C681 C 0.02262 0.8921 0.59254 0.0
C682 C 0.03215 0.89891 0.6844 0.0
C683 C 0.03128 0.92431 0.71723 0.0
H684 H 0.72477 0.06968 0.52671 0.0
H685 H 0.71924 0.9943 0.40626 0.0
H686 H 0.68325 0.0642 0.60356 0.0
H687 H 0.67749 0.98854 0.4836 0.0
H688 H 0.59055 1.00339 0.5182 0.0
H689 H 0.63452 1.00486 0.46105 0.0
H690 H 0.65714 0.04296 0.72369 0.0
H691 H 0.61308 0.04161 0.78055 0.0
C692 C 0.71499 0.05157 0.5193 0.0
C693 C 0.72558 0.03229 0.4615 0.0
C694 C 0.69104 0.04842 0.56317 0.0
C695 C 0.67663 0.02598 0.5496 0.0
C696 C 0.68774 1.00623 0.49498 0.0
C697 C 0.71191 1.00932 0.45183 0.0
C698 C 0.60488 1.01201 0.5641 0.0
C699 C 0.59804 0.02241 0.65415 0.0
C700 C 0.63026 1.01267 0.53154 0.0
C701 C 0.6497 0.02394 0.58749 0.0
C702 C 0.64285 0.03425 0.67788 0.0
C703 C 0.61748 0.03339 0.71084 0.0
H704 H 0.54735 0.71669 0.37612 0.0
H705 H 0.48676 0.73108 0.57797 0.0
H706 H 0.55387 0.67457 0.44919 0.0
H707 H 0.49276 0.68911 0.65009 0.0
H708 H 0.53171 0.59004 0.50673 0.0
H709 H 0.53218 0.63413 0.4507 0.0
H710 H 0.51721 0.65966 0.74146 0.0
H711 H 0.5162 0.61553 0.79712 0.0
C712 C 0.53608 0.71124 0.43851 0.0
C713 C 0.51686 0.72749 0.47231 0.0
C714 C 0.53942 0.68684 0.47934 0.0
C715 C 0.52364 0.678 0.55526 0.0
C716 C 0.50551 0.69503 0.59269 0.0
C717 C 0.50213 0.71929 0.55166 0.0
C718 C 0.52859 0.605 0.55904 0.0
C719 C 0.52379 0.59893 0.65672 0.0
C720 C 0.52909 0.63047 0.52686 0.0
C721 C 0.5248 0.65081 0.59116 0.0
C722 C 0.52032 0.64471 0.68911 0.0
C723 C 0.51983 0.61925 0.7213 0.0
H724 H 0.81054 0.48448 0.57293 0.0
H725 H 0.82556 0.54624 0.37515 0.0
H726 H 0.85213 0.49086 0.64778 0.0
H727 H 0.86726 0.55311 0.45075 0.0
H728 H 0.92545 0.5153 0.79901 0.0
H729 H 0.88142 0.51535 0.74202 0.0
H730 H 0.90761 0.53212 0.4528 0.0
H731 H 0.95146 0.53226 0.50995 0.0
C732 C 0.82236 0.50018 0.54815 0.0
C733 C 0.81441 0.5152 0.46931 0.0
C734 C 0.84641 0.50378 0.59075 0.0
C735 C 0.86352 0.52236 0.55521 0.0
C736 C 0.85495 0.53832 0.47957 0.0
C737 C 0.83076 0.53477 0.43724 0.0
C738 C 0.92188 0.51893 0.7232 0.0
C739 C 0.94229 0.52352 0.6593 0.0
C740 C 0.89648 0.51897 0.69026 0.0
C741 C 0.89059 0.52377 0.59231 0.0
C742 C 0.91106 0.52875 0.52891 0.0
C743 C 0.93641 0.52863 0.56176 0.0
loop_
_geom_bond_atom_site_label_1
_geom_bond_atom_site_label_2
_geom_bond_distance
_geom_bond_site_symmetry_2
_ccdc_geom_bond_type
H0 C7 0.929 . S
H1 C10 0.930 . S
H2 C12 0.929 . S
H3 C4 0.969 . S
C4 H3 0.969 . S
C4 O5 1.550 . S
C4 H6 0.973 . S
O5 C4 1.550 . S
O5 C11 1.412 . S
H6 C4 0.973 . S
C7 H0 0.929 . S
C7 C8 1.400 . S
C7 C9 1.364 . S
C8 C7 1.400 . S
C8 C12 1.377 . S
C9 C7 1.364 . S
C9 C10 1.374 . S
C10 H1 0.930 . S
C10 C9 1.374 . S
C10 C11 1.383 . S
C11 O5 1.412 . S
C11 C10 1.383 . S
C11 C12 1.394 . S
C12 H2 0.929 . S
C12 C8 1.377 . S
C12 C11 1.394 . S
H13 C20 0.928 1_655 S
H14 C23 0.930 . S
H15 C25 0.928 1_655 S
H16 C17 0.969 . S
C17 H16 0.969 . S
C17 O18 1.550 1_455 S
C17 H19 0.973 1_455 S
O18 C17 1.550 1_655 S
O18 C24 1.405 1_655 S
H19 C17 0.973 1_655 S
C20 H13 0.928 1_455 S
C20 C21 1.399 . S
C20 C22 1.364 . S
C21 C20 1.399 . S
C21 C25 1.377 . S
C22 C20 1.364 . S
C22 C23 1.374 1_455 S
C23 H14 0.930 . S
C23 C22 1.374 1_655 S
C23 C24 1.382 1_655 S
C24 O18 1.405 1_455 S
C24 C23 1.382 1_455 S
C24 C25 1.394 . S
C25 H15 0.928 1_455 S
C25 C21 1.377 . S
C25 C24 1.394 . S
H26 C33 0.928 1_565 S
H27 C36 0.929 . S
H28 C38 0.928 1_565 S
H29 C30 0.969 . S
C30 H29 0.969 . S
C30 O31 1.550 1_545 S
C30 H32 0.973 1_545 S
O31 C30 1.550 1_565 S
O31 C37 1.405 1_565 S
H32 C30 0.973 1_565 S
C33 H26 0.928 1_545 S
C33 C34 1.399 . S
C33 C35 1.364 . S
C34 C33 1.399 . S
C34 C38 1.377 . S
C35 C33 1.364 . S
C35 C36 1.374 1_545 S
C36 H27 0.929 . S
C36 C35 1.374 1_565 S
C36 C37 1.382 1_565 S
C37 O31 1.405 1_545 S
C37 C36 1.382 1_545 S
C37 C38 1.394 . S
C38 H28 0.928 1_545 S
C38 C34 1.377 . S
C38 C37 1.394 . S
H39 C46 0.929 . S
H40 C49 0.930 . S
H41 C51 0.929 . S
H42 C43 0.969 . S
C43 H42 0.969 . S
C43 O44 1.550 . S
C43 H45 0.973 . S
O44 C43 1.550 . S
O44 C50 1.412 . S
H45 C43 0.973 . S
C46 H39 0.929 . S
C46 C47 1.400 . S
C46 C48 1.364 . S
C47 C46 1.400 . S
C47 C51 1.377 . S
C48 C46 1.364 . S
C48 C49 1.374 . S
C49 H40 0.930 . S
C49 C48 1.374 . S
C49 C50 1.383 . S
C50 O44 1.412 . S
C50 C49 1.383 . S
C50 C51 1.394 . S
C51 H41 0.929 . S
C51 C47 1.377 . S
C51 C50 1.394 . S
H52 C59 0.929 . S
H53 C62 0.930 . S
H54 C64 0.929 . S
H55 C56 0.969 . S
C56 H55 0.969 . S
C56 O57 1.550 . S
C56 H58 0.973 . S
O57 C56 1.550 . S
O57 C63 1.412 . S
H58 C56 0.973 . S
C59 H52 0.929 . S
C59 C60 1.400 1_554 S
C59 C61 1.364 . S
C60 C59 1.400 1_556 S
C60 C64 1.377 . S
C61 C59 1.364 . S
C61 C62 1.374 . S
C62 H53 0.930 . S
C62 C61 1.374 . S
C62 C63 1.383 . S
C63 O57 1.412 . S
C63 C62 1.383 . S
C63 C64 1.394 1_554 S
C64 H54 0.929 . S
C64 C60 1.377 . S
C64 C63 1.394 1_556 S
H65 C72 0.928 1_655 S
H66 C75 0.930 . S
H67 C77 0.928 1_655 S
H68 C69 0.969 . S
C69 H68 0.969 . S
C69 O70 1.550 1_455 S
C69 H71 0.973 1_455 S
O70 C69 1.550 1_655 S
O70 C76 1.402 1_655 S
H71 C69 0.973 1_655 S
C72 H65 0.928 1_455 S
C72 C73 1.400 1_554 S
C72 C74 1.364 . S
C73 C72 1.400 1_556 S
C73 C77 1.377 . S
C74 C72 1.364 . S
C74 C75 1.374 1_455 S
C75 H66 0.930 . S
C75 C74 1.374 1_655 S
C75 C76 1.382 1_655 S
C76 O70 1.402 1_455 S
C76 C75 1.382 1_455 S
C76 C77 1.394 1_554 S
C77 H67 0.928 1_455 S
C77 C73 1.377 . S
C77 C76 1.394 1_556 S
H78 C85 0.928 1_565 S
H79 C88 0.930 . S
H80 C90 0.928 1_565 S
H81 C82 0.969 . S
C82 H81 0.969 . S
C82 O83 1.550 1_545 S
C82 H84 0.973 1_545 S
O83 C82 1.550 1_565 S
O83 C89 1.402 1_565 S
H84 C82 0.973 1_565 S
C85 H78 0.928 1_545 S
C85 C86 1.400 1_554 S
C85 C87 1.364 . S
C86 C85 1.400 1_556 S
C86 C90 1.377 . S
C87 C85 1.364 . S
C87 C88 1.374 1_545 S
C88 H79 0.930 . S
C88 C87 1.374 1_565 S
C88 C89 1.382 1_565 S
C89 O83 1.402 1_545 S
C89 C88 1.382 1_545 S
C89 C90 1.394 1_554 S
C90 H80 0.928 1_545 S
C90 C86 1.377 . S
C90 C89 1.394 1_556 S
H91 C98 0.929 . S
H92 C101 0.930 . S
H93 C103 0.929 . S
H94 C95 0.969 . S
C95 H94 0.969 . S
C95 O96 1.550 . S
C95 H97 0.973 . S
O96 C95 1.550 . S
O96 C102 1.412 . S
H97 C95 0.973 . S
C98 H91 0.929 . S
C98 C99 1.400 1_554 S
C98 C100 1.364 . S
C99 C98 1.400 1_556 S
C99 C103 1.377 . S
C100 C98 1.364 . S
C100 C101 1.374 . S
C101 H92 0.930 . S
C101 C100 1.374 . S
C101 C102 1.383 . S
C102 O96 1.412 . S
C102 C101 1.383 . S
C102 C103 1.394 1_554 S
C103 H93 0.929 . S
C103 C99 1.377 . S
C103 C102 1.394 1_556 S
Tb104 C106 2.809 . S
Tb104 O124 2.484 . S
Tb104 O125 2.440 . S
Tb104 O126 2.658 1_565 S
Tb104 O127 2.409 . S
Tb104 O128 2.378 . S
Tb104 O132 2.325 1_455 S
Tb104 O135 2.341 1_565 S
Tb105 C115 2.809 . S
Tb105 O126 2.325 1_655 S
Tb105 O129 2.341 1_545 S
Tb105 O130 2.484 . S
Tb105 O131 2.440 . S
Tb105 O132 2.658 1_545 S
Tb105 O133 2.409 . S
Tb105 O134 2.378 . S
C106 Tb104 2.809 . S
C106 C107 1.514 . S
C106 O124 1.248 . S
C106 O125 1.266 . S
C107 C106 1.514 . S
C107 C108 1.359 1_556 S
C107 C112 1.348 . S
C108 C107 1.359 1_554 S
C108 C109 1.380 . S
C108 H136 0.929 1_455 S
C109 C108 1.380 . S
C109 C110 1.347 . S
C109 H137 0.931 1_455 S
C110 C109 1.347 . S
C110 C111 1.369 . S
C111 C110 1.369 . S
C111 C112 1.407 1_554 S
C111 H138 0.930 . S
C112 C107 1.348 . S
C112 C111 1.407 1_556 S
C112 H139 0.932 . S
C113 O126 1.281 1_565 S
C113 O127 1.254 . S
C114 O128 1.236 1_655 S
C114 O129 1.266 . S
C115 Tb105 2.809 . S
C115 C116 1.514 . S
C115 O130 1.248 . S
C115 O131 1.266 . S
C116 C115 1.514 . S
C116 C117 1.359 . S
C116 C121 1.348 . S
C117 C116 1.359 . S
C117 C118 1.380 . S
C117 H140 0.929 1_655 S
C118 C117 1.380 . S
C118 C119 1.347 . S
C118 H141 0.931 1_655 S
C119 C118 1.347 . S
C119 C120 1.369 . S
C120 C119 1.369 . S
C120 C121 1.408 . S
C120 H142 0.930 . S
C121 C116 1.348 . S
C121 C120 1.408 . S
C121 H143 0.930 . S
C122 O132 1.281 1_545 S
C122 O133 1.254 . S
C123 O134 1.236 1_455 S
C123 O135 1.266 . S
O124 Tb104 2.484 . S
O124 C106 1.248 . S
O125 Tb104 2.440 . S
O125 C106 1.266 . S
O126 Tb104 2.658 1_545 S
O126 Tb105 2.325 1_455 S
O126 C113 1.281 1_545 S
O127 Tb104 2.409 . S
O127 C113 1.254 . S
O128 Tb104 2.378 . S
O128 C114 1.236 1_455 S
O129 Tb105 2.341 1_565 S
O129 C114 1.266 . S
O130 Tb105 2.484 . S
O130 C115 1.248 . S
O131 Tb105 2.440 . S
O131 C115 1.266 . S
O132 Tb104 2.325 1_655 S
O132 Tb105 2.658 1_565 S
O132 C122 1.281 1_565 S
O133 Tb105 2.409 . S
O133 C122 1.254 . S
O134 Tb105 2.378 . S
O134 C123 1.236 1_655 S
O135 Tb104 2.341 1_545 S
O135 C123 1.266 . S
H136 C108 0.929 1_655 S
H137 C109 0.931 1_655 S
H138 C111 0.930 . S
H139 C112 0.932 . S
H140 C117 0.929 1_455 S
H141 C118 0.931 1_455 S
H142 C120 0.930 . S
H143 C121 0.930 . S
Tb144 C146 2.809 . S
Tb144 O164 2.502 . S
Tb144 O165 2.440 . S
Tb144 O166 2.658 . S
Tb144 O167 2.409 . S
Tb144 O168 2.378 . S
Tb144 O172 2.325 1_545 S
Tb144 O175 2.341 . S
Tb145 C155 2.809 . S
Tb145 O166 2.325 1_565 S
Tb145 O169 2.341 . S
Tb145 O170 2.497 . S
Tb145 O171 2.440 . S
Tb145 O172 2.658 . S
Tb145 O173 2.409 . S
Tb145 O174 2.378 . S
C146 Tb144 2.809 . S
C146 C147 1.514 . S
C146 O164 1.288 . S
C146 O165 1.266 . S
C147 C146 1.514 . S
C147 C148 1.359 1_556 S
C147 C152 1.348 1_556 S
C148 C147 1.359 1_554 S
C148 C149 1.380 . S
C148 H176 0.929 1_545 S
C149 C148 1.380 . S
C149 C150 1.347 . S
C149 H177 0.931 1_545 S
C150 C149 1.347 . S
C150 C151 1.369 . S
C151 C150 1.369 . S
C151 C152 1.410 . S
C151 H178 0.930 . S
C152 C147 1.348 1_554 S
C152 C151 1.410 . S
C152 H179 0.929 1_554 S
C153 O166 1.281 . S
C153 O167 1.254 . S
C154 O168 1.236 1_565 S
C154 O169 1.266 . S
C155 Tb145 2.809 . S
C155 C156 1.514 . S
C155 O170 1.278 . S
C155 O171 1.266 . S
C156 C155 1.514 . S
C156 C157 1.359 . S
C156 C161 1.348 . S
C157 C156 1.359 . S
C157 C158 1.380 . S
C157 H180 0.929 1_565 S
C158 C157 1.380 . S
C158 C159 1.347 . S
C158 H181 0.931 1_565 S
C159 C158 1.347 . S
C159 C160 1.369 . S
C160 C159 1.369 . S
C160 C161 1.408 . S
C160 H182 0.930 . S
C161 C156 1.348 . S
C161 C160 1.408 . S
C161 H183 0.930 . S
C162 O172 1.281 . S
C162 O173 1.254 . S
C163 O174 1.236 1_545 S
C163 O175 1.266 . S
O164 Tb144 2.502 . S
O164 C146 1.288 . S
O165 Tb144 2.440 . S
O165 C146 1.266 . S
O166 Tb144 2.658 . S
O166 Tb145 2.325 1_545 S
O166 C153 1.281 . S
O167 Tb144 2.409 . S
O167 C153 1.254 . S
O168 Tb144 2.378 . S
O168 C154 1.236 1_545 S
O169 Tb145 2.341 . S
O169 C154 1.266 . S
O170 Tb145 2.497 . S
O170 C155 1.278 . S
O171 Tb145 2.440 . S
O171 C155 1.266 . S
O172 Tb144 2.325 1_565 S
O172 Tb145 2.658 . S
O172 C162 1.281 . S
O173 Tb145 2.409 . S
O173 C162 1.254 . S
O174 Tb145 2.378 . S
O174 C163 1.236 1_565 S
O175 Tb144 2.341 . S
O175 C163 1.266 . S
H176 C148 0.929 1_565 S
H177 C149 0.931 1_565 S
H178 C151 0.930 . S
H179 C152 0.929 1_556 S
H180 C157 0.929 1_545 S
H181 C158 0.931 1_545 S
H182 C160 0.930 . S
H183 C161 0.930 . S
Tb184 C186 2.809 . S
Tb184 O204 2.484 . S
Tb184 O205 2.440 . S
Tb184 O206 2.658 . S
Tb184 O207 2.409 . S
Tb184 O208 2.378 . S
Tb184 O212 2.325 . S
Tb184 O215 2.341 . S
Tb185 C195 2.809 . S
Tb185 O206 2.325 . S
Tb185 O209 2.341 . S
Tb185 O210 2.484 . S
Tb185 O211 2.440 . S
Tb185 O212 2.658 . S
Tb185 O213 2.409 . S
Tb185 O214 2.378 . S
C186 Tb184 2.809 . S
C186 C187 1.514 . S
C186 O204 1.248 . S
C186 O205 1.266 . S
C187 C186 1.514 . S
C187 C188 1.359 1_556 S
C187 C192 1.348 1_556 S
C188 C187 1.359 1_554 S
C188 C189 1.380 . S
C188 H216 0.929 . S
C189 C188 1.380 . S
C189 C190 1.347 . S
C189 H217 0.931 . S
C190 C189 1.347 . S
C190 C191 1.369 . S
C191 C190 1.369 . S
C191 C192 1.408 . S
C191 H218 0.930 . S
C192 C187 1.348 1_554 S
C192 C191 1.408 . S
C192 H219 0.930 1_554 S
C193 O206 1.281 . S
C193 O207 1.254 . S
C194 O208 1.236 . S
C194 O209 1.266 . S
C195 Tb185 2.809 . S
C195 C196 1.514 . S
C195 O210 1.248 . S
C195 O211 1.266 . S
C196 C195 1.514 . S
C196 C197 1.359 . S
C196 C201 1.348 . S
C197 C196 1.359 . S
C197 C198 1.380 . S
C197 H220 0.929 . S
C198 C197 1.380 . S
C198 C199 1.347 . S
C198 H221 0.931 . S
C199 C198 1.347 . S
C199 C200 1.369 . S
C200 C199 1.369 . S
C200 C201 1.408 . S
C200 H222 0.930 . S
C201 C196 1.348 . S
C201 C200 1.408 . S
C201 H223 0.930 . S
C202 O212 1.281 . S
C202 O213 1.254 . S
C203 O214 1.236 . S
C203 O215 1.266 . S
O204 Tb184 2.484 . S
O204 C186 1.248 . S
O205 Tb184 2.440 . S
O205 C186 1.266 . S
O206 Tb184 2.658 . S
O206 Tb185 2.325 . S
O206 C193 1.281 . S
O207 Tb184 2.409 . S
O207 C193 1.254 . S
O208 Tb184 2.378 . S
O208 C194 1.236 . S
O209 Tb185 2.341 . S
O209 C194 1.266 . S
O210 Tb185 2.484 . S
O210 C195 1.248 . S
O211 Tb185 2.440 . S
O211 C195 1.266 . S
O212 Tb184 2.325 . S
O212 Tb185 2.658 . S
O212 C202 1.281 . S
O213 Tb185 2.409 . S
O213 C202 1.254 . S
O214 Tb185 2.378 . S
O214 C203 1.236 . S
O215 Tb184 2.341 . S
O215 C203 1.266 . S
H216 C188 0.929 . S
H217 C189 0.931 . S
H218 C191 0.930 . S
H219 C192 0.930 1_556 S
H220 C197 0.929 . S
H221 C198 0.931 . S
H222 C200 0.930 . S
H223 C201 0.930 . S
Tb224 C226 2.809 . S
Tb224 O244 2.484 . S
Tb224 O245 2.440 . S
Tb224 O246 2.658 1_655 S
Tb224 O247 2.409 . S
Tb224 O248 2.378 . S
Tb224 O252 2.325 . S
Tb224 O255 2.341 1_655 S
Tb225 C235 2.809 . S
Tb225 O246 2.325 . S
Tb225 O249 2.341 1_455 S
Tb225 O250 2.484 . S
Tb225 O251 2.440 . S
Tb225 O252 2.658 1_455 S
Tb225 O253 2.409 . S
Tb225 O254 2.378 . S
C226 Tb224 2.809 . S
C226 C227 1.514 . S
C226 O244 1.248 . S
C226 O245 1.266 . S
C227 C226 1.514 . S
C227 C228 1.359 1_556 S
C227 C232 1.348 1_556 S
C228 C227 1.359 1_554 S
C228 C229 1.380 . S
C228 H256 0.929 . S
C229 C228 1.380 . S
C229 C230 1.347 . S
C229 H257 0.931 . S
C230 C229 1.347 . S
C230 C231 1.369 . S
C231 C230 1.369 . S
C231 C232 1.408 . S
C231 H258 0.930 . S
C232 C227 1.348 1_554 S
C232 C231 1.408 . S
C232 H259 0.930 1_554 S
C233 O246 1.273 1_655 S
C233 O247 1.265 . S
C234 O248 1.236 . S
C234 O249 1.266 . S
C235 Tb225 2.809 . S
C235 C236 1.514 . S
C235 O250 1.248 . S
C235 O251 1.266 . S
C236 C235 1.514 . S
C236 C237 1.359 . S
C236 C241 1.348 . S
C237 C236 1.359 . S
C237 C238 1.380 . S
C237 H260 0.929 . S
C238 C237 1.380 . S
C238 C239 1.347 . S
C238 H261 0.931 . S
C239 C238 1.347 . S
C239 C240 1.369 . S
C240 C239 1.369 . S
C240 C241 1.408 . S
C240 H262 0.930 . S
C241 C236 1.348 . S
C241 C240 1.408 . S
C241 H263 0.930 . S
C242 O252 1.270 1_455 S
C242 O253 1.269 . S
C243 O254 1.236 . S
C243 O255 1.266 . S
O244 Tb224 2.484 . S
O244 C226 1.248 . S
O245 Tb224 2.440 . S
O245 C226 1.266 . S
O246 Tb224 2.658 1_455 S
O246 Tb225 2.325 . S
O246 C233 1.273 1_455 S
O247 Tb224 2.409 . S
O247 C233 1.265 . S
O248 Tb224 2.378 . S
O248 C234 1.236 . S
O249 Tb225 2.341 1_655 S
O249 C234 1.266 . S
O250 Tb225 2.484 . S
O250 C235 1.248 . S
O251 Tb225 2.440 . S
O251 C235 1.266 . S
O252 Tb224 2.325 . S
O252 Tb225 2.658 1_655 S
O252 C242 1.270 1_655 S
O253 Tb225 2.409 . S
O253 C242 1.269 . S
O254 Tb225 2.378 . S
O254 C243 1.236 . S
O255 Tb224 2.341 1_455 S
O255 C243 1.266 . S
H256 C228 0.929 . S
H257 C229 0.931 . S
H258 C231 0.930 . S
H259 C232 0.930 1_556 S
H260 C237 0.929 . S
H261 C238 0.931 . S
H262 C240 0.930 . S
H263 C241 0.930 . S
H264 C272 0.950 . S
H265 C277 0.950 . S
H266 C274 0.950 . S
H267 C276 0.950 . S
H268 C278 0.950 . S
H269 C280 0.950 . S
H270 C282 0.950 . S
H271 C283 0.950 . S
C272 H264 0.950 . S
C272 C273 1.388 . S
C272 C274 1.391 . S
C273 C272 1.388 . S
C273 C277 1.391 1_545 S
C274 H266 0.950 . S
C274 C272 1.391 . S
C274 C275 1.403 . S
C275 C274 1.403 . S
C275 C276 1.395 1_545 S
C275 C281 1.491 . S
C276 H267 0.950 . S
C276 C275 1.395 1_565 S
C276 C277 1.391 . S
C277 H265 0.950 . S
C277 C273 1.391 1_565 S
C277 C276 1.391 . S
C278 H268 0.950 . S
C278 C279 1.384 1_565 S
C278 C280 1.391 . S
C279 C278 1.384 1_545 S
C279 C283 1.394 . S
C280 H269 0.950 . S
C280 C278 1.391 . S
C280 C281 1.399 1_565 S
C281 C275 1.491 . S
C281 C280 1.399 1_545 S
C281 C282 1.399 . S
C282 H270 0.950 . S
C282 C281 1.399 . S
C282 C283 1.391 . S
C283 H271 0.950 . S
C283 C279 1.394 . S
C283 C282 1.391 . S
H284 C292 0.950 . S
H285 C297 0.950 . S
H286 C294 0.950 . S
H287 C296 0.950 . S
H288 C298 0.950 . S
H289 C300 0.950 . S
H290 C302 0.950 . S
H291 C303 0.950 . S
C292 H284 0.950 . S
C292 C293 1.386 . S
C292 C294 1.391 . S
C293 C292 1.386 . S
C293 C297 1.393 . S
C294 H286 0.950 . S
C294 C292 1.391 . S
C294 C295 1.400 . S
C295 C294 1.400 . S
C295 C296 1.398 . S
C295 C301 1.491 . S
C296 H287 0.950 . S
C296 C295 1.398 . S
C296 C297 1.391 . S
C297 H285 0.950 . S
C297 C293 1.393 . S
C297 C296 1.391 . S
C298 H288 0.950 . S
C298 C299 1.386 . S
C298 C300 1.391 . S
C299 C298 1.386 . S
C299 C303 1.393 . S
C300 H289 0.950 . S
C300 C298 1.391 . S
C300 C301 1.400 . S
C301 C295 1.491 . S
C301 C300 1.400 . S
C301 C302 1.398 . S
C302 H290 0.950 . S
C302 C301 1.398 . S
C302 C303 1.391 . S
C303 H291 0.950 . S
C303 C299 1.393 . S
C303 C302 1.391 . S
H304 C312 0.950 . S
H305 C317 0.950 . S
H306 C314 0.950 . S
H307 C316 0.950 . S
H308 C318 0.950 . S
H309 C320 0.950 . S
H310 C322 0.950 . S
H311 C323 0.950 . S
C312 H304 0.950 . S
C312 C313 1.386 . S
C312 C314 1.391 . S
C313 C312 1.386 . S
C313 C317 1.393 . S
C314 H306 0.950 . S
C314 C312 1.391 . S
C314 C315 1.400 . S
C315 C314 1.400 . S
C315 C316 1.398 . S
C315 C321 1.491 . S
C316 H307 0.950 . S
C316 C315 1.398 . S
C316 C317 1.391 . S
C317 H305 0.950 . S
C317 C313 1.393 . S
C317 C316 1.391 . S
C318 H308 0.950 . S
C318 C319 1.386 . S
C318 C320 1.391 . S
C319 C318 1.386 . S
C319 C323 1.393 . S
C320 H309 0.950 . S
C320 C318 1.391 . S
C320 C321 1.400 . S
C321 C315 1.491 . S
C321 C320 1.400 . S
C321 C322 1.398 . S
C322 H310 0.950 . S
C322 C321 1.398 . S
C322 C323 1.391 . S
C323 H311 0.950 . S
C323 C319 1.393 . S
C323 C322 1.391 . S
H324 C332 0.950 . S
H325 C337 0.950 . S
H326 C334 0.950 . S
H327 C336 0.950 . S
H328 C338 0.950 . S
H329 C340 0.950 . S
H330 C342 0.950 . S
H331 C343 0.950 . S
C332 H324 0.950 . S
C332 C333 1.383 . S
C332 C334 1.391 . S
C333 C332 1.383 . S
C333 C337 1.395 1_655 S
C334 H326 0.950 . S
C334 C332 1.391 . S
C334 C335 1.389 1_655 S
C335 C334 1.389 1_455 S
C335 C336 1.409 . S
C335 C341 1.490 . S
C336 H327 0.950 . S
C336 C335 1.409 . S
C336 C337 1.391 . S
C337 H325 0.950 . S
C337 C333 1.395 1_455 S
C337 C336 1.391 . S
C338 H328 0.950 . S
C338 C339 1.386 . S
C338 C340 1.391 . S
C339 C338 1.386 . S
C339 C343 1.393 1_455 S
C340 H329 0.950 . S
C340 C338 1.391 . S
C340 C341 1.431 . S
C341 C335 1.490 . S
C341 C340 1.431 . S
C341 C342 1.369 1_455 S
C342 H330 0.950 . S
C342 C341 1.369 1_655 S
C342 C343 1.391 . S
C343 H331 0.950 . S
C343 C339 1.393 1_655 S
C343 C342 1.391 . S
H344 C352 0.950 . S
H345 C357 0.950 . S
H346 C354 0.950 . S
H347 C356 0.950 . S
H348 C358 0.950 . S
H349 C360 0.950 . S
H350 C362 0.950 . S
H351 C363 0.950 . S
C352 H344 0.950 . S
C352 C353 1.397 . S
C352 C354 1.391 . S
C353 C352 1.397 . S
C353 C357 1.383 1_545 S
C354 H346 0.950 . S
C354 C352 1.391 . S
C354 C355 1.406 . S
C355 C354 1.406 . S
C355 C356 1.394 1_545 S
C355 C361 1.490 1_545 S
C356 H347 0.950 . S
C356 C355 1.394 1_565 S
C356 C357 1.391 . S
C357 H345 0.950 . S
C357 C353 1.383 1_565 S
C357 C356 1.391 . S
C358 H348 0.950 . S
C358 C359 1.395 1_554 S
C358 C360 1.391 . S
C359 C358 1.395 1_556 S
C359 C363 1.384 1_565 S
C360 H349 0.950 . S
C360 C358 1.391 . S
C360 C361 1.404 . S
C361 C355 1.490 1_565 S
C361 C360 1.404 . S
C361 C362 1.395 1_564 S
C362 H350 0.950 . S
C362 C361 1.395 1_546 S
C362 C363 1.391 . S
C363 H351 0.950 . S
C363 C359 1.384 1_545 S
C363 C362 1.391 . S
H364 C372 0.950 . S
H365 C377 0.950 . S
H366 C374 0.950 . S
H367 C376 0.950 . S
H368 C378 0.950 . S
H369 C380 0.950 . S
H370 C382 0.950 . S
H371 C383 0.950 . S
C372 H364 0.950 . S
C372 C373 1.386 . S
C372 C374 1.391 . S
C373 C372 1.386 . S
C373 C377 1.393 . S
C374 H366 0.950 . S
C374 C372 1.391 . S
C374 C375 1.400 . S
C375 C374 1.400 . S
C375 C376 1.398 . S
C375 C381 1.491 . S
C376 H367 0.950 . S
C376 C375 1.398 . S
C376 C377 1.391 . S
C377 H365 0.950 . S
C377 C373 1.393 . S
C377 C376 1.391 . S
C378 H368 0.950 . S
C378 C379 1.386 . S
C378 C380 1.391 1_556 S
C379 C378 1.386 . S
C379 C383 1.393 . S
C380 H369 0.950 . S
C380 C378 1.391 1_554 S
C380 C381 1.400 . S
C381 C375 1.491 . S
C381 C380 1.400 . S
C381 C382 1.398 . S
C382 H370 0.950 . S
C382 C381 1.398 . S
C382 C383 1.391 1_554 S
C383 H371 0.950 . S
C383 C379 1.393 . S
C383 C382 1.391 1_556 S
H384 C392 0.950 . S
H385 C397 0.950 . S
H386 C394 0.950 . S
H387 C396 0.950 . S
H388 C398 0.950 . S
H389 C400 0.950 . S
H390 C402 0.950 . S
H391 C403 0.950 . S
C392 H384 0.950 . S
C392 C393 1.386 . S
C392 C394 1.391 . S
C393 C392 1.386 . S
C393 C397 1.393 . S
C394 H386 0.950 . S
C394 C392 1.391 . S
C394 C395 1.400 . S
C395 C394 1.400 . S
C395 C396 1.398 . S
C395 C401 1.491 . S
C396 H387 0.950 . S
C396 C395 1.398 . S
C396 C397 1.391 . S
C397 H385 0.950 . S
C397 C393 1.393 . S
C397 C396 1.391 . S
C398 H388 0.950 . S
C398 C399 1.386 . S
C398 C400 1.391 . S
C399 C398 1.386 . S
C399 C403 1.393 1_556 S
C400 H389 0.950 . S
C400 C398 1.391 . S
C400 C401 1.400 1_556 S
C401 C395 1.491 . S
C401 C400 1.400 1_554 S
C401 C402 1.398 . S
C402 H390 0.950 . S
C402 C401 1.398 . S
C402 C403 1.391 . S
C403 H391 0.950 . S
C403 C399 1.393 1_554 S
C403 C402 1.391 . S
H404 C412 0.950 . S
H405 C417 0.950 . S
H406 C414 0.950 . S
H407 C416 0.950 . S
H408 C418 0.950 . S
H409 C420 0.950 . S
H410 C422 0.950 . S
H411 C423 0.950 . S
C412 H404 0.950 . S
C412 C413 1.382 1_655 S
C412 C414 1.391 . S
C413 C412 1.382 1_455 S
C413 C417 1.396 . S
C414 H406 0.950 . S
C414 C412 1.391 . S
C414 C415 1.409 . S
C415 C414 1.409 . S
C415 C416 1.389 1_655 S
C415 C421 1.490 . S
C416 H407 0.950 . S
C416 C415 1.389 1_455 S
C416 C417 1.391 . S
C417 H405 0.950 . S
C417 C413 1.396 . S
C417 C416 1.391 . S
C418 H408 0.950 . S
C418 C419 1.386 1_455 S
C418 C420 1.391 1_556 S
C419 C418 1.386 1_655 S
C419 C423 1.393 . S
C420 H409 0.950 . S
C420 C418 1.391 1_554 S
C420 C421 1.367 1_455 S
C421 C415 1.490 . S
C421 C420 1.367 1_655 S
C421 C422 1.433 . S
C422 H410 0.950 . S
C422 C421 1.433 . S
C422 C423 1.391 1_554 S
C423 H411 0.950 . S
C423 C419 1.393 . S
C423 C422 1.391 1_556 S
H424 C432 0.950 . S
H425 C437 0.950 . S
H426 C434 0.950 . S
H427 C436 0.950 . S
H428 C438 0.950 . S
H429 C440 0.950 . S
H430 C442 0.950 . S
H431 C443 0.950 . S
C432 H424 0.950 . S
C432 C433 1.386 . S
C432 C434 1.391 . S
C433 C432 1.386 . S
C433 C437 1.393 1_455 S
C434 H426 0.950 . S
C434 C432 1.391 . S
C434 C435 1.400 1_455 S
C435 C434 1.400 1_655 S
C435 C436 1.398 . S
C435 C441 1.491 . S
C436 H427 0.950 . S
C436 C435 1.398 . S
C436 C437 1.391 . S
C437 H425 0.950 . S
C437 C433 1.393 1_655 S
C437 C436 1.391 . S
C438 H428 0.950 . S
C438 C439 1.386 . S
C438 C440 1.391 . S
C439 C438 1.386 . S
C439 C443 1.393 . S
C440 H429 0.950 . S
C440 C438 1.391 . S
C440 C441 1.400 . S
C441 C435 1.491 . S
C441 C440 1.400 . S
C441 C442 1.398 . S
C442 H430 0.950 . S
C442 C441 1.398 . S
C442 C443 1.391 . S
C443 H431 0.950 . S
C443 C439 1.393 . S
C443 C442 1.391 . S
H444 C452 0.950 . S
H445 C457 0.950 . S
H446 C454 0.950 . S
H447 C456 0.950 . S
H448 C458 0.950 . S
H449 C460 0.950 . S
H450 C462 0.950 1_545 S
H451 C463 0.950 . S
C452 H444 0.950 . S
C452 C453 1.403 . S
C452 C454 1.391 . S
C453 C452 1.403 . S
C453 C457 1.367 1_545 S
C454 H446 0.950 . S
C454 C452 1.391 . S
C454 C455 1.400 1_545 S
C455 C454 1.400 1_565 S
C455 C456 1.398 . S
C455 C461 1.491 . S
C456 H447 0.950 . S
C456 C455 1.398 . S
C456 C457 1.391 . S
C457 H445 0.950 . S
C457 C453 1.367 1_565 S
C457 C456 1.391 . S
C458 H448 0.950 . S
C458 C459 1.386 . S
C458 C460 1.391 . S
C459 C458 1.386 . S
C459 C463 1.393 . S
C460 H449 0.950 . S
C460 C458 1.391 . S
C460 C461 1.400 . S
C461 C455 1.491 . S
C461 C460 1.400 . S
C461 C462 1.398 . S
C462 H450 0.950 1_565 S
C462 C461 1.398 . S
C462 C463 1.391 . S
C463 H451 0.950 . S
C463 C459 1.393 . S
C463 C462 1.391 . S
H464 C472 0.950 . S
H465 C477 0.950 . S
H466 C474 0.950 . S
H467 C476 0.950 . S
H468 C478 0.950 . S
H469 C480 0.950 . S
H470 C482 0.950 . S
H471 C483 0.950 . S
C472 H464 0.950 . S
C472 C473 1.386 . S
C472 C474 1.391 . S
C473 C472 1.386 . S
C473 C477 1.393 . S
C474 H466 0.950 . S
C474 C472 1.391 . S
C474 C475 1.400 . S
C475 C474 1.400 . S
C475 C476 1.398 . S
C475 C481 1.491 . S
C476 H467 0.950 . S
C476 C475 1.398 . S
C476 C477 1.391 . S
C477 H465 0.950 . S
C477 C473 1.393 . S
C477 C476 1.391 . S
C478 H468 0.950 . S
C478 C479 1.386 . S
C478 C480 1.391 . S
C479 C478 1.386 . S
C479 C483 1.393 . S
C480 H469 0.950 . S
C480 C478 1.391 . S
C480 C481 1.400 . S
C481 C475 1.491 . S
C481 C480 1.400 . S
C481 C482 1.398 . S
C482 H470 0.950 . S
C482 C481 1.398 . S
C482 C483 1.391 . S
C483 H471 0.950 . S
C483 C479 1.393 . S
C483 C482 1.391 . S
H484 C492 0.950 . S
H485 C497 0.950 . S
H486 C494 0.950 . S
H487 C496 0.950 . S
H488 C498 0.950 . S
H489 C500 0.950 . S
H490 C502 0.950 . S
H491 C503 0.950 . S
C492 H484 0.950 . S
C492 C493 1.386 . S
C492 C494 1.391 . S
C493 C492 1.386 . S
C493 C497 1.393 . S
C494 H486 0.950 . S
C494 C492 1.391 . S
C494 C495 1.400 . S
C495 C494 1.400 . S
C495 C496 1.398 . S
C495 C501 1.491 . S
C496 H487 0.950 . S
C496 C495 1.398 . S
C496 C497 1.391 . S
C497 H485 0.950 . S
C497 C493 1.393 . S
C497 C496 1.391 . S
C498 H488 0.950 . S
C498 C499 1.386 . S
C498 C500 1.391 . S
C499 C498 1.386 . S
C499 C503 1.393 . S
C500 H489 0.950 . S
C500 C498 1.391 . S
C500 C501 1.400 . S
C501 C495 1.491 . S
C501 C500 1.400 . S
C501 C502 1.398 . S
C502 H490 0.950 . S
C502 C501 1.398 . S
C502 C503 1.391 . S
C503 H491 0.950 . S
C503 C499 1.393 . S
C503 C502 1.391 . S
H504 C512 0.950 . S
H505 C517 0.950 . S
H506 C514 0.950 . S
H507 C516 0.950 . S
H508 C518 0.950 . S
H509 C520 0.950 . S
H510 C522 0.950 1_655 S
H511 C523 0.950 . S
C512 H504 0.950 . S
C512 C513 1.386 . S
C512 C514 1.391 . S
C513 C512 1.386 . S
C513 C517 1.393 1_655 S
C514 H506 0.950 . S
C514 C512 1.391 . S
C514 C515 1.400 1_655 S
C515 C514 1.400 1_455 S
C515 C516 1.398 . S
C515 C521 1.491 . S
C516 H507 0.950 . S
C516 C515 1.398 . S
C516 C517 1.391 . S
C517 H505 0.950 . S
C517 C513 1.393 1_455 S
C517 C516 1.391 . S
C518 H508 0.950 . S
C518 C519 1.386 . S
C518 C520 1.391 . S
C519 C518 1.386 . S
C519 C523 1.393 . S
C520 H509 0.950 . S
C520 C518 1.391 . S
C520 C521 1.400 . S
C521 C515 1.491 . S
C521 C520 1.400 . S
C521 C522 1.398 . S
C522 H510 0.950 1_455 S
C522 C521 1.398 . S
C522 C523 1.391 . S
C523 H511 0.950 . S
C523 C519 1.393 . S
C523 C522 1.391 . S
H524 C532 0.945 1_565 S
H525 C537 0.947 1_565 S
H526 C534 0.950 . S
H527 C536 0.950 . S
H528 C538 0.950 . S
H529 C540 0.950 . S
H530 C542 0.950 . S
H531 C543 0.950 1_556 S
C532 H524 0.945 1_545 S
C532 C533 1.383 1_545 S
C532 C534 1.399 . S
C533 C532 1.383 1_565 S
C533 C537 1.393 1_565 S
C534 H526 0.950 . S
C534 C532 1.399 . S
C534 C535 1.400 . S
C535 C534 1.400 . S
C535 C536 1.398 . S
C535 C541 1.491 . S
C536 H527 0.950 . S
C536 C535 1.398 . S
C536 C537 1.391 . S
C537 H525 0.947 1_545 S
C537 C533 1.393 1_545 S
C537 C536 1.391 . S
C538 H528 0.950 . S
C538 C539 1.386 . S
C538 C540 1.391 . S
C539 C538 1.386 . S
C539 C543 1.393 . S
C540 H529 0.950 . S
C540 C538 1.391 . S
C540 C541 1.400 . S
C541 C535 1.491 . S
C541 C540 1.400 . S
C541 C542 1.398 . S
C542 H530 0.950 . S
C542 C541 1.398 . S
C542 C543 1.391 . S
C543 H531 0.950 1_554 S
C543 C539 1.393 . S
C543 C542 1.391 . S
H544 C552 0.950 . S
H545 C557 0.950 . S
H546 C554 0.950 . S
H547 C556 0.950 . S
H548 C558 0.950 1_556 S
H549 C560 0.950 . S
H550 C562 0.950 . S
H551 C563 0.950 . S
C552 H544 0.950 . S
C552 C553 1.386 . S
C552 C554 1.391 . S
C553 C552 1.386 . S
C553 C557 1.393 . S
C554 H546 0.950 . S
C554 C552 1.391 . S
C554 C555 1.400 . S
C555 C554 1.400 . S
C555 C556 1.398 . S
C555 C561 1.491 . S
C556 H547 0.950 . S
C556 C555 1.398 . S
C556 C557 1.391 . S
C557 H545 0.950 . S
C557 C553 1.393 . S
C557 C556 1.391 . S
C558 H548 0.950 1_554 S
C558 C559 1.386 . S
C558 C560 1.391 . S
C559 C558 1.386 . S
C559 C563 1.393 . S
C560 H549 0.950 . S
C560 C558 1.391 . S
C560 C561 1.400 . S
C561 C555 1.491 . S
C561 C560 1.400 . S
C561 C562 1.398 . S
C562 H550 0.950 . S
C562 C561 1.398 . S
C562 C563 1.391 . S
C563 H551 0.950 . S
C563 C559 1.393 . S
C563 C562 1.391 . S
H564 C572 0.950 . S
H565 C577 0.950 . S
H566 C574 0.950 . S
H567 C576 0.950 . S
H568 C578 0.950 . S
H569 C580 0.950 . S
H570 C582 0.950 . S
H571 C583 0.950 . S
C572 H564 0.950 . S
C572 C573 1.386 . S
C572 C574 1.391 . S
C573 C572 1.386 . S
C573 C577 1.393 . S
C574 H566 0.950 . S
C574 C572 1.391 . S
C574 C575 1.400 . S
C575 C574 1.400 . S
C575 C576 1.398 . S
C575 C581 1.491 . S
C576 H567 0.950 . S
C576 C575 1.398 . S
C576 C577 1.391 . S
C577 H565 0.950 . S
C577 C573 1.393 . S
C577 C576 1.391 . S
C578 H568 0.950 . S
C578 C579 1.386 . S
C578 C580 1.391 . S
C579 C578 1.386 . S
C579 C583 1.393 . S
C580 H569 0.950 . S
C580 C578 1.391 . S
C580 C581 1.400 . S
C581 C575 1.491 . S
C581 C580 1.400 . S
C581 C582 1.398 . S
C582 H570 0.950 . S
C582 C581 1.398 . S
C582 C583 1.391 . S
C583 H571 0.950 . S
C583 C579 1.393 . S
C583 C582 1.391 . S
H584 C592 0.950 1_554 S
H585 C597 0.950 . S
H586 C594 0.950 1_554 S
H587 C596 0.950 . S
H588 C598 0.950 . S
H589 C600 0.950 1_655 S
H590 C602 0.950 . S
H591 C603 0.950 . S
C592 H584 0.950 1_556 S
C592 C593 1.394 . S
C592 C594 1.391 . S
C593 C592 1.394 . S
C593 C597 1.387 1_455 S
C594 H586 0.950 1_556 S
C594 C592 1.391 . S
C594 C595 1.400 . S
C595 C594 1.400 . S
C595 C596 1.398 1_455 S
C595 C601 1.491 . S
C596 H587 0.950 . S
C596 C595 1.398 1_655 S
C596 C597 1.391 . S
C597 H585 0.950 . S
C597 C593 1.387 1_655 S
C597 C596 1.391 . S
C598 H588 0.950 . S
C598 C599 1.386 . S
C598 C600 1.391 . S
C599 C598 1.386 . S
C599 C603 1.393 . S
C600 H589 0.950 1_455 S
C600 C598 1.391 . S
C600 C601 1.400 . S
C601 C595 1.491 . S
C601 C600 1.400 . S
C601 C602 1.398 . S
C602 H590 0.950 . S
C602 C601 1.398 . S
C602 C603 1.391 . S
C603 H591 0.950 . S
C603 C599 1.393 . S
C603 C602 1.391 . S
H604 C612 0.950 . S
H605 C617 0.950 . S
H606 C614 0.950 . S
H607 C616 0.950 . S
H608 C618 0.950 . S
H609 C620 0.950 . S
H610 C622 0.950 . S
H611 C623 0.950 . S
C612 H604 0.950 . S
C612 C613 1.386 . S
C612 C614 1.391 . S
C613 C612 1.386 . S
C613 C617 1.393 1_545 S
C614 H606 0.950 . S
C614 C612 1.391 . S
C614 C615 1.400 . S
C615 C614 1.400 . S
C615 C616 1.398 1_545 S
C615 C621 1.491 . S
C616 H607 0.950 . S
C616 C615 1.398 1_565 S
C616 C617 1.391 . S
C617 H605 0.950 . S
C617 C613 1.393 1_565 S
C617 C616 1.391 . S
C618 H608 0.950 . S
C618 C619 1.386 1_565 S
C618 C620 1.391 . S
C619 C618 1.386 1_545 S
C619 C623 1.393 . S
C620 H609 0.950 . S
C620 C618 1.391 . S
C620 C621 1.400 1_565 S
C621 C615 1.491 . S
C621 C620 1.400 1_545 S
C621 C622 1.398 . S
C622 H610 0.950 . S
C622 C621 1.398 . S
C622 C623 1.391 . S
C623 H611 0.950 . S
C623 C619 1.393 . S
C623 C622 1.391 . S
H624 C632 0.950 . S
H625 C637 0.950 . S
H626 C634 0.950 . S
H627 C636 0.950 . S
H628 C638 0.950 . S
H629 C640 0.950 . S
H630 C642 0.950 . S
H631 C643 0.950 . S
C632 H624 0.950 . S
C632 C633 1.386 . S
C632 C634 1.391 . S
C633 C632 1.386 . S
C633 C637 1.393 . S
C634 H626 0.950 . S
C634 C632 1.391 . S
C634 C635 1.400 . S
C635 C634 1.400 . S
C635 C636 1.398 . S
C635 C641 1.491 . S
C636 H627 0.950 . S
C636 C635 1.398 . S
C636 C637 1.391 . S
C637 H625 0.950 . S
C637 C633 1.393 . S
C637 C636 1.391 . S
C638 H628 0.950 . S
C638 C639 1.386 . S
C638 C640 1.391 . S
C639 C638 1.386 . S
C639 C643 1.393 . S
C640 H629 0.950 . S
C640 C638 1.391 . S
C640 C641 1.400 . S
C641 C635 1.491 . S
C641 C640 1.400 . S
C641 C642 1.398 . S
C642 H630 0.950 . S
C642 C641 1.398 . S
C642 C643 1.391 . S
C643 H631 0.950 . S
C643 C639 1.393 . S
C643 C642 1.391 . S
H644 C652 0.950 . S
H645 C657 0.950 . S
H646 C654 0.950 . S
H647 C656 0.950 . S
H648 C658 0.950 . S
H649 C660 0.950 . S
H650 C662 0.950 . S
H651 C663 0.950 . S
C652 H644 0.950 . S
C652 C653 1.386 . S
C652 C654 1.391 . S
C653 C652 1.386 . S
C653 C657 1.393 . S
C654 H646 0.950 . S
C654 C652 1.391 . S
C654 C655 1.400 . S
C655 C654 1.400 . S
C655 C656 1.398 . S
C655 C661 1.491 . S
C656 H647 0.950 . S
C656 C655 1.398 . S
C656 C657 1.391 . S
C657 H645 0.950 . S
C657 C653 1.393 . S
C657 C656 1.391 . S
C658 H648 0.950 . S
C658 C659 1.386 . S
C658 C660 1.391 . S
C659 C658 1.386 . S
C659 C663 1.393 . S
C660 H649 0.950 . S
C660 C658 1.391 . S
C660 C661 1.400 . S
C661 C655 1.491 . S
C661 C660 1.400 . S
C661 C662 1.398 . S
C662 H650 0.950 . S
C662 C661 1.398 . S
C662 C663 1.391 . S
C663 H651 0.950 . S
C663 C659 1.393 . S
C663 C662 1.391 . S
H664 C672 0.950 . S
H665 C677 0.950 . S
H666 C674 0.950 . S
H667 C676 0.950 . S
H668 C678 0.950 . S
H669 C680 0.950 . S
H670 C682 0.950 . S
H671 C683 0.950 . S
C672 H664 0.950 . S
C672 C673 1.386 1_455 S
C672 C674 1.391 . S
C673 C672 1.386 1_655 S
C673 C677 1.393 . S
C674 H666 0.950 . S
C674 C672 1.391 . S
C674 C675 1.400 1_455 S
C675 C674 1.400 1_655 S
C675 C676 1.398 . S
C675 C681 1.491 . S
C676 H667 0.950 . S
C676 C675 1.398 . S
C676 C677 1.391 . S
C677 H665 0.950 . S
C677 C673 1.393 . S
C677 C676 1.391 . S
C678 H668 0.950 . S
C678 C679 1.386 . S
C678 C680 1.391 . S
C679 C678 1.386 . S
C679 C683 1.393 1_655 S
C680 H669 0.950 . S
C680 C678 1.391 . S
C680 C681 1.400 . S
C681 C675 1.491 . S
C681 C680 1.400 . S
C681 C682 1.398 1_655 S
C682 H670 0.950 . S
C682 C681 1.398 1_455 S
C682 C683 1.391 . S
C683 H671 0.950 . S
C683 C679 1.393 1_455 S
C683 C682 1.391 . S
H684 C692 0.950 . S
H685 C697 0.950 . S
H686 C694 0.950 . S
H687 C696 0.950 . S
H688 C698 0.950 . S
H689 C700 0.950 . S
H690 C702 0.950 . S
H691 C703 0.950 . S
C692 H684 0.950 . S
C692 C693 1.386 1_545 S
C692 C694 1.391 . S
C693 C692 1.386 1_565 S
C693 C697 1.393 . S
C694 H686 0.950 . S
C694 C692 1.391 . S
C694 C695 1.400 1_545 S
C695 C694 1.400 1_565 S
C695 C696 1.398 . S
C695 C701 1.491 . S
C696 H687 0.950 . S
C696 C695 1.398 . S
C696 C697 1.391 . S
C697 H685 0.950 . S
C697 C693 1.393 . S
C697 C696 1.391 . S
C698 H688 0.950 . S
C698 C699 1.386 . S
C698 C700 1.391 . S
C699 C698 1.386 . S
C699 C703 1.393 1_565 S
C700 H689 0.950 . S
C700 C698 1.391 . S
C700 C701 1.400 . S
C701 C695 1.491 . S
C701 C700 1.400 . S
C701 C702 1.398 1_565 S
C702 H690 0.950 . S
C702 C701 1.398 1_545 S
C702 C703 1.391 . S
C703 H691 0.950 . S
C703 C699 1.393 1_545 S
C703 C702 1.391 . S
H704 C712 0.950 . S
H705 C717 0.950 . S
H706 C714 0.950 . S
H707 C716 0.950 . S
H708 C718 0.950 . S
H709 C720 0.950 . S
H710 C722 0.950 . S
H711 C723 0.950 . S
C712 H704 0.950 . S
C712 C713 1.386 . S
C712 C714 1.391 . S
C713 C712 1.386 . S
C713 C717 1.393 . S
C714 H706 0.950 . S
C714 C712 1.391 . S
C714 C715 1.400 . S
C715 C714 1.400 . S
C715 C716 1.398 . S
C715 C721 1.491 . S
C716 H707 0.950 . S
C716 C715 1.398 . S
C716 C717 1.391 . S
C717 H705 0.950 . S
C717 C713 1.393 . S
C717 C716 1.391 . S
C718 H708 0.950 . S
C718 C719 1.386 . S
C718 C720 1.391 . S
C719 C718 1.386 . S
C719 C723 1.393 . S
C720 H709 0.950 . S
C720 C718 1.391 . S
C720 C721 1.400 . S
C721 C715 1.491 . S
C721 C720 1.400 . S
C721 C722 1.398 . S
C722 H710 0.950 . S
C722 C721 1.398 . S
C722 C723 1.391 . S
C723 H711 0.950 . S
C723 C719 1.393 . S
C723 C722 1.391 . S
H724 C732 0.950 . S
H725 C737 0.950 . S
H726 C734 0.950 . S
H727 C736 0.950 . S
H728 C738 0.950 . S
H729 C740 0.950 . S
H730 C742 0.950 . S
H731 C743 0.950 . S
C732 H724 0.950 . S
C732 C733 1.386 . S
C732 C734 1.391 . S
C733 C732 1.386 . S
C733 C737 1.393 . S
C734 H726 0.950 . S
C734 C732 1.391 . S
C734 C735 1.400 . S
C735 C734 1.400 . S
C735 C736 1.398 . S
C735 C741 1.491 . S
C736 H727 0.950 . S
C736 C735 1.398 . S
C736 C737 1.391 . S
C737 H725 0.950 . S
C737 C733 1.393 . S
C737 C736 1.391 . S
C738 H728 0.950 . S
C738 C739 1.386 . S
C738 C740 1.391 . S
C739 C738 1.386 . S
C739 C743 1.393 . S
C740 H729 0.950 . S
C740 C738 1.391 . S
C740 C741 1.400 . S
C741 C735 1.491 . S
C741 C740 1.400 . S
C741 C742 1.398 . S
C742 H730 0.950 . S
C742 C741 1.398 . S
C742 C743 1.391 . S
C743 H731 0.950 . S
C743 C739 1.393 . S
C743 C742 1.391 . S
C273 C82 1.683 . S
C279 C113 1.931 1_545 S
C299 C153 1.950 . S
C293 C95 1.685 . S
C319 C193 1.962 . S
C313 C56 1.699 . S
C339 C233 1.950 1_455 S
C333 C69 1.658 1_655 S
C359 C122 1.938 1_565 S
C353 C30 1.676 . S
C373 C43 1.704 . S
C379 C162 1.953 . S
C393 C4 1.689 . S
C399 C202 1.961 . S
C413 C17 1.657 . S
C419 C242 1.951 1_655 S
C439 C119 0.505 . S
C433 C74 0.525 . S
C459 C159 0.470 . S
C453 C87 0.513 . S
C479 C199 0.498 . S
C473 C100 0.542 . S
C493 C61 0.469 . S
C499 C239 0.464 . S
C513 C22 0.481 1_655 S
C519 C110 0.495 . S
C539 C150 0.520 . S
C533 C35 0.522 1_565 S
C559 C190 0.476 . S
C553 C48 0.514 . S
C573 C9 0.483 . S
C579 C230 0.503 . S
C593 C73 2.053 . S
C599 C123 2.282 . S
C613 C86 2.005 . S
C619 C163 2.238 . S
C639 C203 2.224 . S
C633 C99 1.982 . S
C659 C243 2.264 . S
C653 C60 2.045 . S
C673 C21 2.040 1_655 S
C679 C114 2.286 . S
C699 C154 2.244 . S
C693 C34 2.002 1_565 S
C719 C194 2.229 . S
C713 C47 2.003 . S
C733 C8 2.030 . S
C739 C234 2.262 . S
