# Generated by pormake.
# Topology pyr, (3,6)-cn, num edge types: 1
# Building blocks:
#     Node 0, Type 0, BuildingBlock: BELTOD_clean_linker_0, # of connection points: 3
#     Node 1, Type 0, BuildingBlock: BELTOD_clean_linker_0, # of connection points: 3
#     Node 2, Type 0, BuildingBlock: BELTOD_clean_linker_0, # of connection points: 3
#     Node 3, Type 0, BuildingBlock: BELTOD_clean_linker_0, # of connection points: 3
#     Node 4, Type 0, BuildingBlock: BELTOD_clean_linker_0, # of connection points: 3
#     Node 5, Type 0, BuildingBlock: BELTOD_clean_linker_0, # of connection points: 3
#     Node 6, Type 0, BuildingBlock: BELTOD_clean_linker_0, # of connection points: 3
#     Node 7, Type 0, BuildingBlock: BELTOD_clean_linker_0, # of connection points: 3
#     Node 8, Type 1, BuildingBlock: PAMTOO_clean_sbu_0, # of connection points: 6
#     Node 9, Type 1, BuildingBlock: PAMTOO_clean_sbu_0, # of connection points: 6
#     Node 10, Type 1, BuildingBlock: PAMTOO_clean_sbu_0, # of connection points: 6
#     Node 11, Type 1, BuildingBlock: PAMTOO_clean_sbu_0, # of connection points: 6
#     Edge 12, Type (0, 1), BuildingBlock: XIVTED_clean_linker_0, # of connection points: 2
#     Edge 13, Type (0, 1), BuildingBlock: XIVTED_clean_linker_0, # of connection points: 2
#     Edge 14, Type (0, 1), BuildingBlock: XIVTED_clean_linker_0, # of connection points: 2
#     Edge 15, Type (0, 1), BuildingBlock: XIVTED_clean_linker_0, # of connection points: 2
#     Edge 16, Type (0, 1), BuildingBlock: XIVTED_clean_linker_0, # of connection points: 2
#     Edge 17, Type (0, 1), BuildingBlock: XIVTED_clean_linker_0, # of connection points: 2
#     Edge 18, Type (0, 1), BuildingBlock: XIVTED_clean_linker_0, # of connection points: 2
#     Edge 19, Type (0, 1), BuildingBlock: XIVTED_clean_linker_0, # of connection points: 2
#     Edge 20, Type (0, 1), BuildingBlock: XIVTED_clean_linker_0, # of connection points: 2
#     Edge 21, Type (0, 1), BuildingBlock: XIVTED_clean_linker_0, # of connection points: 2
#     Edge 22, Type (0, 1), BuildingBlock: XIVTED_clean_linker_0, # of connection points: 2
#     Edge 23, Type (0, 1), BuildingBlock: XIVTED_clean_linker_0, # of connection points: 2
#     Edge 24, Type (0, 1), BuildingBlock: XIVTED_clean_linker_0, # of connection points: 2
#     Edge 25, Type (0, 1), BuildingBlock: XIVTED_clean_linker_0, # of connection points: 2
#     Edge 26, Type (0, 1), BuildingBlock: XIVTED_clean_linker_0, # of connection points: 2
#     Edge 27, Type (0, 1), BuildingBlock: XIVTED_clean_linker_0, # of connection points: 2
#     Edge 28, Type (0, 1), BuildingBlock: XIVTED_clean_linker_0, # of connection points: 2
#     Edge 29, Type (0, 1), BuildingBlock: XIVTED_clean_linker_0, # of connection points: 2
#     Edge 30, Type (0, 1), BuildingBlock: XIVTED_clean_linker_0, # of connection points: 2
#     Edge 31, Type (0, 1), BuildingBlock: XIVTED_clean_linker_0, # of connection points: 2
#     Edge 32, Type (0, 1), BuildingBlock: XIVTED_clean_linker_0, # of connection points: 2
#     Edge 33, Type (0, 1), BuildingBlock: XIVTED_clean_linker_0, # of connection points: 2
#     Edge 34, Type (0, 1), BuildingBlock: XIVTED_clean_linker_0, # of connection points: 2
#     Edge 35, Type (0, 1), BuildingBlock: XIVTED_clean_linker_0, # of connection points: 2
# Relax obj value: 0.101
# Max RMSD: 0.162
# Mean RMSD: 0.069
data_MOF--net-pyr--node1-PAMTOO_clean_sbu_0--node2-BELTOD_clean_linker_0--edge1-XIVTED_clean_linker_0
_symmetry_space_group_name_H-M    P1
_symmetry_Int_Tables_number       1
_symmetry_cell_setting            triclinic
loop_
_symmetry_equiv_pos_as_xyz
'x, y, z'
_cell_length_a     42.186268
_cell_length_b     45.113841
_cell_length_c     44.579977
_cell_angle_alpha  89.953889
_cell_angle_beta   90.014076
_cell_angle_gamma 102.56536
loop_
_atom_site_label
_atom_site_type_symbol
_atom_site_fract_x
_atom_site_fract_y
_atom_site_fract_z
_atom_type_partial_charge
P0 P 0.3711 0.30727 0.24502 0.0
H1 H 0.42685 0.30756 0.20589 0.0
H2 H 0.44587 0.267 0.17962 0.0
H3 H 0.36672 0.20079 0.21824 0.0
H4 H 0.34752 0.24131 0.2436 0.0
H5 H 0.34801 0.36351 0.2449 0.0
H6 H 0.30447 0.37943 0.21734 0.0
H7 H 0.29051 0.29767 0.16395 0.0
H8 H 0.33341 0.28163 0.19204 0.0
H9 H 0.3922 0.28787 0.30274 0.0
H10 H 0.30148 0.29173 0.25982 0.0
O11 O 0.40217 0.33535 0.2546 0.0
H12 H 0.36224 0.26153 0.3457 0.0
H13 H 0.27176 0.26552 0.30207 0.0
C14 C 0.38621 0.27738 0.22714 0.0
C15 C 0.41383 0.28426 0.20885 0.0
C16 C 0.4247 0.26106 0.19394 0.0
C17 C 0.40785 0.23064 0.1969 0.0
C18 C 0.38008 0.22397 0.21522 0.0
C19 C 0.36927 0.24714 0.23004 0.0
C20 C 0.34433 0.32168 0.22023 0.0
C21 C 0.3361 0.34942 0.22675 0.0
C22 C 0.31118 0.35847 0.21096 0.0
C23 C 0.29389 0.33975 0.1885 0.0
C24 C 0.30304 0.31242 0.18137 0.0
C25 C 0.3279 0.30339 0.19722 0.0
C26 C 0.34918 0.29222 0.27829 0.0
C27 C 0.36592 0.28362 0.30283 0.0
C28 C 0.34879 0.2684 0.32721 0.0
C29 C 0.31462 0.26158 0.32736 0.0
C30 C 0.29805 0.27096 0.30299 0.0
C31 C 0.31514 0.28597 0.27865 0.0
P32 P 0.207 0.80461 0.69351 0.0
H33 H 0.26885 0.81766 0.724 0.0
H34 H 0.28434 0.82586 0.77646 0.0
H35 H 0.183 0.80681 0.80181 0.0
H36 H 0.16767 0.79873 0.74888 0.0
H37 H 0.22531 0.78496 0.63519 0.0
H38 H 0.24757 0.74167 0.62033 0.0
H39 H 0.22516 0.70184 0.70812 0.0
H40 H 0.20329 0.7456 0.72294 0.0
H41 H 0.17609 0.85287 0.71153 0.0
H42 H 0.15184 0.77205 0.65726 0.0
O43 O 0.23317 0.83182 0.67541 0.0
H44 H 0.12867 0.86934 0.69273 0.0
H45 H 0.10353 0.78797 0.63875 0.0
C46 C 0.21721 0.80857 0.73259 0.0
C47 C 0.24997 0.81517 0.74086 0.0
C48 C 0.25876 0.81946 0.77092 0.0
C49 C 0.23486 0.81705 0.7933 0.0
C50 C 0.20192 0.80916 0.78501 0.0
C51 C 0.19315 0.80467 0.75481 0.0
C52 C 0.21356 0.76882 0.68037 0.0
C53 C 0.22444 0.76654 0.65098 0.0
C54 C 0.23699 0.74163 0.64246 0.0
C55 C 0.23871 0.71857 0.66326 0.0
C56 C 0.2248 0.71958 0.69182 0.0
C57 C 0.21219 0.74453 0.70028 0.0
C58 C 0.16736 0.81123 0.68589 0.0
C59 C 0.1598 0.83811 0.69638 0.0
C60 C 0.13249 0.84743 0.68566 0.0
C61 C 0.11231 0.8301 0.66402 0.0
C62 C 0.11881 0.80206 0.6551 0.0
C63 C 0.14631 0.7928 0.66581 0.0
P64 P 0.66599 0.33545 0.82384 0.0
H65 H 0.72679 0.32298 0.84473 0.0
H66 H 0.76937 0.34934 0.87809 0.0
H67 H 0.71517 0.41895 0.89323 0.0
H68 H 0.67244 0.39227 0.85922 0.0
H69 H 0.65059 0.26951 0.81486 0.0
H70 H 0.62489 0.22704 0.84652 0.0
H71 H 0.60158 0.28974 0.91171 0.0
H72 H 0.62765 0.33254 0.87966 0.0
H73 H 0.68658 0.39623 0.79822 0.0
H74 H 0.59924 0.32602 0.80029 0.0
O75 O 0.6858 0.32015 0.79768 0.0
H76 H 0.66253 0.42382 0.76056 0.0
H77 H 0.57459 0.35373 0.76279 0.0
C78 C 0.6968 0.356 0.84889 0.0
C79 C 0.72407 0.34401 0.85506 0.0
C80 C 0.74833 0.35901 0.87444 0.0
C81 C 0.74581 0.38635 0.88843 0.0
C82 C 0.71812 0.39818 0.88254 0.0
C83 C 0.69366 0.38295 0.86314 0.0
C84 C 0.64119 0.30437 0.84483 0.0
C85 C 0.63964 0.27431 0.83574 0.0
C86 C 0.62512 0.2499 0.85406 0.0
C87 C 0.61154 0.25487 0.88193 0.0
C88 C 0.61172 0.28503 0.89038 0.0
C89 C 0.62656 0.30955 0.87205 0.0
C90 C 0.64444 0.35942 0.8029 0.0
C91 C 0.66169 0.38729 0.79145 0.0
C92 C 0.64787 0.40306 0.76966 0.0
C93 C 0.61653 0.39111 0.75833 0.0
C94 C 0.5989 0.36357 0.7706 0.0
C95 C 0.61279 0.34785 0.79247 0.0
P96 P 0.8394 0.68338 0.31767 0.0
H97 H 0.88812 0.73673 0.29868 0.0
H98 H 0.9164 0.78217 0.32516 0.0
H99 H 0.87468 0.74314 0.40873 0.0
H100 H 0.8488 0.69726 0.38242 0.0
H101 H 0.81364 0.6306 0.28057 0.0
H102 H 0.83794 0.60269 0.24334 0.0
H103 H 0.9329 0.6562 0.26561 0.0
H104 H 0.90828 0.68406 0.30294 0.0
H105 H 0.78786 0.70204 0.35036 0.0
H106 H 0.822 0.61934 0.33968 0.0
O107 O 0.82019 0.70112 0.29303 0.0
H108 H 0.74435 0.67592 0.38273 0.0
H109 H 0.77696 0.5922 0.37061 0.0
C110 C 0.86614 0.71347 0.33838 0.0
C111 C 0.88587 0.73767 0.32285 0.0
C112 C 0.90161 0.76398 0.33808 0.0
C113 C 0.89753 0.76704 0.36927 0.0
C114 C 0.87892 0.74198 0.38488 0.0
C115 C 0.86371 0.7155 0.36967 0.0
C116 C 0.85907 0.65915 0.29503 0.0
C117 C 0.83981 0.63581 0.27805 0.0
C118 C 0.85379 0.61984 0.25664 0.0
C119 C 0.88747 0.62714 0.25126 0.0
C120 C 0.90686 0.65012 0.26885 0.0
C121 C 0.8928 0.66596 0.29047 0.0
C122 C 0.80791 0.66263 0.34212 0.0
C123 C 0.7857 0.67805 0.35472 0.0
C124 C 0.76052 0.66289 0.37309 0.0
C125 C 0.75638 0.63158 0.37898 0.0
C126 C 0.77923 0.61626 0.36679 0.0
C127 C 0.8049 0.63171 0.34874 0.0
P128 P 0.70686 0.81374 0.86122 0.0
H129 H 0.68966 0.81953 0.92346 0.0
H130 H 0.64317 0.83423 0.94666 0.0
H131 H 0.59383 0.82539 0.86106 0.0
H132 H 0.64071 0.81091 0.83794 0.0
H133 H 0.76648 0.79835 0.84265 0.0
H134 H 0.79456 0.75893 0.85748 0.0
H135 H 0.71581 0.72129 0.91773 0.0
H136 H 0.6875 0.76108 0.90247 0.0
H137 H 0.70278 0.86409 0.82214 0.0
H138 H 0.7041 0.76929 0.81212 0.0
O139 O 0.73294 0.84502 0.87261 0.0
H140 H 0.70796 0.87096 0.76798 0.0
H141 H 0.70971 0.77608 0.75771 0.0
C142 C 0.66879 0.8144 0.879 0.0
C143 C 0.6684 0.81978 0.90989 0.0
C144 C 0.64169 0.82814 0.92313 0.0
C145 C 0.61488 0.83139 0.90562 0.0
C146 C 0.61432 0.8236 0.87505 0.0
C147 C 0.6411 0.81514 0.86184 0.0
C148 C 0.72487 0.78249 0.87127 0.0
C149 C 0.75499 0.78136 0.85873 0.0
C150 C 0.77095 0.75871 0.86713 0.0
C151 C 0.75728 0.73684 0.8886 0.0
C152 C 0.72692 0.73789 0.90115 0.0
C153 C 0.71071 0.76055 0.89242 0.0
C154 C 0.70413 0.81648 0.82112 0.0
C155 C 0.70366 0.84465 0.80818 0.0
C156 C 0.70632 0.84845 0.77718 0.0
C157 C 0.70957 0.82409 0.75863 0.0
C158 C 0.70765 0.79531 0.77154 0.0
C159 C 0.70459 0.79146 0.80261 0.0
P160 P 0.87237 0.30541 0.32011 0.0
H161 H 0.86523 0.35848 0.35552 0.0
H162 H 0.81797 0.37311 0.37797 0.0
H163 H 0.75715 0.28854 0.34762 0.0
H164 H 0.80395 0.27507 0.32399 0.0
H165 H 0.93751 0.3025 0.34159 0.0
H166 H 0.95754 0.26452 0.37093 0.0
H167 H 0.85947 0.21093 0.37785 0.0
H168 H 0.83978 0.24921 0.34956 0.0
H169 H 0.83891 0.32639 0.27004 0.0
H170 H 0.87558 0.24687 0.29183 0.0
O171 O 0.90155 0.33632 0.31414 0.0
H172 H 0.81172 0.30052 0.22584 0.0
H173 H 0.84765 0.22061 0.24861 0.0
C174 C 0.83805 0.31585 0.33787 0.0
C175 C 0.84166 0.34321 0.35365 0.0
C176 C 0.81462 0.35141 0.3667 0.0
C177 C 0.78358 0.33212 0.36447 0.0
C178 C 0.78043 0.30433 0.34925 0.0
C179 C 0.80733 0.29639 0.33597 0.0
C180 C 0.88708 0.27894 0.34377 0.0
C181 C 0.92032 0.28279 0.34986 0.0
C182 C 0.93177 0.26089 0.36641 0.0
C183 C 0.91013 0.23464 0.37688 0.0
C184 C 0.8768 0.23111 0.3708 0.0
C185 C 0.86543 0.25306 0.3545 0.0
C186 C 0.85869 0.28839 0.28457 0.0
C187 C 0.8415 0.30353 0.26507 0.0
C188 C 0.82577 0.28863 0.23996 0.0
C189 C 0.82704 0.2583 0.23394 0.0
C190 C 0.84624 0.24399 0.25244 0.0
C191 C 0.86202 0.25895 0.27747 0.0
P192 P 0.37319 0.66424 0.20522 0.0
H193 H 0.33864 0.68967 0.15811 0.0
H194 H 0.28648 0.67156 0.13359 0.0
H195 H 0.26529 0.59582 0.19526 0.0
H196 H 0.31664 0.61505 0.22062 0.0
H197 H 0.42745 0.69702 0.1689 0.0
H198 H 0.44389 0.74968 0.15285 0.0
H199 H 0.37154 0.77373 0.21079 0.0
H200 H 0.35447 0.72023 0.22658 0.0
H201 H 0.37013 0.60351 0.22807 0.0
H202 H 0.39105 0.69404 0.26469 0.0
O203 O 0.39356 0.64556 0.18256 0.0
H204 H 0.38314 0.58327 0.27593 0.0
H205 H 0.40544 0.67394 0.31289 0.0
C206 C 0.33162 0.65419 0.19176 0.0
C207 C 0.32239 0.66968 0.16702 0.0
C208 C 0.29261 0.65892 0.15257 0.0
C209 C 0.27146 0.63193 0.16207 0.0
C210 C 0.28049 0.61688 0.18738 0.0
C211 C 0.31017 0.62787 0.20199 0.0
C212 C 0.38963 0.70447 0.19904 0.0
C213 C 0.41529 0.71348 0.17866 0.0
C214 C 0.42465 0.74371 0.16929 0.0
C215 C 0.40882 0.76583 0.18029 0.0
C216 C 0.38427 0.75719 0.20198 0.0
C217 C 0.37456 0.72667 0.21109 0.0
C218 C 0.37929 0.65031 0.24263 0.0
C219 C 0.37718 0.61909 0.24658 0.0
C220 C 0.38513 0.60754 0.27401 0.0
C221 C 0.39595 0.62691 0.2984 0.0
C222 C 0.39709 0.65823 0.29476 0.0
C223 C 0.38889 0.66982 0.2671 0.0
P224 P 0.16911 0.33044 0.7353 0.0
H225 H 0.1859 0.27323 0.72006 0.0
H226 H 0.16023 0.23002 0.68959 0.0
H227 H 0.07921 0.27219 0.67296 0.0
H228 H 0.10504 0.31543 0.70458 0.0
H229 H 0.22824 0.37684 0.7446 0.0
H230 H 0.26932 0.40478 0.7104 0.0
H231 H 0.21079 0.36588 0.63477 0.0
H232 H 0.16989 0.33783 0.66916 0.0
H233 H 0.11841 0.30837 0.77947 0.0
H234 H 0.16745 0.39516 0.74417 0.0
O235 O 0.19325 0.31772 0.75953 0.0
H236 H 0.09378 0.33392 0.8187 0.0
H237 H 0.14332 0.42088 0.78346 0.0
C238 C 0.14712 0.29735 0.71519 0.0
C239 C 0.16232 0.27304 0.71036 0.0
C240 C 0.14774 0.2484 0.69247 0.0
C241 C 0.11766 0.24752 0.67845 0.0
C242 C 0.1022 0.27185 0.6836 0.0
C243 C 0.11691 0.29662 0.70168 0.0
C244 C 0.19605 0.35503 0.70958 0.0
C245 C 0.22399 0.37468 0.72066 0.0
C246 C 0.24748 0.39072 0.70101 0.0
C247 C 0.2436 0.38743 0.66972 0.0
C248 C 0.21489 0.36858 0.65868 0.0
C249 C 0.1913 0.35266 0.67842 0.0
C250 C 0.14446 0.34971 0.75847 0.0
C251 C 0.12325 0.33295 0.77967 0.0
C252 C 0.10954 0.34765 0.80242 0.0
C253 C 0.11675 0.37958 0.80462 0.0
C254 C 0.13692 0.39632 0.78247 0.0
C255 C 0.15076 0.38156 0.75982 0.0
Dy256 Dy 0.03163 0.02129 0.49488 0.0
Dy257 Dy 0.96164 1.01233 0.53001 0.0
C258 C 0.02177 0.06576 0.54906 0.0
O259 O 0.0266 0.97896 0.52178 0.0
O260 O 0.99174 0.98813 0.55839 0.0
O261 O 0.08286 0.02171 0.4957 0.0
O262 O 0.05925 0.02844 0.45378 0.0
O263 O 0.95973 0.96893 0.50509 0.0
O264 O 0.9952 0.98829 0.46751 0.0
O265 O 0.95837 0.03907 0.48841 0.0
O266 O 0.01195 0.06141 0.48194 0.0
O267 O 0.90953 1.00345 0.52642 0.0
O268 O 0.93265 0.01307 0.56985 0.0
C269 C 0.01299 0.97321 0.54822 0.0
O270 O 0.04166 0.05117 0.53566 0.0
O271 O 0.99013 0.0575 0.54554 0.0
C272 C 0.11342 0.05437 0.4601 0.0
C273 C 0.16361 0.10375 0.44367 0.0
C274 C 0.13853 0.10807 0.4629 0.0
C275 C 0.1136 0.08355 0.47104 0.0
C276 C 0.13855 0.04982 0.4414 0.0
C277 C 0.16345 0.07428 0.43323 0.0
C278 C 0.08673 0.0287 0.46734 0.0
C279 C 0.97216 0.96648 0.47844 0.0
C280 C 0.98116 0.06095 0.47756 0.0
C281 C 0.88119 0.97999 0.56846 0.0
C282 C 0.83458 0.93295 0.59472 0.0
C283 C 0.85981 0.92623 0.57712 0.0
C284 C 0.88299 0.94961 0.5641 0.0
C285 C 0.85599 0.9868 0.58566 0.0
C286 C 0.83291 0.96353 0.59872 0.0
C287 C 0.90531 1.00488 0.55531 0.0
H288 H 0.13811 0.1304 0.47156 0.0
H289 H 0.0943 0.08737 0.48558 0.0
H290 H 0.13863 0.02741 0.43271 0.0
H291 H 0.18205 0.07022 0.418 0.0
H292 H 0.86167 0.90294 0.57346 0.0
H293 H 0.90236 0.94403 0.55077 0.0
H294 H 0.85437 1.01018 0.58926 0.0
H295 H 0.81428 0.96959 0.61266 0.0
Dy296 Dy 0.46386 0.01879 0.0303 0.0
Dy297 Dy 0.53301 0.02657 0.06624 0.0
C298 C 0.47279 0.97135 0.08129 0.0
O299 O 0.45903 0.04295 0.07318 0.0
O300 O 0.51232 0.06571 0.08052 0.0
O301 O 0.41162 1.01009 0.03205 0.0
O302 O 0.43659 0.02079 0.98961 0.0
O303 O 0.54332 0.0562 0.02511 0.0
O304 O 0.49245 0.0649 1.01769 0.0
O305 O 0.52763 0.98397 0.03998 0.0
O306 O 0.4944 0.9943 1.00252 0.0
O307 O 0.58433 0.02739 0.06542 0.0
O308 O 0.56048 0.03332 0.10741 0.0
C309 C 0.48141 0.06439 0.08525 0.0
O310 O 0.46029 0.97506 0.05492 0.0
O311 O 0.49677 0.99207 0.09254 0.0
C312 C 0.38614 0.98629 0.98901 0.0
C313 C 0.34367 0.93783 0.9604 0.0
C314 C 0.36892 0.93236 0.97878 0.0
C315 C 0.39004 0.95644 0.99293 0.0
C316 C 0.36077 0.99185 0.9712 0.0
C317 C 0.3397 0.96784 0.95697 0.0
C318 C 0.40866 1.01179 1.00303 0.0
C319 C 0.52394 0.07229 1.0132 0.0
C320 C 0.51456 0.9785 1.01334 0.0
C321 C 0.61464 0.05949 0.10151 0.0
C322 C 0.66488 0.1085 0.11861 0.0
C323 C 0.63836 0.11356 0.10171 0.0
C324 C 0.61341 0.08921 0.09321 0.0
C325 C 0.64121 0.05424 0.11783 0.0
C326 C 0.66615 0.07853 0.12632 0.0
C327 C 0.58804 0.03389 0.09389 0.0
H328 H 0.37247 0.90952 0.98208 0.0
H329 H 0.40958 0.95182 1.00672 0.0
H330 H 0.35755 0.01482 0.96792 0.0
H331 H 0.32093 0.97293 0.94254 0.0
H332 H 0.63682 0.13633 0.09516 0.0
H333 H 0.59301 0.09357 0.08048 0.0
H334 H 0.64241 0.03139 0.12444 0.0
H335 H 0.68594 0.07387 0.13971 0.0
Dy336 Dy 0.50256 0.47671 0.51019 0.0
Dy337 Dy 0.5049 0.53937 0.54793 0.0
C338 C 0.53311 0.48566 0.57638 0.0
O339 O 0.45106 0.47205 0.52587 0.0
O340 O 0.46149 0.50618 0.56471 0.0
O341 O 0.49871 0.42817 0.50834 0.0
O342 O 0.50516 0.45462 0.46753 0.0
O343 O 0.47027 0.54114 0.50992 0.0
O344 O 0.49007 0.51024 0.47767 0.0
O345 O 0.54569 0.55034 0.5151 0.0
O346 O 0.55448 0.5025 0.50803 0.0
O347 O 0.50736 0.58769 0.54963 0.0
O348 O 0.50477 0.56177 0.59069 0.0
C349 C 0.44212 0.48375 0.55071 0.0
O350 O 0.5148 0.46715 0.55751 0.0
O351 O 0.53858 0.51526 0.5725 0.0
C352 C 0.53241 0.41465 0.47056 0.0
C353 C 0.5868 0.39326 0.45035 0.0
C354 C 0.58489 0.40258 0.4803 0.0
C355 C 0.55807 0.41336 0.49025 0.0
C356 C 0.53383 0.40475 0.44091 0.0
C357 C 0.56077 0.39425 0.43085 0.0
C358 C 0.50541 0.4285 0.4798 0.0
C359 C 0.47372 0.53141 0.48257 0.0
C360 C 0.56372 0.53214 0.5051 0.0
C361 C 0.47366 0.59856 0.58793 0.0
C362 C 0.41808 0.61821 0.6071 0.0
C363 C 0.41517 0.59331 0.58759 0.0
C364 C 0.44271 0.58356 0.57813 0.0
C365 C 0.47682 0.62337 0.60737 0.0
C366 C 0.4492 0.63315 0.61692 0.0
C367 C 0.50219 0.58736 0.57846 0.0
H368 H 0.60418 0.40172 0.49607 0.0
H369 H 0.55771 0.42116 0.5132 0.0
H370 H 0.51446 0.40592 0.42529 0.0
H371 H 0.56157 0.38779 0.40753 0.0
H372 H 0.39156 0.58107 0.57997 0.0
H373 H 0.43986 0.56414 0.5633 0.0
H374 H 0.50056 0.63508 0.6152 0.0
H375 H 0.45223 0.65261 0.63169 0.0
Dy376 Dy 0.00766 0.53787 1.00861 0.0
Dy377 Dy 0.00532 0.47594 0.04765 0.0
C378 C 0.97536 0.52911 0.07453 0.0
O379 O 0.05883 0.54244 0.0252 0.0
O380 O 0.04625 0.51117 0.06593 0.0
O381 O 0.01382 0.58665 1.00599 0.0
O382 O 0.00327 0.55936 0.96597 0.0
O383 O 0.04035 0.47451 1.00995 0.0
O384 O 0.02036 0.50411 0.97649 0.0
O385 O 0.96262 0.46454 1.01689 0.0
O386 O 0.95567 0.51259 1.00669 0.0
O387 O 0.00325 0.42769 0.04954 0.0
O388 O 0.0071 0.45389 0.09045 0.0
C389 C 0.06631 0.53292 0.05165 0.0
O390 O 0.99338 0.54764 0.05539 0.0
O391 O 0.97083 0.49948 0.07149 0.0
C392 C 0.97845 0.60064 0.97049 0.0
C393 C 0.92529 0.62529 0.95338 0.0
C394 C 0.92247 0.60478 0.97749 0.0
C395 C 0.94881 0.59246 0.9859 0.0
C396 C 0.98155 0.62136 0.94673 0.0
C397 C 0.95519 0.63362 0.93822 0.0
C398 C 0.00533 0.58604 0.97786 0.0
C399 C 0.03686 0.48325 0.98224 0.0
C400 C 0.94512 0.48293 1.00617 0.0
C401 C 0.03805 0.41694 0.08706 0.0
C402 C 0.09443 0.39855 0.1063 0.0
C403 C 0.09637 0.42142 0.08451 0.0
C404 C 0.06847 0.43058 0.07506 0.0
C405 C 0.03577 0.39381 0.10842 0.0
C406 C 0.06377 0.38461 0.11796 0.0
C407 C 0.0093 0.4282 0.07823 0.0
H408 H 0.89969 0.59768 0.98938 0.0
H409 H 0.9459 0.57616 1.00411 0.0
H410 H 0.00422 0.62775 0.93451 0.0
H411 H 0.95822 0.64966 0.9198 0.0
H412 H 0.11948 0.4323 0.07473 0.0
H413 H 0.07068 0.44862 0.05862 0.0
H414 H 0.01247 0.38324 0.11806 0.0
H415 H 0.06149 0.36717 0.13501 0.0
H416 H 0.25878 0.26887 0.35504 0.0
H417 H 0.22883 0.10688 0.43577 0.0
H418 H 0.32773 0.21085 0.35408 0.0
H419 H 0.15595 0.16034 0.42724 0.0
H420 H 0.26855 0.14834 0.413 0.0
H421 H 0.22427 0.23315 0.38886 0.0
C422 C 0.2668 0.24874 0.36217 0.0
C423 C 0.296 0.24266 0.35141 0.0
C424 C 0.24394 0.15111 0.41638 0.0
C425 C 0.25663 0.20166 0.39015 0.0
C426 C 0.2212 0.12739 0.42925 0.0
C427 C 0.18887 0.12996 0.43311 0.0
C428 C 0.23431 0.17761 0.40723 0.0
C429 C 0.18059 0.15736 0.42486 0.0
C430 C 0.24712 0.22839 0.38153 0.0
C431 C 0.30549 0.21653 0.36187 0.0
N432 N 0.20307 0.17998 0.41206 0.0
N433 N 0.28568 0.19682 0.38039 0.0
H434 H 0.28453 0.80223 0.82562 0.0
H435 H 0.27817 0.92832 0.94933 0.0
H436 H 0.20794 0.85164 0.83206 0.0
H437 H 0.36192 0.89042 0.93188 0.0
H438 H 0.24658 0.89155 0.91455 0.0
H439 H 0.30704 0.82511 0.87281 0.0
C440 C 0.2722 0.81757 0.83719 0.0
C441 C 0.2447 0.82553 0.8246 0.0
C442 C 0.27175 0.89103 0.91868 0.0
C443 C 0.27031 0.85178 0.87853 0.0
C444 C 0.28985 0.9121 0.9384 0.0
C445 C 0.32292 0.91283 0.94313 0.0
C446 C 0.28684 0.87056 0.90354 0.0
C447 C 0.33653 0.89074 0.92897 0.0
C448 C 0.28502 0.83058 0.86414 0.0
C449 C 0.22923 0.84493 0.8409 0.0
N450 N 0.31854 0.87077 0.90953 0.0
N451 N 0.24255 0.85778 0.8668 0.0
H452 H 0.62309 0.4525 0.74669 0.0
H453 H 0.52811 0.42552 0.58949 0.0
H454 H 0.58034 0.36426 0.71026 0.0
H455 H 0.56849 0.51497 0.62439 0.0
H456 H 0.54772 0.40331 0.63366 0.0
H457 H 0.60385 0.47612 0.70268 0.0
C458 C 0.60968 0.43802 0.72953 0.0
C459 C 0.60337 0.40618 0.73248 0.0
C460 C 0.55239 0.42781 0.63177 0.0
C461 C 0.5811 0.4333 0.6818 0.0
C462 C 0.54119 0.44062 0.60639 0.0
C463 C 0.54654 0.47232 0.603 0.0
C464 C 0.56922 0.44666 0.65429 0.0
C465 C 0.56378 0.49046 0.62589 0.0
C466 C 0.59859 0.45159 0.7044 0.0
C467 C 0.58545 0.38881 0.70947 0.0
N468 N 0.57444 0.4774 0.65052 0.0
N469 N 0.57512 0.40254 0.68525 0.0
H470 H 0.93501 0.65302 0.21114 0.0
H471 H 0.93428 0.49979 0.1189 0.0
H472 H 0.87243 0.5669 0.23378 0.0
H473 H 0.98476 0.58907 0.09045 0.0
H474 H 0.91341 0.52287 0.16249 0.0
H475 H 0.95619 0.62885 0.16888 0.0
C476 C 0.92593 0.62894 0.20749 0.0
C477 C 0.90183 0.61207 0.22627 0.0
C478 C 0.92902 0.53737 0.14664 0.0
C479 C 0.92587 0.58411 0.17726 0.0
C480 C 0.94094 0.5242 0.1217 0.0
C481 C 0.96134 0.54242 0.10078 0.0
C482 C 0.93771 0.56902 0.15091 0.0
C483 C 0.9691 0.57397 0.10579 0.0
C484 C 0.93787 0.61516 0.1831 0.0
C485 C 0.89072 0.58097 0.21983 0.0
N486 N 0.95742 0.58615 0.13025 0.0
N487 N 0.90281 0.56804 0.19598 0.0
H488 H 0.37027 0.18169 0.16828 0.0
H489 H 0.52024 0.11328 0.11325 0.0
H490 H 0.47019 0.22323 0.18825 0.0
H491 H 0.41964 0.07013 0.09822 0.0
H492 H 0.50276 0.15372 0.14089 0.0
H493 H 0.38828 0.1407 0.14246 0.0
C494 C 0.39602 0.18211 0.16741 0.0
C495 C 0.41874 0.20591 0.18062 0.0
C496 C 0.48454 0.13534 0.13162 0.0
C497 C 0.43962 0.15908 0.15068 0.0
C498 C 0.49449 0.1122 0.11586 0.0
C499 C 0.47137 0.08826 0.10334 0.0
C500 C 0.45124 0.13457 0.13481 0.0
C501 C 0.43835 0.08811 0.10744 0.0
C502 C 0.40631 0.15873 0.15252 0.0
C503 C 0.45184 0.20551 0.17817 0.0
N504 N 0.42931 0.11094 0.12274 0.0
N505 N 0.46129 0.18245 0.16353 0.0
H506 H 0.09858 0.82688 0.60403 0.0
H507 H 0.00144 0.96034 0.60816 0.0
H508 H 0.07152 0.86494 0.68657 0.0
H509 H 0.04234 0.92874 0.52868 0.0
H510 H 0.01799 0.91986 0.63707 0.0
H511 H 0.06748 0.85706 0.57616 0.0
C512 C 0.08545 0.841 0.61644 0.0
C513 C 0.08808 0.84358 0.64776 0.0
C514 C 0.02307 0.92173 0.61325 0.0
C515 C 0.05315 0.87918 0.61567 0.0
C516 C 0.01367 0.94481 0.59677 0.0
C517 C 0.02099 0.94822 0.56608 0.0
C518 C 0.03957 0.90187 0.59879 0.0
C519 C 0.03669 0.92735 0.5524 0.0
C520 C 0.06797 0.85859 0.6004 0.0
C521 C 0.07078 0.86272 0.66239 0.0
N522 N 0.04554 0.90522 0.56886 0.0
N523 N 0.05441 0.88013 0.64619 0.0
H524 H 0.7724 0.44774 0.89328 0.0
H525 H 0.91261 0.42337 1.00607 0.0
H526 H 0.77972 0.36107 0.93025 0.0
H527 H 0.90474 0.51178 0.97392 0.0
H528 H 0.86232 0.40095 0.98011 0.0
H529 H 0.81869 0.47234 0.92437 0.0
C530 C 0.78346 0.4339 0.90814 0.0
C531 C 0.77225 0.40218 0.90884 0.0
C532 C 0.87141 0.42529 0.9788 0.0
C533 C 0.82553 0.4302 0.94431 0.0
C534 C 0.90025 0.43817 0.99368 0.0
C535 C 0.91317 0.46957 0.99215 0.0
C536 C 0.85521 0.44379 0.96197 0.0
C537 C 0.89578 0.48747 0.97576 0.0
C538 C 0.81003 0.44795 0.92577 0.0
C539 C 0.78783 0.38546 0.92841 0.0
N540 N 0.86784 0.47431 0.96116 0.0
N541 N 0.81364 0.39961 0.94516 0.0
H542 H 0.6948 0.64262 0.38148 0.0
H543 H 0.61428 0.50548 0.48831 0.0
H544 H 0.7523 0.58277 0.41805 0.0
H545 H 0.58163 0.58961 0.48267 0.0
H546 H 0.662 0.52854 0.45776 0.0
H547 H 0.64969 0.61825 0.41304 0.0
C548 C 0.69824 0.62457 0.3963 0.0
C549 C 0.728 0.61533 0.3973 0.0
C550 C 0.6444 0.54188 0.46345 0.0
C551 C 0.67536 0.58641 0.43312 0.0
C552 C 0.61717 0.52877 0.48083 0.0
C553 C 0.59387 0.54563 0.48821 0.0
C554 C 0.64791 0.57178 0.45286 0.0
C555 C 0.59891 0.5757 0.47779 0.0
C556 C 0.67221 0.61048 0.41423 0.0
C557 C 0.72998 0.59075 0.41626 0.0
N558 N 0.6251 0.58763 0.46051 0.0
N559 N 0.70404 0.57714 0.43339 0.0
H560 H 0.23564 0.30192 0.17464 0.0
H561 H 0.15338 0.43597 0.11856 0.0
H562 H 0.28633 0.39586 0.16975 0.0
H563 H 0.10395 0.34153 0.1192 0.0
H564 H 0.20253 0.42155 0.13645 0.0
H565 H 0.18765 0.31576 0.1532 0.0
C566 C 0.23685 0.32542 0.16872 0.0
C567 C 0.26515 0.34776 0.17399 0.0
C568 C 0.18098 0.40395 0.13262 0.0
C569 C 0.20994 0.36386 0.1499 0.0
C570 C 0.15291 0.41215 0.12224 0.0
C571 C 0.12445 0.38992 0.11727 0.0
C572 C 0.18069 0.37326 0.13819 0.0
C573 C 0.12518 0.35947 0.12303 0.0
C574 C 0.20931 0.33334 0.15668 0.0
C575 C 0.26497 0.37794 0.16642 0.0
N576 N 0.15284 0.35205 0.13319 0.0
N577 N 0.23778 0.3851 0.15483 0.0
H578 H 0.55537 0.24402 0.91574 0.0
H579 H 0.58598 0.09062 0.99068 0.0
H580 H 0.63805 0.2059 0.89492 0.0
H581 H 0.49337 0.11648 0.99316 0.0
H582 H 0.60751 0.13532 0.95958 0.0
H583 H 0.5344 0.20022 0.94831 0.0
C584 C 0.5692 0.22655 0.9181 0.0
C585 C 0.59845 0.22866 0.90233 0.0
C586 C 0.58247 0.13119 0.96693 0.0
C587 C 0.5746 0.17837 0.93974 0.0
C588 C 0.57016 0.10567 0.98477 0.0
C589 C 0.53771 0.09956 0.99454 0.0
C590 C 0.56238 0.15109 0.95899 0.0
C591 C 0.51846 0.12005 0.98608 0.0
C592 C 0.55712 0.20144 0.93658 0.0
C593 C 0.61517 0.20511 0.90621 0.0
N594 N 0.53107 0.14484 0.96894 0.0
N595 N 0.6031 0.18111 0.92451 0.0
H596 H 0.91822 0.77649 0.42828 0.0
H597 H 0.97747 0.9566 0.41786 0.0
H598 H 0.90778 0.82576 0.34697 0.0
H599 H 0.943 0.91043 0.50024 0.0
H600 H 0.96062 0.90824 0.39083 0.0
H601 H 0.93599 0.82481 0.45435 0.0
C602 C 0.91948 0.79727 0.41576 0.0
C603 C 0.91103 0.79655 0.38515 0.0
C604 C 0.95672 0.90879 0.41481 0.0
C605 C 0.93251 0.85237 0.4151 0.0
C606 C 0.96637 0.93635 0.43026 0.0
C607 C 0.96148 0.93768 0.46136 0.0
C608 C 0.94277 0.88219 0.43064 0.0
C609 C 0.947 0.91061 0.47624 0.0
C610 C 0.92986 0.82494 0.43076 0.0
C611 C 0.91437 0.82471 0.37033 0.0
N612 N 0.93841 0.88402 0.46083 0.0
N613 N 0.92487 0.85134 0.38537 0.0
H614 H 0.24303 0.68793 0.61057 0.0
H615 H 0.40377 0.63604 0.66331 0.0
H616 H 0.2817 0.69951 0.70049 0.0
H617 H 0.36551 0.62397 0.57328 0.0
H618 H 0.35615 0.6549 0.67854 0.0
H619 H 0.28405 0.65913 0.59783 0.0
C620 C 0.25985 0.68407 0.62773 0.0
C621 C 0.25906 0.69637 0.65657 0.0
C622 C 0.35804 0.64795 0.65548 0.0
C623 C 0.30618 0.66366 0.64213 0.0
C624 C 0.38535 0.6374 0.64674 0.0
C625 C 0.38875 0.62866 0.61693 0.0
C626 C 0.33399 0.64997 0.63423 0.0
C627 C 0.36381 0.63031 0.59654 0.0
C628 C 0.28326 0.66763 0.62047 0.0
C629 C 0.28118 0.6903 0.67805 0.0
N630 N 0.33761 0.64098 0.60551 0.0
N631 N 0.30405 0.6747 0.67029 0.0
H632 H 0.68503 0.85795 0.71702 0.0
H633 H 0.84684 0.88238 0.62259 0.0
H634 H 0.75757 0.80466 0.7286 0.0
H635 H 0.76917 0.92802 0.60332 0.0
H636 H 0.81031 0.84731 0.65525 0.0
H637 H 0.71063 0.87727 0.66965 0.0
C638 C 0.70596 0.84985 0.70925 0.0
C639 C 0.71951 0.83007 0.72696 0.0
C640 C 0.80106 0.86468 0.64352 0.0
C641 C 0.74921 0.85235 0.67309 0.0
C642 C 0.82191 0.88467 0.6247 0.0
C643 C 0.81127 0.9086 0.61062 0.0
C644 C 0.76944 0.86884 0.64859 0.0
C645 C 0.77871 0.91047 0.61442 0.0
C646 C 0.72057 0.86086 0.68221 0.0
C647 C 0.74634 0.81993 0.71568 0.0
N648 N 0.75911 0.89118 0.63342 0.0
N649 N 0.76071 0.83165 0.68975 0.0
H650 H 0.84104 0.21539 0.19518 0.0
H651 H 0.65668 0.16279 0.14113 0.0
H652 H 0.76441 0.26037 0.2199 0.0
H653 H 0.73081 0.11304 0.12158 0.0
H654 H 0.69788 0.20298 0.16363 0.0
H655 H 0.803 0.18178 0.16217 0.0
C656 C 0.81633 0.21839 0.19348 0.0
C657 C 0.80589 0.24062 0.21057 0.0
C658 C 0.70522 0.18341 0.1542 0.0
C659 C 0.76226 0.2023 0.17277 0.0
C660 C 0.68171 0.16051 0.14114 0.0
C661 C 0.69024 0.13435 0.12965 0.0
C662 C 0.73754 0.18015 0.1559 0.0
C663 C 0.72305 0.13254 0.13067 0.0
C664 C 0.79465 0.19926 0.17457 0.0
C665 C 0.77371 0.2438 0.20702 0.0
N666 N 0.74546 0.15501 0.14378 0.0
N667 N 0.75301 0.22468 0.18876 0.0
H668 H 0.388 0.64297 0.3577 0.0
H669 H 0.47616 0.51579 0.42351 0.0
H670 H 0.43026 0.58201 0.30398 0.0
H671 H 0.44144 0.57894 0.48087 0.0
H672 H 0.45733 0.53946 0.38 0.0
H673 H 0.40596 0.62032 0.40316 0.0
C674 C 0.4011 0.62496 0.35536 0.0
C675 C 0.4072 0.61426 0.32672 0.0
C676 C 0.4537 0.54824 0.40203 0.0
C677 C 0.42764 0.58803 0.37884 0.0
C678 C 0.46445 0.53461 0.42708 0.0
C679 C 0.46049 0.54527 0.45616 0.0
C680 C 0.43871 0.57294 0.40568 0.0
C681 C 0.44503 0.56984 0.45898 0.0
C682 C 0.4112 0.61192 0.38138 0.0
C683 C 0.42418 0.59068 0.32535 0.0
N684 N 0.43476 0.58286 0.4341 0.0
N685 N 0.43364 0.57846 0.35085 0.0
H686 H 0.09459 0.43289 0.80485 0.0
H687 H 0.06619 0.43418 0.98333 0.0
H688 H 0.1117 0.36234 0.86409 0.0
H689 H 0.03846 0.49852 0.92246 0.0
H690 H 0.0857 0.40913 0.94045 0.0
H691 H 0.07653 0.45857 0.84793 0.0
C692 C 0.09464 0.42277 0.82688 0.0
C693 C 0.10466 0.39522 0.83061 0.0
C694 C 0.07541 0.42877 0.93648 0.0
C695 C 0.08387 0.42472 0.88038 0.0
C696 C 0.06435 0.4432 0.96102 0.0
C697 C 0.05057 0.46859 0.95667 0.0
C698 C 0.07288 0.43981 0.90723 0.0
C699 C 0.04881 0.47904 0.92708 0.0
C700 C 0.08417 0.43743 0.85152 0.0
C701 C 0.10378 0.38322 0.85986 0.0
N702 N 0.05977 0.46467 0.90363 0.0
N703 N 0.09371 0.39801 0.8835 0.0
H704 H 0.58698 0.8744 0.87925 0.0
H705 H 0.5329 0.92893 0.03582 0.0
H706 H 0.58693 0.8239 0.96156 0.0
H707 H 0.51224 0.96918 0.95223 0.0
H708 H 0.54895 0.88817 1.00811 0.0
H709 H 0.55496 0.9063 0.90396 0.0
C710 C 0.57956 0.86947 0.9023 0.0
C711 C 0.5901 0.84664 0.91848 0.0
C712 C 0.54066 0.9057 0.99571 0.0
C713 C 0.55411 0.88367 0.94707 0.0
C714 C 0.5317 0.92914 1.01154 0.0
C715 C 0.52177 0.95275 0.99624 0.0
C716 C 0.54025 0.90601 0.96424 0.0
C717 C 0.52001 0.95151 0.96484 0.0
C718 C 0.56146 0.88791 0.91646 0.0
C719 C 0.58001 0.84166 0.9484 0.0
N720 N 0.52969 0.92874 0.94979 0.0
N721 N 0.56301 0.8603 0.96183 0.0
H722 H 0.88146 0.2 0.42421 0.0
H723 H 0.01962 0.10565 0.44375 0.0
H724 H 0.96603 0.21396 0.36698 0.0
H725 H 0.92128 0.07467 0.47554 0.0
H726 H 0.0035 0.14906 0.41981 0.0
H727 H 0.89914 0.15779 0.44821 0.0
C728 C 0.90371 0.19419 0.41659 0.0
C729 C 0.92207 0.21045 0.39325 0.0
C730 C 0.9855 0.13264 0.43194 0.0
C731 C 0.94272 0.16232 0.42109 0.0
C732 C 0.99464 0.10789 0.4456 0.0
C733 C 0.97172 0.08644 0.46159 0.0
C734 C 0.95336 0.13616 0.4347 0.0
C735 C 0.93973 0.09051 0.4633 0.0
C736 C 0.91383 0.17012 0.4304 0.0
C737 C 0.9512 0.2023 0.38501 0.0
N738 N 0.93156 0.11497 0.45019 0.0
N739 N 0.96061 0.17876 0.39889 0.0
H740 H 0.26035 0.63343 0.10096 0.0
H741 H 0.08449 0.52351 0.10906 0.0
H742 H 0.21248 0.60016 0.18384 0.0
H743 H 0.11839 0.57611 0.0299 0.0
H744 H 0.13364 0.54829 0.13529 0.0
H745 H 0.21086 0.61053 0.07359 0.0
C746 C 0.23946 0.62164 0.11356 0.0
C747 C 0.24094 0.61887 0.145 0.0
C748 C 0.13041 0.55451 0.1122 0.0
C749 C 0.18418 0.59182 0.11335 0.0
C750 C 0.10229 0.54023 0.09705 0.0
C751 C 0.09707 0.54768 0.06707 0.0
C752 C 0.15397 0.57635 0.0974 0.0
C753 C 0.12126 0.56963 0.05296 0.0
C754 C 0.21121 0.60837 0.09777 0.0
C755 C 0.21301 0.60259 0.15969 0.0
N756 N 0.1487 0.58312 0.0682 0.0
N757 N 0.186 0.58964 0.14378 0.0
H758 H 0.26576 0.36454 0.61838 0.0
H759 H 0.41192 0.50922 0.59476 0.0
H760 H 0.28212 0.44493 0.67363 0.0
H761 H 0.39898 0.42928 0.53904 0.0
H762 H 0.36196 0.48701 0.62113 0.0
H763 H 0.31153 0.38874 0.58663 0.0
C764 C 0.27868 0.38741 0.62368 0.0
C765 C 0.27003 0.40261 0.64892 0.0
C766 C 0.36985 0.47427 0.60307 0.0
C767 C 0.32285 0.43035 0.6127 0.0
C768 C 0.39851 0.48697 0.58792 0.0
C769 C 0.40999 0.47101 0.56471 0.0
C770 C 0.35226 0.44519 0.59524 0.0
C771 C 0.39115 0.44241 0.55678 0.0
C772 C 0.30498 0.40113 0.6056 0.0
C773 C 0.28809 0.43207 0.65477 0.0
N774 N 0.36336 0.43031 0.57217 0.0
N775 N 0.31358 0.44485 0.63692 0.0
H776 H 0.76698 0.71907 0.94613 0.0
H777 H 0.90474 0.6324 0.89616 0.0
H778 H 0.79047 0.70377 0.85405 0.0
H779 H 0.88138 0.64608 0.98864 0.0
H780 H 0.85964 0.65472 0.88052 0.0
H781 H 0.80447 0.68772 0.96239 0.0
C782 C 0.77957 0.70866 0.92933 0.0
C783 C 0.77591 0.71432 0.89871 0.0
C784 C 0.86423 0.65273 0.90426 0.0
C785 C 0.81919 0.6789 0.91711 0.0
C786 C 0.89014 0.64019 0.91318 0.0
C787 C 0.89707 0.63769 0.94374 0.0
C788 C 0.8451 0.66307 0.92601 0.0
C789 C 0.87686 0.6475 0.96484 0.0
C790 C 0.80116 0.69097 0.93862 0.0
C791 C 0.79304 0.70046 0.87791 0.0
N792 N 0.85194 0.65999 0.95558 0.0
N793 N 0.81412 0.68364 0.88749 0.0
H794 H 0.4229 0.82099 0.20981 0.0
H795 H 0.43572 0.91882 0.0587 0.0
H796 H 0.4125 0.78183 0.12123 0.0
H797 H 0.48357 0.95637 0.1401 0.0
H798 H 0.41898 0.86981 0.08366 0.0
H799 H 0.4375 0.87199 0.18695 0.0
C800 C 0.42352 0.82314 0.18561 0.0
C801 C 0.41669 0.79712 0.16739 0.0
C802 C 0.43306 0.88876 0.09614 0.0
C803 C 0.43294 0.85518 0.14119 0.0
C804 C 0.44254 0.9169 0.08194 0.0
C805 C 0.4612 0.94192 0.09725 0.0
C806 C 0.44184 0.88542 0.12613 0.0
C807 C 0.46932 0.93774 0.12735 0.0
C808 C 0.432 0.85218 0.17261 0.0
C809 C 0.41794 0.80121 0.13614 0.0
N810 N 0.45952 0.91006 0.14085 0.0
N811 N 0.42572 0.82957 0.12409 0.0
H812 H 0.14911 0.21724 0.63863 0.0
H813 H 0.98867 0.0995 0.58365 0.0
H814 H 0.05318 0.21836 0.67157 0.0
H815 H 0.08586 0.09398 0.55795 0.0
H816 H 0.01133 0.14403 0.61432 0.0
H817 H 0.12592 0.17347 0.60751 0.0
C818 C 0.12315 0.20823 0.63953 0.0
C819 C 0.10321 0.22154 0.65819 0.0
C820 C 0.02771 0.13307 0.602 0.0
C821 C 0.07625 0.17121 0.62189 0.0
C822 C 0.01479 0.10757 0.58442 0.0
C823 C 0.03533 0.09274 0.56813 0.0
C824 C 0.0615 0.14409 0.60332 0.0
C825 C 0.06899 0.10446 0.57013 0.0
C826 C 0.10988 0.18323 0.62153 0.0
C827 C 0.06959 0.20912 0.65752 0.0
N828 N 0.08095 0.12936 0.58731 0.0
N829 N 0.05723 0.18467 0.63981 0.0
H830 H 0.72171 0.32142 0.34156 0.0
H831 H 0.65072 0.4159 0.46553 0.0
H832 H 0.77878 0.3633 0.41688 0.0
H833 H 0.59018 0.34844 0.40944 0.0
H834 H 0.69863 0.40051 0.44566 0.0
H835 H 0.67398 0.33507 0.36348 0.0
C836 C 0.72425 0.33325 0.36284 0.0
C837 C 0.75445 0.34097 0.37746 0.0
C838 C 0.67482 0.38903 0.43784 0.0
C839 C 0.69975 0.35732 0.40234 0.0
C840 C 0.64737 0.39765 0.4493 0.0
C841 C 0.61618 0.38348 0.43918 0.0
C842 C 0.67116 0.36633 0.41583 0.0
C843 C 0.61364 0.36042 0.41757 0.0
C844 C 0.69694 0.34118 0.37526 0.0
C845 C 0.75619 0.35713 0.40458 0.0
N846 N 0.64074 0.3527 0.40653 0.0
N847 N 0.72924 0.36483 0.41611 0.0
loop_
_geom_bond_atom_site_label_1
_geom_bond_atom_site_label_2
_geom_bond_distance
_geom_bond_site_symmetry_2
_ccdc_geom_bond_type
P0 O11 1.490 . S
P0 C14 1.812 . S
P0 C20 1.803 . S
P0 C26 1.819 . S
H1 C15 0.941 . S
H2 C16 0.939 . S
H3 C18 0.940 . S
H4 C19 0.940 . S
H5 C21 0.939 . S
H6 C22 0.942 . S
H7 C24 0.940 . S
H8 C25 0.939 . S
H9 C27 0.941 . S
H10 C31 0.939 . S
O11 P0 1.490 . S
H12 C28 0.939 . S
H13 C30 0.940 . S
C14 P0 1.812 . S
C14 C15 1.389 . S
C14 C19 1.391 . S
C15 H1 0.941 . S
C15 C14 1.389 . S
C15 C16 1.397 . S
C16 H2 0.939 . S
C16 C15 1.397 . S
C16 C17 1.378 . S
C17 C16 1.378 . S
C17 C18 1.378 . S
C18 H3 0.940 . S
C18 C17 1.378 . S
C18 C19 1.396 . S
C19 H4 0.940 . S
C19 C14 1.391 . S
C19 C18 1.396 . S
C20 P0 1.803 . S
C20 C21 1.378 . S
C20 C25 1.400 . S
C21 H5 0.939 . S
C21 C20 1.378 . S
C21 C22 1.361 . S
C22 H6 0.942 . S
C22 C21 1.361 . S
C22 C23 1.369 . S
C23 C22 1.369 . S
C23 C24 1.404 . S
C24 H7 0.940 . S
C24 C23 1.404 . S
C24 C25 1.389 . S
C25 H8 0.939 . S
C25 C20 1.400 . S
C25 C24 1.389 . S
C26 P0 1.819 . S
C26 C27 1.391 . S
C26 C31 1.391 . S
C27 H9 0.941 . S
C27 C26 1.391 . S
C27 C28 1.396 . S
C28 H12 0.939 . S
C28 C27 1.396 . S
C28 C29 1.397 . S
C29 C28 1.397 . S
C29 C30 1.385 . S
C30 H13 0.940 . S
C30 C29 1.385 . S
C30 C31 1.388 . S
C31 H10 0.939 . S
C31 C26 1.391 . S
C31 C30 1.388 . S
P32 O43 1.490 . S
P32 C46 1.812 . S
P32 C52 1.803 . S
P32 C58 1.819 . S
H33 C47 0.941 . S
H34 C48 0.939 . S
H35 C50 0.940 . S
H36 C51 0.940 . S
H37 C53 0.939 . S
H38 C54 0.942 . S
H39 C56 0.940 . S
H40 C57 0.939 . S
H41 C59 0.941 . S
H42 C63 0.939 . S
O43 P32 1.490 . S
H44 C60 0.939 . S
H45 C62 0.940 . S
C46 P32 1.812 . S
C46 C47 1.389 . S
C46 C51 1.391 . S
C47 H33 0.941 . S
C47 C46 1.389 . S
C47 C48 1.397 . S
C48 H34 0.939 . S
C48 C47 1.397 . S
C48 C49 1.378 . S
C49 C48 1.378 . S
C49 C50 1.378 . S
C50 H35 0.940 . S
C50 C49 1.378 . S
C50 C51 1.396 . S
C51 H36 0.940 . S
C51 C46 1.391 . S
C51 C50 1.396 . S
C52 P32 1.803 . S
C52 C53 1.378 . S
C52 C57 1.400 . S
C53 H37 0.939 . S
C53 C52 1.378 . S
C53 C54 1.361 . S
C54 H38 0.942 . S
C54 C53 1.361 . S
C54 C55 1.369 . S
C55 C54 1.369 . S
C55 C56 1.404 . S
C56 H39 0.940 . S
C56 C55 1.404 . S
C56 C57 1.389 . S
C57 H40 0.939 . S
C57 C52 1.400 . S
C57 C56 1.389 . S
C58 P32 1.819 . S
C58 C59 1.391 . S
C58 C63 1.391 . S
C59 H41 0.941 . S
C59 C58 1.391 . S
C59 C60 1.396 . S
C60 H44 0.939 . S
C60 C59 1.396 . S
C60 C61 1.397 . S
C61 C60 1.397 . S
C61 C62 1.385 . S
C62 H45 0.940 . S
C62 C61 1.385 . S
C62 C63 1.388 . S
C63 H42 0.939 . S
C63 C58 1.391 . S
C63 C62 1.388 . S
P64 O75 1.490 . S
P64 C78 1.812 . S
P64 C84 1.803 . S
P64 C90 1.819 . S
H65 C79 0.941 . S
H66 C80 0.939 . S
H67 C82 0.940 . S
H68 C83 0.940 . S
H69 C85 0.939 . S
H70 C86 0.942 . S
H71 C88 0.940 . S
H72 C89 0.939 . S
H73 C91 0.941 . S
H74 C95 0.939 . S
O75 P64 1.490 . S
H76 C92 0.939 . S
H77 C94 0.940 . S
C78 P64 1.812 . S
C78 C79 1.389 . S
C78 C83 1.391 . S
C79 H65 0.941 . S
C79 C78 1.389 . S
C79 C80 1.397 . S
C80 H66 0.939 . S
C80 C79 1.397 . S
C80 C81 1.378 . S
C81 C80 1.378 . S
C81 C82 1.378 . S
C82 H67 0.940 . S
C82 C81 1.378 . S
C82 C83 1.396 . S
C83 H68 0.940 . S
C83 C78 1.391 . S
C83 C82 1.396 . S
C84 P64 1.803 . S
C84 C85 1.378 . S
C84 C89 1.400 . S
C85 H69 0.939 . S
C85 C84 1.378 . S
C85 C86 1.361 . S
C86 H70 0.942 . S
C86 C85 1.361 . S
C86 C87 1.369 . S
C87 C86 1.369 . S
C87 C88 1.404 . S
C88 H71 0.940 . S
C88 C87 1.404 . S
C88 C89 1.389 . S
C89 H72 0.939 . S
C89 C84 1.400 . S
C89 C88 1.389 . S
C90 P64 1.819 . S
C90 C91 1.391 . S
C90 C95 1.391 . S
C91 H73 0.941 . S
C91 C90 1.391 . S
C91 C92 1.396 . S
C92 H76 0.939 . S
C92 C91 1.396 . S
C92 C93 1.397 . S
C93 C92 1.397 . S
C93 C94 1.385 . S
C94 H77 0.940 . S
C94 C93 1.385 . S
C94 C95 1.388 . S
C95 H74 0.939 . S
C95 C90 1.391 . S
C95 C94 1.388 . S
P96 O107 1.490 . S
P96 C110 1.812 . S
P96 C116 1.803 . S
P96 C122 1.819 . S
H97 C111 0.941 . S
H98 C112 0.939 . S
H99 C114 0.940 . S
H100 C115 0.940 . S
H101 C117 0.939 . S
H102 C118 0.942 . S
H103 C120 0.940 . S
H104 C121 0.939 . S
H105 C123 0.941 . S
H106 C127 0.939 . S
O107 P96 1.490 . S
H108 C124 0.939 . S
H109 C126 0.940 . S
C110 P96 1.812 . S
C110 C111 1.389 . S
C110 C115 1.391 . S
C111 H97 0.941 . S
C111 C110 1.389 . S
C111 C112 1.397 . S
C112 H98 0.939 . S
C112 C111 1.397 . S
C112 C113 1.378 . S
C113 C112 1.378 . S
C113 C114 1.378 . S
C114 H99 0.940 . S
C114 C113 1.378 . S
C114 C115 1.396 . S
C115 H100 0.940 . S
C115 C110 1.391 . S
C115 C114 1.396 . S
C116 P96 1.803 . S
C116 C117 1.378 . S
C116 C121 1.400 . S
C117 H101 0.939 . S
C117 C116 1.378 . S
C117 C118 1.361 . S
C118 H102 0.942 . S
C118 C117 1.361 . S
C118 C119 1.369 . S
C119 C118 1.369 . S
C119 C120 1.404 . S
C120 H103 0.940 . S
C120 C119 1.404 . S
C120 C121 1.389 . S
C121 H104 0.939 . S
C121 C116 1.400 . S
C121 C120 1.389 . S
C122 P96 1.819 . S
C122 C123 1.391 . S
C122 C127 1.391 . S
C123 H105 0.941 . S
C123 C122 1.391 . S
C123 C124 1.396 . S
C124 H108 0.939 . S
C124 C123 1.396 . S
C124 C125 1.397 . S
C125 C124 1.397 . S
C125 C126 1.385 . S
C126 H109 0.940 . S
C126 C125 1.385 . S
C126 C127 1.388 . S
C127 H106 0.939 . S
C127 C122 1.391 . S
C127 C126 1.388 . S
P128 O139 1.490 . S
P128 C142 1.812 . S
P128 C148 1.803 . S
P128 C154 1.819 . S
H129 C143 0.941 . S
H130 C144 0.939 . S
H131 C146 0.940 . S
H132 C147 0.940 . S
H133 C149 0.939 . S
H134 C150 0.942 . S
H135 C152 0.940 . S
H136 C153 0.939 . S
H137 C155 0.941 . S
H138 C159 0.939 . S
O139 P128 1.490 . S
H140 C156 0.939 . S
H141 C158 0.940 . S
C142 P128 1.812 . S
C142 C143 1.389 . S
C142 C147 1.391 . S
C143 H129 0.941 . S
C143 C142 1.389 . S
C143 C144 1.397 . S
C144 H130 0.939 . S
C144 C143 1.397 . S
C144 C145 1.378 . S
C145 C144 1.378 . S
C145 C146 1.378 . S
C146 H131 0.940 . S
C146 C145 1.378 . S
C146 C147 1.396 . S
C147 H132 0.940 . S
C147 C142 1.391 . S
C147 C146 1.396 . S
C148 P128 1.803 . S
C148 C149 1.378 . S
C148 C153 1.400 . S
C149 H133 0.939 . S
C149 C148 1.378 . S
C149 C150 1.361 . S
C150 H134 0.942 . S
C150 C149 1.361 . S
C150 C151 1.369 . S
C151 C150 1.369 . S
C151 C152 1.404 . S
C152 H135 0.940 . S
C152 C151 1.404 . S
C152 C153 1.389 . S
C153 H136 0.939 . S
C153 C148 1.400 . S
C153 C152 1.389 . S
C154 P128 1.819 . S
C154 C155 1.391 . S
C154 C159 1.391 . S
C155 H137 0.941 . S
C155 C154 1.391 . S
C155 C156 1.396 . S
C156 H140 0.939 . S
C156 C155 1.396 . S
C156 C157 1.397 . S
C157 C156 1.397 . S
C157 C158 1.385 . S
C158 H141 0.940 . S
C158 C157 1.385 . S
C158 C159 1.388 . S
C159 H138 0.939 . S
C159 C154 1.391 . S
C159 C158 1.388 . S
P160 O171 1.490 . S
P160 C174 1.812 . S
P160 C180 1.803 . S
P160 C186 1.819 . S
H161 C175 0.941 . S
H162 C176 0.939 . S
H163 C178 0.940 . S
H164 C179 0.940 . S
H165 C181 0.939 . S
H166 C182 0.942 . S
H167 C184 0.940 . S
H168 C185 0.939 . S
H169 C187 0.941 . S
H170 C191 0.939 . S
O171 P160 1.490 . S
H172 C188 0.939 . S
H173 C190 0.940 . S
C174 P160 1.812 . S
C174 C175 1.389 . S
C174 C179 1.391 . S
C175 H161 0.941 . S
C175 C174 1.389 . S
C175 C176 1.397 . S
C176 H162 0.939 . S
C176 C175 1.397 . S
C176 C177 1.378 . S
C177 C176 1.378 . S
C177 C178 1.378 . S
C178 H163 0.940 . S
C178 C177 1.378 . S
C178 C179 1.396 . S
C179 H164 0.940 . S
C179 C174 1.391 . S
C179 C178 1.396 . S
C180 P160 1.803 . S
C180 C181 1.378 . S
C180 C185 1.400 . S
C181 H165 0.939 . S
C181 C180 1.378 . S
C181 C182 1.361 . S
C182 H166 0.942 . S
C182 C181 1.361 . S
C182 C183 1.369 . S
C183 C182 1.369 . S
C183 C184 1.404 . S
C184 H167 0.940 . S
C184 C183 1.404 . S
C184 C185 1.389 . S
C185 H168 0.939 . S
C185 C180 1.400 . S
C185 C184 1.389 . S
C186 P160 1.819 . S
C186 C187 1.391 . S
C186 C191 1.391 . S
C187 H169 0.941 . S
C187 C186 1.391 . S
C187 C188 1.396 . S
C188 H172 0.939 . S
C188 C187 1.396 . S
C188 C189 1.397 . S
C189 C188 1.397 . S
C189 C190 1.385 . S
C190 H173 0.940 . S
C190 C189 1.385 . S
C190 C191 1.388 . S
C191 H170 0.939 . S
C191 C186 1.391 . S
C191 C190 1.388 . S
P192 O203 1.490 . S
P192 C206 1.812 . S
P192 C212 1.803 . S
P192 C218 1.819 . S
H193 C207 0.941 . S
H194 C208 0.939 . S
H195 C210 0.940 . S
H196 C211 0.940 . S
H197 C213 0.939 . S
H198 C214 0.942 . S
H199 C216 0.940 . S
H200 C217 0.939 . S
H201 C219 0.941 . S
H202 C223 0.939 . S
O203 P192 1.490 . S
H204 C220 0.939 . S
H205 C222 0.940 . S
C206 P192 1.812 . S
C206 C207 1.389 . S
C206 C211 1.391 . S
C207 H193 0.941 . S
C207 C206 1.389 . S
C207 C208 1.397 . S
C208 H194 0.939 . S
C208 C207 1.397 . S
C208 C209 1.378 . S
C209 C208 1.378 . S
C209 C210 1.378 . S
C210 H195 0.940 . S
C210 C209 1.378 . S
C210 C211 1.396 . S
C211 H196 0.940 . S
C211 C206 1.391 . S
C211 C210 1.396 . S
C212 P192 1.803 . S
C212 C213 1.378 . S
C212 C217 1.400 . S
C213 H197 0.939 . S
C213 C212 1.378 . S
C213 C214 1.361 . S
C214 H198 0.942 . S
C214 C213 1.361 . S
C214 C215 1.369 . S
C215 C214 1.369 . S
C215 C216 1.404 . S
C216 H199 0.940 . S
C216 C215 1.404 . S
C216 C217 1.389 . S
C217 H200 0.939 . S
C217 C212 1.400 . S
C217 C216 1.389 . S
C218 P192 1.819 . S
C218 C219 1.391 . S
C218 C223 1.391 . S
C219 H201 0.941 . S
C219 C218 1.391 . S
C219 C220 1.396 . S
C220 H204 0.939 . S
C220 C219 1.396 . S
C220 C221 1.397 . S
C221 C220 1.397 . S
C221 C222 1.385 . S
C222 H205 0.940 . S
C222 C221 1.385 . S
C222 C223 1.388 . S
C223 H202 0.939 . S
C223 C218 1.391 . S
C223 C222 1.388 . S
P224 O235 1.490 . S
P224 C238 1.812 . S
P224 C244 1.803 . S
P224 C250 1.819 . S
H225 C239 0.941 . S
H226 C240 0.939 . S
H227 C242 0.940 . S
H228 C243 0.940 . S
H229 C245 0.939 . S
H230 C246 0.942 . S
H231 C248 0.940 . S
H232 C249 0.939 . S
H233 C251 0.941 . S
H234 C255 0.939 . S
O235 P224 1.490 . S
H236 C252 0.939 . S
H237 C254 0.940 . S
C238 P224 1.812 . S
C238 C239 1.389 . S
C238 C243 1.391 . S
C239 H225 0.941 . S
C239 C238 1.389 . S
C239 C240 1.397 . S
C240 H226 0.939 . S
C240 C239 1.397 . S
C240 C241 1.378 . S
C241 C240 1.378 . S
C241 C242 1.378 . S
C242 H227 0.940 . S
C242 C241 1.378 . S
C242 C243 1.396 . S
C243 H228 0.940 . S
C243 C238 1.391 . S
C243 C242 1.396 . S
C244 P224 1.803 . S
C244 C245 1.378 . S
C244 C249 1.400 . S
C245 H229 0.939 . S
C245 C244 1.378 . S
C245 C246 1.361 . S
C246 H230 0.942 . S
C246 C245 1.361 . S
C246 C247 1.369 . S
C247 C246 1.369 . S
C247 C248 1.404 . S
C248 H231 0.940 . S
C248 C247 1.404 . S
C248 C249 1.389 . S
C249 H232 0.939 . S
C249 C244 1.400 . S
C249 C248 1.389 . S
C250 P224 1.819 . S
C250 C251 1.391 . S
C250 C255 1.391 . S
C251 H233 0.941 . S
C251 C250 1.391 . S
C251 C252 1.396 . S
C252 H236 0.939 . S
C252 C251 1.396 . S
C252 C253 1.397 . S
C253 C252 1.397 . S
C253 C254 1.385 . S
C254 H237 0.940 . S
C254 C253 1.385 . S
C254 C255 1.388 . S
C255 H234 0.939 . S
C255 C250 1.391 . S
C255 C254 1.388 . S
Dy256 O259 2.307 1_545 S
Dy256 O261 2.395 . S
Dy256 O262 2.379 . S
Dy256 O264 2.339 1_545 S
Dy256 O266 2.325 . S
Dy256 O270 2.275 . S
Dy256 C278 2.738 . S
Dy257 O260 2.298 1_655 S
Dy257 O263 2.275 . S
Dy257 O265 2.307 1_565 S
Dy257 O267 2.395 . S
Dy257 O268 2.379 . S
Dy257 O271 2.339 1_565 S
Dy257 C287 2.738 . S
C258 O270 1.254 . S
C258 O271 1.257 1_455 S
O259 Dy256 2.307 1_565 S
O259 C269 1.266 . S
O260 Dy257 2.298 1_455 S
O260 C269 1.236 . S
O261 Dy256 2.395 . S
O261 C278 1.255 . S
O262 Dy256 2.379 . S
O262 C278 1.249 . S
O263 Dy257 2.275 . S
O263 C279 1.254 . S
O264 Dy256 2.339 1_565 S
O264 C279 1.257 1_455 S
O265 Dy257 2.307 1_545 S
O265 C280 1.266 . S
O266 Dy256 2.325 . S
O266 C280 1.208 1_455 S
O267 Dy257 2.395 . S
O267 C287 1.255 . S
O268 Dy257 2.379 . S
O268 C287 1.249 . S
C269 O259 1.266 . S
C269 O260 1.236 . S
O270 Dy256 2.275 . S
O270 C258 1.254 . S
O271 Dy257 2.339 1_545 S
O271 C258 1.257 1_655 S
C272 C275 1.344 . S
C272 C276 1.328 . S
C272 C278 1.516 . S
C273 C274 1.304 . S
C273 C277 1.323 . S
C274 C273 1.304 . S
C274 C275 1.371 . S
C274 H288 0.930 . S
C275 C272 1.344 . S
C275 C274 1.371 . S
C275 H289 0.931 . S
C276 C272 1.328 . S
C276 C277 1.433 . S
C276 H290 0.931 . S
C277 C273 1.323 . S
C277 C276 1.433 . S
C277 H291 0.933 . S
C278 Dy256 2.738 . S
C278 O261 1.255 . S
C278 O262 1.249 . S
C278 C272 1.516 . S
C279 O263 1.254 . S
C279 O264 1.257 1_655 S
C280 O265 1.266 . S
C280 O266 1.208 1_655 S
C281 C284 1.344 . S
C281 C285 1.328 . S
C281 C287 1.516 . S
C282 C283 1.304 . S
C282 C286 1.323 . S
C283 C282 1.304 . S
C283 C284 1.371 . S
C283 H292 0.930 . S
C284 C281 1.344 . S
C284 C283 1.371 . S
C284 H293 0.931 . S
C285 C281 1.328 . S
C285 C286 1.433 . S
C285 H294 0.931 . S
C286 C282 1.323 . S
C286 C285 1.433 . S
C286 H295 0.933 . S
C287 Dy257 2.738 . S
C287 O267 1.255 . S
C287 O268 1.249 . S
C287 C281 1.516 . S
H288 C274 0.930 . S
H289 C275 0.931 . S
H290 C276 0.931 . S
H291 C277 0.933 . S
H292 C283 0.930 . S
H293 C284 0.931 . S
H294 C285 0.931 . S
H295 C286 0.933 . S
Dy296 O299 2.307 1_556 S
Dy296 O301 2.395 1_545 S
Dy296 O302 2.379 1_545 S
Dy296 O304 2.339 . S
Dy296 O306 2.298 1_545 S
Dy296 O310 2.275 1_546 S
Dy296 C318 2.738 1_545 S
Dy297 O300 2.298 . S
Dy297 O303 2.275 1_554 S
Dy297 O305 2.307 1_544 S
Dy297 O307 2.395 . S
Dy297 O308 2.379 . S
Dy297 O311 2.339 1_545 S
Dy297 C327 2.738 . S
C298 O310 1.254 . S
C298 O311 1.257 . S
O299 Dy296 2.307 1_554 S
O299 C309 1.266 . S
O300 Dy297 2.298 . S
O300 C309 1.236 . S
O301 Dy296 2.395 1_565 S
O301 C318 1.255 . S
O302 Dy296 2.379 1_565 S
O302 C318 1.249 . S
O303 Dy297 2.275 1_556 S
O303 C319 1.254 . S
O304 Dy296 2.339 . S
O304 C319 1.257 . S
O305 Dy297 2.307 1_566 S
O305 C320 1.266 . S
O306 Dy296 2.298 1_565 S
O306 C320 1.236 . S
O307 Dy297 2.395 . S
O307 C327 1.255 . S
O308 Dy297 2.379 . S
O308 C327 1.249 . S
C309 O299 1.266 . S
C309 O300 1.236 . S
O310 Dy296 2.275 1_564 S
O310 C298 1.254 . S
O311 Dy297 2.339 1_565 S
O311 C298 1.257 . S
C312 C315 1.344 . S
C312 C316 1.328 . S
C312 C318 1.516 . S
C313 C314 1.304 . S
C313 C317 1.323 . S
C314 C313 1.304 . S
C314 C315 1.371 . S
C314 H328 0.930 . S
C315 C312 1.344 . S
C315 C314 1.371 . S
C315 H329 0.931 . S
C316 C312 1.328 . S
C316 C317 1.433 . S
C316 H330 0.931 . S
C317 C313 1.323 . S
C317 C316 1.433 . S
C317 H331 0.933 . S
C318 Dy296 2.738 1_565 S
C318 O301 1.255 . S
C318 O302 1.249 . S
C318 C312 1.516 . S
C319 O303 1.254 . S
C319 O304 1.257 . S
C320 O305 1.266 . S
C320 O306 1.236 . S
C321 C324 1.344 . S
C321 C325 1.328 . S
C321 C327 1.516 . S
C322 C323 1.304 . S
C322 C326 1.323 . S
C323 C322 1.304 . S
C323 C324 1.371 . S
C323 H332 0.930 . S
C324 C321 1.344 . S
C324 C323 1.371 . S
C324 H333 0.931 . S
C325 C321 1.328 . S
C325 C326 1.433 . S
C325 H334 0.931 . S
C326 C322 1.323 . S
C326 C325 1.433 . S
C326 H335 0.933 . S
C327 Dy297 2.738 . S
C327 O307 1.255 . S
C327 O308 1.249 . S
C327 C321 1.516 . S
H328 C314 0.930 . S
H329 C315 0.931 . S
H330 C316 0.931 . S
H331 C317 0.933 . S
H332 C323 0.930 . S
H333 C324 0.931 . S
H334 C325 0.931 . S
H335 C326 0.933 . S
Dy336 O339 2.307 . S
Dy336 O341 2.395 . S
Dy336 O342 2.379 . S
Dy336 O344 2.339 . S
Dy336 O346 2.298 . S
Dy336 O350 2.275 . S
Dy336 C358 2.738 . S
Dy337 O340 2.298 . S
Dy337 O343 2.275 . S
Dy337 O345 2.307 . S
Dy337 O347 2.395 . S
Dy337 O348 2.379 . S
Dy337 O351 2.339 . S
Dy337 C367 2.738 . S
C338 O350 1.254 . S
C338 O351 1.257 . S
O339 Dy336 2.307 . S
O339 C349 1.266 . S
O340 Dy337 2.298 . S
O340 C349 1.236 . S
O341 Dy336 2.395 . S
O341 C358 1.255 . S
O342 Dy336 2.379 . S
O342 C358 1.249 . S
O343 Dy337 2.275 . S
O343 C359 1.254 . S
O344 Dy336 2.339 . S
O344 C359 1.257 . S
O345 Dy337 2.307 . S
O345 C360 1.266 . S
O346 Dy336 2.298 . S
O346 C360 1.236 . S
O347 Dy337 2.395 . S
O347 C367 1.255 . S
O348 Dy337 2.379 . S
O348 C367 1.249 . S
C349 O339 1.266 . S
C349 O340 1.236 . S
O350 Dy336 2.275 . S
O350 C338 1.254 . S
O351 Dy337 2.339 . S
O351 C338 1.257 . S
C352 C355 1.344 . S
C352 C356 1.328 . S
C352 C358 1.516 . S
C353 C354 1.304 . S
C353 C357 1.323 . S
C354 C353 1.304 . S
C354 C355 1.371 . S
C354 H368 0.930 . S
C355 C352 1.344 . S
C355 C354 1.371 . S
C355 H369 0.931 . S
C356 C352 1.328 . S
C356 C357 1.433 . S
C356 H370 0.931 . S
C357 C353 1.323 . S
C357 C356 1.433 . S
C357 H371 0.933 . S
C358 Dy336 2.738 . S
C358 O341 1.255 . S
C358 O342 1.249 . S
C358 C352 1.516 . S
C359 O343 1.254 . S
C359 O344 1.257 . S
C360 O345 1.266 . S
C360 O346 1.236 . S
C361 C364 1.344 . S
C361 C365 1.328 . S
C361 C367 1.516 . S
C362 C363 1.304 . S
C362 C366 1.323 . S
C363 C362 1.304 . S
C363 C364 1.371 . S
C363 H372 0.930 . S
C364 C361 1.344 . S
C364 C363 1.371 . S
C364 H373 0.931 . S
C365 C361 1.328 . S
C365 C366 1.433 . S
C365 H374 0.931 . S
C366 C362 1.323 . S
C366 C365 1.433 . S
C366 H375 0.933 . S
C367 Dy337 2.738 . S
C367 O347 1.255 . S
C367 O348 1.249 . S
C367 C361 1.516 . S
H368 C354 0.930 . S
H369 C355 0.931 . S
H370 C356 0.931 . S
H371 C357 0.933 . S
H372 C363 0.930 . S
H373 C364 0.931 . S
H374 C365 0.931 . S
H375 C366 0.933 . S
Dy376 O379 2.290 1_656 S
Dy376 O381 2.412 . S
Dy376 O382 2.388 . S
Dy376 O384 2.329 1_655 S
Dy376 O386 2.309 . S
Dy376 O390 2.279 1_556 S
Dy376 C398 2.753 . S
Dy377 O380 2.298 . S
Dy377 O383 2.275 1_554 S
Dy377 O385 2.307 1_455 S
Dy377 O387 2.395 . S
Dy377 O388 2.379 . S
Dy377 O391 2.339 1_455 S
Dy377 C407 2.738 . S
C378 O390 1.254 . S
C378 O391 1.257 . S
O379 Dy376 2.290 1_454 S
O379 C389 1.266 . S
O380 Dy377 2.298 . S
O380 C389 1.236 . S
O381 Dy376 2.412 . S
O381 C398 1.255 . S
O382 Dy376 2.388 . S
O382 C398 1.249 . S
O383 Dy377 2.275 1_556 S
O383 C399 1.254 . S
O384 Dy376 2.329 1_455 S
O384 C399 1.257 . S
O385 Dy377 2.307 1_655 S
O385 C400 1.266 1_554 S
O386 Dy376 2.309 . S
O386 C400 1.236 . S
O387 Dy377 2.395 . S
O387 C407 1.255 . S
O388 Dy377 2.379 . S
O388 C407 1.249 . S
C389 O379 1.266 . S
C389 O380 1.236 . S
O390 Dy376 2.279 1_554 S
O390 C378 1.254 . S
O391 Dy377 2.339 1_655 S
O391 C378 1.257 . S
C392 C395 1.344 . S
C392 C396 1.328 . S
C392 C398 1.516 . S
C393 C394 1.304 . S
C393 C397 1.323 . S
C394 C393 1.304 . S
C394 C395 1.371 . S
C394 H408 0.930 . S
C395 C392 1.344 . S
C395 C394 1.371 . S
C395 H409 0.931 . S
C396 C392 1.328 . S
C396 C397 1.433 . S
C396 H410 0.931 . S
C397 C393 1.323 . S
C397 C396 1.433 . S
C397 H411 0.933 . S
C398 Dy376 2.753 . S
C398 O381 1.255 . S
C398 O382 1.249 . S
C398 C392 1.516 . S
C399 O383 1.254 . S
C399 O384 1.257 . S
C400 O385 1.266 1_556 S
C400 O386 1.236 . S
C401 C404 1.344 . S
C401 C405 1.328 . S
C401 C407 1.516 . S
C402 C403 1.304 . S
C402 C406 1.323 . S
C403 C402 1.304 . S
C403 C404 1.371 . S
C403 H412 0.930 . S
C404 C401 1.344 . S
C404 C403 1.371 . S
C404 H413 0.931 . S
C405 C401 1.328 . S
C405 C406 1.433 . S
C405 H414 0.931 . S
C406 C402 1.323 . S
C406 C405 1.433 . S
C406 H415 0.933 . S
C407 Dy377 2.738 . S
C407 O387 1.255 . S
C407 O388 1.249 . S
C407 C401 1.516 . S
H408 C394 0.930 . S
H409 C395 0.931 . S
H410 C396 0.931 . S
H411 C397 0.933 . S
H412 C403 0.930 . S
H413 C404 0.931 . S
H414 C405 0.931 . S
H415 C406 0.933 . S
H416 C422 0.930 . S
H417 C426 0.930 . S
H418 C431 0.929 . S
H419 C429 0.929 . S
H420 C424 0.929 . S
H421 C430 0.929 . S
C422 H416 0.930 . S
C422 C423 1.367 . S
C422 C430 1.378 . S
C423 C422 1.367 . S
C423 C431 1.433 . S
C424 H420 0.929 . S
C424 C426 1.378 . S
C424 C428 1.350 . S
C425 C428 1.463 . S
C425 C430 1.350 . S
C425 N433 1.427 . S
C426 H417 0.930 . S
C426 C424 1.378 . S
C426 C427 1.367 . S
C427 C426 1.367 . S
C427 C429 1.433 . S
C428 C424 1.350 . S
C428 C425 1.463 . S
C428 N432 1.427 . S
C429 H419 0.929 . S
C429 C427 1.433 . S
C429 N432 1.384 . S
C430 H421 0.929 . S
C430 C422 1.378 . S
C430 C425 1.350 . S
C431 H418 0.929 . S
C431 C423 1.433 . S
C431 N433 1.384 . S
N432 C428 1.427 . S
N432 C429 1.384 . S
N433 C425 1.427 . S
N433 C431 1.384 . S
H434 C440 0.930 . S
H435 C444 0.930 . S
H436 C449 0.929 . S
H437 C447 0.929 . S
H438 C442 0.929 . S
H439 C448 0.929 . S
C440 H434 0.930 . S
C440 C441 1.367 . S
C440 C448 1.378 . S
C441 C440 1.367 . S
C441 C449 1.433 . S
C442 H438 0.929 . S
C442 C444 1.378 . S
C442 C446 1.350 . S
C443 C446 1.463 . S
C443 C448 1.350 . S
C443 N451 1.427 . S
C444 H435 0.930 . S
C444 C442 1.378 . S
C444 C445 1.367 . S
C445 C444 1.367 . S
C445 C447 1.433 . S
C446 C442 1.350 . S
C446 C443 1.463 . S
C446 N450 1.427 . S
C447 H437 0.929 . S
C447 C445 1.433 . S
C447 N450 1.384 . S
C448 H439 0.929 . S
C448 C440 1.378 . S
C448 C443 1.350 . S
C449 H436 0.929 . S
C449 C441 1.433 . S
C449 N451 1.384 . S
N450 C446 1.427 . S
N450 C447 1.384 . S
N451 C443 1.427 . S
N451 C449 1.384 . S
H452 C458 0.930 . S
H453 C462 0.930 . S
H454 C467 0.929 . S
H455 C465 0.929 . S
H456 C460 0.929 . S
H457 C466 0.929 . S
C458 H452 0.930 . S
C458 C459 1.367 . S
C458 C466 1.378 . S
C459 C458 1.367 . S
C459 C467 1.433 . S
C460 H456 0.929 . S
C460 C462 1.378 . S
C460 C464 1.350 . S
C461 C464 1.463 . S
C461 C466 1.350 . S
C461 N469 1.427 . S
C462 H453 0.930 . S
C462 C460 1.378 . S
C462 C463 1.367 . S
C463 C462 1.367 . S
C463 C465 1.433 . S
C464 C460 1.350 . S
C464 C461 1.463 . S
C464 N468 1.427 . S
C465 H455 0.929 . S
C465 C463 1.433 . S
C465 N468 1.384 . S
C466 H457 0.929 . S
C466 C458 1.378 . S
C466 C461 1.350 . S
C467 H454 0.929 . S
C467 C459 1.433 . S
C467 N469 1.384 . S
N468 C464 1.427 . S
N468 C465 1.384 . S
N469 C461 1.427 . S
N469 C467 1.384 . S
H470 C476 0.930 . S
H471 C480 0.930 . S
H472 C485 0.929 . S
H473 C483 0.929 . S
H474 C478 0.929 . S
H475 C484 0.929 . S
C476 H470 0.930 . S
C476 C477 1.367 . S
C476 C484 1.378 . S
C477 C476 1.367 . S
C477 C485 1.433 . S
C478 H474 0.929 . S
C478 C480 1.378 . S
C478 C482 1.350 . S
C479 C482 1.463 . S
C479 C484 1.350 . S
C479 N487 1.427 . S
C480 H471 0.930 . S
C480 C478 1.378 . S
C480 C481 1.367 . S
C481 C480 1.367 . S
C481 C483 1.433 . S
C482 C478 1.350 . S
C482 C479 1.463 . S
C482 N486 1.427 . S
C483 H473 0.929 . S
C483 C481 1.433 . S
C483 N486 1.384 . S
C484 H475 0.929 . S
C484 C476 1.378 . S
C484 C479 1.350 . S
C485 H472 0.929 . S
C485 C477 1.433 . S
C485 N487 1.384 . S
N486 C482 1.427 . S
N486 C483 1.384 . S
N487 C479 1.427 . S
N487 C485 1.384 . S
H488 C494 0.930 . S
H489 C498 0.930 . S
H490 C503 0.929 . S
H491 C501 0.929 . S
H492 C496 0.929 . S
H493 C502 0.929 . S
C494 H488 0.930 . S
C494 C495 1.367 . S
C494 C502 1.378 . S
C495 C494 1.367 . S
C495 C503 1.433 . S
C496 H492 0.929 . S
C496 C498 1.378 . S
C496 C500 1.350 . S
C497 C500 1.463 . S
C497 C502 1.350 . S
C497 N505 1.427 . S
C498 H489 0.930 . S
C498 C496 1.378 . S
C498 C499 1.367 . S
C499 C498 1.367 . S
C499 C501 1.433 . S
C500 C496 1.350 . S
C500 C497 1.463 . S
C500 N504 1.427 . S
C501 H491 0.929 . S
C501 C499 1.433 . S
C501 N504 1.384 . S
C502 H493 0.929 . S
C502 C494 1.378 . S
C502 C497 1.350 . S
C503 H490 0.929 . S
C503 C495 1.433 . S
C503 N505 1.384 . S
N504 C500 1.427 . S
N504 C501 1.384 . S
N505 C497 1.427 . S
N505 C503 1.384 . S
H506 C512 0.930 . S
H507 C516 0.930 . S
H508 C521 0.929 . S
H509 C519 0.929 . S
H510 C514 0.929 . S
H511 C520 0.929 . S
C512 H506 0.930 . S
C512 C513 1.367 . S
C512 C520 1.378 . S
C513 C512 1.367 . S
C513 C521 1.433 . S
C514 H510 0.929 . S
C514 C516 1.378 . S
C514 C518 1.350 . S
C515 C518 1.463 . S
C515 C520 1.350 . S
C515 N523 1.427 . S
C516 H507 0.930 . S
C516 C514 1.378 . S
C516 C517 1.367 . S
C517 C516 1.367 . S
C517 C519 1.433 . S
C518 C514 1.350 . S
C518 C515 1.463 . S
C518 N522 1.427 . S
C519 H509 0.929 . S
C519 C517 1.433 . S
C519 N522 1.384 . S
C520 H511 0.929 . S
C520 C512 1.378 . S
C520 C515 1.350 . S
C521 H508 0.929 . S
C521 C513 1.433 . S
C521 N523 1.384 . S
N522 C518 1.427 . S
N522 C519 1.384 . S
N523 C515 1.427 . S
N523 C521 1.384 . S
H524 C530 0.930 . S
H525 C534 0.930 . S
H526 C539 0.929 . S
H527 C537 0.929 . S
H528 C532 0.929 . S
H529 C538 0.929 . S
C530 H524 0.930 . S
C530 C531 1.367 . S
C530 C538 1.378 . S
C531 C530 1.367 . S
C531 C539 1.433 . S
C532 H528 0.929 . S
C532 C534 1.378 . S
C532 C536 1.350 . S
C533 C536 1.463 . S
C533 C538 1.350 . S
C533 N541 1.427 . S
C534 H525 0.930 . S
C534 C532 1.378 . S
C534 C535 1.367 . S
C535 C534 1.367 . S
C535 C537 1.433 . S
C536 C532 1.350 . S
C536 C533 1.463 . S
C536 N540 1.427 . S
C537 H527 0.929 . S
C537 C535 1.433 . S
C537 N540 1.384 . S
C538 H529 0.929 . S
C538 C530 1.378 . S
C538 C533 1.350 . S
C539 H526 0.929 . S
C539 C531 1.433 . S
C539 N541 1.384 . S
N540 C536 1.427 . S
N540 C537 1.384 . S
N541 C533 1.427 . S
N541 C539 1.384 . S
H542 C548 0.930 . S
H543 C552 0.930 . S
H544 C557 0.929 . S
H545 C555 0.929 . S
H546 C550 0.929 . S
H547 C556 0.929 . S
C548 H542 0.930 . S
C548 C549 1.367 . S
C548 C556 1.378 . S
C549 C548 1.367 . S
C549 C557 1.433 . S
C550 H546 0.929 . S
C550 C552 1.378 . S
C550 C554 1.350 . S
C551 C554 1.463 . S
C551 C556 1.350 . S
C551 N559 1.427 . S
C552 H543 0.930 . S
C552 C550 1.378 . S
C552 C553 1.367 . S
C553 C552 1.367 . S
C553 C555 1.433 . S
C554 C550 1.350 . S
C554 C551 1.463 . S
C554 N558 1.427 . S
C555 H545 0.929 . S
C555 C553 1.433 . S
C555 N558 1.384 . S
C556 H547 0.929 . S
C556 C548 1.378 . S
C556 C551 1.350 . S
C557 H544 0.929 . S
C557 C549 1.433 . S
C557 N559 1.384 . S
N558 C554 1.427 . S
N558 C555 1.384 . S
N559 C551 1.427 . S
N559 C557 1.384 . S
H560 C566 0.930 . S
H561 C570 0.930 . S
H562 C575 0.929 . S
H563 C573 0.929 . S
H564 C568 0.929 . S
H565 C574 0.929 . S
C566 H560 0.930 . S
C566 C567 1.367 . S
C566 C574 1.378 . S
C567 C566 1.367 . S
C567 C575 1.433 . S
C568 H564 0.929 . S
C568 C570 1.378 . S
C568 C572 1.350 . S
C569 C572 1.463 . S
C569 C574 1.350 . S
C569 N577 1.427 . S
C570 H561 0.930 . S
C570 C568 1.378 . S
C570 C571 1.367 . S
C571 C570 1.367 . S
C571 C573 1.433 . S
C572 C568 1.350 . S
C572 C569 1.463 . S
C572 N576 1.427 . S
C573 H563 0.929 . S
C573 C571 1.433 . S
C573 N576 1.384 . S
C574 H565 0.929 . S
C574 C566 1.378 . S
C574 C569 1.350 . S
C575 H562 0.929 . S
C575 C567 1.433 . S
C575 N577 1.384 . S
N576 C572 1.427 . S
N576 C573 1.384 . S
N577 C569 1.427 . S
N577 C575 1.384 . S
H578 C584 0.930 . S
H579 C588 0.930 . S
H580 C593 0.929 . S
H581 C591 0.929 . S
H582 C586 0.929 . S
H583 C592 0.929 . S
C584 H578 0.930 . S
C584 C585 1.367 . S
C584 C592 1.378 . S
C585 C584 1.367 . S
C585 C593 1.433 . S
C586 H582 0.929 . S
C586 C588 1.378 . S
C586 C590 1.350 . S
C587 C590 1.463 . S
C587 C592 1.350 . S
C587 N595 1.427 . S
C588 H579 0.930 . S
C588 C586 1.378 . S
C588 C589 1.367 . S
C589 C588 1.367 . S
C589 C591 1.433 . S
C590 C586 1.350 . S
C590 C587 1.463 . S
C590 N594 1.427 . S
C591 H581 0.929 . S
C591 C589 1.433 . S
C591 N594 1.384 . S
C592 H583 0.929 . S
C592 C584 1.378 . S
C592 C587 1.350 . S
C593 H580 0.929 . S
C593 C585 1.433 . S
C593 N595 1.384 . S
N594 C590 1.427 . S
N594 C591 1.384 . S
N595 C587 1.427 . S
N595 C593 1.384 . S
H596 C602 0.930 . S
H597 C606 0.930 . S
H598 C611 0.929 . S
H599 C609 0.929 . S
H600 C604 0.929 . S
H601 C610 0.929 . S
C602 H596 0.930 . S
C602 C603 1.367 . S
C602 C610 1.378 . S
C603 C602 1.367 . S
C603 C611 1.433 . S
C604 H600 0.929 . S
C604 C606 1.378 . S
C604 C608 1.350 . S
C605 C608 1.463 . S
C605 C610 1.350 . S
C605 N613 1.427 . S
C606 H597 0.930 . S
C606 C604 1.378 . S
C606 C607 1.367 . S
C607 C606 1.367 . S
C607 C609 1.433 . S
C608 C604 1.350 . S
C608 C605 1.463 . S
C608 N612 1.427 . S
C609 H599 0.929 . S
C609 C607 1.433 . S
C609 N612 1.384 . S
C610 H601 0.929 . S
C610 C602 1.378 . S
C610 C605 1.350 . S
C611 H598 0.929 . S
C611 C603 1.433 . S
C611 N613 1.384 . S
N612 C608 1.427 . S
N612 C609 1.384 . S
N613 C605 1.427 . S
N613 C611 1.384 . S
H614 C620 0.930 . S
H615 C624 0.930 . S
H616 C629 0.929 . S
H617 C627 0.929 . S
H618 C622 0.929 . S
H619 C628 0.929 . S
C620 H614 0.930 . S
C620 C621 1.367 . S
C620 C628 1.378 . S
C621 C620 1.367 . S
C621 C629 1.433 . S
C622 H618 0.929 . S
C622 C624 1.378 . S
C622 C626 1.350 . S
C623 C626 1.463 . S
C623 C628 1.350 . S
C623 N631 1.427 . S
C624 H615 0.930 . S
C624 C622 1.378 . S
C624 C625 1.367 . S
C625 C624 1.367 . S
C625 C627 1.433 . S
C626 C622 1.350 . S
C626 C623 1.463 . S
C626 N630 1.427 . S
C627 H617 0.929 . S
C627 C625 1.433 . S
C627 N630 1.384 . S
C628 H619 0.929 . S
C628 C620 1.378 . S
C628 C623 1.350 . S
C629 H616 0.929 . S
C629 C621 1.433 . S
C629 N631 1.384 . S
N630 C626 1.427 . S
N630 C627 1.384 . S
N631 C623 1.427 . S
N631 C629 1.384 . S
H632 C638 0.930 . S
H633 C642 0.930 . S
H634 C647 0.929 . S
H635 C645 0.929 . S
H636 C640 0.929 . S
H637 C646 0.929 . S
C638 H632 0.930 . S
C638 C639 1.367 . S
C638 C646 1.378 . S
C639 C638 1.367 . S
C639 C647 1.433 . S
C640 H636 0.929 . S
C640 C642 1.378 . S
C640 C644 1.350 . S
C641 C644 1.463 . S
C641 C646 1.350 . S
C641 N649 1.427 . S
C642 H633 0.930 . S
C642 C640 1.378 . S
C642 C643 1.367 . S
C643 C642 1.367 . S
C643 C645 1.433 . S
C644 C640 1.350 . S
C644 C641 1.463 . S
C644 N648 1.427 . S
C645 H635 0.929 . S
C645 C643 1.433 . S
C645 N648 1.384 . S
C646 H637 0.929 . S
C646 C638 1.378 . S
C646 C641 1.350 . S
C647 H634 0.929 . S
C647 C639 1.433 . S
C647 N649 1.384 . S
N648 C644 1.427 . S
N648 C645 1.384 . S
N649 C641 1.427 . S
N649 C647 1.384 . S
H650 C656 0.930 . S
H651 C660 0.930 . S
H652 C665 0.929 . S
H653 C663 0.929 . S
H654 C658 0.929 . S
H655 C664 0.929 . S
C656 H650 0.930 . S
C656 C657 1.367 . S
C656 C664 1.378 . S
C657 C656 1.367 . S
C657 C665 1.433 . S
C658 H654 0.929 . S
C658 C660 1.378 . S
C658 C662 1.350 . S
C659 C662 1.463 . S
C659 C664 1.350 . S
C659 N667 1.427 . S
C660 H651 0.930 . S
C660 C658 1.378 . S
C660 C661 1.367 . S
C661 C660 1.367 . S
C661 C663 1.433 . S
C662 C658 1.350 . S
C662 C659 1.463 . S
C662 N666 1.427 . S
C663 H653 0.929 . S
C663 C661 1.433 . S
C663 N666 1.384 . S
C664 H655 0.929 . S
C664 C656 1.378 . S
C664 C659 1.350 . S
C665 H652 0.929 . S
C665 C657 1.433 . S
C665 N667 1.384 . S
N666 C662 1.427 . S
N666 C663 1.384 . S
N667 C659 1.427 . S
N667 C665 1.384 . S
H668 C674 0.930 . S
H669 C678 0.930 . S
H670 C683 0.929 . S
H671 C681 0.929 . S
H672 C676 0.929 . S
H673 C682 0.929 . S
C674 H668 0.930 . S
C674 C675 1.367 . S
C674 C682 1.378 . S
C675 C674 1.367 . S
C675 C683 1.433 . S
C676 H672 0.929 . S
C676 C678 1.378 . S
C676 C680 1.350 . S
C677 C680 1.463 . S
C677 C682 1.350 . S
C677 N685 1.427 . S
C678 H669 0.930 . S
C678 C676 1.378 . S
C678 C679 1.367 . S
C679 C678 1.367 . S
C679 C681 1.433 . S
C680 C676 1.350 . S
C680 C677 1.463 . S
C680 N684 1.427 . S
C681 H671 0.929 . S
C681 C679 1.433 . S
C681 N684 1.384 . S
C682 H673 0.929 . S
C682 C674 1.378 . S
C682 C677 1.350 . S
C683 H670 0.929 . S
C683 C675 1.433 . S
C683 N685 1.384 . S
N684 C680 1.427 . S
N684 C681 1.384 . S
N685 C677 1.427 . S
N685 C683 1.384 . S
H686 C692 0.930 . S
H687 C696 0.930 . S
H688 C701 0.929 . S
H689 C699 0.929 . S
H690 C694 0.929 . S
H691 C700 0.929 . S
C692 H686 0.930 . S
C692 C693 1.367 . S
C692 C700 1.378 . S
C693 C692 1.367 . S
C693 C701 1.433 . S
C694 H690 0.929 . S
C694 C696 1.378 . S
C694 C698 1.350 . S
C695 C698 1.463 . S
C695 C700 1.350 . S
C695 N703 1.427 . S
C696 H687 0.930 . S
C696 C694 1.378 . S
C696 C697 1.367 . S
C697 C696 1.367 . S
C697 C699 1.433 . S
C698 C694 1.350 . S
C698 C695 1.463 . S
C698 N702 1.427 . S
C699 H689 0.929 . S
C699 C697 1.433 . S
C699 N702 1.384 . S
C700 H691 0.929 . S
C700 C692 1.378 . S
C700 C695 1.350 . S
C701 H688 0.929 . S
C701 C693 1.433 . S
C701 N703 1.384 . S
N702 C698 1.427 . S
N702 C699 1.384 . S
N703 C695 1.427 . S
N703 C701 1.384 . S
H704 C710 0.930 . S
H705 C714 0.930 . S
H706 C719 0.929 . S
H707 C717 0.929 . S
H708 C712 0.929 . S
H709 C718 0.929 . S
C710 H704 0.930 . S
C710 C711 1.367 . S
C710 C718 1.378 . S
C711 C710 1.367 . S
C711 C719 1.433 . S
C712 H708 0.929 . S
C712 C714 1.378 . S
C712 C716 1.350 . S
C713 C716 1.463 . S
C713 C718 1.350 . S
C713 N721 1.427 . S
C714 H705 0.930 . S
C714 C712 1.378 . S
C714 C715 1.367 . S
C715 C714 1.367 . S
C715 C717 1.433 . S
C716 C712 1.350 . S
C716 C713 1.463 . S
C716 N720 1.427 . S
C717 H707 0.929 . S
C717 C715 1.433 . S
C717 N720 1.384 . S
C718 H709 0.929 . S
C718 C710 1.378 . S
C718 C713 1.350 . S
C719 H706 0.929 . S
C719 C711 1.433 . S
C719 N721 1.384 . S
N720 C716 1.427 . S
N720 C717 1.384 . S
N721 C713 1.427 . S
N721 C719 1.384 . S
H722 C728 0.930 . S
H723 C732 0.930 . S
H724 C737 0.929 . S
H725 C735 0.929 . S
H726 C730 0.929 . S
H727 C736 0.929 . S
C728 H722 0.930 . S
C728 C729 1.367 . S
C728 C736 1.378 . S
C729 C728 1.367 . S
C729 C737 1.433 . S
C730 H726 0.929 . S
C730 C732 1.378 . S
C730 C734 1.350 . S
C731 C734 1.463 . S
C731 C736 1.350 . S
C731 N739 1.427 . S
C732 H723 0.930 . S
C732 C730 1.378 . S
C732 C733 1.367 . S
C733 C732 1.367 . S
C733 C735 1.433 . S
C734 C730 1.350 . S
C734 C731 1.463 . S
C734 N738 1.427 . S
C735 H725 0.929 . S
C735 C733 1.433 . S
C735 N738 1.384 . S
C736 H727 0.929 . S
C736 C728 1.378 . S
C736 C731 1.350 . S
C737 H724 0.929 . S
C737 C729 1.433 . S
C737 N739 1.384 . S
N738 C734 1.427 . S
N738 C735 1.384 . S
N739 C731 1.427 . S
N739 C737 1.384 . S
H740 C746 0.930 . S
H741 C750 0.930 . S
H742 C755 0.929 . S
H743 C753 0.929 . S
H744 C748 0.929 . S
H745 C754 0.929 . S
C746 H740 0.930 . S
C746 C747 1.367 . S
C746 C754 1.378 . S
C747 C746 1.367 . S
C747 C755 1.433 . S
C748 H744 0.929 . S
C748 C750 1.378 . S
C748 C752 1.350 . S
C749 C752 1.463 . S
C749 C754 1.350 . S
C749 N757 1.427 . S
C750 H741 0.930 . S
C750 C748 1.378 . S
C750 C751 1.367 . S
C751 C750 1.367 . S
C751 C753 1.433 . S
C752 C748 1.350 . S
C752 C749 1.463 . S
C752 N756 1.427 . S
C753 H743 0.929 . S
C753 C751 1.433 . S
C753 N756 1.384 . S
C754 H745 0.929 . S
C754 C746 1.378 . S
C754 C749 1.350 . S
C755 H742 0.929 . S
C755 C747 1.433 . S
C755 N757 1.384 . S
N756 C752 1.427 . S
N756 C753 1.384 . S
N757 C749 1.427 . S
N757 C755 1.384 . S
H758 C764 0.930 . S
H759 C768 0.930 . S
H760 C773 0.929 . S
H761 C771 0.929 . S
H762 C766 0.929 . S
H763 C772 0.929 . S
C764 H758 0.930 . S
C764 C765 1.367 . S
C764 C772 1.378 . S
C765 C764 1.367 . S
C765 C773 1.433 . S
C766 H762 0.929 . S
C766 C768 1.378 . S
C766 C770 1.350 . S
C767 C770 1.463 . S
C767 C772 1.350 . S
C767 N775 1.427 . S
C768 H759 0.930 . S
C768 C766 1.378 . S
C768 C769 1.367 . S
C769 C768 1.367 . S
C769 C771 1.433 . S
C770 C766 1.350 . S
C770 C767 1.463 . S
C770 N774 1.427 . S
C771 H761 0.929 . S
C771 C769 1.433 . S
C771 N774 1.384 . S
C772 H763 0.929 . S
C772 C764 1.378 . S
C772 C767 1.350 . S
C773 H760 0.929 . S
C773 C765 1.433 . S
C773 N775 1.384 . S
N774 C770 1.427 . S
N774 C771 1.384 . S
N775 C767 1.427 . S
N775 C773 1.384 . S
H776 C782 0.930 . S
H777 C786 0.930 . S
H778 C791 0.929 . S
H779 C789 0.929 . S
H780 C784 0.929 . S
H781 C790 0.929 . S
C782 H776 0.930 . S
C782 C783 1.367 . S
C782 C790 1.378 . S
C783 C782 1.367 . S
C783 C791 1.433 . S
C784 H780 0.929 . S
C784 C786 1.378 . S
C784 C788 1.350 . S
C785 C788 1.463 . S
C785 C790 1.350 . S
C785 N793 1.427 . S
C786 H777 0.930 . S
C786 C784 1.378 . S
C786 C787 1.367 . S
C787 C786 1.367 . S
C787 C789 1.433 . S
C788 C784 1.350 . S
C788 C785 1.463 . S
C788 N792 1.427 . S
C789 H779 0.929 . S
C789 C787 1.433 . S
C789 N792 1.384 . S
C790 H781 0.929 . S
C790 C782 1.378 . S
C790 C785 1.350 . S
C791 H778 0.929 . S
C791 C783 1.433 . S
C791 N793 1.384 . S
N792 C788 1.427 . S
N792 C789 1.384 . S
N793 C785 1.427 . S
N793 C791 1.384 . S
H794 C800 0.930 . S
H795 C804 0.930 . S
H796 C809 0.929 . S
H797 C807 0.929 . S
H798 C802 0.929 . S
H799 C808 0.929 . S
C800 H794 0.930 . S
C800 C801 1.367 . S
C800 C808 1.378 . S
C801 C800 1.367 . S
C801 C809 1.433 . S
C802 H798 0.929 . S
C802 C804 1.378 . S
C802 C806 1.350 . S
C803 C806 1.463 . S
C803 C808 1.350 . S
C803 N811 1.427 . S
C804 H795 0.930 . S
C804 C802 1.378 . S
C804 C805 1.367 . S
C805 C804 1.367 . S
C805 C807 1.433 . S
C806 C802 1.350 . S
C806 C803 1.463 . S
C806 N810 1.427 . S
C807 H797 0.929 . S
C807 C805 1.433 . S
C807 N810 1.384 . S
C808 H799 0.929 . S
C808 C800 1.378 . S
C808 C803 1.350 . S
C809 H796 0.929 . S
C809 C801 1.433 . S
C809 N811 1.384 . S
N810 C806 1.427 . S
N810 C807 1.384 . S
N811 C803 1.427 . S
N811 C809 1.384 . S
H812 C818 0.930 . S
H813 C822 0.930 1_655 S
H814 C827 0.929 . S
H815 C825 0.929 . S
H816 C820 0.929 . S
H817 C826 0.929 . S
C818 H812 0.930 . S
C818 C819 1.367 . S
C818 C826 1.378 . S
C819 C818 1.367 . S
C819 C827 1.433 . S
C820 H816 0.929 . S
C820 C822 1.378 . S
C820 C824 1.350 . S
C821 C824 1.463 . S
C821 C826 1.350 . S
C821 N829 1.427 . S
C822 H813 0.930 1_455 S
C822 C820 1.378 . S
C822 C823 1.367 . S
C823 C822 1.367 . S
C823 C825 1.433 . S
C824 C820 1.350 . S
C824 C821 1.463 . S
C824 N828 1.427 . S
C825 H815 0.929 . S
C825 C823 1.433 . S
C825 N828 1.384 . S
C826 H817 0.929 . S
C826 C818 1.378 . S
C826 C821 1.350 . S
C827 H814 0.929 . S
C827 C819 1.433 . S
C827 N829 1.384 . S
N828 C824 1.427 . S
N828 C825 1.384 . S
N829 C821 1.427 . S
N829 C827 1.384 . S
H830 C836 0.930 . S
H831 C840 0.930 . S
H832 C845 0.929 . S
H833 C843 0.929 . S
H834 C838 0.929 . S
H835 C844 0.929 . S
C836 H830 0.930 . S
C836 C837 1.367 . S
C836 C844 1.378 . S
C837 C836 1.367 . S
C837 C845 1.433 . S
C838 H834 0.929 . S
C838 C840 1.378 . S
C838 C842 1.350 . S
C839 C842 1.463 . S
C839 C844 1.350 . S
C839 N847 1.427 . S
C840 H831 0.930 . S
C840 C838 1.378 . S
C840 C841 1.367 . S
C841 C840 1.367 . S
C841 C843 1.433 . S
C842 C838 1.350 . S
C842 C839 1.463 . S
C842 N846 1.427 . S
C843 H833 0.929 . S
C843 C841 1.433 . S
C843 N846 1.384 . S
C844 H835 0.929 . S
C844 C836 1.378 . S
C844 C839 1.350 . S
C845 H832 0.929 . S
C845 C837 1.433 . S
C845 N847 1.384 . S
N846 C842 1.427 . S
N846 C843 1.384 . S
N847 C839 1.427 . S
N847 C845 1.384 . S
C423 C29 1.179 . S
C427 C273 1.183 . S
C441 C49 1.033 . S
C445 C313 1.125 . S
C463 C338 2.433 . S
C459 C93 2.439 . S
C477 C119 2.351 . S
C481 C378 2.339 . S
C499 C309 1.678 . S
C495 C17 1.668 . S
C517 C269 1.745 . S
C513 C61 1.548 . S
C535 C400 1.694 . S
C531 C81 1.686 . S
C553 C360 1.724 . S
C549 C125 1.713 . S
C567 C23 1.318 . S
C571 C402 1.298 . S
C589 C319 2.133 . S
C585 C87 2.123 . S
C603 C113 2.186 . S
C607 C279 2.177 . S
C621 C55 1.209 . S
C625 C362 1.339 . S
C643 C282 1.172 . S
C639 C157 1.065 . S
C657 C189 1.190 . S
C661 C322 1.173 . S
C675 C221 2.426 . S
C679 C359 2.391 . S
C693 C253 2.412 . S
C697 C399 2.418 . S
C711 C145 1.602 . S
C715 C320 1.771 . S
C733 C280 1.711 . S
C729 C183 1.704 . S
C751 C389 1.727 . S
C747 C209 1.710 . S
C769 C349 1.683 . S
C765 C247 1.677 . S
C783 C151 1.217 . S
C787 C393 1.326 . S
C805 C298 2.126 . S
C801 C215 2.138 . S
C823 C258 2.148 . S
C819 C241 2.131 . S
C837 C177 1.355 . S
C841 C353 1.332 . S
