# Generated by pormake.
# Topology ptr, (4,4)-cn, num edge types: 1
# Building blocks:
#     Node 0, Type 0, BuildingBlock: QUQFOY_clean_sbu_1, # of connection points: 4
#     Node 1, Type 0, BuildingBlock: QUQFOY_clean_sbu_1, # of connection points: 4
#     Node 2, Type 0, BuildingBlock: QUQFOY_clean_sbu_1, # of connection points: 4
#     Node 3, Type 0, BuildingBlock: QUQFOY_clean_sbu_1, # of connection points: 4
#     Node 4, Type 0, BuildingBlock: QUQFOY_clean_sbu_1, # of connection points: 4
#     Node 5, Type 0, BuildingBlock: QUQFOY_clean_sbu_1, # of connection points: 4
#     Node 6, Type 0, BuildingBlock: QUQFOY_clean_sbu_1, # of connection points: 4
#     Node 7, Type 0, BuildingBlock: QUQFOY_clean_sbu_1, # of connection points: 4
#     Node 8, Type 0, BuildingBlock: QUQFOY_clean_sbu_1, # of connection points: 4
#     Node 9, Type 0, BuildingBlock: QUQFOY_clean_sbu_1, # of connection points: 4
#     Node 10, Type 0, BuildingBlock: QUQFOY_clean_sbu_1, # of connection points: 4
#     Node 11, Type 0, BuildingBlock: QUQFOY_clean_sbu_1, # of connection points: 4
#     Node 12, Type 0, BuildingBlock: QUQFOY_clean_sbu_1, # of connection points: 4
#     Node 13, Type 0, BuildingBlock: QUQFOY_clean_sbu_1, # of connection points: 4
#     Node 14, Type 0, BuildingBlock: QUQFOY_clean_sbu_1, # of connection points: 4
#     Node 15, Type 0, BuildingBlock: QUQFOY_clean_sbu_1, # of connection points: 4
#     Node 16, Type 0, BuildingBlock: QUQFOY_clean_sbu_1, # of connection points: 4
#     Node 17, Type 0, BuildingBlock: QUQFOY_clean_sbu_1, # of connection points: 4
#     Node 18, Type 1, BuildingBlock: MIFKUJ_clean_linker_1, # of connection points: 4
#     Node 19, Type 1, BuildingBlock: MIFKUJ_clean_linker_1, # of connection points: 4
#     Node 20, Type 1, BuildingBlock: MIFKUJ_clean_linker_1, # of connection points: 4
#     Node 21, Type 1, BuildingBlock: MIFKUJ_clean_linker_1, # of connection points: 4
#     Node 22, Type 1, BuildingBlock: MIFKUJ_clean_linker_1, # of connection points: 4
#     Node 23, Type 1, BuildingBlock: MIFKUJ_clean_linker_1, # of connection points: 4
#     Node 24, Type 1, BuildingBlock: MIFKUJ_clean_linker_1, # of connection points: 4
#     Node 25, Type 1, BuildingBlock: MIFKUJ_clean_linker_1, # of connection points: 4
#     Node 26, Type 1, BuildingBlock: MIFKUJ_clean_linker_1, # of connection points: 4
#     Node 27, Type 1, BuildingBlock: MIFKUJ_clean_linker_1, # of connection points: 4
#     Node 28, Type 1, BuildingBlock: MIFKUJ_clean_linker_1, # of connection points: 4
#     Node 29, Type 1, BuildingBlock: MIFKUJ_clean_linker_1, # of connection points: 4
#     Node 30, Type 1, BuildingBlock: MIFKUJ_clean_linker_1, # of connection points: 4
#     Node 31, Type 1, BuildingBlock: MIFKUJ_clean_linker_1, # of connection points: 4
#     Node 32, Type 1, BuildingBlock: MIFKUJ_clean_linker_1, # of connection points: 4
#     Node 33, Type 1, BuildingBlock: MIFKUJ_clean_linker_1, # of connection points: 4
#     Node 34, Type 1, BuildingBlock: MIFKUJ_clean_linker_1, # of connection points: 4
#     Node 35, Type 1, BuildingBlock: MIFKUJ_clean_linker_1, # of connection points: 4
#     Edge 36, Type (0, 1), BuildingBlock: AJUNOK_clean_linker_0, # of connection points: 2
#     Edge 37, Type (0, 1), BuildingBlock: AJUNOK_clean_linker_0, # of connection points: 2
#     Edge 38, Type (0, 1), BuildingBlock: AJUNOK_clean_linker_0, # of connection points: 2
#     Edge 39, Type (0, 1), BuildingBlock: AJUNOK_clean_linker_0, # of connection points: 2
#     Edge 40, Type (0, 1), BuildingBlock: AJUNOK_clean_linker_0, # of connection points: 2
#     Edge 41, Type (0, 1), BuildingBlock: AJUNOK_clean_linker_0, # of connection points: 2
#     Edge 42, Type (0, 1), BuildingBlock: AJUNOK_clean_linker_0, # of connection points: 2
#     Edge 43, Type (0, 1), BuildingBlock: AJUNOK_clean_linker_0, # of connection points: 2
#     Edge 44, Type (0, 1), BuildingBlock: AJUNOK_clean_linker_0, # of connection points: 2
#     Edge 45, Type (0, 1), BuildingBlock: AJUNOK_clean_linker_0, # of connection points: 2
#     Edge 46, Type (0, 1), BuildingBlock: AJUNOK_clean_linker_0, # of connection points: 2
#     Edge 47, Type (0, 1), BuildingBlock: AJUNOK_clean_linker_0, # of connection points: 2
#     Edge 48, Type (0, 1), BuildingBlock: AJUNOK_clean_linker_0, # of connection points: 2
#     Edge 49, Type (0, 1), BuildingBlock: AJUNOK_clean_linker_0, # of connection points: 2
#     Edge 50, Type (0, 1), BuildingBlock: AJUNOK_clean_linker_0, # of connection points: 2
#     Edge 51, Type (0, 1), BuildingBlock: AJUNOK_clean_linker_0, # of connection points: 2
#     Edge 52, Type (0, 1), BuildingBlock: AJUNOK_clean_linker_0, # of connection points: 2
#     Edge 53, Type (0, 1), BuildingBlock: AJUNOK_clean_linker_0, # of connection points: 2
#     Edge 54, Type (0, 1), BuildingBlock: AJUNOK_clean_linker_0, # of connection points: 2
#     Edge 55, Type (0, 1), BuildingBlock: AJUNOK_clean_linker_0, # of connection points: 2
#     Edge 56, Type (0, 1), BuildingBlock: AJUNOK_clean_linker_0, # of connection points: 2
#     Edge 57, Type (0, 1), BuildingBlock: AJUNOK_clean_linker_0, # of connection points: 2
#     Edge 58, Type (0, 1), BuildingBlock: AJUNOK_clean_linker_0, # of connection points: 2
#     Edge 59, Type (0, 1), BuildingBlock: AJUNOK_clean_linker_0, # of connection points: 2
#     Edge 60, Type (0, 1), BuildingBlock: AJUNOK_clean_linker_0, # of connection points: 2
#     Edge 61, Type (0, 1), BuildingBlock: AJUNOK_clean_linker_0, # of connection points: 2
#     Edge 62, Type (0, 1), BuildingBlock: AJUNOK_clean_linker_0, # of connection points: 2
#     Edge 63, Type (0, 1), BuildingBlock: AJUNOK_clean_linker_0, # of connection points: 2
#     Edge 64, Type (0, 1), BuildingBlock: AJUNOK_clean_linker_0, # of connection points: 2
#     Edge 65, Type (0, 1), BuildingBlock: AJUNOK_clean_linker_0, # of connection points: 2
#     Edge 66, Type (0, 1), BuildingBlock: AJUNOK_clean_linker_0, # of connection points: 2
#     Edge 67, Type (0, 1), BuildingBlock: AJUNOK_clean_linker_0, # of connection points: 2
#     Edge 68, Type (0, 1), BuildingBlock: AJUNOK_clean_linker_0, # of connection points: 2
#     Edge 69, Type (0, 1), BuildingBlock: AJUNOK_clean_linker_0, # of connection points: 2
#     Edge 70, Type (0, 1), BuildingBlock: AJUNOK_clean_linker_0, # of connection points: 2
#     Edge 71, Type (0, 1), BuildingBlock: AJUNOK_clean_linker_0, # of connection points: 2
#     Edge 72, Type (0, 1), BuildingBlock: AJUNOK_clean_linker_0, # of connection points: 2
#     Edge 73, Type (0, 1), BuildingBlock: AJUNOK_clean_linker_0, # of connection points: 2
#     Edge 74, Type (0, 1), BuildingBlock: AJUNOK_clean_linker_0, # of connection points: 2
#     Edge 75, Type (0, 1), BuildingBlock: AJUNOK_clean_linker_0, # of connection points: 2
#     Edge 76, Type (0, 1), BuildingBlock: AJUNOK_clean_linker_0, # of connection points: 2
#     Edge 77, Type (0, 1), BuildingBlock: AJUNOK_clean_linker_0, # of connection points: 2
#     Edge 78, Type (0, 1), BuildingBlock: AJUNOK_clean_linker_0, # of connection points: 2
#     Edge 79, Type (0, 1), BuildingBlock: AJUNOK_clean_linker_0, # of connection points: 2
#     Edge 80, Type (0, 1), BuildingBlock: AJUNOK_clean_linker_0, # of connection points: 2
#     Edge 81, Type (0, 1), BuildingBlock: AJUNOK_clean_linker_0, # of connection points: 2
#     Edge 82, Type (0, 1), BuildingBlock: AJUNOK_clean_linker_0, # of connection points: 2
#     Edge 83, Type (0, 1), BuildingBlock: AJUNOK_clean_linker_0, # of connection points: 2
#     Edge 84, Type (0, 1), BuildingBlock: AJUNOK_clean_linker_0, # of connection points: 2
#     Edge 85, Type (0, 1), BuildingBlock: AJUNOK_clean_linker_0, # of connection points: 2
#     Edge 86, Type (0, 1), BuildingBlock: AJUNOK_clean_linker_0, # of connection points: 2
#     Edge 87, Type (0, 1), BuildingBlock: AJUNOK_clean_linker_0, # of connection points: 2
#     Edge 88, Type (0, 1), BuildingBlock: AJUNOK_clean_linker_0, # of connection points: 2
#     Edge 89, Type (0, 1), BuildingBlock: AJUNOK_clean_linker_0, # of connection points: 2
#     Edge 90, Type (0, 1), BuildingBlock: AJUNOK_clean_linker_0, # of connection points: 2
#     Edge 91, Type (0, 1), BuildingBlock: AJUNOK_clean_linker_0, # of connection points: 2
#     Edge 92, Type (0, 1), BuildingBlock: AJUNOK_clean_linker_0, # of connection points: 2
#     Edge 93, Type (0, 1), BuildingBlock: AJUNOK_clean_linker_0, # of connection points: 2
#     Edge 94, Type (0, 1), BuildingBlock: AJUNOK_clean_linker_0, # of connection points: 2
#     Edge 95, Type (0, 1), BuildingBlock: AJUNOK_clean_linker_0, # of connection points: 2
#     Edge 96, Type (0, 1), BuildingBlock: AJUNOK_clean_linker_0, # of connection points: 2
#     Edge 97, Type (0, 1), BuildingBlock: AJUNOK_clean_linker_0, # of connection points: 2
#     Edge 98, Type (0, 1), BuildingBlock: AJUNOK_clean_linker_0, # of connection points: 2
#     Edge 99, Type (0, 1), BuildingBlock: AJUNOK_clean_linker_0, # of connection points: 2
#     Edge 100, Type (0, 1), BuildingBlock: AJUNOK_clean_linker_0, # of connection points: 2
#     Edge 101, Type (0, 1), BuildingBlock: AJUNOK_clean_linker_0, # of connection points: 2
#     Edge 102, Type (0, 1), BuildingBlock: AJUNOK_clean_linker_0, # of connection points: 2
#     Edge 103, Type (0, 1), BuildingBlock: AJUNOK_clean_linker_0, # of connection points: 2
#     Edge 104, Type (0, 1), BuildingBlock: AJUNOK_clean_linker_0, # of connection points: 2
#     Edge 105, Type (0, 1), BuildingBlock: AJUNOK_clean_linker_0, # of connection points: 2
#     Edge 106, Type (0, 1), BuildingBlock: AJUNOK_clean_linker_0, # of connection points: 2
#     Edge 107, Type (0, 1), BuildingBlock: AJUNOK_clean_linker_0, # of connection points: 2
# Relax obj value: 0.011
# Max RMSD: 0.046
# Mean RMSD: 0.040
data_MOF--net-ptr--node1-QUQFOY_clean_sbu_1--node2-MIFKUJ_clean_linker_1--edge1-AJUNOK_clean_linker_0
_symmetry_space_group_name_H-M    P1
_symmetry_Int_Tables_number       1
_symmetry_cell_setting            triclinic
loop_
_symmetry_equiv_pos_as_xyz
'x, y, z'
_cell_length_a     72.209403
_cell_length_b     72.174994
_cell_length_c     48.934055
_cell_angle_alpha  90.076061
_cell_angle_beta   89.979465
_cell_angle_gamma 119.96679
loop_
_atom_site_label
_atom_site_type_symbol
_atom_site_fract_x
_atom_site_fract_y
_atom_site_fract_z
_atom_type_partial_charge
O0 O 0.0178 0.38869 0.06643 0.0
Cd1 Cd 0.02763 0.37831 0.03296 0.0
Cd2 Cd 0.98429 0.35592 0.02405 0.0
O3 O 0.98283 0.36843 0.06172 0.0
O4 O 0.0581 0.38778 0.04157 0.0
O5 O 0.03325 0.35378 0.03869 0.0
C6 C 0.05286 0.36797 0.04387 0.0
C7 C 0.96338 0.31985 0.01216 0.0
C8 C 0.99895 0.3824 0.07498 0.0
C9 C 0.01131 0.3891 0.98222 0.0
O10 O 0.99269 0.37631 0.99125 0.0
O11 O 0.02772 0.39148 0.99501 0.0
O12 O 0.95499 0.33182 0.0156 0.0
O13 O 0.98356 0.32802 0.01706 0.0
O14 O 0.61889 0.62735 0.06086 0.0
Cd15 Cd 0.6296 0.64885 0.02918 0.0
Cd16 Cd 0.65118 0.62741 0.01741 0.0
O17 O 0.6394 0.61306 0.05529 0.0
O18 O 0.62148 0.67022 0.04138 0.0
O19 O 0.65501 0.67837 0.03532 0.0
C20 C 0.64153 0.68417 0.04298 0.0
C21 C 0.68699 0.64023 1.00509 0.0
C22 C 0.62521 0.61468 0.06881 0.0
C23 C 0.61701 0.62342 0.97756 0.0
O24 O 0.63006 0.61731 0.98469 0.0
O25 O 0.61502 0.63708 0.99181 0.0
O26 O 0.67338 0.62005 1.00647 0.0
O27 O 0.68045 0.65331 0.01191 0.0
O28 O 0.3895 0.01415 0.98828 0.0
Cd29 Cd 0.37961 0.02469 0.02116 0.0
Cd30 Cd 0.35826 0.98157 0.03212 0.0
O31 O 0.3706 0.97932 0.99456 0.0
O32 O 0.38784 0.05432 1.00999 0.0
O33 O 0.35428 0.02907 0.01619 0.0
C34 C 0.36781 0.04839 1.00882 0.0
C35 C 0.32251 0.95835 0.04381 0.0
C36 C 0.38384 0.99528 0.98044 0.0
C37 C 0.39183 0.01142 0.07269 0.0
O38 O 0.37859 0.99238 0.06541 0.0
O39 O 0.39458 0.02721 0.0582 0.0
O40 O 0.33635 0.95204 0.0431 0.0
O41 O 0.32877 0.97781 0.03652 0.0
O42 O 0.99074 0.61866 0.98768 0.0
Cd43 Cd 0.98375 0.63127 0.02142 0.0
Cd44 Cd 0.02629 0.65145 0.02597 0.0
O45 O 0.02562 0.64009 0.98681 0.0
O46 O 0.95357 0.62397 0.01476 0.0
O47 O 0.98053 0.65715 0.01503 0.0
C48 C 0.96042 0.64405 0.01107 0.0
C49 C 0.04647 0.68734 0.03856 0.0
C50 C 0.00866 0.62526 0.97594 0.0
C51 C 1.00119 0.61924 0.06932 0.0
O52 O 0.01922 0.63008 0.05761 0.0
O53 O 0.98476 0.61902 0.0595 0.0
O54 O 0.05545 0.67615 0.03317 0.0
O55 O 0.02602 0.67845 0.03536 0.0
O56 O 0.39296 0.38193 0.98725 0.0
Cd57 Cd 0.38445 0.36105 0.01964 0.0
Cd58 Cd 0.36231 0.38261 0.03414 0.0
O59 O 0.37516 0.39853 0.99757 0.0
O60 O 0.39378 0.34078 1.00675 0.0
O61 O 0.35994 0.33082 0.01412 0.0
C62 C 0.37398 0.32605 1.00558 0.0
C63 C 0.32684 0.37207 0.04573 0.0
C64 C 0.38759 0.3958 0.98176 0.0
C65 C 0.39635 0.38512 0.07304 0.0
O66 O 0.38247 0.39045 0.06733 0.0
O67 O 0.3997 0.37324 0.05691 0.0
O68 O 0.34167 0.39186 0.04569 0.0
O69 O 0.33199 0.35807 0.03821 0.0
O70 O 0.62041 0.99396 0.06523 0.0
Cd71 Cd 0.62971 0.98195 0.03297 0.0
Cd72 Cd 0.65255 0.02635 0.02119 0.0
O73 O 0.63979 0.02881 0.05817 0.0
O74 O 0.61993 0.95213 0.04532 0.0
O75 O 0.65399 0.97607 0.03953 0.0
C76 C 0.63969 0.95717 0.0474 0.0
C77 C 0.68739 0.05148 1.00737 0.0
C78 C 0.62639 0.01306 0.07244 0.0
C79 C 0.61911 0.99586 0.98038 0.0
O80 O 0.6321 0.01473 0.9884 0.0
O81 O 0.61598 0.97984 0.99473 0.0
O82 O 0.67245 0.05623 1.00901 0.0
O83 O 0.68298 0.03269 0.01552 0.0
O84 O 0.68403 0.72332 0.40029 0.0
Cd85 Cd 0.69503 0.71414 0.36693 0.0
Cd86 Cd 0.65177 0.69212 0.35454 0.0
O87 O 0.64936 0.70473 0.39186 0.0
O88 O 0.72485 0.72201 0.37726 0.0
O89 O 0.69918 0.6886 0.3714 0.0
C90 C 0.71872 0.70191 0.37822 0.0
C91 C 0.63026 0.65608 0.34269 0.0
C92 C 0.6649 0.71757 0.40693 0.0
C93 C 0.6812 0.726 0.31473 0.0
O94 O 0.66214 0.71241 0.3214 0.0
O95 O 0.69687 0.729 0.32975 0.0
O96 O 0.62244 0.66864 0.34476 0.0
O97 O 0.65017 0.66366 0.34883 0.0
O98 O 0.28256 0.96184 0.39069 0.0
Cd99 Cd 0.29541 0.98329 0.35877 0.0
Cd100 Cd 0.3156 0.95995 0.35196 0.0
O101 O 0.30379 0.9481 0.39062 0.0
O102 O 0.28669 0.00483 0.36789 0.0
O103 O 0.32037 0.01274 0.36707 0.0
C104 C 0.30652 0.01869 0.3719 0.0
C105 C 0.35045 0.96987 0.33816 0.0
C106 C 0.28865 0.94975 0.40145 0.0
C107 C 0.28325 0.95583 0.30924 0.0
O108 O 0.29394 0.94815 0.32013 0.0
O109 O 0.2832 0.97184 0.32008 0.0
O110 O 0.33609 0.95015 0.34186 0.0
O111 O 0.34545 0.98428 0.34412 0.0
O112 O 0.05782 0.34878 0.32168 0.0
Cd113 Cd 0.04721 0.3592 0.35412 0.0
Cd114 Cd 0.02502 0.31537 0.36266 0.0
O115 O 0.03699 0.31384 0.3247 0.0
O116 O 0.05765 0.38944 0.34344 0.0
O117 O 0.02335 0.36557 0.34693 0.0
C118 C 0.03805 0.38465 0.34028 0.0
C119 C 0.98971 0.29145 0.3754 0.0
C120 C 0.05141 0.33013 0.31224 0.0
C121 C 0.05814 0.34389 0.40481 0.0
O122 O 0.04579 0.32528 0.39533 0.0
O123 O 0.06024 0.36027 0.39231 0.0
O124 O 1.00377 0.28551 0.37326 0.0
O125 O 0.9954 0.31089 0.36874 0.0
O126 O 0.66444 0.95276 0.31672 0.0
Cd127 Cd 0.65089 0.96006 0.34897 0.0
Cd128 Cd 0.69437 0.98144 0.36529 0.0
O129 O 0.69852 0.96932 0.32864 0.0
O130 O 0.62149 0.94995 0.33479 0.0
O131 O 0.64408 0.98388 0.34392 0.0
C132 C 0.62576 0.96953 0.3344 0.0
C133 C 0.71804 0.01673 0.37885 0.0
C134 C 0.68368 0.95783 0.31188 0.0
C135 C 0.66161 0.94661 0.40217 0.0
O136 O 0.68096 0.96055 0.39748 0.0
O137 O 0.64687 0.94386 0.38559 0.0
O138 O 0.72345 1.0022 0.37929 0.0
O139 O 0.69933 0.01145 0.36942 0.0
O140 O 0.06137 0.71534 0.32468 0.0
Cd141 Cd 0.04972 0.6936 0.35606 0.0
Cd142 Cd 0.02851 0.71578 0.36598 0.0
O143 O 0.041 0.72993 0.32825 0.0
O144 O 0.05935 0.67326 0.34453 0.0
O145 O 0.02529 0.66371 0.34804 0.0
C146 C 0.03962 0.65888 0.34108 0.0
C147 C 0.99259 0.703 0.3775 0.0
C148 C 0.05559 0.72821 0.31589 0.0
C149 C 0.06157 0.71942 0.4074 0.0
O150 O 0.04914 0.72598 0.39914 0.0
O151 O 0.06332 0.70524 0.39401 0.0
O152 O 0.00618 0.72319 0.37597 0.0
O153 O 0.99922 0.6899 0.37117 0.0
O154 O 0.28869 0.32418 0.39453 0.0
Cd155 Cd 0.30216 0.31725 0.3617 0.0
Cd156 Cd 0.3228 0.36011 0.3561 0.0
O157 O 0.31014 0.35911 0.39459 0.0
O158 O 0.29682 0.28765 0.36818 0.0
O159 O 0.32908 0.31635 0.36973 0.0
C160 C 0.317 0.29594 0.37285 0.0
C161 C 0.3586 0.38353 0.34497 0.0
C162 C 0.29506 0.34236 0.40553 0.0
C163 C 0.29114 0.33397 0.31224 0.0
O164 O 0.30232 0.35223 0.32327 0.0
O165 O 0.29018 0.31752 0.32317 0.0
O166 O 0.34546 0.39038 0.34942 0.0
O167 O 0.35168 0.36334 0.3482 0.0
O168 O 0.35569 0.06091 0.72859 0.0
Cd169 Cd 0.36433 0.04827 0.6964 0.0
Cd170 Cd 0.32131 0.02542 0.68991 0.0
O171 O 0.32119 0.03765 0.72841 0.0
O172 O 0.39451 0.05625 0.70467 0.0
O173 O 0.36809 0.02281 0.70405 0.0
C174 C 0.38808 0.03626 0.70845 0.0
C175 C 0.29854 0.98941 0.67879 0.0
C176 C 0.33731 0.0535 0.73937 0.0
C177 C 0.34707 0.05789 0.64636 0.0
O178 O 0.32883 0.04591 0.65704 0.0
O179 O 0.36382 0.05986 0.65773 0.0
O180 O 0.29125 1.00221 0.68312 0.0
O181 O 0.31881 0.99679 0.68191 0.0
O182 O 0.95301 0.29561 0.72867 0.0
Cd183 Cd 0.96417 0.3169 0.69668 0.0
Cd184 Cd 0.98539 0.29466 0.68538 0.0
O185 O 0.97313 0.28084 0.72337 0.0
O186 O 0.95654 0.33895 0.70746 0.0
O187 O 0.9899 0.34618 0.7031 0.0
C188 C 0.97666 0.35257 0.70964 0.0
C189 C 0.0208 0.30509 0.67322 0.0
C190 C 0.95906 0.28277 0.73678 0.0
C191 C 0.95152 0.29105 0.64526 0.0
O192 O 0.96436 0.28475 0.65261 0.0
O193 O 0.94972 0.30493 0.65927 0.0
O194 O 0.00621 0.28527 0.67505 0.0
O195 O 0.01549 0.31923 0.67936 0.0
O196 O 0.72527 0.68295 0.65478 0.0
Cd197 Cd 0.71439 0.6932 0.68713 0.0
Cd198 Cd 0.69145 0.64925 0.69487 0.0
O199 O 0.70391 0.64805 0.65712 0.0
O200 O 0.72443 0.72343 0.67678 0.0
O201 O 0.69023 0.69907 0.67987 0.0
C202 C 0.70473 0.71831 0.67349 0.0
C203 C 0.656 0.62516 0.70691 0.0
C204 C 0.71867 0.66435 0.64505 0.0
C205 C 0.72399 0.67709 0.73806 0.0
O206 O 0.71165 0.65868 0.7281 0.0
O207 O 0.72682 0.69378 0.7256 0.0
O208 O 0.67011 0.61926 0.70486 0.0
O209 O 0.66172 0.64465 0.70048 0.0
O210 O 0.32512 0.28231 0.65652 0.0
Cd211 Cd 0.3171 0.29532 0.68893 0.0
Cd212 Cd 0.36043 0.3155 0.69446 0.0
O213 O 0.36001 0.30366 0.65563 0.0
O214 O 0.28667 0.28643 0.68103 0.0
O215 O 0.31234 0.32018 0.68115 0.0
C216 C 0.29246 0.30623 0.67709 0.0
C217 C 0.38499 0.35039 0.70841 0.0
C218 C 0.34309 0.28843 0.64516 0.0
C219 C 0.33328 0.2835 0.73779 0.0
O220 O 0.35139 0.29397 0.72624 0.0
O221 O 0.31707 0.28346 0.72756 0.0
O222 O 0.3907 0.33635 0.704 0.0
O223 O 0.36546 0.34512 0.70287 0.0
O224 O 0.72347 0.04727 0.65303 0.0
Cd225 Cd 0.71415 0.02689 0.68627 0.0
Cd226 Cd 0.69079 0.04661 0.69601 0.0
O227 O 0.70193 0.0605 0.65818 0.0
O228 O 0.72277 0.00558 0.67535 0.0
O229 O 0.6891 0.99696 0.68134 0.0
C230 C 0.70278 0.99132 0.67403 0.0
C231 C 0.655 0.03287 0.70919 0.0
C232 C 0.71632 0.0592 0.64476 0.0
C233 C 0.72606 0.05456 0.73611 0.0
O234 O 0.71244 0.05943 0.72751 0.0
O235 O 0.72841 0.04028 0.72382 0.0
O236 O 0.66791 0.05311 0.70646 0.0
O237 O 0.66219 0.02017 0.70316 0.0
O238 O 0.95345 0.65637 0.72837 0.0
Cd239 Cd 0.96488 0.64755 0.69506 0.0
Cd240 Cd 0.98682 0.69211 0.68915 0.0
O241 O 0.97403 0.69148 0.72741 0.0
O242 O 0.95579 0.61706 0.70292 0.0
O243 O 0.98965 0.64247 0.70163 0.0
C244 C 0.97562 0.62267 0.70609 0.0
C245 C 0.02153 0.71815 0.67658 0.0
C246 C 0.95964 0.67462 0.73902 0.0
C247 C 0.95485 0.66464 0.6452 0.0
O248 O 0.96658 0.68286 0.65601 0.0
O249 O 0.95258 0.64785 0.65674 0.0
O250 O 0.00662 0.72276 0.6802 0.0
O251 O 0.01721 0.69891 0.68223 0.0
H252 H 0.15742 0.35665 0.21315 0.0
H253 H 0.12997 0.35521 0.24352 0.0
H254 H 0.08164 0.30082 0.19893 0.0
H255 H 0.10946 0.30215 0.16852 0.0
H256 H 0.16814 0.32648 0.20793 0.0
H257 H 0.14504 0.36406 0.15167 0.0
H258 H 0.12074 0.37175 0.12582 0.0
H259 H 0.10476 0.31774 0.07323 0.0
H260 H 0.12891 0.30976 0.09967 0.0
H261 H 0.1922 0.31135 0.09969 0.0
H262 H 0.22471 0.3203 0.07358 0.0
H263 H 0.26128 0.37423 0.1269 0.0
H264 H 0.22887 0.36568 0.15228 0.0
H265 H 0.17277 0.33556 0.10733 0.0
H266 H 0.2058 0.30539 0.16792 0.0
H267 H 0.23307 0.30554 0.19819 0.0
H268 H 0.23426 0.35685 0.24512 0.0
H269 H 0.20767 0.35703 0.21466 0.0
C270 C 0.13552 0.32947 0.18861 0.0
C271 C 0.14092 0.34445 0.20977 0.0
C272 C 0.1252 0.34368 0.22704 0.0
C273 C 0.10369 0.32783 0.22368 0.0
C274 C 0.09814 0.31305 0.20215 0.0
C275 C 0.11396 0.3139 0.18466 0.0
C276 C 0.15283 0.32967 0.172 0.0
C277 C 0.16918 0.32849 0.1859 0.0
C278 C 0.15398 0.33207 0.14325 0.0
C279 C 0.13863 0.33616 0.12785 0.0
C280 C 0.13613 0.35367 0.13482 0.0
C281 C 0.12244 0.35822 0.11981 0.0
C282 C 0.11107 0.3455 0.09729 0.0
C283 C 0.11335 0.32781 0.09048 0.0
C284 C 0.12716 0.32329 0.1055 0.0
C285 C 0.20811 0.33769 0.12814 0.0
C286 C 0.20724 0.3251 0.10571 0.0
C287 C 0.22579 0.33017 0.09088 0.0
C288 C 0.24546 0.3481 0.09802 0.0
C289 C 0.24629 0.36054 0.1206 0.0
C290 C 0.22781 0.3555 0.13536 0.0
C291 C 0.18842 0.33289 0.14344 0.0
C292 C 0.1715 0.33303 0.12925 0.0
C293 C 0.18717 0.33054 0.17222 0.0
C294 C 0.20464 0.33117 0.18905 0.0
C295 C 0.21216 0.31683 0.18453 0.0
C296 C 0.22757 0.31679 0.20197 0.0
C297 C 0.23566 0.33109 0.22418 0.0
C298 C 0.22844 0.34572 0.22814 0.0
C299 C 0.21312 0.34573 0.21083 0.0
H300 H 0.7244 0.89451 0.19181 0.0
H301 H 0.72556 0.92161 0.22317 0.0
H302 H 0.65703 0.89322 0.21568 0.0
H303 H 0.65626 0.86707 0.1834 0.0
H304 H 0.69797 0.84881 0.20251 0.0
H305 H 0.7058 0.90165 0.13557 0.0
H306 H 0.69553 0.92543 0.11293 0.0
H307 H 0.63586 0.87063 0.08815 0.0
H308 H 0.6455 0.8471 0.11217 0.0
H309 H 0.64624 0.79823 0.11046 0.0
H310 H 0.63798 0.76601 0.0849 0.0
H311 H 0.697 0.77083 0.11276 0.0
H312 H 0.706 0.80403 0.13668 0.0
H313 H 0.67361 0.83667 0.10614 0.0
H314 H 0.65495 0.78965 0.18402 0.0
H315 H 0.65446 0.76427 0.21726 0.0
H316 H 0.72329 0.80174 0.2239 0.0
H317 H 0.72339 0.82786 0.19181 0.0
C318 C 0.6903 0.87901 0.18498 0.0
C319 C 0.70974 0.8945 0.19651 0.0
C320 C 0.71034 0.90988 0.21453 0.0
C321 C 0.69144 0.90985 0.2217 0.0
C322 C 0.67202 0.8943 0.20994 0.0
C323 C 0.67149 0.87918 0.19161 0.0
C324 C 0.68921 0.8614 0.16815 0.0
C325 C 0.69314 0.84639 0.1812 0.0
C326 C 0.68183 0.8578 0.14078 0.0
C327 C 0.67628 0.87252 0.12613 0.0
C328 C 0.69035 0.89475 0.12567 0.0
C329 C 0.68458 0.90834 0.11242 0.0
C330 C 0.66471 0.89997 0.09914 0.0
C331 C 0.65102 0.87768 0.09883 0.0
C332 C 0.65666 0.86416 0.11231 0.0
C333 C 0.67672 0.80364 0.12577 0.0
C334 C 0.6576 0.79258 0.11083 0.0
C335 C 0.65279 0.77401 0.09635 0.0
C336 C 0.66688 0.76586 0.09657 0.0
C337 C 0.68599 0.77688 0.1116 0.0
C338 C 0.69096 0.79568 0.12579 0.0
C339 C 0.68176 0.82367 0.14073 0.0
C340 C 0.67876 0.83922 0.1273 0.0
C341 C 0.68889 0.82731 0.16821 0.0
C342 C 0.68922 0.8105 0.18525 0.0
C343 C 0.66996 0.79217 0.19227 0.0
C344 C 0.66976 0.77755 0.21115 0.0
C345 C 0.68889 0.78068 0.22301 0.0
C346 C 0.70825 0.79883 0.21529 0.0
C347 C 0.70838 0.8137 0.19681 0.0
H348 H 0.11773 0.83306 0.19985 0.0
H349 H 0.09419 0.8077 0.23441 0.0
H350 H 0.10786 0.75999 0.20259 0.0
H351 H 0.13248 0.78571 0.16959 0.0
H352 H 0.15871 0.84835 0.19983 0.0
H353 H 0.10553 0.81259 0.12405 0.0
H354 H 0.08029 0.78104 0.09778 0.0
H355 H 0.12814 0.76196 0.09077 0.0
H356 H 0.15358 0.79426 0.11515 0.0
H357 H 0.20569 0.84855 0.10368 0.0
H358 H 0.23805 0.8727 0.07862 0.0
H359 H 0.23447 0.92683 0.10985 0.0
H360 H 0.20116 0.90249 0.13338 0.0
H361 H 0.16707 0.83804 0.10144 0.0
H362 H 0.22072 0.87162 0.16965 0.0
H363 H 0.24768 0.89747 0.20085 0.0
H364 H 0.20197 0.91461 0.23084 0.0
H365 H 0.17546 0.88968 0.19847 0.0
C366 C 0.12688 0.81137 0.18185 0.0
C367 C 0.11543 0.81703 0.20005 0.0
C368 C 0.10188 0.8025 0.21973 0.0
C369 C 0.0995 0.78199 0.22157 0.0
C370 C 0.10976 0.77585 0.2021 0.0
C371 C 0.12355 0.79046 0.18276 0.0
C372 C 0.14441 0.82803 0.16484 0.0
C373 C 0.16025 0.84647 0.17809 0.0
C374 C 0.14701 0.82502 0.13683 0.0
C375 C 0.13137 0.80569 0.1216 0.0
C376 C 0.1105 0.80157 0.11675 0.0
C377 C 0.09603 0.78338 0.10197 0.0
C378 C 0.102 0.76867 0.0924 0.0
C379 C 0.12298 0.77297 0.09745 0.0
C380 C 0.13755 0.79138 0.11156 0.0
C381 C 0.20095 0.87361 0.1207 0.0
C382 C 0.21159 0.86559 0.10477 0.0
C383 C 0.23024 0.87945 0.09061 0.0
C384 C 0.23887 0.90172 0.09213 0.0
C385 C 0.22807 0.90977 0.10775 0.0
C386 C 0.20918 0.89585 0.12163 0.0
C387 C 0.18147 0.85857 0.13642 0.0
C388 C 0.16532 0.8404 0.12298 0.0
C389 C 0.17892 0.86156 0.16455 0.0
C390 C 0.19608 0.87887 0.18133 0.0
C391 C 0.21669 0.88144 0.18225 0.0
C392 C 0.23204 0.89608 0.20034 0.0
C393 C 0.22706 0.90825 0.21824 0.0
C394 C 0.20656 0.90595 0.21691 0.0
C395 C 0.19129 0.89149 0.19859 0.0
H396 H 0.2945 0.17754 0.85046 0.0
H397 H 0.29524 0.20346 0.8178 0.0
H398 H 0.35813 0.25024 0.84643 0.0
H399 H 0.3578 0.22386 0.87801 0.0
H400 H 0.32068 0.16193 0.84855 0.0
H401 H 0.30807 0.20507 0.91524 0.0
H402 H 0.31804 0.23895 0.93846 0.0
H403 H 0.37541 0.24145 0.96868 0.0
H404 H 0.36616 0.20852 0.94428 0.0
H405 H 0.36445 0.15931 0.9463 0.0
H406 H 0.37133 0.13458 0.97212 0.0
H407 H 0.31417 0.08131 0.93847 0.0
H408 H 0.30648 0.1063 0.91408 0.0
H409 H 0.33675 0.17012 0.94763 0.0
H410 H 0.35786 0.13709 0.87976 0.0
H411 H 0.35922 0.11142 0.84838 0.0
H412 H 0.29743 0.09587 0.81614 0.0
H413 H 0.29562 0.12067 0.84856 0.0
C414 C 0.32598 0.19876 0.86697 0.0
C415 C 0.30833 0.19348 0.85 0.0
C416 C 0.30867 0.20841 0.83152 0.0
C417 C 0.32665 0.22902 0.82972 0.0
C418 C 0.34404 0.23449 0.84733 0.0
C419 C 0.34378 0.21948 0.86561 0.0
C420 C 0.32658 0.18194 0.88385 0.0
C421 C 0.32372 0.16346 0.87039 0.0
C422 C 0.33166 0.18456 0.91209 0.0
C423 C 0.33654 0.20435 0.92748 0.0
C424 C 0.32291 0.21303 0.92662 0.0
C425 C 0.3285 0.23228 0.94013 0.0
C426 C 0.34773 0.24311 0.95495 0.0
C427 C 0.3608 0.23386 0.9568 0.0
C428 C 0.35537 0.21484 0.94309 0.0
C429 C 0.33499 0.13476 0.928 0.0
C430 C 0.35314 0.14234 0.94479 0.0
C431 C 0.35717 0.12814 0.95941 0.0
C432 C 0.34329 0.10595 0.95746 0.0
C433 C 0.32498 0.09832 0.94088 0.0
C434 C 0.32076 0.1126 0.92653 0.0
C435 C 0.33126 0.15025 0.91221 0.0
C436 C 0.33336 0.16838 0.92588 0.0
C437 C 0.32655 0.14786 0.88386 0.0
C438 C 0.32647 0.13064 0.86692 0.0
C439 C 0.34428 0.12766 0.86659 0.0
C440 C 0.34515 0.11313 0.84839 0.0
C441 C 0.32836 0.10143 0.82985 0.0
C442 C 0.3104 0.10416 0.83056 0.0
C443 C 0.30944 0.11854 0.84893 0.0
H444 H 0.83347 0.12002 0.84799 0.0
H445 H 0.80724 0.09605 0.81451 0.0
H446 H 0.76142 0.11259 0.8457 0.0
H447 H 0.78809 0.13764 0.87771 0.0
H448 H 0.85072 0.16098 0.84787 0.0
H449 H 0.80682 0.10678 0.91442 0.0
H450 H 0.77336 0.08299 0.93838 0.0
H451 H 0.7705 0.13796 0.96767 0.0
H452 H 0.80307 0.16151 0.9426 0.0
H453 H 0.85628 0.21542 0.93209 0.0
H454 H 0.88187 0.24717 0.95729 0.0
H455 H 0.92814 0.22587 0.95269 0.0
H456 H 0.90284 0.19493 0.92555 0.0
H457 H 0.84144 0.171 0.94605 0.0
H458 H 0.87801 0.22367 0.87868 0.0
H459 H 0.90432 0.24956 0.84727 0.0
H460 H 0.91648 0.20077 0.81552 0.0
H461 H 0.89134 0.17531 0.84859 0.0
C462 C 0.81286 0.1307 0.86556 0.0
C463 C 0.81772 0.11839 0.84777 0.0
C464 C 0.80266 0.10456 0.82873 0.0
C465 C 0.78236 0.10269 0.82706 0.0
C466 C 0.7771 0.11407 0.84594 0.0
C467 C 0.79226 0.12816 0.86466 0.0
C468 C 0.82998 0.14778 0.88273 0.0
C469 C 0.84895 0.16277 0.86957 0.0
C470 C 0.82717 0.15074 0.91081 0.0
C471 C 0.80737 0.136 0.92623 0.0
C472 C 0.79886 0.1137 0.92574 0.0
C473 C 0.77985 0.10012 0.93967 0.0
C474 C 0.76907 0.10858 0.95453 0.0
C475 C 0.77807 0.1309 0.95582 0.0
C476 C 0.79688 0.14441 0.94171 0.0
C477 C 0.87775 0.20296 0.92673 0.0
C478 C 0.87202 0.21771 0.93636 0.0
C479 C 0.88666 0.2358 0.95096 0.0
C480 C 0.90725 0.23932 0.95696 0.0
C481 C 0.91275 0.22416 0.94779 0.0
C482 C 0.89823 0.20631 0.9325 0.0
C483 C 0.86201 0.18392 0.91111 0.0
C484 C 0.84339 0.16869 0.92456 0.0
C485 C 0.86485 0.18101 0.88313 0.0
C486 C 0.88291 0.19753 0.86659 0.0
C487 C 0.88702 0.21871 0.86594 0.0
C488 C 0.90185 0.23347 0.84755 0.0
C489 C 0.91261 0.22732 0.82885 0.0
C490 C 0.90893 0.20627 0.83 0.0
C491 C 0.89434 0.19159 0.84876 0.0
H492 H 0.80318 0.65094 0.83908 0.0
H493 H 0.77657 0.6514 0.80874 0.0
H494 H 0.78455 0.70816 0.84907 0.0
H495 H 0.8114 0.70766 0.8797 0.0
H496 H 0.84461 0.68133 0.84285 0.0
H497 H 0.78439 0.64581 0.89909 0.0
H498 H 0.75227 0.6386 0.92413 0.0
H499 H 0.79012 0.69265 0.97675 0.0
H500 H 0.82232 0.70034 0.95081 0.0
H501 H 0.88449 0.70175 0.95066 0.0
H502 H 0.90901 0.69508 0.97817 0.0
H503 H 0.89326 0.63938 0.92906 0.0
H504 H 0.86843 0.64569 0.90227 0.0
H505 H 0.84108 0.67605 0.94391 0.0
H506 H 0.90358 0.70645 0.88035 0.0
H507 H 0.93054 0.70595 0.84995 0.0
H508 H 0.88098 0.64935 0.81032 0.0
H509 H 0.85434 0.64981 0.84056 0.0
C510 C 0.80922 0.67922 0.8617 0.0
C511 C 0.7991 0.6634 0.8416 0.0
C512 C 0.78382 0.6636 0.82439 0.0
C513 C 0.77839 0.6797 0.82678 0.0
C514 C 0.78844 0.69555 0.84694 0.0
C515 C 0.80365 0.69521 0.86445 0.0
C516 C 0.82638 0.67938 0.87859 0.0
C517 C 0.84385 0.6802 0.86498 0.0
C518 C 0.82529 0.67788 0.90745 0.0
C519 C 0.80577 0.67392 0.92263 0.0
C520 C 0.78579 0.65641 0.91564 0.0
C521 C 0.76744 0.65215 0.93019 0.0
C522 C 0.7686 0.66514 0.95231 0.0
C523 C 0.78863 0.68259 0.95949 0.0
C524 C 0.80706 0.6869 0.94482 0.0
C525 C 0.87488 0.67445 0.92407 0.0
C526 C 0.88642 0.68817 0.94576 0.0
C527 C 0.90051 0.68443 0.96135 0.0
C528 C 0.9032 0.66681 0.95561 0.0
C529 C 0.89152 0.65307 0.93399 0.0
C530 C 0.87749 0.6568 0.91846 0.0
C531 C 0.85933 0.67787 0.90806 0.0
C532 C 0.84214 0.67778 0.92186 0.0
C533 C 0.86011 0.67904 0.87917 0.0
C534 C 0.87696 0.67812 0.86278 0.0
C535 C 0.89863 0.69378 0.86538 0.0
C536 C 0.91397 0.69355 0.84796 0.0
C537 C 0.90786 0.67749 0.82799 0.0
C538 C 0.88622 0.66168 0.82584 0.0
C539 C 0.87096 0.66202 0.84299 0.0
H540 H 0.8244 0.68994 0.54528 0.0
H541 H 0.7973 0.68886 0.576 0.0
H542 H 0.74829 0.63484 0.53158 0.0
H543 H 0.77577 0.63577 0.50086 0.0
H544 H 0.83463 0.65958 0.53985 0.0
H545 H 0.81089 0.69682 0.48413 0.0
H546 H 0.78595 0.704 0.45905 0.0
H547 H 0.77115 0.65095 0.40515 0.0
H548 H 0.79569 0.6433 0.43107 0.0
H549 H 0.85723 0.64311 0.43135 0.0
H550 H 0.8894 0.65091 0.40527 0.0
H551 H 0.92734 0.70463 0.45833 0.0
H552 H 0.89524 0.69726 0.48359 0.0
H553 H 0.83874 0.66806 0.43914 0.0
H554 H 0.86886 0.6352 0.50217 0.0
H555 H 0.89566 0.63473 0.53293 0.0
H556 H 0.90256 0.69073 0.57421 0.0
H557 H 0.87604 0.69116 0.54373 0.0
C558 C 0.80214 0.66291 0.52082 0.0
C559 C 0.80782 0.6779 0.54202 0.0
C560 C 0.79231 0.67734 0.55948 0.0
C561 C 0.77071 0.66169 0.55629 0.0
C562 C 0.76487 0.6469 0.5347 0.0
C563 C 0.78049 0.64754 0.51703 0.0
C564 C 0.81925 0.66285 0.50402 0.0
C565 C 0.83551 0.66142 0.51779 0.0
C566 C 0.82026 0.66512 0.47523 0.0
C567 C 0.80487 0.66922 0.45989 0.0
C568 C 0.80202 0.68646 0.46724 0.0
C569 C 0.78792 0.6907 0.45268 0.0
C570 C 0.77643 0.67794 0.43024 0.0
C571 C 0.77944 0.66081 0.42266 0.0
C572 C 0.79358 0.65654 0.43732 0.0
C573 C 0.87384 0.66935 0.45977 0.0
C574 C 0.8725 0.65652 0.43739 0.0
C575 C 0.8909 0.66089 0.42263 0.0
C576 C 0.91094 0.67826 0.42992 0.0
C577 C 0.91215 0.69114 0.45219 0.0
C578 C 0.89382 0.6868 0.46685 0.0
C579 C 0.85436 0.66518 0.47516 0.0
C580 C 0.83756 0.66566 0.46109 0.0
C581 C 0.8532 0.66295 0.50394 0.0
C582 C 0.87053 0.66326 0.52062 0.0
C583 C 0.87639 0.64751 0.51763 0.0
C584 C 0.89158 0.64718 0.53523 0.0
C585 C 0.9013 0.66281 0.55573 0.0
C586 C 0.8956 0.67871 0.5583 0.0
C587 C 0.88037 0.6789 0.541 0.0
H588 H 0.38163 0.21971 0.53599 0.0
H589 H 0.38011 0.24483 0.56823 0.0
H590 H 0.32107 0.23366 0.53138 0.0
H591 H 0.32182 0.20745 0.50061 0.0
H592 H 0.35398 0.17885 0.53663 0.0
H593 H 0.37793 0.23205 0.45908 0.0
H594 H 0.3736 0.25824 0.43215 0.0
H595 H 0.30654 0.21202 0.42146 0.0
H596 H 0.3115 0.18561 0.44647 0.0
H597 H 0.31311 0.11536 0.48309 0.0
H598 H 0.30455 0.08287 0.45755 0.0
H599 H 0.35823 0.11957 0.40413 0.0
H600 H 0.36702 0.1521 0.43011 0.0
H601 H 0.34199 0.17063 0.43657 0.0
H602 H 0.32277 0.13944 0.54537 0.0
H603 H 0.32326 0.11373 0.57722 0.0
H604 H 0.37356 0.11299 0.53031 0.0
H605 H 0.37337 0.13931 0.49861 0.0
C606 C 0.35192 0.21168 0.51565 0.0
C607 C 0.36848 0.22286 0.5346 0.0
C608 C 0.36767 0.23733 0.55295 0.0
C609 C 0.35026 0.24095 0.55272 0.0
C610 C 0.33444 0.23084 0.53254 0.0
C611 C 0.33508 0.21613 0.51448 0.0
C612 C 0.35084 0.19346 0.49993 0.0
C613 C 0.35168 0.1772 0.51466 0.0
C614 C 0.34732 0.19102 0.47137 0.0
C615 C 0.34502 0.20694 0.4548 0.0
C616 C 0.36237 0.2276 0.4507 0.0
C617 C 0.35977 0.24263 0.43558 0.0
C618 C 0.3396 0.23747 0.42495 0.0
C619 C 0.32236 0.2166 0.42899 0.0
C620 C 0.32511 0.20146 0.44343 0.0
C621 C 0.34083 0.13617 0.45869 0.0
C622 C 0.32323 0.11641 0.46613 0.0
C623 C 0.31821 0.09789 0.45133 0.0
C624 C 0.33058 0.09876 0.42864 0.0
C625 C 0.34843 0.11846 0.42151 0.0
C626 C 0.35341 0.13702 0.43627 0.0
C627 C 0.34537 0.15608 0.47333 0.0
C628 C 0.34494 0.17254 0.45841 0.0
C629 C 0.34862 0.15841 0.50195 0.0
C630 C 0.34806 0.14138 0.51961 0.0
C631 C 0.33388 0.13372 0.54183 0.0
C632 C 0.33409 0.11893 0.55995 0.0
C633 C 0.34855 0.11145 0.55641 0.0
C634 C 0.36245 0.11871 0.53379 0.0
C635 C 0.36221 0.13357 0.51553 0.0
H636 H 0.77725 0.15918 0.51781 0.0
H637 H 0.75005 0.13319 0.54883 0.0
H638 H 0.78636 0.10057 0.55594 0.0
H639 H 0.81249 0.12566 0.52339 0.0
H640 H 0.82718 0.18183 0.53619 0.0
H641 H 0.77372 0.13844 0.46825 0.0
H642 H 0.74955 0.10496 0.44488 0.0
H643 H 0.80355 0.09849 0.4205 0.0
H644 H 0.82745 0.13111 0.44548 0.0
H645 H 0.87694 0.18135 0.44347 0.0
H646 H 0.9088 0.20538 0.41745 0.0
H647 H 0.9033 0.25932 0.44505 0.0
H648 H 0.87042 0.23502 0.46927 0.0
H649 H 0.83812 0.17034 0.43901 0.0
H650 H 0.88366 0.19591 0.52182 0.0
H651 H 0.90909 0.22141 0.55474 0.0
H652 H 0.87647 0.25787 0.55097 0.0
H653 H 0.85015 0.23126 0.51963 0.0
C654 C 0.79675 0.1442 0.51826 0.0
C655 C 0.77907 0.14618 0.52577 0.0
C656 C 0.76371 0.13147 0.5438 0.0
C657 C 0.7662 0.115 0.55545 0.0
C658 C 0.78378 0.1129 0.54729 0.0
C659 C 0.79881 0.12728 0.52877 0.0
C660 C 0.81414 0.16084 0.50149 0.0
C661 C 0.82934 0.17958 0.51472 0.0
C662 C 0.81737 0.15729 0.47389 0.0
C663 C 0.80245 0.13722 0.45911 0.0
C664 C 0.78035 0.12965 0.45829 0.0
C665 C 0.76655 0.1107 0.44439 0.0
C666 C 0.77462 0.09913 0.43053 0.0
C667 C 0.79678 0.10692 0.43108 0.0
C668 C 0.81049 0.12568 0.44522 0.0
C669 C 0.87128 0.20629 0.4587 0.0
C670 C 0.8824 0.19832 0.4437 0.0
C671 C 0.90074 0.21212 0.42895 0.0
C672 C 0.90858 0.2343 0.42897 0.0
C673 C 0.89749 0.2423 0.44405 0.0
C674 C 0.8789 0.22843 0.45847 0.0
C675 C 0.85145 0.19128 0.4738 0.0
C676 C 0.83579 0.17283 0.46031 0.0
C677 C 0.84816 0.19457 0.50148 0.0
C678 C 0.86508 0.21174 0.51834 0.0
C679 C 0.88212 0.20949 0.528 0.0
C680 C 0.89669 0.22417 0.54676 0.0
C681 C 0.89468 0.24158 0.55601 0.0
C682 C 0.87812 0.2443 0.54515 0.0
C683 C 0.86322 0.22928 0.52692 0.0
H684 H 0.96271 0.51264 0.18127 0.0
H685 H 0.96356 0.53859 0.14854 0.0
H686 H 0.02685 0.58495 0.17639 0.0
H687 H 0.02638 0.55857 0.20808 0.0
H688 H 0.98762 0.49593 0.17973 0.0
H689 H 0.97667 0.53999 0.24586 0.0
H690 H 0.98592 0.57338 0.26988 0.0
H691 H 0.04366 0.57658 0.29994 0.0
H692 H 0.0352 0.54426 0.27463 0.0
H693 H 0.03562 0.49599 0.27372 0.0
H694 H 0.04408 0.47214 0.29909 0.0
H695 H 0.98532 0.41775 0.27104 0.0
H696 H 0.97611 0.44187 0.24718 0.0
H697 H 0.00699 0.50608 0.27789 0.0
H698 H 0.02858 0.47993 0.19683 0.0
H699 H 0.02849 0.45366 0.16531 0.0
H700 H 0.95937 0.41969 0.16478 0.0
H701 H 0.95978 0.44709 0.19487 0.0
C702 C 0.99435 0.53366 0.19745 0.0
C703 C 0.97666 0.52849 0.18061 0.0
C704 C 0.97708 0.54344 0.16208 0.0
C705 C 0.99518 0.56396 0.16007 0.0
C706 C 0.01267 0.56929 0.17745 0.0
C707 C 0.01231 0.55427 0.19581 0.0
C708 C 0.99485 0.51685 0.21453 0.0
C709 C 0.9914 0.49803 0.20137 0.0
C710 C 1.00062 0.51988 0.24259 0.0
C711 C 1.00539 0.53969 0.25792 0.0
C712 C 0.99148 0.54805 0.25728 0.0
C713 C 0.99665 0.56701 0.27129 0.0
C714 C 0.01573 0.57787 0.28641 0.0
C715 C 0.02916 0.569 0.28784 0.0
C716 C 0.02417 0.5503 0.27361 0.0
C717 C 1.00539 0.47079 0.25801 0.0
C718 C 0.02443 0.47895 0.27312 0.0
C719 C 0.02939 0.46526 0.28739 0.0
C720 C 0.01562 0.44299 0.28655 0.0
C721 C 0.99632 0.43482 0.27196 0.0
C722 C 0.99119 0.44859 0.25796 0.0
C723 C 1.00049 0.48572 0.24281 0.0
C724 C 1.00288 0.50399 0.25635 0.0
C725 C 0.9946 0.48272 0.21491 0.0
C726 C 0.9942 0.46531 0.19835 0.0
C727 C 0.01343 0.46665 0.19017 0.0
C728 C 0.0133 0.45142 0.17235 0.0
C729 C 0.99389 0.43418 0.16281 0.0
C730 C 0.97461 0.43272 0.17158 0.0
C731 C 0.97478 0.44828 0.18891 0.0
H732 H 0.49899 0.44637 0.19545 0.0
H733 H 0.47281 0.4195 0.16404 0.0
H734 H 0.43499 0.45063 0.16868 0.0
H735 H 0.46054 0.47654 0.20093 0.0
H736 H 0.51939 0.49314 0.18271 0.0
H737 H 0.48511 0.44603 0.26606 0.0
H738 H 0.45347 0.4218 0.29293 0.0
H739 H 0.42851 0.46467 0.28191 0.0
H740 H 0.46072 0.48928 0.25656 0.0
H741 H 0.52309 0.5501 0.26364 0.0
H742 H 0.54848 0.5825 0.28797 0.0
H743 H 0.59474 0.56108 0.28688 0.0
H744 H 0.56972 0.52953 0.26053 0.0
H745 H 0.5076 0.5059 0.2791 0.0
H746 H 0.54492 0.55683 0.21093 0.0
H747 H 0.57096 0.58231 0.17903 0.0
H748 H 0.58475 0.53386 0.15033 0.0
H749 H 0.55992 0.50886 0.18406 0.0
C750 C 0.48149 0.4632 0.20087 0.0
C751 C 0.48474 0.44699 0.19018 0.0
C752 C 0.46984 0.43176 0.1721 0.0
C753 C 0.45157 0.43265 0.16406 0.0
C754 C 0.44838 0.44888 0.17509 0.0
C755 C 0.46308 0.46385 0.19344 0.0
C756 C 0.49833 0.4809 0.21726 0.0
C757 C 0.51727 0.49569 0.20406 0.0
C758 C 0.49486 0.48462 0.2446 0.0
C759 C 0.47525 0.46946 0.25955 0.0
C760 C 0.47282 0.45019 0.26963 0.0
C761 C 0.45471 0.43636 0.2849 0.0
C762 C 0.4386 0.44147 0.29014 0.0
C763 C 0.44091 0.46057 0.27923 0.0
C764 C 0.45918 0.47455 0.26442 0.0
C765 C 0.54461 0.53755 0.26003 0.0
C766 C 0.53878 0.55251 0.2685 0.0
C767 C 0.55332 0.57098 0.28259 0.0
C768 C 0.57388 0.57468 0.28926 0.0
C769 C 0.57941 0.55927 0.28136 0.0
C770 C 0.56503 0.54106 0.26655 0.0
C771 C 0.52913 0.51817 0.24472 0.0
C772 C 0.5103 0.50313 0.25805 0.0
C773 C 0.53263 0.51453 0.2172 0.0
C774 C 0.55066 0.53092 0.2005 0.0
C775 C 0.55425 0.5519 0.19883 0.0
C776 C 0.56893 0.56641 0.18013 0.0
C777 C 0.58 0.56019 0.16205 0.0
C778 C 0.57692 0.5394 0.16429 0.0
C779 C 0.5625 0.52498 0.18341 0.0
H780 H 0.56302 0.05302 0.19348 0.0
H781 H 0.58997 0.05367 0.16233 0.0
H782 H 0.55818 0.98464 0.16569 0.0
H783 H 0.53234 0.98434 0.19803 0.0
H784 H 0.51582 0.02676 0.18131 0.0
H785 H 0.56896 0.03506 0.24803 0.0
H786 H 0.59306 0.02504 0.27035 0.0
H787 H 0.53875 0.96479 0.29437 0.0
H788 H 0.5149 0.97426 0.27078 0.0
H789 H 0.46606 0.97479 0.27322 0.0
H790 H 0.43329 0.96553 0.29794 0.0
H791 H 0.43723 0.02439 0.27121 0.0
H792 H 0.47104 0.03444 0.24816 0.0
H793 H 0.50435 1.00248 0.27769 0.0
H794 H 0.45742 0.98385 0.19905 0.0
H795 H 0.43159 0.98369 0.16681 0.0
H796 H 0.46796 0.05276 0.16324 0.0
H797 H 0.49454 0.05257 0.19424 0.0
C798 C 0.54591 0.01866 0.19835 0.0
C799 C 0.56222 0.03811 0.18791 0.0
C800 C 0.57752 0.03842 0.16998 0.0
C801 C 0.57653 0.01924 0.16172 0.0
C802 C 0.56005 0.9998 0.1723 0.0
C803 C 0.54507 0.99955 0.19062 0.0
C804 C 0.52861 0.01798 0.21543 0.0
C805 C 0.51357 0.02197 0.20262 0.0
C806 C 0.52524 0.01074 0.24283 0.0
C807 C 0.54008 0.00527 0.2572 0.0
C808 C 0.56226 0.01955 0.25771 0.0
C809 C 0.57601 0.01392 0.27077 0.0
C810 C 0.56784 0.99397 0.28374 0.0
C811 C 0.54561 0.98003 0.28396 0.0
C812 C 0.53192 0.98556 0.27072 0.0
C813 C 0.471 0.0052 0.2583 0.0
C814 C 0.46006 0.98587 0.27281 0.0
C815 C 0.44109 0.98042 0.28668 0.0
C816 C 0.43231 0.99396 0.28601 0.0
C817 C 0.44349 0.01354 0.27203 0.0
C818 C 0.46269 0.01916 0.25848 0.0
C819 C 0.49113 0.01064 0.24334 0.0
C820 C 0.50677 0.00767 0.25655 0.0
C821 C 0.49463 0.01782 0.2159 0.0
C822 C 0.47774 0.01822 0.19919 0.0
C823 C 0.45961 0.99896 0.19163 0.0
C824 C 0.44473 0.99895 0.17338 0.0
C825 C 0.44741 0.01826 0.16273 0.0
C826 C 0.4654 0.0376 0.17094 0.0
C827 C 0.48054 0.03755 0.18877 0.0
H828 H 0.48814 0.01988 0.87896 0.0
H829 H 0.46118 0.01907 0.90978 0.0
H830 H 0.41211 0.9639 0.86721 0.0
H831 H 0.4394 0.9647 0.83621 0.0
H832 H 0.49786 0.98843 0.87475 0.0
H833 H 0.47661 0.02731 0.81841 0.0
H834 H 0.45349 0.03645 0.79228 0.0
H835 H 0.43559 0.9821 0.73956 0.0
H836 H 0.45858 0.97267 0.76625 0.0
H837 H 0.52042 0.9713 0.76648 0.0
H838 H 0.55248 0.97924 0.74002 0.0
H839 H 0.5906 0.03292 0.79303 0.0
H840 H 0.55862 0.0254 0.81871 0.0
H841 H 0.50246 0.99685 0.77403 0.0
H842 H 0.53043 0.96227 0.83896 0.0
H843 H 0.55702 0.96162 0.87004 0.0
H844 H 0.56691 0.01993 0.90785 0.0
H845 H 0.54041 0.0204 0.87729 0.0
C846 C 0.46579 0.99234 0.85533 0.0
C847 C 0.47157 0.0077 0.87607 0.0
C848 C 0.45614 0.00726 0.89361 0.0
C849 C 0.43459 0.99134 0.89098 0.0
C850 C 0.42866 0.97619 0.86983 0.0
C851 C 0.44417 0.97675 0.85203 0.0
C852 C 0.48281 0.99196 0.83874 0.0
C853 C 0.49881 0.99018 0.85268 0.0
C854 C 0.48398 0.99425 0.80997 0.0
C855 C 0.46916 0.99912 0.79455 0.0
C856 C 0.46751 0.01714 0.80149 0.0
C857 C 0.45449 0.02252 0.78632 0.0
C858 C 0.44294 0.01013 0.76368 0.0
C859 C 0.44432 0.99192 0.75691 0.0
C860 C 0.45747 0.98657 0.77208 0.0
C861 C 0.53714 0.99749 0.79493 0.0
C862 C 0.53573 0.98468 0.77248 0.0
C863 C 0.55406 0.98914 0.7575 0.0
C864 C 0.57409 0.00659 0.7646 0.0
C865 C 0.5754 0.01937 0.78705 0.0
C866 C 0.55715 0.01493 0.80195 0.0
C867 C 0.51767 0.99353 0.81018 0.0
C868 C 0.50112 0.99439 0.79597 0.0
C869 C 0.51638 0.99133 0.83896 0.0
C870 C 0.53353 0.99144 0.85578 0.0
C871 C 0.53853 0.97499 0.85377 0.0
C872 C 0.55358 0.97457 0.87155 0.0
C873 C 0.56406 0.99081 0.89114 0.0
C874 C 0.55925 0.00737 0.89271 0.0
C875 C 0.54408 0.00762 0.87533 0.0
H876 H 0.03893 0.56744 0.83534 0.0
H877 H 0.03832 0.59483 0.8648 0.0
H878 H 0.98319 0.54549 0.90697 0.0
H879 H 0.9837 0.51843 0.87758 0.0
H880 H 0.0149 0.50888 0.87475 0.0
H881 H 0.03451 0.54853 0.76692 0.0
H882 H 0.02675 0.57233 0.73934 0.0
H883 H 0.97037 0.55437 0.78791 0.0
H884 H 0.97786 0.53041 0.81488 0.0
H885 H 0.98027 0.44782 0.81855 0.0
H886 H 0.97371 0.41606 0.79296 0.0
H887 H 0.02771 0.45506 0.74099 0.0
H888 H 0.03471 0.48688 0.76738 0.0
H889 H 0.00951 0.50449 0.77372 0.0
H890 H 0.98544 0.46842 0.88016 0.0
H891 H 0.98641 0.44272 0.91155 0.0
H892 H 0.04123 0.448 0.86896 0.0
H893 H 0.04046 0.47426 0.83764 0.0
C894 C 0.01132 0.5409 0.85421 0.0
C895 C 0.02654 0.56262 0.85066 0.0
C896 C 0.02624 0.5782 0.86754 0.0
C897 C 0.01056 0.57229 0.88795 0.0
C898 C 0.99519 0.55058 0.89107 0.0
C899 C 0.99558 0.53508 0.87443 0.0
C900 C 0.01229 0.5239 0.83818 0.0
C901 C 0.01368 0.50788 0.85263 0.0
C902 C 0.01099 0.52282 0.80932 0.0
C903 C 0.0069 0.53784 0.79315 0.0
C904 C 0.0205 0.54976 0.77159 0.0
C905 C 0.0161 0.56337 0.75593 0.0
C906 C 0.99784 0.565 0.7613 0.0
C907 C 0.98437 0.55316 0.78301 0.0
C908 C 0.98878 0.53966 0.79865 0.0
C909 C 0.00826 0.46974 0.79529 0.0
C910 C 0.99101 0.44954 0.80204 0.0
C911 C 0.98711 0.4314 0.78718 0.0
C912 C 1.00027 0.43301 0.76506 0.0
C913 C 0.01753 0.45324 0.75823 0.0
C914 C 0.02145 0.47144 0.77317 0.0
C915 C 0.01166 0.48911 0.81042 0.0
C916 C 0.01124 0.50571 0.79577 0.0
C917 C 0.01301 0.49033 0.83931 0.0
C918 C 0.01291 0.47334 0.85658 0.0
C919 C 0.99765 0.46403 0.87745 0.0
C920 C 0.99814 0.44924 0.89531 0.0
C921 C 0.01398 0.44346 0.89284 0.0
C922 C 0.02902 0.45239 0.87156 0.0
C923 C 0.02847 0.46722 0.85353 0.0
H924 H 0.44545 0.49475 0.85311 0.0
H925 H 0.4194 0.46978 0.88604 0.0
H926 H 0.45226 0.43349 0.88617 0.0
H927 H 0.47724 0.45769 0.85192 0.0
H928 H 0.49341 0.51576 0.86722 0.0
H929 H 0.43963 0.46992 0.80141 0.0
H930 H 0.41605 0.43612 0.77809 0.0
H931 H 0.47122 0.43301 0.75037 0.0
H932 H 0.49453 0.4657 0.77534 0.0
H933 H 0.54299 0.51486 0.77436 0.0
H934 H 0.57485 0.53888 0.74834 0.0
H935 H 0.56941 0.59284 0.77601 0.0
H936 H 0.53653 0.56855 0.80024 0.0
H937 H 0.50423 0.5037 0.77026 0.0
H938 H 0.54996 0.52963 0.85232 0.0
H939 H 0.57527 0.55483 0.88558 0.0
H940 H 0.54247 0.59116 0.88276 0.0
H941 H 0.51626 0.56483 0.85106 0.0
C942 C 0.46315 0.47795 0.85002 0.0
C943 C 0.44671 0.48114 0.8599 0.0
C944 C 0.43204 0.46702 0.87902 0.0
C945 C 0.434 0.44987 0.88933 0.0
C946 C 0.45015 0.44642 0.87864 0.0
C947 C 0.4645 0.46026 0.85908 0.0
C948 C 0.4804 0.49439 0.83285 0.0
C949 C 0.49553 0.51334 0.8458 0.0
C950 C 0.48363 0.49061 0.80533 0.0
C951 C 0.46894 0.47027 0.79077 0.0
C952 C 0.44665 0.46172 0.79089 0.0
C953 C 0.43317 0.44253 0.77717 0.0
C954 C 0.44171 0.43162 0.76276 0.0
C955 C 0.46403 0.44059 0.76195 0.0
C956 C 0.47743 0.45951 0.77598 0.0
C957 C 0.53735 0.53981 0.78962 0.0
C958 C 0.54845 0.53183 0.77459 0.0
C959 C 0.5668 0.54563 0.75984 0.0
C960 C 0.57466 0.56781 0.75989 0.0
C961 C 0.56358 0.57582 0.77498 0.0
C962 C 0.54498 0.56195 0.7894 0.0
C963 C 0.51757 0.52482 0.80484 0.0
C964 C 0.50193 0.50623 0.79155 0.0
C965 C 0.51432 0.52825 0.83247 0.0
C966 C 0.53129 0.54541 0.84928 0.0
C967 C 0.54837 0.54314 0.85875 0.0
C968 C 0.56287 0.55764 0.87772 0.0
C969 C 0.56075 0.57489 0.88737 0.0
C970 C 0.5442 0.57768 0.87664 0.0
C971 C 0.52937 0.56284 0.85819 0.0
H972 H 0.62049 0.8458 0.52843 0.0
H973 H 0.6189 0.87072 0.49585 0.0
H974 H 0.68782 0.90943 0.4984 0.0
H975 H 0.68904 0.88522 0.53224 0.0
H976 H 0.64776 0.82607 0.51551 0.0
H977 H 0.63884 0.8708 0.58151 0.0
H978 H 0.64769 0.90402 0.60524 0.0
H979 H 0.70718 0.90962 0.63245 0.0
H980 H 0.69907 0.87739 0.60702 0.0
H981 H 0.70001 0.8287 0.60736 0.0
H982 H 0.70927 0.80531 0.63241 0.0
H983 H 0.65058 0.75026 0.60552 0.0
H984 H 0.64056 0.77389 0.58203 0.0
H985 H 0.67188 0.83886 0.61196 0.0
H986 H 0.69116 0.81053 0.53389 0.0
H987 H 0.69165 0.785 0.50161 0.0
H988 H 0.62273 0.75292 0.49592 0.0
H989 H 0.62262 0.77954 0.527 0.0
C990 C 0.65487 0.86377 0.53281 0.0
C991 C 0.63518 0.85991 0.52229 0.0
C992 C 0.63435 0.87401 0.50338 0.0
C993 C 0.65327 0.89186 0.49395 0.0
C994 C 0.6729 0.89596 0.50527 0.0
C995 C 0.67367 0.88211 0.52459 0.0
C996 C 0.65615 0.8475 0.54984 0.0
C997 C 0.65257 0.82863 0.53683 0.0
C998 C 0.66343 0.85146 0.57725 0.0
C999 C 0.66836 0.87156 0.59204 0.0
C1000 C 0.65396 0.87933 0.59218 0.0
C1001 C 0.65885 0.89816 0.6063 0.0
C1002 C 0.67805 0.90942 0.62112 0.0
C1003 C 0.69231 0.90147 0.62117 0.0
C1004 C 0.68757 0.88288 0.60676 0.0
C1005 C 0.66971 0.80314 0.59232 0.0
C1006 C 0.68899 0.81162 0.60697 0.0
C1007 C 0.69443 0.79818 0.62104 0.0
C1008 C 0.68091 0.77587 0.62045 0.0
C1009 C 0.66139 0.76737 0.60627 0.0
C1010 C 0.6558 0.78087 0.5925 0.0
C1011 C 0.66418 0.81773 0.57738 0.0
C1012 C 0.66681 0.83619 0.59077 0.0
C1013 C 0.65707 0.81403 0.5499 0.0
C1014 C 0.65685 0.79679 0.53305 0.0
C1015 C 0.67614 0.79778 0.52601 0.0
C1016 C 0.67634 0.78299 0.5077 0.0
C1017 C 0.65717 0.76654 0.49643 0.0
C1018 C 0.6378 0.76536 0.50408 0.0
C1019 C 0.63767 0.78047 0.52197 0.0
H1020 H 0.16064 0.77939 0.5358 0.0
H1021 H 0.1346 0.75259 0.5044 0.0
H1022 H 0.10334 0.79014 0.49671 0.0
H1023 H 0.12846 0.81589 0.5297 0.0
H1024 H 0.18378 0.8295 0.51695 0.0
H1025 H 0.14106 0.77635 0.58499 0.0
H1026 H 0.10777 0.75226 0.60878 0.0
H1027 H 0.10239 0.80656 0.63491 0.0
H1028 H 0.13475 0.83038 0.60953 0.0
H1029 H 0.18854 0.88465 0.6011 0.0
H1030 H 0.21399 0.91648 0.62621 0.0
H1031 H 0.26123 0.89658 0.61975 0.0
H1032 H 0.23597 0.86544 0.59273 0.0
H1033 H 0.17391 0.84078 0.61457 0.0
H1034 H 0.20945 0.89263 0.54693 0.0
H1035 H 0.23443 0.9185 0.51434 0.0
H1036 H 0.24851 0.87094 0.48299 0.0
H1037 H 0.22461 0.84544 0.51715 0.0
C1038 C 0.14633 0.79949 0.53518 0.0
C1039 C 0.1479 0.78156 0.52768 0.0
C1040 C 0.13317 0.76643 0.50939 0.0
C1041 C 0.1171 0.7694 0.4974 0.0
C1042 C 0.11536 0.7872 0.50558 0.0
C1043 C 0.12976 0.802 0.52438 0.0
C1044 C 0.16325 0.81677 0.55191 0.0
C1045 C 0.18201 0.83173 0.53853 0.0
C1046 C 0.16012 0.82003 0.57966 0.0
C1047 C 0.1402 0.8052 0.59473 0.0
C1048 C 0.13246 0.78305 0.59525 0.0
C1049 C 0.11359 0.7693 0.60926 0.0
C1050 C 0.10219 0.77743 0.62335 0.0
C1051 C 0.11039 0.79968 0.62361 0.0
C1052 C 0.12907 0.81336 0.60932 0.0
C1053 C 0.21035 0.87268 0.59511 0.0
C1054 C 0.20438 0.88714 0.60515 0.0
C1055 C 0.21891 0.90522 0.61986 0.0
C1056 C 0.23956 0.90888 0.62581 0.0
C1057 C 0.2455 0.89431 0.61562 0.0
C1058 C 0.23108 0.87647 0.60026 0.0
C1059 C 0.19466 0.85349 0.57966 0.0
C1060 C 0.17606 0.83827 0.59321 0.0
C1061 C 0.19761 0.85033 0.55178 0.0
C1062 C 0.21523 0.86703 0.53489 0.0
C1063 C 0.21853 0.88793 0.53392 0.0
C1064 C 0.23252 0.90263 0.5148 0.0
C1065 C 0.24304 0.89661 0.49561 0.0
C1066 C 0.24062 0.87608 0.49747 0.0
C1067 C 0.22686 0.86145 0.51691 0.0
H1068 H 0.13773 0.31726 0.50406 0.0
H1069 H 0.11181 0.31868 0.47348 0.0
H1070 H 0.11722 0.37275 0.51828 0.0
H1071 H 0.14362 0.37148 0.54887 0.0
H1072 H 0.1783 0.34701 0.50978 0.0
H1073 H 0.11766 0.30989 0.56555 0.0
H1074 H 0.08546 0.30198 0.59103 0.0
H1075 H 0.12283 0.35588 0.64401 0.0
H1076 H 0.15518 0.36414 0.61788 0.0
H1077 H 0.218 0.36497 0.61729 0.0
H1078 H 0.24202 0.35719 0.64434 0.0
H1079 H 0.22459 0.3015 0.59441 0.0
H1080 H 0.20047 0.30906 0.56786 0.0
H1081 H 0.17391 0.33931 0.61057 0.0
H1082 H 0.23708 0.3693 0.54997 0.0
H1083 H 0.26437 0.36951 0.51971 0.0
H1084 H 0.21478 0.31729 0.47346 0.0
H1085 H 0.18783 0.31671 0.50399 0.0
C1086 C 0.14267 0.34429 0.52871 0.0
C1087 C 0.13331 0.32939 0.50743 0.0
C1088 C 0.11841 0.33015 0.49005 0.0
C1089 C 0.1126 0.3459 0.4934 0.0
C1090 C 0.12162 0.3606 0.51505 0.0
C1091 C 0.13653 0.35977 0.53264 0.0
C1092 C 0.15972 0.34413 0.54553 0.0
C1093 C 0.17732 0.34526 0.53185 0.0
C1094 C 0.15844 0.34203 0.57433 0.0
C1095 C 0.13885 0.33779 0.58954 0.0
C1096 C 0.11896 0.32023 0.5824 0.0
C1097 C 0.10058 0.31554 0.5972 0.0
C1098 C 0.10168 0.32815 0.61974 0.0
C1099 C 0.12153 0.3459 0.62674 0.0
C1100 C 0.14 0.35057 0.6119 0.0
C1101 C 0.20758 0.33771 0.59038 0.0
C1102 C 0.21941 0.35111 0.61217 0.0
C1103 C 0.23315 0.34671 0.62753 0.0
C1104 C 0.23498 0.32863 0.62164 0.0
C1105 C 0.22325 0.31536 0.59968 0.0
C1106 C 0.20963 0.31981 0.5843 0.0
C1107 C 0.19236 0.34178 0.57466 0.0
C1108 C 0.17514 0.34152 0.58859 0.0
C1109 C 0.19339 0.34361 0.54582 0.0
C1110 C 0.21038 0.34302 0.52924 0.0
C1111 C 0.23216 0.35771 0.53355 0.0
C1112 C 0.2477 0.35796 0.51609 0.0
C1113 C 0.2417 0.34356 0.49401 0.0
C1114 C 0.21995 0.32852 0.49032 0.0
C1115 C 0.2045 0.32827 0.50768 0.0
C1116 C 0.98063 0.39946 0.09886 0.0
C1117 C 0.99602 0.39297 0.09923 0.0
C1118 C 0.97967 0.41225 0.11985 0.0
C1119 C 0.99381 0.41873 0.14231 0.0
H1120 H 0.96996 0.39555 0.08154 0.0
H1121 H 0.96829 0.41778 0.11782 0.0
S1122 S 0.03467 0.40278 0.15491 0.0
N1123 N 0.02438 0.39219 0.12487 0.0
N1124 N 0.02186 0.41517 0.16507 0.0
C1125 C 0.00837 0.41113 0.14366 0.0
C1126 C 0.00964 0.39852 0.12198 0.0
C1127 C 0.59495 0.59824 0.10193 0.0
C1128 C 0.61478 0.60108 0.09315 0.0
C1129 C 0.58412 0.58522 0.12424 0.0
C1130 C 0.59266 0.57455 0.1391 0.0
H1131 H 0.58739 0.60581 0.09116 0.0
H1132 H 0.56863 0.58317 0.1295 0.0
S1133 S 0.64476 0.57763 0.12581 0.0
N1134 N 0.64291 0.59261 0.10168 0.0
N1135 N 0.62272 0.56847 0.14421 0.0
C1136 C 0.61266 0.57746 0.13091 0.0
C1137 C 0.62366 0.59064 0.10786 0.0
C1138 C 0.42709 0.02984 0.09667 0.0
C1139 C 0.40511 0.01486 0.09724 0.0
C1140 C 0.44052 0.03129 0.1183 0.0
C1141 C 0.43242 0.01807 0.14154 0.0
H1142 H 0.43414 0.03977 0.07881 0.0
H1143 H 0.45752 0.04225 0.11621 0.0
S1144 S 0.37527 0.9788 0.15471 0.0
N1145 N 0.37543 0.98802 0.1238 0.0
N1146 N 0.40039 0.99146 0.16507 0.0
C1147 C 0.41019 0.004 0.14301 0.0
C1148 C 0.39662 1.00222 0.12073 0.0
C1149 C 0.40608 0.01033 0.93844 0.0
C1150 C 0.39396 0.99251 0.95542 0.0
C1151 C 0.41825 0.00942 0.91679 0.0
C1152 C 0.4188 0.99063 0.91103 0.0
H1153 H 0.40675 0.02543 0.94236 0.0
H1154 H 0.42786 0.02377 0.90493 0.0
S1155 S 0.38893 0.93899 0.94773 0.0
N1156 N 0.38232 0.95502 0.96376 0.0
N1157 N 0.40538 0.95341 0.92299 0.0
C1158 C 0.40595 0.97234 0.92681 0.0
C1159 C 0.3935 0.97325 0.94901 0.0
C1160 C 0.99519 0.39658 0.94144 0.0
C1161 C 0.01345 0.40193 0.95737 0.0
C1162 C 0.99581 0.40957 0.91983 0.0
C1163 C 0.01472 0.4285 0.91312 0.0
H1164 H 0.98004 0.38246 0.94608 0.0
H1165 H 0.98119 0.40503 0.90869 0.0
S1166 S 0.06732 0.44937 0.94722 0.0
N1167 N 0.05138 0.42709 0.96387 0.0
N1168 N 0.05241 0.45162 0.92333 0.0
C1169 C 0.03336 0.43364 0.92799 0.0
C1170 C 0.03275 0.42035 0.95008 0.0
C1171 C 0.61067 0.60701 0.93095 0.0
C1172 C 0.60302 0.61324 0.95355 0.0
C1173 C 0.59713 0.59543 0.90919 0.0
C1174 C 0.57524 0.58916 0.90939 0.0
H1175 H 0.62724 0.61095 0.93019 0.0
H1176 H 0.60384 0.59106 0.89225 0.0
S1177 S 0.54717 0.60081 0.96466 0.0
N1178 N 0.57228 0.61243 0.97494 0.0
N1179 N 0.54656 0.58978 0.93486 0.0
C1180 C 0.56747 0.59552 0.93187 0.0
C1181 C 0.5814 0.60773 0.95373 0.0
C1182 C 0.0288 0.61467 0.94355 0.0
C1183 C 0.00972 0.61431 0.95073 0.0
C1184 C 0.02927 0.60187 0.92219 0.0
C1185 C 0.01071 0.58831 0.9072 0.0
H1186 H 0.04324 0.6241 0.95533 0.0
H1187 H 0.044 0.60179 0.9183 0.0
S1188 S 0.95769 0.58424 0.91459 0.0
N1189 N 0.97246 0.60115 0.93878 0.0
N1190 N 0.97349 0.57731 0.89868 0.0
C1191 C 0.99194 0.58891 0.91293 0.0
C1192 C 0.99142 0.60185 0.93466 0.0
C1193 C 0.40127 0.4009 0.9339 0.0
C1194 C 0.39696 0.40943 0.95732 0.0
C1195 C 0.41238 0.41391 0.91159 0.0
C1196 C 0.42003 0.43609 0.91197 0.0
H1197 H 0.39628 0.38405 0.93296 0.0
H1198 H 0.41535 0.40655 0.8941 0.0
S1199 S 0.41324 0.46632 0.96893 0.0
N1200 N 0.40081 0.44126 0.97952 0.0
N1201 N 0.42253 0.46597 0.93822 0.0
C1202 C 0.41544 0.44475 0.93515 0.0
C1203 C 0.40373 0.43137 0.95766 0.0
C1204 C 0.5866 0.97464 0.95083 0.0
C1205 C 0.60669 0.99307 0.95493 0.0
C1206 C 0.57326 0.97339 0.92909 0.0
C1207 C 0.57959 0.99052 0.91075 0.0
H1208 H 0.58066 0.96154 0.96527 0.0
H1209 H 0.55747 0.95944 0.92747 0.0
S1210 S 0.63192 0.04071 0.90959 0.0
N1211 N 0.63322 0.02766 0.93653 0.0
N1212 N 0.6081 0.02523 0.89605 0.0
C1213 C 0.60014 0.00834 0.9135 0.0
C1214 C 0.61371 0.00963 0.93548 0.0
C1215 C 0.60913 0.03133 0.09608 0.0
C1216 C 0.61641 0.01655 0.09686 0.0
C1217 C 0.59683 0.03257 0.1175 0.0
C1218 C 0.59164 0.01932 0.14074 0.0
H1219 H 0.61203 0.04123 0.07818 0.0
H1220 H 0.59061 0.04338 0.11525 0.0
S1221 S 0.61015 0.98057 0.15448 0.0
N1222 N 0.61942 0.9899 0.12367 0.0
N1223 N 0.59732 0.99296 0.16453 0.0
C1224 C 0.60009 0.00549 0.14244 0.0
C1225 C 0.61221 1.00393 0.12038 0.0
C1226 C 0.01647 0.60262 0.10023 0.0
C1227 C 0.99943 0.60606 0.09365 0.0
C1228 C 0.01507 0.58939 0.12201 0.0
C1229 C 0.9966 0.57907 0.13833 0.0
H1230 H 0.03093 0.60979 0.08807 0.0
H1231 H 0.02839 0.58677 0.12559 0.0
S1232 S 0.9482 0.58428 0.13162 0.0
N1233 N 0.96388 0.59895 0.10643 0.0
N1234 N 0.96144 0.57438 0.14767 0.0
C1235 C 0.97966 0.58284 0.13259 0.0
C1236 C 0.98104 0.59626 0.11024 0.0
C1237 C 0.43173 0.40185 0.09701 0.0
C1238 C 0.40963 0.39429 0.09786 0.0
C1239 C 0.44508 0.41355 0.11891 0.0
C1240 C 0.43678 0.41786 0.14266 0.0
H1241 H 0.43893 0.3997 0.07874 0.0
H1242 H 0.46214 0.42007 0.11664 0.0
S1243 S 0.37937 0.39815 0.15673 0.0
N1244 N 0.37969 0.38991 0.12533 0.0
N1245 N 0.40453 0.41099 0.16692 0.0
C1246 C 0.41447 0.40905 0.1444 0.0
C1247 C 0.40097 0.3975 0.12193 0.0
C1248 C 0.64627 0.73457 0.4303 0.0
C1249 C 0.66109 0.72736 0.43137 0.0
C1250 C 0.64467 0.74666 0.45174 0.0
C1251 C 0.65756 0.75171 0.47532 0.0
H1252 H 0.6366 0.73179 0.41218 0.0
H1253 H 0.63383 0.75282 0.44926 0.0
S1254 S 0.6963 0.73332 0.48984 0.0
N1255 N 0.68743 0.72428 0.45878 0.0
N1256 N 0.68369 0.74599 0.49966 0.0
C1257 C 0.67147 0.74334 0.47727 0.0
C1258 C 0.6734 0.73143 0.45519 0.0
C1259 C 0.28608 0.9269 0.4418 0.0
C1260 C 0.27726 0.93692 0.42602 0.0
C1261 C 0.27516 0.91418 0.46452 0.0
C1262 C 0.25498 0.91095 0.47233 0.0
H1263 H 0.30153 0.92886 0.43658 0.0
H1264 H 0.28257 0.90681 0.47606 0.0
S1265 S 0.22413 0.93229 0.43685 0.0
N1266 N 0.24666 0.94203 0.41949 0.0
N1267 N 0.22614 0.9179 0.46158 0.0
C1268 C 0.24592 0.92073 0.45662 0.0
C1269 C 0.25704 0.93375 0.43366 0.0
C1270 C 0.06543 0.32763 0.4455 0.0
C1271 C 0.07084 0.34598 0.42974 0.0
C1272 C 0.07848 0.32809 0.46693 0.0
C1273 C 0.0975 0.3469 0.47362 0.0
H1274 H 0.05128 0.31252 0.44078 0.0
H1275 H 0.07395 0.31338 0.47786 0.0
S1276 S 0.11841 0.39972 0.44017 0.0
N1277 N 0.09605 0.38392 0.42354 0.0
N1278 N 0.12068 0.38466 0.46379 0.0
C1279 C 0.10264 0.36566 0.45905 0.0
C1280 C 0.08929 0.36523 0.43713 0.0
C1281 C 0.07466 0.34616 0.27129 0.0
C1282 C 0.06193 0.32791 0.2873 0.0
C1283 C 0.0872 0.34562 0.24983 0.0
C1284 C 0.08755 0.32683 0.24337 0.0
H1285 H 0.0755 0.36125 0.27583 0.0
H1286 H 0.09724 0.36026 0.2387 0.0
S1287 S 0.05615 0.27424 0.27753 0.0
N1288 N 0.04951 0.29007 0.29399 0.0
N1289 N 0.0733 0.28919 0.25367 0.0
C1290 C 0.07411 0.30816 0.25819 0.0
C1291 C 0.06125 0.30867 0.28013 0.0
C1292 C 0.69938 0.76126 0.29063 0.0
C1293 C 0.68482 0.73916 0.29 0.0
C1294 C 0.70104 0.77445 0.26859 0.0
C1295 C 0.68845 0.766 0.24486 0.0
H1296 H 0.70885 0.76856 0.30879 0.0
H1297 H 0.71168 0.79152 0.27067 0.0
S1298 S 0.65046 0.70848 0.23154 0.0
N1299 N 0.65904 0.70904 0.26297 0.0
N1300 N 0.66287 0.73356 0.22101 0.0
C1301 C 0.67478 0.74367 0.24343 0.0
C1302 C 0.67279 0.73034 0.2661 0.0
C1303 C 0.26639 0.92463 0.27723 0.0
C1304 C 0.2699 0.94499 0.28477 0.0
C1305 C 0.25295 0.91321 0.25542 0.0
C1306 C 0.24247 0.92164 0.23996 0.0
H1307 H 0.27366 0.91709 0.28869 0.0
H1308 H 0.25028 0.89732 0.25117 0.0
S1309 S 0.24774 0.97512 0.24931 0.0
N1310 N 0.26266 0.97365 0.27383 0.0
N1311 N 0.23769 0.95229 0.23242 0.0
C1312 C 0.24631 0.94226 0.24662 0.0
C1313 C 0.25995 0.9539 0.26905 0.0
C1314 C 0.70191 0.94027 0.28892 0.0
C1315 C 0.68817 0.94876 0.2873 0.0
C1316 C 0.70351 0.92839 0.26721 0.0
C1317 C 0.69165 0.92484 0.24292 0.0
H1318 H 0.71057 0.94178 0.30764 0.0
H1319 H 0.71335 0.92112 0.27002 0.0
S1320 S 0.65637 0.94711 0.22691 0.0
N1321 N 0.66428 0.95485 0.25863 0.0
N1322 N 0.66799 0.93342 0.21739 0.0
C1323 C 0.67904 0.9346 0.24044 0.0
C1324 C 0.67713 0.94634 0.26271 0.0
C1325 C 0.05741 0.7515 0.27639 0.0
C1326 C 0.06669 0.7417 0.29168 0.0
C1327 C 0.06792 0.76432 0.25355 0.0
C1328 C 0.0881 0.76784 0.2452 0.0
H1329 H 0.04187 0.74916 0.28197 0.0
H1330 H 0.06015 0.77145 0.24226 0.0
S1331 S 0.12026 0.74761 0.2798 0.0
N1332 N 0.09788 0.73747 0.29755 0.0
N1333 N 0.11759 0.76174 0.25524 0.0
C1334 C 0.0977 0.75847 0.26063 0.0
C1335 C 0.08701 0.74537 0.28368 0.0
C1336 C 0.28242 0.35071 0.27326 0.0
C1337 C 0.27832 0.33207 0.28748 0.0
C1338 C 0.26914 0.35004 0.25197 0.0
C1339 C 0.25114 0.33071 0.24393 0.0
H1340 H 0.29573 0.36613 0.27905 0.0
H1341 H 0.27269 0.36491 0.24217 0.0
S1342 S 0.23373 0.27715 0.27339 0.0
N1343 N 0.2554 0.29345 0.29092 0.0
N1344 N 0.23029 0.29231 0.25108 0.0
C1345 C 0.24731 0.3118 0.25708 0.0
C1346 C 0.26091 0.31244 0.27879 0.0
C1347 C 0.26955 0.32498 0.44437 0.0
C1348 C 0.2838 0.3438 0.43028 0.0
C1349 C 0.25678 0.32525 0.46576 0.0
C1350 C 0.25765 0.34434 0.47402 0.0
H1351 H 0.26781 0.30972 0.43844 0.0
H1352 H 0.24572 0.31025 0.47549 0.0
S1353 S 0.29283 0.39824 0.44481 0.0
N1354 N 0.29867 0.38233 0.42711 0.0
N1355 N 0.2744 0.38272 0.46708 0.0
C1356 C 0.2724 0.36344 0.46093 0.0
C1357 C 0.28552 0.3632 0.43913 0.0
C1358 C 0.66879 0.94124 0.45054 0.0
C1359 C 0.65681 0.93276 0.4265 0.0
C1360 C 0.66675 0.92805 0.47269 0.0
C1361 C 0.65295 0.90574 0.47153 0.0
H1362 H 0.68017 0.9582 0.45206 0.0
H1363 H 0.67646 0.93537 0.49066 0.0
S1364 S 0.61817 0.87564 0.41281 0.0
N1365 N 0.63029 0.90086 0.40291 0.0
N1366 N 0.62706 0.87584 0.44395 0.0
C1367 C 0.64047 0.89713 0.44775 0.0
C1368 C 0.64226 0.91069 0.42539 0.0
C1369 C 0.06758 0.7369 0.45327 0.0
C1370 C 0.07526 0.72978 0.43161 0.0
C1371 C 0.08095 0.74889 0.47496 0.0
C1372 C 0.10271 0.75467 0.47561 0.0
H1373 H 0.05114 0.73339 0.4533 0.0
H1374 H 0.07423 0.75397 0.49113 0.0
S1375 S 0.1308 0.74057 0.42301 0.0
N1376 N 0.10587 0.72919 0.41208 0.0
N1377 N 0.1313 0.75255 0.45199 0.0
C1378 C 0.1105 0.74738 0.45413 0.0
C1379 C 0.09672 0.73477 0.43236 0.0
C1380 C 0.35176 0.08458 0.7717 0.0
C1381 C 0.33478 0.06442 0.76379 0.0
C1382 C 0.34964 0.09609 0.79338 0.0
C1383 C 0.33048 0.08796 0.80829 0.0
H1384 H 0.36674 0.0919 0.76063 0.0
H1385 H 0.36297 0.11183 0.79794 0.0
S1386 S 0.28185 0.03503 0.79789 0.0
N1387 N 0.2985 0.03623 0.77389 0.0
N1388 N 0.29469 0.05776 0.81497 0.0
C1389 C 0.31358 0.06752 0.80128 0.0
C1390 C 0.31569 0.05579 0.77903 0.0
C1391 C 0.92892 0.26695 0.77025 0.0
C1392 C 0.94844 0.2692 0.76113 0.0
C1393 C 0.91778 0.25368 0.79226 0.0
C1394 C 0.92569 0.24214 0.80646 0.0
H1395 H 0.92181 0.27514 0.75991 0.0
H1396 H 0.90251 0.25207 0.79775 0.0
S1397 S 0.97695 0.24363 0.79237 0.0
N1398 N 0.97572 0.25939 0.76887 0.0
N1399 N 0.95496 0.23479 0.8108 0.0
C1400 C 0.94545 0.24456 0.79804 0.0
C1401 C 0.95677 0.258 0.77533 0.0
C1402 C 0.75562 0.69749 0.76911 0.0
C1403 C 0.73612 0.67878 0.76338 0.0
C1404 C 0.76879 0.69814 0.7907 0.0
C1405 C 0.76287 0.68012 0.80727 0.0
H1406 H 0.76127 0.71139 0.75606 0.0
H1407 H 0.78417 0.71246 0.79355 0.0
S1408 S 0.71191 0.62857 0.80393 0.0
N1409 N 0.71044 0.64271 0.77839 0.0
N1410 N 0.7352 0.64406 0.81874 0.0
C1411 C 0.74283 0.66187 0.80294 0.0
C1412 C 0.72945 0.66117 0.78107 0.0
C1413 C 0.74233 0.68045 0.60444 0.0
C1414 C 0.72928 0.66215 0.62019 0.0
C1415 C 0.75479 0.67983 0.58293 0.0
C1416 C 0.75475 0.66088 0.57617 0.0
H1417 H 0.74344 0.69564 0.60918 0.0
H1418 H 0.76502 0.69449 0.57196 0.0
S1419 S 0.72256 0.60816 0.60973 0.0
N1420 N 0.71625 0.62414 0.62641 0.0
N1421 N 0.7399 0.62309 0.58604 0.0
C1422 C 0.74106 0.64219 0.5908 0.0
C1423 C 0.72828 0.64279 0.61278 0.0
C1424 C 0.32966 0.06602 0.60752 0.0
C1425 C 0.34853 0.07038 0.6214 0.0
C1426 C 0.32999 0.07882 0.58582 0.0
C1427 C 0.34918 0.09657 0.57695 0.0
H1428 H 0.31434 0.05286 0.61384 0.0
H1429 H 0.31497 0.07506 0.57627 0.0
S1430 S 0.40321 0.11458 0.6053 0.0
N1431 N 0.38719 0.09336 0.6237 0.0
N1432 N 0.38768 0.11753 0.58307 0.0
C1433 C 0.3683 0.1007 0.58983 0.0
C1434 C 0.368 0.08761 0.61199 0.0
C1435 C 0.94489 0.27416 0.59893 0.0
C1436 C 0.93742 0.28074 0.62137 0.0
C1437 C 0.9312 0.26232 0.57742 0.0
C1438 C 0.90934 0.25614 0.57772 0.0
H1439 H 0.96143 0.27799 0.59814 0.0
H1440 H 0.93778 0.25766 0.5606 0.0
S1441 S 0.88172 0.26874 0.63262 0.0
N1442 N 0.90688 0.2804 0.64269 0.0
N1443 N 0.88089 0.25728 0.60308 0.0
C1444 C 0.90175 0.26288 0.60001 0.0
C1445 C 0.91583 0.27535 0.62161 0.0
C1446 C 0.36349 0.28471 0.60572 0.0
C1447 C 0.34425 0.27689 0.62048 0.0
C1448 C 0.3652 0.27334 0.58343 0.0
C1449 C 0.34776 0.25368 0.57497 0.0
H1450 H 0.37743 0.29963 0.61157 0.0
H1451 H 0.38037 0.27992 0.57285 0.0
S1452 S 0.29401 0.22571 0.60708 0.0
N1453 N 0.30736 0.24798 0.62488 0.0
N1454 N 0.31083 0.2266 0.58361 0.0
C1455 C 0.32841 0.24575 0.5894 0.0
C1456 C 0.32661 0.25733 0.61195 0.0
C1457 C 0.73306 0.06519 0.59855 0.0
C1458 C 0.72632 0.0729 0.62056 0.0
C1459 C 0.74504 0.07866 0.577 0.0
C1460 C 0.75122 0.10053 0.57688 0.0
H1461 H 0.72934 0.04867 0.59821 0.0
H1462 H 0.7499 0.07194 0.56057 0.0
S1463 S 0.73798 0.12864 0.63044 0.0
N1464 N 0.72631 0.10358 0.64093 0.0
N1465 N 0.74971 0.12921 0.60124 0.0
C1466 C 0.7442 0.10833 0.59865 0.0
C1467 C 0.73157 0.09445 0.62029 0.0
C1468 C 0.92374 0.64448 0.61326 0.0
C1469 C 0.94294 0.66328 0.61979 0.0
C1470 C 0.91081 0.64402 0.59147 0.0
C1471 C 0.91667 0.66232 0.57546 0.0
H1472 H 0.91814 0.63033 0.62583 0.0
H1473 H 0.89564 0.62959 0.58801 0.0
S1474 S 0.96701 0.71432 0.581 0.0
N1475 N 0.96834 0.69982 0.60617 0.0
N1476 N 0.94407 0.69881 0.56541 0.0
C1477 C 0.93646 0.6807 0.58061 0.0
C1478 C 0.94958 0.68121 0.6027 0.0
C1479 C 0.94876 0.69504 0.77065 0.0
C1480 C 0.94888 0.67605 0.76422 0.0
C1481 C 0.9363 0.69576 0.79227 0.0
C1482 C 0.92356 0.67755 0.80827 0.0
H1483 H 0.95758 0.70918 0.75815 0.0
H1484 H 0.93584 0.71036 0.79564 0.0
S1485 S 0.92096 0.62505 0.80296 0.0
N1486 N 0.93703 0.63936 0.77787 0.0
N1487 N 0.91381 0.64086 0.81839 0.0
C1488 C 0.92461 0.65894 0.8032 0.0
C1489 C 0.93721 0.65816 0.78123 0.0
C1490 C 0.34834 0.26733 0.76969 0.0
C1491 C 0.33125 0.27053 0.76243 0.0
C1492 C 0.3468 0.25433 0.79177 0.0
C1493 C 0.32817 0.24401 0.80776 0.0
H1494 H 0.36295 0.27451 0.75784 0.0
H1495 H 0.36018 0.25188 0.79583 0.0
S1496 S 0.27954 0.24859 0.79924 0.0
N1497 N 0.29544 0.26317 0.77417 0.0
N1498 N 0.29276 0.23901 0.81605 0.0
C1499 C 0.31117 0.24753 0.80135 0.0
C1500 C 0.31267 0.26073 0.77867 0.0
C1501 C 0.75035 0.05817 0.77533 0.0
C1502 C 0.73992 0.06661 0.75971 0.0
C1503 C 0.76377 0.0697 0.79733 0.0
C1504 C 0.76738 0.09018 0.80446 0.0
H1505 H 0.74807 0.04249 0.77063 0.0
H1506 H 0.77135 0.06251 0.80888 0.0
S1507 S 0.74551 0.12037 0.76848 0.0
N1508 N 0.73505 0.09726 0.75224 0.0
N1509 N 0.76051 0.11894 0.79287 0.0
C1510 C 0.75731 0.09891 0.78872 0.0
C1511 C 0.74355 0.08715 0.76656 0.0
C1512 C 0.06149 0.34084 0.06312 0.0
C1513 C 0.06849 0.36192 0.05436 0.0
C1514 C 0.07549 0.33543 0.07618 0.0
C1515 C 0.09698 0.3509 0.08105 0.0
H1516 H 0.04491 0.32856 0.06075 0.0
H1517 H 0.06925 0.3192 0.08341 0.0
S1518 S 0.12409 0.40761 0.05903 0.0
N1519 N 0.09901 0.39785 0.04933 0.0
N1520 N 0.12512 0.38758 0.07373 0.0
C1521 C 0.10443 0.37173 0.07123 0.0
C1522 C 0.09025 0.37725 0.05791 0.0
C1523 C 0.63393 0.70862 0.07086 0.0
C1524 C 0.64854 0.70555 0.05519 0.0
C1525 C 0.64005 0.72807 0.08405 0.0
C1526 C 0.66103 0.74546 0.082 0.0
H1527 H 0.61764 0.69572 0.07351 0.0
H1528 H 0.62827 0.72934 0.09638 0.0
S1529 S 0.7051 0.74635 0.04177 0.0
N1530 N 0.68481 0.72185 0.03754 0.0
N1531 N 0.69619 0.75869 0.0617 0.0
C1532 C 0.67575 0.74279 0.06595 0.0
C1533 C 0.66954 0.72282 0.05269 0.0
C1534 C 0.29662 0.92548 0.06911 0.0
C1535 C 0.30065 0.94394 0.05456 0.0
C1536 C 0.27667 0.91205 0.081 0.0
C1537 C 0.25973 0.91632 0.07871 0.0
H1538 H 0.30912 0.92153 0.07192 0.0
H1539 H 0.27466 0.89838 0.09257 0.0
S1540 S 0.26138 0.96177 0.04108 0.0
N1541 N 0.28574 0.96542 0.03767 0.0
N1542 N 0.24799 0.9398 0.05944 0.0
C1543 C 0.26336 0.9345 0.06375 0.0
C1544 C 0.28383 0.94836 0.05179 0.0
C1545 C 0.37588 0.08137 0.98304 0.0
C1546 C 0.36091 0.06302 0.99731 0.0
C1547 C 0.36996 0.09499 0.97034 0.0
C1548 C 0.34882 0.09103 0.97151 0.0
H1549 H 0.39233 0.0851 0.98109 0.0
H1550 H 0.38205 0.10857 0.95908 0.0
S1551 S 0.30367 0.04594 1.00779 0.0
N1552 N 0.32404 0.04194 0.01261 0.0
N1553 N 0.31301 0.06793 0.98929 0.0
C1554 C 0.33369 0.07295 0.98611 0.0
C1555 C 0.33971 0.0589 0.99891 0.0
C1556 C 0.92874 0.28559 1.00784 0.0
C1557 C 0.95037 0.2981 1.00057 0.0
C1558 C 0.91526 0.26622 0.99446 0.0
C1559 C 0.92267 0.25882 0.97268 0.0
H1560 H 0.92209 0.29097 0.02375 0.0
H1561 H 0.89874 0.25719 1.00096 0.0
S1562 S 0.97811 0.28628 0.94534 0.0
N1563 N 0.97882 0.30178 0.97065 0.0
N1564 N 0.95333 0.26603 0.94441 0.0
C1565 C 0.94446 0.27112 0.96553 0.0
C1566 C 0.95831 0.29059 0.97969 0.0
C1567 C 0.71548 0.63272 0.989 0.0
C1568 C 0.7089 0.64776 0.99429 0.0
C1569 C 0.73501 0.63865 0.97616 0.0
C1570 C 0.74888 0.65989 0.96801 0.0
H1571 H 0.70528 0.61605 0.9943 0.0
H1572 H 0.73916 0.62639 0.97226 0.0
S1573 S 0.7397 0.70567 0.97772 0.0
N1574 N 0.71831 0.68511 0.99108 0.0
N1575 N 0.75494 0.69616 0.96667 0.0
C1576 C 0.74289 0.67527 0.97388 0.0
C1577 C 0.72294 0.66923 0.98705 0.0
C1578 C 0.92409 0.63608 0.99585 0.0
C1579 C 0.9458 0.65125 1.00013 0.0
C1580 C 0.91038 0.64145 0.98219 0.0
C1581 C 0.91772 0.66225 0.97227 0.0
H1582 H 0.91767 0.61966 1.00241 0.0
H1583 H 0.89392 0.62908 0.97896 0.0
S1584 S 0.97277 0.70829 0.97912 0.0
N1585 N 0.97374 0.68835 0.99426 0.0
N1586 N 0.9479 0.69835 0.96843 0.0
C1587 C 0.93914 0.67783 0.97728 0.0
C1588 C 0.95318 0.67236 0.99122 0.0
C1589 C 0.34669 0.28751 0.99631 0.0
C1590 C 0.36765 0.30482 0.99328 0.0
C1591 C 0.34029 0.26762 0.98386 0.0
C1592 C 0.35458 0.2643 0.96784 0.0
H1593 H 0.33512 0.2893 1.00842 0.0
H1594 H 0.32408 0.25469 0.98702 0.0
S1595 S 0.41067 0.30487 0.95145 0.0
N1596 N 0.40238 0.31745 0.97188 0.0
N1597 N 0.3902 0.2804 0.9482 0.0
C1598 C 0.37545 0.28157 0.96427 0.0
C1599 C 0.38201 0.30171 0.97705 0.0
C1600 C 0.72597 0.06341 0.99742 0.0
C1601 C 0.70835 0.06661 0.99472 0.0
C1602 C 0.74555 0.07699 0.98443 0.0
C1603 C 0.74823 0.09424 0.96814 0.0
H1604 H 0.72466 0.05031 1.00966 0.0
H1605 H 0.75874 0.07406 0.98733 0.0
S1606 S 0.70658 0.10847 0.95247 0.0
N1607 N 0.6947 0.08787 0.97336 0.0
N1608 N 0.73118 0.11292 0.94868 0.0
C1609 C 0.73065 0.0974 0.96495 0.0
C1610 C 0.71082 0.08373 0.97829 0.0
C1611 C 0.66623 0.94492 0.05628 0.0
C1612 C 0.64566 0.94213 0.06003 0.0
C1613 C 0.6723 0.93126 0.06892 0.0
C1614 C 0.65809 0.91439 0.08596 0.0
H1615 H 0.67773 0.95769 0.04339 0.0
H1616 H 0.6882 0.93384 0.06513 0.0
S1617 S 0.60309 0.90151 0.1046 0.0
N1618 N 0.61144 0.92179 0.08321 0.0
N1619 N 0.62303 0.89663 0.10734 0.0
C1620 C 0.63762 0.9117 0.09027 0.0
C1621 C 0.63137 0.92543 0.07723 0.0
C1622 C 0.08058 0.72221 0.0419 0.0
C1623 C 0.05927 0.70912 0.05014 0.0
C1624 C 0.09392 0.74178 0.05491 0.0
C1625 C 0.08667 0.74884 0.07723 0.0
H1626 H 0.08711 0.71716 0.02545 0.0
H1627 H 0.11019 0.75129 0.04766 0.0
S1628 S 0.03211 0.71988 0.10716 0.0
N1629 N 0.03128 0.70452 0.08161 0.0
N1630 N 0.05655 0.74071 0.10709 0.0
C1631 C 0.06519 0.73595 0.08539 0.0
C1632 C 0.05147 0.71624 0.07164 0.0
C1633 C 0.29102 0.34444 0.06404 0.0
C1634 C 0.30508 0.36571 0.05604 0.0
C1635 C 0.27143 0.33866 0.07684 0.0
C1636 C 0.2652 0.35395 0.08211 0.0
H1637 H 0.29547 0.33228 0.06131 0.0
H1638 H 0.26146 0.32229 0.08353 0.0
S1639 S 0.29471 0.41107 0.06183 0.0
N1640 N 0.3103 0.40164 0.05204 0.0
N1641 N 0.27354 0.3907 0.07581 0.0
C1642 C 0.27858 0.37499 0.07298 0.0
C1643 C 0.29849 0.38089 0.06002 0.0
C1644 C 0.7549 0.70998 0.3943 0.0
C1645 C 0.73344 0.69469 0.38871 0.0
C1646 C 0.76873 0.70428 0.407 0.0
C1647 C 0.76177 0.68303 0.41469 0.0
H1648 H 0.76104 0.72667 0.38937 0.0
H1649 H 0.785 0.71673 0.41116 0.0
S1650 S 0.70737 0.63662 0.4041 0.0
N1651 N 0.7061 0.65708 0.39118 0.0
N1652 N 0.73211 0.64647 0.4153 0.0
C1653 C 0.74057 0.66741 0.40851 0.0
C1654 C 0.72642 0.67321 0.3955 0.0
C1655 C 0.33399 0.05358 0.39289 0.0
C1656 C 0.31288 0.04009 0.38377 0.0
C1657 C 0.33976 0.07278 0.40681 0.0
C1658 C 0.32462 0.07916 0.41229 0.0
H1659 H 0.34606 0.04904 0.38996 0.0
H1660 H 0.35604 0.08238 0.41408 0.0
S1661 S 0.26792 0.05103 0.39016 0.0
N1662 N 0.27724 0.03556 0.37942 0.0
N1663 N 0.28817 0.07151 0.40548 0.0
C1664 C 0.30373 0.0663 0.40236 0.0
C1665 C 0.29785 0.04684 0.38812 0.0
C1666 C 0.96568 0.25914 0.40289 0.0
C1667 C 0.96841 0.27674 0.38736 0.0
C1668 C 0.94635 0.24563 0.41611 0.0
C1669 C 0.92876 0.24893 0.41419 0.0
H1670 H 0.97877 0.25602 0.40549 0.0
H1671 H 0.94535 0.23269 0.42841 0.0
S1672 S 0.92695 0.29166 0.37413 0.0
N1673 N 0.95159 0.29626 0.36984 0.0
N1674 N 0.91494 0.2704 0.394 0.0
C1675 C 0.93107 0.26617 0.39817 0.0
C1676 C 0.95093 0.28015 0.38492 0.0
C1677 C 0.01213 0.39737 0.32983 0.0
C1678 C 0.03278 0.40011 0.32748 0.0
C1679 C 0.00668 0.4113 0.31667 0.0
C1680 C 0.02162 0.42839 0.30048 0.0
H1681 H 1.00008 0.3844 0.34196 0.0
H1682 H 0.99067 0.40874 0.31933 0.0
S1683 S 0.07724 0.44133 0.28567 0.0
N1684 N 0.06794 0.42071 0.30663 0.0
N1685 N 0.05751 0.44636 0.28145 0.0
C1686 C 0.0422 0.43106 0.29762 0.0
C1687 C 0.04782 0.41707 0.31122 0.0
C1688 C 0.59526 0.6222 0.33823 0.0
C1689 C 0.61702 0.63427 0.3314 0.0
C1690 C 0.58173 0.60263 0.3253 0.0
C1691 C 0.58923 0.59458 0.30438 0.0
H1692 H 0.58858 0.62805 0.35352 0.0
H1693 H 0.56512 0.59391 0.33151 0.0
S1694 S 0.64498 0.62088 0.27816 0.0
N1695 N 0.64565 0.63696 0.30265 0.0
N1696 N 0.62009 0.60085 0.27716 0.0
C1697 C 0.61112 0.60652 0.29756 0.0
C1698 C 0.62501 0.62619 0.31131 0.0
C1699 C 0.38905 0.99638 0.32831 0.0
C1700 C 0.37142 0.97558 0.32568 0.0
C1701 C 0.40869 1.0022 0.3156 0.0
C1702 C 0.41141 0.98751 0.29953 0.0
H1703 H 0.38771 0.00826 0.34036 0.0
H1704 H 0.42189 0.01831 0.31852 0.0
S1705 S 0.36961 0.93161 0.28404 0.0
N1706 N 0.35774 0.94054 0.3047 0.0
N1707 N 0.39426 0.95165 0.28028 0.0
C1708 C 0.39377 0.96677 0.29637 0.0
C1709 C 0.37391 0.96078 0.30956 0.0
C1710 C 0.61284 0.99565 0.32654 0.0
C1711 C 0.61055 0.97534 0.32198 0.0
C1712 C 0.59901 1.0016 0.31415 0.0
C1713 C 0.58244 0.9875 0.29664 0.0
H1714 H 0.62536 0.00704 0.33983 0.0
H1715 H 0.60121 0.01729 0.3185 0.0
S1716 S 0.57076 0.93321 0.27602 0.0
N1717 N 0.59093 0.9415 0.29759 0.0
N1718 N 0.5654 0.95288 0.27404 0.0
C1719 C 0.58021 0.96731 0.29157 0.0
C1720 C 0.59413 0.96118 0.30429 0.0
C1721 C 0.01292 0.62057 0.32959 0.0
C1722 C 0.03384 0.63813 0.32776 0.0
C1723 C 0.00711 0.60115 0.31617 0.0
C1724 C 0.02196 0.59861 0.30024 0.0
H1725 H 1.00096 0.62178 0.34157 0.0
H1726 H 0.99093 0.58797 0.31849 0.0
S1727 S 0.07816 0.64034 0.28657 0.0
N1728 N 0.06911 0.65196 0.30748 0.0
N1729 N 0.05804 0.61586 0.28187 0.0
C1730 C 0.04277 0.6162 0.2978 0.0
C1731 C 0.04875 0.63583 0.31163 0.0
C1732 C 0.38972 0.39045 0.31542 0.0
C1733 C 0.38024 0.39814 0.33398 0.0
C1734 C 0.40877 0.40448 0.30176 0.0
C1735 C 0.41924 0.42673 0.30639 0.0
H1736 H 0.38187 0.37358 0.31046 0.0
H1737 H 0.41493 0.39788 0.28677 0.0
S1738 S 0.40261 0.45446 0.3563 0.0
N1739 N 0.38366 0.42912 0.35814 0.0
N1740 N 0.41986 0.45536 0.33344 0.0
C1741 C 0.4105 0.43443 0.3261 0.0
C1742 C 0.39094 0.42018 0.33965 0.0
C1743 C 0.3169 0.26133 0.37462 0.0
C1744 C 0.32541 0.28248 0.3838 0.0
C1745 C 0.32238 0.24727 0.38722 0.0
C1746 C 0.33614 0.2536 0.41006 0.0
H1747 H 0.30563 0.25547 0.3578 0.0
H1748 H 0.31538 0.23114 0.37928 0.0
S1749 S 0.36217 0.30741 0.44244 0.0
N1750 N 0.3485 0.30935 0.41665 0.0
N1751 N 0.35793 0.28272 0.4414 0.0
C1752 C 0.34504 0.27493 0.41913 0.0
C1753 C 0.33985 0.2894 0.40578 0.0
C1754 C 0.74967 0.04123 0.40729 0.0
C1755 C 0.73252 0.03825 0.39059 0.0
C1756 C 0.76308 0.06088 0.41998 0.0
C1757 C 0.76008 0.07855 0.4164 0.0
H1758 H 0.75259 0.02812 0.41113 0.0
H1759 H 0.77572 0.06211 0.43312 0.0
S1760 S 0.7185 0.07977 0.37306 0.0
N1761 N 0.71374 0.05496 0.3703 0.0
N1762 N 0.73933 0.09212 0.39361 0.0
C1763 C 0.74325 0.07597 0.39932 0.0
C1764 C 0.72942 0.05582 0.38653 0.0
C1765 C 0.96407 0.71058 0.39327 0.0
C1766 C 0.97063 0.69552 0.38809 0.0
C1767 C 0.94454 0.7047 0.40607 0.0
C1768 C 0.93065 0.68348 0.41424 0.0
H1769 H 0.97431 0.72725 0.38797 0.0
H1770 H 0.94041 0.71698 0.40994 0.0
S1771 S 0.93973 0.63762 0.40477 0.0
N1772 N 0.96116 0.65815 0.39141 0.0
N1773 N 0.92451 0.64719 0.4157 0.0
C1774 C 0.9366 0.66807 0.40845 0.0
C1775 C 0.95656 0.67405 0.39535 0.0
C1776 C 0.39479 0.00806 0.72861 0.0
C1777 C 0.40282 0.02928 0.71962 0.0
C1778 C 0.40797 1.00176 0.74207 0.0
C1779 C 0.42965 0.01645 0.74718 0.0
H1780 H 0.37803 0.99635 0.72602 0.0
H1781 H 0.40095 0.98546 0.74938 0.0
S1782 S 0.4593 0.07313 0.72501 0.0
N1783 N 0.43451 0.06446 0.71483 0.0
N1784 N 0.45906 0.05254 0.74002 0.0
C1785 C 0.43812 0.0374 0.73725 0.0
C1786 C 0.42478 0.04382 0.72349 0.0
C1787 C 0.96864 0.38052 0.72664 0.0
C1788 C 0.98388 0.37425 0.72114 0.0
C1789 C 0.97424 0.39973 0.74019 0.0
C1790 C 0.99533 0.41358 0.74886 0.0
H1791 H 0.95205 0.3703 0.72094 0.0
H1792 H 0.96184 0.40365 0.7442 0.0
S1793 S 0.04156 0.40517 0.73896 0.0
N1794 N 0.02128 0.38394 0.7248 0.0
N1795 N 0.03171 0.41999 0.7505 0.0
C1796 C 0.01092 0.40791 0.74282 0.0
C1797 C 1.00522 0.38828 0.72895 0.0
C1798 C 0.63183 0.59269 0.73406 0.0
C1799 C 0.63463 0.61036 0.71862 0.0
C1800 C 0.61245 0.57912 0.74714 0.0
C1801 C 0.59488 0.58244 0.74517 0.0
H1802 H 0.64492 0.58957 0.73672 0.0
H1803 H 0.61141 0.56615 0.7594 0.0
S1804 S 0.59323 0.62533 0.70526 0.0
N1805 N 0.61788 0.62994 0.7011 0.0
N1806 N 0.58114 0.60399 0.725 0.0
C1807 C 0.59725 0.59974 0.72922 0.0
C1808 C 0.61716 0.61377 0.7161 0.0
C1809 C 0.67839 0.73058 0.6635 0.0
C1810 C 0.69914 0.7336 0.66089 0.0
C1811 C 0.67262 0.74434 0.65054 0.0
C1812 C 0.68731 0.76152 0.63426 0.0
H1813 H 0.66652 0.71752 0.67569 0.0
H1814 H 0.65655 0.74155 0.6534 0.0
S1815 S 0.74307 0.77519 0.61883 0.0
N1816 N 0.73413 0.75458 0.63975 0.0
N1817 N 0.72309 0.7799 0.6149 0.0
C1818 C 0.70799 0.76449 0.63116 0.0
C1819 C 0.71394 0.75068 0.64458 0.0
C1820 C 0.29096 0.9594 0.64676 0.0
C1821 C 0.28421 0.96758 0.66824 0.0
C1822 C 0.2766 0.94018 0.6336 0.0
C1823 C 0.255 0.92821 0.64173 0.0
H1824 H 0.30718 0.96845 0.63915 0.0
H1825 H 0.28231 0.93513 0.61625 0.0
S1826 S 0.2305 0.94117 0.70014 0.0
N1827 N 0.25522 0.96147 0.69876 0.0
N1828 N 0.22852 0.92481 0.67525 0.0
C1829 C 0.2485 0.93564 0.66442 0.0
C1830 C 0.26301 0.95543 0.67735 0.0
C1831 C 0.05648 0.33239 0.65396 0.0
C1832 C 0.04243 0.31123 0.66247 0.0
C1833 C 0.07594 0.33795 0.64092 0.0
C1834 C 0.08207 0.32256 0.63583 0.0
H1835 H 0.05213 0.34463 0.65656 0.0
H1836 H 0.08591 0.35424 0.63391 0.0
S1837 S 0.05257 0.26568 0.65717 0.0
N1838 N 0.03716 0.27531 0.667 0.0
N1839 N 0.07363 0.28585 0.64269 0.0
C1840 C 0.0687 0.30164 0.64538 0.0
C1841 C 0.04894 0.29597 0.65864 0.0
C1842 C 0.28445 0.33322 0.65596 0.0
C1843 C 0.27709 0.3124 0.66604 0.0
C1844 C 0.27062 0.33861 0.64239 0.0
C1845 C 0.24895 0.32336 0.63831 0.0
H1846 H 0.30117 0.34529 0.65771 0.0
H1847 H 0.27711 0.3546 0.63418 0.0
S1848 S 0.22095 0.26752 0.66371 0.0
N1849 N 0.24606 0.27707 0.67308 0.0
N1850 N 0.22029 0.28729 0.64767 0.0
C1851 C 0.24116 0.30285 0.6494 0.0
C1852 C 0.25515 0.29736 0.66325 0.0
C1853 C 0.71072 0.96682 0.64669 0.0
C1854 C 0.69602 0.96983 0.66226 0.0
C1855 C 0.70472 0.94734 0.63361 0.0
C1856 C 0.6838 0.92984 0.63568 0.0
H1857 H 0.72695 0.97981 0.64395 0.0
H1858 H 0.71656 0.94615 0.6213 0.0
S1859 S 0.6396 0.92872 0.67588 0.0
N1860 N 0.65976 0.95332 0.67996 0.0
N1861 N 0.64864 0.91644 0.65606 0.0
C1862 C 0.66902 0.93243 0.65173 0.0
C1863 C 0.6751 0.95243 0.66486 0.0
C1864 C 0.06042 0.73168 0.66681 0.0
C1865 C 0.04226 0.73397 0.66414 0.0
C1866 C 0.07977 0.74586 0.65381 0.0
C1867 C 0.08166 0.76276 0.63741 0.0
H1868 H 0.05969 0.71882 0.67904 0.0
H1869 H 0.09339 0.7436 0.65668 0.0
S1870 S 0.03828 0.77454 0.6218 0.0
N1871 N 0.0272 0.75396 0.64284 0.0
N1872 N 0.06323 0.78009 0.61793 0.0
C1873 C 0.06352 0.76503 0.6343 0.0
C1874 C 0.04394 0.75078 0.64776 0.0
C1875 C 1.0026 0.61454 0.72698 0.0
C1876 C 0.9818 0.60722 0.71685 0.0
C1877 C 0.00794 0.60066 0.7405 0.0
C1878 C 0.99267 0.57898 0.74446 0.0
H1879 H 0.01466 0.63128 0.72537 0.0
H1880 H 0.02389 0.60714 0.74883 0.0
S1881 S 0.93691 0.55107 0.7187 0.0
N1882 N 0.94649 0.57623 0.70951 0.0
N1883 N 0.95663 0.55034 0.73478 0.0
C1884 C 0.9722 0.57122 0.73323 0.0
C1885 C 0.96675 0.58528 0.71946 0.0
C1886 C 0.3965 0.38872 0.71951 0.0
C1887 C 0.39999 0.37124 0.72142 0.0
C1888 C 0.41003 0.40818 0.73283 0.0
C1889 C 0.42744 0.41085 0.74881 0.0
H1890 H 0.38327 0.3874 0.70757 0.0
H1891 H 0.40691 0.42129 0.73043 0.0
S1892 S 0.44222 0.3693 0.76257 0.0
N1893 N 0.42159 0.35759 0.74166 0.0
N1894 N 0.44644 0.39375 0.76723 0.0
C1895 C 0.43082 0.39333 0.75127 0.0
C1896 C 0.41726 0.37366 0.73746 0.0
C1897 C 0.62632 0.03968 0.72642 0.0
C1898 C 0.63323 0.02495 0.72071 0.0
C1899 C 0.60699 0.03343 0.73995 0.0
C1900 C 0.59363 0.01217 0.74834 0.0
H1901 H 0.63614 0.05637 0.72094 0.0
H1902 H 0.60258 0.04547 0.74417 0.0
S1903 S 0.60371 0.96706 0.73767 0.0
N1904 N 0.62463 0.98782 0.7238 0.0
N1905 N 0.58831 0.97617 0.74942 0.0
C1906 C 0.59991 0.99707 0.74206 0.0
C1907 C 0.61969 1.00343 0.72824 0.0
loop_
_geom_bond_atom_site_label_1
_geom_bond_atom_site_label_2
_geom_bond_distance
_geom_bond_site_symmetry_2
_ccdc_geom_bond_type
O0 Cd1 2.223 . S
O0 C8 1.315 . S
Cd1 O0 2.223 . S
Cd1 O4 2.297 . S
Cd1 O5 2.439 . S
Cd1 O11 2.240 1_554 S
Cd2 O3 2.240 . S
Cd2 O10 2.223 1_554 S
Cd2 O12 2.297 1_554 S
Cd2 O13 2.439 1_554 S
O3 Cd2 2.240 . S
O3 C8 1.279 1_655 S
O4 Cd1 2.297 . S
O4 C6 1.247 . S
O5 Cd1 2.439 . S
O5 C6 1.208 . S
C6 O4 1.247 . S
C6 O5 1.208 . S
C7 O12 1.247 . S
C7 O13 1.208 . S
C8 O0 1.315 . S
C8 O3 1.279 1_455 S
C9 O10 1.315 . S
C9 O11 1.279 1_655 S
O10 Cd2 2.223 1_556 S
O10 C9 1.315 . S
O11 Cd1 2.240 1_556 S
O11 C9 1.279 1_455 S
O12 Cd2 2.297 1_556 S
O12 C7 1.247 . S
O13 Cd2 2.439 1_556 S
O13 C7 1.208 . S
O14 Cd15 2.223 . S
O14 C22 1.315 . S
Cd15 O14 2.223 . S
Cd15 O18 2.297 . S
Cd15 O19 2.439 . S
Cd15 O25 2.240 1_554 S
Cd16 O17 2.240 . S
Cd16 O24 2.223 1_554 S
Cd16 O26 2.297 1_554 S
Cd16 O27 2.439 1_554 S
O17 Cd16 2.240 . S
O17 C22 1.279 . S
O18 Cd15 2.297 . S
O18 C20 1.247 . S
O19 Cd15 2.439 . S
O19 C20 1.208 . S
C20 O18 1.247 . S
C20 O19 1.208 . S
C21 O26 1.247 . S
C21 O27 1.208 . S
C22 O14 1.315 . S
C22 O17 1.279 . S
C23 O24 1.315 . S
C23 O25 1.279 . S
O24 Cd16 2.223 1_556 S
O24 C23 1.315 . S
O25 Cd15 2.240 1_556 S
O25 C23 1.279 . S
O26 Cd16 2.297 1_556 S
O26 C21 1.247 . S
O27 Cd16 2.439 1_556 S
O27 C21 1.208 . S
O28 Cd29 2.223 1_556 S
O28 C36 1.315 . S
Cd29 O28 2.223 1_554 S
Cd29 O32 2.297 1_554 S
Cd29 O33 2.439 1_554 S
Cd29 O39 2.240 . S
Cd30 O31 2.240 1_554 S
Cd30 O38 2.223 . S
Cd30 O40 2.297 . S
Cd30 O41 2.439 . S
O31 Cd30 2.240 1_556 S
O31 C36 1.279 1_565 S
O32 Cd29 2.297 1_556 S
O32 C34 1.247 . S
O33 Cd29 2.439 1_556 S
O33 C34 1.208 . S
C34 O32 1.247 . S
C34 O33 1.208 . S
C35 O40 1.247 . S
C35 O41 1.208 . S
C36 O28 1.315 . S
C36 O31 1.279 1_545 S
C37 O38 1.315 . S
C37 O39 1.279 1_565 S
O38 Cd30 2.223 . S
O38 C37 1.315 . S
O39 Cd29 2.240 . S
O39 C37 1.279 1_545 S
O40 Cd30 2.297 . S
O40 C35 1.247 . S
O41 Cd30 2.439 . S
O41 C35 1.208 . S
O42 Cd43 2.223 1_556 S
O42 C50 1.315 . S
Cd43 O42 2.223 1_554 S
Cd43 O46 2.297 1_554 S
Cd43 O47 2.439 1_554 S
Cd43 O53 2.240 . S
Cd44 O45 2.240 1_554 S
Cd44 O52 2.223 . S
Cd44 O54 2.297 . S
Cd44 O55 2.439 . S
O45 Cd44 2.240 1_556 S
O45 C50 1.279 1_455 S
O46 Cd43 2.297 1_556 S
O46 C48 1.247 . S
O47 Cd43 2.439 1_556 S
O47 C48 1.208 . S
C48 O46 1.247 . S
C48 O47 1.208 . S
C49 O54 1.247 . S
C49 O55 1.208 . S
C50 O42 1.315 . S
C50 O45 1.279 1_655 S
C51 O52 1.315 . S
C51 O53 1.279 1_455 S
O52 Cd44 2.223 . S
O52 C51 1.315 . S
O53 Cd43 2.240 . S
O53 C51 1.279 1_655 S
O54 Cd44 2.297 . S
O54 C49 1.247 . S
O55 Cd44 2.439 . S
O55 C49 1.208 . S
O56 Cd57 2.223 1_556 S
O56 C64 1.315 . S
Cd57 O56 2.223 1_554 S
Cd57 O60 2.297 1_554 S
Cd57 O61 2.439 1_554 S
Cd57 O67 2.240 . S
Cd58 O59 2.240 1_554 S
Cd58 O66 2.223 . S
Cd58 O68 2.297 . S
Cd58 O69 2.439 . S
O59 Cd58 2.240 1_556 S
O59 C64 1.279 . S
O60 Cd57 2.297 1_556 S
O60 C62 1.247 . S
O61 Cd57 2.439 1_556 S
O61 C62 1.208 . S
C62 O60 1.247 . S
C62 O61 1.208 . S
C63 O68 1.247 . S
C63 O69 1.208 . S
C64 O56 1.315 . S
C64 O59 1.279 . S
C65 O66 1.315 . S
C65 O67 1.279 . S
O66 Cd58 2.223 . S
O66 C65 1.315 . S
O67 Cd57 2.240 . S
O67 C65 1.279 . S
O68 Cd58 2.297 . S
O68 C63 1.247 . S
O69 Cd58 2.439 . S
O69 C63 1.208 . S
O70 Cd71 2.223 . S
O70 C78 1.315 . S
Cd71 O70 2.223 . S
Cd71 O74 2.297 . S
Cd71 O75 2.439 . S
Cd71 O81 2.240 1_554 S
Cd72 O73 2.240 . S
Cd72 O80 2.223 1_554 S
Cd72 O82 2.297 1_554 S
Cd72 O83 2.439 1_554 S
O73 Cd72 2.240 . S
O73 C78 1.279 1_545 S
O74 Cd71 2.297 . S
O74 C76 1.247 . S
O75 Cd71 2.439 . S
O75 C76 1.208 . S
C76 O74 1.247 . S
C76 O75 1.208 . S
C77 O82 1.247 . S
C77 O83 1.208 . S
C78 O70 1.315 . S
C78 O73 1.279 1_565 S
C79 O80 1.315 . S
C79 O81 1.279 1_545 S
O80 Cd72 2.223 1_556 S
O80 C79 1.315 . S
O81 Cd71 2.240 1_556 S
O81 C79 1.279 1_565 S
O82 Cd72 2.297 1_556 S
O82 C77 1.247 . S
O83 Cd72 2.439 1_556 S
O83 C77 1.208 . S
O84 Cd85 2.223 . S
O84 C92 1.315 . S
Cd85 O84 2.223 . S
Cd85 O88 2.297 . S
Cd85 O89 2.439 . S
Cd85 O95 2.240 . S
Cd86 O87 2.240 . S
Cd86 O94 2.223 . S
Cd86 O96 2.297 . S
Cd86 O97 2.439 . S
O87 Cd86 2.240 . S
O87 C92 1.279 . S
O88 Cd85 2.297 . S
O88 C90 1.247 . S
O89 Cd85 2.439 . S
O89 C90 1.208 . S
C90 O88 1.247 . S
C90 O89 1.208 . S
C91 O96 1.247 . S
C91 O97 1.208 . S
C92 O84 1.315 . S
C92 O87 1.279 . S
C93 O94 1.315 . S
C93 O95 1.279 . S
O94 Cd86 2.223 . S
O94 C93 1.315 . S
O95 Cd85 2.240 . S
O95 C93 1.279 . S
O96 Cd86 2.297 . S
O96 C91 1.247 . S
O97 Cd86 2.439 . S
O97 C91 1.208 . S
O98 Cd99 2.223 . S
O98 C106 1.315 . S
Cd99 O98 2.223 . S
Cd99 O102 2.297 1_565 S
Cd99 O103 2.439 1_565 S
Cd99 O109 2.240 . S
Cd100 O101 2.240 . S
Cd100 O108 2.223 . S
Cd100 O110 2.297 . S
Cd100 O111 2.439 . S
O101 Cd100 2.240 . S
O101 C106 1.279 . S
O102 Cd99 2.297 1_545 S
O102 C104 1.247 . S
O103 Cd99 2.439 1_545 S
O103 C104 1.208 . S
C104 O102 1.247 . S
C104 O103 1.208 . S
C105 O110 1.247 . S
C105 O111 1.208 . S
C106 O98 1.315 . S
C106 O101 1.279 . S
C107 O108 1.315 . S
C107 O109 1.279 . S
O108 Cd100 2.223 . S
O108 C107 1.315 . S
O109 Cd99 2.240 . S
O109 C107 1.279 . S
O110 Cd100 2.297 . S
O110 C105 1.247 . S
O111 Cd100 2.439 . S
O111 C105 1.208 . S
O112 Cd113 2.223 . S
O112 C120 1.315 . S
Cd113 O112 2.223 . S
Cd113 O116 2.297 . S
Cd113 O117 2.439 . S
Cd113 O123 2.240 . S
Cd114 O115 2.240 . S
Cd114 O122 2.223 . S
Cd114 O124 2.297 1_455 S
Cd114 O125 2.439 1_455 S
O115 Cd114 2.240 . S
O115 C120 1.279 . S
O116 Cd113 2.297 . S
O116 C118 1.247 . S
O117 Cd113 2.439 . S
O117 C118 1.208 . S
C118 O116 1.247 . S
C118 O117 1.208 . S
C119 O124 1.247 . S
C119 O125 1.208 . S
C120 O112 1.315 . S
C120 O115 1.279 . S
C121 O122 1.315 . S
C121 O123 1.279 . S
O122 Cd114 2.223 . S
O122 C121 1.315 . S
O123 Cd113 2.240 . S
O123 C121 1.279 . S
O124 Cd114 2.297 1_655 S
O124 C119 1.247 . S
O125 Cd114 2.439 1_655 S
O125 C119 1.208 . S
O126 Cd127 2.223 . S
O126 C134 1.315 . S
Cd127 O126 2.223 . S
Cd127 O130 2.297 . S
Cd127 O131 2.439 . S
Cd127 O137 2.240 . S
Cd128 O129 2.240 . S
Cd128 O136 2.223 . S
Cd128 O138 2.297 1_565 S
Cd128 O139 2.439 1_565 S
O129 Cd128 2.240 . S
O129 C134 1.279 . S
O130 Cd127 2.297 . S
O130 C132 1.247 . S
O131 Cd127 2.439 . S
O131 C132 1.208 . S
C132 O130 1.247 . S
C132 O131 1.208 . S
C133 O138 1.247 . S
C133 O139 1.208 . S
C134 O126 1.315 . S
C134 O129 1.279 . S
C135 O136 1.315 . S
C135 O137 1.279 . S
O136 Cd128 2.223 . S
O136 C135 1.315 . S
O137 Cd127 2.240 . S
O137 C135 1.279 . S
O138 Cd128 2.297 1_545 S
O138 C133 1.247 . S
O139 Cd128 2.439 1_545 S
O139 C133 1.208 . S
O140 Cd141 2.223 . S
O140 C148 1.315 . S
Cd141 O140 2.223 . S
Cd141 O144 2.297 . S
Cd141 O145 2.439 . S
Cd141 O151 2.240 . S
Cd142 O143 2.240 . S
Cd142 O150 2.223 . S
Cd142 O152 2.297 1_455 S
Cd142 O153 2.439 1_455 S
O143 Cd142 2.240 . S
O143 C148 1.279 . S
O144 Cd141 2.297 . S
O144 C146 1.247 . S
O145 Cd141 2.439 . S
O145 C146 1.208 . S
C146 O144 1.247 . S
C146 O145 1.208 . S
C147 O152 1.247 . S
C147 O153 1.208 . S
C148 O140 1.315 . S
C148 O143 1.279 . S
C149 O150 1.315 . S
C149 O151 1.279 . S
O150 Cd142 2.223 . S
O150 C149 1.315 . S
O151 Cd141 2.240 . S
O151 C149 1.279 . S
O152 Cd142 2.297 1_655 S
O152 C147 1.247 . S
O153 Cd142 2.439 1_655 S
O153 C147 1.208 . S
O154 Cd155 2.223 . S
O154 C162 1.315 . S
Cd155 O154 2.223 . S
Cd155 O158 2.297 . S
Cd155 O159 2.439 . S
Cd155 O165 2.240 . S
Cd156 O157 2.240 . S
Cd156 O164 2.223 . S
Cd156 O166 2.297 . S
Cd156 O167 2.439 . S
O157 Cd156 2.240 . S
O157 C162 1.279 . S
O158 Cd155 2.297 . S
O158 C160 1.247 . S
O159 Cd155 2.439 . S
O159 C160 1.208 . S
C160 O158 1.247 . S
C160 O159 1.208 . S
C161 O166 1.247 . S
C161 O167 1.208 . S
C162 O154 1.315 . S
C162 O157 1.279 . S
C163 O164 1.315 . S
C163 O165 1.279 . S
O164 Cd156 2.223 . S
O164 C163 1.315 . S
O165 Cd155 2.240 . S
O165 C163 1.279 . S
O166 Cd156 2.297 . S
O166 C161 1.247 . S
O167 Cd156 2.439 . S
O167 C161 1.208 . S
O168 Cd169 2.223 . S
O168 C176 1.315 . S
Cd169 O168 2.223 . S
Cd169 O172 2.297 . S
Cd169 O173 2.439 . S
Cd169 O179 2.240 . S
Cd170 O171 2.240 . S
Cd170 O178 2.223 . S
Cd170 O180 2.297 1_545 S
Cd170 O181 2.439 1_545 S
O171 Cd170 2.240 . S
O171 C176 1.279 . S
O172 Cd169 2.297 . S
O172 C174 1.247 . S
O173 Cd169 2.439 . S
O173 C174 1.208 . S
C174 O172 1.247 . S
C174 O173 1.208 . S
C175 O180 1.247 . S
C175 O181 1.208 . S
C176 O168 1.315 . S
C176 O171 1.279 . S
C177 O178 1.315 . S
C177 O179 1.279 . S
O178 Cd170 2.223 . S
O178 C177 1.315 . S
O179 Cd169 2.240 . S
O179 C177 1.279 . S
O180 Cd170 2.297 1_565 S
O180 C175 1.247 . S
O181 Cd170 2.439 1_565 S
O181 C175 1.208 . S
O182 Cd183 2.223 . S
O182 C190 1.315 . S
Cd183 O182 2.223 . S
Cd183 O186 2.297 . S
Cd183 O187 2.439 . S
Cd183 O193 2.240 . S
Cd184 O185 2.240 . S
Cd184 O192 2.223 . S
Cd184 O194 2.297 1_655 S
Cd184 O195 2.439 1_655 S
O185 Cd184 2.240 . S
O185 C190 1.279 . S
O186 Cd183 2.297 . S
O186 C188 1.247 . S
O187 Cd183 2.439 . S
O187 C188 1.208 . S
C188 O186 1.247 . S
C188 O187 1.208 . S
C189 O194 1.247 . S
C189 O195 1.208 . S
C190 O182 1.315 . S
C190 O185 1.279 . S
C191 O192 1.315 . S
C191 O193 1.279 . S
O192 Cd184 2.223 . S
O192 C191 1.315 . S
O193 Cd183 2.240 . S
O193 C191 1.279 . S
O194 Cd184 2.297 1_455 S
O194 C189 1.247 . S
O195 Cd184 2.439 1_455 S
O195 C189 1.208 . S
O196 Cd197 2.223 . S
O196 C204 1.315 . S
Cd197 O196 2.223 . S
Cd197 O200 2.297 . S
Cd197 O201 2.439 . S
Cd197 O207 2.240 . S
Cd198 O199 2.240 . S
Cd198 O206 2.223 . S
Cd198 O208 2.297 . S
Cd198 O209 2.439 . S
O199 Cd198 2.240 . S
O199 C204 1.279 . S
O200 Cd197 2.297 . S
O200 C202 1.247 . S
O201 Cd197 2.439 . S
O201 C202 1.208 . S
C202 O200 1.247 . S
C202 O201 1.208 . S
C203 O208 1.247 . S
C203 O209 1.208 . S
C204 O196 1.315 . S
C204 O199 1.279 . S
C205 O206 1.315 . S
C205 O207 1.279 . S
O206 Cd198 2.223 . S
O206 C205 1.315 . S
O207 Cd197 2.240 . S
O207 C205 1.279 . S
O208 Cd198 2.297 . S
O208 C203 1.247 . S
O209 Cd198 2.439 . S
O209 C203 1.208 . S
O210 Cd211 2.223 . S
O210 C218 1.315 . S
Cd211 O210 2.223 . S
Cd211 O214 2.297 . S
Cd211 O215 2.439 . S
Cd211 O221 2.240 . S
Cd212 O213 2.240 . S
Cd212 O220 2.223 . S
Cd212 O222 2.297 . S
Cd212 O223 2.439 . S
O213 Cd212 2.240 . S
O213 C218 1.279 . S
O214 Cd211 2.297 . S
O214 C216 1.247 . S
O215 Cd211 2.439 . S
O215 C216 1.208 . S
C216 O214 1.247 . S
C216 O215 1.208 . S
C217 O222 1.247 . S
C217 O223 1.208 . S
C218 O210 1.315 . S
C218 O213 1.279 . S
C219 O220 1.315 . S
C219 O221 1.279 . S
O220 Cd212 2.223 . S
O220 C219 1.315 . S
O221 Cd211 2.240 . S
O221 C219 1.279 . S
O222 Cd212 2.297 . S
O222 C217 1.247 . S
O223 Cd212 2.439 . S
O223 C217 1.208 . S
O224 Cd225 2.223 . S
O224 C232 1.315 . S
Cd225 O224 2.223 . S
Cd225 O228 2.297 1_545 S
Cd225 O229 2.439 1_545 S
Cd225 O235 2.240 . S
Cd226 O227 2.240 . S
Cd226 O234 2.223 . S
Cd226 O236 2.297 . S
Cd226 O237 2.439 . S
O227 Cd226 2.240 . S
O227 C232 1.279 . S
O228 Cd225 2.297 1_565 S
O228 C230 1.247 . S
O229 Cd225 2.439 1_565 S
O229 C230 1.208 . S
C230 O228 1.247 . S
C230 O229 1.208 . S
C231 O236 1.247 . S
C231 O237 1.208 . S
C232 O224 1.315 . S
C232 O227 1.279 . S
C233 O234 1.315 . S
C233 O235 1.279 . S
O234 Cd226 2.223 . S
O234 C233 1.315 . S
O235 Cd225 2.240 . S
O235 C233 1.279 . S
O236 Cd226 2.297 . S
O236 C231 1.247 . S
O237 Cd226 2.439 . S
O237 C231 1.208 . S
O238 Cd239 2.223 . S
O238 C246 1.315 . S
Cd239 O238 2.223 . S
Cd239 O242 2.297 . S
Cd239 O243 2.439 . S
Cd239 O249 2.240 . S
Cd240 O241 2.240 . S
Cd240 O248 2.223 . S
Cd240 O250 2.297 1_655 S
Cd240 O251 2.439 1_655 S
O241 Cd240 2.240 . S
O241 C246 1.279 . S
O242 Cd239 2.297 . S
O242 C244 1.247 . S
O243 Cd239 2.439 . S
O243 C244 1.208 . S
C244 O242 1.247 . S
C244 O243 1.208 . S
C245 O250 1.247 . S
C245 O251 1.208 . S
C246 O238 1.315 . S
C246 O241 1.279 . S
C247 O248 1.315 . S
C247 O249 1.279 . S
O248 Cd240 2.223 . S
O248 C247 1.315 . S
O249 Cd239 2.240 . S
O249 C247 1.279 . S
O250 Cd240 2.297 1_455 S
O250 C245 1.247 . S
O251 Cd240 2.439 1_455 S
O251 C245 1.208 . S
H252 C271 0.949 . S
H253 C272 0.950 . S
H254 C274 0.950 . S
H255 C275 0.950 . S
H256 C277 0.950 . S
H257 C280 0.950 . S
H258 C281 0.950 . S
H259 C283 0.951 . S
H260 C284 0.949 . S
H261 C286 0.949 . S
H262 C287 0.950 . S
H263 C289 0.950 . S
H264 C290 0.950 . S
H265 C292 0.950 . S
H266 C295 0.950 . S
H267 C296 0.950 . S
H268 C298 0.951 . S
H269 C299 0.949 . S
C270 C271 1.376 . S
C270 C275 1.386 . S
C270 C276 1.483 . S
C271 H252 0.949 . S
C271 C270 1.376 . S
C271 C272 1.397 . S
C272 H253 0.950 . S
C272 C271 1.397 . S
C272 C273 1.391 . S
C273 C272 1.391 . S
C273 C274 1.405 . S
C274 H254 0.950 . S
C274 C273 1.405 . S
C274 C275 1.367 . S
C275 H255 0.950 . S
C275 C270 1.386 . S
C275 C274 1.367 . S
C276 C270 1.483 . S
C276 C277 1.382 . S
C276 C278 1.403 . S
C277 H256 0.950 . S
C277 C276 1.382 . S
C277 C293 1.411 . S
C278 C276 1.403 . S
C278 C279 1.489 . S
C278 C292 1.411 . S
C279 C278 1.489 . S
C279 C280 1.383 . S
C279 C284 1.382 . S
C280 H257 0.950 . S
C280 C279 1.383 . S
C280 C281 1.395 . S
C281 H258 0.950 . S
C281 C280 1.395 . S
C281 C282 1.288 . S
C282 C281 1.288 . S
C282 C283 1.392 . S
C283 H259 0.951 . S
C283 C282 1.392 . S
C283 C284 1.392 . S
C284 H260 0.949 . S
C284 C279 1.382 . S
C284 C283 1.392 . S
C285 C286 1.376 . S
C285 C290 1.386 . S
C285 C291 1.483 . S
C286 H261 0.949 . S
C286 C285 1.376 . S
C286 C287 1.397 . S
C287 H262 0.950 . S
C287 C286 1.397 . S
C287 C288 1.391 . S
C288 C287 1.391 . S
C288 C289 1.405 . S
C289 H263 0.950 . S
C289 C288 1.405 . S
C289 C290 1.367 . S
C290 H264 0.950 . S
C290 C285 1.386 . S
C290 C289 1.367 . S
C291 C285 1.483 . S
C291 C292 1.382 . S
C291 C293 1.403 . S
C292 H265 0.950 . S
C292 C278 1.411 . S
C292 C291 1.382 . S
C293 C277 1.411 . S
C293 C291 1.403 . S
C293 C294 1.489 . S
C294 C293 1.489 . S
C294 C295 1.383 . S
C294 C299 1.382 . S
C295 H266 0.950 . S
C295 C294 1.383 . S
C295 C296 1.395 . S
C296 H267 0.950 . S
C296 C295 1.395 . S
C296 C297 1.288 . S
C297 C296 1.288 . S
C297 C298 1.392 . S
C298 H268 0.951 . S
C298 C297 1.392 . S
C298 C299 1.392 . S
C299 H269 0.949 . S
C299 C294 1.382 . S
C299 C298 1.392 . S
H300 C319 0.949 . S
H301 C320 0.950 . S
H302 C322 0.950 . S
H303 C323 0.950 . S
H304 C325 0.950 . S
H305 C328 0.950 . S
H306 C329 0.950 . S
H307 C331 0.951 . S
H308 C332 0.949 . S
H309 C334 0.949 . S
H310 C335 0.950 . S
H311 C337 0.950 . S
H312 C338 0.950 . S
H313 C340 0.950 . S
H314 C343 0.950 . S
H315 C344 0.950 . S
H316 C346 0.951 . S
H317 C347 0.949 . S
C318 C319 1.376 . S
C318 C323 1.386 . S
C318 C324 1.483 . S
C319 H300 0.949 . S
C319 C318 1.376 . S
C319 C320 1.397 . S
C320 H301 0.950 . S
C320 C319 1.397 . S
C320 C321 1.391 . S
C321 C320 1.391 . S
C321 C322 1.405 . S
C322 H302 0.950 . S
C322 C321 1.405 . S
C322 C323 1.367 . S
C323 H303 0.950 . S
C323 C318 1.386 . S
C323 C322 1.367 . S
C324 C318 1.483 . S
C324 C325 1.382 . S
C324 C326 1.403 . S
C325 H304 0.950 . S
C325 C324 1.382 . S
C325 C341 1.411 . S
C326 C324 1.403 . S
C326 C327 1.489 . S
C326 C340 1.411 . S
C327 C326 1.489 . S
C327 C328 1.383 . S
C327 C332 1.382 . S
C328 H305 0.950 . S
C328 C327 1.383 . S
C328 C329 1.395 . S
C329 H306 0.950 . S
C329 C328 1.395 . S
C329 C330 1.288 . S
C330 C329 1.288 . S
C330 C331 1.392 . S
C331 H307 0.951 . S
C331 C330 1.392 . S
C331 C332 1.392 . S
C332 H308 0.949 . S
C332 C327 1.382 . S
C332 C331 1.392 . S
C333 C334 1.376 . S
C333 C338 1.386 . S
C333 C339 1.483 . S
C334 H309 0.949 . S
C334 C333 1.376 . S
C334 C335 1.397 . S
C335 H310 0.950 . S
C335 C334 1.397 . S
C335 C336 1.391 . S
C336 C335 1.391 . S
C336 C337 1.405 . S
C337 H311 0.950 . S
C337 C336 1.405 . S
C337 C338 1.367 . S
C338 H312 0.950 . S
C338 C333 1.386 . S
C338 C337 1.367 . S
C339 C333 1.483 . S
C339 C340 1.382 . S
C339 C341 1.403 . S
C340 H313 0.950 . S
C340 C326 1.411 . S
C340 C339 1.382 . S
C341 C325 1.411 . S
C341 C339 1.403 . S
C341 C342 1.489 . S
C342 C341 1.489 . S
C342 C343 1.383 . S
C342 C347 1.382 . S
C343 H314 0.950 . S
C343 C342 1.383 . S
C343 C344 1.395 . S
C344 H315 0.950 . S
C344 C343 1.395 . S
C344 C345 1.288 . S
C345 C344 1.288 . S
C345 C346 1.392 . S
C346 H316 0.951 . S
C346 C345 1.392 . S
C346 C347 1.392 . S
C347 H317 0.949 . S
C347 C342 1.382 . S
C347 C346 1.392 . S
H348 C367 0.949 . S
H349 C368 0.950 . S
H350 C370 0.950 . S
H351 C371 0.950 . S
H352 C373 0.950 . S
H353 C376 0.950 . S
H354 C377 0.950 . S
H355 C379 0.951 . S
H356 C380 0.949 . S
H357 C382 0.949 . S
H358 C383 0.950 . S
H359 C385 0.950 . S
H360 C386 0.950 . S
H361 C388 0.950 . S
H362 C391 0.950 . S
H363 C392 0.950 . S
H364 C394 0.951 . S
H365 C395 0.949 . S
C366 C367 1.376 . S
C366 C371 1.386 . S
C366 C372 1.483 . S
C367 H348 0.949 . S
C367 C366 1.376 . S
C367 C368 1.397 . S
C368 H349 0.950 . S
C368 C367 1.397 . S
C368 C369 1.391 . S
C369 C368 1.391 . S
C369 C370 1.405 . S
C370 H350 0.950 . S
C370 C369 1.405 . S
C370 C371 1.367 . S
C371 H351 0.950 . S
C371 C366 1.386 . S
C371 C370 1.367 . S
C372 C366 1.483 . S
C372 C373 1.382 . S
C372 C374 1.403 . S
C373 H352 0.950 . S
C373 C372 1.382 . S
C373 C389 1.411 . S
C374 C372 1.403 . S
C374 C375 1.489 . S
C374 C388 1.411 . S
C375 C374 1.489 . S
C375 C376 1.383 . S
C375 C380 1.382 . S
C376 H353 0.950 . S
C376 C375 1.383 . S
C376 C377 1.395 . S
C377 H354 0.950 . S
C377 C376 1.395 . S
C377 C378 1.288 . S
C378 C377 1.288 . S
C378 C379 1.392 . S
C379 H355 0.951 . S
C379 C378 1.392 . S
C379 C380 1.392 . S
C380 H356 0.949 . S
C380 C375 1.382 . S
C380 C379 1.392 . S
C381 C382 1.376 . S
C381 C386 1.386 . S
C381 C387 1.483 . S
C382 H357 0.949 . S
C382 C381 1.376 . S
C382 C383 1.397 . S
C383 H358 0.950 . S
C383 C382 1.397 . S
C383 C384 1.391 . S
C384 C383 1.391 . S
C384 C385 1.405 . S
C385 H359 0.950 . S
C385 C384 1.405 . S
C385 C386 1.367 . S
C386 H360 0.950 . S
C386 C381 1.386 . S
C386 C385 1.367 . S
C387 C381 1.483 . S
C387 C388 1.382 . S
C387 C389 1.403 . S
C388 H361 0.950 . S
C388 C374 1.411 . S
C388 C387 1.382 . S
C389 C373 1.411 . S
C389 C387 1.403 . S
C389 C390 1.489 . S
C390 C389 1.489 . S
C390 C391 1.383 . S
C390 C395 1.382 . S
C391 H362 0.950 . S
C391 C390 1.383 . S
C391 C392 1.395 . S
C392 H363 0.950 . S
C392 C391 1.395 . S
C392 C393 1.288 . S
C393 C392 1.288 . S
C393 C394 1.392 . S
C394 H364 0.951 . S
C394 C393 1.392 . S
C394 C395 1.392 . S
C395 H365 0.949 . S
C395 C390 1.382 . S
C395 C394 1.392 . S
H396 C415 0.949 . S
H397 C416 0.950 . S
H398 C418 0.950 . S
H399 C419 0.950 . S
H400 C421 0.950 . S
H401 C424 0.950 . S
H402 C425 0.950 . S
H403 C427 0.951 . S
H404 C428 0.949 . S
H405 C430 0.949 . S
H406 C431 0.950 . S
H407 C433 0.950 . S
H408 C434 0.950 . S
H409 C436 0.950 . S
H410 C439 0.950 . S
H411 C440 0.950 . S
H412 C442 0.951 . S
H413 C443 0.949 . S
C414 C415 1.376 . S
C414 C419 1.386 . S
C414 C420 1.483 . S
C415 H396 0.949 . S
C415 C414 1.376 . S
C415 C416 1.397 . S
C416 H397 0.950 . S
C416 C415 1.397 . S
C416 C417 1.391 . S
C417 C416 1.391 . S
C417 C418 1.405 . S
C418 H398 0.950 . S
C418 C417 1.405 . S
C418 C419 1.367 . S
C419 H399 0.950 . S
C419 C414 1.386 . S
C419 C418 1.367 . S
C420 C414 1.483 . S
C420 C421 1.382 . S
C420 C422 1.403 . S
C421 H400 0.950 . S
C421 C420 1.382 . S
C421 C437 1.411 . S
C422 C420 1.403 . S
C422 C423 1.489 . S
C422 C436 1.411 . S
C423 C422 1.489 . S
C423 C424 1.383 . S
C423 C428 1.382 . S
C424 H401 0.950 . S
C424 C423 1.383 . S
C424 C425 1.395 . S
C425 H402 0.950 . S
C425 C424 1.395 . S
C425 C426 1.288 . S
C426 C425 1.288 . S
C426 C427 1.392 . S
C427 H403 0.951 . S
C427 C426 1.392 . S
C427 C428 1.392 . S
C428 H404 0.949 . S
C428 C423 1.382 . S
C428 C427 1.392 . S
C429 C430 1.376 . S
C429 C434 1.386 . S
C429 C435 1.483 . S
C430 H405 0.949 . S
C430 C429 1.376 . S
C430 C431 1.397 . S
C431 H406 0.950 . S
C431 C430 1.397 . S
C431 C432 1.391 . S
C432 C431 1.391 . S
C432 C433 1.405 . S
C433 H407 0.950 . S
C433 C432 1.405 . S
C433 C434 1.367 . S
C434 H408 0.950 . S
C434 C429 1.386 . S
C434 C433 1.367 . S
C435 C429 1.483 . S
C435 C436 1.382 . S
C435 C437 1.403 . S
C436 H409 0.950 . S
C436 C422 1.411 . S
C436 C435 1.382 . S
C437 C421 1.411 . S
C437 C435 1.403 . S
C437 C438 1.489 . S
C438 C437 1.489 . S
C438 C439 1.383 . S
C438 C443 1.382 . S
C439 H410 0.950 . S
C439 C438 1.383 . S
C439 C440 1.395 . S
C440 H411 0.950 . S
C440 C439 1.395 . S
C440 C441 1.288 . S
C441 C440 1.288 . S
C441 C442 1.392 . S
C442 H412 0.951 . S
C442 C441 1.392 . S
C442 C443 1.392 . S
C443 H413 0.949 . S
C443 C438 1.382 . S
C443 C442 1.392 . S
H444 C463 0.949 . S
H445 C464 0.950 . S
H446 C466 0.950 . S
H447 C467 0.950 . S
H448 C469 0.950 . S
H449 C472 0.950 . S
H450 C473 0.950 . S
H451 C475 0.951 . S
H452 C476 0.949 . S
H453 C478 0.949 . S
H454 C479 0.950 . S
H455 C481 0.950 . S
H456 C482 0.950 . S
H457 C484 0.950 . S
H458 C487 0.950 . S
H459 C488 0.950 . S
H460 C490 0.951 . S
H461 C491 0.949 . S
C462 C463 1.376 . S
C462 C467 1.386 . S
C462 C468 1.483 . S
C463 H444 0.949 . S
C463 C462 1.376 . S
C463 C464 1.397 . S
C464 H445 0.950 . S
C464 C463 1.397 . S
C464 C465 1.391 . S
C465 C464 1.391 . S
C465 C466 1.405 . S
C466 H446 0.950 . S
C466 C465 1.405 . S
C466 C467 1.367 . S
C467 H447 0.950 . S
C467 C462 1.386 . S
C467 C466 1.367 . S
C468 C462 1.483 . S
C468 C469 1.382 . S
C468 C470 1.403 . S
C469 H448 0.950 . S
C469 C468 1.382 . S
C469 C485 1.411 . S
C470 C468 1.403 . S
C470 C471 1.489 . S
C470 C484 1.411 . S
C471 C470 1.489 . S
C471 C472 1.383 . S
C471 C476 1.382 . S
C472 H449 0.950 . S
C472 C471 1.383 . S
C472 C473 1.395 . S
C473 H450 0.950 . S
C473 C472 1.395 . S
C473 C474 1.288 . S
C474 C473 1.288 . S
C474 C475 1.392 . S
C475 H451 0.951 . S
C475 C474 1.392 . S
C475 C476 1.392 . S
C476 H452 0.949 . S
C476 C471 1.382 . S
C476 C475 1.392 . S
C477 C478 1.376 . S
C477 C482 1.386 . S
C477 C483 1.483 . S
C478 H453 0.949 . S
C478 C477 1.376 . S
C478 C479 1.397 . S
C479 H454 0.950 . S
C479 C478 1.397 . S
C479 C480 1.391 . S
C480 C479 1.391 . S
C480 C481 1.405 . S
C481 H455 0.950 . S
C481 C480 1.405 . S
C481 C482 1.367 . S
C482 H456 0.950 . S
C482 C477 1.386 . S
C482 C481 1.367 . S
C483 C477 1.483 . S
C483 C484 1.382 . S
C483 C485 1.403 . S
C484 H457 0.950 . S
C484 C470 1.411 . S
C484 C483 1.382 . S
C485 C469 1.411 . S
C485 C483 1.403 . S
C485 C486 1.489 . S
C486 C485 1.489 . S
C486 C487 1.383 . S
C486 C491 1.382 . S
C487 H458 0.950 . S
C487 C486 1.383 . S
C487 C488 1.395 . S
C488 H459 0.950 . S
C488 C487 1.395 . S
C488 C489 1.288 . S
C489 C488 1.288 . S
C489 C490 1.392 . S
C490 H460 0.951 . S
C490 C489 1.392 . S
C490 C491 1.392 . S
C491 H461 0.949 . S
C491 C486 1.382 . S
C491 C490 1.392 . S
H492 C511 0.949 . S
H493 C512 0.950 . S
H494 C514 0.950 . S
H495 C515 0.950 . S
H496 C517 0.950 . S
H497 C520 0.950 . S
H498 C521 0.950 . S
H499 C523 0.951 . S
H500 C524 0.949 . S
H501 C526 0.949 . S
H502 C527 0.950 . S
H503 C529 0.950 . S
H504 C530 0.950 . S
H505 C532 0.950 . S
H506 C535 0.950 . S
H507 C536 0.950 . S
H508 C538 0.951 . S
H509 C539 0.949 . S
C510 C511 1.376 . S
C510 C515 1.386 . S
C510 C516 1.483 . S
C511 H492 0.949 . S
C511 C510 1.376 . S
C511 C512 1.397 . S
C512 H493 0.950 . S
C512 C511 1.397 . S
C512 C513 1.391 . S
C513 C512 1.391 . S
C513 C514 1.405 . S
C514 H494 0.950 . S
C514 C513 1.405 . S
C514 C515 1.367 . S
C515 H495 0.950 . S
C515 C510 1.386 . S
C515 C514 1.367 . S
C516 C510 1.483 . S
C516 C517 1.382 . S
C516 C518 1.403 . S
C517 H496 0.950 . S
C517 C516 1.382 . S
C517 C533 1.411 . S
C518 C516 1.403 . S
C518 C519 1.489 . S
C518 C532 1.411 . S
C519 C518 1.489 . S
C519 C520 1.383 . S
C519 C524 1.382 . S
C520 H497 0.950 . S
C520 C519 1.383 . S
C520 C521 1.395 . S
C521 H498 0.950 . S
C521 C520 1.395 . S
C521 C522 1.288 . S
C522 C521 1.288 . S
C522 C523 1.392 . S
C523 H499 0.951 . S
C523 C522 1.392 . S
C523 C524 1.392 . S
C524 H500 0.949 . S
C524 C519 1.382 . S
C524 C523 1.392 . S
C525 C526 1.376 . S
C525 C530 1.386 . S
C525 C531 1.483 . S
C526 H501 0.949 . S
C526 C525 1.376 . S
C526 C527 1.397 . S
C527 H502 0.950 . S
C527 C526 1.397 . S
C527 C528 1.391 . S
C528 C527 1.391 . S
C528 C529 1.405 . S
C529 H503 0.950 . S
C529 C528 1.405 . S
C529 C530 1.367 . S
C530 H504 0.950 . S
C530 C525 1.386 . S
C530 C529 1.367 . S
C531 C525 1.483 . S
C531 C532 1.382 . S
C531 C533 1.403 . S
C532 H505 0.950 . S
C532 C518 1.411 . S
C532 C531 1.382 . S
C533 C517 1.411 . S
C533 C531 1.403 . S
C533 C534 1.489 . S
C534 C533 1.489 . S
C534 C535 1.383 . S
C534 C539 1.382 . S
C535 H506 0.950 . S
C535 C534 1.383 . S
C535 C536 1.395 . S
C536 H507 0.950 . S
C536 C535 1.395 . S
C536 C537 1.288 . S
C537 C536 1.288 . S
C537 C538 1.392 . S
C538 H508 0.951 . S
C538 C537 1.392 . S
C538 C539 1.392 . S
C539 H509 0.949 . S
C539 C534 1.382 . S
C539 C538 1.392 . S
H540 C559 0.949 . S
H541 C560 0.950 . S
H542 C562 0.950 . S
H543 C563 0.950 . S
H544 C565 0.950 . S
H545 C568 0.950 . S
H546 C569 0.950 . S
H547 C571 0.951 . S
H548 C572 0.949 . S
H549 C574 0.949 . S
H550 C575 0.950 . S
H551 C577 0.950 . S
H552 C578 0.950 . S
H553 C580 0.950 . S
H554 C583 0.950 . S
H555 C584 0.950 . S
H556 C586 0.951 . S
H557 C587 0.949 . S
C558 C559 1.376 . S
C558 C563 1.386 . S
C558 C564 1.483 . S
C559 H540 0.949 . S
C559 C558 1.376 . S
C559 C560 1.397 . S
C560 H541 0.950 . S
C560 C559 1.397 . S
C560 C561 1.391 . S
C561 C560 1.391 . S
C561 C562 1.405 . S
C562 H542 0.950 . S
C562 C561 1.405 . S
C562 C563 1.367 . S
C563 H543 0.950 . S
C563 C558 1.386 . S
C563 C562 1.367 . S
C564 C558 1.483 . S
C564 C565 1.382 . S
C564 C566 1.403 . S
C565 H544 0.950 . S
C565 C564 1.382 . S
C565 C581 1.411 . S
C566 C564 1.403 . S
C566 C567 1.489 . S
C566 C580 1.411 . S
C567 C566 1.489 . S
C567 C568 1.383 . S
C567 C572 1.382 . S
C568 H545 0.950 . S
C568 C567 1.383 . S
C568 C569 1.395 . S
C569 H546 0.950 . S
C569 C568 1.395 . S
C569 C570 1.288 . S
C570 C569 1.288 . S
C570 C571 1.392 . S
C571 H547 0.951 . S
C571 C570 1.392 . S
C571 C572 1.392 . S
C572 H548 0.949 . S
C572 C567 1.382 . S
C572 C571 1.392 . S
C573 C574 1.376 . S
C573 C578 1.386 . S
C573 C579 1.483 . S
C574 H549 0.949 . S
C574 C573 1.376 . S
C574 C575 1.397 . S
C575 H550 0.950 . S
C575 C574 1.397 . S
C575 C576 1.391 . S
C576 C575 1.391 . S
C576 C577 1.405 . S
C577 H551 0.950 . S
C577 C576 1.405 . S
C577 C578 1.367 . S
C578 H552 0.950 . S
C578 C573 1.386 . S
C578 C577 1.367 . S
C579 C573 1.483 . S
C579 C580 1.382 . S
C579 C581 1.403 . S
C580 H553 0.950 . S
C580 C566 1.411 . S
C580 C579 1.382 . S
C581 C565 1.411 . S
C581 C579 1.403 . S
C581 C582 1.489 . S
C582 C581 1.489 . S
C582 C583 1.383 . S
C582 C587 1.382 . S
C583 H554 0.950 . S
C583 C582 1.383 . S
C583 C584 1.395 . S
C584 H555 0.950 . S
C584 C583 1.395 . S
C584 C585 1.288 . S
C585 C584 1.288 . S
C585 C586 1.392 . S
C586 H556 0.951 . S
C586 C585 1.392 . S
C586 C587 1.392 . S
C587 H557 0.949 . S
C587 C582 1.382 . S
C587 C586 1.392 . S
H588 C607 0.949 . S
H589 C608 0.950 . S
H590 C610 0.950 . S
H591 C611 0.950 . S
H592 C613 0.950 . S
H593 C616 0.950 . S
H594 C617 0.950 . S
H595 C619 0.951 . S
H596 C620 0.949 . S
H597 C622 0.949 . S
H598 C623 0.950 . S
H599 C625 0.950 . S
H600 C626 0.950 . S
H601 C628 0.950 . S
H602 C631 0.950 . S
H603 C632 0.950 . S
H604 C634 0.951 . S
H605 C635 0.949 . S
C606 C607 1.376 . S
C606 C611 1.386 . S
C606 C612 1.483 . S
C607 H588 0.949 . S
C607 C606 1.376 . S
C607 C608 1.397 . S
C608 H589 0.950 . S
C608 C607 1.397 . S
C608 C609 1.391 . S
C609 C608 1.391 . S
C609 C610 1.405 . S
C610 H590 0.950 . S
C610 C609 1.405 . S
C610 C611 1.367 . S
C611 H591 0.950 . S
C611 C606 1.386 . S
C611 C610 1.367 . S
C612 C606 1.483 . S
C612 C613 1.382 . S
C612 C614 1.403 . S
C613 H592 0.950 . S
C613 C612 1.382 . S
C613 C629 1.411 . S
C614 C612 1.403 . S
C614 C615 1.489 . S
C614 C628 1.411 . S
C615 C614 1.489 . S
C615 C616 1.383 . S
C615 C620 1.382 . S
C616 H593 0.950 . S
C616 C615 1.383 . S
C616 C617 1.395 . S
C617 H594 0.950 . S
C617 C616 1.395 . S
C617 C618 1.288 . S
C618 C617 1.288 . S
C618 C619 1.392 . S
C619 H595 0.951 . S
C619 C618 1.392 . S
C619 C620 1.392 . S
C620 H596 0.949 . S
C620 C615 1.382 . S
C620 C619 1.392 . S
C621 C622 1.376 . S
C621 C626 1.386 . S
C621 C627 1.483 . S
C622 H597 0.949 . S
C622 C621 1.376 . S
C622 C623 1.397 . S
C623 H598 0.950 . S
C623 C622 1.397 . S
C623 C624 1.391 . S
C624 C623 1.391 . S
C624 C625 1.405 . S
C625 H599 0.950 . S
C625 C624 1.405 . S
C625 C626 1.367 . S
C626 H600 0.950 . S
C626 C621 1.386 . S
C626 C625 1.367 . S
C627 C621 1.483 . S
C627 C628 1.382 . S
C627 C629 1.403 . S
C628 H601 0.950 . S
C628 C614 1.411 . S
C628 C627 1.382 . S
C629 C613 1.411 . S
C629 C627 1.403 . S
C629 C630 1.489 . S
C630 C629 1.489 . S
C630 C631 1.383 . S
C630 C635 1.382 . S
C631 H602 0.950 . S
C631 C630 1.383 . S
C631 C632 1.395 . S
C632 H603 0.950 . S
C632 C631 1.395 . S
C632 C633 1.288 . S
C633 C632 1.288 . S
C633 C634 1.392 . S
C634 H604 0.951 . S
C634 C633 1.392 . S
C634 C635 1.392 . S
C635 H605 0.949 . S
C635 C630 1.382 . S
C635 C634 1.392 . S
H636 C655 0.949 . S
H637 C656 0.950 . S
H638 C658 0.950 . S
H639 C659 0.950 . S
H640 C661 0.950 . S
H641 C664 0.950 . S
H642 C665 0.950 . S
H643 C667 0.951 . S
H644 C668 0.949 . S
H645 C670 0.949 . S
H646 C671 0.950 . S
H647 C673 0.950 . S
H648 C674 0.950 . S
H649 C676 0.950 . S
H650 C679 0.950 . S
H651 C680 0.950 . S
H652 C682 0.951 . S
H653 C683 0.949 . S
C654 C655 1.376 . S
C654 C659 1.386 . S
C654 C660 1.483 . S
C655 H636 0.949 . S
C655 C654 1.376 . S
C655 C656 1.397 . S
C656 H637 0.950 . S
C656 C655 1.397 . S
C656 C657 1.391 . S
C657 C656 1.391 . S
C657 C658 1.405 . S
C658 H638 0.950 . S
C658 C657 1.405 . S
C658 C659 1.367 . S
C659 H639 0.950 . S
C659 C654 1.386 . S
C659 C658 1.367 . S
C660 C654 1.483 . S
C660 C661 1.382 . S
C660 C662 1.403 . S
C661 H640 0.950 . S
C661 C660 1.382 . S
C661 C677 1.411 . S
C662 C660 1.403 . S
C662 C663 1.489 . S
C662 C676 1.411 . S
C663 C662 1.489 . S
C663 C664 1.383 . S
C663 C668 1.382 . S
C664 H641 0.950 . S
C664 C663 1.383 . S
C664 C665 1.395 . S
C665 H642 0.950 . S
C665 C664 1.395 . S
C665 C666 1.288 . S
C666 C665 1.288 . S
C666 C667 1.392 . S
C667 H643 0.951 . S
C667 C666 1.392 . S
C667 C668 1.392 . S
C668 H644 0.949 . S
C668 C663 1.382 . S
C668 C667 1.392 . S
C669 C670 1.376 . S
C669 C674 1.386 . S
C669 C675 1.483 . S
C670 H645 0.949 . S
C670 C669 1.376 . S
C670 C671 1.397 . S
C671 H646 0.950 . S
C671 C670 1.397 . S
C671 C672 1.391 . S
C672 C671 1.391 . S
C672 C673 1.405 . S
C673 H647 0.950 . S
C673 C672 1.405 . S
C673 C674 1.367 . S
C674 H648 0.950 . S
C674 C669 1.386 . S
C674 C673 1.367 . S
C675 C669 1.483 . S
C675 C676 1.382 . S
C675 C677 1.403 . S
C676 H649 0.950 . S
C676 C662 1.411 . S
C676 C675 1.382 . S
C677 C661 1.411 . S
C677 C675 1.403 . S
C677 C678 1.489 . S
C678 C677 1.489 . S
C678 C679 1.383 . S
C678 C683 1.382 . S
C679 H650 0.950 . S
C679 C678 1.383 . S
C679 C680 1.395 . S
C680 H651 0.950 . S
C680 C679 1.395 . S
C680 C681 1.288 . S
C681 C680 1.288 . S
C681 C682 1.392 . S
C682 H652 0.951 . S
C682 C681 1.392 . S
C682 C683 1.392 . S
C683 H653 0.949 . S
C683 C678 1.382 . S
C683 C682 1.392 . S
H684 C703 0.949 . S
H685 C704 0.950 . S
H686 C706 0.950 . S
H687 C707 0.950 . S
H688 C709 0.950 . S
H689 C712 0.950 . S
H690 C713 0.950 . S
H691 C715 0.951 . S
H692 C716 0.949 . S
H693 C718 0.949 . S
H694 C719 0.950 . S
H695 C721 0.950 . S
H696 C722 0.950 . S
H697 C724 0.950 . S
H698 C727 0.950 . S
H699 C728 0.950 . S
H700 C730 0.951 . S
H701 C731 0.949 . S
C702 C703 1.376 . S
C702 C707 1.386 1_655 S
C702 C708 1.483 . S
C703 H684 0.949 . S
C703 C702 1.376 . S
C703 C704 1.397 . S
C704 H685 0.950 . S
C704 C703 1.397 . S
C704 C705 1.391 . S
C705 C704 1.391 . S
C705 C706 1.405 1_655 S
C706 H686 0.950 . S
C706 C705 1.405 1_455 S
C706 C707 1.367 . S
C707 H687 0.950 . S
C707 C702 1.386 1_455 S
C707 C706 1.367 . S
C708 C702 1.483 . S
C708 C709 1.382 . S
C708 C710 1.403 1_655 S
C709 H688 0.950 . S
C709 C708 1.382 . S
C709 C725 1.411 . S
C710 C708 1.403 1_455 S
C710 C711 1.489 . S
C710 C724 1.411 . S
C711 C710 1.489 . S
C711 C712 1.383 1_455 S
C711 C716 1.382 . S
C712 H689 0.950 . S
C712 C711 1.383 1_655 S
C712 C713 1.395 . S
C713 H690 0.950 . S
C713 C712 1.395 . S
C713 C714 1.288 1_655 S
C714 C713 1.288 1_455 S
C714 C715 1.392 . S
C715 H691 0.951 . S
C715 C714 1.392 . S
C715 C716 1.392 . S
C716 H692 0.949 . S
C716 C711 1.382 . S
C716 C715 1.392 . S
C717 C718 1.376 . S
C717 C722 1.386 1_455 S
C717 C723 1.483 . S
C718 H693 0.949 . S
C718 C717 1.376 . S
C718 C719 1.397 . S
C719 H694 0.950 . S
C719 C718 1.397 . S
C719 C720 1.391 . S
C720 C719 1.391 . S
C720 C721 1.405 1_455 S
C721 H695 0.950 . S
C721 C720 1.405 1_655 S
C721 C722 1.367 . S
C722 H696 0.950 . S
C722 C717 1.386 1_655 S
C722 C721 1.367 . S
C723 C717 1.483 . S
C723 C724 1.382 . S
C723 C725 1.403 1_455 S
C724 H697 0.950 . S
C724 C710 1.411 . S
C724 C723 1.382 . S
C725 C709 1.411 . S
C725 C723 1.403 1_655 S
C725 C726 1.489 . S
C726 C725 1.489 . S
C726 C727 1.383 1_655 S
C726 C731 1.382 . S
C727 H698 0.950 . S
C727 C726 1.383 1_455 S
C727 C728 1.395 . S
C728 H699 0.950 . S
C728 C727 1.395 . S
C728 C729 1.288 1_455 S
C729 C728 1.288 1_655 S
C729 C730 1.392 . S
C730 H700 0.951 . S
C730 C729 1.392 . S
C730 C731 1.392 . S
C731 H701 0.949 . S
C731 C726 1.382 . S
C731 C730 1.392 . S
H732 C751 0.949 . S
H733 C752 0.950 . S
H734 C754 0.950 . S
H735 C755 0.950 . S
H736 C757 0.950 . S
H737 C760 0.950 . S
H738 C761 0.950 . S
H739 C763 0.951 . S
H740 C764 0.949 . S
H741 C766 0.949 . S
H742 C767 0.950 . S
H743 C769 0.950 . S
H744 C770 0.950 . S
H745 C772 0.950 . S
H746 C775 0.950 . S
H747 C776 0.950 . S
H748 C778 0.951 . S
H749 C779 0.949 . S
C750 C751 1.376 . S
C750 C755 1.386 . S
C750 C756 1.483 . S
C751 H732 0.949 . S
C751 C750 1.376 . S
C751 C752 1.397 . S
C752 H733 0.950 . S
C752 C751 1.397 . S
C752 C753 1.391 . S
C753 C752 1.391 . S
C753 C754 1.405 . S
C754 H734 0.950 . S
C754 C753 1.405 . S
C754 C755 1.367 . S
C755 H735 0.950 . S
C755 C750 1.386 . S
C755 C754 1.367 . S
C756 C750 1.483 . S
C756 C757 1.382 . S
C756 C758 1.403 . S
C757 H736 0.950 . S
C757 C756 1.382 . S
C757 C773 1.411 . S
C758 C756 1.403 . S
C758 C759 1.489 . S
C758 C772 1.411 . S
C759 C758 1.489 . S
C759 C760 1.383 . S
C759 C764 1.382 . S
C760 H737 0.950 . S
C760 C759 1.383 . S
C760 C761 1.395 . S
C761 H738 0.950 . S
C761 C760 1.395 . S
C761 C762 1.288 . S
C762 C761 1.288 . S
C762 C763 1.392 . S
C763 H739 0.951 . S
C763 C762 1.392 . S
C763 C764 1.392 . S
C764 H740 0.949 . S
C764 C759 1.382 . S
C764 C763 1.392 . S
C765 C766 1.376 . S
C765 C770 1.386 . S
C765 C771 1.483 . S
C766 H741 0.949 . S
C766 C765 1.376 . S
C766 C767 1.397 . S
C767 H742 0.950 . S
C767 C766 1.397 . S
C767 C768 1.391 . S
C768 C767 1.391 . S
C768 C769 1.405 . S
C769 H743 0.950 . S
C769 C768 1.405 . S
C769 C770 1.367 . S
C770 H744 0.950 . S
C770 C765 1.386 . S
C770 C769 1.367 . S
C771 C765 1.483 . S
C771 C772 1.382 . S
C771 C773 1.403 . S
C772 H745 0.950 . S
C772 C758 1.411 . S
C772 C771 1.382 . S
C773 C757 1.411 . S
C773 C771 1.403 . S
C773 C774 1.489 . S
C774 C773 1.489 . S
C774 C775 1.383 . S
C774 C779 1.382 . S
C775 H746 0.950 . S
C775 C774 1.383 . S
C775 C776 1.395 . S
C776 H747 0.950 . S
C776 C775 1.395 . S
C776 C777 1.288 . S
C777 C776 1.288 . S
C777 C778 1.392 . S
C778 H748 0.951 . S
C778 C777 1.392 . S
C778 C779 1.392 . S
C779 H749 0.949 . S
C779 C774 1.382 . S
C779 C778 1.392 . S
H780 C799 0.949 . S
H781 C800 0.950 . S
H782 C802 0.950 . S
H783 C803 0.950 . S
H784 C805 0.950 . S
H785 C808 0.950 . S
H786 C809 0.950 . S
H787 C811 0.951 . S
H788 C812 0.949 . S
H789 C814 0.949 . S
H790 C815 0.950 . S
H791 C817 0.950 . S
H792 C818 0.950 . S
H793 C820 0.950 . S
H794 C823 0.950 . S
H795 C824 0.950 . S
H796 C826 0.951 . S
H797 C827 0.949 . S
C798 C799 1.376 . S
C798 C803 1.386 1_545 S
C798 C804 1.483 . S
C799 H780 0.949 . S
C799 C798 1.376 . S
C799 C800 1.397 . S
C800 H781 0.950 . S
C800 C799 1.397 . S
C800 C801 1.391 . S
C801 C800 1.391 . S
C801 C802 1.405 1_545 S
C802 H782 0.950 . S
C802 C801 1.405 1_565 S
C802 C803 1.367 . S
C803 H783 0.950 . S
C803 C798 1.386 1_565 S
C803 C802 1.367 . S
C804 C798 1.483 . S
C804 C805 1.382 . S
C804 C806 1.403 1_545 S
C805 H784 0.950 . S
C805 C804 1.382 . S
C805 C821 1.411 . S
C806 C804 1.403 1_565 S
C806 C807 1.489 . S
C806 C820 1.411 . S
C807 C806 1.489 . S
C807 C808 1.383 1_565 S
C807 C812 1.382 . S
C808 H785 0.950 . S
C808 C807 1.383 1_545 S
C808 C809 1.395 . S
C809 H786 0.950 . S
C809 C808 1.395 . S
C809 C810 1.288 1_545 S
C810 C809 1.288 1_565 S
C810 C811 1.392 . S
C811 H787 0.951 . S
C811 C810 1.392 . S
C811 C812 1.392 . S
C812 H788 0.949 . S
C812 C807 1.382 . S
C812 C811 1.392 . S
C813 C814 1.376 . S
C813 C818 1.386 1_565 S
C813 C819 1.483 . S
C814 H789 0.949 . S
C814 C813 1.376 . S
C814 C815 1.397 . S
C815 H790 0.950 . S
C815 C814 1.397 . S
C815 C816 1.391 . S
C816 C815 1.391 . S
C816 C817 1.405 1_565 S
C817 H791 0.950 . S
C817 C816 1.405 1_545 S
C817 C818 1.367 . S
C818 H792 0.950 . S
C818 C813 1.386 1_545 S
C818 C817 1.367 . S
C819 C813 1.483 . S
C819 C820 1.382 . S
C819 C821 1.403 1_565 S
C820 H793 0.950 . S
C820 C806 1.411 . S
C820 C819 1.382 . S
C821 C805 1.411 . S
C821 C819 1.403 1_545 S
C821 C822 1.489 . S
C822 C821 1.489 . S
C822 C823 1.383 1_545 S
C822 C827 1.382 . S
C823 H794 0.950 . S
C823 C822 1.383 1_565 S
C823 C824 1.395 . S
C824 H795 0.950 . S
C824 C823 1.395 . S
C824 C825 1.288 1_565 S
C825 C824 1.288 1_545 S
C825 C826 1.392 . S
C826 H796 0.951 . S
C826 C825 1.392 . S
C826 C827 1.392 . S
C827 H797 0.949 . S
C827 C822 1.382 . S
C827 C826 1.392 . S
H828 C847 0.949 . S
H829 C848 0.950 . S
H830 C850 0.950 . S
H831 C851 0.950 . S
H832 C853 0.950 . S
H833 C856 0.950 . S
H834 C857 0.950 . S
H835 C859 0.951 . S
H836 C860 0.949 . S
H837 C862 0.949 . S
H838 C863 0.950 . S
H839 C865 0.950 . S
H840 C866 0.950 . S
H841 C868 0.950 . S
H842 C871 0.950 . S
H843 C872 0.950 . S
H844 C874 0.951 . S
H845 C875 0.949 . S
C846 C847 1.383 . S
C846 C851 1.382 1_545 S
C846 C852 1.504 . S
C847 H828 0.949 . S
C847 C846 1.383 . S
C847 C848 1.397 . S
C848 H829 0.950 . S
C848 C847 1.397 . S
C848 C849 1.391 1_545 S
C849 C848 1.391 1_565 S
C849 C850 1.405 . S
C850 H830 0.950 . S
C850 C849 1.405 . S
C850 C851 1.367 . S
C851 H831 0.950 . S
C851 C846 1.382 1_565 S
C851 C850 1.367 . S
C852 C846 1.504 . S
C852 C853 1.359 . S
C852 C854 1.398 1_545 S
C853 H832 0.950 . S
C853 C852 1.359 . S
C853 C869 1.411 . S
C854 C852 1.398 1_565 S
C854 C855 1.485 . S
C854 C868 1.438 . S
C855 C854 1.485 . S
C855 C856 1.341 1_565 S
C855 C860 1.405 . S
C856 H833 0.950 . S
C856 C855 1.341 1_545 S
C856 C857 1.395 . S
C857 H834 0.950 . S
C857 C856 1.395 . S
C857 C858 1.288 . S
C858 C857 1.288 . S
C858 C859 1.392 1_545 S
C859 H835 0.951 . S
C859 C858 1.392 1_565 S
C859 C860 1.392 . S
C860 H836 0.949 . S
C860 C855 1.405 . S
C860 C859 1.392 . S
C861 C862 1.373 . S
C861 C866 1.388 1_565 S
C861 C867 1.504 . S
C862 H837 0.949 . S
C862 C861 1.373 . S
C862 C863 1.397 . S
C863 H838 0.950 . S
C863 C862 1.397 . S
C863 C864 1.391 1_565 S
C864 C863 1.391 1_545 S
C864 C865 1.405 . S
C865 H839 0.950 . S
C865 C864 1.405 . S
C865 C866 1.367 . S
C866 H840 0.950 . S
C866 C861 1.388 1_545 S
C866 C865 1.367 . S
C867 C861 1.504 . S
C867 C868 1.364 . S
C867 C869 1.400 1_565 S
C868 H841 0.950 . S
C868 C854 1.438 . S
C868 C867 1.364 . S
C869 C853 1.411 . S
C869 C867 1.400 1_545 S
C869 C870 1.514 . S
C870 C869 1.514 . S
C870 C871 1.327 1_545 S
C870 C875 1.413 . S
C871 H842 0.950 . S
C871 C870 1.327 1_565 S
C871 C872 1.395 . S
C872 H843 0.950 . S
C872 C871 1.395 . S
C872 C873 1.288 . S
C873 C872 1.288 . S
C873 C874 1.392 1_565 S
C874 H844 0.951 . S
C874 C873 1.392 1_545 S
C874 C875 1.392 . S
C875 H845 0.949 . S
C875 C870 1.413 . S
C875 C874 1.392 . S
H876 C895 0.949 . S
H877 C896 0.950 . S
H878 C898 0.950 . S
H879 C899 0.950 . S
H880 C901 0.950 . S
H881 C904 0.950 . S
H882 C905 0.950 . S
H883 C907 0.951 . S
H884 C908 0.949 . S
H885 C910 0.949 . S
H886 C911 0.950 . S
H887 C913 0.950 . S
H888 C914 0.950 . S
H889 C916 0.950 . S
H890 C919 0.950 . S
H891 C920 0.950 . S
H892 C922 0.951 . S
H893 C923 0.949 . S
C894 C895 1.376 . S
C894 C899 1.386 1_455 S
C894 C900 1.483 . S
C895 H876 0.949 . S
C895 C894 1.376 . S
C895 C896 1.397 . S
C896 H877 0.950 . S
C896 C895 1.397 . S
C896 C897 1.391 . S
C897 C896 1.391 . S
C897 C898 1.405 1_455 S
C898 H878 0.950 . S
C898 C897 1.405 1_655 S
C898 C899 1.367 . S
C899 H879 0.950 . S
C899 C894 1.386 1_655 S
C899 C898 1.367 . S
C900 C894 1.483 . S
C900 C901 1.382 . S
C900 C902 1.403 1_455 S
C901 H880 0.950 . S
C901 C900 1.382 . S
C901 C917 1.411 . S
C902 C900 1.403 1_655 S
C902 C903 1.489 . S
C902 C916 1.411 . S
C903 C902 1.489 . S
C903 C904 1.383 1_655 S
C903 C908 1.382 . S
C904 H881 0.950 . S
C904 C903 1.383 1_455 S
C904 C905 1.395 . S
C905 H882 0.950 . S
C905 C904 1.395 . S
C905 C906 1.288 1_455 S
C906 C905 1.288 1_655 S
C906 C907 1.392 . S
C907 H883 0.951 . S
C907 C906 1.392 . S
C907 C908 1.392 . S
C908 H884 0.949 . S
C908 C903 1.382 . S
C908 C907 1.392 . S
C909 C910 1.376 . S
C909 C914 1.386 1_655 S
C909 C915 1.483 . S
C910 H885 0.949 . S
C910 C909 1.376 . S
C910 C911 1.397 . S
C911 H886 0.950 . S
C911 C910 1.397 . S
C911 C912 1.391 . S
C912 C911 1.391 . S
C912 C913 1.405 1_655 S
C913 H887 0.950 . S
C913 C912 1.405 1_455 S
C913 C914 1.367 . S
C914 H888 0.950 . S
C914 C909 1.386 1_455 S
C914 C913 1.367 . S
C915 C909 1.483 . S
C915 C916 1.382 . S
C915 C917 1.403 1_655 S
C916 H889 0.950 . S
C916 C902 1.411 . S
C916 C915 1.382 . S
C917 C901 1.411 . S
C917 C915 1.403 1_455 S
C917 C918 1.489 . S
C918 C917 1.489 . S
C918 C919 1.383 1_455 S
C918 C923 1.382 . S
C919 H890 0.950 . S
C919 C918 1.383 1_655 S
C919 C920 1.395 . S
C920 H891 0.950 . S
C920 C919 1.395 . S
C920 C921 1.288 1_655 S
C921 C920 1.288 1_455 S
C921 C922 1.392 . S
C922 H892 0.951 . S
C922 C921 1.392 . S
C922 C923 1.392 . S
C923 H893 0.949 . S
C923 C918 1.382 . S
C923 C922 1.392 . S
H924 C943 0.949 . S
H925 C944 0.950 . S
H926 C946 0.950 . S
H927 C947 0.950 . S
H928 C949 0.950 . S
H929 C952 0.950 . S
H930 C953 0.950 . S
H931 C955 0.951 . S
H932 C956 0.949 . S
H933 C958 0.949 . S
H934 C959 0.950 . S
H935 C961 0.950 . S
H936 C962 0.950 . S
H937 C964 0.950 . S
H938 C967 0.950 . S
H939 C968 0.950 . S
H940 C970 0.951 . S
H941 C971 0.949 . S
C942 C943 1.376 . S
C942 C947 1.386 . S
C942 C948 1.483 . S
C943 H924 0.949 . S
C943 C942 1.376 . S
C943 C944 1.397 . S
C944 H925 0.950 . S
C944 C943 1.397 . S
C944 C945 1.391 . S
C945 C944 1.391 . S
C945 C946 1.405 . S
C946 H926 0.950 . S
C946 C945 1.405 . S
C946 C947 1.367 . S
C947 H927 0.950 . S
C947 C942 1.386 . S
C947 C946 1.367 . S
C948 C942 1.483 . S
C948 C949 1.382 . S
C948 C950 1.403 . S
C949 H928 0.950 . S
C949 C948 1.382 . S
C949 C965 1.411 . S
C950 C948 1.403 . S
C950 C951 1.489 . S
C950 C964 1.411 . S
C951 C950 1.489 . S
C951 C952 1.383 . S
C951 C956 1.382 . S
C952 H929 0.950 . S
C952 C951 1.383 . S
C952 C953 1.395 . S
C953 H930 0.950 . S
C953 C952 1.395 . S
C953 C954 1.288 . S
C954 C953 1.288 . S
C954 C955 1.392 . S
C955 H931 0.951 . S
C955 C954 1.392 . S
C955 C956 1.392 . S
C956 H932 0.949 . S
C956 C951 1.382 . S
C956 C955 1.392 . S
C957 C958 1.376 . S
C957 C962 1.386 . S
C957 C963 1.483 . S
C958 H933 0.949 . S
C958 C957 1.376 . S
C958 C959 1.397 . S
C959 H934 0.950 . S
C959 C958 1.397 . S
C959 C960 1.391 . S
C960 C959 1.391 . S
C960 C961 1.405 . S
C961 H935 0.950 . S
C961 C960 1.405 . S
C961 C962 1.367 . S
C962 H936 0.950 . S
C962 C957 1.386 . S
C962 C961 1.367 . S
C963 C957 1.483 . S
C963 C964 1.382 . S
C963 C965 1.403 . S
C964 H937 0.950 . S
C964 C950 1.411 . S
C964 C963 1.382 . S
C965 C949 1.411 . S
C965 C963 1.403 . S
C965 C966 1.489 . S
C966 C965 1.489 . S
C966 C967 1.383 . S
C966 C971 1.382 . S
C967 H938 0.950 . S
C967 C966 1.383 . S
C967 C968 1.395 . S
C968 H939 0.950 . S
C968 C967 1.395 . S
C968 C969 1.288 . S
C969 C968 1.288 . S
C969 C970 1.392 . S
C970 H940 0.951 . S
C970 C969 1.392 . S
C970 C971 1.392 . S
C971 H941 0.949 . S
C971 C966 1.382 . S
C971 C970 1.392 . S
H972 C991 0.949 . S
H973 C992 0.950 . S
H974 C994 0.950 . S
H975 C995 0.950 . S
H976 C997 0.950 . S
H977 C1000 0.950 . S
H978 C1001 0.950 . S
H979 C1003 0.951 . S
H980 C1004 0.949 . S
H981 C1006 0.949 . S
H982 C1007 0.950 . S
H983 C1009 0.950 . S
H984 C1010 0.950 . S
H985 C1012 0.950 . S
H986 C1015 0.950 . S
H987 C1016 0.950 . S
H988 C1018 0.951 . S
H989 C1019 0.949 . S
C990 C991 1.376 . S
C990 C995 1.386 . S
C990 C996 1.483 . S
C991 H972 0.949 . S
C991 C990 1.376 . S
C991 C992 1.397 . S
C992 H973 0.950 . S
C992 C991 1.397 . S
C992 C993 1.391 . S
C993 C992 1.391 . S
C993 C994 1.405 . S
C994 H974 0.950 . S
C994 C993 1.405 . S
C994 C995 1.367 . S
C995 H975 0.950 . S
C995 C990 1.386 . S
C995 C994 1.367 . S
C996 C990 1.483 . S
C996 C997 1.382 . S
C996 C998 1.403 . S
C997 H976 0.950 . S
C997 C996 1.382 . S
C997 C1013 1.411 . S
C998 C996 1.403 . S
C998 C999 1.489 . S
C998 C1012 1.411 . S
C999 C998 1.489 . S
C999 C1000 1.383 . S
C999 C1004 1.382 . S
C1000 H977 0.950 . S
C1000 C999 1.383 . S
C1000 C1001 1.395 . S
C1001 H978 0.950 . S
C1001 C1000 1.395 . S
C1001 C1002 1.288 . S
C1002 C1001 1.288 . S
C1002 C1003 1.392 . S
C1003 H979 0.951 . S
C1003 C1002 1.392 . S
C1003 C1004 1.392 . S
C1004 H980 0.949 . S
C1004 C999 1.382 . S
C1004 C1003 1.392 . S
C1005 C1006 1.376 . S
C1005 C1010 1.386 . S
C1005 C1011 1.483 . S
C1006 H981 0.949 . S
C1006 C1005 1.376 . S
C1006 C1007 1.397 . S
C1007 H982 0.950 . S
C1007 C1006 1.397 . S
C1007 C1008 1.391 . S
C1008 C1007 1.391 . S
C1008 C1009 1.405 . S
C1009 H983 0.950 . S
C1009 C1008 1.405 . S
C1009 C1010 1.367 . S
C1010 H984 0.950 . S
C1010 C1005 1.386 . S
C1010 C1009 1.367 . S
C1011 C1005 1.483 . S
C1011 C1012 1.382 . S
C1011 C1013 1.403 . S
C1012 H985 0.950 . S
C1012 C998 1.411 . S
C1012 C1011 1.382 . S
C1013 C997 1.411 . S
C1013 C1011 1.403 . S
C1013 C1014 1.489 . S
C1014 C1013 1.489 . S
C1014 C1015 1.383 . S
C1014 C1019 1.382 . S
C1015 H986 0.950 . S
C1015 C1014 1.383 . S
C1015 C1016 1.395 . S
C1016 H987 0.950 . S
C1016 C1015 1.395 . S
C1016 C1017 1.288 . S
C1017 C1016 1.288 . S
C1017 C1018 1.392 . S
C1018 H988 0.951 . S
C1018 C1017 1.392 . S
C1018 C1019 1.392 . S
C1019 H989 0.949 . S
C1019 C1014 1.382 . S
C1019 C1018 1.392 . S
H1020 C1039 0.949 . S
H1021 C1040 0.950 . S
H1022 C1042 0.950 . S
H1023 C1043 0.950 . S
H1024 C1045 0.950 . S
H1025 C1048 0.950 . S
H1026 C1049 0.950 . S
H1027 C1051 0.951 . S
H1028 C1052 0.949 . S
H1029 C1054 0.949 . S
H1030 C1055 0.950 . S
H1031 C1057 0.950 . S
H1032 C1058 0.950 . S
H1033 C1060 0.950 . S
H1034 C1063 0.950 . S
H1035 C1064 0.950 . S
H1036 C1066 0.951 . S
H1037 C1067 0.949 . S
C1038 C1039 1.376 . S
C1038 C1043 1.386 . S
C1038 C1044 1.483 . S
C1039 H1020 0.949 . S
C1039 C1038 1.376 . S
C1039 C1040 1.397 . S
C1040 H1021 0.950 . S
C1040 C1039 1.397 . S
C1040 C1041 1.391 . S
C1041 C1040 1.391 . S
C1041 C1042 1.405 . S
C1042 H1022 0.950 . S
C1042 C1041 1.405 . S
C1042 C1043 1.367 . S
C1043 H1023 0.950 . S
C1043 C1038 1.386 . S
C1043 C1042 1.367 . S
C1044 C1038 1.483 . S
C1044 C1045 1.382 . S
C1044 C1046 1.403 . S
C1045 H1024 0.950 . S
C1045 C1044 1.382 . S
C1045 C1061 1.411 . S
C1046 C1044 1.403 . S
C1046 C1047 1.489 . S
C1046 C1060 1.411 . S
C1047 C1046 1.489 . S
C1047 C1048 1.383 . S
C1047 C1052 1.382 . S
C1048 H1025 0.950 . S
C1048 C1047 1.383 . S
C1048 C1049 1.395 . S
C1049 H1026 0.950 . S
C1049 C1048 1.395 . S
C1049 C1050 1.288 . S
C1050 C1049 1.288 . S
C1050 C1051 1.392 . S
C1051 H1027 0.951 . S
C1051 C1050 1.392 . S
C1051 C1052 1.392 . S
C1052 H1028 0.949 . S
C1052 C1047 1.382 . S
C1052 C1051 1.392 . S
C1053 C1054 1.376 . S
C1053 C1058 1.386 . S
C1053 C1059 1.483 . S
C1054 H1029 0.949 . S
C1054 C1053 1.376 . S
C1054 C1055 1.397 . S
C1055 H1030 0.950 . S
C1055 C1054 1.397 . S
C1055 C1056 1.391 . S
C1056 C1055 1.391 . S
C1056 C1057 1.405 . S
C1057 H1031 0.950 . S
C1057 C1056 1.405 . S
C1057 C1058 1.367 . S
C1058 H1032 0.950 . S
C1058 C1053 1.386 . S
C1058 C1057 1.367 . S
C1059 C1053 1.483 . S
C1059 C1060 1.382 . S
C1059 C1061 1.403 . S
C1060 H1033 0.950 . S
C1060 C1046 1.411 . S
C1060 C1059 1.382 . S
C1061 C1045 1.411 . S
C1061 C1059 1.403 . S
C1061 C1062 1.489 . S
C1062 C1061 1.489 . S
C1062 C1063 1.383 . S
C1062 C1067 1.382 . S
C1063 H1034 0.950 . S
C1063 C1062 1.383 . S
C1063 C1064 1.395 . S
C1064 H1035 0.950 . S
C1064 C1063 1.395 . S
C1064 C1065 1.288 . S
C1065 C1064 1.288 . S
C1065 C1066 1.392 . S
C1066 H1036 0.951 . S
C1066 C1065 1.392 . S
C1066 C1067 1.392 . S
C1067 H1037 0.949 . S
C1067 C1062 1.382 . S
C1067 C1066 1.392 . S
H1068 C1087 0.949 . S
H1069 C1088 0.950 . S
H1070 C1090 0.950 . S
H1071 C1091 0.950 . S
H1072 C1093 0.950 . S
H1073 C1096 0.950 . S
H1074 C1097 0.950 . S
H1075 C1099 0.951 . S
H1076 C1100 0.949 . S
H1077 C1102 0.949 . S
H1078 C1103 0.950 . S
H1079 C1105 0.950 . S
H1080 C1106 0.950 . S
H1081 C1108 0.950 . S
H1082 C1111 0.950 . S
H1083 C1112 0.950 . S
H1084 C1114 0.951 . S
H1085 C1115 0.949 . S
C1086 C1087 1.376 . S
C1086 C1091 1.386 . S
C1086 C1092 1.483 . S
C1087 H1068 0.949 . S
C1087 C1086 1.376 . S
C1087 C1088 1.397 . S
C1088 H1069 0.950 . S
C1088 C1087 1.397 . S
C1088 C1089 1.391 . S
C1089 C1088 1.391 . S
C1089 C1090 1.405 . S
C1090 H1070 0.950 . S
C1090 C1089 1.405 . S
C1090 C1091 1.367 . S
C1091 H1071 0.950 . S
C1091 C1086 1.386 . S
C1091 C1090 1.367 . S
C1092 C1086 1.483 . S
C1092 C1093 1.382 . S
C1092 C1094 1.403 . S
C1093 H1072 0.950 . S
C1093 C1092 1.382 . S
C1093 C1109 1.411 . S
C1094 C1092 1.403 . S
C1094 C1095 1.489 . S
C1094 C1108 1.411 . S
C1095 C1094 1.489 . S
C1095 C1096 1.383 . S
C1095 C1100 1.382 . S
C1096 H1073 0.950 . S
C1096 C1095 1.383 . S
C1096 C1097 1.395 . S
C1097 H1074 0.950 . S
C1097 C1096 1.395 . S
C1097 C1098 1.288 . S
C1098 C1097 1.288 . S
C1098 C1099 1.392 . S
C1099 H1075 0.951 . S
C1099 C1098 1.392 . S
C1099 C1100 1.392 . S
C1100 H1076 0.949 . S
C1100 C1095 1.382 . S
C1100 C1099 1.392 . S
C1101 C1102 1.376 . S
C1101 C1106 1.386 . S
C1101 C1107 1.483 . S
C1102 H1077 0.949 . S
C1102 C1101 1.376 . S
C1102 C1103 1.397 . S
C1103 H1078 0.950 . S
C1103 C1102 1.397 . S
C1103 C1104 1.391 . S
C1104 C1103 1.391 . S
C1104 C1105 1.405 . S
C1105 H1079 0.950 . S
C1105 C1104 1.405 . S
C1105 C1106 1.367 . S
C1106 H1080 0.950 . S
C1106 C1101 1.386 . S
C1106 C1105 1.367 . S
C1107 C1101 1.483 . S
C1107 C1108 1.382 . S
C1107 C1109 1.403 . S
C1108 H1081 0.950 . S
C1108 C1094 1.411 . S
C1108 C1107 1.382 . S
C1109 C1093 1.411 . S
C1109 C1107 1.403 . S
C1109 C1110 1.489 . S
C1110 C1109 1.489 . S
C1110 C1111 1.383 . S
C1110 C1115 1.382 . S
C1111 H1082 0.950 . S
C1111 C1110 1.383 . S
C1111 C1112 1.395 . S
C1112 H1083 0.950 . S
C1112 C1111 1.395 . S
C1112 C1113 1.288 . S
C1113 C1112 1.288 . S
C1113 C1114 1.392 . S
C1114 H1084 0.951 . S
C1114 C1113 1.392 . S
C1114 C1115 1.392 . S
C1115 H1085 0.949 . S
C1115 C1110 1.382 . S
C1115 C1114 1.392 . S
C1116 C1117 1.420 . S
C1116 C1118 1.419 . S
C1116 H1120 0.930 . S
C1117 C1116 1.420 . S
C1117 C1126 1.404 1_655 S
C1118 C1116 1.419 . S
C1118 C1119 1.363 . S
C1118 H1121 0.929 . S
C1119 C1118 1.363 . S
C1119 C1125 1.428 1_655 S
H1120 C1116 0.930 . S
H1121 C1118 0.929 . S
S1122 N1123 1.613 . S
S1122 N1124 1.610 . S
N1123 S1122 1.613 . S
N1123 C1126 1.350 . S
N1124 S1122 1.610 . S
N1124 C1125 1.351 . S
C1125 C1119 1.428 1_455 S
C1125 N1124 1.351 . S
C1125 C1126 1.434 . S
C1126 C1117 1.404 1_455 S
C1126 N1123 1.350 . S
C1126 C1125 1.434 . S
C1127 C1128 1.369 . S
C1127 C1129 1.419 . S
C1127 H1131 0.930 . S
C1128 C1127 1.369 . S
C1128 C1137 1.429 . S
C1129 C1127 1.419 . S
C1129 C1130 1.363 . S
C1129 H1132 0.929 . S
C1130 C1129 1.363 . S
C1130 C1136 1.428 . S
H1131 C1127 0.930 . S
H1132 C1129 0.929 . S
S1133 N1134 1.613 . S
S1133 N1135 1.610 . S
N1134 S1133 1.613 . S
N1134 C1137 1.350 . S
N1135 S1133 1.610 . S
N1135 C1136 1.351 . S
C1136 C1130 1.428 . S
C1136 N1135 1.351 . S
C1136 C1137 1.434 . S
C1137 C1128 1.429 . S
C1137 N1134 1.350 . S
C1137 C1136 1.434 . S
C1138 C1139 1.369 1_565 S
C1138 C1140 1.419 . S
C1138 H1142 0.930 . S
C1139 C1138 1.369 1_545 S
C1139 C1148 1.429 . S
C1140 C1138 1.419 . S
C1140 C1141 1.363 1_565 S
C1140 H1143 0.929 . S
C1141 C1140 1.363 1_545 S
C1141 C1147 1.428 . S
H1142 C1138 0.930 . S
H1143 C1140 0.929 . S
S1144 N1145 1.613 . S
S1144 N1146 1.610 . S
N1145 S1144 1.613 . S
N1145 C1148 1.350 . S
N1146 S1144 1.610 . S
N1146 C1147 1.351 . S
C1147 C1141 1.428 . S
C1147 N1146 1.351 . S
C1147 C1148 1.434 . S
C1148 C1139 1.429 . S
C1148 N1145 1.350 . S
C1148 C1147 1.434 . S
C1149 C1150 1.353 1_545 S
C1149 C1151 1.419 . S
C1149 H1153 0.930 . S
C1150 C1149 1.353 1_565 S
C1150 C1159 1.475 . S
C1151 C1149 1.419 . S
C1151 C1152 1.363 1_545 S
C1151 H1154 0.929 . S
C1152 C1151 1.363 1_565 S
C1152 C1158 1.428 . S
H1153 C1149 0.930 . S
H1154 C1151 0.929 . S
S1155 N1156 1.613 . S
S1155 N1157 1.610 . S
N1156 S1155 1.613 . S
N1156 C1159 1.350 . S
N1157 S1155 1.610 . S
N1157 C1158 1.351 . S
C1158 C1152 1.428 . S
C1158 N1157 1.351 . S
C1158 C1159 1.434 . S
C1159 C1150 1.475 . S
C1159 N1156 1.350 . S
C1159 C1158 1.434 . S
C1160 C1161 1.369 1_655 S
C1160 C1162 1.419 . S
C1160 H1164 0.930 . S
C1161 C1160 1.369 1_455 S
C1161 C1170 1.429 . S
C1162 C1160 1.419 . S
C1162 C1163 1.363 1_655 S
C1162 H1165 0.929 . S
C1163 C1162 1.363 1_455 S
C1163 C1169 1.428 . S
H1164 C1160 0.930 . S
H1165 C1162 0.929 . S
S1166 N1167 1.613 . S
S1166 N1168 1.610 . S
N1167 S1166 1.613 . S
N1167 C1170 1.350 . S
N1168 S1166 1.610 . S
N1168 C1169 1.351 . S
C1169 C1163 1.428 . S
C1169 N1168 1.351 . S
C1169 C1170 1.434 . S
C1170 C1161 1.429 . S
C1170 N1167 1.350 . S
C1170 C1169 1.434 . S
C1171 C1172 1.369 . S
C1171 C1173 1.419 . S
C1171 H1175 0.930 . S
C1172 C1171 1.369 . S
C1172 C1181 1.429 . S
C1173 C1171 1.419 . S
C1173 C1174 1.363 . S
C1173 H1176 0.929 . S
C1174 C1173 1.363 . S
C1174 C1180 1.428 . S
H1175 C1171 0.930 . S
H1176 C1173 0.929 . S
S1177 N1178 1.613 . S
S1177 N1179 1.610 . S
N1178 S1177 1.613 . S
N1178 C1181 1.350 . S
N1179 S1177 1.610 . S
N1179 C1180 1.351 . S
C1180 C1174 1.428 . S
C1180 N1179 1.351 . S
C1180 C1181 1.434 . S
C1181 C1172 1.429 . S
C1181 N1178 1.350 . S
C1181 C1180 1.434 . S
C1182 C1183 1.369 . S
C1182 C1184 1.419 . S
C1182 H1186 0.930 . S
C1183 C1182 1.369 . S
C1183 C1192 1.429 1_455 S
C1184 C1182 1.419 . S
C1184 C1185 1.363 . S
C1184 H1187 0.929 . S
C1185 C1184 1.363 . S
C1185 C1191 1.428 1_455 S
H1186 C1182 0.930 . S
H1187 C1184 0.929 . S
S1188 N1189 1.613 . S
S1188 N1190 1.610 . S
N1189 S1188 1.613 . S
N1189 C1192 1.350 . S
N1190 S1188 1.610 . S
N1190 C1191 1.351 . S
C1191 C1185 1.428 1_655 S
C1191 N1190 1.351 . S
C1191 C1192 1.434 . S
C1192 C1183 1.429 1_655 S
C1192 N1189 1.350 . S
C1192 C1191 1.434 . S
C1193 C1194 1.369 . S
C1193 C1195 1.419 . S
C1193 H1197 0.930 . S
C1194 C1193 1.369 . S
C1194 C1203 1.429 . S
C1195 C1193 1.419 . S
C1195 C1196 1.363 . S
C1195 H1198 0.929 . S
C1196 C1195 1.363 . S
C1196 C1202 1.428 . S
H1197 C1193 0.930 . S
H1198 C1195 0.929 . S
S1199 N1200 1.613 . S
S1199 N1201 1.610 . S
N1200 S1199 1.613 . S
N1200 C1203 1.350 . S
N1201 S1199 1.610 . S
N1201 C1202 1.351 . S
C1202 C1196 1.428 . S
C1202 N1201 1.351 . S
C1202 C1203 1.434 . S
C1203 C1194 1.429 . S
C1203 N1200 1.350 . S
C1203 C1202 1.434 . S
C1204 C1205 1.369 . S
C1204 C1206 1.419 . S
C1204 H1208 0.930 . S
C1205 C1204 1.369 . S
C1205 C1214 1.429 1_565 S
C1206 C1204 1.419 . S
C1206 C1207 1.363 . S
C1206 H1209 0.929 . S
C1207 C1206 1.363 . S
C1207 C1213 1.428 1_565 S
H1208 C1204 0.930 . S
H1209 C1206 0.929 . S
S1210 N1211 1.613 . S
S1210 N1212 1.610 . S
N1211 S1210 1.613 . S
N1211 C1214 1.350 . S
N1212 S1210 1.610 . S
N1212 C1213 1.351 . S
C1213 C1207 1.428 1_545 S
C1213 N1212 1.351 . S
C1213 C1214 1.434 . S
C1214 C1205 1.429 1_545 S
C1214 N1211 1.350 . S
C1214 C1213 1.434 . S
C1215 C1216 1.369 1_565 S
C1215 C1217 1.419 . S
C1215 H1219 0.930 . S
C1216 C1215 1.369 1_545 S
C1216 C1225 1.429 . S
C1217 C1215 1.419 . S
C1217 C1218 1.363 1_565 S
C1217 H1220 0.929 . S
C1218 C1217 1.363 1_545 S
C1218 C1224 1.428 . S
H1219 C1215 0.930 . S
H1220 C1217 0.929 . S
S1221 N1222 1.613 . S
S1221 N1223 1.610 . S
N1222 S1221 1.613 . S
N1222 C1225 1.350 . S
N1223 S1221 1.610 . S
N1223 C1224 1.351 . S
C1224 C1218 1.428 . S
C1224 N1223 1.351 . S
C1224 C1225 1.434 . S
C1225 C1216 1.429 . S
C1225 N1222 1.350 . S
C1225 C1224 1.434 . S
C1226 C1227 1.369 1_455 S
C1226 C1228 1.419 . S
C1226 H1230 0.930 . S
C1227 C1226 1.369 1_655 S
C1227 C1236 1.429 . S
C1228 C1226 1.419 . S
C1228 C1229 1.363 1_455 S
C1228 H1231 0.929 . S
C1229 C1228 1.363 1_655 S
C1229 C1235 1.428 . S
H1230 C1226 0.930 . S
H1231 C1228 0.929 . S
S1232 N1233 1.613 . S
S1232 N1234 1.610 . S
N1233 S1232 1.613 . S
N1233 C1236 1.350 . S
N1234 S1232 1.610 . S
N1234 C1235 1.351 . S
C1235 C1229 1.428 . S
C1235 N1234 1.351 . S
C1235 C1236 1.434 . S
C1236 C1227 1.429 . S
C1236 N1233 1.350 . S
C1236 C1235 1.434 . S
C1237 C1238 1.369 . S
C1237 C1239 1.419 . S
C1237 H1241 0.930 . S
C1238 C1237 1.369 . S
C1238 C1247 1.429 . S
C1239 C1237 1.419 . S
C1239 C1240 1.363 . S
C1239 H1242 0.929 . S
C1240 C1239 1.363 . S
C1240 C1246 1.428 . S
H1241 C1237 0.930 . S
H1242 C1239 0.929 . S
S1243 N1244 1.613 . S
S1243 N1245 1.610 . S
N1244 S1243 1.613 . S
N1244 C1247 1.350 . S
N1245 S1243 1.610 . S
N1245 C1246 1.351 . S
C1246 C1240 1.428 . S
C1246 N1245 1.351 . S
C1246 C1247 1.434 . S
C1247 C1238 1.429 . S
C1247 N1244 1.350 . S
C1247 C1246 1.434 . S
C1248 C1249 1.369 . S
C1248 C1250 1.419 . S
C1248 H1252 0.930 . S
C1249 C1248 1.369 . S
C1249 C1258 1.429 . S
C1250 C1248 1.419 . S
C1250 C1251 1.363 . S
C1250 H1253 0.929 . S
C1251 C1250 1.363 . S
C1251 C1257 1.428 . S
H1252 C1248 0.930 . S
H1253 C1250 0.929 . S
S1254 N1255 1.613 . S
S1254 N1256 1.610 . S
N1255 S1254 1.613 . S
N1255 C1258 1.350 . S
N1256 S1254 1.610 . S
N1256 C1257 1.351 . S
C1257 C1251 1.428 . S
C1257 N1256 1.351 . S
C1257 C1258 1.434 . S
C1258 C1249 1.429 . S
C1258 N1255 1.350 . S
C1258 C1257 1.434 . S
C1259 C1260 1.369 . S
C1259 C1261 1.419 . S
C1259 H1263 0.930 . S
C1260 C1259 1.369 . S
C1260 C1269 1.429 . S
C1261 C1259 1.419 . S
C1261 C1262 1.363 . S
C1261 H1264 0.929 . S
C1262 C1261 1.363 . S
C1262 C1268 1.428 . S
H1263 C1259 0.930 . S
H1264 C1261 0.929 . S
S1265 N1266 1.613 . S
S1265 N1267 1.610 . S
N1266 S1265 1.613 . S
N1266 C1269 1.350 . S
N1267 S1265 1.610 . S
N1267 C1268 1.351 . S
C1268 C1262 1.428 . S
C1268 N1267 1.351 . S
C1268 C1269 1.434 . S
C1269 C1260 1.429 . S
C1269 N1266 1.350 . S
C1269 C1268 1.434 . S
C1270 C1271 1.369 . S
C1270 C1272 1.419 . S
C1270 H1274 0.930 . S
C1271 C1270 1.369 . S
C1271 C1280 1.429 . S
C1272 C1270 1.419 . S
C1272 C1273 1.363 . S
C1272 H1275 0.929 . S
C1273 C1272 1.363 . S
C1273 C1279 1.428 . S
H1274 C1270 0.930 . S
H1275 C1272 0.929 . S
S1276 N1277 1.613 . S
S1276 N1278 1.610 . S
N1277 S1276 1.613 . S
N1277 C1280 1.350 . S
N1278 S1276 1.610 . S
N1278 C1279 1.351 . S
C1279 C1273 1.428 . S
C1279 N1278 1.351 . S
C1279 C1280 1.434 . S
C1280 C1271 1.429 . S
C1280 N1277 1.350 . S
C1280 C1279 1.434 . S
C1281 C1282 1.369 . S
C1281 C1283 1.419 . S
C1281 H1285 0.930 . S
C1282 C1281 1.369 . S
C1282 C1291 1.429 . S
C1283 C1281 1.419 . S
C1283 C1284 1.363 . S
C1283 H1286 0.929 . S
C1284 C1283 1.363 . S
C1284 C1290 1.428 . S
H1285 C1281 0.930 . S
H1286 C1283 0.929 . S
S1287 N1288 1.613 . S
S1287 N1289 1.610 . S
N1288 S1287 1.613 . S
N1288 C1291 1.350 . S
N1289 S1287 1.610 . S
N1289 C1290 1.351 . S
C1290 C1284 1.428 . S
C1290 N1289 1.351 . S
C1290 C1291 1.434 . S
C1291 C1282 1.429 . S
C1291 N1288 1.350 . S
C1291 C1290 1.434 . S
C1292 C1293 1.369 . S
C1292 C1294 1.419 . S
C1292 H1296 0.930 . S
C1293 C1292 1.369 . S
C1293 C1302 1.429 . S
C1294 C1292 1.419 . S
C1294 C1295 1.363 . S
C1294 H1297 0.929 . S
C1295 C1294 1.363 . S
C1295 C1301 1.428 . S
H1296 C1292 0.930 . S
H1297 C1294 0.929 . S
S1298 N1299 1.613 . S
S1298 N1300 1.610 . S
N1299 S1298 1.613 . S
N1299 C1302 1.350 . S
N1300 S1298 1.610 . S
N1300 C1301 1.351 . S
C1301 C1295 1.428 . S
C1301 N1300 1.351 . S
C1301 C1302 1.434 . S
C1302 C1293 1.429 . S
C1302 N1299 1.350 . S
C1302 C1301 1.434 . S
C1303 C1304 1.369 . S
C1303 C1305 1.419 . S
C1303 H1307 0.930 . S
C1304 C1303 1.369 . S
C1304 C1313 1.429 . S
C1305 C1303 1.419 . S
C1305 C1306 1.363 . S
C1305 H1308 0.929 . S
C1306 C1305 1.363 . S
C1306 C1312 1.428 . S
H1307 C1303 0.930 . S
H1308 C1305 0.929 . S
S1309 N1310 1.613 . S
S1309 N1311 1.610 . S
N1310 S1309 1.613 . S
N1310 C1313 1.350 . S
N1311 S1309 1.610 . S
N1311 C1312 1.351 . S
C1312 C1306 1.428 . S
C1312 N1311 1.351 . S
C1312 C1313 1.434 . S
C1313 C1304 1.429 . S
C1313 N1310 1.350 . S
C1313 C1312 1.434 . S
C1314 C1315 1.369 . S
C1314 C1316 1.419 . S
C1314 H1318 0.930 . S
C1315 C1314 1.369 . S
C1315 C1324 1.429 . S
C1316 C1314 1.419 . S
C1316 C1317 1.363 . S
C1316 H1319 0.929 . S
C1317 C1316 1.363 . S
C1317 C1323 1.428 . S
H1318 C1314 0.930 . S
H1319 C1316 0.929 . S
S1320 N1321 1.613 . S
S1320 N1322 1.610 . S
N1321 S1320 1.613 . S
N1321 C1324 1.350 . S
N1322 S1320 1.610 . S
N1322 C1323 1.351 . S
C1323 C1317 1.428 . S
C1323 N1322 1.351 . S
C1323 C1324 1.434 . S
C1324 C1315 1.429 . S
C1324 N1321 1.350 . S
C1324 C1323 1.434 . S
C1325 C1326 1.369 . S
C1325 C1327 1.419 . S
C1325 H1329 0.930 . S
C1326 C1325 1.369 . S
C1326 C1335 1.429 . S
C1327 C1325 1.419 . S
C1327 C1328 1.363 . S
C1327 H1330 0.929 . S
C1328 C1327 1.363 . S
C1328 C1334 1.428 . S
H1329 C1325 0.930 . S
H1330 C1327 0.929 . S
S1331 N1332 1.613 . S
S1331 N1333 1.610 . S
N1332 S1331 1.613 . S
N1332 C1335 1.350 . S
N1333 S1331 1.610 . S
N1333 C1334 1.351 . S
C1334 C1328 1.428 . S
C1334 N1333 1.351 . S
C1334 C1335 1.434 . S
C1335 C1326 1.429 . S
C1335 N1332 1.350 . S
C1335 C1334 1.434 . S
C1336 C1337 1.369 . S
C1336 C1338 1.419 . S
C1336 H1340 0.930 . S
C1337 C1336 1.369 . S
C1337 C1346 1.429 . S
C1338 C1336 1.419 . S
C1338 C1339 1.363 . S
C1338 H1341 0.929 . S
C1339 C1338 1.363 . S
C1339 C1345 1.428 . S
H1340 C1336 0.930 . S
H1341 C1338 0.929 . S
S1342 N1343 1.613 . S
S1342 N1344 1.610 . S
N1343 S1342 1.613 . S
N1343 C1346 1.350 . S
N1344 S1342 1.610 . S
N1344 C1345 1.351 . S
C1345 C1339 1.428 . S
C1345 N1344 1.351 . S
C1345 C1346 1.434 . S
C1346 C1337 1.429 . S
C1346 N1343 1.350 . S
C1346 C1345 1.434 . S
C1347 C1348 1.369 . S
C1347 C1349 1.419 . S
C1347 H1351 0.930 . S
C1348 C1347 1.369 . S
C1348 C1357 1.429 . S
C1349 C1347 1.419 . S
C1349 C1350 1.363 . S
C1349 H1352 0.929 . S
C1350 C1349 1.363 . S
C1350 C1356 1.428 . S
H1351 C1347 0.930 . S
H1352 C1349 0.929 . S
S1353 N1354 1.613 . S
S1353 N1355 1.610 . S
N1354 S1353 1.613 . S
N1354 C1357 1.350 . S
N1355 S1353 1.610 . S
N1355 C1356 1.351 . S
C1356 C1350 1.428 . S
C1356 N1355 1.351 . S
C1356 C1357 1.434 . S
C1357 C1348 1.429 . S
C1357 N1354 1.350 . S
C1357 C1356 1.434 . S
C1358 C1359 1.369 . S
C1358 C1360 1.419 . S
C1358 H1362 0.930 . S
C1359 C1358 1.369 . S
C1359 C1368 1.429 . S
C1360 C1358 1.419 . S
C1360 C1361 1.363 . S
C1360 H1363 0.929 . S
C1361 C1360 1.363 . S
C1361 C1367 1.428 . S
H1362 C1358 0.930 . S
H1363 C1360 0.929 . S
S1364 N1365 1.613 . S
S1364 N1366 1.610 . S
N1365 S1364 1.613 . S
N1365 C1368 1.350 . S
N1366 S1364 1.610 . S
N1366 C1367 1.351 . S
C1367 C1361 1.428 . S
C1367 N1366 1.351 . S
C1367 C1368 1.434 . S
C1368 C1359 1.429 . S
C1368 N1365 1.350 . S
C1368 C1367 1.434 . S
C1369 C1370 1.369 . S
C1369 C1371 1.419 . S
C1369 H1373 0.930 . S
C1370 C1369 1.369 . S
C1370 C1379 1.429 . S
C1371 C1369 1.419 . S
C1371 C1372 1.363 . S
C1371 H1374 0.929 . S
C1372 C1371 1.363 . S
C1372 C1378 1.428 . S
H1373 C1369 0.930 . S
H1374 C1371 0.929 . S
S1375 N1376 1.613 . S
S1375 N1377 1.610 . S
N1376 S1375 1.613 . S
N1376 C1379 1.350 . S
N1377 S1375 1.610 . S
N1377 C1378 1.351 . S
C1378 C1372 1.428 . S
C1378 N1377 1.351 . S
C1378 C1379 1.434 . S
C1379 C1370 1.429 . S
C1379 N1376 1.350 . S
C1379 C1378 1.434 . S
C1380 C1381 1.369 . S
C1380 C1382 1.419 . S
C1380 H1384 0.930 . S
C1381 C1380 1.369 . S
C1381 C1390 1.429 . S
C1382 C1380 1.419 . S
C1382 C1383 1.363 . S
C1382 H1385 0.929 . S
C1383 C1382 1.363 . S
C1383 C1389 1.428 . S
H1384 C1380 0.930 . S
H1385 C1382 0.929 . S
S1386 N1387 1.613 . S
S1386 N1388 1.610 . S
N1387 S1386 1.613 . S
N1387 C1390 1.350 . S
N1388 S1386 1.610 . S
N1388 C1389 1.351 . S
C1389 C1383 1.428 . S
C1389 N1388 1.351 . S
C1389 C1390 1.434 . S
C1390 C1381 1.429 . S
C1390 N1387 1.350 . S
C1390 C1389 1.434 . S
C1391 C1392 1.369 . S
C1391 C1393 1.419 . S
C1391 H1395 0.930 . S
C1392 C1391 1.369 . S
C1392 C1401 1.429 . S
C1393 C1391 1.419 . S
C1393 C1394 1.363 . S
C1393 H1396 0.929 . S
C1394 C1393 1.363 . S
C1394 C1400 1.428 . S
H1395 C1391 0.930 . S
H1396 C1393 0.929 . S
S1397 N1398 1.613 . S
S1397 N1399 1.610 . S
N1398 S1397 1.613 . S
N1398 C1401 1.350 . S
N1399 S1397 1.610 . S
N1399 C1400 1.351 . S
C1400 C1394 1.428 . S
C1400 N1399 1.351 . S
C1400 C1401 1.434 . S
C1401 C1392 1.429 . S
C1401 N1398 1.350 . S
C1401 C1400 1.434 . S
C1402 C1403 1.369 . S
C1402 C1404 1.419 . S
C1402 H1406 0.930 . S
C1403 C1402 1.369 . S
C1403 C1412 1.429 . S
C1404 C1402 1.419 . S
C1404 C1405 1.363 . S
C1404 H1407 0.929 . S
C1405 C1404 1.363 . S
C1405 C1411 1.428 . S
H1406 C1402 0.930 . S
H1407 C1404 0.929 . S
S1408 N1409 1.613 . S
S1408 N1410 1.610 . S
N1409 S1408 1.613 . S
N1409 C1412 1.350 . S
N1410 S1408 1.610 . S
N1410 C1411 1.351 . S
C1411 C1405 1.428 . S
C1411 N1410 1.351 . S
C1411 C1412 1.434 . S
C1412 C1403 1.429 . S
C1412 N1409 1.350 . S
C1412 C1411 1.434 . S
C1413 C1414 1.369 . S
C1413 C1415 1.419 . S
C1413 H1417 0.930 . S
C1414 C1413 1.369 . S
C1414 C1423 1.429 . S
C1415 C1413 1.419 . S
C1415 C1416 1.363 . S
C1415 H1418 0.929 . S
C1416 C1415 1.363 . S
C1416 C1422 1.428 . S
H1417 C1413 0.930 . S
H1418 C1415 0.929 . S
S1419 N1420 1.613 . S
S1419 N1421 1.610 . S
N1420 S1419 1.613 . S
N1420 C1423 1.350 . S
N1421 S1419 1.610 . S
N1421 C1422 1.351 . S
C1422 C1416 1.428 . S
C1422 N1421 1.351 . S
C1422 C1423 1.434 . S
C1423 C1414 1.429 . S
C1423 N1420 1.350 . S
C1423 C1422 1.434 . S
C1424 C1425 1.369 . S
C1424 C1426 1.419 . S
C1424 H1428 0.930 . S
C1425 C1424 1.369 . S
C1425 C1434 1.429 . S
C1426 C1424 1.419 . S
C1426 C1427 1.363 . S
C1426 H1429 0.929 . S
C1427 C1426 1.363 . S
C1427 C1433 1.428 . S
H1428 C1424 0.930 . S
H1429 C1426 0.929 . S
S1430 N1431 1.613 . S
S1430 N1432 1.610 . S
N1431 S1430 1.613 . S
N1431 C1434 1.350 . S
N1432 S1430 1.610 . S
N1432 C1433 1.351 . S
C1433 C1427 1.428 . S
C1433 N1432 1.351 . S
C1433 C1434 1.434 . S
C1434 C1425 1.429 . S
C1434 N1431 1.350 . S
C1434 C1433 1.434 . S
C1435 C1436 1.369 . S
C1435 C1437 1.419 . S
C1435 H1439 0.930 . S
C1436 C1435 1.369 . S
C1436 C1445 1.429 . S
C1437 C1435 1.419 . S
C1437 C1438 1.363 . S
C1437 H1440 0.929 . S
C1438 C1437 1.363 . S
C1438 C1444 1.428 . S
H1439 C1435 0.930 . S
H1440 C1437 0.929 . S
S1441 N1442 1.613 . S
S1441 N1443 1.610 . S
N1442 S1441 1.613 . S
N1442 C1445 1.350 . S
N1443 S1441 1.610 . S
N1443 C1444 1.351 . S
C1444 C1438 1.428 . S
C1444 N1443 1.351 . S
C1444 C1445 1.434 . S
C1445 C1436 1.429 . S
C1445 N1442 1.350 . S
C1445 C1444 1.434 . S
C1446 C1447 1.369 . S
C1446 C1448 1.419 . S
C1446 H1450 0.930 . S
C1447 C1446 1.369 . S
C1447 C1456 1.429 . S
C1448 C1446 1.419 . S
C1448 C1449 1.363 . S
C1448 H1451 0.929 . S
C1449 C1448 1.363 . S
C1449 C1455 1.428 . S
H1450 C1446 0.930 . S
H1451 C1448 0.929 . S
S1452 N1453 1.613 . S
S1452 N1454 1.610 . S
N1453 S1452 1.613 . S
N1453 C1456 1.350 . S
N1454 S1452 1.610 . S
N1454 C1455 1.351 . S
C1455 C1449 1.428 . S
C1455 N1454 1.351 . S
C1455 C1456 1.434 . S
C1456 C1447 1.429 . S
C1456 N1453 1.350 . S
C1456 C1455 1.434 . S
C1457 C1458 1.369 . S
C1457 C1459 1.419 . S
C1457 H1461 0.930 . S
C1458 C1457 1.369 . S
C1458 C1467 1.429 . S
C1459 C1457 1.419 . S
C1459 C1460 1.363 . S
C1459 H1462 0.929 . S
C1460 C1459 1.363 . S
C1460 C1466 1.428 . S
H1461 C1457 0.930 . S
H1462 C1459 0.929 . S
S1463 N1464 1.613 . S
S1463 N1465 1.610 . S
N1464 S1463 1.613 . S
N1464 C1467 1.350 . S
N1465 S1463 1.610 . S
N1465 C1466 1.351 . S
C1466 C1460 1.428 . S
C1466 N1465 1.351 . S
C1466 C1467 1.434 . S
C1467 C1458 1.429 . S
C1467 N1464 1.350 . S
C1467 C1466 1.434 . S
C1468 C1469 1.369 . S
C1468 C1470 1.419 . S
C1468 H1472 0.930 . S
C1469 C1468 1.369 . S
C1469 C1478 1.429 . S
C1470 C1468 1.419 . S
C1470 C1471 1.363 . S
C1470 H1473 0.929 . S
C1471 C1470 1.363 . S
C1471 C1477 1.428 . S
H1472 C1468 0.930 . S
H1473 C1470 0.929 . S
S1474 N1475 1.613 . S
S1474 N1476 1.610 . S
N1475 S1474 1.613 . S
N1475 C1478 1.350 . S
N1476 S1474 1.610 . S
N1476 C1477 1.351 . S
C1477 C1471 1.428 . S
C1477 N1476 1.351 . S
C1477 C1478 1.434 . S
C1478 C1469 1.429 . S
C1478 N1475 1.350 . S
C1478 C1477 1.434 . S
C1479 C1480 1.369 . S
C1479 C1481 1.419 . S
C1479 H1483 0.930 . S
C1480 C1479 1.369 . S
C1480 C1489 1.429 . S
C1481 C1479 1.419 . S
C1481 C1482 1.363 . S
C1481 H1484 0.929 . S
C1482 C1481 1.363 . S
C1482 C1488 1.428 . S
H1483 C1479 0.930 . S
H1484 C1481 0.929 . S
S1485 N1486 1.613 . S
S1485 N1487 1.610 . S
N1486 S1485 1.613 . S
N1486 C1489 1.350 . S
N1487 S1485 1.610 . S
N1487 C1488 1.351 . S
C1488 C1482 1.428 . S
C1488 N1487 1.351 . S
C1488 C1489 1.434 . S
C1489 C1480 1.429 . S
C1489 N1486 1.350 . S
C1489 C1488 1.434 . S
C1490 C1491 1.369 . S
C1490 C1492 1.419 . S
C1490 H1494 0.930 . S
C1491 C1490 1.369 . S
C1491 C1500 1.429 . S
C1492 C1490 1.419 . S
C1492 C1493 1.363 . S
C1492 H1495 0.929 . S
C1493 C1492 1.363 . S
C1493 C1499 1.428 . S
H1494 C1490 0.930 . S
H1495 C1492 0.929 . S
S1496 N1497 1.613 . S
S1496 N1498 1.610 . S
N1497 S1496 1.613 . S
N1497 C1500 1.350 . S
N1498 S1496 1.610 . S
N1498 C1499 1.351 . S
C1499 C1493 1.428 . S
C1499 N1498 1.351 . S
C1499 C1500 1.434 . S
C1500 C1491 1.429 . S
C1500 N1497 1.350 . S
C1500 C1499 1.434 . S
C1501 C1502 1.369 . S
C1501 C1503 1.419 . S
C1501 H1505 0.930 . S
C1502 C1501 1.369 . S
C1502 C1511 1.429 . S
C1503 C1501 1.419 . S
C1503 C1504 1.363 . S
C1503 H1506 0.929 . S
C1504 C1503 1.363 . S
C1504 C1510 1.428 . S
H1505 C1501 0.930 . S
H1506 C1503 0.929 . S
S1507 N1508 1.613 . S
S1507 N1509 1.610 . S
N1508 S1507 1.613 . S
N1508 C1511 1.350 . S
N1509 S1507 1.610 . S
N1509 C1510 1.351 . S
C1510 C1504 1.428 . S
C1510 N1509 1.351 . S
C1510 C1511 1.434 . S
C1511 C1502 1.429 . S
C1511 N1508 1.350 . S
C1511 C1510 1.434 . S
C1512 C1513 1.369 . S
C1512 C1514 1.419 . S
C1512 H1516 0.930 . S
C1513 C1512 1.369 . S
C1513 C1522 1.429 . S
C1514 C1512 1.419 . S
C1514 C1515 1.363 . S
C1514 H1517 0.929 . S
C1515 C1514 1.363 . S
C1515 C1521 1.428 . S
H1516 C1512 0.930 . S
H1517 C1514 0.929 . S
S1518 N1519 1.613 . S
S1518 N1520 1.610 . S
N1519 S1518 1.613 . S
N1519 C1522 1.350 . S
N1520 S1518 1.610 . S
N1520 C1521 1.351 . S
C1521 C1515 1.428 . S
C1521 N1520 1.351 . S
C1521 C1522 1.434 . S
C1522 C1513 1.429 . S
C1522 N1519 1.350 . S
C1522 C1521 1.434 . S
C1523 C1524 1.369 . S
C1523 C1525 1.419 . S
C1523 H1527 0.930 . S
C1524 C1523 1.369 . S
C1524 C1533 1.429 . S
C1525 C1523 1.419 . S
C1525 C1526 1.363 . S
C1525 H1528 0.929 . S
C1526 C1525 1.363 . S
C1526 C1532 1.428 . S
H1527 C1523 0.930 . S
H1528 C1525 0.929 . S
S1529 N1530 1.613 . S
S1529 N1531 1.610 . S
N1530 S1529 1.613 . S
N1530 C1533 1.350 . S
N1531 S1529 1.610 . S
N1531 C1532 1.351 . S
C1532 C1526 1.428 . S
C1532 N1531 1.351 . S
C1532 C1533 1.434 . S
C1533 C1524 1.429 . S
C1533 N1530 1.350 . S
C1533 C1532 1.434 . S
C1534 C1535 1.369 . S
C1534 C1536 1.419 . S
C1534 H1538 0.930 . S
C1535 C1534 1.369 . S
C1535 C1544 1.429 . S
C1536 C1534 1.419 . S
C1536 C1537 1.363 . S
C1536 H1539 0.929 . S
C1537 C1536 1.363 . S
C1537 C1543 1.428 . S
H1538 C1534 0.930 . S
H1539 C1536 0.929 . S
S1540 N1541 1.613 . S
S1540 N1542 1.610 . S
N1541 S1540 1.613 . S
N1541 C1544 1.350 . S
N1542 S1540 1.610 . S
N1542 C1543 1.351 . S
C1543 C1537 1.428 . S
C1543 N1542 1.351 . S
C1543 C1544 1.434 . S
C1544 C1535 1.429 . S
C1544 N1541 1.350 . S
C1544 C1543 1.434 . S
C1545 C1546 1.369 . S
C1545 C1547 1.419 . S
C1545 H1549 0.930 . S
C1546 C1545 1.369 . S
C1546 C1555 1.429 . S
C1547 C1545 1.419 . S
C1547 C1548 1.363 . S
C1547 H1550 0.929 . S
C1548 C1547 1.363 . S
C1548 C1554 1.428 . S
H1549 C1545 0.930 . S
H1550 C1547 0.929 . S
S1551 N1552 1.613 . S
S1551 N1553 1.610 1_554 S
N1552 S1551 1.613 . S
N1552 C1555 1.347 1_554 S
N1553 S1551 1.610 1_556 S
N1553 C1554 1.351 . S
C1554 C1548 1.428 . S
C1554 N1553 1.351 . S
C1554 C1555 1.434 . S
C1555 C1546 1.429 . S
C1555 N1552 1.347 1_556 S
C1555 C1554 1.434 . S
C1556 C1557 1.369 . S
C1556 C1558 1.419 . S
C1556 H1560 0.930 . S
C1557 C1556 1.369 . S
C1557 C1566 1.429 . S
C1558 C1556 1.419 . S
C1558 C1559 1.363 . S
C1558 H1561 0.929 . S
C1559 C1558 1.363 . S
C1559 C1565 1.428 . S
H1560 C1556 0.930 . S
H1561 C1558 0.929 . S
S1562 N1563 1.613 . S
S1562 N1564 1.610 . S
N1563 S1562 1.613 . S
N1563 C1566 1.350 . S
N1564 S1562 1.610 . S
N1564 C1565 1.351 . S
C1565 C1559 1.428 . S
C1565 N1564 1.351 . S
C1565 C1566 1.434 . S
C1566 C1557 1.429 . S
C1566 N1563 1.350 . S
C1566 C1565 1.434 . S
C1567 C1568 1.369 . S
C1567 C1569 1.419 . S
C1567 H1571 0.930 . S
C1568 C1567 1.369 . S
C1568 C1577 1.429 . S
C1569 C1567 1.419 . S
C1569 C1570 1.363 . S
C1569 H1572 0.929 . S
C1570 C1569 1.363 . S
C1570 C1576 1.428 . S
H1571 C1567 0.930 . S
H1572 C1569 0.929 . S
S1573 N1574 1.613 . S
S1573 N1575 1.610 . S
N1574 S1573 1.613 . S
N1574 C1577 1.350 . S
N1575 S1573 1.610 . S
N1575 C1576 1.351 . S
C1576 C1570 1.428 . S
C1576 N1575 1.351 . S
C1576 C1577 1.434 . S
C1577 C1568 1.429 . S
C1577 N1574 1.350 . S
C1577 C1576 1.434 . S
C1578 C1579 1.369 . S
C1578 C1580 1.419 . S
C1578 H1582 0.930 . S
C1579 C1578 1.369 . S
C1579 C1588 1.429 . S
C1580 C1578 1.419 . S
C1580 C1581 1.363 . S
C1580 H1583 0.929 . S
C1581 C1580 1.363 . S
C1581 C1587 1.428 . S
H1582 C1578 0.930 . S
H1583 C1580 0.929 . S
S1584 N1585 1.613 . S
S1584 N1586 1.610 . S
N1585 S1584 1.613 . S
N1585 C1588 1.350 . S
N1586 S1584 1.610 . S
N1586 C1587 1.351 . S
C1587 C1581 1.428 . S
C1587 N1586 1.351 . S
C1587 C1588 1.434 . S
C1588 C1579 1.429 . S
C1588 N1585 1.350 . S
C1588 C1587 1.434 . S
C1589 C1590 1.369 . S
C1589 C1591 1.419 . S
C1589 H1593 0.930 . S
C1590 C1589 1.369 . S
C1590 C1599 1.429 . S
C1591 C1589 1.419 . S
C1591 C1592 1.363 . S
C1591 H1594 0.929 . S
C1592 C1591 1.363 . S
C1592 C1598 1.428 . S
H1593 C1589 0.930 . S
H1594 C1591 0.929 . S
S1595 N1596 1.613 . S
S1595 N1597 1.610 . S
N1596 S1595 1.613 . S
N1596 C1599 1.350 . S
N1597 S1595 1.610 . S
N1597 C1598 1.351 . S
C1598 C1592 1.428 . S
C1598 N1597 1.351 . S
C1598 C1599 1.434 . S
C1599 C1590 1.429 . S
C1599 N1596 1.350 . S
C1599 C1598 1.434 . S
C1600 C1601 1.369 . S
C1600 C1602 1.419 . S
C1600 H1604 0.930 . S
C1601 C1600 1.369 . S
C1601 C1610 1.429 . S
C1602 C1600 1.419 . S
C1602 C1603 1.363 . S
C1602 H1605 0.929 . S
C1603 C1602 1.363 . S
C1603 C1609 1.428 . S
H1604 C1600 0.930 . S
H1605 C1602 0.929 . S
S1606 N1607 1.613 . S
S1606 N1608 1.610 . S
N1607 S1606 1.613 . S
N1607 C1610 1.350 . S
N1608 S1606 1.610 . S
N1608 C1609 1.351 . S
C1609 C1603 1.428 . S
C1609 N1608 1.351 . S
C1609 C1610 1.434 . S
C1610 C1601 1.429 . S
C1610 N1607 1.350 . S
C1610 C1609 1.434 . S
C1611 C1612 1.369 . S
C1611 C1613 1.419 . S
C1611 H1615 0.930 . S
C1612 C1611 1.369 . S
C1612 C1621 1.429 . S
C1613 C1611 1.419 . S
C1613 C1614 1.363 . S
C1613 H1616 0.929 . S
C1614 C1613 1.363 . S
C1614 C1620 1.428 . S
H1615 C1611 0.930 . S
H1616 C1613 0.929 . S
S1617 N1618 1.613 . S
S1617 N1619 1.610 . S
N1618 S1617 1.613 . S
N1618 C1621 1.350 . S
N1619 S1617 1.610 . S
N1619 C1620 1.351 . S
C1620 C1614 1.428 . S
C1620 N1619 1.351 . S
C1620 C1621 1.434 . S
C1621 C1612 1.429 . S
C1621 N1618 1.350 . S
C1621 C1620 1.434 . S
C1622 C1623 1.369 . S
C1622 C1624 1.419 . S
C1622 H1626 0.930 . S
C1623 C1622 1.369 . S
C1623 C1632 1.429 . S
C1624 C1622 1.419 . S
C1624 C1625 1.363 . S
C1624 H1627 0.929 . S
C1625 C1624 1.363 . S
C1625 C1631 1.428 . S
H1626 C1622 0.930 . S
H1627 C1624 0.929 . S
S1628 N1629 1.613 . S
S1628 N1630 1.610 . S
N1629 S1628 1.613 . S
N1629 C1632 1.350 . S
N1630 S1628 1.610 . S
N1630 C1631 1.351 . S
C1631 C1625 1.428 . S
C1631 N1630 1.351 . S
C1631 C1632 1.434 . S
C1632 C1623 1.429 . S
C1632 N1629 1.350 . S
C1632 C1631 1.434 . S
C1633 C1634 1.369 . S
C1633 C1635 1.419 . S
C1633 H1637 0.930 . S
C1634 C1633 1.369 . S
C1634 C1643 1.429 . S
C1635 C1633 1.419 . S
C1635 C1636 1.363 . S
C1635 H1638 0.929 . S
C1636 C1635 1.363 . S
C1636 C1642 1.428 . S
H1637 C1633 0.930 . S
H1638 C1635 0.929 . S
S1639 N1640 1.613 . S
S1639 N1641 1.610 . S
N1640 S1639 1.613 . S
N1640 C1643 1.350 . S
N1641 S1639 1.610 . S
N1641 C1642 1.351 . S
C1642 C1636 1.428 . S
C1642 N1641 1.351 . S
C1642 C1643 1.434 . S
C1643 C1634 1.429 . S
C1643 N1640 1.350 . S
C1643 C1642 1.434 . S
C1644 C1645 1.369 . S
C1644 C1646 1.419 . S
C1644 H1648 0.930 . S
C1645 C1644 1.369 . S
C1645 C1654 1.429 . S
C1646 C1644 1.419 . S
C1646 C1647 1.363 . S
C1646 H1649 0.929 . S
C1647 C1646 1.363 . S
C1647 C1653 1.428 . S
H1648 C1644 0.930 . S
H1649 C1646 0.929 . S
S1650 N1651 1.613 . S
S1650 N1652 1.610 . S
N1651 S1650 1.613 . S
N1651 C1654 1.350 . S
N1652 S1650 1.610 . S
N1652 C1653 1.351 . S
C1653 C1647 1.428 . S
C1653 N1652 1.351 . S
C1653 C1654 1.434 . S
C1654 C1645 1.429 . S
C1654 N1651 1.350 . S
C1654 C1653 1.434 . S
C1655 C1656 1.369 . S
C1655 C1657 1.419 . S
C1655 H1659 0.930 . S
C1656 C1655 1.369 . S
C1656 C1665 1.429 . S
C1657 C1655 1.419 . S
C1657 C1658 1.363 . S
C1657 H1660 0.929 . S
C1658 C1657 1.363 . S
C1658 C1664 1.428 . S
H1659 C1655 0.930 . S
H1660 C1657 0.929 . S
S1661 N1662 1.613 . S
S1661 N1663 1.610 . S
N1662 S1661 1.613 . S
N1662 C1665 1.350 . S
N1663 S1661 1.610 . S
N1663 C1664 1.351 . S
C1664 C1658 1.428 . S
C1664 N1663 1.351 . S
C1664 C1665 1.434 . S
C1665 C1656 1.429 . S
C1665 N1662 1.350 . S
C1665 C1664 1.434 . S
C1666 C1667 1.369 . S
C1666 C1668 1.419 . S
C1666 H1670 0.930 . S
C1667 C1666 1.369 . S
C1667 C1676 1.429 . S
C1668 C1666 1.419 . S
C1668 C1669 1.363 . S
C1668 H1671 0.929 . S
C1669 C1668 1.363 . S
C1669 C1675 1.428 . S
H1670 C1666 0.930 . S
H1671 C1668 0.929 . S
S1672 N1673 1.613 . S
S1672 N1674 1.610 . S
N1673 S1672 1.613 . S
N1673 C1676 1.350 . S
N1674 S1672 1.610 . S
N1674 C1675 1.351 . S
C1675 C1669 1.428 . S
C1675 N1674 1.351 . S
C1675 C1676 1.434 . S
C1676 C1667 1.429 . S
C1676 N1673 1.350 . S
C1676 C1675 1.434 . S
C1677 C1678 1.369 1_655 S
C1677 C1679 1.419 . S
C1677 H1681 0.930 . S
C1678 C1677 1.369 1_455 S
C1678 C1687 1.429 . S
C1679 C1677 1.419 . S
C1679 C1680 1.363 1_655 S
C1679 H1682 0.929 . S
C1680 C1679 1.363 1_455 S
C1680 C1686 1.428 . S
H1681 C1677 0.930 . S
H1682 C1679 0.929 . S
S1683 N1684 1.613 . S
S1683 N1685 1.610 . S
N1684 S1683 1.613 . S
N1684 C1687 1.350 . S
N1685 S1683 1.610 . S
N1685 C1686 1.351 . S
C1686 C1680 1.428 . S
C1686 N1685 1.351 . S
C1686 C1687 1.434 . S
C1687 C1678 1.429 . S
C1687 N1684 1.350 . S
C1687 C1686 1.434 . S
C1688 C1689 1.369 . S
C1688 C1690 1.419 . S
C1688 H1692 0.930 . S
C1689 C1688 1.369 . S
C1689 C1698 1.429 . S
C1690 C1688 1.419 . S
C1690 C1691 1.363 . S
C1690 H1693 0.929 . S
C1691 C1690 1.363 . S
C1691 C1697 1.428 . S
H1692 C1688 0.930 . S
H1693 C1690 0.929 . S
S1694 N1695 1.613 . S
S1694 N1696 1.610 . S
N1695 S1694 1.613 . S
N1695 C1698 1.350 . S
N1696 S1694 1.610 . S
N1696 C1697 1.351 . S
C1697 C1691 1.428 . S
C1697 N1696 1.351 . S
C1697 C1698 1.434 . S
C1698 C1689 1.429 . S
C1698 N1695 1.350 . S
C1698 C1697 1.434 . S
C1699 C1700 1.369 1_545 S
C1699 C1701 1.419 . S
C1699 H1703 0.930 . S
C1700 C1699 1.369 1_565 S
C1700 C1709 1.429 . S
C1701 C1699 1.419 . S
C1701 C1702 1.363 1_545 S
C1701 H1704 0.929 . S
C1702 C1701 1.363 1_565 S
C1702 C1708 1.428 . S
H1703 C1699 0.930 . S
H1704 C1701 0.929 . S
S1705 N1706 1.613 . S
S1705 N1707 1.610 . S
N1706 S1705 1.613 . S
N1706 C1709 1.350 . S
N1707 S1705 1.610 . S
N1707 C1708 1.351 . S
C1708 C1702 1.428 . S
C1708 N1707 1.351 . S
C1708 C1709 1.434 . S
C1709 C1700 1.429 . S
C1709 N1706 1.350 . S
C1709 C1708 1.434 . S
C1710 C1711 1.369 1_545 S
C1710 C1712 1.419 . S
C1710 H1714 0.930 . S
C1711 C1710 1.369 1_565 S
C1711 C1720 1.429 . S
C1712 C1710 1.419 . S
C1712 C1713 1.363 1_545 S
C1712 H1715 0.929 . S
C1713 C1712 1.363 1_565 S
C1713 C1719 1.428 . S
H1714 C1710 0.930 . S
H1715 C1712 0.929 . S
S1716 N1717 1.613 . S
S1716 N1718 1.610 . S
N1717 S1716 1.613 . S
N1717 C1720 1.350 . S
N1718 S1716 1.610 . S
N1718 C1719 1.351 . S
C1719 C1713 1.428 . S
C1719 N1718 1.351 . S
C1719 C1720 1.434 . S
C1720 C1711 1.429 . S
C1720 N1717 1.350 . S
C1720 C1719 1.434 . S
C1721 C1722 1.369 1_655 S
C1721 C1723 1.419 . S
C1721 H1725 0.930 . S
C1722 C1721 1.369 1_455 S
C1722 C1731 1.429 . S
C1723 C1721 1.419 . S
C1723 C1724 1.363 1_655 S
C1723 H1726 0.929 . S
C1724 C1723 1.363 1_455 S
C1724 C1730 1.428 . S
H1725 C1721 0.930 . S
H1726 C1723 0.929 . S
S1727 N1728 1.613 . S
S1727 N1729 1.610 . S
N1728 S1727 1.613 . S
N1728 C1731 1.350 . S
N1729 S1727 1.610 . S
N1729 C1730 1.351 . S
C1730 C1724 1.428 . S
C1730 N1729 1.351 . S
C1730 C1731 1.434 . S
C1731 C1722 1.429 . S
C1731 N1728 1.350 . S
C1731 C1730 1.434 . S
C1732 C1733 1.369 . S
C1732 C1734 1.419 . S
C1732 H1736 0.930 . S
C1733 C1732 1.369 . S
C1733 C1742 1.429 . S
C1734 C1732 1.419 . S
C1734 C1735 1.363 . S
C1734 H1737 0.929 . S
C1735 C1734 1.363 . S
C1735 C1741 1.428 . S
H1736 C1732 0.930 . S
H1737 C1734 0.929 . S
S1738 N1739 1.613 . S
S1738 N1740 1.610 . S
N1739 S1738 1.613 . S
N1739 C1742 1.350 . S
N1740 S1738 1.610 . S
N1740 C1741 1.351 . S
C1741 C1735 1.428 . S
C1741 N1740 1.351 . S
C1741 C1742 1.434 . S
C1742 C1733 1.429 . S
C1742 N1739 1.350 . S
C1742 C1741 1.434 . S
C1743 C1744 1.369 . S
C1743 C1745 1.419 . S
C1743 H1747 0.930 . S
C1744 C1743 1.369 . S
C1744 C1753 1.429 . S
C1745 C1743 1.419 . S
C1745 C1746 1.363 . S
C1745 H1748 0.929 . S
C1746 C1745 1.363 . S
C1746 C1752 1.428 . S
H1747 C1743 0.930 . S
H1748 C1745 0.929 . S
S1749 N1750 1.613 . S
S1749 N1751 1.610 . S
N1750 S1749 1.613 . S
N1750 C1753 1.350 . S
N1751 S1749 1.610 . S
N1751 C1752 1.351 . S
C1752 C1746 1.428 . S
C1752 N1751 1.351 . S
C1752 C1753 1.434 . S
C1753 C1744 1.429 . S
C1753 N1750 1.350 . S
C1753 C1752 1.434 . S
C1754 C1755 1.369 . S
C1754 C1756 1.419 . S
C1754 H1758 0.930 . S
C1755 C1754 1.369 . S
C1755 C1764 1.429 . S
C1756 C1754 1.419 . S
C1756 C1757 1.363 . S
C1756 H1759 0.929 . S
C1757 C1756 1.363 . S
C1757 C1763 1.428 . S
H1758 C1754 0.930 . S
H1759 C1756 0.929 . S
S1760 N1761 1.613 . S
S1760 N1762 1.610 . S
N1761 S1760 1.613 . S
N1761 C1764 1.350 . S
N1762 S1760 1.610 . S
N1762 C1763 1.351 . S
C1763 C1757 1.428 . S
C1763 N1762 1.351 . S
C1763 C1764 1.434 . S
C1764 C1755 1.429 . S
C1764 N1761 1.350 . S
C1764 C1763 1.434 . S
C1765 C1766 1.369 . S
C1765 C1767 1.419 . S
C1765 H1769 0.930 . S
C1766 C1765 1.369 . S
C1766 C1775 1.429 . S
C1767 C1765 1.419 . S
C1767 C1768 1.363 . S
C1767 H1770 0.929 . S
C1768 C1767 1.363 . S
C1768 C1774 1.428 . S
H1769 C1765 0.930 . S
H1770 C1767 0.929 . S
S1771 N1772 1.613 . S
S1771 N1773 1.610 . S
N1772 S1771 1.613 . S
N1772 C1775 1.350 . S
N1773 S1771 1.610 . S
N1773 C1774 1.351 . S
C1774 C1768 1.428 . S
C1774 N1773 1.351 . S
C1774 C1775 1.434 . S
C1775 C1766 1.429 . S
C1775 N1772 1.350 . S
C1775 C1774 1.434 . S
C1776 C1777 1.369 1_565 S
C1776 C1778 1.419 . S
C1776 H1780 0.930 . S
C1777 C1776 1.369 1_545 S
C1777 C1786 1.429 . S
C1778 C1776 1.419 . S
C1778 C1779 1.363 1_565 S
C1778 H1781 0.929 . S
C1779 C1778 1.363 1_545 S
C1779 C1785 1.428 . S
H1780 C1776 0.930 . S
H1781 C1778 0.929 . S
S1782 N1783 1.613 . S
S1782 N1784 1.610 . S
N1783 S1782 1.613 . S
N1783 C1786 1.350 . S
N1784 S1782 1.610 . S
N1784 C1785 1.351 . S
C1785 C1779 1.428 . S
C1785 N1784 1.351 . S
C1785 C1786 1.434 . S
C1786 C1777 1.429 . S
C1786 N1783 1.350 . S
C1786 C1785 1.434 . S
C1787 C1788 1.369 . S
C1787 C1789 1.419 . S
C1787 H1791 0.930 . S
C1788 C1787 1.369 . S
C1788 C1797 1.429 1_655 S
C1789 C1787 1.419 . S
C1789 C1790 1.363 . S
C1789 H1792 0.929 . S
C1790 C1789 1.363 . S
C1790 C1796 1.428 1_655 S
H1791 C1787 0.930 . S
H1792 C1789 0.929 . S
S1793 N1794 1.613 . S
S1793 N1795 1.610 . S
N1794 S1793 1.613 . S
N1794 C1797 1.350 . S
N1795 S1793 1.610 . S
N1795 C1796 1.351 . S
C1796 C1790 1.428 1_455 S
C1796 N1795 1.351 . S
C1796 C1797 1.434 . S
C1797 C1788 1.429 1_455 S
C1797 N1794 1.350 . S
C1797 C1796 1.434 . S
C1798 C1799 1.369 . S
C1798 C1800 1.419 . S
C1798 H1802 0.930 . S
C1799 C1798 1.369 . S
C1799 C1808 1.429 . S
C1800 C1798 1.419 . S
C1800 C1801 1.363 . S
C1800 H1803 0.929 . S
C1801 C1800 1.363 . S
C1801 C1807 1.428 . S
H1802 C1798 0.930 . S
H1803 C1800 0.929 . S
S1804 N1805 1.613 . S
S1804 N1806 1.610 . S
N1805 S1804 1.613 . S
N1805 C1808 1.350 . S
N1806 S1804 1.610 . S
N1806 C1807 1.351 . S
C1807 C1801 1.428 . S
C1807 N1806 1.351 . S
C1807 C1808 1.434 . S
C1808 C1799 1.429 . S
C1808 N1805 1.350 . S
C1808 C1807 1.434 . S
C1809 C1810 1.369 . S
C1809 C1811 1.419 . S
C1809 H1813 0.930 . S
C1810 C1809 1.369 . S
C1810 C1819 1.429 . S
C1811 C1809 1.419 . S
C1811 C1812 1.363 . S
C1811 H1814 0.929 . S
C1812 C1811 1.363 . S
C1812 C1818 1.428 . S
H1813 C1809 0.930 . S
H1814 C1811 0.929 . S
S1815 N1816 1.613 . S
S1815 N1817 1.610 . S
N1816 S1815 1.613 . S
N1816 C1819 1.350 . S
N1817 S1815 1.610 . S
N1817 C1818 1.351 . S
C1818 C1812 1.428 . S
C1818 N1817 1.351 . S
C1818 C1819 1.434 . S
C1819 C1810 1.429 . S
C1819 N1816 1.350 . S
C1819 C1818 1.434 . S
C1820 C1821 1.369 . S
C1820 C1822 1.419 . S
C1820 H1824 0.930 . S
C1821 C1820 1.369 . S
C1821 C1830 1.429 . S
C1822 C1820 1.419 . S
C1822 C1823 1.363 . S
C1822 H1825 0.929 . S
C1823 C1822 1.363 . S
C1823 C1829 1.428 . S
H1824 C1820 0.930 . S
H1825 C1822 0.929 . S
S1826 N1827 1.613 . S
S1826 N1828 1.610 . S
N1827 S1826 1.613 . S
N1827 C1830 1.350 . S
N1828 S1826 1.610 . S
N1828 C1829 1.351 . S
C1829 C1823 1.428 . S
C1829 N1828 1.351 . S
C1829 C1830 1.434 . S
C1830 C1821 1.429 . S
C1830 N1827 1.350 . S
C1830 C1829 1.434 . S
C1831 C1832 1.369 . S
C1831 C1833 1.419 . S
C1831 H1835 0.930 . S
C1832 C1831 1.369 . S
C1832 C1841 1.429 . S
C1833 C1831 1.419 . S
C1833 C1834 1.363 . S
C1833 H1836 0.929 . S
C1834 C1833 1.363 . S
C1834 C1840 1.428 . S
H1835 C1831 0.930 . S
H1836 C1833 0.929 . S
S1837 N1838 1.613 . S
S1837 N1839 1.610 . S
N1838 S1837 1.613 . S
N1838 C1841 1.350 . S
N1839 S1837 1.610 . S
N1839 C1840 1.351 . S
C1840 C1834 1.428 . S
C1840 N1839 1.351 . S
C1840 C1841 1.434 . S
C1841 C1832 1.429 . S
C1841 N1838 1.350 . S
C1841 C1840 1.434 . S
C1842 C1843 1.369 . S
C1842 C1844 1.419 . S
C1842 H1846 0.930 . S
C1843 C1842 1.369 . S
C1843 C1852 1.429 . S
C1844 C1842 1.419 . S
C1844 C1845 1.363 . S
C1844 H1847 0.929 . S
C1845 C1844 1.363 . S
C1845 C1851 1.428 . S
H1846 C1842 0.930 . S
H1847 C1844 0.929 . S
S1848 N1849 1.613 . S
S1848 N1850 1.610 . S
N1849 S1848 1.613 . S
N1849 C1852 1.350 . S
N1850 S1848 1.610 . S
N1850 C1851 1.351 . S
C1851 C1845 1.428 . S
C1851 N1850 1.351 . S
C1851 C1852 1.434 . S
C1852 C1843 1.429 . S
C1852 N1849 1.350 . S
C1852 C1851 1.434 . S
C1853 C1854 1.369 . S
C1853 C1855 1.419 . S
C1853 H1857 0.930 . S
C1854 C1853 1.369 . S
C1854 C1863 1.429 . S
C1855 C1853 1.419 . S
C1855 C1856 1.363 . S
C1855 H1858 0.929 . S
C1856 C1855 1.363 . S
C1856 C1862 1.428 . S
H1857 C1853 0.930 . S
H1858 C1855 0.929 . S
S1859 N1860 1.613 . S
S1859 N1861 1.610 . S
N1860 S1859 1.613 . S
N1860 C1863 1.350 . S
N1861 S1859 1.610 . S
N1861 C1862 1.351 . S
C1862 C1856 1.428 . S
C1862 N1861 1.351 . S
C1862 C1863 1.434 . S
C1863 C1854 1.429 . S
C1863 N1860 1.350 . S
C1863 C1862 1.434 . S
C1864 C1865 1.369 . S
C1864 C1866 1.419 . S
C1864 H1868 0.930 . S
C1865 C1864 1.369 . S
C1865 C1874 1.429 . S
C1866 C1864 1.419 . S
C1866 C1867 1.363 . S
C1866 H1869 0.929 . S
C1867 C1866 1.363 . S
C1867 C1873 1.428 . S
H1868 C1864 0.930 . S
H1869 C1866 0.929 . S
S1870 N1871 1.613 . S
S1870 N1872 1.610 . S
N1871 S1870 1.613 . S
N1871 C1874 1.350 . S
N1872 S1870 1.610 . S
N1872 C1873 1.351 . S
C1873 C1867 1.428 . S
C1873 N1872 1.351 . S
C1873 C1874 1.434 . S
C1874 C1865 1.429 . S
C1874 N1871 1.350 . S
C1874 C1873 1.434 . S
C1875 C1876 1.369 1_455 S
C1875 C1877 1.419 . S
C1875 H1879 0.930 . S
C1876 C1875 1.369 1_655 S
C1876 C1885 1.429 . S
C1877 C1875 1.419 . S
C1877 C1878 1.363 1_455 S
C1877 H1880 0.929 . S
C1878 C1877 1.363 1_655 S
C1878 C1884 1.428 . S
H1879 C1875 0.930 . S
H1880 C1877 0.929 . S
S1881 N1882 1.613 . S
S1881 N1883 1.610 . S
N1882 S1881 1.613 . S
N1882 C1885 1.350 . S
N1883 S1881 1.610 . S
N1883 C1884 1.351 . S
C1884 C1878 1.428 . S
C1884 N1883 1.351 . S
C1884 C1885 1.434 . S
C1885 C1876 1.429 . S
C1885 N1882 1.350 . S
C1885 C1884 1.434 . S
C1886 C1887 1.369 . S
C1886 C1888 1.419 . S
C1886 H1890 0.930 . S
C1887 C1886 1.369 . S
C1887 C1896 1.429 . S
C1888 C1886 1.419 . S
C1888 C1889 1.363 . S
C1888 H1891 0.929 . S
C1889 C1888 1.363 . S
C1889 C1895 1.428 . S
H1890 C1886 0.930 . S
H1891 C1888 0.929 . S
S1892 N1893 1.613 . S
S1892 N1894 1.610 . S
N1893 S1892 1.613 . S
N1893 C1896 1.350 . S
N1894 S1892 1.610 . S
N1894 C1895 1.351 . S
C1895 C1889 1.428 . S
C1895 N1894 1.351 . S
C1895 C1896 1.434 . S
C1896 C1887 1.429 . S
C1896 N1893 1.350 . S
C1896 C1895 1.434 . S
C1897 C1898 1.369 . S
C1897 C1899 1.419 . S
C1897 H1901 0.930 . S
C1898 C1897 1.369 . S
C1898 C1907 1.429 1_545 S
C1899 C1897 1.419 . S
C1899 C1900 1.363 . S
C1899 H1902 0.929 . S
C1900 C1899 1.363 . S
C1900 C1906 1.428 1_545 S
H1901 C1897 0.930 . S
H1902 C1899 0.929 . S
S1903 N1904 1.613 . S
S1903 N1905 1.610 . S
N1904 S1903 1.613 . S
N1904 C1907 1.350 . S
N1905 S1903 1.610 . S
N1905 C1906 1.351 . S
C1906 C1900 1.428 1_565 S
C1906 N1905 1.351 . S
C1906 C1907 1.434 . S
C1907 C1898 1.429 1_565 S
C1907 N1904 1.350 . S
C1907 C1906 1.434 . S
C1117 C8 1.464 1_655 S
C1119 C729 1.511 . S
C1128 C22 1.567 . S
C1130 C777 1.569 . S
C1141 C825 1.517 . S
C1139 C37 1.502 1_545 S
C1150 C36 1.465 1_565 S
C1152 C849 1.514 . S
C1161 C9 1.497 1_455 S
C1163 C921 1.516 . S
C1172 C23 1.566 . S
C1174 C969 1.568 . S
C1183 C50 1.490 1_455 S
C1185 C897 1.510 . S
C1196 C945 1.571 . S
C1194 C64 1.570 . S
C1207 C873 1.507 . S
C1205 C79 1.499 1_565 S
C1216 C78 1.491 1_545 S
C1218 C801 1.509 . S
C1229 C705 1.528 . S
C1227 C51 1.506 1_655 S
C1238 C65 1.567 . S
C1240 C753 1.570 . S
C1249 C92 1.594 . S
C1251 C1017 1.597 . S
C1260 C106 1.606 . S
C1262 C1065 1.605 . S
C1273 C1089 1.578 . S
C1271 C121 1.590 . S
C1282 C120 1.560 . S
C1284 C273 1.550 . S
C1293 C93 1.572 . S
C1295 C345 1.576 . S
C1304 C107 1.585 . S
C1306 C393 1.583 . S
C1315 C134 1.556 . S
C1317 C321 1.558 . S
C1326 C148 1.586 . S
C1328 C369 1.584 . S
C1339 C297 1.546 . S
C1337 C163 1.574 . S
C1350 C1113 1.565 . S
C1348 C162 1.596 . S
C1361 C993 1.586 . S
C1359 C135 1.588 . S
C1372 C1041 1.607 . S
C1370 C149 1.611 . S
C1381 C176 1.559 . S
C1383 C441 1.561 . S
C1392 C190 1.585 . S
C1394 C489 1.583 . S
C1403 C205 1.576 . S
C1405 C513 1.566 . S
C1414 C204 1.597 . S
C1416 C561 1.585 . S
C1427 C633 1.583 . S
C1425 C177 1.584 . S
C1438 C681 1.604 . S
C1436 C191 1.607 . S
C1449 C609 1.598 . S
C1447 C218 1.597 . S
C1460 C657 1.607 . S
C1458 C232 1.611 . S
C1469 C247 1.583 . S
C1471 C585 1.552 . S
C1482 C537 1.526 . S
C1480 C246 1.554 . S
C1491 C219 1.577 . S
C1493 C417 1.579 . S
C1504 C465 1.584 . S
C1502 C233 1.585 . S
C1515 C282 1.541 . S
C1513 C6 1.522 . S
C1524 C20 1.499 . S
C1526 C336 1.506 . S
C1537 C384 1.532 . S
C1535 C35 1.533 . S
C1548 C432 1.531 . S
C1546 C34 1.529 . S
C1559 C480 1.528 . S
C1557 C7 1.531 . S
C1570 C522 1.519 . S
C1568 C21 1.498 . S
C1579 C48 1.532 . S
C1581 C528 1.548 . S
C1590 C62 1.499 . S
C1592 C426 1.494 . S
C1601 C77 1.528 . S
C1603 C474 1.511 . S
C1612 C76 1.524 . S
C1614 C330 1.523 . S
C1625 C378 1.518 . S
C1623 C49 1.531 . S
C1634 C63 1.500 . S
C1636 C288 1.513 . S
C1647 C570 1.536 . S
C1645 C90 1.515 . S
C1656 C104 1.534 . S
C1658 C624 1.548 . S
C1667 C119 1.545 . S
C1669 C672 1.553 . S
C1680 C720 1.499 . S
C1678 C118 1.457 . S
C1689 C91 1.520 . S
C1691 C768 1.526 . S
C1700 C105 1.458 . S
C1702 C816 1.499 . S
C1711 C132 1.456 . S
C1713 C810 1.490 . S
C1722 C146 1.460 . S
C1724 C714 1.498 . S
C1735 C762 1.514 . S
C1733 C161 1.513 . S
C1744 C160 1.517 . S
C1746 C618 1.516 . S
C1755 C133 1.536 . S
C1757 C666 1.541 . S
C1768 C576 1.556 . S
C1766 C147 1.538 . S
C1779 C858 1.498 . S
C1777 C174 1.451 . S
C1788 C188 1.463 . S
C1790 C912 1.499 . S
C1799 C203 1.522 . S
C1801 C960 1.529 . S
C1812 C1008 1.522 . S
C1810 C202 1.515 . S
C1823 C1056 1.550 . S
C1821 C175 1.538 . S
C1832 C189 1.530 . S
C1834 C1098 1.560 . S
C1843 C216 1.518 . S
C1845 C1104 1.533 . S
C1854 C230 1.536 . S
C1856 C1002 1.541 . S
C1867 C1050 1.537 . S
C1865 C245 1.537 . S
C1878 C906 1.491 . S
C1876 C244 1.448 . S
C1889 C954 1.518 . S
C1887 C217 1.519 . S
C1898 C231 1.466 . S
C1900 C864 1.504 . S
