# Generated by pormake.
# Topology pto, (3,4)-cn, num edge types: 1
# Building blocks:
#     Node 0, Type 0, BuildingBlock: PAMTOO_clean_linker_0, # of connection points: 3
#     Node 1, Type 0, BuildingBlock: PAMTOO_clean_linker_0, # of connection points: 3
#     Node 2, Type 0, BuildingBlock: PAMTOO_clean_linker_0, # of connection points: 3
#     Node 3, Type 0, BuildingBlock: PAMTOO_clean_linker_0, # of connection points: 3
#     Node 4, Type 0, BuildingBlock: PAMTOO_clean_linker_0, # of connection points: 3
#     Node 5, Type 0, BuildingBlock: PAMTOO_clean_linker_0, # of connection points: 3
#     Node 6, Type 0, BuildingBlock: PAMTOO_clean_linker_0, # of connection points: 3
#     Node 7, Type 0, BuildingBlock: PAMTOO_clean_linker_0, # of connection points: 3
#     Node 8, Type 1, BuildingBlock: NAWXER_clean_sbu_0, # of connection points: 4
#     Node 9, Type 1, BuildingBlock: NAWXER_clean_sbu_0, # of connection points: 4
#     Node 10, Type 1, BuildingBlock: NAWXER_clean_sbu_0, # of connection points: 4
#     Node 11, Type 1, BuildingBlock: NAWXER_clean_sbu_0, # of connection points: 4
#     Node 12, Type 1, BuildingBlock: NAWXER_clean_sbu_0, # of connection points: 4
#     Node 13, Type 1, BuildingBlock: NAWXER_clean_sbu_0, # of connection points: 4
#     Edge 14, Type (0, 1), BuildingBlock: TEMPAE_clean_linker_10, # of connection points: 2
#     Edge 15, Type (0, 1), BuildingBlock: TEMPAE_clean_linker_10, # of connection points: 2
#     Edge 16, Type (0, 1), BuildingBlock: TEMPAE_clean_linker_10, # of connection points: 2
#     Edge 17, Type (0, 1), BuildingBlock: TEMPAE_clean_linker_10, # of connection points: 2
#     Edge 18, Type (0, 1), BuildingBlock: TEMPAE_clean_linker_10, # of connection points: 2
#     Edge 19, Type (0, 1), BuildingBlock: TEMPAE_clean_linker_10, # of connection points: 2
#     Edge 20, Type (0, 1), BuildingBlock: TEMPAE_clean_linker_10, # of connection points: 2
#     Edge 21, Type (0, 1), BuildingBlock: TEMPAE_clean_linker_10, # of connection points: 2
#     Edge 22, Type (0, 1), BuildingBlock: TEMPAE_clean_linker_10, # of connection points: 2
#     Edge 23, Type (0, 1), BuildingBlock: TEMPAE_clean_linker_10, # of connection points: 2
#     Edge 24, Type (0, 1), BuildingBlock: TEMPAE_clean_linker_10, # of connection points: 2
#     Edge 25, Type (0, 1), BuildingBlock: TEMPAE_clean_linker_10, # of connection points: 2
#     Edge 26, Type (0, 1), BuildingBlock: TEMPAE_clean_linker_10, # of connection points: 2
#     Edge 27, Type (0, 1), BuildingBlock: TEMPAE_clean_linker_10, # of connection points: 2
#     Edge 28, Type (0, 1), BuildingBlock: TEMPAE_clean_linker_10, # of connection points: 2
#     Edge 29, Type (0, 1), BuildingBlock: TEMPAE_clean_linker_10, # of connection points: 2
#     Edge 30, Type (0, 1), BuildingBlock: TEMPAE_clean_linker_10, # of connection points: 2
#     Edge 31, Type (0, 1), BuildingBlock: TEMPAE_clean_linker_10, # of connection points: 2
#     Edge 32, Type (0, 1), BuildingBlock: TEMPAE_clean_linker_10, # of connection points: 2
#     Edge 33, Type (0, 1), BuildingBlock: TEMPAE_clean_linker_10, # of connection points: 2
#     Edge 34, Type (0, 1), BuildingBlock: TEMPAE_clean_linker_10, # of connection points: 2
#     Edge 35, Type (0, 1), BuildingBlock: TEMPAE_clean_linker_10, # of connection points: 2
#     Edge 36, Type (0, 1), BuildingBlock: TEMPAE_clean_linker_10, # of connection points: 2
#     Edge 37, Type (0, 1), BuildingBlock: TEMPAE_clean_linker_10, # of connection points: 2
# Relax obj value: 0.016
# Max RMSD: 0.152
# Mean RMSD: 0.065
data_MOF--net-pto--node1-NAWXER_clean_sbu_0--node2-PAMTOO_clean_linker_0--edge1-TEMPAE_clean_linker_10
_symmetry_space_group_name_H-M    P1
_symmetry_Int_Tables_number       1
_symmetry_cell_setting            triclinic
loop_
_symmetry_equiv_pos_as_xyz
'x, y, z'
_cell_length_a     44.004681
_cell_length_b     39.63838
_cell_length_c     38.386316
_cell_angle_alpha  81.956199
_cell_angle_beta   83.774412
_cell_angle_gamma 99.909763
loop_
_atom_site_label
_atom_site_type_symbol
_atom_site_fract_x
_atom_site_fract_y
_atom_site_fract_z
_atom_type_partial_charge
H0 H 0.17198 0.29413 0.39733 0.0
H1 H 0.24232 0.25315 0.33822 0.0
H2 H 0.21677 0.34815 0.29446 0.0
H3 H 0.23493 0.30134 0.23922 0.0
C4 C 0.24947 0.28754 0.25604 0.0
O5 O 0.25392 0.30404 0.28497 0.0
H6 H 0.23711 0.2602 0.26488 0.0
C7 C 0.18862 0.29583 0.37386 0.0
C8 C 0.19221 0.32413 0.34629 0.0
C9 C 0.20601 0.26949 0.37088 0.0
C10 C 0.2278 0.27244 0.34046 0.0
C11 C 0.23159 0.30063 0.313 0.0
C12 C 0.21348 0.32617 0.31566 0.0
H13 H 0.22175 0.76246 0.82926 0.0
H14 H 0.26953 0.70547 0.90248 0.0
H15 H 0.31295 0.8078 0.84954 0.0
H16 H 0.35144 0.75082 0.85212 0.0
C17 C 0.3427 0.73785 0.87992 0.0
O18 O 0.31959 0.7537 0.89383 0.0
H19 H 0.33303 0.71006 0.87966 0.0
C20 C 0.24172 0.76089 0.84323 0.0
C21 C 0.26696 0.78897 0.83686 0.0
C22 C 0.24227 0.73058 0.86684 0.0
C23 C 0.26855 0.72863 0.88426 0.0
C24 C 0.29399 0.75637 0.87786 0.0
C25 C 0.29306 0.7866 0.8545 0.0
H26 H 0.70823 0.7863 0.32473 0.0
H27 H 0.75235 0.70141 0.30265 0.0
H28 H 0.77993 0.75772 0.3848 0.0
H29 H 0.82921 0.75096 0.33017 0.0
C30 C 0.82128 0.72319 0.32793 0.0
O31 O 0.79239 0.7107 0.34769 0.0
H32 H 0.81959 0.72192 0.2994 0.0
C33 C 0.72424 0.76923 0.33131 0.0
C34 C 0.74314 0.77542 0.35799 0.0
C35 C 0.72681 0.74222 0.31159 0.0
C36 C 0.74941 0.72186 0.318 0.0
C37 C 0.76882 0.72816 0.34388 0.0
C38 C 0.76507 0.75405 0.3644 0.0
H39 H 0.75585 0.29577 0.87448 0.0
H40 H 0.70296 0.22011 0.82323 0.0
H41 H 0.80063 0.25328 0.78951 0.0
H42 H 0.76374 0.2528 0.73216 0.0
C43 C 0.74446 0.23059 0.7434 0.0
O44 O 0.74948 0.21632 0.77674 0.0
H45 H 0.72214 0.24026 0.74562 0.0
C46 C 0.75505 0.27804 0.8554 0.0
C47 C 0.78231 0.27712 0.83284 0.0
C48 C 0.72631 0.2573 0.85261 0.0
C49 C 0.72482 0.23611 0.82618 0.0
C50 C 0.75152 0.23538 0.80323 0.0
C51 C 0.78019 0.25507 0.80708 0.0
H52 H 0.78426 0.8386 0.78854 0.0
H53 H 0.80513 0.74463 0.84333 0.0
H54 H 0.85865 0.79351 0.74343 0.0
H55 H 0.84122 0.72023 0.75002 0.0
C56 C 0.84206 0.71194 0.77875 0.0
O57 O 0.8504 0.74067 0.79473 0.0
H58 H 0.81849 0.69783 0.7914 0.0
C59 C 0.79834 0.81867 0.79013 0.0
C60 C 0.82234 0.81963 0.76244 0.0
C61 C 0.7919 0.79186 0.81953 0.0
C62 C 0.80998 0.76583 0.82117 0.0
C63 C 0.83382 0.76642 0.79361 0.0
C64 C 0.84012 0.79337 0.76452 0.0
H65 H 0.84567 0.31869 0.28714 0.0
H66 H 0.75324 0.28372 0.26327 0.0
H67 H 0.80503 0.38356 0.21282 0.0
H68 H 0.74153 0.3862 0.23105 0.0
C69 C 0.73053 0.35839 0.23347 0.0
O70 O 0.75191 0.34032 0.21965 0.0
H71 H 0.723 0.34775 0.26214 0.0
C72 C 0.82661 0.32289 0.27242 0.0
C73 C 0.82902 0.3542 0.24904 0.0
C74 C 0.7995 0.29719 0.2776 0.0
C75 C 0.77453 0.30301 0.25915 0.0
C76 C 0.77651 0.33427 0.23616 0.0
C77 C 0.80379 0.35957 0.23081 0.0
H78 H 0.24438 0.31936 0.71892 0.0
H79 H 0.27237 0.38818 0.79209 0.0
H80 H 0.32577 0.31126 0.77061 0.0
H81 H 0.30362 0.3177 0.84638 0.0
C82 C 0.31121 0.34637 0.84329 0.0
O83 O 0.31951 0.36041 0.80782 0.0
H84 H 0.29131 0.35745 0.85418 0.0
C85 C 0.26052 0.32853 0.73646 0.0
C86 C 0.28582 0.31185 0.74217 0.0
C87 C 0.25546 0.3564 0.75404 0.0
C88 C 0.27625 0.3676 0.77728 0.0
C89 C 0.30122 0.35107 0.78336 0.0
C90 C 0.30619 0.32361 0.76561 0.0
H91 H 0.24935 0.82649 0.37901 0.0
H92 H 0.30186 0.7988 0.28914 0.0
H93 H 0.34549 0.87491 0.34612 0.0
H94 H 0.36716 0.89311 0.27173 0.0
C95 C 0.36031 0.86754 0.26314 0.0
O96 O 0.35308 0.8418 0.29253 0.0
H97 H 0.33958 0.86859 0.249 0.0
C98 C 0.27071 0.82964 0.36091 0.0
C99 C 0.29713 0.85322 0.3657 0.0
C100 C 0.27224 0.80915 0.33379 0.0
C101 C 0.30027 0.81364 0.31071 0.0
C102 C 0.32642 0.83746 0.31508 0.0
C103 C 0.32501 0.85668 0.34287 0.0
C104 C 0.00973 0.53032 0.2871 0.0
C105 C 0.0911 0.62135 0.31187 0.0
O106 O 0.01075 0.53074 0.32028 0.0
Zn107 Zn 0.037 0.55925 0.35407 0.0
O108 O 0.02921 0.55223 0.26438 0.0
Zn109 Zn 0.0508 0.57579 0.29849 0.0
O110 O 0.07376 0.53662 0.32242 0.0
O111 O 0.05463 0.52314 0.37929 0.0
O112 O 0.08449 0.61484 0.28177 0.0
O113 O 0.07535 0.60264 0.34022 0.0
O114 O 0.00471 0.57803 0.37914 0.0
O115 O 0.01494 0.59928 0.32197 0.0
C116 C 0.0729 0.51856 0.35309 0.0
C117 C 0.99922 0.59784 0.35247 0.0
C118 C 0.97989 0.44771 0.83672 0.0
C119 C 0.06663 0.53955 0.84488 0.0
O120 O 0.99191 0.45423 0.86419 0.0
Zn121 Zn 0.02396 0.4929 0.84097 0.0
O122 O 0.9916 0.46536 0.80622 0.0
Zn123 Zn 0.03002 0.50706 0.7851 0.0
O124 O 0.05784 0.48638 0.75561 0.0
O125 O 0.05689 0.46877 0.81279 0.0
O126 O 0.06153 0.53813 0.81276 0.0
O127 O 0.0498 0.51786 0.87009 0.0
O128 O 0.99807 0.53147 0.8208 0.0
O129 O 0.00908 0.54112 0.76236 0.0
C130 C 0.06778 0.46849 0.78048 0.0
C131 C 0.99456 0.5475 0.79045 0.0
C132 C 0.25345 0.99365 0.65428 0.0
C133 C 0.23342 0.07818 0.55777 0.0
O134 O 0.22715 0.99963 0.64705 0.0
Zn135 Zn 0.24228 0.03565 0.60635 0.0
O136 O 0.27842 0.01149 0.6355 0.0
Zn137 Zn 0.29129 0.05266 0.59097 0.0
O138 O 0.3134 0.09095 0.61051 0.0
O139 O 0.26305 0.07851 0.62959 0.0
O140 O 0.26236 0.07855 0.55967 0.0
O141 O 0.21303 0.05661 0.57979 0.0
O142 O 0.26314 0.0083 0.56857 0.0
O143 O 0.31315 0.03167 0.55573 0.0
C144 C 0.28992 0.09739 0.62898 0.0
C145 C 0.29001 0.00937 0.55128 0.0
C146 C 0.59539 0.74771 0.11265 0.0
C147 C 0.52141 0.75031 0.02635 0.0
O148 O 0.5772 0.72205 0.10498 0.0
Zn149 Zn 0.55935 0.74804 0.06844 0.0
O150 O 0.59615 0.77826 0.09588 0.0
Zn151 Zn 0.57401 0.80258 0.05468 0.0
O152 O 0.55397 0.83405 0.07882 0.0
O153 O 0.53393 0.77881 0.09862 0.0
O154 O 0.53738 0.78036 0.02735 0.0
O155 O 0.52701 0.72382 0.04553 0.0
O156 O 0.59777 0.76451 0.02639 0.0
O157 O 0.60822 0.82168 0.01742 0.0
C158 C 0.5341 0.81103 0.09991 0.0
C159 C 0.61423 0.79323 0.00959 0.0
C160 C 0.80186 0.99539 0.55615 0.0
C161 C 0.789 0.08373 0.45941 0.0
O162 O 0.77332 0.99733 0.55406 0.0
Zn163 Zn 0.74692 0.02642 0.52168 0.0
O164 O 0.82317 0.01538 0.53394 0.0
Zn165 Zn 0.79583 0.03917 0.50728 0.0
O166 O 0.77695 0.06779 0.54555 0.0
O167 O 0.72613 0.0488 0.55601 0.0
O168 O 0.81405 0.07495 0.46768 0.0
O169 O 0.76284 0.06776 0.47717 0.0
O170 O 0.72218 0.99012 0.50271 0.0
O171 O 0.77233 0.99862 0.48244 0.0
C172 C 0.75019 0.06877 0.56198 0.0
C173 C 0.74437 0.98232 0.48338 0.0
C174 C 0.54628 0.34043 0.09584 0.0
C175 C 0.47394 0.34211 0.00778 0.0
O176 O 0.53237 0.30999 0.09276 0.0
Zn177 Zn 0.49797 0.28705 0.06305 0.0
O178 O 0.53932 0.36685 0.07795 0.0
Zn179 Zn 0.5094 0.34217 0.05252 0.0
O180 O 0.47013 0.32103 0.0926 0.0
O181 O 0.46342 0.26399 0.09872 0.0
O182 O 0.49086 0.36811 0.01656 0.0
O183 O 0.47481 0.31144 0.02305 0.0
O184 O 0.52121 0.2594 0.03666 0.0
O185 O 0.5382 0.3158 0.02111 0.0
C186 C 0.45486 0.29101 0.10751 0.0
C187 C 0.54043 0.28457 0.01759 0.0
C188 C 0.17931 0.37276 0.37626 0.0
C189 C 0.17438 0.35208 0.34991 0.0
C190 C 0.16341 0.40029 0.3792 0.0
C191 C 0.14149 0.40657 0.3558 0.0
C192 C 0.13593 0.38508 0.32969 0.0
C193 C 0.15281 0.35836 0.32674 0.0
C194 C 0.1706 0.42314 0.40673 0.0
C195 C 0.11227 0.39041 0.30476 0.0
C196 C 0.08051 0.45991 0.37998 0.0
C197 C 0.09185 0.49124 0.35682 0.0
C198 C 0.09661 0.43217 0.38031 0.0
C199 C 0.12512 0.43631 0.35767 0.0
C200 C 0.13735 0.46854 0.33551 0.0
C201 C 0.12033 0.49542 0.33495 0.0
C202 C 0.08244 0.39797 0.4037 0.0
C203 C 0.16808 0.47438 0.31173 0.0
H204 H 0.1962 0.36786 0.394 0.0
H205 H 0.14899 0.34213 0.30651 0.0
H206 H 0.17968 0.45029 0.39345 0.0
H207 H 0.14906 0.42323 0.42459 0.0
H208 H 0.18805 0.41457 0.42309 0.0
H209 H 0.10933 0.37012 0.2875 0.0
H210 H 0.08936 0.3902 0.32015 0.0
H211 H 0.11956 0.41612 0.28759 0.0
H212 H 0.05832 0.45652 0.39663 0.0
H213 H 0.12921 0.51972 0.31716 0.0
H214 H 0.09929 0.38955 0.42096 0.0
H215 H 0.07691 0.3777 0.38691 0.0
H216 H 0.06077 0.39937 0.42075 0.0
H217 H 0.18645 0.46712 0.32732 0.0
H218 H 0.17562 0.5018 0.29849 0.0
H219 H 0.16612 0.45759 0.29095 0.0
C220 C 0.22179 0.66709 0.86969 0.0
C221 C 0.21601 0.70056 0.87147 0.0
C222 C 0.19733 0.6393 0.86934 0.0
C223 C 0.1664 0.64518 0.8708 0.0
C224 C 0.16028 0.6785 0.87454 0.0
C225 C 0.18517 0.70578 0.87482 0.0
C226 C 0.20479 0.60415 0.86537 0.0
C227 C 0.12763 0.68578 0.87637 0.0
C228 C 0.11044 0.58982 0.82368 0.0
C229 C 0.09214 0.5663 0.85202 0.0
C230 C 0.13471 0.6154 0.82954 0.0
C231 C 0.14095 0.61762 0.86464 0.0
C232 C 0.12269 0.59394 0.89342 0.0
C233 C 0.09847 0.56853 0.88678 0.0
C234 C 0.15363 0.64017 0.79809 0.0
C235 C 0.12871 0.59557 0.93118 0.0
H236 H 0.24559 0.66295 0.86683 0.0
H237 H 0.18056 0.7315 0.87679 0.0
H238 H 0.18927 0.58358 0.88516 0.0
H239 H 0.20067 0.59834 0.83863 0.0
H240 H 0.22937 0.60287 0.86862 0.0
H241 H 0.12645 0.71204 0.88281 0.0
H242 H 0.11908 0.68388 0.85043 0.0
H243 H 0.11159 0.6662 0.89667 0.0
H244 H 0.1058 0.58834 0.79672 0.0
H245 H 0.08448 0.55044 0.90883 0.0
H246 H 0.1786 0.63849 0.79722 0.0
H247 H 0.15168 0.66725 0.80081 0.0
H248 H 0.14598 0.63474 0.77246 0.0
H249 H 0.15303 0.59275 0.93393 0.0
H250 H 0.11267 0.57502 0.95057 0.0
H251 H 0.12599 0.62125 0.93807 0.0
C252 C 0.86801 0.7159 0.359 0.0
C253 C 0.84467 0.70207 0.34005 0.0
C254 C 0.89231 0.69836 0.36632 0.0
C255 C 0.8931 0.66619 0.35453 0.0
C256 C 0.86841 0.65109 0.33745 0.0
C257 C 0.84444 0.66926 0.33043 0.0
C258 C 0.91808 0.71526 0.38472 0.0
C259 C 0.86823 0.61672 0.32471 0.0
C260 C 0.97125 0.64301 0.32692 0.0
C261 C 0.97354 0.61754 0.3553 0.0
C262 C 0.94559 0.6596 0.32692 0.0
C263 C 0.92143 0.65046 0.35598 0.0
C264 C 0.92401 0.6256 0.38531 0.0
C265 C 0.95013 0.60946 0.38468 0.0
C266 C 0.94395 0.68622 0.29524 0.0
C267 C 0.89871 0.61521 0.41676 0.0
H268 H 0.86796 0.74114 0.36682 0.0
H269 H 0.82615 0.65849 0.3161 0.0
H270 H 0.92335 0.69633 0.4063 0.0
H271 H 0.93961 0.72422 0.36541 0.0
H272 H 0.9121 0.73793 0.39611 0.0
H273 H 0.8458 0.60676 0.31554 0.0
H274 H 0.88721 0.61974 0.30232 0.0
H275 H 0.87264 0.59708 0.34619 0.0
H276 H 0.98932 0.64963 0.3042 0.0
H277 H 0.95168 0.58971 0.40665 0.0
H278 H 0.94052 0.71098 0.30398 0.0
H279 H 0.92368 0.67697 0.28189 0.0
H280 H 0.96531 0.69148 0.27551 0.0
H281 H 0.8932 0.63854 0.4271 0.0
H282 H 0.90533 0.59763 0.43862 0.0
H283 H 0.87712 0.60179 0.40833 0.0
C284 C 0.81992 0.30852 0.86812 0.0
C285 C 0.81252 0.30008 0.83528 0.0
C286 C 0.84736 0.33172 0.8704 0.0
C287 C 0.86849 0.34604 0.83928 0.0
C288 C 0.86181 0.33675 0.80627 0.0
C289 C 0.83375 0.31442 0.80457 0.0
C290 C 0.85334 0.34157 0.906 0.0
C291 C 0.88404 0.35094 0.77254 0.0
C292 C 0.92355 0.43229 0.83307 0.0
C293 C 0.95132 0.42159 0.83975 0.0
C294 C 0.89615 0.40792 0.83411 0.0
C295 C 0.89691 0.37202 0.84083 0.0
C296 C 0.92507 0.36116 0.84765 0.0
C297 C 0.95195 0.38621 0.84751 0.0
C298 C 0.86648 0.4206 0.82759 0.0
C299 C 0.92703 0.3232 0.85392 0.0
H300 H 0.8042 0.29715 0.8922 0.0
H301 H 0.82825 0.30886 0.7789 0.0
H302 H 0.87591 0.33543 0.91258 0.0
H303 H 0.85499 0.36997 0.90484 0.0
H304 H 0.83471 0.32795 0.92775 0.0
H305 H 0.87678 0.33877 0.74964 0.0
H306 H 0.88541 0.37935 0.7659 0.0
H307 H 0.90781 0.34661 0.77629 0.0
H308 H 0.92332 0.4598 0.82708 0.0
H309 H 0.97368 0.37818 0.85231 0.0
H310 H 0.84756 0.40839 0.84953 0.0
H311 H 0.85893 0.41294 0.80272 0.0
H312 H 0.86934 0.44925 0.82534 0.0
H313 H 0.9095 0.30907 0.87648 0.0
H314 H 0.95045 0.31905 0.85962 0.0
H315 H 0.92164 0.31155 0.83012 0.0
C316 C 0.20226 0.24447 0.43522 0.0
C317 C 0.20241 0.23943 0.39978 0.0
C318 C 0.2026 0.21676 0.46221 0.0
C319 C 0.20297 0.18324 0.45351 0.0
C320 C 0.20114 0.17763 0.41812 0.0
C321 C 0.20099 0.20583 0.39166 0.0
C322 C 0.2047 0.22385 0.49959 0.0
C323 C 0.20126 0.14228 0.40778 0.0
C324 C 0.24835 0.12739 0.50745 0.0
C325 C 0.22472 0.10393 0.5306 0.0
C326 C 0.24143 0.1531 0.48236 0.0
C327 C 0.21 0.15552 0.48005 0.0
C328 C 0.18588 0.13174 0.50295 0.0
C329 C 0.19353 0.10618 0.52807 0.0
C330 C 0.26789 0.17792 0.45847 0.0
C331 C 0.15211 0.1335 0.50103 0.0
H332 H 0.20348 0.27042 0.4416 0.0
H333 H 0.20054 0.20174 0.36436 0.0
H334 H 0.18792 0.20407 0.51893 0.0
H335 H 0.22838 0.22223 0.50624 0.0
H336 H 0.20008 0.24999 0.5029 0.0
H337 H 0.19546 0.14122 0.38045 0.0
H338 H 0.22469 0.13575 0.40906 0.0
H339 H 0.1844 0.12207 0.42659 0.0
H340 H 0.27255 0.12595 0.50906 0.0
H341 H 0.17514 0.08819 0.54586 0.0
H342 H 0.26698 0.20499 0.46225 0.0
H343 H 0.26561 0.17624 0.43024 0.0
H344 H 0.29107 0.17251 0.46371 0.0
H345 H 0.1476 0.15898 0.5068 0.0
H346 H 0.13611 0.11263 0.52009 0.0
H347 H 0.14662 0.13138 0.4738 0.0
C348 C 0.36364 0.73665 0.93901 0.0
C349 C 0.36921 0.73964 0.90192 0.0
C350 C 0.38825 0.7373 0.95952 0.0
C351 C 0.41905 0.74011 0.94262 0.0
C352 C 0.42464 0.742 0.9053 0.0
C353 C 0.39964 0.74168 0.88544 0.0
C354 C 0.38135 0.73539 0.99922 0.0
C355 C 0.45706 0.74457 0.88633 0.0
C356 C 0.48621 0.77728 0.9888 0.0
C357 C 0.49575 0.74725 0.0042 0.0
C358 C 0.46126 0.77525 0.96886 0.0
C359 C 0.44557 0.74239 0.96378 0.0
C360 C 0.45526 0.71195 0.97888 0.0
C361 C 0.48014 0.71472 0.9991 0.0
C362 C 0.4515 0.80831 0.95349 0.0
C363 C 0.4393 0.67647 0.97371 0.0
H364 H 0.34002 0.73402 0.95198 0.0
H365 H 0.40387 0.74304 0.85688 0.0
H366 H 0.38964 0.71293 0.0131 0.0
H367 H 0.39406 0.75911 0.0073 0.0
H368 H 0.3561 0.73284 0.00833 0.0
H369 H 0.45732 0.74449 0.85738 0.0
H370 H 0.47222 0.7688 0.89021 0.0
H371 H 0.46739 0.72257 0.89772 0.0
H372 H 0.49796 0.80255 0.99274 0.0
H373 H 0.48737 0.69141 0.01086 0.0
H374 H 0.4268 0.80766 0.96371 0.0
H375 H 0.45326 0.81061 0.92418 0.0
H376 H 0.46599 0.83181 0.96009 0.0
H377 H 0.41432 0.67183 0.98478 0.0
H378 H 0.44995 0.65539 0.98667 0.0
H379 H 0.44044 0.67503 0.94495 0.0
C380 C 0.71251 0.81616 0.38463 0.0
C381 C 0.74097 0.80511 0.37774 0.0
C382 C 0.71062 0.84526 0.40127 0.0
C383 C 0.73751 0.86298 0.41272 0.0
C384 C 0.76605 0.85143 0.40696 0.0
C385 C 0.76759 0.8232 0.38894 0.0
C386 C 0.67994 0.85738 0.40608 0.0
C387 C 0.79512 0.86904 0.41965 0.0
C388 C 0.74672 0.95661 0.42794 0.0
C389 C 0.73889 0.95239 0.46477 0.0
C390 C 0.74472 0.92769 0.41037 0.0
C391 C 0.73606 0.89385 0.43045 0.0
C392 C 0.72785 0.88961 0.46775 0.0
C393 C 0.72887 0.91906 0.48441 0.0
C394 C 0.75263 0.93332 0.37047 0.0
C395 C 0.71963 0.85405 0.49026 0.0
H396 H 0.69156 0.80216 0.37697 0.0
H397 H 0.78992 0.81577 0.38319 0.0
H398 H 0.67203 0.85624 0.43472 0.0
H399 H 0.6829 0.88485 0.39327 0.0
H400 H 0.66145 0.84149 0.39457 0.0
H401 H 0.81482 0.85522 0.41557 0.0
H402 H 0.80237 0.896 0.40522 0.0
H403 H 0.79038 0.87055 0.44833 0.0
H404 H 0.75461 0.98255 0.41296 0.0
H405 H 0.72338 0.91602 0.51304 0.0
H406 H 0.73411 0.9179 0.35862 0.0
H407 H 0.77461 0.9243 0.36318 0.0
H408 H 0.75552 0.96107 0.35854 0.0
H409 H 0.70033 0.83766 0.48055 0.0
H410 H 0.71268 0.85522 0.5187 0.0
H411 H 0.74 0.84102 0.48812 0.0
C412 C 0.66938 0.25929 0.86363 0.0
C413 C 0.69782 0.25842 0.87679 0.0
C414 C 0.64257 0.26137 0.88602 0.0
C415 C 0.64425 0.26277 0.92242 0.0
C416 C 0.67273 0.26128 0.93601 0.0
C417 C 0.69914 0.25907 0.91305 0.0
C418 C 0.61264 0.26299 0.87053 0.0
C419 C 0.67548 0.26274 0.97467 0.0
C420 C 0.58735 0.30686 0.97221 0.0
C421 C 0.56606 0.27848 0.99221 0.0
C422 C 0.61262 0.30202 0.94917 0.0
C423 C 0.61679 0.26796 0.94588 0.0
C424 C 0.59517 0.23914 0.9655 0.0
C425 C 0.57005 0.24474 0.98849 0.0
C426 C 0.63516 0.33345 0.92873 0.0
C427 C 0.59883 0.20244 0.96253 0.0
H428 H 0.66824 0.25921 0.83558 0.0
H429 H 0.72091 0.25786 0.92351 0.0
H430 H 0.59346 0.24277 0.88593 0.0
H431 H 0.60601 0.28851 0.87238 0.0
H432 H 0.61467 0.25935 0.84226 0.0
H433 H 0.69892 0.25978 0.98135 0.0
H434 H 0.67082 0.28794 0.98119 0.0
H435 H 0.65782 0.24199 0.99179 0.0
H436 H 0.58452 0.33305 0.97482 0.0
H437 H 0.55373 0.22267 0.0038 0.0
H438 H 0.63675 0.33265 0.89983 0.0
H439 H 0.65878 0.33331 0.93627 0.0
H440 H 0.62823 0.3582 0.9337 0.0
H441 H 0.59975 0.19851 0.93441 0.0
H442 H 0.57951 0.18287 0.97871 0.0
H443 H 0.62114 0.19777 0.9714 0.0
C444 C 0.25751 0.8164 0.77734 0.0
C445 C 0.26608 0.82016 0.81091 0.0
C446 C 0.25551 0.84536 0.75274 0.0
C447 C 0.26192 0.87893 0.76206 0.0
C448 C 0.27066 0.88292 0.79593 0.0
C449 C 0.27287 0.85346 0.8199 0.0
C450 C 0.24664 0.84002 0.7167 0.0
C451 C 0.27739 0.91826 0.80694 0.0
C452 C 0.28416 0.95462 0.68595 0.0
C453 C 0.25565 0.96546 0.68316 0.0
C454 C 0.28662 0.92692 0.71189 0.0
C455 C 0.26002 0.9098 0.73596 0.0
C456 C 0.23134 0.92113 0.73392 0.0
C457 C 0.22943 0.9487 0.70738 0.0
C458 C 0.31753 0.91536 0.71288 0.0
C459 C 0.20254 0.90375 0.7594 0.0
H460 H 0.25258 0.79068 0.7702 0.0
H461 H 0.27925 0.85636 0.84596 0.0
H462 H 0.22515 0.85023 0.71253 0.0
H463 H 0.26533 0.85467 0.69555 0.0
H464 H 0.24262 0.81223 0.71353 0.0
H465 H 0.2835 0.9169 0.83437 0.0
H466 H 0.29693 0.93522 0.78845 0.0
H467 H 0.25676 0.93077 0.80542 0.0
H468 H 0.30454 0.96731 0.66731 0.0
H469 H 0.20737 0.95702 0.70552 0.0
H470 H 0.31523 0.8883 0.70754 0.0
H471 H 0.32475 0.91556 0.73966 0.0
H472 H 0.33624 0.93215 0.69304 0.0
H473 H 0.19574 0.87637 0.7556 0.0
H474 H 0.18255 0.91697 0.75569 0.0
H475 H 0.20741 0.90341 0.7872 0.0
C476 C 0.67518 0.73886 0.28903 0.0
C477 C 0.70678 0.73671 0.28325 0.0
C478 C 0.65659 0.73707 0.26162 0.0
C479 C 0.66986 0.73288 0.22759 0.0
C480 C 0.70135 0.72908 0.222 0.0
C481 C 0.71947 0.73111 0.24988 0.0
C482 C 0.62311 0.7412 0.26871 0.0
C483 C 0.71633 0.72449 0.18611 0.0
C484 C 0.61473 0.71027 0.16071 0.0
C485 C 0.61521 0.74312 0.14123 0.0
C486 C 0.63279 0.70632 0.18857 0.0
C487 C 0.65165 0.73593 0.19716 0.0
C488 C 0.65252 0.76903 0.17726 0.0
C489 C 0.63438 0.7722 0.14959 0.0
C490 C 0.6314 0.67061 0.20913 0.0
C491 C 0.67227 0.80129 0.18558 0.0
H492 H 0.66509 0.74257 0.31493 0.0
H493 H 0.74391 0.72969 0.24509 0.0
H494 H 0.62008 0.7659 0.25316 0.0
H495 H 0.60747 0.71984 0.26001 0.0
H496 H 0.61565 0.74144 0.29726 0.0
H497 H 0.7399 0.7182 0.18709 0.0
H498 H 0.70162 0.70353 0.17576 0.0
H499 H 0.71843 0.74876 0.16695 0.0
H500 H 0.60004 0.68765 0.15441 0.0
H501 H 0.635 0.79771 0.13472 0.0
H502 H 0.62198 0.66972 0.23731 0.0
H503 H 0.65518 0.66471 0.20874 0.0
H504 H 0.61659 0.65006 0.19825 0.0
H505 H 0.66462 0.80503 0.21305 0.0
H506 H 0.67088 0.825 0.16706 0.0
H507 H 0.69698 0.79838 0.18417 0.0
C508 C 0.75405 0.17348 0.72508 0.0
C509 C 0.74302 0.20461 0.71807 0.0
C510 C 0.75385 0.1506 0.70024 0.0
C511 C 0.74303 0.15942 0.66735 0.0
C512 C 0.732 0.19082 0.66012 0.0
C513 C 0.73214 0.21299 0.68559 0.0
C514 C 0.76567 0.11725 0.70894 0.0
C515 C 0.72069 0.20137 0.62518 0.0
C516 C 0.77316 0.11878 0.58992 0.0
C517 C 0.74778 0.09252 0.58828 0.0
C518 C 0.77177 0.14092 0.61529 0.0
C519 C 0.74446 0.13647 0.63992 0.0
C520 C 0.71869 0.11012 0.63835 0.0
C521 C 0.72058 0.08857 0.61239 0.0
C522 C 0.7996 0.16901 0.61579 0.0
C523 C 0.68929 0.10443 0.66439 0.0
H524 H 0.76304 0.16699 0.74983 0.0
H525 H 0.7241 0.2373 0.67995 0.0
H526 H 0.74782 0.09479 0.70592 0.0
H527 H 0.78668 0.11741 0.69008 0.0
H528 H 0.77172 0.11333 0.73639 0.0
H529 H 0.71208 0.2262 0.6241 0.0
H530 H 0.7399 0.2043 0.60308 0.0
H531 H 0.70165 0.18087 0.62063 0.0
H532 H 0.79421 0.12212 0.57127 0.0
H533 H 0.70093 0.06823 0.6114 0.0
H534 H 0.80855 0.16504 0.64169 0.0
H535 H 0.79265 0.19477 0.61283 0.0
H536 H 0.81881 0.16951 0.5943 0.0
H537 H 0.69471 0.09849 0.69189 0.0
H538 H 0.67132 0.08284 0.65959 0.0
H539 H 0.67941 0.12844 0.66263 0.0
C540 C 0.30467 0.27708 0.25293 0.0
C541 C 0.28054 0.28709 0.23532 0.0
C542 C 0.33366 0.27634 0.234 0.0
C543 C 0.33839 0.28513 0.19651 0.0
C544 C 0.31378 0.29432 0.17855 0.0
C545 C 0.28515 0.29518 0.19819 0.0
C546 C 0.35933 0.26656 0.25413 0.0
C547 C 0.31776 0.30348 0.13858 0.0
C548 C 0.41986 0.31785 0.1465 0.0
C549 C 0.42631 0.28838 0.13292 0.0
C550 C 0.39174 0.31683 0.16807 0.0
C551 C 0.36929 0.28567 0.176 0.0
C552 C 0.37594 0.25557 0.16313 0.0
C553 C 0.40445 0.25722 0.1419 0.0
C554 C 0.38574 0.34938 0.18165 0.0
C555 C 0.35251 0.22192 0.17081 0.0
H556 H 0.30089 0.27011 0.28161 0.0
H557 H 0.26632 0.30227 0.18449 0.0
H558 H 0.36739 0.24397 0.24471 0.0
H559 H 0.3796 0.28838 0.24903 0.0
H560 H 0.35177 0.25998 0.28322 0.0
H561 H 0.29604 0.30894 0.1286 0.0
H562 H 0.33645 0.3267 0.12962 0.0
H563 H 0.32501 0.2819 0.12627 0.0
H564 H 0.43668 0.34199 0.13988 0.0
H565 H 0.40918 0.23438 0.13139 0.0
H566 H 0.37937 0.34402 0.21092 0.0
H567 H 0.36581 0.35809 0.17011 0.0
H568 H 0.40629 0.3709 0.17483 0.0
H569 H 0.34531 0.21423 0.19984 0.0
H570 H 0.36181 0.20044 0.16034 0.0
H571 H 0.33131 0.22548 0.15862 0.0
C572 C 0.89747 0.70197 0.7771 0.0
C573 C 0.86543 0.6883 0.78207 0.0
C574 C 0.91936 0.68002 0.77846 0.0
C575 C 0.90896 0.64358 0.78407 0.0
C576 C 0.87665 0.62969 0.78844 0.0
C577 C 0.8553 0.65223 0.78731 0.0
C578 C 0.9536 0.69581 0.77381 0.0
C579 C 0.86464 0.591 0.79405 0.0
C580 C 0.96491 0.58605 0.75584 0.0
C581 C 0.97343 0.5729 0.78848 0.0
C582 C 0.94413 0.60927 0.75396 0.0
C583 C 0.93181 0.61987 0.78541 0.0
C584 C 0.94073 0.60715 0.81834 0.0
C585 C 0.96129 0.58371 0.8195 0.0
C586 C 0.93495 0.62204 0.71839 0.0
C587 C 0.92835 0.61809 0.85241 0.0
H588 H 0.90539 0.72987 0.77211 0.0
H589 H 0.83057 0.64165 0.7903 0.0
H590 H 0.96412 0.686 0.79727 0.0
H591 H 0.96582 0.68796 0.75031 0.0
H592 H 0.95783 0.72461 0.77031 0.0
H593 H 0.83883 0.5844 0.79677 0.0
H594 H 0.87443 0.57983 0.77138 0.0
H595 H 0.87237 0.57838 0.81832 0.0
H596 H 0.97411 0.57778 0.73176 0.0
H597 H 0.96786 0.57386 0.84482 0.0
H598 H 0.94045 0.65081 0.71272 0.0
H599 H 0.90945 0.61403 0.71892 0.0
H600 H 0.94702 0.61183 0.69634 0.0
H601 H 0.93362 0.64679 0.84995 0.0
H602 H 0.93841 0.60679 0.87564 0.0
H603 H 0.90266 0.60985 0.85759 0.0
C604 C 0.88695 0.3735 0.24313 0.0
C605 C 0.85716 0.38186 0.2456 0.0
C606 C 0.91339 0.3985 0.24453 0.0
C607 C 0.90993 0.43263 0.24865 0.0
C608 C 0.88016 0.44173 0.24903 0.0
C609 C 0.85413 0.41623 0.24748 0.0
C610 C 0.94473 0.3878 0.24378 0.0
C611 C 0.87545 0.4778 0.25351 0.0
C612 C 0.96489 0.4806 0.3025 0.0
C613 C 0.98521 0.50477 0.27626 0.0
C614 C 0.94061 0.45694 0.29368 0.0
C615 C 0.9364 0.45724 0.25763 0.0
C616 C 0.95702 0.48115 0.23085 0.0
C617 C 0.98124 0.50471 0.24048 0.0
C618 C 0.91919 0.43186 0.32312 0.0
C619 C 0.95325 0.48208 0.19214 0.0
H620 H 0.88948 0.3471 0.24106 0.0
H621 H 0.83116 0.42282 0.24963 0.0
H622 H 0.96263 0.4071 0.22525 0.0
H623 H 0.95208 0.38681 0.2706 0.0
H624 H 0.9442 0.36188 0.23571 0.0
H625 H 0.85179 0.4819 0.24879 0.0
H626 H 0.87873 0.48207 0.28093 0.0
H627 H 0.89293 0.49763 0.23504 0.0
H628 H 0.96774 0.48026 0.33023 0.0
H629 H 0.99681 0.52329 0.22006 0.0
H630 H 0.91943 0.40476 0.31895 0.0
H631 H 0.89492 0.43602 0.32279 0.0
H632 H 0.92588 0.43476 0.34978 0.0
H633 H 0.95358 0.4561 0.18463 0.0
H634 H 0.97185 0.50137 0.17446 0.0
H635 H 0.93036 0.48864 0.18749 0.0
C636 C 0.19813 0.3517 0.7508 0.0
C637 C 0.22749 0.37246 0.75036 0.0
C638 C 0.17107 0.36611 0.7517 0.0
C639 C 0.17337 0.40206 0.75251 0.0
C640 C 0.20306 0.42338 0.75036 0.0
C641 C 0.22972 0.40836 0.74913 0.0
C642 C 0.13989 0.34254 0.75363 0.0
C643 C 0.20657 0.46183 0.75117 0.0
C644 C 0.10548 0.44808 0.73779 0.0
C645 C 0.09317 0.4492 0.77282 0.0
C646 C 0.13105 0.43193 0.73065 0.0
C647 C 0.14476 0.41685 0.7592 0.0
C648 C 0.13196 0.41722 0.79457 0.0
C649 C 0.10631 0.43322 0.80093 0.0
C650 C 0.14383 0.43168 0.69259 0.0
C651 C 0.14595 0.40161 0.82581 0.0
H652 H 0.19607 0.3239 0.75208 0.0
H653 H 0.25236 0.42469 0.7481 0.0
H654 H 0.12668 0.33991 0.78049 0.0
H655 H 0.1259 0.35382 0.73429 0.0
H656 H 0.1423 0.31624 0.74827 0.0
H657 H 0.23134 0.47521 0.74653 0.0
H658 H 0.19408 0.4741 0.73078 0.0
H659 H 0.19595 0.466 0.77742 0.0
H660 H 0.09544 0.46026 0.7159 0.0
H661 H 0.09704 0.43391 0.8281 0.0
H662 H 0.14548 0.40485 0.68855 0.0
H663 H 0.16773 0.44744 0.68642 0.0
H664 H 0.12922 0.44225 0.67352 0.0
H665 H 0.14674 0.374 0.82445 0.0
H666 H 0.13265 0.40309 0.85168 0.0
H667 H 0.17028 0.41541 0.8249 0.0
C668 C 0.21493 0.7899 0.33227 0.0
C669 C 0.24506 0.78248 0.33 0.0
C670 C 0.18921 0.76474 0.32869 0.0
C671 C 0.19369 0.73129 0.32296 0.0
C672 C 0.22405 0.72366 0.32069 0.0
C673 C 0.24932 0.74933 0.32417 0.0
C674 C 0.15723 0.77392 0.33106 0.0
C675 C 0.22982 0.68824 0.31496 0.0
C676 C 0.1258 0.65492 0.34779 0.0
C677 C 0.11689 0.65006 0.31454 0.0
C678 C 0.15048 0.68147 0.35092 0.0
C679 C 0.16663 0.70392 0.32007 0.0
C680 C 0.15753 0.69949 0.28646 0.0
C681 C 0.13285 0.67256 0.28408 0.0
C682 C 0.15956 0.68517 0.38722 0.0
C683 C 0.17409 0.72301 0.25298 0.0
H684 H 0.21152 0.81555 0.33642 0.0
H685 H 0.27247 0.74324 0.3229 0.0
H686 H 0.14696 0.76992 0.30645 0.0
H687 H 0.14158 0.75655 0.35347 0.0
H688 H 0.15772 0.80124 0.33498 0.0
H689 H 0.25487 0.68662 0.31337 0.0
H690 H 0.21661 0.66824 0.33704 0.0
H691 H 0.22134 0.68179 0.29006 0.0
H692 H 0.11368 0.63771 0.37151 0.0
H693 H 0.12609 0.66912 0.25829 0.0
H694 H 0.1585 0.71169 0.39281 0.0
H695 H 0.18394 0.68155 0.388 0.0
H696 H 0.14425 0.66607 0.40866 0.0
H697 H 0.17357 0.75048 0.25538 0.0
H698 H 0.16349 0.71693 0.22906 0.0
H699 H 0.1989 0.7205 0.24906 0.0
C700 C 0.83017 0.83826 0.69646 0.0
C701 C 0.82732 0.84705 0.73066 0.0
C702 C 0.83047 0.86306 0.66641 0.0
C703 C 0.82788 0.8974 0.67071 0.0
C704 C 0.82698 0.9069 0.70497 0.0
C705 C 0.82668 0.88159 0.73453 0.0
C706 C 0.83147 0.8519 0.63034 0.0
C707 C 0.8244 0.94327 0.71069 0.0
C708 C 0.84009 0.96898 0.5903 0.0
C709 C 0.80925 0.96992 0.5846 0.0
C710 C 0.8467 0.94527 0.61802 0.0
C711 C 0.8219 0.92201 0.64037 0.0
C712 C 0.79082 0.92257 0.63437 0.0
C713 C 0.7849 0.94647 0.60667 0.0
C714 C 0.88012 0.94536 0.62368 0.0
C715 C 0.76366 0.89814 0.65751 0.0
H716 H 0.83049 0.81157 0.69331 0.0
H717 H 0.82503 0.88862 0.76087 0.0
H718 H 0.80829 0.85101 0.62125 0.0
H719 H 0.84854 0.87087 0.61053 0.0
H720 H 0.83766 0.82583 0.63082 0.0
H721 H 0.8277 0.9475 0.73814 0.0
H722 H 0.84188 0.96263 0.69171 0.0
H723 H 0.80104 0.94815 0.70572 0.0
H724 H 0.85903 0.98699 0.57337 0.0
H725 H 0.76099 0.9468 0.60243 0.0
H726 H 0.88554 0.91913 0.62299 0.0
H727 H 0.88373 0.95187 0.6503 0.0
H728 H 0.89678 0.96431 0.60332 0.0
H729 H 0.76626 0.87084 0.65711 0.0
H730 H 0.74093 0.90143 0.64882 0.0
H731 H 0.76327 0.90263 0.68543 0.0
C732 C 0.70653 0.35893 0.17646 0.0
C733 C 0.70268 0.35596 0.21357 0.0
C734 C 0.68077 0.35748 0.15772 0.0
C735 C 0.65051 0.35376 0.17648 0.0
C736 C 0.64662 0.35183 0.21385 0.0
C737 C 0.67277 0.35301 0.23193 0.0
C738 C 0.68587 0.35949 0.11788 0.0
C739 C 0.61481 0.34827 0.23476 0.0
C740 C 0.58661 0.37696 0.12345 0.0
C741 C 0.57171 0.34415 0.11826 0.0
C742 C 0.61198 0.38051 0.14287 0.0
C743 C 0.62286 0.35057 0.15713 0.0
C744 C 0.60764 0.31739 0.15239 0.0
C745 C 0.58222 0.31458 0.13319 0.0
C746 C 0.62743 0.4163 0.14772 0.0
C747 C 0.61863 0.28485 0.16697 0.0
H748 H 0.72973 0.36215 0.16212 0.0
H749 H 0.66984 0.35158 0.26054 0.0
H750 H 0.67316 0.33544 0.11042 0.0
H751 H 0.6764 0.38149 0.10491 0.0
H752 H 0.7109 0.36287 0.10723 0.0
H753 H 0.61588 0.34844 0.26352 0.0
H754 H 0.60343 0.36976 0.22437 0.0
H755 H 0.59981 0.32365 0.23163 0.0
H756 H 0.57864 0.39993 0.11205 0.0
H757 H 0.57098 0.28909 0.12927 0.0
H758 H 0.65197 0.42204 0.13485 0.0
H759 H 0.62782 0.41748 0.17638 0.0
H760 H 0.61539 0.43681 0.13625 0.0
H761 H 0.64301 0.28598 0.15515 0.0
H762 H 0.60397 0.26096 0.16141 0.0
H763 H 0.61838 0.28289 0.19612 0.0
C764 C 0.29829 0.25213 0.74457 0.0
C765 C 0.29011 0.28115 0.72509 0.0
C766 C 0.30111 0.22238 0.72941 0.0
C767 C 0.29536 0.22143 0.69396 0.0
C768 C 0.28776 0.25087 0.67388 0.0
C769 C 0.28528 0.28038 0.68965 0.0
C770 C 0.30923 0.19154 0.75174 0.0
C771 C 0.28138 0.25085 0.63601 0.0
C772 C 0.32053 0.15186 0.64424 0.0
C773 C 0.29248 0.12788 0.64774 0.0
C774 C 0.32203 0.18224 0.65961 0.0
C775 C 0.29486 0.18875 0.67881 0.0
C776 C 0.26672 0.16424 0.6831 0.0
C777 C 0.2659 0.13416 0.66761 0.0
C778 C 0.3525 0.20769 0.65471 0.0
C779 C 0.23722 0.17013 0.7034 0.0
H780 H 0.30164 0.25222 0.77212 0.0
H781 H 0.27942 0.30284 0.67423 0.0
H782 H 0.28908 0.16959 0.75662 0.0
H783 H 0.32898 0.18277 0.73745 0.0
H784 H 0.31555 0.19744 0.77777 0.0
H785 H 0.2775 0.27645 0.62337 0.0
H786 H 0.30115 0.24381 0.61994 0.0
H787 H 0.26042 0.231 0.63536 0.0
H788 H 0.34116 0.14728 0.62891 0.0
H789 H 0.2441 0.11582 0.67059 0.0
H790 H 0.35887 0.21289 0.6809 0.0
H791 H 0.35003 0.23278 0.63948 0.0
H792 H 0.37181 0.19814 0.64043 0.0
H793 H 0.2411 0.17394 0.73077 0.0
H794 H 0.21743 0.14813 0.70502 0.0
H795 H 0.23057 0.19407 0.69036 0.0
C796 C 0.41671 0.86373 0.24947 0.0
C797 C 0.38702 0.86076 0.23887 0.0
C798 C 0.44185 0.85688 0.22754 0.0
C799 C 0.43709 0.84691 0.19423 0.0
C800 C 0.40713 0.84407 0.18336 0.0
C801 C 0.38239 0.85086 0.20593 0.0
C802 C 0.47337 0.85986 0.2402 0.0
C803 C 0.40114 0.83355 0.14802 0.0
C804 C 0.50623 0.85533 0.12281 0.0
C805 C 0.51053 0.82087 0.12519 0.0
C806 C 0.48267 0.86432 0.14544 0.0
C807 C 0.46315 0.83828 0.17119 0.0
C808 C 0.46788 0.80363 0.17428 0.0
C809 C 0.49141 0.79534 0.15118 0.0
C810 C 0.4782 0.90152 0.14129 0.0
C811 C 0.44773 0.77516 0.2016 0.0
H812 H 0.42012 0.87122 0.27508 0.0
H813 H 0.35936 0.84838 0.19784 0.0
H814 H 0.48077 0.83435 0.24228 0.0
H815 H 0.49101 0.87847 0.22067 0.0
H816 H 0.47331 0.8686 0.26646 0.0
H817 H 0.37676 0.83369 0.14303 0.0
H818 H 0.41707 0.85143 0.1262 0.0
H819 H 0.40597 0.80711 0.14708 0.0
H820 H 0.52085 0.8752 0.10276 0.0
H821 H 0.49467 0.76867 0.15338 0.0
H822 H 0.47937 0.91128 0.16692 0.0
H823 H 0.45478 0.90306 0.13375 0.0
H824 H 0.49597 0.91888 0.12078 0.0
H825 H 0.44829 0.7822 0.22853 0.0
H826 H 0.45529 0.74983 0.20155 0.0
H827 H 0.42319 0.77201 0.19634 0.0
C828 C 0.80377 0.26677 0.3379 0.0
C829 C 0.79705 0.2649 0.30329 0.0
C830 C 0.80195 0.23656 0.36255 0.0
C831 C 0.7937 0.20367 0.35213 0.0
C832 C 0.78697 0.20164 0.31713 0.0
C833 C 0.78844 0.23233 0.29319 0.0
C834 C 0.80876 0.23987 0.39978 0.0
C835 C 0.77854 0.16707 0.3049 0.0
C836 C 0.81775 0.12832 0.40828 0.0
C837 C 0.78989 0.1131 0.4305 0.0
C838 C 0.81912 0.15722 0.38198 0.0
C839 C 0.79207 0.17149 0.37805 0.0
C840 C 0.76377 0.15591 0.39999 0.0
C841 C 0.76299 0.12682 0.42579 0.0
C842 C 0.84965 0.17287 0.35882 0.0
C843 C 0.7345 0.17054 0.39687 0.0
H844 H 0.81013 0.29197 0.34581 0.0
H845 H 0.78345 0.23092 0.26633 0.0
H846 H 0.78841 0.22618 0.41931 0.0
H847 H 0.82876 0.22738 0.40558 0.0
H848 H 0.81425 0.26735 0.40381 0.0
H849 H 0.77423 0.16995 0.27675 0.0
H850 H 0.79761 0.15229 0.30786 0.0
H851 H 0.75736 0.15138 0.32173 0.0
H852 H 0.83861 0.1178 0.41159 0.0
H853 H 0.74136 0.11531 0.44286 0.0
H854 H 0.85784 0.19961 0.36381 0.0
H855 H 0.84646 0.17474 0.33038 0.0
H856 H 0.86804 0.15749 0.36378 0.0
H857 H 0.73819 0.19735 0.40305 0.0
H858 H 0.71414 0.1547 0.41509 0.0
H859 H 0.72895 0.17205 0.36926 0.0
C860 C 0.36788 0.34877 0.85063 0.0
C861 C 0.33824 0.3536 0.86386 0.0
C862 C 0.39217 0.35101 0.87161 0.0
C863 C 0.38641 0.35741 0.9069 0.0
C864 C 0.35675 0.36325 0.92 0.0
C865 C 0.33301 0.36118 0.89833 0.0
C866 C 0.42351 0.34478 0.85663 0.0
C867 C 0.34952 0.3697 0.95759 0.0
C868 C 0.43131 0.31763 0.97544 0.0
C869 C 0.45253 0.34653 0.98091 0.0
C870 C 0.41003 0.32088 0.95115 0.0
C871 C 0.41002 0.35384 0.93148 0.0
C872 C 0.43169 0.3831 0.9363 0.0
C873 C 0.45264 0.37914 0.96113 0.0
C874 C 0.38715 0.28903 0.94704 0.0
C875 C 0.43251 0.41857 0.91551 0.0
H876 H 0.37179 0.34223 0.82422 0.0
H877 H 0.30995 0.36431 0.90882 0.0
H878 H 0.44243 0.36506 0.86188 0.0
H879 H 0.42729 0.31941 0.86989 0.0
H880 H 0.4254 0.34457 0.82757 0.0
H881 H 0.32632 0.37694 0.9626 0.0
H882 H 0.34989 0.3459 0.97647 0.0
H883 H 0.36748 0.39069 0.96339 0.0
H884 H 0.43095 0.29231 0.99059 0.0
H885 H 0.46903 0.40157 0.96509 0.0
H886 H 0.38953 0.28489 0.91897 0.0
H887 H 0.36299 0.29282 0.95421 0.0
H888 H 0.39054 0.26521 0.96398 0.0
H889 H 0.43542 0.41756 0.88662 0.0
H890 H 0.45167 0.43838 0.92116 0.0
H891 H 0.41008 0.42697 0.92208 0.0
C892 C 0.31633 0.87279 0.4198 0.0
C893 C 0.29586 0.87452 0.39436 0.0
C894 C 0.31623 0.89378 0.44639 0.0
C895 C 0.29574 0.91769 0.44689 0.0
C896 C 0.27512 0.91958 0.42107 0.0
C897 C 0.27516 0.89761 0.39535 0.0
C898 C 0.33795 0.8903 0.474 0.0
C899 C 0.25336 0.94518 0.42026 0.0
C900 C 0.27326 0.95274 0.53124 0.0
C901 C 0.29328 0.98516 0.52571 0.0
C902 C 0.27448 0.9301 0.50632 0.0
C903 C 0.29565 0.94055 0.47458 0.0
C904 C 0.31615 0.97317 0.46898 0.0
C905 C 0.31501 0.99491 0.49489 0.0
C906 C 0.25285 0.89518 0.51378 0.0
C907 C 0.33859 0.98554 0.43515 0.0
H908 H 0.33226 0.85479 0.41898 0.0
H909 H 0.25957 0.89909 0.37539 0.0
H910 H 0.35429 0.91525 0.47257 0.0
H911 H 0.32442 0.88416 0.50097 0.0
H912 H 0.35171 0.8697 0.47053 0.0
H913 H 0.2394 0.94402 0.39787 0.0
H914 H 0.23719 0.93998 0.44548 0.0
H915 H 0.2669 0.97194 0.41786 0.0
H916 H 0.25657 0.94502 0.5552 0.0
H917 H 0.33032 0.02009 0.49041 0.0
H918 H 0.26636 0.87423 0.51133 0.0
H919 H 0.23634 0.8938 0.49392 0.0
H920 H 0.23924 0.89008 0.54071 0.0
H921 H 0.35415 0.96672 0.43146 0.0
H922 H 0.35316 0.01141 0.43502 0.0
H923 H 0.32547 0.98714 0.41205 0.0
C924 C 0.76982 0.7849 0.88378 0.0
C925 C 0.76575 0.79082 0.84786 0.0
C926 C 0.7455 0.78515 0.91064 0.0
C927 C 0.71637 0.79113 0.90132 0.0
C928 C 0.71202 0.7966 0.86511 0.0
C929 C 0.73678 0.79647 0.83884 0.0
C930 C 0.75108 0.77941 0.94896 0.0
C931 C 0.68122 0.80264 0.85409 0.0
C932 C 0.64453 0.76161 0.97049 0.0
C933 C 0.64029 0.79289 0.98174 0.0
C934 C 0.66922 0.76065 0.94443 0.0
C935 C 0.69036 0.79168 0.9294 0.0
C936 C 0.68633 0.82333 0.94072 0.0
C937 C 0.66127 0.82358 0.96664 0.0
C938 C 0.67256 0.72644 0.93285 0.0
C939 C 0.70851 0.85693 0.92544 0.0
H940 H 0.79225 0.78079 0.89083 0.0
H941 H 0.73339 0.80056 0.81112 0.0
H942 H 0.74737 0.8023 0.96137 0.0
H943 H 0.73414 0.75669 0.964 0.0
H944 H 0.775 0.77498 0.95177 0.0
H945 H 0.68155 0.80605 0.82482 0.0
H946 H 0.66246 0.7804 0.86645 0.0
H947 H 0.67519 0.82612 0.86365 0.0
H948 H 0.62842 0.73775 0.98193 0.0
H949 H 0.65828 0.84784 0.97527 0.0
H950 H 0.69565 0.72043 0.93743 0.0
H951 H 0.67134 0.72816 0.90395 0.0
H952 H 0.65421 0.70463 0.94723 0.0
H953 H 0.73263 0.85445 0.92964 0.0
H954 H 0.70252 0.8792 0.93758 0.0
H955 H 0.70825 0.86274 0.89636 0.0
loop_
_geom_bond_atom_site_label_1
_geom_bond_atom_site_label_2
_geom_bond_distance
_geom_bond_site_symmetry_2
_ccdc_geom_bond_type
H0 C7 0.929 . S
H1 C10 0.930 . S
H2 C12 0.929 . S
H3 C4 0.969 . S
C4 H3 0.969 . S
C4 O5 1.550 . S
C4 H6 0.973 . S
O5 C4 1.550 . S
O5 C11 1.412 . S
H6 C4 0.973 . S
C7 H0 0.929 . S
C7 C8 1.400 . S
C7 C9 1.364 . S
C8 C7 1.400 . S
C8 C12 1.377 . S
C9 C7 1.364 . S
C9 C10 1.374 . S
C10 H1 0.930 . S
C10 C9 1.374 . S
C10 C11 1.383 . S
C11 O5 1.412 . S
C11 C10 1.383 . S
C11 C12 1.394 . S
C12 H2 0.929 . S
C12 C8 1.377 . S
C12 C11 1.394 . S
H13 C20 0.929 . S
H14 C23 0.930 . S
H15 C25 0.929 . S
H16 C17 0.969 . S
C17 H16 0.969 . S
C17 O18 1.550 . S
C17 H19 0.973 . S
O18 C17 1.550 . S
O18 C24 1.412 . S
H19 C17 0.973 . S
C20 H13 0.929 . S
C20 C21 1.400 . S
C20 C22 1.364 . S
C21 C20 1.400 . S
C21 C25 1.377 . S
C22 C20 1.364 . S
C22 C23 1.374 . S
C23 H14 0.930 . S
C23 C22 1.374 . S
C23 C24 1.383 . S
C24 O18 1.412 . S
C24 C23 1.383 . S
C24 C25 1.394 . S
C25 H15 0.929 . S
C25 C21 1.377 . S
C25 C24 1.394 . S
H26 C33 0.929 . S
H27 C36 0.930 . S
H28 C38 0.929 . S
H29 C30 0.969 . S
C30 H29 0.969 . S
C30 O31 1.550 . S
C30 H32 0.973 . S
O31 C30 1.550 . S
O31 C37 1.412 . S
H32 C30 0.973 . S
C33 H26 0.929 . S
C33 C34 1.400 . S
C33 C35 1.364 . S
C34 C33 1.400 . S
C34 C38 1.377 . S
C35 C33 1.364 . S
C35 C36 1.374 . S
C36 H27 0.930 . S
C36 C35 1.374 . S
C36 C37 1.383 . S
C37 O31 1.412 . S
C37 C36 1.383 . S
C37 C38 1.394 . S
C38 H28 0.929 . S
C38 C34 1.377 . S
C38 C37 1.394 . S
H39 C46 0.929 . S
H40 C49 0.930 . S
H41 C51 0.929 . S
H42 C43 0.969 . S
C43 H42 0.969 . S
C43 O44 1.550 . S
C43 H45 0.973 . S
O44 C43 1.550 . S
O44 C50 1.412 . S
H45 C43 0.973 . S
C46 H39 0.929 . S
C46 C47 1.400 . S
C46 C48 1.364 . S
C47 C46 1.400 . S
C47 C51 1.377 . S
C48 C46 1.364 . S
C48 C49 1.374 . S
C49 H40 0.930 . S
C49 C48 1.374 . S
C49 C50 1.383 . S
C50 O44 1.412 . S
C50 C49 1.383 . S
C50 C51 1.394 . S
C51 H41 0.929 . S
C51 C47 1.377 . S
C51 C50 1.394 . S
H52 C59 0.929 . S
H53 C62 0.930 . S
H54 C64 0.929 . S
H55 C56 0.969 . S
C56 H55 0.969 . S
C56 O57 1.550 . S
C56 H58 0.973 . S
O57 C56 1.550 . S
O57 C63 1.412 . S
H58 C56 0.973 . S
C59 H52 0.929 . S
C59 C60 1.400 . S
C59 C61 1.364 . S
C60 C59 1.400 . S
C60 C64 1.377 . S
C61 C59 1.364 . S
C61 C62 1.374 . S
C62 H53 0.930 . S
C62 C61 1.374 . S
C62 C63 1.383 . S
C63 O57 1.412 . S
C63 C62 1.383 . S
C63 C64 1.394 . S
C64 H54 0.929 . S
C64 C60 1.377 . S
C64 C63 1.394 . S
H65 C72 0.929 . S
H66 C75 0.930 . S
H67 C77 0.929 . S
H68 C69 0.969 . S
C69 H68 0.969 . S
C69 O70 1.550 . S
C69 H71 0.973 . S
O70 C69 1.550 . S
O70 C76 1.412 . S
H71 C69 0.973 . S
C72 H65 0.929 . S
C72 C73 1.400 . S
C72 C74 1.364 . S
C73 C72 1.400 . S
C73 C77 1.377 . S
C74 C72 1.364 . S
C74 C75 1.374 . S
C75 H66 0.930 . S
C75 C74 1.374 . S
C75 C76 1.383 . S
C76 O70 1.412 . S
C76 C75 1.383 . S
C76 C77 1.394 . S
C77 H67 0.929 . S
C77 C73 1.377 . S
C77 C76 1.394 . S
H78 C85 0.929 . S
H79 C88 0.930 . S
H80 C90 0.929 . S
H81 C82 0.969 . S
C82 H81 0.969 . S
C82 O83 1.550 . S
C82 H84 0.973 . S
O83 C82 1.550 . S
O83 C89 1.412 . S
H84 C82 0.973 . S
C85 H78 0.929 . S
C85 C86 1.400 . S
C85 C87 1.364 . S
C86 C85 1.400 . S
C86 C90 1.377 . S
C87 C85 1.364 . S
C87 C88 1.374 . S
C88 H79 0.930 . S
C88 C87 1.374 . S
C88 C89 1.383 . S
C89 O83 1.412 . S
C89 C88 1.383 . S
C89 C90 1.394 . S
C90 H80 0.929 . S
C90 C86 1.377 . S
C90 C89 1.394 . S
H91 C98 0.929 . S
H92 C101 0.930 . S
H93 C103 0.929 . S
H94 C95 0.969 . S
C95 H94 0.969 . S
C95 O96 1.550 . S
C95 H97 0.973 . S
O96 C95 1.550 . S
O96 C102 1.412 . S
H97 C95 0.973 . S
C98 H91 0.929 . S
C98 C99 1.400 . S
C98 C100 1.364 . S
C99 C98 1.400 . S
C99 C103 1.377 . S
C100 C98 1.364 . S
C100 C101 1.374 . S
C101 H92 0.930 . S
C101 C100 1.374 . S
C101 C102 1.383 . S
C102 O96 1.412 . S
C102 C101 1.383 . S
C102 C103 1.394 . S
C103 H93 0.929 . S
C103 C99 1.377 . S
C103 C102 1.394 . S
C104 O106 1.247 . S
C104 O108 1.258 . S
C105 O112 1.247 . S
C105 O113 1.258 . S
O106 C104 1.247 . S
O106 Zn107 2.028 1_655 S
Zn107 O106 2.028 1_455 S
Zn107 O111 2.035 . S
Zn107 O113 2.035 . S
Zn107 O114 2.028 1_455 S
O108 C104 1.258 . S
O108 Zn109 2.035 1_655 S
Zn109 O108 2.035 1_455 S
Zn109 O110 2.028 . S
Zn109 O112 2.028 . S
Zn109 O115 2.035 1_455 S
O110 Zn109 2.028 . S
O110 C116 1.247 . S
O111 Zn107 2.035 . S
O111 C116 1.258 . S
O112 C105 1.247 . S
O112 Zn109 2.028 . S
O113 C105 1.258 . S
O113 Zn107 2.035 . S
O114 Zn107 2.028 1_655 S
O114 C117 1.247 . S
O115 Zn109 2.035 1_655 S
O115 C117 1.258 . S
C116 O110 1.247 . S
C116 O111 1.258 . S
C117 O114 1.247 . S
C117 O115 1.258 . S
C118 O120 1.247 1_655 S
C118 O122 1.258 1_655 S
C119 O126 1.247 . S
C119 O127 1.258 . S
O120 C118 1.247 1_455 S
O120 Zn121 2.028 . S
Zn121 O120 2.028 . S
Zn121 O125 2.035 . S
Zn121 O127 2.035 . S
Zn121 O128 2.028 . S
O122 C118 1.258 1_455 S
O122 Zn123 2.035 . S
Zn123 O122 2.035 . S
Zn123 O124 2.028 . S
Zn123 O126 2.028 . S
Zn123 O129 2.035 . S
O124 Zn123 2.028 . S
O124 C130 1.247 . S
O125 Zn121 2.035 . S
O125 C130 1.258 . S
O126 C119 1.247 . S
O126 Zn123 2.028 . S
O127 C119 1.258 . S
O127 Zn121 2.035 . S
O128 Zn121 2.028 . S
O128 C131 1.247 . S
O129 Zn123 2.035 . S
O129 C131 1.258 . S
C130 O124 1.247 . S
C130 O125 1.258 . S
C131 O128 1.247 . S
C131 O129 1.258 . S
C132 O134 1.247 . S
C132 O136 1.258 1_565 S
C133 O140 1.247 . S
C133 O141 1.258 . S
O134 C132 1.247 . S
O134 Zn135 2.028 1_565 S
Zn135 O134 2.028 1_545 S
Zn135 O139 2.035 . S
Zn135 O141 2.035 . S
Zn135 O142 2.028 1_545 S
O136 C132 1.258 1_545 S
O136 Zn137 2.035 . S
Zn137 O136 2.035 . S
Zn137 O138 2.028 . S
Zn137 O140 2.028 . S
Zn137 O143 2.035 . S
O138 Zn137 2.028 . S
O138 C144 1.247 . S
O139 Zn135 2.035 . S
O139 C144 1.258 . S
O140 C133 1.247 . S
O140 Zn137 2.028 . S
O141 C133 1.258 . S
O141 Zn135 2.035 . S
O142 Zn135 2.028 1_565 S
O142 C145 1.247 . S
O143 Zn137 2.035 . S
O143 C145 1.258 1_545 S
C144 O138 1.247 . S
C144 O139 1.258 . S
C145 O142 1.247 . S
C145 O143 1.258 1_565 S
C146 O148 1.247 . S
C146 O150 1.258 . S
C147 O154 1.247 . S
C147 O155 1.258 . S
O148 C146 1.247 . S
O148 Zn149 2.028 . S
Zn149 O148 2.028 . S
Zn149 O153 2.035 . S
Zn149 O155 2.035 . S
Zn149 O156 2.028 . S
O150 C146 1.258 . S
O150 Zn151 2.035 . S
Zn151 O150 2.035 . S
Zn151 O152 2.028 . S
Zn151 O154 2.028 . S
Zn151 O157 2.035 . S
O152 Zn151 2.028 . S
O152 C158 1.247 . S
O153 Zn149 2.035 . S
O153 C158 1.258 . S
O154 C147 1.247 . S
O154 Zn151 2.028 . S
O155 C147 1.258 . S
O155 Zn149 2.035 . S
O156 Zn149 2.028 . S
O156 C159 1.247 . S
O157 Zn151 2.035 . S
O157 C159 1.258 . S
C158 O152 1.247 . S
C158 O153 1.258 . S
C159 O156 1.247 . S
C159 O157 1.258 . S
C160 O162 1.247 . S
C160 O164 1.258 . S
C161 O168 1.247 . S
C161 O169 1.258 . S
O162 C160 1.247 . S
O162 Zn163 2.028 . S
Zn163 O162 2.028 . S
Zn163 O167 2.035 1_565 S
Zn163 O169 2.035 1_565 S
Zn163 O170 2.028 . S
O164 C160 1.258 . S
O164 Zn165 2.035 1_565 S
Zn165 O164 2.035 1_545 S
Zn165 O166 2.028 . S
Zn165 O168 2.028 . S
Zn165 O171 2.035 1_545 S
O166 Zn165 2.028 . S
O166 C172 1.247 . S
O167 Zn163 2.035 1_545 S
O167 C172 1.258 . S
O168 C161 1.247 . S
O168 Zn165 2.028 . S
O169 C161 1.258 . S
O169 Zn163 2.035 1_545 S
O170 Zn163 2.028 . S
O170 C173 1.247 . S
O171 Zn165 2.035 1_565 S
O171 C173 1.258 . S
C172 O166 1.247 . S
C172 O167 1.258 . S
C173 O170 1.247 . S
C173 O171 1.258 . S
C174 O176 1.247 . S
C174 O178 1.258 . S
C175 O182 1.247 . S
C175 O183 1.258 . S
O176 C174 1.247 . S
O176 Zn177 2.028 . S
Zn177 O176 2.028 . S
Zn177 O181 2.035 . S
Zn177 O183 2.035 1_554 S
Zn177 O184 2.028 1_554 S
O178 C174 1.258 . S
O178 Zn179 2.035 1_554 S
Zn179 O178 2.035 1_556 S
Zn179 O180 2.028 1_556 S
Zn179 O182 2.028 . S
Zn179 O185 2.035 . S
O180 Zn179 2.028 1_554 S
O180 C186 1.247 . S
O181 Zn177 2.035 . S
O181 C186 1.258 . S
O182 C175 1.247 . S
O182 Zn179 2.028 . S
O183 C175 1.258 . S
O183 Zn177 2.035 1_556 S
O184 Zn177 2.028 1_556 S
O184 C187 1.247 . S
O185 Zn179 2.035 . S
O185 C187 1.258 . S
C186 O180 1.247 . S
C186 O181 1.258 . S
C187 O184 1.247 . S
C187 O185 1.258 . S
C188 C189 1.391 . S
C188 C190 1.394 . S
C188 H204 0.931 . S
C189 C188 1.391 . S
C189 C193 1.376 . S
C190 C188 1.394 . S
C190 C191 1.369 . S
C190 C194 1.531 . S
C191 C190 1.369 . S
C191 C192 1.410 . S
C191 C199 1.503 . S
C192 C191 1.410 . S
C192 C193 1.392 . S
C192 C195 1.511 . S
C193 C189 1.376 . S
C193 C192 1.392 . S
C193 H205 0.929 . S
C194 C190 1.531 . S
C194 H206 0.960 . S
C194 H207 0.962 . S
C194 H208 0.960 . S
C195 C192 1.511 . S
C195 H209 0.961 . S
C195 H210 0.961 . S
C195 H211 0.961 . S
C196 C197 1.370 . S
C196 C198 1.363 . S
C196 H212 0.931 . S
C197 C196 1.370 . S
C197 C201 1.408 . S
C198 C196 1.363 . S
C198 C199 1.370 . S
C198 C202 1.524 . S
C199 C191 1.503 . S
C199 C198 1.370 . S
C199 C200 1.403 . S
C200 C199 1.403 . S
C200 C201 1.404 . S
C200 C203 1.539 . S
C201 C197 1.408 . S
C201 C200 1.404 . S
C201 H213 0.930 . S
C202 C198 1.524 . S
C202 H214 0.956 . S
C202 H215 0.961 . S
C202 H216 0.961 . S
C203 C200 1.539 . S
C203 H217 0.958 . S
C203 H218 0.961 . S
C203 H219 0.960 . S
H204 C188 0.931 . S
H205 C193 0.929 . S
H206 C194 0.960 . S
H207 C194 0.962 . S
H208 C194 0.960 . S
H209 C195 0.961 . S
H210 C195 0.961 . S
H211 C195 0.961 . S
H212 C196 0.931 . S
H213 C201 0.930 . S
H214 C202 0.956 . S
H215 C202 0.961 . S
H216 C202 0.961 . S
H217 C203 0.958 . S
H218 C203 0.961 . S
H219 C203 0.960 . S
C220 C221 1.391 . S
C220 C222 1.394 . S
C220 H236 0.931 . S
C221 C220 1.391 . S
C221 C225 1.376 . S
C222 C220 1.394 . S
C222 C223 1.369 . S
C222 C226 1.531 . S
C223 C222 1.369 . S
C223 C224 1.410 . S
C223 C231 1.503 . S
C224 C223 1.410 . S
C224 C225 1.392 . S
C224 C227 1.511 . S
C225 C221 1.376 . S
C225 C224 1.392 . S
C225 H237 0.929 . S
C226 C222 1.531 . S
C226 H238 0.960 . S
C226 H239 0.962 . S
C226 H240 0.960 . S
C227 C224 1.511 . S
C227 H241 0.961 . S
C227 H242 0.961 . S
C227 H243 0.961 . S
C228 C229 1.370 . S
C228 C230 1.363 . S
C228 H244 0.931 . S
C229 C228 1.370 . S
C229 C233 1.408 . S
C230 C228 1.363 . S
C230 C231 1.370 . S
C230 C234 1.524 . S
C231 C223 1.503 . S
C231 C230 1.370 . S
C231 C232 1.403 . S
C232 C231 1.403 . S
C232 C233 1.404 . S
C232 C235 1.539 . S
C233 C229 1.408 . S
C233 C232 1.404 . S
C233 H245 0.930 . S
C234 C230 1.524 . S
C234 H246 0.956 . S
C234 H247 0.961 . S
C234 H248 0.961 . S
C235 C232 1.539 . S
C235 H249 0.958 . S
C235 H250 0.961 . S
C235 H251 0.960 . S
H236 C220 0.931 . S
H237 C225 0.929 . S
H238 C226 0.960 . S
H239 C226 0.962 . S
H240 C226 0.960 . S
H241 C227 0.961 . S
H242 C227 0.961 . S
H243 C227 0.961 . S
H244 C228 0.931 . S
H245 C233 0.930 . S
H246 C234 0.956 . S
H247 C234 0.961 . S
H248 C234 0.961 . S
H249 C235 0.958 . S
H250 C235 0.961 . S
H251 C235 0.960 . S
C252 C253 1.391 . S
C252 C254 1.394 . S
C252 H268 0.931 . S
C253 C252 1.391 . S
C253 C257 1.376 . S
C254 C252 1.394 . S
C254 C255 1.369 . S
C254 C258 1.531 . S
C255 C254 1.369 . S
C255 C256 1.410 . S
C255 C263 1.503 . S
C256 C255 1.410 . S
C256 C257 1.392 . S
C256 C259 1.511 . S
C257 C253 1.376 . S
C257 C256 1.392 . S
C257 H269 0.929 . S
C258 C254 1.531 . S
C258 H270 0.960 . S
C258 H271 0.962 . S
C258 H272 0.960 . S
C259 C256 1.511 . S
C259 H273 0.961 . S
C259 H274 0.961 . S
C259 H275 0.961 . S
C260 C261 1.370 . S
C260 C262 1.363 . S
C260 H276 0.931 . S
C261 C260 1.370 . S
C261 C265 1.408 . S
C262 C260 1.363 . S
C262 C263 1.370 . S
C262 C266 1.524 . S
C263 C255 1.503 . S
C263 C262 1.370 . S
C263 C264 1.403 . S
C264 C263 1.403 . S
C264 C265 1.404 . S
C264 C267 1.539 . S
C265 C261 1.408 . S
C265 C264 1.404 . S
C265 H277 0.930 . S
C266 C262 1.524 . S
C266 H278 0.956 . S
C266 H279 0.961 . S
C266 H280 0.961 . S
C267 C264 1.539 . S
C267 H281 0.958 . S
C267 H282 0.961 . S
C267 H283 0.960 . S
H268 C252 0.931 . S
H269 C257 0.929 . S
H270 C258 0.960 . S
H271 C258 0.962 . S
H272 C258 0.960 . S
H273 C259 0.961 . S
H274 C259 0.961 . S
H275 C259 0.961 . S
H276 C260 0.931 . S
H277 C265 0.930 . S
H278 C266 0.956 . S
H279 C266 0.961 . S
H280 C266 0.961 . S
H281 C267 0.958 . S
H282 C267 0.961 . S
H283 C267 0.960 . S
C284 C285 1.391 . S
C284 C286 1.394 . S
C284 H300 0.931 . S
C285 C284 1.391 . S
C285 C289 1.376 . S
C286 C284 1.394 . S
C286 C287 1.369 . S
C286 C290 1.531 . S
C287 C286 1.369 . S
C287 C288 1.410 . S
C287 C295 1.503 . S
C288 C287 1.410 . S
C288 C289 1.392 . S
C288 C291 1.511 . S
C289 C285 1.376 . S
C289 C288 1.392 . S
C289 H301 0.929 . S
C290 C286 1.531 . S
C290 H302 0.960 . S
C290 H303 0.962 . S
C290 H304 0.960 . S
C291 C288 1.511 . S
C291 H305 0.961 . S
C291 H306 0.961 . S
C291 H307 0.961 . S
C292 C293 1.370 . S
C292 C294 1.363 . S
C292 H308 0.931 . S
C293 C292 1.370 . S
C293 C297 1.408 . S
C294 C292 1.363 . S
C294 C295 1.370 . S
C294 C298 1.524 . S
C295 C287 1.503 . S
C295 C294 1.370 . S
C295 C296 1.403 . S
C296 C295 1.403 . S
C296 C297 1.404 . S
C296 C299 1.539 . S
C297 C293 1.408 . S
C297 C296 1.404 . S
C297 H309 0.930 . S
C298 C294 1.524 . S
C298 H310 0.956 . S
C298 H311 0.961 . S
C298 H312 0.961 . S
C299 C296 1.539 . S
C299 H313 0.958 . S
C299 H314 0.961 . S
C299 H315 0.960 . S
H300 C284 0.931 . S
H301 C289 0.929 . S
H302 C290 0.960 . S
H303 C290 0.962 . S
H304 C290 0.960 . S
H305 C291 0.961 . S
H306 C291 0.961 . S
H307 C291 0.961 . S
H308 C292 0.931 . S
H309 C297 0.930 . S
H310 C298 0.956 . S
H311 C298 0.961 . S
H312 C298 0.961 . S
H313 C299 0.958 . S
H314 C299 0.961 . S
H315 C299 0.960 . S
C316 C317 1.391 . S
C316 C318 1.394 . S
C316 H332 0.931 . S
C317 C316 1.391 . S
C317 C321 1.376 . S
C318 C316 1.394 . S
C318 C319 1.369 . S
C318 C322 1.531 . S
C319 C318 1.369 . S
C319 C320 1.410 . S
C319 C327 1.503 . S
C320 C319 1.410 . S
C320 C321 1.392 . S
C320 C323 1.511 . S
C321 C317 1.376 . S
C321 C320 1.392 . S
C321 H333 0.929 . S
C322 C318 1.531 . S
C322 H334 0.960 . S
C322 H335 0.962 . S
C322 H336 0.960 . S
C323 C320 1.511 . S
C323 H337 0.961 . S
C323 H338 0.961 . S
C323 H339 0.961 . S
C324 C325 1.370 . S
C324 C326 1.363 . S
C324 H340 0.931 . S
C325 C324 1.370 . S
C325 C329 1.408 . S
C326 C324 1.363 . S
C326 C327 1.370 . S
C326 C330 1.524 . S
C327 C319 1.503 . S
C327 C326 1.370 . S
C327 C328 1.403 . S
C328 C327 1.403 . S
C328 C329 1.404 . S
C328 C331 1.539 . S
C329 C325 1.408 . S
C329 C328 1.404 . S
C329 H341 0.930 . S
C330 C326 1.524 . S
C330 H342 0.956 . S
C330 H343 0.961 . S
C330 H344 0.961 . S
C331 C328 1.539 . S
C331 H345 0.958 . S
C331 H346 0.961 . S
C331 H347 0.960 . S
H332 C316 0.931 . S
H333 C321 0.929 . S
H334 C322 0.960 . S
H335 C322 0.962 . S
H336 C322 0.960 . S
H337 C323 0.961 . S
H338 C323 0.961 . S
H339 C323 0.961 . S
H340 C324 0.931 . S
H341 C329 0.930 . S
H342 C330 0.956 . S
H343 C330 0.961 . S
H344 C330 0.961 . S
H345 C331 0.958 . S
H346 C331 0.961 . S
H347 C331 0.960 . S
C348 C349 1.391 . S
C348 C350 1.394 . S
C348 H364 0.931 . S
C349 C348 1.391 . S
C349 C353 1.376 . S
C350 C348 1.394 . S
C350 C351 1.369 . S
C350 C354 1.531 . S
C351 C350 1.369 . S
C351 C352 1.410 . S
C351 C359 1.503 . S
C352 C351 1.410 . S
C352 C353 1.392 . S
C352 C355 1.511 . S
C353 C349 1.376 . S
C353 C352 1.392 . S
C353 H365 0.929 . S
C354 C350 1.531 . S
C354 H366 0.960 . S
C354 H367 0.962 1_556 S
C354 H368 0.960 . S
C355 C352 1.511 . S
C355 H369 0.961 . S
C355 H370 0.961 . S
C355 H371 0.961 . S
C356 C357 1.370 . S
C356 C358 1.363 1_554 S
C356 H372 0.931 . S
C357 C356 1.370 . S
C357 C361 1.408 1_554 S
C358 C356 1.363 1_556 S
C358 C359 1.370 . S
C358 C362 1.524 1_556 S
C359 C351 1.503 . S
C359 C358 1.370 . S
C359 C360 1.403 . S
C360 C359 1.403 . S
C360 C361 1.404 . S
C360 C363 1.539 . S
C361 C357 1.408 1_556 S
C361 C360 1.404 . S
C361 H373 0.930 . S
C362 C358 1.524 1_554 S
C362 H374 0.956 . S
C362 H375 0.961 1_554 S
C362 H376 0.961 . S
C363 C360 1.539 . S
C363 H377 0.958 . S
C363 H378 0.961 . S
C363 H379 0.960 . S
H364 C348 0.931 . S
H365 C353 0.929 . S
H366 C354 0.960 . S
H367 C354 0.962 1_554 S
H368 C354 0.960 . S
H369 C355 0.961 . S
H370 C355 0.961 . S
H371 C355 0.961 . S
H372 C356 0.931 . S
H373 C361 0.930 . S
H374 C362 0.956 . S
H375 C362 0.961 1_556 S
H376 C362 0.961 . S
H377 C363 0.958 . S
H378 C363 0.961 . S
H379 C363 0.960 . S
C380 C381 1.391 . S
C380 C382 1.394 . S
C380 H396 0.931 . S
C381 C380 1.391 . S
C381 C385 1.376 . S
C382 C380 1.394 . S
C382 C383 1.369 . S
C382 C386 1.531 . S
C383 C382 1.369 . S
C383 C384 1.410 . S
C383 C391 1.503 . S
C384 C383 1.410 . S
C384 C385 1.392 . S
C384 C387 1.511 . S
C385 C381 1.376 . S
C385 C384 1.392 . S
C385 H397 0.929 . S
C386 C382 1.531 . S
C386 H398 0.960 . S
C386 H399 0.962 . S
C386 H400 0.960 . S
C387 C384 1.511 . S
C387 H401 0.961 . S
C387 H402 0.961 . S
C387 H403 0.961 . S
C388 C389 1.370 . S
C388 C390 1.363 . S
C388 H404 0.931 . S
C389 C388 1.370 . S
C389 C393 1.408 . S
C390 C388 1.363 . S
C390 C391 1.370 . S
C390 C394 1.524 . S
C391 C383 1.503 . S
C391 C390 1.370 . S
C391 C392 1.403 . S
C392 C391 1.403 . S
C392 C393 1.404 . S
C392 C395 1.539 . S
C393 C389 1.408 . S
C393 C392 1.404 . S
C393 H405 0.930 . S
C394 C390 1.524 . S
C394 H406 0.956 . S
C394 H407 0.961 . S
C394 H408 0.961 . S
C395 C392 1.539 . S
C395 H409 0.958 . S
C395 H410 0.961 . S
C395 H411 0.960 . S
H396 C380 0.931 . S
H397 C385 0.929 . S
H398 C386 0.960 . S
H399 C386 0.962 . S
H400 C386 0.960 . S
H401 C387 0.961 . S
H402 C387 0.961 . S
H403 C387 0.961 . S
H404 C388 0.931 . S
H405 C393 0.930 . S
H406 C394 0.956 . S
H407 C394 0.961 . S
H408 C394 0.961 . S
H409 C395 0.958 . S
H410 C395 0.961 . S
H411 C395 0.960 . S
C412 C413 1.391 . S
C412 C414 1.394 . S
C412 H428 0.931 . S
C413 C412 1.391 . S
C413 C417 1.376 . S
C414 C412 1.394 . S
C414 C415 1.369 . S
C414 C418 1.531 . S
C415 C414 1.369 . S
C415 C416 1.410 . S
C415 C423 1.503 . S
C416 C415 1.410 . S
C416 C417 1.392 . S
C416 C419 1.511 . S
C417 C413 1.376 . S
C417 C416 1.392 . S
C417 H429 0.929 . S
C418 C414 1.531 . S
C418 H430 0.960 . S
C418 H431 0.962 . S
C418 H432 0.960 . S
C419 C416 1.511 . S
C419 H433 0.961 . S
C419 H434 0.961 . S
C419 H435 0.961 . S
C420 C421 1.370 . S
C420 C422 1.363 . S
C420 H436 0.931 . S
C421 C420 1.370 . S
C421 C425 1.408 . S
C422 C420 1.363 . S
C422 C423 1.370 . S
C422 C426 1.524 . S
C423 C415 1.503 . S
C423 C422 1.370 . S
C423 C424 1.403 . S
C424 C423 1.403 . S
C424 C425 1.404 . S
C424 C427 1.539 . S
C425 C421 1.408 . S
C425 C424 1.404 . S
C425 H437 0.930 . S
C426 C422 1.524 . S
C426 H438 0.956 . S
C426 H439 0.961 . S
C426 H440 0.961 . S
C427 C424 1.539 . S
C427 H441 0.958 . S
C427 H442 0.961 . S
C427 H443 0.960 . S
H428 C412 0.931 . S
H429 C417 0.929 . S
H430 C418 0.960 . S
H431 C418 0.962 . S
H432 C418 0.960 . S
H433 C419 0.961 . S
H434 C419 0.961 . S
H435 C419 0.961 . S
H436 C420 0.931 . S
H437 C425 0.930 . S
H438 C426 0.956 . S
H439 C426 0.961 . S
H440 C426 0.961 . S
H441 C427 0.958 . S
H442 C427 0.961 . S
H443 C427 0.960 . S
C444 C445 1.391 . S
C444 C446 1.394 . S
C444 H460 0.931 . S
C445 C444 1.391 . S
C445 C449 1.376 . S
C446 C444 1.394 . S
C446 C447 1.369 . S
C446 C450 1.531 . S
C447 C446 1.369 . S
C447 C448 1.410 . S
C447 C455 1.503 . S
C448 C447 1.410 . S
C448 C449 1.392 . S
C448 C451 1.511 . S
C449 C445 1.376 . S
C449 C448 1.392 . S
C449 H461 0.929 . S
C450 C446 1.531 . S
C450 H462 0.960 . S
C450 H463 0.962 . S
C450 H464 0.960 . S
C451 C448 1.511 . S
C451 H465 0.961 . S
C451 H466 0.961 . S
C451 H467 0.961 . S
C452 C453 1.370 . S
C452 C454 1.363 . S
C452 H468 0.931 . S
C453 C452 1.370 . S
C453 C457 1.408 . S
C454 C452 1.363 . S
C454 C455 1.370 . S
C454 C458 1.524 . S
C455 C447 1.503 . S
C455 C454 1.370 . S
C455 C456 1.403 . S
C456 C455 1.403 . S
C456 C457 1.404 . S
C456 C459 1.539 . S
C457 C453 1.408 . S
C457 C456 1.404 . S
C457 H469 0.930 . S
C458 C454 1.524 . S
C458 H470 0.956 . S
C458 H471 0.961 . S
C458 H472 0.961 . S
C459 C456 1.539 . S
C459 H473 0.958 . S
C459 H474 0.961 . S
C459 H475 0.960 . S
H460 C444 0.931 . S
H461 C449 0.929 . S
H462 C450 0.960 . S
H463 C450 0.962 . S
H464 C450 0.960 . S
H465 C451 0.961 . S
H466 C451 0.961 . S
H467 C451 0.961 . S
H468 C452 0.931 . S
H469 C457 0.930 . S
H470 C458 0.956 . S
H471 C458 0.961 . S
H472 C458 0.961 . S
H473 C459 0.958 . S
H474 C459 0.961 . S
H475 C459 0.960 . S
C476 C477 1.391 . S
C476 C478 1.394 . S
C476 H492 0.931 . S
C477 C476 1.391 . S
C477 C481 1.376 . S
C478 C476 1.394 . S
C478 C479 1.369 . S
C478 C482 1.531 . S
C479 C478 1.369 . S
C479 C480 1.410 . S
C479 C487 1.503 . S
C480 C479 1.410 . S
C480 C481 1.392 . S
C480 C483 1.511 . S
C481 C477 1.376 . S
C481 C480 1.392 . S
C481 H493 0.929 . S
C482 C478 1.531 . S
C482 H494 0.960 . S
C482 H495 0.962 . S
C482 H496 0.960 . S
C483 C480 1.511 . S
C483 H497 0.961 . S
C483 H498 0.961 . S
C483 H499 0.961 . S
C484 C485 1.370 . S
C484 C486 1.363 . S
C484 H500 0.931 . S
C485 C484 1.370 . S
C485 C489 1.408 . S
C486 C484 1.363 . S
C486 C487 1.370 . S
C486 C490 1.524 . S
C487 C479 1.503 . S
C487 C486 1.370 . S
C487 C488 1.403 . S
C488 C487 1.403 . S
C488 C489 1.404 . S
C488 C491 1.539 . S
C489 C485 1.408 . S
C489 C488 1.404 . S
C489 H501 0.930 . S
C490 C486 1.524 . S
C490 H502 0.956 . S
C490 H503 0.961 . S
C490 H504 0.961 . S
C491 C488 1.539 . S
C491 H505 0.958 . S
C491 H506 0.961 . S
C491 H507 0.960 . S
H492 C476 0.931 . S
H493 C481 0.929 . S
H494 C482 0.960 . S
H495 C482 0.962 . S
H496 C482 0.960 . S
H497 C483 0.961 . S
H498 C483 0.961 . S
H499 C483 0.961 . S
H500 C484 0.931 . S
H501 C489 0.930 . S
H502 C490 0.956 . S
H503 C490 0.961 . S
H504 C490 0.961 . S
H505 C491 0.958 . S
H506 C491 0.961 . S
H507 C491 0.960 . S
C508 C509 1.391 . S
C508 C510 1.394 . S
C508 H524 0.931 . S
C509 C508 1.391 . S
C509 C513 1.376 . S
C510 C508 1.394 . S
C510 C511 1.369 . S
C510 C514 1.531 . S
C511 C510 1.369 . S
C511 C512 1.410 . S
C511 C519 1.503 . S
C512 C511 1.410 . S
C512 C513 1.392 . S
C512 C515 1.511 . S
C513 C509 1.376 . S
C513 C512 1.392 . S
C513 H525 0.929 . S
C514 C510 1.531 . S
C514 H526 0.960 . S
C514 H527 0.962 . S
C514 H528 0.960 . S
C515 C512 1.511 . S
C515 H529 0.961 . S
C515 H530 0.961 . S
C515 H531 0.961 . S
C516 C517 1.370 . S
C516 C518 1.363 . S
C516 H532 0.931 . S
C517 C516 1.370 . S
C517 C521 1.408 . S
C518 C516 1.363 . S
C518 C519 1.370 . S
C518 C522 1.524 . S
C519 C511 1.503 . S
C519 C518 1.370 . S
C519 C520 1.403 . S
C520 C519 1.403 . S
C520 C521 1.404 . S
C520 C523 1.539 . S
C521 C517 1.408 . S
C521 C520 1.404 . S
C521 H533 0.930 . S
C522 C518 1.524 . S
C522 H534 0.956 . S
C522 H535 0.961 . S
C522 H536 0.961 . S
C523 C520 1.539 . S
C523 H537 0.958 . S
C523 H538 0.961 . S
C523 H539 0.960 . S
H524 C508 0.931 . S
H525 C513 0.929 . S
H526 C514 0.960 . S
H527 C514 0.962 . S
H528 C514 0.960 . S
H529 C515 0.961 . S
H530 C515 0.961 . S
H531 C515 0.961 . S
H532 C516 0.931 . S
H533 C521 0.930 . S
H534 C522 0.956 . S
H535 C522 0.961 . S
H536 C522 0.961 . S
H537 C523 0.958 . S
H538 C523 0.961 . S
H539 C523 0.960 . S
C540 C541 1.391 . S
C540 C542 1.394 . S
C540 H556 0.931 . S
C541 C540 1.391 . S
C541 C545 1.376 . S
C542 C540 1.394 . S
C542 C543 1.369 . S
C542 C546 1.531 . S
C543 C542 1.369 . S
C543 C544 1.410 . S
C543 C551 1.503 . S
C544 C543 1.410 . S
C544 C545 1.392 . S
C544 C547 1.511 . S
C545 C541 1.376 . S
C545 C544 1.392 . S
C545 H557 0.929 . S
C546 C542 1.531 . S
C546 H558 0.960 . S
C546 H559 0.962 . S
C546 H560 0.960 . S
C547 C544 1.511 . S
C547 H561 0.961 . S
C547 H562 0.961 . S
C547 H563 0.961 . S
C548 C549 1.370 . S
C548 C550 1.363 . S
C548 H564 0.931 . S
C549 C548 1.370 . S
C549 C553 1.408 . S
C550 C548 1.363 . S
C550 C551 1.370 . S
C550 C554 1.524 . S
C551 C543 1.503 . S
C551 C550 1.370 . S
C551 C552 1.403 . S
C552 C551 1.403 . S
C552 C553 1.404 . S
C552 C555 1.539 . S
C553 C549 1.408 . S
C553 C552 1.404 . S
C553 H565 0.930 . S
C554 C550 1.524 . S
C554 H566 0.956 . S
C554 H567 0.961 . S
C554 H568 0.961 . S
C555 C552 1.539 . S
C555 H569 0.958 . S
C555 H570 0.961 . S
C555 H571 0.960 . S
H556 C540 0.931 . S
H557 C545 0.929 . S
H558 C546 0.960 . S
H559 C546 0.962 . S
H560 C546 0.960 . S
H561 C547 0.961 . S
H562 C547 0.961 . S
H563 C547 0.961 . S
H564 C548 0.931 . S
H565 C553 0.930 . S
H566 C554 0.956 . S
H567 C554 0.961 . S
H568 C554 0.961 . S
H569 C555 0.958 . S
H570 C555 0.961 . S
H571 C555 0.960 . S
C572 C573 1.391 . S
C572 C574 1.394 . S
C572 H588 0.931 . S
C573 C572 1.391 . S
C573 C577 1.376 . S
C574 C572 1.394 . S
C574 C575 1.369 . S
C574 C578 1.531 . S
C575 C574 1.369 . S
C575 C576 1.410 . S
C575 C583 1.503 . S
C576 C575 1.410 . S
C576 C577 1.392 . S
C576 C579 1.511 . S
C577 C573 1.376 . S
C577 C576 1.392 . S
C577 H589 0.929 . S
C578 C574 1.531 . S
C578 H590 0.960 . S
C578 H591 0.962 . S
C578 H592 0.960 . S
C579 C576 1.511 . S
C579 H593 0.961 . S
C579 H594 0.961 . S
C579 H595 0.961 . S
C580 C581 1.370 . S
C580 C582 1.363 . S
C580 H596 0.931 . S
C581 C580 1.370 . S
C581 C585 1.408 . S
C582 C580 1.363 . S
C582 C583 1.370 . S
C582 C586 1.524 . S
C583 C575 1.503 . S
C583 C582 1.370 . S
C583 C584 1.403 . S
C584 C583 1.403 . S
C584 C585 1.404 . S
C584 C587 1.539 . S
C585 C581 1.408 . S
C585 C584 1.404 . S
C585 H597 0.930 1_655 S
C586 C582 1.524 . S
C586 H598 0.956 . S
C586 H599 0.961 . S
C586 H600 0.961 . S
C587 C584 1.539 . S
C587 H601 0.958 . S
C587 H602 0.961 . S
C587 H603 0.960 . S
H588 C572 0.931 . S
H589 C577 0.929 . S
H590 C578 0.960 . S
H591 C578 0.962 . S
H592 C578 0.960 . S
H593 C579 0.961 . S
H594 C579 0.961 . S
H595 C579 0.961 . S
H596 C580 0.931 . S
H597 C585 0.930 1_455 S
H598 C586 0.956 . S
H599 C586 0.961 . S
H600 C586 0.961 . S
H601 C587 0.958 . S
H602 C587 0.961 . S
H603 C587 0.960 . S
C604 C605 1.391 . S
C604 C606 1.394 . S
C604 H620 0.931 . S
C605 C604 1.391 . S
C605 C609 1.376 . S
C606 C604 1.394 . S
C606 C607 1.369 . S
C606 C610 1.531 . S
C607 C606 1.369 . S
C607 C608 1.410 . S
C607 C615 1.503 . S
C608 C607 1.410 . S
C608 C609 1.392 . S
C608 C611 1.511 . S
C609 C605 1.376 . S
C609 C608 1.392 . S
C609 H621 0.929 . S
C610 C606 1.531 . S
C610 H622 0.960 . S
C610 H623 0.962 . S
C610 H624 0.960 . S
C611 C608 1.511 . S
C611 H625 0.961 . S
C611 H626 0.961 . S
C611 H627 0.961 . S
C612 C613 1.370 . S
C612 C614 1.363 . S
C612 H628 0.931 . S
C613 C612 1.370 . S
C613 C617 1.408 . S
C614 C612 1.363 . S
C614 C615 1.370 . S
C614 C618 1.524 . S
C615 C607 1.503 . S
C615 C614 1.370 . S
C615 C616 1.403 . S
C616 C615 1.403 . S
C616 C617 1.404 . S
C616 C619 1.539 . S
C617 C613 1.408 . S
C617 C616 1.404 . S
C617 H629 0.930 . S
C618 C614 1.524 . S
C618 H630 0.956 . S
C618 H631 0.961 . S
C618 H632 0.961 . S
C619 C616 1.539 . S
C619 H633 0.958 . S
C619 H634 0.961 . S
C619 H635 0.960 . S
H620 C604 0.931 . S
H621 C609 0.929 . S
H622 C610 0.960 . S
H623 C610 0.962 . S
H624 C610 0.960 . S
H625 C611 0.961 . S
H626 C611 0.961 . S
H627 C611 0.961 . S
H628 C612 0.931 . S
H629 C617 0.930 . S
H630 C618 0.956 . S
H631 C618 0.961 . S
H632 C618 0.961 . S
H633 C619 0.958 . S
H634 C619 0.961 . S
H635 C619 0.960 . S
C636 C637 1.391 . S
C636 C638 1.394 . S
C636 H652 0.931 . S
C637 C636 1.391 . S
C637 C641 1.376 . S
C638 C636 1.394 . S
C638 C639 1.369 . S
C638 C642 1.531 . S
C639 C638 1.369 . S
C639 C640 1.410 . S
C639 C647 1.503 . S
C640 C639 1.410 . S
C640 C641 1.392 . S
C640 C643 1.511 . S
C641 C637 1.376 . S
C641 C640 1.392 . S
C641 H653 0.929 . S
C642 C638 1.531 . S
C642 H654 0.960 . S
C642 H655 0.962 . S
C642 H656 0.960 . S
C643 C640 1.511 . S
C643 H657 0.961 . S
C643 H658 0.961 . S
C643 H659 0.961 . S
C644 C645 1.370 . S
C644 C646 1.363 . S
C644 H660 0.931 . S
C645 C644 1.370 . S
C645 C649 1.408 . S
C646 C644 1.363 . S
C646 C647 1.370 . S
C646 C650 1.524 . S
C647 C639 1.503 . S
C647 C646 1.370 . S
C647 C648 1.403 . S
C648 C647 1.403 . S
C648 C649 1.404 . S
C648 C651 1.539 . S
C649 C645 1.408 . S
C649 C648 1.404 . S
C649 H661 0.930 . S
C650 C646 1.524 . S
C650 H662 0.956 . S
C650 H663 0.961 . S
C650 H664 0.961 . S
C651 C648 1.539 . S
C651 H665 0.958 . S
C651 H666 0.961 . S
C651 H667 0.960 . S
H652 C636 0.931 . S
H653 C641 0.929 . S
H654 C642 0.960 . S
H655 C642 0.962 . S
H656 C642 0.960 . S
H657 C643 0.961 . S
H658 C643 0.961 . S
H659 C643 0.961 . S
H660 C644 0.931 . S
H661 C649 0.930 . S
H662 C650 0.956 . S
H663 C650 0.961 . S
H664 C650 0.961 . S
H665 C651 0.958 . S
H666 C651 0.961 . S
H667 C651 0.960 . S
C668 C669 1.391 . S
C668 C670 1.394 . S
C668 H684 0.931 . S
C669 C668 1.391 . S
C669 C673 1.376 . S
C670 C668 1.394 . S
C670 C671 1.369 . S
C670 C674 1.531 . S
C671 C670 1.369 . S
C671 C672 1.410 . S
C671 C679 1.503 . S
C672 C671 1.410 . S
C672 C673 1.392 . S
C672 C675 1.511 . S
C673 C669 1.376 . S
C673 C672 1.392 . S
C673 H685 0.929 . S
C674 C670 1.531 . S
C674 H686 0.960 . S
C674 H687 0.962 . S
C674 H688 0.960 . S
C675 C672 1.511 . S
C675 H689 0.961 . S
C675 H690 0.961 . S
C675 H691 0.961 . S
C676 C677 1.370 . S
C676 C678 1.363 . S
C676 H692 0.931 . S
C677 C676 1.370 . S
C677 C681 1.408 . S
C678 C676 1.363 . S
C678 C679 1.370 . S
C678 C682 1.524 . S
C679 C671 1.503 . S
C679 C678 1.370 . S
C679 C680 1.403 . S
C680 C679 1.403 . S
C680 C681 1.404 . S
C680 C683 1.539 . S
C681 C677 1.408 . S
C681 C680 1.404 . S
C681 H693 0.930 . S
C682 C678 1.524 . S
C682 H694 0.956 . S
C682 H695 0.961 . S
C682 H696 0.961 . S
C683 C680 1.539 . S
C683 H697 0.958 . S
C683 H698 0.961 . S
C683 H699 0.960 . S
H684 C668 0.931 . S
H685 C673 0.929 . S
H686 C674 0.960 . S
H687 C674 0.962 . S
H688 C674 0.960 . S
H689 C675 0.961 . S
H690 C675 0.961 . S
H691 C675 0.961 . S
H692 C676 0.931 . S
H693 C681 0.930 . S
H694 C682 0.956 . S
H695 C682 0.961 . S
H696 C682 0.961 . S
H697 C683 0.958 . S
H698 C683 0.961 . S
H699 C683 0.960 . S
C700 C701 1.391 . S
C700 C702 1.394 . S
C700 H716 0.931 . S
C701 C700 1.391 . S
C701 C705 1.376 . S
C702 C700 1.394 . S
C702 C703 1.369 . S
C702 C706 1.531 . S
C703 C702 1.369 . S
C703 C704 1.410 . S
C703 C711 1.503 . S
C704 C703 1.410 . S
C704 C705 1.392 . S
C704 C707 1.511 . S
C705 C701 1.376 . S
C705 C704 1.392 . S
C705 H717 0.929 . S
C706 C702 1.531 . S
C706 H718 0.960 . S
C706 H719 0.962 . S
C706 H720 0.960 . S
C707 C704 1.511 . S
C707 H721 0.961 . S
C707 H722 0.961 . S
C707 H723 0.961 . S
C708 C709 1.370 . S
C708 C710 1.363 . S
C708 H724 0.931 . S
C709 C708 1.370 . S
C709 C713 1.408 . S
C710 C708 1.363 . S
C710 C711 1.370 . S
C710 C714 1.524 . S
C711 C703 1.503 . S
C711 C710 1.370 . S
C711 C712 1.403 . S
C712 C711 1.403 . S
C712 C713 1.404 . S
C712 C715 1.539 . S
C713 C709 1.408 . S
C713 C712 1.404 . S
C713 H725 0.930 . S
C714 C710 1.524 . S
C714 H726 0.956 . S
C714 H727 0.961 . S
C714 H728 0.961 . S
C715 C712 1.539 . S
C715 H729 0.958 . S
C715 H730 0.961 . S
C715 H731 0.960 . S
H716 C700 0.931 . S
H717 C705 0.929 . S
H718 C706 0.960 . S
H719 C706 0.962 . S
H720 C706 0.960 . S
H721 C707 0.961 . S
H722 C707 0.961 . S
H723 C707 0.961 . S
H724 C708 0.931 . S
H725 C713 0.930 . S
H726 C714 0.956 . S
H727 C714 0.961 . S
H728 C714 0.961 . S
H729 C715 0.958 . S
H730 C715 0.961 . S
H731 C715 0.960 . S
C732 C733 1.391 . S
C732 C734 1.394 . S
C732 H748 0.931 . S
C733 C732 1.391 . S
C733 C737 1.376 . S
C734 C732 1.394 . S
C734 C735 1.369 . S
C734 C738 1.531 . S
C735 C734 1.369 . S
C735 C736 1.410 . S
C735 C743 1.503 . S
C736 C735 1.410 . S
C736 C737 1.392 . S
C736 C739 1.511 . S
C737 C733 1.376 . S
C737 C736 1.392 . S
C737 H749 0.929 . S
C738 C734 1.531 . S
C738 H750 0.960 . S
C738 H751 0.962 . S
C738 H752 0.960 . S
C739 C736 1.511 . S
C739 H753 0.961 . S
C739 H754 0.961 . S
C739 H755 0.961 . S
C740 C741 1.370 . S
C740 C742 1.363 . S
C740 H756 0.931 . S
C741 C740 1.370 . S
C741 C745 1.408 . S
C742 C740 1.363 . S
C742 C743 1.370 . S
C742 C746 1.524 . S
C743 C735 1.503 . S
C743 C742 1.370 . S
C743 C744 1.403 . S
C744 C743 1.403 . S
C744 C745 1.404 . S
C744 C747 1.539 . S
C745 C741 1.408 . S
C745 C744 1.404 . S
C745 H757 0.930 . S
C746 C742 1.524 . S
C746 H758 0.956 . S
C746 H759 0.961 . S
C746 H760 0.961 . S
C747 C744 1.539 . S
C747 H761 0.958 . S
C747 H762 0.961 . S
C747 H763 0.960 . S
H748 C732 0.931 . S
H749 C737 0.929 . S
H750 C738 0.960 . S
H751 C738 0.962 . S
H752 C738 0.960 . S
H753 C739 0.961 . S
H754 C739 0.961 . S
H755 C739 0.961 . S
H756 C740 0.931 . S
H757 C745 0.930 . S
H758 C746 0.956 . S
H759 C746 0.961 . S
H760 C746 0.961 . S
H761 C747 0.958 . S
H762 C747 0.961 . S
H763 C747 0.960 . S
C764 C765 1.391 . S
C764 C766 1.394 . S
C764 H780 0.931 . S
C765 C764 1.391 . S
C765 C769 1.376 . S
C766 C764 1.394 . S
C766 C767 1.369 . S
C766 C770 1.531 . S
C767 C766 1.369 . S
C767 C768 1.410 . S
C767 C775 1.503 . S
C768 C767 1.410 . S
C768 C769 1.392 . S
C768 C771 1.511 . S
C769 C765 1.376 . S
C769 C768 1.392 . S
C769 H781 0.929 . S
C770 C766 1.531 . S
C770 H782 0.960 . S
C770 H783 0.962 . S
C770 H784 0.960 . S
C771 C768 1.511 . S
C771 H785 0.961 . S
C771 H786 0.961 . S
C771 H787 0.961 . S
C772 C773 1.370 . S
C772 C774 1.363 . S
C772 H788 0.931 . S
C773 C772 1.370 . S
C773 C777 1.408 . S
C774 C772 1.363 . S
C774 C775 1.370 . S
C774 C778 1.524 . S
C775 C767 1.503 . S
C775 C774 1.370 . S
C775 C776 1.403 . S
C776 C775 1.403 . S
C776 C777 1.404 . S
C776 C779 1.539 . S
C777 C773 1.408 . S
C777 C776 1.404 . S
C777 H789 0.930 . S
C778 C774 1.524 . S
C778 H790 0.956 . S
C778 H791 0.961 . S
C778 H792 0.961 . S
C779 C776 1.539 . S
C779 H793 0.958 . S
C779 H794 0.961 . S
C779 H795 0.960 . S
H780 C764 0.931 . S
H781 C769 0.929 . S
H782 C770 0.960 . S
H783 C770 0.962 . S
H784 C770 0.960 . S
H785 C771 0.961 . S
H786 C771 0.961 . S
H787 C771 0.961 . S
H788 C772 0.931 . S
H789 C777 0.930 . S
H790 C778 0.956 . S
H791 C778 0.961 . S
H792 C778 0.961 . S
H793 C779 0.958 . S
H794 C779 0.961 . S
H795 C779 0.960 . S
C796 C797 1.391 . S
C796 C798 1.394 . S
C796 H812 0.931 . S
C797 C796 1.391 . S
C797 C801 1.376 . S
C798 C796 1.394 . S
C798 C799 1.369 . S
C798 C802 1.531 . S
C799 C798 1.369 . S
C799 C800 1.410 . S
C799 C807 1.503 . S
C800 C799 1.410 . S
C800 C801 1.392 . S
C800 C803 1.511 . S
C801 C797 1.376 . S
C801 C800 1.392 . S
C801 H813 0.929 . S
C802 C798 1.531 . S
C802 H814 0.960 . S
C802 H815 0.962 . S
C802 H816 0.960 . S
C803 C800 1.511 . S
C803 H817 0.961 . S
C803 H818 0.961 . S
C803 H819 0.961 . S
C804 C805 1.370 . S
C804 C806 1.363 . S
C804 H820 0.931 . S
C805 C804 1.370 . S
C805 C809 1.408 . S
C806 C804 1.363 . S
C806 C807 1.370 . S
C806 C810 1.524 . S
C807 C799 1.503 . S
C807 C806 1.370 . S
C807 C808 1.403 . S
C808 C807 1.403 . S
C808 C809 1.404 . S
C808 C811 1.539 . S
C809 C805 1.408 . S
C809 C808 1.404 . S
C809 H821 0.930 . S
C810 C806 1.524 . S
C810 H822 0.956 . S
C810 H823 0.961 . S
C810 H824 0.961 . S
C811 C808 1.539 . S
C811 H825 0.958 . S
C811 H826 0.961 . S
C811 H827 0.960 . S
H812 C796 0.931 . S
H813 C801 0.929 . S
H814 C802 0.960 . S
H815 C802 0.962 . S
H816 C802 0.960 . S
H817 C803 0.961 . S
H818 C803 0.961 . S
H819 C803 0.961 . S
H820 C804 0.931 . S
H821 C809 0.930 . S
H822 C810 0.956 . S
H823 C810 0.961 . S
H824 C810 0.961 . S
H825 C811 0.958 . S
H826 C811 0.961 . S
H827 C811 0.960 . S
C828 C829 1.391 . S
C828 C830 1.394 . S
C828 H844 0.931 . S
C829 C828 1.391 . S
C829 C833 1.376 . S
C830 C828 1.394 . S
C830 C831 1.369 . S
C830 C834 1.531 . S
C831 C830 1.369 . S
C831 C832 1.410 . S
C831 C839 1.503 . S
C832 C831 1.410 . S
C832 C833 1.392 . S
C832 C835 1.511 . S
C833 C829 1.376 . S
C833 C832 1.392 . S
C833 H845 0.929 . S
C834 C830 1.531 . S
C834 H846 0.960 . S
C834 H847 0.962 . S
C834 H848 0.960 . S
C835 C832 1.511 . S
C835 H849 0.961 . S
C835 H850 0.961 . S
C835 H851 0.961 . S
C836 C837 1.370 . S
C836 C838 1.363 . S
C836 H852 0.931 . S
C837 C836 1.370 . S
C837 C841 1.408 . S
C838 C836 1.363 . S
C838 C839 1.370 . S
C838 C842 1.524 . S
C839 C831 1.503 . S
C839 C838 1.370 . S
C839 C840 1.403 . S
C840 C839 1.403 . S
C840 C841 1.404 . S
C840 C843 1.539 . S
C841 C837 1.408 . S
C841 C840 1.404 . S
C841 H853 0.930 . S
C842 C838 1.524 . S
C842 H854 0.956 . S
C842 H855 0.961 . S
C842 H856 0.961 . S
C843 C840 1.539 . S
C843 H857 0.958 . S
C843 H858 0.961 . S
C843 H859 0.960 . S
H844 C828 0.931 . S
H845 C833 0.929 . S
H846 C834 0.960 . S
H847 C834 0.962 . S
H848 C834 0.960 . S
H849 C835 0.961 . S
H850 C835 0.961 . S
H851 C835 0.961 . S
H852 C836 0.931 . S
H853 C841 0.930 . S
H854 C842 0.956 . S
H855 C842 0.961 . S
H856 C842 0.961 . S
H857 C843 0.958 . S
H858 C843 0.961 . S
H859 C843 0.960 . S
C860 C861 1.391 . S
C860 C862 1.394 . S
C860 H876 0.931 . S
C861 C860 1.391 . S
C861 C865 1.376 . S
C862 C860 1.394 . S
C862 C863 1.369 . S
C862 C866 1.531 . S
C863 C862 1.369 . S
C863 C864 1.410 . S
C863 C871 1.503 . S
C864 C863 1.410 . S
C864 C865 1.392 . S
C864 C867 1.511 . S
C865 C861 1.376 . S
C865 C864 1.392 . S
C865 H877 0.929 . S
C866 C862 1.531 . S
C866 H878 0.960 . S
C866 H879 0.962 . S
C866 H880 0.960 . S
C867 C864 1.511 . S
C867 H881 0.961 . S
C867 H882 0.961 . S
C867 H883 0.961 . S
C868 C869 1.370 . S
C868 C870 1.363 . S
C868 H884 0.931 . S
C869 C868 1.370 . S
C869 C873 1.408 . S
C870 C868 1.363 . S
C870 C871 1.370 . S
C870 C874 1.524 . S
C871 C863 1.503 . S
C871 C870 1.370 . S
C871 C872 1.403 . S
C872 C871 1.403 . S
C872 C873 1.404 . S
C872 C875 1.539 . S
C873 C869 1.408 . S
C873 C872 1.404 . S
C873 H885 0.930 . S
C874 C870 1.524 . S
C874 H886 0.956 . S
C874 H887 0.961 . S
C874 H888 0.961 . S
C875 C872 1.539 . S
C875 H889 0.958 . S
C875 H890 0.961 . S
C875 H891 0.960 . S
H876 C860 0.931 . S
H877 C865 0.929 . S
H878 C866 0.960 . S
H879 C866 0.962 . S
H880 C866 0.960 . S
H881 C867 0.961 . S
H882 C867 0.961 . S
H883 C867 0.961 . S
H884 C868 0.931 . S
H885 C873 0.930 . S
H886 C874 0.956 . S
H887 C874 0.961 . S
H888 C874 0.961 . S
H889 C875 0.958 . S
H890 C875 0.961 . S
H891 C875 0.960 . S
C892 C893 1.391 . S
C892 C894 1.394 . S
C892 H908 0.931 . S
C893 C892 1.391 . S
C893 C897 1.376 . S
C894 C892 1.394 . S
C894 C895 1.369 . S
C894 C898 1.531 . S
C895 C894 1.369 . S
C895 C896 1.410 . S
C895 C903 1.503 . S
C896 C895 1.410 . S
C896 C897 1.392 . S
C896 C899 1.511 . S
C897 C893 1.376 . S
C897 C896 1.392 . S
C897 H909 0.929 . S
C898 C894 1.531 . S
C898 H910 0.960 . S
C898 H911 0.962 . S
C898 H912 0.960 . S
C899 C896 1.511 . S
C899 H913 0.961 . S
C899 H914 0.961 . S
C899 H915 0.961 . S
C900 C901 1.370 . S
C900 C902 1.363 . S
C900 H916 0.931 . S
C901 C900 1.370 . S
C901 C905 1.408 . S
C902 C900 1.363 . S
C902 C903 1.370 . S
C902 C906 1.524 . S
C903 C895 1.503 . S
C903 C902 1.370 . S
C903 C904 1.403 . S
C904 C903 1.403 . S
C904 C905 1.404 . S
C904 C907 1.539 . S
C905 C901 1.408 . S
C905 C904 1.404 . S
C905 H917 0.930 . S
C906 C902 1.524 . S
C906 H918 0.956 . S
C906 H919 0.961 . S
C906 H920 0.961 . S
C907 C904 1.539 . S
C907 H921 0.958 . S
C907 H922 0.961 . S
C907 H923 0.960 . S
H908 C892 0.931 . S
H909 C897 0.929 . S
H910 C898 0.960 . S
H911 C898 0.962 . S
H912 C898 0.960 . S
H913 C899 0.961 . S
H914 C899 0.961 . S
H915 C899 0.961 . S
H916 C900 0.931 . S
H917 C905 0.930 . S
H918 C906 0.956 . S
H919 C906 0.961 . S
H920 C906 0.961 . S
H921 C907 0.958 . S
H922 C907 0.961 . S
H923 C907 0.960 . S
C924 C925 1.391 . S
C924 C926 1.394 . S
C924 H940 0.931 . S
C925 C924 1.391 . S
C925 C929 1.376 . S
C926 C924 1.394 . S
C926 C927 1.369 . S
C926 C930 1.531 . S
C927 C926 1.369 . S
C927 C928 1.410 . S
C927 C935 1.503 . S
C928 C927 1.410 . S
C928 C929 1.392 . S
C928 C931 1.511 . S
C929 C925 1.376 . S
C929 C928 1.392 . S
C929 H941 0.929 . S
C930 C926 1.531 . S
C930 H942 0.960 . S
C930 H943 0.962 . S
C930 H944 0.960 . S
C931 C928 1.511 . S
C931 H945 0.961 . S
C931 H946 0.961 . S
C931 H947 0.961 . S
C932 C933 1.370 1_554 S
C932 C934 1.363 1_554 S
C932 H948 0.931 . S
C933 C932 1.370 1_556 S
C933 C937 1.408 . S
C934 C932 1.363 1_556 S
C934 C935 1.370 . S
C934 C938 1.524 . S
C935 C927 1.503 . S
C935 C934 1.370 . S
C935 C936 1.403 . S
C936 C935 1.403 . S
C936 C937 1.404 . S
C936 C939 1.539 . S
C937 C933 1.408 . S
C937 C936 1.404 . S
C937 H949 0.930 . S
C938 C934 1.524 . S
C938 H950 0.956 . S
C938 H951 0.961 . S
C938 H952 0.961 1_556 S
C939 C936 1.539 . S
C939 H953 0.958 . S
C939 H954 0.961 . S
C939 H955 0.960 . S
H940 C924 0.931 . S
H941 C929 0.929 . S
H942 C930 0.960 . S
H943 C930 0.962 . S
H944 C930 0.960 . S
H945 C931 0.961 . S
H946 C931 0.961 . S
H947 C931 0.961 . S
H948 C932 0.931 . S
H949 C937 0.930 . S
H950 C938 0.956 . S
H951 C938 0.961 . S
H952 C938 0.961 1_554 S
H953 C939 0.958 . S
H954 C939 0.961 . S
H955 C939 0.960 . S
C197 C116 1.641 . S
C189 C8 1.646 . S
C229 C119 1.569 . S
C221 C22 1.552 . S
C261 C117 1.582 . S
C253 C30 1.590 . S
C293 C118 1.389 . S
C285 C47 1.383 . S
C325 C133 1.699 . S
C317 C9 1.696 . S
C357 C147 1.644 . S
C349 C17 1.573 . S
C381 C34 1.521 . S
C389 C173 1.511 . S
C421 C187 1.596 . S
C413 C48 1.607 . S
C453 C132 1.715 . S
C445 C21 1.713 . S
C477 C35 1.628 . S
C485 C146 1.671 . S
C517 C172 1.374 . S
C509 C43 1.303 . S
C549 C186 1.598 . S
C541 C4 1.554 . S
C573 C56 1.420 . S
C581 C131 1.454 1_655 S
C613 C104 1.591 . S
C605 C73 1.589 . S
C637 C87 1.595 . S
C645 C130 1.600 . S
C669 C100 1.730 . S
C677 C105 1.712 . S
C709 C160 1.612 . S
C701 C60 1.617 . S
C741 C174 1.476 . S
C733 C69 1.395 . S
C773 C144 1.794 . S
C765 C86 1.799 . S
C797 C95 1.400 . S
C805 C158 1.491 . S
C837 C161 1.606 . S
C829 C74 1.632 . S
C869 C175 1.486 . S
C861 C82 1.387 . S
C901 C145 1.843 . S
C893 C99 1.858 . S
C925 C61 1.518 . S
C933 C159 1.552 1_556 S
