# Generated by pormake.
# Topology tbo, (3,4)-cn, num edge types: 1
# Building blocks:
#     Node 0, Type 0, BuildingBlock: BETDIP_clean_linker_0, # of connection points: 3
#     Node 1, Type 0, BuildingBlock: BETDIP_clean_linker_0, # of connection points: 3
#     Node 2, Type 0, BuildingBlock: BETDIP_clean_linker_0, # of connection points: 3
#     Node 3, Type 0, BuildingBlock: BETDIP_clean_linker_0, # of connection points: 3
#     Node 4, Type 0, BuildingBlock: BETDIP_clean_linker_0, # of connection points: 3
#     Node 5, Type 0, BuildingBlock: BETDIP_clean_linker_0, # of connection points: 3
#     Node 6, Type 0, BuildingBlock: BETDIP_clean_linker_0, # of connection points: 3
#     Node 7, Type 0, BuildingBlock: BETDIP_clean_linker_0, # of connection points: 3
#     Node 8, Type 0, BuildingBlock: BETDIP_clean_linker_0, # of connection points: 3
#     Node 9, Type 0, BuildingBlock: BETDIP_clean_linker_0, # of connection points: 3
#     Node 10, Type 0, BuildingBlock: BETDIP_clean_linker_0, # of connection points: 3
#     Node 11, Type 0, BuildingBlock: BETDIP_clean_linker_0, # of connection points: 3
#     Node 12, Type 0, BuildingBlock: BETDIP_clean_linker_0, # of connection points: 3
#     Node 13, Type 0, BuildingBlock: BETDIP_clean_linker_0, # of connection points: 3
#     Node 14, Type 0, BuildingBlock: BETDIP_clean_linker_0, # of connection points: 3
#     Node 15, Type 0, BuildingBlock: BETDIP_clean_linker_0, # of connection points: 3
#     Node 16, Type 0, BuildingBlock: BETDIP_clean_linker_0, # of connection points: 3
#     Node 17, Type 0, BuildingBlock: BETDIP_clean_linker_0, # of connection points: 3
#     Node 18, Type 0, BuildingBlock: BETDIP_clean_linker_0, # of connection points: 3
#     Node 19, Type 0, BuildingBlock: BETDIP_clean_linker_0, # of connection points: 3
#     Node 20, Type 0, BuildingBlock: BETDIP_clean_linker_0, # of connection points: 3
#     Node 21, Type 0, BuildingBlock: BETDIP_clean_linker_0, # of connection points: 3
#     Node 22, Type 0, BuildingBlock: BETDIP_clean_linker_0, # of connection points: 3
#     Node 23, Type 0, BuildingBlock: BETDIP_clean_linker_0, # of connection points: 3
#     Node 24, Type 0, BuildingBlock: BETDIP_clean_linker_0, # of connection points: 3
#     Node 25, Type 0, BuildingBlock: BETDIP_clean_linker_0, # of connection points: 3
#     Node 26, Type 0, BuildingBlock: BETDIP_clean_linker_0, # of connection points: 3
#     Node 27, Type 0, BuildingBlock: BETDIP_clean_linker_0, # of connection points: 3
#     Node 28, Type 0, BuildingBlock: BETDIP_clean_linker_0, # of connection points: 3
#     Node 29, Type 0, BuildingBlock: BETDIP_clean_linker_0, # of connection points: 3
#     Node 30, Type 0, BuildingBlock: BETDIP_clean_linker_0, # of connection points: 3
#     Node 31, Type 0, BuildingBlock: BETDIP_clean_linker_0, # of connection points: 3
#     Node 32, Type 1, BuildingBlock: ESEHIV_clean_sbu_0, # of connection points: 4
#     Node 33, Type 1, BuildingBlock: ESEHIV_clean_sbu_0, # of connection points: 4
#     Node 34, Type 1, BuildingBlock: ESEHIV_clean_sbu_0, # of connection points: 4
#     Node 35, Type 1, BuildingBlock: ESEHIV_clean_sbu_0, # of connection points: 4
#     Node 36, Type 1, BuildingBlock: ESEHIV_clean_sbu_0, # of connection points: 4
#     Node 37, Type 1, BuildingBlock: ESEHIV_clean_sbu_0, # of connection points: 4
#     Node 38, Type 1, BuildingBlock: ESEHIV_clean_sbu_0, # of connection points: 4
#     Node 39, Type 1, BuildingBlock: ESEHIV_clean_sbu_0, # of connection points: 4
#     Node 40, Type 1, BuildingBlock: ESEHIV_clean_sbu_0, # of connection points: 4
#     Node 41, Type 1, BuildingBlock: ESEHIV_clean_sbu_0, # of connection points: 4
#     Node 42, Type 1, BuildingBlock: ESEHIV_clean_sbu_0, # of connection points: 4
#     Node 43, Type 1, BuildingBlock: ESEHIV_clean_sbu_0, # of connection points: 4
#     Node 44, Type 1, BuildingBlock: ESEHIV_clean_sbu_0, # of connection points: 4
#     Node 45, Type 1, BuildingBlock: ESEHIV_clean_sbu_0, # of connection points: 4
#     Node 46, Type 1, BuildingBlock: ESEHIV_clean_sbu_0, # of connection points: 4
#     Node 47, Type 1, BuildingBlock: ESEHIV_clean_sbu_0, # of connection points: 4
#     Node 48, Type 1, BuildingBlock: ESEHIV_clean_sbu_0, # of connection points: 4
#     Node 49, Type 1, BuildingBlock: ESEHIV_clean_sbu_0, # of connection points: 4
#     Node 50, Type 1, BuildingBlock: ESEHIV_clean_sbu_0, # of connection points: 4
#     Node 51, Type 1, BuildingBlock: ESEHIV_clean_sbu_0, # of connection points: 4
#     Node 52, Type 1, BuildingBlock: ESEHIV_clean_sbu_0, # of connection points: 4
#     Node 53, Type 1, BuildingBlock: ESEHIV_clean_sbu_0, # of connection points: 4
#     Node 54, Type 1, BuildingBlock: ESEHIV_clean_sbu_0, # of connection points: 4
#     Node 55, Type 1, BuildingBlock: ESEHIV_clean_sbu_0, # of connection points: 4
#     Edge 56, Type (0, 1), BuildingBlock: XIVTED_clean_linker_0, # of connection points: 2
#     Edge 57, Type (0, 1), BuildingBlock: XIVTED_clean_linker_0, # of connection points: 2
#     Edge 58, Type (0, 1), BuildingBlock: XIVTED_clean_linker_0, # of connection points: 2
#     Edge 59, Type (0, 1), BuildingBlock: XIVTED_clean_linker_0, # of connection points: 2
#     Edge 60, Type (0, 1), BuildingBlock: XIVTED_clean_linker_0, # of connection points: 2
#     Edge 61, Type (0, 1), BuildingBlock: XIVTED_clean_linker_0, # of connection points: 2
#     Edge 62, Type (0, 1), BuildingBlock: XIVTED_clean_linker_0, # of connection points: 2
#     Edge 63, Type (0, 1), BuildingBlock: XIVTED_clean_linker_0, # of connection points: 2
#     Edge 64, Type (0, 1), BuildingBlock: XIVTED_clean_linker_0, # of connection points: 2
#     Edge 65, Type (0, 1), BuildingBlock: XIVTED_clean_linker_0, # of connection points: 2
#     Edge 66, Type (0, 1), BuildingBlock: XIVTED_clean_linker_0, # of connection points: 2
#     Edge 67, Type (0, 1), BuildingBlock: XIVTED_clean_linker_0, # of connection points: 2
#     Edge 68, Type (0, 1), BuildingBlock: XIVTED_clean_linker_0, # of connection points: 2
#     Edge 69, Type (0, 1), BuildingBlock: XIVTED_clean_linker_0, # of connection points: 2
#     Edge 70, Type (0, 1), BuildingBlock: XIVTED_clean_linker_0, # of connection points: 2
#     Edge 71, Type (0, 1), BuildingBlock: XIVTED_clean_linker_0, # of connection points: 2
#     Edge 72, Type (0, 1), BuildingBlock: XIVTED_clean_linker_0, # of connection points: 2
#     Edge 73, Type (0, 1), BuildingBlock: XIVTED_clean_linker_0, # of connection points: 2
#     Edge 74, Type (0, 1), BuildingBlock: XIVTED_clean_linker_0, # of connection points: 2
#     Edge 75, Type (0, 1), BuildingBlock: XIVTED_clean_linker_0, # of connection points: 2
#     Edge 76, Type (0, 1), BuildingBlock: XIVTED_clean_linker_0, # of connection points: 2
#     Edge 77, Type (0, 1), BuildingBlock: XIVTED_clean_linker_0, # of connection points: 2
#     Edge 78, Type (0, 1), BuildingBlock: XIVTED_clean_linker_0, # of connection points: 2
#     Edge 79, Type (0, 1), BuildingBlock: XIVTED_clean_linker_0, # of connection points: 2
#     Edge 80, Type (0, 1), BuildingBlock: XIVTED_clean_linker_0, # of connection points: 2
#     Edge 81, Type (0, 1), BuildingBlock: XIVTED_clean_linker_0, # of connection points: 2
#     Edge 82, Type (0, 1), BuildingBlock: XIVTED_clean_linker_0, # of connection points: 2
#     Edge 83, Type (0, 1), BuildingBlock: XIVTED_clean_linker_0, # of connection points: 2
#     Edge 84, Type (0, 1), BuildingBlock: XIVTED_clean_linker_0, # of connection points: 2
#     Edge 85, Type (0, 1), BuildingBlock: XIVTED_clean_linker_0, # of connection points: 2
#     Edge 86, Type (0, 1), BuildingBlock: XIVTED_clean_linker_0, # of connection points: 2
#     Edge 87, Type (0, 1), BuildingBlock: XIVTED_clean_linker_0, # of connection points: 2
#     Edge 88, Type (0, 1), BuildingBlock: XIVTED_clean_linker_0, # of connection points: 2
#     Edge 89, Type (0, 1), BuildingBlock: XIVTED_clean_linker_0, # of connection points: 2
#     Edge 90, Type (0, 1), BuildingBlock: XIVTED_clean_linker_0, # of connection points: 2
#     Edge 91, Type (0, 1), BuildingBlock: XIVTED_clean_linker_0, # of connection points: 2
#     Edge 92, Type (0, 1), BuildingBlock: XIVTED_clean_linker_0, # of connection points: 2
#     Edge 93, Type (0, 1), BuildingBlock: XIVTED_clean_linker_0, # of connection points: 2
#     Edge 94, Type (0, 1), BuildingBlock: XIVTED_clean_linker_0, # of connection points: 2
#     Edge 95, Type (0, 1), BuildingBlock: XIVTED_clean_linker_0, # of connection points: 2
#     Edge 96, Type (0, 1), BuildingBlock: XIVTED_clean_linker_0, # of connection points: 2
#     Edge 97, Type (0, 1), BuildingBlock: XIVTED_clean_linker_0, # of connection points: 2
#     Edge 98, Type (0, 1), BuildingBlock: XIVTED_clean_linker_0, # of connection points: 2
#     Edge 99, Type (0, 1), BuildingBlock: XIVTED_clean_linker_0, # of connection points: 2
#     Edge 100, Type (0, 1), BuildingBlock: XIVTED_clean_linker_0, # of connection points: 2
#     Edge 101, Type (0, 1), BuildingBlock: XIVTED_clean_linker_0, # of connection points: 2
#     Edge 102, Type (0, 1), BuildingBlock: XIVTED_clean_linker_0, # of connection points: 2
#     Edge 103, Type (0, 1), BuildingBlock: XIVTED_clean_linker_0, # of connection points: 2
#     Edge 104, Type (0, 1), BuildingBlock: XIVTED_clean_linker_0, # of connection points: 2
#     Edge 105, Type (0, 1), BuildingBlock: XIVTED_clean_linker_0, # of connection points: 2
#     Edge 106, Type (0, 1), BuildingBlock: XIVTED_clean_linker_0, # of connection points: 2
#     Edge 107, Type (0, 1), BuildingBlock: XIVTED_clean_linker_0, # of connection points: 2
#     Edge 108, Type (0, 1), BuildingBlock: XIVTED_clean_linker_0, # of connection points: 2
#     Edge 109, Type (0, 1), BuildingBlock: XIVTED_clean_linker_0, # of connection points: 2
#     Edge 110, Type (0, 1), BuildingBlock: XIVTED_clean_linker_0, # of connection points: 2
#     Edge 111, Type (0, 1), BuildingBlock: XIVTED_clean_linker_0, # of connection points: 2
#     Edge 112, Type (0, 1), BuildingBlock: XIVTED_clean_linker_0, # of connection points: 2
#     Edge 113, Type (0, 1), BuildingBlock: XIVTED_clean_linker_0, # of connection points: 2
#     Edge 114, Type (0, 1), BuildingBlock: XIVTED_clean_linker_0, # of connection points: 2
#     Edge 115, Type (0, 1), BuildingBlock: XIVTED_clean_linker_0, # of connection points: 2
#     Edge 116, Type (0, 1), BuildingBlock: XIVTED_clean_linker_0, # of connection points: 2
#     Edge 117, Type (0, 1), BuildingBlock: XIVTED_clean_linker_0, # of connection points: 2
#     Edge 118, Type (0, 1), BuildingBlock: XIVTED_clean_linker_0, # of connection points: 2
#     Edge 119, Type (0, 1), BuildingBlock: XIVTED_clean_linker_0, # of connection points: 2
#     Edge 120, Type (0, 1), BuildingBlock: XIVTED_clean_linker_0, # of connection points: 2
#     Edge 121, Type (0, 1), BuildingBlock: XIVTED_clean_linker_0, # of connection points: 2
#     Edge 122, Type (0, 1), BuildingBlock: XIVTED_clean_linker_0, # of connection points: 2
#     Edge 123, Type (0, 1), BuildingBlock: XIVTED_clean_linker_0, # of connection points: 2
#     Edge 124, Type (0, 1), BuildingBlock: XIVTED_clean_linker_0, # of connection points: 2
#     Edge 125, Type (0, 1), BuildingBlock: XIVTED_clean_linker_0, # of connection points: 2
#     Edge 126, Type (0, 1), BuildingBlock: XIVTED_clean_linker_0, # of connection points: 2
#     Edge 127, Type (0, 1), BuildingBlock: XIVTED_clean_linker_0, # of connection points: 2
#     Edge 128, Type (0, 1), BuildingBlock: XIVTED_clean_linker_0, # of connection points: 2
#     Edge 129, Type (0, 1), BuildingBlock: XIVTED_clean_linker_0, # of connection points: 2
#     Edge 130, Type (0, 1), BuildingBlock: XIVTED_clean_linker_0, # of connection points: 2
#     Edge 131, Type (0, 1), BuildingBlock: XIVTED_clean_linker_0, # of connection points: 2
#     Edge 132, Type (0, 1), BuildingBlock: XIVTED_clean_linker_0, # of connection points: 2
#     Edge 133, Type (0, 1), BuildingBlock: XIVTED_clean_linker_0, # of connection points: 2
#     Edge 134, Type (0, 1), BuildingBlock: XIVTED_clean_linker_0, # of connection points: 2
#     Edge 135, Type (0, 1), BuildingBlock: XIVTED_clean_linker_0, # of connection points: 2
#     Edge 136, Type (0, 1), BuildingBlock: XIVTED_clean_linker_0, # of connection points: 2
#     Edge 137, Type (0, 1), BuildingBlock: XIVTED_clean_linker_0, # of connection points: 2
#     Edge 138, Type (0, 1), BuildingBlock: XIVTED_clean_linker_0, # of connection points: 2
#     Edge 139, Type (0, 1), BuildingBlock: XIVTED_clean_linker_0, # of connection points: 2
#     Edge 140, Type (0, 1), BuildingBlock: XIVTED_clean_linker_0, # of connection points: 2
#     Edge 141, Type (0, 1), BuildingBlock: XIVTED_clean_linker_0, # of connection points: 2
#     Edge 142, Type (0, 1), BuildingBlock: XIVTED_clean_linker_0, # of connection points: 2
#     Edge 143, Type (0, 1), BuildingBlock: XIVTED_clean_linker_0, # of connection points: 2
#     Edge 144, Type (0, 1), BuildingBlock: XIVTED_clean_linker_0, # of connection points: 2
#     Edge 145, Type (0, 1), BuildingBlock: XIVTED_clean_linker_0, # of connection points: 2
#     Edge 146, Type (0, 1), BuildingBlock: XIVTED_clean_linker_0, # of connection points: 2
#     Edge 147, Type (0, 1), BuildingBlock: XIVTED_clean_linker_0, # of connection points: 2
#     Edge 148, Type (0, 1), BuildingBlock: XIVTED_clean_linker_0, # of connection points: 2
#     Edge 149, Type (0, 1), BuildingBlock: XIVTED_clean_linker_0, # of connection points: 2
#     Edge 150, Type (0, 1), BuildingBlock: XIVTED_clean_linker_0, # of connection points: 2
#     Edge 151, Type (0, 1), BuildingBlock: XIVTED_clean_linker_0, # of connection points: 2
# Relax obj value: 0.046
# Max RMSD: 0.172
# Mean RMSD: 0.122
data_MOF--net-tbo--node1-ESEHIV_clean_sbu_0--node2-BETDIP_clean_linker_0--edge1-XIVTED_clean_linker_0
_symmetry_space_group_name_H-M    P1
_symmetry_Int_Tables_number       1
_symmetry_cell_setting            triclinic
loop_
_symmetry_equiv_pos_as_xyz
'x, y, z'
_cell_length_a     71.162484
_cell_length_b     70.132883
_cell_length_c     76.272034
_cell_angle_alpha  95.642161
_cell_angle_beta   85.963338
_cell_angle_gamma 101.08068
loop_
_atom_site_label
_atom_site_type_symbol
_atom_site_fract_x
_atom_site_fract_y
_atom_site_fract_z
_atom_type_partial_charge
H0 H 0.15596 0.1685 0.22364 0.0
H1 H 0.20239 0.17866 0.18454 0.0
H2 H 0.15799 0.21284 0.18793 0.0
H3 H 0.20657 0.14921 0.18929 0.0
C4 C 0.20195 0.14702 0.20293 0.0
C5 C 0.16282 0.17633 0.21263 0.0
C6 C 0.15473 0.19116 0.20669 0.0
C7 C 0.17985 0.17155 0.20468 0.0
C8 C 0.18911 0.182 0.19067 0.0
C9 C 0.18132 0.1969 0.18445 0.0
C10 C 0.1641 0.20137 0.19257 0.0
N11 N 0.18747 0.1566 0.21152 0.0
H12 H 0.87669 0.23283 0.14903 0.0
H13 H 0.83332 0.18113 0.14062 0.0
H14 H 0.8654 0.19047 0.18732 0.0
H15 H 0.82012 0.20124 0.12571 0.0
C16 C 0.83226 0.21003 0.11905 0.0
C17 C 0.86886 0.2191 0.15331 0.0
C18 C 0.87261 0.21301 0.1695 0.0
C19 C 0.85432 0.208 0.14301 0.0
C20 C 0.8442 0.19009 0.14861 0.0
C21 C 0.84802 0.18373 0.16468 0.0
C22 C 0.86219 0.19535 0.17499 0.0
N23 N 0.85016 0.21528 0.1272 0.0
H24 H 0.88122 0.83432 0.17305 0.0
H25 H 0.88003 0.87497 0.21921 0.0
H26 H 0.84308 0.87546 0.17719 0.0
H27 H 0.9007 0.8596 0.22967 0.0
C28 C 0.90456 0.84812 0.22034 0.0
C29 C 0.87541 0.84615 0.18031 0.0
C30 C 0.86139 0.85406 0.17288 0.0
C31 C 0.8823 0.85338 0.19696 0.0
C32 C 0.87506 0.86913 0.20637 0.0
C33 C 0.86077 0.8771 0.19928 0.0
C34 C 0.85414 0.86944 0.18259 0.0
N35 N 0.89628 0.84411 0.20356 0.0
H36 H 0.1684 0.79063 0.20408 0.0
H37 H 0.21756 0.82607 0.17943 0.0
H38 H 0.18868 0.84927 0.22566 0.0
H39 H 0.16463 0.77715 0.17611 0.0
C40 C 0.17898 0.77724 0.17023 0.0
C41 C 0.17859 0.8042 0.20361 0.0
C42 C 0.17683 0.81968 0.21639 0.0
C43 C 0.19318 0.80651 0.19009 0.0
C44 C 0.20641 0.82413 0.18988 0.0
C45 C 0.20475 0.8395 0.20272 0.0
C46 C 0.19001 0.83721 0.21588 0.0
N47 N 0.1946 0.79174 0.17621 0.0
H48 H 0.15246 0.84523 0.86709 0.0
H49 H 0.20329 0.88984 0.86924 0.0
H50 H 0.16846 0.88206 0.82448 0.0
H51 H 0.20868 0.87798 0.89372 0.0
C52 C 0.19768 0.86561 0.89683 0.0
C53 C 0.16214 0.857 0.86111 0.0
C54 C 0.15832 0.8625 0.84467 0.0
C55 C 0.17833 0.86648 0.87007 0.0
C56 C 0.19077 0.88211 0.86261 0.0
C57 C 0.18717 0.88769 0.84613 0.0
C58 C 0.17104 0.87779 0.83725 0.0
N59 N 0.18157 0.85936 0.88624 0.0
H60 H 0.23099 0.2033 0.8974 0.0
H61 H 0.24224 0.17234 0.84757 0.0
H62 H 0.27638 0.16996 0.89148 0.0
H63 H 0.2297 0.1978 0.83769 0.0
C64 C 0.21761 0.19855 0.84709 0.0
C65 C 0.23928 0.19391 0.8894 0.0
C66 C 0.25435 0.18744 0.89672 0.0
C67 C 0.23506 0.18895 0.87166 0.0
C68 C 0.24584 0.17687 0.86109 0.0
C69 C 0.26069 0.16975 0.86816 0.0
C70 C 0.26493 0.17527 0.88597 0.0
N71 N 0.21944 0.19578 0.86511 0.0
H72 H 0.86152 0.26786 0.83396 0.0
H73 H 0.91383 0.30898 0.82864 0.0
H74 H 0.91427 0.25389 0.84891 0.0
H75 H 0.84856 0.31029 0.82369 0.0
C76 C 0.85891 0.30714 0.83227 0.0
C77 C 0.87675 0.27175 0.83589 0.0
C78 C 0.88655 0.25841 0.84224 0.0
C79 C 0.88664 0.28993 0.8311 0.0
C80 C 0.90648 0.29484 0.83236 0.0
C81 C 0.91665 0.28198 0.8389 0.0
C82 C 0.9065 0.26389 0.84397 0.0
N83 N 0.87678 0.30336 0.82466 0.0
H84 H 0.83796 0.89999 0.88637 0.0
H85 H 0.87918 0.89302 0.84332 0.0
H86 H 0.86964 0.85338 0.88404 0.0
H87 H 0.87771 0.92489 0.83962 0.0
C88 C 0.8634 0.92674 0.84444 0.0
C89 C 0.84878 0.8923 0.87999 0.0
C90 C 0.85252 0.87577 0.88711 0.0
C91 C 0.85852 0.89889 0.86445 0.0
C92 C 0.87211 0.88856 0.85568 0.0
C93 C 0.87592 0.87179 0.86253 0.0
C94 C 0.86626 0.86581 0.87836 0.0
N95 N 0.85328 0.91526 0.85772 0.0
H96 H 0.1588 0.68259 0.71197 0.0
H97 H 0.20073 0.68345 0.66861 0.0
H98 H 0.15486 0.7153 0.66788 0.0
H99 H 0.21816 0.67332 0.68719 0.0
C100 C 0.20838 0.66496 0.6964 0.0
C101 C 0.16439 0.68763 0.69931 0.0
C102 C 0.15489 0.69974 0.69093 0.0
C103 C 0.18095 0.68174 0.69149 0.0
C104 C 0.18805 0.688 0.67491 0.0
C105 C 0.17883 0.70021 0.66627 0.0
C106 C 0.16217 0.70598 0.67439 0.0
N107 N 0.18967 0.66908 0.70047 0.0
H108 H 0.87626 0.7367 0.64848 0.0
H109 H 0.83278 0.68479 0.64366 0.0
H110 H 0.86824 0.69637 0.68841 0.0
H111 H 0.81894 0.70436 0.62708 0.0
C112 C 0.83096 0.71362 0.62073 0.0
C113 C 0.86881 0.72325 0.65362 0.0
C114 C 0.87382 0.71806 0.66969 0.0
C115 C 0.85372 0.7117 0.64441 0.0
C116 C 0.84408 0.69411 0.65095 0.0
C117 C 0.84926 0.68844 0.66691 0.0
C118 C 0.86396 0.70068 0.67624 0.0
N119 N 0.84903 0.71831 0.62853 0.0
H120 H 0.90802 0.34288 0.6851 0.0
H121 H 0.91191 0.38998 0.72612 0.0
H122 H 0.86979 0.38365 0.68698 0.0
H123 H 0.93934 0.34583 0.68965 0.0
C124 C 0.93982 0.34787 0.70393 0.0
C125 C 0.90337 0.35591 0.69118 0.0
C126 C 0.88814 0.3622 0.684 0.0
C127 C 0.91217 0.36591 0.7063 0.0
C128 C 0.90526 0.38228 0.71445 0.0
C129 C 0.88984 0.38874 0.70768 0.0
C130 C 0.88131 0.37849 0.69252 0.0
N131 N 0.92765 0.35956 0.7137 0.0
H132 H 0.24288 0.31844 0.7163 0.0
H133 H 0.29015 0.36114 0.69831 0.0
H134 H 0.23709 0.37848 0.71728 0.0
H135 H 0.30514 0.31563 0.69173 0.0
C136 C 0.29355 0.32298 0.68943 0.0
C137 C 0.24883 0.33342 0.71383 0.0
C138 C 0.2376 0.34791 0.71747 0.0
C139 C 0.26755 0.33799 0.70648 0.0
C140 C 0.27546 0.35742 0.70345 0.0
C141 C 0.26447 0.37209 0.70707 0.0
C142 C 0.24549 0.36715 0.71393 0.0
N143 N 0.27828 0.32282 0.70256 0.0
H144 H 0.15033 0.34075 0.36997 0.0
H145 H 0.19989 0.38608 0.36417 0.0
H146 H 0.15793 0.37438 0.32484 0.0
H147 H 0.1949 0.38861 0.39455 0.0
C148 C 0.19263 0.37336 0.39718 0.0
C149 C 0.1585 0.35225 0.36253 0.0
C150 C 0.15191 0.35623 0.34653 0.0
C151 C 0.17554 0.36318 0.3692 0.0
C152 C 0.1865 0.37784 0.35937 0.0
C153 C 0.18022 0.38196 0.34333 0.0
C154 C 0.1629 0.37113 0.33711 0.0
N155 N 0.18141 0.35908 0.38571 0.0
H156 H 0.20427 0.68566 0.37713 0.0
H157 H 0.20852 0.64806 0.32961 0.0
H158 H 0.24984 0.65272 0.369 0.0
H159 H 0.17989 0.6529 0.32482 0.0
C160 C 0.1767 0.66575 0.33265 0.0
C161 C 0.21163 0.67548 0.36908 0.0
C162 C 0.22791 0.67009 0.37526 0.0
C163 C 0.20435 0.66762 0.35275 0.0
C164 C 0.21378 0.6542 0.34227 0.0
C165 C 0.23015 0.64853 0.34808 0.0
C166 C 0.237 0.65655 0.36463 0.0
N167 N 0.18778 0.67389 0.3474 0.0
H168 H 0.81398 0.71579 0.32884 0.0
H169 H 0.86178 0.76015 0.34424 0.0
H170 H 0.86791 0.69999 0.33727 0.0
H171 H 0.82692 0.78463 0.33439 0.0
C172 C 0.82905 0.77334 0.3424 0.0
C173 C 0.82869 0.7198 0.33269 0.0
C174 C 0.8399 0.70541 0.333 0.0
C175 C 0.83643 0.73949 0.33681 0.0
C176 C 0.85567 0.74491 0.34129 0.0
C177 C 0.86722 0.73077 0.3415 0.0
C178 C 0.85913 0.71103 0.33741 0.0
N179 N 0.82493 0.75363 0.33511 0.0
H180 H 0.82034 0.3696 0.40231 0.0
H181 H 0.85565 0.35859 0.35568 0.0
H182 H 0.85333 0.32407 0.39967 0.0
H183 H 0.84061 0.37802 0.34338 0.0
C184 C 0.83269 0.38603 0.35322 0.0
C185 C 0.83034 0.36139 0.39516 0.0
C186 C 0.83591 0.34619 0.4029 0.0
C187 C 0.83703 0.36583 0.37808 0.0
C188 C 0.85011 0.35522 0.36879 0.0
C189 C 0.8561 0.34002 0.37644 0.0
C190 C 0.84869 0.33551 0.39347 0.0
N191 N 0.83011 0.38102 0.37096 0.0
H192 H 0.67599 0.17964 0.71681 0.0
H193 H 0.72182 0.18421 0.67691 0.0
H194 H 0.67132 0.20704 0.66952 0.0
H195 H 0.72843 0.15788 0.68877 0.0
C196 C 0.7253 0.16096 0.70279 0.0
C197 C 0.68174 0.18408 0.70399 0.0
C198 C 0.67129 0.19382 0.69396 0.0
C199 C 0.69972 0.18013 0.69779 0.0
C200 C 0.70758 0.18638 0.68145 0.0
C201 C 0.69748 0.19621 0.67117 0.0
C202 C 0.67935 0.19987 0.67754 0.0
N203 N 0.70983 0.17063 0.70869 0.0
H204 H 0.37028 0.24561 0.65576 0.0
H205 H 0.32035 0.20022 0.6595 0.0
H206 H 0.36493 0.20589 0.69602 0.0
H207 H 0.30661 0.22189 0.64599 0.0
C208 C 0.31801 0.22815 0.63686 0.0
C209 C 0.36217 0.23333 0.66229 0.0
C210 C 0.36949 0.22711 0.6769 0.0
C211 C 0.34423 0.22412 0.65623 0.0
C212 C 0.33388 0.20787 0.66446 0.0
C213 C 0.34123 0.20116 0.6789 0.0
C214 C 0.3589 0.21113 0.68516 0.0
N215 N 0.33748 0.23116 0.64142 0.0
H216 H 0.39085 0.84118 0.68237 0.0
H217 H 0.39493 0.88414 0.72682 0.0
H218 H 0.3557 0.88504 0.6864 0.0
H219 H 0.41302 0.86578 0.73796 0.0
C220 C 0.41719 0.85516 0.72787 0.0
C221 C 0.38629 0.85388 0.68937 0.0
C222 C 0.37239 0.86226 0.68233 0.0
C223 C 0.3943 0.86131 0.70544 0.0
C224 C 0.38844 0.87784 0.71468 0.0
C225 C 0.37455 0.88672 0.70786 0.0
C226 C 0.36648 0.87858 0.69175 0.0
N227 N 0.40841 0.85175 0.71135 0.0
H228 H 0.70062 0.87082 0.6945 0.0
H229 H 0.73406 0.9286 0.70337 0.0
H230 H 0.69021 0.90674 0.74177 0.0
H231 H 0.75105 0.92085 0.67915 0.0
C232 C 0.74366 0.90768 0.67209 0.0
C233 C 0.70385 0.88443 0.70271 0.0
C234 C 0.69384 0.88683 0.71903 0.0
C235 C 0.71831 0.8993 0.69686 0.0
C236 C 0.7229 0.91695 0.70758 0.0
C237 C 0.71303 0.9195 0.72406 0.0
C238 C 0.6984 0.90449 0.72947 0.0
N239 N 0.72754 0.89571 0.68004 0.0
H240 H 0.64611 0.83986 0.37497 0.0
H241 H 0.69574 0.88364 0.36453 0.0
H242 H 0.64742 0.87619 0.33231 0.0
H243 H 0.71049 0.85986 0.37286 0.0
C244 C 0.70168 0.85537 0.3845 0.0
C245 C 0.65338 0.85146 0.36716 0.0
C246 C 0.64414 0.85711 0.35329 0.0
C247 C 0.67222 0.86042 0.37089 0.0
C248 C 0.68158 0.87595 0.3612 0.0
C249 C 0.67255 0.88197 0.34747 0.0
C250 C 0.65398 0.87227 0.3435 0.0
N251 N 0.68142 0.85366 0.38444 0.0
H252 H 0.71889 0.21534 0.37338 0.0
H253 H 0.71885 0.17781 0.3254 0.0
H254 H 0.75321 0.17049 0.36758 0.0
H255 H 0.71432 0.20597 0.3142 0.0
C256 C 0.7037 0.21095 0.32357 0.0
C257 C 0.72382 0.20323 0.36572 0.0
C258 C 0.73682 0.19352 0.37278 0.0
C259 C 0.71766 0.19807 0.34851 0.0
C260 C 0.72419 0.18244 0.33837 0.0
C261 C 0.73707 0.17229 0.3451 0.0
C262 C 0.74326 0.17806 0.36231 0.0
N263 N 0.70482 0.20872 0.34185 0.0
H264 H 0.35362 0.2138 0.35329 0.0
H265 H 0.41007 0.24924 0.34897 0.0
H266 H 0.39236 0.20265 0.30934 0.0
H267 H 0.35926 0.22099 0.3827 0.0
C268 C 0.36526 0.23648 0.38307 0.0
C269 C 0.36747 0.21732 0.34635 0.0
C270 C 0.37118 0.20645 0.33045 0.0
C271 C 0.38154 0.23275 0.35312 0.0
C272 C 0.3992 0.23745 0.34372 0.0
C273 C 0.40301 0.22673 0.32781 0.0
C274 C 0.38896 0.2114 0.32124 0.0
N275 N 0.37831 0.2438 0.36929 0.0
H276 H 0.31033 0.8716 0.39631 0.0
H277 H 0.34767 0.85951 0.35142 0.0
H278 H 0.34123 0.8245 0.3954 0.0
H279 H 0.34688 0.88955 0.34549 0.0
C280 C 0.33322 0.89293 0.35073 0.0
C281 C 0.32036 0.86306 0.38971 0.0
C282 C 0.32458 0.84728 0.39769 0.0
C283 C 0.32876 0.86782 0.37314 0.0
C284 C 0.3416 0.85653 0.36447 0.0
C285 C 0.34626 0.84083 0.37238 0.0
C286 C 0.33753 0.83628 0.38896 0.0
N287 N 0.32349 0.88365 0.36547 0.0
H288 H 0.64738 0.67612 0.21464 0.0
H289 H 0.69097 0.68329 0.17294 0.0
H290 H 0.64456 0.71527 0.17531 0.0
H291 H 0.68925 0.64945 0.17781 0.0
C292 C 0.68874 0.65074 0.19214 0.0
C293 C 0.65309 0.68279 0.20267 0.0
C294 C 0.64385 0.69624 0.19594 0.0
C295 C 0.66967 0.6777 0.19419 0.0
C296 C 0.67763 0.68663 0.17897 0.0
C297 C 0.6689 0.70055 0.17209 0.0
C298 C 0.65186 0.70511 0.18067 0.0
N299 N 0.67829 0.66402 0.20178 0.0
H300 H 0.37367 0.73837 0.15375 0.0
H301 H 0.3256 0.69053 0.14986 0.0
H302 H 0.36929 0.69067 0.18605 0.0
H303 H 0.31118 0.71672 0.14297 0.0
C304 C 0.3222 0.72323 0.1336 0.0
C305 C 0.36596 0.72458 0.15802 0.0
C306 C 0.37347 0.71557 0.17084 0.0
C307 C 0.34861 0.7158 0.15051 0.0
C308 C 0.33878 0.69765 0.15583 0.0
C309 C 0.34611 0.68857 0.1688 0.0
C310 C 0.36344 0.69767 0.17617 0.0
N311 N 0.34185 0.72519 0.13717 0.0
H312 H 0.41141 0.34161 0.17408 0.0
H313 H 0.41161 0.3834 0.21941 0.0
H314 H 0.37078 0.37998 0.17958 0.0
H315 H 0.43304 0.36799 0.22962 0.0
C316 C 0.43909 0.35938 0.21885 0.0
C317 C 0.40531 0.35312 0.18155 0.0
C318 C 0.38983 0.35955 0.17505 0.0
C319 C 0.41345 0.36165 0.19741 0.0
C320 C 0.40562 0.37684 0.20714 0.0
C321 C 0.38991 0.38353 0.20097 0.0
C322 C 0.38246 0.37483 0.18479 0.0
N323 N 0.42977 0.35477 0.20256 0.0
H324 H 0.76504 0.31766 0.19058 0.0
H325 H 0.80473 0.37012 0.20475 0.0
H326 H 0.74489 0.3719 0.20264 0.0
H327 H 0.8095 0.30501 0.18609 0.0
C328 C 0.80394 0.31753 0.18283 0.0
C329 C 0.76767 0.33319 0.19437 0.0
C330 C 0.75238 0.34346 0.19627 0.0
C331 C 0.78644 0.34281 0.1977 0.0
C332 C 0.79012 0.36285 0.20253 0.0
C333 C 0.7753 0.3736 0.20358 0.0
C334 C 0.75645 0.36375 0.20074 0.0
N335 N 0.80181 0.33243 0.19643 0.0
H336 H 0.65724 0.33329 0.86403 0.0
H337 H 0.70539 0.38076 0.86198 0.0
H338 H 0.66437 0.37105 0.82188 0.0
H339 H 0.70113 0.37895 0.89224 0.0
C340 C 0.69913 0.36331 0.8931 0.0
C341 C 0.6652 0.34562 0.8575 0.0
C342 C 0.65845 0.35107 0.84216 0.0
C343 C 0.68191 0.35637 0.8649 0.0
C344 C 0.69229 0.37255 0.85659 0.0
C345 C 0.68583 0.37811 0.84119 0.0
C346 C 0.66899 0.36723 0.8341 0.0
N347 N 0.68806 0.35039 0.88053 0.0
H348 H 0.72149 0.70211 0.88226 0.0
H349 H 0.72729 0.65931 0.83899 0.0
H350 H 0.76616 0.66821 0.88105 0.0
H351 H 0.69788 0.66231 0.83326 0.0
C352 C 0.69547 0.67661 0.8386 0.0
C353 C 0.72895 0.691 0.87586 0.0
C354 C 0.74474 0.68653 0.8837 0.0
C355 C 0.72228 0.68117 0.85996 0.0
C356 C 0.73175 0.66657 0.85159 0.0
C357 C 0.74762 0.66173 0.85909 0.0
C358 C 0.75397 0.67178 0.8752 0.0
N359 N 0.70643 0.6869 0.85269 0.0
H360 H 0.35966 0.69103 0.82779 0.0
H361 H 0.39637 0.73663 0.85773 0.0
H362 H 0.42089 0.69553 0.82212 0.0
H363 H 0.36994 0.7499 0.86255 0.0
C364 C 0.35838 0.73733 0.863 0.0
C365 C 0.37397 0.69853 0.83095 0.0
C366 C 0.39005 0.69137 0.82333 0.0
C367 C 0.37602 0.71485 0.84322 0.0
C368 C 0.39448 0.72431 0.8479 0.0
C369 C 0.41073 0.71736 0.84039 0.0
C370 C 0.4084 0.70083 0.82815 0.0
N371 N 0.35911 0.72024 0.85155 0.0
H372 H 0.33496 0.36926 0.88333 0.0
H373 H 0.37462 0.3611 0.83946 0.0
H374 H 0.3698 0.32538 0.88297 0.0
H375 H 0.37605 0.39632 0.84182 0.0
C376 C 0.36072 0.39621 0.84288 0.0
C377 C 0.34589 0.36167 0.87704 0.0
C378 C 0.35137 0.34667 0.88525 0.0
C379 C 0.35452 0.36725 0.86082 0.0
C380 C 0.36843 0.35725 0.85231 0.0
C381 C 0.37372 0.34172 0.86002 0.0
C382 C 0.36523 0.33672 0.87659 0.0
N383 N 0.3485 0.38266 0.85325 0.0
Cu384 Cu 0.29082 0.27837 0.04502 0.0
N385 N 0.29235 0.299 0.03084 0.0
N386 N 0.29915 0.31536 1.00673 0.0
C387 C 0.30052 0.29916 0.01439 0.0
C388 C 0.28977 0.32588 0.01894 0.0
C389 C 0.28554 0.31573 0.03378 0.0
O390 O 0.29072 0.25554 0.02765 0.0
C391 C 0.31183 0.30056 0.07145 0.0
O392 O 0.29799 0.31025 0.07022 0.0
H393 H 0.30741 0.28755 1.00821 0.0
H394 H 0.27782 0.32016 0.04573 0.0
N395 N 0.26785 0.27508 0.05906 0.0
N396 N 0.24587 0.26501 0.08033 0.0
C397 C 0.2637 0.26446 0.07312 0.0
C398 C 0.25216 0.28269 0.05738 0.0
C399 C 0.2386 0.2765 0.07042 0.0
C400 C 0.27536 0.25007 0.0193 0.0
O401 O 0.26068 0.25858 0.02409 0.0
H402 H 0.27352 0.25629 0.07777 0.0
H403 H 0.25057 0.29194 0.04726 0.0
O404 O 0.31199 0.28498 0.06125 0.0
H405 H 0.28586 0.33971 0.01717 0.0
H406 H 0.22455 0.28034 0.0725 0.0
Cu407 Cu 0.79363 0.30938 1.00527 0.0
N408 N 0.79601 0.32614 0.02587 0.0
N409 N 0.79746 0.33404 0.05489 0.0
C410 C 0.79182 0.3199 0.04203 0.0
C411 C 0.80532 0.34994 0.04644 0.0
C412 C 0.80451 0.34499 0.0285 0.0
O413 O 0.7953 0.28411 1.01316 0.0
C414 C 0.76767 0.32732 0.99117 0.0
O415 O 0.77969 0.34249 0.99779 0.0
H416 H 0.78535 0.305 0.04422 0.0
H417 H 0.8105 0.35422 0.01817 0.0
N418 N 0.81359 0.31703 0.98881 0.0
N419 N 0.82898 0.32039 0.96245 0.0
C420 C 0.81289 0.31214 0.97136 0.0
C421 C 0.83068 0.32886 0.99111 0.0
C422 C 0.84026 0.33088 0.97485 0.0
C423 C 0.81176 0.28239 0.01774 0.0
O424 O 0.8265 0.29624 0.01451 0.0
H425 H 0.80076 0.30266 0.96538 0.0
H426 H 0.83579 0.33559 1.00368 0.0
O427 O 0.77021 0.31032 0.99372 0.0
H428 H 0.81212 0.36384 0.05269 0.0
H429 H 0.85425 0.33972 0.97235 0.0
Cu430 Cu 0.77606 0.78393 0.03248 0.0
N431 N 0.77842 0.80669 0.02074 0.0
N432 N 0.78747 0.82684 0.9994 0.0
C433 C 0.78894 0.80981 1.00556 0.0
C434 C 0.77564 0.83486 1.01129 0.0
C435 C 0.77001 0.82237 0.02439 0.0
O436 O 0.77734 0.76313 1.01328 0.0
C437 C 0.79468 0.80348 0.06115 0.0
O438 O 0.78089 0.81319 0.05979 0.0
H439 H 0.79744 0.79963 0.99912 0.0
H440 H 0.76025 0.82448 0.03562 0.0
N441 N 0.75238 0.77839 0.04515 0.0
N442 N 0.73055 0.76696 0.06602 0.0
C443 C 0.74853 0.76729 0.0589 0.0
C444 C 0.73623 0.78522 0.04344 0.0
C445 C 0.72277 0.77825 0.05632 0.0
C446 C 0.76506 0.76261 1.00169 0.0
O447 O 0.75248 0.77418 1.00468 0.0
H448 H 0.75895 0.76007 0.06388 0.0
H449 H 0.7344 0.79474 0.03363 0.0
O450 O 0.79586 0.78881 0.05003 0.0
H451 H 0.77095 0.8485 1.01035 0.0
H452 H 0.70836 0.78121 0.05835 0.0
Cu453 Cu 0.23951 0.7605 1.00832 0.0
N454 N 0.21872 0.74743 0.02136 0.0
N455 N 0.2023 0.73736 0.0458 0.0
C456 C 0.21839 0.7481 0.03901 0.0
C457 C 0.19185 0.72963 0.03187 0.0
C458 C 0.20218 0.7357 0.0167 0.0
O459 O 0.25938 0.76844 0.02539 0.0
C460 C 0.21995 0.77797 0.98632 0.0
O461 O 0.21169 0.75964 0.98322 0.0
H462 H 0.22964 0.75669 0.04681 0.0
H463 H 0.19795 0.73172 1.0033 0.0
N464 N 0.24744 0.74386 0.99007 0.0
N465 N 0.26301 0.73471 0.96523 0.0
C466 C 0.25866 0.74984 0.97603 0.0
C467 C 0.2443 0.72426 0.98812 0.0
C468 C 0.25391 0.71855 0.97273 0.0
C469 C 0.27493 0.76185 0.02472 0.0
O470 O 0.28016 0.75209 1.0102 0.0
H471 H 0.26367 0.76506 0.97396 0.0
H472 H 0.23597 0.71486 0.99741 0.0
O473 O 0.23274 0.78226 0.99767 0.0
H474 H 0.17792 0.72019 0.03261 0.0
H475 H 0.25465 0.70369 0.96781 0.0
Cu476 Cu 0.99894 0.26228 0.28093 0.0
N477 N 1.01017 0.24017 0.27631 0.0
N478 N 0.0325 0.22263 0.26614 0.0
C479 C 0.02785 0.24055 0.26862 0.0
C480 C 0.01696 0.2105 0.27256 0.0
C481 C 1.00322 0.22135 0.27878 0.0
O482 O 0.01994 0.28353 0.28739 0.0
C483 C 0.96992 0.25262 0.25836 0.0
O484 O 0.9652 0.23939 0.26975 0.0
H485 H 0.03688 0.25378 0.26456 0.0
H486 H 0.9891 0.21584 0.28446 0.0
N487 N 0.98059 0.2607 0.29995 0.0
N488 N 0.95672 0.2688 0.31814 0.0
C489 C 0.96873 0.2735 0.30406 0.0
C490 C 0.97599 0.24739 0.31185 0.0
C491 C 0.96126 0.25233 0.32308 0.0
C492 C 0.0265 0.28248 0.30234 0.0
O493 O 0.01835 0.26819 0.31182 0.0
H494 H 0.96876 0.28585 0.29659 0.0
H495 H 0.98292 0.23505 0.31243 0.0
O496 O 0.98544 0.26504 0.26014 0.0
H497 H 0.01554 0.19489 0.2728 0.0
H498 H 0.95462 0.24452 0.33414 0.0
Cu499 Cu 0.78239 0.02321 0.25334 0.0
N500 N 0.78408 0.03358 0.23143 0.0
N501 N 0.79118 0.05573 0.2116 0.0
C502 C 0.79347 0.05154 0.22814 0.0
C503 C 0.7801 0.0396 0.20409 0.0
C504 C 0.77568 0.02598 0.21637 0.0
O505 O 0.78449 0.04562 0.27144 0.0
C506 C 0.79592 0.98946 0.2423 0.0
O507 O 0.78011 0.98739 0.23385 0.0
H508 H 0.80158 0.06146 0.23786 0.0
H509 H 0.76656 0.01178 0.21459 0.0
N510 N 0.75817 1.00815 0.25776 0.0
N511 N 0.7355 0.98629 0.27033 0.0
C512 C 0.75417 0.99491 0.26975 0.0
C513 C 0.74147 1.00801 0.25046 0.0
C514 C 0.72742 0.99454 0.25822 0.0
C515 C 0.77273 0.05697 0.26977 0.0
O516 O 0.76097 0.0526 0.25683 0.0
H517 H 0.76479 0.99189 0.27804 0.0
H518 H 0.73963 0.01706 0.24026 0.0
O519 O 0.80083 1.00516 0.25229 0.0
H520 H 0.77497 0.03801 0.1909 0.0
H521 H 0.7125 0.99095 0.25503 0.0
Cu522 Cu 0.0318 0.75839 0.29544 0.0
N523 N 0.01833 0.76065 0.27559 0.0
N524 N 0.99844 0.77172 0.25904 0.0
C525 C 1.00425 0.77111 0.27549 0.0
C526 C 1.00929 0.761 0.24844 0.0
C527 C 0.02152 0.75427 0.25864 0.0
O528 O 0.01423 0.76113 0.31564 0.0
C529 C 0.05655 0.79454 0.28945 0.0
O530 O 0.04167 0.79988 0.28346 0.0
H531 H 0.99872 0.77847 0.2873 0.0
H532 H 0.03239 0.74584 0.25397 0.0
N533 N 0.04145 0.73512 0.29432 0.0
N534 N 0.06182 0.71511 0.29786 0.0
C535 C 0.05785 0.73327 0.30133 0.0
C536 C 0.03472 0.71754 0.28609 0.0
C537 C 0.04721 0.70518 0.28826 0.0
C538 C 1.0065 0.7472 0.32478 0.0
O539 O 1.01269 0.73061 0.3224 0.0
H540 H 0.06693 0.74524 0.30848 0.0
H541 H 0.02175 0.71401 0.27891 0.0
O542 O 0.05434 0.77854 0.29649 0.0
H543 H 1.00898 0.75874 0.23422 0.0
H544 H 0.04554 0.69003 0.28318 0.0
Cu545 Cu 0.28127 0.02281 0.26788 0.0
N546 N 0.30222 0.04335 0.27571 0.0
N547 N 0.31855 0.07257 0.28465 0.0
C548 C 0.3012 0.06077 0.28447 0.0
C549 C 0.33088 0.06216 0.27587 0.0
C550 C 0.32074 0.04408 0.27039 0.0
O551 O 0.27013 0.04246 0.2557 0.0
C552 C 0.28389 0.99584 0.29377 0.0
O553 O 0.26799 1.00139 0.30019 0.0
H554 H 0.28797 0.06518 0.28956 0.0
H555 H 0.32624 0.03261 0.26231 0.0
N556 N 0.26102 1.00198 0.25916 0.0
N557 N 0.24732 0.97433 0.24462 0.0
C558 C 0.26395 0.98564 0.24953 0.0
C559 C 0.24193 1.00108 0.26049 0.0
C560 C 0.2334 0.98396 0.25143 0.0
C561 C 0.25778 0.05151 0.26385 0.0
O562 O 0.25232 0.04801 0.28023 0.0
H563 H 0.27803 0.98228 0.246 0.0
H564 H 0.23472 0.01204 0.26745 0.0
O565 O 0.29236 1.00314 0.28004 0.0
H566 H 0.346 0.06752 0.2731 0.0
H567 H 0.21816 0.97884 0.2502 0.0
Cu568 Cu 1.00727 0.77824 0.76932 0.0
N569 N 0.01546 0.75453 0.76315 0.0
N570 N 0.03512 0.73494 0.75107 0.0
C571 C 0.03345 0.7533 0.75705 0.0
C572 C 0.01744 0.72409 0.75344 0.0
C573 C 1.00532 0.73623 0.76097 0.0
O574 O 0.03026 0.79722 0.77511 0.0
C575 C 0.97579 0.77285 0.74979 0.0
O576 O 0.97004 0.76095 0.76214 0.0
H577 H 0.04489 0.76586 0.75611 0.0
H578 H 0.99009 0.73212 0.76397 0.0
N579 N 0.99079 0.77843 0.78956 0.0
N580 N 0.96907 0.78913 0.80873 0.0
C581 C 0.98133 0.79308 0.79468 0.0
C582 C 0.98446 0.76468 0.8008 0.0
C583 C 0.971 0.77124 0.81266 0.0
C584 C 0.03843 0.79225 0.78785 0.0
O585 O 0.03039 0.77626 0.79516 0.0
H586 H 0.98283 0.806 0.78765 0.0
H587 H 0.98892 0.75072 0.80012 0.0
O588 O 0.99279 0.78284 0.7498 0.0
H589 H 0.01351 0.70861 0.74972 0.0
H590 H 0.96313 0.76335 0.82319 0.0
Cu591 Cu 0.30423 0.03543 0.7653 0.0
N592 N 0.30342 0.0487 0.74529 0.0
N593 N 0.30317 0.07193 0.72718 0.0
C594 C 0.30099 0.06713 0.74406 0.0
C595 C 0.30669 0.05571 0.71745 0.0
C596 C 0.30682 0.04149 0.72862 0.0
O597 O 0.30872 0.054 0.78631 0.0
C598 C 0.32662 1.00483 0.76824 0.0
O599 O 0.32121 1.00513 0.78508 0.0
H600 H 0.29807 0.07695 0.75533 0.0
H601 H 0.30988 0.02706 0.72494 0.0
N602 N 0.27983 0.02104 0.76987 0.0
N603 N 0.25659 0.99906 0.78149 0.0
C604 C 0.27526 1.00332 0.77608 0.0
C605 C 0.26345 0.02811 0.77121 0.0
C606 C 0.24907 0.01459 0.77842 0.0
C607 C 0.31769 0.0716 0.78649 0.0
O608 O 0.32858 0.07723 0.77262 0.0
H609 H 0.2856 0.99428 0.77776 0.0
H610 H 0.26235 0.04258 0.76815 0.0
O611 O 0.32198 0.01717 0.75892 0.0
H612 H 0.30996 0.0545 0.70336 0.0
H613 H 0.23443 0.01634 0.78178 0.0
Cu614 Cu 0.0772 0.28363 0.78977 0.0
N615 N 0.05999 0.27932 0.77157 0.0
N616 N 0.03691 0.28466 0.75501 0.0
C617 C 0.04692 0.29053 0.76964 0.0
C618 C 0.04396 0.269 0.74753 0.0
C619 C 0.05814 0.26574 0.75777 0.0
O620 O 0.06357 0.29592 0.80923 0.0
C621 C 0.10377 0.30971 0.7691 0.0
O622 O 0.0894 0.30982 0.75923 0.0
H623 H 0.04526 0.30314 0.77857 0.0
H624 H 0.06663 0.25443 0.75523 0.0
N625 N 0.08442 0.26075 0.79575 0.0
N626 N 0.10276 0.24159 0.80529 0.0
C627 C 0.10199 0.25954 0.80067 0.0
C628 C 0.07372 0.24285 0.7971 0.0
C629 C 0.08496 0.23105 0.8031 0.0
C630 C 0.05573 0.2873 0.82254 0.0
O631 O 0.06064 0.27097 0.82587 0.0
H632 H 0.11385 0.2718 0.80133 0.0
H633 H 0.05872 0.23881 0.79429 0.0
O634 O 0.10091 0.30048 0.78287 0.0
H635 H 0.03925 0.26044 0.73552 0.0
H636 H 0.0804 0.21589 0.80561 0.0
Cu637 Cu 0.79776 0.07572 0.81166 0.0
N638 N 0.8049 0.09343 0.8312 0.0
N639 N 0.81768 0.12148 0.84596 0.0
C640 C 0.81103 0.11276 0.83052 0.0
C641 C 0.81594 0.10718 0.85685 0.0
C642 C 0.80791 0.08986 0.84773 0.0
O643 O 0.79769 0.09051 0.7912 0.0
C644 C 0.80879 0.04259 0.82057 0.0
O645 O 0.79505 0.04488 0.83254 0.0
H646 H 0.8117 0.12019 0.81865 0.0
H647 H 0.80525 0.07562 0.85266 0.0
N648 N 0.7725 0.06242 0.8135 0.0
N649 N 0.74785 0.04006 0.80396 0.0
C650 C 0.76486 0.05108 0.79964 0.0
C651 C 0.75972 0.05884 0.82721 0.0
C652 C 0.74449 0.04475 0.82135 0.0
C653 C 0.7855 0.10185 0.79341 0.0
O654 O 0.77576 0.10283 0.80866 0.0
H655 H 0.7725 0.04975 0.78692 0.0
H656 H 0.76195 0.06493 0.84065 0.0
O657 O 0.81361 0.05534 0.8094 0.0
H658 H 0.82057 0.10907 0.87023 0.0
H659 H 0.73244 0.03781 0.82938 0.0
Cu660 Cu 0.27833 0.76999 0.53497 0.0
N661 N 0.30046 0.77849 0.54783 0.0
N662 N 0.31983 0.79312 0.56921 0.0
C663 C 0.30165 0.78882 0.56377 0.0
C664 C 0.33036 0.78501 0.5561 0.0
C665 C 0.31844 0.77611 0.543 0.0
O666 O 0.25696 0.76202 0.55183 0.0
C667 C 0.28633 0.80561 0.51809 0.0
O668 O 0.3003 0.81115 0.5289 0.0
H669 H 0.28941 0.79339 0.571 0.0
H670 H 0.32263 0.76857 0.53072 0.0
N671 N 0.28071 0.74883 0.51831 0.0
N672 N 0.27624 0.72916 0.49328 0.0
C673 C 0.27154 0.74487 0.5031 0.0
C674 C 0.29169 0.73518 0.51813 0.0
C675 C 0.28891 0.72301 0.50278 0.0
C676 C 0.25725 0.74657 0.55924 0.0
O677 O 0.27137 0.73713 0.55486 0.0
H678 H 0.26151 0.75338 0.4994 0.0
H679 H 0.30114 0.7342 0.52837 0.0
O680 O 0.27431 0.78994 0.5203 0.0
H681 H 0.34563 0.78532 0.55591 0.0
H682 H 0.29601 0.71082 0.4988 0.0
Cu683 Cu 0.79648 0.82542 0.51075 0.0
N684 N 0.81781 0.82568 0.49495 0.0
N685 N 0.8337 0.81899 0.46951 0.0
C686 C 0.81727 0.81475 0.47945 0.0
C687 C 0.84514 0.83312 0.47919 0.0
C688 C 0.83531 0.83715 0.49499 0.0
O689 O 0.77503 0.82529 0.49596 0.0
C690 C 0.80991 0.80288 0.53221 0.0
O691 O 0.82434 0.8175 0.53055 0.0
H692 H 0.80461 0.80465 0.47514 0.0
H693 H 0.84039 0.84802 0.50548 0.0
N694 N 0.79919 0.84764 0.52674 0.0
N695 N 0.79481 0.86653 0.55151 0.0
C696 C 0.79055 0.84853 0.54298 0.0
C697 C 0.80932 0.86568 0.52486 0.0
C698 C 0.80667 0.87735 0.54012 0.0
C699 C 0.77815 0.83929 0.48602 0.0
O700 O 0.79396 0.85236 0.48781 0.0
H701 H 0.78141 0.8361 0.54842 0.0
H702 H 0.81783 0.87016 0.51315 0.0
O703 O 0.7947 0.80288 0.52432 0.0
H704 H 0.85939 0.84027 0.47503 0.0
H705 H 0.81269 0.89271 0.54245 0.0
Cu706 Cu 0.7906 0.27016 0.53868 0.0
N707 N 0.7921 0.25039 0.52036 0.0
N708 N 0.78694 0.23365 0.49394 0.0
C709 C 0.78222 0.24803 0.50557 0.0
C710 C 0.80031 0.22664 0.50182 0.0
C711 C 0.80344 0.23695 0.51808 0.0
O712 O 0.78598 0.2915 0.52616 0.0
C713 C 0.77115 0.2454 0.56253 0.0
O714 O 0.78541 0.23646 0.55712 0.0
H715 H 0.77216 0.25714 0.5032 0.0
H716 H 0.81347 0.23494 0.52745 0.0
N717 N 0.81324 0.27751 0.551 0.0
N718 N 0.83325 0.29098 0.57227 0.0
C719 C 0.81492 0.28719 0.56719 0.0
C720 C 0.83105 0.27502 0.54559 0.0
C721 C 0.84336 0.28322 0.55863 0.0
C722 C 0.79841 0.3069 0.52404 0.0
O723 O 0.81296 0.31137 0.53429 0.0
H724 H 0.80292 0.29173 0.57486 0.0
H725 H 0.83489 0.26797 0.53296 0.0
O726 O 0.77001 0.261 0.55576 0.0
H727 H 0.80737 0.21489 0.49626 0.0
H728 H 0.85861 0.28334 0.55798 0.0
Cu729 Cu 0.28081 0.32823 0.52122 0.0
N730 N 0.28326 0.34787 0.53974 0.0
N731 N 0.28695 0.35968 0.56784 0.0
C732 C 0.29152 0.34665 0.55482 0.0
C733 C 0.27555 0.36974 0.56059 0.0
C734 C 0.27327 0.3624 0.54326 0.0
O735 O 0.27877 0.30383 0.5325 0.0
C736 C 0.2618 0.34532 0.4989 0.0
O737 O 0.27726 0.35866 0.50161 0.0
H738 H 0.29898 0.33504 0.55678 0.0
H739 H 0.26361 0.36623 0.53444 0.0
N740 N 0.30246 0.33097 0.50581 0.0
N741 N 0.32254 0.32228 0.48406 0.0
C742 C 0.30549 0.31733 0.49288 0.0
C743 C 0.31801 0.34529 0.50513 0.0
C744 C 0.33047 0.33997 0.4916 0.0
C745 C 0.29439 0.29878 0.53583 0.0
O746 O 0.31075 0.30916 0.53039 0.0
H747 H 0.29535 0.30391 0.49015 0.0
H748 H 0.32023 0.35845 0.51399 0.0
O749 O 0.25952 0.32983 0.5069 0.0
H750 H 0.26826 0.38062 0.56764 0.0
H751 H 0.34445 0.34818 0.48794 0.0
Cu752 Cu 0.80278 0.52593 0.75985 0.0
N753 N 0.80536 0.53791 0.73865 0.0
N754 N 0.80958 0.56029 0.71894 0.0
C755 C 0.80902 0.5571 0.73622 0.0
C756 C 0.80602 0.54233 0.71027 0.0
C757 C 0.80341 0.52864 0.72242 0.0
O758 O 0.79944 0.54478 0.78008 0.0
C759 C 0.83674 0.50935 0.75001 0.0
O760 O 0.84186 0.52358 0.73968 0.0
H761 H 0.81132 0.56845 0.74691 0.0
H762 H 0.80022 0.51296 0.71965 0.0
N763 N 0.77974 0.50818 0.76034 0.0
N764 N 0.757 0.48433 0.76997 0.0
C765 C 0.7751 0.49425 0.77163 0.0
C766 C 0.76408 0.50714 0.75113 0.0
C767 C 0.74999 0.4924 0.75705 0.0
C768 C 0.80971 0.56119 0.78491 0.0
O769 O 0.82658 0.56661 0.77691 0.0
H770 H 0.78467 0.49195 0.78132 0.0
H771 H 0.76288 0.51665 0.7411 0.0
O772 O 0.82206 0.50937 0.76064 0.0
H773 H 0.80508 0.53918 0.69615 0.0
H774 H 0.73571 0.48806 0.75227 0.0
Cu775 Cu 0.30411 0.538 0.76192 0.0
N776 N 0.3052 0.52798 0.78352 0.0
N777 N 0.31204 0.50811 0.80234 0.0
C778 C 0.30776 0.50983 0.78568 0.0
C779 C 0.31208 0.52583 0.81103 0.0
C780 C 0.30777 0.53805 0.79939 0.0
O781 O 0.30747 0.51752 0.74378 0.0
C782 C 0.34075 0.56186 0.76585 0.0
O783 O 0.34539 0.54646 0.77168 0.0
H784 H 0.30795 0.49854 0.77494 0.0
H785 H 0.30777 0.5535 0.80199 0.0
N786 N 0.28088 0.54612 0.76021 0.0
N787 N 0.26021 0.56362 0.75222 0.0
C788 C 0.27876 0.56167 0.75205 0.0
C789 C 0.26313 0.5379 0.76588 0.0
C790 C 0.25033 0.54868 0.76099 0.0
C791 C 0.298 0.51337 0.72995 0.0
O792 O 0.28625 0.52463 0.72639 0.0
H793 H 0.29068 0.5713 0.74607 0.0
H794 H 0.25973 0.52483 0.77281 0.0
O795 O 0.32414 0.56066 0.76021 0.0
H796 H 0.31572 0.52984 0.82461 0.0
H797 H 0.23492 0.54545 0.76334 0.0
Cu798 Cu 0.2973 0.51831 0.24742 0.0
N799 N 0.27458 0.50016 0.25 0.0
N800 N 0.25181 0.47812 0.26227 0.0
C801 C 0.26978 0.48863 0.26335 0.0
C802 C 0.24512 0.48324 0.24762 0.0
C803 C 0.25918 0.49683 0.2401 0.0
O804 O 0.31815 0.50332 0.2435 0.0
C805 C 0.28269 0.54724 0.26706 0.0
O806 O 0.27061 0.54166 0.25448 0.0
H807 H 0.27904 0.48852 0.27399 0.0
H808 H 0.25802 0.50413 0.22849 0.0
N809 N 0.29745 0.53103 0.22686 0.0
N810 N 0.30132 0.55507 0.20886 0.0
C811 C 0.30292 0.55032 0.22538 0.0
C812 C 0.29249 0.52318 0.21065 0.0
C813 C 0.29479 0.53795 0.19955 0.0
C814 C 0.32531 0.49385 0.25395 0.0
O815 O 0.32057 0.4955 0.27091 0.0
H816 H 0.30817 0.56061 0.23625 0.0
H817 H 0.28751 0.5078 0.20717 0.0
O818 O 0.29685 0.53845 0.26735 0.0
H819 H 0.23103 0.47766 0.24273 0.0
H820 H 0.29166 0.53616 0.18574 0.0
Cu821 Cu 0.77308 0.53113 0.27826 0.0
N822 N 0.76844 0.51466 0.29644 0.0
N823 N 0.77273 0.49077 0.31225 0.0
C824 C 0.77945 0.50161 0.2987 0.0
C825 C 0.75683 0.4974 0.31887 0.0
C826 C 0.75416 0.5121 0.309 0.0
O827 O 0.78675 0.51717 0.25999 0.0
C828 C 0.78027 0.56618 0.29874 0.0
O829 O 0.76313 0.55896 0.30538 0.0
H830 H 0.79222 0.50015 0.29049 0.0
H831 H 0.74251 0.52011 0.31068 0.0
N832 N 0.75035 0.53542 0.26992 0.0
N833 N 0.73092 0.55026 0.25661 0.0
C834 C 0.7478 0.55227 0.26423 0.0
C835 C 0.73446 0.5223 0.26591 0.0
C836 C 0.72245 0.53143 0.25759 0.0
C837 C 0.78183 0.51314 0.24415 0.0
O838 O 0.76925 0.52208 0.23827 0.0
H839 H 0.75861 0.56546 0.26475 0.0
H840 H 0.7322 0.50702 0.26815 0.0
O841 O 0.78799 0.55607 0.28654 0.0
H842 H 0.74754 0.49172 0.32975 0.0
H843 H 0.70878 0.52466 0.25234 0.0
Cu844 Cu 0.51177 0.26285 0.76219 0.0
N845 N 0.49313 0.25862 0.78057 0.0
N846 N 0.46975 0.26584 0.7998 0.0
C847 C 0.48216 0.2718 0.78636 0.0
C848 C 0.47304 0.24804 0.80253 0.0
C849 C 0.48754 0.24363 0.79066 0.0
O850 O 0.49835 0.27133 0.74386 0.0
C851 C 0.54091 0.27596 0.784 0.0
O852 O 0.5341 0.25839 0.78889 0.0
H853 H 0.4832 0.28546 0.78056 0.0
H854 H 0.49363 0.23055 0.78957 0.0
N855 N 0.52202 0.24076 0.7539 0.0
N856 N 0.54404 0.2236 0.74216 0.0
C857 C 0.54013 0.2415 0.74716 0.0
C858 C 0.51406 0.2217 0.75317 0.0
C859 C 0.52764 0.21106 0.74597 0.0
C860 C 0.49705 0.26315 0.72822 0.0
O861 O 0.50844 0.25094 0.72251 0.0
H862 H 0.5503 0.25502 0.74619 0.0
H863 H 0.49944 0.21596 0.75747 0.0
O864 O 0.53287 0.28199 0.77175 0.0
H865 H 0.46574 0.23896 0.81254 0.0
H866 H 0.52549 0.19535 0.74353 0.0
Cu867 Cu 0.55707 0.7696 0.78664 0.0
N868 N 0.56684 0.74655 0.78687 0.0
N869 N 0.5867 0.72696 0.79282 0.0
C870 C 0.58418 0.74557 0.79251 0.0
C871 C 0.57027 0.71584 0.78697 0.0
C872 C 0.55806 0.72793 0.7834 0.0
O873 O 0.57811 0.78979 0.78022 0.0
C874 C 0.54451 0.76664 0.82284 0.0
O875 O 0.55639 0.75449 0.82315 0.0
H876 H 0.59453 0.75835 0.79668 0.0
H877 H 0.54357 0.72344 0.77917 0.0
N878 N 0.53794 0.7682 0.77051 0.0
N879 N 0.51418 0.77738 0.7574 0.0
C880 C 0.52656 0.78154 0.77054 0.0
C881 C 0.53265 0.75505 0.75687 0.0
C882 C 0.51804 0.76066 0.74877 0.0
C883 C 0.58532 0.78779 0.76457 0.0
O884 O 0.57809 0.77254 0.75408 0.0
H885 H 0.52765 0.79427 0.77992 0.0
H886 H 0.53903 0.74236 0.75299 0.0
O887 O 0.5448 0.77599 0.80933 0.0
H888 H 0.56695 0.70006 0.78601 0.0
H889 H 0.51076 0.75288 0.73747 0.0
Cu890 Cu 0.4934 0.76363 0.28542 0.0
N891 N 0.47284 0.76033 0.30225 0.0
N892 N 0.44736 0.76779 0.31848 0.0
C893 C 0.46001 0.77229 0.30478 0.0
C894 C 0.45243 0.75226 0.32477 0.0
C895 C 0.46821 0.74775 0.31479 0.0
O896 O 0.48288 0.76766 0.26345 0.0
C897 C 0.52022 0.78048 0.30845 0.0
O898 O 0.51295 0.76382 0.31498 0.0
H899 H 0.46018 0.78424 0.29678 0.0
H900 H 0.4761 0.73658 0.31701 0.0
N901 N 0.50575 0.74222 0.28059 0.0
N902 N 0.52784 0.72567 0.26793 0.0
C903 C 0.52176 0.74288 0.26999 0.0
C904 C 0.50142 0.7239 0.28547 0.0
C905 C 0.51502 0.71365 0.27769 0.0
C906 C 0.47329 0.75206 0.25609 0.0
O907 O 0.47139 0.73583 0.26382 0.0
H908 H 0.52848 0.75575 0.26358 0.0
H909 H 0.48908 0.71821 0.29376 0.0
O910 O 0.51309 0.78464 0.29475 0.0
H911 H 0.44573 0.74514 0.33619 0.0
H912 H 0.51538 0.69854 0.27914 0.0
Cu913 Cu 0.57636 0.27604 0.24962 0.0
N914 N 0.55767 0.25379 0.25226 0.0
N915 N 0.52936 0.23713 0.26139 0.0
C916 C 0.5392 0.25443 0.25679 0.0
C917 C 0.54207 0.225 0.25971 0.0
C918 C 0.55958 0.23532 0.25394 0.0
O919 O 0.56173 0.29743 0.24943 0.0
C920 C 0.60668 0.26503 0.2648 0.0
O921 O 0.60545 0.2537 0.25003 0.0
H922 H 0.53344 0.26773 0.25819 0.0
H923 H 0.57292 0.23 0.25219 0.0
N924 N 0.5902 0.2743 0.22794 0.0
N925 N 0.61563 0.28006 0.20909 0.0
C926 C 0.60626 0.28685 0.22363 0.0
C927 C 0.58916 0.25912 0.21555 0.0
C928 C 0.60499 0.26259 0.20393 0.0
C929 C 0.5523 0.29655 0.23557 0.0
O930 O 0.55427 0.28281 0.22295 0.0
H931 H 0.61187 0.29985 0.23191 0.0
H932 H 0.57848 0.24589 0.21572 0.0
O933 O 0.59502 0.27695 0.26807 0.0
H934 H 0.53912 0.21007 0.26318 0.0
H935 H 0.6089 0.25264 0.19314 0.0
H936 H 0.21994 0.21004 0.17806 0.0
H937 H 0.2075 0.25436 0.08755 0.0
H938 H 0.16513 0.20828 0.15643 0.0
H939 H 0.26251 0.2534 0.10755 0.0
H940 H 0.19178 0.23838 0.11311 0.0
H941 H 0.23577 0.22659 0.15276 0.0
C942 C 0.21121 0.21306 0.16797 0.0
C943 C 0.19113 0.20764 0.1694 0.0
C944 C 0.2073 0.24166 0.11193 0.0
C945 C 0.20923 0.22685 0.14039 0.0
C946 C 0.21631 0.25091 0.09734 0.0
C947 C 0.23642 0.25532 0.09533 0.0
C948 C 0.21841 0.23677 0.12471 0.0
C949 C 0.24702 0.25012 0.10839 0.0
C950 C 0.22028 0.22261 0.15355 0.0
C951 C 0.18061 0.21232 0.15603 0.0
N952 N 0.23789 0.24117 0.12251 0.0
N953 N 0.18977 0.22159 0.14211 0.0
H954 H 0.79832 0.2078 0.10394 0.0
H955 H 0.84511 0.27243 0.0255 0.0
H956 H 0.85871 0.23127 0.09691 0.0
H957 H 0.78408 0.25921 0.03752 0.0
H958 H 0.85 0.25287 0.04886 0.0
H959 H 0.79262 0.22257 0.07739 0.0
C960 C 0.81038 0.216 0.09675 0.0
C961 C 0.82898 0.21844 0.10269 0.0
C962 C 0.83551 0.25406 0.04632 0.0
C963 C 0.82262 0.23521 0.07228 0.0
C964 C 0.83267 0.26516 0.03289 0.0
C965 C 0.81414 0.26758 0.02959 0.0
C966 C 0.81972 0.24527 0.05666 0.0
C967 C 0.7986 0.2577 0.03956 0.0
C968 C 0.80711 0.22442 0.08162 0.0
C969 C 0.84412 0.22913 0.09289 0.0
N970 N 0.80175 0.24711 0.05278 0.0
N971 N 0.84059 0.23712 0.0782 0.0
H972 H 0.85298 0.87476 0.14668 0.0
H973 H 0.81469 0.782 0.07935 0.0
H974 H 0.85349 0.81582 0.15815 0.0
H975 H 0.80466 0.84024 0.07619 0.0
H976 H 0.83313 0.79395 0.10581 0.0
H977 H 0.83935 0.8622 0.11851 0.0
C978 C 0.85018 0.85914 0.14334 0.0
C979 C 0.85418 0.84637 0.15506 0.0
C980 C 0.82701 0.80409 0.09918 0.0
C981 C 0.83866 0.83176 0.12238 0.0
C982 C 0.81663 0.7973 0.08402 0.0
C983 C 0.80804 0.81012 0.0756 0.0
C984 C 0.82898 0.82384 0.10572 0.0
C985 C 0.81086 0.82978 0.08231 0.0
C986 C 0.84246 0.85195 0.12714 0.0
C987 C 0.8507 0.82627 0.14959 0.0
N988 N 0.82099 0.83597 0.09689 0.0
N989 N 0.84304 0.81957 0.13372 0.0
H990 H 0.15083 0.75816 0.14906 0.0
H991 H 0.22648 0.73587 0.07104 0.0
H992 H 0.2122 0.76974 0.15307 0.0
H993 H 0.16723 0.73596 0.0627 0.0
H994 H 0.21971 0.74019 0.10281 0.0
H995 H 0.15504 0.74246 0.11917 0.0
C996 C 0.16515 0.75711 0.14372 0.0
C997 C 0.18121 0.76551 0.15334 0.0
C998 C 0.20809 0.73902 0.09409 0.0
C999 C 0.18612 0.74761 0.11943 0.0
C1000 C 0.21196 0.73656 0.07597 0.0
C1001 C 0.19746 0.73597 0.06429 0.0
C1002 C 0.18959 0.74108 0.10062 0.0
C1003 C 0.17879 0.73647 0.07132 0.0
C1004 C 0.16754 0.74822 0.1267 0.0
C1005 C 0.19945 0.76374 0.14596 0.0
N1006 N 0.17543 0.73934 0.08908 0.0
N1007 N 0.20141 0.75511 0.12939 0.0
H1008 H 0.22738 0.87227 0.91881 0.0
H1009 H 0.18901 0.7745 0.96649 0.0
H1010 H 0.17372 0.83337 0.90877 0.0
H1011 H 0.24042 0.81483 0.98119 0.0
H1012 H 0.18279 0.79701 0.94626 0.0
H1013 H 0.23217 0.85256 0.94247 0.0
C1014 C 0.21658 0.85966 0.92166 0.0
C1015 C 0.20021 0.85441 0.91174 0.0
C1016 C 0.19538 0.80108 0.95396 0.0
C1017 C 0.20556 0.83181 0.93869 0.0
C1018 C 0.19896 0.7882 0.96556 0.0
C1019 C 0.21533 0.79273 0.9755 0.0
C1020 C 0.20836 0.81866 0.95207 0.0
C1021 C 0.22761 0.81077 0.97379 0.0
C1022 C 0.21931 0.84844 0.93515 0.0
C1023 C 0.18662 0.83796 0.91597 0.0
N1024 N 0.22398 0.82302 0.96215 0.0
N1025 N 0.18966 0.82724 0.92903 0.0
H1026 H 0.28972 0.20016 0.911 0.0
H1027 H 0.24335 0.22654 1.00717 0.0
H1028 H 0.22921 0.1888 0.92555 0.0
H1029 H 0.30384 0.24308 0.99403 0.0
H1030 H 0.23911 0.20888 0.9782 0.0
H1031 H 0.29621 0.21244 0.94175 0.0
C1032 C 0.27781 0.20002 0.92067 0.0
C1033 C 0.25885 0.19357 0.91558 0.0
C1034 C 0.25339 0.21614 0.98161 0.0
C1035 C 0.2662 0.20765 0.95082 0.0
C1036 C 0.25585 0.22618 0.99825 0.0
C1037 C 0.27398 0.23633 1.00308 0.0
C1038 C 0.26914 0.21633 0.9694 0.0
C1039 C 0.28963 0.23531 0.99092 0.0
C1040 C 0.28154 0.20713 0.93821 0.0
C1041 C 0.24402 0.1939 0.92871 0.0
N1042 N 0.28682 0.2257 0.97454 0.0
N1043 N 0.24801 0.20085 0.9456 0.0
H1044 H 0.88452 0.31731 0.85858 0.0
H1045 H 0.80325 0.31199 0.93678 0.0
H1046 H 0.82403 0.30223 0.8499 0.0
H1047 H 0.86394 0.32462 0.94499 0.0
H1048 H 0.81042 0.30846 0.90502 0.0
H1049 H 0.87714 0.3201 0.89026 0.0
C1050 C 0.86967 0.31421 0.86334 0.0
C1051 C 0.85483 0.30895 0.85162 0.0
C1052 C 0.82217 0.31199 0.91377 0.0
C1053 C 0.84625 0.31281 0.88796 0.0
C1054 C 0.81809 0.31391 0.93194 0.0
C1055 C 0.83302 0.31855 0.94364 0.0
C1056 C 0.84133 0.31474 0.90719 0.0
C1057 C 0.85198 0.32124 0.93651 0.0
C1058 C 0.86545 0.31604 0.88147 0.0
C1059 C 0.83585 0.30609 0.85855 0.0
N1060 N 0.85558 0.31927 0.91877 0.0
N1061 N 0.83207 0.30799 0.8763 0.0
H1062 H 0.83826 0.83795 0.8941 0.0
H1063 H 0.79698 0.8648 0.99207 0.0
H1064 H 0.84242 0.89713 0.91743 0.0
H1065 H 0.79766 0.80606 0.96947 0.0
H1066 H 0.81203 0.87711 0.96448 0.0
H1067 H 0.822 0.82621 0.92126 0.0
C1068 C 0.83585 0.8485 0.90497 0.0
C1069 C 0.84192 0.86859 0.90347 0.0
C1070 C 0.80888 0.86153 0.96558 0.0
C1071 C 0.82297 0.85517 0.9347 0.0
C1072 C 0.80021 0.85449 0.9813 0.0
C1073 C 0.79615 0.83436 0.98317 0.0
C1074 C 0.81344 0.84834 0.95156 0.0
C1075 C 0.80081 0.82169 0.96879 0.0
C1076 C 0.82645 0.84178 0.92048 0.0
C1077 C 0.83792 0.88154 0.91791 0.0
N1078 N 0.80918 0.82889 0.95364 0.0
N1079 N 0.82876 0.87461 0.93293 0.0
H1080 H 0.14609 0.22736 0.2164 0.0
H1081 H 0.03879 0.18676 0.25244 0.0
H1082 H 0.12205 0.16604 0.21675 0.0
H1083 H 0.06686 0.24702 0.2608 0.0
H1084 H 0.06847 0.17897 0.23808 0.0
H1085 H 0.11633 0.23497 0.23096 0.0
C1086 C 0.13451 0.21549 0.21944 0.0
C1087 C 0.1366 0.19602 0.21534 0.0
C1088 C 0.0681 0.1939 0.24308 0.0
C1089 C 0.10246 0.20464 0.23213 0.0
C1090 C 0.05113 0.19837 0.25139 0.0
C1091 C 0.05009 0.21765 0.25788 0.0
C1092 C 0.08422 0.20877 0.24111 0.0
C1093 C 0.06668 0.23202 0.25582 0.0
C1094 C 0.11756 0.21984 0.22787 0.0
C1095 C 0.12116 0.18125 0.21982 0.0
N1096 N 0.08297 0.2273 0.2476 0.0
N1097 N 0.10476 0.18585 0.22791 0.0
H1098 H 0.833 0.17706 0.19796 0.0
H1099 H 0.79937 0.06174 0.17695 0.0
H1100 H 0.83867 0.1479 0.14589 0.0
H1101 H 0.79854 0.09174 0.22909 0.0
H1102 H 0.81151 0.09312 0.16473 0.0
H1103 H 0.81802 0.14597 0.20897 0.0
C1104 C 0.83108 0.16408 0.18882 0.0
C1105 C 0.83732 0.16507 0.17101 0.0
C1106 C 0.80865 0.0928 0.17884 0.0
C1107 C 0.82001 0.12926 0.18355 0.0
C1108 C 0.80165 0.07491 0.18582 0.0
C1109 C 0.79809 0.07405 0.2041 0.0
C1110 C 0.81198 0.10998 0.19023 0.0
C1111 C 0.80143 0.09159 0.21497 0.0
C1112 C 0.82246 0.14631 0.19511 0.0
C1113 C 0.83404 0.14782 0.15971 0.0
N1114 N 0.80818 0.10877 0.20788 0.0
N1115 N 0.82573 0.13059 0.16619 0.0
H1116 H 0.91808 0.8173 0.20146 0.0
H1117 H 0.98526 0.8024 0.2775 0.0
H1118 H 0.92254 0.85229 0.25126 0.0
H1119 H 0.97968 0.76613 0.22834 0.0
H1120 H 0.96235 0.82065 0.26814 0.0
H1121 H 0.9407 0.79853 0.21091 0.0
C1122 C 0.92381 0.82106 0.21439 0.0
C1123 C 0.91838 0.83644 0.22559 0.0
C1124 C 0.96612 0.80868 0.25939 0.0
C1125 C 0.94437 0.81491 0.23655 0.0
C1126 C 0.97918 0.7981 0.26479 0.0
C1127 C 0.98457 0.78254 0.25376 0.0
C1128 C 0.95825 0.80378 0.24278 0.0
C1129 C 0.97626 0.77807 0.23728 0.0
C1130 C 0.93675 0.81031 0.21979 0.0
C1131 C 0.92633 0.84057 0.2422 0.0
N1132 N 0.96358 0.7886 0.23233 0.0
N1133 N 0.93888 0.82992 0.24715 0.0
H1134 H 0.19959 0.86906 0.1845 0.0
H1135 H 0.26956 0.94707 0.24481 0.0
H1136 H 0.23669 0.85363 0.22083 0.0
H1137 H 0.21983 0.95894 0.22178 0.0
H1138 H 0.264 0.91434 0.22941 0.0
H1139 H 0.21389 0.90355 0.19088 0.0
C1140 C 0.21129 0.87298 0.1933 0.0
C1141 C 0.21717 0.85872 0.20211 0.0
C1142 C 0.25445 0.92421 0.22757 0.0
C1143 C 0.23308 0.89783 0.20985 0.0
C1144 C 0.25764 0.94287 0.2363 0.0
C1145 C 0.24497 0.9556 0.2347 0.0
C1146 C 0.2386 0.91833 0.21707 0.0
C1147 C 0.22968 0.94941 0.22361 0.0
C1148 C 0.21927 0.89259 0.19709 0.0
C1149 C 0.23201 0.86434 0.21371 0.0
N1150 N 0.22685 0.93115 0.21528 0.0
N1151 N 0.23935 0.88356 0.21744 0.0
H1152 H 0.14376 0.82332 0.84152 0.0
H1153 H 0.05655 0.83008 0.78263 0.0
H1154 H 0.13401 0.87799 0.82592 0.0
H1155 H 0.06243 0.77917 0.80778 0.0
H1156 H 0.0866 0.84759 0.79543 0.0
H1157 H 0.11546 0.80653 0.82638 0.0
C1158 C 0.1356 0.83183 0.83501 0.0
C1159 C 0.14122 0.85213 0.83516 0.0
C1160 C 0.08126 0.83257 0.79805 0.0
C1161 C 0.10879 0.8329 0.81748 0.0
C1162 C 0.06419 0.82258 0.79072 0.0
C1163 C 0.0569 0.80321 0.79427 0.0
C1164 C 0.09108 0.82297 0.80879 0.0
C1165 C 0.06735 0.79416 0.80483 0.0
C1166 C 0.11948 0.82221 0.82624 0.0
C1167 C 0.1303 0.8623 0.82606 0.0
N1168 N 0.08382 0.80409 0.81169 0.0
N1169 N 0.11457 0.85259 0.81762 0.0
H1170 H 0.2764 0.17337 0.83447 0.0
H1171 H 0.29878 0.06573 0.81887 0.0
H1172 H 0.26902 0.13501 0.87626 0.0
H1173 H 0.32392 0.11134 0.78564 0.0
H1174 H 0.28662 0.0901 0.83964 0.0
H1175 H 0.29234 0.15012 0.81576 0.0
C1176 C 0.27817 0.16007 0.83972 0.0
C1177 C 0.27134 0.15616 0.85698 0.0
C1178 C 0.295 0.09479 0.82791 0.0
C1179 C 0.28948 0.1293 0.83552 0.0
C1180 C 0.30198 0.08088 0.81604 0.0
C1181 C 0.31247 0.08643 0.80045 0.0
C1182 C 0.29817 0.11439 0.82404 0.0
C1183 C 0.31604 0.10632 0.7975 0.0
C1184 C 0.28736 0.14683 0.82906 0.0
C1185 C 0.27418 0.1387 0.86311 0.0
N1186 N 0.30872 0.11948 0.80903 0.0
N1187 N 0.28283 0.12585 0.85235 0.0
H1188 H 0.9425 0.30183 0.81553 0.0
H1189 H 0.03276 0.27052 0.84947 0.0
H1190 H 0.93956 0.27362 0.86379 0.0
H1191 H 0.03672 0.31494 0.81327 0.0
H1192 H 0.99924 0.27301 0.85667 0.0
H1193 H 0.97726 0.30807 0.81568 0.0
C1194 C 0.94909 0.29721 0.82635 0.0
C1195 C 0.93792 0.28704 0.83962 0.0
C1196 C 1.00758 0.28249 0.84743 0.0
C1197 C 0.97802 0.29377 0.83958 0.0
C1198 C 0.02675 0.28112 0.84334 0.0
C1199 C 0.0375 0.29226 0.83048 0.0
C1200 C 0.99908 0.29488 0.83841 0.0
C1201 C 0.02896 0.30585 0.82308 0.0
C1202 C 0.96903 0.30073 0.82638 0.0
C1203 C 0.9475 0.28109 0.85305 0.0
N1204 N 1.01015 0.30649 0.82688 0.0
N1205 N 0.96699 0.28432 0.85256 0.0
H1206 H 0.82678 0.93343 0.8506 0.0
H1207 H 0.84502 0.03612 0.8081 0.0
H1208 H 0.8812 0.95675 0.82502 0.0
H1209 H 0.79167 1.00845 0.83281 0.0
H1210 H 0.85866 1.00698 0.8119 0.0
H1211 H 0.81378 0.96057 0.84223 0.0
C1212 C 0.83605 0.9443 0.8432 0.0
C1213 C 0.85519 0.9429 0.83865 0.0
C1214 C 0.84392 1.00732 0.81633 0.0
C1215 C 0.84029 0.97437 0.82894 0.0
C1216 C 0.83614 0.02388 0.81408 0.0
C1217 C 0.81727 0.02482 0.82035 0.0
C1218 C 0.83265 0.99169 0.82478 0.0
C1219 C 0.80639 1.00857 0.82803 0.0
C1220 C 0.82858 0.95986 0.83835 0.0
C1221 C 0.86637 0.95737 0.82884 0.0
N1222 N 0.81423 0.99285 0.83008 0.0
N1223 N 0.85882 0.97262 0.82441 0.0
H1224 H 0.22868 0.12596 0.18942 0.0
H1225 H 0.23105 0.073 0.27755 0.0
H1226 H 0.19401 0.13618 0.23686 0.0
H1227 H 0.26565 0.06246 0.23009 0.0
H1228 H 0.21745 0.09625 0.26289 0.0
H1229 H 0.24249 0.10273 0.20408 0.0
C1230 C 0.22398 0.12328 0.20293 0.0
C1231 C 0.21018 0.13297 0.21192 0.0
C1232 C 0.22802 0.08886 0.25567 0.0
C1233 C 0.2259 0.10644 0.22882 0.0
C1234 C 0.23581 0.07557 0.26404 0.0
C1235 C 0.24953 0.06572 0.25505 0.0
C1236 C 0.23396 0.09241 0.23814 0.0
C1237 C 0.25512 0.06968 0.23755 0.0
C1238 C 0.23186 0.11004 0.2113 0.0
C1239 C 0.20459 0.12902 0.22941 0.0
N1240 N 0.24731 0.0827 0.22968 0.0
N1241 N 0.21247 0.11606 0.23728 0.0
H1242 H 0.19678 0.92553 0.85974 0.0
H1243 H 0.26214 0.96185 0.77557 0.0
H1244 H 0.2061 0.88675 0.81386 0.0
H1245 H 0.23065 0.99917 0.8092 0.0
H1246 H 0.24693 0.93426 0.79234 0.0
H1247 H 0.21492 0.95307 0.84435 0.0
C1248 C 0.20294 0.92283 0.84654 0.0
C1249 C 0.19999 0.90397 0.83798 0.0
C1250 C 0.24337 0.94851 0.79601 0.0
C1251 C 0.22059 0.93514 0.82041 0.0
C1252 C 0.25204 0.96419 0.7865 0.0
C1253 C 0.24747 0.9827 0.79094 0.0
C1254 C 0.23037 0.95149 0.81028 0.0
C1255 C 0.2343 0.98505 0.8052 0.0
C1256 C 0.21311 0.93849 0.83774 0.0
C1257 C 0.20805 0.90115 0.82082 0.0
N1258 N 0.22628 0.96964 0.81444 0.0
N1259 N 0.21803 0.91658 0.81258 0.0
H1260 H 0.21467 0.21477 0.81672 0.0
H1261 H 0.10238 0.21533 0.82935 0.0
H1262 H 0.18163 0.19696 0.86386 0.0
H1263 H 0.14041 0.2533 0.79575 0.0
H1264 H 0.13028 0.20488 0.83997 0.0
H1265 H 0.18671 0.22547 0.80663 0.0
C1266 C 0.20151 0.21312 0.82495 0.0
C1267 C 0.20052 0.20506 0.84119 0.0
C1268 C 0.1325 0.21552 0.8303 0.0
C1269 C 0.16833 0.21703 0.8296 0.0
C1270 C 0.11659 0.22139 0.82414 0.0
C1271 C 0.11905 0.23523 0.81163 0.0
C1272 C 0.15105 0.22323 0.82365 0.0
C1273 C 0.13784 0.24274 0.80549 0.0
C1274 C 0.18558 0.21928 0.8192 0.0
C1275 C 0.18308 0.20321 0.8513 0.0
N1276 N 0.15307 0.23655 0.81145 0.0
N1277 N 0.16764 0.20902 0.84529 0.0
H1278 H 0.849 0.24715 0.85484 0.0
H1279 H 0.85223 0.1352 0.85951 0.0
H1280 H 0.90006 0.22374 0.83838 0.0
H1281 H 0.80411 0.15304 0.83895 0.0
H1282 H 0.86926 0.16939 0.86127 0.0
H1283 H 0.83158 0.21395 0.85806 0.0
C1284 C 0.85664 0.23518 0.85192 0.0
C1285 C 0.87612 0.23848 0.84608 0.0
C1286 C 0.85486 0.16579 0.85663 0.0
C1287 C 0.85629 0.20054 0.85058 0.0
C1288 C 0.84516 0.14643 0.85574 0.0
C1289 C 0.82684 0.14151 0.84908 0.0
C1290 C 0.8459 0.18025 0.85125 0.0
C1291 C 0.81827 0.15641 0.8441 0.0
C1292 C 0.84666 0.21626 0.85393 0.0
C1293 C 0.88523 0.22221 0.84315 0.0
N1294 N 0.82785 0.17519 0.84535 0.0
N1295 N 0.87525 0.20398 0.84545 0.0
H1296 H 0.91127 0.88466 0.84612 0.0
H1297 H 0.93482 0.77698 0.82614 0.0
H1298 H 0.87171 0.83203 0.85771 0.0
H1299 H 0.97277 0.82854 0.80965 0.0
H1300 H 0.91201 0.79724 0.83861 0.0
H1301 H 0.93417 0.86467 0.83277 0.0
C1302 C 0.90733 0.86893 0.84573 0.0
C1303 C 0.8896 0.86006 0.85323 0.0
C1304 C 0.92533 0.80415 0.83226 0.0
C1305 C 0.91581 0.83709 0.83818 0.0
C1306 C 0.93845 0.79257 0.82525 0.0
C1307 C 0.95577 0.80102 0.81678 0.0
C1308 C 0.92954 0.8244 0.8309 0.0
C1309 C 0.95951 0.82134 0.81584 0.0
C1310 C 0.92045 0.85752 0.83822 0.0
C1311 C 0.88535 0.83957 0.85244 0.0
N1312 N 0.94654 0.83232 0.82281 0.0
N1313 N 0.89835 0.82884 0.84516 0.0
H1314 H 0.8228 0.87767 0.20581 0.0
H1315 H 0.83502 0.98989 0.24501 0.0
H1316 H 0.87848 0.91274 0.21516 0.0
H1317 H 0.78139 0.95144 0.23397 0.0
H1318 H 0.85173 0.96212 0.23703 0.0
H1319 H 0.8079 0.90451 0.21893 0.0
C1320 C 0.83192 0.89106 0.21073 0.0
C1321 C 0.85193 0.89296 0.20921 0.0
C1322 C 0.83629 0.95981 0.23655 0.0
C1323 C 0.83486 0.92424 0.2243 0.0
C1324 C 0.82675 0.97563 0.24119 0.0
C1325 C 0.80677 0.97308 0.24001 0.0
C1326 C 0.8257 0.94136 0.23084 0.0
C1327 C 0.79681 0.95426 0.23488 0.0
C1328 C 0.82339 0.90647 0.21827 0.0
C1329 C 0.86299 0.91063 0.21608 0.0
N1330 N 0.80632 0.93932 0.23046 0.0
N1331 N 0.85433 0.92568 0.22315 0.0
H1332 H 0.16466 0.79071 0.23833 0.0
H1333 H 0.0677 0.82545 0.26919 0.0
H1334 H 0.15247 0.84516 0.2247 0.0
H1335 H 0.09019 0.78398 0.29611 0.0
H1336 H 0.09901 0.83424 0.25376 0.0
H1337 H 0.13729 0.78821 0.25989 0.0
C1338 C 0.1562 0.80212 0.23994 0.0
C1339 C 0.16069 0.8181 0.22975 0.0
C1340 C 0.09716 0.82348 0.2633 0.0
C1341 C 0.12951 0.81543 0.25425 0.0
C1342 C 0.07931 0.81852 0.27217 0.0
C1343 C 0.07619 0.80367 0.28368 0.0
C1344 C 0.11182 0.81333 0.26582 0.0
C1345 C 0.09182 0.79528 0.28712 0.0
C1346 C 0.14073 0.80082 0.25232 0.0
C1347 C 0.14946 0.83265 0.23239 0.0
N1348 N 0.10885 0.79994 0.27795 0.0
N1349 N 0.13424 0.83087 0.24426 0.0
H1350 H 0.86641 0.22597 0.20364 0.0
H1351 H 0.97763 0.25995 0.22331 0.0
H1352 H 0.91107 0.22697 0.16236 0.0
H1353 H 0.93142 0.24572 0.26226 0.0
H1354 H 0.95384 0.25496 0.20038 0.0
H1355 H 0.89033 0.24081 0.2247 0.0
C1356 C 0.8813 0.22958 0.199 0.0
C1357 C 0.88683 0.22505 0.18133 0.0
C1358 C 0.94897 0.25325 0.21401 0.0
C1359 C 0.9145 0.24176 0.20545 0.0
C1360 C 0.96249 0.2562 0.22706 0.0
C1361 C 0.95642 0.25306 0.24462 0.0
C1362 C 0.92936 0.24744 0.21874 0.0
C1363 C 0.93671 0.24807 0.24883 0.0
C1364 C 0.89499 0.23801 0.21102 0.0
C1365 C 0.90628 0.23022 0.17593 0.0
N1366 N 0.92396 0.24536 0.23603 0.0
N1367 N 0.91952 0.23806 0.18802 0.0
H1368 H 0.18332 0.73698 0.65477 0.0
H1369 H 0.24869 0.71004 0.57005 0.0
H1370 H 0.193 0.67891 0.63813 0.0
H1371 H 0.23285 0.76662 0.5802 0.0
H1372 H 0.22718 0.69853 0.59455 0.0
H1373 H 0.19986 0.74823 0.62725 0.0
C1374 C 0.18868 0.72654 0.64525 0.0
C1375 C 0.18698 0.707 0.64891 0.0
C1376 C 0.22822 0.71343 0.59142 0.0
C1377 C 0.20609 0.71982 0.61751 0.0
C1378 C 0.24057 0.72005 0.5774 0.0
C1379 C 0.24268 0.73937 0.57311 0.0
C1380 C 0.21797 0.72626 0.60152 0.0
C1381 C 0.23164 0.7516 0.58305 0.0
C1382 C 0.1982 0.733 0.62958 0.0
C1383 C 0.19433 0.69418 0.63611 0.0
N1384 N 0.2199 0.7449 0.59694 0.0
N1385 N 0.20365 0.70084 0.62112 0.0
H1386 H 0.85772 0.73601 0.60006 0.0
H1387 H 0.78173 0.77432 0.54593 0.0
H1388 H 0.79675 0.71555 0.60719 0.0
H1389 H 0.84281 0.79584 0.54385 0.0
H1390 H 0.78634 0.75039 0.56611 0.0
H1391 H 0.85201 0.75553 0.57706 0.0
C1392 C 0.84308 0.73557 0.59675 0.0
C1393 C 0.82765 0.72429 0.60571 0.0
C1394 C 0.79869 0.76031 0.56111 0.0
C1395 C 0.82094 0.74684 0.57925 0.0
C1396 C 0.79607 0.77391 0.54957 0.0
C1397 C 0.81188 0.78722 0.54331 0.0
C1398 C 0.81725 0.76001 0.56624 0.0
C1399 C 0.83015 0.78606 0.54846 0.0
C1400 C 0.83981 0.74676 0.58356 0.0
C1401 C 0.80903 0.72415 0.60063 0.0
N1402 N 0.83229 0.7728 0.5596 0.0
N1403 N 0.80614 0.73539 0.58782 0.0
H1404 H 0.90727 0.34909 0.65416 0.0
H1405 H 0.813 0.30016 0.60287 0.0
H1406 H 0.85011 0.35206 0.67569 0.0
H1407 H 0.87059 0.30621 0.57925 0.0
H1408 H 0.82594 0.31789 0.62992 0.0
H1409 H 0.89377 0.33194 0.62716 0.0
C1410 C 0.89184 0.34605 0.65326 0.0
C1411 C 0.87984 0.35198 0.66734 0.0
C1412 C 0.83571 0.31532 0.61878 0.0
C1413 C 0.86417 0.33232 0.63619 0.0
C1414 C 0.82832 0.30521 0.60322 0.0
C1415 C 0.84062 0.30148 0.58851 0.0
C1416 C 0.85559 0.32174 0.6198 0.0
C1417 C 0.86042 0.30834 0.59012 0.0
C1418 C 0.88413 0.33633 0.63776 0.0
C1419 C 0.85995 0.3479 0.66518 0.0
N1420 N 0.86722 0.31803 0.60541 0.0
N1421 N 0.85274 0.33825 0.64997 0.0
H1422 H 0.32393 0.33366 0.66673 0.0
H1423 H 0.26172 0.36569 0.59525 0.0
H1424 H 0.26247 0.32875 0.67206 0.0
H1425 H 0.31755 0.35113 0.58245 0.0
H1426 H 0.26412 0.35903 0.6258 0.0
H1427 H 0.3238 0.34583 0.63765 0.0
C1428 C 0.31046 0.33535 0.66186 0.0
C1429 C 0.29329 0.33068 0.67203 0.0
C1430 C 0.27593 0.3575 0.61634 0.0
C1431 C 0.293 0.34458 0.63895 0.0
C1432 C 0.27467 0.36151 0.59895 0.0
C1433 C 0.28944 0.35888 0.5863 0.0
C1434 C 0.29215 0.35096 0.62113 0.0
C1435 C 0.30578 0.35314 0.5918 0.0
C1436 C 0.3104 0.3423 0.64533 0.0
C1437 C 0.27616 0.33285 0.66504 0.0
N1438 N 0.30667 0.34928 0.6088 0.0
N1439 N 0.27647 0.33972 0.64897 0.0
H1440 H 0.21175 0.39864 0.42163 0.0
H1441 H 0.2352 0.31804 0.48042 0.0
H1442 H 0.19158 0.33708 0.40935 0.0
H1443 H 0.2581 0.37972 0.4875 0.0
H1444 H 0.21629 0.32418 0.45638 0.0
H1445 H 0.22611 0.39149 0.44771 0.0
C1446 C 0.21031 0.38357 0.4245 0.0
C1447 C 0.20055 0.36846 0.41329 0.0
C1448 C 0.22535 0.33634 0.46333 0.0
C1449 C 0.21709 0.36002 0.44322 0.0
C1450 C 0.23604 0.33286 0.4771 0.0
C1451 C 0.24835 0.34838 0.4859 0.0
C1452 C 0.22693 0.35547 0.45849 0.0
C1453 C 0.24897 0.36726 0.481 0.0
C1454 C 0.21852 0.37947 0.43941 0.0
C1455 C 0.19904 0.34918 0.41765 0.0
N1456 N 0.23853 0.37023 0.46765 0.0
N1457 N 0.20732 0.34549 0.43226 0.0
H1458 H 0.24261 0.65204 0.40028 0.0
H1459 H 0.26166 0.74737 0.4688 0.0
H1460 H 0.23045 0.70784 0.3903 0.0
H1461 H 0.27512 0.69199 0.47839 0.0
H1462 H 0.24999 0.73308 0.44018 0.0
H1463 H 0.25468 0.66639 0.4288 0.0
C1464 C 0.24256 0.66734 0.404 0.0
C1465 C 0.23543 0.67869 0.39275 0.0
C1466 C 0.2555 0.72404 0.44853 0.0
C1467 C 0.24911 0.69523 0.42567 0.0
C1468 C 0.26208 0.73218 0.46499 0.0
C1469 C 0.26939 0.7209 0.47619 0.0
C1470 C 0.25613 0.70442 0.44311 0.0
C1471 C 0.26983 0.70135 0.47023 0.0
C1472 C 0.24937 0.6755 0.42038 0.0
C1473 C 0.23551 0.69838 0.39854 0.0
N1474 N 0.26328 0.69376 0.45417 0.0
N1475 N 0.24221 0.70599 0.41453 0.0
H1476 H 0.82168 0.75007 0.37019 0.0
H1477 H 0.85407 0.83834 0.4431 0.0
H1478 H 0.84427 0.80902 0.35758 0.0
H1479 H 0.82047 0.78264 0.45489 0.0
H1480 H 0.85588 0.82634 0.41184 0.0
H1481 H 0.82627 0.76037 0.40134 0.0
C1482 C 0.82792 0.76512 0.37392 0.0
C1483 C 0.83277 0.77873 0.36128 0.0
C1484 C 0.84826 0.81669 0.42131 0.0
C1485 C 0.83773 0.79067 0.39697 0.0
C1486 C 0.84736 0.82348 0.43914 0.0
C1487 C 0.83695 0.8115 0.45154 0.0
C1488 C 0.83882 0.79774 0.41591 0.0
C1489 C 0.82837 0.79242 0.44569 0.0
C1490 C 0.8304 0.77103 0.39175 0.0
C1491 C 0.84037 0.79812 0.36697 0.0
N1492 N 0.82941 0.78617 0.4283 0.0
N1493 N 0.84259 0.80355 0.38442 0.0
H1494 H 0.81836 0.31075 0.41344 0.0
H1495 H 0.82032 0.34171 0.51555 0.0
H1496 H 0.83609 0.37089 0.43301 0.0
H1497 H 0.78004 0.29243 0.49384 0.0
H1498 H 0.82746 0.35274 0.48588 0.0
H1499 H 0.80603 0.30308 0.44326 0.0
C1500 C 0.81965 0.32231 0.42406 0.0
C1501 C 0.82828 0.34144 0.42085 0.0
C1502 C 0.81682 0.3397 0.4877 0.0
C1503 C 0.81432 0.33283 0.4549 0.0
C1504 C 0.81269 0.33343 0.50462 0.0
C1505 C 0.79966 0.31605 0.5072 0.0
C1506 C 0.80816 0.32828 0.47323 0.0
C1507 C 0.79021 0.30589 0.49253 0.0
C1508 C 0.81249 0.31799 0.44101 0.0
C1509 C 0.82947 0.35596 0.43499 0.0
N1510 N 0.79492 0.31195 0.47614 0.0
N1511 N 0.82277 0.35132 0.45148 0.0
H1512 H 0.15035 0.71633 0.72445 0.0
H1513 H 0.03705 0.70789 0.72329 0.0
H1514 H 0.1196 0.69636 0.67737 0.0
H1515 H 0.07182 0.7485 0.75951 0.0
H1516 H 0.0664 0.69943 0.70815 0.0
H1517 H 0.12094 0.72456 0.73932 0.0
C1518 C 0.13738 0.71373 0.71725 0.0
C1519 C 0.13737 0.70571 0.69966 0.0
C1520 C 0.06756 0.71017 0.71943 0.0
C1521 C 0.10363 0.7148 0.71665 0.0
C1522 C 0.05085 0.71486 0.72814 0.0
C1523 C 0.05205 0.72891 0.74265 0.0
C1524 C 0.08555 0.71935 0.72549 0.0
C1525 C 0.0703 0.7377 0.7483 0.0
C1526 C 0.12063 0.71845 0.72572 0.0
C1527 C 0.1202 0.70267 0.69091 0.0
N1528 N 0.08631 0.73271 0.73978 0.0
N1529 N 0.10395 0.70706 0.69954 0.0
H1530 H 0.84152 0.65229 0.64866 0.0
H1531 H 0.80727 0.59623 0.73544 0.0
H1532 H 0.83648 0.68137 0.70082 0.0
H1533 H 0.82069 0.56722 0.68478 0.0
H1534 H 0.81472 0.62737 0.7224 0.0
H1535 H 0.83004 0.62086 0.66096 0.0
C1536 C 0.83772 0.65208 0.66265 0.0
C1537 C 0.84009 0.66948 0.67374 0.0
C1538 C 0.81597 0.61416 0.71413 0.0
C1539 C 0.82716 0.63356 0.68797 0.0
C1540 C 0.81182 0.5963 0.72161 0.0
C1541 C 0.81341 0.57887 0.7113 0.0
C1542 C 0.82173 0.61472 0.69616 0.0
C1543 C 0.81904 0.5801 0.69331 0.0
C1544 C 0.83132 0.63413 0.6697 0.0
C1545 C 0.83512 0.66831 0.69182 0.0
N1546 N 0.82303 0.59766 0.68636 0.0
N1547 N 0.82898 0.65069 0.69836 0.0
H1548 H 0.96362 0.32548 0.68724 0.0
H1549 H 0.01426 0.30788 0.77357 0.0
H1550 H 0.94824 0.34951 0.73928 0.0
H1551 H 0.02628 0.28245 0.72112 0.0
H1552 H 0.99047 0.32357 0.76177 0.0
H1553 H 0.98688 0.31005 0.69983 0.0
C1554 C 0.96517 0.32752 0.70137 0.0
C1555 C 0.95396 0.33883 0.71219 0.0
C1556 C 0.99831 0.31453 0.75287 0.0
C1557 C 0.98075 0.32108 0.72686 0.0
C1558 C 1.012 0.30561 0.75958 0.0
C1559 C 0.02245 0.29374 0.74837 0.0
C1560 C 0.995 0.31169 0.73476 0.0
C1561 C 0.01856 0.2912 0.73038 0.0
C1562 C 0.97847 0.31867 0.70858 0.0
C1563 C 0.95658 0.34094 0.73042 0.0
N1564 N 1.00527 0.3001 0.72419 0.0
N1565 N 0.96972 0.33216 0.73719 0.0
H1566 H 0.29997 0.39202 0.71599 0.0
H1567 H 0.27304 0.49513 0.70504 0.0
H1568 H 0.2483 0.39929 0.69311 0.0
H1569 H 0.32123 0.48718 0.73307 0.0
H1570 H 0.26795 0.46063 0.69429 0.0
H1571 H 0.31187 0.42707 0.71604 0.0
C1572 C 0.29128 0.40094 0.71065 0.0
C1573 C 0.27298 0.39278 0.70479 0.0
C1574 C 0.27983 0.46652 0.70255 0.0
C1575 C 0.28638 0.43296 0.70507 0.0
C1576 C 0.2828 0.48625 0.70863 0.0
C1577 C 0.29734 0.49396 0.72027 0.0
C1578 C 0.29148 0.45447 0.70816 0.0
C1579 C 0.30963 0.48178 0.72437 0.0
C1580 C 0.29804 0.42098 0.71078 0.0
C1581 C 0.26231 0.40507 0.69812 0.0
N1582 N 0.30624 0.46258 0.71854 0.0
N1583 N 0.26906 0.42458 0.69864 0.0
H1584 H 0.14329 0.34375 0.31215 0.0
H1585 H 0.03641 0.29098 0.33628 0.0
H1586 H 0.11801 0.34401 0.36531 0.0
H1587 H 0.05623 0.3037 0.28318 0.0
H1588 H 0.06662 0.30943 0.34701 0.0
H1589 H 0.1122 0.32784 0.30117 0.0
C1590 C 0.13121 0.34056 0.32154 0.0
C1591 C 0.13334 0.34537 0.33973 0.0
C1592 C 0.06436 0.30838 0.33303 0.0
C1593 C 0.09769 0.32685 0.32716 0.0
C1594 C 0.04709 0.29784 0.32687 0.0
C1595 C 0.04382 0.29579 0.30879 0.0
C1596 C 0.07868 0.31674 0.32101 0.0
C1597 C 0.05814 0.30503 0.29723 0.0
C1598 C 0.11346 0.33143 0.31523 0.0
C1599 C 0.1172 0.3404 0.35122 0.0
N1600 N 0.07507 0.31495 0.30352 0.0
N1601 N 0.10011 0.33142 0.34475 0.0
H1602 H 0.24636 0.61869 0.35813 0.0
H1603 H 0.27154 0.57964 0.25874 0.0
H1604 H 0.23734 0.64628 0.31209 0.0
H1605 H 0.28614 0.55325 0.30337 0.0
H1606 H 0.26086 0.60519 0.27863 0.0
H1607 H 0.26231 0.59563 0.33909 0.0
C1608 C 0.24782 0.62003 0.34406 0.0
C1609 C 0.24027 0.63447 0.33676 0.0
C1610 C 0.26656 0.594 0.28419 0.0
C1611 C 0.25851 0.60792 0.31484 0.0
C1612 C 0.27274 0.5794 0.2728 0.0
C1613 C 0.27974 0.56427 0.2794 0.0
C1614 C 0.26701 0.59348 0.30251 0.0
C1615 C 0.28099 0.56474 0.29774 0.0
C1616 C 0.25691 0.60679 0.33319 0.0
C1617 C 0.2425 0.63525 0.31837 0.0
N1618 N 0.27444 0.57898 0.3087 0.0
N1619 N 0.25131 0.62219 0.30813 0.0
H1620 H 0.89234 0.76272 0.33051 0.0
H1621 H 0.98377 0.71923 0.34358 0.0
H1622 H 0.88983 0.71214 0.35928 0.0
H1623 H 0.98638 0.77701 0.32738 0.0
H1624 H 0.95001 0.71796 0.35282 0.0
H1625 H 0.92695 0.76992 0.3324 0.0
C1626 C 0.89897 0.75331 0.33756 0.0
C1627 C 0.88805 0.73662 0.34456 0.0
C1628 C 0.95807 0.73107 0.34757 0.0
C1629 C 0.92798 0.74456 0.34632 0.0
C1630 C 0.97738 0.73182 0.34232 0.0
C1631 C 0.98783 0.74808 0.33434 0.0
C1632 C 0.94914 0.74659 0.34462 0.0
C1633 C 0.97883 0.76404 0.33321 0.0
C1634 C 0.91883 0.7574 0.33855 0.0
C1635 C 0.89766 0.72487 0.35327 0.0
N1636 N 0.95991 0.76273 0.33795 0.0
N1637 N 0.9171 0.72889 0.35366 0.0
H1638 H 0.81043 0.40896 0.37333 0.0
H1639 H 0.79435 0.4678 0.2925 0.0
H1640 H 0.83405 0.3984 0.32039 0.0
H1641 H 0.76955 0.47792 0.34507 0.0
H1642 H 0.80888 0.44236 0.30255 0.0
H1643 H 0.79533 0.4342 0.36335 0.0
C1644 C 0.81247 0.41195 0.35959 0.0
C1645 C 0.82354 0.40157 0.34763 0.0
C1646 C 0.80027 0.45012 0.31192 0.0
C1647 C 0.80624 0.43046 0.33613 0.0
C1648 C 0.79203 0.46477 0.3062 0.0
C1649 C 0.78081 0.47519 0.31799 0.0
C1650 C 0.79734 0.44577 0.32959 0.0
C1651 C 0.77798 0.47022 0.3355 0.0
C1652 C 0.80381 0.42637 0.3539 0.0
C1653 C 0.82564 0.40609 0.33002 0.0
N1654 N 0.78625 0.45592 0.34078 0.0
N1655 N 0.81709 0.42019 0.3248 0.0
H1656 H 0.18969 0.64157 0.7218 0.0
H1657 H 0.27696 0.58518 0.72555 0.0
H1658 H 0.24299 0.65409 0.69083 0.0
H1659 H 0.22604 0.57547 0.76022 0.0
H1660 H 0.26425 0.60989 0.71235 0.0
H1661 H 0.20215 0.61673 0.73558 0.0
C1662 C 0.20402 0.6391 0.7179 0.0
C1663 C 0.21537 0.6499 0.70515 0.0
C1664 C 0.25584 0.60239 0.72286 0.0
C1665 C 0.22967 0.6215 0.72082 0.0
C1666 C 0.26316 0.5883 0.73053 0.0
C1667 C 0.25265 0.57819 0.74417 0.0
C1668 C 0.23779 0.60651 0.72877 0.0
C1669 C 0.23461 0.5827 0.74967 0.0
C1670 C 0.21113 0.62493 0.72578 0.0
C1671 C 0.2338 0.64608 0.70062 0.0
N1672 N 0.22777 0.59652 0.74198 0.0
N1673 N 0.24036 0.63221 0.70841 0.0
H1674 H 0.21929 0.39028 0.33641 0.0
H1675 H 0.21335 0.46949 0.26925 0.0
H1676 H 0.16705 0.40909 0.3264 0.0
H1677 H 0.26689 0.45672 0.28362 0.0
H1678 H 0.19626 0.447 0.28995 0.0
H1679 H 0.23721 0.41456 0.31746 0.0
C1680 C 0.21161 0.39963 0.33038 0.0
C1681 C 0.19159 0.3975 0.33289 0.0
C1682 C 0.21176 0.44912 0.28863 0.0
C1683 C 0.21197 0.42511 0.31099 0.0
C1684 C 0.22152 0.46188 0.27669 0.0
C1685 C 0.2416 0.46496 0.2746 0.0
C1686 C 0.22208 0.43921 0.29855 0.0
C1687 C 0.25143 0.45492 0.28489 0.0
C1688 C 0.22183 0.41341 0.31948 0.0
C1689 C 0.18239 0.40991 0.32458 0.0
N1690 N 0.24157 0.44242 0.29635 0.0
N1691 N 0.19262 0.42307 0.31396 0.0
H1692 H 0.16222 0.69756 0.34868 0.0
H1693 H 0.07651 0.68389 0.28258 0.0
H1694 H 0.15286 0.65217 0.30609 0.0
H1695 H 0.08537 0.72994 0.32473 0.0
H1696 H 0.1043 0.67214 0.29125 0.0
H1697 H 0.13428 0.70977 0.34033 0.0
C1698 C 0.15431 0.69016 0.33758 0.0
C1699 C 0.15989 0.67378 0.32807 0.0
C1700 C 0.10019 0.68482 0.29863 0.0
C1701 C 0.12783 0.68769 0.31842 0.0
C1702 C 0.08417 0.69152 0.29373 0.0
C1703 C 0.07838 0.70799 0.30291 0.0
C1704 C 0.11066 0.69457 0.31289 0.0
C1705 C 0.08928 0.71734 0.31709 0.0
C1706 C 0.13833 0.69714 0.33281 0.0
C1707 C 0.14906 0.66482 0.3138 0.0
N1708 N 0.10481 0.7105 0.32164 0.0
N1709 N 0.13361 0.67186 0.30943 0.0
H1710 H 0.85632 0.6786 0.31166 0.0
H1711 H 0.76647 0.59175 0.32331 0.0
H1712 H 0.80483 0.68483 0.34335 0.0
H1713 H 0.81538 0.58646 0.28758 0.0
H1714 H 0.78127 0.62532 0.33206 0.0
H1715 H 0.8425 0.64435 0.30392 0.0
C1716 C 0.84215 0.67272 0.31708 0.0
C1717 C 0.83172 0.68458 0.3282 0.0
C1718 C 0.78881 0.61683 0.32233 0.0
C1719 C 0.81575 0.64543 0.31928 0.0
C1720 C 0.78038 0.59761 0.31734 0.0
C1721 C 0.78967 0.58626 0.30465 0.0
C1722 C 0.80671 0.62483 0.3146 0.0
C1723 C 0.80768 0.59468 0.29739 0.0
C1724 C 0.83423 0.6532 0.31258 0.0
C1725 C 0.8133 0.67627 0.33461 0.0
N1726 N 0.81561 0.61348 0.30246 0.0
N1727 N 0.80593 0.65721 0.33008 0.0
H1728 H 0.85622 0.3007 0.37485 0.0
H1729 H 0.95541 0.30721 0.317 0.0
H1730 H 0.88853 0.35424 0.3564 0.0
H1731 H 0.9245 0.25426 0.33762 0.0
H1732 H 0.93051 0.32439 0.33038 0.0
H1733 H 0.88052 0.28327 0.36049 0.0
C1734 C 0.86844 0.30883 0.36781 0.0
C1735 C 0.87032 0.32904 0.36693 0.0
C1736 C 0.92916 0.30901 0.33197 0.0
C1737 C 0.89822 0.30904 0.35027 0.0
C1738 C 0.94335 0.29912 0.32423 0.0
C1739 C 0.94212 0.27918 0.32612 0.0
C1740 C 0.91351 0.29892 0.34168 0.0
C1741 C 0.92624 0.26964 0.33595 0.0
C1742 C 0.88229 0.29883 0.35954 0.0
C1743 C 0.88633 0.33866 0.35731 0.0
N1744 N 0.91258 0.27958 0.34332 0.0
N1745 N 0.89966 0.3286 0.34942 0.0
H1746 H 0.91095 0.4251 0.71659 0.0
H1747 H 0.82174 0.47191 0.75803 0.0
H1748 H 0.85289 0.39292 0.7176 0.0
H1749 H 0.8722 0.50639 0.73438 0.0
H1750 H 0.8351 0.44244 0.7492 0.0
H1751 H 0.89897 0.45458 0.72876 0.0
C1752 C 0.89571 0.42419 0.71956 0.0
C1753 C 0.8829 0.40651 0.71603 0.0
C1754 C 0.84332 0.45649 0.74611 0.0
C1755 C 0.86912 0.44015 0.73013 0.0
C1756 C 0.83578 0.47336 0.75128 0.0
C1757 C 0.84584 0.49173 0.74695 0.0
C1758 C 0.86123 0.45794 0.73681 0.0
C1759 C 0.8639 0.49257 0.73798 0.0
C1760 C 0.88888 0.44103 0.72641 0.0
C1761 C 0.86326 0.40625 0.72 0.0
N1762 N 0.87102 0.47597 0.73324 0.0
N1763 N 0.85699 0.42275 0.7269 0.0
H1764 H 0.2055 0.35963 0.70793 0.0
H1765 H 0.13711 0.30703 0.78369 0.0
H1766 H 0.22461 0.32553 0.74486 0.0
H1767 H 0.11578 0.33049 0.74039 0.0
H1768 H 0.16976 0.31726 0.77164 0.0
H1769 H 0.17299 0.35219 0.72144 0.0
C1770 C 0.20285 0.35062 0.71892 0.0
C1771 C 0.21775 0.34314 0.72527 0.0
C1772 C 0.15795 0.32026 0.76482 0.0
C1773 C 0.18065 0.33461 0.74079 0.0
C1774 C 0.13928 0.31452 0.77174 0.0
C1775 C 0.12364 0.31781 0.76298 0.0
C1776 C 0.16107 0.32944 0.74905 0.0
C1777 C 0.12738 0.32758 0.74754 0.0
C1778 C 0.1843 0.34633 0.72658 0.0
C1779 C 0.2135 0.3314 0.73942 0.0
N1780 N 0.14572 0.33299 0.74103 0.0
N1781 N 0.19535 0.32754 0.74674 0.0
H1782 H 0.91036 0.73409 0.65804 0.0
H1783 H 0.9391 0.77705 0.75551 0.0
H1784 H 0.87202 0.73106 0.70445 0.0
H1785 H 0.98137 0.76851 0.71366 0.0
H1786 H 0.914 0.7682 0.73445 0.0
H1787 H 0.93599 0.75333 0.67599 0.0
C1788 C 0.90731 0.73768 0.67195 0.0
C1789 C 0.88915 0.73081 0.67986 0.0
C1790 C 0.92877 0.76859 0.72972 0.0
C1791 C 0.91816 0.75287 0.70031 0.0
C1792 C 0.94311 0.77384 0.74171 0.0
C1793 C 0.96225 0.77347 0.73625 0.0
C1794 C 0.93353 0.76254 0.71215 0.0
C1795 C 0.96674 0.7691 0.71829 0.0
C1796 C 0.9219 0.7486 0.68216 0.0
C1797 C 0.8859 0.73581 0.69791 0.0
N1798 N 0.95239 0.76343 0.70686 0.0
N1799 N 0.90025 0.74647 0.7075 0.0
H1800 H 0.71675 0.17605 0.64569 0.0
H1801 H 0.74466 0.26341 0.58264 0.0
H1802 H 0.69778 0.23102 0.65711 0.0
H1803 H 0.76714 0.21007 0.57566 0.0
H1804 H 0.72472 0.25097 0.6082 0.0
H1805 H 0.73269 0.18746 0.61831 0.0
C1806 C 0.71595 0.19056 0.64244 0.0
C1807 C 0.70608 0.20266 0.65385 0.0
C1808 C 0.73394 0.24198 0.60098 0.0
C1809 C 0.72427 0.21586 0.62229 0.0
C1810 C 0.74527 0.24904 0.58636 0.0
C1811 C 0.75769 0.23782 0.57705 0.0
C1812 C 0.73501 0.22355 0.60623 0.0
C1813 C 0.75792 0.21932 0.58249 0.0
C1814 C 0.725 0.19705 0.62674 0.0
C1815 C 0.70517 0.22116 0.6487 0.0
N1816 N 0.74684 0.21283 0.5967 0.0
N1817 N 0.71427 0.22726 0.63335 0.0
H1818 H 0.28269 0.23301 0.62829 0.0
H1819 H 0.32319 0.27905 0.538 0.0
H1820 H 0.34179 0.24082 0.60878 0.0
H1821 H 0.26752 0.28481 0.56178 0.0
H1822 H 0.32767 0.25943 0.56141 0.0
H1823 H 0.27475 0.24714 0.60208 0.0
C1824 C 0.29395 0.23761 0.61845 0.0
C1825 C 0.31294 0.23591 0.62078 0.0
C1826 C 0.31437 0.26478 0.56148 0.0
C1827 C 0.30397 0.2518 0.59078 0.0
C1828 C 0.31174 0.27592 0.54804 0.0
C1829 C 0.29501 0.28372 0.548 0.0
C1830 C 0.30022 0.26141 0.57517 0.0
C1831 C 0.28062 0.27904 0.56129 0.0
C1832 C 0.28942 0.24566 0.60354 0.0
C1833 C 0.32699 0.24201 0.60764 0.0
N1834 N 0.28364 0.26835 0.57449 0.0
N1835 N 0.32222 0.24967 0.59326 0.0
H1836 H 0.39204 0.85152 0.652 0.0
H1837 H 0.29891 0.80217 0.59942 0.0
H1838 H 0.33462 0.85368 0.67319 0.0
H1839 H 0.35677 0.80978 0.57633 0.0
H1840 H 0.31122 0.8204 0.62656 0.0
H1841 H 0.379 0.83561 0.62439 0.0
C1842 C 0.37665 0.84865 0.65084 0.0
C1843 C 0.36442 0.85386 0.66502 0.0
C1844 C 0.32118 0.81809 0.6155 0.0
C1845 C 0.34927 0.83549 0.63324 0.0
C1846 C 0.31416 0.80769 0.59991 0.0
C1847 C 0.32674 0.80418 0.58537 0.0
C1848 C 0.34098 0.82501 0.6167 0.0
C1849 C 0.34641 0.81167 0.5871 0.0
C1850 C 0.3692 0.83961 0.63501 0.0
C1851 C 0.3446 0.85001 0.66259 0.0
N1852 N 0.35286 0.8216 0.60241 0.0
N1853 N 0.33762 0.84092 0.64708 0.0
H1854 H 0.72887 0.87589 0.64993 0.0
H1855 H 0.81103 0.89751 0.57337 0.0
H1856 H 0.77523 0.92558 0.65351 0.0
H1857 H 0.76236 0.85017 0.56959 0.0
H1858 H 0.79864 0.90797 0.60273 0.0
H1859 H 0.74149 0.86612 0.62062 0.0
C1860 C 0.74174 0.88478 0.64456 0.0
C1861 C 0.75106 0.9016 0.65419 0.0
C1862 C 0.79069 0.89529 0.59545 0.0
C1863 C 0.76562 0.89043 0.6205 0.0
C1864 C 0.79772 0.88934 0.57863 0.0
C1865 C 0.78778 0.87287 0.56891 0.0
C1866 C 0.77359 0.8847 0.60265 0.0
C1867 C 0.77071 0.86275 0.5766 0.0
C1868 C 0.74894 0.87917 0.62777 0.0
C1869 C 0.76764 0.91251 0.64649 0.0
N1870 N 0.76419 0.86882 0.59297 0.0
N1871 N 0.77443 0.90673 0.63008 0.0
H1872 H 0.68599 0.84066 0.41598 0.0
H1873 H 0.78803 0.86024 0.4578 0.0
H1874 H 0.73973 0.86051 0.38772 0.0
H1875 H 0.74043 0.8209 0.48061 0.0
H1876 H 0.76879 0.86287 0.43354 0.0
H1877 H 0.70389 0.83523 0.44104 0.0
C1878 C 0.70151 0.84382 0.41504 0.0
C1879 C 0.71145 0.85116 0.39981 0.0
C1880 C 0.76246 0.8536 0.44378 0.0
C1881 C 0.73183 0.84513 0.42828 0.0
C1882 C 0.77344 0.85215 0.45777 0.0
C1883 C 0.76584 0.84036 0.47136 0.0
C1884 C 0.74351 0.84337 0.44327 0.0
C1885 C 0.74685 0.83013 0.47039 0.0
C1886 C 0.71168 0.84065 0.42929 0.0
C1887 C 0.73152 0.85492 0.39923 0.0
N1888 N 0.73623 0.83197 0.4566 0.0
N1889 N 0.741 0.852 0.41325 0.0
H1890 H 0.71703 0.20617 0.40282 0.0
H1891 H 0.80498 0.21664 0.46563 0.0
H1892 H 0.77302 0.19511 0.38438 0.0
H1893 H 0.75248 0.23695 0.48218 0.0
H1894 H 0.79275 0.20688 0.4363 0.0
H1895 H 0.7291 0.21612 0.43223 0.0
C1896 C 0.73188 0.20591 0.40486 0.0
C1897 C 0.74394 0.19968 0.39093 0.0
C1898 C 0.78389 0.21348 0.44633 0.0
C1899 C 0.75782 0.21084 0.42487 0.0
C1900 C 0.79083 0.21895 0.46317 0.0
C1901 C 0.77978 0.22765 0.47652 0.0
C1902 C 0.76565 0.21654 0.44271 0.0
C1903 C 0.76162 0.2305 0.47234 0.0
C1904 C 0.73874 0.21151 0.42174 0.0
C1905 C 0.76299 0.19941 0.39464 0.0
N1906 N 0.75513 0.22492 0.45587 0.0
N1907 N 0.76928 0.20484 0.41118 0.0
H1908 H 0.34289 0.22581 0.41186 0.0
H1909 H 0.34761 0.33458 0.45708 0.0
H1910 H 0.37642 0.27636 0.38924 0.0
H1911 H 0.31603 0.28289 0.47931 0.0
H1912 H 0.35959 0.31385 0.43267 0.0
H1913 H 0.33382 0.24683 0.4372 0.0
C1914 C 0.34838 0.24137 0.4123 0.0
C1915 C 0.36036 0.24937 0.39849 0.0
C1916 C 0.35007 0.30709 0.44293 0.0
C1917 C 0.35004 0.2736 0.42738 0.0
C1918 C 0.34331 0.3189 0.45688 0.0
C1919 C 0.33061 0.31046 0.47011 0.0
C1920 C 0.34409 0.28673 0.4423 0.0
C1921 C 0.32542 0.29006 0.4692 0.0
C1922 C 0.34322 0.25338 0.42675 0.0
C1923 C 0.36712 0.2696 0.39964 0.0
N1924 N 0.33212 0.27894 0.45553 0.0
N1925 N 0.3618 0.28107 0.41384 0.0
H1926 H 0.30598 0.81173 0.40725 0.0
H1927 H 0.30662 0.84126 0.50989 0.0
H1928 H 0.32328 0.87148 0.42807 0.0
H1929 H 0.26946 0.79001 0.48739 0.0
H1930 H 0.31329 0.85286 0.4804 0.0
H1931 H 0.29327 0.80325 0.43673 0.0
C1932 C 0.307 0.82307 0.41805 0.0
C1933 C 0.31573 0.84231 0.41527 0.0
C1934 C 0.30342 0.83924 0.48199 0.0
C1935 C 0.3014 0.83271 0.44906 0.0
C1936 C 0.29958 0.83262 0.49882 0.0
C1937 C 0.28752 0.8146 0.50114 0.0
C1938 C 0.29546 0.82756 0.46733 0.0
C1939 C 0.27882 0.80401 0.48628 0.0
C1940 C 0.29966 0.81826 0.43484 0.0
C1941 C 0.31658 0.85649 0.42968 0.0
N1942 N 0.28322 0.81048 0.46999 0.0
N1943 N 0.30974 0.85137 0.44602 0.0
H1944 H 0.64232 0.16961 0.71117 0.0
H1945 H 0.57188 0.247 0.72374 0.0
H1946 H 0.65624 0.22684 0.69209 0.0
H1947 H 0.55751 0.18984 0.74291 0.0
H1948 H 0.60259 0.23962 0.71177 0.0
H1949 H 0.61112 0.17651 0.72258 0.0
C1950 C 0.63887 0.18367 0.70943 0.0
C1951 C 0.65203 0.19768 0.70067 0.0
C1952 C 0.59273 0.22866 0.71857 0.0
C1953 C 0.61612 0.20561 0.71361 0.0
C1954 C 0.57517 0.23291 0.72553 0.0
C1955 C 0.56202 0.21908 0.7345 0.0
C1956 C 0.59733 0.21042 0.72056 0.0
C1957 C 0.56706 0.20091 0.73602 0.0
C1958 C 0.62098 0.18755 0.71588 0.0
C1959 C 0.64654 0.2155 0.69857 0.0
N1960 N 0.58431 0.19714 0.72918 0.0
N1961 N 0.62907 0.21895 0.70502 0.0
H1962 H 0.33624 0.19445 0.71396 0.0
H1963 H 0.29666 0.0801 0.69429 0.0
H1964 H 0.3239 0.16649 0.662 0.0
H1965 H 0.3127 0.10741 0.74564 0.0
H1966 H 0.30264 0.11221 0.68295 0.0
H1967 H 0.32376 0.16342 0.72642 0.0
C1968 C 0.33078 0.18181 0.70517 0.0
C1969 C 0.33132 0.18308 0.68686 0.0
C1970 C 0.3047 0.1112 0.69674 0.0
C1971 C 0.31694 0.14742 0.70109 0.0
C1972 C 0.30135 0.09284 0.70322 0.0
C1973 C 0.30439 0.09094 0.72092 0.0
C1974 C 0.31121 0.12789 0.70799 0.0
C1975 C 0.31008 0.10807 0.73194 0.0
C1976 C 0.32361 0.1641 0.71231 0.0
C1977 C 0.3237 0.16628 0.67618 0.0
N1978 N 0.31348 0.12578 0.72525 0.0
N1979 N 0.31701 0.14913 0.68343 0.0
H1980 H 0.4319 0.82694 0.70629 0.0
H1981 H 0.49861 0.80415 0.77932 0.0
H1982 H 0.43528 0.8567 0.75853 0.0
H1983 H 0.49716 0.77642 0.72621 0.0
H1984 H 0.47526 0.82313 0.77212 0.0
H1985 H 0.45537 0.80799 0.7135 0.0
C1986 C 0.43757 0.82952 0.7193 0.0
C1987 C 0.43157 0.84347 0.73185 0.0
C1988 C 0.48005 0.8129 0.76203 0.0
C1989 C 0.45857 0.82169 0.74022 0.0
C1990 C 0.49352 0.80206 0.76611 0.0
C1991 C 0.50008 0.78857 0.75337 0.0
C1992 C 0.47293 0.81032 0.74506 0.0
C1993 C 0.49252 0.78641 0.73657 0.0
C1994 C 0.45101 0.81866 0.72341 0.0
C1995 C 0.43949 0.84611 0.74846 0.0
N1996 N 0.47943 0.79715 0.73293 0.0
N1997 N 0.45253 0.83534 0.75217 0.0
H1998 H 0.71611 0.92282 0.75976 0.0
H1999 H 0.74343 0.03891 0.76906 0.0
H2000 H 0.72034 0.95755 0.71546 0.0
H2001 H 0.73151 1.0041 0.81343 0.0
H2002 H 0.73362 0.00961 0.74922 0.0
H2003 H 0.72126 0.95257 0.77955 0.0
C2004 C 0.71807 0.93674 0.75419 0.0
C2005 C 0.71766 0.93769 0.73591 0.0
C2006 C 0.73287 1.00838 0.7633 0.0
C2007 C 0.72373 0.97191 0.75857 0.0
C2008 C 0.73839 0.02509 0.77461 0.0
C2009 C 0.73834 0.02384 0.79286 0.0
C2010 C 0.72746 0.99024 0.7703 0.0
C2011 C 0.73162 1.00568 0.79946 0.0
C2012 C 0.72101 0.95373 0.76552 0.0
C2013 C 0.7207 0.95614 0.72943 0.0
N2014 N 0.72669 0.98952 0.78815 0.0
N2015 N 0.7236 0.97254 0.74077 0.0
H2016 H 0.61503 0.87237 0.34114 0.0
H2017 H 0.54168 0.77113 0.33327 0.0
H2018 H 0.62861 0.81806 0.35393 0.0
H2019 H 0.53814 0.81777 0.30138 0.0
H2020 H 0.57086 0.79031 0.34526 0.0
H2021 H 0.58435 0.85452 0.3306 0.0
C2022 C 0.61164 0.85671 0.34175 0.0
C2023 C 0.62465 0.84673 0.34834 0.0
C2024 C 0.5637 0.79639 0.33567 0.0
C2025 C 0.58925 0.82635 0.33665 0.0
C2026 C 0.54696 0.78549 0.32884 0.0
C2027 C 0.53744 0.79282 0.31621 0.0
C2028 C 0.571 0.81493 0.33005 0.0
C2029 C 0.54506 0.81153 0.31102 0.0
C2030 C 0.59407 0.84658 0.33577 0.0
C2031 C 0.61908 0.8265 0.3492 0.0
N2032 N 0.56142 0.82199 0.318 0.0
N2033 N 0.60184 0.81701 0.34343 0.0
H2034 H 0.74589 0.16889 0.30929 0.0
H2035 H 0.77777 0.06443 0.30577 0.0
H2036 H 0.74491 0.13803 0.35572 0.0
H2037 H 0.76464 0.09053 0.26037 0.0
H2038 H 0.77063 0.09315 0.32467 0.0
H2039 H 0.75699 0.14195 0.29156 0.0
C2040 C 0.74787 0.15644 0.31581 0.0
C2041 C 0.74422 0.15585 0.33412 0.0
C2042 C 0.76952 0.09262 0.31054 0.0
C2043 C 0.75747 0.12482 0.31371 0.0
C2044 C 0.77377 0.07633 0.29976 0.0
C2045 C 0.77174 0.07506 0.28148 0.0
C2046 C 0.76346 0.10778 0.3029 0.0
C2047 C 0.76626 0.09081 0.27441 0.0
C2048 C 0.75439 0.14106 0.30564 0.0
C2049 C 0.74766 0.13937 0.34172 0.0
N2050 N 0.76231 0.10639 0.28507 0.0
N2051 N 0.75403 0.12455 0.33151 0.0
H2052 H 0.43768 0.22692 0.34094 0.0
H2053 H 0.49881 0.25021 0.2517 0.0
H2054 H 0.41126 0.23376 0.29336 0.0
H2055 H 0.51722 0.21783 0.29033 0.0
H2056 H 0.46769 0.2485 0.26809 0.0
H2057 H 0.46863 0.22862 0.32416 0.0
C2058 C 0.43852 0.22912 0.32702 0.0
C2059 C 0.42205 0.23029 0.31846 0.0
C2060 C 0.47848 0.24161 0.27288 0.0
C2061 C 0.45708 0.23206 0.29928 0.0
C2062 C 0.49613 0.24255 0.26355 0.0
C2063 C 0.51041 0.23402 0.26967 0.0
C2064 C 0.47529 0.23245 0.28865 0.0
C2065 C 0.50642 0.22433 0.2851 0.0
C2066 C 0.45605 0.22985 0.31744 0.0
C2067 C 0.42372 0.23282 0.30037 0.0
N2068 N 0.48926 0.22399 0.29421 0.0
N2069 N 0.44096 0.23369 0.29136 0.0
H2070 H 0.30011 0.90729 0.36029 0.0
H2071 H 0.31647 0.98095 0.28412 0.0
H2072 H 0.34894 0.91318 0.32305 0.0
H2073 H 0.26869 0.97656 0.32259 0.0
H2074 H 0.32847 0.95602 0.29805 0.0
H2075 H 0.28823 0.93244 0.34654 0.0
C2076 C 0.30835 0.91388 0.34922 0.0
C2077 C 0.32557 0.90816 0.34279 0.0
C2078 C 0.31537 0.96052 0.30346 0.0
C2079 C 0.31203 0.93696 0.32695 0.0
C2080 C 0.3085 0.97478 0.29551 0.0
C2081 C 0.29153 0.9809 0.30218 0.0
C2082 C 0.3052 0.95226 0.31821 0.0
C2083 C 0.28184 0.97233 0.31698 0.0
C2084 C 0.30155 0.92826 0.34137 0.0
C2085 C 0.33561 0.9172 0.32841 0.0
N2086 N 0.28879 0.95846 0.32446 0.0
N2087 N 0.3287 0.93112 0.32097 0.0
H2088 H 0.75148 0.13709 0.69569 0.0
H2089 H 0.76964 0.13415 0.79773 0.0
H2090 H 0.72405 0.16771 0.7389 0.0
H2091 H 0.79022 0.09478 0.7571 0.0
H2092 H 0.75692 0.14975 0.77535 0.0
H2093 H 0.76907 0.1241 0.717 0.0
C2094 C 0.74921 0.1411 0.70965 0.0
C2095 C 0.73619 0.15337 0.71555 0.0
C2096 C 0.76431 0.13779 0.77122 0.0
C2097 C 0.75633 0.13878 0.7399 0.0
C2098 C 0.77166 0.12889 0.78402 0.0
C2099 C 0.78085 0.11299 0.7793 0.0
C2100 C 0.76599 0.13076 0.75343 0.0
C2101 C 0.78324 0.107 0.7613 0.0
C2102 C 0.75924 0.1337 0.72177 0.0
C2103 C 0.73381 0.15819 0.73374 0.0
N2104 N 0.77565 0.11577 0.74898 0.0
N2105 N 0.74376 0.15089 0.74522 0.0
H2106 H 0.71029 0.88945 0.33525 0.0
H2107 H 0.69802 0.97882 0.28188 0.0
H2108 H 0.65747 0.91116 0.33551 0.0
H2109 H 0.75185 0.95982 0.28456 0.0
H2110 H 0.6828 0.95379 0.30117 0.0
H2111 H 0.72586 0.9152 0.3168 0.0
C2112 C 0.702 0.89973 0.33157 0.0
C2113 C 0.68251 0.89807 0.33691 0.0
C2114 C 0.69796 0.95511 0.29756 0.0
C2115 C 0.70018 0.92745 0.31555 0.0
C2116 C 0.70663 0.96933 0.28644 0.0
C2117 C 0.72627 0.97148 0.28159 0.0
C2118 C 0.70897 0.94284 0.30383 0.0
C2119 C 0.73675 0.95891 0.28813 0.0
C2120 C 0.71087 0.91436 0.32093 0.0
C2121 C 0.67244 0.91167 0.3315 0.0
N2122 N 0.72797 0.94513 0.29887 0.0
N2123 N 0.68137 0.92572 0.3211 0.0
H2124 H 0.70457 0.22278 0.29093 0.0
H2125 H 0.60456 0.26058 0.30076 0.0
H2126 H 0.67169 0.22379 0.34055 0.0
H2127 H 0.64352 0.26423 0.25486 0.0
H2128 H 0.62894 0.2495 0.31687 0.0
H2129 H 0.68235 0.23955 0.27854 0.0
C2130 C 0.69264 0.22662 0.29926 0.0
C2131 C 0.69003 0.22184 0.31679 0.0
C2132 C 0.63225 0.25312 0.30338 0.0
C2133 C 0.66409 0.24112 0.30256 0.0
C2134 C 0.61843 0.25968 0.29428 0.0
C2135 C 0.62209 0.26346 0.27648 0.0
C2136 C 0.64973 0.25031 0.29454 0.0
C2137 C 0.64011 0.26153 0.26857 0.0
C2138 C 0.67991 0.23627 0.29218 0.0
C2139 C 0.67428 0.22722 0.32696 0.0
N2140 N 0.65308 0.255 0.27755 0.0
N2141 N 0.6618 0.23644 0.31967 0.0
H2142 H 0.34978 0.17807 0.34975 0.0
H2143 H 0.34088 0.10126 0.26774 0.0
H2144 H 0.3616 0.19454 0.29644 0.0
H2145 H 0.30535 0.08996 0.31506 0.0
H2146 H 0.34907 0.13562 0.27857 0.0
H2147 H 0.33274 0.14612 0.33813 0.0
C2148 C 0.3484 0.17517 0.33564 0.0
C2149 C 0.35747 0.18886 0.32401 0.0
C2150 C 0.33932 0.12571 0.28655 0.0
C2151 C 0.33847 0.15227 0.31071 0.0
C2152 C 0.33483 0.10612 0.28044 0.0
C2153 C 0.32265 0.09288 0.29067 0.0
C2154 C 0.33191 0.13204 0.30318 0.0
C2155 C 0.31485 0.09984 0.30689 0.0
C2156 C 0.33876 0.15689 0.32903 0.0
C2157 C 0.35529 0.18422 0.30586 0.0
N2158 N 0.31987 0.11897 0.31283 0.0
N2159 N 0.34634 0.16619 0.29975 0.0
H2160 H 0.34533 0.80126 0.37099 0.0
H2161 H 0.44595 0.8059 0.31584 0.0
H2162 H 0.37984 0.85437 0.3537 0.0
H2163 H 0.41465 0.7537 0.33747 0.0
H2164 H 0.42087 0.82335 0.32812 0.0
H2165 H 0.36962 0.78321 0.35756 0.0
C2166 C 0.35802 0.80916 0.36442 0.0
C2167 C 0.36051 0.82944 0.36356 0.0
C2168 C 0.41945 0.80806 0.33017 0.0
C2169 C 0.38835 0.80873 0.34795 0.0
C2170 C 0.43374 0.79802 0.32304 0.0
C2171 C 0.43246 0.77822 0.32556 0.0
C2172 C 0.40363 0.7983 0.3399 0.0
C2173 C 0.41638 0.76896 0.33533 0.0
C2174 C 0.37186 0.7988 0.35668 0.0
C2175 C 0.37713 0.83875 0.35454 0.0
N2176 N 0.4026 0.77907 0.34212 0.0
N2177 N 0.39039 0.82835 0.34714 0.0
H2178 H 0.36835 0.89553 0.7437 0.0
H2179 H 0.33773 0.99825 0.73322 0.0
H2180 H 0.36738 0.91913 0.69369 0.0
H2181 H 0.33635 0.97411 0.78329 0.0
H2182 H 0.35027 0.97021 0.71884 0.0
H2183 H 0.3583 0.92479 0.75863 0.0
C2184 C 0.36616 0.90687 0.73583 0.0
C2185 C 0.36867 0.90467 0.71732 0.0
C2186 C 0.34733 0.97107 0.73299 0.0
C2187 C 0.35698 0.93835 0.73444 0.0
C2188 C 0.34021 0.98717 0.74126 0.0
C2189 C 0.33591 0.98866 0.75957 0.0
C2190 C 0.35023 0.95619 0.74302 0.0
C2191 C 0.33943 0.97368 0.76918 0.0
C2192 C 0.36031 0.92358 0.74439 0.0
C2193 C 0.36535 0.9199 0.70792 0.0
N2194 N 0.34629 0.95811 0.76081 0.0
N2195 N 0.3597 0.93598 0.71654 0.0
H2196 H 0.66649 0.86219 0.69972 0.0
H2197 H 0.60819 0.81717 0.78382 0.0
H2198 H 0.68614 0.87562 0.75261 0.0
H2199 H 0.59943 0.79117 0.73061 0.0
H2200 H 0.63524 0.84071 0.7726 0.0
H2201 H 0.64043 0.83752 0.71073 0.0
C2202 C 0.66546 0.85985 0.7136 0.0
C2203 C 0.67848 0.87111 0.72527 0.0
C2204 C 0.62741 0.8298 0.76341 0.0
C2205 C 0.64848 0.84319 0.73799 0.0
C2206 C 0.61194 0.81644 0.76979 0.0
C2207 C 0.60157 0.80222 0.75812 0.0
C2208 C 0.63238 0.82905 0.74523 0.0
C2209 C 0.60708 0.80187 0.74007 0.0
C2210 C 0.65051 0.84584 0.71989 0.0
C2211 C 0.67622 0.86759 0.74319 0.0
N2212 N 0.62206 0.81516 0.73416 0.0
N2213 N 0.66144 0.85404 0.74901 0.0
H2214 H 0.37805 0.24135 0.71055 0.0
H2215 H 0.48994 0.24949 0.69388 0.0
H2216 H 0.40399 0.23448 0.65808 0.0
H2217 H 0.46458 0.2769 0.7404 0.0
H2218 H 0.45909 0.24431 0.68009 0.0
H2219 H 0.40982 0.25444 0.72168 0.0
C2220 C 0.39047 0.24277 0.70136 0.0
C2221 C 0.38845 0.23679 0.6834 0.0
C2222 C 0.46039 0.25177 0.69319 0.0
C2223 C 0.42487 0.25151 0.69603 0.0
C2224 C 0.47801 0.25475 0.70107 0.0
C2225 C 0.47986 0.2635 0.71839 0.0
C2226 C 0.44442 0.25724 0.70282 0.0
C2227 C 0.46387 0.27005 0.72705 0.0
C2228 C 0.40858 0.25031 0.70769 0.0
C2229 C 0.40497 0.23901 0.67202 0.0
N2230 N 0.44677 0.26648 0.7193 0.0
N2231 N 0.42254 0.24593 0.67856 0.0
H2232 H 0.66993 0.73852 0.16484 0.0
H2233 H 0.73707 0.7331 0.0767 0.0
H2234 H 0.6882 0.68547 0.14287 0.0
H2235 H 0.70386 0.77835 0.0899 0.0
H2236 H 0.72194 0.71672 0.10247 0.0
H2237 H 0.68454 0.75448 0.13887 0.0
C2238 C 0.67684 0.73011 0.15454 0.0
C2239 C 0.6777 0.71049 0.15618 0.0
C2240 C 0.71794 0.73021 0.0997 0.0
C2241 C 0.69495 0.729 0.12646 0.0
C2242 C 0.72666 0.73963 0.08506 0.0
C2243 C 0.72171 0.75711 0.08112 0.0
C2244 C 0.70435 0.73848 0.11065 0.0
C2245 C 0.70795 0.7648 0.09232 0.0
C2246 C 0.6853 0.73933 0.13974 0.0
C2247 C 0.68736 0.70065 0.14246 0.0
N2248 N 0.69984 0.7555 0.10661 0.0
N2249 N 0.69564 0.71002 0.12825 0.0
H2250 H 0.28696 0.7302 0.12812 0.0
H2251 H 0.30998 0.75227 0.02821 0.0
H2252 H 0.34421 0.73526 0.10412 0.0
H2253 H 0.26153 0.76907 0.05889 0.0
H2254 H 0.32279 0.74535 0.05539 0.0
H2255 H 0.2769 0.74315 0.10233 0.0
C2256 C 0.29741 0.73413 0.11743 0.0
C2257 C 0.31641 0.73168 0.11823 0.0
C2258 C 0.30949 0.75081 0.05618 0.0
C2259 C 0.30502 0.74631 0.08863 0.0
C2260 C 0.30218 0.7548 0.04067 0.0
C2261 C 0.28456 0.76113 0.04121 0.0
C2262 C 0.29895 0.7528 0.0723 0.0
C2263 C 0.27511 0.76416 0.05778 0.0
C2264 C 0.2917 0.7416 0.10277 0.0
C2265 C 0.32942 0.73698 0.10405 0.0
N2266 N 0.28226 0.75967 0.07261 0.0
N2267 N 0.32343 0.74386 0.08974 0.0
H2268 H 0.37824 0.37797 0.14873 0.0
H2269 H 0.3344 0.28083 0.08881 0.0
H2270 H 0.38182 0.32058 0.16239 0.0
H2271 H 0.32233 0.3381 0.08455 0.0
H2272 H 0.35561 0.29473 0.11303 0.0
H2273 H 0.36165 0.36328 0.12247 0.0
C2274 C 0.37551 0.36224 0.14625 0.0
C2275 C 0.38121 0.35055 0.15807 0.0
C2276 C 0.3484 0.30422 0.10665 0.0
C2277 C 0.36221 0.33343 0.12758 0.0
C2278 C 0.33641 0.29631 0.09277 0.0
C2279 C 0.32648 0.30828 0.08468 0.0
C2280 C 0.35063 0.32425 0.11226 0.0
C2281 C 0.32952 0.32823 0.09046 0.0
C2282 C 0.36608 0.35382 0.13114 0.0
C2283 C 0.37771 0.33021 0.15371 0.0
N2284 N 0.34122 0.33551 0.1038 0.0
N2285 N 0.36832 0.32229 0.13891 0.0
H2286 H 0.79817 0.28896 0.15606 0.0
H2287 H 0.79787 0.36238 0.08192 0.0
H2288 H 0.8054 0.35142 0.16673 0.0
H2289 H 0.79665 0.30063 0.07055 0.0
H2290 H 0.79847 0.3584 0.11335 0.0
H2291 H 0.79543 0.29263 0.12477 0.0
C2292 C 0.79897 0.30341 0.15183 0.0
C2293 C 0.80155 0.31982 0.16406 0.0
C2294 C 0.798 0.34572 0.10395 0.0
C2295 C 0.79864 0.32423 0.12838 0.0
C2296 C 0.79773 0.34801 0.086 0.0
C2297 C 0.79717 0.33184 0.07352 0.0
C2298 C 0.79773 0.32713 0.10949 0.0
C2299 C 0.79676 0.31349 0.07963 0.0
C2300 C 0.79742 0.30552 0.134 0.0
C2301 C 0.80275 0.33827 0.15791 0.0
N2302 N 0.79709 0.31166 0.09715 0.0
N2303 N 0.80128 0.33996 0.14051 0.0
H2304 H 0.70037 0.32541 0.89966 0.0
H2305 H 0.75406 0.36058 0.98936 0.0
H2306 H 0.71513 0.38519 0.92126 0.0
H2307 H 0.74936 0.30181 0.96498 0.0
H2308 H 0.73516 0.36819 0.96656 0.0
H2309 H 0.71426 0.3151 0.92501 0.0
C2310 C 0.70641 0.33634 0.90978 0.0
C2311 C 0.70666 0.35621 0.90838 0.0
C2312 C 0.73808 0.35355 0.96619 0.0
C2313 C 0.7224 0.34454 0.93735 0.0
C2314 C 0.74884 0.34916 0.97929 0.0
C2315 C 0.75345 0.33056 0.97902 0.0
C2316 C 0.73189 0.33931 0.95252 0.0
C2317 C 0.74611 0.31633 0.9657 0.0
C2318 C 0.71434 0.33045 0.92422 0.0
C2319 C 0.7147 0.36974 0.92182 0.0
N2320 N 0.73585 0.32106 0.95284 0.0
N2321 N 0.72222 0.36367 0.93569 0.0
H2322 H 0.75632 0.67265 0.91322 0.0
H2323 H 0.75702 0.77428 0.97095 0.0
H2324 H 0.74842 0.72572 0.89298 0.0
H2325 H 0.77473 0.72613 0.99208 0.0
H2326 H 0.75486 0.75616 0.94217 0.0
H2327 H 0.76428 0.69115 0.94174 0.0
C2328 C 0.75646 0.68819 0.91467 0.0
C2329 C 0.75139 0.69755 0.90068 0.0
C2330 C 0.75934 0.74944 0.95297 0.0
C2331 C 0.76035 0.71875 0.93332 0.0
C2332 C 0.76054 0.75982 0.9695 0.0
C2333 C 0.76591 0.75166 0.98402 0.0
C2334 C 0.76325 0.73046 0.95075 0.0
C2335 C 0.77054 0.73296 0.98123 0.0
C2336 C 0.76094 0.69872 0.93099 0.0
C2337 C 0.75177 0.71771 0.90342 0.0
N2338 N 0.76887 0.72285 0.96493 0.0
N2339 N 0.756 0.72751 0.91935 0.0
H2340 H 0.32674 0.70875 0.86847 0.0
H2341 H 0.29177 0.76468 0.95744 0.0
H2342 H 0.35427 0.76627 0.88852 0.0
H2343 H 0.26371 0.70729 0.93749 0.0
H2344 H 0.31357 0.76619 0.93141 0.0
H2345 H 0.30239 0.70867 0.89265 0.0
C2346 C 0.32759 0.72144 0.8779 0.0
C2347 C 0.3426 0.73754 0.8766 0.0
C2348 C 0.3026 0.75329 0.93266 0.0
C2349 C 0.31482 0.73747 0.90434 0.0
C2350 C 0.29002 0.75245 0.94752 0.0
C2351 C 0.27579 0.73582 0.94969 0.0
C2352 C 0.30105 0.73737 0.91985 0.0
C2353 C 0.27457 0.72029 0.93648 0.0
C2354 C 0.31368 0.72136 0.89172 0.0
C2355 C 0.34294 0.75357 0.88913 0.0
N2356 N 0.28706 0.72143 0.92213 0.0
N2357 N 0.32931 0.75309 0.90255 0.0
H2358 H 0.33983 0.31038 0.89734 0.0
H2359 H 0.30872 0.35141 0.99473 0.0
H2360 H 0.34375 0.37164 0.91374 0.0
H2361 H 0.30527 0.29021 0.97834 0.0
H2362 H 0.32077 0.3591 0.96496 0.0
H2363 H 0.3267 0.30269 0.92684 0.0
C2364 C 0.33799 0.32223 0.90715 0.0
C2365 C 0.34294 0.3417 0.90302 0.0
C2366 C 0.31737 0.34398 0.96788 0.0
C2367 C 0.32774 0.33298 0.93685 0.0
C2368 C 0.31038 0.33957 0.98488 0.0
C2369 C 0.30603 0.32013 0.98914 0.0
C2370 C 0.32001 0.32884 0.95498 0.0
C2371 C 0.30872 0.30542 0.97581 0.0
C2372 C 0.3304 0.31782 0.92398 0.0
C2373 C 0.33994 0.35641 0.91623 0.0
N2374 N 0.31553 0.31009 0.95937 0.0
N2375 N 0.33258 0.35175 0.93253 0.0
H2376 H 0.63387 0.73218 0.20394 0.0
H2377 H 0.53436 0.68978 0.25479 0.0
H2378 H 0.61303 0.67089 0.20893 0.0
H2379 H 0.55907 0.75114 0.25622 0.0
H2380 H 0.56203 0.68261 0.23639 0.0
H2381 H 0.60517 0.73946 0.22093 0.0
C2382 C 0.62317 0.72025 0.20846 0.0
C2383 C 0.62591 0.70091 0.20511 0.0
C2384 C 0.56137 0.69765 0.24072 0.0
C2385 C 0.59312 0.70912 0.22468 0.0
C2386 C 0.54558 0.70177 0.25135 0.0
C2387 C 0.54423 0.72113 0.25715 0.0
C2388 C 0.57598 0.71298 0.23576 0.0
C2389 C 0.55923 0.73602 0.25194 0.0
C2390 C 0.60686 0.72441 0.21827 0.0
C2391 C 0.61164 0.68604 0.21143 0.0
N2392 N 0.57442 0.73163 0.24157 0.0
N2393 N 0.59591 0.69045 0.22092 0.0
H2394 H 0.33767 0.67859 0.20252 0.0
H2395 H 0.30868 0.56445 0.17481 0.0
H2396 H 0.33244 0.6549 0.14837 0.0
H2397 H 0.304 0.5901 0.22841 0.0
H2398 H 0.31698 0.59715 0.16471 0.0
H2399 H 0.32494 0.64618 0.21212 0.0
C2400 C 0.33368 0.66654 0.19265 0.0
C2401 C 0.3362 0.6694 0.17462 0.0
C2402 C 0.31405 0.59559 0.17867 0.0
C2403 C 0.32175 0.63212 0.18551 0.0
C2404 C 0.30924 0.57687 0.18448 0.0
C2405 C 0.30575 0.57433 0.20257 0.0
C2406 C 0.3155 0.61198 0.19101 0.0
C2407 C 0.30693 0.59116 0.2144 0.0
C2408 C 0.32639 0.64803 0.19814 0.0
C2409 C 0.33064 0.65332 0.1624 0.0
N2410 N 0.31179 0.60919 0.20843 0.0
N2411 N 0.32387 0.63532 0.16806 0.0
H2412 H 0.45786 0.36192 0.24941 0.0
H2413 H 0.53769 0.30272 0.20519 0.0
H2414 H 0.46032 0.33879 0.19498 0.0
H2415 H 0.53321 0.31813 0.26127 0.0
H2416 H 0.51113 0.31883 0.2014 0.0
H2417 H 0.4865 0.34857 0.25418 0.0
C2418 C 0.46443 0.35406 0.23846 0.0
C2419 C 0.45658 0.35144 0.22178 0.0
C2420 C 0.51592 0.31885 0.21457 0.0
C2421 C 0.48948 0.33623 0.22712 0.0
C2422 C 0.53122 0.30966 0.21677 0.0
C2423 C 0.53778 0.30894 0.23361 0.0
C2424 C 0.50677 0.3275 0.2293 0.0
C2425 C 0.52876 0.31838 0.24803 0.0
C2426 C 0.48078 0.34645 0.2412 0.0
C2427 C 0.46572 0.34116 0.20808 0.0
N2428 N 0.51363 0.32716 0.24556 0.0
N2429 N 0.4816 0.33399 0.21106 0.0
H2430 H 0.79922 0.39508 0.22799 0.0
H2431 H 0.76845 0.4956 0.21253 0.0
H2432 H 0.76093 0.40112 0.18829 0.0
H2433 H 0.80451 0.48894 0.25391 0.0
H2434 H 0.76978 0.4623 0.20045 0.0
H2435 H 0.80498 0.4304 0.23498 0.0
C2436 C 0.79216 0.40385 0.22063 0.0
C2437 C 0.77943 0.3951 0.20765 0.0
C2438 C 0.77762 0.46823 0.21203 0.0
C2439 C 0.78588 0.43557 0.21564 0.0
C2440 C 0.77698 0.48731 0.21888 0.0
C2441 C 0.78614 0.49502 0.23443 0.0
C2442 C 0.78745 0.45675 0.22081 0.0
C2443 C 0.79704 0.48357 0.24201 0.0
C2444 C 0.79541 0.42402 0.22465 0.0
C2445 C 0.77056 0.4072 0.19864 0.0
N2446 N 0.79717 0.46493 0.23527 0.0
N2447 N 0.77387 0.42679 0.20287 0.0
H2448 H 0.64531 0.31141 0.83949 0.0
H2449 H 0.55692 0.31471 0.78121 0.0
H2450 H 0.63074 0.36529 0.82681 0.0
H2451 H 0.56387 0.26393 0.806 0.0
H2452 H 0.58532 0.33334 0.79577 0.0
H2453 H 0.61654 0.29349 0.82553 0.0
C2454 C 0.63601 0.31951 0.83393 0.0
C2455 C 0.64057 0.33992 0.83432 0.0
C2456 C 0.58055 0.31812 0.79802 0.0
C2457 C 0.60772 0.31941 0.81795 0.0
C2458 C 0.5644 0.30749 0.78967 0.0
C2459 C 0.55798 0.28776 0.79241 0.0
C2460 C 0.59041 0.30885 0.80899 0.0
C2461 C 0.56821 0.27913 0.80354 0.0
C2462 C 0.61963 0.30925 0.82584 0.0
C2463 C 0.62805 0.34955 0.82656 0.0
N2464 N 0.58391 0.28969 0.81134 0.0
N2465 N 0.61227 0.33922 0.81864 0.0
H2466 H 0.78645 0.66261 0.85319 0.0
H2467 H 0.7734 0.55636 0.80058 0.0
H2468 H 0.73158 0.62578 0.84372 0.0
H2469 H 0.82671 0.59782 0.79881 0.0
H2470 H 0.75887 0.58016 0.81971 0.0
H2471 H 0.80227 0.63772 0.83661 0.0
C2472 C 0.77773 0.64923 0.84778 0.0
C2473 C 0.75761 0.64636 0.84982 0.0
C2474 C 0.77378 0.58405 0.81523 0.0
C2475 C 0.77567 0.61776 0.83079 0.0
C2476 C 0.78216 0.5704 0.80433 0.0
C2477 C 0.80137 0.57503 0.79794 0.0
C2478 C 0.78463 0.60256 0.81999 0.0
C2479 C 0.81187 0.59356 0.80334 0.0
C2480 C 0.78677 0.63507 0.83821 0.0
C2481 C 0.74709 0.62876 0.84233 0.0
N2482 N 0.80337 0.60663 0.81399 0.0
N2483 N 0.75621 0.61519 0.83321 0.0
H2484 H 0.42521 0.75651 0.84215 0.0
H2485 H 0.5318 0.7388 0.84595 0.0
H2486 H 0.4405 0.70123 0.8491 0.0
H2487 H 0.51703 0.78943 0.82637 0.0
H2488 H 0.49868 0.7294 0.85721 0.0
H2489 H 0.45866 0.77242 0.84576 0.0
C2490 C 0.43555 0.74779 0.84477 0.0
C2491 C 0.43022 0.72749 0.84498 0.0
C2492 C 0.50281 0.74282 0.85082 0.0
C2493 C 0.46838 0.74553 0.84911 0.0
C2494 C 0.52177 0.74829 0.84449 0.0
C2495 C 0.52704 0.76461 0.83471 0.0
C2496 C 0.48912 0.75377 0.84734 0.0
C2497 C 0.51346 0.77646 0.83345 0.0
C2498 C 0.45462 0.75686 0.8468 0.0
C2499 C 0.44415 0.71686 0.84843 0.0
N2500 N 0.49499 0.77058 0.83934 0.0
N2501 N 0.46264 0.72598 0.85016 0.0
H2502 H 0.38121 0.43162 0.83545 0.0
H2503 H 0.29686 0.46991 0.79542 0.0
H2504 H 0.32376 0.39788 0.83583 0.0
H2505 H 0.34153 0.50904 0.82314 0.0
H2506 H 0.30845 0.44206 0.80533 0.0
H2507 H 0.36899 0.45917 0.82586 0.0
C2508 C 0.36604 0.43002 0.83343 0.0
C2509 C 0.35345 0.41256 0.83652 0.0
C2510 C 0.31562 0.45676 0.80929 0.0
C2511 C 0.33948 0.44376 0.82534 0.0
C2512 C 0.30907 0.47258 0.80362 0.0
C2513 C 0.31819 0.49172 0.8086 0.0
C2514 C 0.33173 0.46016 0.81959 0.0
C2515 C 0.33398 0.49449 0.81922 0.0
C2516 C 0.35909 0.44572 0.82806 0.0
C2517 C 0.33392 0.41117 0.83372 0.0
N2518 N 0.34039 0.47888 0.82422 0.0
N2519 N 0.32753 0.42654 0.82815 0.0
H2520 H 0.69704 0.61586 0.17826 0.0
H2521 H 0.73553 0.58888 0.26651 0.0
H2522 H 0.69614 0.65236 0.22712 0.0
H2523 H 0.71182 0.54488 0.22646 0.0
H2524 H 0.72556 0.61377 0.25067 0.0
H2525 H 0.70711 0.59094 0.19409 0.0
C2526 C 0.69906 0.61863 0.19229 0.0
C2527 C 0.69566 0.63608 0.20143 0.0
C2528 C 0.72248 0.59865 0.24539 0.0
C2529 C 0.7073 0.60789 0.21951 0.0
C2530 C 0.72821 0.5845 0.25438 0.0
C2531 C 0.72441 0.56484 0.24779 0.0
C2532 C 0.71323 0.59315 0.22952 0.0
C2533 C 0.7148 0.55986 0.23206 0.0
C2534 C 0.70469 0.60441 0.20131 0.0
C2535 C 0.69847 0.63902 0.2196 0.0
N2536 N 0.70968 0.57396 0.22336 0.0
N2537 N 0.70422 0.6251 0.22804 0.0
H2538 H 0.67135 0.4064 0.82725 0.0
H2539 H 0.7727 0.45929 0.78683 0.0
H2540 H 0.72477 0.38839 0.8344 0.0
H2541 H 0.7186 0.47454 0.77734 0.0
H2542 H 0.75574 0.43426 0.80535 0.0
H2543 H 0.68875 0.43252 0.8102 0.0
C2544 C 0.68677 0.40795 0.82524 0.0
C2545 C 0.69659 0.39506 0.83214 0.0
C2546 C 0.74758 0.44308 0.79922 0.0
C2547 C 0.71668 0.42508 0.81264 0.0
C2548 C 0.75726 0.45745 0.78869 0.0
C2549 C 0.74708 0.4691 0.7805 0.0
C2550 C 0.72753 0.44033 0.80166 0.0
C2551 C 0.72704 0.46579 0.78319 0.0
C2552 C 0.69671 0.42291 0.81552 0.0
C2553 C 0.71663 0.39804 0.82941 0.0
N2554 N 0.71795 0.45176 0.79355 0.0
N2555 N 0.726 0.41267 0.81978 0.0
H2556 H 0.67096 0.65894 0.81362 0.0
H2557 H 0.61269 0.74663 0.81604 0.0
H2558 H 0.68389 0.71194 0.84782 0.0
H2559 H 0.59783 0.69197 0.78439 0.0
H2560 H 0.63943 0.73481 0.82701 0.0
H2561 H 0.64472 0.67127 0.80216 0.0
C2562 C 0.66827 0.67319 0.81871 0.0
C2563 C 0.67962 0.68438 0.83171 0.0
C2564 C 0.63033 0.7254 0.81765 0.0
C2565 C 0.64955 0.6987 0.81861 0.0
C2566 C 0.61508 0.7322 0.81126 0.0
C2567 C 0.60286 0.72033 0.79919 0.0
C2568 C 0.63355 0.70657 0.81195 0.0
C2569 C 0.60664 0.70161 0.79379 0.0
C2570 C 0.65327 0.68024 0.81217 0.0
C2571 C 0.6755 0.70277 0.83783 0.0
N2572 N 0.6216 0.69536 0.80017 0.0
N2573 N 0.66083 0.70934 0.83122 0.0
H2574 H 0.40765 0.65981 0.82283 0.0
H2575 H 0.3361 0.59625 0.75432 0.0
H2576 H 0.36639 0.68225 0.79579 0.0
H2577 H 0.37289 0.57193 0.78508 0.0
H2578 H 0.35217 0.6289 0.76464 0.0
H2579 H 0.40002 0.62884 0.80466 0.0
C2580 C 0.39723 0.65833 0.81285 0.0
C2581 C 0.38742 0.6735 0.81097 0.0
C2582 C 0.35693 0.61644 0.76896 0.0
C2583 C 0.37853 0.63813 0.79028 0.0
C2584 C 0.34778 0.59777 0.76302 0.0
C2585 C 0.35292 0.58133 0.76911 0.0
C2586 C 0.37123 0.61873 0.78117 0.0
C2587 C 0.36832 0.58419 0.7802 0.0
C2588 C 0.39282 0.64062 0.80255 0.0
C2589 C 0.374 0.67078 0.79791 0.0
N2590 N 0.37675 0.60256 0.78611 0.0
N2591 N 0.36982 0.65337 0.78819 0.0
H2592 H 0.40726 0.3559 0.8415 0.0
H2593 H 0.43663 0.25105 0.81798 0.0
H2594 H 0.3729 0.30224 0.85772 0.0
H2595 H 0.4713 0.30509 0.80295 0.0
H2596 H 0.41321 0.26943 0.83279 0.0
H2597 H 0.4307 0.33739 0.82701 0.0
C2598 C 0.40457 0.34022 0.84194 0.0
C2599 C 0.38806 0.33066 0.8509 0.0
C2600 C 0.42595 0.27725 0.82624 0.0
C2601 C 0.415 0.30932 0.83444 0.0
C2602 C 0.4394 0.26676 0.81785 0.0
C2603 C 0.45598 0.27646 0.80906 0.0
C2604 C 0.42907 0.29763 0.82589 0.0
C2605 C 0.45863 0.29688 0.80923 0.0
C2606 C 0.41804 0.32965 0.83375 0.0
C2607 C 0.38553 0.31029 0.8512 0.0
N2608 N 0.44535 0.30673 0.81747 0.0
N2609 N 0.39882 0.30033 0.84311 0.0
H2610 H 0.40725 0.4158 0.22244 0.0
H2611 H 0.3235 0.47426 0.22119 0.0
H2612 H 0.35214 0.38843 0.20276 0.0
H2613 H 0.35238 0.47856 0.26968 0.0
H2614 H 0.3397 0.44749 0.20966 0.0
H2615 H 0.39257 0.44295 0.23637 0.0
C2616 C 0.39213 0.41529 0.22106 0.0
C2617 C 0.38116 0.3997 0.21093 0.0
C2618 C 0.3426 0.45441 0.22277 0.0
C2619 C 0.36453 0.43123 0.22642 0.0
C2620 C 0.33347 0.4698 0.22935 0.0
C2621 C 0.33655 0.47874 0.24647 0.0
C2622 C 0.35537 0.44813 0.23314 0.0
C2623 C 0.34953 0.47207 0.25644 0.0
C2624 C 0.38382 0.43091 0.22896 0.0
C2625 C 0.36158 0.40026 0.20969 0.0
N2626 N 0.3586 0.45726 0.24958 0.0
N2627 N 0.35407 0.41582 0.21702 0.0
H2628 H 0.72217 0.35637 0.18334 0.0
H2629 H 0.64462 0.26048 0.2 0.0
H2630 H 0.73607 0.30651 0.20519 0.0
H2631 H 0.63046 0.31786 0.2051 0.0
H2632 H 0.67839 0.27509 0.19378 0.0
H2633 H 0.68852 0.34023 0.18362 0.0
C2634 C 0.71826 0.34206 0.18817 0.0
C2635 C 0.73213 0.33299 0.1945 0.0
C2636 C 0.66782 0.28442 0.19602 0.0
C2637 C 0.69363 0.31422 0.19424 0.0
C2638 C 0.6486 0.27611 0.1994 0.0
C2639 C 0.63485 0.28805 0.20305 0.0
C2640 C 0.67321 0.30476 0.19598 0.0
C2641 C 0.64072 0.30825 0.20242 0.0
C2642 C 0.69904 0.33283 0.18819 0.0
C2643 C 0.72609 0.3141 0.20001 0.0
N2644 N 0.65949 0.316 0.19896 0.0
N2645 N 0.70731 0.30539 0.1998 0.0
H2646 H 0.40478 0.69902 0.17191 0.0
H2647 H 0.4539 0.77887 0.24508 0.0
H2648 H 0.3837 0.75203 0.18803 0.0
H2649 H 0.47034 0.72332 0.22977 0.0
H2650 H 0.43232 0.77303 0.22039 0.0
H2651 H 0.43302 0.71136 0.18888 0.0
C2652 C 0.40628 0.7134 0.1789 0.0
C2653 C 0.39186 0.72444 0.17878 0.0
C2654 C 0.44097 0.76233 0.22225 0.0
C2655 C 0.424 0.73862 0.19859 0.0
C2656 C 0.45336 0.76574 0.23622 0.0
C2657 C 0.4637 0.75145 0.23948 0.0
C2658 C 0.43916 0.7446 0.21154 0.0
C2659 C 0.46241 0.73459 0.2278 0.0
C2660 C 0.42239 0.72048 0.18861 0.0
C2661 C 0.39455 0.74308 0.18787 0.0
N2662 N 0.45026 0.73158 0.21449 0.0
N2663 N 0.41017 0.74949 0.19769 0.0
loop_
_geom_bond_atom_site_label_1
_geom_bond_atom_site_label_2
_geom_bond_distance
_geom_bond_site_symmetry_2
_ccdc_geom_bond_type
H0 C5 0.930 . S
H1 C8 0.930 . S
H2 C10 0.930 . S
H3 C4 1.016 . S
C4 H3 1.016 . S
C4 N11 1.286 . S
C5 H0 0.930 . S
C5 C6 1.397 . S
C5 C7 1.361 . S
C6 C5 1.397 . S
C6 C10 1.390 . S
C7 C5 1.361 . S
C7 C8 1.393 . S
C7 N11 1.413 . S
C8 H1 0.930 . S
C8 C7 1.393 . S
C8 C9 1.399 . S
C9 C8 1.399 . S
C9 C10 1.381 . S
C10 H2 0.930 . S
C10 C6 1.390 . S
C10 C9 1.381 . S
N11 C4 1.286 . S
N11 C7 1.413 . S
H12 C17 0.930 . S
H13 C20 0.930 . S
H14 C22 0.930 . S
H15 C16 1.016 . S
C16 H15 1.016 . S
C16 N23 1.286 . S
C17 H12 0.930 . S
C17 C18 1.397 . S
C17 C19 1.361 . S
C18 C17 1.397 . S
C18 C22 1.390 . S
C19 C17 1.361 . S
C19 C20 1.393 . S
C19 N23 1.413 . S
C20 H13 0.930 . S
C20 C19 1.393 . S
C20 C21 1.399 . S
C21 C20 1.399 . S
C21 C22 1.381 . S
C22 H14 0.930 . S
C22 C18 1.390 . S
C22 C21 1.381 . S
N23 C16 1.286 . S
N23 C19 1.413 . S
H24 C29 0.930 . S
H25 C32 0.930 . S
H26 C34 0.930 . S
H27 C28 1.016 . S
C28 H27 1.016 . S
C28 N35 1.286 . S
C29 H24 0.930 . S
C29 C30 1.397 . S
C29 C31 1.361 . S
C30 C29 1.397 . S
C30 C34 1.390 . S
C31 C29 1.361 . S
C31 C32 1.393 . S
C31 N35 1.413 . S
C32 H25 0.930 . S
C32 C31 1.393 . S
C32 C33 1.399 . S
C33 C32 1.399 . S
C33 C34 1.381 . S
C34 H26 0.930 . S
C34 C30 1.390 . S
C34 C33 1.381 . S
N35 C28 1.286 . S
N35 C31 1.413 . S
H36 C41 0.930 . S
H37 C44 0.930 . S
H38 C46 0.930 . S
H39 C40 1.016 . S
C40 H39 1.016 . S
C40 N47 1.286 . S
C41 H36 0.930 . S
C41 C42 1.397 . S
C41 C43 1.361 . S
C42 C41 1.397 . S
C42 C46 1.390 . S
C43 C41 1.361 . S
C43 C44 1.393 . S
C43 N47 1.413 . S
C44 H37 0.930 . S
C44 C43 1.393 . S
C44 C45 1.399 . S
C45 C44 1.399 . S
C45 C46 1.381 . S
C46 H38 0.930 . S
C46 C42 1.390 . S
C46 C45 1.381 . S
N47 C40 1.286 . S
N47 C43 1.413 . S
H48 C53 0.930 . S
H49 C56 0.930 . S
H50 C58 0.930 . S
H51 C52 1.016 . S
C52 H51 1.016 . S
C52 N59 1.286 . S
C53 H48 0.930 . S
C53 C54 1.397 . S
C53 C55 1.361 . S
C54 C53 1.397 . S
C54 C58 1.390 . S
C55 C53 1.361 . S
C55 C56 1.393 . S
C55 N59 1.413 . S
C56 H49 0.930 . S
C56 C55 1.393 . S
C56 C57 1.399 . S
C57 C56 1.399 . S
C57 C58 1.381 . S
C58 H50 0.930 . S
C58 C54 1.390 . S
C58 C57 1.381 . S
N59 C52 1.286 . S
N59 C55 1.413 . S
H60 C65 0.930 . S
H61 C68 0.930 . S
H62 C70 0.930 . S
H63 C64 1.016 . S
C64 H63 1.016 . S
C64 N71 1.286 . S
C65 H60 0.930 . S
C65 C66 1.397 . S
C65 C67 1.361 . S
C66 C65 1.397 . S
C66 C70 1.390 . S
C67 C65 1.361 . S
C67 C68 1.393 . S
C67 N71 1.413 . S
C68 H61 0.930 . S
C68 C67 1.393 . S
C68 C69 1.399 . S
C69 C68 1.399 . S
C69 C70 1.381 . S
C70 H62 0.930 . S
C70 C66 1.390 . S
C70 C69 1.381 . S
N71 C64 1.286 . S
N71 C67 1.413 . S
H72 C77 0.930 . S
H73 C80 0.930 . S
H74 C82 0.930 . S
H75 C76 1.016 . S
C76 H75 1.016 . S
C76 N83 1.286 . S
C77 H72 0.930 . S
C77 C78 1.397 . S
C77 C79 1.361 . S
C78 C77 1.397 . S
C78 C82 1.390 . S
C79 C77 1.361 . S
C79 C80 1.393 . S
C79 N83 1.413 . S
C80 H73 0.930 . S
C80 C79 1.393 . S
C80 C81 1.399 . S
C81 C80 1.399 . S
C81 C82 1.381 . S
C82 H74 0.930 . S
C82 C78 1.390 . S
C82 C81 1.381 . S
N83 C76 1.286 . S
N83 C79 1.413 . S
H84 C89 0.930 . S
H85 C92 0.930 . S
H86 C94 0.930 . S
H87 C88 1.016 . S
C88 H87 1.016 . S
C88 N95 1.286 . S
C89 H84 0.930 . S
C89 C90 1.397 . S
C89 C91 1.361 . S
C90 C89 1.397 . S
C90 C94 1.390 . S
C91 C89 1.361 . S
C91 C92 1.393 . S
C91 N95 1.413 . S
C92 H85 0.930 . S
C92 C91 1.393 . S
C92 C93 1.399 . S
C93 C92 1.399 . S
C93 C94 1.381 . S
C94 H86 0.930 . S
C94 C90 1.390 . S
C94 C93 1.381 . S
N95 C88 1.286 . S
N95 C91 1.413 . S
H96 C101 0.930 . S
H97 C104 0.930 . S
H98 C106 0.930 . S
H99 C100 1.016 . S
C100 H99 1.016 . S
C100 N107 1.286 . S
C101 H96 0.930 . S
C101 C102 1.397 . S
C101 C103 1.361 . S
C102 C101 1.397 . S
C102 C106 1.390 . S
C103 C101 1.361 . S
C103 C104 1.393 . S
C103 N107 1.413 . S
C104 H97 0.930 . S
C104 C103 1.393 . S
C104 C105 1.399 . S
C105 C104 1.399 . S
C105 C106 1.381 . S
C106 H98 0.930 . S
C106 C102 1.390 . S
C106 C105 1.381 . S
N107 C100 1.286 . S
N107 C103 1.413 . S
H108 C113 0.930 . S
H109 C116 0.930 . S
H110 C118 0.930 . S
H111 C112 1.016 . S
C112 H111 1.016 . S
C112 N119 1.286 . S
C113 H108 0.930 . S
C113 C114 1.397 . S
C113 C115 1.361 . S
C114 C113 1.397 . S
C114 C118 1.390 . S
C115 C113 1.361 . S
C115 C116 1.393 . S
C115 N119 1.413 . S
C116 H109 0.930 . S
C116 C115 1.393 . S
C116 C117 1.399 . S
C117 C116 1.399 . S
C117 C118 1.381 . S
C118 H110 0.930 . S
C118 C114 1.390 . S
C118 C117 1.381 . S
N119 C112 1.286 . S
N119 C115 1.413 . S
H120 C125 0.930 . S
H121 C128 0.930 . S
H122 C130 0.930 . S
H123 C124 1.016 . S
C124 H123 1.016 . S
C124 N131 1.286 . S
C125 H120 0.930 . S
C125 C126 1.397 . S
C125 C127 1.361 . S
C126 C125 1.397 . S
C126 C130 1.390 . S
C127 C125 1.361 . S
C127 C128 1.393 . S
C127 N131 1.413 . S
C128 H121 0.930 . S
C128 C127 1.393 . S
C128 C129 1.399 . S
C129 C128 1.399 . S
C129 C130 1.381 . S
C130 H122 0.930 . S
C130 C126 1.390 . S
C130 C129 1.381 . S
N131 C124 1.286 . S
N131 C127 1.413 . S
H132 C137 0.930 . S
H133 C140 0.930 . S
H134 C142 0.930 . S
H135 C136 1.016 . S
C136 H135 1.016 . S
C136 N143 1.286 . S
C137 H132 0.930 . S
C137 C138 1.397 . S
C137 C139 1.361 . S
C138 C137 1.397 . S
C138 C142 1.390 . S
C139 C137 1.361 . S
C139 C140 1.393 . S
C139 N143 1.413 . S
C140 H133 0.930 . S
C140 C139 1.393 . S
C140 C141 1.399 . S
C141 C140 1.399 . S
C141 C142 1.381 . S
C142 H134 0.930 . S
C142 C138 1.390 . S
C142 C141 1.381 . S
N143 C136 1.286 . S
N143 C139 1.413 . S
H144 C149 0.930 . S
H145 C152 0.930 . S
H146 C154 0.930 . S
H147 C148 1.016 . S
C148 H147 1.016 . S
C148 N155 1.286 . S
C149 H144 0.930 . S
C149 C150 1.397 . S
C149 C151 1.361 . S
C150 C149 1.397 . S
C150 C154 1.390 . S
C151 C149 1.361 . S
C151 C152 1.393 . S
C151 N155 1.413 . S
C152 H145 0.930 . S
C152 C151 1.393 . S
C152 C153 1.399 . S
C153 C152 1.399 . S
C153 C154 1.381 . S
C154 H146 0.930 . S
C154 C150 1.390 . S
C154 C153 1.381 . S
N155 C148 1.286 . S
N155 C151 1.413 . S
H156 C161 0.930 . S
H157 C164 0.930 . S
H158 C166 0.930 . S
H159 C160 1.016 . S
C160 H159 1.016 . S
C160 N167 1.286 . S
C161 H156 0.930 . S
C161 C162 1.397 . S
C161 C163 1.361 . S
C162 C161 1.397 . S
C162 C166 1.390 . S
C163 C161 1.361 . S
C163 C164 1.393 . S
C163 N167 1.413 . S
C164 H157 0.930 . S
C164 C163 1.393 . S
C164 C165 1.399 . S
C165 C164 1.399 . S
C165 C166 1.381 . S
C166 H158 0.930 . S
C166 C162 1.390 . S
C166 C165 1.381 . S
N167 C160 1.286 . S
N167 C163 1.413 . S
H168 C173 0.930 . S
H169 C176 0.930 . S
H170 C178 0.930 . S
H171 C172 1.016 . S
C172 H171 1.016 . S
C172 N179 1.286 . S
C173 H168 0.930 . S
C173 C174 1.397 . S
C173 C175 1.361 . S
C174 C173 1.397 . S
C174 C178 1.390 . S
C175 C173 1.361 . S
C175 C176 1.393 . S
C175 N179 1.413 . S
C176 H169 0.930 . S
C176 C175 1.393 . S
C176 C177 1.399 . S
C177 C176 1.399 . S
C177 C178 1.381 . S
C178 H170 0.930 . S
C178 C174 1.390 . S
C178 C177 1.381 . S
N179 C172 1.286 . S
N179 C175 1.413 . S
H180 C185 0.930 . S
H181 C188 0.930 . S
H182 C190 0.930 . S
H183 C184 1.016 . S
C184 H183 1.016 . S
C184 N191 1.286 . S
C185 H180 0.930 . S
C185 C186 1.397 . S
C185 C187 1.361 . S
C186 C185 1.397 . S
C186 C190 1.390 . S
C187 C185 1.361 . S
C187 C188 1.393 . S
C187 N191 1.413 . S
C188 H181 0.930 . S
C188 C187 1.393 . S
C188 C189 1.399 . S
C189 C188 1.399 . S
C189 C190 1.381 . S
C190 H182 0.930 . S
C190 C186 1.390 . S
C190 C189 1.381 . S
N191 C184 1.286 . S
N191 C187 1.413 . S
H192 C197 0.930 . S
H193 C200 0.930 . S
H194 C202 0.930 . S
H195 C196 1.016 . S
C196 H195 1.016 . S
C196 N203 1.286 . S
C197 H192 0.930 . S
C197 C198 1.397 . S
C197 C199 1.361 . S
C198 C197 1.397 . S
C198 C202 1.390 . S
C199 C197 1.361 . S
C199 C200 1.393 . S
C199 N203 1.413 . S
C200 H193 0.930 . S
C200 C199 1.393 . S
C200 C201 1.399 . S
C201 C200 1.399 . S
C201 C202 1.381 . S
C202 H194 0.930 . S
C202 C198 1.390 . S
C202 C201 1.381 . S
N203 C196 1.286 . S
N203 C199 1.413 . S
H204 C209 0.930 . S
H205 C212 0.930 . S
H206 C214 0.930 . S
H207 C208 1.016 . S
C208 H207 1.016 . S
C208 N215 1.286 . S
C209 H204 0.930 . S
C209 C210 1.397 . S
C209 C211 1.361 . S
C210 C209 1.397 . S
C210 C214 1.390 . S
C211 C209 1.361 . S
C211 C212 1.393 . S
C211 N215 1.413 . S
C212 H205 0.930 . S
C212 C211 1.393 . S
C212 C213 1.399 . S
C213 C212 1.399 . S
C213 C214 1.381 . S
C214 H206 0.930 . S
C214 C210 1.390 . S
C214 C213 1.381 . S
N215 C208 1.286 . S
N215 C211 1.413 . S
H216 C221 0.930 . S
H217 C224 0.930 . S
H218 C226 0.930 . S
H219 C220 1.016 . S
C220 H219 1.016 . S
C220 N227 1.286 . S
C221 H216 0.930 . S
C221 C222 1.397 . S
C221 C223 1.361 . S
C222 C221 1.397 . S
C222 C226 1.390 . S
C223 C221 1.361 . S
C223 C224 1.393 . S
C223 N227 1.413 . S
C224 H217 0.930 . S
C224 C223 1.393 . S
C224 C225 1.399 . S
C225 C224 1.399 . S
C225 C226 1.381 . S
C226 H218 0.930 . S
C226 C222 1.390 . S
C226 C225 1.381 . S
N227 C220 1.286 . S
N227 C223 1.413 . S
H228 C233 0.930 . S
H229 C236 0.930 . S
H230 C238 0.930 . S
H231 C232 1.016 . S
C232 H231 1.016 . S
C232 N239 1.286 . S
C233 H228 0.930 . S
C233 C234 1.397 . S
C233 C235 1.361 . S
C234 C233 1.397 . S
C234 C238 1.390 . S
C235 C233 1.361 . S
C235 C236 1.393 . S
C235 N239 1.413 . S
C236 H229 0.930 . S
C236 C235 1.393 . S
C236 C237 1.399 . S
C237 C236 1.399 . S
C237 C238 1.381 . S
C238 H230 0.930 . S
C238 C234 1.390 . S
C238 C237 1.381 . S
N239 C232 1.286 . S
N239 C235 1.413 . S
H240 C245 0.930 . S
H241 C248 0.930 . S
H242 C250 0.930 . S
H243 C244 1.016 . S
C244 H243 1.016 . S
C244 N251 1.286 . S
C245 H240 0.930 . S
C245 C246 1.397 . S
C245 C247 1.361 . S
C246 C245 1.397 . S
C246 C250 1.390 . S
C247 C245 1.361 . S
C247 C248 1.393 . S
C247 N251 1.413 . S
C248 H241 0.930 . S
C248 C247 1.393 . S
C248 C249 1.399 . S
C249 C248 1.399 . S
C249 C250 1.381 . S
C250 H242 0.930 . S
C250 C246 1.390 . S
C250 C249 1.381 . S
N251 C244 1.286 . S
N251 C247 1.413 . S
H252 C257 0.930 . S
H253 C260 0.930 . S
H254 C262 0.930 . S
H255 C256 1.016 . S
C256 H255 1.016 . S
C256 N263 1.286 . S
C257 H252 0.930 . S
C257 C258 1.397 . S
C257 C259 1.361 . S
C258 C257 1.397 . S
C258 C262 1.390 . S
C259 C257 1.361 . S
C259 C260 1.393 . S
C259 N263 1.413 . S
C260 H253 0.930 . S
C260 C259 1.393 . S
C260 C261 1.399 . S
C261 C260 1.399 . S
C261 C262 1.381 . S
C262 H254 0.930 . S
C262 C258 1.390 . S
C262 C261 1.381 . S
N263 C256 1.286 . S
N263 C259 1.413 . S
H264 C269 0.930 . S
H265 C272 0.930 . S
H266 C274 0.930 . S
H267 C268 1.016 . S
C268 H267 1.016 . S
C268 N275 1.286 . S
C269 H264 0.930 . S
C269 C270 1.397 . S
C269 C271 1.361 . S
C270 C269 1.397 . S
C270 C274 1.390 . S
C271 C269 1.361 . S
C271 C272 1.393 . S
C271 N275 1.413 . S
C272 H265 0.930 . S
C272 C271 1.393 . S
C272 C273 1.399 . S
C273 C272 1.399 . S
C273 C274 1.381 . S
C274 H266 0.930 . S
C274 C270 1.390 . S
C274 C273 1.381 . S
N275 C268 1.286 . S
N275 C271 1.413 . S
H276 C281 0.930 . S
H277 C284 0.930 . S
H278 C286 0.930 . S
H279 C280 1.016 . S
C280 H279 1.016 . S
C280 N287 1.286 . S
C281 H276 0.930 . S
C281 C282 1.397 . S
C281 C283 1.361 . S
C282 C281 1.397 . S
C282 C286 1.390 . S
C283 C281 1.361 . S
C283 C284 1.393 . S
C283 N287 1.413 . S
C284 H277 0.930 . S
C284 C283 1.393 . S
C284 C285 1.399 . S
C285 C284 1.399 . S
C285 C286 1.381 . S
C286 H278 0.930 . S
C286 C282 1.390 . S
C286 C285 1.381 . S
N287 C280 1.286 . S
N287 C283 1.413 . S
H288 C293 0.930 . S
H289 C296 0.930 . S
H290 C298 0.930 . S
H291 C292 1.016 . S
C292 H291 1.016 . S
C292 N299 1.286 . S
C293 H288 0.930 . S
C293 C294 1.397 . S
C293 C295 1.361 . S
C294 C293 1.397 . S
C294 C298 1.390 . S
C295 C293 1.361 . S
C295 C296 1.393 . S
C295 N299 1.413 . S
C296 H289 0.930 . S
C296 C295 1.393 . S
C296 C297 1.399 . S
C297 C296 1.399 . S
C297 C298 1.381 . S
C298 H290 0.930 . S
C298 C294 1.390 . S
C298 C297 1.381 . S
N299 C292 1.286 . S
N299 C295 1.413 . S
H300 C305 0.930 . S
H301 C308 0.930 . S
H302 C310 0.930 . S
H303 C304 1.016 . S
C304 H303 1.016 . S
C304 N311 1.286 . S
C305 H300 0.930 . S
C305 C306 1.397 . S
C305 C307 1.361 . S
C306 C305 1.397 . S
C306 C310 1.390 . S
C307 C305 1.361 . S
C307 C308 1.393 . S
C307 N311 1.413 . S
C308 H301 0.930 . S
C308 C307 1.393 . S
C308 C309 1.399 . S
C309 C308 1.399 . S
C309 C310 1.381 . S
C310 H302 0.930 . S
C310 C306 1.390 . S
C310 C309 1.381 . S
N311 C304 1.286 . S
N311 C307 1.413 . S
H312 C317 0.930 . S
H313 C320 0.930 . S
H314 C322 0.930 . S
H315 C316 1.016 . S
C316 H315 1.016 . S
C316 N323 1.286 . S
C317 H312 0.930 . S
C317 C318 1.397 . S
C317 C319 1.361 . S
C318 C317 1.397 . S
C318 C322 1.390 . S
C319 C317 1.361 . S
C319 C320 1.393 . S
C319 N323 1.413 . S
C320 H313 0.930 . S
C320 C319 1.393 . S
C320 C321 1.399 . S
C321 C320 1.399 . S
C321 C322 1.381 . S
C322 H314 0.930 . S
C322 C318 1.390 . S
C322 C321 1.381 . S
N323 C316 1.286 . S
N323 C319 1.413 . S
H324 C329 0.930 . S
H325 C332 0.930 . S
H326 C334 0.930 . S
H327 C328 1.016 . S
C328 H327 1.016 . S
C328 N335 1.286 . S
C329 H324 0.930 . S
C329 C330 1.397 . S
C329 C331 1.361 . S
C330 C329 1.397 . S
C330 C334 1.390 . S
C331 C329 1.361 . S
C331 C332 1.393 . S
C331 N335 1.413 . S
C332 H325 0.930 . S
C332 C331 1.393 . S
C332 C333 1.399 . S
C333 C332 1.399 . S
C333 C334 1.381 . S
C334 H326 0.930 . S
C334 C330 1.390 . S
C334 C333 1.381 . S
N335 C328 1.286 . S
N335 C331 1.413 . S
H336 C341 0.930 . S
H337 C344 0.930 . S
H338 C346 0.930 . S
H339 C340 1.016 . S
C340 H339 1.016 . S
C340 N347 1.286 . S
C341 H336 0.930 . S
C341 C342 1.397 . S
C341 C343 1.361 . S
C342 C341 1.397 . S
C342 C346 1.390 . S
C343 C341 1.361 . S
C343 C344 1.393 . S
C343 N347 1.413 . S
C344 H337 0.930 . S
C344 C343 1.393 . S
C344 C345 1.399 . S
C345 C344 1.399 . S
C345 C346 1.381 . S
C346 H338 0.930 . S
C346 C342 1.390 . S
C346 C345 1.381 . S
N347 C340 1.286 . S
N347 C343 1.413 . S
H348 C353 0.930 . S
H349 C356 0.930 . S
H350 C358 0.930 . S
H351 C352 1.016 . S
C352 H351 1.016 . S
C352 N359 1.286 . S
C353 H348 0.930 . S
C353 C354 1.397 . S
C353 C355 1.361 . S
C354 C353 1.397 . S
C354 C358 1.390 . S
C355 C353 1.361 . S
C355 C356 1.393 . S
C355 N359 1.413 . S
C356 H349 0.930 . S
C356 C355 1.393 . S
C356 C357 1.399 . S
C357 C356 1.399 . S
C357 C358 1.381 . S
C358 H350 0.930 . S
C358 C354 1.390 . S
C358 C357 1.381 . S
N359 C352 1.286 . S
N359 C355 1.413 . S
H360 C365 0.930 . S
H361 C368 0.930 . S
H362 C370 0.930 . S
H363 C364 1.016 . S
C364 H363 1.016 . S
C364 N371 1.286 . S
C365 H360 0.930 . S
C365 C366 1.397 . S
C365 C367 1.361 . S
C366 C365 1.397 . S
C366 C370 1.390 . S
C367 C365 1.361 . S
C367 C368 1.393 . S
C367 N371 1.413 . S
C368 H361 0.930 . S
C368 C367 1.393 . S
C368 C369 1.399 . S
C369 C368 1.399 . S
C369 C370 1.381 . S
C370 H362 0.930 . S
C370 C366 1.390 . S
C370 C369 1.381 . S
N371 C364 1.286 . S
N371 C367 1.413 . S
H372 C377 0.930 . S
H373 C380 0.930 . S
H374 C382 0.930 . S
H375 C376 1.016 . S
C376 H375 1.016 . S
C376 N383 1.286 . S
C377 H372 0.930 . S
C377 C378 1.397 . S
C377 C379 1.361 . S
C378 C377 1.397 . S
C378 C382 1.390 . S
C379 C377 1.361 . S
C379 C380 1.393 . S
C379 N383 1.413 . S
C380 H373 0.930 . S
C380 C379 1.393 . S
C380 C381 1.399 . S
C381 C380 1.399 . S
C381 C382 1.381 . S
C382 H374 0.930 . S
C382 C378 1.390 . S
C382 C381 1.381 . S
N383 C376 1.286 . S
N383 C379 1.413 . S
Cu384 N385 1.999 . S
Cu384 O390 1.974 1_554 S
Cu384 N395 1.985 . S
Cu384 O404 1.959 . S
N385 Cu384 1.999 . S
N385 C387 1.263 1_554 S
N385 C389 1.389 . S
N386 C387 1.358 . S
N386 C388 1.400 . S
C387 N385 1.263 1_556 S
C387 N386 1.358 . S
C387 H393 0.930 . S
C388 N386 1.400 . S
C388 C389 1.351 1_556 S
C388 H405 0.930 . S
C389 N385 1.389 . S
C389 C388 1.351 1_554 S
C389 H394 0.930 . S
O390 Cu384 1.974 1_556 S
O390 C400 1.282 . S
C391 O392 1.261 . S
C391 O404 1.251 . S
O392 C391 1.261 . S
H393 C387 0.930 . S
H394 C389 0.930 . S
N395 Cu384 1.985 . S
N395 C397 1.335 . S
N395 C398 1.390 . S
N396 C397 1.345 . S
N396 C399 1.336 . S
C397 N395 1.335 . S
C397 N396 1.345 . S
C397 H402 0.930 . S
C398 N395 1.390 . S
C398 C399 1.346 . S
C398 H403 0.930 . S
C399 N396 1.336 . S
C399 C398 1.346 . S
C399 H406 0.929 . S
C400 O390 1.282 . S
C400 O401 1.215 1_556 S
O401 C400 1.215 1_554 S
H402 C397 0.930 . S
H403 C398 0.930 . S
O404 Cu384 1.959 . S
O404 C391 1.251 . S
H405 C388 0.930 . S
H406 C399 0.929 . S
Cu407 N408 1.999 . S
Cu407 O413 1.974 . S
Cu407 N418 1.985 1_554 S
Cu407 O427 1.959 1_554 S
N408 Cu407 1.999 . S
N408 C410 1.263 . S
N408 C412 1.389 . S
N409 C410 1.358 . S
N409 C411 1.400 . S
C410 N408 1.263 . S
C410 N409 1.358 . S
C410 H416 0.930 . S
C411 N409 1.400 . S
C411 C412 1.351 . S
C411 H428 0.930 . S
C412 N408 1.389 . S
C412 C411 1.351 . S
C412 H417 0.930 . S
O413 Cu407 1.974 . S
O413 C423 1.282 . S
C414 O415 1.261 . S
C414 O427 1.251 . S
O415 C414 1.261 . S
H416 C410 0.930 . S
H417 C412 0.930 . S
N418 Cu407 1.985 1_556 S
N418 C420 1.335 . S
N418 C421 1.390 . S
N419 C420 1.345 . S
N419 C422 1.336 . S
C420 N418 1.335 . S
C420 N419 1.345 . S
C420 H425 0.930 . S
C421 N418 1.390 . S
C421 C422 1.346 . S
C421 H426 0.930 1_556 S
C422 N419 1.336 . S
C422 C421 1.346 . S
C422 H429 0.929 . S
C423 O413 1.282 . S
C423 O424 1.216 . S
O424 C423 1.216 . S
H425 C420 0.930 . S
H426 C421 0.930 1_554 S
O427 Cu407 1.959 1_556 S
O427 C414 1.251 . S
H428 C411 0.930 . S
H429 C422 0.929 . S
Cu430 N431 1.999 1_554 S
Cu430 O436 1.974 1_554 S
Cu430 N441 1.985 . S
Cu430 O450 1.959 . S
N431 Cu430 1.999 1_556 S
N431 C433 1.263 . S
N431 C435 1.389 . S
N432 C433 1.358 . S
N432 C434 1.400 . S
C433 N431 1.263 . S
C433 N432 1.358 . S
C433 H439 0.930 . S
C434 N432 1.400 . S
C434 C435 1.351 . S
C434 H451 0.930 . S
C435 N431 1.389 . S
C435 C434 1.351 . S
C435 H440 0.973 . S
O436 Cu430 1.974 1_556 S
O436 C446 1.282 . S
C437 O438 1.261 . S
C437 O450 1.251 . S
O438 C437 1.261 . S
H439 C433 0.930 . S
H440 C435 0.973 . S
N441 Cu430 1.985 . S
N441 C443 1.335 . S
N441 C444 1.390 . S
N442 C443 1.345 . S
N442 C445 1.336 . S
C443 N441 1.335 . S
C443 N442 1.345 . S
C443 H448 0.930 . S
C444 N441 1.390 . S
C444 C445 1.346 . S
C444 H449 0.930 . S
C445 N442 1.336 . S
C445 C444 1.346 . S
C445 H452 0.929 . S
C446 O436 1.282 . S
C446 O447 1.216 . S
O447 C446 1.216 . S
H448 C443 0.930 . S
H449 C444 0.930 . S
O450 Cu430 1.959 . S
O450 C437 1.251 . S
H451 C434 0.930 . S
H452 C445 0.929 . S
Cu453 N454 1.999 1_556 S
Cu453 O459 1.974 1_556 S
Cu453 N464 1.985 . S
Cu453 O473 1.959 . S
N454 Cu453 1.999 1_554 S
N454 C456 1.263 . S
N454 C458 1.389 . S
N455 C456 1.358 . S
N455 C457 1.400 . S
C456 N454 1.263 . S
C456 N455 1.358 . S
C456 H462 0.930 . S
C457 N455 1.400 . S
C457 C458 1.351 . S
C457 H474 0.930 . S
C458 N454 1.389 . S
C458 C457 1.351 . S
C458 H463 0.930 . S
O459 Cu453 1.974 1_554 S
O459 C469 1.282 . S
C460 O461 1.261 . S
C460 O473 1.251 . S
O461 C460 1.261 . S
H462 C456 0.930 . S
H463 C458 0.930 . S
N464 Cu453 1.985 . S
N464 C466 1.335 . S
N464 C467 1.390 . S
N465 C466 1.345 . S
N465 C468 1.336 . S
C466 N464 1.335 . S
C466 N465 1.345 . S
C466 H471 0.930 . S
C467 N464 1.390 . S
C467 C468 1.346 . S
C467 H472 0.930 . S
C468 N465 1.336 . S
C468 C467 1.346 . S
C468 H475 0.929 . S
C469 O459 1.282 . S
C469 O470 1.216 . S
O470 C469 1.216 . S
H471 C466 0.930 . S
H472 C467 0.930 . S
O473 Cu453 1.959 . S
O473 C460 1.251 . S
H474 C457 0.930 . S
H475 C468 0.929 . S
Cu476 N477 1.999 . S
Cu476 O482 1.974 . S
Cu476 N487 1.985 . S
Cu476 O496 1.959 . S
N477 Cu476 1.999 . S
N477 C479 1.263 . S
N477 C481 1.389 . S
N478 C479 1.358 . S
N478 C480 1.400 . S
C479 N477 1.263 . S
C479 N478 1.358 . S
C479 H485 0.930 . S
C480 N478 1.400 . S
C480 C481 1.351 . S
C480 H497 0.930 . S
C481 N477 1.389 . S
C481 C480 1.351 . S
C481 H486 0.930 . S
O482 Cu476 1.974 . S
O482 C492 1.282 . S
C483 O484 1.261 . S
C483 O496 1.251 1_655 S
O484 C483 1.261 . S
H485 C479 0.930 . S
H486 C481 0.930 . S
N487 Cu476 1.985 . S
N487 C489 1.335 1_455 S
N487 C490 1.390 . S
N488 C489 1.345 . S
N488 C491 1.336 . S
C489 N487 1.335 1_655 S
C489 N488 1.345 . S
C489 H494 0.930 . S
C490 N487 1.390 . S
C490 C491 1.346 1_455 S
C490 H495 0.930 . S
C491 N488 1.336 . S
C491 C490 1.346 1_655 S
C491 H498 0.929 . S
C492 O482 1.282 . S
C492 O493 1.216 . S
O493 C492 1.216 . S
H494 C489 0.930 . S
H495 C490 0.930 . S
O496 Cu476 1.959 . S
O496 C483 1.251 1_455 S
H497 C480 0.930 . S
H498 C491 0.929 . S
Cu499 N500 1.999 . S
Cu499 O505 1.974 . S
Cu499 N510 1.982 . S
Cu499 O519 1.959 1_545 S
N500 Cu499 1.999 . S
N500 C502 1.263 . S
N500 C504 1.389 . S
N501 C502 1.358 . S
N501 C503 1.400 . S
C502 N500 1.263 . S
C502 N501 1.358 . S
C502 H508 0.930 . S
C503 N501 1.400 . S
C503 C504 1.351 . S
C503 H520 0.930 . S
C504 N500 1.389 . S
C504 C503 1.351 . S
C504 H509 0.930 . S
O505 Cu499 1.974 . S
O505 C515 1.282 . S
C506 O507 1.261 1_565 S
C506 O519 1.251 . S
O507 C506 1.261 1_545 S
H508 C502 0.930 . S
H509 C504 0.930 . S
N510 Cu499 1.982 . S
N510 C512 1.339 1_545 S
N510 C513 1.389 . S
N511 C512 1.345 . S
N511 C514 1.336 . S
C512 N510 1.339 1_565 S
C512 N511 1.345 . S
C512 H517 0.930 . S
C513 N510 1.389 . S
C513 C514 1.346 1_545 S
C513 H518 0.930 . S
C514 N511 1.336 . S
C514 C513 1.346 1_565 S
C514 H521 0.929 . S
C515 O505 1.282 . S
C515 O516 1.216 . S
O516 C515 1.216 . S
H517 C512 0.930 . S
H518 C513 0.930 . S
O519 Cu499 1.959 1_565 S
O519 C506 1.251 . S
H520 C503 0.930 . S
H521 C514 0.929 . S
Cu522 N523 1.999 . S
Cu522 O528 1.974 . S
Cu522 N533 1.985 1_655 S
Cu522 O542 1.959 1_655 S
N523 Cu522 1.999 . S
N523 C525 1.263 . S
N523 C527 1.389 . S
N524 C525 1.358 . S
N524 C526 1.400 . S
C525 N523 1.263 . S
C525 N524 1.358 . S
C525 H531 0.930 . S
C526 N524 1.400 . S
C526 C527 1.351 . S
C526 H543 0.930 . S
C527 N523 1.389 . S
C527 C526 1.351 . S
C527 H532 0.930 1_655 S
O528 Cu522 1.974 . S
O528 C538 1.282 . S
C529 O530 1.261 . S
C529 O542 1.251 . S
O530 C529 1.261 . S
H531 C525 0.930 . S
H532 C527 0.930 1_455 S
N533 Cu522 1.985 1_455 S
N533 C535 1.335 . S
N533 C536 1.390 . S
N534 C535 1.345 . S
N534 C537 1.336 . S
C535 N533 1.335 . S
C535 N534 1.345 . S
C535 H540 0.930 . S
C536 N533 1.390 . S
C536 C537 1.346 . S
C536 H541 0.930 1_455 S
C537 N534 1.336 . S
C537 C536 1.346 . S
C537 H544 0.929 . S
C538 O528 1.282 . S
C538 O539 1.216 . S
O539 C538 1.216 . S
H540 C535 0.930 . S
H541 C536 0.930 1_655 S
O542 Cu522 1.959 1_455 S
O542 C529 1.251 . S
H543 C526 0.930 . S
H544 C537 0.929 . S
Cu545 N546 2.034 . S
Cu545 O551 2.014 . S
Cu545 N556 1.952 1_545 S
Cu545 O565 1.920 1_545 S
N546 Cu545 2.034 . S
N546 C548 1.263 . S
N546 C550 1.389 . S
N547 C548 1.358 . S
N547 C549 1.400 . S
C548 N546 1.263 . S
C548 N547 1.358 . S
C548 H554 0.930 . S
C549 N547 1.400 . S
C549 C550 1.351 . S
C549 H566 0.930 . S
C550 N546 1.389 . S
C550 C549 1.351 . S
C550 H555 0.930 . S
O551 Cu545 2.014 . S
O551 C561 1.282 . S
C552 O553 1.261 . S
C552 O565 1.251 . S
O553 C552 1.261 . S
H554 C548 0.930 . S
H555 C550 0.930 . S
N556 Cu545 1.952 1_565 S
N556 C558 1.335 . S
N556 C559 1.390 . S
N557 C558 1.345 . S
N557 C560 1.336 . S
C558 N556 1.335 . S
C558 N557 1.345 . S
C558 H563 0.930 . S
C559 N556 1.390 . S
C559 C560 1.346 . S
C559 H564 0.930 . S
C560 N557 1.336 . S
C560 C559 1.346 . S
C560 H567 0.929 . S
C561 O551 1.282 . S
C561 O562 1.216 . S
O562 C561 1.216 . S
H563 C558 0.930 . S
H564 C559 0.930 . S
O565 Cu545 1.920 1_565 S
O565 C552 1.251 . S
H566 C549 0.930 . S
H567 C560 0.929 . S
Cu568 N569 1.999 . S
Cu568 O574 1.974 . S
Cu568 N579 1.985 . S
Cu568 O588 1.959 . S
N569 Cu568 1.999 . S
N569 C571 1.263 . S
N569 C573 1.389 . S
N570 C571 1.358 . S
N570 C572 1.400 . S
C571 N569 1.263 . S
C571 N570 1.358 . S
C571 H577 0.930 . S
C572 N570 1.400 . S
C572 C573 1.351 . S
C572 H589 0.930 . S
C573 N569 1.389 . S
C573 C572 1.351 . S
C573 H578 0.930 . S
O574 Cu568 1.974 . S
O574 C584 1.282 . S
C575 O576 1.261 . S
C575 O588 1.251 1_655 S
O576 C575 1.261 . S
H577 C571 0.930 . S
H578 C573 0.930 . S
N579 Cu568 1.985 . S
N579 C581 1.335 1_455 S
N579 C582 1.390 . S
N580 C581 1.345 . S
N580 C583 1.336 . S
C581 N579 1.335 1_655 S
C581 N580 1.345 . S
C581 H586 0.930 . S
C582 N579 1.390 . S
C582 C583 1.346 1_455 S
C582 H587 0.930 . S
C583 N580 1.336 . S
C583 C582 1.346 1_655 S
C583 H590 0.929 . S
C584 O574 1.282 . S
C584 O585 1.216 . S
O585 C584 1.216 . S
H586 C581 0.930 . S
H587 C582 0.930 . S
O588 Cu568 1.959 . S
O588 C575 1.251 1_455 S
H589 C572 0.930 . S
H590 C583 0.929 . S
Cu591 N592 1.999 . S
Cu591 O597 1.974 . S
Cu591 N602 1.985 . S
Cu591 O611 1.959 . S
N592 Cu591 1.999 . S
N592 C594 1.263 . S
N592 C596 1.389 . S
N593 C594 1.358 . S
N593 C595 1.400 . S
C594 N592 1.263 . S
C594 N593 1.358 . S
C594 H600 0.930 . S
C595 N593 1.400 . S
C595 C596 1.351 . S
C595 H612 0.930 . S
C596 N592 1.389 . S
C596 C595 1.351 . S
C596 H601 0.930 . S
O597 Cu591 1.974 . S
O597 C607 1.282 . S
C598 O599 1.261 . S
C598 O611 1.251 . S
O599 C598 1.261 . S
H600 C594 0.930 . S
H601 C596 0.930 . S
N602 Cu591 1.985 . S
N602 C604 1.335 1_545 S
N602 C605 1.390 . S
N603 C604 1.345 . S
N603 C606 1.336 . S
C604 N602 1.335 1_565 S
C604 N603 1.345 . S
C604 H609 0.930 . S
C605 N602 1.390 . S
C605 C606 1.346 1_545 S
C605 H610 0.930 . S
C606 N603 1.336 . S
C606 C605 1.346 1_565 S
C606 H613 0.929 . S
C607 O597 1.282 . S
C607 O608 1.216 . S
O608 C607 1.216 . S
H609 C604 0.930 . S
H610 C605 0.930 . S
O611 Cu591 1.959 . S
O611 C598 1.251 . S
H612 C595 0.930 . S
H613 C606 0.929 . S
Cu614 N615 1.999 . S
Cu614 O620 1.974 . S
Cu614 N625 1.985 . S
Cu614 O634 1.959 . S
N615 Cu614 1.999 . S
N615 C617 1.263 . S
N615 C619 1.389 . S
N616 C617 1.358 . S
N616 C618 1.400 . S
C617 N615 1.263 . S
C617 N616 1.358 . S
C617 H623 0.930 . S
C618 N616 1.400 . S
C618 C619 1.351 . S
C618 H635 0.930 . S
C619 N615 1.389 . S
C619 C618 1.351 . S
C619 H624 0.930 . S
O620 Cu614 1.974 . S
O620 C630 1.282 . S
C621 O622 1.261 . S
C621 O634 1.251 . S
O622 C621 1.261 . S
H623 C617 0.930 . S
H624 C619 0.930 . S
N625 Cu614 1.985 . S
N625 C627 1.335 . S
N625 C628 1.390 . S
N626 C627 1.345 . S
N626 C629 1.336 . S
C627 N625 1.335 . S
C627 N626 1.345 . S
C627 H632 0.930 . S
C628 N625 1.390 . S
C628 C629 1.346 . S
C628 H633 0.930 . S
C629 N626 1.336 . S
C629 C628 1.346 . S
C629 H636 0.929 . S
C630 O620 1.282 . S
C630 O631 1.216 . S
O631 C630 1.216 . S
H632 C627 0.930 . S
H633 C628 0.930 . S
O634 Cu614 1.959 . S
O634 C621 1.251 . S
H635 C618 0.930 . S
H636 C629 0.929 . S
Cu637 N638 1.999 . S
Cu637 O643 1.974 . S
Cu637 N648 1.985 . S
Cu637 O657 1.959 . S
N638 Cu637 1.999 . S
N638 C640 1.263 . S
N638 C642 1.389 . S
N639 C640 1.358 . S
N639 C641 1.400 . S
C640 N638 1.263 . S
C640 N639 1.358 . S
C640 H646 0.930 . S
C641 N639 1.400 . S
C641 C642 1.351 . S
C641 H658 0.930 . S
C642 N638 1.389 . S
C642 C641 1.351 . S
C642 H647 0.930 . S
O643 Cu637 1.974 . S
O643 C653 1.282 . S
C644 O645 1.261 . S
C644 O657 1.251 . S
O645 C644 1.261 . S
H646 C640 0.930 . S
H647 C642 0.930 . S
N648 Cu637 1.985 . S
N648 C650 1.335 1_545 S
N648 C651 1.390 . S
N649 C650 1.345 . S
N649 C652 1.336 . S
C650 N648 1.335 1_565 S
C650 N649 1.345 . S
C650 H655 0.930 . S
C651 N648 1.390 . S
C651 C652 1.346 1_545 S
C651 H656 0.930 . S
C652 N649 1.336 . S
C652 C651 1.346 1_565 S
C652 H659 0.929 . S
C653 O643 1.282 . S
C653 O654 1.216 . S
O654 C653 1.216 . S
H655 C650 0.930 . S
H656 C651 0.930 . S
O657 Cu637 1.959 . S
O657 C644 1.251 . S
H658 C641 0.930 . S
H659 C652 0.929 . S
Cu660 N661 1.999 . S
Cu660 O666 1.974 . S
Cu660 N671 1.985 . S
Cu660 O680 1.959 . S
N661 Cu660 1.999 . S
N661 C663 1.263 . S
N661 C665 1.389 . S
N662 C663 1.358 . S
N662 C664 1.400 . S
C663 N661 1.263 . S
C663 N662 1.358 . S
C663 H669 0.930 . S
C664 N662 1.400 . S
C664 C665 1.351 . S
C664 H681 0.930 . S
C665 N661 1.389 . S
C665 C664 1.351 . S
C665 H670 0.930 . S
O666 Cu660 1.974 . S
O666 C676 1.282 . S
C667 O668 1.261 . S
C667 O680 1.251 . S
O668 C667 1.261 . S
H669 C663 0.930 . S
H670 C665 0.930 . S
N671 Cu660 1.985 . S
N671 C673 1.335 . S
N671 C674 1.390 . S
N672 C673 1.345 . S
N672 C675 1.336 . S
C673 N671 1.335 . S
C673 N672 1.345 . S
C673 H678 0.930 . S
C674 N671 1.390 . S
C674 C675 1.346 . S
C674 H679 0.930 . S
C675 N672 1.336 . S
C675 C674 1.346 . S
C675 H682 0.929 . S
C676 O666 1.282 . S
C676 O677 1.216 . S
O677 C676 1.216 . S
H678 C673 0.930 . S
H679 C674 0.930 . S
O680 Cu660 1.959 . S
O680 C667 1.251 . S
H681 C664 0.930 . S
H682 C675 0.929 . S
Cu683 N684 1.999 . S
Cu683 O689 1.974 . S
Cu683 N694 1.985 . S
Cu683 O703 1.959 . S
N684 Cu683 1.999 . S
N684 C686 1.263 . S
N684 C688 1.389 . S
N685 C686 1.358 . S
N685 C687 1.400 . S
C686 N684 1.263 . S
C686 N685 1.358 . S
C686 H692 0.930 . S
C687 N685 1.400 . S
C687 C688 1.351 . S
C687 H704 0.930 . S
C688 N684 1.389 . S
C688 C687 1.351 . S
C688 H693 0.930 . S
O689 Cu683 1.974 . S
O689 C699 1.282 . S
C690 O691 1.261 . S
C690 O703 1.251 . S
O691 C690 1.261 . S
H692 C686 0.930 . S
H693 C688 0.930 . S
N694 Cu683 1.985 . S
N694 C696 1.335 . S
N694 C697 1.390 . S
N695 C696 1.345 . S
N695 C698 1.336 . S
C696 N694 1.335 . S
C696 N695 1.345 . S
C696 H701 0.930 . S
C697 N694 1.390 . S
C697 C698 1.346 . S
C697 H702 0.930 . S
C698 N695 1.336 . S
C698 C697 1.346 . S
C698 H705 0.929 . S
C699 O689 1.282 . S
C699 O700 1.216 . S
O700 C699 1.216 . S
H701 C696 0.930 . S
H702 C697 0.930 . S
O703 Cu683 1.959 . S
O703 C690 1.251 . S
H704 C687 0.930 . S
H705 C698 0.929 . S
Cu706 N707 1.999 . S
Cu706 O712 1.974 . S
Cu706 N717 1.985 . S
Cu706 O726 1.959 . S
N707 Cu706 1.999 . S
N707 C709 1.263 . S
N707 C711 1.389 . S
N708 C709 1.358 . S
N708 C710 1.400 . S
C709 N707 1.263 . S
C709 N708 1.358 . S
C709 H715 0.930 . S
C710 N708 1.400 . S
C710 C711 1.351 . S
C710 H727 0.930 . S
C711 N707 1.389 . S
C711 C710 1.351 . S
C711 H716 0.930 . S
O712 Cu706 1.974 . S
O712 C722 1.282 . S
C713 O714 1.261 . S
C713 O726 1.251 . S
O714 C713 1.261 . S
H715 C709 0.930 . S
H716 C711 0.930 . S
N717 Cu706 1.985 . S
N717 C719 1.335 . S
N717 C720 1.390 . S
N718 C719 1.345 . S
N718 C721 1.336 . S
C719 N717 1.335 . S
C719 N718 1.345 . S
C719 H724 0.930 . S
C720 N717 1.390 . S
C720 C721 1.346 . S
C720 H725 0.930 . S
C721 N718 1.336 . S
C721 C720 1.346 . S
C721 H728 0.929 . S
C722 O712 1.282 . S
C722 O723 1.216 . S
O723 C722 1.216 . S
H724 C719 0.930 . S
H725 C720 0.930 . S
O726 Cu706 1.959 . S
O726 C713 1.251 . S
H727 C710 0.930 . S
H728 C721 0.929 . S
Cu729 N730 1.999 . S
Cu729 O735 1.974 . S
Cu729 N740 1.985 . S
Cu729 O749 1.959 . S
N730 Cu729 1.999 . S
N730 C732 1.263 . S
N730 C734 1.389 . S
N731 C732 1.358 . S
N731 C733 1.400 . S
C732 N730 1.263 . S
C732 N731 1.358 . S
C732 H738 0.930 . S
C733 N731 1.400 . S
C733 C734 1.351 . S
C733 H750 0.930 . S
C734 N730 1.389 . S
C734 C733 1.351 . S
C734 H739 0.930 . S
O735 Cu729 1.974 . S
O735 C745 1.282 . S
C736 O737 1.261 . S
C736 O749 1.251 . S
O737 C736 1.261 . S
H738 C732 0.930 . S
H739 C734 0.930 . S
N740 Cu729 1.985 . S
N740 C742 1.335 . S
N740 C743 1.390 . S
N741 C742 1.345 . S
N741 C744 1.336 . S
C742 N740 1.335 . S
C742 N741 1.345 . S
C742 H747 0.930 . S
C743 N740 1.390 . S
C743 C744 1.346 . S
C743 H748 0.930 . S
C744 N741 1.336 . S
C744 C743 1.346 . S
C744 H751 0.929 . S
C745 O735 1.282 . S
C745 O746 1.216 . S
O746 C745 1.216 . S
H747 C742 0.930 . S
H748 C743 0.930 . S
O749 Cu729 1.959 . S
O749 C736 1.251 . S
H750 C733 0.930 . S
H751 C744 0.929 . S
Cu752 N753 1.999 . S
Cu752 O758 1.974 . S
Cu752 N763 1.985 . S
Cu752 O772 1.959 . S
N753 Cu752 1.999 . S
N753 C755 1.263 . S
N753 C757 1.389 . S
N754 C755 1.358 . S
N754 C756 1.400 . S
C755 N753 1.263 . S
C755 N754 1.358 . S
C755 H761 0.930 . S
C756 N754 1.400 . S
C756 C757 1.351 . S
C756 H773 0.930 . S
C757 N753 1.389 . S
C757 C756 1.351 . S
C757 H762 0.930 . S
O758 Cu752 1.974 . S
O758 C768 1.282 . S
C759 O760 1.261 . S
C759 O772 1.251 . S
O760 C759 1.261 . S
H761 C755 0.930 . S
H762 C757 0.930 . S
N763 Cu752 1.985 . S
N763 C765 1.335 . S
N763 C766 1.390 . S
N764 C765 1.345 . S
N764 C767 1.336 . S
C765 N763 1.335 . S
C765 N764 1.345 . S
C765 H770 0.930 . S
C766 N763 1.390 . S
C766 C767 1.346 . S
C766 H771 0.930 . S
C767 N764 1.336 . S
C767 C766 1.346 . S
C767 H774 0.929 . S
C768 O758 1.282 . S
C768 O769 1.216 . S
O769 C768 1.216 . S
H770 C765 0.930 . S
H771 C766 0.930 . S
O772 Cu752 1.959 . S
O772 C759 1.251 . S
H773 C756 0.930 . S
H774 C767 0.929 . S
Cu775 N776 1.999 . S
Cu775 O781 1.974 . S
Cu775 N786 1.985 . S
Cu775 O795 1.959 . S
N776 Cu775 1.999 . S
N776 C778 1.263 . S
N776 C780 1.389 . S
N777 C778 1.358 . S
N777 C779 1.400 . S
C778 N776 1.263 . S
C778 N777 1.358 . S
C778 H784 0.930 . S
C779 N777 1.400 . S
C779 C780 1.351 . S
C779 H796 0.930 . S
C780 N776 1.389 . S
C780 C779 1.351 . S
C780 H785 0.930 . S
O781 Cu775 1.974 . S
O781 C791 1.282 . S
C782 O783 1.261 . S
C782 O795 1.251 . S
O783 C782 1.261 . S
H784 C778 0.930 . S
H785 C780 0.930 . S
N786 Cu775 1.985 . S
N786 C788 1.335 . S
N786 C789 1.390 . S
N787 C788 1.345 . S
N787 C790 1.336 . S
C788 N786 1.335 . S
C788 N787 1.345 . S
C788 H793 0.930 . S
C789 N786 1.390 . S
C789 C790 1.346 . S
C789 H794 0.930 . S
C790 N787 1.336 . S
C790 C789 1.346 . S
C790 H797 0.929 . S
C791 O781 1.282 . S
C791 O792 1.216 . S
O792 C791 1.216 . S
H793 C788 0.930 . S
H794 C789 0.930 . S
O795 Cu775 1.959 . S
O795 C782 1.251 . S
H796 C779 0.930 . S
H797 C790 0.929 . S
Cu798 N799 1.999 . S
Cu798 O804 1.974 . S
Cu798 N809 1.985 . S
Cu798 O818 1.959 . S
N799 Cu798 1.999 . S
N799 C801 1.263 . S
N799 C803 1.389 . S
N800 C801 1.358 . S
N800 C802 1.400 . S
C801 N799 1.263 . S
C801 N800 1.358 . S
C801 H807 0.930 . S
C802 N800 1.400 . S
C802 C803 1.351 . S
C802 H819 0.930 . S
C803 N799 1.389 . S
C803 C802 1.351 . S
C803 H808 0.930 . S
O804 Cu798 1.974 . S
O804 C814 1.282 . S
C805 O806 1.261 . S
C805 O818 1.251 . S
O806 C805 1.261 . S
H807 C801 0.930 . S
H808 C803 0.930 . S
N809 Cu798 1.985 . S
N809 C811 1.335 . S
N809 C812 1.390 . S
N810 C811 1.345 . S
N810 C813 1.336 . S
C811 N809 1.335 . S
C811 N810 1.345 . S
C811 H816 0.930 . S
C812 N809 1.390 . S
C812 C813 1.346 . S
C812 H817 0.930 . S
C813 N810 1.336 . S
C813 C812 1.346 . S
C813 H820 0.929 . S
C814 O804 1.282 . S
C814 O815 1.216 . S
O815 C814 1.216 . S
H816 C811 0.930 . S
H817 C812 0.930 . S
O818 Cu798 1.959 . S
O818 C805 1.251 . S
H819 C802 0.930 . S
H820 C813 0.929 . S
Cu821 N822 1.999 . S
Cu821 O827 1.974 . S
Cu821 N832 1.985 . S
Cu821 O841 1.959 . S
N822 Cu821 1.999 . S
N822 C824 1.263 . S
N822 C826 1.389 . S
N823 C824 1.358 . S
N823 C825 1.400 . S
C824 N822 1.263 . S
C824 N823 1.358 . S
C824 H830 0.930 . S
C825 N823 1.400 . S
C825 C826 1.351 . S
C825 H842 0.930 . S
C826 N822 1.389 . S
C826 C825 1.351 . S
C826 H831 0.930 . S
O827 Cu821 1.974 . S
O827 C837 1.282 . S
C828 O829 1.261 . S
C828 O841 1.251 . S
O829 C828 1.261 . S
H830 C824 0.930 . S
H831 C826 0.930 . S
N832 Cu821 1.985 . S
N832 C834 1.335 . S
N832 C835 1.390 . S
N833 C834 1.345 . S
N833 C836 1.336 . S
C834 N832 1.335 . S
C834 N833 1.345 . S
C834 H839 0.930 . S
C835 N832 1.390 . S
C835 C836 1.346 . S
C835 H840 0.930 . S
C836 N833 1.336 . S
C836 C835 1.346 . S
C836 H843 0.929 . S
C837 O827 1.282 . S
C837 O838 1.216 . S
O838 C837 1.216 . S
H839 C834 0.930 . S
H840 C835 0.930 . S
O841 Cu821 1.959 . S
O841 C828 1.251 . S
H842 C825 0.930 . S
H843 C836 0.929 . S
Cu844 N845 1.999 . S
Cu844 O850 1.974 . S
Cu844 N855 1.985 . S
Cu844 O864 1.959 . S
N845 Cu844 1.999 . S
N845 C847 1.263 . S
N845 C849 1.389 . S
N846 C847 1.358 . S
N846 C848 1.400 . S
C847 N845 1.263 . S
C847 N846 1.358 . S
C847 H853 0.930 . S
C848 N846 1.400 . S
C848 C849 1.351 . S
C848 H865 0.930 . S
C849 N845 1.389 . S
C849 C848 1.351 . S
C849 H854 0.930 . S
O850 Cu844 1.974 . S
O850 C860 1.282 . S
C851 O852 1.261 . S
C851 O864 1.251 . S
O852 C851 1.261 . S
H853 C847 0.930 . S
H854 C849 0.930 . S
N855 Cu844 1.985 . S
N855 C857 1.335 . S
N855 C858 1.390 . S
N856 C857 1.345 . S
N856 C859 1.336 . S
C857 N855 1.335 . S
C857 N856 1.345 . S
C857 H862 0.930 . S
C858 N855 1.390 . S
C858 C859 1.346 . S
C858 H863 0.930 . S
C859 N856 1.336 . S
C859 C858 1.346 . S
C859 H866 0.929 . S
C860 O850 1.282 . S
C860 O861 1.216 . S
O861 C860 1.216 . S
H862 C857 0.930 . S
H863 C858 0.930 . S
O864 Cu844 1.959 . S
O864 C851 1.251 . S
H865 C848 0.930 . S
H866 C859 0.929 . S
Cu867 N868 1.999 . S
Cu867 O873 1.974 . S
Cu867 N878 1.985 . S
Cu867 O887 1.959 . S
N868 Cu867 1.999 . S
N868 C870 1.263 . S
N868 C872 1.389 . S
N869 C870 1.358 . S
N869 C871 1.400 . S
C870 N868 1.263 . S
C870 N869 1.358 . S
C870 H876 0.930 . S
C871 N869 1.400 . S
C871 C872 1.351 . S
C871 H888 0.930 . S
C872 N868 1.389 . S
C872 C871 1.351 . S
C872 H877 0.930 . S
O873 Cu867 1.974 . S
O873 C883 1.282 . S
C874 O875 1.261 . S
C874 O887 1.251 . S
O875 C874 1.261 . S
H876 C870 0.930 . S
H877 C872 0.930 . S
N878 Cu867 1.985 . S
N878 C880 1.335 . S
N878 C881 1.390 . S
N879 C880 1.345 . S
N879 C882 1.336 . S
C880 N878 1.335 . S
C880 N879 1.345 . S
C880 H885 0.930 . S
C881 N878 1.390 . S
C881 C882 1.346 . S
C881 H886 0.930 . S
C882 N879 1.336 . S
C882 C881 1.346 . S
C882 H889 0.929 . S
C883 O873 1.282 . S
C883 O884 1.216 . S
O884 C883 1.216 . S
H885 C880 0.930 . S
H886 C881 0.930 . S
O887 Cu867 1.959 . S
O887 C874 1.251 . S
H888 C871 0.930 . S
H889 C882 0.929 . S
Cu890 N891 1.999 . S
Cu890 O896 1.974 . S
Cu890 N901 1.985 . S
Cu890 O910 1.959 . S
N891 Cu890 1.999 . S
N891 C893 1.263 . S
N891 C895 1.389 . S
N892 C893 1.358 . S
N892 C894 1.400 . S
C893 N891 1.263 . S
C893 N892 1.358 . S
C893 H899 0.930 . S
C894 N892 1.400 . S
C894 C895 1.351 . S
C894 H911 0.930 . S
C895 N891 1.389 . S
C895 C894 1.351 . S
C895 H900 0.930 . S
O896 Cu890 1.974 . S
O896 C906 1.282 . S
C897 O898 1.261 . S
C897 O910 1.251 . S
O898 C897 1.261 . S
H899 C893 0.930 . S
H900 C895 0.930 . S
N901 Cu890 1.985 . S
N901 C903 1.335 . S
N901 C904 1.390 . S
N902 C903 1.345 . S
N902 C905 1.336 . S
C903 N901 1.335 . S
C903 N902 1.345 . S
C903 H908 0.930 . S
C904 N901 1.390 . S
C904 C905 1.346 . S
C904 H909 0.930 . S
C905 N902 1.336 . S
C905 C904 1.346 . S
C905 H912 0.929 . S
C906 O896 1.282 . S
C906 O907 1.216 . S
O907 C906 1.216 . S
H908 C903 0.930 . S
H909 C904 0.930 . S
O910 Cu890 1.959 . S
O910 C897 1.251 . S
H911 C894 0.930 . S
H912 C905 0.929 . S
Cu913 N914 1.999 . S
Cu913 O919 1.974 . S
Cu913 N924 1.985 . S
Cu913 O933 1.959 . S
N914 Cu913 1.999 . S
N914 C916 1.263 . S
N914 C918 1.389 . S
N915 C916 1.358 . S
N915 C917 1.400 . S
C916 N914 1.263 . S
C916 N915 1.358 . S
C916 H922 0.930 . S
C917 N915 1.400 . S
C917 C918 1.351 . S
C917 H934 0.930 . S
C918 N914 1.389 . S
C918 C917 1.351 . S
C918 H923 0.930 . S
O919 Cu913 1.974 . S
O919 C929 1.282 . S
C920 O921 1.261 . S
C920 O933 1.251 . S
O921 C920 1.261 . S
H922 C916 0.930 . S
H923 C918 0.930 . S
N924 Cu913 1.985 . S
N924 C926 1.335 . S
N924 C927 1.390 . S
N925 C926 1.345 . S
N925 C928 1.336 . S
C926 N924 1.335 . S
C926 N925 1.345 . S
C926 H931 0.930 . S
C927 N924 1.390 . S
C927 C928 1.346 . S
C927 H932 0.930 . S
C928 N925 1.336 . S
C928 C927 1.346 . S
C928 H935 0.929 . S
C929 O919 1.282 . S
C929 O930 1.216 . S
O930 C929 1.216 . S
H931 C926 0.930 . S
H932 C927 0.930 . S
O933 Cu913 1.959 . S
O933 C920 1.251 . S
H934 C917 0.930 . S
H935 C928 0.929 . S
H936 C942 0.930 . S
H937 C946 0.930 . S
H938 C951 0.929 . S
H939 C949 0.929 . S
H940 C944 0.929 . S
H941 C950 0.929 . S
C942 H936 0.930 . S
C942 C943 1.367 . S
C942 C950 1.378 . S
C943 C942 1.367 . S
C943 C951 1.433 . S
C944 H940 0.929 . S
C944 C946 1.378 . S
C944 C948 1.350 . S
C945 C948 1.463 . S
C945 C950 1.350 . S
C945 N953 1.427 . S
C946 H937 0.930 . S
C946 C944 1.378 . S
C946 C947 1.367 . S
C947 C946 1.367 . S
C947 C949 1.433 . S
C948 C944 1.350 . S
C948 C945 1.463 . S
C948 N952 1.427 . S
C949 H939 0.929 . S
C949 C947 1.433 . S
C949 N952 1.384 . S
C950 H941 0.929 . S
C950 C942 1.378 . S
C950 C945 1.350 . S
C951 H938 0.929 . S
C951 C943 1.433 . S
C951 N953 1.384 . S
N952 C948 1.427 . S
N952 C949 1.384 . S
N953 C945 1.427 . S
N953 C951 1.384 . S
H954 C960 0.930 . S
H955 C964 0.930 . S
H956 C969 0.929 . S
H957 C967 0.929 . S
H958 C962 0.929 . S
H959 C968 0.929 . S
C960 H954 0.930 . S
C960 C961 1.367 . S
C960 C968 1.378 . S
C961 C960 1.367 . S
C961 C969 1.433 . S
C962 H958 0.929 . S
C962 C964 1.378 . S
C962 C966 1.350 . S
C963 C966 1.463 . S
C963 C968 1.350 . S
C963 N971 1.427 . S
C964 H955 0.930 . S
C964 C962 1.378 . S
C964 C965 1.367 . S
C965 C964 1.367 . S
C965 C967 1.433 . S
C966 C962 1.350 . S
C966 C963 1.463 . S
C966 N970 1.427 . S
C967 H957 0.929 . S
C967 C965 1.433 . S
C967 N970 1.384 . S
C968 H959 0.929 . S
C968 C960 1.378 . S
C968 C963 1.350 . S
C969 H956 0.929 . S
C969 C961 1.433 . S
C969 N971 1.384 . S
N970 C966 1.427 . S
N970 C967 1.384 . S
N971 C963 1.427 . S
N971 C969 1.384 . S
H972 C978 0.930 . S
H973 C982 0.930 . S
H974 C987 0.929 . S
H975 C985 0.929 . S
H976 C980 0.929 . S
H977 C986 0.929 . S
C978 H972 0.930 . S
C978 C979 1.367 . S
C978 C986 1.378 . S
C979 C978 1.367 . S
C979 C987 1.433 . S
C980 H976 0.929 . S
C980 C982 1.378 . S
C980 C984 1.350 . S
C981 C984 1.463 . S
C981 C986 1.350 . S
C981 N989 1.427 . S
C982 H973 0.930 . S
C982 C980 1.378 . S
C982 C983 1.367 . S
C983 C982 1.367 . S
C983 C985 1.433 . S
C984 C980 1.350 . S
C984 C981 1.463 . S
C984 N988 1.427 . S
C985 H975 0.929 . S
C985 C983 1.433 . S
C985 N988 1.384 . S
C986 H977 0.929 . S
C986 C978 1.378 . S
C986 C981 1.350 . S
C987 H974 0.929 . S
C987 C979 1.433 . S
C987 N989 1.384 . S
N988 C984 1.427 . S
N988 C985 1.384 . S
N989 C981 1.427 . S
N989 C987 1.384 . S
H990 C996 0.930 . S
H991 C1000 0.930 . S
H992 C1005 0.929 . S
H993 C1003 0.929 . S
H994 C998 0.929 . S
H995 C1004 0.929 . S
C996 H990 0.930 . S
C996 C997 1.367 . S
C996 C1004 1.378 . S
C997 C996 1.367 . S
C997 C1005 1.433 . S
C998 H994 0.929 . S
C998 C1000 1.378 . S
C998 C1002 1.350 . S
C999 C1002 1.463 . S
C999 C1004 1.350 . S
C999 N1007 1.427 . S
C1000 H991 0.930 . S
C1000 C998 1.378 . S
C1000 C1001 1.367 . S
C1001 C1000 1.367 . S
C1001 C1003 1.433 . S
C1002 C998 1.350 . S
C1002 C999 1.463 . S
C1002 N1006 1.427 . S
C1003 H993 0.929 . S
C1003 C1001 1.433 . S
C1003 N1006 1.384 . S
C1004 H995 0.929 . S
C1004 C996 1.378 . S
C1004 C999 1.350 . S
C1005 H992 0.929 . S
C1005 C997 1.433 . S
C1005 N1007 1.384 . S
N1006 C1002 1.427 . S
N1006 C1003 1.384 . S
N1007 C999 1.427 . S
N1007 C1005 1.384 . S
H1008 C1014 0.930 . S
H1009 C1018 0.930 . S
H1010 C1023 0.929 . S
H1011 C1021 0.929 . S
H1012 C1016 0.929 . S
H1013 C1022 0.929 . S
C1014 H1008 0.930 . S
C1014 C1015 1.367 . S
C1014 C1022 1.378 . S
C1015 C1014 1.367 . S
C1015 C1023 1.433 . S
C1016 H1012 0.929 . S
C1016 C1018 1.378 . S
C1016 C1020 1.350 . S
C1017 C1020 1.463 . S
C1017 C1022 1.350 . S
C1017 N1025 1.427 . S
C1018 H1009 0.930 . S
C1018 C1016 1.378 . S
C1018 C1019 1.367 . S
C1019 C1018 1.367 . S
C1019 C1021 1.433 . S
C1020 C1016 1.350 . S
C1020 C1017 1.463 . S
C1020 N1024 1.427 . S
C1021 H1011 0.929 . S
C1021 C1019 1.433 . S
C1021 N1024 1.384 . S
C1022 H1013 0.929 . S
C1022 C1014 1.378 . S
C1022 C1017 1.350 . S
C1023 H1010 0.929 . S
C1023 C1015 1.433 . S
C1023 N1025 1.384 . S
N1024 C1020 1.427 . S
N1024 C1021 1.384 . S
N1025 C1017 1.427 . S
N1025 C1023 1.384 . S
H1026 C1032 0.930 . S
H1027 C1036 0.930 . S
H1028 C1041 0.929 . S
H1029 C1039 0.929 . S
H1030 C1034 0.929 . S
H1031 C1040 0.929 . S
C1032 H1026 0.930 . S
C1032 C1033 1.367 . S
C1032 C1040 1.378 . S
C1033 C1032 1.367 . S
C1033 C1041 1.433 . S
C1034 H1030 0.929 . S
C1034 C1036 1.378 . S
C1034 C1038 1.350 . S
C1035 C1038 1.463 . S
C1035 C1040 1.350 . S
C1035 N1043 1.427 . S
C1036 H1027 0.930 . S
C1036 C1034 1.378 . S
C1036 C1037 1.367 . S
C1037 C1036 1.367 . S
C1037 C1039 1.433 . S
C1038 C1034 1.350 . S
C1038 C1035 1.463 . S
C1038 N1042 1.427 . S
C1039 H1029 0.929 . S
C1039 C1037 1.433 . S
C1039 N1042 1.384 . S
C1040 H1031 0.929 . S
C1040 C1032 1.378 . S
C1040 C1035 1.350 . S
C1041 H1028 0.929 . S
C1041 C1033 1.433 . S
C1041 N1043 1.384 . S
N1042 C1038 1.427 . S
N1042 C1039 1.384 . S
N1043 C1035 1.427 . S
N1043 C1041 1.384 . S
H1044 C1050 0.930 . S
H1045 C1054 0.930 . S
H1046 C1059 0.929 . S
H1047 C1057 0.929 . S
H1048 C1052 0.929 . S
H1049 C1058 0.929 . S
C1050 H1044 0.930 . S
C1050 C1051 1.367 . S
C1050 C1058 1.378 . S
C1051 C1050 1.367 . S
C1051 C1059 1.433 . S
C1052 H1048 0.929 . S
C1052 C1054 1.378 . S
C1052 C1056 1.350 . S
C1053 C1056 1.463 . S
C1053 C1058 1.350 . S
C1053 N1061 1.427 . S
C1054 H1045 0.930 . S
C1054 C1052 1.378 . S
C1054 C1055 1.367 . S
C1055 C1054 1.367 . S
C1055 C1057 1.433 . S
C1056 C1052 1.350 . S
C1056 C1053 1.463 . S
C1056 N1060 1.427 . S
C1057 H1047 0.929 . S
C1057 C1055 1.433 . S
C1057 N1060 1.384 . S
C1058 H1049 0.929 . S
C1058 C1050 1.378 . S
C1058 C1053 1.350 . S
C1059 H1046 0.929 . S
C1059 C1051 1.433 . S
C1059 N1061 1.384 . S
N1060 C1056 1.427 . S
N1060 C1057 1.384 . S
N1061 C1053 1.427 . S
N1061 C1059 1.384 . S
H1062 C1068 0.930 . S
H1063 C1072 0.930 . S
H1064 C1077 0.929 . S
H1065 C1075 0.929 . S
H1066 C1070 0.929 . S
H1067 C1076 0.929 . S
C1068 H1062 0.930 . S
C1068 C1069 1.367 . S
C1068 C1076 1.378 . S
C1069 C1068 1.367 . S
C1069 C1077 1.433 . S
C1070 H1066 0.929 . S
C1070 C1072 1.378 . S
C1070 C1074 1.350 . S
C1071 C1074 1.463 . S
C1071 C1076 1.350 . S
C1071 N1079 1.427 . S
C1072 H1063 0.930 . S
C1072 C1070 1.378 . S
C1072 C1073 1.367 . S
C1073 C1072 1.367 . S
C1073 C1075 1.433 . S
C1074 C1070 1.350 . S
C1074 C1071 1.463 . S
C1074 N1078 1.427 . S
C1075 H1065 0.929 . S
C1075 C1073 1.433 . S
C1075 N1078 1.384 . S
C1076 H1067 0.929 . S
C1076 C1068 1.378 . S
C1076 C1071 1.350 . S
C1077 H1064 0.929 . S
C1077 C1069 1.433 . S
C1077 N1079 1.384 . S
N1078 C1074 1.427 . S
N1078 C1075 1.384 . S
N1079 C1071 1.427 . S
N1079 C1077 1.384 . S
H1080 C1086 0.930 . S
H1081 C1090 0.930 . S
H1082 C1095 0.929 . S
H1083 C1093 0.929 . S
H1084 C1088 0.929 . S
H1085 C1094 0.929 . S
C1086 H1080 0.930 . S
C1086 C1087 1.367 . S
C1086 C1094 1.378 . S
C1087 C1086 1.367 . S
C1087 C1095 1.433 . S
C1088 H1084 0.929 . S
C1088 C1090 1.378 . S
C1088 C1092 1.350 . S
C1089 C1092 1.463 . S
C1089 C1094 1.350 . S
C1089 N1097 1.427 . S
C1090 H1081 0.930 . S
C1090 C1088 1.378 . S
C1090 C1091 1.367 . S
C1091 C1090 1.367 . S
C1091 C1093 1.433 . S
C1092 C1088 1.350 . S
C1092 C1089 1.463 . S
C1092 N1096 1.427 . S
C1093 H1083 0.929 . S
C1093 C1091 1.433 . S
C1093 N1096 1.384 . S
C1094 H1085 0.929 . S
C1094 C1086 1.378 . S
C1094 C1089 1.350 . S
C1095 H1082 0.929 . S
C1095 C1087 1.433 . S
C1095 N1097 1.384 . S
N1096 C1092 1.427 . S
N1096 C1093 1.384 . S
N1097 C1089 1.427 . S
N1097 C1095 1.384 . S
H1098 C1104 0.930 . S
H1099 C1108 0.930 . S
H1100 C1113 0.929 . S
H1101 C1111 0.929 . S
H1102 C1106 0.929 . S
H1103 C1112 0.929 . S
C1104 H1098 0.930 . S
C1104 C1105 1.367 . S
C1104 C1112 1.378 . S
C1105 C1104 1.367 . S
C1105 C1113 1.433 . S
C1106 H1102 0.929 . S
C1106 C1108 1.378 . S
C1106 C1110 1.350 . S
C1107 C1110 1.463 . S
C1107 C1112 1.350 . S
C1107 N1115 1.427 . S
C1108 H1099 0.930 . S
C1108 C1106 1.378 . S
C1108 C1109 1.367 . S
C1109 C1108 1.367 . S
C1109 C1111 1.433 . S
C1110 C1106 1.350 . S
C1110 C1107 1.463 . S
C1110 N1114 1.427 . S
C1111 H1101 0.929 . S
C1111 C1109 1.433 . S
C1111 N1114 1.384 . S
C1112 H1103 0.929 . S
C1112 C1104 1.378 . S
C1112 C1107 1.350 . S
C1113 H1100 0.929 . S
C1113 C1105 1.433 . S
C1113 N1115 1.384 . S
N1114 C1110 1.427 . S
N1114 C1111 1.384 . S
N1115 C1107 1.427 . S
N1115 C1113 1.384 . S
H1116 C1122 0.930 . S
H1117 C1126 0.930 . S
H1118 C1131 0.929 . S
H1119 C1129 0.929 . S
H1120 C1124 0.929 . S
H1121 C1130 0.929 . S
C1122 H1116 0.930 . S
C1122 C1123 1.367 . S
C1122 C1130 1.378 . S
C1123 C1122 1.367 . S
C1123 C1131 1.433 . S
C1124 H1120 0.929 . S
C1124 C1126 1.378 . S
C1124 C1128 1.350 . S
C1125 C1128 1.463 . S
C1125 C1130 1.350 . S
C1125 N1133 1.427 . S
C1126 H1117 0.930 . S
C1126 C1124 1.378 . S
C1126 C1127 1.367 . S
C1127 C1126 1.367 . S
C1127 C1129 1.433 . S
C1128 C1124 1.350 . S
C1128 C1125 1.463 . S
C1128 N1132 1.427 . S
C1129 H1119 0.929 . S
C1129 C1127 1.433 . S
C1129 N1132 1.384 . S
C1130 H1121 0.929 . S
C1130 C1122 1.378 . S
C1130 C1125 1.350 . S
C1131 H1118 0.929 . S
C1131 C1123 1.433 . S
C1131 N1133 1.384 . S
N1132 C1128 1.427 . S
N1132 C1129 1.384 . S
N1133 C1125 1.427 . S
N1133 C1131 1.384 . S
H1134 C1140 0.930 . S
H1135 C1144 0.930 . S
H1136 C1149 0.929 . S
H1137 C1147 0.929 . S
H1138 C1142 0.929 . S
H1139 C1148 0.929 . S
C1140 H1134 0.930 . S
C1140 C1141 1.367 . S
C1140 C1148 1.378 . S
C1141 C1140 1.367 . S
C1141 C1149 1.433 . S
C1142 H1138 0.929 . S
C1142 C1144 1.378 . S
C1142 C1146 1.350 . S
C1143 C1146 1.463 . S
C1143 C1148 1.350 . S
C1143 N1151 1.427 . S
C1144 H1135 0.930 . S
C1144 C1142 1.378 . S
C1144 C1145 1.367 . S
C1145 C1144 1.367 . S
C1145 C1147 1.433 . S
C1146 C1142 1.350 . S
C1146 C1143 1.463 . S
C1146 N1150 1.427 . S
C1147 H1137 0.929 . S
C1147 C1145 1.433 . S
C1147 N1150 1.384 . S
C1148 H1139 0.929 . S
C1148 C1140 1.378 . S
C1148 C1143 1.350 . S
C1149 H1136 0.929 . S
C1149 C1141 1.433 . S
C1149 N1151 1.384 . S
N1150 C1146 1.427 . S
N1150 C1147 1.384 . S
N1151 C1143 1.427 . S
N1151 C1149 1.384 . S
H1152 C1158 0.930 . S
H1153 C1162 0.930 . S
H1154 C1167 0.929 . S
H1155 C1165 0.929 . S
H1156 C1160 0.929 . S
H1157 C1166 0.929 . S
C1158 H1152 0.930 . S
C1158 C1159 1.367 . S
C1158 C1166 1.378 . S
C1159 C1158 1.367 . S
C1159 C1167 1.433 . S
C1160 H1156 0.929 . S
C1160 C1162 1.378 . S
C1160 C1164 1.350 . S
C1161 C1164 1.463 . S
C1161 C1166 1.350 . S
C1161 N1169 1.427 . S
C1162 H1153 0.930 . S
C1162 C1160 1.378 . S
C1162 C1163 1.367 . S
C1163 C1162 1.367 . S
C1163 C1165 1.433 . S
C1164 C1160 1.350 . S
C1164 C1161 1.463 . S
C1164 N1168 1.427 . S
C1165 H1155 0.929 . S
C1165 C1163 1.433 . S
C1165 N1168 1.384 . S
C1166 H1157 0.929 . S
C1166 C1158 1.378 . S
C1166 C1161 1.350 . S
C1167 H1154 0.929 . S
C1167 C1159 1.433 . S
C1167 N1169 1.384 . S
N1168 C1164 1.427 . S
N1168 C1165 1.384 . S
N1169 C1161 1.427 . S
N1169 C1167 1.384 . S
H1170 C1176 0.930 . S
H1171 C1180 0.930 . S
H1172 C1185 0.929 . S
H1173 C1183 0.929 . S
H1174 C1178 0.929 . S
H1175 C1184 0.929 . S
C1176 H1170 0.930 . S
C1176 C1177 1.367 . S
C1176 C1184 1.378 . S
C1177 C1176 1.367 . S
C1177 C1185 1.433 . S
C1178 H1174 0.929 . S
C1178 C1180 1.378 . S
C1178 C1182 1.350 . S
C1179 C1182 1.463 . S
C1179 C1184 1.350 . S
C1179 N1187 1.427 . S
C1180 H1171 0.930 . S
C1180 C1178 1.378 . S
C1180 C1181 1.367 . S
C1181 C1180 1.367 . S
C1181 C1183 1.433 . S
C1182 C1178 1.350 . S
C1182 C1179 1.463 . S
C1182 N1186 1.427 . S
C1183 H1173 0.929 . S
C1183 C1181 1.433 . S
C1183 N1186 1.384 . S
C1184 H1175 0.929 . S
C1184 C1176 1.378 . S
C1184 C1179 1.350 . S
C1185 H1172 0.929 . S
C1185 C1177 1.433 . S
C1185 N1187 1.384 . S
N1186 C1182 1.427 . S
N1186 C1183 1.384 . S
N1187 C1179 1.427 . S
N1187 C1185 1.384 . S
H1188 C1194 0.930 . S
H1189 C1198 0.930 . S
H1190 C1203 0.929 . S
H1191 C1201 0.929 . S
H1192 C1196 0.929 . S
H1193 C1202 0.929 . S
C1194 H1188 0.930 . S
C1194 C1195 1.367 . S
C1194 C1202 1.378 . S
C1195 C1194 1.367 . S
C1195 C1203 1.433 . S
C1196 H1192 0.929 . S
C1196 C1198 1.378 . S
C1196 C1200 1.350 . S
C1197 C1200 1.463 . S
C1197 C1202 1.350 . S
C1197 N1205 1.427 . S
C1198 H1189 0.930 . S
C1198 C1196 1.378 . S
C1198 C1199 1.367 . S
C1199 C1198 1.367 . S
C1199 C1201 1.433 . S
C1200 C1196 1.350 . S
C1200 C1197 1.463 . S
C1200 N1204 1.427 . S
C1201 H1191 0.929 . S
C1201 C1199 1.433 . S
C1201 N1204 1.384 . S
C1202 H1193 0.929 . S
C1202 C1194 1.378 . S
C1202 C1197 1.350 . S
C1203 H1190 0.929 . S
C1203 C1195 1.433 . S
C1203 N1205 1.384 . S
N1204 C1200 1.427 . S
N1204 C1201 1.384 . S
N1205 C1197 1.427 . S
N1205 C1203 1.384 . S
H1206 C1212 0.930 . S
H1207 C1216 0.930 . S
H1208 C1221 0.929 . S
H1209 C1219 0.929 . S
H1210 C1214 0.929 . S
H1211 C1220 0.929 . S
C1212 H1206 0.930 . S
C1212 C1213 1.367 . S
C1212 C1220 1.378 . S
C1213 C1212 1.367 . S
C1213 C1221 1.433 . S
C1214 H1210 0.929 . S
C1214 C1216 1.378 1_565 S
C1214 C1218 1.350 . S
C1215 C1218 1.463 . S
C1215 C1220 1.350 . S
C1215 N1223 1.427 . S
C1216 H1207 0.930 . S
C1216 C1214 1.378 1_545 S
C1216 C1217 1.367 . S
C1217 C1216 1.367 . S
C1217 C1219 1.427 1_545 S
C1218 C1214 1.350 . S
C1218 C1215 1.463 . S
C1218 N1222 1.427 . S
C1219 H1209 0.929 . S
C1219 C1217 1.427 1_565 S
C1219 N1222 1.384 . S
C1220 H1211 0.929 . S
C1220 C1212 1.378 . S
C1220 C1215 1.350 . S
C1221 H1208 0.929 . S
C1221 C1213 1.433 . S
C1221 N1223 1.384 . S
N1222 C1218 1.427 . S
N1222 C1219 1.384 . S
N1223 C1215 1.427 . S
N1223 C1221 1.384 . S
H1224 C1230 0.930 . S
H1225 C1234 0.930 . S
H1226 C1239 0.929 . S
H1227 C1237 0.929 . S
H1228 C1232 0.929 . S
H1229 C1238 0.929 . S
C1230 H1224 0.930 . S
C1230 C1231 1.367 . S
C1230 C1238 1.378 . S
C1231 C1230 1.367 . S
C1231 C1239 1.433 . S
C1232 H1228 0.929 . S
C1232 C1234 1.378 . S
C1232 C1236 1.350 . S
C1233 C1236 1.463 . S
C1233 C1238 1.350 . S
C1233 N1241 1.427 . S
C1234 H1225 0.930 . S
C1234 C1232 1.378 . S
C1234 C1235 1.367 . S
C1235 C1234 1.367 . S
C1235 C1237 1.433 . S
C1236 C1232 1.350 . S
C1236 C1233 1.463 . S
C1236 N1240 1.427 . S
C1237 H1227 0.929 . S
C1237 C1235 1.433 . S
C1237 N1240 1.384 . S
C1238 H1229 0.929 . S
C1238 C1230 1.378 . S
C1238 C1233 1.350 . S
C1239 H1226 0.929 . S
C1239 C1231 1.433 . S
C1239 N1241 1.384 . S
N1240 C1236 1.427 . S
N1240 C1237 1.384 . S
N1241 C1233 1.427 . S
N1241 C1239 1.384 . S
H1242 C1248 0.930 . S
H1243 C1252 0.930 . S
H1244 C1257 0.929 . S
H1245 C1255 0.929 . S
H1246 C1250 0.929 . S
H1247 C1256 0.929 . S
C1248 H1242 0.930 . S
C1248 C1249 1.367 . S
C1248 C1256 1.378 . S
C1249 C1248 1.367 . S
C1249 C1257 1.433 . S
C1250 H1246 0.929 . S
C1250 C1252 1.378 . S
C1250 C1254 1.350 . S
C1251 C1254 1.463 . S
C1251 C1256 1.350 . S
C1251 N1259 1.427 . S
C1252 H1243 0.930 . S
C1252 C1250 1.378 . S
C1252 C1253 1.367 . S
C1253 C1252 1.367 . S
C1253 C1255 1.433 . S
C1254 C1250 1.350 . S
C1254 C1251 1.463 . S
C1254 N1258 1.427 . S
C1255 H1245 0.929 . S
C1255 C1253 1.433 . S
C1255 N1258 1.384 . S
C1256 H1247 0.929 . S
C1256 C1248 1.378 . S
C1256 C1251 1.350 . S
C1257 H1244 0.929 . S
C1257 C1249 1.433 . S
C1257 N1259 1.384 . S
N1258 C1254 1.427 . S
N1258 C1255 1.384 . S
N1259 C1251 1.427 . S
N1259 C1257 1.384 . S
H1260 C1266 0.930 . S
H1261 C1270 0.930 . S
H1262 C1275 0.929 . S
H1263 C1273 0.929 . S
H1264 C1268 0.929 . S
H1265 C1274 0.929 . S
C1266 H1260 0.930 . S
C1266 C1267 1.367 . S
C1266 C1274 1.378 . S
C1267 C1266 1.367 . S
C1267 C1275 1.433 . S
C1268 H1264 0.929 . S
C1268 C1270 1.378 . S
C1268 C1272 1.350 . S
C1269 C1272 1.463 . S
C1269 C1274 1.350 . S
C1269 N1277 1.427 . S
C1270 H1261 0.930 . S
C1270 C1268 1.378 . S
C1270 C1271 1.367 . S
C1271 C1270 1.367 . S
C1271 C1273 1.433 . S
C1272 C1268 1.350 . S
C1272 C1269 1.463 . S
C1272 N1276 1.427 . S
C1273 H1263 0.929 . S
C1273 C1271 1.433 . S
C1273 N1276 1.384 . S
C1274 H1265 0.929 . S
C1274 C1266 1.378 . S
C1274 C1269 1.350 . S
C1275 H1262 0.929 . S
C1275 C1267 1.433 . S
C1275 N1277 1.384 . S
N1276 C1272 1.427 . S
N1276 C1273 1.384 . S
N1277 C1269 1.427 . S
N1277 C1275 1.384 . S
H1278 C1284 0.930 . S
H1279 C1288 0.930 . S
H1280 C1293 0.929 . S
H1281 C1291 0.929 . S
H1282 C1286 0.929 . S
H1283 C1292 0.929 . S
C1284 H1278 0.930 . S
C1284 C1285 1.367 . S
C1284 C1292 1.378 . S
C1285 C1284 1.367 . S
C1285 C1293 1.433 . S
C1286 H1282 0.929 . S
C1286 C1288 1.378 . S
C1286 C1290 1.350 . S
C1287 C1290 1.463 . S
C1287 C1292 1.350 . S
C1287 N1295 1.427 . S
C1288 H1279 0.930 . S
C1288 C1286 1.378 . S
C1288 C1289 1.367 . S
C1289 C1288 1.367 . S
C1289 C1291 1.433 . S
C1290 C1286 1.350 . S
C1290 C1287 1.463 . S
C1290 N1294 1.427 . S
C1291 H1281 0.929 . S
C1291 C1289 1.433 . S
C1291 N1294 1.384 . S
C1292 H1283 0.929 . S
C1292 C1284 1.378 . S
C1292 C1287 1.350 . S
C1293 H1280 0.929 . S
C1293 C1285 1.433 . S
C1293 N1295 1.384 . S
N1294 C1290 1.427 . S
N1294 C1291 1.384 . S
N1295 C1287 1.427 . S
N1295 C1293 1.384 . S
H1296 C1302 0.930 . S
H1297 C1306 0.930 . S
H1298 C1311 0.929 . S
H1299 C1309 0.929 . S
H1300 C1304 0.929 . S
H1301 C1310 0.929 . S
C1302 H1296 0.930 . S
C1302 C1303 1.367 . S
C1302 C1310 1.378 . S
C1303 C1302 1.367 . S
C1303 C1311 1.433 . S
C1304 H1300 0.929 . S
C1304 C1306 1.378 . S
C1304 C1308 1.350 . S
C1305 C1308 1.463 . S
C1305 C1310 1.350 . S
C1305 N1313 1.427 . S
C1306 H1297 0.930 . S
C1306 C1304 1.378 . S
C1306 C1307 1.367 . S
C1307 C1306 1.367 . S
C1307 C1309 1.433 . S
C1308 C1304 1.350 . S
C1308 C1305 1.463 . S
C1308 N1312 1.427 . S
C1309 H1299 0.929 . S
C1309 C1307 1.433 . S
C1309 N1312 1.384 . S
C1310 H1301 0.929 . S
C1310 C1302 1.378 . S
C1310 C1305 1.350 . S
C1311 H1298 0.929 . S
C1311 C1303 1.433 . S
C1311 N1313 1.384 . S
N1312 C1308 1.427 . S
N1312 C1309 1.384 . S
N1313 C1305 1.427 . S
N1313 C1311 1.384 . S
H1314 C1320 0.930 . S
H1315 C1324 0.930 . S
H1316 C1329 0.929 . S
H1317 C1327 0.929 . S
H1318 C1322 0.929 . S
H1319 C1328 0.929 . S
C1320 H1314 0.930 . S
C1320 C1321 1.367 . S
C1320 C1328 1.378 . S
C1321 C1320 1.367 . S
C1321 C1329 1.433 . S
C1322 H1318 0.929 . S
C1322 C1324 1.378 . S
C1322 C1326 1.350 . S
C1323 C1326 1.463 . S
C1323 C1328 1.350 . S
C1323 N1331 1.427 . S
C1324 H1315 0.930 . S
C1324 C1322 1.378 . S
C1324 C1325 1.367 . S
C1325 C1324 1.367 . S
C1325 C1327 1.433 . S
C1326 C1322 1.350 . S
C1326 C1323 1.463 . S
C1326 N1330 1.427 . S
C1327 H1317 0.929 . S
C1327 C1325 1.433 . S
C1327 N1330 1.384 . S
C1328 H1319 0.929 . S
C1328 C1320 1.378 . S
C1328 C1323 1.350 . S
C1329 H1316 0.929 . S
C1329 C1321 1.433 . S
C1329 N1331 1.384 . S
N1330 C1326 1.427 . S
N1330 C1327 1.384 . S
N1331 C1323 1.427 . S
N1331 C1329 1.384 . S
H1332 C1338 0.930 . S
H1333 C1342 0.930 . S
H1334 C1347 0.929 . S
H1335 C1345 0.929 . S
H1336 C1340 0.929 . S
H1337 C1346 0.929 . S
C1338 H1332 0.930 . S
C1338 C1339 1.367 . S
C1338 C1346 1.378 . S
C1339 C1338 1.367 . S
C1339 C1347 1.433 . S
C1340 H1336 0.929 . S
C1340 C1342 1.378 . S
C1340 C1344 1.350 . S
C1341 C1344 1.463 . S
C1341 C1346 1.350 . S
C1341 N1349 1.427 . S
C1342 H1333 0.930 . S
C1342 C1340 1.378 . S
C1342 C1343 1.367 . S
C1343 C1342 1.367 . S
C1343 C1345 1.433 . S
C1344 C1340 1.350 . S
C1344 C1341 1.463 . S
C1344 N1348 1.427 . S
C1345 H1335 0.929 . S
C1345 C1343 1.433 . S
C1345 N1348 1.384 . S
C1346 H1337 0.929 . S
C1346 C1338 1.378 . S
C1346 C1341 1.350 . S
C1347 H1334 0.929 . S
C1347 C1339 1.433 . S
C1347 N1349 1.384 . S
N1348 C1344 1.427 . S
N1348 C1345 1.384 . S
N1349 C1341 1.427 . S
N1349 C1347 1.384 . S
H1350 C1356 0.930 . S
H1351 C1360 0.930 . S
H1352 C1365 0.929 . S
H1353 C1363 0.929 . S
H1354 C1358 0.929 . S
H1355 C1364 0.929 . S
C1356 H1350 0.930 . S
C1356 C1357 1.367 . S
C1356 C1364 1.378 . S
C1357 C1356 1.367 . S
C1357 C1365 1.433 . S
C1358 H1354 0.929 . S
C1358 C1360 1.378 . S
C1358 C1362 1.350 . S
C1359 C1362 1.463 . S
C1359 C1364 1.350 . S
C1359 N1367 1.427 . S
C1360 H1351 0.930 . S
C1360 C1358 1.378 . S
C1360 C1361 1.367 . S
C1361 C1360 1.367 . S
C1361 C1363 1.433 . S
C1362 C1358 1.350 . S
C1362 C1359 1.463 . S
C1362 N1366 1.427 . S
C1363 H1353 0.929 . S
C1363 C1361 1.433 . S
C1363 N1366 1.384 . S
C1364 H1355 0.929 . S
C1364 C1356 1.378 . S
C1364 C1359 1.350 . S
C1365 H1352 0.929 . S
C1365 C1357 1.433 . S
C1365 N1367 1.384 . S
N1366 C1362 1.427 . S
N1366 C1363 1.384 . S
N1367 C1359 1.427 . S
N1367 C1365 1.384 . S
H1368 C1374 0.930 . S
H1369 C1378 0.930 . S
H1370 C1383 0.929 . S
H1371 C1381 0.929 . S
H1372 C1376 0.929 . S
H1373 C1382 0.929 . S
C1374 H1368 0.930 . S
C1374 C1375 1.367 . S
C1374 C1382 1.378 . S
C1375 C1374 1.367 . S
C1375 C1383 1.433 . S
C1376 H1372 0.929 . S
C1376 C1378 1.378 . S
C1376 C1380 1.350 . S
C1377 C1380 1.463 . S
C1377 C1382 1.350 . S
C1377 N1385 1.427 . S
C1378 H1369 0.930 . S
C1378 C1376 1.378 . S
C1378 C1379 1.367 . S
C1379 C1378 1.367 . S
C1379 C1381 1.433 . S
C1380 C1376 1.350 . S
C1380 C1377 1.463 . S
C1380 N1384 1.427 . S
C1381 H1371 0.929 . S
C1381 C1379 1.433 . S
C1381 N1384 1.384 . S
C1382 H1373 0.929 . S
C1382 C1374 1.378 . S
C1382 C1377 1.350 . S
C1383 H1370 0.929 . S
C1383 C1375 1.433 . S
C1383 N1385 1.384 . S
N1384 C1380 1.427 . S
N1384 C1381 1.384 . S
N1385 C1377 1.427 . S
N1385 C1383 1.384 . S
H1386 C1392 0.930 . S
H1387 C1396 0.930 . S
H1388 C1401 0.929 . S
H1389 C1399 0.929 . S
H1390 C1394 0.929 . S
H1391 C1400 0.929 . S
C1392 H1386 0.930 . S
C1392 C1393 1.367 . S
C1392 C1400 1.378 . S
C1393 C1392 1.367 . S
C1393 C1401 1.433 . S
C1394 H1390 0.929 . S
C1394 C1396 1.378 . S
C1394 C1398 1.350 . S
C1395 C1398 1.463 . S
C1395 C1400 1.350 . S
C1395 N1403 1.427 . S
C1396 H1387 0.930 . S
C1396 C1394 1.378 . S
C1396 C1397 1.367 . S
C1397 C1396 1.367 . S
C1397 C1399 1.433 . S
C1398 C1394 1.350 . S
C1398 C1395 1.463 . S
C1398 N1402 1.427 . S
C1399 H1389 0.929 . S
C1399 C1397 1.433 . S
C1399 N1402 1.384 . S
C1400 H1391 0.929 . S
C1400 C1392 1.378 . S
C1400 C1395 1.350 . S
C1401 H1388 0.929 . S
C1401 C1393 1.433 . S
C1401 N1403 1.384 . S
N1402 C1398 1.427 . S
N1402 C1399 1.384 . S
N1403 C1395 1.427 . S
N1403 C1401 1.384 . S
H1404 C1410 0.930 . S
H1405 C1414 0.930 . S
H1406 C1419 0.929 . S
H1407 C1417 0.929 . S
H1408 C1412 0.929 . S
H1409 C1418 0.929 . S
C1410 H1404 0.930 . S
C1410 C1411 1.367 . S
C1410 C1418 1.378 . S
C1411 C1410 1.367 . S
C1411 C1419 1.433 . S
C1412 H1408 0.929 . S
C1412 C1414 1.378 . S
C1412 C1416 1.350 . S
C1413 C1416 1.463 . S
C1413 C1418 1.350 . S
C1413 N1421 1.427 . S
C1414 H1405 0.930 . S
C1414 C1412 1.378 . S
C1414 C1415 1.367 . S
C1415 C1414 1.367 . S
C1415 C1417 1.433 . S
C1416 C1412 1.350 . S
C1416 C1413 1.463 . S
C1416 N1420 1.427 . S
C1417 H1407 0.929 . S
C1417 C1415 1.433 . S
C1417 N1420 1.384 . S
C1418 H1409 0.929 . S
C1418 C1410 1.378 . S
C1418 C1413 1.350 . S
C1419 H1406 0.929 . S
C1419 C1411 1.433 . S
C1419 N1421 1.384 . S
N1420 C1416 1.427 . S
N1420 C1417 1.384 . S
N1421 C1413 1.427 . S
N1421 C1419 1.384 . S
H1422 C1428 0.930 . S
H1423 C1432 0.930 . S
H1424 C1437 0.929 . S
H1425 C1435 0.929 . S
H1426 C1430 0.929 . S
H1427 C1436 0.929 . S
C1428 H1422 0.930 . S
C1428 C1429 1.367 . S
C1428 C1436 1.378 . S
C1429 C1428 1.367 . S
C1429 C1437 1.433 . S
C1430 H1426 0.929 . S
C1430 C1432 1.378 . S
C1430 C1434 1.350 . S
C1431 C1434 1.463 . S
C1431 C1436 1.350 . S
C1431 N1439 1.427 . S
C1432 H1423 0.930 . S
C1432 C1430 1.378 . S
C1432 C1433 1.367 . S
C1433 C1432 1.367 . S
C1433 C1435 1.433 . S
C1434 C1430 1.350 . S
C1434 C1431 1.463 . S
C1434 N1438 1.427 . S
C1435 H1425 0.929 . S
C1435 C1433 1.433 . S
C1435 N1438 1.384 . S
C1436 H1427 0.929 . S
C1436 C1428 1.378 . S
C1436 C1431 1.350 . S
C1437 H1424 0.929 . S
C1437 C1429 1.433 . S
C1437 N1439 1.384 . S
N1438 C1434 1.427 . S
N1438 C1435 1.384 . S
N1439 C1431 1.427 . S
N1439 C1437 1.384 . S
H1440 C1446 0.930 . S
H1441 C1450 0.930 . S
H1442 C1455 0.929 . S
H1443 C1453 0.929 . S
H1444 C1448 0.929 . S
H1445 C1454 0.929 . S
C1446 H1440 0.930 . S
C1446 C1447 1.367 . S
C1446 C1454 1.378 . S
C1447 C1446 1.367 . S
C1447 C1455 1.433 . S
C1448 H1444 0.929 . S
C1448 C1450 1.378 . S
C1448 C1452 1.350 . S
C1449 C1452 1.463 . S
C1449 C1454 1.350 . S
C1449 N1457 1.427 . S
C1450 H1441 0.930 . S
C1450 C1448 1.378 . S
C1450 C1451 1.367 . S
C1451 C1450 1.367 . S
C1451 C1453 1.433 . S
C1452 C1448 1.350 . S
C1452 C1449 1.463 . S
C1452 N1456 1.427 . S
C1453 H1443 0.929 . S
C1453 C1451 1.433 . S
C1453 N1456 1.384 . S
C1454 H1445 0.929 . S
C1454 C1446 1.378 . S
C1454 C1449 1.350 . S
C1455 H1442 0.929 . S
C1455 C1447 1.433 . S
C1455 N1457 1.384 . S
N1456 C1452 1.427 . S
N1456 C1453 1.384 . S
N1457 C1449 1.427 . S
N1457 C1455 1.384 . S
H1458 C1464 0.930 . S
H1459 C1468 0.930 . S
H1460 C1473 0.929 . S
H1461 C1471 0.929 . S
H1462 C1466 0.929 . S
H1463 C1472 0.929 . S
C1464 H1458 0.930 . S
C1464 C1465 1.367 . S
C1464 C1472 1.378 . S
C1465 C1464 1.367 . S
C1465 C1473 1.433 . S
C1466 H1462 0.929 . S
C1466 C1468 1.378 . S
C1466 C1470 1.350 . S
C1467 C1470 1.463 . S
C1467 C1472 1.350 . S
C1467 N1475 1.427 . S
C1468 H1459 0.930 . S
C1468 C1466 1.378 . S
C1468 C1469 1.367 . S
C1469 C1468 1.367 . S
C1469 C1471 1.433 . S
C1470 C1466 1.350 . S
C1470 C1467 1.463 . S
C1470 N1474 1.427 . S
C1471 H1461 0.929 . S
C1471 C1469 1.433 . S
C1471 N1474 1.384 . S
C1472 H1463 0.929 . S
C1472 C1464 1.378 . S
C1472 C1467 1.350 . S
C1473 H1460 0.929 . S
C1473 C1465 1.433 . S
C1473 N1475 1.384 . S
N1474 C1470 1.427 . S
N1474 C1471 1.384 . S
N1475 C1467 1.427 . S
N1475 C1473 1.384 . S
H1476 C1482 0.930 . S
H1477 C1486 0.930 . S
H1478 C1491 0.929 . S
H1479 C1489 0.929 . S
H1480 C1484 0.929 . S
H1481 C1490 0.929 . S
C1482 H1476 0.930 . S
C1482 C1483 1.367 . S
C1482 C1490 1.378 . S
C1483 C1482 1.367 . S
C1483 C1491 1.433 . S
C1484 H1480 0.929 . S
C1484 C1486 1.378 . S
C1484 C1488 1.350 . S
C1485 C1488 1.463 . S
C1485 C1490 1.350 . S
C1485 N1493 1.427 . S
C1486 H1477 0.930 . S
C1486 C1484 1.378 . S
C1486 C1487 1.367 . S
C1487 C1486 1.367 . S
C1487 C1489 1.433 . S
C1488 C1484 1.350 . S
C1488 C1485 1.463 . S
C1488 N1492 1.427 . S
C1489 H1479 0.929 . S
C1489 C1487 1.433 . S
C1489 N1492 1.384 . S
C1490 H1481 0.929 . S
C1490 C1482 1.378 . S
C1490 C1485 1.350 . S
C1491 H1478 0.929 . S
C1491 C1483 1.433 . S
C1491 N1493 1.384 . S
N1492 C1488 1.427 . S
N1492 C1489 1.384 . S
N1493 C1485 1.427 . S
N1493 C1491 1.384 . S
H1494 C1500 0.930 . S
H1495 C1504 0.930 . S
H1496 C1509 0.929 . S
H1497 C1507 0.929 . S
H1498 C1502 0.929 . S
H1499 C1508 0.929 . S
C1500 H1494 0.930 . S
C1500 C1501 1.367 . S
C1500 C1508 1.378 . S
C1501 C1500 1.367 . S
C1501 C1509 1.433 . S
C1502 H1498 0.929 . S
C1502 C1504 1.378 . S
C1502 C1506 1.350 . S
C1503 C1506 1.463 . S
C1503 C1508 1.350 . S
C1503 N1511 1.427 . S
C1504 H1495 0.930 . S
C1504 C1502 1.378 . S
C1504 C1505 1.367 . S
C1505 C1504 1.367 . S
C1505 C1507 1.433 . S
C1506 C1502 1.350 . S
C1506 C1503 1.463 . S
C1506 N1510 1.427 . S
C1507 H1497 0.929 . S
C1507 C1505 1.433 . S
C1507 N1510 1.384 . S
C1508 H1499 0.929 . S
C1508 C1500 1.378 . S
C1508 C1503 1.350 . S
C1509 H1496 0.929 . S
C1509 C1501 1.433 . S
C1509 N1511 1.384 . S
N1510 C1506 1.427 . S
N1510 C1507 1.384 . S
N1511 C1503 1.427 . S
N1511 C1509 1.384 . S
H1512 C1518 0.930 . S
H1513 C1522 0.930 . S
H1514 C1527 0.929 . S
H1515 C1525 0.929 . S
H1516 C1520 0.929 . S
H1517 C1526 0.929 . S
C1518 H1512 0.930 . S
C1518 C1519 1.367 . S
C1518 C1526 1.378 . S
C1519 C1518 1.367 . S
C1519 C1527 1.433 . S
C1520 H1516 0.929 . S
C1520 C1522 1.378 . S
C1520 C1524 1.350 . S
C1521 C1524 1.463 . S
C1521 C1526 1.350 . S
C1521 N1529 1.427 . S
C1522 H1513 0.930 . S
C1522 C1520 1.378 . S
C1522 C1523 1.367 . S
C1523 C1522 1.367 . S
C1523 C1525 1.433 . S
C1524 C1520 1.350 . S
C1524 C1521 1.463 . S
C1524 N1528 1.427 . S
C1525 H1515 0.929 . S
C1525 C1523 1.433 . S
C1525 N1528 1.384 . S
C1526 H1517 0.929 . S
C1526 C1518 1.378 . S
C1526 C1521 1.350 . S
C1527 H1514 0.929 . S
C1527 C1519 1.433 . S
C1527 N1529 1.384 . S
N1528 C1524 1.427 . S
N1528 C1525 1.384 . S
N1529 C1521 1.427 . S
N1529 C1527 1.384 . S
H1530 C1536 0.930 . S
H1531 C1540 0.930 . S
H1532 C1545 0.929 . S
H1533 C1543 0.929 . S
H1534 C1538 0.929 . S
H1535 C1544 0.929 . S
C1536 H1530 0.930 . S
C1536 C1537 1.367 . S
C1536 C1544 1.378 . S
C1537 C1536 1.367 . S
C1537 C1545 1.433 . S
C1538 H1534 0.929 . S
C1538 C1540 1.378 . S
C1538 C1542 1.350 . S
C1539 C1542 1.463 . S
C1539 C1544 1.350 . S
C1539 N1547 1.427 . S
C1540 H1531 0.930 . S
C1540 C1538 1.378 . S
C1540 C1541 1.367 . S
C1541 C1540 1.367 . S
C1541 C1543 1.433 . S
C1542 C1538 1.350 . S
C1542 C1539 1.463 . S
C1542 N1546 1.427 . S
C1543 H1533 0.929 . S
C1543 C1541 1.433 . S
C1543 N1546 1.384 . S
C1544 H1535 0.929 . S
C1544 C1536 1.378 . S
C1544 C1539 1.350 . S
C1545 H1532 0.929 . S
C1545 C1537 1.433 . S
C1545 N1547 1.384 . S
N1546 C1542 1.427 . S
N1546 C1543 1.384 . S
N1547 C1539 1.427 . S
N1547 C1545 1.384 . S
H1548 C1554 0.930 . S
H1549 C1558 0.930 . S
H1550 C1563 0.929 . S
H1551 C1561 0.932 1_455 S
H1552 C1556 0.929 . S
H1553 C1562 0.929 . S
C1554 H1548 0.930 . S
C1554 C1555 1.367 . S
C1554 C1562 1.378 . S
C1555 C1554 1.367 . S
C1555 C1563 1.433 . S
C1556 H1552 0.929 . S
C1556 C1558 1.378 . S
C1556 C1560 1.350 . S
C1557 C1560 1.463 . S
C1557 C1562 1.350 . S
C1557 N1565 1.427 . S
C1558 H1549 0.930 . S
C1558 C1556 1.378 . S
C1558 C1559 1.367 . S
C1559 C1558 1.367 . S
C1559 C1561 1.433 . S
C1560 C1556 1.350 . S
C1560 C1557 1.463 . S
C1560 N1564 1.427 . S
C1561 H1551 0.932 1_655 S
C1561 C1559 1.433 . S
C1561 N1564 1.381 . S
C1562 H1553 0.929 . S
C1562 C1554 1.378 . S
C1562 C1557 1.350 . S
C1563 H1550 0.929 . S
C1563 C1555 1.433 . S
C1563 N1565 1.384 . S
N1564 C1560 1.427 . S
N1564 C1561 1.381 . S
N1565 C1557 1.427 . S
N1565 C1563 1.384 . S
H1566 C1572 0.930 . S
H1567 C1576 0.930 . S
H1568 C1581 0.929 . S
H1569 C1579 0.929 . S
H1570 C1574 0.929 . S
H1571 C1580 0.929 . S
C1572 H1566 0.930 . S
C1572 C1573 1.367 . S
C1572 C1580 1.378 . S
C1573 C1572 1.367 . S
C1573 C1581 1.433 . S
C1574 H1570 0.929 . S
C1574 C1576 1.378 . S
C1574 C1578 1.350 . S
C1575 C1578 1.463 . S
C1575 C1580 1.350 . S
C1575 N1583 1.427 . S
C1576 H1567 0.930 . S
C1576 C1574 1.378 . S
C1576 C1577 1.367 . S
C1577 C1576 1.367 . S
C1577 C1579 1.433 . S
C1578 C1574 1.350 . S
C1578 C1575 1.463 . S
C1578 N1582 1.427 . S
C1579 H1569 0.929 . S
C1579 C1577 1.433 . S
C1579 N1582 1.384 . S
C1580 H1571 0.929 . S
C1580 C1572 1.378 . S
C1580 C1575 1.350 . S
C1581 H1568 0.929 . S
C1581 C1573 1.433 . S
C1581 N1583 1.384 . S
N1582 C1578 1.427 . S
N1582 C1579 1.384 . S
N1583 C1575 1.427 . S
N1583 C1581 1.384 . S
H1584 C1590 0.930 . S
H1585 C1594 0.930 . S
H1586 C1599 0.929 . S
H1587 C1597 0.929 . S
H1588 C1592 0.929 . S
H1589 C1598 0.929 . S
C1590 H1584 0.930 . S
C1590 C1591 1.367 . S
C1590 C1598 1.378 . S
C1591 C1590 1.367 . S
C1591 C1599 1.433 . S
C1592 H1588 0.929 . S
C1592 C1594 1.378 . S
C1592 C1596 1.350 . S
C1593 C1596 1.463 . S
C1593 C1598 1.350 . S
C1593 N1601 1.427 . S
C1594 H1585 0.930 . S
C1594 C1592 1.378 . S
C1594 C1595 1.367 . S
C1595 C1594 1.367 . S
C1595 C1597 1.433 . S
C1596 C1592 1.350 . S
C1596 C1593 1.463 . S
C1596 N1600 1.427 . S
C1597 H1587 0.929 . S
C1597 C1595 1.433 . S
C1597 N1600 1.384 . S
C1598 H1589 0.929 . S
C1598 C1590 1.378 . S
C1598 C1593 1.350 . S
C1599 H1586 0.929 . S
C1599 C1591 1.433 . S
C1599 N1601 1.384 . S
N1600 C1596 1.427 . S
N1600 C1597 1.384 . S
N1601 C1593 1.427 . S
N1601 C1599 1.384 . S
H1602 C1608 0.930 . S
H1603 C1612 0.930 . S
H1604 C1617 0.929 . S
H1605 C1615 0.929 . S
H1606 C1610 0.929 . S
H1607 C1616 0.929 . S
C1608 H1602 0.930 . S
C1608 C1609 1.367 . S
C1608 C1616 1.378 . S
C1609 C1608 1.367 . S
C1609 C1617 1.433 . S
C1610 H1606 0.929 . S
C1610 C1612 1.378 . S
C1610 C1614 1.350 . S
C1611 C1614 1.463 . S
C1611 C1616 1.350 . S
C1611 N1619 1.427 . S
C1612 H1603 0.930 . S
C1612 C1610 1.378 . S
C1612 C1613 1.367 . S
C1613 C1612 1.367 . S
C1613 C1615 1.433 . S
C1614 C1610 1.350 . S
C1614 C1611 1.463 . S
C1614 N1618 1.427 . S
C1615 H1605 0.929 . S
C1615 C1613 1.433 . S
C1615 N1618 1.384 . S
C1616 H1607 0.929 . S
C1616 C1608 1.378 . S
C1616 C1611 1.350 . S
C1617 H1604 0.929 . S
C1617 C1609 1.433 . S
C1617 N1619 1.384 . S
N1618 C1614 1.427 . S
N1618 C1615 1.384 . S
N1619 C1611 1.427 . S
N1619 C1617 1.384 . S
H1620 C1626 0.930 . S
H1621 C1630 0.930 . S
H1622 C1635 0.929 . S
H1623 C1633 0.929 . S
H1624 C1628 0.929 . S
H1625 C1634 0.929 . S
C1626 H1620 0.930 . S
C1626 C1627 1.367 . S
C1626 C1634 1.378 . S
C1627 C1626 1.367 . S
C1627 C1635 1.433 . S
C1628 H1624 0.929 . S
C1628 C1630 1.378 . S
C1628 C1632 1.350 . S
C1629 C1632 1.463 . S
C1629 C1634 1.350 . S
C1629 N1637 1.427 . S
C1630 H1621 0.930 . S
C1630 C1628 1.378 . S
C1630 C1631 1.367 . S
C1631 C1630 1.367 . S
C1631 C1633 1.433 . S
C1632 C1628 1.350 . S
C1632 C1629 1.463 . S
C1632 N1636 1.427 . S
C1633 H1623 0.929 . S
C1633 C1631 1.433 . S
C1633 N1636 1.384 . S
C1634 H1625 0.929 . S
C1634 C1626 1.378 . S
C1634 C1629 1.350 . S
C1635 H1622 0.929 . S
C1635 C1627 1.433 . S
C1635 N1637 1.384 . S
N1636 C1632 1.427 . S
N1636 C1633 1.384 . S
N1637 C1629 1.427 . S
N1637 C1635 1.384 . S
H1638 C1644 0.930 . S
H1639 C1648 0.930 . S
H1640 C1653 0.929 . S
H1641 C1651 0.929 . S
H1642 C1646 0.929 . S
H1643 C1652 0.929 . S
C1644 H1638 0.930 . S
C1644 C1645 1.367 . S
C1644 C1652 1.378 . S
C1645 C1644 1.367 . S
C1645 C1653 1.433 . S
C1646 H1642 0.929 . S
C1646 C1648 1.378 . S
C1646 C1650 1.350 . S
C1647 C1650 1.463 . S
C1647 C1652 1.350 . S
C1647 N1655 1.427 . S
C1648 H1639 0.930 . S
C1648 C1646 1.378 . S
C1648 C1649 1.367 . S
C1649 C1648 1.367 . S
C1649 C1651 1.433 . S
C1650 C1646 1.350 . S
C1650 C1647 1.463 . S
C1650 N1654 1.427 . S
C1651 H1641 0.929 . S
C1651 C1649 1.433 . S
C1651 N1654 1.384 . S
C1652 H1643 0.929 . S
C1652 C1644 1.378 . S
C1652 C1647 1.350 . S
C1653 H1640 0.929 . S
C1653 C1645 1.433 . S
C1653 N1655 1.384 . S
N1654 C1650 1.427 . S
N1654 C1651 1.384 . S
N1655 C1647 1.427 . S
N1655 C1653 1.384 . S
H1656 C1662 0.930 . S
H1657 C1666 0.930 . S
H1658 C1671 0.929 . S
H1659 C1669 0.929 . S
H1660 C1664 0.929 . S
H1661 C1670 0.929 . S
C1662 H1656 0.930 . S
C1662 C1663 1.367 . S
C1662 C1670 1.378 . S
C1663 C1662 1.367 . S
C1663 C1671 1.433 . S
C1664 H1660 0.929 . S
C1664 C1666 1.378 . S
C1664 C1668 1.350 . S
C1665 C1668 1.463 . S
C1665 C1670 1.350 . S
C1665 N1673 1.427 . S
C1666 H1657 0.930 . S
C1666 C1664 1.378 . S
C1666 C1667 1.367 . S
C1667 C1666 1.367 . S
C1667 C1669 1.433 . S
C1668 C1664 1.350 . S
C1668 C1665 1.463 . S
C1668 N1672 1.427 . S
C1669 H1659 0.929 . S
C1669 C1667 1.433 . S
C1669 N1672 1.384 . S
C1670 H1661 0.929 . S
C1670 C1662 1.378 . S
C1670 C1665 1.350 . S
C1671 H1658 0.929 . S
C1671 C1663 1.433 . S
C1671 N1673 1.384 . S
N1672 C1668 1.427 . S
N1672 C1669 1.384 . S
N1673 C1665 1.427 . S
N1673 C1671 1.384 . S
H1674 C1680 0.930 . S
H1675 C1684 0.930 . S
H1676 C1689 0.929 . S
H1677 C1687 0.929 . S
H1678 C1682 0.929 . S
H1679 C1688 0.929 . S
C1680 H1674 0.930 . S
C1680 C1681 1.367 . S
C1680 C1688 1.378 . S
C1681 C1680 1.367 . S
C1681 C1689 1.433 . S
C1682 H1678 0.929 . S
C1682 C1684 1.378 . S
C1682 C1686 1.350 . S
C1683 C1686 1.463 . S
C1683 C1688 1.350 . S
C1683 N1691 1.427 . S
C1684 H1675 0.930 . S
C1684 C1682 1.378 . S
C1684 C1685 1.367 . S
C1685 C1684 1.367 . S
C1685 C1687 1.433 . S
C1686 C1682 1.350 . S
C1686 C1683 1.463 . S
C1686 N1690 1.427 . S
C1687 H1677 0.929 . S
C1687 C1685 1.433 . S
C1687 N1690 1.384 . S
C1688 H1679 0.929 . S
C1688 C1680 1.378 . S
C1688 C1683 1.350 . S
C1689 H1676 0.929 . S
C1689 C1681 1.433 . S
C1689 N1691 1.384 . S
N1690 C1686 1.427 . S
N1690 C1687 1.384 . S
N1691 C1683 1.427 . S
N1691 C1689 1.384 . S
H1692 C1698 0.930 . S
H1693 C1702 0.930 . S
H1694 C1707 0.929 . S
H1695 C1705 0.929 . S
H1696 C1700 0.929 . S
H1697 C1706 0.929 . S
C1698 H1692 0.930 . S
C1698 C1699 1.367 . S
C1698 C1706 1.378 . S
C1699 C1698 1.367 . S
C1699 C1707 1.433 . S
C1700 H1696 0.929 . S
C1700 C1702 1.378 . S
C1700 C1704 1.350 . S
C1701 C1704 1.463 . S
C1701 C1706 1.350 . S
C1701 N1709 1.427 . S
C1702 H1693 0.930 . S
C1702 C1700 1.378 . S
C1702 C1703 1.367 . S
C1703 C1702 1.367 . S
C1703 C1705 1.433 . S
C1704 C1700 1.350 . S
C1704 C1701 1.463 . S
C1704 N1708 1.427 . S
C1705 H1695 0.929 . S
C1705 C1703 1.433 . S
C1705 N1708 1.384 . S
C1706 H1697 0.929 . S
C1706 C1698 1.378 . S
C1706 C1701 1.350 . S
C1707 H1694 0.929 . S
C1707 C1699 1.433 . S
C1707 N1709 1.384 . S
N1708 C1704 1.427 . S
N1708 C1705 1.384 . S
N1709 C1701 1.427 . S
N1709 C1707 1.384 . S
H1710 C1716 0.930 . S
H1711 C1720 0.930 . S
H1712 C1725 0.929 . S
H1713 C1723 0.929 . S
H1714 C1718 0.929 . S
H1715 C1724 0.929 . S
C1716 H1710 0.930 . S
C1716 C1717 1.367 . S
C1716 C1724 1.378 . S
C1717 C1716 1.367 . S
C1717 C1725 1.433 . S
C1718 H1714 0.929 . S
C1718 C1720 1.378 . S
C1718 C1722 1.350 . S
C1719 C1722 1.463 . S
C1719 C1724 1.350 . S
C1719 N1727 1.427 . S
C1720 H1711 0.930 . S
C1720 C1718 1.378 . S
C1720 C1721 1.367 . S
C1721 C1720 1.367 . S
C1721 C1723 1.433 . S
C1722 C1718 1.350 . S
C1722 C1719 1.463 . S
C1722 N1726 1.427 . S
C1723 H1713 0.929 . S
C1723 C1721 1.433 . S
C1723 N1726 1.384 . S
C1724 H1715 0.929 . S
C1724 C1716 1.378 . S
C1724 C1719 1.350 . S
C1725 H1712 0.929 . S
C1725 C1717 1.433 . S
C1725 N1727 1.384 . S
N1726 C1722 1.427 . S
N1726 C1723 1.384 . S
N1727 C1719 1.427 . S
N1727 C1725 1.384 . S
H1728 C1734 0.930 . S
H1729 C1738 0.930 . S
H1730 C1743 0.929 . S
H1731 C1741 0.929 . S
H1732 C1736 0.929 . S
H1733 C1742 0.929 . S
C1734 H1728 0.930 . S
C1734 C1735 1.367 . S
C1734 C1742 1.378 . S
C1735 C1734 1.367 . S
C1735 C1743 1.433 . S
C1736 H1732 0.929 . S
C1736 C1738 1.378 . S
C1736 C1740 1.350 . S
C1737 C1740 1.463 . S
C1737 C1742 1.350 . S
C1737 N1745 1.427 . S
C1738 H1729 0.930 . S
C1738 C1736 1.378 . S
C1738 C1739 1.367 . S
C1739 C1738 1.367 . S
C1739 C1741 1.433 . S
C1740 C1736 1.350 . S
C1740 C1737 1.463 . S
C1740 N1744 1.427 . S
C1741 H1731 0.929 . S
C1741 C1739 1.433 . S
C1741 N1744 1.384 . S
C1742 H1733 0.929 . S
C1742 C1734 1.378 . S
C1742 C1737 1.350 . S
C1743 H1730 0.929 . S
C1743 C1735 1.433 . S
C1743 N1745 1.384 . S
N1744 C1740 1.427 . S
N1744 C1741 1.384 . S
N1745 C1737 1.427 . S
N1745 C1743 1.384 . S
H1746 C1752 0.930 . S
H1747 C1756 0.930 . S
H1748 C1761 0.929 . S
H1749 C1759 0.929 . S
H1750 C1754 0.929 . S
H1751 C1760 0.929 . S
C1752 H1746 0.930 . S
C1752 C1753 1.367 . S
C1752 C1760 1.378 . S
C1753 C1752 1.367 . S
C1753 C1761 1.433 . S
C1754 H1750 0.929 . S
C1754 C1756 1.378 . S
C1754 C1758 1.350 . S
C1755 C1758 1.463 . S
C1755 C1760 1.350 . S
C1755 N1763 1.427 . S
C1756 H1747 0.930 . S
C1756 C1754 1.378 . S
C1756 C1757 1.367 . S
C1757 C1756 1.367 . S
C1757 C1759 1.433 . S
C1758 C1754 1.350 . S
C1758 C1755 1.463 . S
C1758 N1762 1.427 . S
C1759 H1749 0.929 . S
C1759 C1757 1.433 . S
C1759 N1762 1.384 . S
C1760 H1751 0.929 . S
C1760 C1752 1.378 . S
C1760 C1755 1.350 . S
C1761 H1748 0.929 . S
C1761 C1753 1.433 . S
C1761 N1763 1.384 . S
N1762 C1758 1.427 . S
N1762 C1759 1.384 . S
N1763 C1755 1.427 . S
N1763 C1761 1.384 . S
H1764 C1770 0.930 . S
H1765 C1774 0.930 . S
H1766 C1779 0.929 . S
H1767 C1777 0.929 . S
H1768 C1772 0.929 . S
H1769 C1778 0.929 . S
C1770 H1764 0.930 . S
C1770 C1771 1.367 . S
C1770 C1778 1.378 . S
C1771 C1770 1.367 . S
C1771 C1779 1.433 . S
C1772 H1768 0.929 . S
C1772 C1774 1.378 . S
C1772 C1776 1.350 . S
C1773 C1776 1.463 . S
C1773 C1778 1.350 . S
C1773 N1781 1.427 . S
C1774 H1765 0.930 . S
C1774 C1772 1.378 . S
C1774 C1775 1.367 . S
C1775 C1774 1.367 . S
C1775 C1777 1.433 . S
C1776 C1772 1.350 . S
C1776 C1773 1.463 . S
C1776 N1780 1.427 . S
C1777 H1767 0.929 . S
C1777 C1775 1.433 . S
C1777 N1780 1.384 . S
C1778 H1769 0.929 . S
C1778 C1770 1.378 . S
C1778 C1773 1.350 . S
C1779 H1766 0.929 . S
C1779 C1771 1.433 . S
C1779 N1781 1.384 . S
N1780 C1776 1.427 . S
N1780 C1777 1.384 . S
N1781 C1773 1.427 . S
N1781 C1779 1.384 . S
H1782 C1788 0.930 . S
H1783 C1792 0.930 . S
H1784 C1797 0.929 . S
H1785 C1795 0.929 . S
H1786 C1790 0.929 . S
H1787 C1796 0.929 . S
C1788 H1782 0.930 . S
C1788 C1789 1.367 . S
C1788 C1796 1.378 . S
C1789 C1788 1.367 . S
C1789 C1797 1.433 . S
C1790 H1786 0.929 . S
C1790 C1792 1.378 . S
C1790 C1794 1.350 . S
C1791 C1794 1.463 . S
C1791 C1796 1.350 . S
C1791 N1799 1.427 . S
C1792 H1783 0.930 . S
C1792 C1790 1.378 . S
C1792 C1793 1.367 . S
C1793 C1792 1.367 . S
C1793 C1795 1.433 . S
C1794 C1790 1.350 . S
C1794 C1791 1.463 . S
C1794 N1798 1.427 . S
C1795 H1785 0.929 . S
C1795 C1793 1.433 . S
C1795 N1798 1.384 . S
C1796 H1787 0.929 . S
C1796 C1788 1.378 . S
C1796 C1791 1.350 . S
C1797 H1784 0.929 . S
C1797 C1789 1.433 . S
C1797 N1799 1.384 . S
N1798 C1794 1.427 . S
N1798 C1795 1.384 . S
N1799 C1791 1.427 . S
N1799 C1797 1.384 . S
H1800 C1806 0.930 . S
H1801 C1810 0.930 . S
H1802 C1815 0.929 . S
H1803 C1813 0.929 . S
H1804 C1808 0.929 . S
H1805 C1814 0.929 . S
C1806 H1800 0.930 . S
C1806 C1807 1.367 . S
C1806 C1814 1.378 . S
C1807 C1806 1.367 . S
C1807 C1815 1.433 . S
C1808 H1804 0.929 . S
C1808 C1810 1.378 . S
C1808 C1812 1.350 . S
C1809 C1812 1.463 . S
C1809 C1814 1.350 . S
C1809 N1817 1.427 . S
C1810 H1801 0.930 . S
C1810 C1808 1.378 . S
C1810 C1811 1.367 . S
C1811 C1810 1.367 . S
C1811 C1813 1.433 . S
C1812 C1808 1.350 . S
C1812 C1809 1.463 . S
C1812 N1816 1.427 . S
C1813 H1803 0.929 . S
C1813 C1811 1.433 . S
C1813 N1816 1.384 . S
C1814 H1805 0.929 . S
C1814 C1806 1.378 . S
C1814 C1809 1.350 . S
C1815 H1802 0.929 . S
C1815 C1807 1.433 . S
C1815 N1817 1.384 . S
N1816 C1812 1.427 . S
N1816 C1813 1.384 . S
N1817 C1809 1.427 . S
N1817 C1815 1.384 . S
H1818 C1824 0.930 . S
H1819 C1828 0.930 . S
H1820 C1833 0.929 . S
H1821 C1831 0.929 . S
H1822 C1826 0.929 . S
H1823 C1832 0.929 . S
C1824 H1818 0.930 . S
C1824 C1825 1.367 . S
C1824 C1832 1.378 . S
C1825 C1824 1.367 . S
C1825 C1833 1.433 . S
C1826 H1822 0.929 . S
C1826 C1828 1.378 . S
C1826 C1830 1.350 . S
C1827 C1830 1.463 . S
C1827 C1832 1.350 . S
C1827 N1835 1.427 . S
C1828 H1819 0.930 . S
C1828 C1826 1.378 . S
C1828 C1829 1.367 . S
C1829 C1828 1.367 . S
C1829 C1831 1.433 . S
C1830 C1826 1.350 . S
C1830 C1827 1.463 . S
C1830 N1834 1.427 . S
C1831 H1821 0.929 . S
C1831 C1829 1.433 . S
C1831 N1834 1.384 . S
C1832 H1823 0.929 . S
C1832 C1824 1.378 . S
C1832 C1827 1.350 . S
C1833 H1820 0.929 . S
C1833 C1825 1.433 . S
C1833 N1835 1.384 . S
N1834 C1830 1.427 . S
N1834 C1831 1.384 . S
N1835 C1827 1.427 . S
N1835 C1833 1.384 . S
H1836 C1842 0.930 . S
H1837 C1846 0.930 . S
H1838 C1851 0.929 . S
H1839 C1849 0.929 . S
H1840 C1844 0.929 . S
H1841 C1850 0.929 . S
C1842 H1836 0.930 . S
C1842 C1843 1.367 . S
C1842 C1850 1.378 . S
C1843 C1842 1.367 . S
C1843 C1851 1.433 . S
C1844 H1840 0.929 . S
C1844 C1846 1.378 . S
C1844 C1848 1.350 . S
C1845 C1848 1.463 . S
C1845 C1850 1.350 . S
C1845 N1853 1.427 . S
C1846 H1837 0.930 . S
C1846 C1844 1.378 . S
C1846 C1847 1.367 . S
C1847 C1846 1.367 . S
C1847 C1849 1.433 . S
C1848 C1844 1.350 . S
C1848 C1845 1.463 . S
C1848 N1852 1.427 . S
C1849 H1839 0.929 . S
C1849 C1847 1.433 . S
C1849 N1852 1.384 . S
C1850 H1841 0.929 . S
C1850 C1842 1.378 . S
C1850 C1845 1.350 . S
C1851 H1838 0.929 . S
C1851 C1843 1.433 . S
C1851 N1853 1.384 . S
N1852 C1848 1.427 . S
N1852 C1849 1.384 . S
N1853 C1845 1.427 . S
N1853 C1851 1.384 . S
H1854 C1860 0.930 . S
H1855 C1864 0.930 . S
H1856 C1869 0.929 . S
H1857 C1867 0.929 . S
H1858 C1862 0.929 . S
H1859 C1868 0.929 . S
C1860 H1854 0.930 . S
C1860 C1861 1.367 . S
C1860 C1868 1.378 . S
C1861 C1860 1.367 . S
C1861 C1869 1.433 . S
C1862 H1858 0.929 . S
C1862 C1864 1.378 . S
C1862 C1866 1.350 . S
C1863 C1866 1.463 . S
C1863 C1868 1.350 . S
C1863 N1871 1.427 . S
C1864 H1855 0.930 . S
C1864 C1862 1.378 . S
C1864 C1865 1.367 . S
C1865 C1864 1.367 . S
C1865 C1867 1.433 . S
C1866 C1862 1.350 . S
C1866 C1863 1.463 . S
C1866 N1870 1.427 . S
C1867 H1857 0.929 . S
C1867 C1865 1.433 . S
C1867 N1870 1.384 . S
C1868 H1859 0.929 . S
C1868 C1860 1.378 . S
C1868 C1863 1.350 . S
C1869 H1856 0.929 . S
C1869 C1861 1.433 . S
C1869 N1871 1.384 . S
N1870 C1866 1.427 . S
N1870 C1867 1.384 . S
N1871 C1863 1.427 . S
N1871 C1869 1.384 . S
H1872 C1878 0.930 . S
H1873 C1882 0.930 . S
H1874 C1887 0.929 . S
H1875 C1885 0.929 . S
H1876 C1880 0.929 . S
H1877 C1886 0.929 . S
C1878 H1872 0.930 . S
C1878 C1879 1.367 . S
C1878 C1886 1.378 . S
C1879 C1878 1.367 . S
C1879 C1887 1.433 . S
C1880 H1876 0.929 . S
C1880 C1882 1.378 . S
C1880 C1884 1.350 . S
C1881 C1884 1.463 . S
C1881 C1886 1.350 . S
C1881 N1889 1.427 . S
C1882 H1873 0.930 . S
C1882 C1880 1.378 . S
C1882 C1883 1.367 . S
C1883 C1882 1.367 . S
C1883 C1885 1.433 . S
C1884 C1880 1.350 . S
C1884 C1881 1.463 . S
C1884 N1888 1.427 . S
C1885 H1875 0.929 . S
C1885 C1883 1.433 . S
C1885 N1888 1.384 . S
C1886 H1877 0.929 . S
C1886 C1878 1.378 . S
C1886 C1881 1.350 . S
C1887 H1874 0.929 . S
C1887 C1879 1.433 . S
C1887 N1889 1.384 . S
N1888 C1884 1.427 . S
N1888 C1885 1.384 . S
N1889 C1881 1.427 . S
N1889 C1887 1.384 . S
H1890 C1896 0.930 . S
H1891 C1900 0.930 . S
H1892 C1905 0.929 . S
H1893 C1903 0.929 . S
H1894 C1898 0.929 . S
H1895 C1904 0.929 . S
C1896 H1890 0.930 . S
C1896 C1897 1.367 . S
C1896 C1904 1.378 . S
C1897 C1896 1.367 . S
C1897 C1905 1.433 . S
C1898 H1894 0.929 . S
C1898 C1900 1.378 . S
C1898 C1902 1.350 . S
C1899 C1902 1.463 . S
C1899 C1904 1.350 . S
C1899 N1907 1.427 . S
C1900 H1891 0.930 . S
C1900 C1898 1.378 . S
C1900 C1901 1.367 . S
C1901 C1900 1.367 . S
C1901 C1903 1.433 . S
C1902 C1898 1.350 . S
C1902 C1899 1.463 . S
C1902 N1906 1.427 . S
C1903 H1893 0.929 . S
C1903 C1901 1.433 . S
C1903 N1906 1.384 . S
C1904 H1895 0.929 . S
C1904 C1896 1.378 . S
C1904 C1899 1.350 . S
C1905 H1892 0.929 . S
C1905 C1897 1.433 . S
C1905 N1907 1.384 . S
N1906 C1902 1.427 . S
N1906 C1903 1.384 . S
N1907 C1899 1.427 . S
N1907 C1905 1.384 . S
H1908 C1914 0.930 . S
H1909 C1918 0.930 . S
H1910 C1923 0.929 . S
H1911 C1921 0.929 . S
H1912 C1916 0.929 . S
H1913 C1922 0.929 . S
C1914 H1908 0.930 . S
C1914 C1915 1.367 . S
C1914 C1922 1.378 . S
C1915 C1914 1.367 . S
C1915 C1923 1.433 . S
C1916 H1912 0.929 . S
C1916 C1918 1.378 . S
C1916 C1920 1.350 . S
C1917 C1920 1.463 . S
C1917 C1922 1.350 . S
C1917 N1925 1.427 . S
C1918 H1909 0.930 . S
C1918 C1916 1.378 . S
C1918 C1919 1.367 . S
C1919 C1918 1.367 . S
C1919 C1921 1.433 . S
C1920 C1916 1.350 . S
C1920 C1917 1.463 . S
C1920 N1924 1.427 . S
C1921 H1911 0.929 . S
C1921 C1919 1.433 . S
C1921 N1924 1.384 . S
C1922 H1913 0.929 . S
C1922 C1914 1.378 . S
C1922 C1917 1.350 . S
C1923 H1910 0.929 . S
C1923 C1915 1.433 . S
C1923 N1925 1.384 . S
N1924 C1920 1.427 . S
N1924 C1921 1.384 . S
N1925 C1917 1.427 . S
N1925 C1923 1.384 . S
H1926 C1932 0.930 . S
H1927 C1936 0.930 . S
H1928 C1941 0.929 . S
H1929 C1939 0.929 . S
H1930 C1934 0.929 . S
H1931 C1940 0.929 . S
C1932 H1926 0.930 . S
C1932 C1933 1.367 . S
C1932 C1940 1.378 . S
C1933 C1932 1.367 . S
C1933 C1941 1.433 . S
C1934 H1930 0.929 . S
C1934 C1936 1.378 . S
C1934 C1938 1.350 . S
C1935 C1938 1.463 . S
C1935 C1940 1.350 . S
C1935 N1943 1.427 . S
C1936 H1927 0.930 . S
C1936 C1934 1.378 . S
C1936 C1937 1.367 . S
C1937 C1936 1.367 . S
C1937 C1939 1.433 . S
C1938 C1934 1.350 . S
C1938 C1935 1.463 . S
C1938 N1942 1.427 . S
C1939 H1929 0.929 . S
C1939 C1937 1.433 . S
C1939 N1942 1.384 . S
C1940 H1931 0.929 . S
C1940 C1932 1.378 . S
C1940 C1935 1.350 . S
C1941 H1928 0.929 . S
C1941 C1933 1.433 . S
C1941 N1943 1.384 . S
N1942 C1938 1.427 . S
N1942 C1939 1.384 . S
N1943 C1935 1.427 . S
N1943 C1941 1.384 . S
H1944 C1950 0.930 . S
H1945 C1954 0.930 . S
H1946 C1959 0.929 . S
H1947 C1957 0.929 . S
H1948 C1952 0.929 . S
H1949 C1958 0.929 . S
C1950 H1944 0.930 . S
C1950 C1951 1.367 . S
C1950 C1958 1.378 . S
C1951 C1950 1.367 . S
C1951 C1959 1.433 . S
C1952 H1948 0.929 . S
C1952 C1954 1.378 . S
C1952 C1956 1.350 . S
C1953 C1956 1.463 . S
C1953 C1958 1.350 . S
C1953 N1961 1.427 . S
C1954 H1945 0.930 . S
C1954 C1952 1.378 . S
C1954 C1955 1.367 . S
C1955 C1954 1.367 . S
C1955 C1957 1.433 . S
C1956 C1952 1.350 . S
C1956 C1953 1.463 . S
C1956 N1960 1.427 . S
C1957 H1947 0.929 . S
C1957 C1955 1.433 . S
C1957 N1960 1.384 . S
C1958 H1949 0.929 . S
C1958 C1950 1.378 . S
C1958 C1953 1.350 . S
C1959 H1946 0.929 . S
C1959 C1951 1.433 . S
C1959 N1961 1.384 . S
N1960 C1956 1.427 . S
N1960 C1957 1.384 . S
N1961 C1953 1.427 . S
N1961 C1959 1.384 . S
H1962 C1968 0.930 . S
H1963 C1972 0.930 . S
H1964 C1977 0.929 . S
H1965 C1975 0.929 . S
H1966 C1970 0.929 . S
H1967 C1976 0.929 . S
C1968 H1962 0.930 . S
C1968 C1969 1.367 . S
C1968 C1976 1.378 . S
C1969 C1968 1.367 . S
C1969 C1977 1.433 . S
C1970 H1966 0.929 . S
C1970 C1972 1.378 . S
C1970 C1974 1.350 . S
C1971 C1974 1.463 . S
C1971 C1976 1.350 . S
C1971 N1979 1.427 . S
C1972 H1963 0.930 . S
C1972 C1970 1.378 . S
C1972 C1973 1.367 . S
C1973 C1972 1.367 . S
C1973 C1975 1.433 . S
C1974 C1970 1.350 . S
C1974 C1971 1.463 . S
C1974 N1978 1.427 . S
C1975 H1965 0.929 . S
C1975 C1973 1.433 . S
C1975 N1978 1.384 . S
C1976 H1967 0.929 . S
C1976 C1968 1.378 . S
C1976 C1971 1.350 . S
C1977 H1964 0.929 . S
C1977 C1969 1.433 . S
C1977 N1979 1.384 . S
N1978 C1974 1.427 . S
N1978 C1975 1.384 . S
N1979 C1971 1.427 . S
N1979 C1977 1.384 . S
H1980 C1986 0.930 . S
H1981 C1990 0.930 . S
H1982 C1995 0.929 . S
H1983 C1993 0.929 . S
H1984 C1988 0.929 . S
H1985 C1994 0.929 . S
C1986 H1980 0.930 . S
C1986 C1987 1.367 . S
C1986 C1994 1.378 . S
C1987 C1986 1.367 . S
C1987 C1995 1.433 . S
C1988 H1984 0.929 . S
C1988 C1990 1.378 . S
C1988 C1992 1.350 . S
C1989 C1992 1.463 . S
C1989 C1994 1.350 . S
C1989 N1997 1.427 . S
C1990 H1981 0.930 . S
C1990 C1988 1.378 . S
C1990 C1991 1.367 . S
C1991 C1990 1.367 . S
C1991 C1993 1.433 . S
C1992 C1988 1.350 . S
C1992 C1989 1.463 . S
C1992 N1996 1.427 . S
C1993 H1983 0.929 . S
C1993 C1991 1.433 . S
C1993 N1996 1.384 . S
C1994 H1985 0.929 . S
C1994 C1986 1.378 . S
C1994 C1989 1.350 . S
C1995 H1982 0.929 . S
C1995 C1987 1.433 . S
C1995 N1997 1.384 . S
N1996 C1992 1.427 . S
N1996 C1993 1.384 . S
N1997 C1989 1.427 . S
N1997 C1995 1.384 . S
H1998 C2004 0.930 . S
H1999 C2008 0.930 . S
H2000 C2013 0.929 . S
H2001 C2011 0.929 . S
H2002 C2006 0.929 . S
H2003 C2012 0.929 . S
C2004 H1998 0.930 . S
C2004 C2005 1.367 . S
C2004 C2012 1.378 . S
C2005 C2004 1.367 . S
C2005 C2013 1.433 . S
C2006 H2002 0.929 . S
C2006 C2008 1.378 . S
C2006 C2010 1.350 . S
C2007 C2010 1.463 . S
C2007 C2012 1.350 . S
C2007 N2015 1.427 . S
C2008 H1999 0.930 . S
C2008 C2006 1.378 . S
C2008 C2009 1.367 . S
C2009 C2008 1.367 . S
C2009 C2011 1.433 . S
C2010 C2006 1.350 . S
C2010 C2007 1.463 . S
C2010 N2014 1.427 . S
C2011 H2001 0.929 . S
C2011 C2009 1.433 . S
C2011 N2014 1.384 . S
C2012 H2003 0.929 . S
C2012 C2004 1.378 . S
C2012 C2007 1.350 . S
C2013 H2000 0.929 . S
C2013 C2005 1.433 . S
C2013 N2015 1.384 . S
N2014 C2010 1.427 . S
N2014 C2011 1.384 . S
N2015 C2007 1.427 . S
N2015 C2013 1.384 . S
H2016 C2022 0.930 . S
H2017 C2026 0.930 . S
H2018 C2031 0.929 . S
H2019 C2029 0.929 . S
H2020 C2024 0.929 . S
H2021 C2030 0.929 . S
C2022 H2016 0.930 . S
C2022 C2023 1.367 . S
C2022 C2030 1.378 . S
C2023 C2022 1.367 . S
C2023 C2031 1.433 . S
C2024 H2020 0.929 . S
C2024 C2026 1.378 . S
C2024 C2028 1.350 . S
C2025 C2028 1.463 . S
C2025 C2030 1.350 . S
C2025 N2033 1.427 . S
C2026 H2017 0.930 . S
C2026 C2024 1.378 . S
C2026 C2027 1.367 . S
C2027 C2026 1.367 . S
C2027 C2029 1.433 . S
C2028 C2024 1.350 . S
C2028 C2025 1.463 . S
C2028 N2032 1.427 . S
C2029 H2019 0.929 . S
C2029 C2027 1.433 . S
C2029 N2032 1.384 . S
C2030 H2021 0.929 . S
C2030 C2022 1.378 . S
C2030 C2025 1.350 . S
C2031 H2018 0.929 . S
C2031 C2023 1.433 . S
C2031 N2033 1.384 . S
N2032 C2028 1.427 . S
N2032 C2029 1.384 . S
N2033 C2025 1.427 . S
N2033 C2031 1.384 . S
H2034 C2040 0.930 . S
H2035 C2044 0.930 . S
H2036 C2049 0.929 . S
H2037 C2047 0.929 . S
H2038 C2042 0.929 . S
H2039 C2048 0.929 . S
C2040 H2034 0.930 . S
C2040 C2041 1.367 . S
C2040 C2048 1.378 . S
C2041 C2040 1.367 . S
C2041 C2049 1.433 . S
C2042 H2038 0.929 . S
C2042 C2044 1.378 . S
C2042 C2046 1.350 . S
C2043 C2046 1.463 . S
C2043 C2048 1.350 . S
C2043 N2051 1.427 . S
C2044 H2035 0.930 . S
C2044 C2042 1.378 . S
C2044 C2045 1.367 . S
C2045 C2044 1.367 . S
C2045 C2047 1.433 . S
C2046 C2042 1.350 . S
C2046 C2043 1.463 . S
C2046 N2050 1.427 . S
C2047 H2037 0.929 . S
C2047 C2045 1.433 . S
C2047 N2050 1.384 . S
C2048 H2039 0.929 . S
C2048 C2040 1.378 . S
C2048 C2043 1.350 . S
C2049 H2036 0.929 . S
C2049 C2041 1.433 . S
C2049 N2051 1.384 . S
N2050 C2046 1.427 . S
N2050 C2047 1.384 . S
N2051 C2043 1.427 . S
N2051 C2049 1.384 . S
H2052 C2058 0.930 . S
H2053 C2062 0.930 . S
H2054 C2067 0.929 . S
H2055 C2065 0.929 . S
H2056 C2060 0.929 . S
H2057 C2066 0.929 . S
C2058 H2052 0.930 . S
C2058 C2059 1.367 . S
C2058 C2066 1.378 . S
C2059 C2058 1.367 . S
C2059 C2067 1.433 . S
C2060 H2056 0.929 . S
C2060 C2062 1.378 . S
C2060 C2064 1.350 . S
C2061 C2064 1.463 . S
C2061 C2066 1.350 . S
C2061 N2069 1.427 . S
C2062 H2053 0.930 . S
C2062 C2060 1.378 . S
C2062 C2063 1.367 . S
C2063 C2062 1.367 . S
C2063 C2065 1.433 . S
C2064 C2060 1.350 . S
C2064 C2061 1.463 . S
C2064 N2068 1.427 . S
C2065 H2055 0.929 . S
C2065 C2063 1.433 . S
C2065 N2068 1.384 . S
C2066 H2057 0.929 . S
C2066 C2058 1.378 . S
C2066 C2061 1.350 . S
C2067 H2054 0.929 . S
C2067 C2059 1.433 . S
C2067 N2069 1.384 . S
N2068 C2064 1.427 . S
N2068 C2065 1.384 . S
N2069 C2061 1.427 . S
N2069 C2067 1.384 . S
H2070 C2076 0.930 . S
H2071 C2080 0.930 . S
H2072 C2085 0.929 . S
H2073 C2083 0.929 . S
H2074 C2078 0.929 . S
H2075 C2084 0.929 . S
C2076 H2070 0.930 . S
C2076 C2077 1.367 . S
C2076 C2084 1.378 . S
C2077 C2076 1.367 . S
C2077 C2085 1.433 . S
C2078 H2074 0.929 . S
C2078 C2080 1.378 . S
C2078 C2082 1.350 . S
C2079 C2082 1.463 . S
C2079 C2084 1.350 . S
C2079 N2087 1.427 . S
C2080 H2071 0.930 . S
C2080 C2078 1.378 . S
C2080 C2081 1.367 . S
C2081 C2080 1.367 . S
C2081 C2083 1.433 . S
C2082 C2078 1.350 . S
C2082 C2079 1.463 . S
C2082 N2086 1.427 . S
C2083 H2073 0.929 . S
C2083 C2081 1.433 . S
C2083 N2086 1.384 . S
C2084 H2075 0.929 . S
C2084 C2076 1.378 . S
C2084 C2079 1.350 . S
C2085 H2072 0.929 . S
C2085 C2077 1.433 . S
C2085 N2087 1.384 . S
N2086 C2082 1.427 . S
N2086 C2083 1.384 . S
N2087 C2079 1.427 . S
N2087 C2085 1.384 . S
H2088 C2094 0.930 . S
H2089 C2098 0.930 . S
H2090 C2103 0.929 . S
H2091 C2101 0.929 . S
H2092 C2096 0.929 . S
H2093 C2102 0.929 . S
C2094 H2088 0.930 . S
C2094 C2095 1.367 . S
C2094 C2102 1.378 . S
C2095 C2094 1.367 . S
C2095 C2103 1.433 . S
C2096 H2092 0.929 . S
C2096 C2098 1.378 . S
C2096 C2100 1.350 . S
C2097 C2100 1.463 . S
C2097 C2102 1.350 . S
C2097 N2105 1.427 . S
C2098 H2089 0.930 . S
C2098 C2096 1.378 . S
C2098 C2099 1.367 . S
C2099 C2098 1.367 . S
C2099 C2101 1.433 . S
C2100 C2096 1.350 . S
C2100 C2097 1.463 . S
C2100 N2104 1.427 . S
C2101 H2091 0.929 . S
C2101 C2099 1.433 . S
C2101 N2104 1.384 . S
C2102 H2093 0.929 . S
C2102 C2094 1.378 . S
C2102 C2097 1.350 . S
C2103 H2090 0.929 . S
C2103 C2095 1.433 . S
C2103 N2105 1.384 . S
N2104 C2100 1.427 . S
N2104 C2101 1.384 . S
N2105 C2097 1.427 . S
N2105 C2103 1.384 . S
H2106 C2112 0.930 . S
H2107 C2116 0.930 . S
H2108 C2121 0.929 . S
H2109 C2119 0.929 . S
H2110 C2114 0.929 . S
H2111 C2120 0.929 . S
C2112 H2106 0.930 . S
C2112 C2113 1.367 . S
C2112 C2120 1.378 . S
C2113 C2112 1.367 . S
C2113 C2121 1.433 . S
C2114 H2110 0.929 . S
C2114 C2116 1.378 . S
C2114 C2118 1.350 . S
C2115 C2118 1.463 . S
C2115 C2120 1.350 . S
C2115 N2123 1.427 . S
C2116 H2107 0.930 . S
C2116 C2114 1.378 . S
C2116 C2117 1.367 . S
C2117 C2116 1.367 . S
C2117 C2119 1.433 . S
C2118 C2114 1.350 . S
C2118 C2115 1.463 . S
C2118 N2122 1.427 . S
C2119 H2109 0.929 . S
C2119 C2117 1.433 . S
C2119 N2122 1.384 . S
C2120 H2111 0.929 . S
C2120 C2112 1.378 . S
C2120 C2115 1.350 . S
C2121 H2108 0.929 . S
C2121 C2113 1.433 . S
C2121 N2123 1.384 . S
N2122 C2118 1.427 . S
N2122 C2119 1.384 . S
N2123 C2115 1.427 . S
N2123 C2121 1.384 . S
H2124 C2130 0.930 . S
H2125 C2134 0.930 . S
H2126 C2139 0.929 . S
H2127 C2137 0.929 . S
H2128 C2132 0.929 . S
H2129 C2138 0.929 . S
C2130 H2124 0.930 . S
C2130 C2131 1.367 . S
C2130 C2138 1.378 . S
C2131 C2130 1.367 . S
C2131 C2139 1.433 . S
C2132 H2128 0.929 . S
C2132 C2134 1.378 . S
C2132 C2136 1.350 . S
C2133 C2136 1.463 . S
C2133 C2138 1.350 . S
C2133 N2141 1.427 . S
C2134 H2125 0.930 . S
C2134 C2132 1.378 . S
C2134 C2135 1.367 . S
C2135 C2134 1.367 . S
C2135 C2137 1.433 . S
C2136 C2132 1.350 . S
C2136 C2133 1.463 . S
C2136 N2140 1.427 . S
C2137 H2127 0.929 . S
C2137 C2135 1.433 . S
C2137 N2140 1.384 . S
C2138 H2129 0.929 . S
C2138 C2130 1.378 . S
C2138 C2133 1.350 . S
C2139 H2126 0.929 . S
C2139 C2131 1.433 . S
C2139 N2141 1.384 . S
N2140 C2136 1.427 . S
N2140 C2137 1.384 . S
N2141 C2133 1.427 . S
N2141 C2139 1.384 . S
H2142 C2148 0.930 . S
H2143 C2152 0.930 . S
H2144 C2157 0.929 . S
H2145 C2155 0.929 . S
H2146 C2150 0.929 . S
H2147 C2156 0.929 . S
C2148 H2142 0.930 . S
C2148 C2149 1.367 . S
C2148 C2156 1.378 . S
C2149 C2148 1.367 . S
C2149 C2157 1.433 . S
C2150 H2146 0.929 . S
C2150 C2152 1.378 . S
C2150 C2154 1.350 . S
C2151 C2154 1.463 . S
C2151 C2156 1.350 . S
C2151 N2159 1.427 . S
C2152 H2143 0.930 . S
C2152 C2150 1.378 . S
C2152 C2153 1.367 . S
C2153 C2152 1.367 . S
C2153 C2155 1.433 . S
C2154 C2150 1.350 . S
C2154 C2151 1.463 . S
C2154 N2158 1.427 . S
C2155 H2145 0.929 . S
C2155 C2153 1.433 . S
C2155 N2158 1.384 . S
C2156 H2147 0.929 . S
C2156 C2148 1.378 . S
C2156 C2151 1.350 . S
C2157 H2144 0.929 . S
C2157 C2149 1.433 . S
C2157 N2159 1.384 . S
N2158 C2154 1.427 . S
N2158 C2155 1.384 . S
N2159 C2151 1.427 . S
N2159 C2157 1.384 . S
H2160 C2166 0.930 . S
H2161 C2170 0.930 . S
H2162 C2175 0.929 . S
H2163 C2173 0.929 . S
H2164 C2168 0.929 . S
H2165 C2174 0.929 . S
C2166 H2160 0.930 . S
C2166 C2167 1.367 . S
C2166 C2174 1.378 . S
C2167 C2166 1.367 . S
C2167 C2175 1.433 . S
C2168 H2164 0.929 . S
C2168 C2170 1.378 . S
C2168 C2172 1.350 . S
C2169 C2172 1.463 . S
C2169 C2174 1.350 . S
C2169 N2177 1.427 . S
C2170 H2161 0.930 . S
C2170 C2168 1.378 . S
C2170 C2171 1.367 . S
C2171 C2170 1.367 . S
C2171 C2173 1.433 . S
C2172 C2168 1.350 . S
C2172 C2169 1.463 . S
C2172 N2176 1.427 . S
C2173 H2163 0.929 . S
C2173 C2171 1.433 . S
C2173 N2176 1.384 . S
C2174 H2165 0.929 . S
C2174 C2166 1.378 . S
C2174 C2169 1.350 . S
C2175 H2162 0.929 . S
C2175 C2167 1.433 . S
C2175 N2177 1.384 . S
N2176 C2172 1.427 . S
N2176 C2173 1.384 . S
N2177 C2169 1.427 . S
N2177 C2175 1.384 . S
H2178 C2184 0.930 . S
H2179 C2188 0.930 . S
H2180 C2193 0.929 . S
H2181 C2191 0.929 . S
H2182 C2186 0.929 . S
H2183 C2192 0.929 . S
C2184 H2178 0.930 . S
C2184 C2185 1.367 . S
C2184 C2192 1.378 . S
C2185 C2184 1.367 . S
C2185 C2193 1.433 . S
C2186 H2182 0.929 . S
C2186 C2188 1.378 . S
C2186 C2190 1.350 . S
C2187 C2190 1.463 . S
C2187 C2192 1.350 . S
C2187 N2195 1.427 . S
C2188 H2179 0.930 . S
C2188 C2186 1.378 . S
C2188 C2189 1.367 . S
C2189 C2188 1.367 . S
C2189 C2191 1.433 . S
C2190 C2186 1.350 . S
C2190 C2187 1.463 . S
C2190 N2194 1.427 . S
C2191 H2181 0.929 . S
C2191 C2189 1.433 . S
C2191 N2194 1.384 . S
C2192 H2183 0.929 . S
C2192 C2184 1.378 . S
C2192 C2187 1.350 . S
C2193 H2180 0.929 . S
C2193 C2185 1.433 . S
C2193 N2195 1.384 . S
N2194 C2190 1.427 . S
N2194 C2191 1.384 . S
N2195 C2187 1.427 . S
N2195 C2193 1.384 . S
H2196 C2202 0.930 . S
H2197 C2206 0.930 . S
H2198 C2211 0.929 . S
H2199 C2209 0.929 . S
H2200 C2204 0.929 . S
H2201 C2210 0.929 . S
C2202 H2196 0.930 . S
C2202 C2203 1.367 . S
C2202 C2210 1.378 . S
C2203 C2202 1.367 . S
C2203 C2211 1.433 . S
C2204 H2200 0.929 . S
C2204 C2206 1.378 . S
C2204 C2208 1.350 . S
C2205 C2208 1.463 . S
C2205 C2210 1.350 . S
C2205 N2213 1.427 . S
C2206 H2197 0.930 . S
C2206 C2204 1.378 . S
C2206 C2207 1.367 . S
C2207 C2206 1.367 . S
C2207 C2209 1.433 . S
C2208 C2204 1.350 . S
C2208 C2205 1.463 . S
C2208 N2212 1.427 . S
C2209 H2199 0.929 . S
C2209 C2207 1.433 . S
C2209 N2212 1.384 . S
C2210 H2201 0.929 . S
C2210 C2202 1.378 . S
C2210 C2205 1.350 . S
C2211 H2198 0.929 . S
C2211 C2203 1.433 . S
C2211 N2213 1.384 . S
N2212 C2208 1.427 . S
N2212 C2209 1.384 . S
N2213 C2205 1.427 . S
N2213 C2211 1.384 . S
H2214 C2220 0.930 . S
H2215 C2224 0.930 . S
H2216 C2229 0.929 . S
H2217 C2227 0.929 . S
H2218 C2222 0.929 . S
H2219 C2228 0.929 . S
C2220 H2214 0.930 . S
C2220 C2221 1.367 . S
C2220 C2228 1.378 . S
C2221 C2220 1.367 . S
C2221 C2229 1.433 . S
C2222 H2218 0.929 . S
C2222 C2224 1.378 . S
C2222 C2226 1.350 . S
C2223 C2226 1.463 . S
C2223 C2228 1.350 . S
C2223 N2231 1.427 . S
C2224 H2215 0.930 . S
C2224 C2222 1.378 . S
C2224 C2225 1.367 . S
C2225 C2224 1.367 . S
C2225 C2227 1.433 . S
C2226 C2222 1.350 . S
C2226 C2223 1.463 . S
C2226 N2230 1.427 . S
C2227 H2217 0.929 . S
C2227 C2225 1.433 . S
C2227 N2230 1.384 . S
C2228 H2219 0.929 . S
C2228 C2220 1.378 . S
C2228 C2223 1.350 . S
C2229 H2216 0.929 . S
C2229 C2221 1.433 . S
C2229 N2231 1.384 . S
N2230 C2226 1.427 . S
N2230 C2227 1.384 . S
N2231 C2223 1.427 . S
N2231 C2229 1.384 . S
H2232 C2238 0.930 . S
H2233 C2242 0.930 . S
H2234 C2247 0.929 . S
H2235 C2245 0.929 . S
H2236 C2240 0.929 . S
H2237 C2246 0.929 . S
C2238 H2232 0.930 . S
C2238 C2239 1.367 . S
C2238 C2246 1.378 . S
C2239 C2238 1.367 . S
C2239 C2247 1.433 . S
C2240 H2236 0.929 . S
C2240 C2242 1.378 . S
C2240 C2244 1.350 . S
C2241 C2244 1.463 . S
C2241 C2246 1.350 . S
C2241 N2249 1.427 . S
C2242 H2233 0.930 . S
C2242 C2240 1.378 . S
C2242 C2243 1.367 . S
C2243 C2242 1.367 . S
C2243 C2245 1.433 . S
C2244 C2240 1.350 . S
C2244 C2241 1.463 . S
C2244 N2248 1.427 . S
C2245 H2235 0.929 . S
C2245 C2243 1.433 . S
C2245 N2248 1.384 . S
C2246 H2237 0.929 . S
C2246 C2238 1.378 . S
C2246 C2241 1.350 . S
C2247 H2234 0.929 . S
C2247 C2239 1.433 . S
C2247 N2249 1.384 . S
N2248 C2244 1.427 . S
N2248 C2245 1.384 . S
N2249 C2241 1.427 . S
N2249 C2247 1.384 . S
H2250 C2256 0.930 . S
H2251 C2260 0.930 . S
H2252 C2265 0.929 . S
H2253 C2263 0.929 . S
H2254 C2258 0.929 . S
H2255 C2264 0.929 . S
C2256 H2250 0.930 . S
C2256 C2257 1.367 . S
C2256 C2264 1.378 . S
C2257 C2256 1.367 . S
C2257 C2265 1.433 . S
C2258 H2254 0.929 . S
C2258 C2260 1.378 . S
C2258 C2262 1.350 . S
C2259 C2262 1.463 . S
C2259 C2264 1.350 . S
C2259 N2267 1.427 . S
C2260 H2251 0.930 . S
C2260 C2258 1.378 . S
C2260 C2261 1.367 . S
C2261 C2260 1.367 . S
C2261 C2263 1.433 . S
C2262 C2258 1.350 . S
C2262 C2259 1.463 . S
C2262 N2266 1.427 . S
C2263 H2253 0.929 . S
C2263 C2261 1.433 . S
C2263 N2266 1.384 . S
C2264 H2255 0.929 . S
C2264 C2256 1.378 . S
C2264 C2259 1.350 . S
C2265 H2252 0.929 . S
C2265 C2257 1.433 . S
C2265 N2267 1.384 . S
N2266 C2262 1.427 . S
N2266 C2263 1.384 . S
N2267 C2259 1.427 . S
N2267 C2265 1.384 . S
H2268 C2274 0.930 . S
H2269 C2278 0.930 . S
H2270 C2283 0.929 . S
H2271 C2281 0.929 . S
H2272 C2276 0.929 . S
H2273 C2282 0.929 . S
C2274 H2268 0.930 . S
C2274 C2275 1.367 . S
C2274 C2282 1.378 . S
C2275 C2274 1.367 . S
C2275 C2283 1.433 . S
C2276 H2272 0.929 . S
C2276 C2278 1.378 . S
C2276 C2280 1.350 . S
C2277 C2280 1.463 . S
C2277 C2282 1.350 . S
C2277 N2285 1.427 . S
C2278 H2269 0.930 . S
C2278 C2276 1.378 . S
C2278 C2279 1.367 . S
C2279 C2278 1.367 . S
C2279 C2281 1.433 . S
C2280 C2276 1.350 . S
C2280 C2277 1.463 . S
C2280 N2284 1.427 . S
C2281 H2271 0.929 . S
C2281 C2279 1.433 . S
C2281 N2284 1.384 . S
C2282 H2273 0.929 . S
C2282 C2274 1.378 . S
C2282 C2277 1.350 . S
C2283 H2270 0.929 . S
C2283 C2275 1.433 . S
C2283 N2285 1.384 . S
N2284 C2280 1.427 . S
N2284 C2281 1.384 . S
N2285 C2277 1.427 . S
N2285 C2283 1.384 . S
H2286 C2292 0.930 . S
H2287 C2296 0.930 . S
H2288 C2301 0.929 . S
H2289 C2299 0.929 . S
H2290 C2294 0.929 . S
H2291 C2300 0.929 . S
C2292 H2286 0.930 . S
C2292 C2293 1.367 . S
C2292 C2300 1.378 . S
C2293 C2292 1.367 . S
C2293 C2301 1.433 . S
C2294 H2290 0.929 . S
C2294 C2296 1.378 . S
C2294 C2298 1.350 . S
C2295 C2298 1.463 . S
C2295 C2300 1.350 . S
C2295 N2303 1.427 . S
C2296 H2287 0.930 . S
C2296 C2294 1.378 . S
C2296 C2297 1.367 . S
C2297 C2296 1.367 . S
C2297 C2299 1.433 . S
C2298 C2294 1.350 . S
C2298 C2295 1.463 . S
C2298 N2302 1.427 . S
C2299 H2289 0.929 . S
C2299 C2297 1.433 . S
C2299 N2302 1.384 . S
C2300 H2291 0.929 . S
C2300 C2292 1.378 . S
C2300 C2295 1.350 . S
C2301 H2288 0.929 . S
C2301 C2293 1.433 . S
C2301 N2303 1.384 . S
N2302 C2298 1.427 . S
N2302 C2299 1.384 . S
N2303 C2295 1.427 . S
N2303 C2301 1.384 . S
H2304 C2310 0.930 . S
H2305 C2314 0.930 . S
H2306 C2319 0.929 . S
H2307 C2317 0.929 . S
H2308 C2312 0.929 . S
H2309 C2318 0.929 . S
C2310 H2304 0.930 . S
C2310 C2311 1.367 . S
C2310 C2318 1.378 . S
C2311 C2310 1.367 . S
C2311 C2319 1.433 . S
C2312 H2308 0.929 . S
C2312 C2314 1.378 . S
C2312 C2316 1.350 . S
C2313 C2316 1.463 . S
C2313 C2318 1.350 . S
C2313 N2321 1.427 . S
C2314 H2305 0.930 . S
C2314 C2312 1.378 . S
C2314 C2315 1.367 . S
C2315 C2314 1.367 . S
C2315 C2317 1.433 . S
C2316 C2312 1.350 . S
C2316 C2313 1.463 . S
C2316 N2320 1.427 . S
C2317 H2307 0.929 . S
C2317 C2315 1.433 . S
C2317 N2320 1.384 . S
C2318 H2309 0.929 . S
C2318 C2310 1.378 . S
C2318 C2313 1.350 . S
C2319 H2306 0.929 . S
C2319 C2311 1.433 . S
C2319 N2321 1.384 . S
N2320 C2316 1.427 . S
N2320 C2317 1.384 . S
N2321 C2313 1.427 . S
N2321 C2319 1.384 . S
H2322 C2328 0.930 . S
H2323 C2332 0.930 . S
H2324 C2337 0.929 . S
H2325 C2335 0.929 . S
H2326 C2330 0.929 . S
H2327 C2336 0.929 . S
C2328 H2322 0.930 . S
C2328 C2329 1.367 . S
C2328 C2336 1.378 . S
C2329 C2328 1.367 . S
C2329 C2337 1.433 . S
C2330 H2326 0.929 . S
C2330 C2332 1.378 . S
C2330 C2334 1.350 . S
C2331 C2334 1.463 . S
C2331 C2336 1.350 . S
C2331 N2339 1.427 . S
C2332 H2323 0.930 . S
C2332 C2330 1.378 . S
C2332 C2333 1.367 . S
C2333 C2332 1.367 . S
C2333 C2335 1.433 . S
C2334 C2330 1.350 . S
C2334 C2331 1.463 . S
C2334 N2338 1.427 . S
C2335 H2325 0.929 . S
C2335 C2333 1.433 . S
C2335 N2338 1.384 . S
C2336 H2327 0.929 . S
C2336 C2328 1.378 . S
C2336 C2331 1.350 . S
C2337 H2324 0.929 . S
C2337 C2329 1.433 . S
C2337 N2339 1.384 . S
N2338 C2334 1.427 . S
N2338 C2335 1.384 . S
N2339 C2331 1.427 . S
N2339 C2337 1.384 . S
H2340 C2346 0.930 . S
H2341 C2350 0.930 . S
H2342 C2355 0.929 . S
H2343 C2353 0.929 . S
H2344 C2348 0.929 . S
H2345 C2354 0.929 . S
C2346 H2340 0.930 . S
C2346 C2347 1.367 . S
C2346 C2354 1.378 . S
C2347 C2346 1.367 . S
C2347 C2355 1.433 . S
C2348 H2344 0.929 . S
C2348 C2350 1.378 . S
C2348 C2352 1.350 . S
C2349 C2352 1.463 . S
C2349 C2354 1.350 . S
C2349 N2357 1.427 . S
C2350 H2341 0.930 . S
C2350 C2348 1.378 . S
C2350 C2351 1.367 . S
C2351 C2350 1.367 . S
C2351 C2353 1.433 . S
C2352 C2348 1.350 . S
C2352 C2349 1.463 . S
C2352 N2356 1.427 . S
C2353 H2343 0.929 . S
C2353 C2351 1.433 . S
C2353 N2356 1.384 . S
C2354 H2345 0.929 . S
C2354 C2346 1.378 . S
C2354 C2349 1.350 . S
C2355 H2342 0.929 . S
C2355 C2347 1.433 . S
C2355 N2357 1.384 . S
N2356 C2352 1.427 . S
N2356 C2353 1.384 . S
N2357 C2349 1.427 . S
N2357 C2355 1.384 . S
H2358 C2364 0.930 . S
H2359 C2368 0.930 . S
H2360 C2373 0.929 . S
H2361 C2371 0.929 . S
H2362 C2366 0.929 . S
H2363 C2372 0.929 . S
C2364 H2358 0.930 . S
C2364 C2365 1.367 . S
C2364 C2372 1.378 . S
C2365 C2364 1.367 . S
C2365 C2373 1.433 . S
C2366 H2362 0.929 . S
C2366 C2368 1.378 . S
C2366 C2370 1.350 . S
C2367 C2370 1.463 . S
C2367 C2372 1.350 . S
C2367 N2375 1.427 . S
C2368 H2359 0.930 . S
C2368 C2366 1.378 . S
C2368 C2369 1.367 . S
C2369 C2368 1.367 . S
C2369 C2371 1.433 . S
C2370 C2366 1.350 . S
C2370 C2367 1.463 . S
C2370 N2374 1.427 . S
C2371 H2361 0.929 . S
C2371 C2369 1.433 . S
C2371 N2374 1.384 . S
C2372 H2363 0.929 . S
C2372 C2364 1.378 . S
C2372 C2367 1.350 . S
C2373 H2360 0.929 . S
C2373 C2365 1.433 . S
C2373 N2375 1.384 . S
N2374 C2370 1.427 . S
N2374 C2371 1.384 . S
N2375 C2367 1.427 . S
N2375 C2373 1.384 . S
H2376 C2382 0.930 . S
H2377 C2386 0.930 . S
H2378 C2391 0.929 . S
H2379 C2389 0.929 . S
H2380 C2384 0.929 . S
H2381 C2390 0.929 . S
C2382 H2376 0.930 . S
C2382 C2383 1.367 . S
C2382 C2390 1.378 . S
C2383 C2382 1.367 . S
C2383 C2391 1.433 . S
C2384 H2380 0.929 . S
C2384 C2386 1.378 . S
C2384 C2388 1.350 . S
C2385 C2388 1.463 . S
C2385 C2390 1.350 . S
C2385 N2393 1.427 . S
C2386 H2377 0.930 . S
C2386 C2384 1.378 . S
C2386 C2387 1.367 . S
C2387 C2386 1.367 . S
C2387 C2389 1.433 . S
C2388 C2384 1.350 . S
C2388 C2385 1.463 . S
C2388 N2392 1.427 . S
C2389 H2379 0.929 . S
C2389 C2387 1.433 . S
C2389 N2392 1.384 . S
C2390 H2381 0.929 . S
C2390 C2382 1.378 . S
C2390 C2385 1.350 . S
C2391 H2378 0.929 . S
C2391 C2383 1.433 . S
C2391 N2393 1.384 . S
N2392 C2388 1.427 . S
N2392 C2389 1.384 . S
N2393 C2385 1.427 . S
N2393 C2391 1.384 . S
H2394 C2400 0.930 . S
H2395 C2404 0.930 . S
H2396 C2409 0.929 . S
H2397 C2407 0.929 . S
H2398 C2402 0.929 . S
H2399 C2408 0.929 . S
C2400 H2394 0.930 . S
C2400 C2401 1.367 . S
C2400 C2408 1.378 . S
C2401 C2400 1.367 . S
C2401 C2409 1.433 . S
C2402 H2398 0.929 . S
C2402 C2404 1.378 . S
C2402 C2406 1.350 . S
C2403 C2406 1.463 . S
C2403 C2408 1.350 . S
C2403 N2411 1.427 . S
C2404 H2395 0.930 . S
C2404 C2402 1.378 . S
C2404 C2405 1.367 . S
C2405 C2404 1.367 . S
C2405 C2407 1.433 . S
C2406 C2402 1.350 . S
C2406 C2403 1.463 . S
C2406 N2410 1.427 . S
C2407 H2397 0.929 . S
C2407 C2405 1.433 . S
C2407 N2410 1.384 . S
C2408 H2399 0.929 . S
C2408 C2400 1.378 . S
C2408 C2403 1.350 . S
C2409 H2396 0.929 . S
C2409 C2401 1.433 . S
C2409 N2411 1.384 . S
N2410 C2406 1.427 . S
N2410 C2407 1.384 . S
N2411 C2403 1.427 . S
N2411 C2409 1.384 . S
H2412 C2418 0.930 . S
H2413 C2422 0.930 . S
H2414 C2427 0.929 . S
H2415 C2425 0.929 . S
H2416 C2420 0.929 . S
H2417 C2426 0.929 . S
C2418 H2412 0.930 . S
C2418 C2419 1.367 . S
C2418 C2426 1.378 . S
C2419 C2418 1.367 . S
C2419 C2427 1.433 . S
C2420 H2416 0.929 . S
C2420 C2422 1.378 . S
C2420 C2424 1.350 . S
C2421 C2424 1.463 . S
C2421 C2426 1.350 . S
C2421 N2429 1.427 . S
C2422 H2413 0.930 . S
C2422 C2420 1.378 . S
C2422 C2423 1.367 . S
C2423 C2422 1.367 . S
C2423 C2425 1.433 . S
C2424 C2420 1.350 . S
C2424 C2421 1.463 . S
C2424 N2428 1.427 . S
C2425 H2415 0.929 . S
C2425 C2423 1.433 . S
C2425 N2428 1.384 . S
C2426 H2417 0.929 . S
C2426 C2418 1.378 . S
C2426 C2421 1.350 . S
C2427 H2414 0.929 . S
C2427 C2419 1.433 . S
C2427 N2429 1.384 . S
N2428 C2424 1.427 . S
N2428 C2425 1.384 . S
N2429 C2421 1.427 . S
N2429 C2427 1.384 . S
H2430 C2436 0.930 . S
H2431 C2440 0.930 . S
H2432 C2445 0.929 . S
H2433 C2443 0.929 . S
H2434 C2438 0.929 . S
H2435 C2444 0.929 . S
C2436 H2430 0.930 . S
C2436 C2437 1.367 . S
C2436 C2444 1.378 . S
C2437 C2436 1.367 . S
C2437 C2445 1.433 . S
C2438 H2434 0.929 . S
C2438 C2440 1.378 . S
C2438 C2442 1.350 . S
C2439 C2442 1.463 . S
C2439 C2444 1.350 . S
C2439 N2447 1.427 . S
C2440 H2431 0.930 . S
C2440 C2438 1.378 . S
C2440 C2441 1.367 . S
C2441 C2440 1.367 . S
C2441 C2443 1.433 . S
C2442 C2438 1.350 . S
C2442 C2439 1.463 . S
C2442 N2446 1.427 . S
C2443 H2433 0.929 . S
C2443 C2441 1.433 . S
C2443 N2446 1.384 . S
C2444 H2435 0.929 . S
C2444 C2436 1.378 . S
C2444 C2439 1.350 . S
C2445 H2432 0.929 . S
C2445 C2437 1.433 . S
C2445 N2447 1.384 . S
N2446 C2442 1.427 . S
N2446 C2443 1.384 . S
N2447 C2439 1.427 . S
N2447 C2445 1.384 . S
H2448 C2454 0.930 . S
H2449 C2458 0.930 . S
H2450 C2463 0.929 . S
H2451 C2461 0.929 . S
H2452 C2456 0.929 . S
H2453 C2462 0.929 . S
C2454 H2448 0.930 . S
C2454 C2455 1.367 . S
C2454 C2462 1.378 . S
C2455 C2454 1.367 . S
C2455 C2463 1.433 . S
C2456 H2452 0.929 . S
C2456 C2458 1.378 . S
C2456 C2460 1.350 . S
C2457 C2460 1.463 . S
C2457 C2462 1.350 . S
C2457 N2465 1.427 . S
C2458 H2449 0.930 . S
C2458 C2456 1.378 . S
C2458 C2459 1.367 . S
C2459 C2458 1.367 . S
C2459 C2461 1.433 . S
C2460 C2456 1.350 . S
C2460 C2457 1.463 . S
C2460 N2464 1.427 . S
C2461 H2451 0.929 . S
C2461 C2459 1.433 . S
C2461 N2464 1.384 . S
C2462 H2453 0.929 . S
C2462 C2454 1.378 . S
C2462 C2457 1.350 . S
C2463 H2450 0.929 . S
C2463 C2455 1.433 . S
C2463 N2465 1.384 . S
N2464 C2460 1.427 . S
N2464 C2461 1.384 . S
N2465 C2457 1.427 . S
N2465 C2463 1.384 . S
H2466 C2472 0.930 . S
H2467 C2476 0.930 . S
H2468 C2481 0.929 . S
H2469 C2479 0.929 . S
H2470 C2474 0.929 . S
H2471 C2480 0.929 . S
C2472 H2466 0.930 . S
C2472 C2473 1.367 . S
C2472 C2480 1.378 . S
C2473 C2472 1.367 . S
C2473 C2481 1.433 . S
C2474 H2470 0.929 . S
C2474 C2476 1.378 . S
C2474 C2478 1.350 . S
C2475 C2478 1.463 . S
C2475 C2480 1.350 . S
C2475 N2483 1.427 . S
C2476 H2467 0.930 . S
C2476 C2474 1.378 . S
C2476 C2477 1.367 . S
C2477 C2476 1.367 . S
C2477 C2479 1.433 . S
C2478 C2474 1.350 . S
C2478 C2475 1.463 . S
C2478 N2482 1.427 . S
C2479 H2469 0.929 . S
C2479 C2477 1.433 . S
C2479 N2482 1.384 . S
C2480 H2471 0.929 . S
C2480 C2472 1.378 . S
C2480 C2475 1.350 . S
C2481 H2468 0.929 . S
C2481 C2473 1.433 . S
C2481 N2483 1.384 . S
N2482 C2478 1.427 . S
N2482 C2479 1.384 . S
N2483 C2475 1.427 . S
N2483 C2481 1.384 . S
H2484 C2490 0.930 . S
H2485 C2494 0.930 . S
H2486 C2499 0.929 . S
H2487 C2497 0.929 . S
H2488 C2492 0.929 . S
H2489 C2498 0.929 . S
C2490 H2484 0.930 . S
C2490 C2491 1.367 . S
C2490 C2498 1.378 . S
C2491 C2490 1.367 . S
C2491 C2499 1.433 . S
C2492 H2488 0.929 . S
C2492 C2494 1.378 . S
C2492 C2496 1.350 . S
C2493 C2496 1.463 . S
C2493 C2498 1.350 . S
C2493 N2501 1.427 . S
C2494 H2485 0.930 . S
C2494 C2492 1.378 . S
C2494 C2495 1.367 . S
C2495 C2494 1.367 . S
C2495 C2497 1.433 . S
C2496 C2492 1.350 . S
C2496 C2493 1.463 . S
C2496 N2500 1.427 . S
C2497 H2487 0.929 . S
C2497 C2495 1.433 . S
C2497 N2500 1.384 . S
C2498 H2489 0.929 . S
C2498 C2490 1.378 . S
C2498 C2493 1.350 . S
C2499 H2486 0.929 . S
C2499 C2491 1.433 . S
C2499 N2501 1.384 . S
N2500 C2496 1.427 . S
N2500 C2497 1.384 . S
N2501 C2493 1.427 . S
N2501 C2499 1.384 . S
H2502 C2508 0.930 . S
H2503 C2512 0.930 . S
H2504 C2517 0.929 . S
H2505 C2515 0.929 . S
H2506 C2510 0.929 . S
H2507 C2516 0.929 . S
C2508 H2502 0.930 . S
C2508 C2509 1.367 . S
C2508 C2516 1.378 . S
C2509 C2508 1.367 . S
C2509 C2517 1.433 . S
C2510 H2506 0.929 . S
C2510 C2512 1.378 . S
C2510 C2514 1.350 . S
C2511 C2514 1.463 . S
C2511 C2516 1.350 . S
C2511 N2519 1.427 . S
C2512 H2503 0.930 . S
C2512 C2510 1.378 . S
C2512 C2513 1.367 . S
C2513 C2512 1.367 . S
C2513 C2515 1.433 . S
C2514 C2510 1.350 . S
C2514 C2511 1.463 . S
C2514 N2518 1.427 . S
C2515 H2505 0.929 . S
C2515 C2513 1.433 . S
C2515 N2518 1.384 . S
C2516 H2507 0.929 . S
C2516 C2508 1.378 . S
C2516 C2511 1.350 . S
C2517 H2504 0.929 . S
C2517 C2509 1.433 . S
C2517 N2519 1.384 . S
N2518 C2514 1.427 . S
N2518 C2515 1.384 . S
N2519 C2511 1.427 . S
N2519 C2517 1.384 . S
H2520 C2526 0.930 . S
H2521 C2530 0.930 . S
H2522 C2535 0.929 . S
H2523 C2533 0.929 . S
H2524 C2528 0.929 . S
H2525 C2534 0.929 . S
C2526 H2520 0.930 . S
C2526 C2527 1.367 . S
C2526 C2534 1.378 . S
C2527 C2526 1.367 . S
C2527 C2535 1.433 . S
C2528 H2524 0.929 . S
C2528 C2530 1.378 . S
C2528 C2532 1.350 . S
C2529 C2532 1.463 . S
C2529 C2534 1.350 . S
C2529 N2537 1.427 . S
C2530 H2521 0.930 . S
C2530 C2528 1.378 . S
C2530 C2531 1.367 . S
C2531 C2530 1.367 . S
C2531 C2533 1.433 . S
C2532 C2528 1.350 . S
C2532 C2529 1.463 . S
C2532 N2536 1.427 . S
C2533 H2523 0.929 . S
C2533 C2531 1.433 . S
C2533 N2536 1.384 . S
C2534 H2525 0.929 . S
C2534 C2526 1.378 . S
C2534 C2529 1.350 . S
C2535 H2522 0.929 . S
C2535 C2527 1.433 . S
C2535 N2537 1.384 . S
N2536 C2532 1.427 . S
N2536 C2533 1.384 . S
N2537 C2529 1.427 . S
N2537 C2535 1.384 . S
H2538 C2544 0.930 . S
H2539 C2548 0.930 . S
H2540 C2553 0.929 . S
H2541 C2551 0.929 . S
H2542 C2546 0.929 . S
H2543 C2552 0.929 . S
C2544 H2538 0.930 . S
C2544 C2545 1.367 . S
C2544 C2552 1.378 . S
C2545 C2544 1.367 . S
C2545 C2553 1.433 . S
C2546 H2542 0.929 . S
C2546 C2548 1.378 . S
C2546 C2550 1.350 . S
C2547 C2550 1.463 . S
C2547 C2552 1.350 . S
C2547 N2555 1.427 . S
C2548 H2539 0.930 . S
C2548 C2546 1.378 . S
C2548 C2549 1.367 . S
C2549 C2548 1.367 . S
C2549 C2551 1.433 . S
C2550 C2546 1.350 . S
C2550 C2547 1.463 . S
C2550 N2554 1.427 . S
C2551 H2541 0.929 . S
C2551 C2549 1.433 . S
C2551 N2554 1.384 . S
C2552 H2543 0.929 . S
C2552 C2544 1.378 . S
C2552 C2547 1.350 . S
C2553 H2540 0.929 . S
C2553 C2545 1.433 . S
C2553 N2555 1.384 . S
N2554 C2550 1.427 . S
N2554 C2551 1.384 . S
N2555 C2547 1.427 . S
N2555 C2553 1.384 . S
H2556 C2562 0.930 . S
H2557 C2566 0.930 . S
H2558 C2571 0.929 . S
H2559 C2569 0.929 . S
H2560 C2564 0.929 . S
H2561 C2570 0.929 . S
C2562 H2556 0.930 . S
C2562 C2563 1.367 . S
C2562 C2570 1.378 . S
C2563 C2562 1.367 . S
C2563 C2571 1.433 . S
C2564 H2560 0.929 . S
C2564 C2566 1.378 . S
C2564 C2568 1.350 . S
C2565 C2568 1.463 . S
C2565 C2570 1.350 . S
C2565 N2573 1.427 . S
C2566 H2557 0.930 . S
C2566 C2564 1.378 . S
C2566 C2567 1.367 . S
C2567 C2566 1.367 . S
C2567 C2569 1.433 . S
C2568 C2564 1.350 . S
C2568 C2565 1.463 . S
C2568 N2572 1.427 . S
C2569 H2559 0.929 . S
C2569 C2567 1.433 . S
C2569 N2572 1.384 . S
C2570 H2561 0.929 . S
C2570 C2562 1.378 . S
C2570 C2565 1.350 . S
C2571 H2558 0.929 . S
C2571 C2563 1.433 . S
C2571 N2573 1.384 . S
N2572 C2568 1.427 . S
N2572 C2569 1.384 . S
N2573 C2565 1.427 . S
N2573 C2571 1.384 . S
H2574 C2580 0.930 . S
H2575 C2584 0.930 . S
H2576 C2589 0.929 . S
H2577 C2587 0.929 . S
H2578 C2582 0.929 . S
H2579 C2588 0.929 . S
C2580 H2574 0.930 . S
C2580 C2581 1.367 . S
C2580 C2588 1.378 . S
C2581 C2580 1.367 . S
C2581 C2589 1.433 . S
C2582 H2578 0.929 . S
C2582 C2584 1.378 . S
C2582 C2586 1.350 . S
C2583 C2586 1.463 . S
C2583 C2588 1.350 . S
C2583 N2591 1.427 . S
C2584 H2575 0.930 . S
C2584 C2582 1.378 . S
C2584 C2585 1.367 . S
C2585 C2584 1.367 . S
C2585 C2587 1.433 . S
C2586 C2582 1.350 . S
C2586 C2583 1.463 . S
C2586 N2590 1.427 . S
C2587 H2577 0.929 . S
C2587 C2585 1.433 . S
C2587 N2590 1.384 . S
C2588 H2579 0.929 . S
C2588 C2580 1.378 . S
C2588 C2583 1.350 . S
C2589 H2576 0.929 . S
C2589 C2581 1.433 . S
C2589 N2591 1.384 . S
N2590 C2586 1.427 . S
N2590 C2587 1.384 . S
N2591 C2583 1.427 . S
N2591 C2589 1.384 . S
H2592 C2598 0.930 . S
H2593 C2602 0.930 . S
H2594 C2607 0.929 . S
H2595 C2605 0.929 . S
H2596 C2600 0.929 . S
H2597 C2606 0.929 . S
C2598 H2592 0.930 . S
C2598 C2599 1.367 . S
C2598 C2606 1.378 . S
C2599 C2598 1.367 . S
C2599 C2607 1.433 . S
C2600 H2596 0.929 . S
C2600 C2602 1.378 . S
C2600 C2604 1.350 . S
C2601 C2604 1.463 . S
C2601 C2606 1.350 . S
C2601 N2609 1.427 . S
C2602 H2593 0.930 . S
C2602 C2600 1.378 . S
C2602 C2603 1.367 . S
C2603 C2602 1.367 . S
C2603 C2605 1.433 . S
C2604 C2600 1.350 . S
C2604 C2601 1.463 . S
C2604 N2608 1.427 . S
C2605 H2595 0.929 . S
C2605 C2603 1.433 . S
C2605 N2608 1.384 . S
C2606 H2597 0.929 . S
C2606 C2598 1.378 . S
C2606 C2601 1.350 . S
C2607 H2594 0.929 . S
C2607 C2599 1.433 . S
C2607 N2609 1.384 . S
N2608 C2604 1.427 . S
N2608 C2605 1.384 . S
N2609 C2601 1.427 . S
N2609 C2607 1.384 . S
H2610 C2616 0.930 . S
H2611 C2620 0.930 . S
H2612 C2625 0.929 . S
H2613 C2623 0.929 . S
H2614 C2618 0.929 . S
H2615 C2624 0.929 . S
C2616 H2610 0.930 . S
C2616 C2617 1.367 . S
C2616 C2624 1.378 . S
C2617 C2616 1.367 . S
C2617 C2625 1.433 . S
C2618 H2614 0.929 . S
C2618 C2620 1.378 . S
C2618 C2622 1.350 . S
C2619 C2622 1.463 . S
C2619 C2624 1.350 . S
C2619 N2627 1.427 . S
C2620 H2611 0.930 . S
C2620 C2618 1.378 . S
C2620 C2621 1.367 . S
C2621 C2620 1.367 . S
C2621 C2623 1.433 . S
C2622 C2618 1.350 . S
C2622 C2619 1.463 . S
C2622 N2626 1.427 . S
C2623 H2613 0.929 . S
C2623 C2621 1.433 . S
C2623 N2626 1.384 . S
C2624 H2615 0.929 . S
C2624 C2616 1.378 . S
C2624 C2619 1.350 . S
C2625 H2612 0.929 . S
C2625 C2617 1.433 . S
C2625 N2627 1.384 . S
N2626 C2622 1.427 . S
N2626 C2623 1.384 . S
N2627 C2619 1.427 . S
N2627 C2625 1.384 . S
H2628 C2634 0.930 . S
H2629 C2638 0.930 . S
H2630 C2643 0.929 . S
H2631 C2641 0.929 . S
H2632 C2636 0.929 . S
H2633 C2642 0.929 . S
C2634 H2628 0.930 . S
C2634 C2635 1.367 . S
C2634 C2642 1.378 . S
C2635 C2634 1.367 . S
C2635 C2643 1.433 . S
C2636 H2632 0.929 . S
C2636 C2638 1.378 . S
C2636 C2640 1.350 . S
C2637 C2640 1.463 . S
C2637 C2642 1.350 . S
C2637 N2645 1.427 . S
C2638 H2629 0.930 . S
C2638 C2636 1.378 . S
C2638 C2639 1.367 . S
C2639 C2638 1.367 . S
C2639 C2641 1.433 . S
C2640 C2636 1.350 . S
C2640 C2637 1.463 . S
C2640 N2644 1.427 . S
C2641 H2631 0.929 . S
C2641 C2639 1.433 . S
C2641 N2644 1.384 . S
C2642 H2633 0.929 . S
C2642 C2634 1.378 . S
C2642 C2637 1.350 . S
C2643 H2630 0.929 . S
C2643 C2635 1.433 . S
C2643 N2645 1.384 . S
N2644 C2640 1.427 . S
N2644 C2641 1.384 . S
N2645 C2637 1.427 . S
N2645 C2643 1.384 . S
H2646 C2652 0.930 . S
H2647 C2656 0.930 . S
H2648 C2661 0.929 . S
H2649 C2659 0.929 . S
H2650 C2654 0.929 . S
H2651 C2660 0.929 . S
C2652 H2646 0.930 . S
C2652 C2653 1.367 . S
C2652 C2660 1.378 . S
C2653 C2652 1.367 . S
C2653 C2661 1.433 . S
C2654 H2650 0.929 . S
C2654 C2656 1.378 . S
C2654 C2658 1.350 . S
C2655 C2658 1.463 . S
C2655 C2660 1.350 . S
C2655 N2663 1.427 . S
C2656 H2647 0.930 . S
C2656 C2654 1.378 . S
C2656 C2657 1.367 . S
C2657 C2656 1.367 . S
C2657 C2659 1.433 . S
C2658 C2654 1.350 . S
C2658 C2655 1.463 . S
C2658 N2662 1.427 . S
C2659 H2649 0.929 . S
C2659 C2657 1.433 . S
C2659 N2662 1.384 . S
C2660 H2651 0.929 . S
C2660 C2652 1.378 . S
C2660 C2655 1.350 . S
C2661 H2648 0.929 . S
C2661 C2653 1.433 . S
C2661 N2663 1.384 . S
N2662 C2658 1.427 . S
N2662 C2659 1.384 . S
N2663 C2655 1.427 . S
N2663 C2661 1.384 . S
C947 N396 1.742 . S
C943 C9 1.779 . S
C965 C423 1.592 . S
C961 C16 1.589 . S
C979 C30 1.837 . S
C983 C437 1.847 . S
C1001 N455 0.734 . S
C997 C40 0.724 . S
C1015 C52 1.532 . S
C1019 C460 1.538 . S
C1033 C66 1.817 . S
C1037 C400 1.815 . S
C1051 C76 0.662 . S
C1055 N419 0.672 . S
C1073 N432 1.775 . S
C1069 C90 1.799 . S
C1091 N478 1.751 . S
C1087 C6 1.797 . S
C1105 C21 1.665 . S
C1109 N501 1.632 . S
C1123 C28 1.677 . S
C1127 N524 1.653 . S
C1145 N557 1.152 . S
C1141 C45 1.183 . S
C1159 C54 1.573 . S
C1163 C584 1.563 . S
C1181 C607 2.048 . S
C1177 C69 2.055 . S
C1195 C81 1.002 . S
C1199 C630 1.001 1_655 S
C1217 C644 1.580 . S
C1213 C88 1.565 . S
C1231 C4 1.511 . S
C1235 C561 1.506 . S
C1249 C57 1.613 . S
C1253 N603 1.592 . S
C1271 N626 1.575 . S
C1267 C64 1.609 . S
C1285 C78 1.183 . S
C1289 N639 1.172 . S
C1307 N580 1.739 . S
C1303 C93 1.799 . S
C1325 C506 2.123 . S
C1321 C33 2.118 . S
C1339 C42 0.955 . S
C1343 C529 0.949 . S
C1361 C483 1.632 . S
C1357 C18 1.623 . S
C1379 C676 1.735 . S
C1375 C105 1.731 . S
C1393 C112 1.544 . S
C1397 C690 1.552 . S
C1411 C126 1.799 . S
C1415 N718 1.768 . S
C1433 N731 0.666 . S
C1429 C136 0.658 . S
C1447 C148 1.517 . S
C1451 C736 1.532 . S
C1465 C162 1.757 . S
C1469 N672 1.715 . S
C1483 C172 0.774 . S
C1487 N685 0.765 . S
C1501 C186 1.715 . S
C1505 C722 1.716 . S
C1523 N570 1.759 . S
C1519 C102 1.804 . S
C1537 C117 1.582 . S
C1541 N754 1.550 . S
C1559 N616 1.576 1_655 S
C1555 C124 1.608 . S
C1573 C141 1.178 . S
C1577 C791 1.175 . S
C1591 C150 1.673 . S
C1595 C492 1.669 . S
C1613 C805 2.105 . S
C1609 C165 2.093 . S
C1627 C177 1.085 . S
C1631 C538 1.090 . S
C1649 N823 1.441 . S
C1645 C184 1.478 . S
C1663 C100 1.533 . S
C1667 N787 1.501 . S
C1685 N800 1.533 . S
C1681 C153 1.571 . S
C1699 C160 1.610 . S
C1703 N534 1.582 . S
C1721 C828 0.967 . S
C1717 C174 0.966 . S
C1735 C189 1.783 . S
C1739 N488 1.739 . S
C1753 C129 2.036 . S
C1757 C759 2.043 . S
C1771 C138 1.075 . S
C1775 C621 1.073 . S
C1789 C114 1.681 . S
C1793 C575 1.692 . S
C1807 C201 1.808 . S
C1811 C713 1.814 . S
C1829 C745 1.498 . S
C1825 C208 1.493 . S
C1843 C222 1.807 . S
C1847 N662 1.771 . S
C1861 C232 0.720 . S
C1865 N695 0.706 . S
C1879 C244 1.543 . S
C1883 C699 1.538 . S
C1897 C258 1.876 . S
C1901 N708 1.848 . S
C1919 N741 0.622 . S
C1915 C268 0.613 . S
C1933 C282 1.790 . S
C1937 C667 1.800 . S
C1955 N856 1.796 . S
C1951 C198 1.834 . S
C1969 C213 1.551 . S
C1973 N593 1.515 . S
C1991 N879 1.501 . S
C1987 C220 1.532 . S
C2005 C237 1.247 . S
C2009 N649 1.195 . S
C2023 C246 1.625 . S
C2027 C897 1.628 . S
C2041 C261 2.135 . S
C2045 C515 2.131 . S
C2063 N915 1.004 . S
C2059 C273 1.013 . S
C2077 C280 1.562 . S
C2081 C552 1.564 . S
C2099 C653 1.550 . S
C2095 C196 1.564 . S
C2117 N511 1.577 . S
C2113 C249 1.610 . S
C2131 C256 1.748 . S
C2135 C920 1.761 . S
C2149 C270 1.001 . S
C2153 N547 0.984 . S
C2171 N892 1.807 . S
C2167 C285 1.843 . S
C2189 C598 2.013 1_565 S
C2185 C225 2.011 . S
C2207 C883 1.104 . S
C2203 C234 1.099 . S
C2225 C860 1.661 . S
C2221 C210 1.647 . S
C2239 C297 1.728 . S
C2243 N442 1.694 . S
C2257 C304 1.507 . S
C2261 C469 1.502 . S
C2279 C391 1.866 . S
C2275 C318 1.860 . S
C2297 N409 0.632 . S
C2293 C328 0.626 . S
C2315 C414 1.586 . S
C2311 C340 1.571 . S
C2333 C446 1.748 . S
C2329 C354 1.746 . S
C2351 N465 0.808 . S
C2347 C364 0.819 . S
C2365 C378 1.793 . S
C2369 N386 1.770 . S
C2383 C294 1.759 . S
C2387 N902 1.712 . S
C2405 N810 1.555 . S
C2401 C309 1.589 . S
C2423 C929 1.773 . S
C2419 C316 1.776 . S
C2441 C837 0.934 . S
C2437 C333 0.936 . S
C2455 C342 1.679 . S
C2459 C851 1.670 . S
C2477 C768 2.058 . S
C2473 C357 2.065 . S
C2495 C874 1.227 . S
C2491 C369 1.243 . S
C2509 C376 1.575 . S
C2513 N777 1.528 . S
C2531 N833 1.433 . S
C2527 C292 1.452 . S
C2549 N764 1.559 . S
C2545 C345 1.579 . S
C2567 N869 1.489 . S
C2563 C352 1.535 . S
C2581 C366 1.095 . S
C2585 C782 1.093 . S
C2599 C381 1.771 . S
C2603 N846 1.729 . S
C2617 C321 2.149 . S
C2621 C814 2.150 . S
C2635 C330 1.028 . S
C2639 N925 1.027 . S
C2657 C906 1.597 . S
C2653 C306 1.597 . S
