# Generated by pormake.
# Topology pyr, (3,6)-cn, num edge types: 1
# Building blocks:
#     Node 0, Type 0, BuildingBlock: BETDIP_clean_linker_0, # of connection points: 3
#     Node 1, Type 0, BuildingBlock: BETDIP_clean_linker_0, # of connection points: 3
#     Node 2, Type 0, BuildingBlock: BETDIP_clean_linker_0, # of connection points: 3
#     Node 3, Type 0, BuildingBlock: BETDIP_clean_linker_0, # of connection points: 3
#     Node 4, Type 0, BuildingBlock: BETDIP_clean_linker_0, # of connection points: 3
#     Node 5, Type 0, BuildingBlock: BETDIP_clean_linker_0, # of connection points: 3
#     Node 6, Type 0, BuildingBlock: BETDIP_clean_linker_0, # of connection points: 3
#     Node 7, Type 0, BuildingBlock: BETDIP_clean_linker_0, # of connection points: 3
#     Node 8, Type 1, BuildingBlock: CIFDUS_clean_sbu_1, # of connection points: 6
#     Node 9, Type 1, BuildingBlock: CIFDUS_clean_sbu_1, # of connection points: 6
#     Node 10, Type 1, BuildingBlock: CIFDUS_clean_sbu_1, # of connection points: 6
#     Node 11, Type 1, BuildingBlock: CIFDUS_clean_sbu_1, # of connection points: 6
#     Edge 12, Type (0, 1), BuildingBlock: XIVTED_clean_linker_0, # of connection points: 2
#     Edge 13, Type (0, 1), BuildingBlock: XIVTED_clean_linker_0, # of connection points: 2
#     Edge 14, Type (0, 1), BuildingBlock: XIVTED_clean_linker_0, # of connection points: 2
#     Edge 15, Type (0, 1), BuildingBlock: XIVTED_clean_linker_0, # of connection points: 2
#     Edge 16, Type (0, 1), BuildingBlock: XIVTED_clean_linker_0, # of connection points: 2
#     Edge 17, Type (0, 1), BuildingBlock: XIVTED_clean_linker_0, # of connection points: 2
#     Edge 18, Type (0, 1), BuildingBlock: XIVTED_clean_linker_0, # of connection points: 2
#     Edge 19, Type (0, 1), BuildingBlock: XIVTED_clean_linker_0, # of connection points: 2
#     Edge 20, Type (0, 1), BuildingBlock: XIVTED_clean_linker_0, # of connection points: 2
#     Edge 21, Type (0, 1), BuildingBlock: XIVTED_clean_linker_0, # of connection points: 2
#     Edge 22, Type (0, 1), BuildingBlock: XIVTED_clean_linker_0, # of connection points: 2
#     Edge 23, Type (0, 1), BuildingBlock: XIVTED_clean_linker_0, # of connection points: 2
#     Edge 24, Type (0, 1), BuildingBlock: XIVTED_clean_linker_0, # of connection points: 2
#     Edge 25, Type (0, 1), BuildingBlock: XIVTED_clean_linker_0, # of connection points: 2
#     Edge 26, Type (0, 1), BuildingBlock: XIVTED_clean_linker_0, # of connection points: 2
#     Edge 27, Type (0, 1), BuildingBlock: XIVTED_clean_linker_0, # of connection points: 2
#     Edge 28, Type (0, 1), BuildingBlock: XIVTED_clean_linker_0, # of connection points: 2
#     Edge 29, Type (0, 1), BuildingBlock: XIVTED_clean_linker_0, # of connection points: 2
#     Edge 30, Type (0, 1), BuildingBlock: XIVTED_clean_linker_0, # of connection points: 2
#     Edge 31, Type (0, 1), BuildingBlock: XIVTED_clean_linker_0, # of connection points: 2
#     Edge 32, Type (0, 1), BuildingBlock: XIVTED_clean_linker_0, # of connection points: 2
#     Edge 33, Type (0, 1), BuildingBlock: XIVTED_clean_linker_0, # of connection points: 2
#     Edge 34, Type (0, 1), BuildingBlock: XIVTED_clean_linker_0, # of connection points: 2
#     Edge 35, Type (0, 1), BuildingBlock: XIVTED_clean_linker_0, # of connection points: 2
# Relax obj value: 0.084
# Max RMSD: 0.172
# Mean RMSD: 0.137
data_MOF--net-pry--node1-CIFDUS_clean_sbu_1--node2-BETDIP_clean_linker_0--edge1-XIVTED_clean_linker_0
_symmetry_space_group_name_H-M    P1
_symmetry_Int_Tables_number       1
_symmetry_cell_setting            triclinic
loop_
_symmetry_equiv_pos_as_xyz
'x, y, z'
_cell_length_a     36.685308
_cell_length_b     34.768504
_cell_length_c     35.569851
_cell_angle_alpha  94.015187
_cell_angle_beta   87.172455
_cell_angle_gamma 100.13184
loop_
_atom_site_label
_atom_site_type_symbol
_atom_site_fract_x
_atom_site_fract_y
_atom_site_fract_z
_atom_type_partial_charge
H0 H 0.11841 0.17599 0.21024 0.0
H1 H 0.20026 0.1735 0.11979 0.0
H2 H 0.19423 0.09476 0.20901 0.0
H3 H 0.18613 0.23202 0.10777 0.0
C4 C 0.15737 0.23119 0.11698 0.0
C5 C 0.14178 0.16416 0.19729 0.0
C6 C 0.1549 0.13413 0.21411 0.0
C7 C 0.15777 0.17852 0.16329 0.0
C8 C 0.18772 0.16265 0.14597 0.0
C9 C 0.20143 0.13243 0.16238 0.0
C10 C 0.18453 0.11836 0.19634 0.0
N11 N 0.14164 0.2075 0.14681 0.0
H12 H 0.34935 0.92864 0.70183 0.0
H13 H 0.34629 0.83393 0.61695 0.0
H14 H 0.42703 0.84955 0.70269 0.0
H15 H 0.28539 0.84194 0.61505 0.0
C16 C 0.28776 0.87358 0.61795 0.0
C17 C 0.36025 0.90323 0.68996 0.0
C18 C 0.39002 0.89135 0.7067 0.0
C19 C 0.34417 0.88256 0.65787 0.0
C20 C 0.35841 0.84981 0.64182 0.0
C21 C 0.38844 0.83759 0.65785 0.0
C22 C 0.40397 0.85875 0.69012 0.0
N23 N 0.31446 0.89631 0.6419 0.0
H24 H 0.75573 0.36622 0.78919 0.0
H25 H 0.66417 0.2709 0.78952 0.0
H26 H 0.7517 0.27706 0.86747 0.0
H27 H 0.64977 0.29213 0.73534 0.0
C28 C 0.66516 0.32135 0.73176 0.0
C29 C 0.74248 0.33874 0.80025 0.0
C30 C 0.75732 0.32439 0.83094 0.0
C31 C 0.70972 0.3191 0.7843 0.0
C32 C 0.69068 0.28472 0.80007 0.0
C33 C 0.70513 0.26931 0.83083 0.0
C34 C 0.73916 0.289 0.84504 0.0
N35 N 0.69628 0.33664 0.75395 0.0
H36 H 0.81913 0.63999 0.36556 0.0
H37 H 0.93279 0.69157 0.37855 0.0
H38 H 0.85392 0.69386 0.47288 0.0
H39 H 0.93259 0.69868 0.31575 0.0
C40 C 0.91024 0.67704 0.30429 0.0
C41 C 0.84086 0.65526 0.38346 0.0
C42 C 0.83279 0.66472 0.4215 0.0
C43 C 0.87629 0.6662 0.36759 0.0
C44 C 0.90498 0.68508 0.39061 0.0
C45 C 0.89766 0.69553 0.42907 0.0
C46 C 0.86114 0.68485 0.44414 0.0
N47 N 0.88129 0.65827 0.32815 0.0
H48 H 0.80973 0.87278 0.95027 0.0
H49 H 0.8924 0.86518 0.8615 0.0
H50 H 0.81976 0.94922 0.8586 0.0
H51 H 0.92419 0.85283 0.9141 0.0
C52 C 0.90314 0.83174 0.92769 0.0
C53 C 0.82309 0.88314 0.92414 0.0
C54 C 0.81086 0.91342 0.90653 0.0
C55 C 0.85296 0.86625 0.9087 0.0
C56 C 0.8698 0.87852 0.87406 0.0
C57 C 0.85777 0.90835 0.8557 0.0
C58 C 0.82856 0.92575 0.87234 0.0
N59 N 0.86552 0.83715 0.92865 0.0
H60 H 0.66777 0.12209 0.36532 0.0
H61 H 0.66077 0.20598 0.45916 0.0
H62 H 0.58574 0.19622 0.36829 0.0
H63 H 0.72278 0.20086 0.46178 0.0
C64 C 0.72183 0.16955 0.45654 0.0
C65 C 0.65436 0.14474 0.37958 0.0
C66 C 0.62593 0.15818 0.36215 0.0
C67 C 0.66718 0.16194 0.41445 0.0
C68 C 0.65074 0.19244 0.43247 0.0
C69 C 0.62147 0.20558 0.41584 0.0
C70 C 0.6089 0.18743 0.38112 0.0
N71 N 0.69661 0.14778 0.43052 0.0
H72 H 0.26741 0.68099 0.27753 0.0
H73 H 0.35841 0.77712 0.27865 0.0
H74 H 0.27212 0.76988 0.19902 0.0
H75 H 0.37466 0.75314 0.33104 0.0
C76 C 0.35728 0.7252 0.33598 0.0
C77 C 0.28074 0.70849 0.26656 0.0
C78 C 0.26637 0.7226 0.23548 0.0
C79 C 0.31311 0.72839 0.28307 0.0
C80 C 0.33229 0.76287 0.26747 0.0
C81 C 0.31827 0.77796 0.23623 0.0
C82 C 0.2845 0.75806 0.22163 0.0
N83 N 0.32572 0.71109 0.31406 0.0
H84 H 0.07148 0.34036 0.68713 0.0
H85 H 0.18455 0.38911 0.70682 0.0
H86 H 0.15408 0.34497 0.59544 0.0
H87 H 0.17127 0.36053 0.76219 0.0
C88 C 0.14338 0.36577 0.76942 0.0
C89 C 0.09961 0.34762 0.67595 0.0
C90 C 0.10848 0.34011 0.6373 0.0
C91 C 0.12717 0.36291 0.70138 0.0
C92 C 0.16355 0.3749 0.68769 0.0
C93 C 0.1731 0.3693 0.64929 0.0
C94 C 0.14565 0.35153 0.62439 0.0
N95 N 0.11764 0.36534 0.74064 0.0
O96 O 0.95643 0.0436 0.52766 0.0
Mn97 Mn 0.0048 0.01971 0.53366 0.0
O98 O 0.91998 1.00096 0.48903 0.0
Mn99 Mn 0.95624 0.97294 0.47154 0.0
O100 O 0.0531 0.99582 0.53977 0.0
O101 O 0.0289 0.07179 0.55545 0.0
Mn102 Mn 0.05383 0.06721 0.5953 0.0
O103 O 0.98434 1.0027 0.58757 0.0
O104 O 0.08985 0.03883 0.57784 0.0
O105 O 0.02543 0.03692 0.48001 0.0
O106 O 0.99145 0.99683 0.43741 0.0
O107 O 0.05929 0.1202 0.58881 0.0
O108 O 0.01861 0.04358 0.62952 0.0
C109 C 0.97133 0.93031 0.50563 0.0
C110 C 0.92554 0.03156 0.5113 0.0
C111 C 0.08407 0.00795 0.55595 0.0
C112 C 0.03836 0.1091 0.56047 0.0
C113 C 0.99174 0.01593 0.62165 0.0
C114 C 0.01831 0.0243 0.44576 0.0
O115 O 0.98081 0.96757 0.51155 0.0
O116 O 0.95058 0.91986 0.47702 0.0
O117 O 0.48904 0.00328 0.98104 0.0
Mn118 Mn 0.50813 0.02765 0.03333 0.0
O119 O 0.49549 0.9399 0.97821 0.0
Mn120 Mn 0.51611 0.94088 0.02515 0.0
O121 O 0.52736 0.05255 0.08568 0.0
O122 O 0.52 0.0802 1.01078 0.0
Mn123 Mn 0.50087 0.11498 0.04011 0.0
O124 O 0.45351 0.03563 0.04965 0.0
O125 O 0.52381 0.11663 0.08574 0.0
O126 O 0.56286 0.0199 1.01697 0.0
O127 O 0.56653 0.95744 0.02599 0.0
O128 O 0.52461 0.14178 1.00048 0.0
O129 O 0.45031 0.09838 0.04104 0.0
C130 C 0.48309 0.9455 0.0758 0.0
C131 C 0.4861 0.96919 0.96381 0.0
C132 C 0.53257 0.08759 0.10121 0.0
C133 C 0.53331 0.10825 0.98931 0.0
C134 C 0.4351 0.06384 0.04841 0.0
C135 C 0.58156 0.99199 0.01862 0.0
O136 O 0.49602 0.97462 0.05536 0.0
O137 O 0.49198 0.91239 0.06334 0.0
O138 O 0.55596 0.54473 0.518 0.0
Mn139 Mn 0.5033 0.51994 0.53806 0.0
O140 O 0.55579 0.53268 0.45484 0.0
Mn141 Mn 0.50831 0.50348 0.4519 0.0
O142 O 0.45055 0.49503 0.55804 0.0
O143 O 0.52444 0.51483 0.5885 0.0
Mn144 Mn 0.49783 0.53535 0.62448 0.0
O145 O 0.4921 0.57651 0.55369 0.0
O146 O 0.45078 0.5053 0.62135 0.0
O147 O 0.51455 0.46332 0.52262 0.0
O148 O 0.50342 0.45135 0.46111 0.0
O149 O 0.53398 0.51705 0.64857 0.0
O150 O 0.5017 0.58747 0.61566 0.0
C151 C 0.46381 0.53549 0.46088 0.0
C152 C 0.57165 0.54776 0.48494 0.0
C153 C 0.43492 0.49099 0.59104 0.0
C154 C 0.54343 0.50496 0.61487 0.0
C155 C 0.49506 0.59916 0.58401 0.0
C156 C 0.5108 0.44014 0.49269 0.0
O157 O 0.48222 0.52521 0.48755 0.0
O158 O 0.47289 0.52248 0.42739 0.0
O159 O 0.97495 0.49705 0.99209 0.0
Mn160 Mn 0.01334 0.52407 0.03089 0.0
O161 O 0.99171 0.52572 0.93738 0.0
Mn162 Mn 0.03463 0.55965 0.95312 0.0
O163 O 0.05164 0.55094 0.06984 0.0
O164 O 0.97585 0.5127 0.07295 0.0
Mn165 Mn 0.99196 0.48744 0.1079 0.0
O166 O 0.03182 0.47 0.03559 0.0
O167 O 0.03496 0.52097 0.12394 0.0
O168 O 0.99513 0.57826 0.02599 0.0
O169 O 0.02746 0.60666 0.97685 0.0
O170 O 0.94681 0.49976 0.12565 0.0
O171 O 0.99901 0.4406 0.08375 0.0
C172 C 0.0775 0.52805 0.96637 0.0
C173 C 0.97026 0.5009 0.95704 0.0
C174 C 0.0563 0.54634 0.10477 0.0
C175 C 0.94944 0.51987 0.09608 0.0
C176 C 0.02137 0.4399 0.0553 0.0
C177 C 0.00583 0.60799 1.00584 0.0
O178 O 0.05077 0.53545 0.98887 0.0
O179 O 0.08002 0.54711 0.93613 0.0
H180 H 0.13363 0.05738 0.22973 0.0
H181 H 0.06109 0.09806 0.4426 0.0
H182 H 0.13514 0.17449 0.27917 0.0
H183 H 0.02907 0.98974 0.37612 0.0
H184 H 0.09645 0.12585 0.38715 0.0
H185 H 0.10352 0.03128 0.28758 0.0
C186 C 0.12785 0.07762 0.25289 0.0
C187 C 0.13689 0.11818 0.24956 0.0
C188 C 0.08171 0.09598 0.38491 0.0
C189 C 0.10224 0.08844 0.31609 0.0
C190 C 0.06174 0.08006 0.41654 0.0
C191 C 0.04189 0.04159 0.41395 0.0
C192 C 0.08231 0.07296 0.3508 0.0
C193 C 0.0436 0.01964 0.37941 0.0
C194 C 0.11046 0.06271 0.28587 0.0
C195 C 0.12832 0.14302 0.28043 0.0
N196 N 0.06343 0.03556 0.34937 0.0
N197 N 0.11155 0.12777 0.31248 0.0
H198 H 0.46291 0.90633 0.72664 0.0
H199 H 0.43344 0.00351 0.93271 0.0
H200 H 0.35368 0.92263 0.76826 0.0
H201 H 0.5083 0.92176 0.90657 0.0
H202 H 0.41043 0.99041 0.86819 0.0
H203 H 0.48693 0.92956 0.78841 0.0
C204 C 0.4439 0.91486 0.74863 0.0
C205 C 0.4059 0.91145 0.74228 0.0
C206 C 0.43201 0.97561 0.87674 0.0
C207 C 0.43377 0.93935 0.81288 0.0
C208 C 0.44518 0.98311 0.91334 0.0
C209 C 0.47256 0.9634 0.92498 0.0
C210 C 0.44722 0.94922 0.85153 0.0
C211 C 0.48687 0.93723 0.89886 0.0
C212 C 0.45776 0.92833 0.78382 0.0
C213 C 0.38311 0.92461 0.77169 0.0
N214 N 0.47422 0.9311 0.86335 0.0
N215 N 0.39735 0.93778 0.80583 0.0
H216 H 0.69836 0.39458 0.7113 0.0
H217 H 0.52478 0.42695 0.59882 0.0
H218 H 0.60378 0.30428 0.68916 0.0
H219 H 0.61695 0.51765 0.6268 0.0
H220 H 0.55937 0.37806 0.61868 0.0
H221 H 0.67456 0.43634 0.66958 0.0
C222 C 0.67265 0.38338 0.69748 0.0
C223 C 0.6527 0.34602 0.70417 0.0
C224 C 0.57257 0.4085 0.61938 0.0
C225 C 0.6252 0.39393 0.65614 0.0
C226 C 0.55308 0.43631 0.60738 0.0
C227 C 0.56845 0.47619 0.61042 0.0
C228 C 0.60739 0.42092 0.63523 0.0
C229 C 0.60453 0.48704 0.62325 0.0
C230 C 0.65911 0.40727 0.67349 0.0
C231 C 0.61981 0.33304 0.68504 0.0
N232 N 0.62257 0.45966 0.63568 0.0
N233 N 0.60686 0.3571 0.66223 0.0
H234 H 0.85336 0.63547 0.26316 0.0
H235 H 0.99138 0.5922 0.09792 0.0
H236 H 0.96644 0.6952 0.25196 0.0
H237 H 0.87883 0.53184 0.10964 0.0
H238 H 0.97605 0.64543 0.14023 0.0
H239 H 0.85632 0.61176 0.1972 0.0
C240 C 0.8788 0.64385 0.24671 0.0
C241 C 0.91014 0.66642 0.26328 0.0
C242 C 0.95417 0.62142 0.13238 0.0
C243 C 0.91372 0.63923 0.18754 0.0
C244 C 0.96272 0.59134 0.10721 0.0
C245 C 0.93629 0.55747 0.10026 0.0
C246 C 0.9192 0.61703 0.15108 0.0
C247 C 0.9 0.55743 0.11447 0.0
C248 C 0.88038 0.63052 0.20888 0.0
C249 C 0.94194 0.67722 0.24034 0.0
N250 N 0.89275 0.58613 0.14019 0.0
N251 N 0.9432 0.66287 0.20379 0.0
H252 H 0.25783 0.10683 0.19667 0.0
H253 H 0.38033 0.08506 1.01052 0.0
H254 H 0.21793 0.11857 0.08652 0.0
H255 H 0.4007 0.03448 0.11294 0.0
H256 H 0.31961 0.09503 0.03682 0.0
H257 H 0.30953 0.07932 0.16667 0.0
C258 C 0.25955 0.10328 0.16619 0.0
C259 C 0.23319 0.1153 0.14424 0.0
C260 C 0.33688 0.0809 0.05331 0.0
C261 C 0.29321 0.08428 0.10961 0.0
C262 C 0.37141 0.07493 0.03816 0.0
C263 C 0.39534 0.05869 0.05953 0.0
C264 C 0.32659 0.07162 0.09056 0.0
C265 C 0.38281 0.04666 0.09543 0.0
C266 C 0.28926 0.08756 0.14908 0.0
C267 C 0.23776 0.11059 0.10478 0.0
N268 N 0.34956 0.05411 0.11018 0.0
N269 N 0.26728 0.09582 0.0888 0.0
H270 H 0.28968 0.95147 0.60938 0.0
H271 H 0.07988 0.92772 0.55038 0.0
H272 H 0.22206 0.83804 0.58825 0.0
H273 H 0.15753 0.03641 0.55357 0.0
H274 H 0.13145 0.89261 0.55848 0.0
H275 H 0.24165 0.9819 0.5849 0.0
C276 C 0.26466 0.93293 0.59951 0.0
C277 C 0.25959 0.89221 0.60124 0.0
C278 C 0.13721 0.92406 0.55666 0.0
C279 C 0.20412 0.92692 0.57313 0.0
C280 C 0.10785 0.94401 0.55169 0.0
C281 C 0.11448 0.985 0.55169 0.0
C282 C 0.17315 0.94547 0.5617 0.0
C283 C 0.15115 0.00481 0.55395 0.0
C284 C 0.23722 0.95031 0.5853 0.0
C285 C 0.22682 0.86961 0.58755 0.0
N286 N 0.17892 0.98496 0.5593 0.0
N287 N 0.20003 0.88729 0.57446 0.0
H288 H 0.76994 0.33536 0.90676 0.0
H289 H 0.95516 0.49315 0.88174 0.0
H290 H 0.81976 0.36748 0.79836 0.0
H291 H 0.91443 0.4483 0.98894 0.0
H292 H 0.90472 0.44881 0.851 0.0
H293 H 0.82208 0.37701 0.93741 0.0
C294 C 0.79204 0.35072 0.8893 0.0
C295 C 0.7903 0.34774 0.84978 0.0
C296 C 0.90682 0.44864 0.88124 0.0
C297 C 0.84992 0.3964 0.88497 0.0
C298 C 0.93559 0.47411 0.89891 0.0
C299 C 0.93915 0.47465 0.93812 0.0
C300 C 0.88116 0.42353 0.90285 0.0
C301 C 0.9129 0.44902 0.95869 0.0
C302 C 0.82172 0.3748 0.90691 0.0
C303 C 0.81953 0.36918 0.82886 0.0
N304 N 0.88503 0.42462 0.94084 0.0
N305 N 0.84799 0.39266 0.84669 0.0
H306 H 0.77074 0.67835 0.38982 0.0
H307 H 0.62687 0.56257 0.53665 0.0
H308 H 0.80676 0.62977 0.487 0.0
H309 H 0.6026 0.58444 0.42335 0.0
H310 H 0.69078 0.59716 0.52589 0.0
H311 H 0.70658 0.65534 0.40953 0.0
C312 C 0.76505 0.6629 0.41545 0.0
C313 C 0.79403 0.65519 0.4364 0.0
C314 C 0.67125 0.59449 0.50359 0.0
C315 C 0.72051 0.62869 0.45923 0.0
C316 C 0.63487 0.57491 0.50972 0.0
C317 C 0.60956 0.57027 0.48068 0.0
C318 C 0.68193 0.60998 0.46847 0.0
C319 C 0.62129 0.58679 0.44635 0.0
C320 C 0.72842 0.64981 0.42674 0.0
C321 C 0.78512 0.63602 0.46996 0.0
N322 N 0.65651 0.60582 0.44124 0.0
N323 N 0.74901 0.62293 0.48019 0.0
H324 H 0.08292 0.23309 0.1262 0.0
H325 H 0.09303 0.43556 0.03006 0.0
H326 H 0.18305 0.29119 0.07151 0.0
H327 H 0.99201 0.36512 0.07069 0.0
H328 H 0.12607 0.38129 0.03875 0.0
H329 H 0.049 0.27979 0.10193 0.0
C330 C 0.09781 0.25569 0.10901 0.0
C331 C 0.13599 0.25848 0.10117 0.0
C332 C 0.09652 0.37747 0.04504 0.0
C333 C 0.09716 0.31244 0.07313 0.0
C334 C 0.07756 0.4083 0.03963 0.0
C335 C 0.03972 0.40499 0.04992 0.0
C336 C 0.07746 0.34331 0.06098 0.0
C337 C 0.02125 0.36915 0.06276 0.0
C338 C 0.07836 0.28234 0.09494 0.0
C339 C 0.15364 0.28818 0.07836 0.0
N340 N 0.04032 0.34006 0.06839 0.0
N341 N 0.1342 0.31428 0.06544 0.0
H342 H 0.7051 0.25264 0.9057 0.0
H343 H 0.52156 0.111 0.91505 0.0
H344 H 0.65545 0.20598 0.80054 0.0
H345 H 0.60651 0.10699 0.99316 0.0
H346 H 0.56903 0.1411 0.87004 0.0
H347 H 0.66916 0.19814 0.93698 0.0
C348 C 0.6874 0.2307 0.88868 0.0
C349 C 0.68393 0.23446 0.84989 0.0
C350 C 0.57751 0.13217 0.89635 0.0
C351 C 0.6409 0.17201 0.88685 0.0
C352 C 0.55048 0.11449 0.92183 0.0
C353 C 0.56028 0.1062 0.95764 0.0
C354 C 0.61429 0.14279 0.90749 0.0
C355 C 0.59795 0.11251 0.96562 0.0
C356 C 0.66659 0.19944 0.90691 0.0
C357 C 0.65885 0.20522 0.83049 0.0
N358 N 0.62351 0.13156 0.94123 0.0
N359 N 0.63784 0.17569 0.84928 0.0
H360 H 0.95797 0.74871 0.40448 0.0
H361 H 0.93613 0.88674 0.56107 0.0
H362 H 0.90465 0.70243 0.50705 0.0
H363 H 0.03537 0.9031 0.49038 0.0
H364 H 0.93414 0.8162 0.55435 0.0
H365 H 0.99591 0.79921 0.44171 0.0
C366 C 0.95457 0.74811 0.4348 0.0
C367 C 0.92657 0.72139 0.45214 0.0
C368 C 0.95756 0.83512 0.54184 0.0
C369 C 0.96971 0.78151 0.49537 0.0
C370 C 0.95899 0.87559 0.54622 0.0
C371 C 0.98518 0.90042 0.52507 0.0
C372 C 0.98207 0.82003 0.51553 0.0
C373 C 0.01415 0.88461 0.50634 0.0
C374 C 0.97654 0.77748 0.45627 0.0
C375 C 0.9242 0.7234 0.49193 0.0
N376 N 0.0109 0.84515 0.50036 0.0
N377 N 0.94446 0.75378 0.5121 0.0
H378 H 0.39609 0.81143 0.58278 0.0
H379 H 0.52447 0.66201 0.62876 0.0
H380 H 0.41554 0.78325 0.69574 0.0
H381 H 0.44443 0.62641 0.54274 0.0
H382 H 0.49943 0.72226 0.64208 0.0
H383 H 0.42516 0.75576 0.55783 0.0
C384 C 0.40622 0.79367 0.60238 0.0
C385 C 0.40382 0.80274 0.64157 0.0
C386 C 0.48793 0.70163 0.61968 0.0
C387 C 0.43817 0.74038 0.61298 0.0
C388 C 0.50229 0.66739 0.6119 0.0
C389 C 0.48647 0.63915 0.58456 0.0
C390 C 0.45765 0.70794 0.5999 0.0
C391 C 0.45782 0.64774 0.56349 0.0
C392 C 0.423 0.76218 0.58802 0.0
C393 C 0.41781 0.77864 0.66538 0.0
N394 N 0.44392 0.68136 0.57188 0.0
N395 N 0.43473 0.74903 0.65071 0.0
H396 H 0.8772 0.86512 0.79218 0.0
H397 H 0.97946 0.05343 0.68923 0.0
H398 H 0.8806 0.98403 0.8374 0.0
H399 H 0.95144 0.94115 0.62828 0.0
H400 H 0.94581 0.02657 0.74465 0.0
H401 H 0.90721 0.89019 0.7332 0.0
C402 C 0.88434 0.89644 0.78974 0.0
C403 C 0.8763 0.92253 0.81977 0.0
C404 C 0.94673 0.00769 0.71921 0.0
C405 C 0.91049 0.95129 0.75255 0.0
C406 C 0.96608 0.02301 0.68746 0.0
C407 C 0.96846 0.99948 0.65401 0.0
C408 C 0.9298 0.96819 0.71807 0.0
C409 C 0.9502 0.96036 0.65345 0.0
C410 C 0.90117 0.91069 0.75601 0.0
C411 C 0.88586 0.96281 0.81494 0.0
N412 N 0.9319 0.94576 0.68518 0.0
N413 N 0.90253 0.97586 0.78217 0.0
H414 H 0.61074 0.08257 0.32954 0.0
H415 H 0.56072 0.15881 0.13419 0.0
H416 H 0.61833 0.20354 0.3051 0.0
H417 H 0.54387 0.03557 0.15356 0.0
H418 H 0.58621 0.17385 0.19589 0.0
H419 H 0.59061 0.06297 0.26473 0.0
C420 C 0.60839 0.10492 0.31051 0.0
C421 C 0.61568 0.14472 0.32285 0.0
C422 C 0.57703 0.14343 0.1869 0.0
C423 C 0.59293 0.12269 0.24913 0.0
C424 C 0.56231 0.13474 0.15145 0.0
C425 C 0.54968 0.0958 0.13859 0.0
C426 C 0.57921 0.11311 0.21029 0.0
C427 C 0.55315 0.06603 0.16234 0.0
C428 C 0.5968 0.09375 0.27367 0.0
C429 C 0.61228 0.17252 0.2971 0.0
N430 N 0.5674 0.07531 0.19724 0.0
N431 N 0.60112 0.16098 0.26172 0.0
H432 H 0.31911 0.65498 0.35928 0.0
H433 H 0.48612 0.61317 0.47676 0.0
H434 H 0.41884 0.73904 0.37861 0.0
H435 H 0.39084 0.52708 0.44736 0.0
H436 H 0.45552 0.66428 0.45465 0.0
H437 H 0.33918 0.61258 0.40294 0.0
C438 C 0.34519 0.6647 0.37287 0.0
C439 C 0.36765 0.70046 0.36481 0.0
C440 C 0.44075 0.63441 0.45413 0.0
C441 C 0.39086 0.65174 0.41514 0.0
C442 C 0.45794 0.60536 0.46744 0.0
C443 C 0.44059 0.56604 0.46455 0.0
C444 C 0.40621 0.62382 0.43731 0.0
C445 C 0.40477 0.5572 0.45078 0.0
C446 C 0.3566 0.64044 0.39798 0.0
C447 C 0.40089 0.71155 0.38376 0.0
N448 N 0.38898 0.58573 0.43719 0.0
N449 N 0.41171 0.68712 0.40772 0.0
H450 H 0.07442 0.36575 0.8031 0.0
H451 H 0.14898 0.51711 0.95901 0.0
H452 H 0.19084 0.38947 0.82596 0.0
H453 H 0.03635 0.45568 0.96193 0.0
H454 H 0.16725 0.46269 0.91972 0.0
H455 H 0.06058 0.39104 0.86701 0.0
C456 C 0.09704 0.37594 0.82177 0.0
C457 C 0.13387 0.37639 0.80915 0.0
C458 C 0.13882 0.46018 0.93037 0.0
C459 C 0.11836 0.4056 0.88221 0.0
C460 C 0.12853 0.49106 0.95331 0.0
C461 C 0.09118 0.4908 0.96374 0.0
C462 C 0.11122 0.42968 0.91698 0.0
C463 C 0.06555 0.45681 0.95488 0.0
C464 C 0.08915 0.39004 0.85841 0.0
C465 C 0.16209 0.38922 0.83464 0.0
N466 N 0.07578 0.42814 0.93091 0.0
N467 N 0.15385 0.4042 0.86974 0.0
H468 H 0.75585 0.94039 0.87108 0.0
H469 H 0.63701 0.97408 0.05781 0.0
H470 H 0.79536 0.93072 0.98183 0.0
H471 H 0.61491 0.01776 0.95243 0.0
H472 H 0.6971 0.96211 0.0315 0.0
H473 H 0.70557 0.97102 0.9002 0.0
C474 C 0.75432 0.94501 0.90149 0.0
C475 C 0.78005 0.93258 0.92392 0.0
C476 C 0.67963 0.97522 1.01431 0.0
C477 C 0.72182 0.96733 0.95755 0.0
C478 C 0.6455 0.98241 0.02948 0.0
C479 C 0.62124 0.99723 1.00733 0.0
C480 C 0.68917 0.98181 0.97629 0.0
C481 C 0.63312 0.00681 0.97054 0.0
C482 C 0.72546 0.96253 0.9181 0.0
C483 C 0.7759 0.9389 0.96327 0.0
N484 N 0.66597 0.99816 0.95586 0.0
N485 N 0.74725 0.95548 0.97876 0.0
H486 H 0.78585 0.20555 0.48925 0.0
H487 H 0.85235 1.0021 0.51503 0.0
H488 H 0.72331 0.09139 0.45934 0.0
H489 H 0.92865 0.11168 0.51695 0.0
H490 H 0.8013 0.03712 0.50885 0.0
H491 H 0.83518 0.17406 0.51163 0.0
C492 C 0.78244 0.1739 0.48767 0.0
C493 C 0.75073 0.15102 0.47205 0.0
C494 C 0.82909 0.05372 0.51109 0.0
C495 C 0.80645 0.115 0.49792 0.0
C496 C 0.85825 0.03374 0.51483 0.0
C497 C 0.8948 0.05403 0.5162 0.0
C498 C 0.83637 0.09441 0.5083 0.0
C499 C 0.90083 0.09503 0.51617 0.0
C500 C 0.81053 0.15602 0.50038 0.0
C501 C 0.74747 0.11019 0.47073 0.0
N502 N 0.87188 0.11394 0.51166 0.0
N503 N 0.77497 0.09356 0.48342 0.0
H504 H 0.25541 0.71176 0.15938 0.0
H505 H 0.07058 0.55283 0.18019 0.0
H506 H 0.20357 0.67877 0.26674 0.0
H507 H 0.11225 0.59976 0.07409 0.0
H508 H 0.12041 0.59693 0.21202 0.0
H509 H 0.20405 0.6701 0.12756 0.0
C510 C 0.23303 0.6962 0.17636 0.0
C511 C 0.23395 0.69899 0.21595 0.0
C512 C 0.11865 0.59761 0.18178 0.0
C513 C 0.17525 0.65029 0.1794 0.0
C514 C 0.09025 0.57228 0.16348 0.0
C515 C 0.08712 0.5724 0.12426 0.0
C516 C 0.14442 0.62324 0.16081 0.0
C517 C 0.11346 0.59853 0.10432 0.0
C518 C 0.2038 0.67211 0.15808 0.0
C519 C 0.20442 0.67725 0.23623 0.0
N520 N 0.141 0.62279 0.12279 0.0
N521 N 0.17641 0.65377 0.21775 0.0
H522 H 0.2352 0.35685 0.68231 0.0
H523 H 0.38005 0.47667 0.53896 0.0
H524 H 0.20015 0.40746 0.58576 0.0
H525 H 0.40352 0.45359 0.65216 0.0
H526 H 0.31616 0.44185 0.54901 0.0
H527 H 0.29945 0.38183 0.66437 0.0
C528 C 0.24106 0.37324 0.65726 0.0
C529 C 0.21224 0.3808 0.63594 0.0
C530 C 0.33549 0.44433 0.57145 0.0
C531 C 0.28597 0.40932 0.615 0.0
C532 C 0.37188 0.46403 0.56572 0.0
C533 C 0.39699 0.46837 0.59492 0.0
C534 C 0.32456 0.42842 0.60635 0.0
C535 C 0.38501 0.45146 0.62904 0.0
C536 C 0.27777 0.3874 0.64696 0.0
C537 C 0.22156 0.40117 0.60309 0.0
N538 N 0.34976 0.43232 0.63376 0.0
N539 N 0.2577 0.41511 0.59376 0.0
H540 H 0.86095 0.76764 0.96076 0.0
H541 H 0.04211 0.68272 1.00621 0.0
H542 H 0.97358 0.82515 0.94071 0.0
H543 H 0.93235 0.6147 1.01591 0.0
H544 H 0.01532 0.7401 0.99516 0.0
H545 H 0.88436 0.71567 0.99103 0.0
C546 C 0.89054 0.76952 0.96302 0.0
C547 C 0.91545 0.80063 0.948 0.0
C548 C 0.99687 0.71292 1.00037 0.0
C549 C 0.94231 0.74165 0.9828 0.0
C550 C 0.01222 0.68024 1.00715 0.0
C551 C 0.98943 0.64396 1.01195 0.0
C552 C 0.95833 0.70932 0.99757 0.0
C553 C 0.95086 0.64227 1.01259 0.0
C554 C 0.90388 0.73989 0.98032 0.0
C555 C 0.95345 0.80159 0.9517 0.0
N556 N 0.93647 0.67434 1.00469 0.0
N557 N 0.96565 0.7726 0.96855 0.0
H558 H 0.319 0.7935 0.16109 0.0
H559 H 0.49721 0.94292 0.14955 0.0
H560 H 0.36728 0.84219 0.26631 0.0
H561 H 0.40919 0.94342 0.0741 0.0
H562 H 0.45197 0.91028 0.19531 0.0
H563 H 0.35303 0.84887 0.12978 0.0
C564 C 0.33598 0.81606 0.17813 0.0
C565 C 0.33937 0.8128 0.21703 0.0
C566 C 0.4423 0.919 0.16945 0.0
C567 C 0.38041 0.87631 0.17993 0.0
C568 C 0.46802 0.93812 0.14356 0.0
C569 C 0.45677 0.94618 0.10823 0.0
C570 C 0.40541 0.90679 0.1592 0.0
C571 C 0.41886 0.93815 0.10125 0.0
C572 C 0.35572 0.84782 0.15987 0.0
C573 C 0.3638 0.84274 0.23636 0.0
N574 N 0.39466 0.91782 0.12599 0.0
N575 N 0.38382 0.87287 0.21751 0.0
H576 H 0.10612 0.33659 0.55865 0.0
H577 H 0.97362 0.13488 0.57405 0.0
H578 H 0.04528 0.28751 0.65663 0.0
H579 H 0.07387 0.15262 0.50488 0.0
H580 H 0.97444 0.20538 0.57854 0.0
H581 H 0.07115 0.28387 0.5192 0.0
C582 C 0.0853 0.31546 0.57215 0.0
C583 C 0.08054 0.31593 0.6118 0.0
C584 C 0.99515 0.19373 0.56057 0.0
C585 C 0.03849 0.25724 0.56596 0.0
C586 C 0.99437 0.15336 0.5575 0.0
C587 C 0.02445 0.13835 0.54018 0.0
C588 C 0.02632 0.21864 0.54625 0.0
C589 C 0.05065 0.16345 0.5193 0.0
C590 C 0.06482 0.28584 0.54928 0.0
C591 C 0.05107 0.28892 0.62668 0.0
N592 N 0.05193 0.20277 0.52413 0.0
N593 N 0.03175 0.26049 0.60386 0.0
H594 H 0.60996 0.22714 0.49179 0.0
H595 H 0.48062 0.3763 0.44949 0.0
H596 H 0.59505 0.26173 0.37989 0.0
H597 H 0.56309 0.41426 0.53269 0.0
H598 H 0.50607 0.3162 0.43622 0.0
H599 H 0.57962 0.28144 0.51819 0.0
C600 C 0.60048 0.2459 0.47272 0.0
C601 C 0.60457 0.23902 0.43334 0.0
C602 C 0.51788 0.33726 0.45815 0.0
C603 C 0.56879 0.29978 0.4635 0.0
C604 C 0.50335 0.37143 0.46586 0.0
C605 C 0.5197 0.40026 0.4924 0.0
C606 C 0.54884 0.33163 0.47722 0.0
C607 C 0.54915 0.39238 0.51275 0.0
C608 C 0.58299 0.27661 0.4879 0.0
C609 C 0.5914 0.26445 0.41027 0.0
N610 N 0.5632 0.35885 0.50444 0.0
N611 N 0.57376 0.29321 0.42565 0.0
loop_
_geom_bond_atom_site_label_1
_geom_bond_atom_site_label_2
_geom_bond_distance
_geom_bond_site_symmetry_2
_ccdc_geom_bond_type
H0 C5 0.930 . S
H1 C8 0.930 . S
H2 C10 0.930 . S
H3 C4 1.016 . S
C4 H3 1.016 . S
C4 N11 1.286 . S
C5 H0 0.930 . S
C5 C6 1.397 . S
C5 C7 1.361 . S
C6 C5 1.397 . S
C6 C10 1.390 . S
C7 C5 1.361 . S
C7 C8 1.393 . S
C7 N11 1.413 . S
C8 H1 0.930 . S
C8 C7 1.393 . S
C8 C9 1.399 . S
C9 C8 1.399 . S
C9 C10 1.381 . S
C10 H2 0.930 . S
C10 C6 1.390 . S
C10 C9 1.381 . S
N11 C4 1.286 . S
N11 C7 1.413 . S
H12 C17 0.930 . S
H13 C20 0.930 . S
H14 C22 0.930 . S
H15 C16 1.016 . S
C16 H15 1.016 . S
C16 N23 1.286 . S
C17 H12 0.930 . S
C17 C18 1.397 . S
C17 C19 1.361 . S
C18 C17 1.397 . S
C18 C22 1.390 . S
C19 C17 1.361 . S
C19 C20 1.393 . S
C19 N23 1.413 . S
C20 H13 0.930 . S
C20 C19 1.393 . S
C20 C21 1.399 . S
C21 C20 1.399 . S
C21 C22 1.381 . S
C22 H14 0.930 . S
C22 C18 1.390 . S
C22 C21 1.381 . S
N23 C16 1.286 . S
N23 C19 1.413 . S
H24 C29 0.930 . S
H25 C32 0.930 . S
H26 C34 0.930 . S
H27 C28 1.016 . S
C28 H27 1.016 . S
C28 N35 1.286 . S
C29 H24 0.930 . S
C29 C30 1.397 . S
C29 C31 1.361 . S
C30 C29 1.397 . S
C30 C34 1.390 . S
C31 C29 1.361 . S
C31 C32 1.393 . S
C31 N35 1.413 . S
C32 H25 0.930 . S
C32 C31 1.393 . S
C32 C33 1.399 . S
C33 C32 1.399 . S
C33 C34 1.381 . S
C34 H26 0.930 . S
C34 C30 1.390 . S
C34 C33 1.381 . S
N35 C28 1.286 . S
N35 C31 1.413 . S
H36 C41 0.930 . S
H37 C44 0.930 . S
H38 C46 0.930 . S
H39 C40 1.016 . S
C40 H39 1.016 . S
C40 N47 1.286 . S
C41 H36 0.930 . S
C41 C42 1.397 . S
C41 C43 1.361 . S
C42 C41 1.397 . S
C42 C46 1.390 . S
C43 C41 1.361 . S
C43 C44 1.393 . S
C43 N47 1.413 . S
C44 H37 0.930 . S
C44 C43 1.393 . S
C44 C45 1.399 . S
C45 C44 1.399 . S
C45 C46 1.381 . S
C46 H38 0.930 . S
C46 C42 1.390 . S
C46 C45 1.381 . S
N47 C40 1.286 . S
N47 C43 1.413 . S
H48 C53 0.930 . S
H49 C56 0.930 . S
H50 C58 0.930 . S
H51 C52 1.016 . S
C52 H51 1.016 . S
C52 N59 1.286 . S
C53 H48 0.930 . S
C53 C54 1.397 . S
C53 C55 1.361 . S
C54 C53 1.397 . S
C54 C58 1.390 . S
C55 C53 1.361 . S
C55 C56 1.393 . S
C55 N59 1.413 . S
C56 H49 0.930 . S
C56 C55 1.393 . S
C56 C57 1.399 . S
C57 C56 1.399 . S
C57 C58 1.381 . S
C58 H50 0.930 . S
C58 C54 1.390 . S
C58 C57 1.381 . S
N59 C52 1.286 . S
N59 C55 1.413 . S
H60 C65 0.930 . S
H61 C68 0.930 . S
H62 C70 0.930 . S
H63 C64 1.016 . S
C64 H63 1.016 . S
C64 N71 1.286 . S
C65 H60 0.930 . S
C65 C66 1.397 . S
C65 C67 1.361 . S
C66 C65 1.397 . S
C66 C70 1.390 . S
C67 C65 1.361 . S
C67 C68 1.393 . S
C67 N71 1.413 . S
C68 H61 0.930 . S
C68 C67 1.393 . S
C68 C69 1.399 . S
C69 C68 1.399 . S
C69 C70 1.381 . S
C70 H62 0.930 . S
C70 C66 1.390 . S
C70 C69 1.381 . S
N71 C64 1.286 . S
N71 C67 1.413 . S
H72 C77 0.930 . S
H73 C80 0.930 . S
H74 C82 0.930 . S
H75 C76 1.016 . S
C76 H75 1.016 . S
C76 N83 1.286 . S
C77 H72 0.930 . S
C77 C78 1.397 . S
C77 C79 1.361 . S
C78 C77 1.397 . S
C78 C82 1.390 . S
C79 C77 1.361 . S
C79 C80 1.393 . S
C79 N83 1.413 . S
C80 H73 0.930 . S
C80 C79 1.393 . S
C80 C81 1.399 . S
C81 C80 1.399 . S
C81 C82 1.381 . S
C82 H74 0.930 . S
C82 C78 1.390 . S
C82 C81 1.381 . S
N83 C76 1.286 . S
N83 C79 1.413 . S
H84 C89 0.930 . S
H85 C92 0.930 . S
H86 C94 0.930 . S
H87 C88 1.016 . S
C88 H87 1.016 . S
C88 N95 1.286 . S
C89 H84 0.930 . S
C89 C90 1.397 . S
C89 C91 1.361 . S
C90 C89 1.397 . S
C90 C94 1.390 . S
C91 C89 1.361 . S
C91 C92 1.393 . S
C91 N95 1.413 . S
C92 H85 0.930 . S
C92 C91 1.393 . S
C92 C93 1.399 . S
C93 C92 1.399 . S
C93 C94 1.381 . S
C94 H86 0.930 . S
C94 C90 1.390 . S
C94 C93 1.381 . S
N95 C88 1.286 . S
N95 C91 1.413 . S
O96 Mn97 2.163 1_655 S
O96 C110 1.244 . S
Mn97 O96 2.163 1_455 S
Mn97 O100 2.160 1_545 S
Mn97 O101 2.221 . S
Mn97 O103 2.163 1_445 S
Mn97 O105 2.160 . S
Mn97 O115 2.221 1_445 S
O98 Mn99 2.091 . S
O98 C110 1.252 1_565 S
Mn99 O98 2.091 . S
Mn99 O106 2.089 1_565 S
Mn99 O115 2.290 . S
Mn99 O116 2.251 . S
O100 Mn97 2.160 1_565 S
O100 C111 1.239 . S
O101 Mn97 2.221 . S
O101 Mn102 2.290 . S
O101 C112 1.278 . S
Mn102 O101 2.290 . S
Mn102 O104 2.089 . S
Mn102 O107 2.251 . S
Mn102 O108 2.087 . S
O103 Mn97 2.163 1_665 S
O103 C113 1.244 . S
O104 Mn102 2.089 . S
O104 C111 1.256 1_545 S
O105 Mn97 2.160 . S
O105 C114 1.239 . S
O106 Mn99 2.089 1_545 S
O106 C114 1.256 1_655 S
O107 Mn102 2.251 . S
O107 C112 1.241 . S
O108 Mn102 2.087 . S
O108 C113 1.256 1_445 S
C109 O115 1.278 . S
C109 O116 1.241 . S
C110 O96 1.244 . S
C110 O98 1.252 1_545 S
C111 O100 1.239 . S
C111 O104 1.256 1_565 S
C112 O101 1.278 . S
C112 O107 1.241 . S
C113 O103 1.244 . S
C113 O108 1.256 1_665 S
C114 O105 1.239 . S
C114 O106 1.256 1_455 S
O115 Mn97 2.221 1_665 S
O115 Mn99 2.290 . S
O115 C109 1.278 . S
O116 Mn99 2.251 . S
O116 C109 1.241 . S
O117 Mn118 2.163 1_556 S
O117 C131 1.244 1_545 S
Mn118 O117 2.163 1_554 S
Mn118 O121 2.160 . S
Mn118 O122 2.221 . S
Mn118 O124 2.163 . S
Mn118 O126 2.160 . S
Mn118 O136 2.221 1_545 S
O119 Mn120 2.087 . S
O119 C131 1.256 . S
Mn120 O119 2.087 . S
Mn120 O127 2.089 . S
Mn120 O136 2.290 1_556 S
Mn120 O137 2.251 1_556 S
O121 Mn118 2.160 . S
O121 C132 1.239 . S
O122 Mn118 2.221 . S
O122 Mn123 2.290 . S
O122 C133 1.278 1_554 S
Mn123 O122 2.290 . S
Mn123 O125 2.089 . S
Mn123 O128 2.237 1_554 S
Mn123 O129 2.087 . S
O124 Mn118 2.163 . S
O124 C134 1.244 . S
O125 Mn123 2.089 . S
O125 C132 1.256 . S
O126 Mn118 2.160 . S
O126 C135 1.239 1_544 S
O127 Mn120 2.089 . S
O127 C135 1.256 . S
O128 Mn123 2.237 1_556 S
O128 C133 1.244 . S
O129 Mn123 2.087 . S
O129 C134 1.256 . S
C130 O136 1.278 . S
C130 O137 1.241 . S
C131 O117 1.244 1_565 S
C131 O119 1.256 . S
C132 O121 1.239 . S
C132 O125 1.256 . S
C133 O122 1.278 1_556 S
C133 O128 1.244 . S
C134 O124 1.244 . S
C134 O129 1.256 . S
C135 O126 1.239 1_566 S
C135 O127 1.256 . S
O136 Mn118 2.221 1_565 S
O136 Mn120 2.290 1_554 S
O136 C130 1.278 . S
O137 Mn120 2.251 1_554 S
O137 C130 1.241 . S
O138 Mn139 2.163 . S
O138 C152 1.244 . S
Mn139 O138 2.163 . S
Mn139 O142 2.160 . S
Mn139 O143 2.221 . S
Mn139 O145 2.163 . S
Mn139 O147 2.160 . S
Mn139 O157 2.221 . S
O140 Mn141 2.087 . S
O140 C152 1.256 . S
Mn141 O140 2.087 . S
Mn141 O148 2.089 . S
Mn141 O157 2.290 . S
Mn141 O158 2.251 . S
O142 Mn139 2.160 . S
O142 C153 1.239 . S
O143 Mn139 2.221 . S
O143 Mn144 2.290 . S
O143 C154 1.278 . S
Mn144 O143 2.290 . S
Mn144 O146 2.089 . S
Mn144 O149 2.251 . S
Mn144 O150 2.087 . S
O145 Mn139 2.163 . S
O145 C155 1.244 . S
O146 Mn144 2.089 . S
O146 C153 1.256 . S
O147 Mn139 2.160 . S
O147 C156 1.239 . S
O148 Mn141 2.089 . S
O148 C156 1.256 . S
O149 Mn144 2.251 . S
O149 C154 1.241 . S
O150 Mn144 2.087 . S
O150 C155 1.256 . S
C151 O157 1.278 . S
C151 O158 1.241 . S
C152 O138 1.244 . S
C152 O140 1.256 . S
C153 O142 1.239 . S
C153 O146 1.256 . S
C154 O143 1.278 . S
C154 O149 1.241 . S
C155 O145 1.244 . S
C155 O150 1.256 . S
C156 O147 1.239 . S
C156 O148 1.256 . S
O157 Mn139 2.221 . S
O157 Mn141 2.290 . S
O157 C151 1.278 . S
O158 Mn141 2.251 . S
O158 C151 1.241 . S
O159 Mn160 2.163 1_655 S
O159 C173 1.244 1_554 S
Mn160 O159 2.163 1_455 S
Mn160 O163 2.160 . S
Mn160 O164 2.221 . S
Mn160 O166 2.163 . S
Mn160 O168 2.160 . S
Mn160 O178 2.221 1_554 S
O161 Mn162 2.087 . S
O161 C173 1.256 . S
Mn162 O161 2.087 . S
Mn162 O169 2.089 . S
Mn162 O178 2.290 1_655 S
Mn162 O179 2.251 1_655 S
O163 Mn160 2.160 . S
O163 C174 1.239 . S
O164 Mn160 2.221 . S
O164 Mn165 2.290 . S
O164 C175 1.278 1_455 S
Mn165 O164 2.290 . S
Mn165 O167 2.089 . S
Mn165 O170 2.251 1_455 S
Mn165 O171 2.087 . S
O166 Mn160 2.163 . S
O166 C176 1.244 . S
O167 Mn165 2.089 . S
O167 C174 1.256 . S
O168 Mn160 2.160 . S
O168 C177 1.239 1_454 S
O169 Mn162 2.089 . S
O169 C177 1.256 . S
O170 Mn165 2.251 1_655 S
O170 C175 1.241 . S
O171 Mn165 2.087 . S
O171 C176 1.256 . S
C172 O178 1.278 . S
C172 O179 1.241 . S
C173 O159 1.244 1_556 S
C173 O161 1.256 . S
C174 O163 1.239 . S
C174 O167 1.256 . S
C175 O164 1.278 1_655 S
C175 O170 1.241 . S
C176 O166 1.244 . S
C176 O171 1.256 . S
C177 O168 1.239 1_656 S
C177 O169 1.256 . S
O178 Mn160 2.221 1_556 S
O178 Mn162 2.290 1_455 S
O178 C172 1.278 . S
O179 Mn162 2.251 1_455 S
O179 C172 1.241 . S
H180 C186 0.930 . S
H181 C190 0.930 . S
H182 C195 0.929 . S
H183 C193 0.929 . S
H184 C188 0.929 . S
H185 C194 0.929 . S
C186 H180 0.930 . S
C186 C187 1.367 . S
C186 C194 1.378 . S
C187 C186 1.367 . S
C187 C195 1.433 . S
C188 H184 0.929 . S
C188 C190 1.378 . S
C188 C192 1.350 . S
C189 C192 1.463 . S
C189 C194 1.350 . S
C189 N197 1.427 . S
C190 H181 0.930 . S
C190 C188 1.378 . S
C190 C191 1.367 . S
C191 C190 1.367 . S
C191 C193 1.433 . S
C192 C188 1.350 . S
C192 C189 1.463 . S
C192 N196 1.427 . S
C193 H183 0.929 . S
C193 C191 1.433 . S
C193 N196 1.384 . S
C194 H185 0.929 . S
C194 C186 1.378 . S
C194 C189 1.350 . S
C195 H182 0.929 . S
C195 C187 1.433 . S
C195 N197 1.384 . S
N196 C192 1.427 . S
N196 C193 1.384 . S
N197 C189 1.427 . S
N197 C195 1.384 . S
H198 C204 0.930 . S
H199 C208 0.931 . S
H200 C213 0.929 . S
H201 C211 0.929 . S
H202 C206 0.929 . S
H203 C212 0.929 . S
C204 H198 0.930 . S
C204 C205 1.367 . S
C204 C212 1.378 . S
C205 C204 1.367 . S
C205 C213 1.433 . S
C206 H202 0.929 . S
C206 C208 1.378 1_565 S
C206 C210 1.350 . S
C207 C210 1.463 . S
C207 C212 1.350 . S
C207 N215 1.427 . S
C208 H199 0.931 . S
C208 C206 1.378 1_545 S
C208 C209 1.366 1_545 S
C209 C208 1.366 1_565 S
C209 C211 1.433 . S
C210 C206 1.350 . S
C210 C207 1.463 . S
C210 N214 1.427 . S
C211 H201 0.929 . S
C211 C209 1.433 . S
C211 N214 1.384 . S
C212 H203 0.929 . S
C212 C204 1.378 . S
C212 C207 1.350 . S
C213 H200 0.929 . S
C213 C205 1.433 . S
C213 N215 1.384 . S
N214 C210 1.427 . S
N214 C211 1.384 . S
N215 C207 1.427 . S
N215 C213 1.384 . S
H216 C222 0.930 . S
H217 C226 0.930 . S
H218 C231 0.929 . S
H219 C229 0.929 . S
H220 C224 0.929 . S
H221 C230 0.929 . S
C222 H216 0.930 . S
C222 C223 1.367 . S
C222 C230 1.378 . S
C223 C222 1.367 . S
C223 C231 1.433 . S
C224 H220 0.929 . S
C224 C226 1.378 . S
C224 C228 1.350 . S
C225 C228 1.463 . S
C225 C230 1.350 . S
C225 N233 1.427 . S
C226 H217 0.930 . S
C226 C224 1.378 . S
C226 C227 1.367 . S
C227 C226 1.367 . S
C227 C229 1.433 . S
C228 C224 1.350 . S
C228 C225 1.463 . S
C228 N232 1.427 . S
C229 H219 0.929 . S
C229 C227 1.433 . S
C229 N232 1.384 . S
C230 H221 0.929 . S
C230 C222 1.378 . S
C230 C225 1.350 . S
C231 H218 0.929 . S
C231 C223 1.433 . S
C231 N233 1.384 . S
N232 C228 1.427 . S
N232 C229 1.384 . S
N233 C225 1.427 . S
N233 C231 1.384 . S
H234 C240 0.930 . S
H235 C244 0.930 . S
H236 C249 0.929 . S
H237 C247 0.929 . S
H238 C242 0.929 . S
H239 C248 0.929 . S
C240 H234 0.930 . S
C240 C241 1.367 . S
C240 C248 1.378 . S
C241 C240 1.367 . S
C241 C249 1.433 . S
C242 H238 0.929 . S
C242 C244 1.378 . S
C242 C246 1.350 . S
C243 C246 1.463 . S
C243 C248 1.350 . S
C243 N251 1.427 . S
C244 H235 0.930 . S
C244 C242 1.378 . S
C244 C245 1.367 . S
C245 C244 1.367 . S
C245 C247 1.433 . S
C246 C242 1.350 . S
C246 C243 1.463 . S
C246 N250 1.427 . S
C247 H237 0.929 . S
C247 C245 1.433 . S
C247 N250 1.384 . S
C248 H239 0.929 . S
C248 C240 1.378 . S
C248 C243 1.350 . S
C249 H236 0.929 . S
C249 C241 1.433 . S
C249 N251 1.384 . S
N250 C246 1.427 . S
N250 C247 1.384 . S
N251 C243 1.427 . S
N251 C249 1.384 . S
H252 C258 0.930 . S
H253 C262 0.930 . S
H254 C267 0.929 . S
H255 C265 0.929 . S
H256 C260 0.929 . S
H257 C266 0.929 . S
C258 H252 0.930 . S
C258 C259 1.367 . S
C258 C266 1.378 . S
C259 C258 1.367 . S
C259 C267 1.433 . S
C260 H256 0.929 . S
C260 C262 1.378 . S
C260 C264 1.350 . S
C261 C264 1.463 . S
C261 C266 1.350 . S
C261 N269 1.427 . S
C262 H253 0.930 . S
C262 C260 1.378 . S
C262 C263 1.367 . S
C263 C262 1.367 . S
C263 C265 1.433 . S
C264 C260 1.350 . S
C264 C261 1.463 . S
C264 N268 1.427 . S
C265 H255 0.929 . S
C265 C263 1.433 . S
C265 N268 1.384 . S
C266 H257 0.929 . S
C266 C258 1.378 . S
C266 C261 1.350 . S
C267 H254 0.929 . S
C267 C259 1.433 . S
C267 N269 1.384 . S
N268 C264 1.427 . S
N268 C265 1.384 . S
N269 C261 1.427 . S
N269 C267 1.384 . S
H270 C276 0.930 . S
H271 C280 0.930 . S
H272 C285 0.929 . S
H273 C283 0.929 1_545 S
H274 C278 0.929 . S
H275 C284 0.929 . S
C276 H270 0.930 . S
C276 C277 1.367 . S
C276 C284 1.378 . S
C277 C276 1.367 . S
C277 C285 1.433 . S
C278 H274 0.929 . S
C278 C280 1.378 . S
C278 C282 1.350 . S
C279 C282 1.463 . S
C279 C284 1.350 . S
C279 N287 1.427 . S
C280 H271 0.930 . S
C280 C278 1.378 . S
C280 C281 1.367 . S
C281 C280 1.367 . S
C281 C283 1.433 . S
C282 C278 1.350 . S
C282 C279 1.463 . S
C282 N286 1.427 . S
C283 H273 0.929 1_565 S
C283 C281 1.433 . S
C283 N286 1.384 . S
C284 H275 0.929 . S
C284 C276 1.378 . S
C284 C279 1.350 . S
C285 H272 0.929 . S
C285 C277 1.433 . S
C285 N287 1.384 . S
N286 C282 1.427 . S
N286 C283 1.384 . S
N287 C279 1.427 . S
N287 C285 1.384 . S
H288 C294 0.930 . S
H289 C298 0.930 . S
H290 C303 0.929 . S
H291 C301 0.929 . S
H292 C296 0.929 . S
H293 C302 0.929 . S
C294 H288 0.930 . S
C294 C295 1.367 . S
C294 C302 1.378 . S
C295 C294 1.367 . S
C295 C303 1.433 . S
C296 H292 0.929 . S
C296 C298 1.378 . S
C296 C300 1.350 . S
C297 C300 1.463 . S
C297 C302 1.350 . S
C297 N305 1.427 . S
C298 H289 0.930 . S
C298 C296 1.378 . S
C298 C299 1.367 . S
C299 C298 1.367 . S
C299 C301 1.433 1_556 S
C300 C296 1.350 . S
C300 C297 1.463 . S
C300 N304 1.427 . S
C301 H291 0.929 . S
C301 C299 1.433 1_554 S
C301 N304 1.384 1_554 S
C302 H293 0.929 . S
C302 C294 1.378 . S
C302 C297 1.350 . S
C303 H290 0.929 . S
C303 C295 1.433 . S
C303 N305 1.384 . S
N304 C300 1.427 . S
N304 C301 1.384 1_556 S
N305 C297 1.427 . S
N305 C303 1.384 . S
H306 C312 0.930 . S
H307 C316 0.930 . S
H308 C321 0.929 . S
H309 C319 0.929 . S
H310 C314 0.929 . S
H311 C320 0.929 . S
C312 H306 0.930 . S
C312 C313 1.367 . S
C312 C320 1.378 . S
C313 C312 1.367 . S
C313 C321 1.433 . S
C314 H310 0.929 . S
C314 C316 1.378 . S
C314 C318 1.350 . S
C315 C318 1.463 . S
C315 C320 1.350 . S
C315 N323 1.427 . S
C316 H307 0.930 . S
C316 C314 1.378 . S
C316 C317 1.367 . S
C317 C316 1.367 . S
C317 C319 1.433 . S
C318 C314 1.350 . S
C318 C315 1.463 . S
C318 N322 1.427 . S
C319 H309 0.929 . S
C319 C317 1.433 . S
C319 N322 1.384 . S
C320 H311 0.929 . S
C320 C312 1.378 . S
C320 C315 1.350 . S
C321 H308 0.929 . S
C321 C313 1.433 . S
C321 N323 1.384 . S
N322 C318 1.427 . S
N322 C319 1.384 . S
N323 C315 1.427 . S
N323 C321 1.384 . S
H324 C330 0.930 . S
H325 C334 0.930 . S
H326 C339 0.929 . S
H327 C337 0.929 . S
H328 C332 0.929 . S
H329 C338 0.929 . S
C330 H324 0.930 . S
C330 C331 1.367 . S
C330 C338 1.378 . S
C331 C330 1.367 . S
C331 C339 1.433 . S
C332 H328 0.929 . S
C332 C334 1.378 . S
C332 C336 1.350 . S
C333 C336 1.463 . S
C333 C338 1.350 . S
C333 N341 1.427 . S
C334 H325 0.930 . S
C334 C332 1.378 . S
C334 C335 1.367 . S
C335 C334 1.367 . S
C335 C337 1.433 . S
C336 C332 1.350 . S
C336 C333 1.463 . S
C336 N340 1.427 . S
C337 H327 0.929 . S
C337 C335 1.433 . S
C337 N340 1.384 . S
C338 H329 0.929 . S
C338 C330 1.378 . S
C338 C333 1.350 . S
C339 H326 0.929 . S
C339 C331 1.433 . S
C339 N341 1.384 . S
N340 C336 1.427 . S
N340 C337 1.384 . S
N341 C333 1.427 . S
N341 C339 1.384 . S
H342 C348 0.930 . S
H343 C352 0.930 . S
H344 C357 0.929 . S
H345 C355 0.929 1_554 S
H346 C350 0.929 . S
H347 C356 0.929 . S
C348 H342 0.930 . S
C348 C349 1.367 . S
C348 C356 1.378 . S
C349 C348 1.367 . S
C349 C357 1.433 . S
C350 H346 0.929 . S
C350 C352 1.378 . S
C350 C354 1.350 . S
C351 C354 1.463 . S
C351 C356 1.350 . S
C351 N359 1.427 . S
C352 H343 0.930 . S
C352 C350 1.378 . S
C352 C353 1.367 . S
C353 C352 1.367 . S
C353 C355 1.433 . S
C354 C350 1.350 . S
C354 C351 1.463 . S
C354 N358 1.427 . S
C355 H345 0.929 1_556 S
C355 C353 1.433 . S
C355 N358 1.384 . S
C356 H347 0.929 . S
C356 C348 1.378 . S
C356 C351 1.350 . S
C357 H344 0.929 . S
C357 C349 1.433 . S
C357 N359 1.384 . S
N358 C354 1.427 . S
N358 C355 1.384 . S
N359 C351 1.427 . S
N359 C357 1.384 . S
H360 C366 0.930 . S
H361 C370 0.930 . S
H362 C375 0.929 . S
H363 C373 0.929 . S
H364 C368 0.929 . S
H365 C374 0.929 . S
C366 H360 0.930 . S
C366 C367 1.367 . S
C366 C374 1.378 . S
C367 C366 1.367 . S
C367 C375 1.433 . S
C368 H364 0.929 . S
C368 C370 1.378 . S
C368 C372 1.350 . S
C369 C372 1.463 . S
C369 C374 1.350 . S
C369 N377 1.427 . S
C370 H361 0.930 . S
C370 C368 1.378 . S
C370 C371 1.367 . S
C371 C370 1.367 . S
C371 C373 1.433 . S
C372 C368 1.350 . S
C372 C369 1.463 . S
C372 N376 1.427 . S
C373 H363 0.929 . S
C373 C371 1.433 . S
C373 N376 1.384 . S
C374 H365 0.929 . S
C374 C366 1.378 . S
C374 C369 1.350 . S
C375 H362 0.929 . S
C375 C367 1.433 . S
C375 N377 1.384 . S
N376 C372 1.427 . S
N376 C373 1.384 . S
N377 C369 1.427 . S
N377 C375 1.384 . S
H378 C384 0.930 . S
H379 C388 0.930 . S
H380 C393 0.929 . S
H381 C391 0.929 . S
H382 C386 0.929 . S
H383 C392 0.929 . S
C384 H378 0.930 . S
C384 C385 1.367 . S
C384 C392 1.378 . S
C385 C384 1.367 . S
C385 C393 1.433 . S
C386 H382 0.929 . S
C386 C388 1.378 . S
C386 C390 1.350 . S
C387 C390 1.463 . S
C387 C392 1.350 . S
C387 N395 1.427 . S
C388 H379 0.930 . S
C388 C386 1.378 . S
C388 C389 1.367 . S
C389 C388 1.367 . S
C389 C391 1.433 . S
C390 C386 1.350 . S
C390 C387 1.463 . S
C390 N394 1.427 . S
C391 H381 0.929 . S
C391 C389 1.433 . S
C391 N394 1.384 . S
C392 H383 0.929 . S
C392 C384 1.378 . S
C392 C387 1.350 . S
C393 H380 0.929 . S
C393 C385 1.433 . S
C393 N395 1.384 . S
N394 C390 1.427 . S
N394 C391 1.384 . S
N395 C387 1.427 . S
N395 C393 1.384 . S
H396 C402 0.930 . S
H397 C406 0.930 1_545 S
H398 C411 0.929 . S
H399 C409 0.929 . S
H400 C404 0.929 1_545 S
H401 C410 0.929 . S
C402 H396 0.930 . S
C402 C403 1.367 . S
C402 C410 1.378 . S
C403 C402 1.367 . S
C403 C411 1.433 . S
C404 H400 0.929 1_565 S
C404 C406 1.378 . S
C404 C408 1.350 . S
C405 C408 1.463 . S
C405 C410 1.350 . S
C405 N413 1.427 . S
C406 H397 0.930 1_565 S
C406 C404 1.378 . S
C406 C407 1.367 . S
C407 C406 1.367 . S
C407 C409 1.433 . S
C408 C404 1.350 . S
C408 C405 1.463 . S
C408 N412 1.427 . S
C409 H399 0.929 . S
C409 C407 1.433 . S
C409 N412 1.384 . S
C410 H401 0.929 . S
C410 C402 1.378 . S
C410 C405 1.350 . S
C411 H398 0.929 . S
C411 C403 1.433 . S
C411 N413 1.384 . S
N412 C408 1.427 . S
N412 C409 1.384 . S
N413 C405 1.427 . S
N413 C411 1.384 . S
H414 C420 0.930 . S
H415 C424 0.930 . S
H416 C429 0.929 . S
H417 C427 0.929 . S
H418 C422 0.929 . S
H419 C428 0.929 . S
C420 H414 0.930 . S
C420 C421 1.367 . S
C420 C428 1.378 . S
C421 C420 1.367 . S
C421 C429 1.433 . S
C422 H418 0.929 . S
C422 C424 1.378 . S
C422 C426 1.350 . S
C423 C426 1.463 . S
C423 C428 1.350 . S
C423 N431 1.427 . S
C424 H415 0.930 . S
C424 C422 1.378 . S
C424 C425 1.367 . S
C425 C424 1.367 . S
C425 C427 1.433 . S
C426 C422 1.350 . S
C426 C423 1.463 . S
C426 N430 1.427 . S
C427 H417 0.929 . S
C427 C425 1.433 . S
C427 N430 1.384 . S
C428 H419 0.929 . S
C428 C420 1.378 . S
C428 C423 1.350 . S
C429 H416 0.929 . S
C429 C421 1.433 . S
C429 N431 1.384 . S
N430 C426 1.427 . S
N430 C427 1.384 . S
N431 C423 1.427 . S
N431 C429 1.384 . S
H432 C438 0.930 . S
H433 C442 0.930 . S
H434 C447 0.929 . S
H435 C445 0.929 . S
H436 C440 0.929 . S
H437 C446 0.929 . S
C438 H432 0.930 . S
C438 C439 1.367 . S
C438 C446 1.378 . S
C439 C438 1.367 . S
C439 C447 1.433 . S
C440 H436 0.929 . S
C440 C442 1.378 . S
C440 C444 1.350 . S
C441 C444 1.463 . S
C441 C446 1.350 . S
C441 N449 1.427 . S
C442 H433 0.930 . S
C442 C440 1.378 . S
C442 C443 1.367 . S
C443 C442 1.367 . S
C443 C445 1.433 . S
C444 C440 1.350 . S
C444 C441 1.463 . S
C444 N448 1.427 . S
C445 H435 0.929 . S
C445 C443 1.433 . S
C445 N448 1.384 . S
C446 H437 0.929 . S
C446 C438 1.378 . S
C446 C441 1.350 . S
C447 H434 0.929 . S
C447 C439 1.433 . S
C447 N449 1.384 . S
N448 C444 1.427 . S
N448 C445 1.384 . S
N449 C441 1.427 . S
N449 C447 1.384 . S
H450 C456 0.930 . S
H451 C460 0.930 . S
H452 C465 0.929 . S
H453 C463 0.929 . S
H454 C458 0.929 . S
H455 C464 0.929 . S
C456 H450 0.930 . S
C456 C457 1.367 . S
C456 C464 1.378 . S
C457 C456 1.367 . S
C457 C465 1.433 . S
C458 H454 0.929 . S
C458 C460 1.378 . S
C458 C462 1.350 . S
C459 C462 1.463 . S
C459 C464 1.350 . S
C459 N467 1.427 . S
C460 H451 0.930 . S
C460 C458 1.378 . S
C460 C461 1.367 . S
C461 C460 1.367 . S
C461 C463 1.433 . S
C462 C458 1.350 . S
C462 C459 1.463 . S
C462 N466 1.427 . S
C463 H453 0.929 . S
C463 C461 1.433 . S
C463 N466 1.384 . S
C464 H455 0.929 . S
C464 C456 1.378 . S
C464 C459 1.350 . S
C465 H452 0.929 . S
C465 C457 1.433 . S
C465 N467 1.384 . S
N466 C462 1.427 . S
N466 C463 1.384 . S
N467 C459 1.427 . S
N467 C465 1.384 . S
H468 C474 0.930 . S
H469 C478 0.930 1_554 S
H470 C483 0.929 . S
H471 C481 0.929 . S
H472 C476 0.929 1_554 S
H473 C482 0.929 . S
C474 H468 0.930 . S
C474 C475 1.367 . S
C474 C482 1.378 . S
C475 C474 1.367 . S
C475 C483 1.433 . S
C476 H472 0.929 1_556 S
C476 C478 1.378 . S
C476 C480 1.350 . S
C477 C480 1.463 . S
C477 C482 1.350 . S
C477 N485 1.427 . S
C478 H469 0.930 1_556 S
C478 C476 1.378 . S
C478 C479 1.367 . S
C479 C478 1.367 . S
C479 C481 1.433 . S
C480 C476 1.350 . S
C480 C477 1.463 . S
C480 N484 1.427 . S
C481 H471 0.929 . S
C481 C479 1.433 . S
C481 N484 1.384 . S
C482 H473 0.929 . S
C482 C474 1.378 . S
C482 C477 1.350 . S
C483 H470 0.929 . S
C483 C475 1.433 . S
C483 N485 1.384 . S
N484 C480 1.427 . S
N484 C481 1.384 . S
N485 C477 1.427 . S
N485 C483 1.384 . S
H486 C492 0.930 . S
H487 C496 0.930 . S
H488 C501 0.929 . S
H489 C499 0.929 . S
H490 C494 0.929 . S
H491 C500 0.929 . S
C492 H486 0.930 . S
C492 C493 1.367 . S
C492 C500 1.378 . S
C493 C492 1.367 . S
C493 C501 1.433 . S
C494 H490 0.929 . S
C494 C496 1.378 . S
C494 C498 1.350 . S
C495 C498 1.463 . S
C495 C500 1.350 . S
C495 N503 1.427 . S
C496 H487 0.930 . S
C496 C494 1.378 . S
C496 C497 1.367 . S
C497 C496 1.367 . S
C497 C499 1.433 . S
C498 C494 1.350 . S
C498 C495 1.463 . S
C498 N502 1.427 . S
C499 H489 0.929 . S
C499 C497 1.433 . S
C499 N502 1.384 . S
C500 H491 0.929 . S
C500 C492 1.378 . S
C500 C495 1.350 . S
C501 H488 0.929 . S
C501 C493 1.433 . S
C501 N503 1.384 . S
N502 C498 1.427 . S
N502 C499 1.384 . S
N503 C495 1.427 . S
N503 C501 1.384 . S
H504 C510 0.930 . S
H505 C514 0.930 . S
H506 C519 0.929 . S
H507 C517 0.929 . S
H508 C512 0.929 . S
H509 C518 0.929 . S
C510 H504 0.930 . S
C510 C511 1.367 . S
C510 C518 1.378 . S
C511 C510 1.367 . S
C511 C519 1.433 . S
C512 H508 0.929 . S
C512 C514 1.378 . S
C512 C516 1.350 . S
C513 C516 1.463 . S
C513 C518 1.350 . S
C513 N521 1.427 . S
C514 H505 0.930 . S
C514 C512 1.378 . S
C514 C515 1.367 . S
C515 C514 1.367 . S
C515 C517 1.433 . S
C516 C512 1.350 . S
C516 C513 1.463 . S
C516 N520 1.427 . S
C517 H507 0.929 . S
C517 C515 1.433 . S
C517 N520 1.384 . S
C518 H509 0.929 . S
C518 C510 1.378 . S
C518 C513 1.350 . S
C519 H506 0.929 . S
C519 C511 1.433 . S
C519 N521 1.384 . S
N520 C516 1.427 . S
N520 C517 1.384 . S
N521 C513 1.427 . S
N521 C519 1.384 . S
H522 C528 0.930 . S
H523 C532 0.930 . S
H524 C537 0.929 . S
H525 C535 0.929 . S
H526 C530 0.929 . S
H527 C536 0.929 . S
C528 H522 0.930 . S
C528 C529 1.367 . S
C528 C536 1.378 . S
C529 C528 1.367 . S
C529 C537 1.433 . S
C530 H526 0.929 . S
C530 C532 1.378 . S
C530 C534 1.350 . S
C531 C534 1.463 . S
C531 C536 1.350 . S
C531 N539 1.427 . S
C532 H523 0.930 . S
C532 C530 1.378 . S
C532 C533 1.367 . S
C533 C532 1.367 . S
C533 C535 1.433 . S
C534 C530 1.350 . S
C534 C531 1.463 . S
C534 N538 1.427 . S
C535 H525 0.929 . S
C535 C533 1.433 . S
C535 N538 1.384 . S
C536 H527 0.929 . S
C536 C528 1.378 . S
C536 C531 1.350 . S
C537 H524 0.929 . S
C537 C529 1.433 . S
C537 N539 1.384 . S
N538 C534 1.427 . S
N538 C535 1.384 . S
N539 C531 1.427 . S
N539 C537 1.384 . S
H540 C546 0.930 . S
H541 C550 0.930 . S
H542 C555 0.929 . S
H543 C553 0.929 . S
H544 C548 0.929 . S
H545 C554 0.929 1_554 S
C546 H540 0.930 . S
C546 C547 1.367 . S
C546 C554 1.378 . S
C547 C546 1.367 . S
C547 C555 1.433 . S
C548 H544 0.929 . S
C548 C550 1.378 . S
C548 C552 1.350 . S
C549 C552 1.463 . S
C549 C554 1.350 . S
C549 N557 1.427 . S
C550 H541 0.930 . S
C550 C548 1.378 . S
C550 C551 1.367 . S
C551 C550 1.367 . S
C551 C553 1.433 1_556 S
C552 C548 1.350 . S
C552 C549 1.463 . S
C552 N556 1.427 1_556 S
C553 H543 0.929 . S
C553 C551 1.433 1_554 S
C553 N556 1.384 . S
C554 H545 0.929 1_556 S
C554 C546 1.378 . S
C554 C549 1.350 . S
C555 H542 0.929 . S
C555 C547 1.433 . S
C555 N557 1.384 . S
N556 C552 1.427 1_554 S
N556 C553 1.384 . S
N557 C549 1.427 . S
N557 C555 1.384 . S
H558 C564 0.930 . S
H559 C568 0.930 . S
H560 C573 0.929 . S
H561 C571 0.929 . S
H562 C566 0.929 . S
H563 C572 0.929 . S
C564 H558 0.930 . S
C564 C565 1.367 . S
C564 C572 1.378 . S
C565 C564 1.367 . S
C565 C573 1.433 . S
C566 H562 0.929 . S
C566 C568 1.378 . S
C566 C570 1.350 . S
C567 C570 1.463 . S
C567 C572 1.350 . S
C567 N575 1.427 . S
C568 H559 0.930 . S
C568 C566 1.378 . S
C568 C569 1.367 . S
C569 C568 1.367 . S
C569 C571 1.433 . S
C570 C566 1.350 . S
C570 C567 1.463 . S
C570 N574 1.427 . S
C571 H561 0.929 . S
C571 C569 1.433 . S
C571 N574 1.384 . S
C572 H563 0.929 . S
C572 C564 1.378 . S
C572 C567 1.350 . S
C573 H560 0.929 . S
C573 C565 1.433 . S
C573 N575 1.384 . S
N574 C570 1.427 . S
N574 C571 1.384 . S
N575 C567 1.427 . S
N575 C573 1.384 . S
H576 C582 0.930 . S
H577 C586 0.930 1_655 S
H578 C591 0.929 . S
H579 C589 0.929 . S
H580 C584 0.929 . S
H581 C590 0.929 . S
C582 H576 0.930 . S
C582 C583 1.367 . S
C582 C590 1.378 . S
C583 C582 1.367 . S
C583 C591 1.433 . S
C584 H580 0.929 . S
C584 C586 1.378 . S
C584 C588 1.350 . S
C585 C588 1.463 . S
C585 C590 1.350 . S
C585 N593 1.427 . S
C586 H577 0.930 1_455 S
C586 C584 1.378 . S
C586 C587 1.367 . S
C587 C586 1.367 . S
C587 C589 1.433 . S
C588 C584 1.350 . S
C588 C585 1.463 . S
C588 N592 1.427 . S
C589 H579 0.929 . S
C589 C587 1.433 . S
C589 N592 1.384 . S
C590 H581 0.929 . S
C590 C582 1.378 . S
C590 C585 1.350 . S
C591 H578 0.929 . S
C591 C583 1.433 . S
C591 N593 1.384 . S
N592 C588 1.427 . S
N592 C589 1.384 . S
N593 C585 1.427 . S
N593 C591 1.384 . S
H594 C600 0.930 . S
H595 C604 0.930 . S
H596 C609 0.929 . S
H597 C607 0.929 . S
H598 C602 0.929 . S
H599 C608 0.929 . S
C600 H594 0.930 . S
C600 C601 1.367 . S
C600 C608 1.378 . S
C601 C600 1.367 . S
C601 C609 1.433 . S
C602 H598 0.929 . S
C602 C604 1.378 . S
C602 C606 1.350 . S
C603 C606 1.463 . S
C603 C608 1.350 . S
C603 N611 1.427 . S
C604 H595 0.930 . S
C604 C602 1.378 . S
C604 C605 1.367 . S
C605 C604 1.367 . S
C605 C607 1.433 . S
C606 C602 1.350 . S
C606 C603 1.463 . S
C606 N610 1.427 . S
C607 H597 0.929 . S
C607 C605 1.433 . S
C607 N610 1.384 . S
C608 H599 0.929 . S
C608 C600 1.378 . S
C608 C603 1.350 . S
C609 H596 0.929 . S
C609 C601 1.433 . S
C609 N611 1.384 . S
N610 C606 1.427 . S
N610 C607 1.384 . S
N611 C603 1.427 . S
N611 C609 1.384 . S
C187 C6 1.754 . S
C191 C114 1.700 . S
C205 C18 1.758 . S
C209 C131 1.715 . S
C227 C154 1.248 . S
C223 C28 1.473 . S
C241 C40 1.287 . S
C245 C175 1.048 . S
C263 C134 1.954 . S
C259 C9 2.010 . S
C281 C111 1.620 . S
C277 C16 1.667 . S
C299 C173 1.307 . S
C295 C30 1.379 . S
C317 C152 1.123 . S
C313 C42 1.145 . S
C331 C4 1.676 . S
C335 C176 1.629 . S
C353 C133 1.397 . S
C349 C33 1.662 . S
C367 C45 1.432 . S
C371 C109 1.271 . S
C385 C21 1.718 . S
C389 C155 1.691 . S
C407 C113 1.738 . S
C403 C57 1.830 . S
C421 C66 1.598 . S
C425 C132 1.551 . S
C439 C76 1.567 . S
C443 C151 1.342 . S
C457 C88 1.143 . S
C461 C172 0.932 . S
C475 C54 1.939 . S
C479 C135 1.889 . S
C497 C110 1.728 . S
C493 C64 1.770 . S
C515 C174 1.124 . S
C511 C78 1.189 . S
C533 C153 1.252 . S
C529 C93 1.285 . S
C547 C52 1.476 . S
C551 C177 1.424 . S
C569 C130 1.337 . S
C565 C81 1.561 . S
C587 C112 1.089 . S
C583 C90 1.242 . S
C601 C69 1.705 . S
C605 C156 1.662 . S
