# Generated by pormake.
# Topology anh, (6,3)-cn, num edge types: 1
# Building blocks:
#     Node 0, Type 0, BuildingBlock: BETFAJ_clean_sbu_0, # of connection points: 6
#     Node 1, Type 0, BuildingBlock: BETFAJ_clean_sbu_0, # of connection points: 6
#     Node 2, Type 0, BuildingBlock: BETFAJ_clean_sbu_0, # of connection points: 6
#     Node 3, Type 1, BuildingBlock: MIDCAF_clean_linker_0, # of connection points: 3
#     Node 4, Type 1, BuildingBlock: MIDCAF_clean_linker_0, # of connection points: 3
#     Node 5, Type 1, BuildingBlock: MIDCAF_clean_linker_0, # of connection points: 3
#     Node 6, Type 1, BuildingBlock: MIDCAF_clean_linker_0, # of connection points: 3
#     Node 7, Type 1, BuildingBlock: MIDCAF_clean_linker_0, # of connection points: 3
#     Node 8, Type 1, BuildingBlock: MIDCAF_clean_linker_0, # of connection points: 3
#     Edge 9, Type (0, 1), BuildingBlock: EZIPEK_clean_linker_0, # of connection points: 2
#     Edge 10, Type (0, 1), BuildingBlock: EZIPEK_clean_linker_0, # of connection points: 2
#     Edge 11, Type (0, 1), BuildingBlock: EZIPEK_clean_linker_0, # of connection points: 2
#     Edge 12, Type (0, 1), BuildingBlock: EZIPEK_clean_linker_0, # of connection points: 2
#     Edge 13, Type (0, 1), BuildingBlock: EZIPEK_clean_linker_0, # of connection points: 2
#     Edge 14, Type (0, 1), BuildingBlock: EZIPEK_clean_linker_0, # of connection points: 2
#     Edge 15, Type (0, 1), BuildingBlock: EZIPEK_clean_linker_0, # of connection points: 2
#     Edge 16, Type (0, 1), BuildingBlock: EZIPEK_clean_linker_0, # of connection points: 2
#     Edge 17, Type (0, 1), BuildingBlock: EZIPEK_clean_linker_0, # of connection points: 2
#     Edge 18, Type (0, 1), BuildingBlock: EZIPEK_clean_linker_0, # of connection points: 2
#     Edge 19, Type (0, 1), BuildingBlock: EZIPEK_clean_linker_0, # of connection points: 2
#     Edge 20, Type (0, 1), BuildingBlock: EZIPEK_clean_linker_0, # of connection points: 2
#     Edge 21, Type (0, 1), BuildingBlock: EZIPEK_clean_linker_0, # of connection points: 2
#     Edge 22, Type (0, 1), BuildingBlock: EZIPEK_clean_linker_0, # of connection points: 2
#     Edge 23, Type (0, 1), BuildingBlock: EZIPEK_clean_linker_0, # of connection points: 2
#     Edge 24, Type (0, 1), BuildingBlock: EZIPEK_clean_linker_0, # of connection points: 2
#     Edge 25, Type (0, 1), BuildingBlock: EZIPEK_clean_linker_0, # of connection points: 2
#     Edge 26, Type (0, 1), BuildingBlock: EZIPEK_clean_linker_0, # of connection points: 2
# Relax obj value: 0.215
# Max RMSD: 0.225
# Mean RMSD: 0.165
data_MOF--net-anh--node1-BETFAJ_clean_sbu_0--node2-MIDCAF_clean_linker_0--edge1-EZIPEK_clean_linker_0
_symmetry_space_group_name_H-M    P1
_symmetry_Int_Tables_number       1
_symmetry_cell_setting            triclinic
loop_
_symmetry_equiv_pos_as_xyz
'x, y, z'
_cell_length_a     30.637032
_cell_length_b     35.890286
_cell_length_c     52.408316
_cell_angle_alpha  91.853119
_cell_angle_beta   89.783287
_cell_angle_gamma 130.75257
loop_
_atom_site_label
_atom_site_type_symbol
_atom_site_fract_x
_atom_site_fract_y
_atom_site_fract_z
_atom_type_partial_charge
Sm0 Sm 0.1023 0.52485 0.14068 0.0
Sm1 Sm 1.02958 0.54849 0.14315 0.0
C2 C 0.16056 0.49513 0.13242 0.0
C3 C 0.21588 0.51325 0.14267 0.0
C4 C 0.24517 0.55061 0.16202 0.0
C5 C 0.29621 0.56565 0.17298 0.0
C6 C 0.31829 0.54359 0.16446 0.0
C7 C 0.28955 0.50705 0.14474 0.0
C8 C 0.23851 0.49187 0.13393 0.0
C9 C 0.08857 0.54302 0.19036 0.0
C10 C 0.17177 0.64174 0.14427 0.0
C11 C 0.96674 0.57236 0.15502 0.0
C12 C 0.91198 0.54258 0.16849 0.0
C13 C 0.90356 0.51471 0.18931 0.0
C14 C 0.84798 0.47681 0.19773 0.0
C15 C 0.80048 0.46585 0.18502 0.0
C16 C 0.80929 0.49601 0.16555 0.0
C17 C 0.86468 0.53423 0.15739 0.0
C18 C 1.04409 0.53032 0.09349 0.0
C19 C 0.96262 0.43302 0.14281 0.0
O20 O 0.16261 0.52442 0.11729 0.0
O21 O 0.11991 0.4757 0.14912 0.0
O22 O 0.04867 0.51758 0.17364 0.0
O23 O 0.13723 0.55938 0.18107 0.0
O24 O 0.17717 0.60869 0.13936 0.0
O25 O 0.12015 0.62779 0.14785 0.0
O26 O 1.01234 0.58842 0.16833 0.0
O27 O 0.96417 0.55426 0.13251 0.0
O28 O 0.08363 0.55596 0.1103 0.0
O29 O 0.99528 0.51405 0.10249 0.0
O30 O 0.96087 0.46633 0.1525 0.0
O31 O 1.01098 0.44752 0.13269 0.0
H32 H 0.22805 0.56751 0.16888 0.0
H33 H 0.31798 0.59381 0.18819 0.0
H34 H 0.30632 0.48974 0.13802 0.0
H35 H 0.21631 0.46301 0.11907 0.0
H36 H 0.93941 0.52009 0.19804 0.0
H37 H 0.84181 0.45418 0.21297 0.0
H38 H 0.77289 0.48817 0.15568 0.0
H39 H 0.8702 0.55492 0.14122 0.0
Sm40 Sm 0.61332 0.02201 0.46621 0.0
Sm41 Sm 0.53833 0.0475 0.46265 0.0
C42 C 0.66264 0.98652 0.47997 0.0
C43 C 0.64684 0.93838 0.48306 0.0
C44 C 0.59599 0.90017 0.49529 0.0
C45 C 0.58417 0.85618 0.49975 0.0
C46 C 0.62273 0.84971 0.49187 0.0
C47 C 0.67229 0.88706 0.47875 0.0
C48 C 0.68434 0.93117 0.47446 0.0
C49 C 0.59599 0.03518 0.41709 0.0
C50 C 0.47105 0.93012 0.46049 0.0
C51 C 0.49176 0.08637 0.45109 0.0
C52 C 0.50452 0.13229 0.4591 0.0
C53 C 0.48941 0.15304 0.44309 0.0
C54 C 0.5013 0.19665 0.45074 0.0
C55 C 0.52804 0.21966 0.47457 0.0
C56 C 0.54402 0.19935 0.4904 0.0
C57 C 0.53267 0.1561 0.48265 0.0
C58 C 0.55842 0.03777 0.5123 0.0
C59 C 0.68174 0.13886 0.46479 0.0
O60 O 0.64104 0.99889 0.49621 0.0
O61 O 0.66353 0.99875 0.45663 0.0
O62 O 0.55726 0.01235 0.43365 0.0
O63 O 0.64441 0.04897 0.42573 0.0
O64 O 0.52166 0.94411 0.4672 0.0
O65 O 0.46681 0.96338 0.45481 0.0
O66 O 0.53061 0.09137 0.43712 0.0
O67 O 0.47194 0.05412 0.46872 0.0
O68 O 0.5952 0.05811 0.4949 0.0
O69 O 0.51069 0.02583 0.50417 0.0
O70 O 0.6304 0.12455 0.45946 0.0
O71 O 0.68681 0.1064 0.47103 0.0
H72 H 0.56611 0.90469 0.50192 0.0
H73 H 0.54573 0.82769 0.50991 0.0
H74 H 0.70248 0.88259 0.47257 0.0
H75 H 0.72362 0.96011 0.46492 0.0
H76 H 0.4682 0.1354 0.42476 0.0
H77 H 0.48883 0.21201 0.43833 0.0
H78 H 0.56494 0.21685 0.50878 0.0
H79 H 0.54545 0.14102 0.49511 0.0
Sm80 Sm 0.60831 0.56786 0.83809 0.0
Sm81 Sm 0.52964 0.46007 0.83257 0.0
C82 C 0.67783 0.66398 0.83047 0.0
C83 C 0.66931 0.69962 0.82631 0.0
C84 C 0.61657 0.68358 0.81647 0.0
C85 C 0.61058 0.71762 0.80988 0.0
C86 C 0.6569 0.76846 0.81334 0.0
C87 C 0.70891 0.78445 0.82417 0.0
C88 C 0.71514 0.75034 0.83044 0.0
C89 C 0.56375 0.5215 0.88366 0.0
C90 C 0.46403 0.50936 0.83751 0.0
C91 C 0.47762 0.36488 0.83218 0.0
C92 C 0.49574 0.33538 0.82999 0.0
C93 C 0.54387 0.35166 0.81557 0.0
C94 C 0.55664 0.32105 0.81087 0.0
C95 C 0.52166 0.27362 0.82053 0.0
C96 C 0.47501 0.2581 0.83585 0.0
C97 C 0.46208 0.2887 0.84047 0.0
C98 C 0.54736 0.50511 0.78757 0.0
C99 C 0.67524 0.5193 0.83678 0.0
O100 O 0.65776 0.6304 0.81224 0.0
O101 O 0.66788 0.64615 0.85319 0.0
O102 O 0.58216 0.5103 0.86628 0.0
O103 O 0.57044 0.55978 0.87781 0.0
O104 O 0.51763 0.55049 0.83223 0.0
O105 O 0.45845 0.46943 0.84163 0.0
O106 O 0.49081 0.39108 0.85329 0.0
O107 O 0.48499 0.3884 0.81193 0.0
O108 O 0.58593 0.51849 0.80379 0.0
O109 O 0.49725 0.46692 0.7951 0.0
O110 O 0.62087 0.47716 0.83202 0.0
O111 O 0.68194 0.56021 0.84071 0.0
H112 H 0.58032 0.64472 0.8133 0.0
H113 H 0.57 0.7043 0.80167 0.0
H114 H 0.74517 0.82343 0.82713 0.0
H115 H 0.75619 0.76364 0.83797 0.0
H116 H 0.57051 0.38741 0.80718 0.0
H117 H 0.59284 0.33382 0.79904 0.0
H118 H 0.44752 0.22168 0.84351 0.0
H119 H 0.42471 0.27528 0.85156 0.0
C120 C 0.42593 0.85736 0.17376 0.0
C121 C 0.38474 0.84918 0.15688 0.0
C122 C 0.39653 0.89056 0.14628 0.0
C123 C 0.44711 0.939 0.15347 0.0
H124 H 0.66337 0.10548 0.13912 0.0
H125 H 0.74745 0.18784 0.12474 0.0
H126 H 0.75051 0.2537 0.19558 0.0
H127 H 0.66786 0.17299 0.20992 0.0
H128 H 0.66137 0.1037 0.2588 0.0
H129 H 0.6619 0.09991 0.30538 0.0
H130 H 0.48353 0.96685 0.30212 0.0
H131 H 0.48296 0.96948 0.25548 0.0
H132 H 0.50494 0.90982 0.19506 0.0
H133 H 0.41827 0.82647 0.18225 0.0
H134 H 0.36547 0.88545 0.13328 0.0
H135 H 0.45326 0.97001 0.14619 0.0
N136 N 0.57188 0.03953 0.17285 0.0
N137 N 0.61149 0.08062 0.21307 0.0
N138 N 0.53284 0.99626 0.21088 0.0
C139 C 0.61224 0.08242 0.18714 0.0
C140 C 0.57211 0.03804 0.22507 0.0
C141 C 0.53185 0.99602 0.18497 0.0
C142 C 0.65838 0.13191 0.17582 0.0
C143 C 0.68132 0.13755 0.15144 0.0
C144 C 0.72969 0.18474 0.14324 0.0
C145 C 0.7559 0.2274 0.15911 0.0
C146 C 0.73167 0.22179 0.18294 0.0
C147 C 0.68402 0.17513 0.19113 0.0
C148 C 0.57219 0.0368 0.25338 0.0
C149 C 0.62221 0.07363 0.26796 0.0
C150 C 0.62264 0.07148 0.29458 0.0
C151 C 0.57284 0.03297 0.30719 0.0
C152 C 0.5225 0.99668 0.29275 0.0
C153 C 0.52234 0.99827 0.2661 0.0
C154 C 0.48675 0.94698 0.17149 0.0
C155 C 0.47584 0.9053 0.18098 0.0
C156 C 0.59078 0.40548 0.54156 0.0
C157 C 0.5702 0.39211 0.51622 0.0
C158 C 0.5574 0.41797 0.50364 0.0
C159 C 0.56356 0.45599 0.51657 0.0
H160 H 0.60189 0.59557 0.50916 0.0
H161 H 0.61023 0.6616 0.49021 0.0
H162 H 0.55447 0.68331 0.56042 0.0
H163 H 0.54626 0.61799 0.57958 0.0
H164 H 0.51958 0.54728 0.62897 0.0
H165 H 0.51532 0.54233 0.67557 0.0
H166 H 0.6397 0.52232 0.67485 0.0
H167 H 0.64184 0.52469 0.62809 0.0
H168 H 0.61121 0.45174 0.57431 0.0
H169 H 0.60075 0.38576 0.55151 0.0
H170 H 0.54128 0.40788 0.48407 0.0
H171 H 0.55191 0.47448 0.50662 0.0
N172 N 0.57845 0.53528 0.54502 0.0
N173 N 0.57602 0.56615 0.58467 0.0
N174 N 0.58421 0.50565 0.58304 0.0
C175 C 0.57548 0.56639 0.55876 0.0
C176 C 0.58074 0.53618 0.59689 0.0
C177 C 0.58252 0.50457 0.55708 0.0
C178 C 0.57402 0.60183 0.54599 0.0
C179 C 0.59049 0.61383 0.52043 0.0
C180 C 0.59526 0.65147 0.50956 0.0
C181 C 0.58303 0.67718 0.524 0.0
C182 C 0.56403 0.66376 0.54904 0.0
C183 C 0.55965 0.62654 0.55995 0.0
C184 C 0.58074 0.53601 0.62502 0.0
C185 C 0.54612 0.54198 0.6388 0.0
C186 C 0.54369 0.53923 0.66536 0.0
C187 C 0.57715 0.53192 0.67863 0.0
C188 C 0.61343 0.5278 0.66494 0.0
C189 C 0.61447 0.52899 0.6383 0.0
C190 C 0.58199 0.46825 0.54236 0.0
C191 C 0.59649 0.4431 0.55454 0.0
C192 C 0.88424 0.49606 0.8651 0.0
C193 C 0.87934 0.51607 0.84347 0.0
C194 C 0.92455 0.53337 0.82553 0.0
C195 C 0.9711 0.532 0.82952 0.0
H196 H 0.14364 0.49317 0.81386 0.0
H197 H 0.22189 0.49028 0.80668 0.0
H198 H 0.27822 0.5361 0.8848 0.0
H199 H 0.20347 0.53999 0.89193 0.0
H200 H 0.13315 0.51304 0.93538 0.0
H201 H 0.13046 0.5156 0.98219 0.0
H202 H 1.01067 0.54022 0.97817 0.0
H203 H 1.01247 0.53744 0.93158 0.0
H204 H 0.92802 0.47826 0.88641 0.0
H205 H 0.85245 0.48172 0.8798 0.0
H206 H 0.92499 0.54945 0.80831 0.0
H207 H 1.00427 0.54799 0.81539 0.0
N208 N 0.06989 0.5149 0.84857 0.0
N209 N 0.11022 0.52033 0.88858 0.0
N210 N 1.03368 0.51994 0.88742 0.0
C211 C 0.11194 0.51714 0.86269 0.0
C212 C 0.07258 0.5219 0.90101 0.0
C213 C 1.02932 0.51626 0.86155 0.0
C214 C 0.16301 0.51687 0.85387 0.0
C215 C 0.17249 0.50328 0.82972 0.0
C216 C 0.21874 0.50141 0.82555 0.0
C217 C 0.25948 0.51255 0.84509 0.0
C218 C 0.25001 0.52651 0.86874 0.0
C219 C 0.20496 0.52867 0.87281 0.0
C220 C 0.07292 0.5249 0.92952 0.0
C221 C 0.10637 0.51921 0.94439 0.0
C222 C 0.10491 0.52062 0.97116 0.0
C223 C 0.07038 0.52811 0.98359 0.0
C224 C 1.03761 0.53443 0.96892 0.0
C225 C 1.0387 0.53272 0.94222 0.0
C226 C 0.97602 0.51233 0.85169 0.0
C227 C 0.92945 0.49407 0.86886 0.0
C228 C 0.26864 0.6929 0.4285 0.0
C229 C 0.26547 0.71935 0.44755 0.0
C230 C 0.21336 0.69456 0.46075 0.0
C231 C 0.16469 0.64506 0.45403 0.0
H232 H 1.01733 0.45241 0.46796 0.0
H233 H 0.93681 0.36913 0.48275 0.0
H234 H 0.83622 0.3402 0.41587 0.0
H235 H 0.91466 0.42213 0.4013 0.0
H236 H 0.98212 0.45588 0.34908 0.0
H237 H 0.98177 0.45515 0.30228 0.0
H238 H 0.14654 0.6024 0.30439 0.0
H239 H 0.14767 0.60385 0.35098 0.0
H240 H 0.22425 0.62577 0.40619 0.0
H241 H 0.30806 0.71078 0.41809 0.0
H242 H 0.20968 0.71407 0.47555 0.0
H243 H 0.12435 0.62792 0.46345 0.0
N244 N 0.06987 0.53233 0.43457 0.0
N245 N 1.02267 0.49121 0.39516 0.0
N246 N 0.11173 0.57078 0.39564 0.0
C247 C 1.02342 0.49104 0.42112 0.0
C248 C 0.06631 0.53064 0.38228 0.0
C249 C 0.11445 0.57264 0.42154 0.0
C250 C 0.97319 0.4444 0.43328 0.0
C251 C 0.97762 0.42873 0.45672 0.0
C252 C 0.93163 0.38094 0.46513 0.0
C253 C 0.88031 0.34796 0.45031 0.0
C254 C 0.87513 0.3645 0.42762 0.0
C255 C 0.92052 0.41173 0.4193 0.0
C256 C 0.06501 0.5299 0.35391 0.0
C257 C 1.01831 0.4882 0.33965 0.0
C258 C 1.01792 0.48763 0.31292 0.0
C259 C 0.06418 0.52868 0.30002 0.0
C260 C 0.11052 0.5704 0.31409 0.0
C261 C 0.11099 0.57105 0.34075 0.0
C262 C 0.16726 0.61953 0.43394 0.0
C263 C 0.22048 0.64398 0.42182 0.0
C264 C 0.58678 0.15742 0.75813 0.0
C265 C 0.57073 0.14986 0.78374 0.0
C266 C 0.56649 0.11398 0.79677 0.0
C267 C 0.57703 0.08541 0.7841 0.0
H268 H 0.63744 1.0011 0.79085 0.0
H269 H 0.65067 0.94729 0.80993 0.0
H270 H 0.60157 0.86565 0.73819 0.0
H271 H 0.58932 0.9194 0.71888 0.0
H272 H 0.60079 0.97157 0.66718 0.0
H273 H 0.59462 0.97225 0.6205 0.0
H274 H 0.59543 0.09258 0.62787 0.0
H275 H 0.6016 0.09248 0.67423 0.0
H276 H 0.60853 0.1357 0.72559 0.0
H277 H 0.5903 0.18485 0.74771 0.0
H278 H 0.55394 0.10746 0.81655 0.0
H279 H 0.57228 0.05734 0.79443 0.0
N280 N 0.60262 0.02874 0.75511 0.0
N281 N 0.60663 0.99986 0.71489 0.0
N282 N 0.59829 0.06013 0.71751 0.0
C283 C 0.60702 0.99871 0.74088 0.0
C284 C 0.60247 0.03061 0.70304 0.0
C285 C 0.59816 0.05964 0.74341 0.0
C286 C 0.6125 0.96491 0.75324 0.0
C287 C 0.62914 0.97155 0.77915 0.0
C288 C 0.6368 0.94083 0.79011 0.0
C289 C 0.62711 0.90234 0.77551 0.0
C290 C 0.60938 0.89506 0.74984 0.0
C291 C 0.6025 0.92603 0.73882 0.0
C292 C 0.60137 0.03177 0.67464 0.0
C293 C 0.60005 0.99843 0.65891 0.0
C294 C 0.5966 0.99875 0.63223 0.0
C295 C 0.59453 0.03245 0.62079 0.0
C296 C 0.59704 0.06634 0.63633 0.0
C297 C 0.60039 0.06603 0.66291 0.0
C298 C 0.59154 0.09203 0.75811 0.0
C299 C 0.59703 0.12899 0.74549 0.0
C300 C 0.61706 0.37482 0.12653 0.0
C301 C 0.59034 0.35098 0.14935 0.0
C302 C 0.53151 0.32561 0.15214 0.0
C303 C 0.5027 0.33146 0.13434 0.0
H304 H 0.42087 0.4566 0.09704 0.0
H305 H 0.40437 0.50167 0.12514 0.0
H306 H 0.51411 0.51593 0.18341 0.0
H307 H 0.52905 0.46877 0.15557 0.0
H308 H 0.46236 0.45316 0.03905 0.0
H309 H 0.47948 0.47722 -0.00528 0.0
H310 H 0.58249 0.43538 0.98578 0.0
H311 H 0.56551 0.41076 0.03039 0.0
H312 H 0.61122 0.40229 0.09229 0.0
H313 H 0.66232 0.39397 0.12387 0.0
H314 H 0.50992 0.30607 0.16934 0.0
H315 H 0.45937 0.31677 0.1383 0.0
N316 N 0.49709 0.40473 0.11668 0.0
N317 N 0.48981 0.4391 0.08162 0.0
N318 N 0.51762 0.39208 0.07567 0.0
C319 C 0.48618 0.43247 0.10707 0.0
C320 C 0.50535 0.41905 0.06574 0.0
C321 C 0.51188 0.38381 0.10113 0.0
C322 C 0.47555 0.45877 0.12429 0.0
C323 C 0.44122 0.46907 0.11587 0.0
C324 C 0.43202 0.49492 0.13185 0.0
C325 C 0.45786 0.51178 0.15634 0.0
C326 C 0.49342 0.50269 0.16467 0.0
C327 C 0.50156 0.47564 0.14884 0.0
C328 C 0.51271 0.4301 0.03831 0.0
C329 C 0.48858 0.44885 0.02774 0.0
C330 C 0.49828 0.4627 0.00242 0.0
C331 C 0.53251 0.45837 0.98723 0.0
C332 C 0.55615 0.43911 -0.00258 0.0
C333 C 0.54609 0.42482 0.0228 0.0
C334 C 0.53193 0.36089 0.11319 0.0
C335 C 0.58778 0.37932 0.10838 0.0
C336 C 0.36205 0.52131 0.1922 0.0
C337 C 0.37036 0.5562 0.17616 0.0
C338 C 0.46309 0.58263 0.16365 0.0
C339 C 0.44506 0.53786 0.17261 0.0
N340 N 0.38606 0.47032 0.20059 0.0
N341 N 0.4334 0.62816 0.15153 0.0
C342 C 0.39839 0.51 0.18944 0.0
C343 C 0.42359 0.59075 0.16417 0.0
N344 N 0.31723 0.49732 0.2086 0.0
N345 N 0.51601 0.61475 0.15305 0.0
H346 H 0.40475 0.63461 0.15237 0.0
H347 H 0.4689 0.65214 0.14019 0.0
H348 H 0.54411 0.60768 0.15243 0.0
H349 H 0.53336 0.64915 0.14678 0.0
H350 H 0.30962 0.47275 0.22182 0.0
H351 H 0.29029 0.50556 0.21016 0.0
H352 H 0.34904 0.44508 0.21085 0.0
H353 H 0.41333 0.46248 0.19924 0.0
C354 C 0.73652 0.23012 0.47489 0.0
C355 C 0.73486 0.1928 0.46307 0.0
C356 C 0.8339 0.25811 0.44803 0.0
C357 C 0.83263 0.29507 0.45718 0.0
N358 N 0.77994 0.3161 0.47706 0.0
N359 N 0.7792 0.17302 0.43397 0.0
C360 C 0.7831 0.28095 0.47 0.0
C361 C 0.7831 0.20727 0.44869 0.0
N362 N 0.69473 0.21729 0.49162 0.0
N363 N 0.88384 0.27157 0.43851 0.0
H364 H 0.74244 0.13597 0.43274 0.0
H365 H 0.81011 0.18202 0.42085 0.0
H366 H 0.92126 0.30821 0.43697 0.0
H367 H 0.88972 0.24656 0.43427 0.0
H368 H 0.69644 0.24276 0.50279 0.0
H369 H 0.66082 0.18103 0.49623 0.0
H370 H 0.7424 0.30796 0.48344 0.0
H371 H 0.81406 0.35361 0.47495 0.0
C372 C 0.61181 0.80764 0.81659 0.0
C373 C 0.65135 0.80474 0.80469 0.0
C374 C 0.6816 0.87183 0.77706 0.0
C375 C 0.63698 0.87024 0.78662 0.0
N376 N 0.55345 0.83084 0.81291 0.0
N377 N 0.71644 0.82819 0.7702 0.0
C378 C 0.60047 0.83665 0.80577 0.0
C379 C 0.68438 0.83536 0.78403 0.0
N380 N 0.58624 0.78375 0.83866 0.0
N381 N 0.72245 0.90905 0.76181 0.0
H382 H 0.71868 0.80119 0.77418 0.0
H383 H 0.73631 0.84578 0.75329 0.0
H384 H 0.72258 0.93697 0.75667 0.0
H385 H 0.75928 0.91502 0.75642 0.0
H386 H 0.56165 0.78849 0.84963 0.0
H387 H 0.59409 0.76281 0.84733 0.0
H388 H 0.52181 0.80315 0.82468 0.0
H389 H 0.54325 0.85089 0.8053 0.0
C390 C 0.70359 0.42794 0.19984 0.0
C391 C 0.74066 0.42102 0.18987 0.0
C392 C 0.65912 0.34463 0.16796 0.0
C393 C 0.6278 0.36068 0.17108 0.0
N394 N 0.61433 0.412 0.19398 0.0
N395 N 0.75326 0.36754 0.16971 0.0
C396 C 0.6472 0.39945 0.18912 0.0
C397 C 0.71776 0.37663 0.17631 0.0
N398 N 0.72418 0.46377 0.21839 0.0
N399 N 0.63325 0.30043 0.15559 0.0
H400 H 0.796 0.39005 0.17616 0.0
H401 H 0.74072 0.3381 0.15789 0.0
H402 H 0.59025 0.27764 0.14929 0.0
H403 H 0.6522 0.28485 0.15334 0.0
H404 H 0.69881 0.46934 0.22786 0.0
H405 H 0.76622 0.48504 0.22576 0.0
H406 H 0.62922 0.4438 0.20426 0.0
H407 H 0.57201 0.39094 0.18731 0.0
C408 C 0.38154 0.85732 0.43557 0.0
C409 C 0.41853 0.87563 0.45757 0.0
C410 C 0.35616 0.7902 0.47267 0.0
C411 C 0.31621 0.77359 0.45223 0.0
N412 N 0.28639 0.79355 0.41657 0.0
N413 N 0.43631 0.85858 0.49882 0.0
C414 C 0.32757 0.80795 0.43448 0.0
C415 C 0.40462 0.84174 0.47656 0.0
N416 N 0.39964 0.8858 0.41476 0.0
N417 N 0.34891 0.75646 0.48796 0.0
H418 H 0.47295 0.89506 0.50245 0.0
H419 H 0.42393 0.83694 0.51458 0.0
H420 H 0.31339 0.71888 0.48618 0.0
H421 H 0.38006 0.7651 0.50108 0.0
H422 H 0.37717 0.87272 0.39732 0.0
H423 H 0.4404 0.92049 0.41376 0.0
H424 H 0.28947 0.81811 0.4049 0.0
H425 H 0.24666 0.75781 0.41502 0.0
C426 C 0.58102 0.2477 0.82289 0.0
C427 C 0.53188 0.23925 0.81311 0.0
C428 C 0.50271 0.16603 0.78884 0.0
C429 C 0.55539 0.17811 0.796 0.0
N430 N 0.64765 0.23299 0.81798 0.0
N431 N 0.4501 0.1944 0.78382 0.0
C432 C 0.59526 0.2195 0.81268 0.0
C433 C 0.49358 0.19926 0.79541 0.0
N434 N 0.61337 0.28202 0.84231 0.0
N435 N 0.46094 0.12228 0.77603 0.0
H436 H 0.44213 0.21813 0.7878 0.0
H437 H 0.425 0.16951 0.76864 0.0
H438 H 0.46612 0.09704 0.77093 0.0
H439 H 0.41934 0.10892 0.7726 0.0
H440 H 0.64625 0.28663 0.85206 0.0
H441 H 0.60411 0.30319 0.85019 0.0
H442 H 0.68123 0.26593 0.82753 0.0
H443 H 0.65904 0.21273 0.81128 0.0
C444 C 0.56883 0.75886 0.48697 0.0
C445 C 0.61349 0.80536 0.49907 0.0
C446 C 0.64356 0.76848 0.52382 0.0
C447 C 0.59496 0.72122 0.514 0.0
N448 N 0.50729 0.67002 0.48844 0.0
N449 N 0.68723 0.8533 0.53216 0.0
C450 C 0.5565 0.71596 0.49608 0.0
C451 C 0.64934 0.80992 0.51832 0.0
N452 N 0.53925 0.75594 0.46642 0.0
N453 N 0.68494 0.7739 0.53797 0.0
H454 H 0.69238 0.88451 0.52902 0.0
H455 H 0.70975 0.85707 0.5483 0.0
H456 H 0.68243 0.74439 0.5423 0.0
H457 H 0.72427 0.80803 0.54334 0.0
H458 H 0.5103 0.72396 0.45515 0.0
H459 H 0.54717 0.78663 0.45931 0.0
H460 H 0.47439 0.66368 0.47765 0.0
H461 H 0.49734 0.63786 0.49446 0.0
C462 C 0.77379 0.54622 0.85765 0.0
C463 C 0.72914 0.51994 0.8379 0.0
C464 C 0.7813 0.48938 0.8222 0.0
C465 C 0.82834 0.51881 0.84066 0.0
N466 N 0.87017 0.58216 0.87365 0.0
N467 N 0.70083 0.47271 0.79833 0.0
C468 C 0.82422 0.54892 0.85762 0.0
C469 C 0.73608 0.49315 0.81954 0.0
N470 N 0.76684 0.56692 0.87776 0.0
N471 N 0.77812 0.45569 0.80739 0.0
H472 H 0.66967 0.47565 0.79505 0.0
H473 H 0.70629 0.45739 0.78279 0.0
H474 H 0.80944 0.45233 0.8083 0.0
H475 H 0.74237 0.42847 0.79595 0.0
H476 H 0.79266 0.58143 0.89426 0.0
H477 H 0.73152 0.56506 0.87913 0.0
H478 H 0.87472 0.60952 0.88434 0.0
H479 H 0.90652 0.58536 0.87437 0.0
C480 C 0.239 0.72256 0.1703 0.0
C481 C 0.22525 0.69565 0.14679 0.0
C482 C 0.31667 0.76964 0.12943 0.0
C483 C 0.32785 0.79736 0.1523 0.0
N484 N 0.29332 0.80227 0.19254 0.0
N485 N 0.24737 0.69604 0.10257 0.0
C486 C 0.28691 0.77436 0.17208 0.0
C487 C 0.26318 0.71996 0.12595 0.0
N488 N 0.20853 0.69808 0.19152 0.0
N489 N 0.35809 0.7902 0.11134 0.0
H490 H 0.20922 0.65985 0.09937 0.0
H491 H 0.26958 0.71313 0.08595 0.0
H492 H 0.39689 0.82646 0.11299 0.0
H493 H 0.35585 0.77047 0.09563 0.0
H494 H 0.21995 0.71452 0.2098 0.0
H495 H 0.17555 0.66003 0.19133 0.0
H496 H 0.26191 0.78886 0.20624 0.0
H497 H 0.32761 0.84012 0.19455 0.0
C498 C 0.49235 0.25902 0.49534 0.0
C499 C 0.53781 0.26433 0.4835 0.0
C500 C 0.602 0.35416 0.48986 0.0
C501 C 0.55813 0.34846 0.50364 0.0
N502 N 0.46327 0.29631 0.52147 0.0
N503 N 0.63682 0.31546 0.47077 0.0
C504 C 0.5036 0.3011 0.50678 0.0
C505 C 0.59291 0.31157 0.48103 0.0
N506 N 0.43828 0.2137 0.49543 0.0
N507 N 0.65192 0.4004 0.48494 0.0
H508 H 0.63108 0.28529 0.4631 0.0
H509 H 0.67963 0.34794 0.47108 0.0
H510 H 0.6603 0.43228 0.4916 0.0
H511 H 0.68337 0.40745 0.47283 0.0
H512 H 0.40175 0.20803 0.50099 0.0
H513 H 0.42885 0.18161 0.48833 0.0
H514 H 0.42551 0.26273 0.52722 0.0
H515 H 0.46893 0.32633 0.52933 0.0
C516 C 0.36622 0.4837 0.858 0.0
C517 C 0.41003 0.50872 0.83881 0.0
C518 C 0.3572 0.53848 0.82424 0.0
C519 C 0.31061 0.50983 0.84191 0.0
N520 N 0.26934 0.4466 0.87242 0.0
N521 N 0.43547 0.55263 0.80008 0.0
C522 C 0.31531 0.4803 0.8578 0.0
C523 C 0.40194 0.53414 0.82113 0.0
N524 N 0.37434 0.46492 0.87781 0.0
N525 N 0.36074 0.57219 0.81074 0.0
H526 H 0.46571 0.54872 0.79631 0.0
H527 H 0.42887 0.56677 0.785 0.0
H528 H 0.33042 0.57664 0.81225 0.0
H529 H 0.39629 0.59868 0.80001 0.0
H530 H 0.34893 0.45141 0.89394 0.0
H531 H 0.41037 0.46788 0.87949 0.0
H532 H 0.2657 0.41987 0.88215 0.0
H533 H 0.23201 0.44197 0.87259 0.0
C534 C 0.91299 0.3496 0.16163 0.0
C535 C 0.9109 0.37883 0.14484 0.0
C536 C 0.80766 0.30734 0.13549 0.0
C537 C 0.81027 0.27801 0.15195 0.0
N538 N 0.86826 0.26822 0.17642 0.0
N539 N 0.8589 0.38352 0.11273 0.0
C540 C 0.86392 0.29837 0.16369 0.0
C541 C 0.85887 0.35699 0.13088 0.0
N542 N 0.96109 0.37139 0.17667 0.0
N543 N 0.75571 0.28809 0.12484 0.0
H544 H 0.89521 0.41962 0.10903 0.0
H545 H 0.82472 0.36899 0.10003 0.0
H546 H 0.71805 0.25192 0.12736 0.0
H547 H 0.74877 0.30837 0.11476 0.0
H548 H 0.9632 0.35406 0.19155 0.0
H549 H 0.99786 0.40835 0.1756 0.0
H550 H 0.90713 0.27902 0.18311 0.0
H551 H 0.83348 0.23079 0.17831 0.0
C552 C 1.02237 0.4842 0.0516 0.0
C553 C 0.05369 0.52993 0.06558 0.0
C554 C 0.10255 0.57373 0.02633 0.0
C555 C 0.06712 0.52837 0.01202 0.0
N556 N 0.9889 0.44057 0.01026 0.0
N557 N 0.11499 0.61848 0.06518 0.0
C558 C 1.02588 0.48359 0.02447 0.0
C559 C 0.0919 0.57485 0.05272 0.0
N560 N 0.99049 0.44129 0.06434 0.0
N561 N 0.14668 0.61582 0.0147 0.0
H562 H 0.10628 0.621 0.0841 0.0
H563 H 0.13824 0.65177 0.05611 0.0
H564 H 0.15494 0.61653 -0.00469 0.0
H565 H 0.17801 0.64906 0.02466 0.0
H566 H 0.97191 0.40721 0.05567 0.0
H567 H 0.98631 0.4401 0.08409 0.0
H568 H 0.95331 0.40766 0.01775 0.0
H569 H 0.99143 0.43837 0.99049 0.0
C570 C 0.56707 0.9908 0.37429 0.0
C571 C 0.58407 0.03212 0.38935 0.0
C572 C 0.58285 0.06894 0.35104 0.0
C573 C 0.57368 0.03105 0.3356 0.0
N574 N 0.56555 0.95943 0.33235 0.0
N575 N 0.61687 0.11419 0.39172 0.0
C576 C 0.56758 0.99261 0.34717 0.0
C577 C 0.5943 0.07221 0.37764 0.0
N578 N 0.55051 0.94984 0.38587 0.0
N579 N 0.57902 0.10102 0.3404 0.0
H580 H 0.62576 0.11792 0.41123 0.0
H581 H 0.63123 0.14659 0.3837 0.0
H582 H 0.56951 0.09914 0.32107 0.0
H583 H 0.57958 0.12627 0.35114 0.0
H584 H 0.5317 0.91666 0.37599 0.0
H585 H 0.55099 0.94763 0.40565 0.0
H586 H 0.56743 0.93395 0.3398 0.0
H587 H 0.56726 0.96012 0.31249 0.0
C588 C 0.55259 0.47822 0.74392 0.0
C589 C 0.55914 0.51414 0.76004 0.0
C590 C 0.58699 0.5655 0.7233 0.0
C591 C 0.57217 0.52637 0.70678 0.0
N592 N 0.52867 0.44104 0.7014 0.0
N593 N 0.57409 0.58877 0.76471 0.0
C594 C 0.55169 0.48146 0.71708 0.0
C595 C 0.57407 0.55701 0.74965 0.0
N596 N 0.54868 0.44165 0.75419 0.0
N597 N 0.61496 0.6111 0.71402 0.0
H598 H 0.56422 0.58315 0.78401 0.0
H599 H 0.57893 0.61804 0.75762 0.0
H600 H 0.6266 0.61908 0.69495 0.0
H601 H 0.63156 0.64203 0.72566 0.0
H602 H 0.54934 0.41729 0.74321 0.0
H603 H 0.55128 0.43909 0.7738 0.0
H604 H 0.50799 0.40622 0.70824 0.0
H605 H 0.52465 0.44095 0.68163 0.0
C606 C 0.62338 0.07437 0.55228 0.0
C607 C 0.56983 0.03528 0.53974 0.0
C608 C 0.53216 0.99461 0.58081 0.0
C609 C 0.58707 0.0313 0.59257 0.0
N610 N 0.68818 0.10026 0.58837 0.0
N611 N 0.4771 0.95287 0.54167 0.0
C612 C 0.63374 0.06919 0.57788 0.0
C613 C 0.52537 0.99385 0.55391 0.0
N614 N 0.66283 0.11804 0.54072 0.0
N615 N 0.4857 0.96145 0.59546 0.0
H616 H 0.46961 0.95002 0.5221 0.0
H617 H 0.44687 0.91972 0.55059 0.0
H618 H 0.48873 0.96025 0.61518 0.0
H619 H 0.44338 0.93783 0.58838 0.0
H620 H 0.69973 0.14914 0.55007 0.0
H621 H 0.65591 0.12554 0.52293 0.0
H622 H 0.72483 0.12525 0.57778 0.0
H623 H 0.69718 0.09771 0.60711 0.0
C624 C 0.50696 0.45678 0.9163 0.0
C625 C 0.5565 0.50521 0.91014 0.0
C626 C 0.59087 0.52302 0.95472 0.0
C627 C 0.5428 0.47384 0.96046 0.0
N628 N 0.46028 0.39136 0.94638 0.0
N629 N 0.65158 0.58095 0.92202 0.0
C630 C 0.50243 0.43992 0.94111 0.0
C631 C 0.60018 0.53747 0.92896 0.0
N632 N 0.46314 0.42746 0.8987 0.0
N633 N 0.62691 0.55617 0.97399 0.0
H634 H 0.66048 0.59257 0.9033 0.0
H635 H 0.68732 0.60349 0.93432 0.0
H636 H 0.62268 0.54651 0.99295 0.0
H637 H 0.65856 0.59385 0.97149 0.0
H638 H 0.42293 0.39425 0.90286 0.0
H639 H 0.46558 0.43807 0.8802 0.0
H640 H 0.43355 0.36373 0.93246 0.0
H641 H 0.45488 0.37787 0.96451 0.0
C642 C 0.08194 0.50438 0.23097 0.0
C643 C 0.07804 0.53647 0.21819 0.0
C644 C 0.05408 0.55551 0.2585 0.0
C645 C 0.06495 0.52832 0.27167 0.0
N646 N 0.09576 0.48131 0.27116 0.0
N647 N 0.06914 0.59838 0.22032 0.0
C648 C 0.08036 0.50369 0.25809 0.0
C649 C 0.06606 0.56338 0.23207 0.0
N650 N 0.08601 0.47382 0.21717 0.0
N651 N 1.03156 0.57325 0.27122 0.0
H652 H 0.0796 0.60601 0.20122 0.0
H653 H 0.06684 0.62287 0.22995 0.0
H654 H 1.02251 0.56832 0.29064 0.0
H655 H 1.01703 0.58888 0.26213 0.0
H656 H 0.08238 0.44572 0.22515 0.0
H657 H 0.08812 0.47368 0.19734 0.0
H658 H 0.114 0.46787 0.26257 0.0
H659 H 0.09442 0.4794 0.291 0.0
loop_
_geom_bond_atom_site_label_1
_geom_bond_atom_site_label_2
_geom_bond_distance
_geom_bond_site_symmetry_2
_ccdc_geom_bond_type
Sm0 C2 2.846 . S
Sm0 O20 2.543 . S
Sm0 O21 2.450 . S
Sm0 O22 2.681 . S
Sm0 O23 2.464 . S
Sm0 O24 2.396 . S
Sm0 O28 2.386 . S
Sm0 O31 2.408 1_455 S
Sm1 C11 2.846 . S
Sm1 O22 2.386 1_655 S
Sm1 O25 2.408 1_655 S
Sm1 O26 2.543 . S
Sm1 O27 2.450 . S
Sm1 O28 2.681 1_655 S
Sm1 O29 2.464 . S
Sm1 O30 2.396 . S
C2 Sm0 2.846 . S
C2 C3 1.506 . S
C2 O20 1.261 . S
C2 O21 1.242 . S
C3 C2 1.506 . S
C3 C4 1.358 . S
C3 C8 1.382 . S
C4 C3 1.358 . S
C4 C5 1.385 . S
C4 H32 0.930 . S
C5 C4 1.385 . S
C5 C6 1.395 . S
C5 H33 0.929 . S
C6 C5 1.395 . S
C6 C7 1.335 . S
C7 C6 1.335 . S
C7 C8 1.398 . S
C7 H34 0.930 . S
C8 C3 1.382 . S
C8 C7 1.398 . S
C8 H35 0.929 . S
C9 O22 1.271 . S
C9 O23 1.251 . S
C10 O24 1.252 . S
C10 O25 1.272 . S
C11 Sm1 2.846 . S
C11 C12 1.506 . S
C11 O26 1.261 . S
C11 O27 1.242 . S
C12 C11 1.506 . S
C12 C13 1.358 . S
C12 C17 1.382 . S
C13 C12 1.358 . S
C13 C14 1.385 . S
C13 H36 0.930 . S
C14 C13 1.385 . S
C14 C15 1.395 . S
C14 H37 0.929 . S
C15 C14 1.395 . S
C15 C16 1.335 . S
C16 C15 1.335 . S
C16 C17 1.398 . S
C16 H38 0.930 . S
C17 C12 1.382 . S
C17 C16 1.398 . S
C17 H39 0.929 . S
C18 O28 1.271 . S
C18 O29 1.251 1_455 S
C19 O30 1.252 . S
C19 O31 1.272 . S
O20 Sm0 2.543 . S
O20 C2 1.261 . S
O21 Sm0 2.450 . S
O21 C2 1.242 . S
O22 Sm0 2.681 . S
O22 Sm1 2.386 1_455 S
O22 C9 1.271 . S
O23 Sm0 2.464 . S
O23 C9 1.251 . S
O24 Sm0 2.396 . S
O24 C10 1.252 . S
O25 Sm1 2.408 1_455 S
O25 C10 1.272 . S
O26 Sm1 2.543 . S
O26 C11 1.261 . S
O27 Sm1 2.450 . S
O27 C11 1.242 . S
O28 Sm0 2.386 . S
O28 Sm1 2.681 1_455 S
O28 C18 1.271 . S
O29 Sm1 2.464 . S
O29 C18 1.251 1_655 S
O30 Sm1 2.396 . S
O30 C19 1.252 . S
O31 Sm0 2.408 1_655 S
O31 C19 1.272 . S
H32 C4 0.930 . S
H33 C5 0.929 . S
H34 C7 0.930 . S
H35 C8 0.929 . S
H36 C13 0.930 . S
H37 C14 0.929 . S
H38 C16 0.930 . S
H39 C17 0.929 . S
Sm40 C42 2.846 . S
Sm40 O60 2.543 . S
Sm40 O61 2.450 . S
Sm40 O62 2.681 1_565 S
Sm40 O63 2.464 . S
Sm40 O64 2.396 . S
Sm40 O68 2.386 . S
Sm40 O71 2.408 1_565 S
Sm41 C51 2.846 . S
Sm41 O62 2.386 . S
Sm41 O65 2.408 1_545 S
Sm41 O66 2.543 . S
Sm41 O67 2.450 . S
Sm41 O68 2.681 1_545 S
Sm41 O69 2.464 . S
Sm41 O70 2.396 . S
C42 Sm40 2.846 . S
C42 C43 1.506 . S
C42 O60 1.261 . S
C42 O61 1.242 . S
C43 C42 1.506 . S
C43 C44 1.358 . S
C43 C48 1.382 . S
C44 C43 1.358 . S
C44 C45 1.385 . S
C44 H72 0.930 . S
C45 C44 1.385 . S
C45 C46 1.395 . S
C45 H73 0.929 . S
C46 C45 1.395 . S
C46 C47 1.335 . S
C47 C46 1.335 . S
C47 C48 1.398 . S
C47 H74 0.930 . S
C48 C43 1.382 . S
C48 C47 1.398 . S
C48 H75 0.929 . S
C49 O62 1.271 . S
C49 O63 1.251 1_545 S
C50 O64 1.252 . S
C50 O65 1.272 . S
C51 Sm41 2.846 . S
C51 C52 1.506 . S
C51 O66 1.261 . S
C51 O67 1.242 . S
C52 C51 1.506 . S
C52 C53 1.358 . S
C52 C57 1.382 . S
C53 C52 1.358 . S
C53 C54 1.385 . S
C53 H76 0.930 . S
C54 C53 1.385 . S
C54 C55 1.395 . S
C54 H77 0.929 . S
C55 C54 1.395 . S
C55 C56 1.335 . S
C56 C55 1.335 . S
C56 C57 1.398 . S
C56 H78 0.930 . S
C57 C52 1.382 . S
C57 C56 1.398 . S
C57 H79 0.929 . S
C58 O68 1.271 1_545 S
C58 O69 1.251 . S
C59 O70 1.252 . S
C59 O71 1.272 . S
O60 Sm40 2.543 . S
O60 C42 1.261 . S
O61 Sm40 2.450 . S
O61 C42 1.242 . S
O62 Sm40 2.681 1_545 S
O62 Sm41 2.386 . S
O62 C49 1.271 . S
O63 Sm40 2.464 . S
O63 C49 1.251 1_565 S
O64 Sm40 2.396 . S
O64 C50 1.252 . S
O65 Sm41 2.408 1_565 S
O65 C50 1.272 . S
O66 Sm41 2.543 . S
O66 C51 1.261 . S
O67 Sm41 2.450 . S
O67 C51 1.242 . S
O68 Sm40 2.386 . S
O68 Sm41 2.681 1_565 S
O68 C58 1.271 1_565 S
O69 Sm41 2.464 . S
O69 C58 1.251 . S
O70 Sm41 2.396 . S
O70 C59 1.252 . S
O71 Sm40 2.408 1_545 S
O71 C59 1.272 . S
H72 C44 0.930 . S
H73 C45 0.929 . S
H74 C47 0.930 . S
H75 C48 0.929 . S
H76 C53 0.930 . S
H77 C54 0.929 . S
H78 C56 0.930 . S
H79 C57 0.929 . S
Sm80 C82 2.846 . S
Sm80 O100 2.543 . S
Sm80 O101 2.450 . S
Sm80 O102 2.681 . S
Sm80 O103 2.464 . S
Sm80 O104 2.396 . S
Sm80 O108 2.386 . S
Sm80 O111 2.408 . S
Sm81 C91 2.846 . S
Sm81 O102 2.386 . S
Sm81 O105 2.408 . S
Sm81 O106 2.543 . S
Sm81 O107 2.450 . S
Sm81 O108 2.681 . S
Sm81 O109 2.464 . S
Sm81 O110 2.396 . S
C82 Sm80 2.846 . S
C82 C83 1.506 . S
C82 O100 1.261 . S
C82 O101 1.242 . S
C83 C82 1.506 . S
C83 C84 1.358 . S
C83 C88 1.382 . S
C84 C83 1.358 . S
C84 C85 1.385 . S
C84 H112 0.930 . S
C85 C84 1.385 . S
C85 C86 1.395 . S
C85 H113 0.929 . S
C86 C85 1.395 . S
C86 C87 1.335 . S
C87 C86 1.335 . S
C87 C88 1.398 . S
C87 H114 0.930 . S
C88 C83 1.382 . S
C88 C87 1.398 . S
C88 H115 0.929 . S
C89 O102 1.271 . S
C89 O103 1.251 . S
C90 O104 1.252 . S
C90 O105 1.272 . S
C91 Sm81 2.846 . S
C91 C92 1.506 . S
C91 O106 1.261 . S
C91 O107 1.242 . S
C92 C91 1.506 . S
C92 C93 1.358 . S
C92 C97 1.382 . S
C93 C92 1.358 . S
C93 C94 1.385 . S
C93 H116 0.930 . S
C94 C93 1.385 . S
C94 C95 1.395 . S
C94 H117 0.929 . S
C95 C94 1.395 . S
C95 C96 1.335 . S
C96 C95 1.335 . S
C96 C97 1.398 . S
C96 H118 0.930 . S
C97 C92 1.382 . S
C97 C96 1.398 . S
C97 H119 0.929 . S
C98 O108 1.271 . S
C98 O109 1.251 . S
C99 O110 1.252 . S
C99 O111 1.272 . S
O100 Sm80 2.543 . S
O100 C82 1.261 . S
O101 Sm80 2.450 . S
O101 C82 1.242 . S
O102 Sm80 2.681 . S
O102 Sm81 2.386 . S
O102 C89 1.271 . S
O103 Sm80 2.464 . S
O103 C89 1.251 . S
O104 Sm80 2.396 . S
O104 C90 1.252 . S
O105 Sm81 2.408 . S
O105 C90 1.272 . S
O106 Sm81 2.543 . S
O106 C91 1.261 . S
O107 Sm81 2.450 . S
O107 C91 1.242 . S
O108 Sm80 2.386 . S
O108 Sm81 2.681 . S
O108 C98 1.271 . S
O109 Sm81 2.464 . S
O109 C98 1.251 . S
O110 Sm81 2.396 . S
O110 C99 1.252 . S
O111 Sm80 2.408 . S
O111 C99 1.272 . S
H112 C84 0.930 . S
H113 C85 0.929 . S
H114 C87 0.930 . S
H115 C88 0.929 . S
H116 C93 0.930 . S
H117 C94 0.929 . S
H118 C96 0.930 . S
H119 C97 0.929 . S
C120 C121 1.384 . S
C120 H133 0.947 . S
C120 C155 1.382 . S
C121 C120 1.384 . S
C121 C122 1.378 . S
C122 C121 1.378 . S
C122 C123 1.378 . S
C122 H134 0.952 . S
C123 C122 1.378 . S
C123 H135 0.950 . S
C123 C154 1.383 . S
H124 C143 0.947 . S
H125 C144 0.946 . S
H126 C146 0.953 . S
H127 C147 0.945 . S
H128 C149 0.952 . S
H129 C150 0.949 . S
H130 C152 0.950 . S
H131 C153 0.948 . S
H132 C155 0.951 . S
H133 C120 0.947 . S
H134 C122 0.952 . S
H135 C123 0.950 . S
N136 C139 1.382 . S
N136 C141 1.363 1_545 S
N137 C139 1.371 . S
N137 C140 1.372 . S
N138 C140 1.361 1_565 S
N138 C141 1.377 . S
C139 N136 1.382 . S
C139 N137 1.371 . S
C139 C142 1.480 . S
C140 N137 1.372 . S
C140 N138 1.361 1_545 S
C140 C148 1.457 . S
C141 N136 1.363 1_565 S
C141 N138 1.377 . S
C141 C154 1.479 . S
C142 C139 1.480 . S
C142 C143 1.383 . S
C142 C147 1.385 . S
C143 H124 0.947 . S
C143 C142 1.383 . S
C143 C144 1.388 . S
C144 H125 0.946 . S
C144 C143 1.388 . S
C144 C145 1.384 . S
C145 C144 1.384 . S
C145 C146 1.377 . S
C146 H126 0.953 . S
C146 C145 1.377 . S
C146 C147 1.369 . S
C147 H127 0.945 . S
C147 C142 1.385 . S
C147 C146 1.369 . S
C148 C140 1.457 . S
C148 C149 1.372 . S
C148 C153 1.364 1_545 S
C149 H128 0.952 . S
C149 C148 1.372 . S
C149 C150 1.389 . S
C150 H129 0.949 . S
C150 C149 1.389 . S
C150 C151 1.387 . S
C151 C150 1.387 . S
C151 C152 1.372 1_545 S
C152 H130 0.950 . S
C152 C151 1.372 1_565 S
C152 C153 1.379 . S
C153 H131 0.948 . S
C153 C148 1.364 1_565 S
C153 C152 1.379 . S
C154 C123 1.383 . S
C154 C141 1.479 . S
C154 C155 1.398 . S
C155 C120 1.382 . S
C155 H132 0.951 . S
C155 C154 1.398 . S
C156 C157 1.384 . S
C156 H169 0.947 . S
C156 C191 1.382 . S
C157 C156 1.384 . S
C157 C158 1.378 . S
C158 C157 1.378 . S
C158 C159 1.378 . S
C158 H170 0.952 . S
C159 C158 1.378 . S
C159 H171 0.950 . S
C159 C190 1.383 . S
H160 C179 0.947 . S
H161 C180 0.946 . S
H162 C182 0.953 . S
H163 C183 0.945 . S
H164 C185 0.952 . S
H165 C186 0.949 . S
H166 C188 0.950 . S
H167 C189 0.948 . S
H168 C191 0.951 . S
H169 C156 0.947 . S
H170 C158 0.952 . S
H171 C159 0.950 . S
N172 C175 1.382 . S
N172 C177 1.363 . S
N173 C175 1.371 . S
N173 C176 1.372 . S
N174 C176 1.361 . S
N174 C177 1.377 . S
C175 N172 1.382 . S
C175 N173 1.371 . S
C175 C178 1.480 . S
C176 N173 1.372 . S
C176 N174 1.361 . S
C176 C184 1.457 . S
C177 N172 1.363 . S
C177 N174 1.377 . S
C177 C190 1.479 . S
C178 C175 1.480 . S
C178 C179 1.383 . S
C178 C183 1.385 . S
C179 H160 0.947 . S
C179 C178 1.383 . S
C179 C180 1.388 . S
C180 H161 0.946 . S
C180 C179 1.388 . S
C180 C181 1.384 . S
C181 C180 1.384 . S
C181 C182 1.377 . S
C182 H162 0.953 . S
C182 C181 1.377 . S
C182 C183 1.369 . S
C183 H163 0.945 . S
C183 C178 1.385 . S
C183 C182 1.369 . S
C184 C176 1.457 . S
C184 C185 1.372 . S
C184 C189 1.364 . S
C185 H164 0.952 . S
C185 C184 1.372 . S
C185 C186 1.389 . S
C186 H165 0.949 . S
C186 C185 1.389 . S
C186 C187 1.387 . S
C187 C186 1.387 . S
C187 C188 1.372 . S
C188 H166 0.950 . S
C188 C187 1.372 . S
C188 C189 1.379 . S
C189 H167 0.948 . S
C189 C184 1.364 . S
C189 C188 1.379 . S
C190 C159 1.383 . S
C190 C177 1.479 . S
C190 C191 1.398 . S
C191 C156 1.382 . S
C191 H168 0.951 . S
C191 C190 1.398 . S
C192 C193 1.384 . S
C192 H205 0.947 . S
C192 C227 1.382 . S
C193 C192 1.384 . S
C193 C194 1.378 . S
C194 C193 1.378 . S
C194 C195 1.378 . S
C194 H206 0.952 . S
C195 C194 1.378 . S
C195 H207 0.950 . S
C195 C226 1.383 . S
H196 C215 0.947 . S
H197 C216 0.946 . S
H198 C218 0.953 . S
H199 C219 0.945 . S
H200 C221 0.952 . S
H201 C222 0.949 . S
H202 C224 0.950 . S
H203 C225 0.948 . S
H204 C227 0.951 . S
H205 C192 0.947 . S
H206 C194 0.952 . S
H207 C195 0.950 . S
N208 C211 1.382 . S
N208 C213 1.363 . S
N209 C211 1.371 . S
N209 C212 1.372 . S
N210 C212 1.361 . S
N210 C213 1.377 . S
C211 N208 1.382 . S
C211 N209 1.371 . S
C211 C214 1.480 . S
C212 N209 1.372 . S
C212 N210 1.361 . S
C212 C220 1.457 . S
C213 N208 1.363 . S
C213 N210 1.377 . S
C213 C226 1.479 1_455 S
C214 C211 1.480 . S
C214 C215 1.383 . S
C214 C219 1.385 . S
C215 H196 0.947 . S
C215 C214 1.383 . S
C215 C216 1.388 . S
C216 H197 0.946 . S
C216 C215 1.388 . S
C216 C217 1.384 . S
C217 C216 1.384 . S
C217 C218 1.377 . S
C218 H198 0.953 . S
C218 C217 1.377 . S
C218 C219 1.369 . S
C219 H199 0.945 . S
C219 C214 1.385 . S
C219 C218 1.369 . S
C220 C212 1.457 . S
C220 C221 1.372 . S
C220 C225 1.364 1_455 S
C221 H200 0.952 . S
C221 C220 1.372 . S
C221 C222 1.389 . S
C222 H201 0.949 . S
C222 C221 1.389 . S
C222 C223 1.387 . S
C223 C222 1.387 . S
C223 C224 1.372 1_455 S
C224 H202 0.950 . S
C224 C223 1.372 1_655 S
C224 C225 1.379 . S
C225 H203 0.948 . S
C225 C220 1.364 1_655 S
C225 C224 1.379 . S
C226 C195 1.383 . S
C226 C213 1.479 1_655 S
C226 C227 1.398 . S
C227 C192 1.382 . S
C227 H204 0.951 . S
C227 C226 1.398 . S
C228 C229 1.384 . S
C228 H241 0.947 . S
C228 C263 1.382 . S
C229 C228 1.384 . S
C229 C230 1.378 . S
C230 C229 1.378 . S
C230 C231 1.378 . S
C230 H242 0.952 . S
C231 C230 1.378 . S
C231 H243 0.950 . S
C231 C262 1.383 . S
H232 C251 0.947 . S
H233 C252 0.946 . S
H234 C254 0.953 . S
H235 C255 0.945 . S
H236 C257 0.952 . S
H237 C258 0.949 . S
H238 C260 0.950 . S
H239 C261 0.948 . S
H240 C263 0.951 . S
H241 C228 0.947 . S
H242 C230 0.952 . S
H243 C231 0.950 . S
N244 C247 1.382 1_455 S
N244 C249 1.363 . S
N245 C247 1.371 . S
N245 C248 1.372 1_655 S
N246 C248 1.361 . S
N246 C249 1.377 . S
C247 N244 1.382 1_655 S
C247 N245 1.371 . S
C247 C250 1.480 . S
C248 N245 1.372 1_455 S
C248 N246 1.361 . S
C248 C256 1.457 . S
C249 N244 1.363 . S
C249 N246 1.377 . S
C249 C262 1.479 . S
C250 C247 1.480 . S
C250 C251 1.383 . S
C250 C255 1.385 . S
C251 H232 0.947 . S
C251 C250 1.383 . S
C251 C252 1.388 . S
C252 H233 0.946 . S
C252 C251 1.388 . S
C252 C253 1.384 . S
C253 C252 1.384 . S
C253 C254 1.377 . S
C254 H234 0.953 . S
C254 C253 1.377 . S
C254 C255 1.369 . S
C255 H235 0.945 . S
C255 C250 1.385 . S
C255 C254 1.369 . S
C256 C248 1.457 . S
C256 C257 1.372 1_455 S
C256 C261 1.364 . S
C257 H236 0.952 . S
C257 C256 1.372 1_655 S
C257 C258 1.389 . S
C258 H237 0.949 . S
C258 C257 1.389 . S
C258 C259 1.387 1_655 S
C259 C258 1.387 1_455 S
C259 C260 1.372 . S
C260 H238 0.950 . S
C260 C259 1.372 . S
C260 C261 1.379 . S
C261 H239 0.948 . S
C261 C256 1.364 . S
C261 C260 1.379 . S
C262 C231 1.383 . S
C262 C249 1.479 . S
C262 C263 1.398 . S
C263 C228 1.382 . S
C263 H240 0.951 . S
C263 C262 1.398 . S
C264 C265 1.384 . S
C264 H277 0.947 . S
C264 C299 1.382 . S
C265 C264 1.384 . S
C265 C266 1.378 . S
C266 C265 1.378 . S
C266 C267 1.378 . S
C266 H278 0.952 . S
C267 C266 1.378 . S
C267 H279 0.950 . S
C267 C298 1.383 . S
H268 C287 0.947 . S
H269 C288 0.946 . S
H270 C290 0.953 . S
H271 C291 0.945 . S
H272 C293 0.952 . S
H273 C294 0.949 . S
H274 C296 0.950 . S
H275 C297 0.948 . S
H276 C299 0.951 . S
H277 C264 0.947 . S
H278 C266 0.952 . S
H279 C267 0.950 . S
N280 C283 1.382 1_545 S
N280 C285 1.363 . S
N281 C283 1.371 . S
N281 C284 1.372 1_565 S
N282 C284 1.361 . S
N282 C285 1.377 . S
C283 N280 1.382 1_565 S
C283 N281 1.371 . S
C283 C286 1.480 . S
C284 N281 1.372 1_545 S
C284 N282 1.361 . S
C284 C292 1.457 . S
C285 N280 1.363 . S
C285 N282 1.377 . S
C285 C298 1.479 . S
C286 C283 1.480 . S
C286 C287 1.383 . S
C286 C291 1.385 . S
C287 H268 0.947 . S
C287 C286 1.383 . S
C287 C288 1.388 . S
C288 H269 0.946 . S
C288 C287 1.388 . S
C288 C289 1.384 . S
C289 C288 1.384 . S
C289 C290 1.377 . S
C290 H270 0.953 . S
C290 C289 1.377 . S
C290 C291 1.369 . S
C291 H271 0.945 . S
C291 C286 1.385 . S
C291 C290 1.369 . S
C292 C284 1.457 . S
C292 C293 1.372 1_545 S
C292 C297 1.364 . S
C293 H272 0.952 . S
C293 C292 1.372 1_565 S
C293 C294 1.389 . S
C294 H273 0.949 . S
C294 C293 1.389 . S
C294 C295 1.387 . S
C295 C294 1.387 . S
C295 C296 1.372 1_565 S
C296 H274 0.950 . S
C296 C295 1.372 1_545 S
C296 C297 1.379 . S
C297 H275 0.948 . S
C297 C292 1.364 . S
C297 C296 1.379 . S
C298 C267 1.383 . S
C298 C285 1.479 . S
C298 C299 1.398 . S
C299 C264 1.382 . S
C299 H276 0.951 . S
C299 C298 1.398 . S
C300 C301 1.384 . S
C300 H313 0.947 . S
C300 C335 1.382 . S
C301 C300 1.384 . S
C301 C302 1.378 . S
C302 C301 1.378 . S
C302 C303 1.378 . S
C302 H314 0.952 . S
C303 C302 1.378 . S
C303 H315 0.950 . S
C303 C334 1.383 . S
H304 C323 0.947 . S
H305 C324 0.946 . S
H306 C326 0.953 . S
H307 C327 0.945 . S
H308 C329 0.952 . S
H309 C330 0.949 . S
H310 C332 0.950 . S
H311 C333 0.948 . S
H312 C335 0.951 . S
H313 C300 0.947 . S
H314 C302 0.952 . S
H315 C303 0.950 . S
N316 C319 1.382 . S
N316 C321 1.363 . S
N317 C319 1.371 . S
N317 C320 1.372 . S
N318 C320 1.361 . S
N318 C321 1.377 . S
C319 N316 1.382 . S
C319 N317 1.371 . S
C319 C322 1.480 . S
C320 N317 1.372 . S
C320 N318 1.361 . S
C320 C328 1.457 . S
C321 N316 1.363 . S
C321 N318 1.377 . S
C321 C334 1.479 . S
C322 C319 1.480 . S
C322 C323 1.383 . S
C322 C327 1.385 . S
C323 H304 0.947 . S
C323 C322 1.383 . S
C323 C324 1.388 . S
C324 H305 0.946 . S
C324 C323 1.388 . S
C324 C325 1.384 . S
C325 C324 1.384 . S
C325 C326 1.377 . S
C326 H306 0.953 . S
C326 C325 1.377 . S
C326 C327 1.369 . S
C327 H307 0.945 . S
C327 C322 1.385 . S
C327 C326 1.369 . S
C328 C320 1.457 . S
C328 C329 1.372 . S
C328 C333 1.364 . S
C329 H308 0.952 . S
C329 C328 1.372 . S
C329 C330 1.389 1_554 S
C330 H309 0.949 . S
C330 C329 1.389 1_556 S
C330 C331 1.387 . S
C331 C330 1.387 . S
C331 C332 1.372 . S
C332 H310 0.950 . S
C332 C331 1.372 . S
C332 C333 1.379 1_556 S
C333 H311 0.948 . S
C333 C328 1.364 . S
C333 C332 1.379 1_554 S
C334 C303 1.383 . S
C334 C321 1.479 . S
C334 C335 1.398 . S
C335 C300 1.382 . S
C335 H312 0.951 . S
C335 C334 1.398 . S
C336 C337 1.363 . S
C336 C342 1.379 . S
C336 N344 1.356 . S
C337 C336 1.363 . S
C337 C343 1.363 . S
C338 C339 1.363 . S
C338 C343 1.379 . S
C338 N345 1.356 . S
C339 C338 1.363 . S
C339 C342 1.363 . S
N340 C342 1.356 . S
N340 H352 0.984 . S
N340 H353 0.985 . S
N341 C343 1.356 . S
N341 H346 0.984 . S
N341 H347 0.985 . S
C342 C336 1.379 . S
C342 C339 1.363 . S
C342 N340 1.356 . S
C343 C337 1.363 . S
C343 C338 1.379 . S
C343 N341 1.356 . S
N344 C336 1.356 . S
N344 H350 0.984 . S
N344 H351 0.984 . S
N345 C338 1.356 . S
N345 H348 0.984 . S
N345 H349 0.985 . S
H346 N341 0.984 . S
H347 N341 0.985 . S
H348 N345 0.984 . S
H349 N345 0.985 . S
H350 N344 0.984 . S
H351 N344 0.984 . S
H352 N340 0.984 . S
H353 N340 0.985 . S
C354 C355 1.363 . S
C354 C360 1.379 . S
C354 N362 1.356 . S
C355 C354 1.363 . S
C355 C361 1.363 . S
C356 C357 1.363 . S
C356 C361 1.379 . S
C356 N363 1.356 . S
C357 C356 1.363 . S
C357 C360 1.363 . S
N358 C360 1.356 . S
N358 H370 0.984 . S
N358 H371 0.985 . S
N359 C361 1.356 . S
N359 H364 0.984 . S
N359 H365 0.985 . S
C360 C354 1.379 . S
C360 C357 1.363 . S
C360 N358 1.356 . S
C361 C355 1.363 . S
C361 C356 1.379 . S
C361 N359 1.356 . S
N362 C354 1.356 . S
N362 H368 0.984 . S
N362 H369 0.984 . S
N363 C356 1.356 . S
N363 H366 0.984 . S
N363 H367 0.985 . S
H364 N359 0.984 . S
H365 N359 0.985 . S
H366 N363 0.984 . S
H367 N363 0.985 . S
H368 N362 0.984 . S
H369 N362 0.984 . S
H370 N358 0.984 . S
H371 N358 0.985 . S
C372 C373 1.363 . S
C372 C378 1.379 . S
C372 N380 1.356 . S
C373 C372 1.363 . S
C373 C379 1.363 . S
C374 C375 1.363 . S
C374 C379 1.379 . S
C374 N381 1.356 . S
C375 C374 1.363 . S
C375 C378 1.363 . S
N376 C378 1.356 . S
N376 H388 0.984 . S
N376 H389 0.985 . S
N377 C379 1.356 . S
N377 H382 0.984 . S
N377 H383 0.985 . S
C378 C372 1.379 . S
C378 C375 1.363 . S
C378 N376 1.356 . S
C379 C373 1.363 . S
C379 C374 1.379 . S
C379 N377 1.356 . S
N380 C372 1.356 . S
N380 H386 0.984 . S
N380 H387 0.984 . S
N381 C374 1.356 . S
N381 H384 0.984 . S
N381 H385 0.985 . S
H382 N377 0.984 . S
H383 N377 0.985 . S
H384 N381 0.984 . S
H385 N381 0.985 . S
H386 N380 0.984 . S
H387 N380 0.984 . S
H388 N376 0.984 . S
H389 N376 0.985 . S
C390 C391 1.363 . S
C390 C396 1.379 . S
C390 N398 1.356 . S
C391 C390 1.363 . S
C391 C397 1.363 . S
C392 C393 1.363 . S
C392 C397 1.379 . S
C392 N399 1.356 . S
C393 C392 1.363 . S
C393 C396 1.363 . S
N394 C396 1.356 . S
N394 H406 0.984 . S
N394 H407 0.985 . S
N395 C397 1.356 . S
N395 H400 0.984 . S
N395 H401 0.985 . S
C396 C390 1.379 . S
C396 C393 1.363 . S
C396 N394 1.356 . S
C397 C391 1.363 . S
C397 C392 1.379 . S
C397 N395 1.356 . S
N398 C390 1.356 . S
N398 H404 0.984 . S
N398 H405 0.984 . S
N399 C392 1.356 . S
N399 H402 0.984 . S
N399 H403 0.985 . S
H400 N395 0.984 . S
H401 N395 0.985 . S
H402 N399 0.984 . S
H403 N399 0.985 . S
H404 N398 0.984 . S
H405 N398 0.984 . S
H406 N394 0.984 . S
H407 N394 0.985 . S
C408 C409 1.363 . S
C408 C414 1.379 . S
C408 N416 1.356 . S
C409 C408 1.363 . S
C409 C415 1.363 . S
C410 C411 1.363 . S
C410 C415 1.379 . S
C410 N417 1.356 . S
C411 C410 1.363 . S
C411 C414 1.363 . S
N412 C414 1.356 . S
N412 H424 0.984 . S
N412 H425 0.985 . S
N413 C415 1.356 . S
N413 H418 0.984 . S
N413 H419 0.985 . S
C414 C408 1.379 . S
C414 C411 1.363 . S
C414 N412 1.356 . S
C415 C409 1.363 . S
C415 C410 1.379 . S
C415 N413 1.356 . S
N416 C408 1.356 . S
N416 H422 0.984 . S
N416 H423 0.984 . S
N417 C410 1.356 . S
N417 H420 0.984 . S
N417 H421 0.985 . S
H418 N413 0.984 . S
H419 N413 0.985 . S
H420 N417 0.984 . S
H421 N417 0.985 . S
H422 N416 0.984 . S
H423 N416 0.984 . S
H424 N412 0.984 . S
H425 N412 0.985 . S
C426 C427 1.363 . S
C426 C432 1.379 . S
C426 N434 1.356 . S
C427 C426 1.363 . S
C427 C433 1.363 . S
C428 C429 1.363 . S
C428 C433 1.379 . S
C428 N435 1.356 . S
C429 C428 1.363 . S
C429 C432 1.363 . S
N430 C432 1.356 . S
N430 H442 0.984 . S
N430 H443 0.985 . S
N431 C433 1.356 . S
N431 H436 0.984 . S
N431 H437 0.985 . S
C432 C426 1.379 . S
C432 C429 1.363 . S
C432 N430 1.356 . S
C433 C427 1.363 . S
C433 C428 1.379 . S
C433 N431 1.356 . S
N434 C426 1.356 . S
N434 H440 0.984 . S
N434 H441 0.984 . S
N435 C428 1.356 . S
N435 H438 0.984 . S
N435 H439 0.985 . S
H436 N431 0.984 . S
H437 N431 0.985 . S
H438 N435 0.984 . S
H439 N435 0.985 . S
H440 N434 0.984 . S
H441 N434 0.984 . S
H442 N430 0.984 . S
H443 N430 0.985 . S
C444 C445 1.363 . S
C444 C450 1.379 . S
C444 N452 1.356 . S
C445 C444 1.363 . S
C445 C451 1.363 . S
C446 C447 1.363 . S
C446 C451 1.379 . S
C446 N453 1.356 . S
C447 C446 1.363 . S
C447 C450 1.363 . S
N448 C450 1.356 . S
N448 H460 0.984 . S
N448 H461 0.985 . S
N449 C451 1.356 . S
N449 H454 0.984 . S
N449 H455 0.985 . S
C450 C444 1.379 . S
C450 C447 1.363 . S
C450 N448 1.356 . S
C451 C445 1.363 . S
C451 C446 1.379 . S
C451 N449 1.356 . S
N452 C444 1.356 . S
N452 H458 0.984 . S
N452 H459 0.984 . S
N453 C446 1.356 . S
N453 H456 0.984 . S
N453 H457 0.985 . S
H454 N449 0.984 . S
H455 N449 0.985 . S
H456 N453 0.984 . S
H457 N453 0.985 . S
H458 N452 0.984 . S
H459 N452 0.984 . S
H460 N448 0.984 . S
H461 N448 0.985 . S
C462 C463 1.363 . S
C462 C468 1.379 . S
C462 N470 1.356 . S
C463 C462 1.363 . S
C463 C469 1.363 . S
C464 C465 1.363 . S
C464 C469 1.379 . S
C464 N471 1.356 . S
C465 C464 1.363 . S
C465 C468 1.363 . S
N466 C468 1.356 . S
N466 H478 0.984 . S
N466 H479 0.985 . S
N467 C469 1.356 . S
N467 H472 0.984 . S
N467 H473 0.985 . S
C468 C462 1.379 . S
C468 C465 1.363 . S
C468 N466 1.356 . S
C469 C463 1.363 . S
C469 C464 1.379 . S
C469 N467 1.356 . S
N470 C462 1.356 . S
N470 H476 0.984 . S
N470 H477 0.984 . S
N471 C464 1.356 . S
N471 H474 0.984 . S
N471 H475 0.985 . S
H472 N467 0.984 . S
H473 N467 0.985 . S
H474 N471 0.984 . S
H475 N471 0.985 . S
H476 N470 0.984 . S
H477 N470 0.984 . S
H478 N466 0.984 . S
H479 N466 0.985 . S
C480 C481 1.363 . S
C480 C486 1.379 . S
C480 N488 1.356 . S
C481 C480 1.363 . S
C481 C487 1.363 . S
C482 C483 1.363 . S
C482 C487 1.379 . S
C482 N489 1.356 . S
C483 C482 1.363 . S
C483 C486 1.363 . S
N484 C486 1.356 . S
N484 H496 0.984 . S
N484 H497 0.985 . S
N485 C487 1.356 . S
N485 H490 0.984 . S
N485 H491 0.985 . S
C486 C480 1.379 . S
C486 C483 1.363 . S
C486 N484 1.356 . S
C487 C481 1.363 . S
C487 C482 1.379 . S
C487 N485 1.356 . S
N488 C480 1.356 . S
N488 H494 0.984 . S
N488 H495 0.984 . S
N489 C482 1.356 . S
N489 H492 0.984 . S
N489 H493 0.985 . S
H490 N485 0.984 . S
H491 N485 0.985 . S
H492 N489 0.984 . S
H493 N489 0.985 . S
H494 N488 0.984 . S
H495 N488 0.984 . S
H496 N484 0.984 . S
H497 N484 0.985 . S
C498 C499 1.363 . S
C498 C504 1.379 . S
C498 N506 1.356 . S
C499 C498 1.363 . S
C499 C505 1.363 . S
C500 C501 1.363 . S
C500 C505 1.379 . S
C500 N507 1.356 . S
C501 C500 1.363 . S
C501 C504 1.363 . S
N502 C504 1.356 . S
N502 H514 0.984 . S
N502 H515 0.985 . S
N503 C505 1.356 . S
N503 H508 0.984 . S
N503 H509 0.985 . S
C504 C498 1.379 . S
C504 C501 1.363 . S
C504 N502 1.356 . S
C505 C499 1.363 . S
C505 C500 1.379 . S
C505 N503 1.356 . S
N506 C498 1.356 . S
N506 H512 0.984 . S
N506 H513 0.984 . S
N507 C500 1.356 . S
N507 H510 0.984 . S
N507 H511 0.985 . S
H508 N503 0.984 . S
H509 N503 0.985 . S
H510 N507 0.984 . S
H511 N507 0.985 . S
H512 N506 0.984 . S
H513 N506 0.984 . S
H514 N502 0.984 . S
H515 N502 0.985 . S
C516 C517 1.363 . S
C516 C522 1.379 . S
C516 N524 1.356 . S
C517 C516 1.363 . S
C517 C523 1.363 . S
C518 C519 1.363 . S
C518 C523 1.379 . S
C518 N525 1.356 . S
C519 C518 1.363 . S
C519 C522 1.363 . S
N520 C522 1.356 . S
N520 H532 0.984 . S
N520 H533 0.985 . S
N521 C523 1.356 . S
N521 H526 0.984 . S
N521 H527 0.985 . S
C522 C516 1.379 . S
C522 C519 1.363 . S
C522 N520 1.356 . S
C523 C517 1.363 . S
C523 C518 1.379 . S
C523 N521 1.356 . S
N524 C516 1.356 . S
N524 H530 0.984 . S
N524 H531 0.984 . S
N525 C518 1.356 . S
N525 H528 0.984 . S
N525 H529 0.985 . S
H526 N521 0.984 . S
H527 N521 0.985 . S
H528 N525 0.984 . S
H529 N525 0.985 . S
H530 N524 0.984 . S
H531 N524 0.984 . S
H532 N520 0.984 . S
H533 N520 0.985 . S
C534 C535 1.363 . S
C534 C540 1.379 . S
C534 N542 1.356 . S
C535 C534 1.363 . S
C535 C541 1.363 . S
C536 C537 1.363 . S
C536 C541 1.379 . S
C536 N543 1.356 . S
C537 C536 1.363 . S
C537 C540 1.363 . S
N538 C540 1.356 . S
N538 H550 0.984 . S
N538 H551 0.985 . S
N539 C541 1.356 . S
N539 H544 0.984 . S
N539 H545 0.985 . S
C540 C534 1.379 . S
C540 C537 1.363 . S
C540 N538 1.356 . S
C541 C535 1.363 . S
C541 C536 1.379 . S
C541 N539 1.356 . S
N542 C534 1.356 . S
N542 H548 0.984 . S
N542 H549 0.984 . S
N543 C536 1.356 . S
N543 H546 0.984 . S
N543 H547 0.985 . S
H544 N539 0.984 . S
H545 N539 0.985 . S
H546 N543 0.984 . S
H547 N543 0.985 . S
H548 N542 0.984 . S
H549 N542 0.984 . S
H550 N538 0.984 . S
H551 N538 0.985 . S
C552 C553 1.363 . S
C552 C558 1.379 . S
C552 N560 1.356 . S
C553 C552 1.363 . S
C553 C559 1.363 . S
C554 C555 1.363 . S
C554 C559 1.379 . S
C554 N561 1.356 . S
C555 C554 1.363 . S
C555 C558 1.363 . S
N556 C558 1.356 . S
N556 H568 0.984 . S
N556 H569 0.985 . S
N557 C559 1.356 . S
N557 H562 0.984 . S
N557 H563 0.985 . S
C558 C552 1.379 . S
C558 C555 1.363 . S
C558 N556 1.356 . S
C559 C553 1.363 . S
C559 C554 1.379 . S
C559 N557 1.356 . S
N560 C552 1.356 . S
N560 H566 0.984 . S
N560 H567 0.984 . S
N561 C554 1.356 . S
N561 H564 0.984 . S
N561 H565 0.985 . S
H562 N557 0.984 . S
H563 N557 0.985 . S
H564 N561 0.984 . S
H565 N561 0.985 . S
H566 N560 0.984 . S
H567 N560 0.984 . S
H568 N556 0.984 . S
H569 N556 0.985 . S
C570 C571 1.363 1_565 S
C570 C576 1.379 . S
C570 N578 1.356 . S
C571 C570 1.363 1_545 S
C571 C577 1.363 . S
C572 C573 1.363 . S
C572 C577 1.379 . S
C572 N579 1.356 . S
C573 C572 1.363 . S
C573 C576 1.363 1_545 S
N574 C576 1.356 . S
N574 H586 0.984 . S
N574 H587 0.985 . S
N575 C577 1.356 . S
N575 H580 0.984 . S
N575 H581 0.985 . S
C576 C570 1.379 . S
C576 C573 1.363 1_565 S
C576 N574 1.356 . S
C577 C571 1.363 . S
C577 C572 1.379 . S
C577 N575 1.356 . S
N578 C570 1.356 . S
N578 H584 0.984 . S
N578 H585 0.984 . S
N579 C572 1.356 . S
N579 H582 0.984 . S
N579 H583 0.985 . S
H580 N575 0.984 . S
H581 N575 0.985 . S
H582 N579 0.984 . S
H583 N579 0.985 . S
H584 N578 0.984 . S
H585 N578 0.984 . S
H586 N574 0.984 . S
H587 N574 0.985 . S
C588 C589 1.363 . S
C588 C594 1.379 . S
C588 N596 1.356 . S
C589 C588 1.363 . S
C589 C595 1.363 . S
C590 C591 1.363 . S
C590 C595 1.379 . S
C590 N597 1.356 . S
C591 C590 1.363 . S
C591 C594 1.363 . S
N592 C594 1.356 . S
N592 H604 0.984 . S
N592 H605 0.985 . S
N593 C595 1.356 . S
N593 H598 0.984 . S
N593 H599 0.985 . S
C594 C588 1.379 . S
C594 C591 1.363 . S
C594 N592 1.356 . S
C595 C589 1.363 . S
C595 C590 1.379 . S
C595 N593 1.356 . S
N596 C588 1.356 . S
N596 H602 0.984 . S
N596 H603 0.984 . S
N597 C590 1.356 . S
N597 H600 0.984 . S
N597 H601 0.985 . S
H598 N593 0.984 . S
H599 N593 0.985 . S
H600 N597 0.984 . S
H601 N597 0.985 . S
H602 N596 0.984 . S
H603 N596 0.984 . S
H604 N592 0.984 . S
H605 N592 0.985 . S
C606 C607 1.363 . S
C606 C612 1.379 . S
C606 N614 1.356 . S
C607 C606 1.363 . S
C607 C613 1.363 1_545 S
C608 C609 1.363 . S
C608 C613 1.379 . S
C608 N615 1.356 . S
C609 C608 1.363 . S
C609 C612 1.363 1_565 S
N610 C612 1.356 . S
N610 H622 0.984 . S
N610 H623 0.985 . S
N611 C613 1.356 . S
N611 H616 0.984 . S
N611 H617 0.985 . S
C612 C606 1.379 . S
C612 C609 1.363 1_545 S
C612 N610 1.356 . S
C613 C607 1.363 1_565 S
C613 C608 1.379 . S
C613 N611 1.356 . S
N614 C606 1.356 . S
N614 H620 0.984 . S
N614 H621 0.984 . S
N615 C608 1.356 . S
N615 H618 0.984 . S
N615 H619 0.985 . S
H616 N611 0.984 . S
H617 N611 0.985 . S
H618 N615 0.984 . S
H619 N615 0.985 . S
H620 N614 0.984 . S
H621 N614 0.984 . S
H622 N610 0.984 . S
H623 N610 0.985 . S
C624 C625 1.363 . S
C624 C630 1.379 . S
C624 N632 1.356 . S
C625 C624 1.363 . S
C625 C631 1.363 . S
C626 C627 1.363 . S
C626 C631 1.379 . S
C626 N633 1.356 . S
C627 C626 1.363 . S
C627 C630 1.363 . S
N628 C630 1.356 . S
N628 H640 0.984 . S
N628 H641 0.985 . S
N629 C631 1.356 . S
N629 H634 0.984 . S
N629 H635 0.985 . S
C630 C624 1.379 . S
C630 C627 1.363 . S
C630 N628 1.356 . S
C631 C625 1.363 . S
C631 C626 1.379 . S
C631 N629 1.356 . S
N632 C624 1.356 . S
N632 H638 0.984 . S
N632 H639 0.984 . S
N633 C626 1.356 . S
N633 H636 0.984 . S
N633 H637 0.985 . S
H634 N629 0.984 . S
H635 N629 0.985 . S
H636 N633 0.984 . S
H637 N633 0.985 . S
H638 N632 0.984 . S
H639 N632 0.984 . S
H640 N628 0.984 . S
H641 N628 0.985 . S
C642 C643 1.363 1_655 S
C642 C648 1.379 . S
C642 N650 1.356 . S
C643 C642 1.363 1_455 S
C643 C649 1.363 . S
C644 C645 1.363 . S
C644 C649 1.379 . S
C644 N651 1.356 . S
C645 C644 1.363 . S
C645 C648 1.363 1_455 S
N646 C648 1.356 . S
N646 H658 0.984 . S
N646 H659 0.985 . S
N647 C649 1.356 . S
N647 H652 0.984 . S
N647 H653 0.985 . S
C648 C642 1.379 . S
C648 C645 1.363 1_655 S
C648 N646 1.356 . S
C649 C643 1.363 . S
C649 C644 1.379 . S
C649 N647 1.356 . S
N650 C642 1.356 . S
N650 H656 0.984 . S
N650 H657 0.984 . S
N651 C644 1.356 . S
N651 H654 0.984 . S
N651 H655 0.985 . S
H652 N647 0.984 . S
H653 N647 0.985 . S
H654 N651 0.984 . S
H655 N651 0.985 . S
H656 N650 0.984 . S
H657 N650 0.984 . S
H658 N646 0.984 . S
H659 N646 0.985 . S
C337 C6 0.906 . S
C339 C325 0.982 . S
C355 C59 2.022 . S
C357 C253 1.930 . S
C373 C86 1.359 . S
C375 C289 1.376 . S
C391 C15 0.665 . S
C393 C301 0.601 . S
C411 C229 2.063 . S
C409 C50 2.154 . S
C429 C265 1.390 . S
C427 C95 1.360 . S
C445 C46 1.294 . S
C447 C181 1.323 . S
C463 C99 3.178 . S
C465 C193 3.129 . S
C481 C10 2.185 . S
C483 C121 2.111 . S
C501 C157 1.394 . S
C499 C55 1.351 . S
C519 C217 3.022 . S
C517 C90 3.118 . S
C535 C19 2.021 . S
C537 C145 1.951 . S
C555 C223 1.785 1_554 S
C553 C18 1.723 . S
C571 C49 1.326 . S
C573 C151 1.362 . S
C589 C98 1.453 . S
C591 C187 1.503 . S
C609 C295 1.476 . S
C607 C58 1.443 . S
C627 C331 1.082 . S
C625 C89 1.077 . S
C643 C9 1.318 . S
C645 C259 1.347 . S
