# Generated by pormake.
# Topology pth, (4,4)-cn, num edge types: 1
# Building blocks:
#     Node 0, Type 0, BuildingBlock: UXUYUI_clean_sbu_0, # of connection points: 4
#     Node 1, Type 0, BuildingBlock: UXUYUI_clean_sbu_0, # of connection points: 4
#     Node 2, Type 0, BuildingBlock: UXUYUI_clean_sbu_0, # of connection points: 4
#     Node 3, Type 1, BuildingBlock: AZAVOO_clean_linker_0, # of connection points: 4
#     Node 4, Type 1, BuildingBlock: AZAVOO_clean_linker_0, # of connection points: 4
#     Node 5, Type 1, BuildingBlock: AZAVOO_clean_linker_0, # of connection points: 4
#     Edge 6, Type (0, 1), BuildingBlock: UVAHIK_clean_linker_0, # of connection points: 2
#     Edge 7, Type (0, 1), BuildingBlock: UVAHIK_clean_linker_0, # of connection points: 2
#     Edge 8, Type (0, 1), BuildingBlock: UVAHIK_clean_linker_0, # of connection points: 2
#     Edge 9, Type (0, 1), BuildingBlock: UVAHIK_clean_linker_0, # of connection points: 2
#     Edge 10, Type (0, 1), BuildingBlock: UVAHIK_clean_linker_0, # of connection points: 2
#     Edge 11, Type (0, 1), BuildingBlock: UVAHIK_clean_linker_0, # of connection points: 2
#     Edge 12, Type (0, 1), BuildingBlock: UVAHIK_clean_linker_0, # of connection points: 2
#     Edge 13, Type (0, 1), BuildingBlock: UVAHIK_clean_linker_0, # of connection points: 2
#     Edge 14, Type (0, 1), BuildingBlock: UVAHIK_clean_linker_0, # of connection points: 2
#     Edge 15, Type (0, 1), BuildingBlock: UVAHIK_clean_linker_0, # of connection points: 2
#     Edge 16, Type (0, 1), BuildingBlock: UVAHIK_clean_linker_0, # of connection points: 2
#     Edge 17, Type (0, 1), BuildingBlock: UVAHIK_clean_linker_0, # of connection points: 2
# Relax obj value: 0.169
# Max RMSD: 0.230
# Mean RMSD: 0.228
data_MOF--net-pth--node1-UXUYUI_clean_sbu_0--node2-AZAVOO_clean_linker_0--edge1-UVAHIK_clean_linker_0
_symmetry_space_group_name_H-M    P1
_symmetry_Int_Tables_number       1
_symmetry_cell_setting            triclinic
loop_
_symmetry_equiv_pos_as_xyz
'x, y, z'
_cell_length_a     37.771019
_cell_length_b     37.749106
_cell_length_c     101.9192
_cell_angle_alpha  91.353811
_cell_angle_beta   89.185513
_cell_angle_gamma 119.97575
loop_
_atom_site_label
_atom_site_type_symbol
_atom_site_fract_x
_atom_site_fract_y
_atom_site_fract_z
_atom_type_partial_charge
Li0 Li 0.08402 0.07849 0.04183 0.0
Li1 Li 0.03146 0.07377 0.05695 0.0
Li2 Li 0.04951 0.02038 0.05562 0.0
Li3 Li 0.01213 0.02982 0.03801 0.0
C4 C 0.10264 0.07441 0.07196 0.0
N5 N 0.13611 0.062 0.09411 0.0
C6 C 0.08723 0.07587 0.08439 0.0
C7 C 0.13518 0.06679 0.0708 0.0
C8 C 0.10458 0.06953 0.09547 0.0
C9 C 0.15162 0.06051 0.08211 0.0
C10 C 0.03562 0.12383 0.03917 0.0
C11 C 0.99409 0.15562 0.04144 0.0
N12 N 0.02856 0.19292 0.04226 0.0
C13 C 0.07065 0.16246 0.03997 0.0
C14 C -0.00298 0.12031 0.03984 0.0
C15 C 0.06642 0.19703 0.04155 0.0
C16 C 0.13095 0.11928 0.02018 0.0
N17 N 0.1334 0.11436 0.03322 0.0
C18 C 0.20571 0.15891 0.03289 0.0
C19 C 0.16962 0.13389 0.03971 0.0
C20 C 0.20418 0.16339 0.01932 0.0
C21 C 0.16621 0.14344 0.01296 0.0
H22 H 0.10152 0.10397 0.01537 0.0
H23 H 0.17051 0.12993 0.05014 0.0
C24 C 0.98018 0.08526 0.07492 0.0
N25 N 0.0176 0.10341 0.0691 0.0
C26 C 0.97238 0.10465 0.08546 0.0
C27 C 0.04145 0.16139 0.08354 0.0
C28 C 0.04784 0.141 0.07301 0.0
C29 C 0.00365 0.1427 0.0901 0.0
H30 H 0.95705 0.05495 0.0718 0.0
H31 H 0.07754 0.15422 0.06835 0.0
C32 C 0.0835 0.02039 0.02676 0.0
N33 N 0.13539 0.02566 0.00656 0.0
C34 C 0.07082 0.01632 0.01372 0.0
C35 C 0.12244 0.02679 0.02953 0.0
C36 C 0.09752 0.01911 0.00364 0.0
C37 C 0.14827 0.02951 0.01917 0.0
C38 C 0.95512 0.98379 0.05511 0.0
C39 C 0.94496 0.94324 0.05703 0.0
C40 C 0.92482 0.99249 0.05139 0.0
C41 C 0.90463 0.912 0.05511 0.0
C42 C 0.88487 0.96038 0.04954 0.0
N43 N 0.87569 0.92114 0.05142 0.0
C44 C 0.03653 0.97415 0.0778 0.0
C45 C 0.07422 0.96234 0.06118 0.0
C46 C 0.03922 0.94659 0.08598 0.0
N47 N 0.0541 0.98159 0.06572 0.0
C48 C 0.07764 0.93442 0.06905 0.0
C49 C 0.05994 0.92626 0.08163 0.0
H50 H 0.02058 0.98988 0.08109 0.0
H51 H 0.08752 0.96859 0.05147 0.0
C52 C 0.963 0.02325 0.01629 0.0
N53 N 0.97282 0.00221 0.02476 0.0
C54 C 0.93577 0.0026 0.00603 0.0
C55 C 0.92888 0.93918 0.01363 0.0
C56 C 0.95684 0.9611 0.02353 0.0
C57 C 0.91835 0.96005 0.0047 0.0
H58 H 0.9769 0.05608 0.01737 0.0
H59 H 0.96635 0.94548 0.03015 0.0
O60 O 0.08547 0.07959 0.06096 0.0
O61 O 0.0391 0.08956 0.03791 0.0
O62 O 0.05812 0.01859 0.03676 0.0
O63 O 0.99454 0.01479 0.05679 0.0
H64 H 0.06177 0.08123 0.08549 0.0
H65 H 0.14721 0.06511 0.06126 0.0
H66 H 0.09283 0.07037 0.10514 0.0
H67 H 0.17661 0.0543 0.08135 0.0
H68 H 0.96441 0.15336 0.04205 0.0
H69 H 0.10076 0.16569 0.03952 0.0
H70 H 0.96963 0.09062 0.03924 0.0
H71 H 0.09325 0.22712 0.04225 0.0
H72 H 0.23451 0.17405 0.03811 0.0
H73 H 0.16378 0.14685 0.00254 0.0
H74 H 0.943 0.08908 0.09037 0.0
H75 H 0.0662 0.19089 0.08676 0.0
H76 H 0.04087 0.01148 0.01138 0.0
H77 H 0.13289 0.03036 0.03955 0.0
H78 H 0.0882 0.01624 0.99351 0.0
H79 H 0.17862 0.03485 0.02117 0.0
H80 H 0.96802 0.93589 0.05984 0.0
H81 H 0.9322 0.02367 0.04978 0.0
H82 H 0.89638 0.88046 0.0565 0.0
H83 H 0.86119 0.96666 0.04658 0.0
H84 H 0.02561 0.94163 0.09567 0.0
H85 H 0.09344 0.91901 0.06527 0.0
H86 H 0.92839 0.01954 -0.00079 0.0
H87 H 0.91653 0.90644 0.01272 0.0
Li88 Li 0.0162 0.97127 0.37563 0.0
Li89 Li 0.06524 0.03149 0.38804 0.0
Li90 Li 0.99173 0.00498 0.39008 0.0
Li91 Li 0.02874 0.03912 0.37031 0.0
C92 C 0.02144 0.94335 0.39842 0.0
N93 N 0.01917 0.87114 0.40426 0.0
C94 C 0.0577 0.94312 0.40075 0.0
C95 C 0.98401 0.90693 0.39916 0.0
C96 C 0.0559 0.90627 0.40367 0.0
C97 C 0.98351 0.87072 0.40208 0.0
C98 C 0.08479 0.03167 0.35742 0.0
C99 C 0.13126 0.0856 0.34323 0.0
N100 N 0.1162 0.05938 0.33274 0.0
C101 C 0.06984 0.00521 0.34652 0.0
C102 C 0.11586 0.07214 0.3558 0.0
C103 C 0.08613 0.01982 0.33412 0.0
C104 C 0.97052 0.89033 0.36474 0.0
N105 N 0.00772 0.92051 0.3689 0.0
C106 C 0.03757 0.8789 0.3642 0.0
C107 C 0.041 0.91564 0.36864 0.0
C108 C -0.0004 0.84706 0.35983 0.0
C109 C 0.96575 0.85307 0.3601 0.0
H110 H 0.94465 0.8952 0.36502 0.0
H111 H 0.07024 0.94043 0.37191 0.0
C112 C 0.11068 0.05642 0.41101 0.0
N113 N 0.11418 0.05406 0.39778 0.0
C114 C 0.14509 0.07144 0.41894 0.0
C115 C 0.18601 0.0801 0.39951 0.0
C116 C 0.15077 0.0655 0.39191 0.0
C117 C 0.18327 0.08317 0.4132 0.0
H118 H 0.08094 0.04605 0.4154 0.0
H119 H 0.15242 0.06258 0.38137 0.0
C120 C 0.93572 0.9778 0.37179 0.0
N121 N 0.85531 0.95972 0.37327 0.0
C122 C 0.92427 0.00455 0.36661 0.0
C123 C 0.90625 0.94174 0.37765 0.0
C124 C 0.88345 0.99487 0.36747 0.0
C125 C 0.86577 0.9332 0.37833 0.0
C126 C 0.05866 0.09411 0.39657 0.0
C127 C 0.04429 0.09514 0.40921 0.0
C128 C 0.09752 0.12499 0.39279 0.0
C129 C 0.06914 0.12696 0.41788 0.0
C130 C 0.12146 0.15623 0.40176 0.0
N131 N 0.10689 0.15656 0.41402 0.0
C132 C 0.94418 0.97673 0.41303 0.0
C133 C 0.93401 0.02362 0.40082 0.0
C134 C 0.91939 0.97767 0.42314 0.0
N135 N 0.95132 -0.00011 0.40225 0.0
C136 C 0.90885 0.02531 0.41065 0.0
C137 C 0.90207 0.0029 0.42215 0.0
H138 H 0.95927 0.95905 0.41405 0.0
H139 H 0.94118 0.04256 0.3923 0.0
C140 C 0.0178 0.05892 0.34449 0.0
N141 N 0.03191 0.07414 0.35673 0.0
C142 C 0.01976 0.08494 0.33463 0.0
C143 C 0.05046 0.14153 0.35022 0.0
C144 C 0.04776 0.11447 0.35975 0.0
C145 C 0.03637 0.12689 0.33746 0.0
H146 H 0.00484 0.02655 0.34243 0.0
H147 H 0.05786 0.12561 0.36961 0.0
O148 O 0.0226 0.9789 0.39521 0.0
O149 O 0.06864 0.01823 0.3696 0.0
O150 O 0.97558 0.98692 0.37117 0.0
O151 O 0.03503 0.06287 0.38798 0.0
H152 H 0.08696 0.97095 0.40015 0.0
H153 H 0.95568 0.90655 0.39732 0.0
H154 H 0.08373 0.90559 0.40543 0.0
H155 H 0.95479 0.84226 0.40259 0.0
H156 H 0.15511 0.11691 0.34181 0.0
H157 H 0.04562 0.97387 0.34759 0.0
H158 H 0.12759 0.09306 0.36413 0.0
H159 H 0.07474 -0.00025 0.32558 0.0
H160 H 0.06457 0.87579 0.3639 0.0
H161 H 0.93596 0.82921 0.35682 0.0
H162 H 0.14168 0.07258 0.42949 0.0
H163 H 0.21498 0.08867 0.39478 0.0
H164 H 0.94667 0.03267 0.36209 0.0
H165 H 0.91463 0.92082 0.38177 0.0
H166 H 0.87418 0.01536 0.36355 0.0
H167 H 0.8427 0.90553 0.38291 0.0
H168 H 0.01448 0.07149 0.41236 0.0
H169 H 0.10937 0.12445 0.38311 0.0
H170 H 0.05846 0.12804 0.42771 0.0
H171 H 0.15168 0.18012 0.399 0.0
H172 H 0.91555 0.96043 0.43191 0.0
H173 H 0.89577 0.04484 0.40942 0.0
H174 H 0.00865 0.07248 0.3249 0.0
H175 H 0.06266 0.17348 0.35289 0.0
Li176 Li 0.09804 0.04976 0.709 0.0
Li177 Li 0.09509 0.10716 0.72068 0.0
Li178 Li 0.04399 0.03613 0.72523 0.0
Li179 Li 0.04639 0.06851 0.70368 0.0
C180 C 0.11412 0.04608 0.73766 0.0
N181 N 0.13487 0.00978 0.75704 0.0
C182 C 0.13002 0.06673 0.74959 0.0
C183 C 0.1093 0.00722 0.73553 0.0
C184 C 0.14017 0.0478 0.75928 0.0
C185 C 0.11983 0.98932 0.74546 0.0
C186 C 0.11345 0.12029 0.69001 0.0
C187 C 0.11212 0.17015 0.67596 0.0
N188 N 0.12614 0.15641 0.66583 0.0
C189 C 0.12815 0.10688 0.67948 0.0
C190 C 0.10568 0.1524 0.68828 0.0
C191 C 0.13428 0.12547 0.66732 0.0
C192 C 0.12693 0.00955 0.69137 0.0
N193 N 0.13489 0.03305 0.70245 0.0
C194 C 0.20075 0.03922 0.70431 0.0
C195 C 0.17091 0.04789 0.70893 0.0
C196 C 0.19365 0.01548 0.6928 0.0
C197 C 0.15595 0.00022 0.68638 0.0
H198 H 0.09877 -0.0007 0.68613 0.0
H199 H 0.17679 0.06717 0.71757 0.0
C200 C 0.12425 0.16496 0.74155 0.0
N201 N 0.12813 0.15949 0.7285 0.0
C202 C 0.15058 0.20223 0.74773 0.0
C203 C 0.18453 0.22754 0.72692 0.0
C204 C 0.15727 0.18986 0.72112 0.0
C205 C 0.18162 0.23386 0.74043 0.0
H206 H 0.10152 0.13993 0.74724 0.0
H207 H 0.16017 0.18443 0.71081 0.0
C208 C 0.02692 0.97592 0.70154 0.0
N209 N 0.00367 0.90007 0.69032 0.0
C210 C 0.01657 0.96842 0.68825 0.0
C211 C 0.0247 0.94459 0.70918 0.0
C212 C 0.00511 0.92995 0.68275 0.0
C213 C 0.01308 0.90653 0.70331 0.0
C214 C 0.02942 0.11054 0.7286 0.0
C215 C 0.01779 0.10402 0.7418 0.0
C216 C 0.03564 0.14616 0.72263 0.0
C217 C 0.01328 0.13368 0.74887 0.0
C218 C 0.03086 0.1751 0.73004 0.0
N219 N 0.01991 0.16833 0.7429 0.0
C220 C 0.0174 0.00331 0.75078 0.0
C221 C 0.97207 0.96777 0.7332 0.0
C222 C 0.98998 0.9753 0.75974 0.0
N223 N 0.00816 -0.00121 0.73779 0.0
C224 C 0.94378 0.93909 0.74179 0.0
C225 C 0.95263 0.94256 0.75526 0.0
H226 H 0.04579 0.02888 0.75422 0.0
H227 H 0.96518 0.96547 0.72285 0.0
C228 C 0.01857 0.06704 0.67746 0.0
N229 N 0.0122 0.07024 0.69049 0.0
C230 C 0.99202 0.06781 0.66822 0.0
C231 C 0.95235 0.07407 0.686 0.0
C232 C 0.97981 0.07352 0.69486 0.0
C233 C 0.95828 0.07129 0.67245 0.0
H234 H 0.04401 0.06355 0.67422 0.0
H235 H 0.97491 0.07514 0.70528 0.0
O236 O 0.10388 0.06415 0.72809 0.0
O237 O 0.10722 0.10241 0.70197 0.0
O238 O 0.03794 0.01337 0.7071 0.0
O239 O 0.03439 0.08205 0.72154 0.0
H240 H 0.13429 0.09698 0.75137 0.0
H241 H 0.09799 0.99124 0.72626 0.0
H242 H 0.15228 0.06333 0.76859 0.0
H243 H 0.11619 0.95921 0.74394 0.0
H244 H 0.10601 0.19486 0.67447 0.0
H245 H 0.13464 0.08231 0.68067 0.0
H246 H 0.09468 0.1634 0.69635 0.0
H247 H 0.14546 0.11527 0.65908 0.0
H248 H 0.22927 0.05145 0.7096 0.0
H249 H 0.14955 0.98264 0.6773 0.0
H250 H 0.14784 0.20561 0.75822 0.0
H251 H 0.20808 0.2512 0.72097 0.0
H252 H 0.01772 0.99214 0.68223 0.0
H253 H 0.0314 0.94938 0.71955 0.0
H254 H -0.00264 0.92385 0.67245 0.0
H255 H 0.01135 0.88206 0.7091 0.0
H256 H 0.01262 0.07651 0.74655 0.0
H257 H 0.04414 0.15141 0.71239 0.0
H258 H 0.00456 0.12917 0.75912 0.0
H259 H 0.03582 0.20292 0.72556 0.0
H260 H -0.00192 0.97907 0.77003 0.0
H261 H 0.91502 0.91485 0.73795 0.0
H262 H -0.00202 0.06582 0.65788 0.0
H263 H 0.92629 0.07579 0.68976 0.0
H264 H 0.02234 0.46687 0.13369 0.0
H265 H 0.11421 0.79739 0.24785 0.0
H266 H 0.985 0.44182 0.21619 0.0
H267 H 0.96728 0.37561 0.20612 0.0
H268 H 0.08927 0.42839 0.18988 0.0
H269 H 0.1071 0.49396 0.20046 0.0
H270 H 0.99498 0.48654 0.18935 0.0
H271 H 0.99434 0.46965 0.16601 0.0
H272 H 0.12256 0.56054 0.16327 0.0
H273 H 0.12289 0.57674 0.18668 0.0
H274 H 0.00354 0.57058 0.19171 0.0
H275 H 0.00728 0.61639 0.17458 0.0
H276 H 0.13232 0.70203 0.18548 0.0
H277 H 0.12866 0.65491 0.20231 0.0
H278 H 0.00696 0.61344 0.21892 0.0
H279 H 0.01258 0.67841 0.22609 0.0
H280 H 0.13312 0.71792 0.24144 0.0
H281 H 0.12725 0.65302 0.2341 0.0
H282 H 0.99131 0.55305 0.24263 0.0
H283 H 0.98343 0.57049 0.26531 0.0
H284 H 0.10809 0.60246 0.27335 0.0
H285 H 0.11565 0.5848 0.2505 0.0
H286 H 0.99233 0.47446 0.24292 0.0
H287 H 0.98841 0.42296 0.25802 0.0
H288 H 0.11137 0.45356 0.24711 0.0
H289 H 0.11523 0.50542 0.23231 0.0
O290 O 0.02328 0.47407 0.14291 0.0
O291 O 0.08909 0.52146 0.14199 0.0
O292 O 0.04914 0.74975 0.23682 0.0
O293 O 0.11118 0.77144 0.2449 0.0
C294 C 0.05544 0.51374 0.21336 0.0
C295 C 0.05953 0.54244 0.20395 0.0
C296 C 0.06367 0.58029 0.20808 0.0
C297 C 0.06334 0.58926 0.22159 0.0
C298 C 0.05901 0.56037 0.23096 0.0
C299 C 0.05599 0.52305 0.22686 0.0
C300 C 0.04725 0.47262 0.20899 0.0
C301 C 0.00819 0.43868 0.21077 0.0
C302 C -0.00198 0.40105 0.20491 0.0
C303 C 0.02671 0.39686 0.19708 0.0
C304 C 0.06658 0.43044 0.19595 0.0
C305 C 0.07679 0.468 0.2019 0.0
C306 C 0.05903 0.5327 0.18971 0.0
C307 C 0.02293 0.50263 0.1837 0.0
C308 C 0.02263 0.49312 0.17036 0.0
C309 C 0.05842 0.51371 0.16277 0.0
C310 C 0.09448 0.54408 0.16883 0.0
C311 C 0.09476 0.55345 0.18219 0.0
C312 C 0.06587 0.60941 0.19818 0.0
C313 C 0.03174 0.59921 0.19037 0.0
C314 C 0.03386 0.6256 0.18067 0.0
C315 C 0.07009 0.66293 0.17869 0.0
C316 C 0.10415 0.67329 0.18666 0.0
C317 C 0.10204 0.64666 0.19633 0.0
C318 C 0.06674 0.62864 0.22596 0.0
C319 C 0.0346 0.63626 0.22379 0.0
C320 C 0.03787 0.67334 0.22792 0.0
C321 C 0.07334 0.70339 0.23434 0.0
C322 C 0.10541 0.69548 0.23653 0.0
C323 C 0.10212 0.65843 0.23237 0.0
C324 C 0.05405 0.56789 0.24498 0.0
C325 C 0.01669 0.56328 0.24936 0.0
C326 C 0.01218 0.57293 0.26232 0.0
C327 C 0.04512 0.58767 0.2711 0.0
C328 C 0.08228 0.59126 0.26676 0.0
C329 C 0.08664 0.58118 0.25378 0.0
C330 C 0.05417 0.49376 0.23662 0.0
C331 C 0.01856 0.47037 0.24397 0.0
C332 C 0.01626 0.44078 0.25247 0.0
C333 C 0.04958 0.43421 0.25374 0.0
C334 C 0.08541 0.45827 0.24649 0.0
C335 C 0.08764 0.48774 0.238 0.0
C336 C 0.05802 0.50345 0.1486 0.0
C337 C 0.07699 0.74285 0.23874 0.0
H338 H 0.58091 0.05883 0.46339 0.0
H339 H 0.33696 0.10364 0.57474 0.0
H340 H 0.57158 -0.0014 0.53233 0.0
H341 H 0.62536 0.99189 0.52109 0.0
H342 H 0.7154 0.11096 0.53627 0.0
H343 H 0.66076 0.11781 0.54721 0.0
H344 H 0.51361 0.01773 0.51649 0.0
H345 H 0.53174 0.02414 0.49318 0.0
H346 H 0.63914 0.14128 0.50141 0.0
H347 H 0.62034 0.13467 0.52467 0.0
H348 H 0.44536 0.01923 0.53147 0.0
H349 H 0.40617 0.0303 0.51479 0.0
H350 H 0.50156 0.15697 0.51242 0.0
H351 H 0.54097 0.14507 0.52884 0.0
H352 H 0.43898 0.00398 0.56301 0.0
H353 H 0.37697 0.00351 0.57059 0.0
H354 H 0.43383 0.13279 0.56287 0.0
H355 H 0.49582 0.13292 0.55548 0.0
H356 H 0.51077 0.99382 0.5771 0.0
H357 H 0.48159 0.97862 0.59918 0.0
H358 H 0.49779 0.10031 0.60259 0.0
H359 H 0.52926 0.1159 0.58086 0.0
H360 H 0.57999 0.99682 0.56354 0.0
H361 H 0.62814 0.99442 0.57885 0.0
H362 H 0.66991 0.12011 0.59052 0.0
H363 H 0.62079 0.12154 0.57554 0.0
O364 O 0.57417 0.05704 0.47264 0.0
O365 O 0.62905 0.11703 0.4774 0.0
O366 O 0.3334 0.03659 0.57571 0.0
O367 O 0.36112 0.10297 0.57182 0.0
C368 C 0.57866 0.06471 0.54543 0.0
C369 C 0.55479 0.07154 0.53641 0.0
C370 C 0.52055 0.07398 0.54085 0.0
C371 C 0.50954 0.06865 0.55425 0.0
C372 C 0.53411 0.06281 0.56334 0.0
C373 C 0.56913 0.06166 0.55893 0.0
C374 C 0.61237 0.05875 0.54048 0.0
C375 C 0.60303 0.02289 0.53341 0.0
C376 C 0.63387 0.01903 0.52708 0.0
C377 C 0.6747 0.05097 0.52776 0.0
C378 C 0.68419 0.08605 0.53545 0.0
C379 C 0.65317 0.08992 0.54177 0.0
C380 C 0.5656 0.07579 0.52224 0.0
C381 C 0.54088 0.04486 0.51321 0.0
C382 C 0.55139 0.04855 0.49991 0.0
C383 C 0.58691 0.08323 0.49542 0.0
C384 C 0.61159 0.11418 0.50453 0.0
C385 C 0.60096 0.11048 0.51782 0.0
C386 C 0.49584 0.08138 0.53133 0.0
C387 C 0.45754 0.04938 0.52739 0.0
C388 C 0.43519 0.05586 0.51791 0.0
C389 C 0.45074 0.09456 0.51227 0.0
C390 C 0.48899 0.12668 0.51642 0.0
C391 C 0.51139 0.12008 0.52585 0.0
C392 C 0.47184 0.06847 0.55871 0.0
C393 C 0.43798 0.03217 0.563 0.0
C394 C 0.40261 0.03199 0.5673 0.0
C395 C 0.40044 0.06814 0.56733 0.0
C396 C 0.43445 0.10443 0.56297 0.0
C397 C 0.46985 0.10458 0.55871 0.0
C398 C 0.52183 0.05585 0.57735 0.0
C399 C 0.50908 0.01754 0.58279 0.0
C400 C 0.49197 0.00877 0.59535 0.0
C401 C 0.48676 0.03801 0.60262 0.0
C402 C 0.50165 0.07715 0.59737 0.0
C403 C 0.51931 0.08605 0.58489 0.0
C404 C 0.59699 0.05932 0.56848 0.0
C405 C 0.59943 0.02365 0.56949 0.0
C406 C 0.62712 0.02249 0.57817 0.0
C407 C 0.65298 0.05711 0.58591 0.0
C408 C 0.65005 0.09268 0.58489 0.0
C409 C 0.62218 0.09367 0.57629 0.0
C410 C 0.59811 0.08694 0.4813 0.0
C411 C 0.36292 0.06811 0.57188 0.0
H412 H 0.61868 0.59507 0.96535 0.0
H413 H 0.35953 0.27593 0.8596 0.0
H414 H 0.57651 0.6254 0.89243 0.0
H415 H 0.62228 0.68861 0.90443 0.0
H416 H 0.72085 0.66262 0.89943 0.0
H417 H 0.67458 0.59907 0.88737 0.0
H418 H 0.54495 0.56695 0.9133 0.0
H419 H 0.56792 0.58277 0.93613 0.0
H420 H 0.65328 0.53986 0.92851 0.0
H421 H 0.62998 0.52426 0.90569 0.0
H422 H 0.47658 0.49168 0.90488 0.0
H423 H 0.44378 0.44793 0.92377 0.0
H424 H 0.51909 0.39254 0.91794 0.0
H425 H 0.55247 0.43718 0.89915 0.0
H426 H 0.44989 0.47697 0.87179 0.0
H427 H 0.38887 0.41258 0.86557 0.0
H428 H 0.45744 0.3495 0.86878 0.0
H429 H 0.51832 0.41419 0.87483 0.0
H430 H 0.51315 0.56092 0.85647 0.0
H431 H 0.47604 0.54468 0.83576 0.0
H432 H 0.5011 0.44595 0.82858 0.0
H433 H 0.5398 0.4637 0.84907 0.0
H434 H 0.58376 0.63041 0.86611 0.0
H435 H 0.62805 0.68119 0.85007 0.0
H436 H 0.67553 0.60235 0.83793 0.0
H437 H 0.63098 0.55185 0.85388 0.0
O438 O 0.60994 0.58846 0.9563 0.0
O439 O 0.65322 0.56594 0.95189 0.0
O440 O 0.34934 0.33571 0.86049 0.0
O441 O 0.38318 0.30181 0.86206 0.0
C442 C 0.59213 0.56617 0.88458 0.0
C443 C 0.57241 0.53565 0.89403 0.0
C444 C 0.53934 0.49723 0.89037 0.0
C445 C 0.52553 0.48938 0.87727 0.0
C446 C 0.54595 0.51977 0.86772 0.0
C447 C 0.57993 0.55781 0.87136 0.0
C448 C 0.62242 0.60796 0.88903 0.0
C449 C 0.60832 0.63404 0.89356 0.0
C450 C 0.63434 0.66988 0.90046 0.0
C451 C 0.67488 0.68017 0.9029 0.0
C452 C 0.68977 0.65543 0.89756 0.0
C453 C 0.66352 0.61928 0.8907 0.0
C454 C 0.58582 0.54446 0.90791 0.0
C455 C 0.56853 0.56093 0.91662 0.0
C456 C 0.58174 0.56995 0.92963 0.0
C457 C 0.61245 0.56259 0.93414 0.0
C458 C 0.62958 0.5459 0.92535 0.0
C459 C 0.61634 0.53692 0.91234 0.0
C460 C 0.51657 0.46725 0.90067 0.0
C461 C 0.4856 0.46975 0.90761 0.0
C462 C 0.46722 0.44508 0.91841 0.0
C463 C 0.47923 0.41721 0.9223 0.0
C464 C 0.50932 0.41376 0.91506 0.0
C465 C 0.52822 0.439 0.90436 0.0
C466 C 0.48843 0.45016 0.87376 0.0
C467 C 0.45162 0.44919 0.87114 0.0
C468 C 0.41684 0.41238 0.8676 0.0
C469 C 0.41828 0.37586 0.86668 0.0
C470 C 0.45526 0.37702 0.8694 0.0
C471 C 0.49004 0.41388 0.8729 0.0
C472 C 0.52899 0.51336 0.85429 0.0
C473 C 0.51161 0.53654 0.85023 0.0
C474 C 0.49006 0.52694 0.83847 0.0
C475 C 0.48518 0.49371 0.83061 0.0
C476 C 0.50457 0.47195 0.83436 0.0
C477 C 0.52644 0.48181 0.84609 0.0
C478 C 0.60454 0.58772 0.8612 0.0
C479 C 0.60375 0.62423 0.85996 0.0
C480 C 0.62908 0.65314 0.85083 0.0
C481 C 0.65539 0.64583 0.84276 0.0
C482 C 0.65528 0.60871 0.84387 0.0
C483 C 0.63003 0.57992 0.85301 0.0
C484 C 0.62653 0.57236 0.94796 0.0
C485 C 0.38145 0.33669 0.86289 0.0
C486 C 0.02877 0.17722 0.11191 0.0
C487 C -0.00194 0.16137 0.10231 0.0
C488 C 0.02385 0.19461 0.1235 0.0
C489 C 0.97138 0.24632 0.13677 0.0
H490 H 0.00985 0.23091 0.17009 0.0
C491 C 0.97669 0.34061 0.18232 0.0
C492 C 0.01416 0.35921 0.18905 0.0
C493 C 0.96713 0.30874 0.1733 0.0
C494 C -0.00099 0.23553 0.16086 0.0
H495 H 0.93785 0.15074 0.09736 0.0
H496 H 0.92925 0.18148 0.11772 0.0
H497 H 0.00713 0.18941 0.15096 0.0
H498 H 0.06975 0.35719 0.19222 0.0
H499 H 0.0536 0.3023 0.17621 0.0
H500 H 0.96479 0.29349 0.14645 0.0
C501 C 0.95717 0.18045 0.11621 0.0
C502 C -0.00257 0.21178 0.14993 0.0
C503 C 0.962 0.16276 0.10461 0.0
C504 C 0.04089 0.34382 0.18706 0.0
C505 C 0.03138 0.31203 0.178 0.0
C506 C 0.97308 0.27014 0.14768 0.0
C507 C 0.98813 0.19663 0.12575 0.0
C508 C 0.98456 0.21768 0.13771 0.0
C509 C 0.9949 0.29491 0.17076 0.0
C510 C 0.98784 0.26569 0.15977 0.0
H511 H 0.0566 0.17595 0.1105 0.0
H512 H 0.04846 0.20731 0.13059 0.0
H513 H 0.96174 0.25184 0.12745 0.0
H514 H 0.95555 0.35196 0.18352 0.0
H515 H 0.93854 0.2958 0.16801 0.0
C516 C 0.88604 0.04721 0.43682 0.0
C517 C 0.8797 0.00815 0.43341 0.0
C518 C 0.86647 0.05276 0.44772 0.0
C519 C 0.81758 0.00693 0.47902 0.0
H520 H 0.76766 0.07451 0.47583 0.0
C521 C 0.70589 0.01195 0.51738 0.0
C522 C 0.70615 0.04905 0.51938 0.0
C523 C 0.73109 0.00859 0.50787 0.0
C524 C 0.78207 0.05615 0.47698 0.0
H525 H 0.84744 0.94422 0.43872 0.0
H526 H 0.81331 0.95403 0.45784 0.0
H527 H 0.8023 0.06463 0.45701 0.0
H528 H 0.73471 0.11233 0.51344 0.0
H529 H 0.77964 0.10683 0.4972 0.0
H530 H 0.79722 -0.00162 0.49901 0.0
C531 C 0.8338 0.98035 0.45211 0.0
C532 C 0.80175 0.05035 0.46616 0.0
C533 C 0.85327 0.97474 0.44116 0.0
C534 C 0.73393 0.08336 0.51222 0.0
C535 C 0.75926 0.08006 0.50277 0.0
C536 C 0.79801 0.01287 0.48988 0.0
C537 C 0.84026 0.01944 0.4555 0.0
C538 C 0.81958 0.02559 0.46705 0.0
C539 C 0.75722 0.04233 0.50021 0.0
C540 C 0.77993 0.03747 0.48896 0.0
H541 H 0.90692 0.07376 0.43125 0.0
H542 H 0.87248 0.08333 0.4502 0.0
H543 H 0.83154 0.98809 0.48002 0.0
H544 H 0.68521 0.98511 0.52286 0.0
H545 H 0.72865 0.97904 0.50612 0.0
C546 C 0.91532 0.9252 0.77683 0.0
C547 C 0.92278 0.91241 0.76455 0.0
C548 C 0.88648 0.89683 0.78542 0.0
C549 C 0.83008 0.78645 0.79252 0.0
H550 H 0.7561 0.81308 0.8113 0.0
C551 C 0.69079 0.66564 0.82094 0.0
C552 C 0.68387 0.67718 0.8335 0.0
C553 C 0.71943 0.69482 0.81252 0.0
C554 C 0.7768 0.80537 0.80621 0.0
H555 H 0.9064 0.8597 0.75178 0.0
H556 H 0.85552 0.81037 0.76664 0.0
H557 H 0.80792 0.86321 0.79676 0.0
H558 H 0.70134 0.72845 0.84703 0.0
H559 H 0.75119 0.77947 0.83227 0.0
H560 H 0.79886 0.72857 0.80191 0.0
C561 C 0.87221 0.84227 0.76969 0.0
C562 C 0.80652 0.83409 0.79791 0.0
C563 C 0.90103 0.8706 0.76111 0.0
C564 C 0.70557 0.71868 0.83735 0.0
C565 C 0.73417 0.74788 0.8289 0.0
C566 C 0.80033 0.75774 0.80079 0.0
C567 C 0.86451 0.85506 0.78192 0.0
C568 C 0.83342 0.8249 0.79094 0.0
C569 C 0.74171 0.73618 0.81646 0.0
C570 C 0.77329 0.76683 0.8077 0.0
H571 H 0.93128 0.95724 0.77972 0.0
H572 H 0.88157 0.9076 0.79484 0.0
H573 H 0.85078 0.77869 0.78746 0.0
H574 H 0.67406 0.63401 0.81762 0.0
H575 H 0.72405 0.68499 0.80289 0.0
C576 C 0.09944 0.89587 0.09123 0.0
C577 C 0.06275 0.89661 0.09021 0.0
C578 C 0.10231 0.86896 0.09976 0.0
C579 C 0.03887 0.77493 0.11862 0.0
H580 H 0.13435 0.81648 0.14093 0.0
C581 C 0.03849 0.69585 0.16591 0.0
C582 C 0.07214 0.69058 0.16824 0.0
C583 C 0.03938 0.72015 0.15569 0.0
C584 C 0.10776 0.80434 0.13465 0.0
H585 H -5e-05 0.86886 0.09698 0.0
H586 H 0.0052 0.82281 0.11206 0.0
H587 H 0.13199 0.85983 0.12394 0.0
H588 H 0.13337 0.70716 0.16173 0.0
H589 H 0.13513 0.75039 0.14395 0.0
H590 H 0.01421 0.71989 0.12956 0.0
C591 C 0.03168 0.84262 0.1062 0.0
C592 C 0.10642 0.82907 0.1249 0.0
C593 C 0.02881 0.86941 0.09768 0.0
C594 C 0.10712 0.71098 0.16028 0.0
C595 C 0.10811 0.73558 0.15008 0.0
C596 C 0.04012 0.75036 0.12839 0.0
C597 C 0.0685 0.84223 0.1074 0.0
C598 C 0.07164 0.81485 0.11693 0.0
C599 C 0.07404 0.73997 0.14761 0.0
C600 C 0.07426 0.76507 0.13664 0.0
H601 H 0.12621 0.91669 0.08566 0.0
H602 H 0.13099 0.86912 0.10039 0.0
H603 H 0.01202 0.76277 0.11246 0.0
H604 H 0.01142 0.68129 0.17203 0.0
H605 H 0.013 0.7237 0.15416 0.0
C606 C 0.22787 0.12436 0.43195 0.0
C607 C 0.21923 0.09587 0.42166 0.0
C608 C 0.25852 0.1324 0.441 0.0
C609 C 0.34506 0.11442 0.4478 0.0
H610 H 0.31479 0.11967 0.48401 0.0
C611 C 0.44754 0.12525 0.49102 0.0
C612 C 0.42739 0.10112 0.50194 0.0
C613 C 0.42538 0.13039 0.48112 0.0
C614 C 0.32363 0.11803 0.47396 0.0
H615 H 0.23651 0.05444 0.41243 0.0
H616 H 0.28928 0.06752 0.42839 0.0
H617 H 0.27145 0.11855 0.46647 0.0
H618 H 0.36821 0.06426 0.51114 0.0
H619 H 0.32951 0.07187 0.49369 0.0
H620 H 0.39601 0.11147 0.45536 0.0
C621 C 0.27321 0.08448 0.42936 0.0
C622 C 0.2991 0.11807 0.46387 0.0
C623 C 0.24289 0.07685 0.42022 0.0
C624 C 0.38465 0.08261 0.50279 0.0
C625 C 0.3625 0.0875 0.49286 0.0
C626 C 0.36943 0.11401 0.45792 0.0
C627 C 0.28074 0.11164 0.44004 0.0
C628 C 0.30916 0.11566 0.45066 0.0
C629 C 0.38256 0.11133 0.48188 0.0
C630 C 0.35862 0.11513 0.47112 0.0
H631 H 0.2103 0.13976 0.43316 0.0
H632 H 0.26413 0.15419 0.44892 0.0
H633 H 0.35403 0.11311 0.43775 0.0
H634 H 0.4804 0.13958 0.48999 0.0
H635 H 0.44184 0.14929 0.47287 0.0
C636 C 0.25446 0.28687 0.74464 0.0
C637 C 0.21271 0.27175 0.74714 0.0
C638 C 0.28407 0.31927 0.75217 0.0
C639 C 0.29546 0.36509 0.78506 0.0
H640 H 0.40312 0.44427 0.77231 0.0
C641 C 0.41869 0.47743 0.82046 0.0
C642 C 0.45671 0.47927 0.8193 0.0
C643 C 0.38968 0.45954 0.81051 0.0
C644 C 0.37317 0.42231 0.77599 0.0
H645 H 0.16916 0.28038 0.75882 0.0
H646 H 0.22088 0.33754 0.77185 0.0
H647 H 0.34988 0.40001 0.75667 0.0
H648 H 0.49489 0.46572 0.80648 0.0
H649 H 0.44377 0.43365 0.78916 0.0
H650 H 0.31878 0.38659 0.80434 0.0
C651 C 0.23076 0.3237 0.76429 0.0
C652 C 0.34271 0.39696 0.76706 0.0
C653 C 0.20115 0.29108 0.75683 0.0
C654 C 0.46571 0.46436 0.80771 0.0
C655 C 0.43662 0.44642 0.79774 0.0
C656 C 0.32576 0.39048 0.79395 0.0
C657 C 0.27254 0.33739 0.76231 0.0
C658 C 0.30369 0.36759 0.77152 0.0
C659 C 0.39794 0.44294 0.7992 0.0
C660 C 0.36511 0.41892 0.78954 0.0
H661 H 0.26426 0.27226 0.73732 0.0
H662 H 0.3159 0.32863 0.75047 0.0
H663 H 0.26609 0.34229 0.78888 0.0
H664 H 0.41054 0.48818 0.82931 0.0
H665 H 0.36031 0.4577 0.81185 0.0
C666 C 0.91731 0.04545 0.65165 0.0
C667 C 0.92876 0.07103 0.6629 0.0
C668 C 0.88806 0.04386 0.64303 0.0
C669 C 0.80062 0.06013 0.64212 0.0
H670 H 0.81737 0.06613 0.60444 0.0
C671 C 0.69171 0.07676 0.60715 0.0
C672 C 0.68342 0.05656 0.59486 0.0
C673 C 0.72142 0.07765 0.61536 0.0
C674 C 0.8119 0.06376 0.61492 0.0
H675 H 0.91949 0.11619 0.67361 0.0
H676 H 0.86785 0.11262 0.65872 0.0
H677 H 0.87028 0.06968 0.61879 0.0
H678 H 0.69991 0.02124 0.58161 0.0
H679 H 0.75055 0.02137 0.59615 0.0
H680 H 0.74208 0.05345 0.63835 0.0
C681 C 0.88129 0.09356 0.65666 0.0
C682 C 0.8423 0.06597 0.62313 0.0
C683 C 0.91078 0.09548 0.6652 0.0
C684 C 0.70515 0.03669 0.59107 0.0
C685 C 0.73466 0.03729 0.59933 0.0
C686 C 0.77007 0.05749 0.63393 0.0
C687 C 0.86942 0.06751 0.64556 0.0
C688 C 0.83705 0.06449 0.6368 0.0
C689 C 0.74335 0.05801 0.61154 0.0
C690 C 0.77542 0.05957 0.62023 0.0
H691 H 0.93007 0.02578 0.64966 0.0
H692 H 0.8792 0.02327 0.63459 0.0
H693 H 0.79554 0.05827 0.65263 0.0
H694 H 0.67519 0.09192 0.61047 0.0
H695 H 0.72762 0.09434 0.62461 0.0
C696 C 0.85247 0.90288 0.99629 0.0
C697 C 0.89061 0.93724 0.99375 0.0
C698 C 0.82801 0.87841 0.98597 0.0
C699 C 0.81558 0.8727 0.94961 0.0
H700 H 0.75879 0.75614 0.95596 0.0
C701 C 0.73999 0.74345 0.90949 0.0
C702 C 0.6996 0.71346 0.91237 0.0
C703 C 0.7634 0.77353 0.9189 0.0
C704 C 0.77436 0.78863 0.95409 0.0
H705 H 0.93297 0.97392 0.97859 0.0
H706 H 0.89092 0.93036 0.96046 0.0
H707 H 0.79891 0.80383 0.97342 0.0
H708 H 0.65206 0.69088 0.92724 0.0
H709 H 0.69308 0.74298 0.94367 0.0
H710 H 0.79164 0.85671 0.93003 0.0
C711 C 0.87926 0.92274 0.97038 0.0
C712 C 0.79709 0.81605 0.96411 0.0
C713 C 0.90342 0.94764 0.98073 0.0
C714 C 0.68296 0.71403 0.92473 0.0
C715 C 0.70645 0.74358 0.93415 0.0
C716 C 0.79321 0.84509 0.9395 0.0
C717 C 0.84163 0.88731 0.97289 0.0
C718 C 0.81764 0.85847 0.96207 0.0
C719 C 0.74692 0.77337 0.93135 0.0
C720 C 0.7721 0.80289 0.94172 0.0
H721 H 0.84189 0.89461 0.00629 0.0
H722 H 0.79872 0.85207 0.98827 0.0
H723 H 0.83071 0.90515 0.94772 0.0
H724 H 0.75338 0.74348 0.90002 0.0
H725 H 0.79467 0.79614 0.91659 0.0
C726 C 0.01589 0.7904 0.36053 0.0
C727 C 0.99621 0.80878 0.35438 0.0
C728 C 0.01675 0.75713 0.35457 0.0
C729 C 0.04217 0.71273 0.33482 0.0
H730 H 0.95529 0.63408 0.31228 0.0
C731 C 0.07159 0.64149 0.2888 0.0
C732 C 0.04141 0.60269 0.28431 0.0
C733 C 0.06511 0.65894 0.30014 0.0
C734 C 0.97966 0.65517 0.31872 0.0
H735 H 0.96079 0.8059 0.33744 0.0
H736 H 0.96271 0.74836 0.32695 0.0
H737 H 0.94213 0.67719 0.32731 0.0
H738 H 0.98228 0.55031 0.28866 0.0
H739 H 0.97114 0.58054 0.30863 0.0
H740 H 0.0798 0.69093 0.32615 0.0
C741 C 0.97686 0.759 0.33648 0.0
C742 C 0.97224 0.6803 0.32722 0.0
C743 C 0.97582 0.7921 0.34247 0.0
C744 C 0.00579 0.58054 0.29183 0.0
C745 C -0.0006 0.5979 0.30323 0.0
C746 C 0.04953 0.68742 0.32639 0.0
C747 C -0.00189 0.74169 0.34232 0.0
C748 C 0.00379 0.71034 0.33503 0.0
C749 C 0.02839 0.63785 0.30727 0.0
C750 C 0.01877 0.65933 0.31791 0.0
H751 H 0.03131 0.80228 0.36983 0.0
H752 H 0.03276 0.74406 0.35943 0.0
H753 H 0.06727 0.73566 0.34065 0.0
H754 H 0.09912 0.65945 0.28312 0.0
H755 H 0.08788 0.68998 0.30284 0.0
C756 C 0.26696 0.04151 0.68668 0.0
C757 C 0.22632 0.00911 0.68696 0.0
C758 C 0.29704 0.0371 0.67996 0.0
C759 C 0.30629 0.98083 0.65193 0.0
H760 H 0.41974 0.03194 0.66262 0.0
C761 C 0.42688 0.98806 0.61595 0.0
C762 C 0.46231 0.02666 0.61494 0.0
C763 C 0.40047 0.97923 0.62664 0.0
C764 C 0.38819 0.01758 0.65949 0.0
H765 H 0.18597 0.94583 0.68112 0.0
H766 H 0.23854 0.93826 0.66928 0.0
H767 H 0.3683 0.02842 0.6782 0.0
H768 H 0.4992 0.0851 0.62493 0.0
H769 H 0.45228 0.07033 0.64329 0.0
H770 H 0.326 0.97161 0.63311 0.0
C771 C 0.24693 0.96722 0.67413 0.0
C772 C 0.35876 0.01549 0.66841 0.0
C773 C 0.21684 0.9716 0.68087 0.0
C774 C 0.47181 0.05535 0.62527 0.0
C775 C 0.44515 0.04664 0.6359 0.0
C776 C 0.33564 0.98309 0.64302 0.0
C777 C 0.28713 0.00024 0.67335 0.0
C778 C 0.31763 -0.0022 0.66463 0.0
C779 C 0.40854 0.00891 0.63651 0.0
C780 C 0.37708 0.00219 0.64659 0.0
H781 H 0.27523 0.07099 0.69111 0.0
H782 H 0.32759 0.06329 0.67939 0.0
H783 H 0.27499 0.96763 0.64864 0.0
H784 H 0.41828 0.96526 0.60816 0.0
H785 H 0.37293 0.94958 0.62692 0.0
C786 C 0.26932 0.22934 0.01601 0.0
C787 C 0.24172 0.18927 0.01173 0.0
C788 C 0.30248 0.2551 0.00812 0.0
C789 C 0.36561 0.25769 0.97982 0.0
H790 H 0.37051 0.36027 0.97237 0.0
C791 C 0.4431 0.34982 0.93346 0.0
C792 C 0.46071 0.39248 0.93408 0.0
C793 C 0.42262 0.32634 0.94434 0.0
C794 C 0.37037 0.33225 0.97452 0.0
H795 H 0.22821 0.1438 0.99632 0.0
H796 H 0.28624 0.18876 0.98254 0.0
H797 H 0.32453 0.31676 0.98932 0.0
H798 H 0.4732 0.44447 0.94665 0.0
H799 H 0.43861 0.40374 0.9658 0.0
H800 H 0.41122 0.27298 0.96493 0.0
C801 C 0.28226 0.2003 0.99195 0.0
C802 C 0.34389 0.30727 0.98423 0.0
C803 C 0.2489 0.17474 -0.00024 0.0
C804 C 0.45919 0.41149 0.9459 0.0
C805 C 0.43927 0.38812 0.95683 0.0
C806 C 0.39249 0.28291 0.97018 0.0
C807 C 0.30882 0.241 0.99592 0.0
C808 C 0.34066 0.26941 0.9868 0.0
C809 C 0.41987 0.34519 0.9561 0.0
C810 C 0.39458 0.32014 0.96723 0.0
H811 H 0.26433 0.24125 0.02519 0.0
H812 H 0.32267 0.28632 0.01142 0.0
H813 H 0.3639 0.22875 0.98171 0.0
H814 H 0.4438 0.33456 0.9244 0.0
H815 H 0.4076 0.29335 0.94335 0.0
C816 C 0.07294 0.19433 0.32629 0.0
C817 C 0.03818 0.15535 0.32736 0.0
C818 C 0.07369 0.22239 0.31746 0.0
C819 C 0.00522 0.24777 0.30001 0.0
H820 H 0.10316 0.31905 0.28035 0.0
C821 C 0.01135 0.36281 0.26225 0.0
C822 C 0.04675 0.4016 0.26226 0.0
C823 C 0.00948 0.33149 0.2698 0.0
C824 C 0.07571 0.29962 0.28587 0.0
H825 H 0.97723 0.11489 0.31984 0.0
H826 H 0.97874 0.16385 0.30425 0.0
H827 H 0.10169 0.26567 0.29375 0.0
H828 H 0.10742 0.43836 0.27048 0.0
H829 H 0.10412 0.38379 0.28369 0.0
H830 H 0.97938 0.28202 0.29224 0.0
C831 C 0.00525 0.17277 0.31035 0.0
C832 C 0.07484 0.26901 0.29352 0.0
C833 C 0.00455 0.14461 0.31917 0.0
C834 C 0.07998 0.40861 0.27012 0.0
C835 C 0.07811 0.37733 0.27766 0.0
C836 C 0.00609 0.27842 0.29236 0.0
C837 C 0.03967 0.21212 0.30952 0.0
C838 C 0.03972 0.24299 0.30077 0.0
C839 C 0.04298 0.33833 0.2775 0.0
C840 C 0.04148 0.30493 0.28531 0.0
H841 H 0.09949 0.2033 0.33237 0.0
H842 H 0.10053 0.25256 0.31714 0.0
H843 H 0.9779 0.22858 0.30563 0.0
H844 H 0.98547 0.35632 0.25615 0.0
H845 H 0.98216 0.30166 0.26936 0.0
loop_
_geom_bond_atom_site_label_1
_geom_bond_atom_site_label_2
_geom_bond_distance
_geom_bond_site_symmetry_2
_ccdc_geom_bond_type
Li0 N17 1.990 . S
Li0 O60 1.956 . S
Li0 O61 1.970 . S
Li0 O62 1.961 . S
Li1 N25 1.990 . S
Li1 O60 1.970 . S
Li1 O61 1.956 . S
Li1 O63 1.961 . S
Li2 N47 1.990 1_545 S
Li2 O60 1.961 . S
Li2 O62 1.956 . S
Li2 O63 1.970 . S
Li3 N53 1.990 1_445 S
Li3 O61 1.961 . S
Li3 O62 1.970 . S
Li3 O63 1.956 . S
C4 C6 1.348 . S
C4 C7 1.356 . S
C4 O60 1.325 . S
N5 C8 1.314 . S
N5 C9 1.279 . S
C6 C4 1.348 . S
C6 C8 1.353 . S
C6 H64 0.929 . S
C7 C4 1.356 . S
C7 C9 1.358 . S
C7 H65 0.930 . S
C8 N5 1.314 . S
C8 C6 1.353 . S
C8 H66 0.930 . S
C9 N5 1.279 . S
C9 C7 1.358 . S
C9 H67 0.930 . S
C10 C13 1.348 . S
C10 C14 1.356 1_455 S
C10 O61 1.325 . S
C11 N12 1.279 1_655 S
C11 C14 1.358 . S
C11 H68 0.930 . S
N12 C11 1.279 1_455 S
N12 C15 1.314 . S
C13 C10 1.348 . S
C13 C15 1.353 . S
C13 H69 0.929 . S
C14 C10 1.356 1_655 S
C14 C11 1.358 . S
C14 H70 0.930 . S
C15 N12 1.314 . S
C15 C13 1.353 . S
C15 H71 0.930 . S
C16 N17 1.314 . S
C16 C21 1.353 . S
C16 H22 0.930 . S
N17 Li0 1.990 . S
N17 C16 1.314 . S
N17 C19 1.279 . S
C18 C19 1.358 . S
C18 C20 1.356 . S
C18 H72 0.930 . S
C19 N17 1.279 . S
C19 C18 1.358 . S
C19 H23 0.930 . S
C20 C18 1.356 . S
C20 C21 1.348 . S
C21 C16 1.353 . S
C21 C20 1.348 . S
C21 H73 0.929 . S
H22 C16 0.930 . S
H23 C19 0.930 . S
C24 N25 1.314 . S
C24 C26 1.353 . S
C24 H30 0.930 . S
N25 Li1 1.990 . S
N25 C24 1.314 . S
N25 C28 1.279 . S
C26 C24 1.353 . S
C26 C29 1.348 . S
C26 H74 0.929 . S
C27 C28 1.358 . S
C27 C29 1.356 . S
C27 H75 0.930 . S
C28 N25 1.279 . S
C28 C27 1.358 . S
C28 H31 0.930 . S
C29 C26 1.348 . S
C29 C27 1.356 . S
H30 C24 0.930 . S
H31 C28 0.930 . S
C32 C34 1.348 . S
C32 C35 1.356 . S
C32 O62 1.325 1_565 S
N33 C36 1.314 . S
N33 C37 1.279 . S
C34 C32 1.348 . S
C34 C36 1.353 . S
C34 H76 0.929 . S
C35 C32 1.356 . S
C35 C37 1.358 . S
C35 H77 0.930 1_565 S
C36 N33 1.314 . S
C36 C34 1.353 . S
C36 H78 0.930 . S
C37 N33 1.279 . S
C37 C35 1.358 . S
C37 H79 0.930 . S
C38 C39 1.348 . S
C38 C40 1.356 . S
C38 O63 1.325 1_665 S
C39 C38 1.348 . S
C39 C41 1.353 . S
C39 H80 0.929 . S
C40 C38 1.356 . S
C40 C42 1.358 . S
C40 H81 0.930 1_565 S
C41 C39 1.353 . S
C41 N43 1.314 . S
C41 H82 0.930 . S
C42 C40 1.358 . S
C42 N43 1.279 . S
C42 H83 0.930 . S
N43 C41 1.314 . S
N43 C42 1.279 . S
C44 C46 1.353 . S
C44 N47 1.314 . S
C44 H50 0.930 1_565 S
C45 N47 1.279 . S
C45 C48 1.358 . S
C45 H51 0.930 . S
C46 C44 1.353 . S
C46 C49 1.348 . S
C46 H84 0.929 . S
N47 Li2 1.990 1_565 S
N47 C44 1.314 . S
N47 C45 1.279 . S
C48 C45 1.358 . S
C48 C49 1.356 . S
C48 H85 0.930 . S
C49 C46 1.348 . S
C49 C48 1.356 . S
H50 C44 0.930 1_545 S
H51 C45 0.930 . S
C52 N53 1.314 . S
C52 C54 1.353 . S
C52 H58 0.930 1_565 S
N53 Li3 1.990 1_665 S
N53 C52 1.314 . S
N53 C56 1.279 . S
C54 C52 1.353 . S
C54 C57 1.348 . S
C54 H86 0.929 . S
C55 C56 1.358 . S
C55 C57 1.356 . S
C55 H87 0.930 . S
C56 N53 1.279 . S
C56 C55 1.358 . S
C56 H59 0.930 . S
C57 C54 1.348 . S
C57 C55 1.356 . S
H58 C52 0.930 1_545 S
H59 C56 0.930 . S
O60 Li0 1.956 . S
O60 Li1 1.970 . S
O60 Li2 1.961 . S
O60 C4 1.325 . S
O61 Li0 1.970 . S
O61 Li1 1.956 . S
O61 Li3 1.961 . S
O61 C10 1.325 . S
O62 Li0 1.961 . S
O62 Li2 1.956 . S
O62 Li3 1.970 . S
O62 C32 1.325 1_545 S
O63 Li1 1.961 . S
O63 Li2 1.970 . S
O63 Li3 1.956 . S
O63 C38 1.325 1_445 S
H64 C6 0.929 . S
H65 C7 0.930 . S
H66 C8 0.930 . S
H67 C9 0.930 . S
H68 C11 0.930 . S
H69 C13 0.929 . S
H70 C14 0.930 . S
H71 C15 0.930 . S
H72 C18 0.930 . S
H73 C21 0.929 . S
H74 C26 0.929 . S
H75 C27 0.930 . S
H76 C34 0.929 . S
H77 C35 0.930 1_545 S
H78 C36 0.930 . S
H79 C37 0.930 . S
H80 C39 0.929 . S
H81 C40 0.930 1_545 S
H82 C41 0.930 . S
H83 C42 0.930 . S
H84 C46 0.929 . S
H85 C48 0.930 . S
H86 C54 0.929 . S
H87 C55 0.930 . S
Li88 N105 1.990 . S
Li88 O148 1.956 . S
Li88 O149 1.970 1_565 S
Li88 O150 1.961 1_465 S
Li89 N113 1.990 . S
Li89 O148 1.970 1_545 S
Li89 O149 1.956 . S
Li89 O151 1.961 . S
Li90 N135 1.990 1_545 S
Li90 O148 1.961 1_645 S
Li90 O150 1.956 . S
Li90 O151 1.970 1_655 S
Li91 N141 1.990 . S
Li91 O149 1.961 . S
Li91 O150 1.970 1_455 S
Li91 O151 1.956 . S
C92 C94 1.348 . S
C92 C95 1.356 1_455 S
C92 O148 1.325 . S
N93 C96 1.314 1_655 S
N93 C97 1.279 . S
C94 C92 1.348 . S
C94 C96 1.353 . S
C94 H152 0.929 . S
C95 C92 1.356 1_655 S
C95 C97 1.358 . S
C95 H153 0.930 . S
C96 N93 1.314 1_455 S
C96 C94 1.353 . S
C96 H154 0.930 . S
C97 N93 1.279 . S
C97 C95 1.358 . S
C97 H155 0.930 . S
C98 C101 1.348 . S
C98 C102 1.356 . S
C98 O149 1.325 . S
C99 N100 1.279 . S
C99 C102 1.358 . S
C99 H156 0.930 . S
N100 C99 1.279 . S
N100 C103 1.314 . S
C101 C98 1.348 . S
C101 C103 1.353 . S
C101 H157 0.929 1_545 S
C102 C98 1.356 . S
C102 C99 1.358 . S
C102 H158 0.930 . S
C103 N100 1.314 . S
C103 C101 1.353 . S
C103 H159 0.930 1_545 S
C104 N105 1.314 . S
C104 C109 1.353 1_455 S
C104 H110 0.930 . S
N105 Li88 1.990 . S
N105 C104 1.314 . S
N105 C107 1.279 . S
C106 C107 1.358 . S
C106 C108 1.356 1_455 S
C106 H160 0.930 . S
C107 N105 1.279 . S
C107 C106 1.358 . S
C107 H111 0.930 . S
C108 C106 1.356 1_655 S
C108 C109 1.348 . S
C109 C104 1.353 1_655 S
C109 C108 1.348 . S
C109 H161 0.929 . S
H110 C104 0.930 . S
H111 C107 0.930 . S
C112 N113 1.314 . S
C112 C114 1.353 . S
C112 H118 0.930 . S
N113 Li89 1.990 . S
N113 C112 1.314 . S
N113 C116 1.279 . S
C114 C112 1.353 . S
C114 C117 1.348 . S
C114 H162 0.929 . S
C115 C116 1.358 . S
C115 C117 1.356 . S
C115 H163 0.930 . S
C116 N113 1.279 . S
C116 C115 1.358 . S
C116 H119 0.930 . S
C117 C114 1.348 . S
C117 C115 1.356 . S
H118 C112 0.930 . S
H119 C116 0.930 . S
C120 C122 1.348 1_565 S
C120 C123 1.356 . S
C120 O150 1.325 1_565 S
N121 C124 1.314 1_565 S
N121 C125 1.279 . S
C122 C120 1.348 1_545 S
C122 C124 1.353 . S
C122 H164 0.929 . S
C123 C120 1.356 . S
C123 C125 1.358 . S
C123 H165 0.930 . S
C124 N121 1.314 1_545 S
C124 C122 1.353 . S
C124 H166 0.930 . S
C125 N121 1.279 . S
C125 C123 1.358 . S
C125 H167 0.930 . S
C126 C127 1.348 . S
C126 C128 1.356 . S
C126 O151 1.325 . S
C127 C126 1.348 . S
C127 C129 1.353 . S
C127 H168 0.929 . S
C128 C126 1.356 . S
C128 C130 1.358 . S
C128 H169 0.930 . S
C129 C127 1.353 . S
C129 N131 1.314 . S
C129 H170 0.930 . S
C130 C128 1.358 . S
C130 N131 1.279 . S
C130 H171 0.930 . S
N131 C129 1.314 . S
N131 C130 1.279 . S
C132 C134 1.353 . S
C132 N135 1.314 . S
C132 H138 0.930 . S
C133 N135 1.279 . S
C133 C136 1.358 . S
C133 H139 0.930 . S
C134 C132 1.353 . S
C134 C137 1.348 . S
C134 H172 0.929 . S
N135 Li90 1.990 1_565 S
N135 C132 1.314 . S
N135 C133 1.279 . S
C136 C133 1.358 . S
C136 C137 1.356 . S
C136 H173 0.930 . S
C137 C134 1.348 . S
C137 C136 1.356 . S
H138 C132 0.930 . S
H139 C133 0.930 . S
C140 N141 1.314 . S
C140 C142 1.353 . S
C140 H146 0.930 . S
N141 Li91 1.990 . S
N141 C140 1.314 . S
N141 C144 1.279 . S
C142 C140 1.353 . S
C142 C145 1.348 . S
C142 H174 0.929 . S
C143 C144 1.358 . S
C143 C145 1.356 . S
C143 H175 0.930 . S
C144 N141 1.279 . S
C144 C143 1.358 . S
C144 H147 0.930 . S
C145 C142 1.348 . S
C145 C143 1.356 . S
H146 C140 0.930 . S
H147 C144 0.930 . S
O148 Li88 1.956 . S
O148 Li89 1.970 1_565 S
O148 Li90 1.961 1_465 S
O148 C92 1.325 . S
O149 Li88 1.970 1_545 S
O149 Li89 1.956 . S
O149 Li91 1.961 . S
O149 C98 1.325 . S
O150 Li88 1.961 1_645 S
O150 Li90 1.956 . S
O150 Li91 1.970 1_655 S
O150 C120 1.325 1_545 S
O151 Li89 1.961 . S
O151 Li90 1.970 1_455 S
O151 Li91 1.956 . S
O151 C126 1.325 . S
H152 C94 0.929 . S
H153 C95 0.930 . S
H154 C96 0.930 . S
H155 C97 0.930 . S
H156 C99 0.930 . S
H157 C101 0.929 1_565 S
H158 C102 0.930 . S
H159 C103 0.930 1_565 S
H160 C106 0.930 . S
H161 C109 0.929 . S
H162 C114 0.929 . S
H163 C115 0.930 . S
H164 C122 0.929 . S
H165 C123 0.930 . S
H166 C124 0.930 . S
H167 C125 0.930 . S
H168 C127 0.929 . S
H169 C128 0.930 . S
H170 C129 0.930 . S
H171 C130 0.930 . S
H172 C134 0.929 . S
H173 C136 0.930 . S
H174 C142 0.929 . S
H175 C143 0.930 . S
Li176 N193 1.990 . S
Li176 O236 1.956 . S
Li176 O237 1.970 . S
Li176 O238 1.961 . S
Li177 N201 1.990 . S
Li177 O236 1.970 . S
Li177 O237 1.956 . S
Li177 O239 1.961 . S
Li178 N223 1.990 1_545 S
Li178 O236 1.961 . S
Li178 O238 1.956 . S
Li178 O239 1.970 . S
Li179 N229 1.990 . S
Li179 O237 1.961 . S
Li179 O238 1.970 . S
Li179 O239 1.956 . S
C180 C182 1.348 . S
C180 C183 1.356 . S
C180 O236 1.325 . S
N181 C184 1.314 . S
N181 C185 1.279 . S
C182 C180 1.348 . S
C182 C184 1.353 . S
C182 H240 0.929 . S
C183 C180 1.356 . S
C183 C185 1.358 . S
C183 H241 0.930 1_545 S
C184 N181 1.314 . S
C184 C182 1.353 . S
C184 H242 0.930 . S
C185 N181 1.279 . S
C185 C183 1.358 . S
C185 H243 0.930 1_545 S
C186 C189 1.348 . S
C186 C190 1.356 . S
C186 O237 1.325 . S
C187 N188 1.279 . S
C187 C190 1.358 . S
C187 H244 0.930 . S
N188 C187 1.279 . S
N188 C191 1.314 . S
C189 C186 1.348 . S
C189 C191 1.353 . S
C189 H245 0.929 . S
C190 C186 1.356 . S
C190 C187 1.358 . S
C190 H246 0.930 . S
C191 N188 1.314 . S
C191 C189 1.353 . S
C191 H247 0.930 . S
C192 N193 1.314 . S
C192 C197 1.353 . S
C192 H198 0.930 . S
N193 Li176 1.990 . S
N193 C192 1.314 . S
N193 C195 1.279 . S
C194 C195 1.358 . S
C194 C196 1.356 . S
C194 H248 0.930 . S
C195 N193 1.279 . S
C195 C194 1.358 . S
C195 H199 0.930 . S
C196 C194 1.356 . S
C196 C197 1.348 . S
C197 C192 1.353 . S
C197 C196 1.348 . S
C197 H249 0.929 . S
H198 C192 0.930 . S
H199 C195 0.930 . S
C200 N201 1.314 . S
C200 C202 1.353 . S
C200 H206 0.930 . S
N201 Li177 1.990 . S
N201 C200 1.314 . S
N201 C204 1.279 . S
C202 C200 1.353 . S
C202 C205 1.348 . S
C202 H250 0.929 . S
C203 C204 1.358 . S
C203 C205 1.356 . S
C203 H251 0.930 . S
C204 N201 1.279 . S
C204 C203 1.358 . S
C204 H207 0.930 . S
C205 C202 1.348 . S
C205 C203 1.356 . S
H206 C200 0.930 . S
H207 C204 0.930 . S
C208 C210 1.348 . S
C208 C211 1.356 . S
C208 O238 1.325 1_565 S
N209 C212 1.314 . S
N209 C213 1.279 1_655 S
C210 C208 1.348 . S
C210 C212 1.353 1_455 S
C210 H252 0.929 1_465 S
C211 C208 1.356 . S
C211 C213 1.358 . S
C211 H253 0.930 . S
C212 N209 1.314 . S
C212 C210 1.353 1_655 S
C212 H254 0.930 . S
C213 N209 1.279 1_455 S
C213 C211 1.358 . S
C213 H255 0.930 . S
C214 C215 1.348 . S
C214 C216 1.356 . S
C214 O239 1.325 . S
C215 C214 1.348 . S
C215 C217 1.353 1_455 S
C215 H256 0.929 1_455 S
C216 C214 1.356 . S
C216 C218 1.358 . S
C216 H257 0.930 . S
C217 C215 1.353 1_655 S
C217 N219 1.314 . S
C217 H258 0.930 . S
C218 C216 1.358 . S
C218 N219 1.279 1_455 S
C218 H259 0.930 . S
N219 C217 1.314 . S
N219 C218 1.279 1_655 S
C220 C222 1.353 . S
C220 N223 1.314 . S
C220 H226 0.930 1_565 S
C221 N223 1.279 1_655 S
C221 C224 1.358 . S
C221 H227 0.930 . S
C222 C220 1.353 . S
C222 C225 1.348 1_455 S
C222 H260 0.929 . S
N223 Li178 1.990 1_565 S
N223 C220 1.314 . S
N223 C221 1.279 1_455 S
C224 C221 1.358 . S
C224 C225 1.356 . S
C224 H261 0.930 . S
C225 C222 1.348 1_655 S
C225 C224 1.356 . S
H226 C220 0.930 1_545 S
H227 C221 0.930 . S
C228 N229 1.314 . S
C228 C230 1.353 . S
C228 H234 0.930 . S
N229 Li179 1.990 . S
N229 C228 1.314 . S
N229 C232 1.279 1_455 S
C230 C228 1.353 . S
C230 C233 1.348 1_455 S
C230 H262 0.929 . S
C231 C232 1.358 . S
C231 C233 1.356 . S
C231 H263 0.930 . S
C232 N229 1.279 1_655 S
C232 C231 1.358 . S
C232 H235 0.930 . S
C233 C230 1.348 1_655 S
C233 C231 1.356 . S
H234 C228 0.930 . S
H235 C232 0.930 . S
O236 Li176 1.956 . S
O236 Li177 1.970 . S
O236 Li178 1.961 . S
O236 C180 1.325 . S
O237 Li176 1.970 . S
O237 Li177 1.956 . S
O237 Li179 1.961 . S
O237 C186 1.325 . S
O238 Li176 1.961 . S
O238 Li178 1.956 . S
O238 Li179 1.970 . S
O238 C208 1.325 1_545 S
O239 Li177 1.961 . S
O239 Li178 1.970 . S
O239 Li179 1.956 . S
O239 C214 1.325 . S
H240 C182 0.929 . S
H241 C183 0.930 1_565 S
H242 C184 0.930 . S
H243 C185 0.930 1_565 S
H244 C187 0.930 . S
H245 C189 0.929 . S
H246 C190 0.930 . S
H247 C191 0.930 . S
H248 C194 0.930 . S
H249 C197 0.929 . S
H250 C202 0.929 . S
H251 C203 0.930 . S
H252 C210 0.929 1_645 S
H253 C211 0.930 . S
H254 C212 0.930 . S
H255 C213 0.930 . S
H256 C215 0.929 1_655 S
H257 C216 0.930 . S
H258 C217 0.930 . S
H259 C218 0.930 . S
H260 C222 0.929 . S
H261 C224 0.930 . S
H262 C230 0.929 . S
H263 C231 0.930 . S
H264 O290 0.856 . S
H265 O293 0.854 . S
H266 C301 0.930 1_655 S
H267 C302 0.930 1_655 S
H268 C304 0.930 . S
H269 C305 0.930 . S
H270 C307 0.931 . S
H271 C308 0.930 . S
H272 C310 0.930 . S
H273 C311 0.929 . S
H274 C313 0.933 . S
H275 C314 0.931 . S
H276 C316 0.930 . S
H277 C317 0.929 . S
H278 C319 0.931 1_655 S
H279 C320 0.906 1_655 S
H280 C322 0.930 . S
H281 C323 0.932 . S
H282 C325 0.930 1_655 S
H283 C326 0.940 . S
H284 C328 0.931 . S
H285 C329 0.930 . S
H286 C331 0.929 1_655 S
H287 C332 0.931 1_655 S
H288 C334 0.930 . S
H289 C335 0.929 . S
O290 H264 0.856 . S
O290 C336 1.300 . S
O291 C336 1.209 . S
O292 C337 1.199 . S
O293 H265 0.854 . S
O293 C337 1.297 . S
C294 C295 1.404 . S
C294 C299 1.397 . S
C294 C300 1.492 . S
C295 C294 1.404 . S
C295 C296 1.396 . S
C295 C306 1.492 . S
C296 C295 1.396 . S
C296 C297 1.397 . S
C296 C312 1.509 . S
C297 C296 1.397 . S
C297 C298 1.412 . S
C297 C318 1.485 . S
C298 C297 1.412 . S
C298 C299 1.388 . S
C298 C324 1.490 . S
C299 C294 1.397 . S
C299 C298 1.388 . S
C299 C330 1.519 . S
C300 C294 1.492 . S
C300 C301 1.363 . S
C300 C305 1.390 . S
C301 H266 0.930 1_455 S
C301 C300 1.363 . S
C301 C302 1.372 . S
C302 H267 0.930 1_455 S
C302 C301 1.372 . S
C302 C303 1.383 . S
C303 C302 1.383 . S
C303 C304 1.395 . S
C304 H268 0.930 . S
C304 C303 1.395 . S
C304 C305 1.362 . S
C305 H269 0.930 . S
C305 C300 1.390 . S
C305 C304 1.362 . S
C306 C295 1.492 . S
C306 C307 1.377 . S
C306 C311 1.397 . S
C307 H270 0.931 . S
C307 C306 1.377 . S
C307 C308 1.376 . S
C308 H271 0.930 . S
C308 C307 1.376 . S
C308 C309 1.376 . S
C309 C308 1.376 . S
C309 C310 1.378 . S
C309 C336 1.486 . S
C310 H272 0.930 . S
C310 C309 1.378 . S
C310 C311 1.376 . S
C311 H273 0.929 . S
C311 C306 1.397 . S
C311 C310 1.376 . S
C312 C296 1.509 . S
C312 C313 1.391 . S
C312 C317 1.386 . S
C313 H274 0.933 . S
C313 C312 1.391 . S
C313 C314 1.375 . S
C314 H275 0.931 . S
C314 C313 1.375 . S
C314 C315 1.375 . S
C315 C314 1.375 . S
C315 C316 1.361 . S
C316 H276 0.930 . S
C316 C315 1.361 . S
C316 C317 1.399 . S
C317 H277 0.929 . S
C317 C312 1.386 . S
C317 C316 1.399 . S
C318 C297 1.485 . S
C318 C319 1.394 . S
C318 C323 1.360 . S
C319 H278 0.931 1_455 S
C319 C318 1.394 . S
C319 C320 1.372 . S
C320 H279 0.906 1_455 S
C320 C319 1.372 . S
C320 C321 1.397 . S
C321 C320 1.397 . S
C321 C322 1.390 . S
C321 C337 1.476 . S
C322 H280 0.930 . S
C322 C321 1.390 . S
C322 C323 1.366 . S
C323 H281 0.932 . S
C323 C318 1.360 . S
C323 C322 1.366 . S
C324 C298 1.490 . S
C324 C325 1.380 . S
C324 C329 1.386 . S
C325 H282 0.930 1_455 S
C325 C324 1.380 . S
C325 C326 1.377 1_455 S
C326 H283 0.940 . S
C326 C325 1.377 1_655 S
C326 C327 1.364 1_655 S
C327 C326 1.364 1_455 S
C327 C328 1.380 . S
C328 H284 0.931 . S
C328 C327 1.380 . S
C328 C329 1.387 . S
C329 H285 0.930 . S
C329 C324 1.386 . S
C329 C328 1.387 . S
C330 C299 1.519 . S
C330 C331 1.377 . S
C330 C335 1.361 . S
C331 H286 0.929 1_455 S
C331 C330 1.377 . S
C331 C332 1.386 . S
C332 H287 0.931 1_455 S
C332 C331 1.386 . S
C332 C333 1.363 . S
C333 C332 1.363 . S
C333 C334 1.385 . S
C334 H288 0.930 . S
C334 C333 1.385 . S
C334 C335 1.396 . S
C335 H289 0.929 . S
C335 C330 1.361 . S
C335 C334 1.396 . S
C336 O290 1.300 . S
C336 O291 1.209 . S
C336 C309 1.486 . S
C337 O292 1.199 . S
C337 O293 1.297 . S
C337 C321 1.476 . S
H338 O364 0.856 . S
H339 O367 0.854 . S
H340 C375 0.930 1_565 S
H341 C376 0.930 1_565 S
H342 C378 0.930 . S
H343 C379 0.930 . S
H344 C381 0.931 . S
H345 C382 0.930 . S
H346 C384 0.930 . S
H347 C385 0.929 . S
H348 C387 0.930 . S
H349 C388 0.931 . S
H350 C390 0.930 . S
H351 C391 0.929 . S
H352 C393 0.931 . S
H353 C394 0.930 . S
H354 C396 0.930 . S
H355 C397 0.932 . S
H356 C399 0.944 . S
H357 C400 0.929 1_565 S
H358 C402 0.931 . S
H359 C403 0.930 . S
H360 C405 0.929 . S
H361 C406 0.931 . S
H362 C408 0.930 . S
H363 C409 0.929 . S
O364 H338 0.856 . S
O364 C410 1.300 . S
O365 C410 1.209 . S
O366 C411 1.199 . S
O367 H339 0.854 . S
O367 C411 1.297 . S
C368 C369 1.404 . S
C368 C373 1.397 . S
C368 C374 1.492 . S
C369 C368 1.404 . S
C369 C370 1.396 . S
C369 C380 1.492 . S
C370 C369 1.396 . S
C370 C371 1.397 . S
C370 C386 1.509 . S
C371 C370 1.397 . S
C371 C372 1.412 . S
C371 C392 1.485 . S
C372 C371 1.412 . S
C372 C373 1.388 . S
C372 C398 1.490 . S
C373 C368 1.397 . S
C373 C372 1.388 . S
C373 C404 1.519 . S
C374 C368 1.492 . S
C374 C375 1.363 . S
C374 C379 1.390 . S
C375 H340 0.930 1_545 S
C375 C374 1.363 . S
C375 C376 1.372 . S
C376 H341 0.930 1_545 S
C376 C375 1.372 . S
C376 C377 1.383 . S
C377 C376 1.383 . S
C377 C378 1.395 . S
C378 H342 0.930 . S
C378 C377 1.395 . S
C378 C379 1.362 . S
C379 H343 0.930 . S
C379 C374 1.390 . S
C379 C378 1.362 . S
C380 C369 1.492 . S
C380 C381 1.377 . S
C380 C385 1.397 . S
C381 H344 0.931 . S
C381 C380 1.377 . S
C381 C382 1.376 . S
C382 H345 0.930 . S
C382 C381 1.376 . S
C382 C383 1.376 . S
C383 C382 1.376 . S
C383 C384 1.378 . S
C383 C410 1.486 . S
C384 H346 0.930 . S
C384 C383 1.378 . S
C384 C385 1.376 . S
C385 H347 0.929 . S
C385 C380 1.397 . S
C385 C384 1.376 . S
C386 C370 1.509 . S
C386 C387 1.391 . S
C386 C391 1.386 . S
C387 H348 0.930 . S
C387 C386 1.391 . S
C387 C388 1.375 . S
C388 H349 0.931 . S
C388 C387 1.375 . S
C388 C389 1.375 . S
C389 C388 1.375 . S
C389 C390 1.361 . S
C390 H350 0.930 . S
C390 C389 1.361 . S
C390 C391 1.399 . S
C391 H351 0.929 . S
C391 C386 1.386 . S
C391 C390 1.399 . S
C392 C371 1.485 . S
C392 C393 1.394 . S
C392 C397 1.360 . S
C393 H352 0.931 . S
C393 C392 1.394 . S
C393 C394 1.372 . S
C394 H353 0.930 . S
C394 C393 1.372 . S
C394 C395 1.397 . S
C395 C394 1.397 . S
C395 C396 1.390 . S
C395 C411 1.476 . S
C396 H354 0.930 . S
C396 C395 1.390 . S
C396 C397 1.366 . S
C397 H355 0.932 . S
C397 C392 1.360 . S
C397 C396 1.366 . S
C398 C372 1.490 . S
C398 C399 1.380 . S
C398 C403 1.386 . S
C399 H356 0.944 . S
C399 C398 1.380 . S
C399 C400 1.381 . S
C400 H357 0.929 1_545 S
C400 C399 1.381 . S
C400 C401 1.371 . S
C401 C400 1.371 . S
C401 C402 1.380 . S
C402 H358 0.931 . S
C402 C401 1.380 . S
C402 C403 1.387 . S
C403 H359 0.930 . S
C403 C398 1.386 . S
C403 C402 1.387 . S
C404 C373 1.519 . S
C404 C405 1.377 . S
C404 C409 1.361 . S
C405 H360 0.929 . S
C405 C404 1.377 . S
C405 C406 1.386 . S
C406 H361 0.931 . S
C406 C405 1.386 . S
C406 C407 1.363 . S
C407 C406 1.363 . S
C407 C408 1.385 . S
C408 H362 0.930 . S
C408 C407 1.385 . S
C408 C409 1.396 . S
C409 H363 0.929 . S
C409 C404 1.361 . S
C409 C408 1.396 . S
C410 O364 1.300 . S
C410 O365 1.209 . S
C410 C383 1.486 . S
C411 O366 1.199 . S
C411 O367 1.297 . S
C411 C395 1.476 . S
H412 O438 0.856 . S
H413 O441 0.854 . S
H414 C449 0.930 . S
H415 C450 0.930 . S
H416 C452 0.930 . S
H417 C453 0.930 . S
H418 C455 0.931 . S
H419 C456 0.930 . S
H420 C458 0.930 . S
H421 C459 0.929 . S
H422 C461 0.930 . S
H423 C462 0.931 . S
H424 C464 0.930 . S
H425 C465 0.929 . S
H426 C467 0.931 . S
H427 C468 0.930 . S
H428 C470 0.930 . S
H429 C471 0.932 . S
H430 C473 0.930 . S
H431 C474 0.929 . S
H432 C476 0.931 . S
H433 C477 0.930 . S
H434 C479 0.929 . S
H435 C480 0.931 . S
H436 C482 0.930 . S
H437 C483 0.929 . S
O438 H412 0.856 . S
O438 C484 1.300 . S
O439 C484 1.209 . S
O440 C485 1.199 . S
O441 H413 0.854 . S
O441 C485 1.297 . S
C442 C443 1.404 . S
C442 C447 1.397 . S
C442 C448 1.492 . S
C443 C442 1.404 . S
C443 C444 1.396 . S
C443 C454 1.492 . S
C444 C443 1.396 . S
C444 C445 1.397 . S
C444 C460 1.509 . S
C445 C444 1.397 . S
C445 C446 1.412 . S
C445 C466 1.485 . S
C446 C445 1.412 . S
C446 C447 1.388 . S
C446 C472 1.490 . S
C447 C442 1.397 . S
C447 C446 1.388 . S
C447 C478 1.519 . S
C448 C442 1.492 . S
C448 C449 1.363 . S
C448 C453 1.390 . S
C449 H414 0.930 . S
C449 C448 1.363 . S
C449 C450 1.372 . S
C450 H415 0.930 . S
C450 C449 1.372 . S
C450 C451 1.383 . S
C451 C450 1.383 . S
C451 C452 1.395 . S
C452 H416 0.930 . S
C452 C451 1.395 . S
C452 C453 1.362 . S
C453 H417 0.930 . S
C453 C448 1.390 . S
C453 C452 1.362 . S
C454 C443 1.492 . S
C454 C455 1.377 . S
C454 C459 1.397 . S
C455 H418 0.931 . S
C455 C454 1.377 . S
C455 C456 1.376 . S
C456 H419 0.930 . S
C456 C455 1.376 . S
C456 C457 1.376 . S
C457 C456 1.376 . S
C457 C458 1.378 . S
C457 C484 1.486 . S
C458 H420 0.930 . S
C458 C457 1.378 . S
C458 C459 1.376 . S
C459 H421 0.929 . S
C459 C454 1.397 . S
C459 C458 1.376 . S
C460 C444 1.509 . S
C460 C461 1.391 . S
C460 C465 1.386 . S
C461 H422 0.930 . S
C461 C460 1.391 . S
C461 C462 1.375 . S
C462 H423 0.931 . S
C462 C461 1.375 . S
C462 C463 1.375 . S
C463 C462 1.375 . S
C463 C464 1.361 . S
C464 H424 0.930 . S
C464 C463 1.361 . S
C464 C465 1.399 . S
C465 H425 0.929 . S
C465 C460 1.386 . S
C465 C464 1.399 . S
C466 C445 1.485 . S
C466 C467 1.394 . S
C466 C471 1.360 . S
C467 H426 0.931 . S
C467 C466 1.394 . S
C467 C468 1.372 . S
C468 H427 0.930 . S
C468 C467 1.372 . S
C468 C469 1.397 . S
C469 C468 1.397 . S
C469 C470 1.390 . S
C469 C485 1.476 . S
C470 H428 0.930 . S
C470 C469 1.390 . S
C470 C471 1.366 . S
C471 H429 0.932 . S
C471 C466 1.360 . S
C471 C470 1.366 . S
C472 C446 1.490 . S
C472 C473 1.380 . S
C472 C477 1.386 . S
C473 H430 0.930 . S
C473 C472 1.380 . S
C473 C474 1.381 . S
C474 H431 0.929 . S
C474 C473 1.381 . S
C474 C475 1.371 . S
C475 C474 1.371 . S
C475 C476 1.380 . S
C476 H432 0.931 . S
C476 C475 1.380 . S
C476 C477 1.387 . S
C477 H433 0.930 . S
C477 C472 1.386 . S
C477 C476 1.387 . S
C478 C447 1.519 . S
C478 C479 1.377 . S
C478 C483 1.361 . S
C479 H434 0.929 . S
C479 C478 1.377 . S
C479 C480 1.386 . S
C480 H435 0.931 . S
C480 C479 1.386 . S
C480 C481 1.363 . S
C481 C480 1.363 . S
C481 C482 1.385 . S
C482 H436 0.930 . S
C482 C481 1.385 . S
C482 C483 1.396 . S
C483 H437 0.929 . S
C483 C478 1.361 . S
C483 C482 1.396 . S
C484 O438 1.300 . S
C484 O439 1.209 . S
C484 C457 1.486 . S
C485 O440 1.199 . S
C485 O441 1.297 . S
C485 C469 1.476 . S
C486 C487 1.349 . S
C486 C488 1.327 . S
C486 H511 0.950 . S
C487 C486 1.349 . S
C487 C503 1.349 1_455 S
C488 C486 1.327 . S
C488 C507 1.429 . S
C488 H512 0.950 . S
C489 C506 1.574 . S
C489 C508 1.368 . S
C489 H513 0.949 1_455 S
H490 C494 0.949 . S
C491 C492 1.349 . S
C491 C493 1.327 . S
C491 H514 0.950 . S
C492 C491 1.349 . S
C492 C504 1.349 . S
C493 C491 1.327 . S
C493 C509 1.429 . S
C493 H515 0.950 . S
C494 H490 0.949 . S
C494 C502 1.574 . S
C494 C510 1.368 . S
H495 C503 0.950 . S
H496 C501 0.950 1_655 S
H497 C502 0.949 . S
H498 C504 0.950 . S
H499 C505 0.950 . S
H500 C506 0.949 . S
C501 H496 0.950 1_455 S
C501 C503 1.327 1_455 S
C501 C507 1.429 . S
C502 C494 1.574 . S
C502 H497 0.949 . S
C502 C508 1.368 . S
C503 C487 1.349 1_655 S
C503 H495 0.950 . S
C503 C501 1.327 1_655 S
C504 C492 1.349 . S
C504 H498 0.950 . S
C504 C505 1.327 . S
C505 H499 0.950 . S
C505 C504 1.327 . S
C505 C509 1.429 . S
C506 C489 1.574 . S
C506 H500 0.949 . S
C506 C510 1.368 . S
C507 C488 1.429 . S
C507 C501 1.429 . S
C507 C508 1.523 . S
C508 C489 1.368 . S
C508 C502 1.368 . S
C508 C507 1.523 . S
C509 C493 1.429 . S
C509 C505 1.429 . S
C509 C510 1.523 . S
C510 C494 1.368 . S
C510 C506 1.368 . S
C510 C509 1.523 . S
H511 C486 0.950 . S
H512 C488 0.950 . S
H513 C489 0.949 1_655 S
H514 C491 0.950 . S
H515 C493 0.950 . S
C516 C517 1.349 1_545 S
C516 C518 1.327 . S
C516 H541 0.950 . S
C517 C516 1.349 1_565 S
C517 C533 1.349 . S
C518 C516 1.327 . S
C518 C537 1.429 1_545 S
C518 H542 0.950 . S
C519 C536 1.574 . S
C519 C538 1.368 . S
C519 H543 0.949 . S
H520 C524 0.949 . S
C521 C522 1.349 . S
C521 C523 1.327 1_545 S
C521 H544 0.950 1_545 S
C522 C521 1.349 . S
C522 C534 1.349 . S
C523 C521 1.327 1_565 S
C523 C539 1.429 1_565 S
C523 H545 0.950 . S
C524 H520 0.949 . S
C524 C532 1.574 . S
C524 C540 1.368 . S
H525 C533 0.950 . S
H526 C531 0.950 . S
H527 C532 0.949 . S
H528 C534 0.950 . S
H529 C535 0.950 . S
H530 C536 0.949 . S
C531 H526 0.950 . S
C531 C533 1.327 . S
C531 C537 1.429 . S
C532 C524 1.574 . S
C532 H527 0.949 . S
C532 C538 1.368 1_545 S
C533 C517 1.349 . S
C533 H525 0.950 . S
C533 C531 1.327 . S
C534 C522 1.349 . S
C534 H528 0.950 . S
C534 C535 1.327 . S
C535 H529 0.950 . S
C535 C534 1.327 . S
C535 C539 1.429 . S
C536 C519 1.574 . S
C536 H530 0.949 . S
C536 C540 1.368 1_565 S
C537 C518 1.429 1_565 S
C537 C531 1.429 . S
C537 C538 1.523 . S
C538 C519 1.368 . S
C538 C532 1.368 1_565 S
C538 C537 1.523 . S
C539 C523 1.429 1_545 S
C539 C535 1.429 . S
C539 C540 1.523 . S
C540 C524 1.368 . S
C540 C536 1.368 1_545 S
C540 C539 1.523 . S
H541 C516 0.950 . S
H542 C518 0.950 . S
H543 C519 0.949 . S
H544 C521 0.950 1_565 S
H545 C523 0.950 . S
C546 C547 1.349 . S
C546 C548 1.327 . S
C546 H571 0.950 . S
C547 C546 1.349 . S
C547 C563 1.349 . S
C548 C546 1.327 . S
C548 C567 1.429 . S
C548 H572 0.950 . S
C549 C566 1.574 . S
C549 C568 1.368 . S
C549 H573 0.949 . S
H550 C554 0.949 . S
C551 C552 1.349 . S
C551 C553 1.327 . S
C551 H574 0.950 . S
C552 C551 1.349 . S
C552 C564 1.349 . S
C553 C551 1.327 . S
C553 C569 1.429 . S
C553 H575 0.950 . S
C554 H550 0.949 . S
C554 C562 1.574 . S
C554 C570 1.368 . S
H555 C563 0.950 . S
H556 C561 0.950 . S
H557 C562 0.949 . S
H558 C564 0.950 . S
H559 C565 0.950 . S
H560 C566 0.949 . S
C561 H556 0.950 . S
C561 C563 1.327 . S
C561 C567 1.429 . S
C562 C554 1.574 . S
C562 H557 0.949 . S
C562 C568 1.368 . S
C563 C547 1.349 . S
C563 H555 0.950 . S
C563 C561 1.327 . S
C564 C552 1.349 . S
C564 H558 0.950 . S
C564 C565 1.327 . S
C565 H559 0.950 . S
C565 C564 1.327 . S
C565 C569 1.429 . S
C566 C549 1.574 . S
C566 H560 0.949 . S
C566 C570 1.368 . S
C567 C548 1.429 . S
C567 C561 1.429 . S
C567 C568 1.523 . S
C568 C549 1.368 . S
C568 C562 1.368 . S
C568 C567 1.523 . S
C569 C553 1.429 . S
C569 C565 1.429 . S
C569 C570 1.523 . S
C570 C554 1.368 . S
C570 C566 1.368 . S
C570 C569 1.523 . S
H571 C546 0.950 . S
H572 C548 0.950 . S
H573 C549 0.949 . S
H574 C551 0.950 . S
H575 C553 0.950 . S
C576 C577 1.349 . S
C576 C578 1.327 . S
C576 H601 0.950 . S
C577 C576 1.349 . S
C577 C593 1.349 . S
C578 C576 1.327 . S
C578 C597 1.429 . S
C578 H602 0.950 . S
C579 C596 1.574 . S
C579 C598 1.368 . S
C579 H603 0.949 . S
H580 C584 0.949 . S
C581 C582 1.349 . S
C581 C583 1.327 . S
C581 H604 0.950 . S
C582 C581 1.349 . S
C582 C594 1.349 . S
C583 C581 1.327 . S
C583 C599 1.429 . S
C583 H605 0.950 . S
C584 H580 0.949 . S
C584 C592 1.574 . S
C584 C600 1.368 . S
H585 C593 0.950 . S
H586 C591 0.950 . S
H587 C592 0.949 . S
H588 C594 0.950 . S
H589 C595 0.950 . S
H590 C596 0.949 . S
C591 H586 0.950 . S
C591 C593 1.327 . S
C591 C597 1.429 . S
C592 C584 1.574 . S
C592 H587 0.949 . S
C592 C598 1.368 . S
C593 C577 1.349 . S
C593 H585 0.950 . S
C593 C591 1.327 . S
C594 C582 1.349 . S
C594 H588 0.950 . S
C594 C595 1.327 . S
C595 H589 0.950 . S
C595 C594 1.327 . S
C595 C599 1.429 . S
C596 C579 1.574 . S
C596 H590 0.949 . S
C596 C600 1.368 . S
C597 C578 1.429 . S
C597 C591 1.429 . S
C597 C598 1.523 . S
C598 C579 1.368 . S
C598 C592 1.368 . S
C598 C597 1.523 . S
C599 C583 1.429 . S
C599 C595 1.429 . S
C599 C600 1.523 . S
C600 C584 1.368 . S
C600 C596 1.368 . S
C600 C599 1.523 . S
H601 C576 0.950 . S
H602 C578 0.950 . S
H603 C579 0.949 . S
H604 C581 0.950 . S
H605 C583 0.950 . S
C606 C607 1.349 . S
C606 C608 1.327 . S
C606 H631 0.950 . S
C607 C606 1.349 . S
C607 C623 1.349 . S
C608 C606 1.327 . S
C608 C627 1.429 . S
C608 H632 0.950 . S
C609 C626 1.574 . S
C609 C628 1.368 . S
C609 H633 0.949 . S
H610 C614 0.949 . S
C611 C612 1.349 . S
C611 C613 1.327 . S
C611 H634 0.950 . S
C612 C611 1.349 . S
C612 C624 1.349 . S
C613 C611 1.327 . S
C613 C629 1.429 . S
C613 H635 0.950 . S
C614 H610 0.949 . S
C614 C622 1.574 . S
C614 C630 1.368 . S
H615 C623 0.950 . S
H616 C621 0.950 . S
H617 C622 0.949 . S
H618 C624 0.950 . S
H619 C625 0.950 . S
H620 C626 0.949 . S
C621 H616 0.950 . S
C621 C623 1.327 . S
C621 C627 1.429 . S
C622 C614 1.574 . S
C622 H617 0.949 . S
C622 C628 1.368 . S
C623 C607 1.349 . S
C623 H615 0.950 . S
C623 C621 1.327 . S
C624 C612 1.349 . S
C624 H618 0.950 . S
C624 C625 1.327 . S
C625 H619 0.950 . S
C625 C624 1.327 . S
C625 C629 1.429 . S
C626 C609 1.574 . S
C626 H620 0.949 . S
C626 C630 1.368 . S
C627 C608 1.429 . S
C627 C621 1.429 . S
C627 C628 1.523 . S
C628 C609 1.368 . S
C628 C622 1.368 . S
C628 C627 1.523 . S
C629 C613 1.429 . S
C629 C625 1.429 . S
C629 C630 1.523 . S
C630 C614 1.368 . S
C630 C626 1.368 . S
C630 C629 1.523 . S
H631 C606 0.950 . S
H632 C608 0.950 . S
H633 C609 0.949 . S
H634 C611 0.950 . S
H635 C613 0.950 . S
C636 C637 1.349 . S
C636 C638 1.327 . S
C636 H661 0.950 . S
C637 C636 1.349 . S
C637 C653 1.349 . S
C638 C636 1.327 . S
C638 C657 1.429 . S
C638 H662 0.950 . S
C639 C656 1.574 . S
C639 C658 1.368 . S
C639 H663 0.949 . S
H640 C644 0.949 . S
C641 C642 1.349 . S
C641 C643 1.327 . S
C641 H664 0.950 . S
C642 C641 1.349 . S
C642 C654 1.349 . S
C643 C641 1.327 . S
C643 C659 1.429 . S
C643 H665 0.950 . S
C644 H640 0.949 . S
C644 C652 1.574 . S
C644 C660 1.368 . S
H645 C653 0.950 . S
H646 C651 0.950 . S
H647 C652 0.949 . S
H648 C654 0.950 . S
H649 C655 0.950 . S
H650 C656 0.949 . S
C651 H646 0.950 . S
C651 C653 1.327 . S
C651 C657 1.429 . S
C652 C644 1.574 . S
C652 H647 0.949 . S
C652 C658 1.368 . S
C653 C637 1.349 . S
C653 H645 0.950 . S
C653 C651 1.327 . S
C654 C642 1.349 . S
C654 H648 0.950 . S
C654 C655 1.327 . S
C655 H649 0.950 . S
C655 C654 1.327 . S
C655 C659 1.429 . S
C656 C639 1.574 . S
C656 H650 0.949 . S
C656 C660 1.368 . S
C657 C638 1.429 . S
C657 C651 1.429 . S
C657 C658 1.523 . S
C658 C639 1.368 . S
C658 C652 1.368 . S
C658 C657 1.523 . S
C659 C643 1.429 . S
C659 C655 1.429 . S
C659 C660 1.523 . S
C660 C644 1.368 . S
C660 C656 1.368 . S
C660 C659 1.523 . S
H661 C636 0.950 . S
H662 C638 0.950 . S
H663 C639 0.949 . S
H664 C641 0.950 . S
H665 C643 0.950 . S
C666 C667 1.349 . S
C666 C668 1.327 . S
C666 H691 0.950 . S
C667 C666 1.349 . S
C667 C683 1.349 . S
C668 C666 1.327 . S
C668 C687 1.429 . S
C668 H692 0.950 . S
C669 C686 1.574 . S
C669 C688 1.368 . S
C669 H693 0.949 . S
H670 C674 0.949 . S
C671 C672 1.349 . S
C671 C673 1.327 . S
C671 H694 0.950 . S
C672 C671 1.349 . S
C672 C684 1.349 . S
C673 C671 1.327 . S
C673 C689 1.429 . S
C673 H695 0.950 . S
C674 H670 0.949 . S
C674 C682 1.574 . S
C674 C690 1.368 . S
H675 C683 0.950 . S
H676 C681 0.950 . S
H677 C682 0.949 . S
H678 C684 0.950 . S
H679 C685 0.950 . S
H680 C686 0.949 . S
C681 H676 0.950 . S
C681 C683 1.327 . S
C681 C687 1.429 . S
C682 C674 1.574 . S
C682 H677 0.949 . S
C682 C688 1.368 . S
C683 C667 1.349 . S
C683 H675 0.950 . S
C683 C681 1.327 . S
C684 C672 1.349 . S
C684 H678 0.950 . S
C684 C685 1.327 . S
C685 H679 0.950 . S
C685 C684 1.327 . S
C685 C689 1.429 . S
C686 C669 1.574 . S
C686 H680 0.949 . S
C686 C690 1.368 . S
C687 C668 1.429 . S
C687 C681 1.429 . S
C687 C688 1.523 . S
C688 C669 1.368 . S
C688 C682 1.368 . S
C688 C687 1.523 . S
C689 C673 1.429 . S
C689 C685 1.429 . S
C689 C690 1.523 . S
C690 C674 1.368 . S
C690 C686 1.368 . S
C690 C689 1.523 . S
H691 C666 0.950 . S
H692 C668 0.950 . S
H693 C669 0.949 . S
H694 C671 0.950 . S
H695 C673 0.950 . S
C696 C697 1.349 . S
C696 C698 1.289 1_554 S
C696 H721 0.950 . S
C697 C696 1.349 . S
C697 C713 1.349 1_554 S
C698 C696 1.289 1_556 S
C698 C717 1.474 . S
C698 H722 0.938 1_556 S
C699 C716 1.574 . S
C699 C718 1.368 . S
C699 H723 0.949 . S
H700 C704 0.949 . S
C701 C702 1.349 . S
C701 C703 1.327 . S
C701 H724 0.950 . S
C702 C701 1.349 . S
C702 C714 1.349 . S
C703 C701 1.327 . S
C703 C719 1.429 . S
C703 H725 0.950 . S
C704 H700 0.949 . S
C704 C712 1.574 . S
C704 C720 1.368 . S
H705 C713 0.950 . S
H706 C711 0.950 . S
H707 C712 0.949 . S
H708 C714 0.950 . S
H709 C715 0.950 . S
H710 C716 0.949 . S
C711 H706 0.950 . S
C711 C713 1.327 . S
C711 C717 1.429 . S
C712 C704 1.574 . S
C712 H707 0.949 . S
C712 C718 1.368 . S
C713 C697 1.349 1_556 S
C713 H705 0.950 . S
C713 C711 1.327 . S
C714 C702 1.349 . S
C714 H708 0.950 . S
C714 C715 1.327 . S
C715 H709 0.950 . S
C715 C714 1.327 . S
C715 C719 1.429 . S
C716 C699 1.574 . S
C716 H710 0.949 . S
C716 C720 1.368 . S
C717 C698 1.474 . S
C717 C711 1.429 . S
C717 C718 1.523 . S
C718 C699 1.368 . S
C718 C712 1.368 . S
C718 C717 1.523 . S
C719 C703 1.429 . S
C719 C715 1.429 . S
C719 C720 1.523 . S
C720 C704 1.368 . S
C720 C716 1.368 . S
C720 C719 1.523 . S
H721 C696 0.950 . S
H722 C698 0.938 1_554 S
H723 C699 0.949 . S
H724 C701 0.950 . S
H725 C703 0.950 . S
C726 C727 1.349 . S
C726 C728 1.327 . S
C726 H751 0.950 . S
C727 C726 1.349 . S
C727 C743 1.349 1_655 S
C728 C726 1.327 . S
C728 C747 1.428 . S
C728 H752 0.950 . S
C729 C746 1.574 . S
C729 C748 1.368 . S
C729 H753 0.949 . S
H730 C734 0.949 . S
C731 C732 1.349 . S
C731 C733 1.327 . S
C731 H754 0.950 . S
C732 C731 1.349 . S
C732 C744 1.349 1_455 S
C733 C731 1.327 . S
C733 C749 1.429 . S
C733 H755 0.950 . S
C734 H730 0.949 . S
C734 C742 1.574 . S
C734 C750 1.368 1_655 S
H735 C743 0.950 . S
H736 C741 0.950 . S
H737 C742 0.949 . S
H738 C744 0.950 . S
H739 C745 0.950 . S
H740 C746 0.949 . S
C741 H736 0.950 . S
C741 C743 1.327 . S
C741 C747 1.429 1_455 S
C742 C734 1.574 . S
C742 H737 0.949 . S
C742 C748 1.368 1_655 S
C743 C727 1.349 1_455 S
C743 H735 0.950 . S
C743 C741 1.327 . S
C744 C732 1.349 1_655 S
C744 H738 0.950 . S
C744 C745 1.327 . S
C745 H739 0.950 . S
C745 C744 1.327 . S
C745 C749 1.429 1_655 S
C746 C729 1.574 . S
C746 H740 0.949 . S
C746 C750 1.368 . S
C747 C728 1.428 . S
C747 C741 1.429 1_655 S
C747 C748 1.523 1_655 S
C748 C729 1.368 . S
C748 C742 1.368 1_455 S
C748 C747 1.523 1_455 S
C749 C733 1.429 . S
C749 C745 1.429 1_455 S
C749 C750 1.523 . S
C750 C734 1.368 1_455 S
C750 C746 1.368 . S
C750 C749 1.523 . S
H751 C726 0.950 . S
H752 C728 0.950 . S
H753 C729 0.949 . S
H754 C731 0.950 . S
H755 C733 0.950 . S
C756 C757 1.349 . S
C756 C758 1.327 . S
C756 H781 0.950 . S
C757 C756 1.349 . S
C757 C773 1.349 1_545 S
C758 C756 1.327 . S
C758 C777 1.429 . S
C758 H782 0.950 . S
C759 C776 1.574 . S
C759 C778 1.368 . S
C759 H783 0.949 1_545 S
H760 C764 0.949 . S
C761 C762 1.349 . S
C761 C763 1.327 . S
C761 H784 0.950 1_545 S
C762 C761 1.349 . S
C762 C774 1.349 . S
C763 C761 1.327 . S
C763 C779 1.429 . S
C763 H785 0.950 1_545 S
C764 H760 0.949 . S
C764 C772 1.574 . S
C764 C780 1.368 . S
H765 C773 0.950 . S
H766 C771 0.949 . S
H767 C772 0.949 . S
H768 C774 0.950 . S
H769 C775 0.950 . S
H770 C776 0.949 1_565 S
C771 H766 0.949 . S
C771 C773 1.328 . S
C771 C777 1.429 1_565 S
C772 C764 1.574 . S
C772 H767 0.949 . S
C772 C778 1.368 . S
C773 C757 1.349 1_565 S
C773 H765 0.950 . S
C773 C771 1.328 . S
C774 C762 1.349 . S
C774 H768 0.950 . S
C774 C775 1.327 . S
C775 H769 0.950 . S
C775 C774 1.327 . S
C775 C779 1.429 . S
C776 C759 1.574 . S
C776 H770 0.949 1_545 S
C776 C780 1.368 . S
C777 C758 1.429 . S
C777 C771 1.429 1_545 S
C777 C778 1.523 . S
C778 C759 1.368 . S
C778 C772 1.368 . S
C778 C777 1.523 . S
C779 C763 1.429 . S
C779 C775 1.429 . S
C779 C780 1.523 . S
C780 C764 1.368 . S
C780 C776 1.368 . S
C780 C779 1.523 . S
H781 C756 0.950 . S
H782 C758 0.950 . S
H783 C759 0.949 1_565 S
H784 C761 0.950 1_565 S
H785 C763 0.950 1_565 S
C786 C787 1.349 . S
C786 C788 1.327 . S
C786 H811 0.950 . S
C787 C786 1.349 . S
C787 C803 1.349 . S
C788 C786 1.327 . S
C788 C807 1.429 1_554 S
C788 H812 0.950 . S
C789 C806 1.574 . S
C789 C808 1.368 . S
C789 H813 0.949 . S
H790 C794 0.949 . S
C791 C792 1.349 . S
C791 C793 1.327 . S
C791 H814 0.950 . S
C792 C791 1.349 . S
C792 C804 1.349 . S
C793 C791 1.327 . S
C793 C809 1.429 . S
C793 H815 0.950 . S
C794 H790 0.949 . S
C794 C802 1.574 . S
C794 C810 1.368 . S
H795 C803 0.950 . S
H796 C801 0.934 1_556 S
H797 C802 0.949 . S
H798 C804 0.950 . S
H799 C805 0.950 . S
H800 C806 0.949 . S
C801 H796 0.934 1_554 S
C801 C803 1.351 . S
C801 C807 1.421 1_554 S
C802 C794 1.574 . S
C802 H797 0.949 . S
C802 C808 1.368 . S
C803 C787 1.349 . S
C803 H795 0.950 . S
C803 C801 1.351 . S
C804 C792 1.349 . S
C804 H798 0.950 . S
C804 C805 1.327 . S
C805 H799 0.950 . S
C805 C804 1.327 . S
C805 C809 1.429 . S
C806 C789 1.574 . S
C806 H800 0.949 . S
C806 C810 1.368 . S
C807 C788 1.429 1_556 S
C807 C801 1.421 1_556 S
C807 C808 1.523 . S
C808 C789 1.368 . S
C808 C802 1.368 . S
C808 C807 1.523 . S
C809 C793 1.429 . S
C809 C805 1.429 . S
C809 C810 1.523 . S
C810 C794 1.368 . S
C810 C806 1.368 . S
C810 C809 1.523 . S
H811 C786 0.950 . S
H812 C788 0.950 . S
H813 C789 0.949 . S
H814 C791 0.950 . S
H815 C793 0.950 . S
C816 C817 1.349 . S
C816 C818 1.327 . S
C816 H841 0.950 . S
C817 C816 1.349 . S
C817 C833 1.349 . S
C818 C816 1.327 . S
C818 C837 1.429 . S
C818 H842 0.950 . S
C819 C836 1.574 . S
C819 C838 1.368 . S
C819 H843 0.949 . S
H820 C824 0.949 . S
C821 C822 1.349 . S
C821 C823 1.327 . S
C821 H844 0.950 . S
C822 C821 1.349 . S
C822 C834 1.349 . S
C823 C821 1.327 . S
C823 C839 1.429 . S
C823 H845 0.950 . S
C824 H820 0.949 . S
C824 C832 1.574 . S
C824 C840 1.368 . S
H825 C833 0.950 . S
H826 C831 0.950 . S
H827 C832 0.949 . S
H828 C834 0.950 . S
H829 C835 0.950 . S
H830 C836 0.949 . S
C831 H826 0.950 . S
C831 C833 1.327 . S
C831 C837 1.429 . S
C832 C824 1.574 . S
C832 H827 0.949 . S
C832 C838 1.368 . S
C833 C817 1.349 . S
C833 H825 0.950 . S
C833 C831 1.327 . S
C834 C822 1.349 . S
C834 H828 0.950 . S
C834 C835 1.327 . S
C835 H829 0.950 . S
C835 C834 1.327 . S
C835 C839 1.429 . S
C836 C819 1.574 . S
C836 H830 0.949 . S
C836 C840 1.368 . S
C837 C818 1.429 . S
C837 C831 1.429 . S
C837 C838 1.523 . S
C838 C819 1.368 . S
C838 C832 1.368 . S
C838 C837 1.523 . S
C839 C823 1.429 . S
C839 C835 1.429 . S
C839 C840 1.523 . S
C840 C824 1.368 . S
C840 C836 1.368 . S
C840 C839 1.523 . S
H841 C816 0.950 . S
H842 C818 0.950 . S
H843 C819 0.949 . S
H844 C821 0.950 . S
H845 C823 0.950 . S
C492 C303 1.251 . S
C487 C29 1.294 . S
C517 C137 1.287 . S
C522 C377 1.252 . S
C547 C225 2.195 . S
C552 C481 2.214 . S
C577 C49 0.514 . S
C582 C315 0.501 . S
C612 C389 0.455 . S
C607 C117 0.462 . S
C637 C205 1.214 . S
C642 C475 1.167 . S
C672 C407 2.223 . S
C667 C233 2.204 . S
C697 C57 1.304 . S
C702 C451 1.260 . S
C732 C327 1.220 . S
C727 C108 1.263 . S
C762 C401 1.179 . S
C757 C196 1.226 . S
C792 C463 0.510 . S
C787 C20 0.522 . S
C817 C145 2.224 . S
C822 C333 2.239 . S
