# Generated by pormake.
# Topology zzz, (3,6)-cn, num edge types: 1
# Building blocks:
#     Node 0, Type 0, BuildingBlock: PAMTOO_clean_linker_0, # of connection points: 3
#     Node 1, Type 0, BuildingBlock: PAMTOO_clean_linker_0, # of connection points: 3
#     Node 2, Type 0, BuildingBlock: PAMTOO_clean_linker_0, # of connection points: 3
#     Node 3, Type 0, BuildingBlock: PAMTOO_clean_linker_0, # of connection points: 3
#     Node 4, Type 0, BuildingBlock: PAMTOO_clean_linker_0, # of connection points: 3
#     Node 5, Type 0, BuildingBlock: PAMTOO_clean_linker_0, # of connection points: 3
#     Node 6, Type 0, BuildingBlock: PAMTOO_clean_linker_0, # of connection points: 3
#     Node 7, Type 0, BuildingBlock: PAMTOO_clean_linker_0, # of connection points: 3
#     Node 8, Type 1, BuildingBlock: GEDQOX_clean_sbu_0, # of connection points: 6
#     Node 9, Type 1, BuildingBlock: GEDQOX_clean_sbu_0, # of connection points: 6
#     Node 10, Type 1, BuildingBlock: GEDQOX_clean_sbu_0, # of connection points: 6
#     Node 11, Type 1, BuildingBlock: GEDQOX_clean_sbu_0, # of connection points: 6
#     Edge 12, Type (0, 1), BuildingBlock: TEMPAE_clean_linker_10, # of connection points: 2
#     Edge 13, Type (0, 1), BuildingBlock: TEMPAE_clean_linker_10, # of connection points: 2
#     Edge 14, Type (0, 1), BuildingBlock: TEMPAE_clean_linker_10, # of connection points: 2
#     Edge 15, Type (0, 1), BuildingBlock: TEMPAE_clean_linker_10, # of connection points: 2
#     Edge 16, Type (0, 1), BuildingBlock: TEMPAE_clean_linker_10, # of connection points: 2
#     Edge 17, Type (0, 1), BuildingBlock: TEMPAE_clean_linker_10, # of connection points: 2
#     Edge 18, Type (0, 1), BuildingBlock: TEMPAE_clean_linker_10, # of connection points: 2
#     Edge 19, Type (0, 1), BuildingBlock: TEMPAE_clean_linker_10, # of connection points: 2
#     Edge 20, Type (0, 1), BuildingBlock: TEMPAE_clean_linker_10, # of connection points: 2
#     Edge 21, Type (0, 1), BuildingBlock: TEMPAE_clean_linker_10, # of connection points: 2
#     Edge 22, Type (0, 1), BuildingBlock: TEMPAE_clean_linker_10, # of connection points: 2
#     Edge 23, Type (0, 1), BuildingBlock: TEMPAE_clean_linker_10, # of connection points: 2
#     Edge 24, Type (0, 1), BuildingBlock: TEMPAE_clean_linker_10, # of connection points: 2
#     Edge 25, Type (0, 1), BuildingBlock: TEMPAE_clean_linker_10, # of connection points: 2
#     Edge 26, Type (0, 1), BuildingBlock: TEMPAE_clean_linker_10, # of connection points: 2
#     Edge 27, Type (0, 1), BuildingBlock: TEMPAE_clean_linker_10, # of connection points: 2
#     Edge 28, Type (0, 1), BuildingBlock: TEMPAE_clean_linker_10, # of connection points: 2
#     Edge 29, Type (0, 1), BuildingBlock: TEMPAE_clean_linker_10, # of connection points: 2
#     Edge 30, Type (0, 1), BuildingBlock: TEMPAE_clean_linker_10, # of connection points: 2
#     Edge 31, Type (0, 1), BuildingBlock: TEMPAE_clean_linker_10, # of connection points: 2
#     Edge 32, Type (0, 1), BuildingBlock: TEMPAE_clean_linker_10, # of connection points: 2
#     Edge 33, Type (0, 1), BuildingBlock: TEMPAE_clean_linker_10, # of connection points: 2
#     Edge 34, Type (0, 1), BuildingBlock: TEMPAE_clean_linker_10, # of connection points: 2
#     Edge 35, Type (0, 1), BuildingBlock: TEMPAE_clean_linker_10, # of connection points: 2
# Relax obj value: 0.128
# Max RMSD: 0.182
# Mean RMSD: 0.085
data_MOF--net-zzz--node1-GEDQOX_clean_sbu_0--node2-PAMTOO_clean_linker_0--edge1-TEMPAE_clean_linker_10
_symmetry_space_group_name_H-M    P1
_symmetry_Int_Tables_number       1
_symmetry_cell_setting            triclinic
loop_
_symmetry_equiv_pos_as_xyz
'x, y, z'
_cell_length_a     55.095887
_cell_length_b     54.183234
_cell_length_c     17.436687
_cell_angle_alpha  79.546157
_cell_angle_beta   89.194142
_cell_angle_gamma 99.798994
loop_
_atom_site_label
_atom_site_type_symbol
_atom_site_fract_x
_atom_site_fract_y
_atom_site_fract_z
_atom_type_partial_charge
H0 H 0.84646 0.54496 0.19002 0.0
H1 H 0.78453 0.53608 0.04434 0.0
H2 H 0.77572 0.5564 0.26988 0.0
H3 H 0.7329 0.52099 0.23084 0.0
C4 C 0.73506 0.52542 0.16604 0.0
O5 O 0.7531 0.54673 0.14322 0.0
H6 H 0.74078 0.50876 0.1462 0.0
C7 C 0.82707 0.54529 0.18063 0.0
C8 C 0.81234 0.5509 0.2389 0.0
C9 C 0.8174 0.54013 0.11038 0.0
C10 C 0.7923 0.54025 0.09827 0.0
C11 C 0.77724 0.54623 0.15571 0.0
C12 C 0.78736 0.55185 0.22571 0.0
H13 H 0.0357 0.82924 0.2856 0.0
H14 H 0.03282 0.77322 0.1391 0.0
H15 H 0.01586 0.74955 0.38704 0.0
H16 H 0.04555 0.71416 0.31121 0.0
C17 C 0.04014 0.71994 0.25023 0.0
O18 O 0.02092 0.73346 0.25195 0.0
H19 H 0.05644 0.73238 0.21668 0.0
C20 C 0.03289 0.80934 0.27965 0.0
C21 C 0.02565 0.79038 0.34534 0.0
C22 C 0.03542 0.8034 0.20576 0.0
C23 C 0.03111 0.77786 0.19659 0.0
C24 C 0.02466 0.75819 0.26203 0.0
C25 C 0.02152 0.76452 0.33675 0.0
H26 H 0.69861 0.98453 0.21423 0.0
H27 H 0.76157 1.00505 0.05252 0.0
H28 H 0.77028 0.9744 0.29436 0.0
H29 H 0.81014 0.01828 0.21427 0.0
C30 C 0.80974 0.01353 0.15475 0.0
O31 O 0.79309 0.99129 0.15619 0.0
H32 H 0.80393 0.02943 0.11347 0.0
C33 C 0.71813 0.98543 0.20171 0.0
C34 C 0.733 0.97766 0.26268 0.0
C35 C 0.72812 0.99545 0.12591 0.0
C36 C 0.75353 0.99746 0.11087 0.0
C37 C 0.7687 0.98974 0.17152 0.0
C38 C 0.75849 0.98013 0.24766 0.0
H39 H 0.51459 0.72147 0.43116 0.0
H40 H 0.52108 0.79868 0.30883 0.0
H41 H 0.53539 0.7835 0.55386 0.0
H42 H 0.51813 0.84062 0.49402 0.0
C43 C 0.51624 0.83431 0.43688 0.0
O44 O 0.53404 0.81962 0.42881 0.0
H45 H 0.49731 0.82293 0.43826 0.0
C46 C 0.51848 0.74175 0.4318 0.0
C47 C 0.52478 0.75007 0.50162 0.0
C48 C 0.51712 0.75902 0.36249 0.0
C49 C 0.52208 0.7852 0.36232 0.0
C50 C 0.52869 0.79412 0.43107 0.0
C51 C 0.53024 0.77656 0.50088 0.0
H52 H 0.21219 0.52187 0.61933 0.0
H53 H 0.27344 0.52927 0.76811 0.0
H54 H 0.28338 0.5116 0.53944 0.0
H55 H 0.309 0.48289 0.66884 0.0
C56 C 0.31332 0.49788 0.70506 0.0
O57 O 0.30537 0.51972 0.66842 0.0
H58 H 0.30342 0.49074 0.76296 0.0
C59 C 0.23158 0.52157 0.62899 0.0
C60 C 0.24662 0.51672 0.57015 0.0
C61 C 0.24092 0.52593 0.70034 0.0
C62 C 0.26596 0.52574 0.71321 0.0
C63 C 0.28126 0.52025 0.65547 0.0
C64 C 0.27153 0.51561 0.58402 0.0
H65 H 0.02501 0.23351 0.53144 0.0
H66 H 0.01729 0.2881 0.67641 0.0
H67 H 0.03682 0.31343 0.43027 0.0
H68 H 0.06216 0.34897 0.54342 0.0
C69 C 0.04772 0.34279 0.59154 0.0
O70 O 0.02746 0.32841 0.56441 0.0
H71 H 0.05544 0.3309 0.64086 0.0
C72 C 0.02551 0.25321 0.53747 0.0
C73 C 0.03131 0.27253 0.47201 0.0
C74 C 0.02063 0.25859 0.61074 0.0
C75 C 0.02111 0.28389 0.6195 0.0
C76 C 0.02713 0.30392 0.55474 0.0
C77 C 0.03229 0.29818 0.48046 0.0
H78 H 0.35209 0.07559 0.59785 0.0
H79 H 0.29002 0.05383 0.76321 0.0
H80 H 0.28029 0.0878 0.52482 0.0
H81 H 0.25046 0.10554 0.63555 0.0
C82 C 0.24913 0.08953 0.68618 0.0
O83 O 0.25815 0.06953 0.66355 0.0
H84 H 0.26042 0.09626 0.73332 0.0
C85 C 0.33267 0.07467 0.61208 0.0
C86 C 0.31755 0.08341 0.55322 0.0
C87 C 0.32309 0.06395 0.68789 0.0
C88 C 0.29777 0.06197 0.70483 0.0
C89 C 0.2824 0.07092 0.64631 0.0
C90 C 0.29223 0.08125 0.57006 0.0
H91 H 0.56074 0.33806 0.38017 0.0
H92 H 0.55474 0.26102 0.5025 0.0
H93 H 0.52129 0.27657 0.28097 0.0
H94 H 0.49285 0.22425 0.40314 0.0
C95 C 0.50813 0.22734 0.44319 0.0
O96 O 0.52903 0.24034 0.39872 0.0
H97 H 0.50241 0.23877 0.48508 0.0
C98 C 0.55483 0.31782 0.38174 0.0
C99 C 0.54125 0.30973 0.3206 0.0
C100 C 0.55993 0.30052 0.44693 0.0
C101 C 0.55109 0.27449 0.45193 0.0
C102 C 0.53708 0.26577 0.39256 0.0
C103 C 0.53198 0.2834 0.32693 0.0
Nd104 Nd 0.01807 0.02222 0.83389 0.0
Nd105 Nd 0.03492 0.03877 0.98475 0.0
C106 C 0.99801 0.99519 0.73013 0.0
C107 C 1.00035 0.97147 0.7012 0.0
C108 C 0.98976 0.96707 0.63114 0.0
C109 C 0.99183 0.94491 0.60233 0.0
C110 C 0.00469 0.92649 0.64266 0.0
C111 C 0.01514 0.93093 0.71343 0.0
C112 C 0.01296 0.95313 0.74228 0.0
C113 C 0.0664 0.04591 0.82677 0.0
C114 C 0.04088 0.98229 0.97109 0.0
C115 C 0.05367 0.06659 0.0879 0.0
C116 C 0.05047 0.0907 0.1144 0.0
C117 C 0.06706 0.11359 0.08758 0.0
C118 C 0.06494 0.13597 0.1153 0.0
C119 C 0.04627 0.13612 0.17121 0.0
C120 C 0.02949 0.11327 0.1972 0.0
C121 C 0.03158 0.09093 0.1694 0.0
C122 C 0.98616 0.01587 0.99029 0.0
C123 C 0.01304 0.0791 0.84766 0.0
O124 O 0.98896 0.9926 0.80154 0.0
O125 O 0.01639 0.01432 0.71289 0.0
O126 O 0.05166 0.04918 0.76979 0.0
O127 O 0.05579 0.02978 0.88405 0.0
O128 O 0.02743 0.98579 0.90927 0.0
O129 O 0.04894 1.00087 0.00892 0.0
O130 O 0.06373 0.0686 0.01804 0.0
O131 O 0.03584 0.04689 0.10529 0.0
O132 O 1.00083 0.01199 0.04716 0.0
O133 O 0.99731 0.03185 0.93369 0.0
O134 O 0.02681 0.07545 0.90851 0.0
O135 O 0.00434 0.06044 0.81076 0.0
H136 H 0.9798 0.98082 0.59855 0.0
H137 H 0.9831 0.94212 0.54858 0.0
H138 H 0.02539 0.91748 0.74605 0.0
H139 H 0.02119 0.95602 0.79653 0.0
H140 H 0.08199 0.11414 0.04587 0.0
H141 H 0.07841 0.153 0.0944 0.0
H142 H 0.01463 0.11261 0.23924 0.0
H143 H 0.01847 0.07374 0.19178 0.0
Nd144 Nd 0.52842 1.00883 0.86001 0.0
Nd145 Nd 0.5224 0.04755 0.97435 0.0
C146 C 0.53997 0.96969 0.80602 0.0
C147 C 0.56169 0.96807 0.7585 0.0
C148 C 0.5677 0.9444 0.75194 0.0
C149 C 0.58901 0.94322 0.70883 0.0
C150 C 0.60454 0.96574 0.67171 0.0
C151 C 0.59855 0.98938 0.67963 0.0
C152 C 0.57737 0.99053 0.72265 0.0
C153 C 0.52797 0.05715 0.77338 0.0
C154 C 0.57814 0.04326 0.91233 0.0
C155 C 0.51666 0.08471 0.04781 0.0
C156 C 0.49558 0.08798 0.0955 0.0
C157 C 0.48989 0.11231 0.09448 0.0
C158 C 0.46867 0.11513 0.1349 0.0
C159 C 0.4529 0.09363 0.17709 0.0
C160 C 0.45868 0.06932 0.17766 0.0
C161 C 0.47972 0.06652 0.137 0.0
C162 C 0.51554 0.99662 0.04281 0.0
C163 C 0.47346 0.01709 0.90841 0.0
O164 O 0.54464 0.97365 0.87653 0.0
O165 O 0.52484 0.98393 0.77144 0.0
O166 O 0.53046 0.0376 0.74244 0.0
O167 O 0.5263 0.05024 0.84647 0.0
O168 O 0.56852 0.02612 0.87125 0.0
O169 O 0.56466 0.0543 0.95493 0.0
O170 O 0.51262 0.08558 0.97366 0.0
O171 O 0.52839 0.06626 0.0771 0.0
O172 O 0.5031 0.01281 0.06375 0.0
O173 O 0.53153 1.00794 0.98977 0.0
O174 O 0.4836 0.03803 0.93268 0.0
O175 O 0.48646 1.0008 0.88704 0.0
H176 H 0.55595 0.92688 0.78008 0.0
H177 H 0.5931 0.92475 0.70333 0.0
H178 H 0.61034 1.00704 0.65276 0.0
H179 H 0.57325 1.009 0.72817 0.0
H180 H 0.5017 0.12906 0.0617 0.0
H181 H 0.46469 0.13409 0.13375 0.0
H182 H 0.44668 0.05239 0.20859 0.0
H183 H 0.4834 0.0475 0.13714 0.0
Nd184 Nd 0.51094 0.53358 0.98496 0.0
Nd185 Nd 0.54378 0.52598 0.85517 0.0
C186 C 0.4764 0.54827 0.06349 0.0
C187 C 0.47278 0.57385 0.07176 0.0
C188 C 0.45012 0.57806 0.09945 0.0
C189 C 0.44722 0.60265 0.10774 0.0
C190 C 0.46688 0.62327 0.08721 0.0
C191 C 0.4893 0.61892 0.05773 0.0
C192 C 0.49224 0.59443 0.05052 0.0
C193 C 0.55963 0.53684 0.01974 0.0
C194 C 0.53506 0.58326 0.84612 0.0
C195 C 0.5779 0.51069 0.77706 0.0
C196 C 0.57984 0.48518 0.76346 0.0
C197 C 0.6026 0.47937 0.74283 0.0
C198 C 0.604 0.45501 0.72867 0.0
C199 C 0.58259 0.43637 0.73478 0.0
C200 C 0.56003 0.44203 0.7584 0.0
C201 C 0.55868 0.46621 0.77285 0.0
C202 C 0.49485 0.52206 0.82177 0.0
C203 C 0.51998 0.47623 0.99386 0.0
O204 O 0.47357 0.54321 0.99329 0.0
O205 O 0.49599 0.54098 0.09543 0.0
O206 O 0.54152 0.52655 0.07009 0.0
O207 O 0.55179 0.54634 0.95526 0.0
O208 O 0.5178 0.57317 0.90192 0.0
O209 O 0.55027 0.56948 0.8227 0.0
O210 O 0.58003 0.51369 0.84954 0.0
O211 O 0.5597 0.52051 0.74359 0.0
O212 O 0.51273 0.53253 0.77074 0.0
O213 O 0.50309 0.51281 0.88573 0.0
O214 O 0.53661 0.48616 0.93618 0.0
O215 O 0.50524 0.49008 0.01955 0.0
H216 H 0.43487 0.56235 0.11571 0.0
H217 H 0.42983 0.60553 0.13124 0.0
H218 H 0.50497 0.63427 0.04356 0.0
H219 H 0.50996 0.59147 0.02987 0.0
H220 H 0.61914 0.49375 0.73642 0.0
H221 H 0.62154 0.45105 0.71001 0.0
H222 H 0.54333 0.42787 0.76402 0.0
H223 H 0.541 0.47024 0.79005 0.0
Nd224 Nd 0.02373 0.55071 0.83009 0.0
Nd225 Nd 0.0295 0.51409 0.9837 0.0
C226 C 0.00945 0.58859 0.73438 0.0
C227 C 0.98747 0.58849 0.68732 0.0
C228 C 0.98349 0.61047 0.6363 0.0
C229 C 0.96194 0.61005 0.59422 0.0
C230 C 0.94394 0.58777 0.60386 0.0
C231 C 0.94811 0.56585 0.6549 0.0
C232 C 0.96976 0.56616 0.69552 0.0
C233 C 0.02224 0.50254 0.79398 0.0
C234 C 0.97488 0.51336 0.92578 0.0
C235 C 0.04501 0.48153 0.09678 0.0
C236 C 0.06861 0.48149 0.13531 0.0
C237 C 0.07322 0.45958 0.18518 0.0
C238 C 0.0956 0.45988 0.22258 0.0
C239 C 0.1138 0.48202 0.2096 0.0
C240 C 0.10916 0.50381 0.15877 0.0
C241 C 0.08669 0.50359 0.12258 0.0
C242 C 0.021 0.56158 1.00191 0.0
C243 C 0.07944 0.54766 0.87992 0.0
O244 O 0.00475 0.584 0.80999 0.0
O245 O 0.02595 0.57593 0.71363 0.0
O246 O 0.02042 0.5228 0.74351 0.0
O247 O 0.02471 0.50836 0.86086 0.0
O248 O 0.98416 0.53503 0.8792 0.0
O249 O 0.98894 0.4991 0.96746 0.0
O250 O 0.04542 0.47916 0.02351 0.0
O251 O 0.0327 0.49911 0.10945 0.0
O252 O 0.01058 0.54023 0.04536 0.0
O253 O 0.03548 0.55737 0.9503 0.0
O254 O 0.06973 0.53032 0.94075 0.0
O255 O 0.06582 0.55948 0.82875 0.0
H256 H 0.99697 0.62788 0.6292 0.0
H257 H 0.95919 0.62717 0.55489 0.0
H258 H 0.93482 0.54829 0.66226 0.0
H259 H 0.97272 0.5489 0.7335 0.0
H260 H 0.05945 0.44235 0.19579 0.0
H261 H 0.0987 0.44285 0.26164 0.0
H262 H 0.1226 0.52128 0.14898 0.0
H263 H 0.08324 0.52084 0.08566 0.0
C264 C 0.20637 0.0632 0.68489 0.0
C265 C 0.22245 0.0817 0.71507 0.0
C266 C 0.18124 0.05718 0.70838 0.0
C267 C 0.1718 0.07047 0.76164 0.0
C268 C 0.18789 0.0893 0.79179 0.0
C269 C 0.213 0.0947 0.76803 0.0
C270 C 0.16469 0.03691 0.67507 0.0
C271 C 0.17849 0.10419 0.8476 0.0
C272 C 0.10336 0.07269 0.75177 0.0
C273 C 0.09342 0.05373 0.81534 0.0
C274 C 0.1289 0.07887 0.73514 0.0
C275 C 0.14487 0.06548 0.78266 0.0
C276 C 0.13495 0.04675 0.84823 0.0
C277 C 0.10931 0.04123 0.86419 0.0
C278 C 0.13873 0.09928 0.66552 0.0
C279 C 0.15135 0.03193 0.89988 0.0
H280 H 0.21339 0.05353 0.6424 0.0
H281 H 0.22528 0.10943 0.78999 0.0
H282 H 0.15457 0.02231 0.72298 0.0
H283 H 0.15073 0.04557 0.63929 0.0
H284 H 0.17514 0.0273 0.63799 0.0
H285 H 0.19355 0.11752 0.86797 0.0
H286 H 0.16493 0.11534 0.81863 0.0
H287 H 0.16877 0.09099 0.8992 0.0
H288 H 0.0911 0.08249 0.71421 0.0
H289 H 0.10166 0.02649 0.9133 0.0
H290 H 0.14743 0.09072 0.62144 0.0
H291 H 0.15318 0.11379 0.68338 0.0
H292 H 0.12403 0.109 0.63753 0.0
H293 H 0.16061 0.0206 0.86537 0.0
H294 H 0.1409 0.01877 0.95041 0.0
H295 H 0.16601 0.04517 0.92209 0.0
C296 C 0.53486 0.19935 0.52439 0.0
C297 C 0.51234 0.20197 0.48989 0.0
C298 C 0.5381 0.17632 0.57218 0.0
C299 C 0.51823 0.15541 0.58701 0.0
C300 C 0.49535 0.15808 0.55322 0.0
C301 C 0.49268 0.1813 0.50554 0.0
C302 C 0.5628 0.17434 0.60683 0.0
C303 C 0.47363 0.13641 0.56758 0.0
C304 C 0.53153 0.08789 0.64668 0.0
C305 C 0.52639 0.08277 0.72764 0.0
C306 C 0.52929 0.11149 0.60067 0.0
C307 C 0.52152 0.13055 0.63615 0.0
C308 C 0.51647 0.12555 0.7181 0.0
C309 C 0.51903 0.10175 0.76282 0.0
C310 C 0.53499 0.11592 0.51378 0.0
C311 C 0.50797 0.14519 0.75837 0.0
H312 H 0.55 0.21534 0.51414 0.0
H313 H 0.47505 0.18338 0.48068 0.0
H314 H 0.56059 0.16949 0.67144 0.0
H315 H 0.57043 0.15875 0.58709 0.0
H316 H 0.57634 0.19233 0.59021 0.0
H317 H 0.45701 0.1416 0.53783 0.0
H318 H 0.47843 0.11963 0.54655 0.0
H319 H 0.46899 0.13052 0.63114 0.0
H320 H 0.53723 0.07331 0.61894 0.0
H321 H 0.51482 0.09785 0.82501 0.0
H322 H 0.54936 0.13315 0.49593 0.0
H323 H 0.51826 0.11942 0.48184 0.0
H324 H 0.5415 0.09947 0.49544 0.0
H325 H 0.52154 0.16323 0.74613 0.0
H326 H 0.50544 0.13867 0.82263 0.0
H327 H 0.49021 0.14953 0.73518 0.0
C328 C 0.35592 0.48664 0.69931 0.0
C329 C 0.34068 0.50318 0.71786 0.0
C330 C 0.38103 0.49016 0.71593 0.0
C331 C 0.3912 0.51068 0.75232 0.0
C332 C 0.3759 0.5275 0.77103 0.0
C333 C 0.35078 0.52343 0.75411 0.0
C334 C 0.39661 0.47167 0.69549 0.0
C335 C 0.386 0.54964 0.80965 0.0
C336 C 0.4503 0.5052 0.86045 0.0
C337 C 0.46834 0.51957 0.80498 0.0
C338 C 0.42513 0.50237 0.84444 0.0
C339 C 0.41779 0.51432 0.77137 0.0
C340 C 0.43596 0.52918 0.71568 0.0
C341 C 0.461 0.53155 0.73307 0.0
C342 C 0.4064 0.48628 0.90534 0.0
C343 C 0.42895 0.54241 0.6374 0.0
H344 H 0.3481 0.4707 0.67252 0.0
H345 H 0.33892 0.53595 0.76981 0.0
H346 H 0.41245 0.48208 0.65585 0.0
H347 H 0.40429 0.46212 0.74912 0.0
H348 H 0.38598 0.45684 0.66676 0.0
H349 H 0.37185 0.56134 0.81863 0.0
H350 H 0.39314 0.54251 0.86713 0.0
H351 H 0.4017 0.56206 0.77351 0.0
H352 H 0.45589 0.49595 0.91621 0.0
H353 H 0.47487 0.54281 0.69017 0.0
H354 H 0.39621 0.46999 0.88182 0.0
H355 H 0.39267 0.49768 0.92004 0.0
H356 H 0.41504 0.47871 0.95978 0.0
H357 H 0.41963 0.52808 0.60447 0.0
H358 H 0.44519 0.55394 0.60157 0.0
H359 H 0.41569 0.55509 0.64569 0.0
C360 C 0.05952 0.38818 0.61333 0.0
C361 C 0.04151 0.36605 0.62073 0.0
C362 C 0.05563 0.4093 0.6457 0.0
C363 C 0.03313 0.40848 0.68741 0.0
C364 C 0.01491 0.38607 0.69586 0.0
C365 C 0.01941 0.36508 0.66328 0.0
C366 C 0.07572 0.43253 0.63531 0.0
C367 C 0.99062 0.38429 0.73928 0.0
C368 C 0.03229 0.45778 0.82083 0.0
C369 C 0.02319 0.47732 0.77169 0.0
C370 C 0.03512 0.43503 0.79514 0.0
C371 C 0.02843 0.43153 0.71881 0.0
C372 C 0.01845 0.45092 0.67032 0.0
C373 C 0.01612 0.47347 0.69703 0.0
C374 C 0.04604 0.41509 0.84876 0.0
C375 C 0.0108 0.44816 0.58904 0.0
H376 H 0.07694 0.38887 0.58259 0.0
H377 H 0.00568 0.34783 0.67146 0.0
H378 H 0.06883 0.44931 0.60265 0.0
H379 H 0.08106 0.43692 0.69313 0.0
H380 H 0.09242 0.42996 0.6033 0.0
H381 H 0.97841 0.36559 0.74133 0.0
H382 H 0.99385 0.38719 0.79992 0.0
H383 H 0.9809 0.39961 0.71084 0.0
H384 H 0.03791 0.4606 0.87837 0.0
H385 H 0.00897 0.48836 0.65859 0.0
H386 H 0.06405 0.41324 0.82318 0.0
H387 H 0.03384 0.39625 0.85491 0.0
H388 H 0.04892 0.41985 0.9077 0.0
H389 H 0.0272 0.44755 0.55226 0.0
H390 H 1.00185 0.46412 0.56052 0.0
H391 H 0.99782 0.42998 0.59099 0.0
C392 C 0.83882 0.9948 0.07601 0.0
C393 C 0.83527 0.01087 0.12841 0.0
C394 C 0.86265 0.99337 0.04922 0.0
C395 C 0.88333 1.0089 0.07367 0.0
C396 C 0.87977 0.02554 0.12517 0.0
C397 C 0.85581 0.02632 0.15179 0.0
C398 C 0.8657 0.97531 0.99469 0.0
C399 C 0.90129 0.04271 0.15173 0.0
C400 C 0.94809 0.99379 0.06984 0.0
C401 C 0.9591 0.01124 0.00421 0.0
C402 C 0.92304 0.99184 0.09078 0.0
C403 C 0.90877 1.00799 0.04557 0.0
C404 C 0.91954 0.02477 0.97706 0.0
C405 C 0.94456 0.02605 0.95684 0.0
C406 C 0.91216 0.97336 0.16339 0.0
C407 C 0.90505 0.04246 0.9276 0.0
H408 H 0.82298 0.98332 0.05589 0.0
H409 H 0.85305 0.03921 0.19065 0.0
H410 H 0.8747 0.98614 0.93846 0.0
H411 H 0.87789 0.96193 0.02017 0.0
H412 H 0.8478 0.96407 0.98272 0.0
H413 H 0.89536 0.05476 0.19112 0.0
H414 H 0.91411 0.03108 0.18293 0.0
H415 H 0.91175 0.05534 0.10037 0.0
H416 H 0.95927 0.9822 0.10626 0.0
H417 H 0.95301 0.03959 0.90607 0.0
H418 H 0.89456 0.96178 0.1508 0.0
H419 H 0.90796 0.98409 0.20896 0.0
H420 H 0.92488 0.96031 0.18727 0.0
H421 H 0.88735 0.03169 0.91255 0.0
H422 H 0.91542 0.05271 0.87272 0.0
H423 H 0.90055 0.05676 0.9612 0.0
C424 C 0.53207 0.88089 0.38027 0.0
C425 C 0.51889 0.85719 0.37082 0.0
C426 C 0.53276 0.90281 0.32225 0.0
C427 C 0.52014 0.90101 0.25258 0.0
C428 C 0.50782 0.87682 0.24123 0.0
C429 C 0.50737 0.85523 0.30042 0.0
C430 C 0.54621 0.92811 0.33689 0.0
C431 C 0.49433 0.87391 0.1678 0.0
C432 C 0.49779 0.96105 0.15156 0.0
C433 C 0.51587 0.97112 0.09146 0.0
C434 C 0.49874 0.93808 0.20311 0.0
C435 C 0.51828 0.92467 0.19467 0.0
C436 C 0.53629 0.93441 0.13275 0.0
C437 C 0.53488 0.95752 0.08195 0.0
C438 C 0.47909 0.92847 0.26795 0.0
C439 C 0.55739 0.92077 0.12138 0.0
H440 H 0.54123 0.88241 0.43427 0.0
H441 H 0.49736 0.83688 0.29268 0.0
H442 H 0.55937 0.93747 0.28723 0.0
H443 H 0.5328 0.94096 0.34149 0.0
H444 H 0.55651 0.92606 0.39136 0.0
H445 H 0.48754 0.8536 0.16483 0.0
H446 H 0.47832 0.88394 0.16535 0.0
H447 H 0.50656 0.88281 0.1155 0.0
H448 H 0.48302 0.97143 0.15925 0.0
H449 H 0.54906 0.96527 0.03612 0.0
H450 H 0.48763 0.9279 0.32536 0.0
H451 H 0.4701 0.90873 0.26518 0.0
H452 H 0.46469 0.94064 0.26507 0.0
H453 H 0.56925 0.9207 0.17229 0.0
H454 H 0.56894 0.92987 0.06765 0.0
H455 H 0.55027 0.90059 0.11799 0.0
C456 C 0.69996 0.55029 0.14966 0.0
C457 C 0.71054 0.52993 0.13347 0.0
C458 C 0.6761 0.55325 0.1264 0.0
C459 C 0.66238 0.53522 0.08679 0.0
C460 C 0.67326 0.51497 0.06868 0.0
C461 C 0.69717 0.51256 0.09229 0.0
C462 C 0.66525 0.57516 0.14658 0.0
C463 C 0.65928 0.49526 0.02697 0.0
C464 C 0.59233 0.52418 0.10847 0.0
C465 C 0.58597 0.53716 0.03659 0.0
C466 C 0.61708 0.52358 0.12553 0.0
C467 C 0.63605 0.53639 0.06948 0.0
C468 C 0.62974 0.54973 0.99691 0.0
C469 C 0.60475 0.5499 0.98122 0.0
C470 C 0.62291 0.50895 0.20336 0.0
C471 C 0.64938 0.56367 0.93571 0.0
H472 H 0.71018 0.56358 0.18215 0.0
H473 H 0.70519 0.49666 0.08022 0.0
H474 H 0.65804 0.58577 0.09381 0.0
H475 H 0.64949 0.56771 0.18954 0.0
H476 H 0.67895 0.58865 0.17176 0.0
H477 H 0.6709 0.48171 0.01256 0.0
H478 H 0.64315 0.48426 0.06429 0.0
H479 H 0.65212 0.50466 0.97219 0.0
H480 H 0.57789 0.51421 0.15139 0.0
H481 H 0.59992 0.55995 0.92552 0.0
H482 H 0.63509 0.52179 0.23504 0.0
H483 H 0.633 0.49358 0.19417 0.0
H484 H 0.60605 0.50023 0.24085 0.0
H485 H 0.66243 0.57784 0.96034 0.0
H486 H 0.6415 0.57368 0.88314 0.0
H487 H 0.66019 0.55002 0.9176 0.0
C488 C 0.02076 0.69733 0.143 0.0
C489 C 0.03356 0.6965 0.21229 0.0
C490 C 0.01729 0.67642 0.10356 0.0
C491 C 0.02732 0.65426 0.13288 0.0
C492 C 0.04034 0.65346 0.20263 0.0
C493 C 0.04332 0.67447 0.24103 0.0
C494 C 1.00314 0.67815 0.02991 0.0
C495 C 0.05155 0.63049 0.23623 0.0
C496 C 1.00322 0.58894 0.08162 0.0
C497 C 0.02132 0.58661 0.02705 0.0
C498 C 0.00434 0.6112 0.1136 0.0
C499 C 0.02425 0.63178 0.09161 0.0
C500 C 0.04216 0.62987 0.03444 0.0
C501 C 0.0404 0.60744 0.00252 0.0
C502 C 0.98459 0.61229 0.17321 0.0
C503 C 0.06381 0.65113 0.00939 0.0
H504 H 0.01373 0.71449 0.11906 0.0
H505 H 0.05381 0.67386 0.29327 0.0
H506 H 0.01529 0.67687 0.98005 0.0
H507 H 0.98755 0.6619 0.03584 0.0
H508 H 0.99576 0.69622 0.01602 0.0
H509 H 0.06119 0.63281 0.29068 0.0
H510 H 0.03698 0.61325 0.24918 0.0
H511 H 0.06493 0.62707 0.19287 0.0
H512 H 0.98831 0.57303 0.10069 0.0
H513 H 0.05451 0.60583 0.96067 0.0
H514 H 0.97706 0.63018 0.15727 0.0
H515 H 0.99269 0.61234 0.2311 0.0
H516 H 0.96916 0.59585 0.17874 0.0
H517 H 0.05734 0.66951 0.99092 0.0
H518 H 0.07516 0.64762 0.96062 0.0
H519 H 0.07569 0.65315 0.05954 0.0
C520 C 0.03638 0.22559 0.70255 0.0
C521 C 0.01622 0.23682 0.67636 0.0
C522 C 0.03308 0.19999 0.73978 0.0
C523 C 0.00896 0.18544 0.75163 0.0
C524 C 0.98838 0.19746 0.73216 0.0
C525 C 0.99228 0.22306 0.69379 0.0
C526 C 0.05556 0.18796 0.75945 0.0
C527 C 0.96238 0.18278 0.74586 0.0
C528 C 0.00668 0.11549 0.74357 0.0
C529 C 0.00767 0.10505 0.82268 0.0
C530 C 0.006 0.14158 0.71967 0.0
C531 C 0.00573 0.15728 0.77657 0.0
C532 C 0.00495 0.14632 0.85675 0.0
C533 C 0.00621 0.1204 0.87877 0.0
C534 C 0.00718 0.15265 0.63343 0.0
C535 C 0.00412 0.1622 0.91923 0.0
H536 H 0.05488 0.23617 0.68727 0.0
H537 H 0.97675 0.23166 0.67186 0.0
H538 H 0.0537 0.17708 0.82018 0.0
H539 H 0.05731 0.1743 0.72018 0.0
H540 H 0.07279 0.20234 0.75286 0.0
H541 H 0.94857 0.19567 0.74056 0.0
H542 H 0.95863 0.17023 0.70216 0.0
H543 H 0.95991 0.17042 0.80457 0.0
H544 H 0.00795 0.10366 0.70027 0.0
H545 H 0.00672 0.11225 0.94021 0.0
H546 H 0.02487 0.16604 0.61738 0.0
H547 H 0.9921 0.16368 0.61924 0.0
H548 H 0.00579 0.13771 0.59691 0.0
H549 H 0.02224 0.17475 0.91983 0.0
H550 H 0.99989 0.15021 0.97826 0.0
H551 H 0.99008 0.17467 0.90687 0.0
C552 C 0.33515 0.02935 0.78868 0.0
C553 C 0.34014 0.05443 0.74659 0.0
C554 C 0.35368 0.01859 0.83039 0.0
C555 C 0.37767 0.03319 0.82845 0.0
C556 C 0.38217 0.05909 0.79064 0.0
C557 C 0.36326 0.06943 0.75119 0.0
C558 C 0.34796 0.99122 0.87235 0.0
C559 C 0.40745 0.07546 0.78704 0.0
C560 C 0.43151 0.02129 0.9516 0.0
C561 C 0.4467 0.01367 0.89841 0.0
C562 C 0.40748 0.0248 0.93349 0.0
C563 C 0.39887 0.02141 0.85943 0.0
C564 C 0.41334 0.01141 0.80867 0.0
C565 C 0.43709 1.00737 0.82931 0.0
C566 C 0.39232 0.03451 0.99049 0.0
C567 C 0.40493 1.0077 0.72888 0.0
H568 H 0.31727 0.01771 0.78525 0.0
H569 H 0.36697 0.08899 0.7198 0.0
H570 H 0.35509 0.97892 0.83622 0.0
H571 H 0.35705 0.98876 0.92894 0.0
H572 H 0.32779 0.98449 0.88319 0.0
H573 H 0.40763 0.09541 0.75688 0.0
H574 H 0.41398 0.07583 0.84674 0.0
H575 H 0.42083 0.06728 0.75546 0.0
H576 H 0.43893 0.02591 0.00559 0.0
H577 H 0.44891 1.00159 0.78812 0.0
H578 H 0.37259 0.02568 0.99117 0.0
H579 H 0.39364 0.05543 0.97247 0.0
H580 H 0.39896 0.0306 0.05064 0.0
H581 H 0.38557 0.99755 0.73264 0.0
H582 H 0.41671 0.9968 0.7009 0.0
H583 H 0.40564 0.02661 0.69069 0.0
C584 C 0.59309 0.33023 0.49526 0.0
C585 C 0.57241 0.31077 0.51194 0.0
C586 C 0.59953 0.34704 0.54679 0.0
C587 C 0.58503 0.34399 0.61659 0.0
C588 C 0.56691 0.32182 0.63942 0.0
C589 C 0.56061 0.30544 0.58624 0.0
C590 C 0.61938 0.3701 0.52088 0.0
C591 C 0.5519 0.31728 0.71524 0.0
C592 C 0.59949 0.39599 0.73808 0.0
C593 C 0.58302 0.41204 0.70851 0.0
C594 C 0.59986 0.37306 0.71133 0.0
C595 C 0.58394 0.36671 0.65209 0.0
C596 C 0.56727 0.38297 0.62247 0.0
C597 C 0.5669 0.40527 0.65159 0.0
C598 C 0.6176 0.35611 0.74536 0.0
C599 C 0.55014 0.3772 0.55846 0.0
H600 H 0.60258 0.33393 0.43833 0.0
H601 H 0.54482 0.29017 0.59973 0.0
H602 H 0.61064 0.38687 0.49884 0.0
H603 H 0.63065 0.37448 0.57043 0.0
H604 H 0.63173 0.36733 0.47341 0.0
H605 H 0.54313 0.29694 0.73293 0.0
H606 H 0.56355 0.32302 0.76264 0.0
H607 H 0.5371 0.32897 0.7081 0.0
H608 H 0.61191 0.40128 0.78238 0.0
H609 H 0.55438 0.41789 0.62822 0.0
H610 H 0.63459 0.36032 0.70698 0.0
H611 H 0.6096 0.33565 0.74958 0.0
H612 H 0.62297 0.35949 0.80427 0.0
H613 H 0.56099 0.37586 0.50574 0.0
H614 H 0.53851 0.392 0.54176 0.0
H615 H 0.53781 0.35858 0.57772 0.0
C616 C 0.20314 0.51116 0.78544 0.0
C617 C 0.22345 0.53035 0.75925 0.0
C618 C 0.18181 0.51682 0.81779 0.0
C619 C 0.18092 0.54231 0.82457 0.0
C620 C 0.2024 0.56121 0.80617 0.0
C621 C 0.22347 0.55503 0.7729 0.0
C622 C 0.15946 0.49599 0.83723 0.0
C623 C 0.20245 0.58835 0.81547 0.0
C624 C 0.11685 0.55726 0.79011 0.0
C625 C 0.10652 0.55197 0.86635 0.0
C626 C 0.14167 0.55582 0.7759 0.0
C627 C 0.15659 0.54943 0.83966 0.0
C628 C 0.1468 0.5464 0.91689 0.0
C629 C 0.12179 0.54743 0.92929 0.0
C630 C 0.15132 0.55904 0.69251 0.0
C631 C 0.16211 0.54026 0.98663 0.0
H632 H 0.20319 0.49211 0.77428 0.0
H633 H 0.23915 0.56989 0.75192 0.0
H634 H 0.15154 0.49568 0.89628 0.0
H635 H 0.14506 0.49977 0.79492 0.0
H636 H 0.16385 0.47685 0.8351 0.0
H637 H 0.22149 0.59931 0.81363 0.0
H638 H 0.1924 0.59794 0.76746 0.0
H639 H 0.19285 0.58889 0.87138 0.0
H640 H 0.10512 0.56072 0.74131 0.0
H641 H 0.114 0.54381 0.98843 0.0
H642 H 0.15496 0.54047 0.68108 0.0
H643 H 0.169 0.57267 0.68243 0.0
H644 H 0.13808 0.56595 0.64979 0.0
H645 H 0.16195 0.51942 0.99997 0.0
H646 H 0.15458 0.54582 0.03917 0.0
H647 H 0.18157 0.55 0.97502 0.0
C648 C 0.02085 0.83474 0.10444 0.0
C649 C 0.04072 0.825 0.13977 0.0
C650 C 0.02367 0.86031 0.06682 0.0
C651 C 0.047 0.87629 0.06433 0.0
C652 C 0.06766 0.86573 0.09271 0.0
C653 C 0.06421 0.84017 0.13092 0.0
C654 C 1.00117 0.87079 0.03703 0.0
C655 C 0.09293 0.88194 0.08928 0.0
C656 C 0.05172 0.94235 0.94092 0.0
C657 C 0.04653 0.95655 0.9969 0.0
C658 C 0.05312 0.91643 0.96223 0.0
C659 C 0.04893 0.9044 0.04144 0.0
C660 C 0.04489 0.91901 0.09881 0.0
C661 C 0.04396 0.94505 0.07579 0.0
C662 C 0.05795 0.90174 0.89951 0.0
C663 C 0.04021 0.90683 0.18398 0.0
H664 H 1.0026 0.82309 0.113 0.0
H665 H 0.07945 0.83267 0.15973 0.0
H666 H 0.99602 0.88339 0.0758 0.0
H667 H 0.00511 0.88246 0.97762 0.0
H668 H 0.98513 0.85542 0.03527 0.0
H669 H 0.10758 0.87013 0.10095 0.0
H670 H 0.09704 0.89459 0.03134 0.0
H671 H 0.09354 0.89428 0.13376 0.0
H672 H 0.05422 0.95146 0.87999 0.0
H673 H 0.03982 0.95605 0.11889 0.0
H674 H 0.04063 0.88924 0.88916 0.0
H675 H 0.07166 0.8893 0.91809 0.0
H676 H 0.06474 0.91458 0.84343 0.0
H677 H 0.03846 0.92101 0.22153 0.0
H678 H 0.0554 0.89664 0.20478 0.0
H679 H 0.02295 0.8925 0.19141 0.0
C680 C 0.68852 0.98981 0.05936 0.0
C681 C 0.71153 1.00479 0.06539 0.0
C682 C 0.66982 1.00025 0.01879 0.0
C683 C 0.67442 0.02625 0.98194 0.0
C684 C 0.69841 0.04076 0.98098 0.0
C685 C 0.71674 0.02987 0.02339 0.0
C686 C 0.64456 0.98394 0.021 0.0
C687 C 0.70428 0.06823 0.94004 0.0
C688 C 0.62004 0.04013 0.86336 0.0
C689 C 0.60515 0.04688 0.91944 0.0
C690 C 0.64409 0.03611 0.87933 0.0
C691 C 0.65319 0.03846 0.95358 0.0
C692 C 0.63922 0.04795 0.00694 0.0
C693 C 0.61538 0.05228 0.98886 0.0
C694 C 0.65869 0.02692 0.81967 0.0
C695 C 0.64824 0.05077 0.08681 0.0
H696 H 0.68465 0.97027 0.0908 0.0
H697 H 0.73455 0.04149 0.02788 0.0
H698 H 0.63125 0.99156 0.05467 0.0
H699 H 0.6379 0.98447 0.96112 0.0
H700 H 0.64447 0.96375 0.04845 0.0
H701 H 0.72445 0.07477 0.92864 0.0
H702 H 0.69499 0.07108 0.88387 0.0
H703 H 0.6975 0.08043 0.97728 0.0
H704 H 0.61236 0.03634 0.80888 0.0
H705 H 0.60401 0.05757 0.0323 0.0
H706 H 0.65664 1.00584 0.83434 0.0
H707 H 0.67861 0.03496 0.81962 0.0
H708 H 0.65207 0.03208 0.75997 0.0
H709 H 0.64773 0.03158 0.12306 0.0
H710 H 0.63672 0.06129 0.11733 0.0
H711 H 0.6676 0.06091 0.08242 0.0
C712 C 0.52352 0.73143 0.26847 0.0
C713 C 0.51014 0.74876 0.29168 0.0
C714 C 0.51367 0.71546 0.21788 0.0
C715 C 0.4899 0.71705 0.1896 0.0
C716 C 0.47758 0.73658 0.20572 0.0
C717 C 0.48785 0.75224 0.25731 0.0
C718 C 0.52764 0.6951 0.20167 0.0
C719 C 0.45264 0.73948 0.1745 0.0
C720 C 0.47546 0.67086 0.05245 0.0
C721 C 0.46565 0.64861 0.10577 0.0
C722 C 0.48092 0.69443 0.07667 0.0
C723 C 0.47674 0.69549 0.15613 0.0
C724 C 0.46424 0.6736 0.20785 0.0
C725 C 0.45874 0.65039 0.18182 0.0
C726 C 0.49334 0.7175 0.01904 0.0
C727 C 0.45926 0.67391 0.29306 0.0
H728 H 0.54088 0.72902 0.29486 0.0
H729 H 0.47756 0.76575 0.27537 0.0
H730 H 0.51791 0.67612 0.23207 0.0
H731 H 0.52848 0.69476 0.13832 0.0
H732 H 0.54678 0.69803 0.22189 0.0
H733 H 0.44893 0.75907 0.17331 0.0
H734 H 0.45111 0.73512 0.1148 0.0
H735 H 0.43814 0.72594 0.21285 0.0
H736 H 0.48032 0.66955 0.99306 0.0
H737 H 0.45115 0.63321 0.22312 0.0
H738 H 0.51359 0.71986 0.02487 0.0
H739 H 0.48734 0.73509 0.03042 0.0
H740 H 0.48942 0.71542 0.95797 0.0
H741 H 0.47694 0.67552 0.3231 0.0
H742 H 0.44685 0.65633 0.32294 0.0
H743 H 0.45081 0.69061 0.2996 0.0
C744 C 0.83216 0.5102 0.0342 0.0
C745 C 0.83448 0.53466 0.05207 0.0
C746 C 0.8522 0.50255 0.99961 0.0
C747 C 0.87497 0.51966 0.98428 0.0
C748 C 0.87648 0.5451 0.9956 0.0
C749 C 0.85614 0.55231 0.02878 0.0
C750 C 0.84956 0.47563 0.98514 0.0
C751 C 0.90029 0.56412 0.97968 0.0
C752 C 0.93727 0.5001 0.01406 0.0
C753 C 0.94783 0.50745 0.93821 0.0
C754 C 0.91258 0.50184 0.02924 0.0
C755 C 0.89812 0.51062 0.96669 0.0
C756 C 0.90799 0.51518 0.88907 0.0
C757 C 0.93288 0.51387 0.87586 0.0
C758 C 0.90286 0.49694 0.11303 0.0
C759 C 0.89311 0.52373 0.82034 0.0
H760 H 0.81541 0.49653 0.05251 0.0
H761 H 0.8578 0.57124 0.04256 0.0
H762 H 0.85931 0.47516 0.92942 0.0
H763 H 0.85799 0.4639 0.03281 0.0
H764 H 0.82989 0.4668 0.98335 0.0
H765 H 0.89791 0.58351 0.9872 0.0
H766 H 0.9143 0.55776 0.02025 0.0
H767 H 0.90766 0.56531 0.91939 0.0
H768 H 0.94886 0.49527 0.0623 0.0
H769 H 0.94097 0.51919 0.81693 0.0
H770 H 0.88438 0.4847 0.11998 0.0
H771 H 0.90087 0.51531 0.12994 0.0
H772 H 0.91533 0.48763 0.15385 0.0
H773 H 0.90033 0.5191 0.76583 0.0
H774 H 0.89426 0.5447 0.81143 0.0
H775 H 0.87339 0.51477 0.8304 0.0
C776 C 0.05923 0.25738 0.38456 0.0
C777 C 0.03619 0.264 0.3977 0.0
C778 C 0.06193 0.23938 0.33729 0.0
C779 C 0.04104 0.2275 0.30259 0.0
C780 C 0.01822 0.23583 0.3102 0.0
C781 C 0.01606 0.25388 0.35779 0.0
C782 C 0.08667 0.23136 0.33074 0.0
C783 C 0.99544 0.22393 0.27427 0.0
C784 C 0.04939 0.18408 0.15643 0.0
C785 C 0.04471 0.1597 0.20403 0.0
C786 C 0.04824 0.20627 0.18723 0.0
C787 C 0.04228 0.20423 0.26778 0.0
C788 C 0.0375 0.17969 0.31605 0.0
C789 C 0.03879 0.15788 0.28379 0.0
C790 C 0.05339 0.23193 0.13352 0.0
C791 C 0.03113 0.17643 0.40231 0.0
H792 H 0.07467 0.26451 0.41709 0.0
H793 H 0.99806 0.25829 0.3696 0.0
H794 H 0.08608 0.21223 0.36744 0.0
H795 H 0.09112 0.22989 0.26967 0.0
H796 H 0.10171 0.24489 0.35041 0.0
H797 H 0.98028 0.23506 0.27498 0.0
H798 H 0.99962 0.22234 0.21313 0.0
H799 H 0.98887 0.20437 0.30752 0.0
H800 H 0.05369 0.18584 0.09464 0.0
H801 H 0.03554 0.13932 0.32169 0.0
H802 H 0.06913 0.2443 0.15425 0.0
H803 H 0.03717 0.24154 0.13437 0.0
H804 H 0.05775 0.23039 0.07235 0.0
H805 H 0.04637 0.18693 0.43101 0.0
H806 H 0.02774 0.15611 0.43188 0.0
H807 H 0.01441 0.18463 0.41122 0.0
C808 C 0.32605 0.07822 0.41746 0.0
C809 C 0.32922 0.09347 0.4745 0.0
C810 C 0.34374 0.08181 0.35573 0.0
C811 C 0.36496 0.10099 0.35186 0.0
C812 C 0.36655 0.11834 0.40406 0.0
C813 C 0.34862 0.11432 0.46494 0.0
C814 C 0.34115 0.06313 0.30061 0.0
C815 C 0.38871 0.13915 0.40198 0.0
C816 C 0.42548 0.08269 0.29788 0.0
C817 C 0.43058 0.09628 0.22141 0.0
C818 C 0.40419 0.08414 0.34046 0.0
C819 C 0.38743 0.09951 0.30565 0.0
C820 C 0.3925 0.11345 0.22856 0.0
C821 C 0.41412 0.11175 0.18734 0.0
C822 C 0.3997 0.06921 0.42299 0.0
C823 C 0.37504 0.12994 0.18961 0.0
H824 H 0.31117 0.06193 0.42544 0.0
H825 H 0.35108 0.12598 0.50962 0.0
H826 H 0.34719 0.07291 0.24016 0.0
H827 H 0.35308 0.04874 0.31888 0.0
H828 H 0.32183 0.05299 0.30074 0.0
H829 H 0.38494 0.15384 0.43527 0.0
H830 H 0.40433 0.13068 0.4284 0.0
H831 H 0.3946 0.14855 0.34109 0.0
H832 H 0.43832 0.071 0.32475 0.0
H833 H 0.41792 0.12211 0.12793 0.0
H834 H 0.38191 0.05576 0.42819 0.0
H835 H 0.39844 0.08235 0.46426 0.0
H836 H 0.41455 0.05815 0.44126 0.0
H837 H 0.35672 0.11808 0.18598 0.0
H838 H 0.38184 0.13988 0.12981 0.0
H839 H 0.37231 0.14441 0.22497 0.0
C840 C 0.55591 0.3503 0.22531 0.0
C841 C 0.5368 0.32972 0.25331 0.0
C842 C 0.55138 0.37246 0.17636 0.0
C843 C 0.52723 0.37394 0.15155 0.0
C844 C 0.50827 0.35232 0.1734 0.0
C845 C 0.5132 0.33055 0.22476 0.0
C846 C 0.57219 0.39496 0.15575 0.0
C847 C 0.48251 0.35266 0.14567 0.0
C848 C 0.51267 0.44135 0.11209 0.0
C849 C 0.51876 0.44913 0.03202 0.0
C850 C 0.51447 0.41662 0.1511 0.0
C851 C 0.52178 0.39888 0.10865 0.0
C852 C 0.52648 0.40622 0.0268 0.0
C853 C 0.52537 0.43135 0.9898 0.0
C854 C 0.50995 0.41 0.23862 0.0
C855 C 0.53353 0.38782 0.97857 0.0
H856 H 0.57436 0.34963 0.24538 0.0
H857 H 0.49831 0.3148 0.24566 0.0
H858 H 0.57438 0.40142 0.09159 0.0
H859 H 0.56783 0.41115 0.18114 0.0
H860 H 0.59006 0.39047 0.17778 0.0
H861 H 0.47112 0.33326 0.15624 0.0
H862 H 0.47338 0.3649 0.17705 0.0
H863 H 0.48303 0.36084 0.08239 0.0
H864 H 0.50774 0.45503 0.14515 0.0
H865 H 0.52988 0.43716 0.92772 0.0
H866 H 0.52729 0.40634 0.26664 0.0
H867 H 0.49609 0.39231 0.25498 0.0
H868 H 0.5034 0.42547 0.26263 0.0
H869 H 0.55264 0.38483 0.99033 0.0
H870 H 0.53257 0.39496 0.91498 0.0
H871 H 0.52126 0.369 0.99464 0.0
C872 C 0.22112 0.53037 0.45945 0.0
C873 C 0.23514 0.51268 0.49597 0.0
C874 C 0.20417 0.5242 0.40389 0.0
C875 C 0.20145 0.49983 0.38314 0.0
C876 C 0.21731 0.48281 0.4141 0.0
C877 C 0.23395 0.48939 0.47079 0.0
C878 C 0.18764 0.54294 0.37288 0.0
C879 C 0.21546 0.45695 0.39185 0.0
C880 C 0.13587 0.47569 0.33394 0.0
C881 C 0.13692 0.48318 0.25257 0.0
C882 C 0.15707 0.47983 0.37683 0.0
C883 C 0.17999 0.49137 0.33723 0.0
C884 C 0.18141 0.49751 0.25463 0.0
C885 C 0.15979 0.4936 0.2133 0.0
C886 C 0.1546 0.47331 0.4649 0.0
C887 C 0.20552 0.50926 0.2101 0.0
H888 H 0.22217 0.54845 0.47872 0.0
H889 H 0.24469 0.47564 0.49923 0.0
H890 H 0.18738 0.54567 0.30835 0.0
H891 H 0.16846 0.53531 0.39633 0.0
H892 H 0.19354 0.56183 0.38955 0.0
H893 H 0.23188 0.44817 0.40869 0.0
H894 H 0.19888 0.44411 0.42192 0.0
H895 H 0.21338 0.45832 0.32809 0.0
H896 H 0.11819 0.46782 0.36448 0.0
H897 H 0.16067 0.49915 0.15025 0.0
H898 H 0.15838 0.49108 0.48917 0.0
H899 H 0.16832 0.46141 0.48794 0.0
H900 H 0.13589 0.46293 0.48645 0.0
H901 H 0.211 0.52921 0.21865 0.0
H902 H 0.20423 0.5094 0.14649 0.0
H903 H 0.22036 0.49875 0.23239 0.0
C904 C 0.99778 0.80294 0.43979 0.0
C905 C 0.02153 0.79952 0.41928 0.0
C906 C 0.99424 0.82079 0.48687 0.0
C907 C 0.01495 0.83575 0.51373 0.0
C908 C 0.03881 0.83067 0.4988 0.0
C909 C 0.04179 0.81272 0.45177 0.0
C910 C 0.96844 0.82526 0.50162 0.0
C911 C 0.06148 0.84591 0.52615 0.0
C912 C 0.01069 0.90442 0.52947 0.0
C913 C 0.00733 0.90304 0.61035 0.0
C914 C 0.01297 0.88273 0.49777 0.0
C915 C 0.01204 0.85878 0.5478 0.0
C916 C 0.00878 0.85718 0.62948 0.0
C917 C 0.00646 0.87923 0.65967 0.0
C918 C 0.01658 0.88554 0.41033 0.0
C919 C 0.00772 0.83215 0.68505 0.0
H920 H 0.98211 0.79337 0.4132 0.0
H921 H 0.06022 0.81066 0.43449 0.0
H922 H 0.96547 0.82702 0.56332 0.0
H923 H 0.96579 0.84343 0.46442 0.0
H924 H 0.95425 0.80966 0.48805 0.0
H925 H 0.07812 0.83722 0.52026 0.0
H926 H 0.06489 0.86548 0.49078 0.0
H927 H 0.05876 0.84761 0.58801 0.0
H928 H 0.0119 0.92264 0.49052 0.0
H929 H 0.0036 0.87768 0.72208 0.0
H930 H 1.00175 0.87254 0.38785 0.0
H931 H 0.03437 0.88006 0.39589 0.0
H932 H 0.01652 0.90533 0.37922 0.0
H933 H 0.99227 0.8179 0.671 0.0
H934 H 0.0052 0.834 0.74696 0.0
H935 H 0.02495 0.82458 0.67822 0.0
C936 C 0.70031 0.94908 0.35187 0.0
C937 C 0.72111 0.96847 0.34167 0.0
C938 C 0.68376 0.94543 0.41632 0.0
C939 C 0.68818 0.96158 0.47186 0.0
C940 C 0.71057 0.97928 0.46622 0.0
C941 C 0.72683 0.98257 0.4008 0.0
C942 C 0.66023 0.92624 0.41998 0.0
C943 C 0.71616 0.99658 0.52481 0.0
C944 C 0.63074 0.98061 0.54862 0.0
C945 C 0.62643 0.96479 0.62229 0.0
C946 C 0.65101 0.97997 0.50009 0.0
C947 C 0.66756 0.96318 0.52589 0.0
C948 C 0.66354 0.94736 0.60067 0.0
C949 C 0.6429 0.94825 0.64791 0.0
C950 C 0.6544 0.99698 0.42037 0.0
C951 C 0.68089 0.9294 0.63032 0.0
H952 H 0.69596 0.93816 0.306 0.0
H953 H 0.74284 0.99766 0.39266 0.0
H954 H 0.65573 0.91548 0.48033 0.0
H955 H 0.64476 0.9364 0.40217 0.0
H956 H 0.66145 0.91248 0.38056 0.0
H957 H 0.73596 1.00545 0.52137 0.0
H958 H 0.70506 0.01203 0.51311 0.0
H959 H 0.71109 0.98598 0.58509 0.0
H960 H 0.61789 0.99318 0.52814 0.0
H961 H 0.63974 0.93616 0.70517 0.0
H962 H 0.6535 0.98516 0.3744 0.0
H963 H 0.67283 1.00935 0.4139 0.0
H964 H 0.64016 1.00932 0.40992 0.0
H965 H 0.68058 0.9149 0.59267 0.0
H966 H 0.67597 0.91942 0.69143 0.0
H967 H 0.70007 0.94001 0.62732 0.0
C968 C 0.50622 0.7093 0.58976 0.0
C969 C 0.52567 0.73018 0.57265 0.0
C970 C 0.50867 0.68711 0.64266 0.0
C971 C 0.53103 0.68574 0.68091 0.0
C972 C 0.54996 0.70759 0.66921 0.0
C973 C 0.54713 0.72955 0.61477 0.0
C974 C 0.48785 0.66453 0.65373 0.0
C975 C 0.57364 0.70732 0.71139 0.0
C976 C 0.52711 0.62775 0.84492 0.0
C977 C 0.53654 0.61038 0.80708 0.0
C978 C 0.52669 0.65289 0.80652 0.0
C979 C 0.53511 0.66072 0.72721 0.0
C980 C 0.54526 0.64345 0.68941 0.0
C981 C 0.54614 0.61867 0.73003 0.0
C982 C 0.51623 0.67057 0.85049 0.0
C983 C 0.55407 0.65069 0.60462 0.0
H984 H 0.48945 0.7098 0.55813 0.0
H985 H 0.56224 0.74557 0.6019 0.0
H986 H 0.49405 0.64843 0.6324 0.0
H987 H 0.48248 0.65804 0.71663 0.0
H988 H 0.47132 0.66898 0.62201 0.0
H989 H 0.58517 0.7266 0.70373 0.0
H990 H 0.5696 0.69983 0.7747 0.0
H991 H 0.58443 0.69443 0.68884 0.0
H992 H 0.51986 0.62167 0.90461 0.0
H993 H 0.55335 0.6054 0.7001 0.0
H994 H 0.49616 0.66887 0.84156 0.0
H995 H 0.52496 0.69076 0.82996 0.0
H996 H 0.51872 0.66544 0.91415 0.0
H997 H 0.53829 0.65418 0.5678 0.0
H998 H 0.56258 0.63563 0.58476 0.0
H999 H 0.56777 0.66863 0.59484 0.0
C1000 C 0.83834 0.53838 0.34948 0.0
C1001 C 0.82416 0.55576 0.31193 0.0
C1002 C 0.85532 0.54507 0.40444 0.0
C1003 C 0.85789 0.56965 0.42361 0.0
C1004 C 0.842 0.58645 0.39126 0.0
C1005 C 0.82534 0.57935 0.3352 0.0
C1006 C 0.87187 0.52654 0.43703 0.0
C1007 C 0.84373 0.61254 0.41177 0.0
C1008 C 0.89812 0.57644 0.59631 0.0
C1009 C 0.92127 0.58672 0.5587 0.0
C1010 C 0.87688 0.57245 0.55334 0.0
C1011 C 0.87896 0.57833 0.47075 0.0
C1012 C 0.90216 0.58975 0.43274 0.0
C1013 C 0.92298 0.59401 0.47728 0.0
C1014 C 0.85247 0.56081 0.59621 0.0
C1015 C 0.90532 0.59596 0.34478 0.0
H1016 H 0.83731 0.52007 0.33173 0.0
H1017 H 0.81449 0.59286 0.30594 0.0
H1018 H 0.89114 0.53429 0.41472 0.0
H1019 H 0.8717 0.52394 0.50159 0.0
H1020 H 0.86631 0.50757 0.42057 0.0
H1021 H 0.82747 0.62136 0.39302 0.0
H1022 H 0.84533 0.61152 0.47559 0.0
H1023 H 0.86052 0.62517 0.38241 0.0
H1024 H 0.89674 0.57103 0.65942 0.0
H1025 H 0.94089 0.60179 0.44811 0.0
H1026 H 0.84713 0.54081 0.58799 0.0
H1027 H 0.83778 0.5713 0.57227 0.0
H1028 H 0.85324 0.56084 0.65984 0.0
H1029 H 0.90185 0.57805 0.32112 0.0
H1030 H 0.92414 0.6063 0.32443 0.0
H1031 H 0.89171 0.60775 0.31999 0.0
loop_
_geom_bond_atom_site_label_1
_geom_bond_atom_site_label_2
_geom_bond_distance
_geom_bond_site_symmetry_2
_ccdc_geom_bond_type
H0 C7 0.929 . S
H1 C10 0.930 . S
H2 C12 0.929 . S
H3 C4 0.969 . S
C4 H3 0.969 . S
C4 O5 1.550 1_556 S
C4 H6 0.973 . S
O5 C4 1.550 1_554 S
O5 C11 1.412 . S
H6 C4 0.973 . S
C7 H0 0.929 . S
C7 C8 1.400 . S
C7 C9 1.364 1_554 S
C8 C7 1.400 . S
C8 C12 1.377 . S
C9 C7 1.364 1_556 S
C9 C10 1.374 . S
C10 H1 0.930 . S
C10 C9 1.374 . S
C10 C11 1.383 1_556 S
C11 O5 1.412 . S
C11 C10 1.383 1_554 S
C11 C12 1.394 . S
C12 H2 0.929 . S
C12 C8 1.377 . S
C12 C11 1.394 . S
H13 C20 0.929 . S
H14 C23 0.930 . S
H15 C25 0.929 . S
H16 C17 0.969 . S
C17 H16 0.969 . S
C17 O18 1.550 1_455 S
C17 H19 0.973 1_455 S
O18 C17 1.550 1_655 S
O18 C24 1.412 . S
H19 C17 0.973 1_655 S
C20 H13 0.929 . S
C20 C21 1.400 . S
C20 C22 1.364 . S
C21 C20 1.400 . S
C21 C25 1.377 . S
C22 C20 1.364 . S
C22 C23 1.374 . S
C23 H14 0.930 . S
C23 C22 1.374 . S
C23 C24 1.383 . S
C24 O18 1.412 . S
C24 C23 1.383 . S
C24 C25 1.394 . S
C25 H15 0.929 . S
C25 C21 1.377 . S
C25 C24 1.394 . S
H26 C33 0.929 . S
H27 C36 0.930 1_556 S
H28 C38 0.929 . S
H29 C30 0.969 . S
C30 H29 0.969 . S
C30 O31 1.550 . S
C30 H32 0.973 1_554 S
O31 C30 1.550 . S
O31 C37 1.412 . S
H32 C30 0.973 1_556 S
C33 H26 0.929 . S
C33 C34 1.400 . S
C33 C35 1.364 . S
C34 C33 1.400 . S
C34 C38 1.377 . S
C35 C33 1.364 . S
C35 C36 1.374 . S
C36 H27 0.930 1_554 S
C36 C35 1.374 . S
C36 C37 1.383 . S
C37 O31 1.412 . S
C37 C36 1.383 . S
C37 C38 1.394 . S
C38 H28 0.929 . S
C38 C34 1.377 . S
C38 C37 1.394 . S
H39 C46 0.929 . S
H40 C49 0.930 . S
H41 C51 0.929 . S
H42 C43 0.969 . S
C43 H42 0.969 . S
C43 O44 1.550 . S
C43 H45 0.973 . S
O44 C43 1.550 . S
O44 C50 1.412 . S
H45 C43 0.973 . S
C46 H39 0.929 . S
C46 C47 1.400 . S
C46 C48 1.364 . S
C47 C46 1.400 . S
C47 C51 1.377 . S
C48 C46 1.364 . S
C48 C49 1.374 . S
C49 H40 0.930 . S
C49 C48 1.374 . S
C49 C50 1.383 . S
C50 O44 1.412 . S
C50 C49 1.383 . S
C50 C51 1.394 . S
C51 H41 0.929 . S
C51 C47 1.377 . S
C51 C50 1.394 . S
H52 C59 0.929 . S
H53 C62 0.930 . S
H54 C64 0.929 . S
H55 C56 0.969 . S
C56 H55 0.969 . S
C56 O57 1.550 . S
C56 H58 0.973 . S
O57 C56 1.550 . S
O57 C63 1.412 . S
H58 C56 0.973 . S
C59 H52 0.929 . S
C59 C60 1.400 . S
C59 C61 1.364 . S
C60 C59 1.400 . S
C60 C64 1.377 . S
C61 C59 1.364 . S
C61 C62 1.374 . S
C62 H53 0.930 . S
C62 C61 1.374 . S
C62 C63 1.383 . S
C63 O57 1.412 . S
C63 C62 1.383 . S
C63 C64 1.394 . S
C64 H54 0.929 . S
C64 C60 1.377 . S
C64 C63 1.394 . S
H65 C72 0.929 . S
H66 C75 0.930 . S
H67 C77 0.929 . S
H68 C69 0.969 . S
C69 H68 0.969 . S
C69 O70 1.550 . S
C69 H71 0.973 . S
O70 C69 1.550 . S
O70 C76 1.412 . S
H71 C69 0.973 . S
C72 H65 0.929 . S
C72 C73 1.400 . S
C72 C74 1.364 . S
C73 C72 1.400 . S
C73 C77 1.377 . S
C74 C72 1.364 . S
C74 C75 1.374 . S
C75 H66 0.930 . S
C75 C74 1.374 . S
C75 C76 1.383 . S
C76 O70 1.412 . S
C76 C75 1.383 . S
C76 C77 1.394 . S
C77 H67 0.929 . S
C77 C73 1.377 . S
C77 C76 1.394 . S
H78 C85 0.929 . S
H79 C88 0.930 . S
H80 C90 0.929 . S
H81 C82 0.969 . S
C82 H81 0.969 . S
C82 O83 1.550 . S
C82 H84 0.973 . S
O83 C82 1.550 . S
O83 C89 1.412 . S
H84 C82 0.973 . S
C85 H78 0.929 . S
C85 C86 1.400 . S
C85 C87 1.364 . S
C86 C85 1.400 . S
C86 C90 1.377 . S
C87 C85 1.364 . S
C87 C88 1.374 . S
C88 H79 0.930 . S
C88 C87 1.374 . S
C88 C89 1.383 . S
C89 O83 1.412 . S
C89 C88 1.383 . S
C89 C90 1.394 . S
C90 H80 0.929 . S
C90 C86 1.377 . S
C90 C89 1.394 . S
H91 C98 0.929 . S
H92 C101 0.930 . S
H93 C103 0.929 . S
H94 C95 0.969 . S
C95 H94 0.969 . S
C95 O96 1.550 . S
C95 H97 0.973 . S
O96 C95 1.550 . S
O96 C102 1.412 . S
H97 C95 0.973 . S
C98 H91 0.929 . S
C98 C99 1.400 . S
C98 C100 1.364 . S
C99 C98 1.400 . S
C99 C103 1.377 . S
C100 C98 1.364 . S
C100 C101 1.374 . S
C101 H92 0.930 . S
C101 C100 1.374 . S
C101 C102 1.383 . S
C102 O96 1.412 . S
C102 C101 1.383 . S
C102 C103 1.394 . S
C103 H93 0.929 . S
C103 C99 1.377 . S
C103 C102 1.394 . S
Nd104 C106 2.836 1_545 S
Nd104 O124 2.500 1_445 S
Nd104 O125 2.492 1_545 S
Nd104 O126 2.487 . S
Nd104 O127 2.682 . S
Nd104 O128 2.410 1_545 S
Nd104 O133 2.414 1_455 S
Nd104 O135 2.424 . S
Nd105 C115 2.836 . S
Nd105 O127 2.414 1_554 S
Nd105 O129 2.424 1_545 S
Nd105 O130 2.500 . S
Nd105 O131 2.492 . S
Nd105 O132 2.487 1_455 S
Nd105 O133 2.682 1_454 S
Nd105 O134 2.410 1_554 S
C106 Nd104 2.836 1_565 S
C106 C107 1.498 . S
C106 O124 1.258 1_455 S
C106 O125 1.239 . S
C107 C106 1.498 . S
C107 C108 1.366 1_455 S
C107 C112 1.407 . S
C108 C107 1.366 1_655 S
C108 C109 1.392 . S
C108 H136 0.930 . S
C109 C108 1.392 . S
C109 C110 1.398 1_655 S
C109 H137 0.929 . S
C110 C109 1.398 1_455 S
C110 C111 1.352 . S
C111 C110 1.352 . S
C111 C112 1.384 . S
C111 H138 0.930 . S
C112 C107 1.407 . S
C112 C111 1.384 . S
C112 H139 0.929 . S
C113 O126 1.241 . S
C113 O127 1.273 . S
C114 O128 1.251 . S
C114 O129 1.268 1_556 S
C115 Nd105 2.836 . S
C115 C116 1.498 . S
C115 O130 1.258 . S
C115 O131 1.239 . S
C116 C115 1.498 . S
C116 C117 1.366 . S
C116 C121 1.407 . S
C117 C116 1.366 . S
C117 C118 1.392 . S
C117 H140 0.930 . S
C118 C117 1.392 . S
C118 C119 1.398 . S
C118 H141 0.929 . S
C119 C118 1.398 . S
C119 C120 1.352 . S
C120 C119 1.352 . S
C120 C121 1.384 . S
C120 H142 0.930 . S
C121 C116 1.407 . S
C121 C120 1.384 . S
C121 H143 0.929 . S
C122 O132 1.241 1_556 S
C122 O133 1.273 . S
C123 O134 1.251 . S
C123 O135 1.268 . S
O124 Nd104 2.500 1_665 S
O124 C106 1.258 1_655 S
O125 Nd104 2.492 1_565 S
O125 C106 1.239 . S
O126 Nd104 2.487 . S
O126 C113 1.241 . S
O127 Nd104 2.682 . S
O127 Nd105 2.414 1_556 S
O127 C113 1.273 . S
O128 Nd104 2.410 1_565 S
O128 C114 1.251 . S
O129 Nd105 2.424 1_565 S
O129 C114 1.268 1_554 S
O130 Nd105 2.500 . S
O130 C115 1.258 . S
O131 Nd105 2.492 . S
O131 C115 1.239 . S
O132 Nd105 2.487 1_655 S
O132 C122 1.241 1_554 S
O133 Nd104 2.414 1_655 S
O133 Nd105 2.682 1_656 S
O133 C122 1.273 . S
O134 Nd105 2.410 1_556 S
O134 C123 1.251 . S
O135 Nd104 2.424 . S
O135 C123 1.268 . S
H136 C108 0.930 . S
H137 C109 0.929 . S
H138 C111 0.930 . S
H139 C112 0.929 . S
H140 C117 0.930 . S
H141 C118 0.929 . S
H142 C120 0.930 . S
H143 C121 0.929 . S
Nd144 C146 2.836 1_545 S
Nd144 O164 2.500 1_545 S
Nd144 O165 2.492 . S
Nd144 O166 2.487 . S
Nd144 O167 2.682 . S
Nd144 O168 2.410 . S
Nd144 O173 2.414 1_545 S
Nd144 O175 2.424 . S
Nd145 C155 2.836 . S
Nd145 O167 2.414 1_554 S
Nd145 O169 2.424 1_554 S
Nd145 O170 2.500 . S
Nd145 O171 2.492 . S
Nd145 O172 2.487 1_545 S
Nd145 O173 2.682 1_544 S
Nd145 O174 2.410 1_554 S
C146 Nd144 2.836 1_565 S
C146 C147 1.498 . S
C146 O164 1.258 . S
C146 O165 1.239 1_565 S
C147 C146 1.498 . S
C147 C148 1.366 . S
C147 C152 1.407 . S
C148 C147 1.366 . S
C148 C149 1.392 . S
C148 H176 0.930 . S
C149 C148 1.392 . S
C149 C150 1.398 . S
C149 H177 0.929 . S
C150 C149 1.398 . S
C150 C151 1.352 . S
C151 C150 1.352 . S
C151 C152 1.384 . S
C151 H178 0.930 . S
C152 C147 1.407 . S
C152 C151 1.384 . S
C152 H179 0.929 1_565 S
C153 O166 1.241 . S
C153 O167 1.273 . S
C154 O168 1.251 . S
C154 O169 1.268 . S
C155 Nd145 2.836 . S
C155 C156 1.498 . S
C155 O170 1.258 . S
C155 O171 1.239 . S
C156 C155 1.498 . S
C156 C157 1.366 . S
C156 C161 1.407 . S
C157 C156 1.366 . S
C157 C158 1.392 . S
C157 H180 0.930 . S
C158 C157 1.392 . S
C158 C159 1.398 . S
C158 H181 0.929 . S
C159 C158 1.398 . S
C159 C160 1.352 . S
C160 C159 1.352 . S
C160 C161 1.384 . S
C160 H182 0.930 . S
C161 C156 1.407 . S
C161 C160 1.384 . S
C161 H183 0.929 . S
C162 O172 1.241 . S
C162 O173 1.273 1_554 S
C163 O174 1.251 . S
C163 O175 1.268 . S
O164 Nd144 2.500 1_565 S
O164 C146 1.258 . S
O165 Nd144 2.492 . S
O165 C146 1.239 1_545 S
O166 Nd144 2.487 . S
O166 C153 1.241 . S
O167 Nd144 2.682 . S
O167 Nd145 2.414 1_556 S
O167 C153 1.273 . S
O168 Nd144 2.410 . S
O168 C154 1.251 . S
O169 Nd145 2.424 1_556 S
O169 C154 1.268 . S
O170 Nd145 2.500 . S
O170 C155 1.258 . S
O171 Nd145 2.492 . S
O171 C155 1.239 . S
O172 Nd145 2.487 1_565 S
O172 C162 1.241 . S
O173 Nd144 2.414 1_565 S
O173 Nd145 2.682 1_566 S
O173 C162 1.273 1_556 S
O174 Nd145 2.410 1_556 S
O174 C163 1.251 . S
O175 Nd144 2.424 . S
O175 C163 1.268 . S
H176 C148 0.930 . S
H177 C149 0.929 . S
H178 C151 0.930 . S
H179 C152 0.929 1_545 S
H180 C157 0.930 . S
H181 C158 0.929 . S
H182 C160 0.930 . S
H183 C161 0.929 . S
Nd184 C186 2.836 . S
Nd184 O204 2.500 . S
Nd184 O205 2.492 . S
Nd184 O206 2.487 1_554 S
Nd184 O207 2.682 1_554 S
Nd184 O208 2.410 1_554 S
Nd184 O213 2.414 1_554 S
Nd184 O215 2.424 . S
Nd185 C195 2.836 . S
Nd185 O207 2.414 . S
Nd185 O209 2.424 . S
Nd185 O210 2.500 . S
Nd185 O211 2.492 . S
Nd185 O212 2.487 . S
Nd185 O213 2.682 . S
Nd185 O214 2.410 . S
C186 Nd184 2.836 . S
C186 C187 1.498 . S
C186 O204 1.258 . S
C186 O205 1.239 . S
C187 C186 1.498 . S
C187 C188 1.366 . S
C187 C192 1.407 . S
C188 C187 1.366 . S
C188 C189 1.392 . S
C188 H216 0.930 . S
C189 C188 1.392 . S
C189 C190 1.398 . S
C189 H217 0.929 . S
C190 C189 1.398 . S
C190 C191 1.352 . S
C191 C190 1.352 . S
C191 C192 1.384 . S
C191 H218 0.930 . S
C192 C187 1.407 . S
C192 C191 1.384 . S
C192 H219 0.929 . S
C193 O206 1.241 . S
C193 O207 1.273 . S
C194 O208 1.251 . S
C194 O209 1.268 . S
C195 Nd185 2.836 . S
C195 C196 1.498 . S
C195 O210 1.258 . S
C195 O211 1.239 . S
C196 C195 1.498 . S
C196 C197 1.366 . S
C196 C201 1.407 . S
C197 C196 1.366 . S
C197 C198 1.392 . S
C197 H220 0.930 . S
C198 C197 1.392 . S
C198 C199 1.398 . S
C198 H221 0.929 . S
C199 C198 1.398 . S
C199 C200 1.352 . S
C200 C199 1.352 . S
C200 C201 1.384 . S
C200 H222 0.930 . S
C201 C196 1.407 . S
C201 C200 1.384 . S
C201 H223 0.929 . S
C202 O212 1.241 . S
C202 O213 1.273 . S
C203 O214 1.251 . S
C203 O215 1.268 1_556 S
O204 Nd184 2.500 . S
O204 C186 1.258 . S
O205 Nd184 2.492 . S
O205 C186 1.239 . S
O206 Nd184 2.487 1_556 S
O206 C193 1.241 . S
O207 Nd184 2.682 1_556 S
O207 Nd185 2.414 . S
O207 C193 1.273 . S
O208 Nd184 2.410 1_556 S
O208 C194 1.251 . S
O209 Nd185 2.424 . S
O209 C194 1.268 . S
O210 Nd185 2.500 . S
O210 C195 1.258 . S
O211 Nd185 2.492 . S
O211 C195 1.239 . S
O212 Nd185 2.487 . S
O212 C202 1.241 . S
O213 Nd184 2.414 1_556 S
O213 Nd185 2.682 . S
O213 C202 1.273 . S
O214 Nd185 2.410 . S
O214 C203 1.251 . S
O215 Nd184 2.424 . S
O215 C203 1.268 1_554 S
H216 C188 0.930 . S
H217 C189 0.929 . S
H218 C191 0.930 . S
H219 C192 0.929 . S
H220 C197 0.930 . S
H221 C198 0.929 . S
H222 C200 0.930 . S
H223 C201 0.929 . S
Nd224 C226 2.836 1_455 S
Nd224 O244 2.500 1_455 S
Nd224 O245 2.492 1_455 S
Nd224 O246 2.487 . S
Nd224 O247 2.682 . S
Nd224 O248 2.410 1_455 S
Nd224 O253 2.414 . S
Nd224 O255 2.424 . S
Nd225 C235 2.836 . S
Nd225 O247 2.414 1_554 S
Nd225 O249 2.424 1_454 S
Nd225 O250 2.500 . S
Nd225 O251 2.492 . S
Nd225 O252 2.487 . S
Nd225 O253 2.682 1_554 S
Nd225 O254 2.410 1_554 S
C226 Nd224 2.836 1_655 S
C226 C227 1.498 . S
C226 O244 1.258 . S
C226 O245 1.239 . S
C227 C226 1.498 . S
C227 C228 1.366 . S
C227 C232 1.407 . S
C228 C227 1.366 . S
C228 C229 1.392 . S
C228 H256 0.930 . S
C229 C228 1.392 . S
C229 C230 1.398 . S
C229 H257 0.929 . S
C230 C229 1.398 . S
C230 C231 1.352 . S
C231 C230 1.352 . S
C231 C232 1.384 . S
C231 H258 0.930 . S
C232 C227 1.407 . S
C232 C231 1.384 . S
C232 H259 0.929 . S
C233 O246 1.241 . S
C233 O247 1.273 . S
C234 O248 1.251 . S
C234 O249 1.268 . S
C235 Nd225 2.836 . S
C235 C236 1.498 . S
C235 O250 1.258 . S
C235 O251 1.239 . S
C236 C235 1.498 . S
C236 C237 1.366 . S
C236 C241 1.407 . S
C237 C236 1.366 . S
C237 C238 1.392 . S
C237 H260 0.930 . S
C238 C237 1.392 . S
C238 C239 1.398 . S
C238 H261 0.929 . S
C239 C238 1.398 . S
C239 C240 1.352 . S
C240 C239 1.352 . S
C240 C241 1.384 . S
C240 H262 0.930 . S
C241 C236 1.407 . S
C241 C240 1.384 . S
C241 H263 0.929 . S
C242 O252 1.241 1_556 S
C242 O253 1.273 . S
C243 O254 1.251 . S
C243 O255 1.268 . S
O244 Nd224 2.500 1_655 S
O244 C226 1.258 . S
O245 Nd224 2.492 1_655 S
O245 C226 1.239 . S
O246 Nd224 2.487 . S
O246 C233 1.241 . S
O247 Nd224 2.682 . S
O247 Nd225 2.414 1_556 S
O247 C233 1.273 . S
O248 Nd224 2.410 1_655 S
O248 C234 1.251 . S
O249 Nd225 2.424 1_656 S
O249 C234 1.268 . S
O250 Nd225 2.500 . S
O250 C235 1.258 . S
O251 Nd225 2.492 . S
O251 C235 1.239 . S
O252 Nd225 2.487 . S
O252 C242 1.241 1_554 S
O253 Nd224 2.414 . S
O253 Nd225 2.682 1_556 S
O253 C242 1.273 . S
O254 Nd225 2.410 1_556 S
O254 C243 1.251 . S
O255 Nd224 2.424 . S
O255 C243 1.268 . S
H256 C228 0.930 . S
H257 C229 0.929 . S
H258 C231 0.930 . S
H259 C232 0.929 . S
H260 C237 0.930 . S
H261 C238 0.929 . S
H262 C240 0.930 . S
H263 C241 0.929 . S
C264 C265 1.391 . S
C264 C266 1.394 . S
C264 H280 0.931 . S
C265 C264 1.391 . S
C265 C269 1.376 . S
C266 C264 1.394 . S
C266 C267 1.369 . S
C266 C270 1.531 . S
C267 C266 1.369 . S
C267 C268 1.410 . S
C267 C275 1.503 . S
C268 C267 1.410 . S
C268 C269 1.392 . S
C268 C271 1.511 . S
C269 C265 1.376 . S
C269 C268 1.392 . S
C269 H281 0.929 . S
C270 C266 1.531 . S
C270 H282 0.960 . S
C270 H283 0.962 . S
C270 H284 0.960 . S
C271 C268 1.511 . S
C271 H285 0.961 . S
C271 H286 0.961 . S
C271 H287 0.961 . S
C272 C273 1.370 . S
C272 C274 1.363 . S
C272 H288 0.931 . S
C273 C272 1.370 . S
C273 C277 1.408 . S
C274 C272 1.363 . S
C274 C275 1.370 . S
C274 C278 1.524 . S
C275 C267 1.503 . S
C275 C274 1.370 . S
C275 C276 1.403 . S
C276 C275 1.403 . S
C276 C277 1.404 . S
C276 C279 1.539 . S
C277 C273 1.408 . S
C277 C276 1.404 . S
C277 H289 0.930 . S
C278 C274 1.524 . S
C278 H290 0.956 . S
C278 H291 0.961 . S
C278 H292 0.961 . S
C279 C276 1.539 . S
C279 H293 0.958 . S
C279 H294 0.961 . S
C279 H295 0.960 . S
H280 C264 0.931 . S
H281 C269 0.929 . S
H282 C270 0.960 . S
H283 C270 0.962 . S
H284 C270 0.960 . S
H285 C271 0.961 . S
H286 C271 0.961 . S
H287 C271 0.961 . S
H288 C272 0.931 . S
H289 C277 0.930 . S
H290 C278 0.956 . S
H291 C278 0.961 . S
H292 C278 0.961 . S
H293 C279 0.958 . S
H294 C279 0.961 . S
H295 C279 0.960 . S
C296 C297 1.391 . S
C296 C298 1.394 . S
C296 H312 0.931 . S
C297 C296 1.391 . S
C297 C301 1.376 . S
C298 C296 1.394 . S
C298 C299 1.369 . S
C298 C302 1.531 . S
C299 C298 1.369 . S
C299 C300 1.410 . S
C299 C307 1.503 . S
C300 C299 1.410 . S
C300 C301 1.392 . S
C300 C303 1.511 . S
C301 C297 1.376 . S
C301 C300 1.392 . S
C301 H313 0.929 . S
C302 C298 1.531 . S
C302 H314 0.960 . S
C302 H315 0.962 . S
C302 H316 0.960 . S
C303 C300 1.511 . S
C303 H317 0.961 . S
C303 H318 0.961 . S
C303 H319 0.961 . S
C304 C305 1.370 . S
C304 C306 1.363 . S
C304 H320 0.931 . S
C305 C304 1.370 . S
C305 C309 1.408 . S
C306 C304 1.363 . S
C306 C307 1.370 . S
C306 C310 1.524 . S
C307 C299 1.503 . S
C307 C306 1.370 . S
C307 C308 1.403 . S
C308 C307 1.403 . S
C308 C309 1.404 . S
C308 C311 1.539 . S
C309 C305 1.408 . S
C309 C308 1.404 . S
C309 H321 0.930 . S
C310 C306 1.524 . S
C310 H322 0.956 . S
C310 H323 0.961 . S
C310 H324 0.961 . S
C311 C308 1.539 . S
C311 H325 0.958 . S
C311 H326 0.961 . S
C311 H327 0.960 . S
H312 C296 0.931 . S
H313 C301 0.929 . S
H314 C302 0.960 . S
H315 C302 0.962 . S
H316 C302 0.960 . S
H317 C303 0.961 . S
H318 C303 0.961 . S
H319 C303 0.961 . S
H320 C304 0.931 . S
H321 C309 0.930 . S
H322 C310 0.956 . S
H323 C310 0.961 . S
H324 C310 0.961 . S
H325 C311 0.958 . S
H326 C311 0.961 . S
H327 C311 0.960 . S
C328 C329 1.391 . S
C328 C330 1.394 . S
C328 H344 0.931 . S
C329 C328 1.391 . S
C329 C333 1.376 . S
C330 C328 1.394 . S
C330 C331 1.369 . S
C330 C334 1.531 . S
C331 C330 1.369 . S
C331 C332 1.410 . S
C331 C339 1.503 . S
C332 C331 1.410 . S
C332 C333 1.392 . S
C332 C335 1.511 . S
C333 C329 1.376 . S
C333 C332 1.392 . S
C333 H345 0.929 . S
C334 C330 1.531 . S
C334 H346 0.960 . S
C334 H347 0.962 . S
C334 H348 0.960 . S
C335 C332 1.511 . S
C335 H349 0.961 1_556 S
C335 H350 0.961 . S
C335 H351 0.961 . S
C336 C337 1.370 . S
C336 C338 1.363 . S
C336 H352 0.931 . S
C337 C336 1.370 . S
C337 C341 1.408 . S
C338 C336 1.363 . S
C338 C339 1.370 . S
C338 C342 1.524 . S
C339 C331 1.503 . S
C339 C338 1.370 . S
C339 C340 1.403 . S
C340 C339 1.403 . S
C340 C341 1.404 . S
C340 C343 1.539 . S
C341 C337 1.408 . S
C341 C340 1.404 . S
C341 H353 0.930 . S
C342 C338 1.524 . S
C342 H354 0.956 . S
C342 H355 0.961 1_556 S
C342 H356 0.961 1_556 S
C343 C340 1.539 . S
C343 H357 0.958 . S
C343 H358 0.961 . S
C343 H359 0.960 . S
H344 C328 0.931 . S
H345 C333 0.929 . S
H346 C334 0.960 . S
H347 C334 0.962 . S
H348 C334 0.960 . S
H349 C335 0.961 1_554 S
H350 C335 0.961 . S
H351 C335 0.961 . S
H352 C336 0.931 . S
H353 C341 0.930 . S
H354 C342 0.956 . S
H355 C342 0.961 1_554 S
H356 C342 0.961 1_554 S
H357 C343 0.958 . S
H358 C343 0.961 . S
H359 C343 0.960 . S
C360 C361 1.391 . S
C360 C362 1.394 . S
C360 H376 0.931 . S
C361 C360 1.391 . S
C361 C365 1.376 . S
C362 C360 1.394 . S
C362 C363 1.369 . S
C362 C366 1.531 . S
C363 C362 1.369 . S
C363 C364 1.410 . S
C363 C371 1.503 . S
C364 C363 1.410 . S
C364 C365 1.392 . S
C364 C367 1.511 1_455 S
C365 C361 1.376 . S
C365 C364 1.392 . S
C365 H377 0.929 . S
C366 C362 1.531 . S
C366 H378 0.960 . S
C366 H379 0.962 . S
C366 H380 0.960 . S
C367 C364 1.511 1_655 S
C367 H381 0.961 . S
C367 H382 0.961 1_655 S
C367 H383 0.961 . S
C368 C369 1.370 . S
C368 C370 1.363 . S
C368 H384 0.931 . S
C369 C368 1.370 . S
C369 C373 1.408 . S
C370 C368 1.363 . S
C370 C371 1.370 . S
C370 C374 1.524 . S
C371 C363 1.503 . S
C371 C370 1.370 . S
C371 C372 1.403 . S
C372 C371 1.403 . S
C372 C373 1.404 . S
C372 C375 1.539 . S
C373 C369 1.408 . S
C373 C372 1.404 . S
C373 H385 0.930 . S
C374 C370 1.524 . S
C374 H386 0.956 . S
C374 H387 0.961 . S
C374 H388 0.961 . S
C375 C372 1.539 . S
C375 H389 0.958 . S
C375 H390 0.961 1_455 S
C375 H391 0.960 . S
H376 C360 0.931 . S
H377 C365 0.929 . S
H378 C366 0.960 . S
H379 C366 0.962 . S
H380 C366 0.960 . S
H381 C367 0.961 . S
H382 C367 0.961 1_455 S
H383 C367 0.961 . S
H384 C368 0.931 . S
H385 C373 0.930 . S
H386 C374 0.956 . S
H387 C374 0.961 . S
H388 C374 0.961 . S
H389 C375 0.958 . S
H390 C375 0.961 1_655 S
H391 C375 0.960 . S
C392 C393 1.391 1_556 S
C392 C394 1.394 . S
C392 H408 0.931 . S
C393 C392 1.391 1_554 S
C393 C397 1.376 . S
C394 C392 1.394 . S
C394 C395 1.369 . S
C394 C398 1.531 . S
C395 C394 1.369 . S
C395 C396 1.410 1_556 S
C395 C403 1.503 . S
C396 C395 1.410 1_554 S
C396 C397 1.392 . S
C396 C399 1.511 1_565 S
C397 C393 1.376 . S
C397 C396 1.392 . S
C397 H409 0.929 . S
C398 C394 1.531 . S
C398 H410 0.960 . S
C398 H411 0.962 . S
C398 H412 0.960 . S
C399 C396 1.511 1_545 S
C399 H413 0.961 . S
C399 H414 0.961 . S
C399 H415 0.961 1_554 S
C400 C401 1.388 1_554 S
C400 C402 1.363 . S
C400 H416 0.931 . S
C401 C400 1.388 1_556 S
C401 C405 1.400 1_565 S
C402 C400 1.363 . S
C402 C403 1.370 1_554 S
C402 C406 1.524 . S
C403 C395 1.503 . S
C403 C402 1.370 1_556 S
C403 C404 1.403 . S
C404 C403 1.403 . S
C404 C405 1.404 1_565 S
C404 C407 1.539 1_565 S
C405 C401 1.400 1_545 S
C405 C404 1.404 1_545 S
C405 H417 0.930 . S
C406 C402 1.524 . S
C406 H418 0.956 . S
C406 H419 0.961 . S
C406 H420 0.961 . S
C407 C404 1.539 1_545 S
C407 H421 0.958 1_545 S
C407 H422 0.961 . S
C407 H423 0.960 . S
H408 C392 0.931 . S
H409 C397 0.929 . S
H410 C398 0.960 . S
H411 C398 0.962 . S
H412 C398 0.960 . S
H413 C399 0.961 . S
H414 C399 0.961 . S
H415 C399 0.961 1_556 S
H416 C400 0.931 . S
H417 C405 0.930 . S
H418 C406 0.956 . S
H419 C406 0.961 . S
H420 C406 0.961 . S
H421 C407 0.958 1_565 S
H422 C407 0.961 . S
H423 C407 0.960 . S
C424 C425 1.391 . S
C424 C426 1.394 . S
C424 H440 0.931 . S
C425 C424 1.391 . S
C425 C429 1.376 . S
C426 C424 1.394 . S
C426 C427 1.369 . S
C426 C430 1.531 . S
C427 C426 1.369 . S
C427 C428 1.410 . S
C427 C435 1.503 . S
C428 C427 1.410 . S
C428 C429 1.392 . S
C428 C431 1.511 . S
C429 C425 1.376 . S
C429 C428 1.392 . S
C429 H441 0.929 . S
C430 C426 1.531 . S
C430 H442 0.960 . S
C430 H443 0.962 . S
C430 H444 0.960 . S
C431 C428 1.511 . S
C431 H445 0.961 . S
C431 H446 0.961 . S
C431 H447 0.961 . S
C432 C433 1.370 . S
C432 C434 1.363 . S
C432 H448 0.931 1_554 S
C433 C432 1.370 . S
C433 C437 1.408 . S
C434 C432 1.363 . S
C434 C435 1.370 . S
C434 C438 1.524 . S
C435 C427 1.503 . S
C435 C434 1.370 . S
C435 C436 1.403 . S
C436 C435 1.403 . S
C436 C437 1.404 . S
C436 C439 1.539 . S
C437 C433 1.408 . S
C437 C436 1.404 . S
C437 H449 0.930 . S
C438 C434 1.524 . S
C438 H450 0.956 . S
C438 H451 0.961 . S
C438 H452 0.961 . S
C439 C436 1.539 . S
C439 H453 0.958 . S
C439 H454 0.961 . S
C439 H455 0.960 . S
H440 C424 0.931 . S
H441 C429 0.929 . S
H442 C430 0.960 . S
H443 C430 0.962 . S
H444 C430 0.960 . S
H445 C431 0.961 . S
H446 C431 0.961 . S
H447 C431 0.961 . S
H448 C432 0.931 1_556 S
H449 C437 0.930 . S
H450 C438 0.956 . S
H451 C438 0.961 . S
H452 C438 0.961 . S
H453 C439 0.958 . S
H454 C439 0.961 . S
H455 C439 0.960 . S
C456 C457 1.391 . S
C456 C458 1.394 . S
C456 H472 0.931 . S
C457 C456 1.391 . S
C457 C461 1.376 . S
C458 C456 1.394 . S
C458 C459 1.369 . S
C458 C462 1.531 . S
C459 C458 1.369 . S
C459 C460 1.410 . S
C459 C467 1.503 . S
C460 C459 1.410 . S
C460 C461 1.392 . S
C460 C463 1.511 . S
C461 C457 1.376 . S
C461 C460 1.392 . S
C461 H473 0.929 . S
C462 C458 1.531 . S
C462 H474 0.960 . S
C462 H475 0.962 1_556 S
C462 H476 0.960 . S
C463 C460 1.511 . S
C463 H477 0.961 . S
C463 H478 0.961 . S
C463 H479 0.961 . S
C464 C465 1.370 . S
C464 C466 1.363 . S
C464 H480 0.931 1_556 S
C465 C464 1.370 . S
C465 C469 1.408 . S
C466 C464 1.363 . S
C466 C467 1.370 . S
C466 C470 1.524 1_556 S
C467 C459 1.503 . S
C467 C466 1.370 . S
C467 C468 1.403 . S
C468 C467 1.403 . S
C468 C469 1.404 . S
C468 C471 1.539 . S
C469 C465 1.408 . S
C469 C468 1.404 . S
C469 H481 0.930 . S
C470 C466 1.524 1_554 S
C470 H482 0.956 . S
C470 H483 0.961 . S
C470 H484 0.961 . S
C471 C468 1.539 . S
C471 H485 0.958 . S
C471 H486 0.961 . S
C471 H487 0.960 . S
H472 C456 0.931 . S
H473 C461 0.929 . S
H474 C462 0.960 . S
H475 C462 0.962 1_554 S
H476 C462 0.960 . S
H477 C463 0.961 . S
H478 C463 0.961 . S
H479 C463 0.961 . S
H480 C464 0.931 1_554 S
H481 C469 0.930 . S
H482 C470 0.956 . S
H483 C470 0.961 . S
H484 C470 0.961 . S
H485 C471 0.958 . S
H486 C471 0.961 . S
H487 C471 0.960 . S
C488 C489 1.391 1_656 S
C488 C490 1.394 1_655 S
C488 H504 0.931 . S
C489 C488 1.391 1_454 S
C489 C493 1.376 . S
C490 C488 1.394 1_455 S
C490 C491 1.369 1_556 S
C490 C494 1.531 1_455 S
C491 C490 1.369 1_554 S
C491 C492 1.410 . S
C491 C499 1.503 1_554 S
C492 C491 1.410 . S
C492 C493 1.392 . S
C492 C495 1.511 . S
C493 C489 1.376 . S
C493 C492 1.392 . S
C493 H505 0.929 . S
C494 C490 1.531 1_655 S
C494 H506 0.960 1_655 S
C494 H507 0.962 . S
C494 H508 0.960 . S
C495 C492 1.511 . S
C495 H509 0.961 . S
C495 H510 0.961 . S
C495 H511 0.961 . S
C496 C497 1.370 . S
C496 C498 1.363 1_456 S
C496 H512 0.931 1_455 S
C497 C496 1.370 . S
C497 C501 1.408 . S
C498 C496 1.363 1_654 S
C498 C499 1.370 1_654 S
C498 C502 1.524 . S
C499 C491 1.503 1_556 S
C499 C498 1.370 1_456 S
C499 C500 1.403 . S
C500 C499 1.403 . S
C500 C501 1.404 . S
C500 C503 1.539 . S
C501 C497 1.408 . S
C501 C500 1.404 . S
C501 H513 0.930 . S
C502 C498 1.524 . S
C502 H514 0.956 . S
C502 H515 0.961 . S
C502 H516 0.961 . S
C503 C500 1.539 . S
C503 H517 0.958 . S
C503 H518 0.961 . S
C503 H519 0.960 . S
H504 C488 0.931 . S
H505 C493 0.929 . S
H506 C494 0.960 1_455 S
H507 C494 0.962 . S
H508 C494 0.960 . S
H509 C495 0.961 . S
H510 C495 0.961 . S
H511 C495 0.961 . S
H512 C496 0.931 1_655 S
H513 C501 0.930 . S
H514 C502 0.956 . S
H515 C502 0.961 . S
H516 C502 0.961 . S
H517 C503 0.958 . S
H518 C503 0.961 . S
H519 C503 0.960 . S
C520 C521 1.391 . S
C520 C522 1.394 . S
C520 H536 0.931 . S
C521 C520 1.391 . S
C521 C525 1.376 . S
C522 C520 1.394 . S
C522 C523 1.369 . S
C522 C526 1.531 . S
C523 C522 1.369 . S
C523 C524 1.410 . S
C523 C531 1.503 . S
C524 C523 1.410 . S
C524 C525 1.392 . S
C524 C527 1.511 1_455 S
C525 C521 1.376 . S
C525 C524 1.392 . S
C525 H537 0.929 . S
C526 C522 1.531 . S
C526 H538 0.960 . S
C526 H539 0.962 . S
C526 H540 0.960 . S
C527 C524 1.511 1_655 S
C527 H541 0.961 . S
C527 H542 0.970 . S
C527 H543 0.961 . S
C528 C529 1.370 . S
C528 C530 1.363 . S
C528 H544 0.931 . S
C529 C528 1.370 . S
C529 C533 1.408 . S
C530 C528 1.363 . S
C530 C531 1.370 . S
C530 C534 1.524 . S
C531 C523 1.503 . S
C531 C530 1.370 . S
C531 C532 1.403 . S
C532 C531 1.403 . S
C532 C533 1.404 . S
C532 C535 1.539 . S
C533 C529 1.408 . S
C533 C532 1.404 . S
C533 H545 0.930 . S
C534 C530 1.524 . S
C534 H546 0.956 . S
C534 H547 0.961 . S
C534 H548 0.961 . S
C535 C532 1.539 . S
C535 H549 0.958 1_556 S
C535 H550 0.961 1_455 S
C535 H551 0.960 . S
H536 C520 0.931 . S
H537 C525 0.929 . S
H538 C526 0.960 . S
H539 C526 0.962 . S
H540 C526 0.960 . S
H541 C527 0.961 . S
H542 C527 0.970 . S
H543 C527 0.961 . S
H544 C528 0.931 . S
H545 C533 0.930 . S
H546 C534 0.956 . S
H547 C534 0.961 . S
H548 C534 0.961 . S
H549 C535 0.958 1_554 S
H550 C535 0.961 1_655 S
H551 C535 0.960 . S
C552 C553 1.391 . S
C552 C554 1.394 . S
C552 H568 0.931 . S
C553 C552 1.391 . S
C553 C557 1.376 . S
C554 C552 1.394 . S
C554 C555 1.369 . S
C554 C558 1.531 . S
C555 C554 1.369 . S
C555 C556 1.410 . S
C555 C563 1.503 . S
C556 C555 1.410 . S
C556 C557 1.392 . S
C556 C559 1.511 . S
C557 C553 1.376 . S
C557 C556 1.392 . S
C557 H569 0.929 . S
C558 C554 1.531 . S
C558 H570 0.960 . S
C558 H571 0.962 . S
C558 H572 0.960 . S
C559 C556 1.511 . S
C559 H573 0.961 . S
C559 H574 0.961 . S
C559 H575 0.961 . S
C560 C561 1.370 . S
C560 C562 1.363 . S
C560 H576 0.931 . S
C561 C560 1.370 . S
C561 C565 1.408 . S
C562 C560 1.363 . S
C562 C563 1.370 . S
C562 C566 1.524 . S
C563 C555 1.503 . S
C563 C562 1.370 . S
C563 C564 1.403 . S
C564 C563 1.403 . S
C564 C565 1.404 . S
C564 C567 1.539 . S
C565 C561 1.408 . S
C565 C564 1.404 . S
C565 H577 0.930 . S
C566 C562 1.524 . S
C566 H578 0.956 . S
C566 H579 0.961 . S
C566 H580 0.961 . S
C567 C564 1.539 . S
C567 H581 0.958 . S
C567 H582 0.961 . S
C567 H583 0.960 . S
H568 C552 0.931 . S
H569 C557 0.929 . S
H570 C558 0.960 . S
H571 C558 0.962 . S
H572 C558 0.960 . S
H573 C559 0.961 . S
H574 C559 0.961 . S
H575 C559 0.961 . S
H576 C560 0.931 . S
H577 C565 0.930 . S
H578 C566 0.956 . S
H579 C566 0.961 . S
H580 C566 0.961 . S
H581 C567 0.958 . S
H582 C567 0.961 . S
H583 C567 0.960 . S
C584 C585 1.391 . S
C584 C586 1.394 . S
C584 H600 0.931 . S
C585 C584 1.391 . S
C585 C589 1.376 . S
C586 C584 1.394 . S
C586 C587 1.369 . S
C586 C590 1.531 . S
C587 C586 1.369 . S
C587 C588 1.410 . S
C587 C595 1.503 . S
C588 C587 1.410 . S
C588 C589 1.392 . S
C588 C591 1.511 . S
C589 C585 1.376 . S
C589 C588 1.392 . S
C589 H601 0.929 . S
C590 C586 1.531 . S
C590 H602 0.960 . S
C590 H603 0.962 . S
C590 H604 0.960 . S
C591 C588 1.511 . S
C591 H605 0.961 . S
C591 H606 0.961 . S
C591 H607 0.961 . S
C592 C593 1.370 . S
C592 C594 1.363 . S
C592 H608 0.931 . S
C593 C592 1.370 . S
C593 C597 1.408 . S
C594 C592 1.363 . S
C594 C595 1.370 . S
C594 C598 1.524 . S
C595 C587 1.503 . S
C595 C594 1.370 . S
C595 C596 1.403 . S
C596 C595 1.403 . S
C596 C597 1.404 . S
C596 C599 1.539 . S
C597 C593 1.408 . S
C597 C596 1.404 . S
C597 H609 0.930 . S
C598 C594 1.524 . S
C598 H610 0.956 . S
C598 H611 0.961 . S
C598 H612 0.961 . S
C599 C596 1.539 . S
C599 H613 0.958 . S
C599 H614 0.961 . S
C599 H615 0.960 . S
H600 C584 0.931 . S
H601 C589 0.929 . S
H602 C590 0.960 . S
H603 C590 0.962 . S
H604 C590 0.960 . S
H605 C591 0.961 . S
H606 C591 0.961 . S
H607 C591 0.961 . S
H608 C592 0.931 . S
H609 C597 0.930 . S
H610 C598 0.956 . S
H611 C598 0.961 . S
H612 C598 0.961 . S
H613 C599 0.958 . S
H614 C599 0.961 . S
H615 C599 0.960 . S
C616 C617 1.391 . S
C616 C618 1.394 . S
C616 H632 0.931 . S
C617 C616 1.391 . S
C617 C621 1.376 . S
C618 C616 1.394 . S
C618 C619 1.369 . S
C618 C622 1.531 1_556 S
C619 C618 1.369 . S
C619 C620 1.410 . S
C619 C627 1.503 . S
C620 C619 1.410 . S
C620 C621 1.392 . S
C620 C623 1.511 . S
C621 C617 1.376 . S
C621 C620 1.392 . S
C621 H633 0.929 . S
C622 C618 1.531 1_554 S
C622 H634 0.960 . S
C622 H635 0.962 1_554 S
C622 H636 0.960 . S
C623 C620 1.511 . S
C623 H637 0.961 . S
C623 H638 0.961 . S
C623 H639 0.961 . S
C624 C625 1.370 . S
C624 C626 1.363 . S
C624 H640 0.931 . S
C625 C624 1.370 . S
C625 C629 1.408 . S
C626 C624 1.363 . S
C626 C627 1.370 . S
C626 C630 1.524 . S
C627 C619 1.503 . S
C627 C626 1.370 . S
C627 C628 1.403 . S
C628 C627 1.403 . S
C628 C629 1.404 . S
C628 C631 1.539 1_556 S
C629 C625 1.408 . S
C629 C628 1.404 . S
C629 H641 0.930 . S
C630 C626 1.524 . S
C630 H642 0.956 . S
C630 H643 0.961 . S
C630 H644 0.961 . S
C631 C628 1.539 1_554 S
C631 H645 0.958 . S
C631 H646 0.961 . S
C631 H647 0.960 1_554 S
H632 C616 0.931 . S
H633 C621 0.929 . S
H634 C622 0.960 . S
H635 C622 0.962 1_556 S
H636 C622 0.960 . S
H637 C623 0.961 . S
H638 C623 0.961 . S
H639 C623 0.961 . S
H640 C624 0.931 . S
H641 C629 0.930 . S
H642 C630 0.956 . S
H643 C630 0.961 . S
H644 C630 0.961 . S
H645 C631 0.958 . S
H646 C631 0.961 . S
H647 C631 0.960 1_556 S
C648 C649 1.391 . S
C648 C650 1.394 . S
C648 H664 0.931 . S
C649 C648 1.391 . S
C649 C653 1.376 1_654 S
C650 C648 1.394 . S
C650 C651 1.369 1_655 S
C650 C654 1.531 . S
C651 C650 1.369 1_455 S
C651 C652 1.410 1_554 S
C651 C659 1.504 . S
C652 C651 1.410 1_556 S
C652 C653 1.392 . S
C652 C655 1.511 . S
C653 C649 1.376 1_456 S
C653 C652 1.392 . S
C653 H665 0.929 . S
C654 C650 1.531 . S
C654 H666 0.960 . S
C654 H667 0.962 . S
C654 H668 0.960 . S
C655 C652 1.511 . S
C655 H669 0.961 . S
C655 H670 0.961 . S
C655 H671 0.961 . S
C656 C657 1.370 . S
C656 C658 1.366 1_455 S
C656 H672 0.931 1_455 S
C657 C656 1.370 . S
C657 C661 1.408 1_556 S
C658 C656 1.366 1_655 S
C658 C659 1.341 1_656 S
C658 C662 1.548 . S
C659 C651 1.504 . S
C659 C658 1.341 1_454 S
C659 C660 1.407 . S
C660 C659 1.407 . S
C660 C661 1.404 . S
C660 C663 1.539 . S
C661 C657 1.408 1_554 S
C661 C660 1.404 . S
C661 H673 0.930 . S
C662 C658 1.548 . S
C662 H674 0.956 . S
C662 H675 0.961 . S
C662 H676 0.961 . S
C663 C660 1.539 . S
C663 H677 0.958 . S
C663 H678 0.961 . S
C663 H679 0.960 . S
H664 C648 0.931 . S
H665 C653 0.929 . S
H666 C654 0.960 . S
H667 C654 0.962 . S
H668 C654 0.960 . S
H669 C655 0.961 . S
H670 C655 0.961 . S
H671 C655 0.961 . S
H672 C656 0.931 1_655 S
H673 C661 0.930 . S
H674 C662 0.956 . S
H675 C662 0.961 . S
H676 C662 0.961 . S
H677 C663 0.958 . S
H678 C663 0.961 . S
H679 C663 0.960 . S
C680 C681 1.391 . S
C680 C682 1.394 . S
C680 H696 0.931 . S
C681 C680 1.391 . S
C681 C685 1.376 1_554 S
C682 C680 1.394 . S
C682 C683 1.369 . S
C682 C686 1.531 . S
C683 C682 1.369 . S
C683 C684 1.410 1_554 S
C683 C691 1.503 1_554 S
C684 C683 1.410 1_556 S
C684 C685 1.392 . S
C684 C687 1.511 1_565 S
C685 C681 1.376 1_556 S
C685 C684 1.392 . S
C685 H697 0.929 . S
C686 C682 1.531 . S
C686 H698 0.960 . S
C686 H699 0.962 . S
C686 H700 0.960 . S
C687 C684 1.511 1_545 S
C687 H701 0.961 . S
C687 H702 0.961 . S
C687 H703 0.961 . S
C688 C689 1.370 1_565 S
C688 C690 1.363 . S
C688 H704 0.931 . S
C689 C688 1.370 1_545 S
C689 C693 1.408 1_556 S
C690 C688 1.363 . S
C690 C691 1.370 . S
C690 C694 1.524 . S
C691 C683 1.503 1_556 S
C691 C690 1.370 . S
C691 C692 1.403 1_556 S
C692 C691 1.403 1_554 S
C692 C693 1.404 1_565 S
C692 C695 1.539 . S
C693 C689 1.408 1_554 S
C693 C692 1.404 1_545 S
C693 H705 0.930 . S
C694 C690 1.524 . S
C694 H706 0.956 . S
C694 H707 0.961 . S
C694 H708 0.961 . S
C695 C692 1.539 . S
C695 H709 0.958 . S
C695 H710 0.961 1_565 S
C695 H711 0.960 . S
H696 C680 0.931 . S
H697 C685 0.929 . S
H698 C686 0.960 . S
H699 C686 0.962 . S
H700 C686 0.960 . S
H701 C687 0.961 . S
H702 C687 0.961 . S
H703 C687 0.961 . S
H704 C688 0.931 . S
H705 C693 0.930 . S
H706 C694 0.956 . S
H707 C694 0.961 . S
H708 C694 0.961 . S
H709 C695 0.958 . S
H710 C695 0.961 1_545 S
H711 C695 0.960 . S
C712 C713 1.391 . S
C712 C714 1.394 . S
C712 H728 0.931 . S
C713 C712 1.391 . S
C713 C717 1.376 . S
C714 C712 1.394 . S
C714 C715 1.369 . S
C714 C718 1.531 . S
C715 C714 1.369 . S
C715 C716 1.410 . S
C715 C723 1.503 . S
C716 C715 1.410 . S
C716 C717 1.392 . S
C716 C719 1.511 . S
C717 C713 1.376 . S
C717 C716 1.392 . S
C717 H729 0.929 . S
C718 C714 1.531 . S
C718 H730 0.960 . S
C718 H731 0.962 . S
C718 H732 0.960 . S
C719 C716 1.511 . S
C719 H733 0.961 . S
C719 H734 0.961 . S
C719 H735 0.961 . S
C720 C721 1.370 . S
C720 C722 1.363 . S
C720 H736 0.931 . S
C721 C720 1.370 . S
C721 C725 1.408 . S
C722 C720 1.363 . S
C722 C723 1.370 . S
C722 C726 1.524 . S
C723 C715 1.503 . S
C723 C722 1.370 . S
C723 C724 1.403 . S
C724 C723 1.403 . S
C724 C725 1.404 . S
C724 C727 1.539 . S
C725 C721 1.408 . S
C725 C724 1.404 . S
C725 H737 0.930 . S
C726 C722 1.524 . S
C726 H738 0.956 . S
C726 H739 0.961 . S
C726 H740 0.961 . S
C727 C724 1.539 . S
C727 H741 0.958 . S
C727 H742 0.961 . S
C727 H743 0.960 . S
H728 C712 0.931 . S
H729 C717 0.929 . S
H730 C718 0.960 . S
H731 C718 0.962 . S
H732 C718 0.960 . S
H733 C719 0.961 . S
H734 C719 0.961 . S
H735 C719 0.961 . S
H736 C720 0.931 . S
H737 C725 0.930 . S
H738 C726 0.956 . S
H739 C726 0.961 . S
H740 C726 0.961 . S
H741 C727 0.958 . S
H742 C727 0.961 . S
H743 C727 0.960 . S
C744 C745 1.391 . S
C744 C746 1.394 . S
C744 H760 0.931 . S
C745 C744 1.391 . S
C745 C749 1.376 . S
C746 C744 1.394 . S
C746 C747 1.369 . S
C746 C750 1.531 . S
C747 C746 1.369 . S
C747 C748 1.410 . S
C747 C755 1.503 . S
C748 C747 1.410 . S
C748 C749 1.392 . S
C748 C751 1.511 . S
C749 C745 1.376 . S
C749 C748 1.392 . S
C749 H761 0.929 . S
C750 C746 1.531 . S
C750 H762 0.960 . S
C750 H763 0.962 . S
C750 H764 0.960 . S
C751 C748 1.511 . S
C751 H765 0.961 . S
C751 H766 0.961 . S
C751 H767 0.961 . S
C752 C753 1.370 . S
C752 C754 1.363 . S
C752 H768 0.931 1_556 S
C753 C752 1.370 . S
C753 C757 1.408 . S
C754 C752 1.363 . S
C754 C755 1.370 . S
C754 C758 1.524 1_556 S
C755 C747 1.503 . S
C755 C754 1.370 . S
C755 C756 1.403 . S
C756 C755 1.403 . S
C756 C757 1.404 . S
C756 C759 1.539 . S
C757 C753 1.408 . S
C757 C756 1.404 . S
C757 H769 0.930 . S
C758 C754 1.524 1_554 S
C758 H770 0.956 . S
C758 H771 0.961 . S
C758 H772 0.961 . S
C759 C756 1.539 . S
C759 H773 0.958 . S
C759 H774 0.961 . S
C759 H775 0.960 . S
H760 C744 0.931 . S
H761 C749 0.929 . S
H762 C750 0.960 . S
H763 C750 0.962 . S
H764 C750 0.960 . S
H765 C751 0.961 . S
H766 C751 0.961 . S
H767 C751 0.961 . S
H768 C752 0.931 1_554 S
H769 C757 0.930 . S
H770 C758 0.956 . S
H771 C758 0.961 . S
H772 C758 0.961 . S
H773 C759 0.958 . S
H774 C759 0.961 . S
H775 C759 0.960 . S
C776 C777 1.391 . S
C776 C778 1.394 . S
C776 H792 0.931 . S
C777 C776 1.391 . S
C777 C781 1.376 . S
C778 C776 1.394 . S
C778 C779 1.369 . S
C778 C782 1.531 . S
C779 C778 1.369 . S
C779 C780 1.410 . S
C779 C787 1.503 . S
C780 C779 1.410 . S
C780 C781 1.392 . S
C780 C783 1.511 . S
C781 C777 1.376 . S
C781 C780 1.392 . S
C781 H793 0.929 . S
C782 C778 1.531 . S
C782 H794 0.960 . S
C782 H795 0.962 . S
C782 H796 0.960 . S
C783 C780 1.511 . S
C783 H797 0.945 1_455 S
C783 H798 0.961 . S
C783 H799 0.961 1_455 S
C784 C785 1.370 . S
C784 C786 1.363 . S
C784 H800 0.931 . S
C785 C784 1.370 . S
C785 C789 1.408 . S
C786 C784 1.363 . S
C786 C787 1.370 . S
C786 C790 1.524 . S
C787 C779 1.503 . S
C787 C786 1.370 . S
C787 C788 1.403 . S
C788 C787 1.403 . S
C788 C789 1.404 . S
C788 C791 1.539 . S
C789 C785 1.408 . S
C789 C788 1.404 . S
C789 H801 0.930 . S
C790 C786 1.524 . S
C790 H802 0.956 . S
C790 H803 0.961 . S
C790 H804 0.961 . S
C791 C788 1.539 . S
C791 H805 0.958 . S
C791 H806 0.961 . S
C791 H807 0.960 . S
H792 C776 0.931 . S
H793 C781 0.929 . S
H794 C782 0.960 . S
H795 C782 0.962 . S
H796 C782 0.960 . S
H797 C783 0.945 1_655 S
H798 C783 0.961 . S
H799 C783 0.961 1_655 S
H800 C784 0.931 . S
H801 C789 0.930 . S
H802 C790 0.956 . S
H803 C790 0.961 . S
H804 C790 0.961 . S
H805 C791 0.958 . S
H806 C791 0.961 . S
H807 C791 0.960 . S
C808 C809 1.391 . S
C808 C810 1.394 . S
C808 H824 0.931 . S
C809 C808 1.391 . S
C809 C813 1.376 . S
C810 C808 1.394 . S
C810 C811 1.369 . S
C810 C814 1.531 . S
C811 C810 1.369 . S
C811 C812 1.410 . S
C811 C819 1.503 . S
C812 C811 1.410 . S
C812 C813 1.392 . S
C812 C815 1.511 . S
C813 C809 1.376 . S
C813 C812 1.392 . S
C813 H825 0.929 . S
C814 C810 1.531 . S
C814 H826 0.960 . S
C814 H827 0.962 . S
C814 H828 0.960 . S
C815 C812 1.511 . S
C815 H829 0.961 . S
C815 H830 0.961 . S
C815 H831 0.961 . S
C816 C817 1.370 . S
C816 C818 1.363 . S
C816 H832 0.931 . S
C817 C816 1.370 . S
C817 C821 1.408 . S
C818 C816 1.363 . S
C818 C819 1.370 . S
C818 C822 1.524 . S
C819 C811 1.503 . S
C819 C818 1.370 . S
C819 C820 1.403 . S
C820 C819 1.403 . S
C820 C821 1.404 . S
C820 C823 1.539 . S
C821 C817 1.408 . S
C821 C820 1.404 . S
C821 H833 0.930 . S
C822 C818 1.524 . S
C822 H834 0.956 . S
C822 H835 0.961 . S
C822 H836 0.961 . S
C823 C820 1.539 . S
C823 H837 0.958 . S
C823 H838 0.961 . S
C823 H839 0.960 . S
H824 C808 0.931 . S
H825 C813 0.929 . S
H826 C814 0.960 . S
H827 C814 0.962 . S
H828 C814 0.960 . S
H829 C815 0.961 . S
H830 C815 0.961 . S
H831 C815 0.961 . S
H832 C816 0.931 . S
H833 C821 0.930 . S
H834 C822 0.956 . S
H835 C822 0.961 . S
H836 C822 0.961 . S
H837 C823 0.958 . S
H838 C823 0.961 . S
H839 C823 0.960 . S
C840 C841 1.391 . S
C840 C842 1.394 . S
C840 H856 0.931 . S
C841 C840 1.391 . S
C841 C845 1.376 . S
C842 C840 1.394 . S
C842 C843 1.369 . S
C842 C846 1.531 . S
C843 C842 1.369 . S
C843 C844 1.410 . S
C843 C851 1.503 . S
C844 C843 1.410 . S
C844 C845 1.392 . S
C844 C847 1.511 . S
C845 C841 1.376 . S
C845 C844 1.392 . S
C845 H857 0.929 . S
C846 C842 1.531 . S
C846 H858 0.960 . S
C846 H859 0.962 . S
C846 H860 0.960 . S
C847 C844 1.511 . S
C847 H861 0.961 . S
C847 H862 0.961 . S
C847 H863 0.961 . S
C848 C849 1.370 . S
C848 C850 1.363 . S
C848 H864 0.931 . S
C849 C848 1.370 . S
C849 C853 1.408 1_554 S
C850 C848 1.363 . S
C850 C851 1.370 . S
C850 C854 1.524 . S
C851 C843 1.503 . S
C851 C850 1.370 . S
C851 C852 1.403 . S
C852 C851 1.403 . S
C852 C853 1.404 1_554 S
C852 C855 1.539 1_554 S
C853 C849 1.408 1_556 S
C853 C852 1.404 1_556 S
C853 H865 0.930 . S
C854 C850 1.524 . S
C854 H866 0.956 . S
C854 H867 0.961 . S
C854 H868 0.961 . S
C855 C852 1.539 1_556 S
C855 H869 0.958 . S
C855 H870 0.961 . S
C855 H871 0.960 1_556 S
H856 C840 0.931 . S
H857 C845 0.929 . S
H858 C846 0.960 . S
H859 C846 0.962 . S
H860 C846 0.960 . S
H861 C847 0.961 . S
H862 C847 0.961 . S
H863 C847 0.961 . S
H864 C848 0.931 . S
H865 C853 0.930 . S
H866 C854 0.956 . S
H867 C854 0.961 . S
H868 C854 0.961 . S
H869 C855 0.958 . S
H870 C855 0.961 . S
H871 C855 0.960 1_554 S
C872 C873 1.391 . S
C872 C874 1.394 . S
C872 H888 0.931 . S
C873 C872 1.391 . S
C873 C877 1.376 . S
C874 C872 1.394 . S
C874 C875 1.369 . S
C874 C878 1.531 . S
C875 C874 1.369 . S
C875 C876 1.410 . S
C875 C883 1.503 . S
C876 C875 1.410 . S
C876 C877 1.392 . S
C876 C879 1.511 . S
C877 C873 1.376 . S
C877 C876 1.392 . S
C877 H889 0.929 . S
C878 C874 1.531 . S
C878 H890 0.960 . S
C878 H891 0.962 . S
C878 H892 0.960 . S
C879 C876 1.511 . S
C879 H893 0.961 . S
C879 H894 0.961 . S
C879 H895 0.961 . S
C880 C881 1.370 . S
C880 C882 1.363 . S
C880 H896 0.931 . S
C881 C880 1.370 . S
C881 C885 1.408 . S
C882 C880 1.363 . S
C882 C883 1.370 . S
C882 C886 1.524 . S
C883 C875 1.503 . S
C883 C882 1.370 . S
C883 C884 1.403 . S
C884 C883 1.403 . S
C884 C885 1.404 . S
C884 C887 1.539 . S
C885 C881 1.408 . S
C885 C884 1.404 . S
C885 H897 0.930 . S
C886 C882 1.524 . S
C886 H898 0.956 . S
C886 H899 0.961 . S
C886 H900 0.961 . S
C887 C884 1.539 . S
C887 H901 0.958 . S
C887 H902 0.961 . S
C887 H903 0.960 . S
H888 C872 0.931 . S
H889 C877 0.929 . S
H890 C878 0.960 . S
H891 C878 0.962 . S
H892 C878 0.960 . S
H893 C879 0.961 . S
H894 C879 0.961 . S
H895 C879 0.961 . S
H896 C880 0.931 . S
H897 C885 0.930 . S
H898 C886 0.956 . S
H899 C886 0.961 . S
H900 C886 0.961 . S
H901 C887 0.958 . S
H902 C887 0.961 . S
H903 C887 0.960 . S
C904 C905 1.391 . S
C904 C906 1.394 . S
C904 H920 0.931 . S
C905 C904 1.391 . S
C905 C909 1.376 1_655 S
C906 C904 1.394 . S
C906 C907 1.369 1_655 S
C906 C910 1.531 . S
C907 C906 1.369 1_455 S
C907 C908 1.410 . S
C907 C915 1.503 . S
C908 C907 1.410 . S
C908 C909 1.392 . S
C908 C911 1.511 . S
C909 C905 1.376 1_455 S
C909 C908 1.392 . S
C909 H921 0.929 . S
C910 C906 1.531 . S
C910 H922 0.960 . S
C910 H923 0.962 . S
C910 H924 0.960 . S
C911 C908 1.511 . S
C911 H925 0.961 . S
C911 H926 0.961 . S
C911 H927 0.961 . S
C912 C913 1.370 1_655 S
C912 C914 1.363 . S
C912 H928 0.931 . S
C913 C912 1.370 1_455 S
C913 C917 1.408 . S
C914 C912 1.363 . S
C914 C915 1.370 1_655 S
C914 C918 1.524 . S
C915 C907 1.503 . S
C915 C914 1.370 1_455 S
C915 C916 1.403 . S
C916 C915 1.403 . S
C916 C917 1.404 . S
C916 C919 1.539 . S
C917 C913 1.408 . S
C917 C916 1.404 . S
C917 H929 0.930 . S
C918 C914 1.524 . S
C918 H930 0.956 . S
C918 H931 0.961 . S
C918 H932 0.961 . S
C919 C916 1.539 . S
C919 H933 0.958 . S
C919 H934 0.961 . S
C919 H935 0.960 . S
H920 C904 0.931 . S
H921 C909 0.929 . S
H922 C910 0.960 . S
H923 C910 0.962 . S
H924 C910 0.960 . S
H925 C911 0.961 . S
H926 C911 0.961 . S
H927 C911 0.961 . S
H928 C912 0.931 . S
H929 C917 0.930 . S
H930 C918 0.956 . S
H931 C918 0.961 . S
H932 C918 0.961 . S
H933 C919 0.958 . S
H934 C919 0.961 . S
H935 C919 0.960 . S
C936 C937 1.391 . S
C936 C938 1.394 . S
C936 H952 0.931 . S
C937 C936 1.391 . S
C937 C941 1.376 . S
C938 C936 1.394 . S
C938 C939 1.369 . S
C938 C942 1.531 . S
C939 C938 1.369 . S
C939 C940 1.410 . S
C939 C947 1.503 . S
C940 C939 1.410 . S
C940 C941 1.392 . S
C940 C943 1.511 . S
C941 C937 1.376 . S
C941 C940 1.392 . S
C941 H953 0.929 . S
C942 C938 1.531 . S
C942 H954 0.960 . S
C942 H955 0.962 . S
C942 H956 0.960 . S
C943 C940 1.511 . S
C943 H957 0.961 . S
C943 H958 0.961 . S
C943 H959 0.961 . S
C944 C945 1.370 . S
C944 C946 1.363 . S
C944 H960 0.931 . S
C945 C944 1.370 . S
C945 C949 1.408 . S
C946 C944 1.363 . S
C946 C947 1.370 . S
C946 C950 1.524 . S
C947 C939 1.503 . S
C947 C946 1.370 . S
C947 C948 1.403 . S
C948 C947 1.403 . S
C948 C949 1.404 . S
C948 C951 1.539 . S
C949 C945 1.408 . S
C949 C948 1.404 . S
C949 H961 0.930 . S
C950 C946 1.524 . S
C950 H962 0.956 . S
C950 H963 0.961 . S
C950 H964 0.961 . S
C951 C948 1.539 . S
C951 H965 0.958 . S
C951 H966 0.961 . S
C951 H967 0.960 . S
H952 C936 0.931 . S
H953 C941 0.929 . S
H954 C942 0.960 . S
H955 C942 0.962 . S
H956 C942 0.960 . S
H957 C943 0.961 . S
H958 C943 0.961 . S
H959 C943 0.961 . S
H960 C944 0.931 . S
H961 C949 0.930 . S
H962 C950 0.956 . S
H963 C950 0.961 . S
H964 C950 0.961 . S
H965 C951 0.958 . S
H966 C951 0.961 . S
H967 C951 0.960 . S
C968 C969 1.391 . S
C968 C970 1.394 . S
C968 H984 0.931 . S
C969 C968 1.391 . S
C969 C973 1.376 . S
C970 C968 1.394 . S
C970 C971 1.369 . S
C970 C974 1.531 . S
C971 C970 1.369 . S
C971 C972 1.410 . S
C971 C979 1.503 . S
C972 C971 1.410 . S
C972 C973 1.392 . S
C972 C975 1.511 . S
C973 C969 1.376 . S
C973 C972 1.392 . S
C973 H985 0.929 . S
C974 C970 1.531 . S
C974 H986 0.960 . S
C974 H987 0.962 . S
C974 H988 0.960 . S
C975 C972 1.511 . S
C975 H989 0.961 . S
C975 H990 0.961 . S
C975 H991 0.961 . S
C976 C977 1.370 . S
C976 C978 1.363 . S
C976 H992 0.931 . S
C977 C976 1.370 . S
C977 C981 1.408 . S
C978 C976 1.363 . S
C978 C979 1.370 . S
C978 C982 1.524 . S
C979 C971 1.503 . S
C979 C978 1.370 . S
C979 C980 1.403 . S
C980 C979 1.403 . S
C980 C981 1.404 . S
C980 C983 1.539 . S
C981 C977 1.408 . S
C981 C980 1.404 . S
C981 H993 0.930 . S
C982 C978 1.524 . S
C982 H994 0.956 . S
C982 H995 0.961 . S
C982 H996 0.961 . S
C983 C980 1.539 . S
C983 H997 0.958 . S
C983 H998 0.961 . S
C983 H999 0.960 . S
H984 C968 0.931 . S
H985 C973 0.929 . S
H986 C974 0.960 . S
H987 C974 0.962 . S
H988 C974 0.960 . S
H989 C975 0.961 . S
H990 C975 0.961 . S
H991 C975 0.961 . S
H992 C976 0.931 . S
H993 C981 0.930 . S
H994 C982 0.956 . S
H995 C982 0.961 . S
H996 C982 0.961 . S
H997 C983 0.958 . S
H998 C983 0.961 . S
H999 C983 0.960 . S
C1000 C1001 1.391 . S
C1000 C1002 1.394 . S
C1000 H1016 0.931 . S
C1001 C1000 1.391 . S
C1001 C1005 1.376 . S
C1002 C1000 1.394 . S
C1002 C1003 1.369 . S
C1002 C1006 1.531 . S
C1003 C1002 1.369 . S
C1003 C1004 1.410 . S
C1003 C1011 1.503 . S
C1004 C1003 1.410 . S
C1004 C1005 1.392 . S
C1004 C1007 1.511 . S
C1005 C1001 1.376 . S
C1005 C1004 1.392 . S
C1005 H1017 0.929 . S
C1006 C1002 1.531 . S
C1006 H1018 0.960 . S
C1006 H1019 0.962 . S
C1006 H1020 0.960 . S
C1007 C1004 1.511 . S
C1007 H1021 0.961 . S
C1007 H1022 0.961 . S
C1007 H1023 0.961 . S
C1008 C1009 1.370 . S
C1008 C1010 1.363 . S
C1008 H1024 0.931 . S
C1009 C1008 1.370 . S
C1009 C1013 1.408 . S
C1010 C1008 1.363 . S
C1010 C1011 1.370 . S
C1010 C1014 1.524 . S
C1011 C1003 1.503 . S
C1011 C1010 1.370 . S
C1011 C1012 1.403 . S
C1012 C1011 1.403 . S
C1012 C1013 1.404 . S
C1012 C1015 1.539 . S
C1013 C1009 1.408 . S
C1013 C1012 1.404 . S
C1013 H1025 0.930 . S
C1014 C1010 1.524 . S
C1014 H1026 0.956 . S
C1014 H1027 0.961 . S
C1014 H1028 0.961 . S
C1015 C1012 1.539 . S
C1015 H1029 0.958 . S
C1015 H1030 0.961 . S
C1015 H1031 0.960 . S
H1016 C1000 0.931 . S
H1017 C1005 0.929 . S
H1018 C1006 0.960 . S
H1019 C1006 0.962 . S
H1020 C1006 0.960 . S
H1021 C1007 0.961 . S
H1022 C1007 0.961 . S
H1023 C1007 0.961 . S
H1024 C1008 0.931 . S
H1025 C1013 0.930 . S
H1026 C1014 0.956 . S
H1027 C1014 0.961 . S
H1028 C1014 0.961 . S
H1029 C1015 0.958 . S
H1030 C1015 0.961 . S
H1031 C1015 0.960 . S
C265 C82 1.686 . S
C273 C113 1.675 . S
C305 C153 1.296 . S
C297 C95 1.165 . S
C337 C202 1.326 . S
C329 C56 1.365 . S
C369 C233 1.644 . S
C361 C69 1.707 . S
C401 C122 1.670 1_565 S
C393 C30 1.568 . S
C425 C43 1.291 . S
C433 C162 1.275 . S
C457 C4 1.309 . S
C465 C193 1.336 . S
C489 C17 1.606 . S
C497 C242 1.658 . S
C529 C123 0.946 . S
C521 C74 0.954 . S
C561 C163 1.491 . S
C553 C87 1.321 . S
C593 C199 0.765 . S
C585 C100 0.747 . S
C617 C61 1.089 . S
C625 C243 1.143 . S
C649 C22 0.837 . S
C657 C114 0.946 . S
C689 C154 1.495 . S
C681 C35 1.280 . S
C721 C190 0.774 . S
C713 C48 0.756 . S
C745 C9 1.102 . S
C753 C234 1.138 . S
C777 C73 1.606 . S
C785 C119 1.658 . S
C809 C86 1.439 . S
C817 C159 1.429 . S
C849 C203 1.936 1_554 S
C841 C99 1.816 . S
C881 C239 1.422 . S
C873 C60 1.436 . S
C905 C21 1.637 . S
C913 C110 1.660 . S
C945 C150 1.429 . S
C937 C34 1.437 . S
C977 C194 1.936 . S
C969 C47 1.766 . S
C1001 C8 1.424 . S
C1009 C230 1.432 . S
