# Generated by pormake.
# Topology tsx, (6,3)-cn, num edge types: 1
# Building blocks:
#     Node 0, Type 0, BuildingBlock: JUFBIX_clean_sbu_0, # of connection points: 6
#     Node 1, Type 0, BuildingBlock: JUFBIX_clean_sbu_0, # of connection points: 6
#     Node 2, Type 1, BuildingBlock: MIDCAF_clean_linker_0, # of connection points: 3
#     Node 3, Type 1, BuildingBlock: MIDCAF_clean_linker_0, # of connection points: 3
#     Node 4, Type 1, BuildingBlock: MIDCAF_clean_linker_0, # of connection points: 3
#     Node 5, Type 1, BuildingBlock: MIDCAF_clean_linker_0, # of connection points: 3
#     Edge 6, Type (0, 1), BuildingBlock: XUDNAN_clean_linker_2, # of connection points: 2
#     Edge 7, Type (0, 1), BuildingBlock: XUDNAN_clean_linker_2, # of connection points: 2
#     Edge 8, Type (0, 1), BuildingBlock: XUDNAN_clean_linker_2, # of connection points: 2
#     Edge 9, Type (0, 1), BuildingBlock: XUDNAN_clean_linker_2, # of connection points: 2
#     Edge 10, Type (0, 1), BuildingBlock: XUDNAN_clean_linker_2, # of connection points: 2
#     Edge 11, Type (0, 1), BuildingBlock: XUDNAN_clean_linker_2, # of connection points: 2
#     Edge 12, Type (0, 1), BuildingBlock: XUDNAN_clean_linker_2, # of connection points: 2
#     Edge 13, Type (0, 1), BuildingBlock: XUDNAN_clean_linker_2, # of connection points: 2
#     Edge 14, Type (0, 1), BuildingBlock: XUDNAN_clean_linker_2, # of connection points: 2
#     Edge 15, Type (0, 1), BuildingBlock: XUDNAN_clean_linker_2, # of connection points: 2
#     Edge 16, Type (0, 1), BuildingBlock: XUDNAN_clean_linker_2, # of connection points: 2
#     Edge 17, Type (0, 1), BuildingBlock: XUDNAN_clean_linker_2, # of connection points: 2
# Relax obj value: 0.160
# Max RMSD: 0.167
# Mean RMSD: 0.135
data_MOF--net-tsx--node1-JUFBIX_clean_sbu_0--node2-MIDCAF_clean_linker_0--edge1-XUDNAN_clean_linker_2
_symmetry_space_group_name_H-M    P1
_symmetry_Int_Tables_number       1
_symmetry_cell_setting            triclinic
loop_
_symmetry_equiv_pos_as_xyz
'x, y, z'
_cell_length_a     23.937291
_cell_length_b     28.203172
_cell_length_c     43.488812
_cell_angle_alpha  92.200806
_cell_angle_beta   89.645333
_cell_angle_gamma 98.107448
loop_
_atom_site_label
_atom_site_type_symbol
_atom_site_fract_x
_atom_site_fract_y
_atom_site_fract_z
_atom_type_partial_charge
Co0 Co 0.02618 0.00341 0.00537 0.0
C1 C 0.97206 0.03118 0.95459 0.0
Co2 Co 0.95515 0.04304 0.01753 0.0
C3 C 0.09711 0.92868 0.00781 0.0
C4 C 0.12832 0.98237 0.97609 0.0
N5 N 0.08584 0.96992 0.99597 0.0
N6 N 0.14513 0.915 0.99621 0.0
C7 C 0.16481 0.9488 0.97622 0.0
H8 H 0.07093 0.90946 0.02495 0.0
H9 H 0.13246 0.01388 0.96238 0.0
C10 C 0.0096 0.01615 0.06831 0.0
N11 N 0.89562 0.07668 0.02693 0.0
C12 C 0.883 0.11553 0.01276 0.0
C13 C 0.8545 0.06707 0.04802 0.0
N14 N 0.83527 0.13048 0.02384 0.0
C15 C 0.81736 0.10006 0.04619 0.0
C16 C 0.92375 0.94475 0.01104 0.0
O17 O 0.03944 0.99789 0.048 0.0
O18 O 0.96969 0.03805 0.05995 0.0
O19 O 0.90535 0.98403 0.01776 0.0
O20 O 0.97571 0.94522 0.00471 0.0
O21 O 0.94131 0.04784 0.97506 0.0
H22 H 0.85109 0.03739 0.06328 0.0
H23 H 0.90848 0.13224 0.99445 0.0
O24 O 0.01243 0.00958 0.96275 0.0
O25 O 0.07605 0.06196 0.00599 0.0
O26 O 0.00557 0.10167 0.01703 0.0
C27 C 0.0577 0.1016 0.01128 0.0
H28 H 0.2024 0.94888 0.96225 0.0
H29 H 0.77919 0.10047 0.0596 0.0
Co30 Co 0.58107 0.49531 0.51982 0.0
C31 C 0.54165 0.50403 0.45963 0.0
Co32 Co 0.51305 0.54065 0.51545 0.0
C33 C 0.6331 0.40901 0.5089 0.0
C34 C 0.68516 0.46277 0.53584 0.0
N35 N 0.63509 0.45396 0.52123 0.0
N36 N 0.67996 0.38926 0.51528 0.0
C37 C 0.71277 0.42333 0.5322 0.0
H38 H 0.5974 0.39102 0.49589 0.0
H39 H 0.70057 0.49578 0.54845 0.0
C40 C 0.55268 0.53188 0.57571 0.0
N41 N 0.46137 0.58461 0.51566 0.0
C42 C 0.41086 0.58655 0.5021 0.0
C43 C 0.47235 0.62642 0.53215 0.0
N44 N 0.39104 0.62832 0.50946 0.0
C45 C 0.4297 0.653 0.52846 0.0
C46 C 0.47019 0.44699 0.52348 0.0
O47 O 0.58445 0.50406 0.56346 0.0
O48 O 0.51972 0.55093 0.55883 0.0
O49 O 0.45502 0.48823 0.52111 0.0
O50 O 0.52252 0.44297 0.52366 0.0
O51 O 0.50755 0.52988 0.47214 0.0
H52 H 0.50963 0.63729 0.54603 0.0
H53 H 0.3898 0.5586 0.48677 0.0
O54 O 0.57673 0.48658 0.4763 0.0
O55 O 0.63933 0.54893 0.51551 0.0
O56 O 0.5713 0.59195 0.50919 0.0
C57 C 0.62357 0.58896 0.51006 0.0
H58 H 0.75418 0.42045 0.54113 0.0
H59 H 0.42718 0.68796 0.53914 0.0
C60 C 0.81516 0.04434 0.4635 0.0
C61 C 0.83948 0.09096 0.47306 0.0
C62 C 0.89869 0.10094 0.4754 0.0
C63 C 0.93262 0.06634 0.46619 0.0
H64 H 0.97246 0.86743 0.48003 0.0
H65 H 0.02636 0.80528 0.49752 0.0
H66 H 0.16153 0.85582 0.43545 0.0
H67 H 0.10895 0.91749 0.41887 0.0
H68 H 0.03169 0.91264 0.34887 0.0
H69 H 0.04855 0.92313 0.29447 0.0
H70 H 0.9678 0.0509 0.29912 0.0
H71 H 0.94952 0.03983 0.35396 0.0
H72 H 0.82945 0.97535 0.44499 0.0
H73 H 0.76977 0.03502 0.46199 0.0
H74 H 0.91904 0.13643 0.48239 0.0
H75 H 0.97809 0.07592 0.46622 0.0
N76 N 0.97035 0.95814 0.45139 0.0
N77 N 0.00886 0.9377 0.40374 0.0
N78 N 0.94861 0.99598 0.40638 0.0
C79 C 0.00362 0.93159 0.43443 0.0
C80 C 0.98155 0.96947 0.38946 0.0
C81 C 0.94275 0.99041 0.43721 0.0
C82 C 0.03678 0.89755 0.44836 0.0
C83 C 0.01429 0.86582 0.47089 0.0
C84 C 0.04476 0.82988 0.4805 0.0
C85 C 0.09837 0.82573 0.46796 0.0
C86 C 0.12088 0.85836 0.44598 0.0
C87 C 0.09055 0.89364 0.43633 0.0
C88 C 0.98949 0.97558 0.35594 0.0
C89 C 0.01739 0.94306 0.33846 0.0
C90 C 0.02746 0.94923 0.30719 0.0
C91 C 0.01026 0.98822 0.29251 0.0
C92 C 0.98138 0.02036 0.30975 0.0
C93 C 0.97103 0.01407 0.34118 0.0
C94 C 0.90804 0.02116 0.45463 0.0
C95 C 0.84916 0.00992 0.45414 0.0
C96 C 0.90528 0.87856 0.56764 0.0
C97 C 0.89117 0.87945 0.53637 0.0
C98 C 0.90862 0.92153 0.52042 0.0
C99 C 0.93864 0.96192 0.53551 0.0
H100 H 0.07706 0.08131 0.52817 0.0
H101 H 0.14967 0.14122 0.50732 0.0
H102 H 0.1417 0.23064 0.58965 0.0
H103 H 0.069 0.17151 0.61032 0.0
H104 H 0.00413 0.12806 0.67003 0.0
H105 H 0.9916 0.13199 0.72585 0.0
H106 H 0.9534 0.97779 0.72588 0.0
H107 H 0.96538 0.97359 0.67011 0.0
H108 H 0.94351 0.91703 0.60703 0.0
H109 H 0.89163 0.84734 0.58094 0.0
H110 H 0.89839 0.92345 0.49635 0.0
H111 H 0.95045 0.99406 0.52276 0.0
N112 N 0.00747 0.04205 0.56973 0.0
N113 N 0.02277 0.08474 0.61709 0.0
N114 N 0.97045 0.00817 0.6153 0.0
C115 C 0.03058 0.08212 0.58612 0.0
C116 C 0.99285 0.04792 0.63183 0.0
C117 C 0.97714 0.00496 0.5843 0.0
C118 C 0.06782 0.12116 0.57116 0.0
C119 C 0.09 0.11414 0.54158 0.0
C120 C 0.1318 0.14835 0.52968 0.0
C121 C 0.15186 0.19041 0.54699 0.0
C122 C 0.12699 0.19879 0.57564 0.0
C123 C 0.08555 0.16457 0.5876 0.0
C124 C 0.98561 0.05053 0.66563 0.0
C125 C 0.99313 0.09499 0.68192 0.0
C126 C 0.9857 0.0973 0.71382 0.0
C127 C 0.97155 0.05519 0.73006 0.0
C128 C 0.96466 0.01074 0.71387 0.0
C129 C 0.97118 0.00844 0.68194 0.0
C130 C 0.95082 0.96129 0.56705 0.0
C131 C 0.93458 0.9189 0.58276 0.0
C132 C 0.40129 0.66424 0.96375 0.0
C133 C 0.36891 0.65367 0.99031 0.0
C134 C 0.37108 0.60949 0.00405 0.0
C135 C 0.40323 0.57604 0.99074 0.0
H136 H 0.55462 0.47558 0.99902 0.0
H137 H 0.61268 0.41469 0.01395 0.0
H138 H 0.55814 0.32916 0.93238 0.0
H139 H 0.50122 0.38931 0.91747 0.0
H140 H 0.56143 0.47766 0.85915 0.0
H141 H 0.57726 0.49027 0.80445 0.0
H142 H 0.4515 0.58635 0.80586 0.0
H143 H 0.43755 0.57534 0.86059 0.0
H144 H 0.45602 0.64023 0.92957 0.0
H145 H 0.40017 0.69738 0.95215 0.0
H146 H 0.34699 0.60036 0.02468 0.0
H147 H 0.40243 0.54167 0.00108 0.0
N148 N 0.47861 0.51161 0.96005 0.0
N149 N 0.50835 0.48299 0.91194 0.0
N150 N 0.46699 0.55305 0.91511 0.0
C151 C 0.50236 0.4782 0.94283 0.0
C152 C 0.49081 0.52025 0.89791 0.0
C153 C 0.46064 0.54924 0.94603 0.0
C154 C 0.52455 0.43761 0.95673 0.0
C155 C 0.55382 0.44303 0.98488 0.0
C156 C 0.58699 0.40829 0.9934 0.0
C157 C 0.59083 0.3679 0.97387 0.0
C158 C 0.55684 0.36045 0.94749 0.0
C159 C 0.52422 0.3949 0.93899 0.0
C160 C 0.49854 0.52579 0.86433 0.0
C161 C 0.5371 0.50141 0.84774 0.0
C162 C 0.546 0.50848 0.8163 0.0
C163 C 0.51609 0.5397 0.80067 0.0
C164 C 0.47646 0.56303 0.8172 0.0
C165 C 0.46812 0.55645 0.84864 0.0
C166 C 0.43328 0.58606 0.96333 0.0
C167 C 0.433 0.63104 0.95054 0.0
C168 C 0.38495 0.35796 0.06678 0.0
C169 C 0.36274 0.36754 0.03824 0.0
C170 C 0.38324 0.4107 0.02425 0.0
C171 C 0.42347 0.44452 0.03925 0.0
H172 H 0.56079 0.56 0.02924 0.0
H173 H 0.62322 0.62506 0.00604 0.0
H174 H 0.65256 0.69557 0.09555 0.0
H175 H 0.59031 0.63112 0.11877 0.0
H176 H 0.54867 0.57621 0.1794 0.0
H177 H 0.55506 0.56753 0.23498 0.0
H178 H 0.48618 0.41802 0.22384 0.0
H179 H 0.47958 0.42634 0.16854 0.0
H180 H 0.43888 0.38391 0.1044 0.0
H181 H 0.36968 0.3252 0.07825 0.0
H182 H 0.36713 0.41876 0.00211 0.0
H183 H 0.43747 0.47799 0.02835 0.0
N184 N 0.50683 0.51308 0.0734 0.0
N185 N 0.53933 0.545 0.1218 0.0
N186 N 0.48113 0.47111 0.11801 0.0
C187 C 0.5376 0.54861 0.09071 0.0
C188 C 0.51122 0.50632 0.13561 0.0
C189 C 0.47847 0.47418 0.08698 0.0
C190 C 0.57098 0.58998 0.07596 0.0
C191 C 0.58005 0.58961 0.04395 0.0
C192 C 0.61596 0.62676 0.03064 0.0
C193 C 0.64295 0.66528 0.049 0.0
C194 C 0.632 0.66661 0.08075 0.0
C195 C 0.59659 0.62937 0.09409 0.0
C196 C 0.51389 0.50192 0.16943 0.0
C197 C 0.53476 0.5415 0.1888 0.0
C198 C 0.53807 0.53668 0.22063 0.0
C199 C 0.52132 0.49207 0.23365 0.0
C200 C 0.49989 0.45272 0.21437 0.0
C201 C 0.49593 0.45761 0.18268 0.0
C202 C 0.44282 0.43613 0.06875 0.0
C203 C 0.42431 0.39189 0.0819 0.0
H204 H 0.17234 0.11441 0.01792 0.0
H205 H 0.03075 0.19135 0.003 0.0
H206 H 0.09615 0.26743 0.0017 0.0
H207 H 0.24378 0.20059 0.06967 0.0
H208 H 0.31343 0.19219 0.05658 0.0
H209 H 0.25623 0.14361 0.05281 0.0
H210 H 0.27586 0.13617 0.99425 0.0
H211 H 0.33295 0.18508 0.99783 0.0
H212 H 0.27641 0.18787 0.97107 0.0
H213 H 0.1765 0.33541 0.00444 0.0
H214 H 0.26354 0.39087 0.01691 0.0
H215 H 0.3519 0.26964 0.03175 0.0
C216 C 0.1552 0.1472 0.01395 0.0
C217 C 0.09659 0.14706 0.01033 0.0
C218 C 0.07557 0.19075 0.00582 0.0
C219 C 0.11241 0.23403 0.00481 0.0
C220 C 0.17003 0.23296 0.00852 0.0
C221 C 0.19122 0.19072 0.01332 0.0
C222 C 0.25407 0.19976 0.01948 0.0
C223 C 0.26764 0.18307 0.05154 0.0
C224 C 0.28674 0.1758 0.99414 0.0
C225 C 0.26478 0.25381 0.01803 0.0
C226 C 0.21603 0.27222 0.01104 0.0
C227 C 0.21504 0.32139 0.00965 0.0
C228 C 0.26474 0.35261 0.01655 0.0
C229 C 0.31439 0.33448 0.02514 0.0
C230 C 0.31455 0.28442 0.02513 0.0
H231 H 0.25608 0.9044 0.99325 0.0
H232 H 0.09014 0.82932 0.01395 0.0
H233 H 0.13186 0.75533 0.02174 0.0
H234 H 0.30292 0.81235 0.9494 0.0
H235 H 0.37485 0.82379 0.96279 0.0
H236 H 0.3328 0.8718 0.96273 0.0
H237 H 0.35225 0.88886 0.02098 0.0
H238 H 0.39435 0.84067 0.02122 0.0
H239 H 0.33578 0.84117 0.04742 0.0
H240 H 0.19059 0.68723 0.02115 0.0
H241 H 0.26022 0.63154 0.01151 0.0
H242 H 0.3882 0.75215 0.99309 0.0
C243 C 0.22853 0.87255 -0.0003 0.0
C244 C 0.16978 0.87273 0.00298 0.0
C245 C 0.13532 0.83028 0.01168 0.0
C246 C 0.15866 0.78804 0.01611 0.0
C247 C 0.21668 0.78897 0.01218 0.0
C248 C 0.25117 0.8303 0.00439 0.0
C249 C 0.31153 0.82132 -0.00041 0.0
C250 C 0.33167 0.83299 0.96668 0.0
C251 C 0.35079 0.84969 0.02375 0.0
C252 C 0.30529 0.76804 0.00465 0.0
C253 C 0.25048 0.75004 0.01229 0.0
C254 C 0.23386 0.7011 0.01575 0.0
C255 C 0.27389 0.66971 0.01043 0.0
C256 C 0.32986 0.68733 0.00157 0.0
C257 C 0.34579 0.73738 -0.00031 0.0
H258 H 0.81971 0.92589 0.03827 0.0
H259 H 0.9418 0.85972 0.98333 0.0
H260 H 0.87905 0.78233 0.98345 0.0
H261 H 0.78325 0.82806 0.08645 0.0
H262 H 0.70977 0.83525 0.08956 0.0
H263 H 0.76183 0.88636 0.08279 0.0
H264 H 0.70778 0.90382 0.03397 0.0
H265 H 0.65555 0.85263 0.04056 0.0
H266 H 0.69228 0.85754 0.00427 0.0
H267 H 0.80483 0.71164 0.99099 0.0
H268 H 0.72775 0.65125 0.00878 0.0
H269 H 0.65517 0.76277 0.06001 0.0
C270 C 0.83285 0.89525 0.02591 0.0
C271 C 0.88538 0.89885 0.01057 0.0
C272 C 0.90165 0.85776 0.99518 0.0
C273 C 0.8662 0.81372 0.99499 0.0
C274 C 0.8148 0.8113 0.01045 0.0
C275 C 0.7983 0.85086 0.02582 0.0
C276 C 0.74279 0.83783 0.04244 0.0
C277 C 0.74987 0.84743 0.07738 0.0
C278 C 0.69689 0.86455 0.02953 0.0
C279 C 0.73106 0.78466 0.03436 0.0
C280 C 0.77268 0.77022 0.01551 0.0
C281 C 0.77176 0.72255 0.00558 0.0
C282 C 0.72765 0.68856 0.01564 0.0
C283 C 0.68542 0.70235 0.03568 0.0
C284 C 0.68694 0.75118 0.04475 0.0
H285 H 0.75772 0.17818 0.054 0.0
H286 H 0.84796 0.16908 0.96741 0.0
H287 H 0.7994 0.23234 0.94737 0.0
H288 H 0.62606 0.19363 0.02074 0.0
H289 H 0.60784 0.23511 0.05045 0.0
H290 H 0.65259 0.19122 0.05928 0.0
H291 H 0.72923 0.25879 0.07996 0.0
H292 H 0.68471 0.30294 0.07114 0.0
H293 H 0.75515 0.30739 0.05559 0.0
H294 H 0.73872 0.29286 0.93526 0.0
H295 H 0.66772 0.34759 0.93148 0.0
H296 H 0.61398 0.31847 0.02518 0.0
C297 C 0.76742 0.18947 0.03086 0.0
C298 C 0.8074 0.16861 0.0125 0.0
C299 C 0.81871 0.18484 0.98233 0.0
C300 C 0.79101 0.22072 0.97059 0.0
C301 C 0.75193 0.24025 0.9892 0.0
C302 C 0.73997 0.22535 0.01867 0.0
C303 C 0.69439 0.2513 0.03329 0.0
C304 C 0.64213 0.21568 0.04141 0.0
C305 C 0.71726 0.28193 0.06168 0.0
C306 C 0.6821 0.2825 0.00717 0.0
C307 C 0.71618 0.27554 0.98208 0.0
C308 C 0.71193 0.29879 0.95476 0.0
C309 C 0.67133 0.32961 0.9528 0.0
C310 C 0.63525 0.33698 0.97796 0.0
C311 C 0.64131 0.31367 0.00571 0.0
H312 H 0.73302 0.61189 0.53105 0.0
H313 H 0.60459 0.66442 0.47693 0.0
H314 H 0.6666 0.74089 0.47118 0.0
H315 H 0.77134 0.71709 0.57344 0.0
H316 H 0.84585 0.7135 0.57515 0.0
H317 H 0.79619 0.65962 0.57054 0.0
H318 H 0.84786 0.63582 0.52098 0.0
H319 H 0.89788 0.68976 0.52548 0.0
H320 H 0.85877 0.67706 0.49013 0.0
H321 H 0.73545 0.81462 0.47681 0.0
H322 H 0.80548 0.88185 0.49515 0.0
H323 H 0.89179 0.78305 0.545 0.0
C324 C 0.71883 0.63904 0.51726 0.0
C325 C 0.66422 0.63218 0.50428 0.0
C326 C 0.64633 0.66895 0.48707 0.0
C327 C 0.68138 0.71243 0.48348 0.0
C328 C 0.73438 0.71873 0.49718 0.0
C329 C 0.75328 0.68311 0.51368 0.0
C330 C 0.8095 0.70126 0.52887 0.0
C331 C 0.80543 0.69766 0.56408 0.0
C332 C 0.85628 0.67437 0.51556 0.0
C333 C 0.81775 0.75303 0.51945 0.0
C334 C 0.77449 0.76201 0.50065 0.0
C335 C 0.77029 0.8079 0.49098 0.0
C336 C 0.81059 0.84593 0.50142 0.0
C337 C 0.85444 0.83796 0.52151 0.0
C338 C 0.85873 0.79051 0.5298 0.0
H339 H 0.75868 0.34047 0.54035 0.0
H340 H 0.63083 0.32989 0.46895 0.0
H341 H 0.65373 0.25025 0.45279 0.0
H342 H 0.86008 0.28783 0.49539 0.0
H343 H 0.88523 0.25696 0.5269 0.0
H344 H 0.85623 0.31182 0.53425 0.0
H345 H 0.7841 0.2687 0.57221 0.0
H346 H 0.81282 0.21362 0.56493 0.0
H347 H 0.73858 0.21529 0.55932 0.0
H348 H 0.6934 0.17312 0.44277 0.0
H349 H 0.74825 0.10558 0.43872 0.0
H350 H 0.85108 0.16636 0.51635 0.0
C351 C 0.7354 0.32176 0.52125 0.0
C352 C 0.69262 0.34199 0.50608 0.0
C353 C 0.66312 0.31538 0.48138 0.0
C354 C 0.67601 0.27 0.4719 0.0
C355 C 0.71856 0.25148 0.48727 0.0
C356 C 0.74787 0.27655 0.51139 0.0
C357 C 0.7931 0.24935 0.52334 0.0
C358 C 0.85215 0.27821 0.51974 0.0
C359 C 0.78143 0.23594 0.55695 0.0
C360 C 0.78517 0.2053 0.50187 0.0
C361 C 0.74163 0.20709 0.48142 0.0
C362 C 0.7272 0.17112 0.45888 0.0
C363 C 0.75843 0.1326 0.45695 0.0
C364 C 0.80382 0.13012 0.4774 0.0
C365 C 0.81682 0.16702 0.50031 0.0
H366 H 0.35678 0.43955 0.53764 0.0
H367 H 0.48871 0.3555 0.51022 0.0
H368 H 0.41963 0.28203 0.50936 0.0
H369 H 0.28715 0.35381 0.58882 0.0
H370 H 0.21706 0.36528 0.57968 0.0
H371 H 0.27611 0.41198 0.5763 0.0
H372 H 0.24962 0.42178 0.51944 0.0
H373 H 0.19066 0.37484 0.5226 0.0
H374 H 0.243 0.37044 0.49304 0.0
H375 H 0.33764 0.21763 0.51195 0.0
H376 H 0.24913 0.16491 0.52273 0.0
H377 H 0.16971 0.28932 0.54983 0.0
C378 C 0.37096 0.40569 0.53132 0.0
C379 C 0.42811 0.40329 0.52393 0.0
C380 C 0.44521 0.35824 0.5161 0.0
C381 C 0.40622 0.31629 0.51533 0.0
C382 C 0.35027 0.31982 0.52265 0.0
C383 C 0.33262 0.36319 0.53083 0.0
C384 C 0.27056 0.35635 0.5394 0.0
C385 C 0.26226 0.37282 0.57305 0.0
C386 C 0.23646 0.3824 0.51729 0.0
C387 C 0.25642 0.30238 0.53501 0.0
C388 C 0.30288 0.28221 0.5249 0.0
C389 C 0.30081 0.23297 0.51971 0.0
C390 C 0.25018 0.20333 0.52566 0.0
C391 C 0.20238 0.22296 0.53694 0.0
C392 C 0.20554 0.27327 0.54124 0.0
H393 H 0.38173 0.71951 0.49724 0.0
H394 H 0.28643 0.57733 0.49982 0.0
H395 H 0.19807 0.6117 0.4902 0.0
H396 H 0.28407 0.77976 0.5381 0.0
H397 H 0.29718 0.83304 0.51607 0.0
H398 H 0.35207 0.79632 0.52051 0.0
H399 H 0.36208 0.78726 0.46123 0.0
H400 H 0.30786 0.82462 0.4566 0.0
H401 H 0.30064 0.76567 0.43826 0.0
H402 H 0.11917 0.66513 0.48312 0.0
H403 H 0.06061 0.72956 0.47488 0.0
H404 H 0.21097 0.83506 0.48011 0.0
C405 C 0.34233 0.69545 0.4956 0.0
C406 C 0.34071 0.64583 0.49944 0.0
C407 C 0.28849 0.61542 0.49667 0.0
C408 C 0.23822 0.63475 0.4915 0.0
C409 C 0.2413 0.68438 0.48906 0.0
C410 C 0.2924 0.71404 0.4907 0.0
C411 C 0.28544 0.7661 0.48809 0.0
C412 C 0.30589 0.79551 0.51744 0.0
C413 C 0.31579 0.78713 0.45933 0.0
C414 C 0.22222 0.76157 0.48482 0.0
C415 C 0.19708 0.71436 0.48541 0.0
C416 C 0.13867 0.70212 0.48258 0.0
C417 C 0.10566 0.73896 0.47821 0.0
C418 C 0.13126 0.78732 0.4767 0.0
C419 C 0.19014 0.79843 0.48076 0.0
H420 H 0.9411 0.03198 0.11726 0.0
H421 H 0.10465 0.99082 0.09379 0.0
H422 H 0.12455 0.98381 0.14894 0.0
H423 H 0.98369 0.10096 0.18753 0.0
H424 H 0.9192 0.08035 0.20756 0.0
H425 H 0.91888 0.08471 0.16633 0.0
H426 H 0.87558 0.9953 0.16036 0.0
H427 H 0.87552 0.99071 0.20153 0.0
H428 H 0.91068 0.95043 0.17761 0.0
H429 H 0.12627 0.98028 0.20622 0.0
H430 H 0.10766 0.97566 0.2619 0.0
H431 H 0.94119 0.01563 0.24804 0.0
C432 C 0.98131 0.0219 0.12375 0.0
C433 C 0.0215 0.0122 0.10129 0.0
C434 C 0.07327 0.99842 0.11063 0.0
C435 C 0.08505 0.99454 0.14188 0.0
C436 C 0.0445 0.0043 0.16343 0.0
C437 C 0.99353 0.01737 0.15481 0.0
C438 C 0.95612 0.02353 0.18248 0.0
C439 C 0.94376 0.07549 0.18619 0.0
C440 C 0.90124 0.98786 0.18036 0.0
C441 C 0.99391 0.01154 0.208 0.0
C442 C 0.04488 1.00102 0.1965 0.0
C443 C 0.08645 0.98827 0.2155 0.0
C444 C 0.0753 0.98545 0.24707 0.0
C445 C 0.02277 0.99486 0.25934 0.0
C446 C 0.98194 0.00869 0.23946 0.0
H447 H 0.01877 0.99011 0.90413 0.0
H448 H 0.90358 0.09037 0.93097 0.0
H449 H 0.89034 0.10682 0.87642 0.0
H450 H 0.08542 0.0561 0.84252 0.0
H451 H 0.09084 0.00404 0.81791 0.0
H452 H 0.0905 0.99923 0.85908 0.0
H453 H 0.00546 0.9314 0.8549 0.0
H454 H 0.00565 0.93587 0.81369 0.0
H455 H 0.94237 0.94177 0.83533 0.0
H456 H 0.89318 0.11552 0.81933 0.0
H457 H 0.9074 0.11183 0.76294 0.0
H458 H 0.01794 0.0041 0.77306 0.0
C459 C 0.99054 0.01532 0.89851 0.0
C460 C 0.96225 0.03897 0.92179 0.0
C461 C 0.92555 0.07166 0.91351 0.0
C462 C 0.91783 0.08136 0.8826 0.0
C463 C 0.9467 0.05776 0.86024 0.0
C464 C 0.98188 0.02508 0.86774 0.0
C465 C 0.00776 0.00456 0.83923 0.0
C466 C 0.07246 0.01673 0.83973 0.0
C467 C 0.98918 0.95018 0.83558 0.0
C468 C 0.98205 0.03118 0.81458 0.0
C469 C 0.94718 0.06188 0.82721 0.0
C470 C 0.92005 0.09138 0.80912 0.0
C471 C 0.92856 0.08925 0.77721 0.0
C472 C 0.96351 0.05758 0.76379 0.0
C473 C 0.99045 0.02818 0.78277 0.0
H474 H 0.56557 0.4718 0.62266 0.0
H475 H 0.53989 0.61702 0.6037 0.0
H476 H 0.53473 0.63611 0.65941 0.0
H477 H 0.46596 0.45785 0.68323 0.0
H478 H 0.50517 0.42225 0.70628 0.0
H479 H 0.51368 0.42124 0.66512 0.0
H480 H 0.62151 0.44602 0.67155 0.0
H481 H 0.61333 0.44702 0.71279 0.0
H482 H 0.64752 0.49938 0.69418 0.0
H483 H 0.52912 0.63901 0.71647 0.0
H484 H 0.51754 0.62457 0.7717 0.0
H485 H 0.53872 0.47539 0.75412 0.0
C486 C 0.56006 0.50781 0.63039 0.0
C487 C 0.5538 0.5432 0.60906 0.0
C488 C 0.545 0.58957 0.61979 0.0
C489 C 0.54223 0.60077 0.65134 0.0
C490 C 0.54763 0.565 0.67185 0.0
C491 C 0.55595 0.51935 0.66191 0.0
C492 C 0.55552 0.48659 0.6888 0.0
C493 C 0.5072 0.44451 0.68566 0.0
C494 C 0.61289 0.46871 0.69202 0.0
C495 C 0.54514 0.52089 0.71527 0.0
C496 C 0.54155 0.56605 0.70494 0.0
C497 C 0.53159 0.60374 0.72487 0.0
C498 C 0.5245 0.59499 0.75622 0.0
C499 C 0.52645 0.54867 0.76742 0.0
C500 C 0.53749 0.51133 0.74651 0.0
H501 H 0.49851 0.55401 0.41428 0.0
H502 H 0.58438 0.43111 0.42917 0.0
H503 H 0.58661 0.41419 0.3732 0.0
H504 H 0.41314 0.50247 0.34928 0.0
H505 H 0.42036 0.55768 0.32913 0.0
H506 H 0.42313 0.55916 0.37055 0.0
H507 H 0.52044 0.61254 0.36918 0.0
H508 H 0.51807 0.6111 0.32777 0.0
H509 H 0.57711 0.59223 0.34711 0.0
H510 H 0.58015 0.41035 0.31608 0.0
H511 H 0.56829 0.42161 0.26061 0.0
H512 H 0.4897 0.54851 0.28194 0.0
C513 C 0.5173 0.52333 0.40573 0.0
C514 C 0.54109 0.49376 0.42606 0.0
C515 C 0.56601 0.45431 0.41401 0.0
C516 C 0.56737 0.4443 0.38226 0.0
C517 C 0.54404 0.4743 0.36282 0.0
C518 C 0.5197 0.51314 0.37398 0.0
C519 C 0.49953 0.54058 0.34787 0.0
C520 C 0.43522 0.53991 0.3493 0.0
C521 C 0.53066 0.59217 0.348 0.0
C522 C 0.51645 0.51108 0.32037 0.0
C523 C 0.54164 0.47281 0.32959 0.0
C524 C 0.56046 0.44015 0.30853 0.0
C525 C 0.55337 0.44672 0.27711 0.0
C526 C 0.52806 0.48585 0.26705 0.0
C527 C 0.50957 0.5185 0.28902 0.0
loop_
_geom_bond_atom_site_label_1
_geom_bond_atom_site_label_2
_geom_bond_distance
_geom_bond_site_symmetry_2
_ccdc_geom_bond_type
Co0 N5 2.057 . S
Co0 O17 2.021 . S
Co0 O20 2.062 1_455 S
Co0 O24 2.117 1_554 S
Co0 O25 2.020 1_565 S
C1 O21 1.259 1_455 S
C1 O24 1.258 1_545 S
Co2 N11 2.057 . S
Co2 O18 2.117 . S
Co2 O19 2.020 1_545 S
Co2 O21 2.021 1_554 S
Co2 O26 2.062 1_655 S
C3 N5 1.316 . S
C3 N6 1.347 . S
C3 H8 0.931 . S
C4 N5 1.375 1_556 S
C4 C7 1.350 . S
C4 H9 0.930 . S
N5 Co0 2.057 . S
N5 C3 1.316 . S
N5 C4 1.375 1_554 S
N6 C3 1.347 . S
N6 C7 1.373 1_554 S
C7 C4 1.350 . S
C7 N6 1.373 1_556 S
C7 H28 0.931 . S
H8 C3 0.931 . S
H9 C4 0.930 . S
C10 O17 1.259 1_545 S
C10 O18 1.258 1_455 S
N11 Co2 2.057 . S
N11 C12 1.316 . S
N11 C13 1.375 . S
C12 N11 1.316 . S
C12 N14 1.347 . S
C12 H23 0.931 1_554 S
C13 N11 1.375 . S
C13 C15 1.350 . S
C13 H22 0.930 . S
N14 C12 1.347 . S
N14 C15 1.373 . S
C15 C13 1.350 . S
C15 N14 1.373 . S
C15 H29 0.931 . S
C16 O19 1.256 . S
C16 O20 1.255 . S
O17 Co0 2.021 . S
O17 C10 1.259 1_565 S
O18 Co2 2.117 . S
O18 C10 1.258 1_655 S
O19 Co2 2.020 1_565 S
O19 C16 1.256 . S
O20 Co0 2.062 1_655 S
O20 C16 1.255 . S
O21 C1 1.259 1_655 S
O21 Co2 2.021 1_556 S
H22 C13 0.930 . S
H23 C12 0.931 1_556 S
O24 Co0 2.117 1_556 S
O24 C1 1.258 1_565 S
O25 Co0 2.020 1_545 S
O25 C27 1.256 . S
O26 Co2 2.062 1_455 S
O26 C27 1.255 . S
C27 O25 1.256 . S
C27 O26 1.255 . S
H28 C7 0.931 . S
H29 C15 0.931 . S
Co30 N35 2.057 . S
Co30 O47 2.021 . S
Co30 O50 2.062 . S
Co30 O54 2.117 . S
Co30 O55 2.020 . S
C31 O51 1.259 . S
C31 O54 1.258 . S
Co32 N41 2.057 . S
Co32 O48 2.117 . S
Co32 O49 2.020 . S
Co32 O51 2.021 . S
Co32 O56 2.062 . S
C33 N35 1.316 . S
C33 N36 1.347 . S
C33 H38 0.931 . S
C34 N35 1.375 . S
C34 C37 1.350 . S
C34 H39 0.930 . S
N35 Co30 2.057 . S
N35 C33 1.316 . S
N35 C34 1.375 . S
N36 C33 1.347 . S
N36 C37 1.373 . S
C37 C34 1.350 . S
C37 N36 1.373 . S
C37 H58 0.931 . S
H38 C33 0.931 . S
H39 C34 0.930 . S
C40 O47 1.259 . S
C40 O48 1.258 . S
N41 Co32 2.057 . S
N41 C42 1.316 . S
N41 C43 1.375 . S
C42 N41 1.316 . S
C42 N44 1.347 . S
C42 H53 0.931 . S
C43 N41 1.375 . S
C43 C45 1.350 . S
C43 H52 0.930 . S
N44 C42 1.347 . S
N44 C45 1.373 . S
C45 C43 1.350 . S
C45 N44 1.373 . S
C45 H59 0.931 . S
C46 O49 1.256 . S
C46 O50 1.255 . S
O47 Co30 2.021 . S
O47 C40 1.259 . S
O48 Co32 2.117 . S
O48 C40 1.258 . S
O49 Co32 2.020 . S
O49 C46 1.256 . S
O50 Co30 2.062 . S
O50 C46 1.255 . S
O51 C31 1.259 . S
O51 Co32 2.021 . S
H52 C43 0.930 . S
H53 C42 0.931 . S
O54 Co30 2.117 . S
O54 C31 1.258 . S
O55 Co30 2.020 . S
O55 C57 1.256 . S
O56 Co32 2.062 . S
O56 C57 1.255 . S
C57 O55 1.256 . S
C57 O56 1.255 . S
H58 C37 0.931 . S
H59 C45 0.931 . S
C60 C61 1.384 . S
C60 H73 0.947 . S
C60 C95 1.382 . S
C61 C60 1.384 . S
C61 C62 1.378 . S
C62 C61 1.378 . S
C62 C63 1.378 . S
C62 H74 0.952 . S
C63 C62 1.378 . S
C63 H75 0.950 . S
C63 C94 1.383 . S
H64 C83 0.947 . S
H65 C84 0.946 . S
H66 C86 0.953 . S
H67 C87 0.945 . S
H68 C89 0.952 . S
H69 C90 0.949 . S
H70 C92 0.950 . S
H71 C93 0.948 . S
H72 C95 0.951 . S
H73 C60 0.947 . S
H74 C62 0.952 . S
H75 C63 0.950 . S
N76 C79 1.382 1_545 S
N76 C81 1.363 1_455 S
N77 C79 1.371 . S
N77 C80 1.372 1_565 S
N78 C80 1.361 1_655 S
N78 C81 1.377 . S
C79 N76 1.382 1_565 S
C79 N77 1.371 . S
C79 C82 1.480 . S
C80 N77 1.372 1_545 S
C80 N78 1.361 1_455 S
C80 C88 1.457 . S
C81 N76 1.363 1_655 S
C81 N78 1.377 . S
C81 C94 1.479 . S
C82 C79 1.480 . S
C82 C83 1.383 . S
C82 C87 1.385 . S
C83 H64 0.947 . S
C83 C82 1.383 . S
C83 C84 1.388 . S
C84 H65 0.946 . S
C84 C83 1.388 . S
C84 C85 1.384 . S
C85 C84 1.384 . S
C85 C86 1.377 . S
C86 H66 0.953 . S
C86 C85 1.377 . S
C86 C87 1.369 . S
C87 H67 0.945 . S
C87 C82 1.385 . S
C87 C86 1.369 . S
C88 C80 1.457 . S
C88 C89 1.372 1_545 S
C88 C93 1.364 1_455 S
C89 H68 0.952 . S
C89 C88 1.372 1_565 S
C89 C90 1.389 . S
C90 H69 0.949 . S
C90 C89 1.389 . S
C90 C91 1.387 1_565 S
C91 C90 1.387 1_545 S
C91 C92 1.372 1_455 S
C92 H70 0.950 . S
C92 C91 1.372 1_655 S
C92 C93 1.379 . S
C93 H71 0.948 . S
C93 C88 1.364 1_655 S
C93 C92 1.379 . S
C94 C63 1.383 . S
C94 C81 1.479 . S
C94 C95 1.398 . S
C95 C60 1.382 . S
C95 H72 0.951 . S
C95 C94 1.398 . S
C96 C97 1.384 . S
C96 H109 0.947 . S
C96 C131 1.382 . S
C97 C96 1.384 . S
C97 C98 1.378 . S
C98 C97 1.378 . S
C98 C99 1.378 . S
C98 H110 0.952 . S
C99 C98 1.378 . S
C99 H111 0.950 . S
C99 C130 1.383 . S
H100 C119 0.947 . S
H101 C120 0.946 . S
H102 C122 0.953 . S
H103 C123 0.945 . S
H104 C125 0.952 . S
H105 C126 0.949 . S
H106 C128 0.950 . S
H107 C129 0.948 . S
H108 C131 0.951 . S
H109 C96 0.947 . S
H110 C98 0.952 . S
H111 C99 0.950 . S
N112 C115 1.382 . S
N112 C117 1.363 1_445 S
N113 C115 1.371 . S
N113 C116 1.372 . S
N114 C116 1.361 1_665 S
N114 C117 1.377 . S
C115 N112 1.382 . S
C115 N113 1.371 . S
C115 C118 1.480 . S
C116 N113 1.372 . S
C116 N114 1.361 1_445 S
C116 C124 1.457 . S
C117 N112 1.363 1_665 S
C117 N114 1.377 . S
C117 C130 1.479 . S
C118 C115 1.480 . S
C118 C119 1.383 . S
C118 C123 1.385 . S
C119 H100 0.947 . S
C119 C118 1.383 . S
C119 C120 1.388 . S
C120 H101 0.946 . S
C120 C119 1.388 . S
C120 C121 1.384 . S
C121 C120 1.384 . S
C121 C122 1.377 . S
C122 H102 0.953 . S
C122 C121 1.377 . S
C122 C123 1.369 . S
C123 H103 0.945 . S
C123 C118 1.385 . S
C123 C122 1.369 . S
C124 C116 1.457 . S
C124 C125 1.372 . S
C124 C129 1.364 1_445 S
C125 H104 0.952 . S
C125 C124 1.372 . S
C125 C126 1.389 . S
C126 H105 0.949 . S
C126 C125 1.389 . S
C126 C127 1.387 . S
C127 C126 1.387 . S
C127 C128 1.372 1_445 S
C128 H106 0.950 . S
C128 C127 1.372 1_665 S
C128 C129 1.379 . S
C129 H107 0.948 . S
C129 C124 1.364 1_665 S
C129 C128 1.379 . S
C130 C99 1.383 . S
C130 C117 1.479 . S
C130 C131 1.398 . S
C131 C96 1.382 . S
C131 H108 0.951 . S
C131 C130 1.398 . S
C132 C133 1.384 . S
C132 H145 0.947 . S
C132 C167 1.382 . S
C133 C132 1.384 . S
C133 C134 1.378 1_556 S
C134 C133 1.378 1_554 S
C134 C135 1.378 1_554 S
C134 H146 0.952 . S
C135 C134 1.378 1_556 S
C135 H147 0.950 1_556 S
C135 C166 1.383 . S
H136 C155 0.947 . S
H137 C156 0.946 . S
H138 C158 0.953 . S
H139 C159 0.945 . S
H140 C161 0.952 . S
H141 C162 0.949 . S
H142 C164 0.950 . S
H143 C165 0.948 . S
H144 C167 0.951 . S
H145 C132 0.947 . S
H146 C134 0.952 . S
H147 C135 0.950 1_554 S
N148 C151 1.382 . S
N148 C153 1.363 . S
N149 C151 1.371 . S
N149 C152 1.372 . S
N150 C152 1.361 . S
N150 C153 1.377 . S
C151 N148 1.382 . S
C151 N149 1.371 . S
C151 C154 1.480 . S
C152 N149 1.372 . S
C152 N150 1.361 . S
C152 C160 1.457 . S
C153 N148 1.363 . S
C153 N150 1.377 . S
C153 C166 1.479 . S
C154 C151 1.480 . S
C154 C155 1.383 . S
C154 C159 1.385 . S
C155 H136 0.947 . S
C155 C154 1.383 . S
C155 C156 1.388 1_556 S
C156 H137 0.946 . S
C156 C155 1.388 1_554 S
C156 C157 1.384 1_554 S
C157 C156 1.384 1_556 S
C157 C158 1.377 . S
C158 H138 0.953 . S
C158 C157 1.377 . S
C158 C159 1.369 . S
C159 H139 0.945 . S
C159 C154 1.385 . S
C159 C158 1.369 . S
C160 C152 1.457 . S
C160 C161 1.372 . S
C160 C165 1.364 . S
C161 H140 0.952 . S
C161 C160 1.372 . S
C161 C162 1.389 . S
C162 H141 0.949 . S
C162 C161 1.389 . S
C162 C163 1.387 . S
C163 C162 1.387 . S
C163 C164 1.372 . S
C164 H142 0.950 . S
C164 C163 1.372 . S
C164 C165 1.379 . S
C165 H143 0.948 . S
C165 C160 1.364 . S
C165 C164 1.379 . S
C166 C135 1.383 . S
C166 C153 1.479 . S
C166 C167 1.398 . S
C167 C132 1.382 . S
C167 H144 0.951 . S
C167 C166 1.398 . S
C168 C169 1.384 . S
C168 H181 0.947 . S
C168 C203 1.382 . S
C169 C168 1.384 . S
C169 C170 1.378 . S
C170 C169 1.378 . S
C170 C171 1.378 . S
C170 H182 0.952 1_554 S
C171 C170 1.378 . S
C171 H183 0.950 . S
C171 C202 1.383 . S
H172 C191 0.947 . S
H173 C192 0.946 . S
H174 C194 0.953 . S
H175 C195 0.945 . S
H176 C197 0.952 . S
H177 C198 0.949 . S
H178 C200 0.950 . S
H179 C201 0.948 . S
H180 C203 0.951 . S
H181 C168 0.947 . S
H182 C170 0.952 1_556 S
H183 C171 0.950 . S
N184 C187 1.382 . S
N184 C189 1.363 . S
N185 C187 1.371 . S
N185 C188 1.372 . S
N186 C188 1.361 . S
N186 C189 1.377 . S
C187 N184 1.382 . S
C187 N185 1.371 . S
C187 C190 1.480 . S
C188 N185 1.372 . S
C188 N186 1.361 . S
C188 C196 1.457 . S
C189 N184 1.363 . S
C189 N186 1.377 . S
C189 C202 1.479 . S
C190 C187 1.480 . S
C190 C191 1.383 . S
C190 C195 1.385 . S
C191 H172 0.947 . S
C191 C190 1.383 . S
C191 C192 1.388 . S
C192 H173 0.946 . S
C192 C191 1.388 . S
C192 C193 1.384 . S
C193 C192 1.384 . S
C193 C194 1.377 . S
C194 H174 0.953 . S
C194 C193 1.377 . S
C194 C195 1.369 . S
C195 H175 0.945 . S
C195 C190 1.385 . S
C195 C194 1.369 . S
C196 C188 1.457 . S
C196 C197 1.372 . S
C196 C201 1.364 . S
C197 H176 0.952 . S
C197 C196 1.372 . S
C197 C198 1.389 . S
C198 H177 0.949 . S
C198 C197 1.389 . S
C198 C199 1.387 . S
C199 C198 1.387 . S
C199 C200 1.372 . S
C200 H178 0.950 . S
C200 C199 1.372 . S
C200 C201 1.379 . S
C201 H179 0.948 . S
C201 C196 1.364 . S
C201 C200 1.379 . S
C202 C171 1.383 . S
C202 C189 1.479 . S
C202 C203 1.398 . S
C203 C168 1.382 . S
C203 H180 0.951 . S
C203 C202 1.398 . S
H204 C216 0.932 1_556 S
H205 C218 0.930 . S
H206 C219 0.930 . S
H207 C223 0.959 1_554 S
H208 C223 0.959 . S
H209 C223 0.961 . S
H210 C224 0.960 . S
H211 C224 0.961 . S
H212 C224 0.959 . S
H213 C227 0.929 . S
H214 C228 0.931 . S
H215 C230 0.930 1_556 S
C216 H204 0.932 1_554 S
C216 C217 1.398 . S
C216 C221 1.399 . S
C217 C216 1.398 . S
C217 C218 1.376 . S
C218 H205 0.930 . S
C218 C217 1.376 . S
C218 C219 1.388 . S
C219 H206 0.930 . S
C219 C218 1.388 . S
C219 C220 1.390 . S
C220 C219 1.390 . S
C220 C221 1.394 . S
C220 C226 1.465 . S
C221 C216 1.399 . S
C221 C220 1.394 . S
C221 C222 1.516 1_554 S
C222 C221 1.516 1_556 S
C222 C223 1.502 . S
C222 C224 1.561 . S
C222 C225 1.526 1_556 S
C223 H207 0.959 1_556 S
C223 H208 0.959 . S
C223 H209 0.961 . S
C223 C222 1.502 . S
C224 H210 0.960 . S
C224 H211 0.961 . S
C224 H212 0.959 . S
C224 C222 1.561 . S
C225 C222 1.526 1_554 S
C225 C226 1.396 . S
C225 C230 1.390 . S
C226 C220 1.465 . S
C226 C225 1.396 . S
C226 C227 1.399 . S
C227 H213 0.929 . S
C227 C226 1.399 . S
C227 C228 1.385 . S
C228 H214 0.931 . S
C228 C227 1.385 . S
C228 C229 1.389 . S
C229 C228 1.389 . S
C229 C230 1.387 . S
C230 H215 0.930 1_554 S
C230 C225 1.390 . S
C230 C229 1.387 . S
H231 C243 0.930 . S
H232 C245 0.930 . S
H233 C246 0.930 . S
H234 C250 0.959 . S
H235 C250 0.959 . S
H236 C250 0.961 . S
H237 C251 0.960 . S
H238 C251 0.961 . S
H239 C251 0.959 . S
H240 C254 0.929 . S
H241 C255 0.931 . S
H242 C257 0.930 . S
C243 H231 0.930 . S
C243 C244 1.399 . S
C243 C248 1.399 . S
C244 C243 1.399 . S
C244 C245 1.376 1_554 S
C245 H232 0.930 . S
C245 C244 1.376 1_556 S
C245 C246 1.388 . S
C246 H233 0.930 . S
C246 C245 1.388 . S
C246 C247 1.390 . S
C247 C246 1.390 . S
C247 C248 1.394 1_556 S
C247 C253 1.465 . S
C248 C243 1.399 . S
C248 C247 1.394 1_554 S
C248 C249 1.516 . S
C249 C248 1.516 . S
C249 C250 1.502 . S
C249 C251 1.561 . S
C249 C252 1.526 . S
C250 H234 0.959 . S
C250 H235 0.959 . S
C250 H236 0.961 . S
C250 C249 1.502 . S
C251 H237 0.960 . S
C251 H238 0.961 . S
C251 H239 0.959 . S
C251 C249 1.561 . S
C252 C249 1.526 . S
C252 C253 1.396 1_554 S
C252 C257 1.390 . S
C253 C247 1.465 . S
C253 C252 1.396 1_556 S
C253 C254 1.399 . S
C254 H240 0.929 . S
C254 C253 1.399 . S
C254 C255 1.385 . S
C255 H241 0.931 . S
C255 C254 1.385 . S
C255 C256 1.389 . S
C256 C255 1.389 . S
C256 C257 1.387 1_556 S
C257 H242 0.930 . S
C257 C252 1.390 . S
C257 C256 1.387 1_554 S
H258 C270 0.942 . S
H259 C272 0.930 . S
H260 C273 0.930 . S
H261 C277 0.959 . S
H262 C277 0.959 . S
H263 C277 0.961 . S
H264 C278 0.960 . S
H265 C278 0.961 . S
H266 C278 0.959 . S
H267 C281 0.929 . S
H268 C282 0.931 . S
H269 C284 0.930 1_556 S
C270 H258 0.942 . S
C270 C271 1.390 1_556 S
C270 C275 1.395 1_556 S
C271 C270 1.390 1_554 S
C271 C272 1.376 . S
C272 H259 0.930 . S
C272 C271 1.376 . S
C272 C273 1.388 . S
C273 H260 0.930 . S
C273 C272 1.388 . S
C273 C274 1.390 . S
C274 C273 1.390 . S
C274 C275 1.394 . S
C274 C280 1.465 . S
C275 C270 1.395 1_554 S
C275 C274 1.394 . S
C275 C276 1.516 1_554 S
C276 C275 1.516 1_556 S
C276 C277 1.502 . S
C276 C278 1.561 . S
C276 C279 1.526 1_556 S
C277 H261 0.959 . S
C277 H262 0.959 . S
C277 H263 0.961 . S
C277 C276 1.502 . S
C278 H264 0.960 . S
C278 H265 0.961 . S
C278 H266 0.959 . S
C278 C276 1.561 . S
C279 C276 1.526 1_554 S
C279 C280 1.396 . S
C279 C284 1.390 . S
C280 C274 1.465 . S
C280 C279 1.396 . S
C280 C281 1.399 . S
C281 H267 0.929 . S
C281 C280 1.399 . S
C281 C282 1.385 . S
C282 H268 0.931 . S
C282 C281 1.385 . S
C282 C283 1.389 . S
C283 C282 1.389 . S
C283 C284 1.387 . S
C284 H269 0.930 1_554 S
C284 C279 1.390 . S
C284 C283 1.387 . S
H285 C297 0.930 . S
H286 C299 0.930 . S
H287 C300 0.930 . S
H288 C304 0.959 . S
H289 C304 0.959 . S
H290 C304 0.961 . S
H291 C305 0.960 . S
H292 C305 0.961 . S
H293 C305 0.959 . S
H294 C308 0.929 . S
H295 C309 0.931 . S
H296 C311 0.930 . S
C297 H285 0.930 . S
C297 C298 1.399 . S
C297 C302 1.399 . S
C298 C297 1.399 . S
C298 C299 1.376 1_554 S
C299 H286 0.930 . S
C299 C298 1.376 1_556 S
C299 C300 1.388 . S
C300 H287 0.930 . S
C300 C299 1.388 . S
C300 C301 1.390 . S
C301 C300 1.390 . S
C301 C302 1.394 1_556 S
C301 C307 1.465 . S
C302 C297 1.399 . S
C302 C301 1.394 1_554 S
C302 C303 1.516 . S
C303 C302 1.516 . S
C303 C304 1.502 . S
C303 C305 1.561 . S
C303 C306 1.526 . S
C304 H288 0.959 . S
C304 H289 0.959 . S
C304 H290 0.961 . S
C304 C303 1.502 . S
C305 H291 0.960 . S
C305 H292 0.961 . S
C305 H293 0.959 . S
C305 C303 1.561 . S
C306 C303 1.526 . S
C306 C307 1.396 1_554 S
C306 C311 1.390 . S
C307 C301 1.465 . S
C307 C306 1.396 1_556 S
C307 C308 1.399 . S
C308 H294 0.929 . S
C308 C307 1.399 . S
C308 C309 1.385 . S
C309 H295 0.931 . S
C309 C308 1.385 . S
C309 C310 1.389 . S
C310 C309 1.389 . S
C310 C311 1.387 1_556 S
C311 H296 0.930 . S
C311 C306 1.390 . S
C311 C310 1.387 1_554 S
H312 C324 0.930 . S
H313 C326 0.930 . S
H314 C327 0.930 . S
H315 C331 0.959 . S
H316 C331 0.959 . S
H317 C331 0.961 . S
H318 C332 0.960 . S
H319 C332 0.961 . S
H320 C332 0.959 . S
H321 C335 0.929 . S
H322 C336 0.931 . S
H323 C338 0.930 . S
C324 H312 0.930 . S
C324 C325 1.399 . S
C324 C329 1.399 . S
C325 C324 1.399 . S
C325 C326 1.376 . S
C326 H313 0.930 . S
C326 C325 1.376 . S
C326 C327 1.388 . S
C327 H314 0.930 . S
C327 C326 1.388 . S
C327 C328 1.390 . S
C328 C327 1.390 . S
C328 C329 1.394 . S
C328 C334 1.465 . S
C329 C324 1.399 . S
C329 C328 1.394 . S
C329 C330 1.516 . S
C330 C329 1.516 . S
C330 C331 1.502 . S
C330 C332 1.561 . S
C330 C333 1.526 . S
C331 H315 0.959 . S
C331 H316 0.959 . S
C331 H317 0.961 . S
C331 C330 1.502 . S
C332 H318 0.960 . S
C332 H319 0.961 . S
C332 H320 0.959 . S
C332 C330 1.561 . S
C333 C330 1.526 . S
C333 C334 1.396 . S
C333 C338 1.390 . S
C334 C328 1.465 . S
C334 C333 1.396 . S
C334 C335 1.399 . S
C335 H321 0.929 . S
C335 C334 1.399 . S
C335 C336 1.385 . S
C336 H322 0.931 . S
C336 C335 1.385 . S
C336 C337 1.389 . S
C337 C336 1.389 . S
C337 C338 1.387 . S
C338 H323 0.930 . S
C338 C333 1.390 . S
C338 C337 1.387 . S
H339 C351 0.930 . S
H340 C353 0.930 . S
H341 C354 0.930 . S
H342 C358 0.959 . S
H343 C358 0.959 . S
H344 C358 0.961 . S
H345 C359 0.960 . S
H346 C359 0.961 . S
H347 C359 0.959 . S
H348 C362 0.929 . S
H349 C363 0.931 . S
H350 C365 0.930 . S
C351 H339 0.930 . S
C351 C352 1.399 . S
C351 C356 1.399 . S
C352 C351 1.399 . S
C352 C353 1.376 . S
C353 H340 0.930 . S
C353 C352 1.376 . S
C353 C354 1.388 . S
C354 H341 0.930 . S
C354 C353 1.388 . S
C354 C355 1.390 . S
C355 C354 1.390 . S
C355 C356 1.394 . S
C355 C361 1.465 . S
C356 C351 1.399 . S
C356 C355 1.394 . S
C356 C357 1.516 . S
C357 C356 1.516 . S
C357 C358 1.502 . S
C357 C359 1.561 . S
C357 C360 1.526 . S
C358 H342 0.959 . S
C358 H343 0.959 . S
C358 H344 0.961 . S
C358 C357 1.502 . S
C359 H345 0.960 . S
C359 H346 0.961 . S
C359 H347 0.959 . S
C359 C357 1.561 . S
C360 C357 1.526 . S
C360 C361 1.396 . S
C360 C365 1.390 . S
C361 C355 1.465 . S
C361 C360 1.396 . S
C361 C362 1.399 . S
C362 H348 0.929 . S
C362 C361 1.399 . S
C362 C363 1.385 . S
C363 H349 0.931 . S
C363 C362 1.385 . S
C363 C364 1.389 . S
C364 C363 1.389 . S
C364 C365 1.387 . S
C365 H350 0.930 . S
C365 C360 1.390 . S
C365 C364 1.387 . S
H366 C378 0.930 . S
H367 C380 0.930 . S
H368 C381 0.930 . S
H369 C385 0.959 . S
H370 C385 0.959 . S
H371 C385 0.961 . S
H372 C386 0.960 . S
H373 C386 0.961 . S
H374 C386 0.959 . S
H375 C389 0.929 . S
H376 C390 0.931 . S
H377 C392 0.930 . S
C378 H366 0.930 . S
C378 C379 1.399 . S
C378 C383 1.399 . S
C379 C378 1.399 . S
C379 C380 1.376 . S
C380 H367 0.930 . S
C380 C379 1.376 . S
C380 C381 1.388 . S
C381 H368 0.930 . S
C381 C380 1.388 . S
C381 C382 1.390 . S
C382 C381 1.390 . S
C382 C383 1.394 . S
C382 C388 1.465 . S
C383 C378 1.399 . S
C383 C382 1.394 . S
C383 C384 1.516 . S
C384 C383 1.516 . S
C384 C385 1.502 . S
C384 C386 1.561 . S
C384 C387 1.526 . S
C385 H369 0.959 . S
C385 H370 0.959 . S
C385 H371 0.961 . S
C385 C384 1.502 . S
C386 H372 0.960 . S
C386 H373 0.961 . S
C386 H374 0.959 . S
C386 C384 1.561 . S
C387 C384 1.526 . S
C387 C388 1.396 . S
C387 C392 1.390 . S
C388 C382 1.465 . S
C388 C387 1.396 . S
C388 C389 1.399 . S
C389 H375 0.929 . S
C389 C388 1.399 . S
C389 C390 1.385 . S
C390 H376 0.931 . S
C390 C389 1.385 . S
C390 C391 1.389 . S
C391 C390 1.389 . S
C391 C392 1.387 . S
C392 H377 0.930 . S
C392 C387 1.390 . S
C392 C391 1.387 . S
H393 C405 0.930 . S
H394 C407 0.930 . S
H395 C408 0.930 . S
H396 C412 0.959 . S
H397 C412 0.959 . S
H398 C412 0.961 . S
H399 C413 0.960 . S
H400 C413 0.961 . S
H401 C413 0.959 . S
H402 C416 0.929 . S
H403 C417 0.931 . S
H404 C419 0.930 . S
C405 H393 0.930 . S
C405 C406 1.399 . S
C405 C410 1.399 . S
C406 C405 1.399 . S
C406 C407 1.376 . S
C407 H394 0.930 . S
C407 C406 1.376 . S
C407 C408 1.388 . S
C408 H395 0.930 . S
C408 C407 1.388 . S
C408 C409 1.390 . S
C409 C408 1.390 . S
C409 C410 1.394 . S
C409 C415 1.465 . S
C410 C405 1.399 . S
C410 C409 1.394 . S
C410 C411 1.516 . S
C411 C410 1.516 . S
C411 C412 1.502 . S
C411 C413 1.561 . S
C411 C414 1.526 . S
C412 H396 0.959 . S
C412 H397 0.959 . S
C412 H398 0.961 . S
C412 C411 1.502 . S
C413 H399 0.960 . S
C413 H400 0.961 . S
C413 H401 0.959 . S
C413 C411 1.561 . S
C414 C411 1.526 . S
C414 C415 1.396 . S
C414 C419 1.390 . S
C415 C409 1.465 . S
C415 C414 1.396 . S
C415 C416 1.399 . S
C416 H402 0.929 . S
C416 C415 1.399 . S
C416 C417 1.385 . S
C417 H403 0.931 . S
C417 C416 1.385 . S
C417 C418 1.389 . S
C418 C417 1.389 . S
C418 C419 1.387 . S
C419 H404 0.930 . S
C419 C414 1.390 . S
C419 C418 1.387 . S
H420 C432 0.930 . S
H421 C434 0.930 . S
H422 C435 0.930 . S
H423 C439 0.959 . S
H424 C439 0.959 . S
H425 C439 0.961 . S
H426 C440 0.960 . S
H427 C440 0.961 . S
H428 C440 0.959 . S
H429 C443 0.929 . S
H430 C444 0.931 . S
H431 C446 0.930 . S
C432 H420 0.930 . S
C432 C433 1.399 1_655 S
C432 C437 1.399 . S
C433 C432 1.399 1_455 S
C433 C434 1.376 1_545 S
C434 H421 0.930 . S
C434 C433 1.376 1_565 S
C434 C435 1.388 . S
C435 H422 0.930 . S
C435 C434 1.388 . S
C435 C436 1.390 . S
C436 C435 1.390 . S
C436 C437 1.394 1_465 S
C436 C442 1.465 . S
C437 C432 1.399 . S
C437 C436 1.394 1_645 S
C437 C438 1.516 . S
C438 C437 1.516 . S
C438 C439 1.502 . S
C438 C440 1.561 1_545 S
C438 C441 1.526 . S
C439 H423 0.959 . S
C439 H424 0.959 . S
C439 H425 0.961 . S
C439 C438 1.502 . S
C440 H426 0.960 . S
C440 H427 0.961 . S
C440 H428 0.959 . S
C440 C438 1.561 1_565 S
C441 C438 1.526 . S
C441 C442 1.396 1_645 S
C441 C446 1.390 . S
C442 C436 1.465 . S
C442 C441 1.396 1_465 S
C442 C443 1.399 . S
C443 H429 0.929 . S
C443 C442 1.399 . S
C443 C444 1.385 . S
C444 H430 0.931 . S
C444 C443 1.385 . S
C444 C445 1.379 1_565 S
C445 C444 1.379 1_545 S
C445 C446 1.396 1_455 S
C446 H431 0.930 . S
C446 C441 1.390 . S
C446 C445 1.396 1_655 S
H447 C459 0.930 . S
H448 C461 0.930 . S
H449 C462 0.930 . S
H450 C466 0.959 1_545 S
H451 C466 0.959 . S
H452 C466 0.961 . S
H453 C467 0.960 . S
H454 C467 0.961 . S
H455 C467 0.959 1_655 S
H456 C470 0.929 . S
H457 C471 0.931 . S
H458 C473 0.930 . S
C459 H447 0.930 . S
C459 C460 1.399 1_565 S
C459 C464 1.399 . S
C460 C459 1.399 1_545 S
C460 C461 1.376 1_455 S
C461 H448 0.930 . S
C461 C460 1.376 1_655 S
C461 C462 1.388 . S
C462 H449 0.930 . S
C462 C461 1.388 . S
C462 C463 1.390 . S
C463 C462 1.390 . S
C463 C464 1.394 1_645 S
C463 C469 1.465 . S
C464 C459 1.399 . S
C464 C463 1.394 1_465 S
C464 C465 1.516 . S
C465 C464 1.516 . S
C465 C466 1.502 . S
C465 C467 1.561 . S
C465 C468 1.526 1_565 S
C466 H450 0.959 1_565 S
C466 H451 0.959 . S
C466 H452 0.961 . S
C466 C465 1.502 . S
C467 H453 0.960 . S
C467 H454 0.961 . S
C467 H455 0.959 1_455 S
C467 C465 1.561 . S
C468 C465 1.526 1_545 S
C468 C469 1.396 1_455 S
C468 C473 1.390 1_545 S
C469 C463 1.465 . S
C469 C468 1.396 1_655 S
C469 C470 1.399 . S
C470 H456 0.929 . S
C470 C469 1.399 . S
C470 C471 1.385 . S
C471 H457 0.931 . S
C471 C470 1.385 . S
C471 C472 1.389 1_655 S
C472 C471 1.389 1_455 S
C472 C473 1.387 1_545 S
C473 H458 0.930 . S
C473 C468 1.390 1_565 S
C473 C472 1.387 1_565 S
H474 C486 0.930 . S
H475 C488 0.930 . S
H476 C489 0.930 . S
H477 C493 0.959 . S
H478 C493 0.959 . S
H479 C493 0.961 . S
H480 C494 0.960 . S
H481 C494 0.961 . S
H482 C494 0.959 . S
H483 C497 0.929 . S
H484 C498 0.931 . S
H485 C500 0.930 . S
C486 H474 0.930 . S
C486 C487 1.399 . S
C486 C491 1.399 . S
C487 C486 1.399 . S
C487 C488 1.376 . S
C488 H475 0.930 . S
C488 C487 1.376 . S
C488 C489 1.388 . S
C489 H476 0.930 . S
C489 C488 1.388 . S
C489 C490 1.390 . S
C490 C489 1.390 . S
C490 C491 1.394 . S
C490 C496 1.465 . S
C491 C486 1.399 . S
C491 C490 1.394 . S
C491 C492 1.516 . S
C492 C491 1.516 . S
C492 C493 1.502 . S
C492 C494 1.561 . S
C492 C495 1.526 . S
C493 H477 0.959 . S
C493 H478 0.959 . S
C493 H479 0.961 . S
C493 C492 1.502 . S
C494 H480 0.960 . S
C494 H481 0.961 . S
C494 H482 0.959 . S
C494 C492 1.561 . S
C495 C492 1.526 . S
C495 C496 1.396 . S
C495 C500 1.390 . S
C496 C490 1.465 . S
C496 C495 1.396 . S
C496 C497 1.399 . S
C497 H483 0.929 . S
C497 C496 1.399 . S
C497 C498 1.385 . S
C498 H484 0.931 . S
C498 C497 1.385 . S
C498 C499 1.389 . S
C499 C498 1.389 . S
C499 C500 1.387 . S
C500 H485 0.930 . S
C500 C495 1.390 . S
C500 C499 1.387 . S
H501 C513 0.930 . S
H502 C515 0.930 . S
H503 C516 0.930 . S
H504 C520 0.959 . S
H505 C520 0.959 . S
H506 C520 0.961 . S
H507 C521 0.960 . S
H508 C521 0.961 . S
H509 C521 0.959 . S
H510 C524 0.929 . S
H511 C525 0.931 . S
H512 C527 0.930 . S
C513 H501 0.930 . S
C513 C514 1.399 . S
C513 C518 1.399 . S
C514 C513 1.399 . S
C514 C515 1.376 . S
C515 H502 0.930 . S
C515 C514 1.376 . S
C515 C516 1.388 . S
C516 H503 0.930 . S
C516 C515 1.388 . S
C516 C517 1.390 . S
C517 C516 1.390 . S
C517 C518 1.394 . S
C517 C523 1.465 . S
C518 C513 1.399 . S
C518 C517 1.394 . S
C518 C519 1.516 . S
C519 C518 1.516 . S
C519 C520 1.502 . S
C519 C521 1.561 . S
C519 C522 1.526 . S
C520 H504 0.959 . S
C520 H505 0.959 . S
C520 H506 0.961 . S
C520 C519 1.502 . S
C521 H507 0.960 . S
C521 H508 0.961 . S
C521 H509 0.959 . S
C521 C519 1.561 . S
C522 C519 1.526 . S
C522 C523 1.396 . S
C522 C527 1.390 . S
C523 C517 1.465 . S
C523 C522 1.396 . S
C523 C524 1.399 . S
C524 H510 0.929 . S
C524 C523 1.399 . S
C524 C525 1.385 . S
C525 H511 0.931 . S
C525 C524 1.385 . S
C525 C526 1.389 . S
C526 C525 1.389 . S
C526 C527 1.387 . S
C527 H512 0.930 . S
C527 C522 1.390 . S
C527 C526 1.387 . S
C229 C169 1.439 . S
C217 C27 1.483 . S
C244 N6 1.366 . S
C256 C133 1.385 . S
C271 C16 1.461 . S
C283 C193 1.377 . S
C298 N14 1.425 . S
C310 C157 1.338 . S
C325 C57 1.482 . S
C337 C97 1.432 . S
C352 N36 1.361 . S
C364 C61 1.384 . S
C391 C121 1.376 . S
C379 C46 1.460 . S
C418 C85 1.412 . S
C406 N44 1.368 . S
C433 C10 1.373 . S
C445 C91 1.386 . S
C460 C1 1.512 . S
C472 C127 1.534 . S
C499 C163 1.368 . S
C487 C40 1.379 . S
C514 C31 1.534 . S
C526 C199 1.510 . S
