# Generated by pormake.
# Topology zzz, (3,6)-cn, num edge types: 1
# Building blocks:
#     Node 0, Type 0, BuildingBlock: VETTIZ_charged_linker_0, # of connection points: 3
#     Node 1, Type 0, BuildingBlock: VETTIZ_charged_linker_0, # of connection points: 3
#     Node 2, Type 0, BuildingBlock: VETTIZ_charged_linker_0, # of connection points: 3
#     Node 3, Type 0, BuildingBlock: VETTIZ_charged_linker_0, # of connection points: 3
#     Node 4, Type 0, BuildingBlock: VETTIZ_charged_linker_0, # of connection points: 3
#     Node 5, Type 0, BuildingBlock: VETTIZ_charged_linker_0, # of connection points: 3
#     Node 6, Type 0, BuildingBlock: VETTIZ_charged_linker_0, # of connection points: 3
#     Node 7, Type 0, BuildingBlock: VETTIZ_charged_linker_0, # of connection points: 3
#     Node 8, Type 1, BuildingBlock: BETFAJ_clean_sbu_0, # of connection points: 6
#     Node 9, Type 1, BuildingBlock: BETFAJ_clean_sbu_0, # of connection points: 6
#     Node 10, Type 1, BuildingBlock: BETFAJ_clean_sbu_0, # of connection points: 6
#     Node 11, Type 1, BuildingBlock: BETFAJ_clean_sbu_0, # of connection points: 6
#     Edge 12, Type (0, 1), BuildingBlock: AJUNOK_clean_linker_0, # of connection points: 2
#     Edge 13, Type (0, 1), BuildingBlock: AJUNOK_clean_linker_0, # of connection points: 2
#     Edge 14, Type (0, 1), BuildingBlock: AJUNOK_clean_linker_0, # of connection points: 2
#     Edge 15, Type (0, 1), BuildingBlock: AJUNOK_clean_linker_0, # of connection points: 2
#     Edge 16, Type (0, 1), BuildingBlock: AJUNOK_clean_linker_0, # of connection points: 2
#     Edge 17, Type (0, 1), BuildingBlock: AJUNOK_clean_linker_0, # of connection points: 2
#     Edge 18, Type (0, 1), BuildingBlock: AJUNOK_clean_linker_0, # of connection points: 2
#     Edge 19, Type (0, 1), BuildingBlock: AJUNOK_clean_linker_0, # of connection points: 2
#     Edge 20, Type (0, 1), BuildingBlock: AJUNOK_clean_linker_0, # of connection points: 2
#     Edge 21, Type (0, 1), BuildingBlock: AJUNOK_clean_linker_0, # of connection points: 2
#     Edge 22, Type (0, 1), BuildingBlock: AJUNOK_clean_linker_0, # of connection points: 2
#     Edge 23, Type (0, 1), BuildingBlock: AJUNOK_clean_linker_0, # of connection points: 2
#     Edge 24, Type (0, 1), BuildingBlock: AJUNOK_clean_linker_0, # of connection points: 2
#     Edge 25, Type (0, 1), BuildingBlock: AJUNOK_clean_linker_0, # of connection points: 2
#     Edge 26, Type (0, 1), BuildingBlock: AJUNOK_clean_linker_0, # of connection points: 2
#     Edge 27, Type (0, 1), BuildingBlock: AJUNOK_clean_linker_0, # of connection points: 2
#     Edge 28, Type (0, 1), BuildingBlock: AJUNOK_clean_linker_0, # of connection points: 2
#     Edge 29, Type (0, 1), BuildingBlock: AJUNOK_clean_linker_0, # of connection points: 2
#     Edge 30, Type (0, 1), BuildingBlock: AJUNOK_clean_linker_0, # of connection points: 2
#     Edge 31, Type (0, 1), BuildingBlock: AJUNOK_clean_linker_0, # of connection points: 2
#     Edge 32, Type (0, 1), BuildingBlock: AJUNOK_clean_linker_0, # of connection points: 2
#     Edge 33, Type (0, 1), BuildingBlock: AJUNOK_clean_linker_0, # of connection points: 2
#     Edge 34, Type (0, 1), BuildingBlock: AJUNOK_clean_linker_0, # of connection points: 2
#     Edge 35, Type (0, 1), BuildingBlock: AJUNOK_clean_linker_0, # of connection points: 2
# Relax obj value: 0.513
# Max RMSD: 0.268
# Mean RMSD: 0.258
data_MOF--net-zzz--node1-BETFAJ_clean_sbu_0--node2-VETTIZ_charged_linker_0--edge1-AJUNOK_clean_linker_0
_symmetry_space_group_name_H-M    P1
_symmetry_Int_Tables_number       1
_symmetry_cell_setting            triclinic
loop_
_symmetry_equiv_pos_as_xyz
'x, y, z'
_cell_length_a     45.472271
_cell_length_b     45.600014
_cell_length_c     14.357012
_cell_angle_alpha  89.694622
_cell_angle_beta   89.786567
_cell_angle_gamma 90.060188
loop_
_atom_site_label
_atom_site_type_symbol
_atom_site_fract_x
_atom_site_fract_y
_atom_site_fract_z
_atom_type_partial_charge
C0 C 0.81765 0.49643 0.52097 0.0
C1 C 0.83386 0.48154 0.59203 0.0
C2 C 0.82308 0.45412 0.62358 0.0
C3 C 0.78723 0.4534 0.50063 0.0
C4 C 0.79323 0.48212 0.47884 0.0
C5 C 0.77143 0.49294 0.40534 0.0
H6 H 0.6715 0.45253 0.06922 0.0
C7 C 0.76713 0.44116 0.4315 0.0
C8 C 0.75373 0.46474 0.38413 0.0
H9 H 0.66119 0.53013 0.23665 0.0
H10 H 0.70154 0.51337 0.33851 0.0
H11 H 0.73692 0.45406 0.05115 0.0
H12 H 0.68183 0.40576 0.23781 0.0
H13 H 0.70879 0.38234 0.18808 0.0
H14 H 0.68428 0.40219 0.11322 0.0
H15 H 0.7292 0.41639 0.02993 0.0
H16 H 0.76107 0.42748 0.09618 0.0
C17 C 0.78815 0.50373 0.31823 0.0
C18 C 0.75243 0.51757 0.44686 0.0
C19 C 0.81198 0.35226 0.28424 0.0
C20 C 0.816 0.34932 0.18757 0.0
C21 C 0.79255 0.35729 0.12883 0.0
C22 C 0.76855 0.37299 0.16443 0.0
C23 C 0.76937 0.38284 0.257 0.0
C24 C 0.79059 0.37193 0.31651 0.0
C25 C 0.79165 0.38854 0.40717 0.0
C26 C 0.76963 0.41332 0.38718 0.0
C27 C 0.75601 0.40896 0.3006 0.0
C28 C 0.8235 0.39975 0.42502 0.0
C29 C 0.78085 0.36788 0.4856 0.0
C30 C 0.67815 0.4664 0.12645 0.0
C31 C 0.66332 0.49287 0.14344 0.0
C32 C 0.67276 0.5101 0.21977 0.0
C33 C 0.69649 0.50095 0.27725 0.0
C34 C 0.71182 0.47507 0.25587 0.0
C35 C 0.70181 0.45787 0.18327 0.0
C36 C 0.71889 0.42985 0.1747 0.0
C37 C 0.73778 0.43111 0.26183 0.0
C38 C 0.7354 0.45849 0.30563 0.0
C39 C 0.73742 0.43183 0.08348 0.0
C40 C 0.69737 0.40351 0.17823 0.0
H41 H 0.79203 0.41939 0.60475 0.0
H42 H 0.82413 0.51816 0.49814 0.0
H43 H 0.73507 0.50847 0.49347 0.0
H44 H 0.74219 0.53101 0.39136 0.0
H45 H 0.76614 0.53294 0.48805 0.0
H46 H 0.80267 0.48615 0.29068 0.0
H47 H 0.80195 0.52312 0.33483 0.0
H48 H 0.77246 0.51009 0.26251 0.0
H49 H 0.82876 0.3442 0.33108 0.0
H50 H 0.79412 0.35457 0.05416 0.0
H51 H 0.75164 0.3791 0.1166 0.0
H52 H 0.82795 0.42054 0.38674 0.0
H53 H 0.84066 0.38395 0.40441 0.0
H54 H 0.82809 0.40243 0.49974 0.0
H55 H 0.79868 0.35269 0.5073 0.0
H56 H 0.76207 0.35422 0.46228 0.0
H57 H 0.77314 0.38013 0.5472 0.0
H58 H 0.83419 0.44214 0.67838 0.0
C59 C 0.79928 0.44051 0.57998 0.0
C60 C 0.12419 0.79488 0.96051 0.0
C61 C 0.11414 0.817 0.89947 0.0
C62 C 0.08418 0.82558 0.90373 0.0
C63 C 0.07671 0.79465 0.03718 0.0
C64 C 0.10482 0.78363 0.02792 0.0
C65 C 0.10934 0.75815 0.09342 0.0
H66 H 1.00748 0.65585 0.25296 0.0
C67 C 0.06142 0.77848 0.11017 0.0
C68 C 0.07743 0.75275 0.12411 0.0
H69 H 0.06495 0.64643 1.01419 0.0
H70 H 0.08384 0.69475 0.03958 0.0
H71 H 0.06145 0.70376 0.40306 0.0
H72 H 0.99061 0.72816 0.21442 0.0
H73 H 0.98977 0.74011 0.3339 0.0
H74 H 0.9831 0.70224 0.30686 0.0
H75 H 0.02661 0.68492 0.41273 0.0
H76 H 0.02929 0.72251 0.44639 0.0
C77 C 0.12781 0.76813 0.17746 0.0
C78 C 0.12489 0.73264 0.04412 0.0
C79 C 0.02266 0.84452 0.36151 0.0
C80 C 0.02746 0.84295 0.45871 0.0
C81 C 0.03442 0.81479 0.49607 0.0
C82 C 0.03639 0.78956 0.43839 0.0
C83 C 0.03205 0.79227 0.34187 0.0
C84 C 0.02721 0.8199 0.30456 0.0
C85 C 0.0331 0.82077 0.2009 0.0
C86 C 0.04397 0.78953 0.18436 0.0
C87 C 0.04013 0.77216 0.26459 0.0
C88 C 0.05656 0.84449 0.17863 0.0
C89 C 1.00403 0.82672 0.1497 0.0
C90 C 0.02543 0.66369 0.20983 0.0
C91 C 0.03563 0.64664 0.13321 0.0
C92 C 0.05772 0.6583 0.07539 0.0
C93 C 0.06946 0.68595 0.09148 0.0
C94 C 0.06071 0.70191 0.16963 0.0
C95 C 0.03861 0.69154 0.22726 0.0
C96 C 0.02942 0.71554 0.29558 0.0
C97 C 0.04816 0.74179 0.26249 0.0
C98 C 0.06746 0.73253 0.19147 0.0
C99 C 0.03725 0.70621 0.3953 0.0
C100 C 0.99626 0.72187 0.28712 0.0
H101 H 0.0424 0.81997 0.97124 0.0
H102 H 0.14669 0.78722 0.95717 0.0
H103 H 0.14785 0.73875 0.02562 0.0
H104 H 0.11359 0.72708 0.97804 0.0
H105 H 0.1263 0.71325 0.09103 0.0
H106 H 0.1173 0.78695 0.2136 0.0
H107 H 0.15016 0.77508 0.15468 0.0
H108 H 0.13014 0.74989 0.22857 0.0
H109 H 1.01696 0.86509 0.32854 0.0
H110 H 0.03996 0.81226 0.56877 0.0
H111 H 0.04355 0.76904 0.46827 0.0
H112 H 0.07858 0.83755 0.20387 0.0
H113 H 0.05115 0.86579 0.21141 0.0
H114 H 0.05786 0.84945 0.1035 0.0
H115 H 0.98701 0.81039 0.17046 0.0
H116 H 1.00684 0.82539 0.07337 0.0
H117 H 0.99564 0.84896 0.16656 0.0
H118 H 0.07557 0.8426 0.85867 0.0
C119 C 0.06524 0.81372 0.97071 0.0
C120 C 0.86392 1.01514 0.16814 0.0
C121 C 0.88576 0.03209 0.1205 0.0
C122 C 0.88356 0.06296 0.12289 0.0
C123 C 0.83754 0.0597 0.20564 0.0
C124 C 0.84022 0.02975 0.21329 0.0
C125 C 0.81582 1.01758 0.27689 0.0
H126 H 0.69924 0.05641 0.56663 0.0
C127 C 0.81206 0.06931 0.25837 0.0
C128 C 0.80006 0.0458 0.30848 0.0
H129 H 0.72167 0.96839 0.48671 0.0
H130 H 0.76465 0.98702 0.40015 0.0
H131 H 0.77094 0.08957 0.5744 0.0
H132 H 0.71402 0.09528 0.33349 0.0
H133 H 0.70899 0.11857 0.43471 0.0
H134 H 0.69298 0.08376 0.43103 0.0
H135 H 0.7327 0.0965 0.59885 0.0
H136 H 0.75351 0.12258 0.53476 0.0
C137 C 0.82958 1.00096 0.35935 0.0
C138 C 0.7956 0.99807 0.2177 0.0
C139 C 0.74352 0.14751 0.15093 0.0
C140 C 0.72091 0.16176 0.20099 0.0
C141 C 0.72527 0.16713 0.29677 0.0
C142 C 0.74625 0.15077 0.3457 0.0
C143 C 0.76304 0.13041 0.29641 0.0
C144 C 0.76526 0.13253 0.20123 0.0
C145 C 0.78928 0.11291 0.16495 0.0
C146 C 0.7978 0.09656 0.25464 0.0
C147 C 0.77856 0.10395 0.3268 0.0
C148 C 0.81395 0.13229 0.12403 0.0
C149 C 0.77718 0.09168 0.09086 0.0
C150 C 0.71366 0.04098 0.53197 0.0
C151 C 0.70714 1.01108 0.53448 0.0
C152 C 0.72613 0.99172 0.48608 0.0
C153 C 0.75082 1.00253 0.43525 0.0
C154 C 0.75586 0.03303 0.42951 0.0
C155 C 0.73684 0.05152 0.47672 0.0
C156 C 0.74171 0.0832 0.45447 0.0
C157 C 0.76735 0.08125 0.38588 0.0
C158 C 0.77638 0.05172 0.3727 0.0
C159 C 0.75029 0.09888 0.54541 0.0
C160 C 0.71317 0.09592 0.4108 0.0
H161 H 0.86035 0.10021 0.17525 0.0
H162 H 0.86556 0.99148 0.17109 0.0
H163 H 0.78845 1.01002 0.15396 0.0
H164 H 0.77547 0.99153 0.25542 0.0
H165 H 0.80734 0.97788 0.19567 0.0
H166 H 0.84559 1.01521 0.39611 0.0
H167 H 0.84139 0.98111 0.33476 0.0
H168 H 0.81278 0.99399 0.41068 0.0
H169 H 0.74204 0.14462 0.07635 0.0
H170 H 0.70964 0.18017 0.33576 0.0
H171 H 0.74724 0.15248 0.42024 0.0
H172 H 0.80462 0.15009 0.07993 0.0
H173 H 0.82858 0.11956 0.07748 0.0
H174 H 0.82705 0.14266 0.18025 0.0
H175 H 0.75824 0.07895 0.1191 0.0
H176 H 0.79443 0.07595 0.06868 0.0
H177 H 0.76987 0.1038 0.02777 0.0
H178 H 0.90014 0.0766 0.08983 0.0
C179 C 0.86005 0.07673 0.1675 0.0
C180 C 0.51248 0.70636 0.47338 0.0
C181 C 0.49613 0.68596 0.52903 0.0
C182 C 0.46535 0.68943 0.5345 0.0
C183 C 0.46694 0.72618 0.41356 0.0
C184 C 0.49707 0.72721 0.41795 0.0
C185 C 0.50841 0.75313 0.35975 0.0
H186 H 0.47065 0.85659 0.02362 0.0
C187 C 0.45669 0.74572 0.33962 0.0
C188 C 0.48026 0.76348 0.30985 0.0
H189 H 0.55381 0.85245 0.16563 0.0
H190 H 0.53686 0.80921 0.25392 0.0
H191 H 0.47046 0.79426 0.97869 0.0
H192 H 0.42549 0.8415 0.19016 0.0
H193 H 0.40031 0.81689 0.13837 0.0
H194 H 0.41917 0.84345 0.06674 0.0
H195 H 0.43302 0.80455 0.96289 0.0
H196 H 0.44293 0.76928 1.01151 0.0
C197 C 0.53197 0.74256 0.29051 0.0
C198 C 0.52012 0.77651 0.42729 0.0
C199 C 0.37497 0.70546 0.14433 0.0
C200 C 0.36737 0.71207 0.05182 0.0
C201 C 0.3727 0.74059 0.01766 0.0
C202 C 0.38912 0.76057 0.07028 0.0
C203 C 0.40139 0.75135 0.1554 0.0
C204 C 0.39286 0.72484 0.19366 0.0
C205 C 0.40915 0.71762 0.28186 0.0
C206 C 0.43085 0.74327 0.28536 0.0
C207 C 0.42652 0.76245 0.21019 0.0
C208 C 0.42502 0.68776 0.26962 0.0
C209 C 0.38679 0.71729 0.36377 0.0
C210 C 0.48503 0.84685 0.07528 0.0
C211 C 0.51315 0.85838 0.08953 0.0
C212 C 0.53174 0.84425 0.15463 0.0
C213 C 0.52182 0.81945 0.2064 0.0
C214 C 0.49311 0.8086 0.19237 0.0
C215 C 0.47567 0.8222 0.12594 0.0
C216 C 0.44725 0.80649 0.1106 0.0
C217 C 0.44847 0.78343 0.18679 0.0
C218 C 0.47556 0.78402 0.23482 0.0
C219 C 0.44822 0.79301 1.01108 0.0
C220 C 0.42156 0.82816 0.12673 0.0
H221 H 0.42761 0.71249 0.48657 0.0
H222 H 0.53627 0.70581 0.47251 0.0
H223 H 0.50371 0.78095 0.48308 0.0
H224 H 0.52451 0.79764 0.39244 0.0
H225 H 0.54073 0.76889 0.46098 0.0
H226 H 0.52322 0.72434 0.2475 0.0
H227 H 0.55173 0.7345 0.32801 0.0
H228 H 0.53894 0.76032 0.24258 0.0
H229 H 0.37084 0.68382 0.17275 0.0
H230 H 0.36659 0.7464 0.94708 0.0
H231 H 0.39343 0.78163 0.03976 0.0
H232 H 0.43945 0.68822 0.20691 0.0
H233 H 0.409 0.66955 0.26208 0.0
H234 H 0.43876 0.68182 0.32984 0.0
H235 H 0.38921 0.73703 0.40822 0.0
H236 H 0.38921 0.69733 0.40766 0.0
H237 H 0.36358 0.71695 0.33957 0.0
H238 H 0.45217 0.67533 0.57902 0.0
C239 C 0.45087 0.70992 0.4787 0.0
C240 C 0.35579 0.5209 0.35947 0.0
C241 C 0.37721 0.53691 0.4114 0.0
C242 C 0.37331 0.56749 0.42086 0.0
C243 C 0.32654 0.56502 0.34299 0.0
C244 C 0.33076 0.53584 0.3233 0.0
C245 C 0.30632 0.52503 0.25808 0.0
H246 H 0.18555 0.57007 0.99438 0.0
C247 C 0.30012 0.57528 0.29656 0.0
C248 C 0.28887 0.55342 0.23881 0.0
H249 H 0.2121 0.48053 0.04078 0.0
H250 H 0.25487 0.4975 0.1296 0.0
H251 H 0.18043 0.59524 0.13282 0.0
H252 H 0.25564 0.60162 0.98231 0.0
H253 H 0.2463 0.63451 0.04167 0.0
H254 H 0.21871 0.61574 0.97547 0.0
H255 H 0.19719 0.62958 0.14175 0.0
H256 H 0.2015 0.60254 0.23383 0.0
C257 C 0.28768 0.50225 0.31152 0.0
C258 C 0.31998 0.51253 0.16858 0.0
C259 C 0.2306 0.65003 0.42382 0.0
C260 C 0.20911 0.66707 0.3772 0.0
C261 C 0.21459 0.67505 0.28334 0.0
C262 C 0.23528 0.65934 0.23103 0.0
C263 C 0.2508 0.63691 0.27537 0.0
C264 C 0.2522 0.6359 0.37071 0.0
C265 C 0.27547 0.61462 0.40243 0.0
C266 C 0.28533 0.60199 0.3085 0.0
C267 C 0.26637 0.6115 0.23842 0.0
C268 C 0.26192 0.59061 0.46555 0.0
C269 C 0.29957 0.63161 0.45433 0.0
C270 C 0.20062 0.554 0.02288 0.0
C271 C 0.19515 0.52404 1.01063 0.0
C272 C 0.21544 0.50386 0.04981 0.0
C273 C 0.24009 0.51364 0.10184 0.0
C274 C 0.2441 0.54385 0.11764 0.0
C275 C 0.2241 0.56333 0.07872 0.0
C276 C 0.22912 0.59435 0.10875 0.0
C277 C 0.25505 0.59049 0.17467 0.0
C278 C 0.26472 0.56091 0.17817 0.0
C279 C 0.20081 0.60608 0.15722 0.0
C280 C 0.23787 0.61267 0.02235 0.0
H281 H 0.34746 0.60518 0.38666 0.0
H282 H 0.35871 0.49773 0.34648 0.0
H283 H 0.33472 0.52903 0.13524 0.0
H284 H 0.30293 0.50658 0.11733 0.0
H285 H 0.33314 0.49261 0.18435 0.0
H286 H 0.28027 0.51131 0.37945 0.0
H287 H 0.30074 0.48213 0.32561 0.0
H288 H 0.26776 0.49592 0.27303 0.0
H289 H 0.22865 0.64487 0.49718 0.0
H290 H 0.20057 0.69064 0.24778 0.0
H291 H 0.23722 0.66337 0.15732 0.0
H292 H 0.24341 0.57944 0.4297 0.0
H293 H 0.25354 0.60006 0.53166 0.0
H294 H 0.27867 0.57382 0.48369 0.0
H295 H 0.28965 0.64657 0.50663 0.0
H296 H 0.31291 0.64508 0.40513 0.0
H297 H 0.31402 0.61651 0.49396 0.0
H298 H 0.38949 0.58066 0.4568 0.0
C299 C 0.34855 0.58159 0.38487 0.0
C300 C 0.87931 0.24928 0.44355 0.0
C301 C 0.86718 0.22141 0.42776 0.0
C302 C 0.86354 0.212 0.33482 0.0
C303 C 0.8953 0.25102 0.28304 0.0
C304 C 0.89367 0.26366 0.36986 0.0
C305 C 0.91258 0.29055 0.37601 0.0
H306 H 0.03775 0.35073 0.3371 0.0
C307 C 0.92015 0.26419 0.23212 0.0
C308 C 0.92857 0.28914 0.28154 0.0
H309 H 0.95532 0.39424 0.4026 0.0
H310 H 0.92907 0.35623 0.31884 0.0
H311 H 1.01763 0.27714 0.35694 0.0
H312 H 1.00695 0.33086 0.10762 0.0
H313 H 0.02657 0.29742 0.0927 0.0
H314 H 0.04266 0.32647 0.15938 0.0
H315 H 0.04891 0.2953 0.30513 0.0
H316 H 0.03366 0.26308 0.25256 0.0
C317 C 0.93419 0.28768 0.45861 0.0
C318 C 0.89207 0.31723 0.3879 0.0
C319 C 0.97527 0.1936 0.02327 0.0
C320 C 1.00477 0.18971 0.99833 0.0
C321 C 0.0255 0.21071 0.02922 0.0
C322 C 1.01657 0.23534 0.08283 0.0
C323 C 0.98672 0.23865 0.10786 0.0
C324 C 0.96692 0.21739 0.07918 0.0
C325 C 0.93689 0.22146 0.12014 0.0
C326 C 0.94096 0.24999 0.1731 0.0
C327 C 0.97023 0.26054 0.16588 0.0
C328 C 0.9301 0.19463 0.18469 0.0
C329 C 0.91463 0.22531 0.03987 0.0
C330 C 1.01397 0.35154 0.33708 0.0
C331 C 0.99867 0.37496 0.38223 0.0
C332 C 0.96778 0.37627 0.3733 0.0
C333 C 0.95228 0.35385 0.33003 0.0
C334 C 0.96739 0.32926 0.29922 0.0
C335 C 0.99745 0.3291 0.29256 0.0
C336 C 1.00728 0.30307 0.23256 0.0
C337 C 0.97779 0.28749 0.21237 0.0
C338 C 0.9555 0.30272 0.2593 0.0
C339 C 0.02811 0.28349 0.28969 0.0
C340 C 0.02176 0.31499 0.143 0.0
H341 H 0.87505 0.21897 0.19228 0.0
H342 H 0.88102 0.25759 0.51381 0.0
H343 H 0.87252 0.31169 0.43134 0.0
H344 H 0.88399 0.325 0.31939 0.0
H345 H 0.90297 0.33536 0.42551 0.0
H346 H 0.92224 0.28664 0.52611 0.0
H347 H 0.9491 0.30686 0.46247 0.0
H348 H 0.94784 0.26759 0.45163 0.0
H349 H 0.95898 0.17748 1.00311 0.0
H350 H 0.04853 0.20805 1.01191 0.0
H351 H 0.03313 0.25057 0.10487 0.0
H352 H 0.93086 0.2006 0.25953 0.0
H353 H 0.94623 0.1765 0.17696 0.0
H354 H 0.90851 0.18453 0.16882 0.0
H355 H 0.89374 0.23518 0.06381 0.0
H356 H 0.90975 0.20393 1.00653 0.0
H357 H 0.92352 0.2404 0.98545 0.0
H358 H 0.8535 0.19106 0.31933 0.0
C359 C 0.87715 0.22727 0.2617 0.0
C360 C 0.32374 1.01278 0.98576 0.0
C361 C 0.35156 0.99896 0.9989 0.0
C362 C 0.35534 0.98095 0.07833 0.0
C363 C 0.31027 0.99938 0.14316 0.0
C364 C 0.3025 1.01133 0.05889 0.0
C365 C 0.27244 0.02591 0.06886 0.0
H366 H 0.17839 0.06995 0.4282 0.0
C367 C 0.29188 1.01218 0.21631 0.0
C368 C 0.26599 0.02255 0.17402 0.0
H369 H 0.15199 1.00002 0.24455 0.0
H370 H 0.2006 1.0027 0.16534 0.0
H371 H 0.245 0.04891 0.47978 0.0
H372 H 0.22984 0.10854 0.24524 0.0
H373 H 0.24843 0.12139 0.34746 0.0
H374 H 0.20992 0.11496 0.35179 0.0
H375 H 0.22171 0.08032 0.49861 0.0
H376 H 0.25985 0.08558 0.48166 0.0
C377 C 0.24937 1.00945 1.01134 0.0
C378 C 0.27413 0.0584 0.0389 0.0
C379 C 0.35609 0.06272 0.45247 0.0
C380 C 0.35993 0.09323 0.45935 0.0
C381 C 0.33676 0.11201 0.43364 0.0
C382 C 0.31057 0.10022 0.39782 0.0
C383 C 0.30832 0.06979 0.3849 0.0
C384 C 0.3319 0.05193 0.40475 0.0
C385 C 0.33252 0.02505 0.34371 0.0
C386 C 0.30338 0.02839 0.29248 0.0
C387 C 0.28901 0.05387 0.32209 0.0
C388 C 0.33275 0.9974 0.40568 0.0
C389 C 0.35975 0.02683 0.27757 0.0
C390 C 0.18244 0.0557 0.36956 0.0
C391 C 0.16113 0.03493 0.34316 0.0
C392 C 0.16785 1.01617 0.26721 0.0
C393 C 0.1954 1.01789 0.22061 0.0
C394 C 0.21615 0.03869 0.24957 0.0
C395 C 0.20972 0.05686 0.32384 0.0
C396 C 0.23604 0.07458 0.35276 0.0
C397 C 0.25988 0.05966 0.29488 0.0
C398 C 0.24765 0.04206 0.22525 0.0
C399 C 0.24099 0.07209 0.45906 0.0
C400 C 0.23096 0.10665 0.32241 0.0
H401 H 0.33896 0.96888 0.21379 0.0
H402 H 0.31967 0.02596 0.92427 0.0
H403 H 0.29102 0.07019 0.0802 0.0
H404 H 0.2526 0.06939 0.04977 0.0
H405 H 0.27993 0.06041 0.9639 0.0
H406 H 0.24787 0.98613 0.03391 0.0
H407 H 0.25528 1.01004 0.93616 0.0
H408 H 0.22738 1.0197 0.02002 0.0
H409 H 0.37446 0.04807 0.46496 0.0
H410 H 0.33993 0.13555 0.43355 0.0
H411 H 0.29431 0.11495 0.37051 0.0
H412 H 0.31458 0.99814 0.45769 0.0
H413 H 0.35392 0.99561 0.44374 0.0
H414 H 0.32977 0.9773 0.36388 0.0
H415 H 0.35386 0.03661 0.20915 0.0
H416 H 0.37015 1.00512 0.26764 0.0
H417 H 0.37775 0.04079 0.30422 0.0
H418 H 0.37576 0.96915 0.08856 0.0
C419 C 0.3346 0.98099 0.15063 0.0
C420 C 0.53458 0.31339 0.03103 0.0
C421 C 0.54985 0.33369 0.97211 0.0
C422 C 0.58054 0.33059 0.96174 0.0
C423 C 0.58123 0.29444 0.08408 0.0
C424 C 0.55111 0.29282 0.08423 0.0
C425 C 0.5413 0.26657 0.14378 0.0
H426 H 0.58693 0.16539 0.47783 0.0
C427 C 0.59289 0.27577 0.15775 0.0
C428 C 0.57033 0.25735 0.19092 0.0
H429 H 0.50298 0.16483 0.33939 0.0
H430 H 0.51689 0.20907 0.25169 0.0
H431 H 0.63025 0.18522 0.30478 0.0
H432 H 0.58422 0.22867 0.52248 0.0
H433 H 0.61091 0.25445 0.48822 0.0
H434 H 0.62212 0.21948 0.53598 0.0
H435 H 0.6368 0.18114 0.42804 0.0
H436 H 0.6544 0.20967 0.36115 0.0
C437 C 0.52989 0.24273 0.07732 0.0
C438 C 0.518 0.2762 0.2152 0.0
C439 C 0.67379 0.32206 0.34252 0.0
C440 C 0.68342 0.31646 0.43374 0.0
C441 C 0.68039 0.28776 0.46967 0.0
C442 C 0.66346 0.26686 0.42226 0.0
C443 C 0.64943 0.27489 0.33871 0.0
C444 C 0.65621 0.30146 0.29741 0.0
C445 C 0.63885 0.30711 0.21035 0.0
C446 C 0.61877 0.28015 0.2103 0.0
C447 C 0.62452 0.26196 0.28695 0.0
C448 C 0.66053 0.3084 0.12673 0.0
C449 C 0.62128 0.33602 0.22221 0.0
C450 C 0.57177 0.17424 0.42691 0.0
C451 C 0.54422 0.16102 0.41387 0.0
C452 C 0.52459 0.17423 0.34973 0.0
C453 C 0.53277 0.19962 0.29804 0.0
C454 C 0.56078 0.21216 0.31091 0.0
C455 C 0.57936 0.19965 0.37642 0.0
C456 C 0.60695 0.21717 0.38956 0.0
C457 C 0.60382 0.24006 0.31342 0.0
C458 C 0.57655 0.23766 0.26707 0.0
C459 C 0.63371 0.19728 0.37073 0.0
C460 C 0.60625 0.2306 0.48896 0.0
H461 H 0.61923 0.30785 1.00389 0.0
H462 H 0.51083 0.31379 0.03581 0.0
H463 H 0.52648 0.29464 0.25782 0.0
H464 H 0.51207 0.25808 0.26322 0.0
H465 H 0.49766 0.28363 0.17956 0.0
H466 H 0.54598 0.23885 0.02015 0.0
H467 H 0.50874 0.24957 0.0454 0.0
H468 H 0.52657 0.22146 0.11244 0.0
H469 H 0.67651 0.34355 0.31143 0.0
H470 H 0.68888 0.2823 0.53796 0.0
H471 H 0.66044 0.24591 0.45518 0.0
H472 H 0.65992 0.2878 0.08575 0.0
H473 H 0.68371 0.31161 0.14898 0.0
H474 H 0.65579 0.3273 0.08013 0.0
H475 H 0.60723 0.335 0.28574 0.0
H476 H 0.60689 0.34082 0.16245 0.0
H477 H 0.6362 0.3552 0.22801 0.0
H478 H 0.59281 0.3447 0.91465 0.0
C479 C 0.59611 0.31047 1.01573 0.0
Sm480 Sm 0.04491 1.01109 0.78943 0.0
Sm481 Sm 0.99932 0.02234 0.67823 0.0
C482 C 0.08816 0.99223 0.89648 0.0
C483 C 0.11276 0.97249 0.8772 0.0
C484 C 0.12242 0.95365 0.94745 0.0
C485 C 0.13964 0.92948 0.92498 0.0
C486 C 0.1474 0.92371 0.83147 0.0
C487 C 0.14104 0.94501 0.76335 0.0
C488 C 0.12338 0.96904 0.78579 0.0
C489 C 0.06514 0.03047 0.61569 0.0
C490 C 0.02277 0.95693 0.65763 0.0
C491 C 0.95888 0.04395 0.56513 0.0
C492 C 0.93632 0.06648 0.57672 0.0
C493 C 0.91699 0.07267 0.50377 0.0
C494 C 0.89818 0.09673 0.50959 0.0
C495 C 0.89858 0.11498 0.58842 0.0
C496 C 0.91676 0.1076 0.66381 0.0
C497 C 0.93541 0.08336 0.65819 0.0
C498 C 0.97755 1.00377 0.85074 0.0
C499 C 0.02168 0.07599 0.81333 0.0
O500 O 0.06218 0.97992 0.89526 0.0
O501 O 0.08879 1.01738 0.85306 0.0
O502 O 0.04561 1.01128 0.62944 0.0
O503 O 0.07251 0.04184 0.69433 0.0
O504 O 0.03345 0.96298 0.74091 0.0
O505 O 1.01174 0.97864 0.60844 0.0
O506 O 0.98598 0.05347 0.56717 0.0
O507 O 0.95506 1.02001 0.61376 0.0
O508 O 0.99842 0.02178 0.83826 0.0
O509 O 0.9697 0.99311 0.77128 0.0
O510 O 1.01094 0.06987 0.73023 0.0
O511 O 0.03271 0.05425 0.86215 0.0
H512 H 0.11453 0.95612 0.01831 0.0
H513 H 0.14398 0.91373 0.97992 0.0
H514 H 0.14743 0.94179 0.69141 0.0
H515 H 0.11628 0.98364 0.73049 0.0
H516 H 0.91745 0.05977 0.44059 0.0
H517 H 0.88491 0.10227 0.4495 0.0
H518 H 0.91762 0.12144 0.72486 0.0
H519 H 0.9501 0.07861 0.71555 0.0
Sm520 Sm 0.53503 0.02554 0.81987 0.0
Sm521 Sm 0.51823 0.99095 0.67297 0.0
C522 C 0.55655 0.05478 0.96274 0.0
C523 C 0.57615 0.08001 0.97691 0.0
C524 C 0.60457 0.08084 0.93829 0.0
C525 C 0.62392 0.10336 0.96205 0.0
C526 C 0.61507 0.12532 0.02433 0.0
C527 C 0.58578 0.12597 0.05559 0.0
C528 C 0.56652 0.10332 0.03257 0.0
C529 C 0.52209 0.06079 0.66517 0.0
C530 C 0.58772 1.00149 0.68378 0.0
C531 C 0.49488 0.9747 0.51366 0.0
C532 C 0.48791 0.99591 0.43952 0.0
C533 C 0.50484 0.02178 0.43361 0.0
C534 C 0.49159 0.04825 0.4084 0.0
C535 C 0.46156 0.0489 0.38875 0.0
C536 C 0.4463 0.02235 0.37715 0.0
C537 C 0.45945 0.99585 0.40258 0.0
C538 C 0.5312 0.95503 0.82582 0.0
C539 C 0.46679 1.01183 0.81713 0.0
O540 O 0.56825 0.03051 0.93158 0.0
O541 O 0.53118 0.0607 0.92526 0.0
O542 O 0.53688 0.03737 0.66442 0.0
O543 O 0.51225 0.06513 0.74833 0.0
O544 O 0.58139 1.01001 0.7693 0.0
O545 O 0.56612 0.9965 0.62572 0.0
O546 O 0.52268 0.97088 0.53207 0.0
O547 O 0.47928 0.97848 0.58903 0.0
O548 O 0.51729 0.97897 0.82852 0.0
O549 O 0.53782 0.94897 0.74019 0.0
O550 O 0.4725 1.00819 0.7276 0.0
O551 O 0.48918 1.01345 0.87431 0.0
H552 H 0.61234 0.06342 0.8935 0.0
H553 H 0.64648 0.10228 0.93771 0.0
H554 H 0.57851 0.14276 0.10359 0.0
H555 H 0.54451 0.10332 0.06174 0.0
H556 H 0.52697 0.02246 0.46122 0.0
H557 H 0.50363 0.06854 0.41587 0.0
H558 H 0.423 0.02244 0.36224 0.0
H559 H 0.44597 0.97628 0.4067 0.0
Sm560 Sm 0.50217 0.5156 0.8205 0.0
Sm561 Sm 0.54469 0.50523 0.69608 0.0
C562 C 0.46478 0.53584 0.94628 0.0
C563 C 0.44105 0.55742 0.93966 0.0
C564 C 0.42601 0.56617 0.01985 0.0
C565 C 0.40523 0.58862 1.0148 0.0
C566 C 0.3991 0.60257 0.92921 0.0
C567 C 0.41339 0.5928 0.84822 0.0
C568 C 0.43422 0.57034 0.8534 0.0
C569 C 0.47538 0.50206 0.65131 0.0
C570 C 0.52376 0.57125 0.69127 0.0
C571 C 0.58297 0.48746 0.56851 0.0
C572 C 0.60889 0.46843 0.56713 0.0
C573 C 0.61976 0.45841 0.48186 0.0
C574 C 0.64217 0.43757 0.47982 0.0
C575 C 0.65401 0.42637 0.56325 0.0
C576 C 0.64456 0.43821 0.64849 0.0
C577 C 0.62194 0.45895 0.65046 0.0
C578 C 0.57024 0.51778 0.86921 0.0
C579 C 0.52202 0.44892 0.81857 0.0
O580 O 0.49136 0.54626 0.93537 0.0
O581 O 0.46049 0.51165 0.90032 0.0
O582 O 0.49744 0.51879 0.66099 0.0
O583 O 0.46905 0.49007 0.73061 0.0
O584 O 0.51454 0.56379 0.77549 0.0
O585 O 0.53264 0.55025 0.63608 0.0
O586 O 0.55778 0.47444 0.58373 0.0
O587 O 0.58572 0.51181 0.61479 0.0
O588 O 0.5487 0.50088 0.85546 0.0
O589 O 0.5772 0.53042 0.79143 0.0
O590 O 0.53147 0.4571 0.73533 0.0
O591 O 0.5131 0.46944 0.87603 0.0
H592 H 0.43112 0.55643 0.08686 0.0
H593 H 0.3953 0.59622 0.07898 0.0
H594 H 0.4093 0.6033 0.78167 0.0
H595 H 0.44569 0.56369 0.79067 0.0
H596 H 0.61003 0.46571 0.41697 0.0
H597 H 0.64877 0.42875 0.41299 0.0
H598 H 0.65358 0.43033 0.71369 0.0
H599 H 0.61389 0.46676 0.71701 0.0
Sm600 Sm 1.01129 0.48029 0.84919 0.0
Sm601 Sm 1.02063 0.52568 0.72736 0.0
C602 C 0.99401 0.44083 0.97422 0.0
C603 C 0.97282 0.41667 0.98247 0.0
C604 C 0.94693 0.41632 0.92945 0.0
C605 C 0.92487 0.39579 0.94933 0.0
C606 C 0.92857 0.37547 0.02219 0.0
C607 C 0.95562 0.3742 0.06884 0.0
C608 C 0.9776 0.3947 0.04923 0.0
C609 C 0.02682 0.45826 0.67475 0.0
C610 C 0.95428 0.50253 0.72761 0.0
C611 C 0.03795 0.5644 0.60021 0.0
C612 C 0.05928 0.5884 0.58887 0.0
C613 C 0.08821 0.58577 0.62157 0.0
C614 C 0.10909 0.60721 0.59934 0.0
C615 C 0.10132 0.63161 0.54442 0.0
C616 C 0.07181 0.63528 0.51842 0.0
C617 C 0.05098 0.61375 0.54001 0.0
C618 C 1.00615 0.54789 0.90272 0.0
C619 C 0.07739 0.50376 0.85272 0.0
O620 O 0.98316 0.46733 0.96904 0.0
O621 O 1.0161 0.43674 0.91777 0.0
O622 O 1.00874 0.47882 0.68937 0.0
O623 O 0.03836 0.45014 0.75282 0.0
O624 O 0.96268 0.49165 0.80874 0.0
O625 O 0.97451 0.51369 0.67212 0.0
O626 O 0.04843 0.53775 0.60597 0.0
O627 O 1.01608 0.56904 0.65723 0.0
O628 O 0.02391 0.52716 0.88681 0.0
O629 O 0.99375 0.55563 0.82541 0.0
O630 O 0.06942 0.51553 0.77217 0.0
O631 O 0.05694 0.49193 0.90574 0.0
H632 H 0.94303 0.43297 0.87682 0.0
H633 H 0.90397 0.39755 0.91371 0.0
H634 H 0.95873 0.35889 0.12572 0.0
H635 H 0.99759 0.39447 0.09009 0.0
H636 H 0.09501 0.56657 0.66057 0.0
H637 H 0.13172 0.6037 0.61991 0.0
H638 H 0.06524 0.65401 0.4771 0.0
H639 H 0.02864 0.61633 0.51523 0.0
C640 C 0.11932 0.0583 0.4327 0.0
C641 C 0.1332 0.03256 0.40004 0.0
C642 C 0.09657 0.05732 0.49949 0.0
C643 C 0.08596 0.03056 0.53504 0.0
H644 H 0.12682 0.07961 0.40885 0.0
H645 H 0.08765 0.07778 0.52515 0.0
S646 S 0.11367 0.95665 0.47324 0.0
N647 N 0.13395 0.97926 0.40955 0.0
N648 N 0.09054 0.97755 0.5319 0.0
C649 C 0.0985 1.00456 0.50034 0.0
C650 C 0.12213 1.00552 0.43347 0.0
C651 C 0.55458 0.10942 0.4711 0.0
C652 C 0.53621 0.13438 0.47092 0.0
C653 C 0.54937 0.08538 0.53155 0.0
C654 C 0.52589 0.08544 0.59609 0.0
H655 H 0.5734 0.10864 0.42472 0.0
H656 H 0.56433 0.06693 0.52916 0.0
S657 S 0.47193 0.14583 0.62608 0.0
N658 N 0.49353 0.15744 0.5408 0.0
N659 N 0.48458 0.11328 0.65689 0.0
C660 C 0.50746 0.11032 0.59663 0.0
C661 C 0.51233 0.13442 0.53346 0.0
C662 C 0.43145 0.53704 0.45223 0.0
C663 C 0.40363 0.52317 0.458 0.0
C664 C 0.45504 0.52899 0.51074 0.0
C665 C 0.45205 0.50664 0.57825 0.0
H666 H 0.43468 0.55526 0.40455 0.0
H667 H 0.47533 0.54138 0.50587 0.0
S668 S 0.38502 0.4612 0.61596 0.0
N669 N 0.37548 0.48436 0.5326 0.0
N670 N 0.41958 0.46892 0.64119 0.0
C671 C 0.42499 0.49129 0.58064 0.0
C672 C 0.40095 0.49955 0.52094 0.0
C673 C 1.00365 0.42702 0.43968 0.0
C674 C 1.01299 0.39745 0.44379 0.0
C675 C 1.00949 0.4469 0.51213 0.0
C676 C 0.02532 0.43836 0.5918 0.0
H677 H 0.99016 0.43445 0.3822 0.0
H678 H 1.0004 0.46881 0.5074 0.0
S679 S 0.0582 0.36474 0.63197 0.0
N680 N 0.04118 0.36158 0.53111 0.0
N681 N 0.05306 0.39896 0.66538 0.0
C682 C 0.03693 0.4096 0.59329 0.0
C683 C 0.03065 0.38923 0.51978 0.0
C684 C 0.90529 1.00062 0.98944 0.0
C685 C 0.9108 1.01901 0.06593 0.0
C686 C 0.92747 0.99426 0.92328 0.0
C687 C 0.95615 1.00607 0.93053 0.0
H688 H 0.8832 0.99263 0.97723 0.0
H689 H 0.92159 0.98123 0.86328 0.0
S690 S 0.9831 0.05188 0.12545 0.0
N691 N 0.9481 0.04607 0.15067 0.0
N692 N 0.98938 0.03442 0.0269 0.0
C693 C 0.96242 0.02272 1.01035 0.0
C694 C 0.93992 0.02909 0.07766 0.0
C695 C 0.54032 0.88161 0.9544 0.0
C696 C 0.52219 0.88468 0.03344 0.0
C697 C 0.54395 0.90478 0.88953 0.0
C698 C 0.52967 0.93202 0.90106 0.0
H699 H 0.55063 0.8607 0.94021 0.0
H700 H 0.55736 0.90096 0.82828 0.0
S701 S 0.48108 0.95164 0.09996 0.0
N702 N 0.49069 0.91735 0.12149 0.0
N703 N 0.49788 0.96087 1.0019 0.0
C704 C 0.51252 0.93568 0.9823 0.0
C705 C 0.50864 0.91203 0.0476 0.0
C706 C 0.61465 0.48157 0.06562 0.0
C707 C 0.63788 0.50148 0.08176 0.0
C708 C 0.59218 0.48759 1.00049 0.0
C709 C 0.59215 0.51357 0.94663 0.0
H710 H 0.6141 0.46083 0.10272 0.0
H711 H 0.57531 0.47117 0.98976 0.0
S712 S 0.64738 0.57338 0.96321 0.0
N713 N 0.65868 0.5488 0.04008 0.0
N714 N 0.61712 0.55981 0.91671 0.0
C715 C 0.61489 0.53394 0.96351 0.0
C716 C 0.63748 0.52802 0.03112 0.0
C717 C 0.99764 0.61802 0.04574 0.0
C718 C 0.02275 0.61801 0.10283 0.0
C719 C 0.99126 0.59427 0.98625 0.0
C720 C 1.00976 0.56945 0.98094 0.0
H721 H 0.98418 0.63756 0.04113 0.0
H722 H 0.97264 0.59622 0.93981 0.0
S723 S 0.07683 0.55745 0.12308 0.0
N724 N 0.06501 0.59013 0.15519 0.0
N725 N 0.05294 0.5455 0.04559 0.0
C726 C 0.03369 0.56825 0.0431 0.0
C727 C 0.04021 0.5925 0.10319 0.0
C728 C 0.89476 0.19605 0.55308 0.0
C729 C 0.86835 0.19895 0.50272 0.0
C730 C 0.90287 0.16915 0.59214 0.0
C731 C 0.88489 0.14433 0.58229 0.0
H732 H 0.911 0.21345 0.5527 0.0
H733 H 0.92477 0.16708 0.62035 0.0
S734 S 0.80982 0.14328 0.48636 0.0
N735 N 0.82121 0.17709 0.46691 0.0
N736 N 0.83675 0.12605 0.54018 0.0
C737 C 0.85664 0.14815 0.54556 0.0
C738 C 0.84827 0.17564 0.50602 0.0
C739 C 0.40323 0.10585 0.36878 0.0
C740 C 0.39081 0.1031 0.45863 0.0
C741 C 0.42922 0.0909 0.34612 0.0
C742 C 0.44419 0.07485 0.41453 0.0
H743 H 0.38999 0.1142 0.31191 0.0
H744 H 0.43556 0.089 0.27361 0.0
S745 S 0.42582 0.07023 0.66568 0.0
N746 N 0.3993 0.09036 0.62008 0.0
N747 N 0.44858 0.06294 0.57897 0.0
C748 C 0.43532 0.07763 0.50799 0.0
C749 C 0.40876 0.09251 0.53039 0.0
C750 C 0.70121 0.36769 0.45889 0.0
C751 C 0.68777 0.34223 0.4956 0.0
C752 C 0.69316 0.39561 0.49012 0.0
C753 C 0.67156 0.39897 0.55961 0.0
H754 H 0.71512 0.36626 0.3977 0.0
H755 H 0.70146 0.41462 0.45278 0.0
S756 S 0.63604 0.33935 0.69648 0.0
N757 N 0.65676 0.32228 0.61945 0.0
N758 N 0.64168 0.37462 0.67775 0.0
C759 C 0.66171 0.37375 0.60722 0.0
C760 C 0.66992 0.34532 0.57546 0.0
C761 C 0.17459 0.66977 0.51425 0.0
C762 C 0.17869 0.66857 0.41693 0.0
C763 C 0.14829 0.6602 0.55586 0.0
C764 C 0.12486 0.6498 0.50158 0.0
H765 H 0.19264 0.67587 0.55919 0.0
H766 H 0.14699 0.65909 0.63116 0.0
S767 S 0.1217 0.64738 0.24364 0.0
N768 N 0.1549 0.65977 0.26714 0.0
N769 N 0.10561 0.6428 0.34571 0.0
C770 C 0.12721 0.65191 0.40423 0.0
C771 C 0.15406 0.66119 0.36172 0.0
C772 C 0.15961 0.84702 0.89135 0.0
C773 C 0.13515 0.83522 0.84481 0.0
C774 C 0.16947 0.87539 0.87025 0.0
C775 C 0.15407 0.89285 0.80561 0.0
H776 H 0.16817 0.83654 0.95344 0.0
H777 H 0.18525 0.88541 0.91668 0.0
S778 S 0.10047 0.86526 0.63207 0.0
N779 N 0.10552 0.83749 0.70451 0.0
N780 N 0.12215 0.89177 0.66928 0.0
C781 C 0.13526 0.87835 0.74297 0.0
C782 C 0.12604 0.8491 0.76232 0.0
C783 C 0.68533 0.16748 0.06832 0.0
C784 C 0.69052 0.16096 0.16289 0.0
C785 C 0.65949 0.15806 0.02411 0.0
C786 C 0.63787 0.14226 0.07353 0.0
H787 H 0.70224 0.17806 0.02671 0.0
H788 H 0.65721 0.16158 0.94981 0.0
S789 S 0.63976 0.1204 0.32236 0.0
N790 N 0.67072 0.13845 0.30454 0.0
N791 N 0.62242 0.12165 0.22193 0.0
C792 C 0.64172 0.13751 0.16919 0.0
C793 C 0.66799 0.14667 0.21382 0.0
C794 C 0.38636 0.68361 0.91892 0.0
C795 C 0.3643 0.68703 0.98712 0.0
C796 C 0.39528 0.65567 0.89059 0.0
C797 C 0.38218 0.63036 0.92888 0.0
H798 H 0.39964 0.70217 0.89706 0.0
H799 H 0.41477 0.65399 0.84733 0.0
S800 S 0.3168 0.62819 0.08267 0.0
N801 N 0.32456 0.66344 0.07245 0.0
N802 N 0.34113 0.61071 0.01803 0.0
C803 C 0.35682 0.63375 0.98386 0.0
C804 C 0.34778 0.66222 1.01283 0.0
C805 C 0.86757 0.3672 0.19516 0.0
C806 C 0.8467 0.3493 0.15024 0.0
C807 C 0.89474 0.37343 0.15526 0.0
C808 C 0.9023 0.36271 0.06733 0.0
H809 H 0.86245 0.37824 0.25954 0.0
H810 H 0.90918 0.38858 0.19097 0.0
S811 S 0.85763 0.31285 0.92219 0.0
N812 N 0.83697 0.3187 1.01526 0.0
N813 N 0.88818 0.33189 0.93763 0.0
C814 C 0.88255 0.34391 0.02212 0.0
C815 C 0.85475 0.3369 0.0641 0.0
C816 C 0.02732 0.13911 0.98947 0.0
C817 C 1.01306 0.16266 0.94485 0.0
C818 C 0.03055 0.11159 0.94568 0.0
C819 C 1.01975 0.10629 0.85495 0.0
H820 H 0.03497 0.14159 0.06035 0.0
H821 H 0.04101 0.0941 0.98457 0.0
S822 S 0.98265 0.16167 0.70564 0.0
N823 N 0.98921 0.17933 0.80352 0.0
N824 N 0.99568 0.1282 0.72059 0.0
C825 C 1.00639 0.13012 0.80852 0.0
C826 C 1.00291 0.15803 0.85356 0.0
C827 C 0.38388 0.99643 0.85257 0.0
C828 C 0.37872 1.00671 0.94371 0.0
C829 C 0.41194 0.99933 0.80944 0.0
C830 C 0.43597 1.01229 0.85627 0.0
H831 H 0.36658 0.98495 0.81609 0.0
H832 H 0.41515 0.99018 0.74071 0.0
S833 S 0.4328 0.04535 0.09245 0.0
N834 N 0.39934 0.03246 0.0756 0.0
N835 N 0.45136 0.03766 0.99664 0.0
C836 C 0.43041 0.02385 0.94559 0.0
C837 C 0.40206 0.02112 0.9886 0.0
C838 C 0.52266 0.38169 0.98068 0.0
C839 C 0.53573 0.35971 0.92596 0.0
C840 C 0.51708 0.40997 0.94421 0.0
C841 C 0.52435 0.41758 0.85131 0.0
H842 H 0.51857 0.37767 0.05403 0.0
H843 H 0.50822 0.42636 0.99081 0.0
S844 S 0.55552 0.36665 0.6756 0.0
N845 N 0.55304 0.34662 0.77148 0.0
N846 N 0.54276 0.39937 0.7032 0.0
C847 C 0.53563 0.39513 0.79428 0.0
C848 C 0.54123 0.36639 0.83143 0.0
C849 C 0.15781 0.52851 0.88019 0.0
C850 C 0.16689 0.51493 0.96403 0.0
C851 C 0.12944 0.52401 0.84289 0.0
C852 C 0.10854 0.50599 0.88816 0.0
H853 H 0.17258 0.5434 0.84411 0.0
H854 H 0.1236 0.53556 0.77955 0.0
S855 S 0.12133 0.46465 0.10864 0.0
N856 N 0.15264 0.48209 0.08976 0.0
N857 N 0.09975 0.47352 0.02071 0.0
C858 C 0.11768 0.4916 0.97071 0.0
C859 C 0.14664 0.49604 1.00817 0.0
C860 C 0.03538 0.8982 0.47263 0.0
C861 C 0.02764 0.87124 0.51598 0.0
C862 C 0.03375 0.92524 0.51925 0.0
C863 C 0.02576 0.92714 0.61369 0.0
H864 H 0.04291 0.89881 0.40113 0.0
H865 H 0.0391 0.94501 0.48051 0.0
S866 S 1.00574 0.86413 0.76563 0.0
N867 N 1.01218 0.84901 0.66323 0.0
N868 N 1.01165 0.89963 0.75171 0.0
C869 C 1.01954 0.9006 0.66044 0.0
C870 C 1.02001 0.87285 0.61183 0.0
C871 C 0.67123 1.01237 0.6689 0.0
C872 C 0.67858 1.00205 0.57919 0.0
C873 C 0.64222 1.01092 0.70385 0.0
C874 C 0.61905 0.99939 0.65031 0.0
H875 H 0.68786 0.02296 0.71086 0.0
H876 H 0.63777 1.02016 0.77179 0.0
S877 S 0.62692 0.96738 0.41356 0.0
N878 N 0.66048 0.97833 0.43995 0.0
N879 N 0.60625 0.97536 0.50473 0.0
C880 C 0.62644 0.9876 0.5623 0.0
C881 C 0.65605 0.98893 0.52714 0.0
C882 C 0.50018 0.6517 0.66787 0.0
C883 C 0.50935 0.65964 0.57691 0.0
C884 C 0.50605 0.62372 0.706 0.0
C885 C 0.5213 0.60221 0.65497 0.0
H886 H 0.48712 0.66684 0.70856 0.0
H887 H 0.49738 0.61856 0.77453 0.0
S888 S 0.55254 0.61261 0.41701 0.0
N889 N 0.53623 0.64412 0.4396 0.0
N890 N 0.54765 0.59198 0.51067 0.0
C891 C 0.53212 0.61048 0.56605 0.0
C892 C 0.52615 0.63902 0.52742 0.0
C893 C 0.88606 0.50027 0.56899 0.0
C894 C 0.86295 0.49228 0.62987 0.0
C895 C 0.91515 0.5044 0.60138 0.0
C896 C 0.92266 0.50054 0.6962 0.0
H897 H 0.88198 0.50191 0.49487 0.0
H898 H 0.93212 0.50958 0.55076 0.0
S899 S 0.8697 0.48353 0.88666 0.0
N900 N 0.84929 0.48391 0.79179 0.0
N901 N 0.90355 0.49081 0.85159 0.0
C902 C 0.89947 0.49397 0.75836 0.0
C903 C 0.86986 0.49011 0.72561 0.0
loop_
_geom_bond_atom_site_label_1
_geom_bond_atom_site_label_2
_geom_bond_distance
_geom_bond_site_symmetry_2
_ccdc_geom_bond_type
C0 C1 1.391 . S
C0 C4 1.391 . S
C0 H42 0.948 . S
C1 C0 1.391 . S
C1 C2 1.391 . S
C2 C1 1.391 . S
C2 H58 0.947 . S
C2 C59 1.392 . S
C3 C4 1.391 . S
C3 C7 1.397 . S
C3 C59 1.419 . S
C4 C0 1.391 . S
C4 C3 1.391 . S
C4 C5 1.399 . S
C5 C4 1.399 . S
C5 C8 1.396 . S
C5 C17 1.453 . S
C5 C18 1.684 . S
H6 C30 0.948 . S
C7 C3 1.397 . S
C7 C8 1.394 . S
C7 C26 1.723 . S
C8 C5 1.396 . S
C8 C7 1.394 . S
C8 C38 1.723 . S
H9 C32 0.947 . S
H10 C33 0.948 . S
H11 C39 0.982 . S
H12 C40 0.979 . S
H13 C40 0.980 . S
H14 C40 0.983 . S
H15 C39 0.979 . S
H16 C39 0.977 . S
C17 C5 1.453 . S
C17 H46 0.982 . S
C17 H47 0.979 . S
C17 H48 0.977 . S
C18 C5 1.684 . S
C18 H43 0.979 . S
C18 H44 0.980 . S
C18 H45 0.983 . S
C19 C20 1.391 . S
C19 C24 1.391 . S
C19 H49 0.948 . S
C20 C19 1.391 . S
C20 C21 1.391 . S
C21 C20 1.391 . S
C21 C22 1.392 . S
C21 H50 0.947 . S
C22 C21 1.392 . S
C22 C23 1.419 . S
C22 H51 0.948 . S
C23 C22 1.419 . S
C23 C24 1.391 . S
C23 C27 1.397 . S
C24 C19 1.391 . S
C24 C23 1.391 . S
C24 C25 1.399 . S
C25 C24 1.399 . S
C25 C26 1.396 . S
C25 C28 1.453 . S
C25 C29 1.684 . S
C26 C7 1.723 . S
C26 C25 1.396 . S
C26 C27 1.394 . S
C27 C23 1.397 . S
C27 C26 1.394 . S
C27 C37 1.723 . S
C28 C25 1.453 . S
C28 H52 0.982 . S
C28 H53 0.979 . S
C28 H54 0.977 . S
C29 C25 1.684 . S
C29 H55 0.979 . S
C29 H56 0.980 . S
C29 H57 0.983 . S
C30 H6 0.948 . S
C30 C31 1.391 . S
C30 C35 1.391 . S
C31 C30 1.391 . S
C31 C32 1.391 . S
C32 H9 0.947 . S
C32 C31 1.391 . S
C32 C33 1.392 . S
C33 H10 0.948 . S
C33 C32 1.392 . S
C33 C34 1.419 . S
C34 C33 1.419 . S
C34 C35 1.391 . S
C34 C38 1.397 . S
C35 C30 1.391 . S
C35 C34 1.391 . S
C35 C36 1.399 . S
C36 C35 1.399 . S
C36 C37 1.396 . S
C36 C39 1.453 . S
C36 C40 1.684 . S
C37 C27 1.723 . S
C37 C36 1.396 . S
C37 C38 1.394 . S
C38 C8 1.723 . S
C38 C34 1.397 . S
C38 C37 1.394 . S
C39 H11 0.982 . S
C39 H15 0.979 . S
C39 H16 0.977 . S
C39 C36 1.453 . S
C40 H12 0.979 . S
C40 H13 0.980 . S
C40 H14 0.983 . S
C40 C36 1.684 . S
H41 C59 0.948 . S
H42 C0 0.948 . S
H43 C18 0.979 . S
H44 C18 0.980 . S
H45 C18 0.983 . S
H46 C17 0.982 . S
H47 C17 0.979 . S
H48 C17 0.977 . S
H49 C19 0.948 . S
H50 C21 0.947 . S
H51 C22 0.948 . S
H52 C28 0.982 . S
H53 C28 0.979 . S
H54 C28 0.977 . S
H55 C29 0.979 . S
H56 C29 0.980 . S
H57 C29 0.983 . S
H58 C2 0.947 . S
C59 C2 1.392 . S
C59 C3 1.419 . S
C59 H41 0.948 . S
C60 C61 1.391 . S
C60 C64 1.391 . S
C60 H102 0.948 . S
C61 C60 1.391 . S
C61 C62 1.391 . S
C62 C61 1.391 . S
C62 H118 0.947 . S
C62 C119 1.392 . S
C63 C64 1.391 . S
C63 C67 1.397 1_655 S
C63 C119 1.419 . S
C64 C60 1.391 . S
C64 C63 1.391 . S
C64 C65 1.399 . S
C65 C64 1.399 . S
C65 C68 1.396 1_655 S
C65 C77 1.453 1_655 S
C65 C78 1.684 . S
H66 C90 0.948 . S
C67 C63 1.397 1_455 S
C67 C68 1.394 . S
C67 C86 1.723 . S
C68 C65 1.396 1_455 S
C68 C67 1.394 . S
C68 C98 1.723 . S
H69 C92 0.947 . S
H70 C93 0.948 . S
H71 C99 0.982 . S
H72 C100 0.979 . S
H73 C100 0.980 . S
H74 C100 0.983 . S
H75 C99 0.979 . S
H76 C99 0.977 . S
C77 C65 1.453 1_455 S
C77 H106 0.982 . S
C77 H107 0.979 . S
C77 H108 0.977 . S
C78 C65 1.684 . S
C78 H103 0.979 . S
C78 H104 0.980 . S
C78 H105 0.983 . S
C79 C80 1.391 . S
C79 C84 1.391 . S
C79 H109 0.948 . S
C80 C79 1.391 . S
C80 C81 1.391 . S
C81 C80 1.391 . S
C81 C82 1.392 . S
C81 H110 0.947 . S
C82 C81 1.392 . S
C82 C83 1.419 . S
C82 H111 0.948 . S
C83 C82 1.419 . S
C83 C84 1.391 . S
C83 C87 1.397 1_655 S
C84 C79 1.391 . S
C84 C83 1.391 . S
C84 C85 1.399 . S
C85 C84 1.399 . S
C85 C86 1.396 1_655 S
C85 C88 1.453 1_655 S
C85 C89 1.684 . S
C86 C67 1.723 . S
C86 C85 1.396 1_455 S
C86 C87 1.394 . S
C87 C83 1.397 1_455 S
C87 C86 1.394 . S
C87 C97 1.723 . S
C88 C85 1.453 1_455 S
C88 H112 0.982 . S
C88 H113 0.979 . S
C88 H114 0.977 . S
C89 C85 1.684 . S
C89 H115 0.979 . S
C89 H116 0.980 . S
C89 H117 0.983 . S
C90 H66 0.948 . S
C90 C91 1.391 . S
C90 C95 1.391 . S
C91 C90 1.391 . S
C91 C92 1.391 . S
C92 H69 0.947 . S
C92 C91 1.391 . S
C92 C93 1.392 . S
C93 H70 0.948 . S
C93 C92 1.392 . S
C93 C94 1.419 . S
C94 C93 1.419 . S
C94 C95 1.391 . S
C94 C98 1.397 1_655 S
C95 C90 1.391 . S
C95 C94 1.391 . S
C95 C96 1.399 . S
C96 C95 1.399 . S
C96 C97 1.396 1_655 S
C96 C99 1.453 1_655 S
C96 C100 1.684 . S
C97 C87 1.723 . S
C97 C96 1.396 1_455 S
C97 C98 1.394 . S
C98 C68 1.723 . S
C98 C94 1.397 1_455 S
C98 C97 1.394 . S
C99 H71 0.982 . S
C99 H75 0.979 . S
C99 H76 0.977 . S
C99 C96 1.453 1_455 S
C100 H72 0.979 . S
C100 H73 0.980 . S
C100 H74 0.983 . S
C100 C96 1.684 . S
H101 C119 0.948 . S
H102 C60 0.948 . S
H103 C78 0.979 . S
H104 C78 0.980 . S
H105 C78 0.983 . S
H106 C77 0.982 . S
H107 C77 0.979 . S
H108 C77 0.977 . S
H109 C79 0.948 . S
H110 C81 0.947 . S
H111 C82 0.948 . S
H112 C88 0.982 . S
H113 C88 0.979 . S
H114 C88 0.977 . S
H115 C89 0.979 . S
H116 C89 0.980 . S
H117 C89 0.983 . S
H118 C62 0.947 . S
C119 C62 1.392 . S
C119 C63 1.419 . S
C119 H101 0.948 . S
C120 C121 1.391 . S
C120 C124 1.391 . S
C120 H162 0.948 . S
C121 C120 1.391 . S
C121 C122 1.391 . S
C122 C121 1.391 . S
C122 H178 0.947 . S
C122 C179 1.392 . S
C123 C124 1.391 . S
C123 C127 1.397 1_565 S
C123 C179 1.419 . S
C124 C120 1.391 . S
C124 C123 1.391 . S
C124 C125 1.399 . S
C125 C124 1.399 . S
C125 C128 1.396 1_565 S
C125 C137 1.453 1_565 S
C125 C138 1.684 . S
H126 C150 0.948 . S
C127 C123 1.397 1_545 S
C127 C128 1.394 . S
C127 C146 1.723 . S
C128 C125 1.396 1_545 S
C128 C127 1.394 . S
C128 C158 1.723 . S
H129 C152 0.947 . S
H130 C153 0.948 . S
H131 C159 0.982 . S
H132 C160 0.979 . S
H133 C160 0.980 . S
H134 C160 0.983 . S
H135 C159 0.979 . S
H136 C159 0.977 . S
C137 C125 1.453 1_545 S
C137 H166 0.982 . S
C137 H167 0.979 . S
C137 H168 0.977 . S
C138 C125 1.684 . S
C138 H163 0.979 . S
C138 H164 0.980 . S
C138 H165 0.983 . S
C139 C140 1.391 . S
C139 C144 1.391 . S
C139 H169 0.948 . S
C140 C139 1.391 . S
C140 C141 1.391 . S
C141 C140 1.391 . S
C141 C142 1.392 . S
C141 H170 0.947 . S
C142 C141 1.392 . S
C142 C143 1.419 . S
C142 H171 0.948 . S
C143 C142 1.419 . S
C143 C144 1.391 . S
C143 C147 1.397 1_565 S
C144 C139 1.391 . S
C144 C143 1.391 . S
C144 C145 1.399 . S
C145 C144 1.399 . S
C145 C146 1.396 1_565 S
C145 C148 1.453 1_565 S
C145 C149 1.684 . S
C146 C127 1.723 . S
C146 C145 1.396 1_545 S
C146 C147 1.394 . S
C147 C143 1.397 1_545 S
C147 C146 1.394 . S
C147 C157 1.723 . S
C148 C145 1.453 1_545 S
C148 H172 0.982 . S
C148 H173 0.979 . S
C148 H174 0.977 . S
C149 C145 1.684 . S
C149 H175 0.979 . S
C149 H176 0.980 . S
C149 H177 0.983 . S
C150 H126 0.948 . S
C150 C151 1.391 . S
C150 C155 1.391 . S
C151 C150 1.391 . S
C151 C152 1.391 . S
C152 H129 0.947 . S
C152 C151 1.391 . S
C152 C153 1.392 . S
C153 H130 0.948 . S
C153 C152 1.392 . S
C153 C154 1.419 . S
C154 C153 1.419 . S
C154 C155 1.391 . S
C154 C158 1.397 1_565 S
C155 C150 1.391 . S
C155 C154 1.391 . S
C155 C156 1.399 . S
C156 C155 1.399 . S
C156 C157 1.396 1_565 S
C156 C159 1.453 1_565 S
C156 C160 1.684 . S
C157 C147 1.723 . S
C157 C156 1.396 1_545 S
C157 C158 1.394 . S
C158 C128 1.723 . S
C158 C154 1.397 1_545 S
C158 C157 1.394 . S
C159 H131 0.982 . S
C159 H135 0.979 . S
C159 H136 0.977 . S
C159 C156 1.453 1_545 S
C160 H132 0.979 . S
C160 H133 0.980 . S
C160 H134 0.983 . S
C160 C156 1.684 . S
H161 C179 0.948 . S
H162 C120 0.948 . S
H163 C138 0.979 . S
H164 C138 0.980 . S
H165 C138 0.983 . S
H166 C137 0.982 . S
H167 C137 0.979 . S
H168 C137 0.977 . S
H169 C139 0.948 . S
H170 C141 0.947 . S
H171 C142 0.948 . S
H172 C148 0.982 . S
H173 C148 0.979 . S
H174 C148 0.977 . S
H175 C149 0.979 . S
H176 C149 0.980 . S
H177 C149 0.983 . S
H178 C122 0.947 . S
C179 C122 1.392 . S
C179 C123 1.419 . S
C179 H161 0.948 . S
C180 C181 1.391 . S
C180 C184 1.391 . S
C180 H222 0.948 . S
C181 C180 1.391 . S
C181 C182 1.391 . S
C182 C181 1.391 . S
C182 H238 0.947 . S
C182 C239 1.392 . S
C183 C184 1.391 . S
C183 C187 1.397 . S
C183 C239 1.419 . S
C184 C180 1.391 . S
C184 C183 1.391 . S
C184 C185 1.399 . S
C185 C184 1.399 . S
C185 C188 1.396 . S
C185 C197 1.453 . S
C185 C198 1.684 . S
H186 C210 0.948 . S
C187 C183 1.397 . S
C187 C188 1.394 . S
C187 C206 1.723 . S
C188 C185 1.396 . S
C188 C187 1.394 . S
C188 C218 1.723 . S
H189 C212 0.947 . S
H190 C213 0.948 . S
H191 C219 0.982 . S
H192 C220 0.979 . S
H193 C220 0.980 . S
H194 C220 0.983 . S
H195 C219 0.979 . S
H196 C219 0.977 . S
C197 C185 1.453 . S
C197 H226 0.982 . S
C197 H227 0.979 . S
C197 H228 0.977 . S
C198 C185 1.684 . S
C198 H223 0.979 . S
C198 H224 0.980 . S
C198 H225 0.983 . S
C199 C200 1.391 . S
C199 C204 1.391 . S
C199 H229 0.948 . S
C200 C199 1.391 . S
C200 C201 1.391 . S
C201 C200 1.391 . S
C201 C202 1.392 . S
C201 H230 0.947 . S
C202 C201 1.392 . S
C202 C203 1.419 . S
C202 H231 0.948 . S
C203 C202 1.419 . S
C203 C204 1.391 . S
C203 C207 1.397 . S
C204 C199 1.391 . S
C204 C203 1.391 . S
C204 C205 1.399 . S
C205 C204 1.399 . S
C205 C206 1.396 . S
C205 C208 1.453 . S
C205 C209 1.684 . S
C206 C187 1.723 . S
C206 C205 1.396 . S
C206 C207 1.394 . S
C207 C203 1.397 . S
C207 C206 1.394 . S
C207 C217 1.723 . S
C208 C205 1.453 . S
C208 H232 0.982 . S
C208 H233 0.979 . S
C208 H234 0.977 . S
C209 C205 1.684 . S
C209 H235 0.979 . S
C209 H236 0.980 . S
C209 H237 0.983 . S
C210 H186 0.948 . S
C210 C211 1.391 . S
C210 C215 1.391 . S
C211 C210 1.391 . S
C211 C212 1.391 . S
C212 H189 0.947 . S
C212 C211 1.391 . S
C212 C213 1.392 . S
C213 H190 0.948 . S
C213 C212 1.392 . S
C213 C214 1.419 . S
C214 C213 1.419 . S
C214 C215 1.391 . S
C214 C218 1.397 . S
C215 C210 1.391 . S
C215 C214 1.391 . S
C215 C216 1.399 . S
C216 C215 1.399 . S
C216 C217 1.396 . S
C216 C219 1.453 . S
C216 C220 1.684 . S
C217 C207 1.723 . S
C217 C216 1.396 . S
C217 C218 1.394 . S
C218 C188 1.723 . S
C218 C214 1.397 . S
C218 C217 1.394 . S
C219 H191 0.982 . S
C219 H195 0.979 . S
C219 H196 0.977 . S
C219 C216 1.453 . S
C220 H192 0.979 . S
C220 H193 0.980 . S
C220 H194 0.983 . S
C220 C216 1.684 . S
H221 C239 0.948 . S
H222 C180 0.948 . S
H223 C198 0.979 . S
H224 C198 0.980 . S
H225 C198 0.983 . S
H226 C197 0.982 . S
H227 C197 0.979 . S
H228 C197 0.977 . S
H229 C199 0.948 . S
H230 C201 0.947 . S
H231 C202 0.948 . S
H232 C208 0.982 . S
H233 C208 0.979 . S
H234 C208 0.977 . S
H235 C209 0.979 . S
H236 C209 0.980 . S
H237 C209 0.983 . S
H238 C182 0.947 . S
C239 C182 1.392 . S
C239 C183 1.419 . S
C239 H221 0.948 . S
C240 C241 1.391 . S
C240 C244 1.391 . S
C240 H282 0.948 . S
C241 C240 1.391 . S
C241 C242 1.391 . S
C242 C241 1.391 . S
C242 H298 0.947 . S
C242 C299 1.392 . S
C243 C244 1.391 . S
C243 C247 1.397 . S
C243 C299 1.419 . S
C244 C240 1.391 . S
C244 C243 1.391 . S
C244 C245 1.399 1_554 S
C245 C244 1.399 1_556 S
C245 C248 1.396 . S
C245 C257 1.453 . S
C245 C258 1.684 . S
H246 C270 0.948 . S
C247 C243 1.397 . S
C247 C248 1.394 1_554 S
C247 C266 1.723 . S
C248 C245 1.396 . S
C248 C247 1.394 1_556 S
C248 C278 1.723 . S
H249 C272 0.947 . S
H250 C273 0.948 . S
H251 C279 0.982 . S
H252 C280 0.979 . S
H253 C280 0.980 1_554 S
H254 C280 0.983 . S
H255 C279 0.979 . S
H256 C279 0.977 1_554 S
C257 C245 1.453 . S
C257 H286 0.982 . S
C257 H287 0.979 . S
C257 H288 0.977 . S
C258 C245 1.684 . S
C258 H283 0.979 . S
C258 H284 0.980 . S
C258 H285 0.983 . S
C259 C260 1.391 . S
C259 C264 1.391 . S
C259 H289 0.948 . S
C260 C259 1.391 . S
C260 C261 1.391 . S
C261 C260 1.391 . S
C261 C262 1.392 . S
C261 H290 0.947 . S
C262 C261 1.392 . S
C262 C263 1.419 . S
C262 H291 0.948 . S
C263 C262 1.419 . S
C263 C264 1.391 . S
C263 C267 1.397 . S
C264 C259 1.391 . S
C264 C263 1.391 . S
C264 C265 1.399 . S
C265 C264 1.399 . S
C265 C266 1.396 . S
C265 C268 1.453 . S
C265 C269 1.684 . S
C266 C247 1.723 . S
C266 C265 1.396 . S
C266 C267 1.394 . S
C267 C263 1.397 . S
C267 C266 1.394 . S
C267 C277 1.723 1_554 S
C268 C265 1.453 . S
C268 H292 0.982 . S
C268 H293 0.979 . S
C268 H294 0.977 . S
C269 C265 1.684 . S
C269 H295 0.979 . S
C269 H296 0.980 . S
C269 H297 0.983 . S
C270 H246 0.948 . S
C270 C271 1.391 . S
C270 C275 1.391 . S
C271 C270 1.391 . S
C271 C272 1.391 . S
C272 H249 0.947 . S
C272 C271 1.391 . S
C272 C273 1.392 . S
C273 H250 0.948 . S
C273 C272 1.392 . S
C273 C274 1.419 . S
C274 C273 1.419 . S
C274 C275 1.391 . S
C274 C278 1.397 . S
C275 C270 1.391 . S
C275 C274 1.391 . S
C275 C276 1.399 . S
C276 C275 1.399 . S
C276 C277 1.396 . S
C276 C279 1.453 . S
C276 C280 1.684 . S
C277 C267 1.723 1_556 S
C277 C276 1.396 . S
C277 C278 1.394 . S
C278 C248 1.723 . S
C278 C274 1.397 . S
C278 C277 1.394 . S
C279 H251 0.982 . S
C279 H255 0.979 . S
C279 H256 0.977 1_556 S
C279 C276 1.453 . S
C280 H252 0.979 . S
C280 H253 0.980 1_556 S
C280 H254 0.983 . S
C280 C276 1.684 . S
H281 C299 0.948 . S
H282 C240 0.948 . S
H283 C258 0.979 . S
H284 C258 0.980 . S
H285 C258 0.983 . S
H286 C257 0.982 . S
H287 C257 0.979 . S
H288 C257 0.977 . S
H289 C259 0.948 . S
H290 C261 0.947 . S
H291 C262 0.948 . S
H292 C268 0.982 . S
H293 C268 0.979 . S
H294 C268 0.977 . S
H295 C269 0.979 . S
H296 C269 0.980 . S
H297 C269 0.983 . S
H298 C242 0.947 . S
C299 C242 1.392 . S
C299 C243 1.419 . S
C299 H281 0.948 . S
C300 C301 1.391 . S
C300 C304 1.391 . S
C300 H342 0.948 . S
C301 C300 1.391 . S
C301 C302 1.391 . S
C302 C301 1.391 . S
C302 H358 0.947 . S
C302 C359 1.392 . S
C303 C304 1.391 . S
C303 C307 1.396 1_655 S
C303 C359 1.419 . S
C304 C300 1.391 . S
C304 C303 1.391 . S
C304 C305 1.399 . S
C305 C304 1.399 . S
C305 C308 1.396 1_655 S
C305 C317 1.453 1_655 S
C305 C318 1.684 . S
H306 C330 0.948 . S
C307 C303 1.396 1_455 S
C307 C308 1.395 . S
C307 C326 1.723 1_554 S
C308 C305 1.396 1_455 S
C308 C307 1.395 . S
C308 C338 1.723 . S
H309 C332 0.947 . S
H310 C333 0.948 . S
H311 C339 0.982 . S
H312 C340 0.979 . S
H313 C340 0.980 . S
H314 C340 0.983 . S
H315 C339 0.979 . S
H316 C339 0.977 . S
C317 C305 1.453 1_455 S
C317 H346 0.982 . S
C317 H347 0.979 . S
C317 H348 0.977 . S
C318 C305 1.684 . S
C318 H343 0.979 . S
C318 H344 0.980 . S
C318 H345 0.983 . S
C319 C320 1.391 . S
C319 C324 1.391 . S
C319 H349 0.948 . S
C320 C319 1.391 . S
C320 C321 1.391 . S
C321 C320 1.391 . S
C321 C322 1.392 . S
C321 H350 0.947 . S
C322 C321 1.392 . S
C322 C323 1.419 . S
C322 H351 0.948 . S
C323 C322 1.419 . S
C323 C324 1.391 . S
C323 C327 1.396 1_655 S
C324 C319 1.391 . S
C324 C323 1.391 . S
C324 C325 1.399 . S
C325 C324 1.399 . S
C325 C326 1.396 1_655 S
C325 C328 1.453 1_655 S
C325 C329 1.684 . S
C326 C307 1.723 1_556 S
C326 C325 1.396 1_455 S
C326 C327 1.395 . S
C327 C323 1.396 1_455 S
C327 C326 1.395 . S
C327 C337 1.723 . S
C328 C325 1.453 1_455 S
C328 H352 0.982 . S
C328 H353 0.979 . S
C328 H354 0.977 1_556 S
C329 C325 1.684 . S
C329 H355 0.979 . S
C329 H356 0.980 1_556 S
C329 H357 0.983 . S
C330 H306 0.948 . S
C330 C331 1.391 . S
C330 C335 1.391 . S
C331 C330 1.391 . S
C331 C332 1.391 . S
C332 H309 0.947 . S
C332 C331 1.391 . S
C332 C333 1.392 . S
C333 H310 0.948 . S
C333 C332 1.392 . S
C333 C334 1.419 . S
C334 C333 1.419 . S
C334 C335 1.391 . S
C334 C338 1.396 1_655 S
C335 C330 1.391 . S
C335 C334 1.391 . S
C335 C336 1.399 1_554 S
C336 C335 1.399 1_556 S
C336 C337 1.396 1_655 S
C336 C339 1.453 1_655 S
C336 C340 1.684 . S
C337 C327 1.723 . S
C337 C336 1.396 1_455 S
C337 C338 1.395 1_556 S
C338 C308 1.723 . S
C338 C334 1.396 1_455 S
C338 C337 1.395 1_554 S
C339 H311 0.982 . S
C339 H315 0.979 . S
C339 H316 0.977 . S
C339 C336 1.453 1_455 S
C340 H312 0.979 . S
C340 H313 0.980 . S
C340 H314 0.983 . S
C340 C336 1.684 . S
H341 C359 0.948 . S
H342 C300 0.948 . S
H343 C318 0.979 . S
H344 C318 0.980 . S
H345 C318 0.983 . S
H346 C317 0.982 . S
H347 C317 0.979 . S
H348 C317 0.977 . S
H349 C319 0.948 . S
H350 C321 0.947 . S
H351 C322 0.948 . S
H352 C328 0.982 . S
H353 C328 0.979 . S
H354 C328 0.977 1_554 S
H355 C329 0.979 . S
H356 C329 0.980 1_554 S
H357 C329 0.983 . S
H358 C302 0.947 . S
C359 C302 1.392 . S
C359 C303 1.419 . S
C359 H341 0.948 . S
C360 C361 1.391 . S
C360 C364 1.391 . S
C360 H402 0.948 . S
C361 C360 1.391 . S
C361 C362 1.391 . S
C362 C361 1.391 . S
C362 H418 0.947 . S
C362 C419 1.392 . S
C363 C364 1.391 . S
C363 C367 1.397 1_545 S
C363 C419 1.419 . S
C364 C360 1.391 . S
C364 C363 1.391 . S
C364 C365 1.399 . S
C365 C364 1.399 . S
C365 C368 1.396 1_545 S
C365 C377 1.453 1_545 S
C365 C378 1.684 . S
H366 C390 0.948 . S
C367 C363 1.397 1_565 S
C367 C368 1.394 . S
C367 C386 1.723 1_556 S
C368 C365 1.396 1_565 S
C368 C367 1.394 . S
C368 C398 1.723 1_556 S
H369 C392 0.947 1_556 S
H370 C393 0.948 . S
H371 C399 0.982 . S
H372 C400 0.979 . S
H373 C400 0.980 . S
H374 C400 0.983 . S
H375 C399 0.979 . S
H376 C399 0.977 . S
C377 C365 1.453 1_565 S
C377 H406 0.982 . S
C377 H407 0.979 . S
C377 H408 0.977 . S
C378 C365 1.684 . S
C378 H403 0.979 . S
C378 H404 0.980 . S
C378 H405 0.983 . S
C379 C380 1.391 . S
C379 C384 1.391 . S
C379 H409 0.948 . S
C380 C379 1.391 . S
C380 C381 1.391 . S
C381 C380 1.391 . S
C381 C382 1.392 . S
C381 H410 0.947 . S
C382 C381 1.392 . S
C382 C383 1.419 . S
C382 H411 0.948 . S
C383 C382 1.419 . S
C383 C384 1.391 . S
C383 C387 1.397 1_545 S
C384 C379 1.391 . S
C384 C383 1.391 . S
C384 C385 1.399 . S
C385 C384 1.399 . S
C385 C386 1.396 1_545 S
C385 C388 1.453 1_545 S
C385 C389 1.684 . S
C386 C367 1.723 1_554 S
C386 C385 1.396 1_565 S
C386 C387 1.394 . S
C387 C383 1.397 1_565 S
C387 C386 1.394 . S
C387 C397 1.723 . S
C388 C385 1.453 1_565 S
C388 H412 0.982 . S
C388 H413 0.979 . S
C388 H414 0.977 1_554 S
C389 C385 1.684 . S
C389 H415 0.979 . S
C389 H416 0.980 1_554 S
C389 H417 0.983 . S
C390 H366 0.948 . S
C390 C391 1.391 . S
C390 C395 1.391 . S
C391 C390 1.391 . S
C391 C392 1.391 . S
C392 H369 0.947 1_554 S
C392 C391 1.391 . S
C392 C393 1.392 1_554 S
C393 H370 0.948 . S
C393 C392 1.392 1_556 S
C393 C394 1.419 1_556 S
C394 C393 1.419 1_554 S
C394 C395 1.391 . S
C394 C398 1.397 1_545 S
C395 C390 1.391 . S
C395 C394 1.391 . S
C395 C396 1.399 . S
C396 C395 1.399 . S
C396 C397 1.396 1_545 S
C396 C399 1.453 1_545 S
C396 C400 1.684 . S
C397 C387 1.723 . S
C397 C396 1.396 1_565 S
C397 C398 1.394 . S
C398 C368 1.723 1_554 S
C398 C394 1.397 1_565 S
C398 C397 1.394 . S
C399 H371 0.982 . S
C399 H375 0.979 . S
C399 H376 0.977 . S
C399 C396 1.453 1_565 S
C400 H372 0.979 . S
C400 H373 0.980 . S
C400 H374 0.983 . S
C400 C396 1.684 . S
H401 C419 0.948 . S
H402 C360 0.948 . S
H403 C378 0.979 . S
H404 C378 0.980 . S
H405 C378 0.983 . S
H406 C377 0.982 . S
H407 C377 0.979 . S
H408 C377 0.977 . S
H409 C379 0.948 . S
H410 C381 0.947 . S
H411 C382 0.948 . S
H412 C388 0.982 . S
H413 C388 0.979 . S
H414 C388 0.977 1_556 S
H415 C389 0.979 . S
H416 C389 0.980 1_556 S
H417 C389 0.983 . S
H418 C362 0.947 . S
C419 C362 1.392 . S
C419 C363 1.419 . S
C419 H401 0.948 . S
C420 C421 1.391 . S
C420 C424 1.391 . S
C420 H462 0.948 . S
C421 C420 1.391 . S
C421 C422 1.391 . S
C422 C421 1.391 . S
C422 H478 0.947 . S
C422 C479 1.392 . S
C423 C424 1.391 . S
C423 C427 1.397 . S
C423 C479 1.419 . S
C424 C420 1.391 . S
C424 C423 1.391 . S
C424 C425 1.399 . S
C425 C424 1.399 . S
C425 C428 1.396 . S
C425 C437 1.453 . S
C425 C438 1.684 . S
H426 C450 0.948 . S
C427 C423 1.397 . S
C427 C428 1.394 . S
C427 C446 1.723 1_556 S
C428 C425 1.396 . S
C428 C427 1.394 . S
C428 C458 1.723 1_556 S
H429 C452 0.947 1_556 S
H430 C453 0.948 . S
H431 C459 0.982 . S
H432 C460 0.979 . S
H433 C460 0.980 . S
H434 C460 0.983 . S
H435 C459 0.979 . S
H436 C459 0.977 . S
C437 C425 1.453 . S
C437 H466 0.982 . S
C437 H467 0.979 . S
C437 H468 0.977 . S
C438 C425 1.684 . S
C438 H463 0.979 . S
C438 H464 0.980 . S
C438 H465 0.983 . S
C439 C440 1.391 . S
C439 C444 1.391 . S
C439 H469 0.948 . S
C440 C439 1.391 . S
C440 C441 1.391 . S
C441 C440 1.391 . S
C441 C442 1.392 . S
C441 H470 0.947 . S
C442 C441 1.392 . S
C442 C443 1.419 . S
C442 H471 0.948 . S
C443 C442 1.419 . S
C443 C444 1.391 . S
C443 C447 1.397 . S
C444 C439 1.391 . S
C444 C443 1.391 . S
C444 C445 1.399 . S
C445 C444 1.399 . S
C445 C446 1.396 . S
C445 C448 1.453 . S
C445 C449 1.684 . S
C446 C427 1.723 1_554 S
C446 C445 1.396 . S
C446 C447 1.394 . S
C447 C443 1.397 . S
C447 C446 1.394 . S
C447 C457 1.723 . S
C448 C445 1.453 . S
C448 H472 0.982 . S
C448 H473 0.979 . S
C448 H474 0.977 1_554 S
C449 C445 1.684 . S
C449 H475 0.979 . S
C449 H476 0.980 1_554 S
C449 H477 0.983 . S
C450 H426 0.948 . S
C450 C451 1.391 . S
C450 C455 1.391 . S
C451 C450 1.391 . S
C451 C452 1.391 . S
C452 H429 0.947 1_554 S
C452 C451 1.391 . S
C452 C453 1.392 1_554 S
C453 H430 0.948 . S
C453 C452 1.392 1_556 S
C453 C454 1.419 1_556 S
C454 C453 1.419 1_554 S
C454 C455 1.391 . S
C454 C458 1.397 . S
C455 C450 1.391 . S
C455 C454 1.391 . S
C455 C456 1.399 . S
C456 C455 1.399 . S
C456 C457 1.396 . S
C456 C459 1.453 . S
C456 C460 1.684 . S
C457 C447 1.723 . S
C457 C456 1.396 . S
C457 C458 1.394 . S
C458 C428 1.723 1_554 S
C458 C454 1.397 . S
C458 C457 1.394 . S
C459 H431 0.982 . S
C459 H435 0.979 . S
C459 H436 0.977 . S
C459 C456 1.453 . S
C460 H432 0.979 . S
C460 H433 0.980 . S
C460 H434 0.983 . S
C460 C456 1.684 . S
H461 C479 0.948 . S
H462 C420 0.948 . S
H463 C438 0.979 . S
H464 C438 0.980 . S
H465 C438 0.983 . S
H466 C437 0.982 . S
H467 C437 0.979 . S
H468 C437 0.977 . S
H469 C439 0.948 . S
H470 C441 0.947 . S
H471 C442 0.948 . S
H472 C448 0.982 . S
H473 C448 0.979 . S
H474 C448 0.977 1_556 S
H475 C449 0.979 . S
H476 C449 0.980 1_556 S
H477 C449 0.983 . S
H478 C422 0.947 . S
C479 C422 1.392 . S
C479 C423 1.419 . S
C479 H461 0.948 . S
Sm480 C482 2.846 . S
Sm480 O500 2.543 . S
Sm480 O501 2.450 . S
Sm480 O502 2.681 1_565 S
Sm480 O503 2.464 . S
Sm480 O504 2.396 . S
Sm480 O508 2.386 1_455 S
Sm480 O511 2.408 1_565 S
Sm481 C491 2.846 . S
Sm481 O502 2.386 1_655 S
Sm481 O505 2.408 1_545 S
Sm481 O506 2.543 . S
Sm481 O507 2.450 . S
Sm481 O508 2.681 1_545 S
Sm481 O509 2.464 . S
Sm481 O510 2.396 . S
C482 Sm480 2.846 . S
C482 C483 1.506 . S
C482 O500 1.261 . S
C482 O501 1.242 . S
C483 C482 1.506 . S
C483 C484 1.358 1_556 S
C483 C488 1.382 . S
C484 C483 1.358 1_554 S
C484 C485 1.385 . S
C484 H512 0.930 1_454 S
C485 C484 1.385 . S
C485 C486 1.395 . S
C485 H513 0.929 . S
C486 C485 1.395 . S
C486 C487 1.335 . S
C487 C486 1.335 . S
C487 C488 1.398 1_554 S
C487 H514 0.930 . S
C488 C483 1.382 . S
C488 C487 1.398 1_556 S
C488 H515 0.929 . S
C489 O502 1.271 1_565 S
C489 O503 1.251 . S
C490 O504 1.252 1_655 S
C490 O505 1.272 . S
C491 Sm481 2.846 . S
C491 C492 1.506 . S
C491 O506 1.261 . S
C491 O507 1.242 . S
C492 C491 1.506 . S
C492 C493 1.358 . S
C492 C497 1.382 . S
C493 C492 1.358 . S
C493 C494 1.385 . S
C493 H516 0.930 1_655 S
C494 C493 1.385 . S
C494 C495 1.395 . S
C494 H517 0.929 . S
C495 C494 1.395 . S
C495 C496 1.335 . S
C496 C495 1.335 . S
C496 C497 1.398 . S
C496 H518 0.930 . S
C497 C492 1.382 . S
C497 C496 1.398 . S
C497 H519 0.929 . S
C498 O508 1.271 1_545 S
C498 O509 1.251 . S
C499 O510 1.252 1_455 S
C499 O511 1.272 . S
O500 Sm480 2.543 . S
O500 C482 1.261 . S
O501 Sm480 2.450 . S
O501 C482 1.242 . S
O502 Sm480 2.681 1_545 S
O502 Sm481 2.386 1_455 S
O502 C489 1.271 1_545 S
O503 Sm480 2.464 . S
O503 C489 1.251 . S
O504 Sm480 2.396 . S
O504 C490 1.252 1_455 S
O505 Sm481 2.408 1_565 S
O505 C490 1.272 . S
O506 Sm481 2.543 . S
O506 C491 1.261 . S
O507 Sm481 2.450 . S
O507 C491 1.242 . S
O508 Sm480 2.386 1_655 S
O508 Sm481 2.681 1_565 S
O508 C498 1.271 1_565 S
O509 Sm481 2.464 . S
O509 C498 1.251 . S
O510 Sm481 2.396 . S
O510 C499 1.252 1_655 S
O511 Sm480 2.408 1_545 S
O511 C499 1.272 . S
H512 C484 0.930 1_656 S
H513 C485 0.929 . S
H514 C487 0.930 . S
H515 C488 0.929 . S
H516 C493 0.930 1_455 S
H517 C494 0.929 . S
H518 C496 0.930 . S
H519 C497 0.929 . S
Sm520 C522 2.846 . S
Sm520 O540 2.543 . S
Sm520 O541 2.450 . S
Sm520 O542 2.681 . S
Sm520 O543 2.464 . S
Sm520 O544 2.396 . S
Sm520 O548 2.386 1_545 S
Sm520 O551 2.408 . S
Sm521 C531 2.846 . S
Sm521 O542 2.386 1_565 S
Sm521 O545 2.408 . S
Sm521 O546 2.543 . S
Sm521 O547 2.450 . S
Sm521 O548 2.681 . S
Sm521 O549 2.464 . S
Sm521 O550 2.396 . S
C522 Sm520 2.846 . S
C522 C523 1.506 . S
C522 O540 1.261 . S
C522 O541 1.242 . S
C523 C522 1.506 . S
C523 C524 1.358 1_556 S
C523 C528 1.382 . S
C524 C523 1.358 1_554 S
C524 C525 1.385 . S
C524 H552 0.930 1_545 S
C525 C524 1.385 . S
C525 C526 1.395 . S
C525 H553 0.929 . S
C526 C525 1.395 . S
C526 C527 1.335 . S
C527 C526 1.335 . S
C527 C528 1.398 1_554 S
C527 H554 0.930 . S
C528 C523 1.382 . S
C528 C527 1.398 1_556 S
C528 H555 0.929 . S
C529 O542 1.271 . S
C529 O543 1.251 . S
C530 O544 1.252 1_565 S
C530 O545 1.272 . S
C531 Sm521 2.846 . S
C531 C532 1.506 . S
C531 O546 1.261 . S
C531 O547 1.242 . S
C532 C531 1.506 . S
C532 C533 1.358 . S
C532 C537 1.382 . S
C533 C532 1.358 . S
C533 C534 1.385 . S
C533 H556 0.930 1_565 S
C534 C533 1.385 . S
C534 C535 1.395 . S
C534 H557 0.929 . S
C535 C534 1.395 . S
C535 C536 1.335 . S
C536 C535 1.335 . S
C536 C537 1.398 . S
C536 H558 0.930 . S
C537 C532 1.382 . S
C537 C536 1.398 . S
C537 H559 0.929 . S
C538 O548 1.271 . S
C538 O549 1.251 . S
C539 O550 1.252 1_545 S
C539 O551 1.272 . S
O540 Sm520 2.543 . S
O540 C522 1.261 . S
O541 Sm520 2.450 . S
O541 C522 1.242 . S
O542 Sm520 2.681 . S
O542 Sm521 2.386 1_545 S
O542 C529 1.271 . S
O543 Sm520 2.464 . S
O543 C529 1.251 . S
O544 Sm520 2.396 . S
O544 C530 1.252 1_545 S
O545 Sm521 2.408 . S
O545 C530 1.272 . S
O546 Sm521 2.543 . S
O546 C531 1.261 . S
O547 Sm521 2.450 . S
O547 C531 1.242 . S
O548 Sm520 2.386 1_565 S
O548 Sm521 2.681 . S
O548 C538 1.271 . S
O549 Sm521 2.464 . S
O549 C538 1.251 . S
O550 Sm521 2.396 . S
O550 C539 1.252 1_565 S
O551 Sm520 2.408 . S
O551 C539 1.272 . S
H552 C524 0.930 1_565 S
H553 C525 0.929 . S
H554 C527 0.930 . S
H555 C528 0.929 . S
H556 C533 0.930 1_545 S
H557 C534 0.929 . S
H558 C536 0.930 . S
H559 C537 0.929 . S
Sm560 C562 2.846 . S
Sm560 O580 2.543 . S
Sm560 O581 2.450 . S
Sm560 O582 2.681 . S
Sm560 O583 2.464 . S
Sm560 O584 2.396 . S
Sm560 O588 2.386 . S
Sm560 O591 2.408 . S
Sm561 C571 2.846 . S
Sm561 O582 2.386 . S
Sm561 O585 2.408 . S
Sm561 O586 2.543 . S
Sm561 O587 2.450 . S
Sm561 O588 2.681 . S
Sm561 O589 2.464 . S
Sm561 O590 2.396 . S
C562 Sm560 2.846 . S
C562 C563 1.506 . S
C562 O580 1.261 . S
C562 O581 1.242 . S
C563 C562 1.506 . S
C563 C564 1.358 1_556 S
C563 C568 1.382 . S
C564 C563 1.358 1_554 S
C564 C565 1.385 . S
C564 H592 0.930 . S
C565 C564 1.385 . S
C565 C566 1.395 . S
C565 H593 0.929 . S
C566 C565 1.395 . S
C566 C567 1.335 . S
C567 C566 1.335 . S
C567 C568 1.398 1_554 S
C567 H594 0.930 . S
C568 C563 1.382 . S
C568 C567 1.398 1_556 S
C568 H595 0.929 . S
C569 O582 1.271 . S
C569 O583 1.251 . S
C570 O584 1.252 . S
C570 O585 1.272 . S
C571 Sm561 2.846 . S
C571 C572 1.506 . S
C571 O586 1.261 . S
C571 O587 1.242 . S
C572 C571 1.506 . S
C572 C573 1.358 . S
C572 C577 1.382 . S
C573 C572 1.358 . S
C573 C574 1.385 . S
C573 H596 0.930 . S
C574 C573 1.385 . S
C574 C575 1.395 . S
C574 H597 0.929 . S
C575 C574 1.395 . S
C575 C576 1.335 . S
C576 C575 1.335 . S
C576 C577 1.398 . S
C576 H598 0.930 . S
C577 C572 1.382 . S
C577 C576 1.398 . S
C577 H599 0.929 . S
C578 O588 1.271 . S
C578 O589 1.251 . S
C579 O590 1.252 . S
C579 O591 1.272 . S
O580 Sm560 2.543 . S
O580 C562 1.261 . S
O581 Sm560 2.450 . S
O581 C562 1.242 . S
O582 Sm560 2.681 . S
O582 Sm561 2.386 . S
O582 C569 1.271 . S
O583 Sm560 2.464 . S
O583 C569 1.251 . S
O584 Sm560 2.396 . S
O584 C570 1.252 . S
O585 Sm561 2.408 . S
O585 C570 1.272 . S
O586 Sm561 2.543 . S
O586 C571 1.261 . S
O587 Sm561 2.450 . S
O587 C571 1.242 . S
O588 Sm560 2.386 . S
O588 Sm561 2.681 . S
O588 C578 1.271 . S
O589 Sm561 2.464 . S
O589 C578 1.251 . S
O590 Sm561 2.396 . S
O590 C579 1.252 . S
O591 Sm560 2.408 . S
O591 C579 1.272 . S
H592 C564 0.930 . S
H593 C565 0.929 . S
H594 C567 0.930 . S
H595 C568 0.929 . S
H596 C573 0.930 . S
H597 C574 0.929 . S
H598 C576 0.930 . S
H599 C577 0.929 . S
Sm600 C602 2.846 . S
Sm600 O620 2.543 . S
Sm600 O621 2.450 . S
Sm600 O622 2.681 1_655 S
Sm600 O623 2.464 . S
Sm600 O624 2.396 . S
Sm600 O628 2.386 . S
Sm600 O631 2.408 1_655 S
Sm601 C611 2.846 . S
Sm601 O622 2.386 . S
Sm601 O625 2.408 1_455 S
Sm601 O626 2.543 . S
Sm601 O627 2.450 . S
Sm601 O628 2.681 1_455 S
Sm601 O629 2.464 . S
Sm601 O630 2.396 . S
C602 Sm600 2.846 . S
C602 C603 1.506 . S
C602 O620 1.261 . S
C602 O621 1.242 . S
C603 C602 1.506 . S
C603 C604 1.358 1_556 S
C603 C608 1.382 . S
C604 C603 1.358 1_554 S
C604 C605 1.385 . S
C604 H632 0.930 . S
C605 C604 1.385 . S
C605 C606 1.395 . S
C605 H633 0.929 . S
C606 C605 1.395 . S
C606 C607 1.335 . S
C607 C606 1.335 . S
C607 C608 1.398 1_554 S
C607 H634 0.930 . S
C608 C603 1.382 . S
C608 C607 1.398 1_556 S
C608 H635 0.929 . S
C609 O622 1.267 1_655 S
C609 O623 1.259 . S
C610 O624 1.252 . S
C610 O625 1.272 . S
C611 Sm601 2.846 . S
C611 C612 1.506 . S
C611 O626 1.261 . S
C611 O627 1.242 . S
C612 C611 1.506 . S
C612 C613 1.358 . S
C612 C617 1.382 . S
C613 C612 1.358 . S
C613 C614 1.385 . S
C613 H636 0.930 . S
C614 C613 1.385 . S
C614 C615 1.395 . S
C614 H637 0.929 . S
C615 C614 1.395 . S
C615 C616 1.335 . S
C616 C615 1.335 . S
C616 C617 1.398 . S
C616 H638 0.930 . S
C617 C612 1.382 . S
C617 C616 1.398 . S
C617 H639 0.929 . S
C618 O628 1.264 1_455 S
C618 O629 1.263 . S
C619 O630 1.252 . S
C619 O631 1.272 . S
O620 Sm600 2.543 . S
O620 C602 1.261 . S
O621 Sm600 2.450 . S
O621 C602 1.242 . S
O622 Sm600 2.681 1_455 S
O622 Sm601 2.386 . S
O622 C609 1.267 1_455 S
O623 Sm600 2.464 . S
O623 C609 1.259 . S
O624 Sm600 2.396 . S
O624 C610 1.252 . S
O625 Sm601 2.408 1_655 S
O625 C610 1.272 . S
O626 Sm601 2.543 . S
O626 C611 1.261 . S
O627 Sm601 2.450 . S
O627 C611 1.242 . S
O628 Sm600 2.386 . S
O628 Sm601 2.681 1_655 S
O628 C618 1.264 1_655 S
O629 Sm601 2.464 . S
O629 C618 1.263 . S
O630 Sm601 2.396 . S
O630 C619 1.252 . S
O631 Sm600 2.408 1_455 S
O631 C619 1.272 . S
H632 C604 0.930 . S
H633 C605 0.929 . S
H634 C607 0.930 . S
H635 C608 0.929 . S
H636 C613 0.930 . S
H637 C614 0.929 . S
H638 C616 0.930 . S
H639 C617 0.929 . S
C640 C641 1.369 . S
C640 C642 1.419 . S
C640 H644 0.930 . S
C641 C640 1.369 . S
C641 C650 1.429 1_545 S
C642 C640 1.419 . S
C642 C643 1.373 . S
C642 H645 0.929 . S
C643 C642 1.373 . S
C643 C649 1.417 1_545 S
H644 C640 0.930 . S
H645 C642 0.929 . S
S646 N647 1.613 . S
S646 N648 1.610 . S
N647 S646 1.613 . S
N647 C650 1.350 . S
N648 S646 1.610 . S
N648 C649 1.351 . S
C649 C643 1.417 1_565 S
C649 N648 1.351 . S
C649 C650 1.434 . S
C650 C641 1.429 1_565 S
C650 N647 1.350 . S
C650 C649 1.434 . S
C651 C652 1.369 . S
C651 C653 1.419 . S
C651 H655 0.930 . S
C652 C651 1.369 . S
C652 C661 1.429 . S
C653 C651 1.419 . S
C653 C654 1.363 . S
C653 H656 0.929 . S
C654 C653 1.363 . S
C654 C660 1.428 . S
H655 C651 0.930 . S
H656 C653 0.929 . S
S657 N658 1.613 . S
S657 N659 1.610 . S
N658 S657 1.613 . S
N658 C661 1.350 . S
N659 S657 1.610 . S
N659 C660 1.351 . S
C660 C654 1.428 . S
C660 N659 1.351 . S
C660 C661 1.434 . S
C661 C652 1.429 . S
C661 N658 1.350 . S
C661 C660 1.434 . S
C662 C663 1.369 . S
C662 C664 1.419 . S
C662 H666 0.930 . S
C663 C662 1.369 . S
C663 C672 1.429 . S
C664 C662 1.419 . S
C664 C665 1.363 . S
C664 H667 0.929 . S
C665 C664 1.363 . S
C665 C671 1.428 . S
H666 C662 0.930 . S
H667 C664 0.929 . S
S668 N669 1.613 . S
S668 N670 1.610 . S
N669 S668 1.613 . S
N669 C672 1.350 . S
N670 S668 1.610 . S
N670 C671 1.351 . S
C671 C665 1.428 . S
C671 N670 1.351 . S
C671 C672 1.434 . S
C672 C663 1.429 . S
C672 N669 1.350 . S
C672 C671 1.434 . S
C673 C674 1.369 1_655 S
C673 C675 1.419 . S
C673 H677 0.930 . S
C674 C673 1.369 1_455 S
C674 C683 1.429 . S
C675 C673 1.419 . S
C675 C676 1.363 1_655 S
C675 H678 0.929 . S
C676 C675 1.363 1_455 S
C676 C682 1.428 . S
H677 C673 0.930 . S
H678 C675 0.929 . S
S679 N680 1.613 . S
S679 N681 1.610 . S
N680 S679 1.613 . S
N680 C683 1.350 . S
N681 S679 1.610 . S
N681 C682 1.351 . S
C682 C676 1.428 . S
C682 N681 1.351 . S
C682 C683 1.434 . S
C683 C674 1.429 . S
C683 N680 1.350 . S
C683 C682 1.434 . S
C684 C685 1.368 1_565 S
C684 C686 1.419 . S
C684 H688 0.930 . S
C685 C684 1.368 1_545 S
C685 C694 1.430 . S
C686 C684 1.419 . S
C686 C687 1.373 . S
C686 H689 0.929 . S
C687 C686 1.373 . S
C687 C693 1.418 1_565 S
H688 C684 0.930 . S
H689 C686 0.929 . S
S690 N691 1.613 . S
S690 N692 1.610 . S
N691 S690 1.613 . S
N691 C694 1.350 . S
N692 S690 1.610 . S
N692 C693 1.351 . S
C693 C687 1.418 1_545 S
C693 N692 1.351 . S
C693 C694 1.434 . S
C694 C685 1.430 . S
C694 N691 1.350 . S
C694 C693 1.434 . S
C695 C696 1.369 . S
C695 C697 1.419 . S
C695 H699 0.930 . S
C696 C695 1.369 . S
C696 C705 1.429 . S
C697 C695 1.419 . S
C697 C698 1.363 . S
C697 H700 0.929 . S
C698 C697 1.363 . S
C698 C704 1.428 . S
H699 C695 0.930 . S
H700 C697 0.929 . S
S701 N702 1.613 1_545 S
S701 N703 1.610 1_545 S
N702 S701 1.613 1_565 S
N702 C705 1.350 . S
N703 S701 1.610 1_565 S
N703 C704 1.351 . S
C704 C698 1.428 . S
C704 N703 1.351 . S
C704 C705 1.434 . S
C705 C696 1.429 . S
C705 N702 1.350 . S
C705 C704 1.434 . S
C706 C707 1.369 . S
C706 C708 1.419 . S
C706 H710 0.930 . S
C707 C706 1.369 . S
C707 C716 1.429 . S
C708 C706 1.419 . S
C708 C709 1.363 . S
C708 H711 0.929 . S
C709 C708 1.363 . S
C709 C715 1.428 . S
H710 C706 0.930 . S
H711 C708 0.929 . S
S712 N713 1.613 . S
S712 N714 1.610 . S
N713 S712 1.613 . S
N713 C716 1.350 . S
N714 S712 1.610 . S
N714 C715 1.351 . S
C715 C709 1.428 . S
C715 N714 1.351 . S
C715 C716 1.434 . S
C716 C707 1.429 . S
C716 N713 1.350 . S
C716 C715 1.434 . S
C717 C718 1.386 . S
C717 C719 1.419 . S
C717 H721 0.930 . S
C718 C717 1.386 . S
C718 C727 1.412 1_655 S
C719 C717 1.419 . S
C719 C720 1.363 . S
C719 H722 0.929 . S
C720 C719 1.363 . S
C720 C726 1.428 1_655 S
H721 C717 0.930 . S
H722 C719 0.929 . S
S723 N724 1.613 . S
S723 N725 1.610 . S
N724 S723 1.613 . S
N724 C727 1.350 . S
N725 S723 1.610 . S
N725 C726 1.351 . S
C726 C720 1.428 1_455 S
C726 N725 1.351 . S
C726 C727 1.434 . S
C727 C718 1.412 1_455 S
C727 N724 1.350 . S
C727 C726 1.434 . S
C728 C729 1.369 . S
C728 C730 1.419 . S
C728 H732 0.930 1_655 S
C729 C728 1.369 . S
C729 C738 1.429 . S
C730 C728 1.419 . S
C730 C731 1.363 . S
C730 H733 0.929 . S
C731 C730 1.363 . S
C731 C737 1.428 . S
H732 C728 0.930 1_455 S
H733 C730 0.929 . S
S734 N735 1.613 . S
S734 N736 1.610 . S
N735 S734 1.613 . S
N735 C738 1.350 . S
N736 S734 1.610 . S
N736 C737 1.351 . S
C737 C731 1.428 . S
C737 N736 1.351 . S
C737 C738 1.434 . S
C738 C729 1.429 . S
C738 N735 1.350 . S
C738 C737 1.434 . S
C739 C740 1.369 1_545 S
C739 C741 1.419 1_545 S
C739 H743 0.930 . S
C740 C739 1.369 1_565 S
C740 C749 1.429 . S
C741 C739 1.419 1_565 S
C741 C742 1.363 . S
C741 H744 0.929 . S
C742 C741 1.363 . S
C742 C748 1.428 . S
H743 C739 0.930 . S
H744 C741 0.929 . S
S745 N746 1.613 . S
S745 N747 1.610 . S
N746 S745 1.613 . S
N746 C749 1.350 . S
N747 S745 1.610 . S
N747 C748 1.351 . S
C748 C742 1.428 . S
C748 N747 1.351 . S
C748 C749 1.434 . S
C749 C740 1.429 . S
C749 N746 1.350 . S
C749 C748 1.434 . S
C750 C751 1.369 . S
C750 C752 1.419 . S
C750 H754 0.930 . S
C751 C750 1.369 . S
C751 C760 1.429 . S
C752 C750 1.419 . S
C752 C753 1.363 . S
C752 H755 0.929 . S
C753 C752 1.363 . S
C753 C759 1.428 . S
H754 C750 0.930 . S
H755 C752 0.929 . S
S756 N757 1.613 . S
S756 N758 1.610 . S
N757 S756 1.613 . S
N757 C760 1.350 . S
N758 S756 1.610 . S
N758 C759 1.351 . S
C759 C753 1.428 . S
C759 N758 1.351 . S
C759 C760 1.434 . S
C760 C751 1.429 . S
C760 N757 1.350 . S
C760 C759 1.434 . S
C761 C762 1.369 . S
C761 C763 1.419 . S
C761 H765 0.930 . S
C762 C761 1.369 . S
C762 C771 1.429 . S
C763 C761 1.419 . S
C763 C764 1.363 . S
C763 H766 0.929 . S
C764 C763 1.363 . S
C764 C770 1.428 . S
H765 C761 0.930 . S
H766 C763 0.929 . S
S767 N768 1.613 . S
S767 N769 1.610 . S
N768 S767 1.613 . S
N768 C771 1.350 . S
N769 S767 1.610 . S
N769 C770 1.351 . S
C770 C764 1.428 . S
C770 N769 1.351 . S
C770 C771 1.434 . S
C771 C762 1.429 . S
C771 N768 1.350 . S
C771 C770 1.434 . S
C772 C773 1.369 . S
C772 C774 1.419 . S
C772 H776 0.930 . S
C773 C772 1.369 . S
C773 C782 1.429 . S
C774 C772 1.419 . S
C774 C775 1.363 . S
C774 H777 0.929 . S
C775 C774 1.363 . S
C775 C781 1.428 . S
H776 C772 0.930 . S
H777 C774 0.929 . S
S778 N779 1.613 . S
S778 N780 1.610 . S
N779 S778 1.613 . S
N779 C782 1.350 1_556 S
N780 S778 1.610 . S
N780 C781 1.351 1_556 S
C781 C775 1.428 . S
C781 N780 1.351 1_554 S
C781 C782 1.434 . S
C782 C773 1.429 . S
C782 N779 1.350 1_554 S
C782 C781 1.434 . S
C783 C784 1.369 . S
C783 C785 1.419 . S
C783 H787 0.930 . S
C784 C783 1.369 . S
C784 C793 1.429 1_545 S
C785 C783 1.419 . S
C785 C786 1.363 . S
C785 H788 0.929 . S
C786 C785 1.363 . S
C786 C792 1.428 . S
H787 C783 0.930 . S
H788 C785 0.929 . S
S789 N790 1.613 . S
S789 N791 1.610 1_565 S
N790 S789 1.613 . S
N790 C793 1.350 . S
N791 S789 1.610 1_545 S
N791 C792 1.351 . S
C792 C786 1.428 . S
C792 N791 1.351 . S
C792 C793 1.434 1_545 S
C793 C784 1.429 1_565 S
C793 N790 1.350 . S
C793 C792 1.434 1_565 S
C794 C795 1.369 . S
C794 C796 1.419 . S
C794 H798 0.930 . S
C795 C794 1.369 . S
C795 C804 1.429 . S
C796 C794 1.419 . S
C796 C797 1.363 . S
C796 H799 0.929 . S
C797 C796 1.363 . S
C797 C803 1.428 . S
H798 C794 0.930 . S
H799 C796 0.929 . S
S800 N801 1.613 . S
S800 N802 1.610 . S
N801 S800 1.613 . S
N801 C804 1.350 . S
N802 S800 1.610 . S
N802 C803 1.351 . S
C803 C797 1.428 . S
C803 N802 1.351 . S
C803 C804 1.434 . S
C804 C795 1.429 . S
C804 N801 1.350 . S
C804 C803 1.434 . S
C805 C806 1.369 . S
C805 C807 1.419 . S
C805 H809 0.930 . S
C806 C805 1.369 . S
C806 C815 1.429 . S
C807 C805 1.419 . S
C807 C808 1.363 . S
C807 H810 0.929 . S
C808 C807 1.363 . S
C808 C814 1.428 . S
H809 C805 0.930 . S
H810 C807 0.929 . S
S811 N812 1.613 1_556 S
S811 N813 1.610 . S
N812 S811 1.613 1_554 S
N812 C815 1.350 . S
N813 S811 1.610 . S
N813 C814 1.351 1_556 S
C814 C808 1.428 . S
C814 N813 1.351 1_554 S
C814 C815 1.434 . S
C815 C806 1.429 . S
C815 N812 1.350 . S
C815 C814 1.434 . S
C816 C817 1.369 . S
C816 C818 1.419 . S
C816 H820 0.930 . S
C817 C816 1.369 . S
C817 C826 1.429 1_455 S
C818 C816 1.419 . S
C818 C819 1.363 . S
C818 H821 0.929 . S
C819 C818 1.363 . S
C819 C825 1.428 1_455 S
H820 C816 0.930 . S
H821 C818 0.929 . S
S822 N823 1.613 . S
S822 N824 1.610 . S
N823 S822 1.613 . S
N823 C826 1.350 . S
N824 S822 1.610 . S
N824 C825 1.351 . S
C825 C819 1.428 1_655 S
C825 N824 1.351 . S
C825 C826 1.434 . S
C826 C817 1.429 1_655 S
C826 N823 1.350 . S
C826 C825 1.434 . S
C827 C828 1.367 1_565 S
C827 C829 1.418 1_565 S
C827 H831 0.933 . S
C828 C827 1.367 1_545 S
C828 C837 1.429 . S
C829 C827 1.418 1_545 S
C829 C830 1.363 . S
C829 H832 0.929 1_545 S
C830 C829 1.363 . S
C830 C836 1.428 . S
H831 C827 0.933 . S
H832 C829 0.929 1_565 S
S833 N834 1.613 . S
S833 N835 1.610 . S
N834 S833 1.613 . S
N834 C837 1.350 . S
N835 S833 1.610 . S
N835 C836 1.351 . S
C836 C830 1.428 . S
C836 N835 1.351 . S
C836 C837 1.434 . S
C837 C828 1.429 . S
C837 N834 1.350 . S
C837 C836 1.434 . S
C838 C839 1.369 . S
C838 C840 1.419 . S
C838 H842 0.930 . S
C839 C838 1.369 . S
C839 C848 1.429 . S
C840 C838 1.419 . S
C840 C841 1.363 . S
C840 H843 0.929 . S
C841 C840 1.363 . S
C841 C847 1.428 . S
H842 C838 0.930 . S
H843 C840 0.929 . S
S844 N845 1.613 . S
S844 N846 1.610 . S
N845 S844 1.613 . S
N845 C848 1.350 . S
N846 S844 1.610 . S
N846 C847 1.351 . S
C847 C841 1.428 . S
C847 N846 1.351 . S
C847 C848 1.434 . S
C848 C839 1.429 . S
C848 N845 1.350 . S
C848 C847 1.434 . S
C849 C850 1.369 . S
C849 C851 1.419 . S
C849 H853 0.930 . S
C850 C849 1.369 . S
C850 C859 1.429 . S
C851 C849 1.419 . S
C851 C852 1.363 . S
C851 H854 0.929 . S
C852 C851 1.363 . S
C852 C858 1.428 . S
H853 C849 0.930 . S
H854 C851 0.929 . S
S855 N856 1.613 . S
S855 N857 1.610 . S
N856 S855 1.613 . S
N856 C859 1.350 . S
N857 S855 1.610 . S
N857 C858 1.351 . S
C858 C852 1.428 . S
C858 N857 1.351 . S
C858 C859 1.434 . S
C859 C850 1.429 . S
C859 N856 1.350 . S
C859 C858 1.434 . S
C860 C861 1.369 1_455 S
C860 C862 1.419 . S
C860 H864 0.930 . S
C861 C860 1.369 1_655 S
C861 C870 1.429 . S
C862 C860 1.419 . S
C862 C863 1.363 1_455 S
C862 H865 0.929 . S
C863 C862 1.363 1_655 S
C863 C869 1.428 . S
H864 C860 0.930 . S
H865 C862 0.929 . S
S866 N867 1.613 . S
S866 N868 1.610 . S
N867 S866 1.613 . S
N867 C870 1.350 . S
N868 S866 1.610 . S
N868 C869 1.351 . S
C869 C863 1.428 . S
C869 N868 1.351 . S
C869 C870 1.434 . S
C870 C861 1.429 . S
C870 N867 1.350 . S
C870 C869 1.434 . S
C871 C872 1.369 1_545 S
C871 C873 1.419 . S
C871 H875 0.930 . S
C872 C871 1.369 1_565 S
C872 C881 1.429 . S
C873 C871 1.419 . S
C873 C874 1.363 1_545 S
C873 H876 0.929 . S
C874 C873 1.363 1_565 S
C874 C880 1.428 . S
H875 C871 0.930 . S
H876 C873 0.929 . S
S877 N878 1.613 . S
S877 N879 1.610 . S
N878 S877 1.613 . S
N878 C881 1.350 . S
N879 S877 1.610 . S
N879 C880 1.351 . S
C880 C874 1.428 . S
C880 N879 1.351 . S
C880 C881 1.434 . S
C881 C872 1.429 . S
C881 N878 1.350 . S
C881 C880 1.434 . S
C882 C883 1.369 . S
C882 C884 1.419 . S
C882 H886 0.930 . S
C883 C882 1.369 . S
C883 C892 1.429 . S
C884 C882 1.419 . S
C884 C885 1.363 . S
C884 H887 0.929 . S
C885 C884 1.363 . S
C885 C891 1.428 . S
H886 C882 0.930 . S
H887 C884 0.929 . S
S888 N889 1.613 . S
S888 N890 1.610 . S
N889 S888 1.613 . S
N889 C892 1.350 . S
N890 S888 1.610 . S
N890 C891 1.351 . S
C891 C885 1.428 . S
C891 N890 1.351 . S
C891 C892 1.434 . S
C892 C883 1.429 . S
C892 N889 1.350 . S
C892 C891 1.434 . S
C893 C894 1.369 . S
C893 C895 1.419 . S
C893 H897 0.930 . S
C894 C893 1.369 . S
C894 C903 1.429 . S
C895 C893 1.419 . S
C895 C896 1.363 . S
C895 H898 0.929 . S
C896 C895 1.363 . S
C896 C902 1.428 . S
H897 C893 0.930 . S
H898 C895 0.929 . S
S899 N900 1.613 . S
S899 N901 1.610 . S
N900 S899 1.613 . S
N900 C903 1.350 . S
N901 S899 1.610 . S
N901 C902 1.351 . S
C902 C896 1.428 . S
C902 N901 1.351 . S
C902 C903 1.434 . S
C903 C894 1.429 . S
C903 N900 1.350 . S
C903 C902 1.434 . S
C641 C391 2.646 . S
C643 C489 2.828 1_545 S
C654 C529 2.849 . S
C652 C451 2.655 . S
C665 C569 2.853 . S
C663 C241 2.324 . S
C676 C609 2.834 1_455 S
C674 C331 2.293 1_455 S
C687 C498 2.830 1_564 S
C685 C121 2.283 1_545 S
C696 C211 2.681 . S
C698 C538 2.847 1_554 S
C707 C31 2.685 . S
C709 C578 2.854 1_554 S
C718 C91 2.286 . S
C720 C618 2.834 1_654 S
C731 C495 0.810 . S
C729 C301 0.765 . S
C742 C535 0.803 . S
C740 C380 0.810 1_565 S
C753 C575 0.753 . S
C751 C440 0.779 . S
C762 C260 0.747 . S
C764 C615 0.767 . S
C773 C61 0.814 1_455 S
C775 C486 0.805 . S
C786 C526 0.785 . S
C784 C140 0.812 1_545 S
C797 C566 0.774 . S
C795 C200 0.752 . S
C806 C20 0.757 . S
C808 C606 0.779 . S
C817 C320 3.419 1_455 S
C819 C499 3.732 . S
C828 C361 2.931 . S
C830 C539 3.706 . S
C841 C579 3.695 . S
C839 C421 2.919 . S
C852 C619 3.731 . S
C850 C271 3.412 . S
C861 C80 3.397 . S
C863 C490 3.743 . S
C874 C530 3.707 . S
C872 C151 3.364 . S
C885 C570 3.697 . S
C883 C181 2.956 . S
C894 C1 2.997 . S
C896 C610 3.734 . S
