# Generated by pormake.
# Topology tsx, (6,3)-cn, num edge types: 1
# Building blocks:
#     Node 0, Type 0, BuildingBlock: CIFDUS_clean_sbu_1, # of connection points: 6
#     Node 1, Type 0, BuildingBlock: CIFDUS_clean_sbu_1, # of connection points: 6
#     Node 2, Type 1, BuildingBlock: QEWDON_clean_linker_0, # of connection points: 3
#     Node 3, Type 1, BuildingBlock: QEWDON_clean_linker_0, # of connection points: 3
#     Node 4, Type 1, BuildingBlock: QEWDON_clean_linker_0, # of connection points: 3
#     Node 5, Type 1, BuildingBlock: QEWDON_clean_linker_0, # of connection points: 3
#     Edge 6, Type (0, 1), BuildingBlock: FUNLAD_clean_linker_0, # of connection points: 2
#     Edge 7, Type (0, 1), BuildingBlock: FUNLAD_clean_linker_0, # of connection points: 2
#     Edge 8, Type (0, 1), BuildingBlock: FUNLAD_clean_linker_0, # of connection points: 2
#     Edge 9, Type (0, 1), BuildingBlock: FUNLAD_clean_linker_0, # of connection points: 2
#     Edge 10, Type (0, 1), BuildingBlock: FUNLAD_clean_linker_0, # of connection points: 2
#     Edge 11, Type (0, 1), BuildingBlock: FUNLAD_clean_linker_0, # of connection points: 2
#     Edge 12, Type (0, 1), BuildingBlock: FUNLAD_clean_linker_0, # of connection points: 2
#     Edge 13, Type (0, 1), BuildingBlock: FUNLAD_clean_linker_0, # of connection points: 2
#     Edge 14, Type (0, 1), BuildingBlock: FUNLAD_clean_linker_0, # of connection points: 2
#     Edge 15, Type (0, 1), BuildingBlock: FUNLAD_clean_linker_0, # of connection points: 2
#     Edge 16, Type (0, 1), BuildingBlock: FUNLAD_clean_linker_0, # of connection points: 2
#     Edge 17, Type (0, 1), BuildingBlock: FUNLAD_clean_linker_0, # of connection points: 2
# Relax obj value: 0.103
# Max RMSD: 0.204
# Mean RMSD: 0.148
data_MOF--net-tsx--node1-CIFDUS_clean_sbu_1--node2-QEWDON_clean_linker_0--edge1-FUNLAD_clean_linker_0
_symmetry_space_group_name_H-M    P1
_symmetry_Int_Tables_number       1
_symmetry_cell_setting            triclinic
loop_
_symmetry_equiv_pos_as_xyz
'x, y, z'
_cell_length_a     22.601919
_cell_length_b     28.298163
_cell_length_c     38.483219
_cell_angle_alpha  97.520805
_cell_angle_beta   107.59888
_cell_angle_gamma 91.463515
loop_
_atom_site_label
_atom_site_type_symbol
_atom_site_fract_x
_atom_site_fract_y
_atom_site_fract_z
_atom_type_partial_charge
O0 O 0.03698 0.07712 0.02357 0.0
Mn1 Mn 0.06536 0.00712 0.01834 0.0
O2 O 0.9325 0.07239 1.00488 0.0
Mn3 Mn 0.92464 0.01029 0.98196 0.0
O4 O 0.09522 0.93737 0.01327 0.0
O5 O 0.15076 0.03593 0.02475 0.0
Mn6 Mn 0.20806 0.00745 0.05508 0.0
O7 O 0.08589 0.00898 0.07561 0.0
O8 O 0.20024 0.94508 0.03277 0.0
O9 O 0.04529 0.00438 0.96112 0.0
O10 O 0.94096 0.0002 0.93737 0.0
O11 O 0.24998 0.05414 0.04046 0.0
O12 O 0.19035 0.01653 0.09938 0.0
C13 C 0.93164 0.95275 1.01281 0.0
C14 C 0.98466 0.09598 0.01945 0.0
C15 C 0.14888 0.9202 0.01819 0.0
C16 C 0.19472 0.06339 0.02162 0.0
C17 C 0.1362 0.01372 0.10319 0.0
C18 C 0.99508 -0.00034 0.93357 0.0
O19 O 0.97912 0.97852 1.01182 0.0
O20 O 0.87797 0.96513 0.994 0.0
O21 O 0.52033 0.56777 0.52143 0.0
Mn22 Mn 0.58785 0.51772 0.53117 0.0
O23 O 0.43578 0.53161 0.47743 0.0
Mn24 Mn 0.47344 0.47694 0.4659 0.0
O25 O 0.6562 0.46858 0.54201 0.0
O26 O 0.65254 0.57144 0.55363 0.0
Mn27 Mn 0.70123 0.56294 0.59713 0.0
O28 O 0.57328 0.51285 0.5822 0.0
O29 O 0.73771 0.50627 0.58802 0.0
O30 O 0.60355 0.52245 0.48042 0.0
O31 O 0.52311 0.48112 0.43627 0.0
O32 O 0.72941 0.62029 0.58706 0.0
O33 O 0.64856 0.56064 0.62548 0.0
C34 C 0.48733 0.42449 0.50187 0.0
C35 C 0.46337 0.56727 0.50121 0.0
C36 C 0.71187 0.46974 0.5644 0.0
C37 C 0.68518 0.6103 0.55618 0.0
C38 C 0.59826 0.53402 0.61547 0.0
C39 C 0.57607 0.50402 0.44677 0.0
O40 O 0.52234 0.46349 0.50821 0.0
O41 O 0.44298 0.4184 0.47082 0.0
H42 H 0.07974 0.03523 0.43543 0.0
C43 C 0.10241 0.00393 0.44411 0.0
C44 C 0.12454 0.97584 0.41845 0.0
C45 C 0.11335 -0.00684 0.48042 0.0
H46 H 0.1769 0.91561 0.40947 0.0
C47 C 0.15886 0.93689 0.42906 0.0
C48 C 0.17069 0.92529 0.46466 0.0
C49 C 0.14585 0.95226 0.48959 0.0
C50 C 0.09695 0.02679 0.50936 0.0
H51 H 0.15463 0.94168 0.51645 0.0
C52 C 0.05544 0.07486 0.49667 0.0
C53 C 0.04913 0.13216 0.55495 0.0
C54 C 0.1276 0.02097 0.55491 0.0
H55 H 0.15499 -0.00888 0.56207 0.0
C56 C 0.12415 0.05829 0.59266 0.0
H57 H 0.03516 0.07663 0.46736 0.0
C58 C 0.08812 0.10994 0.59408 0.0
H59 H 0.08978 0.12921 0.6206 0.0
H60 H 0.14802 0.04768 0.61906 0.0
H61 H 0.02411 0.0496 0.61347 0.0
C62 C 1.00941 0.01641 0.59502 0.0
C63 C 0.99163 0.97719 0.6092 0.0
C64 C 1.00748 0.01308 0.55778 0.0
H65 H 0.94743 0.90597 0.59515 0.0
C66 C 0.96376 0.93592 0.58478 0.0
C67 C 0.9535 0.93397 0.54673 0.0
C68 C 0.97656 0.97219 0.53342 0.0
C69 C 0.02758 0.05551 0.54232 0.0
H70 H 0.96908 0.97062 0.5041 0.0
C71 C 0.13124 0.1027 0.54527 0.0
C72 C 0.11604 0.14835 0.52005 0.0
C73 C 0.96513 0.08049 0.51483 0.0
H74 H 0.91855 0.06547 0.51059 0.0
C75 C 0.97426 0.12828 0.49398 0.0
H76 H 0.18026 0.09808 0.55932 0.0
C77 C 0.04204 0.15863 0.49634 0.0
H78 H 0.03678 0.18882 0.48135 0.0
H79 H 0.93194 0.14129 0.47735 0.0
H80 H 0.5719 0.53088 0.94213 0.0
C81 C 0.59889 0.50197 0.95224 0.0
C82 C 0.6258 0.4753 0.9283 0.0
C83 C 0.60829 0.49232 0.98852 0.0
H84 H 0.68994 0.42206 0.92375 0.0
C85 C 0.66567 0.44013 0.94142 0.0
C86 C 0.67723 0.43038 0.9777 0.0
C87 C 0.6459 0.45503 1.00029 0.0
C88 C 0.58436 0.52417 0.01478 0.0
H89 H 0.65192 0.44517 0.02724 0.0
C90 C 0.53097 0.56379 0.9977 0.0
C91 C 0.51429 0.6244 0.05079 0.0
C92 C 0.61879 0.52705 0.06119 0.0
H93 H 0.65389 0.50252 0.07055 0.0
C94 C 0.6087 0.56676 0.09598 0.0
H95 H 0.50761 0.55839 0.96802 0.0
C96 C 0.56057 0.61227 0.09259 0.0
H97 H 0.55813 0.63338 0.11762 0.0
H98 H 0.63636 0.56245 0.12357 0.0
H99 H 0.52037 0.54737 0.12128 0.0
C100 C 0.50768 0.51268 0.10477 0.0
C101 C 0.49509 0.47501 0.12228 0.0
C102 C 0.50197 0.50588 0.06679 0.0
H103 H 0.45456 0.40293 0.11338 0.0
C104 C 0.46694 0.43197 0.10056 0.0
C105 C 0.45244 0.42641 0.06209 0.0
C106 C 0.47324 0.46223 0.04558 0.0
C107 C 0.51122 0.54706 0.04657 0.0
H108 H 0.46272 0.45769 0.01587 0.0
C109 C 0.60216 0.60465 0.0433 0.0
C110 C 0.57577 0.64349 0.01311 0.0
C111 C 0.4407 0.56025 0.01641 0.0
H112 H 0.39906 0.53472 0.01795 0.0
C113 C 0.43798 0.60688 0.98901 0.0
H114 H 0.65214 0.60799 0.05806 0.0
C115 C 0.49942 0.64288 0.98875 0.0
H116 H 0.4876 0.66883 0.9699 0.0
H117 H 0.43521 0.58143 1.00262 0.0
C118 C 0.22238 0.11075 0.9787 0.0
C119 C 0.18622 0.10494 1.00194 0.0
C120 C 0.23467 0.15603 0.97069 0.0
C121 C 0.21195 0.19642 0.98654 0.0
C122 C 0.17 0.18963 1.00631 0.0
C123 C 0.15765 0.14421 0.01425 0.0
C124 C 0.23757 0.24584 0.98789 0.0
C125 C 0.29669 0.25564 0.98834 0.0
C126 C 0.33096 0.30327 1.00289 0.0
C127 C 0.3857 0.31382 0.99429 0.0
C128 C 0.42446 0.3549 1.01227 0.0
C129 C 0.40962 0.38553 0.03971 0.0
H130 H 0.27456 0.32828 0.03763 0.0
C131 C 0.35386 0.37596 0.0473 0.0
C132 C 0.31505 0.3354 0.02923 0.0
H133 H 0.34105 0.39935 0.06811 0.0
H134 H 0.24518 0.08082 0.96911 0.0
H135 H 0.26506 0.15948 0.95405 0.0
H136 H 0.15134 0.22004 0.01859 0.0
H137 H 0.13129 0.14086 0.03317 0.0
H138 H 0.21031 0.27486 0.99425 0.0
H139 H 0.32401 0.22687 0.98164 0.0
H140 H 0.39951 0.28943 0.97445 0.0
H141 H 0.46718 0.36159 1.00593 0.0
C142 C 0.15888 0.83998 0.03642 0.0
C143 C 0.15478 0.86908 1.00908 0.0
C144 C 0.19449 0.80012 0.03788 0.0
C145 C 0.22674 0.7892 1.01201 0.0
C146 C 0.21535 0.81475 0.98197 0.0
C147 C 0.18006 0.85461 0.98067 0.0
C148 C 0.27779 0.75605 0.01723 0.0
C149 C 0.30676 0.74063 0.04938 0.0
C150 C 0.36374 0.71442 0.05391 0.0
C151 C 0.36839 0.67159 0.06875 0.0
C152 C 0.41924 0.64423 0.06956 0.0
C153 C 0.46612 0.65923 0.05546 0.0
H154 H 0.41264 0.76642 0.034 0.0
C155 C 0.4655 0.70528 0.04554 0.0
C156 C 0.4138 0.73209 0.04369 0.0
H157 H 0.50356 0.7198 0.03788 0.0
H158 H 0.14035 0.85096 0.05889 0.0
H159 H 0.19972 0.78024 0.06065 0.0
H160 H 0.23856 0.8067 0.96125 0.0
H161 H 0.17835 0.87708 0.95968 0.0
H162 H 0.29651 0.74741 0.9944 0.0
H163 H 0.28947 0.74701 0.07283 0.0
H164 H 0.33136 0.65822 0.07808 0.0
H165 H 0.42038 0.61008 0.07952 0.0
C166 C 0.89932 0.90838 0.055 0.0
C167 C 0.93403 0.90977 0.03045 0.0
C168 C 0.86958 0.86552 0.05704 0.0
C169 C 0.87408 0.82346 0.03441 0.0
C170 C 0.91643 0.82356 0.01418 0.0
C171 C 0.94617 0.86671 1.01206 0.0
C172 C 0.82947 0.78143 0.02814 0.0
C173 C 0.76847 0.78725 0.02348 0.0
C174 C 0.71886 0.7481 0.01582 0.0
C175 C 0.65675 0.76029 1.0088 0.0
C176 C 0.60902 0.72577 1.00523 0.0
C177 C 0.62255 0.67832 1.0091 0.0
H178 H 0.77811 0.6883 0.02164 0.0
C179 C 0.68376 0.6654 0.01327 0.0
C180 C 0.73149 0.69982 0.01688 0.0
H181 H 0.69539 0.62868 0.01475 0.0
H182 H 0.88896 0.94127 0.0692 0.0
H183 H 0.83897 0.8661 0.07397 0.0
H184 H 0.92149 0.79132 0.99703 0.0
H185 H 0.97199 0.86708 0.9925 0.0
H186 H 0.84618 0.74623 0.02405 0.0
H187 H 0.7534 0.82345 0.02494 0.0
H188 H 0.64524 0.79705 1.00723 0.0
H189 H 0.56234 0.73693 1.00122 0.0
C190 C 0.94658 0.16499 0.05053 0.0
C191 C 0.98236 0.14774 0.02817 0.0
C192 C 0.92496 0.21066 0.04924 0.0
C193 C 0.93835 0.2397 0.02514 0.0
C194 C 0.97872 0.22378 1.00522 0.0
C195 C 1.00066 0.1781 1.00674 0.0
C196 C 0.90218 0.28163 0.01497 0.0
C197 C 0.86984 0.3045 0.03542 0.0
C198 C 0.82153 0.3371 0.02018 0.0
C199 C 0.81146 0.37665 0.04315 0.0
C200 C 0.76443 0.40669 0.02948 0.0
C201 C 0.72528 0.397 0.99274 0.0
H202 H 0.78737 0.29568 0.96559 0.0
C203 C 0.73449 0.35644 0.97012 0.0
C204 C 0.78225 0.32701 0.9836 0.0
H205 H 0.7045 0.3471 0.94201 0.0
H206 H 0.93102 0.14165 0.06669 0.0
H207 H 0.89327 0.22092 0.0646 0.0
H208 H 0.98947 0.24524 0.98628 0.0
H209 H 0.02656 0.16492 0.98839 0.0
H210 H 0.89817 0.29171 0.98807 0.0
H211 H 0.87742 0.29852 0.06369 0.0
H212 H 0.84064 0.38473 0.07157 0.0
H213 H 0.75964 0.43799 0.04762 0.0
C214 C 0.67163 0.6874 0.53266 0.0
C215 C 0.68087 0.63867 0.52633 0.0
C216 C 0.6935 0.71973 0.51411 0.0
C217 C 0.72609 0.70379 0.4893 0.0
C218 C 0.72912 0.65434 0.48014 0.0
C219 C 0.70639 0.62194 0.49843 0.0
C220 C 0.7689 0.73729 0.47988 0.0
C221 C 0.76356 0.78484 0.48245 0.0
C222 C 0.81763 0.82005 0.49002 0.0
C223 C 0.8068 0.86713 0.48316 0.0
C224 C 0.85379 0.90387 0.49848 0.0
C225 C 0.91206 0.89426 0.52155 0.0
H226 H 0.88799 0.77445 0.51712 0.0
C227 C 0.92449 0.84678 0.52621 0.0
C228 C 0.87792 0.80994 0.51044 0.0
H229 H 0.96891 0.83864 0.54422 0.0
H230 H 0.65314 0.70108 0.55462 0.0
H231 H 0.69072 0.75739 0.5225 0.0
H232 H 0.75404 0.641 0.46126 0.0
H233 H 0.71521 0.58455 0.49369 0.0
H234 H 0.81061 0.72294 0.47546 0.0
H235 H 0.71976 0.79905 0.48331 0.0
H236 H 0.76076 0.87603 0.4679 0.0
H237 H 0.84285 0.94034 0.49494 0.0
C238 C 0.80972 0.42799 0.58711 0.0
C239 C 0.74836 0.42693 0.56339 0.0
C240 C 0.84443 0.38792 0.58691 0.0
C241 C 0.81892 0.34567 0.5627 0.0
C242 C 0.75743 0.34437 0.53925 0.0
C243 C 0.72256 0.38456 0.53946 0.0
C244 C 0.85422 0.30201 0.56194 0.0
C245 C 0.91693 0.30265 0.57398 0.0
C246 C 0.95171 0.25899 0.57195 0.0
C247 C 0.92603 0.21347 0.57272 0.0
C248 C 0.95875 0.17296 0.56864 0.0
C249 C 1.01692 0.17692 0.56272 0.0
H250 H 0.03437 0.29808 0.5705 0.0
C251 C 0.04512 0.22268 0.56561 0.0
C252 C 1.01252 0.26329 0.56981 0.0
H253 H 0.0916 0.2271 0.56364 0.0
H254 H 0.83113 0.45977 0.6062 0.0
H255 H 0.89075 0.39017 0.60632 0.0
H256 H 0.73631 0.31217 0.52056 0.0
H257 H 0.67537 0.38228 0.52098 0.0
H258 H 0.82734 0.26844 0.54927 0.0
H259 H 0.94432 0.33655 0.58339 0.0
H260 H 0.88084 0.20892 0.57655 0.0
H261 H 0.9378 0.13837 0.56926 0.0
C262 C 0.48851 0.34248 0.51519 0.0
C263 C 0.48891 0.39121 0.52812 0.0
C264 C 0.45598 0.30868 0.52703 0.0
C265 C 0.42342 0.32337 0.55196 0.0
C266 C 0.43232 0.37102 0.56926 0.0
C267 C 0.4647 0.40499 0.55717 0.0
C268 C 0.37291 0.2917 0.5555 0.0
C269 C 0.33188 0.26638 0.5252 0.0
C270 C 0.27546 0.23816 0.52512 0.0
C271 C 0.22651 0.22679 0.49187 0.0
C272 C 0.17353 0.19872 0.4902 0.0
C273 C 0.16912 0.18093 0.52167 0.0
H274 H 0.307 0.22833 0.58278 0.0
C275 C 0.21745 0.1929 0.55504 0.0
C276 C 0.27015 0.22109 0.55679 0.0
H277 H 0.21472 0.18041 0.57997 0.0
H278 H 0.50649 0.33116 0.49254 0.0
H279 H 0.45145 0.27181 0.51415 0.0
H280 H 0.40837 0.38298 0.58898 0.0
H281 H 0.46341 0.44251 0.56701 0.0
H282 H 0.36487 0.29425 0.58207 0.0
H283 H 0.33782 0.26869 0.49845 0.0
H284 H 0.22943 0.2394 0.467 0.0
H285 H 0.13708 0.18979 0.46412 0.0
C286 C 0.45697 0.65465 0.52177 0.0
C287 C 0.42728 0.60941 0.50536 0.0
C288 C 0.42191 0.69451 0.52358 0.0
C289 C 0.35649 0.68967 0.50919 0.0
C290 C 0.32703 0.64413 0.49435 0.0
C291 C 0.36191 0.60457 0.49216 0.0
C292 C 0.31715 0.73104 0.5081 0.0
C293 C 0.33673 0.77515 0.50498 0.0
C294 C 0.29429 0.81432 0.49688 0.0
C295 C 0.30934 0.84956 0.47792 0.0
C296 C 0.26923 0.88545 0.46767 0.0
C297 C 0.21321 0.88725 0.47643 0.0
H298 H 0.22678 0.79117 0.5223 0.0
C299 C 0.19898 0.85303 0.49658 0.0
C300 C 0.23912 0.81686 0.50673 0.0
H301 H 0.15636 0.85376 0.50394 0.0
H302 H 0.50725 0.65944 0.53249 0.0
H303 H 0.44615 0.7289 0.53619 0.0
H304 H 0.27676 0.63928 0.48342 0.0
H305 H 0.33744 0.57011 0.47989 0.0
H306 H 0.2685 0.72345 0.50541 0.0
H307 H 0.38389 0.78151 0.50421 0.0
H308 H 0.35175 0.84881 0.4703 0.0
H309 H 0.28221 0.91199 0.45291 0.0
C310 C 0.07619 0.01116 0.14916 0.0
C311 C 0.13307 0.01315 0.14123 0.0
C312 C 0.07522 0.00748 0.18513 0.0
C313 C 0.13118 0.00525 0.21357 0.0
C314 C 0.18753 0.00789 0.20557 0.0
C315 C 0.1886 0.01216 0.17016 0.0
C316 C 0.1341 -0.00268 0.25146 0.0
C317 C 0.09253 0.0114 0.26886 0.0
C318 C 0.10148 0.00517 0.30808 0.0
C319 C 0.04967 0.00267 0.32098 0.0
C320 C 0.05693 -0.00541 0.35723 0.0
C321 C 0.1162 0.98874 0.38115 0.0
H322 H 0.20277 0.0064 0.32516 0.0
C323 C 0.16816 -0.0066 0.36883 0.0
C324 C 0.16108 0.00204 0.33298 0.0
H325 H 0.21454 -0.00974 0.38703 0.0
H326 H 0.03252 0.01162 0.12755 0.0
H327 H 0.03082 0.00477 0.19023 0.0
H328 H 0.23132 0.00623 0.22687 0.0
H329 H 0.23345 0.01353 0.16545 0.0
H330 H 0.1746 0.98001 0.26606 0.0
H331 H 0.05101 0.02761 0.2542 0.0
H332 H 1.00335 0.00583 0.30274 0.0
H333 H 1.01614 -0.00858 0.3662 0.0
C334 C 0.05156 0.00559 0.88661 0.0
C335 C 0.99852 -0.0089 0.89543 0.0
C336 C 0.05228 -0.00201 0.84992 0.0
C337 C 1.0002 0.97516 0.82166 0.0
C338 C 0.94828 0.95963 0.83086 0.0
C339 C 0.94715 0.96786 0.86711 0.0
C340 C 0.99736 0.96622 0.78225 0.0
C341 C 0.02774 -0.00586 0.76648 0.0
C342 C 1.01805 0.98781 0.72602 0.0
C343 C 0.06439 0.00608 0.71306 0.0
C344 C 0.05603 0.00221 0.67524 0.0
C345 C 1.00077 0.98029 0.64942 0.0
H346 H 0.92437 0.95336 0.70869 0.0
C347 C 0.95416 0.96228 0.66233 0.0
C348 C 0.96248 0.96618 0.70013 0.0
H349 H 0.91049 0.94622 0.6432 0.0
H350 H 0.09198 0.02332 0.90789 0.0
H351 H 0.09374 0.00945 0.84393 0.0
H352 H 0.90777 0.94164 0.80977 0.0
H353 H 0.90583 0.95558 0.87294 0.0
H354 H 0.96571 0.93678 0.76524 0.0
H355 H 0.06004 0.02327 0.78348 0.0
H356 H 0.10735 0.02332 0.73226 0.0
H357 H 0.09305 0.01621 0.6662 0.0
C358 C 0.57451 0.56127 0.67346 0.0
C359 C 0.5728 0.52421 0.64505 0.0
C360 C 0.56555 0.55129 0.70614 0.0
C361 C 0.55626 0.50373 0.71153 0.0
C362 C 0.54945 0.46702 0.68188 0.0
C363 C 0.55777 0.47714 0.64888 0.0
C364 C 0.55691 0.49113 0.74809 0.0
C365 C 0.58729 0.51907 0.78018 0.0
C366 C 0.59376 0.50637 0.81742 0.0
C367 C 0.60794 0.54335 0.84742 0.0
C368 C 0.61793 0.53333 0.88326 0.0
C369 C 0.61463 0.48591 0.89007 0.0
H370 H 0.5813 0.42918 0.80202 0.0
C371 C 0.60082 0.44875 0.86015 0.0
C372 C 0.59037 0.45881 0.82417 0.0
H373 H 0.59794 0.41185 0.86458 0.0
H374 H 0.58548 0.59794 0.67099 0.0
H375 H 0.56785 0.58095 0.72741 0.0
H376 H 0.54134 0.43013 0.68499 0.0
H377 H 0.55714 0.44786 0.6276 0.0
H378 H 0.53485 0.45676 0.74847 0.0
H379 H 0.60994 0.55312 0.77966 0.0
H380 H 0.61166 0.58027 0.84315 0.0
H381 H 0.62942 0.56274 0.90575 0.0
C382 C 0.60866 0.46843 0.39427 0.0
C383 C 0.60402 0.50962 0.41762 0.0
C384 C 0.61283 0.4717 0.35928 0.0
C385 C 0.61144 0.51627 0.34679 0.0
C386 C 0.6139 0.55794 0.37164 0.0
C387 C 0.60984 0.55463 0.40693 0.0
C388 C 0.60069 0.51906 0.3071 0.0
C389 C 0.55954 0.48763 0.28105 0.0
C390 C 0.54273 0.48831 0.24071 0.0
C391 C 0.48646 0.46427 0.21799 0.0
C392 C 0.47018 0.46095 0.17971 0.0
C393 C 0.51024 0.48117 0.16312 0.0
H394 H 0.62668 0.52751 0.24081 0.0
C395 C 0.56621 0.50599 0.18589 0.0
C396 C 0.58235 0.50956 0.22429 0.0
H397 H 0.59853 0.52145 0.174 0.0
H398 H 0.6041 0.43336 0.40201 0.0
H399 H 0.61312 0.43906 0.34117 0.0
H400 H 0.61366 0.59272 0.36274 0.0
H401 H 0.60537 0.58679 0.42434 0.0
H402 H 0.62196 0.54936 0.29958 0.0
H403 H 0.53429 0.46065 0.28979 0.0
H404 H 0.45499 0.44762 0.2299 0.0
H405 H 0.42621 0.44238 0.16314 0.0
loop_
_geom_bond_atom_site_label_1
_geom_bond_atom_site_label_2
_geom_bond_distance
_geom_bond_site_symmetry_2
_ccdc_geom_bond_type
O0 Mn1 2.163 . S
O0 C14 1.244 1_454 S
Mn1 O0 2.163 . S
Mn1 O4 2.160 1_545 S
Mn1 O5 2.221 . S
Mn1 O7 2.160 1_545 S
Mn1 O9 2.160 1_554 S
Mn1 O19 2.221 1_444 S
O2 Mn3 2.087 1_545 S
O2 C14 1.256 . S
Mn3 O2 2.087 1_565 S
Mn3 O10 2.089 1_565 S
Mn3 O19 2.290 . S
Mn3 O20 2.251 . S
O4 Mn1 2.160 1_565 S
O4 C15 1.239 . S
O5 Mn1 2.221 . S
O5 Mn6 2.290 . S
O5 C16 1.278 . S
Mn6 O5 2.290 . S
Mn6 O8 2.089 1_545 S
Mn6 O11 2.251 . S
Mn6 O12 2.087 . S
O7 Mn1 2.160 1_565 S
O7 C17 1.243 1_565 S
O8 Mn6 2.089 1_565 S
O8 C15 1.256 . S
O9 Mn1 2.160 1_556 S
O9 C18 1.239 . S
O10 Mn3 2.089 1_545 S
O10 C18 1.256 1_655 S
O11 Mn6 2.251 . S
O11 C16 1.241 . S
O12 Mn6 2.087 . S
O12 C17 1.256 . S
C13 O19 1.279 . S
C13 O20 1.241 . S
C14 O0 1.244 1_656 S
C14 O2 1.256 . S
C15 O4 1.239 . S
C15 O8 1.256 . S
C16 O5 1.278 . S
C16 O11 1.241 . S
C17 O7 1.243 1_545 S
C17 O12 1.256 . S
C18 O9 1.239 . S
C18 O10 1.256 1_455 S
O19 Mn1 2.221 1_666 S
O19 Mn3 2.290 . S
O19 C13 1.279 . S
O20 Mn3 2.251 . S
O20 C13 1.241 . S
O21 Mn22 2.163 . S
O21 C35 1.244 . S
Mn22 O21 2.163 . S
Mn22 O25 2.160 . S
Mn22 O26 2.221 . S
Mn22 O28 2.163 . S
Mn22 O30 2.160 . S
Mn22 O40 2.221 . S
O23 Mn24 2.087 . S
O23 C35 1.256 . S
Mn24 O23 2.087 . S
Mn24 O31 2.089 . S
Mn24 O40 2.290 . S
Mn24 O41 2.251 . S
O25 Mn22 2.160 . S
O25 C36 1.239 . S
O26 Mn22 2.221 . S
O26 Mn27 2.290 . S
O26 C37 1.278 . S
Mn27 O26 2.290 . S
Mn27 O29 2.089 . S
Mn27 O32 2.251 . S
Mn27 O33 2.087 . S
O28 Mn22 2.163 . S
O28 C38 1.244 . S
O29 Mn27 2.089 . S
O29 C36 1.256 . S
O30 Mn22 2.160 . S
O30 C39 1.239 . S
O31 Mn24 2.089 . S
O31 C39 1.256 . S
O32 Mn27 2.251 . S
O32 C37 1.241 . S
O33 Mn27 2.087 . S
O33 C38 1.256 . S
C34 O40 1.278 . S
C34 O41 1.241 . S
C35 O21 1.244 . S
C35 O23 1.256 . S
C36 O25 1.239 . S
C36 O29 1.256 . S
C37 O26 1.278 . S
C37 O32 1.241 . S
C38 O28 1.244 . S
C38 O33 1.256 . S
C39 O30 1.239 . S
C39 O31 1.256 . S
O40 Mn22 2.221 . S
O40 Mn24 2.290 . S
O40 C34 1.278 . S
O41 Mn24 2.251 . S
O41 C34 1.241 . S
H42 C43 0.949 . S
C43 H42 0.949 . S
C43 C44 1.395 1_545 S
C43 C45 1.391 . S
C44 C43 1.395 1_565 S
C44 C47 1.390 . S
C45 C43 1.391 . S
C45 C49 1.387 1_545 S
C45 C50 1.491 . S
H46 C47 0.950 . S
C47 C44 1.390 . S
C47 H46 0.950 . S
C47 C48 1.378 . S
C48 C47 1.378 . S
C48 C49 1.409 . S
C49 C45 1.387 1_565 S
C49 C48 1.409 . S
C49 H51 0.951 . S
C50 C45 1.491 . S
C50 C52 1.382 . S
C50 C54 1.404 . S
H51 C49 0.951 . S
C52 C50 1.382 . S
C52 C53 1.390 . S
C52 H57 0.949 1_455 S
C53 C52 1.390 . S
C53 C58 1.399 . S
C54 C50 1.404 . S
C54 H55 0.950 . S
C54 C56 1.375 . S
H55 C54 0.950 . S
C56 C54 1.375 . S
C56 C58 1.382 . S
C56 H60 0.950 . S
H57 C52 0.949 1_655 S
C58 C53 1.399 . S
C58 C56 1.382 . S
C58 H59 0.952 . S
H59 C58 0.952 . S
H60 C56 0.950 . S
H61 C62 0.951 . S
C62 H61 0.951 . S
C62 C63 1.393 1_455 S
C62 C64 1.391 1_455 S
C63 C62 1.393 1_655 S
C63 C66 1.399 . S
C64 C62 1.391 1_655 S
C64 C68 1.387 . S
C64 C69 1.491 1_655 S
H65 C66 0.942 1_565 S
C66 C63 1.399 . S
C66 H65 0.942 1_545 S
C66 C67 1.377 1_545 S
C67 C66 1.377 1_565 S
C67 C68 1.409 1_565 S
C68 C64 1.387 . S
C68 C67 1.409 1_545 S
C68 H70 0.951 . S
C69 C64 1.491 1_455 S
C69 C71 1.382 . S
C69 C73 1.404 1_455 S
H70 C68 0.951 . S
C71 C69 1.382 . S
C71 C72 1.390 . S
C71 H76 0.949 . S
C72 C71 1.390 . S
C72 C77 1.399 . S
C73 C69 1.404 1_655 S
C73 H74 0.950 . S
C73 C75 1.375 . S
H74 C73 0.950 . S
C75 C73 1.375 . S
C75 C77 1.382 1_655 S
C75 H79 0.950 . S
H76 C71 0.949 . S
C77 C72 1.399 . S
C77 C75 1.382 1_455 S
C77 H78 0.952 . S
H78 C77 0.952 . S
H79 C75 0.950 . S
H80 C81 0.949 . S
C81 H80 0.949 . S
C81 C82 1.395 . S
C81 C83 1.391 . S
C82 C81 1.395 . S
C82 C85 1.390 . S
C83 C81 1.391 . S
C83 C87 1.387 . S
C83 C88 1.491 . S
H84 C85 0.950 . S
C85 C82 1.390 . S
C85 H84 0.950 . S
C85 C86 1.378 . S
C86 C85 1.378 . S
C86 C87 1.409 . S
C87 C83 1.387 . S
C87 C86 1.409 . S
C87 H89 0.951 1_556 S
C88 C83 1.491 . S
C88 C90 1.382 . S
C88 C92 1.404 1_556 S
H89 C87 0.951 1_554 S
C90 C88 1.382 . S
C90 C91 1.390 1_556 S
C90 H95 0.949 . S
C91 C90 1.390 1_554 S
C91 C96 1.399 . S
C92 C88 1.404 1_554 S
C92 H93 0.950 . S
C92 C94 1.375 . S
H93 C92 0.950 . S
C94 C92 1.375 . S
C94 C96 1.382 . S
C94 H98 0.950 . S
H95 C90 0.949 . S
C96 C91 1.399 . S
C96 C94 1.382 . S
C96 H97 0.952 . S
H97 C96 0.952 . S
H98 C94 0.950 . S
H99 C100 0.949 . S
C100 H99 0.949 . S
C100 C101 1.395 . S
C100 C102 1.391 . S
C101 C100 1.395 . S
C101 C104 1.390 . S
C102 C100 1.391 . S
C102 C106 1.387 . S
C102 C107 1.491 . S
H103 C104 0.950 . S
C104 C101 1.390 . S
C104 H103 0.950 . S
C104 C105 1.378 . S
C105 C104 1.378 . S
C105 C106 1.409 . S
C106 C102 1.387 . S
C106 C105 1.409 . S
C106 H108 0.951 . S
C107 C102 1.491 . S
C107 C109 1.382 . S
C107 C111 1.405 . S
H108 C106 0.951 . S
C109 C107 1.382 . S
C109 C110 1.390 . S
C109 H114 0.949 . S
C110 C109 1.390 . S
C110 C115 1.399 1_554 S
C111 C107 1.405 . S
C111 H112 0.950 1_554 S
C111 C113 1.373 1_554 S
H112 C111 0.950 1_556 S
C113 C111 1.373 1_556 S
C113 C115 1.382 . S
C113 H117 0.950 . S
H114 C109 0.949 . S
C115 C110 1.399 1_556 S
C115 C113 1.382 . S
C115 H116 0.952 . S
H116 C115 0.952 . S
H117 C113 0.950 . S
C118 C119 1.386 . S
C118 C120 1.383 . S
C118 H134 0.951 . S
C119 C118 1.386 . S
C119 C123 1.383 . S
C120 C118 1.383 . S
C120 C121 1.402 . S
C120 H135 0.951 . S
C121 C120 1.402 . S
C121 C122 1.375 . S
C121 C124 1.481 . S
C122 C121 1.375 . S
C122 C123 1.367 . S
C122 H136 0.951 1_554 S
C123 C119 1.383 . S
C123 C122 1.367 . S
C123 H137 0.950 1_554 S
C124 C121 1.481 . S
C124 C125 1.297 . S
C124 H138 0.950 . S
C125 C124 1.297 . S
C125 C126 1.479 . S
C125 H139 0.950 . S
C126 C125 1.479 . S
C126 C127 1.375 . S
C126 C132 1.404 . S
C127 C126 1.375 . S
C127 C128 1.369 . S
C127 H140 0.950 . S
C128 C127 1.369 . S
C128 C129 1.392 . S
C128 H141 0.951 . S
C129 C128 1.392 . S
C129 C131 1.384 . S
H130 C132 0.949 1_556 S
C131 C129 1.384 . S
C131 C132 1.385 . S
C131 H133 0.950 . S
C132 C126 1.404 . S
C132 H130 0.949 1_554 S
C132 C131 1.385 . S
H133 C131 0.950 . S
H134 C118 0.951 . S
H135 C120 0.951 . S
H136 C122 0.951 1_556 S
H137 C123 0.950 1_556 S
H138 C124 0.950 . S
H139 C125 0.950 . S
H140 C127 0.950 . S
H141 C128 0.951 . S
C142 C143 1.386 . S
C142 C144 1.383 . S
C142 H158 0.951 . S
C143 C142 1.386 . S
C143 C147 1.383 1_554 S
C144 C142 1.383 . S
C144 C145 1.402 . S
C144 H159 0.951 . S
C145 C144 1.402 . S
C145 C146 1.375 1_554 S
C145 C148 1.481 1_554 S
C146 C145 1.375 1_556 S
C146 C147 1.367 . S
C146 H160 0.951 . S
C147 C143 1.383 1_556 S
C147 C146 1.367 . S
C147 H161 0.950 . S
C148 C145 1.481 1_556 S
C148 C149 1.297 1_556 S
C148 H162 0.950 . S
C149 C148 1.297 1_554 S
C149 C150 1.479 . S
C149 H163 0.950 . S
C150 C149 1.479 . S
C150 C151 1.375 . S
C150 C156 1.404 1_554 S
C151 C150 1.375 . S
C151 C152 1.369 . S
C151 H164 0.950 . S
C152 C151 1.369 . S
C152 C153 1.392 . S
C152 H165 0.951 . S
C153 C152 1.392 . S
C153 C155 1.384 1_554 S
H154 C156 0.949 . S
C155 C153 1.384 1_556 S
C155 C156 1.385 . S
C155 H157 0.950 . S
C156 C150 1.404 1_556 S
C156 H154 0.949 . S
C156 C155 1.385 . S
H157 C155 0.950 . S
H158 C142 0.951 . S
H159 C144 0.951 . S
H160 C146 0.951 . S
H161 C147 0.950 . S
H162 C148 0.950 . S
H163 C149 0.950 . S
H164 C151 0.950 . S
H165 C152 0.951 . S
C166 C167 1.386 . S
C166 C168 1.383 . S
C166 H182 0.951 . S
C167 C166 1.386 . S
C167 C171 1.383 1_554 S
C168 C166 1.383 . S
C168 C169 1.402 . S
C168 H183 0.951 . S
C169 C168 1.402 . S
C169 C170 1.375 1_554 S
C169 C172 1.481 . S
C170 C169 1.375 1_556 S
C170 C171 1.367 . S
C170 H184 0.951 . S
C171 C167 1.383 1_556 S
C171 C170 1.367 . S
C171 H185 0.950 . S
C172 C169 1.481 . S
C172 C173 1.297 . S
C172 H186 0.950 1_554 S
C173 C172 1.297 . S
C173 C174 1.479 . S
C173 H187 0.950 . S
C174 C173 1.479 . S
C174 C175 1.375 . S
C174 C180 1.404 1_554 S
C175 C174 1.375 . S
C175 C176 1.369 . S
C175 H188 0.950 . S
C176 C175 1.369 . S
C176 C177 1.392 . S
C176 H189 0.951 . S
C177 C176 1.392 . S
C177 C179 1.384 1_554 S
H178 C180 0.949 . S
C179 C177 1.384 1_556 S
C179 C180 1.385 . S
C179 H181 0.950 . S
C180 C174 1.404 1_556 S
C180 H178 0.949 . S
C180 C179 1.385 . S
H181 C179 0.950 . S
H182 C166 0.951 . S
H183 C168 0.951 . S
H184 C170 0.951 . S
H185 C171 0.950 . S
H186 C172 0.950 1_556 S
H187 C173 0.950 . S
H188 C175 0.950 . S
H189 C176 0.951 . S
C190 C191 1.386 1_554 S
C190 C192 1.383 . S
C190 H206 0.951 . S
C191 C190 1.386 1_556 S
C191 C195 1.383 . S
C192 C190 1.383 . S
C192 C193 1.402 1_554 S
C192 H207 0.951 . S
C193 C192 1.402 1_556 S
C193 C194 1.375 . S
C193 C196 1.481 . S
C194 C193 1.375 . S
C194 C195 1.367 . S
C194 H208 0.951 . S
C195 C191 1.383 . S
C195 C194 1.367 . S
C195 H209 0.950 . S
C196 C193 1.481 . S
C196 C197 1.297 . S
C196 H210 0.950 . S
C197 C196 1.297 . S
C197 C198 1.479 . S
C197 H211 0.950 . S
C198 C197 1.479 . S
C198 C199 1.375 . S
C198 C204 1.404 . S
C199 C198 1.375 . S
C199 C200 1.369 . S
C199 H212 0.950 1_556 S
C200 C199 1.369 . S
C200 C201 1.392 . S
C200 H213 0.951 1_556 S
C201 C200 1.392 . S
C201 C203 1.384 . S
H202 C204 0.949 . S
C203 C201 1.384 . S
C203 C204 1.385 . S
C203 H205 0.950 . S
C204 C198 1.404 . S
C204 H202 0.949 . S
C204 C203 1.385 . S
H205 C203 0.950 . S
H206 C190 0.951 . S
H207 C192 0.951 . S
H208 C194 0.951 . S
H209 C195 0.950 . S
H210 C196 0.950 . S
H211 C197 0.950 . S
H212 C199 0.950 1_554 S
H213 C200 0.951 1_554 S
C214 C215 1.386 . S
C214 C216 1.383 . S
C214 H230 0.951 . S
C215 C214 1.386 . S
C215 C219 1.383 . S
C216 C214 1.383 . S
C216 C217 1.402 . S
C216 H231 0.951 . S
C217 C216 1.402 . S
C217 C218 1.375 . S
C217 C220 1.481 . S
C218 C217 1.375 . S
C218 C219 1.367 . S
C218 H232 0.951 . S
C219 C215 1.383 . S
C219 C218 1.367 . S
C219 H233 0.950 . S
C220 C217 1.481 . S
C220 C221 1.297 . S
C220 H234 0.950 . S
C221 C220 1.297 . S
C221 C222 1.479 . S
C221 H235 0.950 . S
C222 C221 1.479 . S
C222 C223 1.375 . S
C222 C228 1.404 . S
C223 C222 1.375 . S
C223 C224 1.369 . S
C223 H236 0.950 . S
C224 C223 1.369 . S
C224 C225 1.392 . S
C224 H237 0.951 . S
C225 C224 1.392 . S
C225 C227 1.384 . S
H226 C228 0.949 . S
C227 C225 1.384 . S
C227 C228 1.385 . S
C227 H229 0.950 . S
C228 C222 1.404 . S
C228 H226 0.949 . S
C228 C227 1.385 . S
H229 C227 0.950 . S
H230 C214 0.951 . S
H231 C216 0.951 . S
H232 C218 0.951 . S
H233 C219 0.950 . S
H234 C220 0.950 . S
H235 C221 0.950 . S
H236 C223 0.950 . S
H237 C224 0.951 . S
C238 C239 1.386 . S
C238 C240 1.383 . S
C238 H254 0.951 . S
C239 C238 1.386 . S
C239 C243 1.383 . S
C240 C238 1.383 . S
C240 C241 1.402 . S
C240 H255 0.951 . S
C241 C240 1.402 . S
C241 C242 1.375 . S
C241 C244 1.481 . S
C242 C241 1.375 . S
C242 C243 1.367 . S
C242 H256 0.951 . S
C243 C239 1.383 . S
C243 C242 1.367 . S
C243 H257 0.950 . S
C244 C241 1.481 . S
C244 C245 1.297 . S
C244 H258 0.950 . S
C245 C244 1.297 . S
C245 C246 1.479 . S
C245 H259 0.950 . S
C246 C245 1.479 . S
C246 C247 1.375 . S
C246 C252 1.404 . S
C247 C246 1.375 . S
C247 C248 1.369 . S
C247 H260 0.950 . S
C248 C247 1.369 . S
C248 C249 1.392 . S
C248 H261 0.951 . S
C249 C248 1.392 . S
C249 C251 1.384 . S
H250 C252 0.949 . S
C251 C249 1.384 . S
C251 C252 1.385 . S
C251 H253 0.950 1_655 S
C252 C246 1.404 . S
C252 H250 0.949 . S
C252 C251 1.385 . S
H253 C251 0.950 1_455 S
H254 C238 0.951 . S
H255 C240 0.951 . S
H256 C242 0.951 . S
H257 C243 0.950 . S
H258 C244 0.950 . S
H259 C245 0.950 . S
H260 C247 0.950 . S
H261 C248 0.951 . S
C262 C263 1.386 . S
C262 C264 1.383 . S
C262 H278 0.951 . S
C263 C262 1.386 . S
C263 C267 1.383 . S
C264 C262 1.383 . S
C264 C265 1.402 . S
C264 H279 0.951 . S
C265 C264 1.402 . S
C265 C266 1.375 . S
C265 C268 1.481 . S
C266 C265 1.375 . S
C266 C267 1.367 . S
C266 H280 0.951 . S
C267 C263 1.383 . S
C267 C266 1.367 . S
C267 H281 0.950 . S
C268 C265 1.481 . S
C268 C269 1.297 . S
C268 H282 0.950 . S
C269 C268 1.297 . S
C269 C270 1.479 . S
C269 H283 0.950 . S
C270 C269 1.479 . S
C270 C271 1.375 . S
C270 C276 1.404 . S
C271 C270 1.375 . S
C271 C272 1.369 . S
C271 H284 0.950 . S
C272 C271 1.369 . S
C272 C273 1.392 . S
C272 H285 0.951 . S
C273 C272 1.392 . S
C273 C275 1.384 . S
H274 C276 0.949 . S
C275 C273 1.384 . S
C275 C276 1.385 . S
C275 H277 0.950 . S
C276 C270 1.404 . S
C276 H274 0.949 . S
C276 C275 1.385 . S
H277 C275 0.950 . S
H278 C262 0.951 . S
H279 C264 0.951 . S
H280 C266 0.951 . S
H281 C267 0.950 . S
H282 C268 0.950 . S
H283 C269 0.950 . S
H284 C271 0.950 . S
H285 C272 0.951 . S
C286 C287 1.386 . S
C286 C288 1.383 . S
C286 H302 0.951 . S
C287 C286 1.386 . S
C287 C291 1.383 . S
C288 C286 1.383 . S
C288 C289 1.402 . S
C288 H303 0.951 . S
C289 C288 1.402 . S
C289 C290 1.375 . S
C289 C292 1.481 . S
C290 C289 1.375 . S
C290 C291 1.367 . S
C290 H304 0.951 . S
C291 C287 1.383 . S
C291 C290 1.367 . S
C291 H305 0.950 . S
C292 C289 1.481 . S
C292 C293 1.297 . S
C292 H306 0.950 . S
C293 C292 1.297 . S
C293 C294 1.479 . S
C293 H307 0.950 . S
C294 C293 1.479 . S
C294 C295 1.375 . S
C294 C300 1.404 . S
C295 C294 1.375 . S
C295 C296 1.369 . S
C295 H308 0.950 . S
C296 C295 1.369 . S
C296 C297 1.392 . S
C296 H309 0.951 . S
C297 C296 1.392 . S
C297 C299 1.384 . S
H298 C300 0.949 . S
C299 C297 1.384 . S
C299 C300 1.385 . S
C299 H301 0.950 . S
C300 C294 1.404 . S
C300 H298 0.949 . S
C300 C299 1.385 . S
H301 C299 0.950 . S
H302 C286 0.951 . S
H303 C288 0.951 . S
H304 C290 0.951 . S
H305 C291 0.950 . S
H306 C292 0.950 . S
H307 C293 0.950 . S
H308 C295 0.950 . S
H309 C296 0.951 . S
C310 C311 1.386 1_545 S
C310 C312 1.383 . S
C310 H326 0.951 . S
C311 C310 1.386 1_565 S
C311 C315 1.383 . S
C312 C310 1.383 . S
C312 C313 1.402 1_545 S
C312 H327 0.951 . S
C313 C312 1.402 1_565 S
C313 C314 1.375 . S
C313 C316 1.481 . S
C314 C313 1.375 . S
C314 C315 1.367 . S
C314 H328 0.951 . S
C315 C311 1.383 . S
C315 C314 1.367 . S
C315 H329 0.950 . S
C316 C313 1.481 . S
C316 C317 1.297 . S
C316 H330 0.950 . S
C317 C316 1.297 . S
C317 C318 1.479 . S
C317 H331 0.950 1_565 S
C318 C317 1.479 . S
C318 C319 1.375 1_565 S
C318 C324 1.404 . S
C319 C318 1.375 1_545 S
C319 C320 1.369 . S
C319 H332 0.950 . S
C320 C319 1.369 . S
C320 C321 1.392 1_545 S
C320 H333 0.951 . S
C321 C320 1.392 1_565 S
C321 C323 1.384 . S
H322 C324 0.949 . S
C323 C321 1.384 . S
C323 C324 1.385 . S
C323 H325 0.950 . S
C324 C318 1.404 . S
C324 H322 0.949 . S
C324 C323 1.385 . S
H325 C323 0.950 . S
H326 C310 0.951 . S
H327 C312 0.951 . S
H328 C314 0.951 . S
H329 C315 0.950 . S
H330 C316 0.950 . S
H331 C317 0.950 1_545 S
H332 C319 0.950 . S
H333 C320 0.951 . S
C334 C335 1.386 . S
C334 C336 1.383 . S
C334 H350 0.951 . S
C335 C334 1.386 . S
C335 C339 1.383 1_445 S
C336 C334 1.383 . S
C336 C337 1.402 . S
C336 H351 0.951 . S
C337 C336 1.402 . S
C337 C338 1.375 1_445 S
C337 C340 1.481 1_455 S
C338 C337 1.375 1_665 S
C338 C339 1.367 . S
C338 H352 0.951 . S
C339 C335 1.383 1_665 S
C339 C338 1.367 . S
C339 H353 0.950 . S
C340 C337 1.481 1_655 S
C340 C341 1.297 1_655 S
C340 H354 0.950 1_545 S
C341 C340 1.297 1_455 S
C341 C342 1.479 . S
C341 H355 0.950 . S
C342 C341 1.479 . S
C342 C343 1.375 . S
C342 C348 1.412 1_455 S
C343 C342 1.375 . S
C343 C344 1.369 . S
C343 H356 0.950 . S
C344 C343 1.369 . S
C344 C345 1.392 1_455 S
C344 H357 0.951 . S
C345 C344 1.392 1_655 S
C345 C347 1.384 . S
H346 C348 0.934 1_565 S
C347 C345 1.384 . S
C347 C348 1.392 . S
C347 H349 0.950 1_545 S
C348 C342 1.412 1_655 S
C348 H346 0.934 1_545 S
C348 C347 1.392 . S
H349 C347 0.950 1_565 S
H350 C334 0.951 . S
H351 C336 0.951 . S
H352 C338 0.951 . S
H353 C339 0.950 . S
H354 C340 0.950 1_565 S
H355 C341 0.950 . S
H356 C343 0.950 . S
H357 C344 0.951 . S
C358 C359 1.386 . S
C358 C360 1.383 . S
C358 H374 0.951 . S
C359 C358 1.386 . S
C359 C363 1.383 . S
C360 C358 1.383 . S
C360 C361 1.402 . S
C360 H375 0.951 . S
C361 C360 1.402 . S
C361 C362 1.375 . S
C361 C364 1.481 . S
C362 C361 1.375 . S
C362 C363 1.367 . S
C362 H376 0.951 . S
C363 C359 1.383 . S
C363 C362 1.367 . S
C363 H377 0.950 . S
C364 C361 1.481 . S
C364 C365 1.297 . S
C364 H378 0.950 . S
C365 C364 1.297 . S
C365 C366 1.479 . S
C365 H379 0.950 . S
C366 C365 1.479 . S
C366 C367 1.375 . S
C366 C372 1.404 . S
C367 C366 1.375 . S
C367 C368 1.369 . S
C367 H380 0.950 . S
C368 C367 1.369 . S
C368 C369 1.392 . S
C368 H381 0.951 . S
C369 C368 1.392 . S
C369 C371 1.384 . S
H370 C372 0.949 . S
C371 C369 1.384 . S
C371 C372 1.385 . S
C371 H373 0.950 . S
C372 C366 1.404 . S
C372 H370 0.949 . S
C372 C371 1.385 . S
H373 C371 0.950 . S
H374 C358 0.951 . S
H375 C360 0.951 . S
H376 C362 0.951 . S
H377 C363 0.950 . S
H378 C364 0.950 . S
H379 C365 0.950 . S
H380 C367 0.950 . S
H381 C368 0.951 . S
C382 C383 1.386 . S
C382 C384 1.383 . S
C382 H398 0.951 . S
C383 C382 1.386 . S
C383 C387 1.383 . S
C384 C382 1.383 . S
C384 C385 1.402 . S
C384 H399 0.951 . S
C385 C384 1.402 . S
C385 C386 1.375 . S
C385 C388 1.481 . S
C386 C385 1.375 . S
C386 C387 1.367 . S
C386 H400 0.951 . S
C387 C383 1.383 . S
C387 C386 1.367 . S
C387 H401 0.950 . S
C388 C385 1.481 . S
C388 C389 1.297 . S
C388 H402 0.950 . S
C389 C388 1.297 . S
C389 C390 1.479 . S
C389 H403 0.950 . S
C390 C389 1.479 . S
C390 C391 1.375 . S
C390 C396 1.404 . S
C391 C390 1.375 . S
C391 C392 1.369 . S
C391 H404 0.950 . S
C392 C391 1.369 . S
C392 C393 1.392 . S
C392 H405 0.951 . S
C393 C392 1.392 . S
C393 C395 1.384 . S
H394 C396 0.949 . S
C395 C393 1.384 . S
C395 C396 1.385 . S
C395 H397 0.950 . S
C396 C390 1.404 . S
C396 H394 0.949 . S
C396 C395 1.385 . S
H397 C395 0.950 . S
H398 C382 0.951 . S
H399 C384 0.951 . S
H400 C386 0.951 . S
H401 C387 0.950 . S
H402 C388 0.950 . S
H403 C389 0.950 . S
H404 C391 0.950 . S
H405 C392 0.951 . S
C129 C105 1.536 . S
C119 C16 1.435 . S
C143 C15 1.417 . S
C153 C91 1.434 . S
C167 C13 1.203 1_554 S
C177 C110 1.386 . S
C191 C14 1.485 . S
C201 C86 1.492 . S
C215 C37 1.359 . S
C225 C67 1.480 . S
C239 C36 1.380 . S
C249 C53 1.369 1_655 S
C273 C72 1.414 . S
C263 C34 1.313 . S
C297 C48 1.509 . S
C287 C35 1.483 . S
C311 C17 1.646 1_565 S
C321 C44 1.658 . S
C335 C18 1.393 . S
C345 C63 1.395 . S
C369 C82 1.662 . S
C359 C38 1.651 . S
C383 C39 1.411 . S
C393 C101 1.423 . S
