# Generated by pormake.
# Topology zzz, (3,6)-cn, num edge types: 1
# Building blocks:
#     Node 0, Type 0, BuildingBlock: BELTOD_clean_linker_0, # of connection points: 3
#     Node 1, Type 0, BuildingBlock: BELTOD_clean_linker_0, # of connection points: 3
#     Node 2, Type 0, BuildingBlock: BELTOD_clean_linker_0, # of connection points: 3
#     Node 3, Type 0, BuildingBlock: BELTOD_clean_linker_0, # of connection points: 3
#     Node 4, Type 0, BuildingBlock: BELTOD_clean_linker_0, # of connection points: 3
#     Node 5, Type 0, BuildingBlock: BELTOD_clean_linker_0, # of connection points: 3
#     Node 6, Type 0, BuildingBlock: BELTOD_clean_linker_0, # of connection points: 3
#     Node 7, Type 0, BuildingBlock: BELTOD_clean_linker_0, # of connection points: 3
#     Node 8, Type 1, BuildingBlock: MIFKUJ_clean_sbu_0, # of connection points: 6
#     Node 9, Type 1, BuildingBlock: MIFKUJ_clean_sbu_0, # of connection points: 6
#     Node 10, Type 1, BuildingBlock: MIFKUJ_clean_sbu_0, # of connection points: 6
#     Node 11, Type 1, BuildingBlock: MIFKUJ_clean_sbu_0, # of connection points: 6
#     Edge 12, Type (0, 1), BuildingBlock: XIVTED_clean_linker_0, # of connection points: 2
#     Edge 13, Type (0, 1), BuildingBlock: XIVTED_clean_linker_0, # of connection points: 2
#     Edge 14, Type (0, 1), BuildingBlock: XIVTED_clean_linker_0, # of connection points: 2
#     Edge 15, Type (0, 1), BuildingBlock: XIVTED_clean_linker_0, # of connection points: 2
#     Edge 16, Type (0, 1), BuildingBlock: XIVTED_clean_linker_0, # of connection points: 2
#     Edge 17, Type (0, 1), BuildingBlock: XIVTED_clean_linker_0, # of connection points: 2
#     Edge 18, Type (0, 1), BuildingBlock: XIVTED_clean_linker_0, # of connection points: 2
#     Edge 19, Type (0, 1), BuildingBlock: XIVTED_clean_linker_0, # of connection points: 2
#     Edge 20, Type (0, 1), BuildingBlock: XIVTED_clean_linker_0, # of connection points: 2
#     Edge 21, Type (0, 1), BuildingBlock: XIVTED_clean_linker_0, # of connection points: 2
#     Edge 22, Type (0, 1), BuildingBlock: XIVTED_clean_linker_0, # of connection points: 2
#     Edge 23, Type (0, 1), BuildingBlock: XIVTED_clean_linker_0, # of connection points: 2
#     Edge 24, Type (0, 1), BuildingBlock: XIVTED_clean_linker_0, # of connection points: 2
#     Edge 25, Type (0, 1), BuildingBlock: XIVTED_clean_linker_0, # of connection points: 2
#     Edge 26, Type (0, 1), BuildingBlock: XIVTED_clean_linker_0, # of connection points: 2
#     Edge 27, Type (0, 1), BuildingBlock: XIVTED_clean_linker_0, # of connection points: 2
#     Edge 28, Type (0, 1), BuildingBlock: XIVTED_clean_linker_0, # of connection points: 2
#     Edge 29, Type (0, 1), BuildingBlock: XIVTED_clean_linker_0, # of connection points: 2
#     Edge 30, Type (0, 1), BuildingBlock: XIVTED_clean_linker_0, # of connection points: 2
#     Edge 31, Type (0, 1), BuildingBlock: XIVTED_clean_linker_0, # of connection points: 2
#     Edge 32, Type (0, 1), BuildingBlock: XIVTED_clean_linker_0, # of connection points: 2
#     Edge 33, Type (0, 1), BuildingBlock: XIVTED_clean_linker_0, # of connection points: 2
#     Edge 34, Type (0, 1), BuildingBlock: XIVTED_clean_linker_0, # of connection points: 2
#     Edge 35, Type (0, 1), BuildingBlock: XIVTED_clean_linker_0, # of connection points: 2
# Relax obj value: 0.289
# Max RMSD: 0.197
# Mean RMSD: 0.181
data_MOF--net-zzz--node1-MIFKUJ_clean_sbu_0--node2-BELTOD_clean_linker_0--edge1-XIVTED_clean_linker_0
_symmetry_space_group_name_H-M    P1
_symmetry_Int_Tables_number       1
_symmetry_cell_setting            triclinic
loop_
_symmetry_equiv_pos_as_xyz
'x, y, z'
_cell_length_a     52.902134
_cell_length_b     53.790671
_cell_length_c     19.691435
_cell_angle_alpha  89.587462
_cell_angle_beta   89.763314
_cell_angle_gamma 90.98406
loop_
_atom_site_label
_atom_site_type_symbol
_atom_site_fract_x
_atom_site_fract_y
_atom_site_fract_z
_atom_type_partial_charge
P0 P 0.72136 0.50265 0.1718 0.0
H1 H 0.72961 0.50346 0.31828 0.0
H2 H 0.76032 0.52724 0.38325 0.0
H3 H 0.7709 0.57781 0.21353 0.0
H4 H 0.7406 0.55338 0.14809 0.0
H5 H 0.66647 0.49641 0.16905 0.0
H6 H 0.63453 0.50814 0.08639 0.0
H7 H 0.69188 0.54676 0.96724 0.0
H8 H 0.72385 0.5345 0.04958 0.0
H9 H 0.77327 0.49464 0.21551 0.0
H10 H 0.73043 0.48552 0.03102 0.0
O11 O 0.70929 0.47885 0.21688 0.0
H12 H 0.81224 0.48758 0.15328 0.0
H13 H 0.76965 0.47891 0.96801 0.0
C14 C 0.73287 0.52648 0.22806 0.0
C15 C 0.73758 0.52032 0.29603 0.0
C16 C 0.75528 0.53404 0.33331 0.0
C17 C 0.76859 0.55414 0.30303 0.0
C18 C 0.76141 0.56209 0.23781 0.0
C19 C 0.74377 0.54828 0.20051 0.0
C20 C 0.69761 0.51419 0.11491 0.0
C21 C 0.67217 0.50757 0.12547 0.0
C22 C 0.65387 0.51447 0.07835 0.0
C23 C 0.6607 0.52823 0.01988 0.0
C24 C 0.68608 0.53585 0.0112 0.0
C25 C 0.70435 0.529 0.05856 0.0
C26 C 0.749 0.492 0.1273 0.0
C27 C 0.77216 0.49108 0.1616 0.0
C28 C 0.79451 0.48701 0.12599 0.0
C29 C 0.79408 0.48337 0.05548 0.0
C30 C 0.7706 0.48186 0.02229 0.0
C31 C 0.74817 0.48597 0.05815 0.0
P32 P 0.0616 0.73609 0.12447 0.0
H33 H 0.07111 0.74341 0.26903 0.0
H34 H 0.05874 0.777 0.34379 0.0
H35 H 0.00449 0.80136 0.19537 0.0
H36 H 0.01668 0.76733 0.12092 0.0
H37 H 0.05812 0.68175 0.13025 0.0
H38 H 0.03923 0.65142 0.05314 0.0
H39 H 0.00335 0.71082 0.94296 0.0
H40 H 0.02244 0.74112 0.02027 0.0
H41 H 0.07526 0.78915 0.13602 0.0
H42 H 0.07702 0.73284 0.98115 0.0
O43 O 0.08606 0.72152 0.15901 0.0
H44 H 0.08325 0.82113 0.0509 0.0
H45 H 0.08604 0.76487 0.89541 0.0
C46 C 0.04491 0.75288 0.18915 0.0
C47 C 0.05578 0.75524 0.25359 0.0
C48 C 0.04885 0.77464 0.29614 0.0
C49 C 0.03108 0.79216 0.27472 0.0
C50 C 0.01821 0.78815 0.21333 0.0
C51 C 0.02511 0.7686 0.17079 0.0
C52 C 0.04201 0.71372 0.08037 0.0
C53 C 0.04567 0.68823 0.09064 0.0
C54 C 0.03476 0.67086 0.04656 0.0
C55 C 0.02009 0.67875 0.99129 0.0
C56 C 0.01487 0.70421 0.98446 0.0
C57 C 0.02561 0.72153 0.02899 0.0
C58 C 0.07398 0.75872 0.06436 0.0
C59 C 0.07764 0.78356 0.08374 0.0
C60 C 0.08266 0.80192 0.03488 0.0
C61 C 0.08464 0.79568 0.96586 0.0
C62 C 0.08383 0.77039 0.94785 0.0
C63 C 0.07866 0.75205 0.99684 0.0
P64 P 0.77018 0.01647 0.15877 0.0
H65 H 0.76326 0.00452 0.30308 0.0
H66 H 0.72783 0.98396 0.36073 0.0
H67 H 0.70129 0.9555 0.16874 0.0
H68 H 0.73636 0.97674 0.1111 0.0
H69 H 0.82074 0.03722 0.1385 0.0
H70 H 0.85556 0.02633 0.06366 0.0
H71 H 0.81299 0.96225 0.99437 0.0
H72 H 0.77821 0.97295 0.07079 0.0
H73 H 0.72852 0.04876 0.19006 0.0
H74 H 0.75991 0.01491 0.0114 0.0
O75 O 0.78037 0.03733 0.21523 0.0
H76 H 0.69119 0.06047 0.12543 0.0
H77 H 0.72255 0.02593 0.94716 0.0
C78 C 0.75236 0.99244 0.20264 0.0
C79 C 0.75047 0.99301 0.27361 0.0
C80 C 0.73015 0.98111 0.30669 0.0
C81 C 0.71141 0.96854 0.26907 0.0
C82 C 0.71519 0.9654 0.19896 0.0
C83 C 0.73548 0.97733 0.16597 0.0
C84 C 0.79691 0.0058 0.11081 0.0
C85 C 0.81904 0.02049 0.10853 0.0
C86 C 0.83898 0.01424 0.06572 0.0
C87 C 0.83697 0.99343 0.02331 0.0
C88 C 0.81498 0.97843 0.02648 0.0
C89 C 0.79516 0.98447 0.07038 0.0
C90 C 0.74715 0.03119 0.10556 0.0
C91 C 0.72774 0.04451 0.13641 0.0
C92 C 0.70626 0.05091 0.09963 0.0
C93 C 0.70375 0.04392 0.03129 0.0
C94 C 0.72396 0.03186 -0.00053 0.0
C95 C 0.74542 0.02546 0.03638 0.0
P96 P 0.39592 0.76346 0.11106 0.0
H97 H 0.39439 0.75068 0.25588 0.0
H98 H 0.42037 0.72338 0.32465 0.0
H99 H 0.47216 0.71557 0.15602 0.0
H100 H 0.44559 0.74252 0.08695 0.0
H101 H 0.37505 0.79491 0.00623 0.0
H102 H 0.39265 0.82926 0.93813 0.0
H103 H 0.46199 0.82617 0.05279 0.0
H104 H 0.44414 0.79198 0.12129 0.0
H105 H 0.36371 0.71908 0.12095 0.0
H106 H 0.41166 0.7547 0.97014 0.0
O107 O 0.37016 0.77142 0.15436 0.0
H108 H 0.35751 0.68343 0.04534 0.0
H109 H 0.40515 0.71964 0.89454 0.0
C110 C 0.41818 0.74876 0.16652 0.0
C111 C 0.41167 0.74363 0.23423 0.0
C112 C 0.42664 0.72803 0.27363 0.0
C113 C 0.44832 0.71715 0.24577 0.0
C114 C 0.45543 0.72338 0.17878 0.0
C115 C 0.44041 0.73897 0.13945 0.0
C116 C 0.40843 0.79062 0.06786 0.0
C117 C 0.39395 0.8018 0.0171 0.0
C118 C 0.40409 0.82129 0.97798 0.0
C119 C 0.42884 0.83016 0.9895 0.0
C120 C 0.44287 0.81972 0.04276 0.0
C121 C 0.43274 0.80005 0.08166 0.0
C122 C 0.38753 0.73986 0.0505 0.0
C123 C 0.37226 0.71958 0.07087 0.0
C124 C 0.36886 0.69919 0.02793 0.0
C125 C 0.38064 0.69891 0.96384 0.0
C126 C 0.39537 0.71959 0.94298 0.0
C127 C 0.39905 0.73973 0.98626 0.0
P128 P 0.26274 0.4012 0.08078 0.0
H129 H 0.24862 0.37507 0.95615 0.0
H130 H 0.22545 0.38924 0.8564 0.0
H131 H 0.2341 0.46515 0.92359 0.0
H132 H 0.25682 0.45098 0.02291 0.0
H133 H 0.29246 0.38197 0.19154 0.0
H134 H 0.32889 0.39847 0.25341 0.0
H135 H 0.33429 0.46024 0.11267 0.0
H136 H 0.29837 0.4432 0.04937 0.0
H137 H 0.21163 0.38305 0.11193 0.0
H138 H 0.25822 0.44737 0.15669 0.0
O139 O 0.26122 0.37018 0.08359 0.0
H140 H 0.17519 0.40324 0.16305 0.0
H141 H 0.222 0.46805 0.20463 0.0
C142 C 0.25499 0.41196 0.99667 0.0
C143 C 0.24643 0.39484 0.94812 0.0
C144 C 0.23293 0.40293 0.89139 0.0
C145 C 0.22779 0.42829 0.88235 0.0
C146 C 0.23804 0.44552 0.92842 0.0
C147 C 0.25132 0.43741 0.98526 0.0
C148 C 0.29266 0.41123 0.11559 0.0
C149 C 0.30189 0.39869 0.17275 0.0
C150 C 0.32267 0.40816 0.20823 0.0
C151 C 0.3343 0.43069 0.188 0.0
C152 C 0.3255 0.44293 0.12961 0.0
C153 C 0.30495 0.43316 0.09334 0.0
C154 C 0.23778 0.41342 0.13212 0.0
C155 C 0.21414 0.40128 0.13418 0.0
C156 C 0.19324 0.41304 0.16235 0.0
C157 C 0.19556 0.43737 0.18777 0.0
C158 C 0.2195 0.44917 0.18687 0.0
C159 C 0.24036 0.43729 0.15942 0.0
P160 P 0.05869 0.27147 0.10307 0.0
H161 H 0.08756 0.25063 0.99097 0.0
H162 H 0.07468 0.21952 0.90928 0.0
H163 H 0.99627 0.23494 0.95172 0.0
H164 H 0.00948 0.26529 0.03644 0.0
H165 H 0.08597 0.30437 0.19284 0.0
H166 H 0.07519 0.34303 0.24707 0.0
H167 H 0.00807 0.34743 0.12341 0.0
H168 H 0.01901 0.30804 0.06944 0.0
H169 H 0.06087 0.21849 0.12624 0.0
H170 H 0.01698 0.27946 0.20132 0.0
O171 O 0.08936 0.26583 0.11392 0.0
H172 H 0.03448 0.18929 0.19171 0.0
H173 H 0.99056 0.25032 0.26681 0.0
C174 C 0.04954 0.26036 0.02032 0.0
C175 C 0.06758 0.24815 0.98089 0.0
C176 C 0.06011 0.23014 0.93389 0.0
C177 C 0.03436 0.22407 0.92495 0.0
C178 C 0.01629 0.23855 0.95861 0.0
C179 C 0.02382 0.25645 0.00607 0.0
C180 C 0.05354 0.30341 0.12619 0.0
C181 C 0.06935 0.31398 0.17549 0.0
C182 C 0.06312 0.33625 0.20672 0.0
C183 C 0.04071 0.34847 0.18989 0.0
C184 C 0.02537 0.33841 0.1381 0.0
C185 C 0.03174 0.31602 0.10654 0.0
C186 C 0.04124 0.25117 0.15973 0.0
C187 C 0.04577 0.22562 0.15748 0.0
C188 C 0.03042 0.20894 0.19401 0.0
C189 C 0.01028 0.21755 0.23365 0.0
C190 C 0.00597 0.24321 0.23665 0.0
C191 C 0.02121 0.2599 0.19945 0.0
P192 P 0.2506 0.08986 0.08026 0.0
H193 H 0.2646 0.11246 0.94911 0.0
H194 H 0.28996 0.09634 0.85594 0.0
H195 H 0.28405 0.02269 0.94429 0.0
H196 H 0.25862 0.03881 0.03631 0.0
H197 H 0.21602 0.118 0.16317 0.0
H198 H 0.17768 0.10628 0.22559 0.0
H199 H 0.17843 0.03372 0.13354 0.0
H200 H 0.21648 0.04582 0.06918 0.0
H201 H 0.30382 0.10128 0.10087 0.0
H202 H 0.24828 0.04926 0.18175 0.0
O203 O 0.25467 0.1207 0.07701 0.0
H204 H 0.33722 0.0786 0.15854 0.0
H205 H 0.28139 0.02618 0.23724 0.0
C206 C 0.2595 0.07685 -0.0003 0.0
C207 C 0.26789 0.09267 0.94704 0.0
C208 C 0.28271 0.08348 0.89414 0.0
C209 C 0.28945 0.05829 0.8932 0.0
C210 C 0.2791 0.04213 0.94287 0.0
C211 C 0.26429 0.05134 0.9956 0.0
C212 C 0.21908 0.08289 0.11095 0.0
C213 C 0.20751 0.09985 0.15444 0.0
C214 C 0.18562 0.09312 0.19036 0.0
C215 C 0.1752 0.06905 0.18465 0.0
C216 C 0.1862 0.05236 0.13905 0.0
C217 C 0.20785 0.05933 0.10192 0.0
C218 C 0.27348 0.07729 0.13776 0.0
C219 C 0.29872 0.08538 0.13245 0.0
C220 C 0.31783 0.07214 0.16449 0.0
C221 C 0.31201 0.05038 0.20184 0.0
C222 C 0.28654 0.04298 0.20947 0.0
C223 C 0.26748 0.05627 0.1776 0.0
P224 P 0.47245 0.25047 0.12595 0.0
H225 H 0.43615 0.27586 0.03985 0.0
H226 H 0.44303 0.30726 0.95241 0.0
H227 H 0.52193 0.28801 0.94184 0.0
H228 H 0.5149 0.2568 0.03125 0.0
H229 H 0.44273 0.2044 0.1351 0.0
H230 H 0.45353 0.16349 0.17893 0.0
H231 H 0.5326 0.18485 0.17745 0.0
H232 H 0.52165 0.22585 0.13221 0.0
H233 H 0.48765 0.30305 0.12201 0.0
H234 H 0.49826 0.24006 0.25539 0.0
O235 O 0.44268 0.25279 0.15331 0.0
H236 H 0.51264 0.32895 0.19693 0.0
H237 H 0.52456 0.26574 0.32926 0.0
C238 C 0.47503 0.26399 0.04226 0.0
C239 C 0.45473 0.27759 0.01688 0.0
C240 C 0.45872 0.29569 0.96665 0.0
C241 C 0.48317 0.30058 0.94101 0.0
C242 C 0.50297 0.28508 0.96156 0.0
C243 C 0.49891 0.26691 0.01187 0.0
C244 C 0.48133 0.21836 0.13215 0.0
C245 C 0.46247 0.20006 0.14187 0.0
C246 C 0.46868 0.17661 0.16693 0.0
C247 C 0.49386 0.17118 0.183 0.0
C248 C 0.51299 0.18871 0.16654 0.0
C249 C 0.50677 0.21205 0.14024 0.0
C250 C 0.49184 0.26926 0.18133 0.0
C251 C 0.49597 0.29452 0.16634 0.0
C252 C 0.51055 0.30937 0.20921 0.0
C253 C 0.52118 0.29938 0.26857 0.0
C254 C 0.5168 0.27406 0.28385 0.0
C255 C 0.50193 0.25926 0.24116 0.0
Zn256 Zn 0.9925 0.03165 0.57871 0.0
Zn257 Zn 0.02502 0.98584 0.6274 0.0
C258 C 0.99167 0.06213 0.69627 0.0
O259 O 0.96741 0.0572 0.68925 0.0
C260 C 0.03121 0.95528 0.51608 0.0
O261 O 0.05421 0.96321 0.53024 0.0
O262 O 0.97276 0.05757 0.52791 0.0
O263 O 0.01965 0.02269 0.51225 0.0
O264 O 0.04832 0.01247 0.58752 0.0
C265 C 0.98462 0.0783 0.52466 0.0
O266 O 0.00741 0.0802 0.55042 0.0
O267 O 0.0073 0.05093 0.65839 0.0
C268 C 0.03369 0.94146 0.69318 0.0
O269 O 0.01009 0.93948 0.67305 0.0
O270 O 0.04576 0.96174 0.68197 0.0
O271 O 0.99638 0.99475 0.69075 0.0
O272 O 0.96855 0.00509 0.6135 0.0
O273 O 0.01283 0.96411 0.54953 0.0
C274 C 0.04266 0.02108 0.52933 0.0
C275 C 0.97351 0.99674 0.67232 0.0
Zn276 Zn 0.47887 0.98472 0.55175 0.0
Zn277 Zn 0.52247 0.00743 0.63595 0.0
C278 C 0.4367 0.9899 0.63613 0.0
O279 O 0.43577 0.96618 0.62071 0.0
C280 C 0.55946 0.00108 0.53439 0.0
O281 O 0.55873 0.02545 0.53738 0.0
O282 O 0.45446 0.97016 0.48473 0.0
O283 O 0.50005 0.0088 0.49738 0.0
O284 O 0.5059 0.03489 0.5811 0.0
C285 C 0.45787 0.97141 0.42092 0.0
O286 O 0.48044 0.97735 0.39723 0.0
O287 O 0.4553 0.0031 0.61452 0.0
C288 C 0.54575 0.02333 0.76383 0.0
O289 O 0.52595 0.01268 0.79303 0.0
O290 O 0.54733 0.02381 0.69943 0.0
O291 O 0.50088 0.98298 0.69079 0.0
O292 O 0.49513 0.95758 0.60506 0.0
O293 O 0.54491 0.98813 0.57264 0.0
C294 C 0.50297 0.03092 0.51801 0.0
C295 C 0.4961 0.96124 0.66869 0.0
Zn296 Zn 0.51287 0.48976 0.57791 0.0
Zn297 Zn 0.47433 0.53591 0.62428 0.0
C298 C 0.51561 0.46346 0.70212 0.0
O299 O 0.53944 0.46998 0.69296 0.0
C300 C 0.49248 0.56638 0.50755 0.0
O301 O 0.49735 0.5453 0.47736 0.0
O302 O 0.53636 0.46433 0.53862 0.0
O303 O 0.48596 0.49219 0.50797 0.0
O304 O 0.45561 0.51161 0.56281 0.0
C305 C 0.52579 0.44292 0.53923 0.0
O306 O 0.5023 0.4406 0.56044 0.0
O307 O 0.49912 0.47241 0.66241 0.0
C308 C 0.43095 0.56257 0.66534 0.0
O309 O 0.42892 0.56519 0.5992 0.0
O310 O 0.44856 0.5493 0.68899 0.0
O311 O 0.50436 0.52716 0.68316 0.0
O312 O 0.53247 0.52039 0.6034 0.0
O313 O 0.48395 0.56608 0.56795 0.0
C314 C 0.46298 0.49813 0.51399 0.0
C315 C 0.52722 0.52766 0.66287 0.0
Zn316 Zn 0.0402 0.51284 0.55973 0.0
Zn317 Zn 0.96167 0.50971 0.6097 0.0
C318 C 0.08722 0.50191 0.61422 0.0
O319 O 0.0912 0.52375 0.58547 0.0
C320 C 0.93484 0.5393 0.50815 0.0
O321 O 0.95459 0.53564 0.46901 0.0
O322 O 0.05743 0.52068 0.47121 0.0
O323 O 0.00713 0.49516 0.54872 0.0
O324 O 0.96885 0.4807 0.54578 0.0
C325 C 0.04996 0.51552 0.41168 0.0
O326 O 0.02653 0.5079 0.40222 0.0
O327 O 0.06512 0.49223 0.61196 0.0
C328 C 0.93684 0.51317 0.73499 0.0
O329 O 0.93893 0.53671 0.71722 0.0
O330 O 0.94658 0.49686 0.6971 0.0
O331 O 0.99329 0.53146 0.62605 0.0
O332 O 0.03307 0.54347 0.61473 0.0
O333 O 0.93452 0.53042 0.56804 0.0
C334 C 0.99162 0.47916 0.52589 0.0
C335 C 0.01127 0.54652 0.64083 0.0
H336 H 0.13074 0.09263 0.20983 0.0
H337 H 0.09217 0.00648 0.52597 0.0
H338 H 0.1727 0.0276 0.26541 0.0
H339 H 0.03838 0.05153 0.41889 0.0
H340 H 0.12405 0.01728 0.43924 0.0
H341 H 0.0983 0.0808 0.29389 0.0
C342 C 0.13298 0.07577 0.23945 0.0
C343 C 0.1543 0.06098 0.23053 0.0
C344 C 0.10524 0.02475 0.43484 0.0
C345 C 0.11764 0.04761 0.32744 0.0
C346 C 0.08712 0.01874 0.48449 0.0
C347 C 0.0626 0.02808 0.47952 0.0
C348 C 0.09888 0.04056 0.38064 0.0
C349 C 0.05703 0.04379 0.42449 0.0
C350 C 0.11451 0.06902 0.28729 0.0
C351 C 0.15637 0.03933 0.27022 0.0
N352 N 0.07505 0.04964 0.37743 0.0
N353 N 0.13839 0.0334 0.31745 0.0
H354 H 0.47677 0.12321 0.16581 0.0
H355 H 0.51838 0.07955 0.53653 0.0
H356 H 0.5226 0.16895 0.29758 0.0
H357 H 0.48961 0.02916 0.38451 0.0
H358 H 0.51927 0.11297 0.45108 0.0
H359 H 0.48095 0.08851 0.24589 0.0
C360 C 0.48799 0.12581 0.21118 0.0
C361 C 0.49939 0.14894 0.22502 0.0
C362 C 0.5129 0.09454 0.43647 0.0
C363 C 0.50389 0.10954 0.31751 0.0
C364 C 0.51226 0.07551 0.48531 0.0
C365 C 0.50385 0.05153 0.46775 0.0
C366 C 0.5048 0.08959 0.36991 0.0
C367 C 0.49627 0.04733 0.40043 0.0
C368 C 0.49036 0.10604 0.25691 0.0
C369 C 0.51374 0.15134 0.28457 0.0
N370 N 0.49678 0.06617 0.35419 0.0
N371 N 0.51534 0.13197 0.32901 0.0
H372 H 0.33763 0.47832 0.23497 0.0
H373 H 0.46848 0.45923 0.42722 0.0
H374 H 0.3765 0.40851 0.23839 0.0
H375 H 0.4157 0.51571 0.48508 0.0
H376 H 0.43805 0.44364 0.34419 0.0
H377 H 0.36943 0.49566 0.31258 0.0
C378 C 0.35306 0.46677 0.25141 0.0
C379 C 0.3545 0.44196 0.23033 0.0
C380 C 0.43314 0.45944 0.37503 0.0
C381 C 0.39076 0.46159 0.31892 0.0
C382 C 0.45052 0.46843 0.4223 0.0
C383 C 0.4446 0.48879 0.46333 0.0
C384 C 0.40976 0.47108 0.36787 0.0
C385 C 0.42097 0.49988 0.45481 0.0
C386 C 0.37103 0.47659 0.29606 0.0
C387 C 0.37466 0.42768 0.25378 0.0
N388 N 0.40443 0.49094 0.40777 0.0
N389 N 0.39205 0.43772 0.29668 0.0
H390 H 0.99283 0.35946 0.23393 0.0
H391 H 0.03957 0.46634 0.48687 0.0
H392 H 0.07001 0.38672 0.2414 0.0
H393 H 0.96092 0.44879 0.45041 0.0
H394 H 0.05129 0.43653 0.39927 0.0
H395 H 0.98075 0.39197 0.31301 0.0
C396 C 0.0072 0.37251 0.25116 0.0
C397 C 0.03255 0.37015 0.23099 0.0
C398 C 0.03146 0.43922 0.41037 0.0
C399 C 0.01887 0.40715 0.32336 0.0
C400 C 0.02477 0.45623 0.46044 0.0
C401 C 0.99921 0.46027 0.47555 0.0
C402 C 0.01249 0.42582 0.37586 0.0
C403 C 0.98085 0.44635 0.44036 0.0
C404 C 0.0003 0.39096 0.29695 0.0
C405 C 0.05033 0.38745 0.25633 0.0
N406 N 0.98784 0.42976 0.39229 0.0
N407 N 0.0432 0.40505 0.3015 0.0
H408 H 0.88799 0.9925 0.04438 0.0
H409 H 0.92225 0.99698 0.65066 0.0
H410 H 0.83183 0.98412 0.8877 0.0
H411 H 0.97776 0.98596 0.80768 0.0
H412 H 0.88874 0.99205 0.736 0.0
H413 H 0.92121 0.98971 0.95815 0.0
C414 C 0.8827 0.98983 0.9918 0.0
C415 C 0.85717 0.98863 0.973 0.0
C416 C 0.90826 0.99049 0.7516 0.0
C417 C 0.895 0.98572 0.87396 0.0
C418 C 0.9274 0.99337 0.70294 0.0
C419 C 0.95288 0.99207 0.72207 0.0
C420 C 0.91464 0.98656 0.81998 0.0
C421 C 0.95841 0.98723 0.79056 0.0
C422 C 0.90163 0.98819 0.94263 0.0
C423 C 0.8513 0.98499 0.9043 0.0
N424 N 0.93947 0.98489 0.83707 0.0
N425 N 0.87008 0.98397 0.85709 0.0
H426 H 0.45718 0.87146 0.02398 0.0
H427 H 0.47821 0.91472 0.63755 0.0
H428 H 0.42667 0.83243 0.85123 0.0
H429 H 0.49663 0.96157 0.80814 0.0
H430 H 0.46324 0.88247 0.71617 0.0
H431 H 0.47553 0.90291 0.94658 0.0
C432 C 0.45443 0.86948 0.9698 0.0
C433 C 0.44023 0.84942 0.94399 0.0
C434 C 0.47062 0.89977 0.7365 0.0
C435 C 0.46115 0.88518 0.85539 0.0
C436 C 0.47929 0.91818 0.69159 0.0
C437 C 0.48863 0.94095 0.71623 0.0
C438 C 0.47136 0.90402 0.80674 0.0
C439 C 0.48951 0.94433 0.78687 0.0
C440 C 0.4648 0.88746 0.92573 0.0
C441 C 0.43713 0.8478 0.8734 0.0
N442 N 0.48093 0.92608 0.82969 0.0
N443 N 0.44751 0.86541 0.83165 0.0
H444 H 0.61133 0.5422 0.03542 0.0
H445 H 0.57846 0.52482 0.64212 0.0
H446 H 0.66669 0.52487 0.88203 0.0
H447 H 0.5229 0.54054 0.79655 0.0
H448 H 0.61169 0.52884 0.72733 0.0
H449 H 0.57935 0.54564 0.94681 0.0
C450 C 0.61679 0.53924 0.98307 0.0
C451 C 0.6417 0.53306 0.96624 0.0
C452 C 0.59225 0.53158 0.74247 0.0
C453 C 0.60518 0.53701 0.86442 0.0
C454 C 0.57324 0.52931 0.69379 0.0
C455 C 0.5478 0.53212 0.71228 0.0
C456 C 0.58578 0.53667 0.81019 0.0
C457 C 0.54222 0.53803 0.78001 0.0
C458 C 0.59854 0.54129 0.93244 0.0
C459 C 0.64778 0.52985 0.89738 0.0
N460 N 0.56103 0.53993 0.82653 0.0
N461 N 0.62961 0.53166 0.84911 0.0
H462 H 0.02405 0.68562 0.85413 0.0
H463 H 0.98467 0.54573 0.75993 0.0
H464 H 0.00072 0.63108 0.00452 0.0
H465 H 0.03038 0.5937 0.63137 0.0
H466 H 0.98197 0.5793 0.84347 0.0
H467 H 0.01764 0.65463 0.76555 0.0
C468 C 0.01708 0.66726 0.86845 0.0
C469 C 0.01297 0.66093 0.93696 0.0
C470 C 0.99227 0.58257 0.79653 0.0
C471 C 0.00594 0.62522 0.83563 0.0
C472 C 0.99351 0.56358 0.74856 0.0
C473 C 0.00739 0.56718 0.68839 0.0
C474 C 0.0049 0.60534 0.78382 0.0
C475 C 0.01942 0.59026 0.67715 0.0
C476 C 0.01367 0.64951 0.81785 0.0
C477 C 0.00436 0.63668 0.95243 0.0
N478 N 0.01789 0.60848 0.72438 0.0
N479 N 0.00122 0.61966 0.90218 0.0
H480 H 0.98983 0.17302 0.19321 0.0
H481 H 0.98487 0.12571 0.56762 0.0
H482 H 0.99564 0.22146 0.36627 0.0
H483 H 0.96286 0.07964 0.39911 0.0
H484 H 0.97974 0.16258 0.49669 0.0
H485 H 0.9716 0.14049 0.26658 0.0
C486 C 0.98689 0.1769 0.24654 0.0
C487 C 0.9948 0.19969 0.27417 0.0
C488 C 0.97537 0.14452 0.47534 0.0
C489 C 0.97407 0.16265 0.35834 0.0
C490 C 0.97825 0.12351 0.51594 0.0
C491 C 0.97454 0.09981 0.48854 0.0
C492 C 0.96961 0.14167 0.40624 0.0
C493 C 0.96594 0.09773 0.42169 0.0
C494 C 0.97632 0.15841 0.28831 0.0
C495 C 0.99001 0.20405 0.34307 0.0
N496 N 0.9644 0.11844 0.38202 0.0
N497 N 0.98043 0.1855 0.38311 0.0
H498 H 0.31289 0.0255 0.32397 0.0
H499 H 0.45632 0.98609 0.28731 0.0
H500 H 0.35747 0.03928 0.14298 0.0
H501 H 0.40818 0.9641 0.45573 0.0
H502 H 0.41929 0.00135 0.22747 0.0
H503 H 0.34662 0.9998 0.36853 0.0
C504 C 0.32969 0.023 0.29337 0.0
C505 C 0.33242 0.0348 0.2299 0.0
C506 C 0.41677 0.99278 0.27703 0.0
C507 C 0.37127 0.00548 0.28088 0.0
C508 C 0.43791 0.98389 0.31107 0.0
C509 C 0.43544 0.97424 0.37722 0.0
C510 C 0.39308 0.99214 0.30962 0.0
C511 C 0.41106 0.97177 0.40524 0.0
C512 C 0.34898 0.00831 0.31885 0.0
C513 C 0.35477 0.03104 0.19284 0.0
N514 N 0.3909 0.98108 0.3718 0.0
N515 N 0.37339 0.01685 0.21908 0.0
H516 H 0.51925 0.2977 0.40779 0.0
H517 H 0.55786 0.43935 0.42992 0.0
H518 H 0.55294 0.3394 0.24132 0.0
H519 H 0.52158 0.39627 0.58918 0.0
H520 H 0.56835 0.40057 0.37186 0.0
H521 H 0.53276 0.33015 0.4851 0.0
C522 C 0.53004 0.31336 0.38747 0.0
C523 C 0.53426 0.3161 0.31739 0.0
C524 C 0.5587 0.3996 0.42043 0.0
C525 C 0.54901 0.35395 0.40589 0.0
C526 C 0.55285 0.4217 0.4536 0.0
C527 C 0.53836 0.42081 0.51326 0.0
C528 C 0.54994 0.37674 0.44761 0.0
C529 C 0.53229 0.39762 0.54224 0.0
C530 C 0.53761 0.33207 0.43182 0.0
C531 C 0.54837 0.33695 0.2946 0.0
N532 N 0.53775 0.3765 0.5086 0.0
N533 N 0.55471 0.35539 0.33848 0.0
H534 H 0.14685 0.43579 0.13857 0.0
H535 H 0.09781 0.53475 0.40694 0.0
H536 H 0.19293 0.47002 0.29387 0.0
H537 H 0.04724 0.4845 0.3017 0.0
H538 H 0.1332 0.51813 0.34314 0.0
H539 H 0.11048 0.45882 0.18029 0.0
C540 C 0.14936 0.448 0.18158 0.0
C541 C 0.17309 0.45085 0.21285 0.0
C542 C 0.11432 0.51099 0.3332 0.0
C543 C 0.13172 0.47781 0.25909 0.0
C544 C 0.09407 0.52063 0.36915 0.0
C545 C 0.0696 0.51077 0.36024 0.0
C546 C 0.11011 0.4913 0.28809 0.0
C547 C 0.06582 0.4926 0.31024 0.0
C548 C 0.12863 0.46132 0.20479 0.0
C549 C 0.17521 0.46743 0.26736 0.0
N550 N 0.08598 0.48313 0.27667 0.0
N551 N 0.15483 0.48025 0.28862 0.0
H552 H 0.05879 0.79483 0.84615 0.0
H553 H 0.0771 0.94027 0.77012 0.0
H554 H 0.10792 0.8421 0.96558 0.0
H555 H 0.01786 0.89335 0.68807 0.0
H556 H 0.09478 0.90361 0.82704 0.0
H557 H 0.05101 0.82961 0.77032 0.0
C558 C 0.06847 0.81235 0.85569 0.0
C559 C 0.08386 0.81552 0.91298 0.0
C560 C 0.07803 0.90142 0.7961 0.0
C561 C 0.07427 0.85585 0.82701 0.0
C562 C 0.06796 0.92227 0.76371 0.0
C563 C 0.04579 0.91986 0.72522 0.0
C564 C 0.06597 0.87809 0.78893 0.0
C565 C 0.03474 0.89615 0.71817 0.0
C566 C 0.06373 0.83235 0.81267 0.0
C567 C 0.09549 0.83892 0.92286 0.0
N568 N 0.0449 0.87626 0.74982 0.0
N569 N 0.09022 0.85831 0.88078 0.0
H570 H 0.65604 0.03603 0.08224 0.0
H571 H 0.59004 0.04503 0.71915 0.0
H572 H 0.69563 0.05751 0.89829 0.0
H573 H 0.55119 0.02118 0.90221 0.0
H574 H 0.62752 0.05481 0.78635 0.0
H575 H 0.61634 0.0359 0.01987 0.0
C576 C 0.65636 0.0412 0.02898 0.0
C577 C 0.67929 0.04672 0.99543 0.0
C578 C 0.61073 0.04765 0.81194 0.0
C579 C 0.6338 0.04605 0.92323 0.0
C580 C 0.58928 0.04208 0.7736 0.0
C581 C 0.56748 0.03201 0.80499 0.0
C582 C 0.61047 0.04306 0.88223 0.0
C583 C 0.56761 0.02874 0.87576 0.0
C584 C 0.63365 0.0409 0.99323 0.0
C585 C 0.67848 0.05279 0.92601 0.0
N586 N 0.58884 0.03404 0.9119 0.0
N587 N 0.65614 0.05212 0.89213 0.0
H588 H 0.37213 0.69586 0.82713 0.0
H589 H 0.42898 0.56098 0.80443 0.0
H590 H 0.38798 0.65079 0.00339 0.0
H591 H 0.39931 0.60033 0.63117 0.0
H592 H 0.41002 0.59162 0.87911 0.0
H593 H 0.3779 0.6595 0.75523 0.0
C594 C 0.37647 0.67819 0.85069 0.0
C595 C 0.37981 0.67635 0.92115 0.0
C596 C 0.40731 0.59335 0.82482 0.0
C597 C 0.38673 0.63474 0.83936 0.0
C598 C 0.41816 0.57585 0.78212 0.0
C599 C 0.41606 0.5783 0.71137 0.0
C600 C 0.39456 0.61362 0.79654 0.0
C601 C 0.40162 0.59782 0.68536 0.0
C602 C 0.3797 0.65743 0.80972 0.0
C603 C 0.38517 0.65299 0.94927 0.0
N604 N 0.39177 0.61495 0.72788 0.0
N605 N 0.38887 0.63318 0.90818 0.0
H606 H 0.80804 0.4534 0.94936 0.0
H607 H 0.92305 0.54161 0.84222 0.0
H608 H 0.83439 0.51496 0.07101 0.0
H609 H 0.91247 0.46846 0.7573 0.0
H610 H 0.89093 0.53159 0.92789 0.0
H611 H 0.84617 0.4579 0.8786 0.0
C612 C 0.82195 0.46768 0.96151 0.0
C613 C 0.81803 0.48384 0.01606 0.0
C614 C 0.89584 0.51758 0.89113 0.0
C615 C 0.86146 0.48918 0.93545 0.0
C616 C 0.91416 0.52331 0.84218 0.0
C617 C 0.92028 0.5059 0.79244 0.0
C618 C 0.88319 0.49441 0.88955 0.0
C619 C 0.90829 0.48241 0.79487 0.0
C620 C 0.84373 0.47016 0.92144 0.0
C621 C 0.83673 0.50192 0.02993 0.0
N622 N 0.88999 0.47747 0.84202 0.0
N623 N 0.85745 0.50427 0.98946 0.0
H624 H 0.99559 0.19125 0.95636 0.0
H625 H 0.03652 0.08852 0.6877 0.0
H626 H 0.05617 0.20312 0.81129 0.0
H627 H 0.96486 0.08657 0.7933 0.0
H628 H 0.04667 0.12829 0.74194 0.0
H629 H 0.98588 0.15145 0.90363 0.0
C630 C 0.00662 0.18581 0.91267 0.0
C631 C 0.02672 0.20089 0.88826 0.0
C632 C 0.0288 0.11907 0.75353 0.0
C633 C 0.01611 0.15452 0.82894 0.0
C634 C 0.0231 0.09622 0.72315 0.0
C635 C 0.99979 0.08416 0.73601 0.0
C636 C 0.01119 0.12982 0.79763 0.0
C637 C 0.98303 0.09521 0.78181 0.0
C638 C 0.00121 0.16283 0.88307 0.0
C639 C 0.04071 0.19215 0.83263 0.0
N640 N 0.98904 0.11738 0.81087 0.0
N641 N 0.03523 0.16953 0.80516 0.0
H642 H 0.29172 0.01356 0.82675 0.0
H643 H 0.43129 0.03837 0.6774 0.0
H644 H 0.33323 0.08254 0.85402 0.0
H645 H 0.39302 0.96683 0.67806 0.0
H646 H 0.39448 0.05613 0.73426 0.0
H647 H 0.32737 0.99751 0.76226 0.0
C648 C 0.30825 0.02541 0.81883 0.0
C649 C 0.30944 0.04942 0.84619 0.0
C650 C 0.3942 0.03655 0.72194 0.0
C651 C 0.35044 0.03113 0.77229 0.0
C652 C 0.41522 0.02639 0.68967 0.0
C653 C 0.4153 0.00106 0.67308 0.0
C654 C 0.37307 0.02127 0.73734 0.0
C655 C 0.3939 0.98644 0.68998 0.0
C656 C 0.32862 0.01623 0.78197 0.0
C657 C 0.33127 0.06404 0.8333 0.0
N658 N 0.3737 0.99675 0.72098 0.0
N659 N 0.35094 0.05462 0.79767 0.0
H660 H 0.45417 0.32188 0.84085 0.0
H661 H 0.54546 0.44126 0.79681 0.0
H662 H 0.52369 0.33264 0.95175 0.0
H663 H 0.47196 0.43507 0.7035 0.0
H664 H 0.5378 0.40134 0.85355 0.0
H665 H 0.46088 0.36261 0.78693 0.0
C666 C 0.47092 0.3327 0.85357 0.0
C667 C 0.4884 0.3237 0.90091 0.0
C668 C 0.52324 0.40878 0.82114 0.0
C669 C 0.49615 0.37043 0.8395 0.0
C670 C 0.52755 0.43167 0.78899 0.0
C671 C 0.50934 0.44155 0.74528 0.0
C672 C 0.50062 0.3955 0.80918 0.0
C673 C 0.48649 0.42824 0.737 0.0
C674 C 0.47471 0.35598 0.82284 0.0
C675 C 0.50989 0.3385 0.91478 0.0
N676 N 0.48287 0.4058 0.76818 0.0
N677 N 0.51309 0.3611 0.88444 0.0
H678 H 0.23062 0.46944 0.79927 0.0
H679 H 0.08654 0.45645 0.67936 0.0
H680 H 0.18234 0.4065 0.85007 0.0
H681 H 0.13616 0.51808 0.62531 0.0
H682 H 0.122 0.4364 0.73622 0.0
H683 H 0.19703 0.48593 0.72798 0.0
C684 C 0.21304 0.45896 0.7948 0.0
C685 C 0.20927 0.43661 0.83086 0.0
C686 C 0.12512 0.45426 0.71163 0.0
C687 C 0.17059 0.45546 0.74984 0.0
C688 C 0.10487 0.46574 0.67932 0.0
C689 C 0.10833 0.48906 0.64793 0.0
C690 C 0.14897 0.46623 0.7126 0.0
C691 C 0.13254 0.50017 0.64916 0.0
C692 C 0.19385 0.46837 0.75412 0.0
C693 C 0.18618 0.42368 0.82269 0.0
N694 N 0.15185 0.48872 0.68115 0.0
N695 N 0.16763 0.43341 0.78361 0.0
H696 H 0.06996 0.82122 0.31848 0.0
H697 H 0.9887 0.92553 0.49649 0.0
H698 H 0.98848 0.81865 0.30938 0.0
H699 H 0.06657 0.93516 0.43383 0.0
H700 H 0.98691 0.88592 0.43454 0.0
H701 H 0.06815 0.86182 0.37115 0.0
C702 C 0.05161 0.82908 0.32847 0.0
C703 C 0.02932 0.81634 0.31033 0.0
C704 C 0.00423 0.89694 0.43385 0.0
C705 C 0.0271 0.86338 0.36981 0.0
C706 C 0.00525 0.91956 0.46888 0.0
C707 C 0.02791 0.93358 0.4709 0.0
C708 C 0.02608 0.88832 0.40144 0.0
C709 C 0.04878 0.92491 0.43446 0.0
C710 C 0.05059 0.85246 0.35782 0.0
C711 C 0.0061 0.82783 0.32285 0.0
N712 N 0.04742 0.90279 0.40201 0.0
N713 N 0.00556 0.85071 0.35235 0.0
H714 H 0.66556 0.97831 0.2135 0.0
H715 H 0.58666 0.95888 0.55662 0.0
H716 H 0.69951 0.94906 0.39573 0.0
H717 H 0.57418 0.01713 0.40958 0.0
H718 H 0.62156 0.94369 0.48555 0.0
H719 H 0.62507 0.97974 0.27227 0.0
C720 C 0.6644 0.97141 0.26524 0.0
C721 C 0.68609 0.96371 0.29989 0.0
C722 C 0.61083 0.95952 0.46859 0.0
C723 C 0.63971 0.96584 0.36775 0.0
C724 C 0.59094 0.9681 0.50874 0.0
C725 C 0.57781 0.98938 0.48889 0.0
C726 C 0.617 0.97201 0.40774 0.0
C727 C 0.58407 0.00081 0.42684 0.0
C728 C 0.64127 0.97252 0.29893 0.0
C729 C 0.68333 0.95544 0.36743 0.0
N730 N 0.60324 0.992 0.38847 0.0
N731 N 0.66058 0.95698 0.39956 0.0
H732 H 0.45985 0.71579 0.38182 0.0
H733 H 0.50147 0.57362 0.37138 0.0
H734 H 0.46712 0.67349 0.19748 0.0
H735 H 0.48494 0.61326 0.55575 0.0
H736 H 0.49661 0.61226 0.30691 0.0
H737 H 0.47641 0.6806 0.44595 0.0
C738 C 0.46513 0.69921 0.35473 0.0
C739 C 0.46181 0.69755 0.28419 0.0
C740 C 0.49433 0.61255 0.36157 0.0
C741 C 0.48085 0.65719 0.3573 0.0
C742 C 0.49718 0.59049 0.39846 0.0
C743 C 0.49327 0.59011 0.46899 0.0
C744 C 0.48755 0.63436 0.39548 0.0
C745 C 0.48784 0.6126 0.50135 0.0
C746 C 0.47466 0.67914 0.39135 0.0
C747 C 0.46947 0.67574 0.25167 0.0
N748 N 0.48491 0.63374 0.46429 0.0
N749 N 0.47836 0.65634 0.28855 0.0
H750 H 0.81316 0.56541 0.23787 0.0
H751 H 0.8919 0.55144 0.57732 0.0
H752 H 0.77948 0.56251 0.43798 0.0
H753 H 0.92496 0.55303 0.37649 0.0
H754 H 0.8517 0.56408 0.52897 0.0
H755 H 0.85461 0.57032 0.28922 0.0
C756 C 0.81431 0.56655 0.29265 0.0
C757 C 0.79268 0.56319 0.33364 0.0
C758 C 0.86782 0.562 0.49553 0.0
C759 C 0.84049 0.56799 0.3929 0.0
C760 C 0.89081 0.55475 0.52308 0.0
C761 C 0.91173 0.55069 0.48068 0.0
C762 C 0.86562 0.56506 0.42495 0.0
C763 C 0.90926 0.55563 0.411 0.0
C764 C 0.83814 0.56908 0.322 0.0
C765 C 0.79565 0.56448 0.40438 0.0
N766 N 0.88651 0.5622 0.38518 0.0
N767 N 0.81915 0.56635 0.43178 0.0
loop_
_geom_bond_atom_site_label_1
_geom_bond_atom_site_label_2
_geom_bond_distance
_geom_bond_site_symmetry_2
_ccdc_geom_bond_type
P0 O11 1.490 . S
P0 C14 1.812 . S
P0 C20 1.803 . S
P0 C26 1.819 1_554 S
H1 C15 0.941 . S
H2 C16 0.939 . S
H3 C18 0.940 . S
H4 C19 0.940 . S
H5 C21 0.939 . S
H6 C22 0.942 . S
H7 C24 0.940 . S
H8 C25 0.939 . S
H9 C27 0.941 . S
H10 C31 0.939 . S
O11 P0 1.490 . S
H12 C28 0.939 . S
H13 C30 0.940 . S
C14 P0 1.812 . S
C14 C15 1.389 . S
C14 C19 1.391 . S
C15 H1 0.941 . S
C15 C14 1.389 . S
C15 C16 1.397 . S
C16 H2 0.939 . S
C16 C15 1.397 . S
C16 C17 1.378 . S
C17 C16 1.378 . S
C17 C18 1.378 . S
C18 H3 0.940 . S
C18 C17 1.378 . S
C18 C19 1.396 . S
C19 H4 0.940 . S
C19 C14 1.391 . S
C19 C18 1.396 . S
C20 P0 1.803 . S
C20 C21 1.378 1_554 S
C20 C25 1.400 . S
C21 H5 0.939 . S
C21 C20 1.378 1_556 S
C21 C22 1.361 . S
C22 H6 0.942 . S
C22 C21 1.361 . S
C22 C23 1.369 . S
C23 C22 1.369 . S
C23 C24 1.404 1_556 S
C24 H7 0.940 . S
C24 C23 1.404 1_554 S
C24 C25 1.389 . S
C25 H8 0.939 . S
C25 C20 1.400 . S
C25 C24 1.389 . S
C26 P0 1.819 1_556 S
C26 C27 1.391 . S
C26 C31 1.391 . S
C27 H9 0.941 . S
C27 C26 1.391 . S
C27 C28 1.396 . S
C28 H12 0.939 . S
C28 C27 1.396 . S
C28 C29 1.397 . S
C29 C28 1.397 . S
C29 C30 1.385 . S
C30 H13 0.940 . S
C30 C29 1.385 . S
C30 C31 1.388 . S
C31 H10 0.939 . S
C31 C26 1.391 . S
C31 C30 1.388 . S
P32 O43 1.490 . S
P32 C46 1.812 . S
P32 C52 1.803 . S
P32 C58 1.819 1_554 S
H33 C47 0.941 . S
H34 C48 0.939 . S
H35 C50 0.940 . S
H36 C51 0.950 . S
H37 C53 0.939 . S
H38 C54 0.942 . S
H39 C56 0.940 . S
H40 C57 0.960 . S
H41 C59 0.941 1_554 S
H42 C63 0.930 1_655 S
O43 P32 1.490 . S
H44 C60 0.939 . S
H45 C62 0.940 . S
C46 P32 1.812 . S
C46 C47 1.389 . S
C46 C51 1.375 1_455 S
C47 H33 0.941 . S
C47 C46 1.389 . S
C47 C48 1.397 . S
C48 H34 0.939 . S
C48 C47 1.397 . S
C48 C49 1.378 . S
C49 C48 1.378 . S
C49 C50 1.378 1_455 S
C50 H35 0.940 . S
C50 C49 1.378 1_655 S
C50 C51 1.403 . S
C51 H36 0.950 . S
C51 C46 1.375 1_655 S
C51 C50 1.403 . S
C52 P32 1.803 . S
C52 C53 1.378 1_554 S
C52 C57 1.369 1_455 S
C53 H37 0.939 . S
C53 C52 1.378 1_556 S
C53 C54 1.361 . S
C54 H38 0.942 . S
C54 C53 1.361 . S
C54 C55 1.369 . S
C55 C54 1.369 . S
C55 C56 1.404 1_456 S
C56 H39 0.940 . S
C56 C55 1.404 1_654 S
C56 C57 1.401 . S
C57 H40 0.960 . S
C57 C52 1.369 1_655 S
C57 C56 1.401 . S
C58 P32 1.819 1_556 S
C58 C59 1.391 . S
C58 C63 1.391 . S
C59 H41 0.941 1_556 S
C59 C58 1.391 . S
C59 C60 1.396 . S
C60 H44 0.939 . S
C60 C59 1.396 . S
C60 C61 1.397 . S
C61 C60 1.397 . S
C61 C62 1.385 1_455 S
C62 H45 0.940 . S
C62 C61 1.385 1_655 S
C62 C63 1.388 1_655 S
C63 H42 0.930 1_455 S
C63 C58 1.391 . S
C63 C62 1.388 1_455 S
P64 O75 1.490 . S
P64 C78 1.812 . S
P64 C84 1.803 . S
P64 C90 1.819 1_554 S
H65 C79 0.941 . S
H66 C80 0.939 . S
H67 C82 0.940 . S
H68 C83 0.940 . S
H69 C85 0.939 . S
H70 C86 0.942 . S
H71 C88 0.940 . S
H72 C89 0.939 . S
H73 C91 0.941 1_554 S
H74 C95 0.939 . S
O75 P64 1.490 . S
H76 C92 0.939 . S
H77 C94 0.940 . S
C78 P64 1.812 . S
C78 C79 1.389 . S
C78 C83 1.391 . S
C79 H65 0.941 . S
C79 C78 1.389 . S
C79 C80 1.397 . S
C80 H66 0.939 . S
C80 C79 1.397 . S
C80 C81 1.378 . S
C81 C80 1.378 . S
C81 C82 1.378 . S
C82 H67 0.940 . S
C82 C81 1.378 . S
C82 C83 1.396 . S
C83 H68 0.940 . S
C83 C78 1.391 . S
C83 C82 1.396 . S
C84 P64 1.803 . S
C84 C85 1.378 1_554 S
C84 C89 1.400 . S
C85 H69 0.939 . S
C85 C84 1.378 1_556 S
C85 C86 1.361 . S
C86 H70 0.942 . S
C86 C85 1.361 . S
C86 C87 1.369 . S
C87 C86 1.369 . S
C87 C88 1.404 1_556 S
C88 H71 0.940 . S
C88 C87 1.404 1_554 S
C88 C89 1.389 . S
C89 H72 0.939 . S
C89 C84 1.400 . S
C89 C88 1.389 . S
C90 P64 1.819 1_556 S
C90 C91 1.391 . S
C90 C95 1.391 . S
C91 H73 0.941 1_556 S
C91 C90 1.391 . S
C91 C92 1.396 . S
C92 H76 0.939 . S
C92 C91 1.396 . S
C92 C93 1.397 . S
C93 C92 1.397 . S
C93 C94 1.385 . S
C94 H77 0.940 . S
C94 C93 1.385 . S
C94 C95 1.388 . S
C95 H74 0.939 . S
C95 C90 1.391 . S
C95 C94 1.388 . S
P96 O107 1.490 . S
P96 C110 1.812 . S
P96 C116 1.803 . S
P96 C122 1.819 1_554 S
H97 C111 0.941 . S
H98 C112 0.939 . S
H99 C114 0.940 . S
H100 C115 0.940 . S
H101 C117 0.939 . S
H102 C118 0.942 . S
H103 C120 0.940 . S
H104 C121 0.939 . S
H105 C123 0.941 1_554 S
H106 C127 0.939 . S
O107 P96 1.490 . S
H108 C124 0.939 . S
H109 C126 0.940 . S
C110 P96 1.812 . S
C110 C111 1.389 . S
C110 C115 1.391 . S
C111 H97 0.941 . S
C111 C110 1.389 . S
C111 C112 1.397 . S
C112 H98 0.939 . S
C112 C111 1.397 . S
C112 C113 1.378 . S
C113 C112 1.378 . S
C113 C114 1.378 . S
C114 H99 0.940 . S
C114 C113 1.378 . S
C114 C115 1.396 . S
C115 H100 0.940 . S
C115 C110 1.391 . S
C115 C114 1.396 . S
C116 P96 1.803 . S
C116 C117 1.378 1_554 S
C116 C121 1.400 . S
C117 H101 0.939 . S
C117 C116 1.378 1_556 S
C117 C118 1.361 . S
C118 H102 0.942 . S
C118 C117 1.361 . S
C118 C119 1.369 . S
C119 C118 1.369 . S
C119 C120 1.404 1_556 S
C120 H103 0.940 . S
C120 C119 1.404 1_554 S
C120 C121 1.389 . S
C121 H104 0.939 . S
C121 C116 1.400 . S
C121 C120 1.389 . S
C122 P96 1.819 1_556 S
C122 C123 1.391 . S
C122 C127 1.391 . S
C123 H105 0.941 1_556 S
C123 C122 1.391 . S
C123 C124 1.396 . S
C124 H108 0.939 . S
C124 C123 1.396 . S
C124 C125 1.397 . S
C125 C124 1.397 . S
C125 C126 1.385 . S
C126 H109 0.940 . S
C126 C125 1.385 . S
C126 C127 1.388 . S
C127 H106 0.939 . S
C127 C122 1.391 . S
C127 C126 1.388 . S
P128 O139 1.490 . S
P128 C142 1.812 . S
P128 C148 1.803 . S
P128 C154 1.819 . S
H129 C143 0.941 . S
H130 C144 0.939 . S
H131 C146 0.940 . S
H132 C147 0.940 . S
H133 C149 0.939 . S
H134 C150 0.942 . S
H135 C152 0.940 . S
H136 C153 0.939 . S
H137 C155 0.941 . S
H138 C159 0.939 . S
O139 P128 1.490 . S
H140 C156 0.939 . S
H141 C158 0.940 . S
C142 P128 1.812 . S
C142 C143 1.389 . S
C142 C147 1.391 . S
C143 H129 0.941 . S
C143 C142 1.389 . S
C143 C144 1.397 1_554 S
C144 H130 0.939 . S
C144 C143 1.397 1_556 S
C144 C145 1.378 . S
C145 C144 1.378 . S
C145 C146 1.378 1_556 S
C146 H131 0.940 . S
C146 C145 1.378 1_554 S
C146 C147 1.396 . S
C147 H132 0.940 . S
C147 C142 1.391 . S
C147 C146 1.396 . S
C148 P128 1.803 . S
C148 C149 1.378 . S
C148 C153 1.400 . S
C149 H133 0.939 . S
C149 C148 1.378 . S
C149 C150 1.361 . S
C150 H134 0.942 . S
C150 C149 1.361 . S
C150 C151 1.369 . S
C151 C150 1.369 . S
C151 C152 1.404 . S
C152 H135 0.940 . S
C152 C151 1.404 . S
C152 C153 1.389 . S
C153 H136 0.939 . S
C153 C148 1.400 . S
C153 C152 1.389 . S
C154 P128 1.819 . S
C154 C155 1.391 . S
C154 C159 1.391 . S
C155 H137 0.941 . S
C155 C154 1.391 . S
C155 C156 1.396 . S
C156 H140 0.939 . S
C156 C155 1.396 . S
C156 C157 1.397 . S
C157 C156 1.397 . S
C157 C158 1.385 . S
C158 H141 0.940 . S
C158 C157 1.385 . S
C158 C159 1.388 . S
C159 H138 0.939 . S
C159 C154 1.391 . S
C159 C158 1.388 . S
P160 O171 1.490 . S
P160 C174 1.812 . S
P160 C180 1.803 . S
P160 C186 1.819 . S
H161 C175 0.941 . S
H162 C176 0.939 . S
H163 C178 0.940 . S
H164 C179 0.944 . S
H165 C181 0.939 . S
H166 C182 0.942 . S
H167 C184 0.940 . S
H168 C185 0.953 . S
H169 C187 0.941 . S
H170 C191 0.932 1_655 S
O171 P160 1.490 . S
H172 C188 0.939 . S
H173 C190 0.940 . S
C174 P160 1.812 . S
C174 C175 1.389 . S
C174 C179 1.385 1_455 S
C175 H161 0.941 . S
C175 C174 1.389 . S
C175 C176 1.397 1_554 S
C176 H162 0.939 . S
C176 C175 1.397 1_556 S
C176 C177 1.378 . S
C177 C176 1.378 . S
C177 C178 1.378 1_456 S
C178 H163 0.940 . S
C178 C177 1.378 1_654 S
C178 C179 1.399 . S
C179 H164 0.944 . S
C179 C174 1.385 1_655 S
C179 C178 1.399 . S
C180 P160 1.803 . S
C180 C181 1.378 . S
C180 C185 1.378 1_455 S
C181 H165 0.939 . S
C181 C180 1.378 . S
C181 C182 1.361 . S
C182 H166 0.942 . S
C182 C181 1.361 . S
C182 C183 1.369 . S
C183 C182 1.369 . S
C183 C184 1.404 1_455 S
C184 H167 0.940 . S
C184 C183 1.404 1_655 S
C184 C185 1.398 . S
C185 H168 0.953 . S
C185 C180 1.378 1_655 S
C185 C184 1.398 . S
C186 P160 1.819 . S
C186 C187 1.391 . S
C186 C191 1.391 . S
C187 H169 0.941 . S
C187 C186 1.391 . S
C187 C188 1.396 . S
C188 H172 0.939 . S
C188 C187 1.396 . S
C188 C189 1.397 . S
C189 C188 1.397 . S
C189 C190 1.385 1_455 S
C190 H173 0.940 . S
C190 C189 1.385 1_655 S
C190 C191 1.388 1_655 S
C191 H170 0.932 1_455 S
C191 C186 1.391 . S
C191 C190 1.388 1_455 S
P192 O203 1.490 . S
P192 C206 1.812 . S
P192 C212 1.803 . S
P192 C218 1.819 . S
H193 C207 0.941 . S
H194 C208 0.939 . S
H195 C210 0.940 . S
H196 C211 0.940 . S
H197 C213 0.939 . S
H198 C214 0.942 . S
H199 C216 0.940 . S
H200 C217 0.939 . S
H201 C219 0.941 . S
H202 C223 0.939 . S
O203 P192 1.490 . S
H204 C220 0.939 . S
H205 C222 0.940 . S
C206 P192 1.812 . S
C206 C207 1.389 . S
C206 C211 1.391 . S
C207 H193 0.941 . S
C207 C206 1.389 . S
C207 C208 1.397 1_554 S
C208 H194 0.939 . S
C208 C207 1.397 1_556 S
C208 C209 1.378 . S
C209 C208 1.378 . S
C209 C210 1.378 1_556 S
C210 H195 0.940 . S
C210 C209 1.378 1_554 S
C210 C211 1.396 . S
C211 H196 0.940 . S
C211 C206 1.391 . S
C211 C210 1.396 . S
C212 P192 1.803 . S
C212 C213 1.378 . S
C212 C217 1.400 . S
C213 H197 0.939 . S
C213 C212 1.378 . S
C213 C214 1.361 . S
C214 H198 0.942 . S
C214 C213 1.361 . S
C214 C215 1.369 . S
C215 C214 1.369 . S
C215 C216 1.404 . S
C216 H199 0.940 . S
C216 C215 1.404 . S
C216 C217 1.389 . S
C217 H200 0.939 . S
C217 C212 1.400 . S
C217 C216 1.389 . S
C218 P192 1.819 . S
C218 C219 1.391 . S
C218 C223 1.391 . S
C219 H201 0.941 . S
C219 C218 1.391 . S
C219 C220 1.396 . S
C220 H204 0.939 . S
C220 C219 1.396 . S
C220 C221 1.397 . S
C221 C220 1.397 . S
C221 C222 1.385 . S
C222 H205 0.940 . S
C222 C221 1.385 . S
C222 C223 1.388 . S
C223 H202 0.939 . S
C223 C218 1.391 . S
C223 C222 1.388 . S
P224 O235 1.490 . S
P224 C238 1.812 . S
P224 C244 1.803 . S
P224 C250 1.819 . S
H225 C239 0.941 . S
H226 C240 0.939 . S
H227 C242 0.940 . S
H228 C243 0.940 . S
H229 C245 0.939 . S
H230 C246 0.942 . S
H231 C248 0.940 . S
H232 C249 0.939 . S
H233 C251 0.941 . S
H234 C255 0.939 . S
O235 P224 1.490 . S
H236 C252 0.939 . S
H237 C254 0.940 . S
C238 P224 1.812 . S
C238 C239 1.389 . S
C238 C243 1.391 . S
C239 H225 0.941 . S
C239 C238 1.389 . S
C239 C240 1.397 1_554 S
C240 H226 0.939 . S
C240 C239 1.397 1_556 S
C240 C241 1.378 . S
C241 C240 1.378 . S
C241 C242 1.378 1_556 S
C242 H227 0.940 . S
C242 C241 1.378 1_554 S
C242 C243 1.396 . S
C243 H228 0.940 . S
C243 C238 1.391 . S
C243 C242 1.396 . S
C244 P224 1.803 . S
C244 C245 1.378 . S
C244 C249 1.400 . S
C245 H229 0.939 . S
C245 C244 1.378 . S
C245 C246 1.361 . S
C246 H230 0.942 . S
C246 C245 1.361 . S
C246 C247 1.369 . S
C247 C246 1.369 . S
C247 C248 1.404 . S
C248 H231 0.940 . S
C248 C247 1.404 . S
C248 C249 1.389 . S
C249 H232 0.939 . S
C249 C244 1.400 . S
C249 C248 1.389 . S
C250 P224 1.819 . S
C250 C251 1.391 . S
C250 C255 1.391 . S
C251 H233 0.941 . S
C251 C250 1.391 . S
C251 C252 1.396 . S
C252 H236 0.939 . S
C252 C251 1.396 . S
C252 C253 1.397 . S
C253 C252 1.397 . S
C253 C254 1.385 . S
C254 H237 0.940 . S
C254 C253 1.385 . S
C254 C255 1.388 . S
C255 H234 0.939 . S
C255 C250 1.391 . S
C255 C254 1.388 . S
Zn256 O262 1.969 . S
Zn256 O263 1.965 1_655 S
Zn256 O267 2.024 1_655 S
Zn256 O272 1.969 . S
Zn257 O264 1.969 . S
Zn257 O270 1.969 . S
Zn257 O271 1.965 1_455 S
Zn257 O273 2.024 1_455 S
C258 O259 1.229 1_455 S
C258 O267 1.058 . S
O259 C258 1.229 1_655 S
C260 O261 1.229 1_655 S
C260 O273 1.058 . S
O261 C260 1.229 1_455 S
O262 Zn256 1.969 . S
O262 C265 1.267 . S
O263 Zn256 1.965 1_455 S
O263 C274 1.260 . S
O264 Zn257 1.969 . S
O264 C274 1.258 1_565 S
C265 O262 1.267 . S
C265 O266 1.228 1_655 S
O266 C265 1.228 1_455 S
O267 Zn256 2.024 1_455 S
O267 C258 1.058 . S
C268 O269 1.228 1_455 S
C268 O270 1.267 . S
O269 C268 1.228 1_655 S
O270 Zn257 1.969 . S
O270 C268 1.267 . S
O271 Zn257 1.965 1_655 S
O271 C275 1.260 1_565 S
O272 Zn256 1.969 . S
O272 C275 1.258 . S
O273 Zn257 2.024 1_655 S
O273 C260 1.058 . S
C274 O263 1.260 . S
C274 O264 1.258 1_545 S
C275 O271 1.260 1_545 S
C275 O272 1.258 . S
Zn276 O282 1.977 . S
Zn276 O283 1.965 . S
Zn276 O287 2.024 . S
Zn276 O292 1.969 1_545 S
Zn277 O284 1.969 1_565 S
Zn277 O290 1.969 1_565 S
Zn277 O291 1.965 . S
Zn277 O293 2.024 . S
C278 O279 1.229 . S
C278 O287 1.058 . S
O279 C278 1.229 . S
C280 O281 1.229 . S
C280 O293 1.058 . S
O281 C280 1.229 . S
O282 Zn276 1.977 . S
O282 C285 1.285 . S
O283 Zn276 1.965 . S
O283 C294 1.260 . S
O284 Zn277 1.969 1_545 S
O284 C294 1.258 . S
C285 O282 1.285 . S
C285 O286 1.228 . S
O286 C285 1.228 . S
O287 Zn276 2.024 . S
O287 C278 1.058 . S
C288 O289 1.228 . S
C288 O290 1.267 1_565 S
O289 C288 1.228 . S
O290 Zn277 1.969 1_545 S
O290 C288 1.267 1_545 S
O291 Zn277 1.965 . S
O291 C295 1.260 . S
O292 Zn276 1.969 1_565 S
O292 C295 1.258 . S
O293 Zn277 2.024 . S
O293 C280 1.058 . S
C294 O283 1.260 . S
C294 O284 1.258 . S
C295 O291 1.260 . S
C295 O292 1.258 . S
Zn296 O302 1.969 . S
Zn296 O303 1.965 . S
Zn296 O307 2.024 . S
Zn296 O312 1.969 . S
Zn297 O304 1.969 . S
Zn297 O310 1.969 . S
Zn297 O311 1.965 . S
Zn297 O313 2.024 . S
C298 O299 1.229 . S
C298 O307 1.058 . S
O299 C298 1.229 . S
C300 O301 1.229 . S
C300 O313 1.058 . S
O301 C300 1.229 . S
O302 Zn296 1.969 . S
O302 C305 1.267 . S
O303 Zn296 1.965 . S
O303 C314 1.260 . S
O304 Zn297 1.969 . S
O304 C314 1.258 . S
C305 O302 1.267 . S
C305 O306 1.228 . S
O306 C305 1.228 . S
O307 Zn296 2.024 . S
O307 C298 1.058 . S
C308 O309 1.228 . S
C308 O310 1.267 . S
O309 C308 1.228 . S
O310 Zn297 1.969 . S
O310 C308 1.267 . S
O311 Zn297 1.965 . S
O311 C315 1.260 . S
O312 Zn296 1.969 . S
O312 C315 1.258 . S
O313 Zn297 2.024 . S
O313 C300 1.058 . S
C314 O303 1.260 . S
C314 O304 1.258 . S
C315 O311 1.260 . S
C315 O312 1.258 . S
Zn316 O322 1.969 . S
Zn316 O323 1.965 . S
Zn316 O327 2.024 . S
Zn316 O332 1.969 . S
Zn317 O324 1.969 . S
Zn317 O330 1.969 . S
Zn317 O331 1.965 . S
Zn317 O333 2.024 . S
C318 O319 1.229 . S
C318 O327 1.058 . S
O319 C318 1.229 . S
C320 O321 1.229 . S
C320 O333 1.058 . S
O321 C320 1.229 . S
O322 Zn316 1.969 . S
O322 C325 1.267 . S
O323 Zn316 1.965 . S
O323 C334 1.260 1_455 S
O324 Zn317 1.969 . S
O324 C334 1.258 . S
C325 O322 1.267 . S
C325 O326 1.228 . S
O326 C325 1.228 . S
O327 Zn316 2.024 . S
O327 C318 1.058 . S
C328 O329 1.228 . S
C328 O330 1.267 . S
O329 C328 1.228 . S
O330 Zn317 1.969 . S
O330 C328 1.267 . S
O331 Zn317 1.965 . S
O331 C335 1.260 1_655 S
O332 Zn316 1.969 . S
O332 C335 1.258 . S
O333 Zn317 2.024 . S
O333 C320 1.058 . S
C334 O323 1.260 1_655 S
C334 O324 1.258 . S
C335 O331 1.260 1_455 S
C335 O332 1.258 . S
H336 C342 0.930 . S
H337 C346 0.930 1_565 S
H338 C351 0.929 . S
H339 C349 0.929 . S
H340 C344 0.929 . S
H341 C350 0.929 . S
C342 H336 0.930 . S
C342 C343 1.367 . S
C342 C350 1.378 . S
C343 C342 1.367 . S
C343 C351 1.433 . S
C344 H340 0.929 . S
C344 C346 1.378 . S
C344 C348 1.350 . S
C345 C348 1.463 . S
C345 C350 1.350 . S
C345 N353 1.427 . S
C346 H337 0.930 1_545 S
C346 C344 1.378 . S
C346 C347 1.367 . S
C347 C346 1.367 . S
C347 C349 1.433 . S
C348 C344 1.350 . S
C348 C345 1.463 . S
C348 N352 1.427 . S
C349 H339 0.929 . S
C349 C347 1.433 . S
C349 N352 1.384 . S
C350 H341 0.929 . S
C350 C342 1.378 . S
C350 C345 1.350 . S
C351 H338 0.929 . S
C351 C343 1.433 . S
C351 N353 1.384 . S
N352 C348 1.427 . S
N352 C349 1.384 . S
N353 C345 1.427 . S
N353 C351 1.384 . S
H354 C360 0.930 . S
H355 C364 0.930 . S
H356 C369 0.929 . S
H357 C367 0.929 . S
H358 C362 0.929 . S
H359 C368 0.929 . S
C360 H354 0.930 . S
C360 C361 1.367 . S
C360 C368 1.378 . S
C361 C360 1.367 . S
C361 C369 1.433 . S
C362 H358 0.929 . S
C362 C364 1.378 . S
C362 C366 1.350 . S
C363 C366 1.463 . S
C363 C368 1.350 . S
C363 N371 1.427 . S
C364 H355 0.930 . S
C364 C362 1.378 . S
C364 C365 1.367 . S
C365 C364 1.367 . S
C365 C367 1.433 . S
C366 C362 1.350 . S
C366 C363 1.463 . S
C366 N370 1.427 . S
C367 H357 0.929 . S
C367 C365 1.433 . S
C367 N370 1.384 . S
C368 H359 0.929 . S
C368 C360 1.378 . S
C368 C363 1.350 . S
C369 H356 0.929 . S
C369 C361 1.433 . S
C369 N371 1.384 . S
N370 C366 1.427 . S
N370 C367 1.384 . S
N371 C363 1.427 . S
N371 C369 1.384 . S
H372 C378 0.930 . S
H373 C382 0.930 . S
H374 C387 0.929 . S
H375 C385 0.929 . S
H376 C380 0.929 . S
H377 C386 0.929 . S
C378 H372 0.930 . S
C378 C379 1.367 . S
C378 C386 1.378 . S
C379 C378 1.367 . S
C379 C387 1.433 . S
C380 H376 0.929 . S
C380 C382 1.378 . S
C380 C384 1.350 . S
C381 C384 1.463 . S
C381 C386 1.350 . S
C381 N389 1.427 . S
C382 H373 0.930 . S
C382 C380 1.378 . S
C382 C383 1.367 . S
C383 C382 1.367 . S
C383 C385 1.433 . S
C384 C380 1.350 . S
C384 C381 1.463 . S
C384 N388 1.427 . S
C385 H375 0.929 . S
C385 C383 1.433 . S
C385 N388 1.384 . S
C386 H377 0.929 . S
C386 C378 1.378 . S
C386 C381 1.350 . S
C387 H374 0.929 . S
C387 C379 1.433 . S
C387 N389 1.384 . S
N388 C384 1.427 . S
N388 C385 1.384 . S
N389 C381 1.427 . S
N389 C387 1.384 . S
H390 C396 0.930 . S
H391 C400 0.930 . S
H392 C405 0.929 . S
H393 C403 0.929 . S
H394 C398 0.929 . S
H395 C404 0.929 . S
C396 H390 0.930 . S
C396 C397 1.365 1_455 S
C396 C404 1.378 . S
C397 C396 1.365 1_655 S
C397 C405 1.435 . S
C398 H394 0.929 . S
C398 C400 1.378 . S
C398 C402 1.350 . S
C399 C402 1.463 . S
C399 C404 1.350 1_655 S
C399 N407 1.427 . S
C400 H391 0.930 . S
C400 C398 1.378 . S
C400 C401 1.367 . S
C401 C400 1.367 . S
C401 C403 1.433 1_655 S
C402 C398 1.350 . S
C402 C399 1.463 . S
C402 N406 1.427 1_655 S
C403 H393 0.929 . S
C403 C401 1.433 1_455 S
C403 N406 1.384 . S
C404 H395 0.929 . S
C404 C396 1.378 . S
C404 C399 1.350 1_455 S
C405 H392 0.929 . S
C405 C397 1.435 . S
C405 N407 1.384 . S
N406 C402 1.427 1_455 S
N406 C403 1.384 . S
N407 C399 1.427 . S
N407 C405 1.384 . S
H408 C414 0.930 1_554 S
H409 C418 0.930 . S
H410 C423 0.929 . S
H411 C421 0.911 1_545 S
H412 C416 0.929 . S
H413 C422 0.929 . S
C414 H408 0.930 1_556 S
C414 C415 1.367 . S
C414 C422 1.378 . S
C415 C414 1.367 . S
C415 C423 1.433 . S
C416 H412 0.929 . S
C416 C418 1.378 . S
C416 C420 1.350 . S
C417 C420 1.463 . S
C417 C422 1.350 . S
C417 N425 1.427 . S
C418 H409 0.930 . S
C418 C416 1.378 . S
C418 C419 1.367 . S
C419 C418 1.367 . S
C419 C421 1.433 . S
C420 C416 1.350 . S
C420 C417 1.463 . S
C420 N424 1.427 . S
C421 H411 0.911 1_565 S
C421 C419 1.433 . S
C421 N424 1.384 . S
C422 H413 0.929 . S
C422 C414 1.378 . S
C422 C417 1.350 . S
C423 H410 0.929 . S
C423 C415 1.433 . S
C423 N425 1.384 . S
N424 C420 1.427 . S
N424 C421 1.384 . S
N425 C417 1.427 . S
N425 C423 1.384 . S
H426 C432 0.930 1_554 S
H427 C436 0.930 . S
H428 C441 0.929 . S
H429 C439 0.929 . S
H430 C434 0.929 . S
H431 C440 0.929 . S
C432 H426 0.930 1_556 S
C432 C433 1.367 . S
C432 C440 1.378 . S
C433 C432 1.367 . S
C433 C441 1.433 . S
C434 H430 0.929 . S
C434 C436 1.378 . S
C434 C438 1.350 . S
C435 C438 1.463 . S
C435 C440 1.350 . S
C435 N443 1.427 . S
C436 H427 0.930 . S
C436 C434 1.378 . S
C436 C437 1.367 . S
C437 C436 1.367 . S
C437 C439 1.433 . S
C438 C434 1.350 . S
C438 C435 1.463 . S
C438 N442 1.427 . S
C439 H429 0.929 . S
C439 C437 1.433 . S
C439 N442 1.384 . S
C440 H431 0.929 . S
C440 C432 1.378 . S
C440 C435 1.350 . S
C441 H428 0.929 . S
C441 C433 1.433 . S
C441 N443 1.384 . S
N442 C438 1.427 . S
N442 C439 1.384 . S
N443 C435 1.427 . S
N443 C441 1.384 . S
H444 C450 0.930 . S
H445 C454 0.930 . S
H446 C459 0.929 . S
H447 C457 0.929 . S
H448 C452 0.929 . S
H449 C458 0.929 . S
C450 H444 0.930 . S
C450 C451 1.367 . S
C450 C458 1.378 . S
C451 C450 1.367 . S
C451 C459 1.433 . S
C452 H448 0.929 . S
C452 C454 1.378 . S
C452 C456 1.350 . S
C453 C456 1.463 . S
C453 C458 1.350 . S
C453 N461 1.427 . S
C454 H445 0.930 . S
C454 C452 1.378 . S
C454 C455 1.367 . S
C455 C454 1.367 . S
C455 C457 1.433 . S
C456 C452 1.350 . S
C456 C453 1.463 . S
C456 N460 1.427 . S
C457 H447 0.929 . S
C457 C455 1.433 . S
C457 N460 1.384 . S
C458 H449 0.929 . S
C458 C450 1.378 . S
C458 C453 1.350 . S
C459 H446 0.929 . S
C459 C451 1.433 . S
C459 N461 1.384 . S
N460 C456 1.427 . S
N460 C457 1.384 . S
N461 C453 1.427 . S
N461 C459 1.384 . S
H462 C468 0.930 . S
H463 C472 0.927 1_655 S
H464 C477 0.929 1_554 S
H465 C475 0.929 . S
H466 C470 0.929 1_655 S
H467 C476 0.929 . S
C468 H462 0.930 . S
C468 C469 1.369 . S
C468 C476 1.378 . S
C469 C468 1.369 . S
C469 C477 1.432 1_455 S
C470 H466 0.929 1_455 S
C470 C472 1.377 . S
C470 C474 1.350 . S
C471 C474 1.463 . S
C471 C476 1.350 . S
C471 N479 1.427 1_455 S
C472 H463 0.927 1_455 S
C472 C470 1.377 . S
C472 C473 1.373 . S
C473 C472 1.373 . S
C473 C475 1.433 . S
C474 C470 1.350 . S
C474 C471 1.463 . S
C474 N478 1.427 . S
C475 H465 0.929 . S
C475 C473 1.433 . S
C475 N478 1.384 . S
C476 H467 0.929 . S
C476 C468 1.378 . S
C476 C471 1.350 . S
C477 H464 0.929 1_556 S
C477 C469 1.432 1_655 S
C477 N479 1.384 . S
N478 C474 1.427 . S
N478 C475 1.384 . S
N479 C471 1.427 1_655 S
N479 C477 1.384 . S
H480 C486 0.930 . S
H481 C490 0.930 . S
H482 C495 0.929 . S
H483 C493 0.929 . S
H484 C488 0.929 . S
H485 C494 0.936 . S
C486 H480 0.930 . S
C486 C487 1.370 . S
C486 C494 1.383 . S
C487 C486 1.370 . S
C487 C495 1.427 1_455 S
C488 H484 0.929 . S
C488 C490 1.378 . S
C488 C492 1.350 . S
C489 C492 1.463 . S
C489 C494 1.339 1_655 S
C489 N497 1.427 . S
C490 H481 0.930 . S
C490 C488 1.378 . S
C490 C491 1.367 . S
C491 C490 1.367 . S
C491 C493 1.433 . S
C492 C488 1.350 . S
C492 C489 1.463 . S
C492 N496 1.427 . S
C493 H483 0.929 . S
C493 C491 1.433 . S
C493 N496 1.384 . S
C494 H485 0.936 . S
C494 C486 1.383 . S
C494 C489 1.339 1_455 S
C495 H482 0.929 . S
C495 C487 1.427 1_655 S
C495 N497 1.384 . S
N496 C492 1.427 . S
N496 C493 1.384 . S
N497 C489 1.427 . S
N497 C495 1.384 . S
H498 C504 0.930 . S
H499 C508 0.930 1_565 S
H500 C513 0.929 . S
H501 C511 0.929 . S
H502 C506 0.929 . S
H503 C512 0.929 . S
C504 H498 0.930 . S
C504 C505 1.367 . S
C504 C512 1.378 . S
C505 C504 1.367 . S
C505 C513 1.433 . S
C506 H502 0.929 . S
C506 C508 1.378 . S
C506 C510 1.350 . S
C507 C510 1.463 . S
C507 C512 1.350 . S
C507 N515 1.427 . S
C508 H499 0.930 1_545 S
C508 C506 1.378 . S
C508 C509 1.367 . S
C509 C508 1.367 . S
C509 C511 1.433 . S
C510 C506 1.350 . S
C510 C507 1.463 . S
C510 N514 1.427 . S
C511 H501 0.929 . S
C511 C509 1.433 . S
C511 N514 1.384 . S
C512 H503 0.929 . S
C512 C504 1.378 . S
C512 C507 1.350 . S
C513 H500 0.929 . S
C513 C505 1.433 . S
C513 N515 1.384 . S
N514 C510 1.427 . S
N514 C511 1.384 . S
N515 C507 1.427 . S
N515 C513 1.384 . S
H516 C522 0.930 . S
H517 C526 0.930 . S
H518 C531 0.929 . S
H519 C529 0.929 . S
H520 C524 0.929 . S
H521 C530 0.929 . S
C522 H516 0.930 . S
C522 C523 1.367 . S
C522 C530 1.378 . S
C523 C522 1.367 . S
C523 C531 1.433 . S
C524 H520 0.929 . S
C524 C526 1.378 . S
C524 C528 1.350 . S
C525 C528 1.463 . S
C525 C530 1.350 . S
C525 N533 1.427 . S
C526 H517 0.930 . S
C526 C524 1.378 . S
C526 C527 1.367 . S
C527 C526 1.367 . S
C527 C529 1.433 . S
C528 C524 1.350 . S
C528 C525 1.463 . S
C528 N532 1.427 . S
C529 H519 0.929 . S
C529 C527 1.433 . S
C529 N532 1.384 . S
C530 H521 0.929 . S
C530 C522 1.378 . S
C530 C525 1.350 . S
C531 H518 0.929 . S
C531 C523 1.433 . S
C531 N533 1.384 . S
N532 C528 1.427 . S
N532 C529 1.384 . S
N533 C525 1.427 . S
N533 C531 1.384 . S
H534 C540 0.930 . S
H535 C544 0.930 . S
H536 C549 0.929 . S
H537 C547 0.929 . S
H538 C542 0.929 . S
H539 C548 0.929 . S
C540 H534 0.930 . S
C540 C541 1.367 . S
C540 C548 1.378 . S
C541 C540 1.367 . S
C541 C549 1.433 . S
C542 H538 0.929 . S
C542 C544 1.378 . S
C542 C546 1.350 . S
C543 C546 1.463 . S
C543 C548 1.350 . S
C543 N551 1.427 . S
C544 H535 0.930 . S
C544 C542 1.378 . S
C544 C545 1.367 . S
C545 C544 1.367 . S
C545 C547 1.433 . S
C546 C542 1.350 . S
C546 C543 1.463 . S
C546 N550 1.427 . S
C547 H537 0.929 . S
C547 C545 1.433 . S
C547 N550 1.384 . S
C548 H539 0.929 . S
C548 C540 1.378 . S
C548 C543 1.350 . S
C549 H536 0.929 . S
C549 C541 1.433 . S
C549 N551 1.384 . S
N550 C546 1.427 . S
N550 C547 1.384 . S
N551 C543 1.427 . S
N551 C549 1.384 . S
H552 C558 0.930 . S
H553 C562 0.930 . S
H554 C567 0.929 . S
H555 C565 0.929 . S
H556 C560 0.929 . S
H557 C566 0.927 1_655 S
C558 H552 0.930 . S
C558 C559 1.369 . S
C558 C566 1.376 1_655 S
C559 C558 1.369 . S
C559 C567 1.429 1_655 S
C560 H556 0.929 . S
C560 C562 1.378 . S
C560 C564 1.350 . S
C561 C564 1.463 . S
C561 C566 1.354 . S
C561 N569 1.427 . S
C562 H553 0.930 . S
C562 C560 1.378 . S
C562 C563 1.367 . S
C563 C562 1.367 . S
C563 C565 1.433 . S
C564 C560 1.350 . S
C564 C561 1.463 . S
C564 N568 1.427 . S
C565 H555 0.929 . S
C565 C563 1.433 . S
C565 N568 1.384 . S
C566 H557 0.927 1_455 S
C566 C558 1.376 1_455 S
C566 C561 1.354 . S
C567 H554 0.929 . S
C567 C559 1.429 1_455 S
C567 N569 1.384 . S
N568 C564 1.427 . S
N568 C565 1.384 . S
N569 C561 1.427 . S
N569 C567 1.384 . S
H570 C576 0.930 . S
H571 C580 0.930 . S
H572 C585 0.929 . S
H573 C583 0.929 . S
H574 C578 0.929 1_545 S
H575 C584 0.929 . S
C576 H570 0.930 . S
C576 C577 1.367 . S
C576 C584 1.378 . S
C577 C576 1.367 . S
C577 C585 1.433 . S
C578 H574 0.929 1_565 S
C578 C580 1.378 1_565 S
C578 C582 1.350 . S
C579 C582 1.463 . S
C579 C584 1.350 . S
C579 N587 1.427 . S
C580 H571 0.930 . S
C580 C578 1.378 1_545 S
C580 C581 1.367 1_545 S
C581 C580 1.367 1_565 S
C581 C583 1.433 . S
C582 C578 1.350 . S
C582 C579 1.463 . S
C582 N586 1.427 . S
C583 H573 0.929 . S
C583 C581 1.433 . S
C583 N586 1.384 . S
C584 H575 0.929 . S
C584 C576 1.378 . S
C584 C579 1.350 . S
C585 H572 0.929 . S
C585 C577 1.433 . S
C585 N587 1.384 . S
N586 C582 1.427 . S
N586 C583 1.384 . S
N587 C579 1.427 . S
N587 C585 1.384 . S
H588 C594 0.930 . S
H589 C598 0.930 . S
H590 C603 0.929 . S
H591 C601 0.929 . S
H592 C596 0.929 . S
H593 C602 0.929 . S
C594 H588 0.930 . S
C594 C595 1.367 . S
C594 C602 1.378 . S
C595 C594 1.367 . S
C595 C603 1.433 . S
C596 H592 0.929 . S
C596 C598 1.378 . S
C596 C600 1.350 . S
C597 C600 1.463 . S
C597 C602 1.350 . S
C597 N605 1.427 . S
C598 H589 0.930 . S
C598 C596 1.378 . S
C598 C599 1.367 . S
C599 C598 1.367 . S
C599 C601 1.433 . S
C600 C596 1.350 . S
C600 C597 1.463 . S
C600 N604 1.427 . S
C601 H591 0.929 . S
C601 C599 1.433 . S
C601 N604 1.384 . S
C602 H593 0.929 . S
C602 C594 1.378 . S
C602 C597 1.350 . S
C603 H590 0.929 . S
C603 C595 1.433 . S
C603 N605 1.384 . S
N604 C600 1.427 . S
N604 C601 1.384 . S
N605 C597 1.427 . S
N605 C603 1.384 . S
H606 C612 0.930 . S
H607 C616 0.930 . S
H608 C621 0.929 . S
H609 C619 0.929 . S
H610 C614 0.929 . S
H611 C620 0.929 . S
C612 H606 0.930 . S
C612 C613 1.367 . S
C612 C620 1.378 . S
C613 C612 1.367 . S
C613 C621 1.433 . S
C614 H610 0.929 . S
C614 C616 1.378 . S
C614 C618 1.350 . S
C615 C618 1.463 . S
C615 C620 1.350 . S
C615 N623 1.427 . S
C616 H607 0.930 . S
C616 C614 1.378 . S
C616 C617 1.367 . S
C617 C616 1.367 . S
C617 C619 1.433 . S
C618 C614 1.350 . S
C618 C615 1.463 . S
C618 N622 1.427 . S
C619 H609 0.929 . S
C619 C617 1.433 . S
C619 N622 1.384 . S
C620 H611 0.929 . S
C620 C612 1.378 . S
C620 C615 1.350 . S
C621 H608 0.929 . S
C621 C613 1.433 . S
C621 N623 1.384 . S
N622 C618 1.427 . S
N622 C619 1.384 . S
N623 C615 1.427 . S
N623 C621 1.384 . S
H624 C630 0.930 . S
H625 C634 0.930 . S
H626 C639 0.929 . S
H627 C637 0.929 . S
H628 C632 0.929 . S
H629 C638 0.929 . S
C630 H624 0.930 . S
C630 C631 1.367 1_655 S
C630 C638 1.378 . S
C631 C630 1.367 1_455 S
C631 C639 1.433 . S
C632 H628 0.929 . S
C632 C634 1.378 . S
C632 C636 1.350 . S
C633 C636 1.463 . S
C633 C638 1.350 1_455 S
C633 N641 1.427 . S
C634 H625 0.930 . S
C634 C632 1.378 . S
C634 C635 1.367 . S
C635 C634 1.367 . S
C635 C637 1.433 1_455 S
C636 C632 1.350 . S
C636 C633 1.463 . S
C636 N640 1.427 1_455 S
C637 H627 0.929 . S
C637 C635 1.433 1_655 S
C637 N640 1.384 . S
C638 H629 0.929 . S
C638 C630 1.378 . S
C638 C633 1.350 1_655 S
C639 H626 0.929 . S
C639 C631 1.433 . S
C639 N641 1.384 . S
N640 C636 1.427 1_655 S
N640 C637 1.384 . S
N641 C633 1.427 . S
N641 C639 1.384 . S
H642 C648 0.930 . S
H643 C652 0.930 . S
H644 C657 0.929 . S
H645 C655 0.929 . S
H646 C650 0.929 . S
H647 C656 0.929 . S
C648 H642 0.930 . S
C648 C649 1.367 . S
C648 C656 1.378 . S
C649 C648 1.367 . S
C649 C657 1.433 . S
C650 H646 0.929 . S
C650 C652 1.378 . S
C650 C654 1.350 . S
C651 C654 1.463 . S
C651 C656 1.350 . S
C651 N659 1.427 . S
C652 H643 0.930 . S
C652 C650 1.378 . S
C652 C653 1.367 . S
C653 C652 1.367 . S
C653 C655 1.433 . S
C654 C650 1.350 . S
C654 C651 1.463 . S
C654 N658 1.427 . S
C655 H645 0.929 . S
C655 C653 1.433 . S
C655 N658 1.384 . S
C656 H647 0.929 . S
C656 C648 1.378 . S
C656 C651 1.350 . S
C657 H644 0.929 . S
C657 C649 1.433 . S
C657 N659 1.384 . S
N658 C654 1.427 . S
N658 C655 1.384 . S
N659 C651 1.427 . S
N659 C657 1.384 . S
H660 C666 0.930 . S
H661 C670 0.930 . S
H662 C675 0.929 . S
H663 C673 0.929 . S
H664 C668 0.929 . S
H665 C674 0.929 . S
C666 H660 0.930 . S
C666 C667 1.367 . S
C666 C674 1.378 . S
C667 C666 1.367 . S
C667 C675 1.433 . S
C668 H664 0.929 . S
C668 C670 1.378 . S
C668 C672 1.350 . S
C669 C672 1.463 . S
C669 C674 1.350 . S
C669 N677 1.427 . S
C670 H661 0.930 . S
C670 C668 1.378 . S
C670 C671 1.367 . S
C671 C670 1.367 . S
C671 C673 1.433 . S
C672 C668 1.350 . S
C672 C669 1.463 . S
C672 N676 1.427 . S
C673 H663 0.929 . S
C673 C671 1.433 . S
C673 N676 1.384 . S
C674 H665 0.929 . S
C674 C666 1.378 . S
C674 C669 1.350 . S
C675 H662 0.929 . S
C675 C667 1.433 . S
C675 N677 1.384 . S
N676 C672 1.427 . S
N676 C673 1.384 . S
N677 C669 1.427 . S
N677 C675 1.384 . S
H678 C684 0.930 . S
H679 C688 0.930 . S
H680 C693 0.929 . S
H681 C691 0.929 . S
H682 C686 0.929 . S
H683 C692 0.929 . S
C684 H678 0.930 . S
C684 C685 1.367 . S
C684 C692 1.378 . S
C685 C684 1.367 . S
C685 C693 1.433 . S
C686 H682 0.929 . S
C686 C688 1.378 . S
C686 C690 1.350 . S
C687 C690 1.463 . S
C687 C692 1.350 . S
C687 N695 1.427 . S
C688 H679 0.930 . S
C688 C686 1.378 . S
C688 C689 1.367 . S
C689 C688 1.367 . S
C689 C691 1.433 . S
C690 C686 1.350 . S
C690 C687 1.463 . S
C690 N694 1.427 . S
C691 H681 0.929 . S
C691 C689 1.433 . S
C691 N694 1.384 . S
C692 H683 0.929 . S
C692 C684 1.378 . S
C692 C687 1.350 . S
C693 H680 0.929 . S
C693 C685 1.433 . S
C693 N695 1.384 . S
N694 C690 1.427 . S
N694 C691 1.384 . S
N695 C687 1.427 . S
N695 C693 1.384 . S
H696 C702 0.930 . S
H697 C706 0.930 . S
H698 C711 0.929 . S
H699 C709 0.929 . S
H700 C704 0.929 . S
H701 C710 0.929 . S
C702 H696 0.930 . S
C702 C703 1.341 1_455 S
C702 C710 1.378 . S
C703 C702 1.341 1_655 S
C703 C711 1.462 . S
C704 H700 0.929 . S
C704 C706 1.378 . S
C704 C708 1.350 . S
C705 C708 1.463 . S
C705 C710 1.350 1_655 S
C705 N713 1.427 . S
C706 H697 0.930 . S
C706 C704 1.378 . S
C706 C707 1.367 . S
C707 C706 1.367 . S
C707 C709 1.433 1_655 S
C708 C704 1.350 . S
C708 C705 1.463 . S
C708 N712 1.427 1_655 S
C709 H699 0.929 . S
C709 C707 1.433 1_455 S
C709 N712 1.384 . S
C710 H701 0.929 . S
C710 C702 1.378 . S
C710 C705 1.350 1_455 S
C711 H698 0.929 . S
C711 C703 1.462 . S
C711 N713 1.384 . S
N712 C708 1.427 1_455 S
N712 C709 1.384 . S
N713 C705 1.427 . S
N713 C711 1.384 . S
H714 C720 0.930 . S
H715 C724 0.930 . S
H716 C729 0.929 . S
H717 C727 0.929 1_545 S
H718 C722 0.929 . S
H719 C728 0.929 . S
C720 H714 0.930 . S
C720 C721 1.367 . S
C720 C728 1.378 . S
C721 C720 1.367 . S
C721 C729 1.433 . S
C722 H718 0.929 . S
C722 C724 1.378 . S
C722 C726 1.350 . S
C723 C726 1.463 . S
C723 C728 1.350 . S
C723 N731 1.427 . S
C724 H715 0.930 . S
C724 C722 1.378 . S
C724 C725 1.367 . S
C725 C724 1.367 . S
C725 C727 1.433 . S
C726 C722 1.350 . S
C726 C723 1.463 . S
C726 N730 1.427 . S
C727 H717 0.929 1_565 S
C727 C725 1.433 . S
C727 N730 1.384 . S
C728 H719 0.929 . S
C728 C720 1.378 . S
C728 C723 1.350 . S
C729 H716 0.929 . S
C729 C721 1.433 . S
C729 N731 1.384 . S
N730 C726 1.427 . S
N730 C727 1.384 . S
N731 C723 1.427 . S
N731 C729 1.384 . S
H732 C738 0.930 . S
H733 C742 0.930 . S
H734 C747 0.929 . S
H735 C745 0.929 . S
H736 C740 0.929 . S
H737 C746 0.929 . S
C738 H732 0.930 . S
C738 C739 1.367 . S
C738 C746 1.378 . S
C739 C738 1.367 . S
C739 C747 1.433 . S
C740 H736 0.929 . S
C740 C742 1.378 . S
C740 C744 1.350 . S
C741 C744 1.463 . S
C741 C746 1.350 . S
C741 N749 1.427 . S
C742 H733 0.930 . S
C742 C740 1.378 . S
C742 C743 1.367 . S
C743 C742 1.367 . S
C743 C745 1.433 . S
C744 C740 1.350 . S
C744 C741 1.463 . S
C744 N748 1.427 . S
C745 H735 0.929 . S
C745 C743 1.433 . S
C745 N748 1.384 . S
C746 H737 0.929 . S
C746 C738 1.378 . S
C746 C741 1.350 . S
C747 H734 0.929 . S
C747 C739 1.433 . S
C747 N749 1.384 . S
N748 C744 1.427 . S
N748 C745 1.384 . S
N749 C741 1.427 . S
N749 C747 1.384 . S
H750 C756 0.930 . S
H751 C760 0.930 . S
H752 C765 0.929 . S
H753 C763 0.929 . S
H754 C758 0.929 . S
H755 C764 0.929 . S
C756 H750 0.930 . S
C756 C757 1.367 . S
C756 C764 1.378 . S
C757 C756 1.367 . S
C757 C765 1.433 . S
C758 H754 0.929 . S
C758 C760 1.378 . S
C758 C762 1.350 . S
C759 C762 1.463 . S
C759 C764 1.350 . S
C759 N767 1.427 . S
C760 H751 0.930 . S
C760 C758 1.378 . S
C760 C761 1.367 . S
C761 C760 1.367 . S
C761 C763 1.433 . S
C762 C758 1.350 . S
C762 C759 1.463 . S
C762 N766 1.427 . S
C763 H753 0.929 . S
C763 C761 1.433 . S
C763 N766 1.384 . S
C764 H755 0.929 . S
C764 C756 1.378 . S
C764 C759 1.350 . S
C765 H752 0.929 . S
C765 C757 1.433 . S
C765 N767 1.384 . S
N766 C762 1.427 . S
N766 C763 1.384 . S
N767 C759 1.427 . S
N767 C765 1.384 . S
C343 C215 1.749 . S
C347 C274 1.722 . S
C365 C294 1.484 . S
C361 C247 1.469 . S
C383 C314 1.695 . S
C379 C151 1.715 . S
C401 C334 1.459 . S
C397 C183 1.467 1_655 S
C419 C275 1.732 1_565 S
C415 C87 1.626 . S
C433 C119 1.513 . S
C437 C295 1.480 . S
C451 C23 1.602 . S
C455 C315 1.699 . S
C469 C55 1.462 . S
C473 C335 1.460 . S
C491 C265 0.660 . S
C487 C189 0.644 . S
C509 C285 0.811 . S
C505 C221 0.815 . S
C527 C305 0.698 . S
C523 C253 0.709 . S
C541 C157 0.775 . S
C545 C325 0.765 . S
C559 C61 0.644 1_655 S
C563 C268 0.654 . S
C581 C288 0.803 . S
C577 C93 0.802 . S
C599 C308 0.714 . S
C595 C125 0.700 . S
C613 C29 0.768 . S
C617 C328 0.778 . S
C631 C177 1.811 . S
C635 C258 1.774 . S
C649 C209 1.913 . S
C653 C278 1.836 . S
C671 C298 1.718 . S
C667 C241 1.735 . S
C689 C318 1.910 . S
C685 C145 1.987 . S
C703 C49 1.829 1_655 S
C707 C260 1.790 . S
C725 C280 1.829 . S
C721 C81 1.815 . S
C743 C300 1.723 . S
C739 C113 1.806 . S
C757 C17 1.888 . S
C761 C320 1.897 . S
