# Generated by pormake.
# Topology zzz, (3,6)-cn, num edge types: 1
# Building blocks:
#     Node 0, Type 0, BuildingBlock: ESEHIV_clean_linker_0, # of connection points: 3
#     Node 1, Type 0, BuildingBlock: ESEHIV_clean_linker_0, # of connection points: 3
#     Node 2, Type 0, BuildingBlock: ESEHIV_clean_linker_0, # of connection points: 3
#     Node 3, Type 0, BuildingBlock: ESEHIV_clean_linker_0, # of connection points: 3
#     Node 4, Type 0, BuildingBlock: ESEHIV_clean_linker_0, # of connection points: 3
#     Node 5, Type 0, BuildingBlock: ESEHIV_clean_linker_0, # of connection points: 3
#     Node 6, Type 0, BuildingBlock: ESEHIV_clean_linker_0, # of connection points: 3
#     Node 7, Type 0, BuildingBlock: ESEHIV_clean_linker_0, # of connection points: 3
#     Node 8, Type 1, BuildingBlock: BETGAK_clean_sbu_0, # of connection points: 6
#     Node 9, Type 1, BuildingBlock: BETGAK_clean_sbu_0, # of connection points: 6
#     Node 10, Type 1, BuildingBlock: BETGAK_clean_sbu_0, # of connection points: 6
#     Node 11, Type 1, BuildingBlock: BETGAK_clean_sbu_0, # of connection points: 6
#     Edge 12, Type (0, 1), BuildingBlock: XIVTED_clean_linker_0, # of connection points: 2
#     Edge 13, Type (0, 1), BuildingBlock: XIVTED_clean_linker_0, # of connection points: 2
#     Edge 14, Type (0, 1), BuildingBlock: XIVTED_clean_linker_0, # of connection points: 2
#     Edge 15, Type (0, 1), BuildingBlock: XIVTED_clean_linker_0, # of connection points: 2
#     Edge 16, Type (0, 1), BuildingBlock: XIVTED_clean_linker_0, # of connection points: 2
#     Edge 17, Type (0, 1), BuildingBlock: XIVTED_clean_linker_0, # of connection points: 2
#     Edge 18, Type (0, 1), BuildingBlock: XIVTED_clean_linker_0, # of connection points: 2
#     Edge 19, Type (0, 1), BuildingBlock: XIVTED_clean_linker_0, # of connection points: 2
#     Edge 20, Type (0, 1), BuildingBlock: XIVTED_clean_linker_0, # of connection points: 2
#     Edge 21, Type (0, 1), BuildingBlock: XIVTED_clean_linker_0, # of connection points: 2
#     Edge 22, Type (0, 1), BuildingBlock: XIVTED_clean_linker_0, # of connection points: 2
#     Edge 23, Type (0, 1), BuildingBlock: XIVTED_clean_linker_0, # of connection points: 2
#     Edge 24, Type (0, 1), BuildingBlock: XIVTED_clean_linker_0, # of connection points: 2
#     Edge 25, Type (0, 1), BuildingBlock: XIVTED_clean_linker_0, # of connection points: 2
#     Edge 26, Type (0, 1), BuildingBlock: XIVTED_clean_linker_0, # of connection points: 2
#     Edge 27, Type (0, 1), BuildingBlock: XIVTED_clean_linker_0, # of connection points: 2
#     Edge 28, Type (0, 1), BuildingBlock: XIVTED_clean_linker_0, # of connection points: 2
#     Edge 29, Type (0, 1), BuildingBlock: XIVTED_clean_linker_0, # of connection points: 2
#     Edge 30, Type (0, 1), BuildingBlock: XIVTED_clean_linker_0, # of connection points: 2
#     Edge 31, Type (0, 1), BuildingBlock: XIVTED_clean_linker_0, # of connection points: 2
#     Edge 32, Type (0, 1), BuildingBlock: XIVTED_clean_linker_0, # of connection points: 2
#     Edge 33, Type (0, 1), BuildingBlock: XIVTED_clean_linker_0, # of connection points: 2
#     Edge 34, Type (0, 1), BuildingBlock: XIVTED_clean_linker_0, # of connection points: 2
#     Edge 35, Type (0, 1), BuildingBlock: XIVTED_clean_linker_0, # of connection points: 2
# Relax obj value: 0.513
# Max RMSD: 0.261
# Mean RMSD: 0.254
data_MOF--net-zzz--node1-BETGAK_clean_sbu_0--node2-ESEHIV_clean_linker_0--edge1-XIVTED_clean_linker_0
_symmetry_space_group_name_H-M    P1
_symmetry_Int_Tables_number       1
_symmetry_cell_setting            triclinic
loop_
_symmetry_equiv_pos_as_xyz
'x, y, z'
_cell_length_a     45.987099
_cell_length_b     46.081056
_cell_length_c     14.424317
_cell_angle_alpha  90.052214
_cell_angle_beta   90.133482
_cell_angle_gamma 89.954381
loop_
_atom_site_label
_atom_site_type_symbol
_atom_site_fract_x
_atom_site_fract_y
_atom_site_fract_z
_atom_type_partial_charge
H0 H 0.78926 0.44661 0.3747 0.0
H1 H 0.71126 0.44171 0.21215 0.0
H2 H 0.73097 0.5195 0.3675 0.0
C3 C 0.76862 0.45586 0.35325 0.0
C4 C 0.76181 0.48406 0.38218 0.0
C5 C 0.75094 0.44067 0.29062 0.0
C6 C 0.72487 0.45339 0.26099 0.0
C7 C 0.71708 0.48169 0.28827 0.0
C8 C 0.73615 0.49742 0.34773 0.0
H9 H 0.06998 0.78744 0.39697 0.0
H10 H 0.07343 0.71191 0.22308 0.0
H11 H 0.99526 0.73183 0.37567 0.0
C12 C 0.06025 0.76744 0.37214 0.0
C13 C 0.03163 0.76113 0.39805 0.0
C14 C 0.07523 0.75035 0.30752 0.0
C15 C 0.06198 0.72512 0.27348 0.0
C16 C 0.03331 0.71789 0.29796 0.0
C17 C 0.01773 0.73647 0.35898 0.0
H18 H 0.73378 0.07816 0.37648 0.0
H19 H 0.81278 0.07855 0.21936 0.0
H20 H 0.79483 1.00792 0.40731 0.0
C21 C 0.7548 0.06866 0.36087 0.0
C22 C 0.76242 0.04231 0.40288 0.0
C23 C 0.77247 0.08152 0.2935 0.0
C24 C 0.79912 0.0686 0.27163 0.0
C25 C 0.80774 0.04225 0.31236 0.0
C26 C 0.78889 0.0286 0.37706 0.0
H27 H 0.4491 0.7329 0.34834 0.0
H28 H 0.52002 0.79277 0.38365 0.0
H29 H 0.44898 0.81327 0.19866 0.0
C30 C 0.45867 0.75398 0.33472 0.0
C31 C 0.44585 0.77232 0.26878 0.0
C32 C 0.48514 0.76098 0.37748 0.0
C33 C 0.49911 0.78742 0.35353 0.0
C34 C 0.48548 0.80698 0.2907 0.0
C35 C 0.45887 0.79908 0.24978 0.0
H36 H 0.23863 0.57923 0.10041 0.0
H37 H 0.31594 0.58439 0.26639 0.0
H38 H 0.29491 0.50508 0.12076 0.0
C39 C 0.259 0.56981 0.1238 0.0
C40 C 0.26505 0.54103 0.09986 0.0
C41 C 0.27675 0.58537 0.18524 0.0
C42 C 0.30239 0.57249 0.2179 0.0
C43 C 0.30965 0.54371 0.19419 0.0
C44 C 0.29032 0.52759 0.13672 0.0
H45 H 0.95659 0.22826 0.15883 0.0
H46 H 0.94938 0.30818 0.30982 0.0
H47 H 0.02637 0.29019 0.14844 0.0
C48 C 0.96509 0.24951 0.17653 0.0
C49 C 0.99259 0.25729 0.14358 0.0
C50 C 0.94952 0.26747 0.23716 0.0
C51 C 0.96123 0.29444 0.26189 0.0
C52 C 0.98882 0.30314 0.23037 0.0
C53 C 1.00479 0.2842 0.17146 0.0
H54 H 0.28952 0.94702 0.14507 0.0
H55 H 0.21068 0.94058 0.30178 0.0
H56 H 0.22805 0.01738 0.13952 0.0
C57 C 0.26842 0.95568 0.16416 0.0
C58 C 0.26058 0.9832 0.13149 0.0
C59 C 0.25095 0.94041 0.2268 0.0
C60 C 0.22422 0.95236 0.25323 0.0
C61 C 0.21541 0.97996 0.22223 0.0
C62 C 0.23412 0.99583 0.16237 0.0
H63 H 0.57752 0.2875 0.13297 0.0
H64 H 0.50389 0.23008 0.13082 0.0
H65 H 0.57972 0.2096 0.29544 0.0
C66 C 0.56781 0.26699 0.15296 0.0
C67 C 0.58203 0.24927 0.21773 0.0
C68 C 0.53988 0.26042 0.12026 0.0
C69 C 0.52586 0.23498 0.15298 0.0
C70 C 0.54073 0.21584 0.21425 0.0
C71 C 0.56879 0.22331 0.24515 0.0
La72 La 0.03216 0.9996 0.83958 0.0
La73 La 0.99129 0.01875 0.70329 0.0
C74 C 0.06396 0.98925 0.97855 0.0
C75 C 0.0853 0.96673 1.00295 0.0
C76 C 0.10222 0.95312 0.93463 0.0
C77 C 0.12004 0.92961 0.95763 0.0
C78 C 0.12091 0.91901 0.04908 0.0
C79 C 0.10508 0.93384 0.11801 0.0
C80 C 0.08752 0.95751 0.09508 0.0
C81 C 0.0547 1.00063 0.67042 0.0
C82 C 1.0058 0.951 0.71839 0.0
C83 C 0.95891 0.02912 0.56582 0.0
C84 C 0.93739 0.05166 0.54351 0.0
C85 C 0.92061 0.06475 0.61324 0.0
C86 C 0.90286 0.08852 0.59257 0.0
C87 C 0.90192 0.09989 0.5021 0.0
C88 C 0.91751 0.08551 0.43161 0.0
C89 C 0.935 0.0616 0.45221 0.0
C90 C 0.96903 0.01785 0.873 0.0
C91 C 0.01797 0.06746 0.82273 0.0
O92 O 0.07122 1.00675 0.91128 0.0
O93 O 0.03697 0.98057 0.97124 0.0
O94 O 0.06005 0.9812 0.7325 0.0
O95 O 0.038 0.01968 0.70465 0.0
O96 O 0.01745 0.95624 0.8005 0.0
O97 O 0.99762 0.9728 0.66472 0.0
O98 O 0.95205 1.01138 0.63286 0.0
O99 O 0.98589 0.0379 0.57207 0.0
O100 O 0.96378 0.03735 0.81113 0.0
O101 O 0.98546 0.99868 0.83821 0.0
O102 O 1.00642 0.06205 0.74065 0.0
O103 O 0.026 0.04573 0.87705 0.0
H104 H 0.10096 0.96002 0.86298 0.0
H105 H 0.13223 0.91903 0.90304 0.0
H106 H 0.10476 0.92618 0.18893 0.0
H107 H 0.07468 0.96782 0.14875 0.0
H108 H 0.92199 0.0573 0.68429 0.0
H109 H 0.89084 0.09871 0.64826 0.0
H110 H 0.91777 0.09375 0.36136 0.0
H111 H 0.94772 0.05169 0.39748 0.0
La112 La 0.51638 0.036 0.82918 0.0
La113 La 0.50507 0.99186 0.6991 0.0
C114 C 0.53519 0.06864 0.95649 0.0
C115 C 0.55907 0.0894 0.9665 0.0
C116 C 0.57455 0.0992 0.88894 0.0
C117 C 0.59908 0.11674 0.90062 0.0
C118 C 0.60871 0.12437 0.99015 0.0
C119 C 0.59199 0.11568 0.06708 0.0
C120 C 0.56738 0.09841 0.05519 0.0
C121 C 0.49989 0.05738 0.66505 0.0
C122 C 0.56889 0.01351 0.70207 0.0
C123 C 0.48636 0.95863 0.57297 0.0
C124 C 0.46122 0.93932 0.56028 0.0
C125 C 0.46491 0.91223 0.5174 0.0
C126 C 0.44096 0.89416 0.50165 0.0
C127 C 0.41293 0.90296 0.52866 0.0
C128 C 0.40963 0.92972 0.57466 0.0
C129 C 0.4335 0.94768 0.59024 0.0
C130 C 0.52246 0.9708 0.86254 0.0
C131 C 0.45273 0.01424 0.82726 0.0
O132 O 0.51468 0.07597 0.89849 0.0
O133 O 0.54283 0.04146 0.94687 0.0
O134 O 0.49154 0.0668 0.74491 0.0
O135 O 0.51703 0.03641 0.67894 0.0
O136 O 0.56135 0.02638 0.78075 0.0
O137 O 0.54865 1.00164 0.6495 0.0
O138 O 0.50496 0.95068 0.63635 0.0
O139 O 0.48109 0.98654 0.57624 0.0
O140 O 0.53106 0.96182 0.78241 0.0
O141 O 0.50471 0.99133 0.84931 0.0
O142 O 0.46015 1.00197 0.74745 0.0
O143 O 0.47313 0.02559 0.88027 0.0
H144 H 0.56821 0.09253 0.81972 0.0
H145 H 0.61114 0.12332 0.83979 0.0
H146 H 0.59885 0.12055 0.13722 0.0
H147 H 0.55554 0.09108 0.11569 0.0
H148 H 0.48625 0.90529 0.49451 0.0
H149 H 0.44425 0.87363 0.46657 0.0
H150 H 0.38835 0.93761 0.59457 0.0
H151 H 0.43013 0.96848 0.62319 0.0
La152 La 0.49001 0.51579 0.80965 0.0
La153 La 0.53412 0.50399 0.68089 0.0
C154 C 0.45709 0.5353 0.93488 0.0
C155 C 0.43671 0.55958 0.94232 0.0
C156 C 0.42894 0.57587 0.86395 0.0
C157 C 0.41186 0.60079 0.87357 0.0
C158 C 0.40259 0.60993 0.96188 0.0
C159 C 0.4092 0.59245 0.03929 0.0
C160 C 0.42607 0.56749 0.02943 0.0
C161 C 0.46849 0.49919 0.64572 0.0
C162 C 0.51276 0.5678 0.68189 0.0
C163 C 0.56779 0.48475 0.55684 0.0
C164 C 0.58797 0.46017 0.54741 0.0
C165 C 0.61286 0.46294 0.49215 0.0
C166 C 0.63109 0.43906 0.47753 0.0
C167 C 0.62452 0.41198 0.51722 0.0
C168 C 0.60046 0.40989 0.577 0.0
C169 C 0.58247 0.43379 0.59212 0.0
C170 C 0.55533 0.52109 0.84469 0.0
C171 C 0.51104 0.45217 0.80994 0.0
O172 O 0.44968 0.51481 0.87708 0.0
O173 O 0.4845 0.54236 0.92673 0.0
O174 O 0.45926 0.49082 0.72571 0.0
O175 O 0.48956 0.51625 0.65923 0.0
O176 O 0.50021 0.56045 0.76112 0.0
O177 O 0.52429 0.5474 0.62931 0.0
O178 O 0.57522 0.50438 0.61745 0.0
O179 O 0.54007 0.47853 0.56155 0.0
O180 O 0.56446 0.52956 0.76471 0.0
O181 O 0.5346 0.50366 0.83105 0.0
O182 O 0.52324 0.45931 0.72981 0.0
O183 O 0.5001 0.47278 0.86264 0.0
H184 H 0.43688 0.56984 0.79591 0.0
H185 H 0.40694 0.61351 0.81243 0.0
H186 H 0.40302 0.59898 0.10862 0.0
H187 H 0.43183 0.55503 0.0905 0.0
H188 H 0.61777 0.48335 0.45836 0.0
H189 H 0.64976 0.44146 0.4328 0.0
H190 H 0.59443 0.38935 0.60789 0.0
H191 H 0.56365 0.43135 0.63599 0.0
La192 La 1.00584 0.49303 0.82153 0.0
La193 La 0.02103 0.53366 0.66418 0.0
C194 C 0.98534 0.46622 0.95874 0.0
C195 C 0.96071 0.44639 0.97364 0.0
C196 C 0.96517 0.42008 0.02058 0.0
C197 C 0.94192 0.40118 0.03635 0.0
C198 C 0.91378 0.40832 1.00551 0.0
C199 C 0.90966 0.43438 0.95621 0.0
C200 C 0.93286 0.45316 0.94039 0.0
C201 C 0.02359 0.46724 0.66595 0.0
C202 C 0.95489 0.51473 0.68404 0.0
C203 C 0.03955 0.55312 0.51301 0.0
C204 C 0.06216 0.57429 0.48891 0.0
C205 C 0.06001 0.59019 0.40655 0.0
C206 C 0.0822 0.60932 0.38114 0.0
C207 C 0.10705 0.61279 0.4375 0.0
C208 C 0.10835 0.59754 0.5221 0.0
C209 C 0.08606 0.57868 0.54774 0.0
C210 C 0.01426 0.56528 0.81848 0.0
C211 C 0.06978 0.51479 0.81015 0.0
O212 O 1.00614 0.45607 0.90648 0.0
O213 O 0.9792 0.49335 0.93949 0.0
O214 O 0.03 0.45893 0.74908 0.0
O215 O 1.00725 0.48918 0.67244 0.0
O216 O 0.9622 0.49987 0.75976 0.0
O217 O 0.97468 0.52841 0.63376 0.0
O218 O 0.01682 0.56376 0.55585 0.0
O219 O 0.04878 0.52879 0.55036 0.0
O220 O 0.02006 0.57567 0.73747 0.0
O221 O 1.0121 0.53817 0.80874 0.0
O222 O 0.06404 0.5222 0.72298 0.0
O223 O 0.04867 0.50725 0.86734 0.0
H224 H 0.9866 0.41433 0.04604 0.0
H225 H 0.94586 0.38124 0.07396 0.0
H226 H 0.88823 0.44102 0.93326 0.0
H227 H 0.92882 0.47328 0.90392 0.0
H228 H 0.04145 0.58741 0.36097 0.0
H229 H 0.08014 0.62076 0.31607 0.0
H230 H 0.1272 0.59893 0.56692 0.0
H231 H 0.08792 0.56689 0.61242 0.0
H232 H 0.20512 0.02935 0.32634 0.0
H233 H 0.06553 0.95778 0.54799 0.0
H234 H 0.16196 0.95506 0.20851 0.0
H235 H 0.08532 0.0476 0.60054 0.0
H236 H 0.1006 0.95761 0.4209 0.0
H237 H 0.16172 0.03876 0.42221 0.0
C238 C 0.18617 0.01563 0.31823 0.0
C239 C 0.18721 0.99135 0.25922 0.0
C240 C 0.09707 0.97759 0.45889 0.0
C241 C 0.13789 1.00135 0.37092 0.0
C242 C 0.07695 0.97768 0.53144 0.0
C243 C 0.07226 1.0028 0.5842 0.0
C244 C 0.11357 1.00258 0.44018 0.0
C245 C 0.08798 0.02789 0.56059 0.0
C246 C 0.16149 0.02083 0.37366 0.0
C247 C 0.16217 0.97395 0.25316 0.0
N248 N 0.10833 0.02703 0.49138 0.0
N249 N 0.1389 0.97897 0.30914 0.0
H250 H 0.49056 0.211 0.3168 0.0
H251 H 0.5338 0.05254 0.50817 0.0
H252 H 0.56189 0.16039 0.21081 0.0
H253 H 0.46881 0.10715 0.63421 0.0
H254 H 0.53917 0.08836 0.38328 0.0
H255 H 0.47665 0.16985 0.41576 0.0
C256 C 0.50272 0.19092 0.31212 0.0
C257 C 0.52734 0.18914 0.25504 0.0
C258 C 0.5235 0.0924 0.43771 0.0
C259 C 0.51206 0.14205 0.37006 0.0
C260 C 0.52036 0.07185 0.50894 0.0
C261 C 0.50094 0.07686 0.58231 0.0
C262 C 0.50706 0.11822 0.43932 0.0
C263 C 0.48416 0.1024 0.57946 0.0
C264 C 0.49502 0.16751 0.36957 0.0
C265 C 0.5427 0.16269 0.25355 0.0
N266 N 0.48773 0.12211 0.50987 0.0
N267 N 0.535 0.14041 0.31056 0.0
H268 H 0.36496 0.56526 0.19009 0.0
H269 H 0.41941 0.46722 0.61458 0.0
H270 H 0.315 0.49447 0.3016 0.0
H271 H 0.4715 0.53461 0.49154 0.0
H272 H 0.38321 0.4736 0.49143 0.0
H273 H 0.40615 0.55097 0.28781 0.0
C274 C 0.3629 0.54627 0.23384 0.0
C275 C 0.33643 0.53102 0.2374 0.0
C276 C 0.40267 0.48681 0.49052 0.0
C277 C 0.38351 0.51486 0.35211 0.0
C278 C 0.42343 0.48314 0.56091 0.0
C279 C 0.44855 0.50048 0.5639 0.0
C280 C 0.40679 0.50818 0.42229 0.0
C281 C 0.45251 0.52074 0.49222 0.0
C282 C 0.3864 0.53821 0.29018 0.0
C283 C 0.335 0.5067 0.29586 0.0
N284 N 0.43177 0.52421 0.42513 0.0
N285 N 0.358 0.49964 0.35168 0.0
H286 H 0.96477 0.35721 0.21806 0.0
H287 H 0.05644 0.41827 0.64648 0.0
H288 H 0.03818 0.31205 0.33482 0.0
H289 H 0.99134 0.46877 0.50409 0.0
H290 H 0.05284 0.38108 0.5256 0.0
H291 H 0.97706 0.39996 0.31123 0.0
C292 C 0.98402 0.35662 0.26143 0.0
C293 C 1.00064 0.33105 0.2678 0.0
C294 C 0.03956 0.40041 0.5199 0.0
C295 C 0.01431 0.37978 0.37813 0.0
C296 C 0.04162 0.42172 0.58904 0.0
C297 C 0.02409 0.44669 0.58586 0.0
C298 C 0.01952 0.40376 0.4469 0.0
C299 C 1.0053 0.44992 0.50954 0.0
C300 C 0.99089 0.38098 0.3154 0.0
C301 C 0.02501 0.33137 0.32664 0.0
N302 N 1.00327 0.4286 0.4439 0.0
N303 N 0.03084 0.35511 0.38041 0.0
H304 H 0.81761 0.99211 0.21246 0.0
H305 H 0.95964 0.06048 0.99739 0.0
H306 H 0.86159 0.06571 0.33134 0.0
H307 H 0.93724 0.97148 0.9414 0.0
H308 H 0.92452 0.06122 0.12431 0.0
H309 H 0.86136 0.98152 0.11967 0.0
C310 C 0.83685 1.00535 0.22177 0.0
C311 C 0.836 0.02975 0.28026 0.0
C312 C 0.9275 0.04128 0.08567 0.0
C313 C 0.8857 0.0185 0.17166 0.0
C314 C 0.94765 0.04086 0.01322 0.0
C315 C 0.9516 0.01581 0.95949 0.0
C316 C 0.91023 0.01673 0.10325 0.0
C317 C 0.93516 0.99111 0.98213 0.0
C318 C 0.86173 0.99951 0.16799 0.0
C319 C 0.86134 0.04664 0.28752 0.0
N320 N 0.91479 0.99233 0.05121 0.0
N321 N 0.88482 0.04102 0.23299 0.0
H322 H 0.53669 0.81502 0.19632 0.0
H323 H 0.48784 0.97325 0.01861 0.0
H324 H 0.46289 0.86163 0.30357 0.0
H325 H 0.55606 0.92274 0.89246 0.0
H326 H 0.48376 0.93642 0.14107 0.0
H327 H 0.54994 0.858 0.10468 0.0
C328 C 0.52391 0.83465 0.20326 0.0
C329 C 0.4988 0.83478 0.25841 0.0
C330 C 0.49987 0.93354 0.08722 0.0
C331 C 0.51322 0.88389 0.15132 0.0
C332 C 0.50227 0.95466 0.0174 0.0
C333 C 0.52219 0.95104 0.94459 0.0
C334 C 0.51755 0.90854 0.08466 0.0
C335 C 0.54026 0.92639 0.94678 0.0
C336 C 0.5312 0.85909 0.14987 0.0
C337 C 0.48257 0.86066 0.26266 0.0
N338 N 0.53737 0.90608 0.01489 0.0
N339 N 0.48984 0.88395 0.2093 0.0
H340 H 0.70976 0.53315 0.19268 0.0
H341 H 0.55197 0.48646 1.00003 0.0
H342 H 0.66289 0.45755 0.28381 0.0
H343 H 0.6043 0.55343 0.87559 0.0
H344 H 0.58858 0.4813 0.12311 0.0
H345 H 0.66768 0.54678 0.09607 0.0
C346 C 0.69032 0.51992 0.19471 0.0
C347 C 0.68987 0.49423 0.24705 0.0
C348 C 0.59194 0.49736 0.06947 0.0
C349 C 0.64173 0.50936 0.13529 0.0
C350 C 0.57093 0.50039 0.99932 0.0
C351 C 0.57511 0.52028 0.92687 0.0
C352 C 0.61738 0.5144 0.0677 0.0
C353 C 0.60023 0.53769 0.9297 0.0
C354 C 0.6664 0.5275 0.13869 0.0
C355 C 0.66418 0.47762 0.2453 0.0
N356 N 0.62043 0.53423 0.99827 0.0
N357 N 0.64139 0.48531 0.19012 0.0
H358 H 0.99225 0.71774 0.16052 0.0
H359 H 0.0243 0.55258 1.00474 0.0
H360 H 0.04671 0.6606 0.32012 0.0
H361 H 0.99482 0.62052 0.82225 0.0
H362 H 0.02286 0.58749 0.13533 0.0
H363 H 0.9821 0.67777 0.05242 0.0
C364 C 1.00122 0.69645 0.17464 0.0
C365 C 0.0201 0.69235 0.24995 0.0
C366 C 0.01629 0.59455 0.06682 0.0
C367 C 1.00937 0.64653 0.12475 0.0
C368 C 0.01694 0.57458 0.99253 0.0
C369 C 1.00971 0.58366 0.9024 0.0
C370 C 1.0078 0.62357 0.05093 0.0
C371 C 1.00069 0.61257 0.8904 0.0
C372 C 0.99579 0.67369 0.11219 0.0
C373 C 0.03184 0.66446 0.26324 0.0
N374 N 1.00001 0.63134 0.96325 0.0
N375 N 0.02652 0.64269 0.20108 0.0
H376 H 0.93665 0.27114 0.422 0.0
H377 H 0.90103 0.14746 0.61701 0.0
H378 H 0.90421 0.23551 0.16537 0.0
H379 H 0.87341 0.11934 0.3452 0.0
H380 H 0.89431 0.19715 0.57048 0.0
H381 H 0.90685 0.23738 0.50697 0.0
C382 C 0.9225 0.25675 0.38331 0.0
C383 C 0.92395 0.25528 0.2863 0.0
C384 C 0.88942 0.18043 0.52038 0.0
C385 C 0.89064 0.21494 0.38362 0.0
C386 C 0.89284 0.15163 0.54787 0.0
C387 C 0.8891 0.129 0.48363 0.0
C388 C 0.88302 0.1867 0.42705 0.0
C389 C 0.87801 0.13609 0.39577 0.0
C390 C 0.9056 0.23688 0.43228 0.0
C391 C 0.90472 0.23649 0.24036 0.0
N392 N 0.8762 0.1643 0.36925 0.0
N393 N 0.88957 0.21644 0.28934 0.0
H394 H 0.24737 0.9273 0.41173 0.0
H395 H 0.40336 0.87603 0.36168 0.0
H396 H 0.28348 0.89542 0.15522 0.0
H397 H 0.36224 0.89327 0.62467 0.0
H398 H 0.356 0.86538 0.29495 0.0
H399 H 0.282 0.89787 0.49704 0.0
C400 C 0.26186 0.9133 0.373 0.0
C401 C 0.2634 0.9149 0.27593 0.0
C402 C 0.35729 0.87068 0.368 0.0
C403 C 0.3041 0.88205 0.37371 0.0
C404 C 0.3845 0.87663 0.40649 0.0
C405 C 0.38664 0.88687 0.49795 0.0
C406 C 0.33212 0.8757 0.4208 0.0
C407 C 0.3614 0.8868 0.55255 0.0
C408 C 0.28192 0.89657 0.42207 0.0
C409 C 0.28249 0.8959 0.23018 0.0
N410 N 0.33507 0.88227 0.51242 0.0
N411 N 0.30281 0.88103 0.2794 0.0
H412 H 0.59237 0.24698 0.40429 0.0
H413 H 0.64067 0.36394 0.6191 0.0
H414 H 0.6291 0.27958 0.14997 0.0
H415 H 0.64175 0.3984 0.34105 0.0
H416 H 0.64899 0.31545 0.55604 0.0
H417 H 0.62134 0.28119 0.49079 0.0
C418 C 0.60755 0.26048 0.36657 0.0
C419 C 0.60741 0.26115 0.26928 0.0
C420 C 0.64767 0.33361 0.50876 0.0
C421 C 0.64058 0.3013 0.36859 0.0
C422 C 0.64314 0.36137 0.54488 0.0
C423 C 0.63917 0.38508 0.48502 0.0
C424 C 0.64755 0.3296 0.4121 0.0
C425 C 0.64392 0.38072 0.38994 0.0
C426 C 0.62425 0.28033 0.4165 0.0
C427 C 0.62765 0.27916 0.22486 0.0
N428 N 0.64706 0.3534 0.35627 0.0
N429 N 0.64268 0.29923 0.27462 0.0
H430 H 0.27517 0.59864 0.36971 0.0
H431 H 0.14846 0.64312 0.53888 0.0
H432 H 0.24905 0.63163 0.1026 0.0
H433 H 0.12553 0.62004 0.25744 0.0
H434 H 0.19709 0.65629 0.48516 0.0
H435 H 0.23591 0.62561 0.4411 0.0
C436 C 0.26216 0.61281 0.32639 0.0
C437 C 0.26451 0.6118 0.22945 0.0
C438 C 0.18109 0.64892 0.43527 0.0
C439 C 0.21889 0.64221 0.31062 0.0
C440 C 0.15335 0.64115 0.46578 0.0
C441 C 0.13306 0.62897 0.40363 0.0
C442 C 0.18844 0.6447 0.34189 0.0
C443 C 0.14027 0.62869 0.30897 0.0
C444 C 0.23947 0.62826 0.36745 0.0
C445 C 0.24713 0.63086 0.17736 0.0
N446 N 0.1675 0.63584 0.28148 0.0
N447 N 0.22415 0.64427 0.21802 0.0
H448 H 0.12192 0.77816 0.38831 0.0
H449 H 0.1221 0.87044 0.93891 0.0
H450 H 0.08787 0.75165 0.12252 0.0
H451 H 0.14959 0.90134 0.20795 0.0
H452 H 0.12974 0.82098 0.99062 0.0
H453 H 0.15139 0.81489 0.3106 0.0
C454 C 0.12141 0.77937 0.31332 0.0
C455 C 0.10143 0.7627 0.26223 0.0
C456 C 0.13482 0.83856 0.03781 0.0
C457 C 0.13479 0.80473 0.17318 0.0
C458 C 0.13065 0.86702 1.00802 0.0
C459 C 0.1341 0.89025 0.07031 0.0
C460 C 0.14183 0.83321 0.13103 0.0
C461 C 0.14538 0.8841 0.15876 0.0
C462 C 0.13822 0.80038 0.26896 0.0
C463 C 0.10241 0.76446 0.16516 0.0
N464 N 0.14803 0.85613 0.18743 0.0
N465 N 0.11809 0.78576 0.12398 0.0
H466 H 0.7423 0.13008 0.34919 0.0
H467 H 0.65844 0.11384 0.89055 0.0
H468 H 0.77444 0.08661 0.10502 0.0
H469 H 0.62696 0.16303 0.12486 0.0
H470 H 0.70771 0.12044 0.9458 0.0
H471 H 0.70873 0.1577 0.25183 0.0
C472 C 0.7429 0.12698 0.27476 0.0
C473 C 0.76038 0.10524 0.23553 0.0
C474 C 0.69015 0.13044 0.98425 0.0
C475 C 0.72183 0.13637 0.12397 0.0
C476 C 0.66179 0.12688 0.95212 0.0
C477 C 0.63822 0.13675 1.00536 0.0
C478 C 0.69493 0.14322 0.07141 0.0
C479 C 0.64435 0.15371 0.08405 0.0
C480 C 0.72375 0.14279 0.21907 0.0
C481 C 0.76096 0.10274 0.1386 0.0
N482 N 0.67205 0.15559 0.11646 0.0
N483 N 0.74133 0.11748 0.0864 0.0
H484 H 0.4406 0.77731 0.08052 0.0
H485 H 0.36091 0.62806 0.08673 0.0
H486 H 0.39765 0.74055 0.31874 0.0
H487 H 0.41752 0.65997 0.87124 0.0
H488 H 0.35561 0.67765 0.14452 0.0
H489 H 0.41288 0.74507 0.98053 0.0
C490 C 0.42455 0.76324 0.11186 0.0
C491 C 0.42225 0.76086 0.20862 0.0
C492 C 0.36845 0.67386 0.08282 0.0
C493 C 0.39119 0.72313 0.09428 0.0
C494 C 0.37162 0.64552 0.05003 0.0
C495 C 0.39074 0.6396 0.97652 0.0
C496 C 0.38458 0.69629 0.04186 0.0
C497 C 0.40301 0.66324 0.92927 0.0
C498 C 0.40884 0.7446 0.05447 0.0
C499 C 0.40092 0.74226 0.24464 0.0
N500 N 0.40033 0.69043 0.96425 0.0
N501 N 0.38681 0.72345 0.18766 0.0
H502 H 0.74794 0.42666 0.10608 0.0
H503 H 0.90404 0.38189 0.17306 0.0
H504 H 0.78209 0.39522 0.36617 0.0
H505 H 0.86455 0.3954 0.90481 0.0
H506 H 0.8568 0.36874 0.23496 0.0
H507 H 0.78351 0.39753 0.02443 0.0
C508 C 0.76216 0.41277 0.14635 0.0
C509 C 0.763 0.4146 0.2435 0.0
C510 C 0.85847 0.37376 0.16184 0.0
C511 C 0.80486 0.3822 0.14995 0.0
C512 C 0.88563 0.38119 0.12615 0.0
C513 C 0.88804 0.39112 0.03449 0.0
C514 C 0.83356 0.37703 0.10609 0.0
C515 C 0.8634 0.38929 0.97715 0.0
C516 C 0.78279 0.39622 0.09935 0.0
C517 C 0.7817 0.39563 0.29114 0.0
N518 N 0.83701 0.38336 0.01454 0.0
N519 N 0.80268 0.38106 0.24405 0.0
H520 H 0.99482 0.25394 0.95419 0.0
H521 H 1.00035 0.11816 0.73736 0.0
H522 H 0.02101 0.20864 0.20117 0.0
H523 H 0.03836 0.08671 0.99167 0.0
H524 H 0.99971 0.167 0.80183 0.0
H525 H 1.00464 0.21026 0.8632 0.0
C526 C 1.00367 0.23502 0.9887 0.0
C527 C 1.00774 0.23522 0.08515 0.0
C528 C 1.0087 0.14976 0.8437 0.0
C529 C 0.01724 0.18383 0.98227 0.0
C530 C 1.00893 0.12155 0.80651 0.0
C531 C 0.01941 0.09799 0.85875 0.0
C532 C 0.01905 0.15476 0.93451 0.0
C533 C 0.03005 0.104 0.94833 0.0
C534 C 1.00865 0.20962 0.93695 0.0
C535 C 0.01823 0.20968 0.12668 0.0
N536 N 0.02941 0.13155 0.98319 0.0
N537 N 0.02232 0.1851 0.07544 0.0
H538 H 0.29868 0.02669 0.17665 0.0
H539 H 0.40428 0.98776 0.74967 0.0
H540 H 0.27435 0.96989 0.95272 0.0
H541 H 0.43045 0.03956 0.98448 0.0
H542 H 0.35482 0.9858 0.81251 0.0
H543 H 0.34434 0.03767 0.09557 0.0
C544 C 0.30238 0.01753 0.1085 0.0
C545 C 0.28229 0.99789 0.07048 0.0
C546 C 0.37134 0.99776 0.85006 0.0
C547 C 0.33529 1.00923 0.97869 0.0
C548 C 0.39972 0.99887 0.81404 0.0
C549 C 0.42192 0.01369 0.86165 0.0
C550 C 0.36482 0.01167 0.93454 0.0
C551 C 0.41431 0.02769 0.94511 0.0
C552 C 0.32873 0.02336 0.06285 0.0
C553 C 0.28889 0.98567 0.98356 0.0
N554 N 0.38662 0.02625 0.97876 0.0
N555 N 0.31479 0.99129 0.94124 0.0
H556 H 0.49668 0.2992 0.16289 0.0
H557 H 0.53429 0.40258 0.72913 0.0
H558 H 0.5545 0.27434 0.94253 0.0
H559 H 0.48781 0.43122 0.97189 0.0
H560 H 0.53612 0.35344 0.79416 0.0
H561 H 0.48622 0.34473 0.08041 0.0
C562 C 0.50623 0.30279 0.0953 0.0
C563 C 0.526 0.28259 0.0587 0.0
C564 C 0.52541 0.37046 0.83303 0.0
C565 C 0.51512 0.33535 0.96513 0.0
C566 C 0.52446 0.39867 0.79591 0.0
C567 C 0.51125 0.42148 0.84519 0.0
C568 C 0.51282 0.36471 0.92004 0.0
C569 C 0.49848 0.4146 0.93118 0.0
C570 C 0.50068 0.32904 0.04885 0.0
C571 C 0.53866 0.289 0.97235 0.0
N572 N 0.49966 0.38706 0.96567 0.0
N573 N 0.53321 0.31478 0.92906 0.0
H574 H 0.22427 0.50219 0.15955 0.0
H575 H 0.1198 0.53331 0.7218 0.0
H576 H 0.25166 0.54914 0.91734 0.0
H577 H 0.09033 0.49592 0.97905 0.0
H578 H 0.16964 0.53348 0.78299 0.0
H579 H 0.17737 0.49239 0.08378 0.0
C580 C 0.22091 0.5093 0.08876 0.0
C581 C 0.24225 0.52591 0.04396 0.0
C582 C 0.15229 0.52511 0.82591 0.0
C583 C 0.18793 0.51599 0.9579 0.0
C584 C 0.12372 0.52505 0.79097 0.0
C585 C 0.10054 0.51476 0.84524 0.0
C586 C 0.158 0.51464 0.91586 0.0
C587 C 0.10727 0.50426 0.93448 0.0
C588 C 0.19388 0.50421 0.04605 0.0
C589 C 0.23612 0.53566 0.95356 0.0
N590 N 0.13519 0.50452 0.96676 0.0
N591 N 0.20956 0.53082 0.91403 0.0
H592 H 0.99033 0.80146 0.35087 0.0
H593 H 0.02712 0.90044 0.79617 0.0
H594 H 0.043 0.77268 0.57998 0.0
H595 H 0.98135 0.93188 0.55494 0.0
H596 H 0.02725 0.85162 0.72826 0.0
H597 H 0.97988 0.84662 0.43561 0.0
C598 C 0.99867 0.80411 0.42066 0.0
C599 C 0.01705 0.78294 0.45913 0.0
C600 C 0.01696 0.86914 0.69044 0.0
C601 C 1.00627 0.83524 0.55542 0.0
C602 C 0.01684 0.89712 0.72937 0.0
C603 C 1.0043 0.92058 0.6814 0.0
C604 C 1.00438 0.86431 0.60263 0.0
C605 C 0.99141 0.91466 0.59471 0.0
C606 C 0.99314 0.83014 0.4685 0.0
C607 C 0.02823 0.78812 0.54851 0.0
N608 N 0.99189 0.88731 0.55821 0.0
N609 N 0.02291 0.81372 0.59303 0.0
H610 H 0.7477 0.06171 0.57512 0.0
H611 H 0.59197 0.98424 0.55388 0.0
H612 H 0.72488 0.99709 0.37222 0.0
H613 H 0.61648 0.04351 0.77203 0.0
H614 H 0.64153 0.98617 0.49388 0.0
H615 H 0.70206 0.05198 0.65719 0.0
C616 C 0.73357 0.04461 0.54994 0.0
C617 C 0.74053 0.02969 0.4678 0.0
C618 C 0.63623 0.99864 0.55521 0.0
C619 C 0.68726 0.01936 0.55914 0.0
C620 C 0.60776 0.99764 0.58962 0.0
C621 C 0.59973 0.01384 0.66829 0.0
C622 C 0.65718 0.01616 0.59891 0.0
C623 C 0.62148 0.03063 0.71133 0.0
C624 C 0.70726 0.03936 0.59608 0.0
C625 C 0.72082 1.00856 0.43644 0.0
N626 N 0.64904 0.03151 0.67579 0.0
N627 N 0.69504 1.00429 0.48135 0.0
H628 H 0.53119 0.72433 0.34631 0.0
H629 H 0.48317 0.61494 0.75416 0.0
H630 H 0.46501 0.74429 0.54694 0.0
H631 H 0.54092 0.59117 0.53143 0.0
H632 H 0.48115 0.66453 0.69225 0.0
H633 H 0.54089 0.67843 0.42784 0.0
C634 C 0.51952 0.7196 0.40966 0.0
C635 C 0.4977 0.73853 0.44091 0.0
C636 C 0.49442 0.64852 0.6572 0.0
C637 C 0.5078 0.68534 0.53297 0.0
C638 C 0.4956 0.62011 0.69268 0.0
C639 C 0.51215 0.59858 0.64801 0.0
C640 C 0.51004 0.65573 0.5765 0.0
C641 C 0.52772 0.60683 0.56825 0.0
C642 C 0.52469 0.69313 0.45542 0.0
C643 C 0.48244 0.73065 0.52152 0.0
N644 N 0.52624 0.63456 0.53521 0.0
N645 N 0.4876 0.70471 0.56414 0.0
H646 H 0.79976 0.52777 0.33697 0.0
H647 H 0.90745 0.48548 0.75565 0.0
H648 H 0.77636 0.47052 0.56013 0.0
H649 H 0.93139 0.54319 0.53335 0.0
H650 H 0.85786 0.48377 0.6938 0.0
H651 H 0.84565 0.53882 0.41764 0.0
C652 C 0.80372 0.51849 0.4048 0.0
C653 C 0.78386 0.49865 0.44266 0.0
C654 C 0.87388 0.49699 0.65882 0.0
C655 C 0.83707 0.5101 0.53389 0.0
C656 C 0.90234 0.49799 0.69434 0.0
C657 C 0.92398 0.51444 0.65 0.0
C658 C 0.8667 0.5125 0.57781 0.0
C659 C 0.91569 0.53008 0.57017 0.0
C660 C 0.83019 0.52438 0.45023 0.0
C661 C 0.79076 0.48637 0.52927 0.0
N662 N 0.88793 0.5286 0.53665 0.0
N663 N 0.81676 0.49201 0.57122 0.0
loop_
_geom_bond_atom_site_label_1
_geom_bond_atom_site_label_2
_geom_bond_distance
_geom_bond_site_symmetry_2
_ccdc_geom_bond_type
H0 C3 0.931 . S
H1 C6 0.928 . S
H2 C8 0.930 . S
C3 H0 0.931 . S
C3 C4 1.413 . S
C3 C5 1.360 . S
C4 C3 1.413 . S
C4 C8 1.429 . S
C5 C3 1.360 . S
C5 C6 1.372 . S
C6 H1 0.928 . S
C6 C5 1.372 . S
C6 C7 1.404 . S
C7 C6 1.404 . S
C7 C8 1.391 . S
C8 H2 0.930 . S
C8 C4 1.429 . S
C8 C7 1.391 . S
H9 C12 0.931 . S
H10 C15 0.928 . S
H11 C17 0.930 . S
C12 H9 0.931 . S
C12 C13 1.413 . S
C12 C14 1.360 . S
C13 C12 1.413 . S
C13 C17 1.429 1_655 S
C14 C12 1.360 . S
C14 C15 1.372 . S
C15 H10 0.928 . S
C15 C14 1.372 . S
C15 C16 1.404 . S
C16 C15 1.404 . S
C16 C17 1.390 1_655 S
C17 H11 0.930 . S
C17 C13 1.429 1_455 S
C17 C16 1.390 1_455 S
H18 C21 0.931 . S
H19 C24 0.928 . S
H20 C26 0.930 . S
C21 H18 0.931 . S
C21 C22 1.413 . S
C21 C23 1.360 . S
C22 C21 1.413 . S
C22 C26 1.429 1_565 S
C23 C21 1.360 . S
C23 C24 1.372 . S
C24 H19 0.928 . S
C24 C23 1.372 . S
C24 C25 1.404 . S
C25 C24 1.404 . S
C25 C26 1.390 1_565 S
C26 H20 0.930 . S
C26 C22 1.429 1_545 S
C26 C25 1.390 1_545 S
H27 C30 0.931 . S
H28 C33 0.928 . S
H29 C35 0.930 . S
C30 H27 0.931 . S
C30 C31 1.413 . S
C30 C32 1.360 . S
C31 C30 1.413 . S
C31 C35 1.429 . S
C32 C30 1.360 . S
C32 C33 1.372 . S
C33 H28 0.928 . S
C33 C32 1.372 . S
C33 C34 1.404 . S
C34 C33 1.404 . S
C34 C35 1.391 . S
C35 H29 0.930 . S
C35 C31 1.429 . S
C35 C34 1.391 . S
H36 C39 0.931 . S
H37 C42 0.928 . S
H38 C44 0.930 . S
C39 H36 0.931 . S
C39 C40 1.413 1_554 S
C39 C41 1.360 . S
C40 C39 1.413 1_556 S
C40 C44 1.429 . S
C41 C39 1.360 . S
C41 C42 1.372 . S
C42 H37 0.928 . S
C42 C41 1.372 . S
C42 C43 1.404 . S
C43 C42 1.404 . S
C43 C44 1.391 1_554 S
C44 H38 0.930 . S
C44 C40 1.429 . S
C44 C43 1.391 1_556 S
H45 C48 0.931 . S
H46 C51 0.928 . S
H47 C53 0.930 . S
C48 H45 0.931 . S
C48 C49 1.413 1_554 S
C48 C50 1.360 . S
C49 C48 1.413 1_556 S
C49 C53 1.429 1_655 S
C50 C48 1.360 . S
C50 C51 1.372 . S
C51 H46 0.928 . S
C51 C50 1.372 . S
C51 C52 1.404 . S
C52 C51 1.404 . S
C52 C53 1.391 1_654 S
C53 H47 0.930 . S
C53 C49 1.429 1_455 S
C53 C52 1.391 1_456 S
H54 C57 0.931 . S
H55 C60 0.928 . S
H56 C62 0.930 . S
C57 H54 0.931 . S
C57 C58 1.413 1_554 S
C57 C59 1.360 . S
C58 C57 1.413 1_556 S
C58 C62 1.429 1_565 S
C59 C57 1.360 . S
C59 C60 1.372 . S
C60 H55 0.928 . S
C60 C59 1.372 . S
C60 C61 1.404 . S
C61 C60 1.404 . S
C61 C62 1.391 1_564 S
C62 H56 0.930 . S
C62 C58 1.429 1_545 S
C62 C61 1.391 1_546 S
H63 C66 0.931 . S
H64 C69 0.928 . S
H65 C71 0.930 . S
C66 H63 0.931 . S
C66 C67 1.413 . S
C66 C68 1.360 1_554 S
C67 C66 1.413 . S
C67 C71 1.429 . S
C68 C66 1.360 1_556 S
C68 C69 1.372 . S
C69 H64 0.928 . S
C69 C68 1.372 . S
C69 C70 1.404 1_556 S
C70 C69 1.404 1_554 S
C70 C71 1.391 . S
C71 H65 0.930 . S
C71 C67 1.429 . S
C71 C70 1.391 . S
La72 C74 2.928 . S
La72 O92 2.521 . S
La72 O93 2.628 . S
La72 O94 2.554 . S
La72 O95 2.757 1_565 S
La72 O96 2.470 . S
La72 O101 2.482 1_455 S
La72 O103 2.503 1_565 S
La73 C83 2.928 . S
La73 O95 2.482 1_655 S
La73 O97 2.503 1_545 S
La73 O98 2.521 . S
La73 O99 2.628 . S
La73 O100 2.554 . S
La73 O101 2.757 1_545 S
La73 O102 2.470 . S
C74 La72 2.928 . S
C74 C75 1.503 . S
C74 O92 1.261 . S
C74 O93 1.243 . S
C75 C74 1.503 . S
C75 C76 1.394 . S
C75 C80 1.373 1_556 S
C76 C75 1.394 . S
C76 C77 1.380 1_556 S
C76 H104 0.930 . S
C77 C76 1.380 1_554 S
C77 C78 1.376 . S
C77 H105 0.930 . S
C78 C77 1.376 . S
C78 C79 1.370 . S
C79 C78 1.370 . S
C79 C80 1.396 . S
C79 H106 0.929 . S
C80 C75 1.373 1_554 S
C80 C79 1.396 . S
C80 H107 0.929 1_455 S
C81 O94 1.240 . S
C81 O95 1.289 1_565 S
C82 O96 1.258 1_655 S
C82 O97 1.256 . S
C83 La73 2.928 . S
C83 C84 1.503 . S
C83 O98 1.261 . S
C83 O99 1.243 . S
C84 C83 1.503 . S
C84 C85 1.394 . S
C84 C89 1.373 . S
C85 C84 1.394 . S
C85 C86 1.380 . S
C85 H108 0.930 . S
C86 C85 1.380 . S
C86 C87 1.376 . S
C86 H109 0.930 . S
C87 C86 1.376 . S
C87 C88 1.370 . S
C88 C87 1.370 . S
C88 C89 1.396 . S
C88 H110 0.929 . S
C89 C84 1.373 . S
C89 C88 1.396 . S
C89 H111 0.929 1_655 S
C90 O100 1.240 . S
C90 O101 1.289 1_545 S
C91 O102 1.258 1_455 S
C91 O103 1.256 . S
O92 La72 2.521 . S
O92 C74 1.261 . S
O93 La72 2.628 . S
O93 C74 1.243 . S
O94 La72 2.554 . S
O94 C81 1.240 . S
O95 La72 2.757 1_545 S
O95 La73 2.482 1_455 S
O95 C81 1.289 1_545 S
O96 La72 2.470 . S
O96 C82 1.258 1_455 S
O97 La73 2.503 1_565 S
O97 C82 1.256 . S
O98 La73 2.521 . S
O98 C83 1.261 . S
O99 La73 2.628 . S
O99 C83 1.243 . S
O100 La73 2.554 . S
O100 C90 1.240 . S
O101 La72 2.482 1_655 S
O101 La73 2.757 1_565 S
O101 C90 1.289 1_565 S
O102 La73 2.470 . S
O102 C91 1.258 1_655 S
O103 La72 2.503 1_545 S
O103 C91 1.256 . S
H104 C76 0.930 . S
H105 C77 0.930 . S
H106 C79 0.929 . S
H107 C80 0.929 1_655 S
H108 C85 0.930 . S
H109 C86 0.930 . S
H110 C88 0.929 . S
H111 C89 0.929 1_455 S
La112 C114 2.928 . S
La112 O132 2.521 . S
La112 O133 2.628 . S
La112 O134 2.554 . S
La112 O135 2.757 . S
La112 O136 2.470 . S
La112 O141 2.482 1_545 S
La112 O143 2.503 . S
La113 C123 2.928 . S
La113 O135 2.482 1_565 S
La113 O137 2.503 . S
La113 O138 2.521 . S
La113 O139 2.628 . S
La113 O140 2.554 . S
La113 O141 2.757 . S
La113 O142 2.470 . S
C114 La112 2.928 . S
C114 C115 1.503 . S
C114 O132 1.261 . S
C114 O133 1.243 . S
C115 C114 1.503 . S
C115 C116 1.394 . S
C115 C120 1.373 1_556 S
C116 C115 1.394 . S
C116 C117 1.380 1_556 S
C116 H144 0.930 . S
C117 C116 1.380 1_554 S
C117 C118 1.376 . S
C117 H145 0.930 . S
C118 C117 1.376 . S
C118 C119 1.370 . S
C119 C118 1.370 . S
C119 C120 1.396 . S
C119 H146 0.929 . S
C120 C115 1.373 1_554 S
C120 C119 1.396 . S
C120 H147 0.929 1_545 S
C121 O134 1.240 . S
C121 O135 1.289 . S
C122 O136 1.258 1_565 S
C122 O137 1.256 . S
C123 La113 2.928 . S
C123 C124 1.503 . S
C123 O138 1.261 . S
C123 O139 1.243 . S
C124 C123 1.503 . S
C124 C125 1.394 . S
C124 C129 1.373 . S
C125 C124 1.394 . S
C125 C126 1.380 . S
C125 H148 0.930 . S
C126 C125 1.380 . S
C126 C127 1.376 . S
C126 H149 0.930 . S
C127 C126 1.376 . S
C127 C128 1.370 . S
C128 C127 1.370 . S
C128 C129 1.396 . S
C128 H150 0.929 . S
C129 C124 1.373 . S
C129 C128 1.396 . S
C129 H151 0.929 1_565 S
C130 O140 1.240 . S
C130 O141 1.289 . S
C131 O142 1.258 1_545 S
C131 O143 1.256 . S
O132 La112 2.521 . S
O132 C114 1.261 . S
O133 La112 2.628 . S
O133 C114 1.243 . S
O134 La112 2.554 . S
O134 C121 1.240 . S
O135 La112 2.757 . S
O135 La113 2.482 1_545 S
O135 C121 1.289 . S
O136 La112 2.470 . S
O136 C122 1.258 1_545 S
O137 La113 2.503 . S
O137 C122 1.256 . S
O138 La113 2.521 . S
O138 C123 1.261 . S
O139 La113 2.628 . S
O139 C123 1.243 . S
O140 La113 2.554 . S
O140 C130 1.240 . S
O141 La112 2.482 1_565 S
O141 La113 2.757 . S
O141 C130 1.289 . S
O142 La113 2.470 . S
O142 C131 1.258 1_565 S
O143 La112 2.503 . S
O143 C131 1.256 . S
H144 C116 0.930 . S
H145 C117 0.930 . S
H146 C119 0.929 . S
H147 C120 0.929 1_565 S
H148 C125 0.930 . S
H149 C126 0.930 . S
H150 C128 0.929 . S
H151 C129 0.929 1_545 S
La152 C154 2.928 . S
La152 O172 2.521 . S
La152 O173 2.628 . S
La152 O174 2.554 . S
La152 O175 2.757 . S
La152 O176 2.470 . S
La152 O181 2.482 . S
La152 O183 2.503 . S
La153 C163 2.928 . S
La153 O175 2.482 . S
La153 O177 2.503 . S
La153 O178 2.521 . S
La153 O179 2.628 . S
La153 O180 2.554 . S
La153 O181 2.757 . S
La153 O182 2.470 . S
C154 La152 2.928 . S
C154 C155 1.503 . S
C154 O172 1.261 . S
C154 O173 1.243 . S
C155 C154 1.503 . S
C155 C156 1.394 . S
C155 C160 1.373 1_556 S
C156 C155 1.394 . S
C156 C157 1.380 1_556 S
C156 H184 0.930 . S
C157 C156 1.380 1_554 S
C157 C158 1.376 . S
C157 H185 0.930 . S
C158 C157 1.376 . S
C158 C159 1.370 . S
C159 C158 1.370 . S
C159 C160 1.396 . S
C159 H186 0.929 . S
C160 C155 1.373 1_554 S
C160 C159 1.396 . S
C160 H187 0.929 . S
C161 O174 1.240 . S
C161 O175 1.289 . S
C162 O176 1.258 . S
C162 O177 1.256 . S
C163 La153 2.928 . S
C163 C164 1.503 . S
C163 O178 1.261 . S
C163 O179 1.243 . S
C164 C163 1.503 . S
C164 C165 1.394 . S
C164 C169 1.373 . S
C165 C164 1.394 . S
C165 C166 1.380 . S
C165 H188 0.930 . S
C166 C165 1.380 . S
C166 C167 1.376 . S
C166 H189 0.930 . S
C167 C166 1.376 . S
C167 C168 1.370 . S
C168 C167 1.370 . S
C168 C169 1.396 . S
C168 H190 0.929 . S
C169 C164 1.373 . S
C169 C168 1.396 . S
C169 H191 0.929 . S
C170 O180 1.240 . S
C170 O181 1.289 . S
C171 O182 1.258 . S
C171 O183 1.256 . S
O172 La152 2.521 . S
O172 C154 1.261 . S
O173 La152 2.628 . S
O173 C154 1.243 . S
O174 La152 2.554 . S
O174 C161 1.240 . S
O175 La152 2.757 . S
O175 La153 2.482 . S
O175 C161 1.289 . S
O176 La152 2.470 . S
O176 C162 1.258 . S
O177 La153 2.503 . S
O177 C162 1.256 . S
O178 La153 2.521 . S
O178 C163 1.261 . S
O179 La153 2.628 . S
O179 C163 1.243 . S
O180 La153 2.554 . S
O180 C170 1.240 . S
O181 La152 2.482 . S
O181 La153 2.757 . S
O181 C170 1.289 . S
O182 La153 2.470 . S
O182 C171 1.258 . S
O183 La152 2.503 . S
O183 C171 1.256 . S
H184 C156 0.930 . S
H185 C157 0.930 . S
H186 C159 0.929 . S
H187 C160 0.929 . S
H188 C165 0.930 . S
H189 C166 0.930 . S
H190 C168 0.929 . S
H191 C169 0.929 . S
La192 C194 2.928 . S
La192 O212 2.521 . S
La192 O213 2.628 . S
La192 O214 2.554 . S
La192 O215 2.757 1_655 S
La192 O216 2.470 . S
La192 O221 2.482 . S
La192 O223 2.503 1_655 S
La193 C203 2.928 . S
La193 O215 2.482 . S
La193 O217 2.503 1_455 S
La193 O218 2.521 . S
La193 O219 2.628 . S
La193 O220 2.554 . S
La193 O221 2.757 1_455 S
La193 O222 2.470 . S
C194 La192 2.928 . S
C194 C195 1.503 . S
C194 O212 1.261 . S
C194 O213 1.243 . S
C195 C194 1.503 . S
C195 C196 1.394 . S
C195 C200 1.373 1_556 S
C196 C195 1.394 . S
C196 C197 1.380 1_556 S
C196 H224 0.930 . S
C197 C196 1.380 1_554 S
C197 C198 1.376 . S
C197 H225 0.930 . S
C198 C197 1.376 . S
C198 C199 1.370 . S
C199 C198 1.370 . S
C199 C200 1.396 . S
C199 H226 0.929 . S
C200 C195 1.373 1_554 S
C200 C199 1.396 . S
C200 H227 0.929 . S
C201 O214 1.245 . S
C201 O215 1.286 1_655 S
C202 O216 1.258 . S
C202 O217 1.256 . S
C203 La193 2.928 . S
C203 C204 1.503 . S
C203 O218 1.261 . S
C203 O219 1.243 . S
C204 C203 1.503 . S
C204 C205 1.394 . S
C204 C209 1.373 . S
C205 C204 1.394 . S
C205 C206 1.380 . S
C205 H228 0.930 . S
C206 C205 1.380 . S
C206 C207 1.376 . S
C206 H229 0.930 . S
C207 C206 1.376 . S
C207 C208 1.370 . S
C208 C207 1.370 . S
C208 C209 1.396 . S
C208 H230 0.929 . S
C209 C204 1.373 . S
C209 C208 1.396 . S
C209 H231 0.929 . S
C210 O220 1.250 . S
C210 O221 1.284 1_455 S
C211 O222 1.258 . S
C211 O223 1.256 . S
O212 La192 2.521 . S
O212 C194 1.261 . S
O213 La192 2.628 . S
O213 C194 1.243 . S
O214 La192 2.554 . S
O214 C201 1.245 . S
O215 La192 2.757 1_455 S
O215 La193 2.482 . S
O215 C201 1.286 1_455 S
O216 La192 2.470 . S
O216 C202 1.258 . S
O217 La193 2.503 1_655 S
O217 C202 1.256 . S
O218 La193 2.521 . S
O218 C203 1.261 . S
O219 La193 2.628 . S
O219 C203 1.243 . S
O220 La193 2.554 . S
O220 C210 1.250 . S
O221 La192 2.482 . S
O221 La193 2.757 1_655 S
O221 C210 1.284 1_655 S
O222 La193 2.470 . S
O222 C211 1.258 . S
O223 La192 2.503 1_455 S
O223 C211 1.256 . S
H224 C196 0.930 . S
H225 C197 0.930 . S
H226 C199 0.929 . S
H227 C200 0.929 . S
H228 C205 0.930 . S
H229 C206 0.930 . S
H230 C208 0.929 . S
H231 C209 0.929 . S
H232 C238 0.930 . S
H233 C242 0.930 . S
H234 C247 0.929 . S
H235 C245 0.929 . S
H236 C240 0.929 . S
H237 C246 0.929 . S
C238 H232 0.930 . S
C238 C239 1.392 . S
C238 C246 1.378 . S
C239 C238 1.392 . S
C239 C247 1.408 1_545 S
C240 H236 0.929 . S
C240 C242 1.378 . S
C240 C244 1.349 . S
C241 C244 1.463 1_545 S
C241 C246 1.350 . S
C241 N249 1.427 1_545 S
C242 H233 0.930 . S
C242 C240 1.378 . S
C242 C243 1.352 1_565 S
C243 C242 1.352 1_545 S
C243 C245 1.448 . S
C244 C240 1.349 . S
C244 C241 1.463 1_565 S
C244 N248 1.429 1_565 S
C245 H235 0.929 . S
C245 C243 1.448 . S
C245 N248 1.384 . S
C246 H237 0.929 . S
C246 C238 1.378 . S
C246 C241 1.350 . S
C247 H234 0.929 . S
C247 C239 1.408 1_565 S
C247 N249 1.384 . S
N248 C244 1.429 1_545 S
N248 C245 1.384 . S
N249 C241 1.427 1_565 S
N249 C247 1.384 . S
H250 C256 0.930 . S
H251 C260 0.930 . S
H252 C265 0.929 . S
H253 C263 0.929 . S
H254 C258 0.929 . S
H255 C264 0.929 . S
C256 H250 0.930 . S
C256 C257 1.367 . S
C256 C264 1.378 . S
C257 C256 1.367 . S
C257 C265 1.433 . S
C258 H254 0.929 . S
C258 C260 1.378 . S
C258 C262 1.350 . S
C259 C262 1.463 . S
C259 C264 1.350 . S
C259 N267 1.427 . S
C260 H251 0.930 . S
C260 C258 1.378 . S
C260 C261 1.367 . S
C261 C260 1.367 . S
C261 C263 1.433 . S
C262 C258 1.350 . S
C262 C259 1.463 . S
C262 N266 1.427 . S
C263 H253 0.929 . S
C263 C261 1.433 . S
C263 N266 1.384 . S
C264 H255 0.929 . S
C264 C256 1.378 . S
C264 C259 1.350 . S
C265 H252 0.929 . S
C265 C257 1.433 . S
C265 N267 1.384 . S
N266 C262 1.427 . S
N266 C263 1.384 . S
N267 C259 1.427 . S
N267 C265 1.384 . S
H268 C274 0.930 . S
H269 C278 0.930 . S
H270 C283 0.929 . S
H271 C281 0.929 . S
H272 C276 0.929 . S
H273 C282 0.929 . S
C274 H268 0.930 . S
C274 C275 1.367 . S
C274 C282 1.378 . S
C275 C274 1.367 . S
C275 C283 1.433 . S
C276 H272 0.929 . S
C276 C278 1.378 . S
C276 C280 1.350 . S
C277 C280 1.463 . S
C277 C282 1.350 . S
C277 N285 1.427 . S
C278 H269 0.930 . S
C278 C276 1.378 . S
C278 C279 1.367 . S
C279 C278 1.367 . S
C279 C281 1.433 . S
C280 C276 1.350 . S
C280 C277 1.463 . S
C280 N284 1.427 . S
C281 H271 0.929 . S
C281 C279 1.433 . S
C281 N284 1.384 . S
C282 H273 0.929 . S
C282 C274 1.378 . S
C282 C277 1.350 . S
C283 H270 0.929 . S
C283 C275 1.433 . S
C283 N285 1.384 . S
N284 C280 1.427 . S
N284 C281 1.384 . S
N285 C277 1.427 . S
N285 C283 1.384 . S
H286 C292 0.930 . S
H287 C296 0.930 . S
H288 C301 0.929 . S
H289 C299 0.929 . S
H290 C294 0.929 . S
H291 C300 0.929 . S
C292 H286 0.930 . S
C292 C293 1.367 1_655 S
C292 C300 1.378 . S
C293 C292 1.367 1_455 S
C293 C301 1.433 . S
C294 H290 0.929 . S
C294 C296 1.378 . S
C294 C298 1.350 . S
C295 C298 1.464 . S
C295 C300 1.337 1_455 S
C295 N303 1.441 . S
C296 H287 0.930 . S
C296 C294 1.378 . S
C296 C297 1.367 . S
C297 C296 1.367 . S
C297 C299 1.433 1_455 S
C298 C294 1.350 . S
C298 C295 1.464 . S
C298 N302 1.427 1_455 S
C299 H289 0.929 . S
C299 C297 1.433 1_655 S
C299 N302 1.384 . S
C300 H291 0.929 . S
C300 C292 1.378 . S
C300 C295 1.337 1_655 S
C301 H288 0.929 . S
C301 C293 1.433 . S
C301 N303 1.384 . S
N302 C298 1.427 1_655 S
N302 C299 1.384 . S
N303 C295 1.441 . S
N303 C301 1.384 . S
H304 C310 0.930 . S
H305 C314 0.930 . S
H306 C319 0.929 . S
H307 C317 0.929 . S
H308 C312 0.929 . S
H309 C318 0.929 . S
C310 H304 0.930 . S
C310 C311 1.389 . S
C310 C318 1.378 . S
C311 C310 1.389 . S
C311 C319 1.411 1_565 S
C312 H308 0.929 . S
C312 C314 1.378 1_554 S
C312 C316 1.360 . S
C313 C316 1.462 1_565 S
C313 C318 1.350 . S
C313 N321 1.427 1_565 S
C314 H305 0.930 . S
C314 C312 1.378 1_556 S
C314 C315 1.361 1_545 S
C315 C314 1.361 1_565 S
C315 C317 1.439 . S
C316 C312 1.360 . S
C316 C313 1.462 1_545 S
C316 N320 1.417 1_545 S
C317 H307 0.929 . S
C317 C315 1.439 . S
C317 N320 1.384 1_556 S
C318 H309 0.929 . S
C318 C310 1.378 . S
C318 C313 1.350 . S
C319 H306 0.929 . S
C319 C311 1.411 1_545 S
C319 N321 1.384 . S
N320 C316 1.417 1_565 S
N320 C317 1.384 1_554 S
N321 C313 1.427 1_545 S
N321 C319 1.384 . S
H322 C328 0.930 . S
H323 C332 0.930 . S
H324 C337 0.929 . S
H325 C335 0.929 . S
H326 C330 0.929 . S
H327 C336 0.929 . S
C328 H322 0.930 . S
C328 C329 1.367 . S
C328 C336 1.378 . S
C329 C328 1.367 . S
C329 C337 1.433 . S
C330 H326 0.929 . S
C330 C332 1.378 1_554 S
C330 C334 1.350 . S
C331 C334 1.463 . S
C331 C336 1.350 . S
C331 N339 1.427 . S
C332 H323 0.930 . S
C332 C330 1.378 1_556 S
C332 C333 1.367 . S
C333 C332 1.367 . S
C333 C335 1.433 1_556 S
C334 C330 1.350 . S
C334 C331 1.463 . S
C334 N338 1.427 . S
C335 H325 0.929 . S
C335 C333 1.433 1_554 S
C335 N338 1.384 . S
C336 H327 0.929 . S
C336 C328 1.378 . S
C336 C331 1.350 . S
C337 H324 0.929 . S
C337 C329 1.433 . S
C337 N339 1.384 . S
N338 C334 1.427 . S
N338 C335 1.384 . S
N339 C331 1.427 . S
N339 C337 1.384 . S
H340 C346 0.930 . S
H341 C350 0.930 . S
H342 C355 0.929 . S
H343 C353 0.929 . S
H344 C348 0.929 . S
H345 C354 0.929 . S
C346 H340 0.930 . S
C346 C347 1.367 . S
C346 C354 1.378 . S
C347 C346 1.367 . S
C347 C355 1.433 . S
C348 H344 0.929 . S
C348 C350 1.378 . S
C348 C352 1.350 . S
C349 C352 1.463 . S
C349 C354 1.350 . S
C349 N357 1.427 . S
C350 H341 0.930 . S
C350 C348 1.378 . S
C350 C351 1.367 1_554 S
C351 C350 1.367 1_556 S
C351 C353 1.433 . S
C352 C348 1.350 . S
C352 C349 1.463 . S
C352 N356 1.427 . S
C353 H343 0.929 . S
C353 C351 1.433 . S
C353 N356 1.384 1_556 S
C354 H345 0.929 . S
C354 C346 1.378 . S
C354 C349 1.350 . S
C355 H342 0.929 . S
C355 C347 1.433 . S
C355 N357 1.384 . S
N356 C352 1.427 . S
N356 C353 1.384 1_554 S
N357 C349 1.427 . S
N357 C355 1.384 . S
H358 C364 0.930 . S
H359 C368 0.930 . S
H360 C373 0.929 . S
H361 C371 0.929 . S
H362 C366 0.929 . S
H363 C372 0.929 . S
C364 H358 0.930 . S
C364 C365 1.402 . S
C364 C372 1.378 . S
C365 C364 1.402 . S
C365 C373 1.398 1_655 S
C366 H362 0.929 . S
C366 C368 1.378 1_554 S
C366 C370 1.326 1_455 S
C367 C370 1.464 . S
C367 C372 1.350 . S
C367 N375 1.427 1_655 S
C368 H359 0.930 . S
C368 C366 1.378 1_556 S
C368 C369 1.367 1_455 S
C369 C368 1.367 1_655 S
C369 C371 1.433 . S
C370 C366 1.326 1_655 S
C370 C367 1.464 . S
C370 N374 1.453 . S
C371 H361 0.929 . S
C371 C369 1.433 . S
C371 N374 1.384 1_556 S
C372 H363 0.929 . S
C372 C364 1.378 . S
C372 C367 1.350 . S
C373 H360 0.929 . S
C373 C365 1.398 1_455 S
C373 N375 1.384 . S
N374 C370 1.453 . S
N374 C371 1.384 1_554 S
N375 C367 1.427 1_455 S
N375 C373 1.384 . S
H376 C382 0.930 . S
H377 C386 0.930 . S
H378 C391 0.929 . S
H379 C389 0.929 . S
H380 C384 0.929 . S
H381 C390 0.929 . S
C382 H376 0.930 . S
C382 C383 1.367 . S
C382 C390 1.378 . S
C383 C382 1.367 . S
C383 C391 1.433 1_455 S
C384 H380 0.929 . S
C384 C386 1.378 . S
C384 C388 1.350 . S
C385 C388 1.463 . S
C385 C390 1.350 1_655 S
C385 N393 1.427 . S
C386 H377 0.930 . S
C386 C384 1.378 . S
C386 C387 1.367 . S
C387 C386 1.367 . S
C387 C389 1.433 . S
C388 C384 1.350 . S
C388 C385 1.463 . S
C388 N392 1.427 . S
C389 H379 0.929 . S
C389 C387 1.433 . S
C389 N392 1.384 . S
C390 H381 0.929 . S
C390 C382 1.378 . S
C390 C385 1.350 1_455 S
C391 H378 0.929 . S
C391 C383 1.433 1_655 S
C391 N393 1.384 . S
N392 C388 1.427 . S
N392 C389 1.384 . S
N393 C385 1.427 . S
N393 C391 1.384 . S
H394 C400 0.930 . S
H395 C404 0.930 . S
H396 C409 0.929 . S
H397 C407 0.929 . S
H398 C402 0.929 . S
H399 C408 0.929 . S
C400 H394 0.930 . S
C400 C401 1.367 . S
C400 C408 1.378 1_545 S
C401 C400 1.367 . S
C401 C409 1.433 1_545 S
C402 H398 0.929 . S
C402 C404 1.378 . S
C402 C406 1.350 . S
C403 C406 1.463 . S
C403 C408 1.350 . S
C403 N411 1.427 . S
C404 H395 0.930 . S
C404 C402 1.378 . S
C404 C405 1.367 . S
C405 C404 1.367 . S
C405 C407 1.433 . S
C406 C402 1.350 . S
C406 C403 1.463 . S
C406 N410 1.427 . S
C407 H397 0.929 . S
C407 C405 1.433 . S
C407 N410 1.384 . S
C408 H399 0.929 . S
C408 C400 1.378 1_565 S
C408 C403 1.350 . S
C409 H396 0.929 . S
C409 C401 1.433 1_565 S
C409 N411 1.384 . S
N410 C406 1.427 . S
N410 C407 1.384 . S
N411 C403 1.427 . S
N411 C409 1.384 . S
H412 C418 0.930 . S
H413 C422 0.930 . S
H414 C427 0.929 . S
H415 C425 0.929 . S
H416 C420 0.929 . S
H417 C426 0.929 . S
C418 H412 0.930 . S
C418 C419 1.367 . S
C418 C426 1.378 . S
C419 C418 1.367 . S
C419 C427 1.433 . S
C420 H416 0.929 . S
C420 C422 1.378 . S
C420 C424 1.350 . S
C421 C424 1.463 . S
C421 C426 1.350 . S
C421 N429 1.427 . S
C422 H413 0.930 . S
C422 C420 1.378 . S
C422 C423 1.367 . S
C423 C422 1.367 . S
C423 C425 1.433 . S
C424 C420 1.350 . S
C424 C421 1.463 . S
C424 N428 1.427 . S
C425 H415 0.929 . S
C425 C423 1.433 . S
C425 N428 1.384 . S
C426 H417 0.929 . S
C426 C418 1.378 . S
C426 C421 1.350 . S
C427 H414 0.929 . S
C427 C419 1.433 . S
C427 N429 1.384 . S
N428 C424 1.427 . S
N428 C425 1.384 . S
N429 C421 1.427 . S
N429 C427 1.384 . S
H430 C436 0.930 . S
H431 C440 0.930 . S
H432 C445 0.929 . S
H433 C443 0.929 . S
H434 C438 0.929 . S
H435 C444 0.929 . S
C436 H430 0.930 . S
C436 C437 1.367 . S
C436 C444 1.378 . S
C437 C436 1.367 . S
C437 C445 1.433 . S
C438 H434 0.929 . S
C438 C440 1.378 . S
C438 C442 1.350 . S
C439 C442 1.463 . S
C439 C444 1.350 . S
C439 N447 1.427 . S
C440 H431 0.930 . S
C440 C438 1.378 . S
C440 C441 1.367 . S
C441 C440 1.367 . S
C441 C443 1.433 . S
C442 C438 1.350 . S
C442 C439 1.463 . S
C442 N446 1.427 . S
C443 H433 0.929 . S
C443 C441 1.433 . S
C443 N446 1.384 . S
C444 H435 0.929 . S
C444 C436 1.378 . S
C444 C439 1.350 . S
C445 H432 0.929 . S
C445 C437 1.433 . S
C445 N447 1.384 . S
N446 C442 1.427 . S
N446 C443 1.384 . S
N447 C439 1.427 . S
N447 C445 1.384 . S
H448 C454 0.930 . S
H449 C458 0.930 . S
H450 C463 0.929 . S
H451 C461 0.929 . S
H452 C456 0.929 1_655 S
H453 C462 0.929 . S
C454 H448 0.930 . S
C454 C455 1.367 1_455 S
C454 C462 1.378 . S
C455 C454 1.367 1_655 S
C455 C463 1.433 . S
C456 H452 0.929 1_455 S
C456 C458 1.378 . S
C456 C460 1.350 . S
C457 C460 1.463 . S
C457 C462 1.350 . S
C457 N465 1.427 1_455 S
C458 H449 0.930 . S
C458 C456 1.378 . S
C458 C459 1.367 . S
C459 C458 1.367 . S
C459 C461 1.433 . S
C460 C456 1.350 . S
C460 C457 1.463 . S
C460 N464 1.427 . S
C461 H451 0.929 . S
C461 C459 1.433 . S
C461 N464 1.384 . S
C462 H453 0.929 . S
C462 C454 1.378 . S
C462 C457 1.350 . S
C463 H450 0.929 . S
C463 C455 1.433 . S
C463 N465 1.384 . S
N464 C460 1.427 . S
N464 C461 1.384 . S
N465 C457 1.427 1_655 S
N465 C463 1.384 . S
H466 C472 0.930 . S
H467 C476 0.930 1_556 S
H468 C481 0.929 . S
H469 C479 0.929 . S
H470 C474 0.929 . S
H471 C480 0.929 . S
C472 H466 0.930 . S
C472 C473 1.367 1_545 S
C472 C480 1.378 . S
C473 C472 1.367 1_565 S
C473 C481 1.433 . S
C474 H470 0.929 . S
C474 C476 1.378 . S
C474 C478 1.350 . S
C475 C478 1.463 . S
C475 C480 1.350 . S
C475 N483 1.427 1_545 S
C476 H467 0.930 1_554 S
C476 C474 1.378 . S
C476 C477 1.367 . S
C477 C476 1.367 . S
C477 C479 1.433 . S
C478 C474 1.350 . S
C478 C475 1.463 . S
C478 N482 1.427 . S
C479 H469 0.929 . S
C479 C477 1.433 . S
C479 N482 1.384 . S
C480 H471 0.929 . S
C480 C472 1.378 . S
C480 C475 1.350 . S
C481 H468 0.929 . S
C481 C473 1.433 . S
C481 N483 1.384 . S
N482 C478 1.427 . S
N482 C479 1.384 . S
N483 C475 1.427 1_565 S
N483 C481 1.384 . S
H484 C490 0.930 . S
H485 C494 0.930 . S
H486 C499 0.929 . S
H487 C497 0.929 . S
H488 C492 0.929 . S
H489 C498 0.929 . S
C490 H484 0.930 . S
C490 C491 1.367 . S
C490 C498 1.378 . S
C491 C490 1.367 . S
C491 C499 1.433 . S
C492 H488 0.929 . S
C492 C494 1.378 . S
C492 C496 1.350 . S
C493 C496 1.463 . S
C493 C498 1.350 . S
C493 N501 1.427 . S
C494 H485 0.930 . S
C494 C492 1.378 . S
C494 C495 1.367 . S
C495 C494 1.367 . S
C495 C497 1.433 . S
C496 C492 1.350 . S
C496 C493 1.463 . S
C496 N500 1.427 . S
C497 H487 0.929 . S
C497 C495 1.433 . S
C497 N500 1.384 . S
C498 H489 0.929 . S
C498 C490 1.378 . S
C498 C493 1.350 . S
C499 H486 0.929 . S
C499 C491 1.433 . S
C499 N501 1.384 . S
N500 C496 1.427 . S
N500 C497 1.384 . S
N501 C493 1.427 . S
N501 C499 1.384 . S
H502 C508 0.930 . S
H503 C512 0.930 . S
H504 C517 0.929 . S
H505 C515 0.929 . S
H506 C510 0.929 . S
H507 C516 0.929 . S
C508 H502 0.930 . S
C508 C509 1.367 . S
C508 C516 1.378 . S
C509 C508 1.367 . S
C509 C517 1.433 . S
C510 H506 0.929 . S
C510 C512 1.378 . S
C510 C514 1.350 . S
C511 C514 1.463 . S
C511 C516 1.350 . S
C511 N519 1.427 . S
C512 H503 0.930 . S
C512 C510 1.378 . S
C512 C513 1.367 . S
C513 C512 1.367 . S
C513 C515 1.433 . S
C514 C510 1.350 . S
C514 C511 1.463 . S
C514 N518 1.427 . S
C515 H505 0.929 . S
C515 C513 1.433 . S
C515 N518 1.384 . S
C516 H507 0.929 . S
C516 C508 1.378 . S
C516 C511 1.350 . S
C517 H504 0.929 . S
C517 C509 1.433 . S
C517 N519 1.384 . S
N518 C514 1.427 . S
N518 C515 1.384 . S
N519 C511 1.427 . S
N519 C517 1.384 . S
H520 C526 0.930 1_554 S
H521 C530 0.930 . S
H522 C535 0.929 . S
H523 C533 0.927 1_655 S
H524 C528 0.929 . S
H525 C534 0.929 . S
C526 H520 0.930 1_556 S
C526 C527 1.367 1_655 S
C526 C534 1.378 . S
C527 C526 1.367 1_455 S
C527 C535 1.433 . S
C528 H524 0.929 . S
C528 C530 1.378 . S
C528 C532 1.350 . S
C529 C532 1.463 . S
C529 C534 1.350 1_455 S
C529 N537 1.427 . S
C530 H521 0.930 . S
C530 C528 1.378 . S
C530 C531 1.367 . S
C531 C530 1.367 . S
C531 C533 1.433 . S
C532 C528 1.350 . S
C532 C529 1.463 . S
C532 N536 1.427 . S
C533 H523 0.927 1_455 S
C533 C531 1.433 . S
C533 N536 1.384 . S
C534 H525 0.929 . S
C534 C526 1.378 . S
C534 C529 1.350 1_655 S
C535 H522 0.929 . S
C535 C527 1.433 . S
C535 N537 1.384 . S
N536 C532 1.427 . S
N536 C533 1.384 . S
N537 C529 1.427 . S
N537 C535 1.384 . S
H538 C544 0.930 . S
H539 C548 0.930 . S
H540 C553 0.929 . S
H541 C551 0.929 . S
H542 C546 0.929 . S
H543 C552 0.929 . S
C544 H538 0.930 . S
C544 C545 1.367 . S
C544 C552 1.378 . S
C545 C544 1.367 . S
C545 C553 1.433 1_545 S
C546 H542 0.929 . S
C546 C548 1.378 . S
C546 C550 1.350 1_565 S
C547 C550 1.463 . S
C547 C552 1.350 . S
C547 N555 1.427 1_545 S
C548 H539 0.930 . S
C548 C546 1.378 . S
C548 C549 1.367 1_565 S
C549 C548 1.367 1_545 S
C549 C551 1.433 . S
C550 C546 1.350 1_545 S
C550 C547 1.463 . S
C550 N554 1.427 . S
C551 H541 0.929 . S
C551 C549 1.433 . S
C551 N554 1.384 . S
C552 H543 0.929 . S
C552 C544 1.378 . S
C552 C547 1.350 . S
C553 H540 0.929 . S
C553 C545 1.433 1_565 S
C553 N555 1.384 . S
N554 C550 1.427 . S
N554 C551 1.384 . S
N555 C547 1.427 1_565 S
N555 C553 1.384 . S
H556 C562 0.930 . S
H557 C566 0.930 . S
H558 C571 0.929 . S
H559 C569 0.929 . S
H560 C564 0.929 . S
H561 C570 0.929 . S
C562 H556 0.930 . S
C562 C563 1.367 . S
C562 C570 1.378 . S
C563 C562 1.367 . S
C563 C571 1.433 . S
C564 H560 0.929 . S
C564 C566 1.378 . S
C564 C568 1.350 . S
C565 C568 1.463 . S
C565 C570 1.350 . S
C565 N573 1.427 . S
C566 H557 0.930 . S
C566 C564 1.378 . S
C566 C567 1.367 . S
C567 C566 1.367 . S
C567 C569 1.433 . S
C568 C564 1.350 . S
C568 C565 1.463 . S
C568 N572 1.427 . S
C569 H559 0.929 . S
C569 C567 1.433 . S
C569 N572 1.384 . S
C570 H561 0.929 . S
C570 C562 1.378 . S
C570 C565 1.350 . S
C571 H558 0.929 . S
C571 C563 1.433 . S
C571 N573 1.384 . S
N572 C568 1.427 . S
N572 C569 1.384 . S
N573 C565 1.427 . S
N573 C571 1.384 . S
H574 C580 0.930 . S
H575 C584 0.930 . S
H576 C589 0.929 . S
H577 C587 0.929 . S
H578 C582 0.929 . S
H579 C588 0.929 . S
C580 H574 0.930 . S
C580 C581 1.367 . S
C580 C588 1.378 . S
C581 C580 1.367 . S
C581 C589 1.433 . S
C582 H578 0.929 . S
C582 C584 1.378 . S
C582 C586 1.350 . S
C583 C586 1.463 . S
C583 C588 1.350 . S
C583 N591 1.427 . S
C584 H575 0.930 . S
C584 C582 1.378 . S
C584 C585 1.367 . S
C585 C584 1.367 . S
C585 C587 1.433 . S
C586 C582 1.350 . S
C586 C583 1.463 . S
C586 N590 1.427 . S
C587 H577 0.929 . S
C587 C585 1.433 . S
C587 N590 1.384 . S
C588 H579 0.929 . S
C588 C580 1.378 . S
C588 C583 1.350 . S
C589 H576 0.929 . S
C589 C581 1.433 . S
C589 N591 1.384 . S
N590 C586 1.427 . S
N590 C587 1.384 . S
N591 C583 1.427 . S
N591 C589 1.384 . S
H592 C598 0.930 . S
H593 C602 0.930 1_455 S
H594 C607 0.929 . S
H595 C605 0.929 . S
H596 C600 0.932 . S
H597 C606 0.929 . S
C598 H592 0.930 . S
C598 C599 1.367 . S
C598 C606 1.378 . S
C599 C598 1.367 . S
C599 C607 1.433 1_655 S
C600 H596 0.932 . S
C600 C602 1.377 1_455 S
C600 C604 1.347 1_455 S
C601 C604 1.463 . S
C601 C606 1.350 . S
C601 N609 1.427 1_655 S
C602 H593 0.930 1_655 S
C602 C600 1.377 1_655 S
C602 C603 1.367 . S
C603 C602 1.367 . S
C603 C605 1.433 . S
C604 C600 1.347 1_655 S
C604 C601 1.463 . S
C604 N608 1.427 . S
C605 H595 0.929 . S
C605 C603 1.433 . S
C605 N608 1.384 . S
C606 H597 0.929 . S
C606 C598 1.378 . S
C606 C601 1.350 . S
C607 H594 0.929 . S
C607 C599 1.433 1_455 S
C607 N609 1.384 . S
N608 C604 1.427 . S
N608 C605 1.384 . S
N609 C601 1.427 1_455 S
N609 C607 1.384 . S
H610 C616 0.930 . S
H611 C620 0.930 . S
H612 C625 0.929 . S
H613 C623 0.929 . S
H614 C618 0.929 . S
H615 C624 0.929 . S
C616 H610 0.930 . S
C616 C617 1.367 1_545 S
C616 C624 1.378 . S
C617 C616 1.367 1_565 S
C617 C625 1.433 . S
C618 H614 0.929 . S
C618 C620 1.378 . S
C618 C622 1.350 . S
C619 C622 1.463 . S
C619 C624 1.350 1_565 S
C619 N627 1.427 . S
C620 H611 0.930 . S
C620 C618 1.378 . S
C620 C621 1.367 . S
C621 C620 1.367 . S
C621 C623 1.433 1_565 S
C622 C618 1.350 . S
C622 C619 1.463 . S
C622 N626 1.427 1_565 S
C623 H613 0.929 . S
C623 C621 1.433 1_545 S
C623 N626 1.384 . S
C624 H615 0.929 . S
C624 C616 1.378 . S
C624 C619 1.350 1_545 S
C625 H612 0.929 . S
C625 C617 1.433 . S
C625 N627 1.384 . S
N626 C622 1.427 1_545 S
N626 C623 1.384 . S
N627 C619 1.427 . S
N627 C625 1.384 . S
H628 C634 0.930 . S
H629 C638 0.930 . S
H630 C643 0.929 . S
H631 C641 0.929 . S
H632 C636 0.929 . S
H633 C642 0.929 . S
C634 H628 0.930 . S
C634 C635 1.367 . S
C634 C642 1.378 . S
C635 C634 1.367 . S
C635 C643 1.433 . S
C636 H632 0.929 . S
C636 C638 1.378 . S
C636 C640 1.350 . S
C637 C640 1.463 . S
C637 C642 1.350 . S
C637 N645 1.427 . S
C638 H629 0.930 . S
C638 C636 1.378 . S
C638 C639 1.367 . S
C639 C638 1.367 . S
C639 C641 1.433 . S
C640 C636 1.350 . S
C640 C637 1.463 . S
C640 N644 1.427 . S
C641 H631 0.929 . S
C641 C639 1.433 . S
C641 N644 1.384 . S
C642 H633 0.929 . S
C642 C634 1.378 . S
C642 C637 1.350 . S
C643 H630 0.929 . S
C643 C635 1.433 . S
C643 N645 1.384 . S
N644 C640 1.427 . S
N644 C641 1.384 . S
N645 C637 1.427 . S
N645 C643 1.384 . S
H646 C652 0.930 . S
H647 C656 0.930 . S
H648 C661 0.929 . S
H649 C659 0.929 . S
H650 C654 0.929 . S
H651 C660 0.929 . S
C652 H646 0.930 . S
C652 C653 1.367 . S
C652 C660 1.378 . S
C653 C652 1.367 . S
C653 C661 1.433 . S
C654 H650 0.929 . S
C654 C656 1.378 . S
C654 C658 1.350 . S
C655 C658 1.463 . S
C655 C660 1.350 . S
C655 N663 1.427 . S
C656 H647 0.930 . S
C656 C654 1.378 . S
C656 C657 1.367 . S
C657 C656 1.367 . S
C657 C659 1.433 . S
C658 C654 1.350 . S
C658 C655 1.463 . S
C658 N662 1.427 . S
C659 H649 0.929 . S
C659 C657 1.433 . S
C659 N662 1.384 . S
C660 H651 0.929 . S
C660 C652 1.378 . S
C660 C655 1.350 . S
C661 H648 0.929 . S
C661 C653 1.433 . S
C661 N663 1.384 . S
N662 C658 1.427 . S
N662 C659 1.384 . S
N663 C655 1.427 . S
N663 C661 1.384 . S
C239 C61 1.807 1_545 S
C243 C81 1.943 1_545 S
C261 C121 1.963 . S
C257 C70 1.827 . S
C279 C161 1.975 . S
C275 C43 1.838 . S
C297 C201 1.960 1_455 S
C293 C52 1.825 1_455 S
C315 C90 1.946 1_565 S
C311 C25 1.807 . S
C329 C34 1.843 . S
C333 C130 1.966 . S
C347 C7 1.825 . S
C351 C170 1.973 . S
C365 C16 1.819 . S
C369 C210 1.957 1_655 S
C387 C87 0.552 . S
C383 C50 0.498 1_455 S
C405 C127 0.530 . S
C401 C59 0.503 1_545 S
C423 C167 0.532 . S
C419 C67 0.478 . S
C437 C41 0.495 . S
C441 C207 0.544 . S
C455 C14 0.468 . S
C459 C78 0.506 . S
C477 C118 0.518 . S
C473 C23 0.473 . S
C495 C158 0.541 . S
C491 C31 0.503 . S
C509 C5 0.491 . S
C513 C198 0.551 . S
C527 C49 2.044 1_455 S
C531 C91 2.270 . S
C545 C58 2.009 1_545 S
C549 C131 2.220 . S
C567 C171 2.202 . S
C563 C68 1.993 . S
C585 C211 2.245 . S
C581 C40 2.033 . S
C599 C13 2.043 . S
C603 C82 2.276 . S
C621 C122 2.229 . S
C617 C22 2.003 . S
C639 C162 2.203 . S
C635 C32 2.001 . S
C653 C4 2.025 . S
C657 C202 2.252 . S
