# Generated by pormake.
# Topology llj, (12,3)-cn, num edge types: 1
# Building blocks:
#     Node 0, Type 0, BuildingBlock: QEWDON_clean_sbu_0, # of connection points: 12
#     Node 1, Type 0, BuildingBlock: QEWDON_clean_sbu_0, # of connection points: 12
#     Node 2, Type 1, BuildingBlock: BELTOD_clean_linker_0, # of connection points: 3
#     Node 3, Type 1, BuildingBlock: BELTOD_clean_linker_0, # of connection points: 3
#     Node 4, Type 1, BuildingBlock: BELTOD_clean_linker_0, # of connection points: 3
#     Node 5, Type 1, BuildingBlock: BELTOD_clean_linker_0, # of connection points: 3
#     Node 6, Type 1, BuildingBlock: BELTOD_clean_linker_0, # of connection points: 3
#     Node 7, Type 1, BuildingBlock: BELTOD_clean_linker_0, # of connection points: 3
#     Node 8, Type 1, BuildingBlock: BELTOD_clean_linker_0, # of connection points: 3
#     Node 9, Type 1, BuildingBlock: BELTOD_clean_linker_0, # of connection points: 3
#     Edge 10, Type (0, 1), BuildingBlock: MIFKUJ_clean_linker_0, # of connection points: 2
#     Edge 11, Type (0, 1), BuildingBlock: MIFKUJ_clean_linker_0, # of connection points: 2
#     Edge 12, Type (0, 1), BuildingBlock: MIFKUJ_clean_linker_0, # of connection points: 2
#     Edge 13, Type (0, 1), BuildingBlock: MIFKUJ_clean_linker_0, # of connection points: 2
#     Edge 14, Type (0, 1), BuildingBlock: MIFKUJ_clean_linker_0, # of connection points: 2
#     Edge 15, Type (0, 1), BuildingBlock: MIFKUJ_clean_linker_0, # of connection points: 2
#     Edge 16, Type (0, 1), BuildingBlock: MIFKUJ_clean_linker_0, # of connection points: 2
#     Edge 17, Type (0, 1), BuildingBlock: MIFKUJ_clean_linker_0, # of connection points: 2
#     Edge 18, Type (0, 1), BuildingBlock: MIFKUJ_clean_linker_0, # of connection points: 2
#     Edge 19, Type (0, 1), BuildingBlock: MIFKUJ_clean_linker_0, # of connection points: 2
#     Edge 20, Type (0, 1), BuildingBlock: MIFKUJ_clean_linker_0, # of connection points: 2
#     Edge 21, Type (0, 1), BuildingBlock: MIFKUJ_clean_linker_0, # of connection points: 2
#     Edge 22, Type (0, 1), BuildingBlock: MIFKUJ_clean_linker_0, # of connection points: 2
#     Edge 23, Type (0, 1), BuildingBlock: MIFKUJ_clean_linker_0, # of connection points: 2
#     Edge 24, Type (0, 1), BuildingBlock: MIFKUJ_clean_linker_0, # of connection points: 2
#     Edge 25, Type (0, 1), BuildingBlock: MIFKUJ_clean_linker_0, # of connection points: 2
#     Edge 26, Type (0, 1), BuildingBlock: MIFKUJ_clean_linker_0, # of connection points: 2
#     Edge 27, Type (0, 1), BuildingBlock: MIFKUJ_clean_linker_0, # of connection points: 2
#     Edge 28, Type (0, 1), BuildingBlock: MIFKUJ_clean_linker_0, # of connection points: 2
#     Edge 29, Type (0, 1), BuildingBlock: MIFKUJ_clean_linker_0, # of connection points: 2
#     Edge 30, Type (0, 1), BuildingBlock: MIFKUJ_clean_linker_0, # of connection points: 2
#     Edge 31, Type (0, 1), BuildingBlock: MIFKUJ_clean_linker_0, # of connection points: 2
#     Edge 32, Type (0, 1), BuildingBlock: MIFKUJ_clean_linker_0, # of connection points: 2
#     Edge 33, Type (0, 1), BuildingBlock: MIFKUJ_clean_linker_0, # of connection points: 2
# Relax obj value: 0.009
# Max RMSD: 0.042
# Mean RMSD: 0.040
data_MOF--net-llj--node1-QEWDON_clean_sbu_0--node2-BELTOD_clean_linker_0--edge1-MIFKUJ_clean_linker_0
_symmetry_space_group_name_H-M    P1
_symmetry_Int_Tables_number       1
_symmetry_cell_setting            triclinic
loop_
_symmetry_equiv_pos_as_xyz
'x, y, z'
_cell_length_a     52.222917
_cell_length_b     52.234896
_cell_length_c     36.193334
_cell_angle_alpha  89.399535
_cell_angle_beta   90.076182
_cell_angle_gamma 90.054729
loop_
_atom_site_label
_atom_site_type_symbol
_atom_site_fract_x
_atom_site_fract_y
_atom_site_fract_z
_atom_type_partial_charge
Zn0 Zn 0.92497 0.05727 0.99026 0.0
Zn1 Zn 0.94039 0.0609 0.07625 0.0
O2 O 0.95423 0.0547 0.02607 0.0
H3 H 0.97095 0.04862 0.01913 0.0
C4 C 0.91494 0.99825 0.94795 0.0
O5 O 0.9029 0.006 0.97766 0.0
Zn6 Zn 0.02646 0.94512 0.05302 0.0
Zn7 Zn 0.02988 0.95194 0.96949 0.0
O8 O 0.00315 0.94443 0.00947 0.0
H9 H 0.98773 0.93431 0.0073 0.0
Zn10 Zn 0.93711 0.96554 0.00338 0.0
O11 O 0.94353 0.99148 0.04337 0.0
Zn12 Zn 0.94211 0.96881 0.0879 0.0
H13 H 0.9559 0.00503 0.03997 0.0
Zn14 Zn 0.02362 0.04494 0.97072 0.0
O15 O 0.01421 0.02132 0.01368 0.0
H16 H 0.00286 0.0067 0.01263 0.0
Zn17 Zn 0.02462 0.04058 0.0585 0.0
C18 C 0.04624 0.00834 0.92399 0.0
O19 O 0.05516 0.00194 0.95677 0.0
O20 O 0.8945 0.07724 0.01215 0.0
O21 O 0.90632 0.07958 0.07138 0.0
O22 O 0.06496 0.93532 0.98029 0.0
O23 O 0.06 0.92806 0.04034 0.0
O24 O 0.91329 0.93651 0.02039 0.0
O25 O 0.91481 0.94108 0.08136 0.0
C26 C 0.98901 0.07641 0.09976 0.0
O27 O 0.04977 0.07298 0.98486 0.0
O28 O 0.05103 0.06763 0.04592 0.0
O29 O 0.01827 0.95022 0.91507 0.0
C30 C 0.89056 0.08458 0.04521 0.0
O31 O 0.93836 0.06424 0.93727 0.0
C32 C 0.98749 0.93321 0.10524 0.0
O33 O 0.93124 0.98035 0.95101 0.0
C34 C 0.07314 0.9262 0.01085 0.0
O35 O 0.03084 0.02705 0.92132 0.0
C36 C 0.93283 0.01498 0.13079 0.0
O37 O 0.96582 0.08268 0.10455 0.0
O38 O 0.99343 0.05816 0.0777 0.0
C39 C 0.906 0.92998 0.05272 0.0
O40 O 0.00985 0.92665 0.09537 0.0
O41 O 0.97715 0.95224 0.08884 0.0
C42 C 0.03841 0.99233 0.09557 0.0
O43 O 0.93413 0.99068 0.13316 0.0
O44 O 0.93746 0.02545 0.09958 0.0
C45 C 0.05861 0.07888 0.01649 0.0
O46 O 0.03779 0.01647 0.0979 0.0
O47 O 0.03135 0.98199 0.06564 0.0
C48 C 0.99474 0.95064 0.90633 0.0
O49 O 0.97752 0.95299 0.93246 0.0
C50 C 0.95731 0.0795 0.93563 0.0
O51 O 0.9648 0.09095 0.96595 0.0
Zn52 Zn 0.44305 0.5364 0.48363 0.0
Zn53 Zn 0.44827 0.5384 0.57166 0.0
O54 O 0.46649 0.52689 0.52634 0.0
H55 H 0.48062 0.51502 0.52534 0.0
C56 C 0.39852 0.48001 0.42442 0.0
O57 O 0.37909 0.47712 0.44713 0.0
Zn58 Zn 0.51426 0.45704 0.56748 0.0
Zn59 Zn 0.51628 0.44988 0.48232 0.0
O60 O 0.49186 0.45956 0.5232 0.0
H61 H 0.47638 0.46949 0.52016 0.0
Zn62 Zn 0.4219 0.455 0.48625 0.0
O63 O 0.41771 0.48112 0.52652 0.0
Zn64 Zn 0.41941 0.45854 0.57114 0.0
H65 H 0.40824 0.49694 0.5239 0.0
Zn66 Zn 0.54679 0.54781 0.45955 0.0
O67 O 0.53425 0.52426 0.50025 0.0
H68 H 0.52696 0.50739 0.49737 0.0
Zn69 Zn 0.53932 0.54303 0.54715 0.0
C70 C 0.58629 0.51972 0.42202 0.0
O71 O 0.59662 0.52129 0.45504 0.0
O72 O 0.4159 0.56332 0.49793 0.0
O73 O 0.42293 0.56664 0.55839 0.0
O74 O 0.54558 0.42612 0.50028 0.0
O75 O 0.54085 0.42931 0.56109 0.0
O76 O 0.4028 0.42136 0.49891 0.0
O77 O 0.40057 0.42519 0.56008 0.0
C78 C 0.4974 0.55355 0.60086 0.0
O79 O 0.56434 0.58068 0.47822 0.0
O80 O 0.55919 0.57575 0.53885 0.0
O81 O 0.4988 0.44151 0.43268 0.0
C82 C 0.41131 0.57372 0.52895 0.0
O83 O 0.46035 0.54105 0.43241 0.0
C84 C 0.46864 0.44918 0.61224 0.0
O85 O 0.4201 0.47075 0.43363 0.0
C86 C 0.55191 0.41965 0.53311 0.0
O87 O 0.56448 0.52978 0.41624 0.0
C88 C 0.4127 0.50084 0.61433 0.0
O89 O 0.47398 0.55109 0.60959 0.0
O90 O 0.50425 0.54783 0.56839 0.0
C91 C 0.39564 0.41294 0.53049 0.0
O92 O 0.49294 0.44957 0.61262 0.0
O93 O 0.457 0.45348 0.58192 0.0
C94 C 0.55279 0.49808 0.58638 0.0
O95 O 0.40405 0.4781 0.61347 0.0
O96 O 0.42895 0.50723 0.58972 0.0
C97 C 0.5678 0.58832 0.51117 0.0
O98 O 0.5601 0.52098 0.58106 0.0
O99 O 0.53199 0.49097 0.5713 0.0
C100 C 0.47661 0.43162 0.43466 0.0
O101 O 0.46643 0.42747 0.46736 0.0
C102 C 0.4819 0.55237 0.43137 0.0
O103 O 0.49217 0.56016 0.46246 0.0
P104 P 0.37564 0.24431 0.01677 0.0
H105 H 0.38597 0.23196 0.09399 0.0
H106 H 0.39589 0.25845 0.14768 0.0
H107 H 0.39131 0.32635 0.0788 0.0
H108 H 0.38149 0.29998 0.02557 0.0
H109 H 0.34969 0.19868 0.99014 0.0
H110 H 0.3056 0.18335 0.99572 0.0
H111 H 0.286 0.25094 0.05748 0.0
H112 H 0.32997 0.26638 0.05103 0.0
H113 H 0.42139 0.25657 0.97486 0.0
H114 H 0.34069 0.27357 0.96854 0.0
O115 O 0.39515 0.21903 0.01667 0.0
H116 H 0.42955 0.28636 0.92371 0.0
H117 H 0.34873 0.30362 0.91762 0.0
C118 C 0.38355 0.26391 0.0557 0.0
C119 C 0.38729 0.25253 0.09049 0.0
C120 C 0.39275 0.26768 0.12112 0.0
C121 C 0.39452 0.29444 0.1173 0.0
C122 C 0.39049 0.30575 0.08241 0.0
C123 C 0.38486 0.29063 0.05193 0.0
C124 C 0.34316 0.23334 0.02084 0.0
C125 C 0.3359 0.21012 0.00498 0.0
C126 C 0.31073 0.20135 0.00834 0.0
C127 C 0.29236 0.2158 0.02742 0.0
C128 C 0.29965 0.23941 0.04252 0.0
C129 C 0.32484 0.24815 0.03912 0.0
C130 C 0.38043 0.2625 0.97496 0.0
C131 C 0.40537 0.26632 0.96193 0.0
C132 C 0.41003 0.28357 0.93302 0.0
C133 C 0.38978 0.29744 0.91683 0.0
C134 C 0.36467 0.29301 0.9293 0.0
C135 C 0.36005 0.27579 0.95836 0.0
P136 P 0.75436 0.40421 0.99212 0.0
H137 H 0.77524 0.42912 0.05729 0.0
H138 H 0.75538 0.44456 0.11402 0.0
H139 H 0.6808 0.42481 0.07083 0.0
H140 H 0.70087 0.40902 0.01455 0.0
H141 H 0.80073 0.37406 0.00561 0.0
H142 H 0.80751 0.3294 0.02373 0.0
H143 H 0.72568 0.31712 0.02495 0.0
H144 H 0.71903 0.36193 0.00667 0.0
H145 H 0.72969 0.44894 0.95979 0.0
H146 H 0.73641 0.36868 0.93459 0.0
O147 O 0.78238 0.41857 0.98397 0.0
H148 H 0.70299 0.45534 0.90477 0.0
H149 H 0.70943 0.37491 0.88004 0.0
C150 C 0.73946 0.41849 0.03149 0.0
C151 C 0.75459 0.42855 0.05983 0.0
C152 C 0.74321 0.43736 0.0922 0.0
C153 C 0.71652 0.43594 0.09687 0.0
C154 C 0.70143 0.42596 0.0682 0.0
C155 C 0.71284 0.41718 0.03586 0.0
C156 C 0.7594 0.37113 0.00416 0.0
C157 C 0.78425 0.36176 0.00961 0.0
C158 C 0.78809 0.3363 0.02034 0.0
C159 C 0.76711 0.31979 0.02581 0.0
C160 C 0.7422 0.32934 0.02062 0.0
C161 C 0.73839 0.35489 0.01019 0.0
C162 C 0.73456 0.40828 0.95174 0.0
C163 C 0.72528 0.43268 0.94256 0.0
C164 C 0.71014 0.43633 0.91109 0.0
C165 C 0.70401 0.41557 0.88834 0.0
C166 C 0.71353 0.39115 0.89745 0.0
C167 C 0.72893 0.38759 0.9287 0.0
P168 P 0.68065 0.64887 0.02071 0.0
H169 H 0.69853 0.64092 0.94534 0.0
H170 H 0.67593 0.63767 0.88613 0.0
H171 H 0.60484 0.65634 0.94037 0.0
H172 H 0.62748 0.65982 -0.00079 0.0
H173 H 0.7227 0.66018 0.07055 0.0
H174 H 0.7479 0.69883 0.08169 0.0
H175 H 0.70204 0.74002 0.00135 0.0
H176 H 0.67711 0.70119 0.99011 0.0
H177 H 0.64948 0.60436 0.03794 0.0
H178 H 0.66034 0.68019 0.0814 0.0
O179 O 0.70123 0.62445 0.0204 0.0
H180 H 0.61715 0.59553 0.0853 0.0
H181 H 0.62807 0.67148 0.1288 0.0
C182 C 0.66456 0.64988 0.97674 0.0
C183 C 0.67813 0.64458 0.94434 0.0
C184 C 0.66525 0.64288 0.91055 0.0
C185 C 0.63859 0.64642 0.90884 0.0
C186 C 0.62533 0.65311 0.94108 0.0
C187 C 0.63826 0.65505 0.97471 0.0
C188 C 0.69846 0.67772 0.02898 0.0
C189 C 0.71814 0.67754 0.0553 0.0
C190 C 0.73237 0.69969 0.06187 0.0
C191 C 0.72707 0.72246 0.04225 0.0
C192 C 0.70686 0.72267 0.01647 0.0
C193 C 0.69258 0.7005 0.01004 0.0
C194 C 0.6576 0.64271 0.0566 0.0
C195 C 0.64497 0.61904 0.05782 0.0
C196 C 0.62634 0.61412 0.08462 0.0
C197 C 0.6201 0.63281 0.11075 0.0
C198 C 0.63269 0.65662 0.10925 0.0
C199 C 0.65118 0.6616 0.0822 0.0
P200 P 0.36816 0.71522 0.02406 0.0
H201 H 0.37257 0.72983 0.94663 0.0
H202 H 0.3723 0.7052 0.88934 0.0
H203 H 0.36612 0.63513 0.95318 0.0
H204 H 0.36642 0.65957 0.00987 0.0
H205 H 0.35312 0.76013 0.06555 0.0
H206 H 0.31428 0.78641 0.06533 0.0
H207 H 0.28024 0.73627 0.98474 0.0
H208 H 0.31892 0.71003 0.98527 0.0
H209 H 0.40858 0.70495 0.07821 0.0
H210 H 0.33094 0.68066 0.05814 0.0
O211 O 0.39293 0.73544 0.02408 0.0
H212 H 0.41156 0.67525 0.13034 0.0
H213 H 0.33417 0.64961 0.10876 0.0
C214 C 0.36959 0.69662 0.98254 0.0
C215 C 0.37133 0.70915 0.94821 0.0
C216 C 0.37113 0.69509 0.91557 0.0
C217 C 0.36899 0.66826 0.91683 0.0
C218 C 0.36732 0.6558 0.95133 0.0
C219 C 0.36766 0.66985 0.98389 0.0
C220 C 0.33912 0.73357 0.02478 0.0
C221 C 0.33726 0.75481 0.0479 0.0
C222 C 0.31504 0.76968 0.04791 0.0
C223 C 0.29438 0.76348 0.02473 0.0
C224 C 0.29606 0.74171 0.00238 0.0
C225 C 0.31819 0.72674 0.00266 0.0
C226 C 0.3695 0.69506 0.06454 0.0
C227 C 0.39212 0.69324 0.08514 0.0
C228 C 0.39389 0.67595 0.11471 0.0
C229 C 0.37321 0.6597 0.12369 0.0
C230 C 0.35038 0.66199 0.10317 0.0
C231 C 0.34849 0.67967 0.07407 0.0
P232 P 0.8895 0.73985 0.52518 0.0
H233 H 0.92738 0.73872 0.58515 0.0
H234 H 0.9408 0.77107 0.62961 0.0
H235 H 0.88314 0.82277 0.58679 0.0
H236 H 0.86988 0.79035 0.54236 0.0
H237 H 0.85486 0.71617 0.47251 0.0
H238 H 0.80962 0.70417 0.47562 0.0
H239 H 0.8067 0.72917 0.58893 0.0
H240 H 0.85196 0.7411 0.58569 0.0
H241 H 0.93624 0.74797 0.48308 0.0
H242 H 0.85694 0.77026 0.47528 0.0
O243 O 0.90798 0.71387 0.52822 0.0
H244 H 0.94616 0.77448 0.429 0.0
H245 H 0.86628 0.79559 0.42011 0.0
C246 C 0.89766 0.76222 0.56058 0.0
C247 C 0.91745 0.75689 0.58563 0.0
C248 C 0.92505 0.77536 0.61105 0.0
C249 C 0.91307 0.79946 0.61149 0.0
C250 C 0.89291 0.80448 0.58674 0.0
C251 C 0.88524 0.78596 0.56153 0.0
C252 C 0.85652 0.7302 0.52847 0.0
C253 C 0.84444 0.71919 0.49794 0.0
C254 C 0.8186 0.71246 0.4997 0.0
C255 C 0.80458 0.71614 0.53234 0.0
C256 C 0.81703 0.72624 0.5634 0.0
C257 C 0.84285 0.73319 0.56147 0.0
C258 C 0.89574 0.75643 0.4824 0.0
C259 C 0.92085 0.75802 0.46907 0.0
C260 C 0.92646 0.7732 0.43812 0.0
C261 C 0.90699 0.78712 0.41997 0.0
C262 C 0.88181 0.78539 0.43354 0.0
C263 C 0.87633 0.77048 0.46475 0.0
P264 P 0.22788 0.88523 0.51284 0.0
H265 H 0.23879 0.90668 0.58527 0.0
H266 H 0.21147 0.91801 0.63736 0.0
H267 H 0.14523 0.89067 0.57788 0.0
H268 H 0.17271 0.87945 0.52578 0.0
H269 H 0.25286 0.85271 0.45891 0.0
H270 H 0.27131 0.80973 0.46292 0.0
H271 H 0.24679 0.80356 0.57663 0.0
H272 H 0.22852 0.84651 0.5725 0.0
H273 H 0.21807 0.9327 0.47305 0.0
H274 H 0.1977 0.85309 0.46249 0.0
O275 O 0.25361 0.90418 0.51372 0.0
H276 H 0.19182 0.9433 0.41905 0.0
H277 H 0.17143 0.86354 0.4083 0.0
C278 C 0.20769 0.89277 0.55142 0.0
C279 C 0.21839 0.90317 0.58342 0.0
C280 C 0.20277 0.90945 0.61326 0.0
C281 C 0.17617 0.90535 0.6116 0.0
C282 C 0.1656 0.8944 0.57971 0.0
C283 C 0.18129 0.88796 0.54996 0.0
C284 C 0.2389 0.85262 0.51513 0.0
C285 C 0.25109 0.84192 0.48449 0.0
C286 C 0.26158 0.81735 0.48681 0.0
C287 C 0.26041 0.80324 0.52007 0.0
C288 C 0.2481 0.81403 0.5507 0.0
C289 C 0.23747 0.83854 0.54826 0.0
C290 C 0.21036 0.89206 0.47111 0.0
C291 C 0.20824 0.91746 0.45875 0.0
C292 C 0.19306 0.92351 0.42812 0.0
C293 C 0.17964 0.90423 0.40943 0.0
C294 C 0.18187 0.87873 0.42185 0.0
C295 C 0.19693 0.87273 0.45272 0.0
P296 P 0.18247 0.11857 0.52851 0.0
H297 H 0.19546 0.13914 0.4551 0.0
H298 H 0.17344 0.1378 0.39535 0.0
H299 H 0.11271 0.09306 0.44469 0.0
H300 H 0.13426 0.09504 0.5045 0.0
H301 H 0.23126 0.12896 0.56502 0.0
H302 H 0.25754 0.16762 0.5701 0.0
H303 H 0.20021 0.21055 0.50976 0.0
H304 H 0.1739 0.1719 0.50513 0.0
H305 H 0.16082 0.07409 0.56656 0.0
H306 H 0.15332 0.15622 0.57118 0.0
O307 O 0.20232 0.09356 0.52994 0.0
H308 H 0.12877 0.06941 0.61548 0.0
H309 H 0.12148 0.15166 0.62032 0.0
C310 C 0.16607 0.11802 0.48466 0.0
C311 C 0.17716 0.12949 0.4533 0.0
C312 C 0.16466 0.12863 0.41915 0.0
C313 C 0.14133 0.1155 0.41561 0.0
C314 C 0.13067 0.10334 0.44677 0.0
C315 C 0.14293 0.10463 0.48102 0.0
C316 C 0.20103 0.14741 0.5337 0.0
C317 C 0.22435 0.14669 0.5529 0.0
C318 C 0.23926 0.16881 0.55601 0.0
C319 C 0.23104 0.192 0.53991 0.0
C320 C 0.20722 0.19283 0.52182 0.0
C321 C 0.19221 0.17076 0.51911 0.0
C322 C 0.15984 0.1155 0.56577 0.0
C323 C 0.15247 0.09112 0.57835 0.0
C324 C 0.13401 0.08845 0.60603 0.0
C325 C 0.12272 0.11018 0.62173 0.0
C326 C 0.1301 0.1346 0.60898 0.0
C327 C 0.14833 0.13722 0.58094 0.0
P328 P 0.84831 0.21653 0.54308 0.0
H329 H 0.87123 0.23153 0.47227 0.0
H330 H 0.87684 0.20865 0.41413 0.0
H331 H 0.8378 0.14297 0.46108 0.0
H332 H 0.83192 0.16609 0.51871 0.0
H333 H 0.82558 0.24928 0.59864 0.0
H334 H 0.78356 0.26982 0.60369 0.0
H335 H 0.76002 0.23415 0.50193 0.0
H336 H 0.80189 0.21413 0.49677 0.0
H337 H 0.89534 0.19289 0.56913 0.0
H338 H 0.81482 0.18846 0.59477 0.0
O339 O 0.87003 0.23989 0.54565 0.0
H340 H 0.90425 0.15958 0.61551 0.0
H341 H 0.82355 0.15521 0.64103 0.0
C342 C 0.85172 0.20023 0.49994 0.0
C343 C 0.86388 0.21222 0.46996 0.0
C344 C 0.86706 0.19914 0.43681 0.0
C345 C 0.85789 0.17396 0.43312 0.0
C346 C 0.84488 0.16241 0.46292 0.0
C347 C 0.84178 0.17548 0.49602 0.0
C348 C 0.81696 0.23041 0.54722 0.0
C349 C 0.81129 0.24588 0.57752 0.0
C350 C 0.78725 0.25742 0.5805 0.0
C351 C 0.76855 0.25368 0.55309 0.0
C352 C 0.77417 0.23768 0.5232 0.0
C353 C 0.79815 0.22613 0.52031 0.0
C354 C 0.85456 0.19358 0.57926 0.0
C355 C 0.87964 0.18494 0.58507 0.0
C356 C 0.88466 0.16574 0.61122 0.0
C357 C 0.86459 0.15487 0.63194 0.0
C358 C 0.83943 0.16351 0.62584 0.0
C359 C 0.83443 0.18259 0.5995 0.0
H360 H 0.06854 0.10994 0.07482 0.0
H361 H 0.10332 0.141 0.08066 0.0
H362 H 0.12978 0.12172 0.97138 0.0
H363 H 0.09418 0.09188 0.9647 0.0
H364 H 0.15032 0.13514 0.08487 0.0
H365 H 0.16311 0.16721 0.9306 0.0
H366 H 0.1359 0.17671 0.87645 0.0
H367 H 0.07247 0.19289 0.94782 0.0
H368 H 0.09938 0.18384 0.00244 0.0
H369 H 0.27697 0.16695 0.0434 0.0
H370 H 0.23329 0.15059 0.04734 0.0
H371 H 0.20383 0.22649 0.02606 0.0
H372 H 0.24762 0.24286 0.02076 0.0
H373 H 0.17973 0.1938 0.98498 0.0
H374 H 0.19801 0.19902 0.11176 0.0
H375 H 0.22127 0.19397 0.17068 0.0
H376 H 0.21652 0.11221 0.16195 0.0
H377 H 0.19362 0.11671 0.10262 0.0
C378 C 0.0816 0.11267 0.05186 0.0
C379 C 0.07868 0.0986 0.01925 0.0
C380 C 0.10149 0.13039 0.05523 0.0
C381 C 0.11908 0.13403 0.0263 0.0
C382 C 0.11608 0.11994 0.99369 0.0
C383 C 0.09582 0.10271 0.98996 0.0
C384 C 0.14162 0.15107 0.03111 0.0
C385 C 0.15661 0.14811 0.06312 0.0
C386 C 0.14947 0.16873 0.00338 0.0
C387 C 0.13326 0.17469 0.97064 0.0
C388 C 0.14341 0.17297 0.93477 0.0
C389 C 0.12802 0.17823 0.90398 0.0
C390 C 0.10246 0.18534 0.90869 0.0
C391 C 0.09225 0.1873 0.94421 0.0
C392 C 0.10756 0.18208 0.97509 0.0
C393 C 0.2612 0.18016 0.03943 0.0
C394 C 0.26576 0.20618 0.03157 0.0
C395 C 0.23623 0.17085 0.04219 0.0
C396 C 0.21527 0.18737 0.03745 0.0
C397 C 0.21972 0.21342 0.03 0.0
C398 C 0.24475 0.22277 0.02719 0.0
C399 C 0.18885 0.17695 0.03795 0.0
C400 C 0.17317 0.18114 0.00695 0.0
C401 C 0.17992 0.16114 0.06721 0.0
C402 C 0.19427 0.15823 0.10249 0.0
C403 C 0.20218 0.17995 0.12215 0.0
C404 C 0.21528 0.17718 0.15567 0.0
C405 C 0.22047 0.15279 0.16996 0.0
C406 C 0.21254 0.1311 0.15078 0.0
C407 C 0.19949 0.13375 0.11721 0.0
H408 H 0.23052 0.15069 0.19598 0.0
H409 H 0.09057 0.18936 0.88481 0.0
H410 H 0.84564 0.08863 0.00678 0.0
H411 H 0.81401 0.12295 0.01132 0.0
H412 H 0.85612 0.15518 0.10245 0.0
H413 H 0.88686 0.12017 0.09939 0.0
H414 H 0.80818 0.16564 0.11126 0.0
H415 H 0.86746 0.17286 0.00927 0.0
H416 H 0.88897 0.15836 0.95256 0.0
H417 H 0.81648 0.15481 0.89667 0.0
H418 H 0.79452 0.16899 0.95325 0.0
H419 H 0.80005 0.30012 0.07751 0.0
H420 H 0.81079 0.25507 0.08822 0.0
H421 H 0.7547 0.23284 0.00701 0.0
H422 H 0.7441 0.2779 0.99582 0.0
H423 H 0.80236 0.21418 0.993 0.0
H424 H 0.74572 0.21752 0.0965 0.0
H425 H 0.72793 0.23436 0.15441 0.0
H426 H 0.79986 0.2215 0.20911 0.0
H427 H 0.81823 0.20495 0.15141 0.0
C428 C 0.84774 0.10269 0.02837 0.0
C429 C 0.86893 0.10201 0.05229 0.0
C430 C 0.82973 0.12234 0.03087 0.0
C431 C 0.83317 0.14213 0.05642 0.0
C432 C 0.85314 0.14027 0.08231 0.0
C433 C 0.87078 0.12025 0.08045 0.0
C434 C 0.81808 0.16615 0.05349 0.0
C435 C 0.80692 0.17631 0.08544 0.0
C436 C 0.81615 0.17996 0.01969 0.0
C437 C 0.82934 0.17167 0.98557 0.0
C438 C 0.85611 0.16884 0.98493 0.0
C439 C 0.86837 0.1607 0.95282 0.0
C440 C 0.85409 0.15559 0.92107 0.0
C441 C 0.82751 0.15871 0.92132 0.0
C442 C 0.81515 0.16681 0.95338 0.0
C443 C 0.78981 0.28559 0.06226 0.0
C444 C 0.7714 0.2925 0.03561 0.0
C445 C 0.79575 0.25986 0.06871 0.0
C446 C 0.7834 0.24062 0.04859 0.0
C447 C 0.76431 0.24741 0.02299 0.0
C448 C 0.75824 0.27313 0.0167 0.0
C449 C 0.79275 0.21389 0.05085 0.0
C450 C 0.80303 0.2033 0.0187 0.0
C451 C 0.79441 0.20012 0.08466 0.0
C452 C 0.78342 0.21017 0.11945 0.0
C453 C 0.75784 0.2185 0.12076 0.0
C454 C 0.74763 0.22795 0.1536 0.0
C455 C 0.76277 0.22904 0.1854 0.0
C456 C 0.78815 0.22066 0.18445 0.0
C457 C 0.79846 0.21121 0.15169 0.0
H458 H 0.75482 0.23635 0.2108 0.0
H459 H 0.86361 0.14927 0.89624 0.0
H460 H 0.8872 0.90785 0.11653 0.0
H461 H 0.85437 0.87437 0.12165 0.0
H462 H 0.84816 0.8724 0.00285 0.0
H463 H 0.88048 0.90576 0.99743 0.0
H464 H 0.80149 0.87298 0.03541 0.0
H465 H 0.88202 0.8274 0.05063 0.0
H466 H 0.92334 0.81844 0.08124 0.0
H467 H 0.88426 0.80276 0.18327 0.0
H468 H 0.84284 0.81202 0.15351 0.0
H469 H 0.74601 0.75502 0.98949 0.0
H470 H 0.77373 0.7921 0.99821 0.0
H471 H 0.77249 0.77927 0.11616 0.0
H472 H 0.74472 0.74197 0.10757 0.0
H473 H 0.82 0.78846 0.09321 0.0
H474 H 0.73923 0.82914 0.07703 0.0
H475 H 0.69764 0.83839 0.04748 0.0
H476 H 0.7361 0.86402 0.94903 0.0
H477 H 0.77793 0.85458 0.97778 0.0
C478 C 0.87881 0.90029 0.09152 0.0
C479 C 0.8865 0.9095 0.05657 0.0
C480 C 0.86011 0.88114 0.0945 0.0
C481 C 0.84889 0.87087 0.06259 0.0
C482 C 0.85648 0.88013 0.02781 0.0
C483 C 0.8751 0.89915 0.0248 0.0
C484 C 0.82938 0.85028 0.06484 0.0
C485 C 0.80555 0.85444 0.04787 0.0
C486 C 0.83441 0.82641 0.08217 0.0
C487 C 0.85937 0.82067 0.09996 0.0
C488 C 0.88229 0.82224 0.07969 0.0
C489 C 0.90574 0.81708 0.0969 0.0
C490 C 0.90647 0.8101 0.13426 0.0
C491 C 0.88375 0.80822 0.15443 0.0
C492 C 0.86027 0.81341 0.13741 0.0
C493 C 0.7513 0.7603 0.01734 0.0
C494 C 0.74307 0.74562 0.04785 0.0
C495 C 0.76718 0.7815 0.0223 0.0
C496 C 0.77493 0.78868 0.0579 0.0
C497 C 0.76673 0.7741 0.08845 0.0
C498 C 0.75091 0.75278 0.08349 0.0
C499 C 0.79231 0.8109 0.06282 0.0
C500 C 0.81573 0.80709 0.08119 0.0
C501 C 0.78686 0.83516 0.04689 0.0
C502 C 0.76173 0.84097 0.0295 0.0
C503 C 0.73882 0.83658 0.04898 0.0
C504 C 0.7152 0.84188 0.03239 0.0
C505 C 0.71423 0.85175 0.99638 0.0
C506 C 0.73688 0.85637 0.97692 0.0
C507 C 0.76055 0.85108 0.99337 0.0
H508 H 0.69592 0.85584 0.98359 0.0
H509 H 0.92463 0.80606 0.14751 0.0
H510 H 0.10361 0.91297 0.95258 0.0
H511 H 0.14224 0.88657 0.95442 0.0
H512 H 0.13664 0.88092 0.07312 0.0
H513 H 0.09814 0.9074 0.0717 0.0
H514 H 0.18612 0.88908 0.04941 0.0
H515 H 0.11543 0.83289 0.02181 0.0
H516 H 0.07758 0.81887 0.98657 0.0
H517 H 0.12324 0.81339 0.88839 0.0
H518 H 0.16132 0.82773 0.92296 0.0
H519 H 0.26745 0.78321 0.08245 0.0
H520 H 0.23037 0.81176 0.07941 0.0
H521 H 0.23293 0.81012 0.96026 0.0
H522 H 0.26968 0.78118 0.96322 0.0
H523 H 0.18529 0.80646 0.98293 0.0
H524 H 0.25619 0.86161 0.00978 0.0
H525 H 0.29425 0.87615 0.0441 0.0
H526 H 0.24887 0.8845 0.14208 0.0
H527 H 0.21059 0.86965 0.10847 0.0
C528 C 0.1107 0.90631 0.97913 0.0
C529 C 0.09765 0.91208 0.01197 0.0
C530 C 0.13272 0.89116 0.98009 0.0
C531 C 0.14203 0.88154 0.01387 0.0
C532 C 0.12967 0.8881 0.04678 0.0
C533 C 0.10762 0.90316 0.04587 0.0
C534 C 0.16417 0.86391 0.01487 0.0
C535 C 0.1859 0.87089 0.03521 0.0
C536 C 0.16398 0.84048 0.99562 0.0
C537 C 0.14116 0.83163 0.97489 0.0
C538 C 0.11736 0.82888 0.99264 0.0
C539 C 0.09587 0.82084 0.9728 0.0
C540 C 0.09799 0.81531 0.93524 0.0
C541 C 0.12162 0.81772 0.91747 0.0
C542 C 0.14316 0.82578 0.93718 0.0
C543 C 0.2601 0.789 0.05565 0.0
C544 C 0.27146 0.78009 0.02307 0.0
C545 C 0.23897 0.80533 0.05392 0.0
C546 C 0.22915 0.81342 0.01958 0.0
C547 C 0.24021 0.80416 0.98704 0.0
C548 C 0.26115 0.78761 0.98876 0.0
C549 C 0.20737 0.83157 0.01756 0.0
C550 C 0.18565 0.82469 0.99704 0.0
C551 C 0.20764 0.85516 0.03648 0.0
C552 C 0.23058 0.86429 0.05669 0.0
C553 C 0.25436 0.86638 0.03871 0.0
C554 C 0.27597 0.8747 0.05803 0.0
C555 C 0.27399 0.88119 0.09527 0.0
C556 C 0.25038 0.87944 0.11325 0.0
C557 C 0.22872 0.87109 0.09407 0.0
H558 H 0.29074 0.88762 0.11018 0.0
H559 H 0.08133 0.8091 0.91993 0.0
H560 H 0.59416 0.59881 0.57423 0.0
H561 H 0.62982 0.62834 0.58061 0.0
H562 H 0.61661 0.65692 0.46991 0.0
H563 H 0.58159 0.62631 0.46259 0.0
H564 H 0.66303 0.64375 0.47567 0.0
H565 H 0.60906 0.6943 0.5542 0.0
H566 H 0.57906 0.70097 0.60577 0.0
H567 H 0.63542 0.6732 0.68276 0.0
H568 H 0.66565 0.66602 0.63162 0.0
H569 H 0.76769 0.72765 0.48156 0.0
H570 H 0.72305 0.71348 0.4814 0.0
H571 H 0.73483 0.67484 0.58599 0.0
H572 H 0.77948 0.68928 0.58651 0.0
H573 H 0.68772 0.69692 0.58275 0.0
H574 H 0.73892 0.64208 0.50674 0.0
H575 H 0.7693 0.6321 0.45682 0.0
H576 H 0.71791 0.66511 0.37684 0.0
H577 H 0.68738 0.67563 0.4264 0.0
C578 C 0.5984 0.61181 0.55152 0.0
C579 C 0.58526 0.61005 0.5177 0.0
C580 C 0.61879 0.62885 0.55532 0.0
C581 C 0.62597 0.64498 0.52583 0.0
C582 C 0.61156 0.64457 0.49301 0.0
C583 C 0.5915 0.62713 0.48887 0.0
C584 C 0.65039 0.65956 0.52737 0.0
C585 C 0.66805 0.65595 0.49866 0.0
C586 C 0.65752 0.6746 0.5581 0.0
C587 C 0.6396 0.67957 0.58902 0.0
C588 C 0.61504 0.68955 0.58211 0.0
C589 C 0.59799 0.69341 0.61128 0.0
C590 C 0.60532 0.68749 0.64751 0.0
C591 C 0.62978 0.67782 0.65468 0.0
C592 C 0.6469 0.6739 0.62562 0.0
C593 C 0.7607 0.71624 0.50459 0.0
C594 C 0.77709 0.70926 0.53381 0.0
C595 C 0.73521 0.70825 0.50455 0.0
C596 C 0.72576 0.6928 0.53342 0.0
C597 C 0.74175 0.68677 0.56347 0.0
C598 C 0.76724 0.69497 0.56369 0.0
C599 C 0.69989 0.6813 0.53083 0.0
C600 C 0.68224 0.68523 0.55943 0.0
C601 C 0.69273 0.66631 0.50018 0.0
C602 C 0.71101 0.6599 0.47032 0.0
C603 C 0.7342 0.64739 0.47854 0.0
C604 C 0.75143 0.64161 0.45031 0.0
C605 C 0.74557 0.64804 0.41369 0.0
C606 C 0.72244 0.66019 0.40522 0.0
C607 C 0.70516 0.66606 0.43337 0.0
H608 H 0.75893 0.64354 0.39187 0.0
H609 H 0.59207 0.69042 0.67004 0.0
H610 H 0.40524 0.6085 0.58422 0.0
H611 H 0.37691 0.64564 0.58458 0.0
H612 H 0.34676 0.62417 0.47821 0.0
H613 H 0.37556 0.58739 0.47719 0.0
H614 H 0.35826 0.67281 0.47792 0.0
H615 H 0.31215 0.61704 0.56193 0.0
H616 H 0.30728 0.58914 0.61691 0.0
H617 H 0.32806 0.65163 0.68704 0.0
H618 H 0.3333 0.67978 0.63256 0.0
H619 H 0.2587 0.76396 0.47073 0.0
H620 H 0.28152 0.72311 0.47427 0.0
H621 H 0.31353 0.74444 0.57953 0.0
H622 H 0.29056 0.78518 0.5763 0.0
H623 H 0.30004 0.69532 0.58077 0.0
H624 H 0.34823 0.75021 0.49973 0.0
H625 H 0.35515 0.77913 0.44637 0.0
H626 H 0.33302 0.71928 0.37238 0.0
H627 H 0.32561 0.6901 0.42536 0.0
C628 C 0.39242 0.61155 0.56104 0.0
C629 C 0.39278 0.59509 0.53054 0.0
C630 C 0.37611 0.63274 0.56138 0.0
C631 C 0.35948 0.63759 0.53159 0.0
C632 C 0.35945 0.62085 0.50148 0.0
C633 C 0.37594 0.59984 0.50092 0.0
C634 C 0.34315 0.66085 0.53074 0.0
C635 C 0.34517 0.67746 0.50013 0.0
C636 C 0.32673 0.66741 0.56029 0.0
C637 C 0.32329 0.65048 0.59311 0.0
C638 C 0.31581 0.62478 0.58908 0.0
C639 C 0.31296 0.60892 0.62018 0.0
C640 C 0.31737 0.61858 0.65549 0.0
C641 C 0.32461 0.64414 0.65975 0.0
C642 C 0.32749 0.66007 0.62876 0.0
C643 C 0.27059 0.75991 0.49463 0.0
C644 C 0.27296 0.77783 0.52313 0.0
C645 C 0.2836 0.73658 0.49664 0.0
C646 C 0.29954 0.73088 0.52692 0.0
C647 C 0.30133 0.74842 0.55592 0.0
C648 C 0.28817 0.77167 0.55406 0.0
C649 C 0.31501 0.70705 0.52779 0.0
C650 C 0.31294 0.69047 0.55843 0.0
C651 C 0.3316 0.70058 0.49845 0.0
C652 C 0.3361 0.71807 0.46653 0.0
C653 C 0.34464 0.74328 0.47209 0.0
C654 C 0.34868 0.75971 0.44192 0.0
C655 C 0.34446 0.75107 0.40601 0.0
C656 C 0.33624 0.72596 0.40021 0.0
C657 C 0.33213 0.70947 0.4303 0.0
H658 H 0.3476 0.76381 0.38268 0.0
H659 H 0.31512 0.6063 0.67952 0.0
H660 H 0.38177 0.38584 0.59258 0.0
H661 H 0.35439 0.34784 0.59612 0.0
H662 H 0.34723 0.34823 0.47741 0.0
H663 H 0.37459 0.38612 0.47348 0.0
H664 H 0.30042 0.34388 0.51416 0.0
H665 H 0.38427 0.3049 0.51766 0.0
H666 H 0.42793 0.29859 0.54213 0.0
H667 H 0.39709 0.27738 0.64803 0.0
H668 H 0.35323 0.2839 0.62431 0.0
H669 H 0.24305 0.22409 0.48273 0.0
H670 H 0.27122 0.26141 0.48361 0.0
H671 H 0.28457 0.24943 0.60024 0.0
H672 H 0.25682 0.21157 0.59919 0.0
H673 H 0.32777 0.26054 0.56801 0.0
H674 H 0.24461 0.29803 0.56664 0.0
H675 H 0.2004 0.30549 0.54512 0.0
H676 H 0.22863 0.33111 0.43967 0.0
H677 H 0.27302 0.32348 0.46039 0.0
C678 C 0.37451 0.37776 0.56718 0.0
C679 C 0.38034 0.38907 0.53273 0.0
C680 C 0.35892 0.35601 0.56928 0.0
C681 C 0.34884 0.34524 0.53702 0.0
C682 C 0.3548 0.35631 0.50262 0.0
C683 C 0.37053 0.37791 0.50045 0.0
C684 C 0.33147 0.32283 0.53907 0.0
C685 C 0.30645 0.32554 0.5255 0.0
C686 C 0.33913 0.29925 0.55512 0.0
C687 C 0.36548 0.29514 0.56931 0.0
C688 C 0.38681 0.29909 0.54625 0.0
C689 C 0.41159 0.29543 0.55996 0.0
C690 C 0.41529 0.28766 0.59664 0.0
C691 C 0.3942 0.28344 0.61964 0.0
C692 C 0.36937 0.28709 0.60607 0.0
C693 C 0.25181 0.22956 0.50862 0.0
C694 C 0.24762 0.21505 0.54095 0.0
C695 C 0.26789 0.25092 0.50913 0.0
C696 C 0.27971 0.25854 0.54214 0.0
C697 C 0.27565 0.24397 0.57445 0.0
C698 C 0.25979 0.22238 0.57385 0.0
C699 C 0.29666 0.28142 0.54263 0.0
C700 C 0.32161 0.27886 0.55676 0.0
C701 C 0.28882 0.30529 0.52755 0.0
C702 C 0.26214 0.30996 0.51498 0.0
C703 C 0.24138 0.30508 0.53877 0.0
C704 C 0.21629 0.30936 0.52673 0.0
C705 C 0.21171 0.31871 0.49102 0.0
C706 C 0.23221 0.32385 0.46731 0.0
C707 C 0.25735 0.31957 0.4792 0.0
H708 H 0.19227 0.32202 0.48175 0.0
H709 H 0.43449 0.28484 0.60721 0.0
H710 H 0.58296 0.3984 0.48109 0.0
H711 H 0.61657 0.36671 0.4906 0.0
H712 H 0.60071 0.36529 0.6076 0.0
H713 H 0.56744 0.39766 0.59849 0.0
H714 H 0.65005 0.3655 0.59737 0.0
H715 H 0.58174 0.3156 0.55132 0.0
H716 H 0.5462 0.30352 0.51013 0.0
H717 H 0.59852 0.29742 0.41925 0.0
H718 H 0.63436 0.30984 0.45976 0.0
H719 H 0.73732 0.26023 0.61312 0.0
H720 H 0.69709 0.28428 0.61555 0.0
H721 H 0.70376 0.3021 0.49929 0.0
H722 H 0.74373 0.27806 0.49663 0.0
H723 H 0.65505 0.28885 0.51782 0.0
H724 H 0.72131 0.3474 0.56636 0.0
H725 H 0.75605 0.35658 0.61067 0.0
H726 H 0.70496 0.34139 0.70121 0.0
H727 H 0.6699 0.33259 0.65743 0.0
C728 C 0.58654 0.39134 0.50886 0.0
C729 C 0.57237 0.40045 0.53897 0.0
C730 C 0.60567 0.37308 0.51424 0.0
C731 C 0.6108 0.36319 0.54972 0.0
C732 C 0.59696 0.3725 0.57995 0.0
C733 C 0.57792 0.39098 0.57465 0.0
C734 C 0.63111 0.34366 0.55505 0.0
C735 C 0.65085 0.34851 0.58041 0.0
C736 C 0.6322 0.32139 0.53311 0.0
C737 C 0.61073 0.31383 0.50856 0.0
C738 C 0.58566 0.31187 0.52249 0.0
C739 C 0.56546 0.30493 0.49927 0.0
C740 C 0.57009 0.29975 0.46208 0.0
C741 C 0.59496 0.30145 0.44806 0.0
C742 C 0.61523 0.3084 0.47116 0.0
C743 C 0.73018 0.26931 0.58812 0.0
C744 C 0.74369 0.26731 0.5547 0.0
C745 C 0.70721 0.283 0.58954 0.0
C746 C 0.69758 0.29518 0.55766 0.0
C747 C 0.71079 0.29276 0.52417 0.0
C748 C 0.73361 0.27898 0.52269 0.0
C749 C 0.67427 0.31128 0.559 0.0
C750 C 0.65396 0.3057 0.53501 0.0
C751 C 0.67241 0.33261 0.58259 0.0
C752 C 0.6931 0.33925 0.60873 0.0
C753 C 0.71752 0.34618 0.59574 0.0
C754 C 0.73724 0.35136 0.62075 0.0
C755 C 0.73273 0.3496 0.65875 0.0
C756 C 0.70842 0.34291 0.6718 0.0
C757 C 0.68859 0.33796 0.64693 0.0
H758 H 0.74806 0.35343 0.67807 0.0
H759 H 0.55443 0.29438 0.44414 0.0
H760 H 0.03764 0.05933 0.1127 0.0
H761 H 0.06703 0.07318 0.15993 0.0
H762 H 0.01754 0.13682 0.18364 0.0
H763 H 0.98704 0.12191 0.13687 0.0
H764 H 0.08623 0.13372 0.18692 0.0
H765 H -0.00032 0.10427 0.23016 0.0
H766 H 0.9658 0.07295 0.21731 0.0
H767 H 0.01735 0.01142 0.24271 0.0
H768 H 0.05244 0.04241 0.25197 0.0
H769 H 0.12882 0.15526 0.36974 0.0
H770 H 0.10544 0.1534 0.3112 0.0
H771 H 0.10162 0.07098 0.32127 0.0
H772 H 0.12397 0.07306 0.38049 0.0
H773 H 0.05922 0.08491 0.29872 0.0
H774 H 0.14288 0.10424 0.25735 0.0
H775 H 0.18454 0.12631 0.25234 0.0
H776 H 0.14661 0.19548 0.21806 0.0
H777 H 0.10469 0.17391 0.22325 0.0
C778 C 0.03307 0.07639 0.12708 0.0
C779 C 0.00957 0.08879 0.12156 0.0
C780 C 0.05015 0.08457 0.15399 0.0
C781 C 0.0442 0.10574 0.17553 0.0
C782 C 0.02232 0.12028 0.16722 0.0
C783 C 0.00484 0.1116 0.14075 0.0
C784 C 0.0578 0.10893 0.21087 0.0
C785 C 0.08011 0.12373 0.21181 0.0
C786 C 0.05057 0.09423 0.2422 0.0
C787 C 0.02895 0.07572 0.24051 0.0
C788 C 0.00406 0.08406 0.23189 0.0
C789 C 0.98469 0.06632 0.22482 0.0
C790 C 0.98953 0.04013 0.22844 0.0
C791 C 0.01381 0.03168 0.23916 0.0
C792 C 0.03355 0.04934 0.24486 0.0
C793 C 0.1231 0.13679 0.35918 0.0
C794 C 0.12816 0.1143 0.37947 0.0
C795 C 0.10986 0.13568 0.32564 0.0
C796 C 0.10205 0.112 0.31128 0.0
C797 C 0.10736 0.08951 0.33156 0.0
C798 C 0.12015 0.09067 0.3654 0.0
C799 C 0.08761 0.11074 0.27585 0.0
C800 C 0.06525 0.09571 0.27451 0.0
C801 C 0.09551 0.12433 0.24363 0.0
C802 C 0.12062 0.13756 0.24124 0.0
C803 C 0.1434 0.12424 0.24916 0.0
C804 C 0.16707 0.13664 0.24618 0.0
C805 C 0.1682 0.16232 0.2351 0.0
C806 C 0.14569 0.17562 0.22678 0.0
C807 C 0.12197 0.16332 0.22972 0.0
H808 H 0.18652 0.1719 0.2329 0.0
H809 H 0.97437 0.02644 0.2236 0.0
H810 H 0.92613 0.06694 0.1357 0.0
H811 H 0.91355 0.0915 0.18907 0.0
H812 H 0.9069 0.02172 0.25307 0.0
H813 H 0.92185 0.99723 0.20045 0.0
H814 H 0.86981 0.0899 0.22291 0.0
H815 H 0.91265 0.02547 0.31746 0.0
H816 H 0.95027 0.00109 0.33943 0.0
H817 H 0.99863 0.0659 0.31714 0.0
H818 H 0.96129 0.0904 0.29428 0.0
H819 H 0.82545 0.14216 0.39547 0.0
H820 H 0.83622 0.11424 0.34376 0.0
H821 H 0.91314 0.14442 0.34296 0.0
H822 H 0.90273 0.17186 0.39497 0.0
H823 H 0.91249 0.09279 0.34516 0.0
H824 H 0.8718 0.1603 0.27534 0.0
H825 H 0.83705 0.18979 0.25703 0.0
H826 H 0.78818 0.12585 0.23352 0.0
H827 H 0.82254 0.09597 0.25211 0.0
C828 C 0.923 0.05684 0.16131 0.0
C829 C 0.92572 0.03016 0.16369 0.0
C830 C 0.91545 0.07092 0.19194 0.0
C831 C 0.91001 0.05866 0.22576 0.0
C832 C 0.91228 0.03192 0.22818 0.0
C833 C 0.92039 0.01785 0.19764 0.0
C834 C 0.89998 0.07404 0.25689 0.0
C835 C 0.87901 0.0903 0.24979 0.0
C836 C 0.91189 0.07475 0.29205 0.0
C837 C 0.9345 0.05919 0.30214 0.0
C838 C 0.93146 0.03417 0.31603 0.0
C839 C 0.95267 0.02042 0.32897 0.0
C840 C 0.97692 0.03175 0.32897 0.0
C841 C 0.97992 0.05699 0.31657 0.0
C842 C 0.95877 0.07073 0.30336 0.0
C843 C 0.8446 0.14291 0.38409 0.0
C844 C 0.86328 0.15913 0.39934 0.0
C845 C 0.85065 0.12711 0.35442 0.0
C846 C 0.87546 0.12729 0.3396 0.0
C847 C 0.89388 0.144 0.35407 0.0
C848 C 0.88785 0.15982 0.38358 0.0
C849 C 0.88291 0.10896 0.31068 0.0
C850 C 0.90315 0.09213 0.31837 0.0
C851 C 0.8705 0.10794 0.27603 0.0
C852 C 0.84963 0.12589 0.26562 0.0
C853 C 0.85354 0.15252 0.2667 0.0
C854 C 0.83394 0.16931 0.25614 0.0
C855 C 0.81039 0.15969 0.24425 0.0
C856 C 0.80641 0.13327 0.24282 0.0
C857 C 0.82594 0.1164 0.25335 0.0
H858 H 0.79525 0.17271 0.23605 0.0
H859 H 0.99332 0.02109 0.33901 0.0
H860 H 0.94352 0.945 0.1433 0.0
H861 H 0.92383 0.92068 0.19367 0.0
H862 H 0.98219 0.86281 0.18369 0.0
H863 H 0.00161 0.88677 0.13288 0.0
H864 H 0.93348 0.84247 0.19592 0.0
H865 H 0.99001 0.90799 0.24808 0.0
H866 H 0.00347 0.95325 0.25102 0.0
H867 H 0.92789 0.97467 0.28553 0.0
H868 H 0.91403 0.92951 0.2828 0.0
H869 H 0.94112 0.77749 0.36439 0.0
H870 H 0.9506 0.80406 0.31047 0.0
H871 H 0.89496 0.85965 0.34584 0.0
H872 H 0.88656 0.83396 0.40132 0.0
H873 H 0.93563 0.88341 0.31908 0.0
H874 H 0.8812 0.81628 0.27767 0.0
H875 H 0.8664 0.77183 0.2699 0.0
H876 H 0.93525 0.75391 0.21088 0.0
H877 H 0.9507 0.79814 0.2189 0.0
C878 C 0.9519 0.92699 0.15128 0.0
C879 C 0.97417 0.91801 0.13407 0.0
C880 C 0.94068 0.91311 0.18022 0.0
C881 C 0.95173 0.89009 0.19254 0.0
C882 C 0.97337 0.88055 0.17452 0.0
C883 C 0.98453 0.8944 0.14565 0.0
C884 C 0.94211 0.87674 0.2259 0.0
C885 C 0.934 0.85129 0.22291 0.0
C886 C 0.94218 0.88865 0.2608 0.0
C887 C 0.95099 0.91544 0.2652 0.0
C888 C 0.97633 0.92236 0.25652 0.0
C889 C 0.98402 0.94798 0.2581 0.0
C890 C 0.96655 0.96682 0.26847 0.0
C891 C 0.94142 0.96005 0.27764 0.0
C892 C 0.93367 0.93443 0.27622 0.0
C893 C 0.93116 0.79555 0.36114 0.0
C894 C 0.91292 0.80344 0.38717 0.0
C895 C 0.93638 0.81059 0.32999 0.0
C896 C 0.92307 0.83358 0.3237 0.0
C897 C 0.90529 0.84186 0.34997 0.0
C898 C 0.90029 0.82697 0.38145 0.0
C899 C 0.9276 0.84866 0.28939 0.0
C900 C 0.93472 0.87453 0.29215 0.0
C901 C 0.92645 0.83714 0.25415 0.0
C902 C 0.91719 0.81051 0.24914 0.0
C903 C 0.89329 0.80281 0.26333 0.0
C904 C 0.88478 0.77765 0.25886 0.0
C905 C 0.89991 0.76004 0.23999 0.0
C906 C 0.92358 0.76756 0.22555 0.0
C907 C 0.93222 0.79268 0.23004 0.0
H908 H 0.89326 0.74059 0.23649 0.0
H909 H 0.97248 0.98665 0.26935 0.0
H910 H 0.02879 0.00253 0.16726 0.0
H911 H 0.05003 0.9837 0.22141 0.0
H912 H 0.08988 0.93083 0.15133 0.0
H913 H 0.06932 0.95021 0.09707 0.0
H914 H 0.07304 0.90944 0.22098 0.0
H915 H 0.11768 0.98265 0.17132 0.0
H916 H 0.12172 0.02741 0.14994 0.0
H917 H 0.10286 0.05379 0.25837 0.0
H918 H 0.0977 0.00919 0.2802 0.0
H919 H 0.1765 0.88019 0.3428 0.0
H920 H 0.14972 0.89207 0.28976 0.0
H921 H 0.11822 0.95488 0.35144 0.0
H922 H 0.14521 0.94332 0.40422 0.0
H923 H 0.13038 0.97051 0.28504 0.0
H924 H 0.08381 0.89909 0.33493 0.0
H925 H 0.07754 0.85482 0.3575 0.0
H926 H 0.09897 0.82598 0.25128 0.0
H927 H 0.1057 0.87009 0.2282 0.0
C928 C 0.04162 0.98647 0.16351 0.0
C929 C 0.04715 0.97745 0.12796 0.0
C930 C 0.05367 0.97579 0.1944 0.0
C931 C 0.07157 0.95609 0.19023 0.0
C932 C 0.07593 0.94592 0.15507 0.0
C933 C 0.06393 0.95673 0.12407 0.0
C934 C 0.08754 0.94799 0.22198 0.0
C935 C 0.08583 0.92264 0.2348 0.0
C936 C 0.10373 0.96554 0.24032 0.0
C937 C 0.10694 0.99247 0.22729 0.0
C938 C 0.11402 0.99796 0.19054 0.0
C939 C 0.11651 0.02334 0.17834 0.0
C940 C 0.11241 0.04344 0.20277 0.0
C941 C 0.10592 0.0382 0.23949 0.0
C942 C 0.10312 0.01286 0.25176 0.0
C943 C 0.16368 0.89639 0.34509 0.0
C944 C 0.16296 0.91087 0.37758 0.0
C945 C 0.14836 0.90313 0.31482 0.0
C946 C 0.13175 0.92423 0.31673 0.0
C947 C 0.13092 0.93858 0.34928 0.0
C948 C 0.14638 0.93199 0.37938 0.0
C949 C 0.11581 0.9319 0.2845 0.0
C950 C 0.11758 0.95723 0.2714 0.0
C951 C 0.09952 0.91442 0.26616 0.0
C952 C 0.09552 0.88788 0.27996 0.0
C953 C 0.08739 0.8833 0.31647 0.0
C954 C 0.08372 0.85824 0.32934 0.0
C955 C 0.08793 0.8376 0.30587 0.0
C956 C 0.09576 0.84198 0.26944 0.0
C957 C 0.09949 0.86701 0.25645 0.0
H958 H 0.08506 0.81821 0.31588 0.0
H959 H 0.11434 0.06309 0.19333 0.0
H960 H 0.08173 0.97029 0.92082 0.0
H961 H 0.09995 0.95095 0.86576 0.0
H962 H 0.05026 0.99691 0.79683 0.0
H963 H 0.03178 0.01652 0.85195 0.0
H964 H 0.05633 0.94385 0.77441 0.0
H965 H 0.106 0.01736 0.80787 0.0
H966 H 0.1309 0.0447 0.8497 0.0
H967 H 0.18527 0.98409 0.86671 0.0
H968 H 0.16051 0.95623 0.8252 0.0
H969 H 0.13037 0.93069 0.60856 0.0
H970 H 0.10462 0.94575 0.66049 0.0
H971 H 0.15885 0.91228 0.73694 0.0
H972 H 0.18466 0.8973 0.68523 0.0
H973 H 0.14878 0.96044 0.75409 0.0
H974 H 0.10008 0.88655 0.72098 0.0
H975 H 0.07597 0.8588 0.67864 0.0
H976 H 0.01935 0.91751 0.6636 0.0
H977 H 0.04335 0.94582 0.70526 0.0
C978 C 0.07448 0.97619 0.894 0.0
C979 C 0.05556 0.99519 0.8907 0.0
C980 C 0.0849 0.96509 0.8626 0.0
C981 C 0.07664 0.97278 0.82734 0.0
C982 C 0.05694 0.99088 0.82385 0.0
C983 C 0.04651 0.0021 0.85534 0.0
C984 C 0.0899 0.96308 0.79434 0.0
C985 C 0.07644 0.94762 0.76956 0.0
C986 C 0.11627 0.9678 0.78871 0.0
C987 C 0.1313 0.98464 0.81349 0.0
C988 C 0.12319 0.00979 0.82059 0.0
C989 C 0.1373 0.0254 0.84427 0.0
C990 C 0.15964 0.01613 0.8609 0.0
C991 C 0.16796 0.99124 0.85381 0.0
C992 C 0.15391 0.97555 0.83016 0.0
C993 C 0.13656 0.92621 0.63645 0.0
C994 C 0.15959 0.91292 0.64286 0.0
C995 C 0.12184 0.93482 0.66607 0.0
C996 C 0.12976 0.93003 0.70258 0.0
C997 C 0.15244 0.91627 0.70898 0.0
C998 C 0.1672 0.90778 0.67944 0.0
C999 C 0.11536 0.94061 0.7342 0.0
C1000 C 0.12864 0.95646 0.75877 0.0
C1001 C 0.08887 0.936 0.73969 0.0
C1002 C 0.07394 0.91863 0.71554 0.0
C1003 C 0.08267 0.8937 0.70831 0.0
C1004 C 0.06899 0.87783 0.68447 0.0
C1005 C 0.04639 0.88656 0.668 0.0
C1006 C 0.03706 0.91092 0.67602 0.0
C1007 C 0.05071 0.92689 0.69973 0.0
H1008 H 0.0361 0.87443 0.64901 0.0
H1009 H 0.17053 0.02824 0.87925 0.0
H1010 H 0.99702 0.11232 0.92307 0.0
H1011 H 0.02286 0.11665 0.8673 0.0
H1012 H 0.97808 0.05788 0.81491 0.0
H1013 H 0.95197 0.05343 0.87087 0.0
H1014 H 0.02642 0.0512 0.79998 0.0
H1015 H 0.9693 0.12091 0.79861 0.0
H1016 H 0.94647 0.15942 0.81894 0.0
H1017 H 0.01726 0.20124 0.82118 0.0
H1018 H 0.04062 0.16288 0.80105 0.0
H1019 H 0.08106 0.07848 0.6236 0.0
H1020 H 0.04994 0.07321 0.67368 0.0
H1021 H 0.09034 0.12977 0.73749 0.0
H1022 H 0.12102 0.13559 0.68707 0.0
H1023 H 0.04023 0.13671 0.74244 0.0
H1024 H 0.09711 0.06239 0.75406 0.0
H1025 H 0.11801 0.02396 0.72885 0.0
H1026 H 0.04444 0.99164 0.70399 0.0
H1027 H 0.02315 0.02979 0.72909 0.0
C1028 C 0.99246 0.10045 0.8996 0.0
C1029 C 0.97217 0.08277 0.90117 0.0
C1030 C 0.00725 0.10297 0.86771 0.0
C1031 C 0.00196 0.088 0.83664 0.0
C1032 C 0.98211 0.06992 0.83838 0.0
C1033 C 0.96719 0.06747 0.87027 0.0
C1034 C 0.01713 0.09135 0.80233 0.0
C1035 C 0.02918 0.06988 0.7872 0.0
C1036 C 0.02075 0.11574 0.78563 0.0
C1037 C 0.00677 0.13888 0.79826 0.0
C1038 C 0.98007 0.13825 0.80352 0.0
C1039 C 0.96701 0.16009 0.81501 0.0
C1040 C 0.9804 0.18277 0.82136 0.0
C1041 C 0.00689 0.18366 0.8162 0.0
C1042 C 0.02005 0.16186 0.80465 0.0
C1043 C 0.08327 0.08974 0.64838 0.0
C1044 C 0.10351 0.10734 0.6516 0.0
C1045 C 0.06554 0.08668 0.67698 0.0
C1046 C 0.06807 0.10076 0.70964 0.0
C1047 C 0.08802 0.11867 0.71258 0.0
C1048 C 0.10553 0.12199 0.68379 0.0
C1049 C 0.05019 0.09678 0.74105 0.0
C1050 C 0.03749 0.11812 0.75547 0.0
C1051 C 0.04574 0.07229 0.75691 0.0
C1052 C 0.05858 0.049 0.74311 0.0
C1053 C 0.08542 0.04708 0.74314 0.0
C1054 C 0.09733 0.02535 0.72888 0.0
C1055 C 0.08257 0.00541 0.71467 0.0
C1056 C 0.05587 0.00705 0.71501 0.0
C1057 C 0.04387 0.02869 0.72932 0.0
H1058 H 0.09181 0.98871 0.70337 0.0
H1059 H 0.97025 0.19967 0.83028 0.0
H1060 H 0.88119 0.03668 0.9325 0.0
H1061 H 0.87314 0.05735 0.87295 0.0
H1062 H 0.92853 0.00788 0.82164 0.0
H1063 H 0.93724 0.98757 0.88148 0.0
H1064 H 0.93486 0.05554 0.79905 0.0
H1065 H 0.86468 0.99896 0.80774 0.0
H1066 H 0.82758 0.97711 0.83578 0.0
H1067 H 0.78771 0.04875 0.84258 0.0
H1068 H 0.82471 0.07112 0.81493 0.0
H1069 H 0.89562 0.11282 0.62599 0.0
H1070 H 0.90478 0.08037 0.67369 0.0
H1071 H 0.85491 0.11968 0.74926 0.0
H1072 H 0.84556 0.15186 0.70181 0.0
H1073 H 0.84688 0.06916 0.75157 0.0
H1074 H 0.92035 0.12587 0.74493 0.0
H1075 H 0.95807 0.14586 0.71583 0.0
H1076 H 0.99387 0.07228 0.70658 0.0
H1077 H 0.95586 0.05164 0.73404 0.0
C1078 C 0.89155 0.03004 0.90852 0.0
C1079 C 0.90968 0.0103 0.91163 0.0
C1080 C 0.88681 0.04178 0.87443 0.0
C1081 C 0.89982 0.03378 0.84266 0.0
C1082 C 0.91801 0.01412 0.84566 0.0
C1083 C 0.92292 0.00249 0.87988 0.0
C1084 C 0.89503 0.04686 0.80681 0.0
C1085 C 0.91573 0.05825 0.78825 0.0
C1086 C 0.86997 0.05014 0.79275 0.0
C1087 C 0.84757 0.03675 0.8093 0.0
C1088 C 0.84806 0.0101 0.81532 0.0
C1089 C 0.82703 0.9976 0.83116 0.0
C1090 C 0.8053 0.01153 0.84098 0.0
C1091 C 0.80455 0.03798 0.83493 0.0
C1092 C 0.82554 0.05057 0.8191 0.0
C1093 C 0.88669 0.11451 0.65284 0.0
C1094 C 0.86991 0.13488 0.66026 0.0
C1095 C 0.89189 0.09596 0.67998 0.0
C1096 C 0.88067 0.09773 0.71508 0.0
C1097 C 0.86369 0.11788 0.72229 0.0
C1098 C 0.85834 0.13625 0.69517 0.0
C1099 C 0.88667 0.07905 0.74492 0.0
C1100 C 0.86613 0.06634 0.76215 0.0
C1101 C 0.91199 0.07448 0.75757 0.0
C1102 C 0.93482 0.08707 0.74073 0.0
C1103 C 0.93594 0.11382 0.73589 0.0
C1104 C 0.95741 0.12529 0.71964 0.0
C1105 C 0.97823 0.11032 0.70899 0.0
C1106 C 0.97762 0.08383 0.71454 0.0
C1107 C 0.95605 0.07222 0.73027 0.0
H1108 H 0.99492 0.11927 0.69672 0.0
H1109 H 0.78904 0.00182 0.85326 0.0
H1110 H 0.02544 0.947 0.84565 0.0
H1111 H 0.01354 0.93118 0.78474 0.0
H1112 H 0.93502 0.92415 0.82012 0.0
H1113 H 0.94659 0.94053 0.8807 0.0
H1114 H 0.99864 0.88563 0.77401 0.0
H1115 H 0.89432 0.92438 0.7482 0.0
H1116 H 0.871 0.96532 0.75152 0.0
H1117 H 0.94199 0.0066 0.74546 0.0
H1118 H 0.96576 0.96599 0.74157 0.0
H1119 H 0.92431 0.7943 0.68482 0.0
H1120 H 0.94041 0.82719 0.72643 0.0
H1121 H 0.93845 0.8827 0.63731 0.0
H1122 H 0.92206 0.84989 0.59563 0.0
H1123 H 0.92141 0.90364 0.69825 0.0
H1124 H 0.99315 0.85516 0.66417 0.0
H1125 H 0.02063 0.81766 0.65373 0.0
H1126 H 0.02109 0.80098 0.77012 0.0
H1127 H 0.99328 0.83818 0.78127 0.0
C1128 C 0.00551 0.94283 0.84012 0.0
C1129 C 0.98696 0.94497 0.86803 0.0
C1130 C 0.99878 0.93376 0.80532 0.0
C1131 C 0.97345 0.92652 0.79782 0.0
C1132 C 0.95463 0.93001 0.82498 0.0
C1133 C 0.96131 0.93925 0.85975 0.0
C1134 C 0.9674 0.91177 0.76416 0.0
C1135 C 0.98185 0.88969 0.75727 0.0
C1136 C 0.94603 0.91753 0.74153 0.0
C1137 C 0.93184 0.94205 0.74475 0.0
C1138 C 0.90497 0.94218 0.74746 0.0
C1139 C 0.89167 0.96535 0.74944 0.0
C1140 C 0.90501 0.98854 0.74858 0.0
C1141 C 0.93169 0.98862 0.74604 0.0
C1142 C 0.9451 0.96553 0.74409 0.0
C1143 C 0.92739 0.8135 0.67411 0.0
C1144 C 0.92205 0.81953 0.637 0.0
C1145 C 0.93657 0.83227 0.69786 0.0
C1146 C 0.94097 0.8573 0.6848 0.0
C1147 C 0.93519 0.86351 0.64793 0.0
C1148 C 0.92581 0.84477 0.62421 0.0
C1149 C 0.95179 0.87683 0.70976 0.0
C1150 C 0.93832 0.89978 0.71482 0.0
C1151 C 0.97453 0.87225 0.73009 0.0
C1152 C 0.99098 0.84951 0.72352 0.0
C1153 C 0.99889 0.84338 0.68754 0.0
C1154 C 0.01458 0.82218 0.68149 0.0
C1155 C 0.02259 0.80693 0.71124 0.0
C1156 C 0.01489 0.81284 0.7471 0.0
C1157 C 0.99919 0.83402 0.75329 0.0
H1158 H 0.03477 0.79054 0.7065 0.0
H1159 H 0.89467 0.00644 0.74978 0.0
H1160 H 0.53338 0.59058 0.59193 0.0
H1161 H 0.56119 0.60894 0.6395 0.0
H1162 H 0.52927 0.5567 0.7201 0.0
H1163 H 0.50168 0.53808 0.67242 0.0
H1164 H 0.5256 0.60931 0.73832 0.0
H1165 H 0.58961 0.54823 0.69546 0.0
H1166 H 0.61841 0.52867 0.64995 0.0
H1167 H 0.65242 0.60187 0.62682 0.0
H1168 H 0.62382 0.62196 0.67235 0.0
H1169 H 0.59615 0.61696 0.9014 0.0
H1170 H 0.57392 0.60557 0.84472 0.0
H1171 H 0.62648 0.65238 0.78144 0.0
H1172 H 0.64941 0.66318 0.83848 0.0
H1173 H 0.62031 0.60976 0.748 0.0
H1174 H 0.56205 0.67008 0.79602 0.0
H1175 H 0.53443 0.69147 0.84142 0.0
H1176 H 0.48865 0.62348 0.85207 0.0
H1177 H 0.51628 0.60149 0.80729 0.0
C1178 C 0.53318 0.58231 0.61941 0.0
C1179 C 0.51598 0.56254 0.62839 0.0
C1180 C 0.54877 0.59302 0.64665 0.0
C1181 C 0.54715 0.58416 0.68329 0.0
C1182 C 0.53052 0.56387 0.692 0.0
C1183 C 0.51492 0.55323 0.66484 0.0
C1184 C 0.56091 0.59736 0.71335 0.0
C1185 C 0.5463 0.60914 0.74082 0.0
C1186 C 0.58789 0.59852 0.71518 0.0
C1187 C 0.60435 0.58665 0.68687 0.0
C1188 C 0.60296 0.56022 0.68027 0.0
C1189 C 0.61925 0.54903 0.65447 0.0
C1190 C 0.63692 0.56405 0.635 0.0
C1191 C 0.63851 0.59031 0.64157 0.0
C1192 C 0.62233 0.6016 0.66745 0.0
C1193 C 0.60273 0.62515 0.87548 0.0
C1194 C 0.62435 0.64113 0.87433 0.0
C1195 C 0.58995 0.6187 0.84304 0.0
C1196 C 0.59815 0.62853 0.80877 0.0
C1197 C 0.61971 0.64466 0.80755 0.0
C1198 C 0.63277 0.65083 0.84007 0.0
C1199 C 0.58496 0.62063 0.77431 0.0
C1200 C 0.5996 0.61014 0.74566 0.0
C1201 C 0.55792 0.62102 0.77108 0.0
C1202 C 0.54136 0.63408 0.79839 0.0
C1203 C 0.54623 0.65961 0.80827 0.0
C1204 C 0.53055 0.67185 0.83389 0.0
C1205 C 0.50982 0.65883 0.84966 0.0
C1206 C 0.50472 0.63354 0.83985 0.0
C1207 C 0.52037 0.62118 0.81431 0.0
H1208 H 0.49769 0.66836 0.86946 0.0
H1209 H 0.64953 0.5553 0.61508 0.0
H1210 H 0.42819 0.55028 0.62523 0.0
H1211 H 0.41655 0.5786 0.67516 0.0
H1212 H 0.36471 0.5214 0.71815 0.0
H1213 H 0.37689 0.49244 0.66828 0.0
H1214 H 0.34609 0.5757 0.7159 0.0
H1215 H 0.4154 0.5228 0.75744 0.0
H1216 H 0.4579 0.50247 0.75494 0.0
H1217 H 0.49378 0.57644 0.75533 0.0
H1218 H 0.45154 0.59726 0.75624 0.0
H1219 H 0.33793 0.62814 0.89873 0.0
H1220 H 0.34106 0.60073 0.84445 0.0
H1221 H 0.40358 0.64685 0.80321 0.0
H1222 H 0.40083 0.67405 0.85766 0.0
H1223 H 0.41498 0.59621 0.80544 0.0
H1224 H 0.34611 0.64932 0.76338 0.0
H1225 H 0.30381 0.67011 0.76473 0.0
H1226 H 0.26707 0.59654 0.76609 0.0
H1227 H 0.3092 0.57526 0.76547 0.0
C1228 C 0.41439 0.54359 0.64502 0.0
C1229 C 0.40391 0.51891 0.64288 0.0
C1230 C 0.40761 0.55991 0.67355 0.0
C1231 C 0.38997 0.55194 0.70037 0.0
C1232 C 0.37841 0.52781 0.69758 0.0
C1233 C 0.38549 0.5113 0.66918 0.0
C1234 C 0.385 0.56838 0.73243 0.0
C1235 C 0.36094 0.57996 0.73592 0.0
C1236 C 0.4047 0.57416 0.75783 0.0
C1237 C 0.43021 0.56163 0.75637 0.0
C1238 C 0.43232 0.53477 0.75626 0.0
C1239 C 0.45641 0.52314 0.75517 0.0
C1240 C 0.47855 0.53816 0.7548 0.0
C1241 C 0.47664 0.56482 0.75535 0.0
C1242 C 0.45263 0.57655 0.75605 0.0
C1243 C 0.35224 0.63249 0.87796 0.0
C1244 C 0.36924 0.65313 0.88247 0.0
C1245 C 0.35385 0.61697 0.84686 0.0
C1246 C 0.37248 0.62185 0.81981 0.0
C1247 C 0.38903 0.64283 0.82379 0.0
C1248 C 0.38735 0.65842 0.85476 0.0
C1249 C 0.37611 0.60398 0.78884 0.0
C1250 C 0.4 0.592 0.78558 0.0
C1251 C 0.35624 0.5979 0.76375 0.0
C1252 C 0.33088 0.61067 0.76491 0.0
C1253 C 0.32905 0.63754 0.76457 0.0
C1254 C 0.30508 0.64943 0.76506 0.0
C1255 C 0.28277 0.63466 0.76563 0.0
C1256 C 0.28438 0.60796 0.76572 0.0
C1257 C 0.3083 0.59598 0.7653 0.0
H1258 H 0.26423 0.6439 0.76591 0.0
H1259 H 0.49717 0.52914 0.75428 0.0
H1260 H 0.48413 0.45857 0.68255 0.0
H1261 H 0.46666 0.43954 0.73919 0.0
H1262 H 0.40556 0.40534 0.67628 0.0
H1263 H 0.42315 0.42408 0.61978 0.0
H1264 H 0.38993 0.41981 0.74677 0.0
H1265 H 0.45883 0.37483 0.68786 0.0
H1266 H 0.5023 0.36967 0.66266 0.0
H1267 H 0.5344 0.38231 0.77019 0.0
H1268 H 0.49119 0.38883 0.79569 0.0
H1269 H 0.36374 0.30638 0.85222 0.0
H1270 H 0.37362 0.33837 0.80434 0.0
H1271 H 0.43743 0.3652 0.86922 0.0
H1272 H 0.42772 0.33329 0.91698 0.0
H1273 H 0.45136 0.35709 0.80013 0.0
H1274 H 0.38231 0.40063 0.85976 0.0
H1275 H 0.33872 0.40548 0.88481 0.0
H1276 H 0.30688 0.39332 0.77696 0.0
H1277 H 0.35028 0.38803 0.75134 0.0
C1278 C 0.46657 0.44756 0.68098 0.0
C1279 C 0.45491 0.44277 0.64669 0.0
C1280 C 0.45662 0.43675 0.71333 0.0
C1281 C 0.43505 0.42075 0.71176 0.0
C1282 C 0.42217 0.41771 0.67806 0.0
C1283 C 0.43214 0.42855 0.64572 0.0
C1284 C 0.42806 0.40437 0.74377 0.0
C1285 C 0.40328 0.40602 0.75844 0.0
C1286 C 0.44566 0.38656 0.75906 0.0
C1287 C 0.47173 0.38281 0.74357 0.0
C1288 C 0.47516 0.37699 0.70602 0.0
C1289 C 0.49978 0.37386 0.69166 0.0
C1290 C 0.52114 0.37593 0.71472 0.0
C1291 C 0.51789 0.38101 0.75224 0.0
C1292 C 0.49333 0.38455 0.76663 0.0
C1293 C 0.37969 0.31931 0.8564 0.0
C1294 C 0.39509 0.31721 0.88817 0.0
C1295 C 0.38527 0.33761 0.82912 0.0
C1296 C 0.40614 0.35431 0.83337 0.0
C1297 C 0.42127 0.35248 0.86535 0.0
C1298 C 0.41579 0.33415 0.89249 0.0
C1299 C 0.41326 0.37263 0.80357 0.0
C1300 C 0.43807 0.37115 0.78898 0.0
C1301 C 0.39568 0.39048 0.78838 0.0
C1302 C 0.36955 0.3937 0.8037 0.0
C1303 C 0.36601 0.39878 0.84143 0.0
C1304 C 0.34133 0.40165 0.85573 0.0
C1305 C 0.32004 0.39965 0.83251 0.0
C1306 C 0.32339 0.39484 0.79492 0.0
C1307 C 0.34802 0.39193 0.78049 0.0
H1308 H 0.30095 0.40188 0.84363 0.0
H1309 H 0.54019 0.37343 0.70359 0.0
H1310 H 0.53821 0.4554 0.62634 0.0
H1311 H 0.56396 0.43138 0.67101 0.0
H1312 H 0.62895 0.47944 0.64529 0.0
H1313 H 0.60375 0.50193 0.59855 0.0
H1314 H 0.6458 0.43512 0.66367 0.0
H1315 H 0.58356 0.49338 0.71506 0.0
H1316 H 0.53955 0.50937 0.72333 0.0
H1317 H 0.51726 0.43744 0.77187 0.0
H1318 H 0.56116 0.42083 0.76327 0.0
H1319 H 0.709 0.45265 0.83526 0.0
H1320 H 0.68257 0.45902 0.77998 0.0
H1321 H 0.63639 0.39375 0.81087 0.0
H1322 H 0.66284 0.38724 0.8663 0.0
H1323 H 0.60826 0.43908 0.78939 0.0
H1324 H 0.67823 0.38696 0.74811 0.0
H1325 H 0.72403 0.37699 0.74099 0.0
H1326 H 0.73413 0.44424 0.67343 0.0
H1327 H 0.6887 0.45545 0.68177 0.0
C1328 C 0.55814 0.46019 0.6292 0.0
C1329 C 0.56876 0.4808 0.60932 0.0
C1330 C 0.57285 0.44665 0.65511 0.0
C1331 C 0.59819 0.45415 0.66244 0.0
C1332 C 0.60937 0.47342 0.64051 0.0
C1333 C 0.59484 0.4865 0.6141 0.0
C1334 C 0.61223 0.44433 0.69537 0.0
C1335 C 0.6376 0.436 0.69115 0.0
C1336 C 0.60148 0.44531 0.73129 0.0
C1337 C 0.57549 0.45572 0.73806 0.0
C1338 C 0.56925 0.48095 0.72742 0.0
C1339 C 0.54433 0.49011 0.7321 0.0
C1340 C 0.52558 0.47436 0.74792 0.0
C1341 C 0.53178 0.44951 0.75941 0.0
C1342 C 0.55666 0.44022 0.75464 0.0
C1343 C 0.69315 0.43974 0.83032 0.0
C1344 C 0.68796 0.41943 0.85497 0.0
C1345 C 0.67818 0.44331 0.7987 0.0
C1346 C 0.65768 0.42673 0.7913 0.0
C1347 C 0.6522 0.40667 0.81611 0.0
C1348 C 0.66737 0.4029 0.84755 0.0
C1349 C 0.64197 0.43054 0.75765 0.0
C1350 C 0.61629 0.43775 0.76184 0.0
C1351 C 0.65276 0.42938 0.72185 0.0
C1352 C 0.67999 0.42219 0.7159 0.0
C1353 C 0.69023 0.39983 0.73211 0.0
C1354 C 0.71618 0.394 0.72794 0.0
C1355 C 0.73196 0.40994 0.70672 0.0
C1356 C 0.72188 0.43189 0.68985 0.0
C1357 C 0.69604 0.43807 0.69446 0.0
H1358 H 0.752 0.40527 0.70331 0.0
H1359 H 0.50626 0.4814 0.75136 0.0
H1360 H 0.63622 0.50373 0.42135 0.0
H1361 H 0.66029 0.48763 0.36842 0.0
H1362 H 0.5923 0.49244 0.30091 0.0
H1363 H 0.5681 0.50816 0.35393 0.0
H1364 H 0.6546 0.44606 0.32101 0.0
H1365 H 0.61252 0.5197 0.21563 0.0
H1366 H 0.59255 0.56231 0.2161 0.0
H1367 H 0.63014 0.5793 0.31851 0.0
H1368 H 0.65168 0.53738 0.31749 0.0
H1369 H 0.67861 0.41168 0.13568 0.0
H1370 H 0.65879 0.42506 0.19343 0.0
H1371 H 0.70793 0.49146 0.19585 0.0
H1372 H 0.72737 0.47856 0.13741 0.0
H1373 H 0.65938 0.50384 0.21144 0.0
H1374 H 0.71973 0.44102 0.25244 0.0
H1375 H 0.74124 0.39902 0.25329 0.0
H1376 H 0.67044 0.36228 0.28268 0.0
H1377 H 0.64841 0.40404 0.28149 0.0
C1378 C 0.62633 0.50108 0.39535 0.0
C1379 C 0.60039 0.50775 0.3914 0.0
C1380 C 0.64009 0.4918 0.36521 0.0
C1381 C 0.62813 0.48923 0.33072 0.0
C1382 C 0.60194 0.49466 0.32722 0.0
C1383 C 0.58819 0.5038 0.35734 0.0
C1384 C 0.64332 0.48245 0.29779 0.0
C1385 C 0.65565 0.45864 0.29701 0.0
C1386 C 0.64511 0.49922 0.26692 0.0
C1387 C 0.63332 0.5251 0.26686 0.0
C1388 C 0.61671 0.53258 0.23812 0.0
C1389 C 0.60509 0.55666 0.2385 0.0
C1390 C 0.60962 0.57332 0.26773 0.0
C1391 C 0.62641 0.56625 0.29609 0.0
C1392 C 0.63846 0.54238 0.29551 0.0
C1393 C 0.68504 0.42925 0.14832 0.0
C1394 C 0.70453 0.4441 0.13196 0.0
C1395 C 0.6739 0.43672 0.18153 0.0
C1396 C 0.68211 0.45909 0.19913 0.0
C1397 C 0.70141 0.47406 0.18277 0.0
C1398 C 0.7126 0.46659 0.14954 0.0
C1399 C 0.67009 0.46712 0.23418 0.0
C1400 C 0.65837 0.49124 0.23542 0.0
C1401 C 0.66916 0.45078 0.26562 0.0
C1402 C 0.68238 0.42565 0.26658 0.0
C1403 C 0.7087 0.42396 0.25882 0.0
C1404 C 0.721 0.4002 0.25941 0.0
C1405 C 0.70721 0.37799 0.26796 0.0
C1406 C 0.6811 0.3795 0.27603 0.0
C1407 C 0.6687 0.40322 0.27545 0.0
H1408 H 0.71676 0.35961 0.26839 0.0
H1409 H 0.60024 0.59174 0.26841 0.0
H1410 H 0.46604 0.53911 0.36231 0.0
H1411 H 0.48338 0.55374 0.30317 0.0
H1412 H 0.54421 0.5929 0.36063 0.0
H1413 H 0.52557 0.58007 0.41957 0.0
H1414 H 0.52665 0.62314 0.312 0.0
H1415 H 0.55127 0.53228 0.30492 0.0
H1416 H 0.54098 0.48594 0.3062 0.0
H1417 H 0.48742 0.49704 0.21743 0.0
H1418 H 0.4972 0.5433 0.21612 0.0
H1419 H 0.6244 0.6427 0.1842 0.0
H1420 H 0.59474 0.63114 0.23333 0.0
H1421 H 0.54313 0.59848 0.15324 0.0
H1422 H 0.57322 0.60975 0.10382 0.0
H1423 H 0.54629 0.56719 0.20602 0.0
H1424 H 0.52907 0.6556 0.2034 0.0
H1425 H 0.5377 0.702 0.20131 0.0
H1426 H 0.57561 0.69699 0.30647 0.0
H1427 H 0.56754 0.65049 0.30899 0.0
C1428 C 0.48316 0.5507 0.36219 0.0
C1429 C 0.49427 0.55853 0.39559 0.0
C1430 C 0.49331 0.55885 0.32831 0.0
C1431 C 0.51534 0.57432 0.32716 0.0
C1432 C 0.52707 0.58119 0.36061 0.0
C1433 C 0.51654 0.5736 0.39441 0.0
C1434 C 0.52571 0.58453 0.29161 0.0
C1435 C 0.5314 0.61079 0.2891 0.0
C1436 C 0.53027 0.56891 0.26055 0.0
C1437 C 0.52473 0.54112 0.26084 0.0
C1438 C 0.53721 0.52471 0.28596 0.0
C1439 C 0.53148 0.49854 0.28664 0.0
C1440 C 0.51347 0.4886 0.26206 0.0
C1441 C 0.50128 0.50477 0.23657 0.0
C1442 C 0.50693 0.53094 0.23582 0.0
C1443 C 0.60654 0.63343 0.17698 0.0
C1444 C 0.60113 0.62715 0.14018 0.0
C1445 C 0.58948 0.62686 0.20513 0.0
C1446 C 0.56639 0.61416 0.19713 0.0
C1447 C 0.56076 0.60825 0.16022 0.0
C1448 C 0.57798 0.61464 0.13202 0.0
C1449 C 0.54935 0.60539 0.2277 0.0
C1450 C 0.54174 0.57959 0.22894 0.0
C1451 C 0.54297 0.62147 0.25755 0.0
C1452 C 0.54778 0.6495 0.25629 0.0
C1453 C 0.53938 0.66435 0.22599 0.0
C1454 C 0.54416 0.69069 0.22474 0.0
C1455 C 0.55721 0.70243 0.25372 0.0
C1456 C 0.56548 0.68787 0.28405 0.0
C1457 C 0.56077 0.66153 0.28544 0.0
H1458 H 0.5609 0.72282 0.25269 0.0
H1459 H 0.509 0.46835 0.26268 0.0
H1460 H 0.43641 0.49672 0.37759 0.0
H1461 H 0.43185 0.52652 0.3251 0.0
H1462 H 0.35046 0.52993 0.34342 0.0
H1463 H 0.35461 0.50006 0.39549 0.0
H1464 H 0.36412 0.52465 0.26942 0.0
H1465 H 0.38554 0.57377 0.37432 0.0
H1466 H 0.40939 0.5901 0.42776 0.0
H1467 H 0.47085 0.61384 0.35671 0.0
H1468 H 0.44812 0.59635 0.30295 0.0
H1469 H 0.3363 0.64275 0.1724 0.0
H1470 H 0.34063 0.61002 0.22074 0.0
H1471 H 0.42016 0.60026 0.19271 0.0
H1472 H 0.41583 0.63179 0.1429 0.0
H1473 H 0.40739 0.60922 0.27153 0.0
H1474 H 0.38604 0.55598 0.16773 0.0
H1475 H 0.35973 0.54275 0.11463 0.0
H1476 H 0.29507 0.53152 0.18617 0.0
H1477 H 0.32092 0.54507 0.23965 0.0
C1478 C 0.41752 0.50372 0.37037 0.0
C1479 C 0.39587 0.4962 0.39089 0.0
C1480 C 0.41505 0.52093 0.34072 0.0
C1481 C 0.39097 0.53084 0.33116 0.0
C1482 C 0.36924 0.52263 0.35065 0.0
C1483 C 0.37167 0.50557 0.38038 0.0
C1484 C 0.38839 0.5498 0.30079 0.0
C1485 C 0.37343 0.54323 0.27006 0.0
C1486 C 0.40081 0.57393 0.30162 0.0
C1487 C 0.41526 0.58311 0.33446 0.0
C1488 C 0.40445 0.58177 0.37006 0.0
C1489 C 0.41775 0.59135 0.40048 0.0
C1490 C 0.44165 0.6029 0.39568 0.0
C1491 C 0.45233 0.60487 0.36042 0.0
C1492 C 0.43933 0.5949 0.32998 0.0
C1493 C 0.35463 0.63338 0.17596 0.0
C1494 C 0.37573 0.64008 0.15363 0.0
C1495 C 0.35707 0.61479 0.20377 0.0
C1496 C 0.38068 0.60281 0.2101 0.0
C1497 C 0.4018 0.60944 0.18821 0.0
C1498 C 0.3993 0.62767 0.15997 0.0
C1499 C 0.38356 0.58383 0.24031 0.0
C1500 C 0.3984 0.59049 0.271 0.0
C1501 C 0.3709 0.55995 0.23973 0.0
C1502 C 0.35533 0.55184 0.20761 0.0
C1503 C 0.36614 0.55096 0.17208 0.0
C1504 C 0.35133 0.54334 0.14192 0.0
C1505 C 0.32572 0.53638 0.147 0.0
C1506 C 0.31489 0.53696 0.18227 0.0
C1507 C 0.32962 0.54459 0.21251 0.0
H1508 H 0.31429 0.53047 0.12362 0.0
H1509 H 0.45188 0.61037 0.41927 0.0
H1510 H 0.49083 0.43944 0.3627 0.0
H1511 H 0.47192 0.42001 0.30788 0.0
H1512 H 0.41394 0.38416 0.37569 0.0
H1513 H 0.43264 0.40353 0.43064 0.0
H1514 H 0.44067 0.34999 0.33306 0.0
H1515 H 0.39437 0.42869 0.31407 0.0
H1516 H 0.38869 0.47533 0.30758 0.0
H1517 H 0.44227 0.47705 0.2177 0.0
H1518 H 0.44797 0.43025 0.22331 0.0
H1519 H 0.37406 0.29132 0.18658 0.0
H1520 H 0.38447 0.31776 0.23995 0.0
H1521 H 0.43907 0.36026 0.17416 0.0
H1522 H 0.4285 0.33407 0.1206 0.0
H1523 H 0.41217 0.39188 0.21644 0.0
H1524 H 0.45849 0.31351 0.23463 0.0
H1525 H 0.4641 0.26675 0.24001 0.0
H1526 H 0.41279 0.26454 0.33259 0.0
H1527 H 0.40659 0.31127 0.32744 0.0
C1528 C 0.47383 0.42773 0.36588 0.0
C1529 C 0.46345 0.42268 0.40104 0.0
C1530 C 0.46295 0.41679 0.33451 0.0
C1531 C 0.44157 0.40064 0.33782 0.0
C1532 C 0.43048 0.39654 0.37264 0.0
C1533 C 0.44121 0.40762 0.40398 0.0
C1534 C 0.43257 0.38589 0.30568 0.0
C1535 C 0.43395 0.35911 0.30777 0.0
C1536 C 0.4247 0.39788 0.2724 0.0
C1537 C 0.42174 0.42604 0.2693 0.0
C1538 C 0.40509 0.43905 0.2931 0.0
C1539 C 0.40182 0.46551 0.28952 0.0
C1540 C 0.4153 0.47922 0.26247 0.0
C1541 C 0.43192 0.46643 0.23874 0.0
C1542 C 0.43506 0.43992 0.24196 0.0
C1543 C 0.38836 0.30623 0.1836 0.0
C1544 C 0.40059 0.31057 0.14955 0.0
C1545 C 0.39426 0.32134 0.21403 0.0
C1546 C 0.41277 0.34078 0.21112 0.0
C1547 C 0.42469 0.34541 0.17698 0.0
C1548 C 0.41865 0.33044 0.14645 0.0
C1549 C 0.42012 0.3559 0.24386 0.0
C1550 C 0.41865 0.38273 0.24182 0.0
C1551 C 0.42814 0.34395 0.27719 0.0
C1552 C 0.43186 0.31585 0.28039 0.0
C1553 C 0.44824 0.30302 0.25595 0.0
C1554 C 0.45156 0.27653 0.25898 0.0
C1555 C 0.43875 0.26267 0.28655 0.0
C1556 C 0.42266 0.2753 0.3112 0.0
C1557 C 0.41925 0.30179 0.30825 0.0
H1558 H 0.44135 0.24216 0.28887 0.0
H1559 H 0.41279 0.49972 0.25976 0.0
loop_
_geom_bond_atom_site_label_1
_geom_bond_atom_site_label_2
_geom_bond_distance
_geom_bond_site_symmetry_2
_ccdc_geom_bond_type
Zn0 O2 1.933 1_556 S
Zn0 O20 1.985 . S
Zn0 O31 1.955 . S
Zn1 O2 1.911 . S
Zn1 O21 1.970 . S
Zn1 O37 1.945 . S
Zn1 O44 1.981 . S
O2 Zn0 1.933 1_554 S
O2 Zn1 1.911 . S
O2 H3 0.841 1_655 S
H3 O2 0.841 1_455 S
C4 O5 1.246 . S
C4 O33 1.266 1_545 S
O5 C4 1.246 . S
Zn6 O8 1.911 . S
Zn6 O23 1.970 . S
Zn6 O40 1.945 . S
Zn6 O47 1.981 . S
Zn7 O8 1.933 1_556 S
Zn7 O22 1.985 . S
Zn7 O29 1.955 . S
O8 Zn6 1.911 . S
O8 Zn7 1.933 1_554 S
O8 H9 0.841 1_455 S
H9 O8 0.841 1_655 S
Zn10 O11 1.933 1_556 S
Zn10 O24 1.985 . S
Zn10 O33 1.959 . S
O11 Zn10 1.933 1_554 S
O11 Zn12 1.911 . S
O11 H13 0.841 1_565 S
Zn12 O11 1.911 . S
Zn12 O25 1.970 . S
Zn12 O41 1.981 . S
Zn12 O43 1.945 . S
H13 O11 0.841 1_545 S
Zn14 O15 1.933 1_556 S
Zn14 O27 1.985 . S
Zn14 O35 1.955 . S
O15 Zn14 1.933 1_554 S
O15 H16 0.841 1_545 S
O15 Zn17 1.911 . S
H16 O15 0.841 1_565 S
Zn17 O15 1.911 . S
Zn17 O28 1.970 . S
Zn17 O38 1.981 . S
Zn17 O46 1.945 . S
C18 O19 1.246 . S
C18 O35 1.276 1_565 S
O19 C18 1.246 . S
O20 Zn0 1.985 . S
O20 C30 1.245 1_556 S
O21 Zn1 1.970 . S
O21 C30 1.263 . S
O22 Zn7 1.985 . S
O22 C34 1.245 1_556 S
O23 Zn6 1.970 . S
O23 C34 1.263 . S
O24 Zn10 1.985 . S
O24 C39 1.245 1_556 S
O25 Zn12 1.970 . S
O25 C39 1.263 . S
C26 O37 1.262 1_455 S
C26 O38 1.245 . S
O27 Zn14 1.985 . S
O27 C45 1.245 1_556 S
O28 Zn17 1.970 . S
O28 C45 1.263 . S
O29 Zn7 1.955 . S
O29 C48 1.276 1_455 S
C30 O20 1.245 1_554 S
C30 O21 1.263 . S
O31 Zn0 1.955 . S
O31 C50 1.276 1_655 S
C32 O40 1.262 1_655 S
C32 O41 1.245 . S
O33 C4 1.266 1_565 S
O33 Zn10 1.959 . S
C34 O22 1.245 1_554 S
C34 O23 1.263 . S
O35 Zn14 1.955 . S
O35 C18 1.276 1_545 S
C36 O43 1.262 1_545 S
C36 O44 1.245 . S
O37 Zn1 1.945 . S
O37 C26 1.262 1_655 S
O38 Zn17 1.981 . S
O38 C26 1.245 . S
C39 O24 1.245 1_554 S
C39 O25 1.263 . S
O40 Zn6 1.945 . S
O40 C32 1.262 1_455 S
O41 Zn12 1.981 . S
O41 C32 1.245 . S
C42 O46 1.262 1_565 S
C42 O47 1.245 . S
O43 Zn12 1.945 . S
O43 C36 1.262 1_565 S
O44 Zn1 1.981 . S
O44 C36 1.245 . S
C45 O27 1.245 1_554 S
C45 O28 1.263 . S
O46 Zn17 1.945 . S
O46 C42 1.262 1_545 S
O47 Zn6 1.981 . S
O47 C42 1.245 . S
C48 O29 1.276 1_655 S
C48 O49 1.246 . S
O49 C48 1.246 . S
C50 O31 1.276 1_455 S
C50 O51 1.246 . S
O51 C50 1.246 . S
Zn52 O54 1.933 . S
Zn52 O72 1.985 . S
Zn52 O83 1.955 . S
Zn53 O54 1.911 . S
Zn53 O73 1.970 . S
Zn53 O89 1.945 . S
Zn53 O96 1.981 . S
O54 Zn52 1.933 . S
O54 Zn53 1.911 . S
O54 H55 0.841 . S
H55 O54 0.841 . S
C56 O57 1.246 . S
C56 O85 1.276 . S
O57 C56 1.246 . S
Zn58 O60 1.911 . S
Zn58 O75 1.970 . S
Zn58 O92 1.945 . S
Zn58 O99 1.981 . S
Zn59 O60 1.933 . S
Zn59 O74 1.985 . S
Zn59 O81 1.955 . S
O60 Zn58 1.911 . S
O60 Zn59 1.933 . S
O60 H61 0.841 . S
H61 O60 0.841 . S
Zn62 O63 1.933 . S
Zn62 O76 1.985 . S
Zn62 O85 1.955 . S
O63 Zn62 1.933 . S
O63 Zn64 1.911 . S
O63 H65 0.841 . S
Zn64 O63 1.911 . S
Zn64 O77 1.970 . S
Zn64 O93 1.981 . S
Zn64 O95 1.945 . S
H65 O63 0.841 . S
Zn66 O67 1.933 . S
Zn66 O79 1.985 . S
Zn66 O87 1.955 . S
O67 Zn66 1.933 . S
O67 H68 0.841 . S
O67 Zn69 1.911 . S
H68 O67 0.841 . S
Zn69 O67 1.911 . S
Zn69 O80 1.970 . S
Zn69 O90 1.981 . S
Zn69 O98 1.945 . S
C70 O71 1.246 . S
C70 O87 1.276 . S
O71 C70 1.246 . S
O72 Zn52 1.985 . S
O72 C82 1.245 . S
O73 Zn53 1.970 . S
O73 C82 1.263 . S
O74 Zn59 1.985 . S
O74 C86 1.245 . S
O75 Zn58 1.970 . S
O75 C86 1.263 . S
O76 Zn62 1.985 . S
O76 C91 1.245 . S
O77 Zn64 1.970 . S
O77 C91 1.263 . S
C78 O89 1.262 . S
C78 O90 1.245 . S
O79 Zn66 1.985 . S
O79 C97 1.245 . S
O80 Zn69 1.970 . S
O80 C97 1.263 . S
O81 Zn59 1.955 . S
O81 C100 1.276 . S
C82 O72 1.245 . S
C82 O73 1.263 . S
O83 Zn52 1.955 . S
O83 C102 1.276 . S
C84 O92 1.262 . S
C84 O93 1.245 . S
O85 C56 1.276 . S
O85 Zn62 1.955 . S
C86 O74 1.245 . S
C86 O75 1.263 . S
O87 Zn66 1.955 . S
O87 C70 1.276 . S
C88 O95 1.262 . S
C88 O96 1.245 . S
O89 Zn53 1.945 . S
O89 C78 1.262 . S
O90 Zn69 1.981 . S
O90 C78 1.245 . S
C91 O76 1.245 . S
C91 O77 1.263 . S
O92 Zn58 1.945 . S
O92 C84 1.262 . S
O93 Zn64 1.981 . S
O93 C84 1.245 . S
C94 O98 1.262 . S
C94 O99 1.245 . S
O95 Zn64 1.945 . S
O95 C88 1.262 . S
O96 Zn53 1.981 . S
O96 C88 1.245 . S
C97 O79 1.245 . S
C97 O80 1.263 . S
O98 Zn69 1.945 . S
O98 C94 1.262 . S
O99 Zn58 1.981 . S
O99 C94 1.245 . S
C100 O81 1.276 . S
C100 O101 1.246 . S
O101 C100 1.246 . S
C102 O83 1.276 . S
C102 O103 1.246 . S
O103 C102 1.246 . S
P104 O115 1.490 . S
P104 C118 1.812 . S
P104 C124 1.803 . S
P104 C130 1.819 1_554 S
H105 C119 0.941 . S
H106 C120 0.939 . S
H107 C122 0.940 . S
H108 C123 0.940 . S
H109 C125 0.939 . S
H110 C126 0.942 1_556 S
H111 C128 0.940 . S
H112 C129 0.939 . S
H113 C131 0.941 . S
H114 C135 0.939 . S
O115 P104 1.490 . S
H116 C132 0.939 . S
H117 C134 0.940 . S
C118 P104 1.812 . S
C118 C119 1.389 . S
C118 C123 1.391 . S
C119 H105 0.941 . S
C119 C118 1.389 . S
C119 C120 1.397 . S
C120 H106 0.939 . S
C120 C119 1.397 . S
C120 C121 1.378 . S
C121 C120 1.378 . S
C121 C122 1.378 . S
C122 H107 0.940 . S
C122 C121 1.378 . S
C122 C123 1.396 . S
C123 H108 0.940 . S
C123 C118 1.391 . S
C123 C122 1.396 . S
C124 P104 1.803 . S
C124 C125 1.378 . S
C124 C129 1.400 . S
C125 H109 0.939 . S
C125 C124 1.378 . S
C125 C126 1.361 . S
C126 H110 0.942 1_554 S
C126 C125 1.361 . S
C126 C127 1.369 . S
C127 C126 1.369 . S
C127 C128 1.404 . S
C128 H111 0.940 . S
C128 C127 1.404 . S
C128 C129 1.389 . S
C129 H112 0.939 . S
C129 C124 1.400 . S
C129 C128 1.389 . S
C130 P104 1.819 1_556 S
C130 C131 1.391 . S
C130 C135 1.391 . S
C131 H113 0.941 . S
C131 C130 1.391 . S
C131 C132 1.396 . S
C132 H116 0.939 . S
C132 C131 1.396 . S
C132 C133 1.397 . S
C133 C132 1.397 . S
C133 C134 1.385 . S
C134 H117 0.940 . S
C134 C133 1.385 . S
C134 C135 1.388 . S
C135 H114 0.939 . S
C135 C130 1.391 . S
C135 C134 1.388 . S
P136 O147 1.490 . S
P136 C150 1.812 . S
P136 C156 1.803 . S
P136 C162 1.819 1_554 S
H137 C151 0.941 . S
H138 C152 0.939 . S
H139 C154 0.940 . S
H140 C155 0.940 . S
H141 C157 0.939 1_556 S
H142 C158 0.942 1_556 S
H143 C160 0.940 . S
H144 C161 0.939 . S
H145 C163 0.941 . S
H146 C167 0.939 . S
O147 P136 1.490 . S
H148 C164 0.939 . S
H149 C166 0.940 . S
C150 P136 1.812 . S
C150 C151 1.389 . S
C150 C155 1.391 . S
C151 H137 0.941 . S
C151 C150 1.389 . S
C151 C152 1.397 . S
C152 H138 0.939 . S
C152 C151 1.397 . S
C152 C153 1.378 . S
C153 C152 1.378 . S
C153 C154 1.378 . S
C154 H139 0.940 . S
C154 C153 1.378 . S
C154 C155 1.396 . S
C155 H140 0.940 . S
C155 C150 1.391 . S
C155 C154 1.396 . S
C156 P136 1.803 . S
C156 C157 1.378 . S
C156 C161 1.400 . S
C157 H141 0.939 1_554 S
C157 C156 1.378 . S
C157 C158 1.361 . S
C158 H142 0.942 1_554 S
C158 C157 1.361 . S
C158 C159 1.369 . S
C159 C158 1.369 . S
C159 C160 1.404 . S
C160 H143 0.940 . S
C160 C159 1.404 . S
C160 C161 1.389 . S
C161 H144 0.939 . S
C161 C156 1.400 . S
C161 C160 1.389 . S
C162 P136 1.819 1_556 S
C162 C163 1.391 . S
C162 C167 1.391 . S
C163 H145 0.941 . S
C163 C162 1.391 . S
C163 C164 1.396 . S
C164 H148 0.939 . S
C164 C163 1.396 . S
C164 C165 1.397 . S
C165 C164 1.397 . S
C165 C166 1.385 . S
C166 H149 0.940 . S
C166 C165 1.385 . S
C166 C167 1.388 . S
C167 H146 0.939 . S
C167 C162 1.391 . S
C167 C166 1.388 . S
P168 O179 1.490 . S
P168 C182 1.812 1_554 S
P168 C188 1.803 . S
P168 C194 1.819 . S
H169 C183 0.941 . S
H170 C184 0.939 . S
H171 C186 0.940 . S
H172 C187 0.940 1_554 S
H173 C189 0.939 . S
H174 C190 0.942 . S
H175 C192 0.940 1_556 S
H176 C193 0.939 1_556 S
H177 C195 0.941 . S
H178 C199 0.939 . S
O179 P168 1.490 . S
H180 C196 0.939 . S
H181 C198 0.940 . S
C182 P168 1.812 1_556 S
C182 C183 1.389 . S
C182 C187 1.391 . S
C183 H169 0.941 . S
C183 C182 1.389 . S
C183 C184 1.397 . S
C184 H170 0.939 . S
C184 C183 1.397 . S
C184 C185 1.378 . S
C185 C184 1.378 . S
C185 C186 1.378 . S
C186 H171 0.940 . S
C186 C185 1.378 . S
C186 C187 1.396 . S
C187 H172 0.940 1_556 S
C187 C182 1.391 . S
C187 C186 1.396 . S
C188 P168 1.803 . S
C188 C189 1.378 . S
C188 C193 1.400 . S
C189 H173 0.939 . S
C189 C188 1.378 . S
C189 C190 1.361 . S
C190 H174 0.942 . S
C190 C189 1.361 . S
C190 C191 1.369 . S
C191 C190 1.369 . S
C191 C192 1.404 . S
C192 H175 0.940 1_554 S
C192 C191 1.404 . S
C192 C193 1.389 . S
C193 H176 0.939 1_554 S
C193 C188 1.400 . S
C193 C192 1.389 . S
C194 P168 1.819 . S
C194 C195 1.391 . S
C194 C199 1.391 . S
C195 H177 0.941 . S
C195 C194 1.391 . S
C195 C196 1.396 . S
C196 H180 0.939 . S
C196 C195 1.396 . S
C196 C197 1.397 . S
C197 C196 1.397 . S
C197 C198 1.385 . S
C198 H181 0.940 . S
C198 C197 1.385 . S
C198 C199 1.388 . S
C199 H178 0.939 . S
C199 C194 1.391 . S
C199 C198 1.388 . S
P200 O211 1.490 . S
P200 C214 1.812 1_554 S
P200 C220 1.803 . S
P200 C226 1.819 . S
H201 C215 0.941 . S
H202 C216 0.939 . S
H203 C218 0.940 . S
H204 C219 0.940 1_554 S
H205 C221 0.939 . S
H206 C222 0.942 . S
H207 C224 0.937 1_556 S
H208 C225 0.939 1_556 S
H209 C227 0.941 . S
H210 C231 0.939 . S
O211 P200 1.490 . S
H212 C228 0.939 . S
H213 C230 0.940 . S
C214 P200 1.812 1_556 S
C214 C215 1.389 . S
C214 C219 1.391 . S
C215 H201 0.941 . S
C215 C214 1.389 . S
C215 C216 1.397 . S
C216 H202 0.939 . S
C216 C215 1.397 . S
C216 C217 1.378 . S
C217 C216 1.378 . S
C217 C218 1.378 . S
C218 H203 0.940 . S
C218 C217 1.378 . S
C218 C219 1.396 . S
C219 H204 0.940 1_556 S
C219 C214 1.391 . S
C219 C218 1.396 . S
C220 P200 1.803 . S
C220 C221 1.378 . S
C220 C225 1.400 . S
C221 H205 0.939 . S
C221 C220 1.378 . S
C221 C222 1.361 . S
C222 H206 0.942 . S
C222 C221 1.361 . S
C222 C223 1.369 . S
C223 C222 1.369 . S
C223 C224 1.404 . S
C224 H207 0.937 1_554 S
C224 C223 1.404 . S
C224 C225 1.389 . S
C225 H208 0.939 1_554 S
C225 C220 1.400 . S
C225 C224 1.389 . S
C226 P200 1.819 . S
C226 C227 1.391 . S
C226 C231 1.391 . S
C227 H209 0.941 . S
C227 C226 1.391 . S
C227 C228 1.396 . S
C228 H212 0.939 . S
C228 C227 1.396 . S
C228 C229 1.397 . S
C229 C228 1.397 . S
C229 C230 1.385 . S
C230 H213 0.940 . S
C230 C229 1.385 . S
C230 C231 1.388 . S
C231 H210 0.939 . S
C231 C226 1.391 . S
C231 C230 1.388 . S
P232 O243 1.490 . S
P232 C246 1.812 . S
P232 C252 1.803 . S
P232 C258 1.819 . S
H233 C247 0.941 . S
H234 C248 0.939 . S
H235 C250 0.940 . S
H236 C251 0.940 . S
H237 C253 0.939 . S
H238 C254 0.942 . S
H239 C256 0.940 . S
H240 C257 0.939 . S
H241 C259 0.941 . S
H242 C263 0.939 . S
O243 P232 1.490 . S
H244 C260 0.939 . S
H245 C262 0.940 . S
C246 P232 1.812 . S
C246 C247 1.389 . S
C246 C251 1.391 . S
C247 H233 0.941 . S
C247 C246 1.389 . S
C247 C248 1.397 . S
C248 H234 0.939 . S
C248 C247 1.397 . S
C248 C249 1.378 . S
C249 C248 1.378 . S
C249 C250 1.378 . S
C250 H235 0.940 . S
C250 C249 1.378 . S
C250 C251 1.396 . S
C251 H236 0.940 . S
C251 C246 1.391 . S
C251 C250 1.396 . S
C252 P232 1.803 . S
C252 C253 1.378 . S
C252 C257 1.400 . S
C253 H237 0.939 . S
C253 C252 1.378 . S
C253 C254 1.361 . S
C254 H238 0.942 . S
C254 C253 1.361 . S
C254 C255 1.369 . S
C255 C254 1.369 . S
C255 C256 1.404 . S
C256 H239 0.940 . S
C256 C255 1.404 . S
C256 C257 1.389 . S
C257 H240 0.939 . S
C257 C252 1.400 . S
C257 C256 1.389 . S
C258 P232 1.819 . S
C258 C259 1.391 . S
C258 C263 1.391 . S
C259 H241 0.941 . S
C259 C258 1.391 . S
C259 C260 1.396 . S
C260 H244 0.939 . S
C260 C259 1.396 . S
C260 C261 1.397 . S
C261 C260 1.397 . S
C261 C262 1.385 . S
C262 H245 0.940 . S
C262 C261 1.385 . S
C262 C263 1.388 . S
C263 H242 0.939 . S
C263 C258 1.391 . S
C263 C262 1.388 . S
P264 O275 1.490 . S
P264 C278 1.812 . S
P264 C284 1.803 . S
P264 C290 1.819 . S
H265 C279 0.941 . S
H266 C280 0.939 . S
H267 C282 0.940 . S
H268 C283 0.940 . S
H269 C285 0.939 . S
H270 C286 0.942 . S
H271 C288 0.940 . S
H272 C289 0.939 . S
H273 C291 0.941 . S
H274 C295 0.939 . S
O275 P264 1.490 . S
H276 C292 0.939 . S
H277 C294 0.940 . S
C278 P264 1.812 . S
C278 C279 1.389 . S
C278 C283 1.391 . S
C279 H265 0.941 . S
C279 C278 1.389 . S
C279 C280 1.397 . S
C280 H266 0.939 . S
C280 C279 1.397 . S
C280 C281 1.378 . S
C281 C280 1.378 . S
C281 C282 1.378 . S
C282 H267 0.940 . S
C282 C281 1.378 . S
C282 C283 1.396 . S
C283 H268 0.940 . S
C283 C278 1.391 . S
C283 C282 1.396 . S
C284 P264 1.803 . S
C284 C285 1.378 . S
C284 C289 1.400 . S
C285 H269 0.939 . S
C285 C284 1.378 . S
C285 C286 1.361 . S
C286 H270 0.942 . S
C286 C285 1.361 . S
C286 C287 1.369 . S
C287 C286 1.369 . S
C287 C288 1.404 . S
C288 H271 0.940 . S
C288 C287 1.404 . S
C288 C289 1.389 . S
C289 H272 0.939 . S
C289 C284 1.400 . S
C289 C288 1.389 . S
C290 P264 1.819 . S
C290 C291 1.391 . S
C290 C295 1.391 . S
C291 H273 0.941 . S
C291 C290 1.391 . S
C291 C292 1.396 . S
C292 H276 0.939 . S
C292 C291 1.396 . S
C292 C293 1.397 . S
C293 C292 1.397 . S
C293 C294 1.385 . S
C294 H277 0.940 . S
C294 C293 1.385 . S
C294 C295 1.388 . S
C295 H274 0.939 . S
C295 C290 1.391 . S
C295 C294 1.388 . S
P296 O307 1.490 . S
P296 C310 1.812 . S
P296 C316 1.803 . S
P296 C322 1.819 . S
H297 C311 0.941 . S
H298 C312 0.939 . S
H299 C314 0.940 . S
H300 C315 0.940 . S
H301 C317 0.939 . S
H302 C318 0.942 . S
H303 C320 0.940 . S
H304 C321 0.939 . S
H305 C323 0.941 . S
H306 C327 0.939 . S
O307 P296 1.490 . S
H308 C324 0.939 . S
H309 C326 0.940 . S
C310 P296 1.812 . S
C310 C311 1.389 . S
C310 C315 1.391 . S
C311 H297 0.941 . S
C311 C310 1.389 . S
C311 C312 1.397 . S
C312 H298 0.939 . S
C312 C311 1.397 . S
C312 C313 1.378 . S
C313 C312 1.378 . S
C313 C314 1.378 . S
C314 H299 0.940 . S
C314 C313 1.378 . S
C314 C315 1.396 . S
C315 H300 0.940 . S
C315 C310 1.391 . S
C315 C314 1.396 . S
C316 P296 1.803 . S
C316 C317 1.378 . S
C316 C321 1.400 . S
C317 H301 0.939 . S
C317 C316 1.378 . S
C317 C318 1.361 . S
C318 H302 0.942 . S
C318 C317 1.361 . S
C318 C319 1.369 . S
C319 C318 1.369 . S
C319 C320 1.404 . S
C320 H303 0.940 . S
C320 C319 1.404 . S
C320 C321 1.389 . S
C321 H304 0.939 . S
C321 C316 1.400 . S
C321 C320 1.389 . S
C322 P296 1.819 . S
C322 C323 1.391 . S
C322 C327 1.391 . S
C323 H305 0.941 . S
C323 C322 1.391 . S
C323 C324 1.396 . S
C324 H308 0.939 . S
C324 C323 1.396 . S
C324 C325 1.397 . S
C325 C324 1.397 . S
C325 C326 1.385 . S
C326 H309 0.940 . S
C326 C325 1.385 . S
C326 C327 1.388 . S
C327 H306 0.939 . S
C327 C322 1.391 . S
C327 C326 1.388 . S
P328 O339 1.490 . S
P328 C342 1.812 . S
P328 C348 1.803 . S
P328 C354 1.819 . S
H329 C343 0.941 . S
H330 C344 0.939 . S
H331 C346 0.940 . S
H332 C347 0.940 . S
H333 C349 0.939 . S
H334 C350 0.942 . S
H335 C352 0.940 . S
H336 C353 0.939 . S
H337 C355 0.941 . S
H338 C359 0.939 . S
O339 P328 1.490 . S
H340 C356 0.939 . S
H341 C358 0.940 . S
C342 P328 1.812 . S
C342 C343 1.389 . S
C342 C347 1.391 . S
C343 H329 0.941 . S
C343 C342 1.389 . S
C343 C344 1.397 . S
C344 H330 0.939 . S
C344 C343 1.397 . S
C344 C345 1.378 . S
C345 C344 1.378 . S
C345 C346 1.378 . S
C346 H331 0.940 . S
C346 C345 1.378 . S
C346 C347 1.396 . S
C347 H332 0.940 . S
C347 C342 1.391 . S
C347 C346 1.396 . S
C348 P328 1.803 . S
C348 C349 1.378 . S
C348 C353 1.400 . S
C349 H333 0.939 . S
C349 C348 1.378 . S
C349 C350 1.361 . S
C350 H334 0.942 . S
C350 C349 1.361 . S
C350 C351 1.369 . S
C351 C350 1.369 . S
C351 C352 1.404 . S
C352 H335 0.940 . S
C352 C351 1.404 . S
C352 C353 1.389 . S
C353 H336 0.939 . S
C353 C348 1.400 . S
C353 C352 1.389 . S
C354 P328 1.819 . S
C354 C355 1.391 . S
C354 C359 1.391 . S
C355 H337 0.941 . S
C355 C354 1.391 . S
C355 C356 1.396 . S
C356 H340 0.939 . S
C356 C355 1.396 . S
C356 C357 1.397 . S
C357 C356 1.397 . S
C357 C358 1.385 . S
C358 H341 0.940 . S
C358 C357 1.385 . S
C358 C359 1.388 . S
C359 H338 0.939 . S
C359 C354 1.391 . S
C359 C358 1.388 . S
H360 C378 0.951 . S
H361 C380 0.951 . S
H362 C382 0.950 . S
H363 C383 0.950 . S
H364 C385 0.950 . S
H365 C388 0.950 . S
H366 C389 0.950 . S
H367 C391 0.950 . S
H368 C392 0.950 . S
H369 C393 0.951 . S
H370 C395 0.951 . S
H371 C397 0.950 . S
H372 C398 0.950 . S
H373 C400 0.950 1_556 S
H374 C403 0.950 . S
H375 C404 0.950 . S
H376 C406 0.950 . S
H377 C407 0.950 . S
C378 H360 0.951 . S
C378 C379 1.366 . S
C378 C380 1.388 . S
C379 C378 1.366 . S
C379 C383 1.385 . S
C380 H361 0.951 . S
C380 C378 1.388 . S
C380 C381 1.366 . S
C381 C380 1.366 . S
C381 C382 1.414 . S
C381 C384 1.499 . S
C382 H362 0.950 . S
C382 C381 1.414 . S
C382 C383 1.374 . S
C383 H363 0.950 . S
C383 C379 1.385 . S
C383 C382 1.374 . S
C384 C381 1.499 . S
C384 C385 1.373 . S
C384 C386 1.389 . S
C385 H364 0.950 . S
C385 C384 1.373 . S
C385 C401 1.377 . S
C386 C384 1.389 . S
C386 C387 1.525 1_554 S
C386 C400 1.376 . S
C387 C386 1.525 1_556 S
C387 C388 1.397 . S
C387 C392 1.363 . S
C388 H365 0.950 . S
C388 C387 1.397 . S
C388 C389 1.334 . S
C389 H366 0.950 . S
C389 C388 1.334 . S
C389 C390 1.287 . S
C390 C389 1.287 . S
C390 C391 1.524 . S
C390 H409 0.913 . S
C391 H367 0.950 . S
C391 C390 1.524 . S
C391 C392 1.415 . S
C392 H368 0.950 . S
C392 C387 1.363 . S
C392 C391 1.415 . S
C393 H369 0.951 . S
C393 C394 1.366 . S
C393 C395 1.388 . S
C394 C393 1.366 . S
C394 C398 1.385 . S
C395 H370 0.951 . S
C395 C393 1.388 . S
C395 C396 1.366 . S
C396 C395 1.366 . S
C396 C397 1.414 . S
C396 C399 1.499 . S
C397 H371 0.950 . S
C397 C396 1.414 . S
C397 C398 1.374 . S
C398 H372 0.950 . S
C398 C394 1.385 . S
C398 C397 1.374 . S
C399 C396 1.499 . S
C399 C400 1.373 . S
C399 C401 1.389 . S
C400 H373 0.950 1_554 S
C400 C386 1.376 . S
C400 C399 1.373 . S
C401 C385 1.377 . S
C401 C399 1.389 . S
C401 C402 1.524 . S
C402 C401 1.524 . S
C402 C403 1.397 . S
C402 C407 1.363 . S
C403 H374 0.950 . S
C403 C402 1.397 . S
C403 C404 1.334 . S
C404 H375 0.950 . S
C404 C403 1.334 . S
C404 C405 1.287 . S
C405 C404 1.287 . S
C405 C406 1.524 . S
C405 H408 0.999 . S
C406 H376 0.950 . S
C406 C405 1.524 . S
C406 C407 1.415 . S
C407 H377 0.950 . S
C407 C402 1.363 . S
C407 C406 1.415 . S
H408 C405 0.999 . S
H409 C390 0.913 . S
H410 C428 0.951 . S
H411 C430 0.951 . S
H412 C432 0.950 . S
H413 C433 0.950 . S
H414 C435 0.950 . S
H415 C438 0.950 . S
H416 C439 0.950 . S
H417 C441 0.950 . S
H418 C442 0.950 . S
H419 C443 0.951 . S
H420 C445 0.951 . S
H421 C447 0.950 . S
H422 C448 0.950 . S
H423 C450 0.950 . S
H424 C453 0.950 . S
H425 C454 0.950 . S
H426 C456 0.950 . S
H427 C457 0.950 . S
C428 H410 0.951 . S
C428 C429 1.366 . S
C428 C430 1.388 . S
C429 C428 1.366 . S
C429 C433 1.385 . S
C430 H411 0.951 . S
C430 C428 1.388 . S
C430 C431 1.366 . S
C431 C430 1.366 . S
C431 C432 1.414 . S
C431 C434 1.499 . S
C432 H412 0.950 . S
C432 C431 1.414 . S
C432 C433 1.374 . S
C433 H413 0.950 . S
C433 C429 1.385 . S
C433 C432 1.374 . S
C434 C431 1.499 . S
C434 C435 1.373 . S
C434 C436 1.389 1_554 S
C435 H414 0.950 . S
C435 C434 1.373 . S
C435 C451 1.377 . S
C436 C434 1.389 1_556 S
C436 C437 1.524 . S
C436 C450 1.377 . S
C437 C436 1.524 . S
C437 C438 1.397 . S
C437 C442 1.363 . S
C438 H415 0.950 . S
C438 C437 1.397 . S
C438 C439 1.334 . S
C439 H416 0.950 . S
C439 C438 1.334 . S
C439 C440 1.287 . S
C440 C439 1.287 . S
C440 C441 1.524 . S
C440 H459 0.913 . S
C441 H417 0.950 . S
C441 C440 1.524 . S
C441 C442 1.415 . S
C442 H418 0.950 . S
C442 C437 1.363 . S
C442 C441 1.415 . S
C443 H419 0.951 . S
C443 C444 1.366 . S
C443 C445 1.388 . S
C444 C443 1.366 . S
C444 C448 1.385 . S
C445 H420 0.951 . S
C445 C443 1.388 . S
C445 C446 1.366 . S
C446 C445 1.366 . S
C446 C447 1.414 . S
C446 C449 1.499 . S
C447 H421 0.950 . S
C447 C446 1.414 . S
C447 C448 1.374 . S
C448 H422 0.950 . S
C448 C444 1.385 . S
C448 C447 1.374 . S
C449 C446 1.499 . S
C449 C450 1.373 1_554 S
C449 C451 1.389 . S
C450 H423 0.950 . S
C450 C436 1.377 . S
C450 C449 1.373 1_556 S
C451 C435 1.377 . S
C451 C449 1.389 . S
C451 C452 1.524 . S
C452 C451 1.524 . S
C452 C453 1.397 . S
C452 C457 1.363 . S
C453 H424 0.950 . S
C453 C452 1.397 . S
C453 C454 1.334 . S
C454 H425 0.950 . S
C454 C453 1.334 . S
C454 C455 1.287 . S
C455 C454 1.287 . S
C455 C456 1.524 . S
C455 H458 0.999 . S
C456 H426 0.950 . S
C456 C455 1.524 . S
C456 C457 1.415 . S
C457 H427 0.950 . S
C457 C452 1.363 . S
C457 C456 1.415 . S
H458 C455 0.999 . S
H459 C440 0.913 . S
H460 C478 0.951 . S
H461 C480 0.951 . S
H462 C482 0.950 . S
H463 C483 0.950 . S
H464 C485 0.950 1_556 S
H465 C488 0.950 . S
H466 C489 0.950 . S
H467 C491 0.950 . S
H468 C492 0.950 . S
H469 C493 0.951 . S
H470 C495 0.951 . S
H471 C497 0.950 . S
H472 C498 0.950 . S
H473 C500 0.950 . S
H474 C503 0.950 . S
H475 C504 0.950 . S
H476 C506 0.950 . S
H477 C507 0.950 . S
C478 H460 0.951 . S
C478 C479 1.366 . S
C478 C480 1.388 . S
C479 C478 1.366 . S
C479 C483 1.385 1_554 S
C480 H461 0.951 . S
C480 C478 1.388 . S
C480 C481 1.366 . S
C481 C480 1.366 . S
C481 C482 1.414 1_554 S
C481 C484 1.499 . S
C482 H462 0.950 . S
C482 C481 1.414 1_556 S
C482 C483 1.374 . S
C483 H463 0.950 . S
C483 C479 1.385 1_556 S
C483 C482 1.374 . S
C484 C481 1.499 . S
C484 C485 1.373 . S
C484 C486 1.389 . S
C485 H464 0.950 1_554 S
C485 C484 1.373 . S
C485 C501 1.377 . S
C486 C484 1.389 . S
C486 C487 1.524 . S
C486 C500 1.377 . S
C487 C486 1.524 . S
C487 C488 1.397 . S
C487 C492 1.363 . S
C488 H465 0.950 . S
C488 C487 1.397 . S
C488 C489 1.334 . S
C489 H466 0.950 . S
C489 C488 1.334 . S
C489 C490 1.287 . S
C490 C489 1.287 . S
C490 C491 1.524 . S
C490 H509 0.913 . S
C491 H467 0.950 . S
C491 C490 1.524 . S
C491 C492 1.415 . S
C492 H468 0.950 . S
C492 C487 1.363 . S
C492 C491 1.415 . S
C493 H469 0.951 . S
C493 C494 1.366 1_556 S
C493 C495 1.388 . S
C494 C493 1.366 1_554 S
C494 C498 1.385 . S
C495 H470 0.951 . S
C495 C493 1.388 . S
C495 C496 1.366 1_556 S
C496 C495 1.366 1_554 S
C496 C497 1.414 . S
C496 C499 1.499 . S
C497 H471 0.950 . S
C497 C496 1.414 . S
C497 C498 1.374 . S
C498 H472 0.950 . S
C498 C494 1.385 . S
C498 C497 1.374 . S
C499 C496 1.499 . S
C499 C500 1.373 . S
C499 C501 1.389 . S
C500 H473 0.950 . S
C500 C486 1.377 . S
C500 C499 1.373 . S
C501 C485 1.377 . S
C501 C499 1.389 . S
C501 C502 1.524 1_554 S
C502 C501 1.524 1_556 S
C502 C503 1.397 1_556 S
C502 C507 1.363 . S
C503 H474 0.950 . S
C503 C502 1.397 1_554 S
C503 C504 1.334 . S
C504 H475 0.950 . S
C504 C503 1.334 . S
C504 C505 1.287 1_554 S
C505 C504 1.287 1_556 S
C505 C506 1.524 . S
C505 H508 0.999 . S
C506 H476 0.950 . S
C506 C505 1.524 . S
C506 C507 1.415 . S
C507 H477 0.950 . S
C507 C502 1.363 . S
C507 C506 1.415 . S
H508 C505 0.999 . S
H509 C490 0.913 . S
H510 C528 0.951 1_556 S
H511 C530 0.951 1_556 S
H512 C532 0.950 . S
H513 C533 0.950 . S
H514 C535 0.950 . S
H515 C538 0.950 . S
H516 C539 0.950 . S
H517 C541 0.950 . S
H518 C542 0.950 . S
H519 C543 0.951 . S
H520 C545 0.951 . S
H521 C547 0.950 1_556 S
H522 C548 0.950 1_556 S
H523 C550 0.950 . S
H524 C553 0.950 . S
H525 C554 0.950 . S
H526 C556 0.950 . S
H527 C557 0.950 . S
C528 H510 0.951 1_554 S
C528 C529 1.366 . S
C528 C530 1.388 . S
C529 C528 1.366 . S
C529 C533 1.385 . S
C530 H511 0.951 1_554 S
C530 C528 1.388 . S
C530 C531 1.366 . S
C531 C530 1.366 . S
C531 C532 1.414 . S
C531 C534 1.499 . S
C532 H512 0.950 . S
C532 C531 1.414 . S
C532 C533 1.374 . S
C533 H513 0.950 . S
C533 C529 1.385 . S
C533 C532 1.374 . S
C534 C531 1.499 . S
C534 C535 1.373 . S
C534 C536 1.389 1_554 S
C535 H514 0.950 . S
C535 C534 1.373 . S
C535 C551 1.377 . S
C536 C534 1.389 1_556 S
C536 C537 1.524 . S
C536 C550 1.377 . S
C537 C536 1.524 . S
C537 C538 1.397 . S
C537 C542 1.363 . S
C538 H515 0.950 . S
C538 C537 1.397 . S
C538 C539 1.334 . S
C539 H516 0.950 . S
C539 C538 1.334 . S
C539 C540 1.287 . S
C540 C539 1.287 . S
C540 C541 1.524 . S
C540 H559 0.913 . S
C541 H517 0.950 . S
C541 C540 1.524 . S
C541 C542 1.415 . S
C542 H518 0.950 . S
C542 C537 1.363 . S
C542 C541 1.415 . S
C543 H519 0.951 . S
C543 C544 1.366 . S
C543 C545 1.388 . S
C544 C543 1.366 . S
C544 C548 1.385 . S
C545 H520 0.951 . S
C545 C543 1.388 . S
C545 C546 1.366 . S
C546 C545 1.366 . S
C546 C547 1.414 . S
C546 C549 1.499 . S
C547 H521 0.950 1_554 S
C547 C546 1.414 . S
C547 C548 1.374 . S
C548 H522 0.950 1_554 S
C548 C544 1.385 . S
C548 C547 1.374 . S
C549 C546 1.499 . S
C549 C550 1.373 1_554 S
C549 C551 1.389 . S
C550 H523 0.950 . S
C550 C536 1.377 . S
C550 C549 1.373 1_556 S
C551 C535 1.377 . S
C551 C549 1.389 . S
C551 C552 1.524 . S
C552 C551 1.524 . S
C552 C553 1.397 . S
C552 C557 1.363 . S
C553 H524 0.950 . S
C553 C552 1.397 . S
C553 C554 1.334 . S
C554 H525 0.950 . S
C554 C553 1.334 . S
C554 C555 1.287 . S
C555 C554 1.287 . S
C555 C556 1.524 . S
C555 H558 0.999 . S
C556 H526 0.950 . S
C556 C555 1.524 . S
C556 C557 1.415 . S
C557 H527 0.950 . S
C557 C552 1.363 . S
C557 C556 1.415 . S
H558 C555 0.999 . S
H559 C540 0.913 . S
H560 C578 0.951 . S
H561 C580 0.951 . S
H562 C582 0.950 . S
H563 C583 0.950 . S
H564 C585 0.950 . S
H565 C588 0.950 . S
H566 C589 0.950 . S
H567 C591 0.950 . S
H568 C592 0.950 . S
H569 C593 0.951 . S
H570 C595 0.951 . S
H571 C597 0.950 . S
H572 C598 0.950 . S
H573 C600 0.950 . S
H574 C603 0.950 . S
H575 C604 0.950 . S
H576 C606 0.950 . S
H577 C607 0.950 . S
C578 H560 0.951 . S
C578 C579 1.366 . S
C578 C580 1.388 . S
C579 C578 1.366 . S
C579 C583 1.385 . S
C580 H561 0.951 . S
C580 C578 1.388 . S
C580 C581 1.366 . S
C581 C580 1.366 . S
C581 C582 1.414 . S
C581 C584 1.499 . S
C582 H562 0.950 . S
C582 C581 1.414 . S
C582 C583 1.374 . S
C583 H563 0.950 . S
C583 C579 1.385 . S
C583 C582 1.374 . S
C584 C581 1.499 . S
C584 C585 1.373 . S
C584 C586 1.389 . S
C585 H564 0.950 . S
C585 C584 1.373 . S
C585 C601 1.377 . S
C586 C584 1.389 . S
C586 C587 1.524 . S
C586 C600 1.377 . S
C587 C586 1.524 . S
C587 C588 1.397 . S
C587 C592 1.363 . S
C588 H565 0.950 . S
C588 C587 1.397 . S
C588 C589 1.334 . S
C589 H566 0.950 . S
C589 C588 1.334 . S
C589 C590 1.287 . S
C590 C589 1.287 . S
C590 C591 1.524 . S
C590 H609 0.913 . S
C591 H567 0.950 . S
C591 C590 1.524 . S
C591 C592 1.415 . S
C592 H568 0.950 . S
C592 C587 1.363 . S
C592 C591 1.415 . S
C593 H569 0.951 . S
C593 C594 1.366 . S
C593 C595 1.388 . S
C594 C593 1.366 . S
C594 C598 1.385 . S
C595 H570 0.951 . S
C595 C593 1.388 . S
C595 C596 1.366 . S
C596 C595 1.366 . S
C596 C597 1.414 . S
C596 C599 1.499 . S
C597 H571 0.950 . S
C597 C596 1.414 . S
C597 C598 1.374 . S
C598 H572 0.950 . S
C598 C594 1.385 . S
C598 C597 1.374 . S
C599 C596 1.499 . S
C599 C600 1.373 . S
C599 C601 1.389 . S
C600 H573 0.950 . S
C600 C586 1.377 . S
C600 C599 1.373 . S
C601 C585 1.377 . S
C601 C599 1.389 . S
C601 C602 1.524 . S
C602 C601 1.524 . S
C602 C603 1.397 . S
C602 C607 1.363 . S
C603 H574 0.950 . S
C603 C602 1.397 . S
C603 C604 1.334 . S
C604 H575 0.950 . S
C604 C603 1.334 . S
C604 C605 1.287 . S
C605 C604 1.287 . S
C605 C606 1.524 . S
C605 H608 0.999 . S
C606 H576 0.950 . S
C606 C605 1.524 . S
C606 C607 1.415 . S
C607 H577 0.950 . S
C607 C602 1.363 . S
C607 C606 1.415 . S
H608 C605 0.999 . S
H609 C590 0.913 . S
H610 C628 0.951 . S
H611 C630 0.951 . S
H612 C632 0.950 . S
H613 C633 0.950 . S
H614 C635 0.950 . S
H615 C638 0.950 . S
H616 C639 0.950 . S
H617 C641 0.950 . S
H618 C642 0.950 . S
H619 C643 0.951 . S
H620 C645 0.951 . S
H621 C647 0.950 . S
H622 C648 0.950 . S
H623 C650 0.950 . S
H624 C653 0.950 . S
H625 C654 0.950 . S
H626 C656 0.950 . S
H627 C657 0.950 . S
C628 H610 0.951 . S
C628 C629 1.366 . S
C628 C630 1.388 . S
C629 C628 1.366 . S
C629 C633 1.385 . S
C630 H611 0.951 . S
C630 C628 1.388 . S
C630 C631 1.366 . S
C631 C630 1.366 . S
C631 C632 1.414 . S
C631 C634 1.499 . S
C632 H612 0.950 . S
C632 C631 1.414 . S
C632 C633 1.374 . S
C633 H613 0.950 . S
C633 C629 1.385 . S
C633 C632 1.374 . S
C634 C631 1.499 . S
C634 C635 1.373 . S
C634 C636 1.389 . S
C635 H614 0.950 . S
C635 C634 1.373 . S
C635 C651 1.377 . S
C636 C634 1.389 . S
C636 C637 1.524 . S
C636 C650 1.377 . S
C637 C636 1.524 . S
C637 C638 1.397 . S
C637 C642 1.363 . S
C638 H615 0.950 . S
C638 C637 1.397 . S
C638 C639 1.334 . S
C639 H616 0.950 . S
C639 C638 1.334 . S
C639 C640 1.287 . S
C640 C639 1.287 . S
C640 C641 1.524 . S
C640 H659 0.913 . S
C641 H617 0.950 . S
C641 C640 1.524 . S
C641 C642 1.415 . S
C642 H618 0.950 . S
C642 C637 1.363 . S
C642 C641 1.415 . S
C643 H619 0.951 . S
C643 C644 1.366 . S
C643 C645 1.388 . S
C644 C643 1.366 . S
C644 C648 1.385 . S
C645 H620 0.951 . S
C645 C643 1.388 . S
C645 C646 1.366 . S
C646 C645 1.366 . S
C646 C647 1.414 . S
C646 C649 1.499 . S
C647 H621 0.950 . S
C647 C646 1.414 . S
C647 C648 1.374 . S
C648 H622 0.950 . S
C648 C644 1.385 . S
C648 C647 1.374 . S
C649 C646 1.499 . S
C649 C650 1.373 . S
C649 C651 1.389 . S
C650 H623 0.950 . S
C650 C636 1.377 . S
C650 C649 1.373 . S
C651 C635 1.377 . S
C651 C649 1.389 . S
C651 C652 1.524 . S
C652 C651 1.524 . S
C652 C653 1.397 . S
C652 C657 1.363 . S
C653 H624 0.950 . S
C653 C652 1.397 . S
C653 C654 1.334 . S
C654 H625 0.950 . S
C654 C653 1.334 . S
C654 C655 1.287 . S
C655 C654 1.287 . S
C655 C656 1.524 . S
C655 H658 0.999 . S
C656 H626 0.950 . S
C656 C655 1.524 . S
C656 C657 1.415 . S
C657 H627 0.950 . S
C657 C652 1.363 . S
C657 C656 1.415 . S
H658 C655 0.999 . S
H659 C640 0.913 . S
H660 C678 0.951 . S
H661 C680 0.951 . S
H662 C682 0.950 . S
H663 C683 0.950 . S
H664 C685 0.950 . S
H665 C688 0.950 . S
H666 C689 0.950 . S
H667 C691 0.950 . S
H668 C692 0.950 . S
H669 C693 0.951 . S
H670 C695 0.951 . S
H671 C697 0.950 . S
H672 C698 0.950 . S
H673 C700 0.950 . S
H674 C703 0.950 . S
H675 C704 0.950 . S
H676 C706 0.950 . S
H677 C707 0.950 . S
C678 H660 0.951 . S
C678 C679 1.366 . S
C678 C680 1.388 . S
C679 C678 1.366 . S
C679 C683 1.385 . S
C680 H661 0.951 . S
C680 C678 1.388 . S
C680 C681 1.366 . S
C681 C680 1.366 . S
C681 C682 1.414 . S
C681 C684 1.499 . S
C682 H662 0.950 . S
C682 C681 1.414 . S
C682 C683 1.374 . S
C683 H663 0.950 . S
C683 C679 1.385 . S
C683 C682 1.374 . S
C684 C681 1.499 . S
C684 C685 1.373 . S
C684 C686 1.389 . S
C685 H664 0.950 . S
C685 C684 1.373 . S
C685 C701 1.377 . S
C686 C684 1.389 . S
C686 C687 1.524 . S
C686 C700 1.377 . S
C687 C686 1.524 . S
C687 C688 1.397 . S
C687 C692 1.363 . S
C688 H665 0.950 . S
C688 C687 1.397 . S
C688 C689 1.334 . S
C689 H666 0.950 . S
C689 C688 1.334 . S
C689 C690 1.287 . S
C690 C689 1.287 . S
C690 C691 1.524 . S
C690 H709 0.913 . S
C691 H667 0.950 . S
C691 C690 1.524 . S
C691 C692 1.415 . S
C692 H668 0.950 . S
C692 C687 1.363 . S
C692 C691 1.415 . S
C693 H669 0.951 . S
C693 C694 1.366 . S
C693 C695 1.388 . S
C694 C693 1.366 . S
C694 C698 1.385 . S
C695 H670 0.951 . S
C695 C693 1.388 . S
C695 C696 1.366 . S
C696 C695 1.366 . S
C696 C697 1.414 . S
C696 C699 1.499 . S
C697 H671 0.950 . S
C697 C696 1.414 . S
C697 C698 1.374 . S
C698 H672 0.950 . S
C698 C694 1.385 . S
C698 C697 1.374 . S
C699 C696 1.499 . S
C699 C700 1.373 . S
C699 C701 1.389 . S
C700 H673 0.950 . S
C700 C686 1.377 . S
C700 C699 1.373 . S
C701 C685 1.377 . S
C701 C699 1.389 . S
C701 C702 1.524 . S
C702 C701 1.524 . S
C702 C703 1.397 . S
C702 C707 1.363 . S
C703 H674 0.950 . S
C703 C702 1.397 . S
C703 C704 1.334 . S
C704 H675 0.950 . S
C704 C703 1.334 . S
C704 C705 1.287 . S
C705 C704 1.287 . S
C705 C706 1.524 . S
C705 H708 0.999 . S
C706 H676 0.950 . S
C706 C705 1.524 . S
C706 C707 1.415 . S
C707 H677 0.950 . S
C707 C702 1.363 . S
C707 C706 1.415 . S
H708 C705 0.999 . S
H709 C690 0.913 . S
H710 C728 0.951 . S
H711 C730 0.951 . S
H712 C732 0.950 . S
H713 C733 0.950 . S
H714 C735 0.950 . S
H715 C738 0.950 . S
H716 C739 0.950 . S
H717 C741 0.950 . S
H718 C742 0.950 . S
H719 C743 0.951 . S
H720 C745 0.951 . S
H721 C747 0.950 . S
H722 C748 0.950 . S
H723 C750 0.950 . S
H724 C753 0.950 . S
H725 C754 0.950 . S
H726 C756 0.950 . S
H727 C757 0.950 . S
C728 H710 0.951 . S
C728 C729 1.366 . S
C728 C730 1.388 . S
C729 C728 1.366 . S
C729 C733 1.385 . S
C730 H711 0.951 . S
C730 C728 1.388 . S
C730 C731 1.366 . S
C731 C730 1.366 . S
C731 C732 1.414 . S
C731 C734 1.499 . S
C732 H712 0.950 . S
C732 C731 1.414 . S
C732 C733 1.374 . S
C733 H713 0.950 . S
C733 C729 1.385 . S
C733 C732 1.374 . S
C734 C731 1.499 . S
C734 C735 1.373 . S
C734 C736 1.389 . S
C735 H714 0.950 . S
C735 C734 1.373 . S
C735 C751 1.377 . S
C736 C734 1.389 . S
C736 C737 1.524 . S
C736 C750 1.377 . S
C737 C736 1.524 . S
C737 C738 1.397 . S
C737 C742 1.363 . S
C738 H715 0.950 . S
C738 C737 1.397 . S
C738 C739 1.334 . S
C739 H716 0.950 . S
C739 C738 1.334 . S
C739 C740 1.287 . S
C740 C739 1.287 . S
C740 C741 1.524 . S
C740 H759 0.913 . S
C741 H717 0.950 . S
C741 C740 1.524 . S
C741 C742 1.415 . S
C742 H718 0.950 . S
C742 C737 1.363 . S
C742 C741 1.415 . S
C743 H719 0.951 . S
C743 C744 1.366 . S
C743 C745 1.388 . S
C744 C743 1.366 . S
C744 C748 1.385 . S
C745 H720 0.951 . S
C745 C743 1.388 . S
C745 C746 1.366 . S
C746 C745 1.366 . S
C746 C747 1.414 . S
C746 C749 1.499 . S
C747 H721 0.950 . S
C747 C746 1.414 . S
C747 C748 1.374 . S
C748 H722 0.950 . S
C748 C744 1.385 . S
C748 C747 1.374 . S
C749 C746 1.499 . S
C749 C750 1.373 . S
C749 C751 1.389 . S
C750 H723 0.950 . S
C750 C736 1.377 . S
C750 C749 1.373 . S
C751 C735 1.377 . S
C751 C749 1.389 . S
C751 C752 1.524 . S
C752 C751 1.524 . S
C752 C753 1.397 . S
C752 C757 1.363 . S
C753 H724 0.950 . S
C753 C752 1.397 . S
C753 C754 1.334 . S
C754 H725 0.950 . S
C754 C753 1.334 . S
C754 C755 1.287 . S
C755 C754 1.287 . S
C755 C756 1.524 . S
C755 H758 0.999 . S
C756 H726 0.950 . S
C756 C755 1.524 . S
C756 C757 1.415 . S
C757 H727 0.950 . S
C757 C752 1.363 . S
C757 C756 1.415 . S
H758 C755 0.999 . S
H759 C740 0.913 . S
H760 C778 0.951 . S
H761 C780 0.951 . S
H762 C782 0.950 . S
H763 C783 0.950 . S
H764 C785 0.950 . S
H765 C788 0.950 . S
H766 C789 0.950 . S
H767 C791 0.950 . S
H768 C792 0.950 . S
H769 C793 0.951 . S
H770 C795 0.951 . S
H771 C797 0.950 . S
H772 C798 0.950 . S
H773 C800 0.950 . S
H774 C803 0.950 . S
H775 C804 0.950 . S
H776 C806 0.950 . S
H777 C807 0.950 . S
C778 H760 0.951 . S
C778 C779 1.366 . S
C778 C780 1.388 . S
C779 C778 1.366 . S
C779 C783 1.385 . S
C780 H761 0.951 . S
C780 C778 1.388 . S
C780 C781 1.366 . S
C781 C780 1.366 . S
C781 C782 1.414 . S
C781 C784 1.499 . S
C782 H762 0.950 . S
C782 C781 1.414 . S
C782 C783 1.374 . S
C783 H763 0.950 . S
C783 C779 1.385 . S
C783 C782 1.374 . S
C784 C781 1.499 . S
C784 C785 1.373 . S
C784 C786 1.389 . S
C785 H764 0.950 . S
C785 C784 1.373 . S
C785 C801 1.377 . S
C786 C784 1.389 . S
C786 C787 1.524 . S
C786 C800 1.377 . S
C787 C786 1.524 . S
C787 C788 1.397 1_455 S
C787 C792 1.363 . S
C788 H765 0.950 . S
C788 C787 1.397 1_655 S
C788 C789 1.334 . S
C789 H766 0.950 . S
C789 C788 1.334 . S
C789 C790 1.287 . S
C790 C789 1.287 . S
C790 C791 1.524 . S
C790 H809 0.913 . S
C791 H767 0.950 . S
C791 C790 1.524 . S
C791 C792 1.415 1_655 S
C792 H768 0.950 . S
C792 C787 1.363 . S
C792 C791 1.415 1_455 S
C793 H769 0.951 . S
C793 C794 1.366 . S
C793 C795 1.388 . S
C794 C793 1.366 . S
C794 C798 1.385 . S
C795 H770 0.951 . S
C795 C793 1.388 . S
C795 C796 1.366 . S
C796 C795 1.366 . S
C796 C797 1.414 . S
C796 C799 1.499 . S
C797 H771 0.950 . S
C797 C796 1.414 . S
C797 C798 1.374 . S
C798 H772 0.950 . S
C798 C794 1.385 . S
C798 C797 1.374 . S
C799 C796 1.499 . S
C799 C800 1.373 . S
C799 C801 1.389 . S
C800 H773 0.950 . S
C800 C786 1.377 . S
C800 C799 1.373 . S
C801 C785 1.377 . S
C801 C799 1.389 . S
C801 C802 1.524 . S
C802 C801 1.524 . S
C802 C803 1.397 . S
C802 C807 1.363 . S
C803 H774 0.950 . S
C803 C802 1.397 . S
C803 C804 1.334 . S
C804 H775 0.950 . S
C804 C803 1.334 . S
C804 C805 1.287 . S
C805 C804 1.287 . S
C805 C806 1.524 . S
C805 H808 0.999 . S
C806 H776 0.950 . S
C806 C805 1.524 . S
C806 C807 1.415 . S
C807 H777 0.950 . S
C807 C802 1.363 . S
C807 C806 1.415 . S
H808 C805 0.999 . S
H809 C790 0.913 . S
H810 C828 0.951 . S
H811 C830 0.951 . S
H812 C832 0.950 . S
H813 C833 0.962 . S
H814 C835 0.950 . S
H815 C838 0.950 . S
H816 C839 0.950 . S
H817 C841 0.950 . S
H818 C842 0.950 . S
H819 C843 0.951 . S
H820 C845 0.951 . S
H821 C847 0.950 . S
H822 C848 0.950 . S
H823 C850 0.950 . S
H824 C853 0.950 . S
H825 C854 0.950 . S
H826 C856 0.950 . S
H827 C857 0.950 . S
C828 H810 0.951 . S
C828 C829 1.366 . S
C828 C830 1.388 . S
C829 C828 1.366 . S
C829 C833 1.385 . S
C830 H811 0.951 . S
C830 C828 1.388 . S
C830 C831 1.366 . S
C831 C830 1.366 . S
C831 C832 1.414 . S
C831 C834 1.499 . S
C832 H812 0.950 . S
C832 C831 1.414 . S
C832 C833 1.374 . S
C833 H813 0.962 . S
C833 C829 1.385 . S
C833 C832 1.374 . S
C834 C831 1.499 . S
C834 C835 1.373 . S
C834 C836 1.389 . S
C835 H814 0.950 . S
C835 C834 1.373 . S
C835 C851 1.377 . S
C836 C834 1.389 . S
C836 C837 1.524 . S
C836 C850 1.377 . S
C837 C836 1.524 . S
C837 C838 1.397 . S
C837 C842 1.363 . S
C838 H815 0.950 . S
C838 C837 1.397 . S
C838 C839 1.334 . S
C839 H816 0.950 . S
C839 C838 1.334 . S
C839 C840 1.287 . S
C840 C839 1.287 . S
C840 C841 1.524 . S
C840 H859 0.913 . S
C841 H817 0.950 . S
C841 C840 1.524 . S
C841 C842 1.415 . S
C842 H818 0.950 . S
C842 C837 1.363 . S
C842 C841 1.415 . S
C843 H819 0.951 . S
C843 C844 1.366 . S
C843 C845 1.388 . S
C844 C843 1.366 . S
C844 C848 1.385 . S
C845 H820 0.951 . S
C845 C843 1.388 . S
C845 C846 1.366 . S
C846 C845 1.366 . S
C846 C847 1.414 . S
C846 C849 1.499 . S
C847 H821 0.950 . S
C847 C846 1.414 . S
C847 C848 1.374 . S
C848 H822 0.950 . S
C848 C844 1.385 . S
C848 C847 1.374 . S
C849 C846 1.499 . S
C849 C850 1.373 . S
C849 C851 1.389 . S
C850 H823 0.950 . S
C850 C836 1.377 . S
C850 C849 1.373 . S
C851 C835 1.377 . S
C851 C849 1.389 . S
C851 C852 1.524 . S
C852 C851 1.524 . S
C852 C853 1.397 . S
C852 C857 1.363 . S
C853 H824 0.950 . S
C853 C852 1.397 . S
C853 C854 1.334 . S
C854 H825 0.950 . S
C854 C853 1.334 . S
C854 C855 1.287 . S
C855 C854 1.287 . S
C855 C856 1.524 . S
C855 H858 0.999 . S
C856 H826 0.950 . S
C856 C855 1.524 . S
C856 C857 1.415 . S
C857 H827 0.950 . S
C857 C852 1.363 . S
C857 C856 1.415 . S
H858 C855 0.999 . S
H859 C840 0.913 . S
H860 C878 0.951 . S
H861 C880 0.951 . S
H862 C882 0.950 . S
H863 C883 0.950 1_455 S
H864 C885 0.950 . S
H865 C888 0.950 . S
H866 C889 0.950 . S
H867 C891 0.950 . S
H868 C892 0.950 . S
H869 C893 0.951 . S
H870 C895 0.951 . S
H871 C897 0.950 . S
H872 C898 0.950 . S
H873 C900 0.950 . S
H874 C903 0.950 . S
H875 C904 0.950 . S
H876 C906 0.950 . S
H877 C907 0.950 . S
C878 H860 0.951 . S
C878 C879 1.366 . S
C878 C880 1.388 . S
C879 C878 1.366 . S
C879 C883 1.385 . S
C880 H861 0.951 . S
C880 C878 1.388 . S
C880 C881 1.366 . S
C881 C880 1.366 . S
C881 C882 1.414 . S
C881 C884 1.499 . S
C882 H862 0.950 . S
C882 C881 1.414 . S
C882 C883 1.374 . S
C883 H863 0.950 1_655 S
C883 C879 1.385 . S
C883 C882 1.374 . S
C884 C881 1.499 . S
C884 C885 1.373 . S
C884 C886 1.389 . S
C885 H864 0.950 . S
C885 C884 1.373 . S
C885 C901 1.377 . S
C886 C884 1.389 . S
C886 C887 1.524 . S
C886 C900 1.377 . S
C887 C886 1.524 . S
C887 C888 1.397 . S
C887 C892 1.363 . S
C888 H865 0.950 . S
C888 C887 1.397 . S
C888 C889 1.334 . S
C889 H866 0.950 . S
C889 C888 1.334 . S
C889 C890 1.287 . S
C890 C889 1.287 . S
C890 C891 1.524 . S
C890 H909 0.913 . S
C891 H867 0.950 . S
C891 C890 1.524 . S
C891 C892 1.415 . S
C892 H868 0.950 . S
C892 C887 1.363 . S
C892 C891 1.415 . S
C893 H869 0.951 . S
C893 C894 1.366 . S
C893 C895 1.388 . S
C894 C893 1.366 . S
C894 C898 1.385 . S
C895 H870 0.951 . S
C895 C893 1.388 . S
C895 C896 1.366 . S
C896 C895 1.366 . S
C896 C897 1.414 . S
C896 C899 1.499 . S
C897 H871 0.950 . S
C897 C896 1.414 . S
C897 C898 1.374 . S
C898 H872 0.950 . S
C898 C894 1.385 . S
C898 C897 1.374 . S
C899 C896 1.499 . S
C899 C900 1.373 . S
C899 C901 1.389 . S
C900 H873 0.950 . S
C900 C886 1.377 . S
C900 C899 1.373 . S
C901 C885 1.377 . S
C901 C899 1.389 . S
C901 C902 1.524 . S
C902 C901 1.524 . S
C902 C903 1.397 . S
C902 C907 1.363 . S
C903 H874 0.950 . S
C903 C902 1.397 . S
C903 C904 1.334 . S
C904 H875 0.950 . S
C904 C903 1.334 . S
C904 C905 1.287 . S
C905 C904 1.287 . S
C905 C906 1.524 . S
C905 H908 0.999 . S
C906 H876 0.950 . S
C906 C905 1.524 . S
C906 C907 1.415 . S
C907 H877 0.950 . S
C907 C902 1.363 . S
C907 C906 1.415 . S
H908 C905 0.999 . S
H909 C890 0.913 . S
H910 C928 0.951 . S
H911 C930 0.951 . S
H912 C932 0.950 . S
H913 C933 0.950 . S
H914 C935 0.950 . S
H915 C938 0.950 1_565 S
H916 C939 0.950 . S
H917 C941 0.950 . S
H918 C942 0.950 . S
H919 C943 0.951 . S
H920 C945 0.951 . S
H921 C947 0.950 . S
H922 C948 0.950 . S
H923 C950 0.950 . S
H924 C953 0.950 . S
H925 C954 0.950 . S
H926 C956 0.950 . S
H927 C957 0.950 . S
C928 H910 0.951 . S
C928 C929 1.366 . S
C928 C930 1.388 . S
C929 C928 1.366 . S
C929 C933 1.385 . S
C930 H911 0.951 . S
C930 C928 1.388 . S
C930 C931 1.366 . S
C931 C930 1.366 . S
C931 C932 1.414 . S
C931 C934 1.499 . S
C932 H912 0.950 . S
C932 C931 1.414 . S
C932 C933 1.374 . S
C933 H913 0.950 . S
C933 C929 1.385 . S
C933 C932 1.374 . S
C934 C931 1.499 . S
C934 C935 1.373 . S
C934 C936 1.389 . S
C935 H914 0.950 . S
C935 C934 1.373 . S
C935 C951 1.377 . S
C936 C934 1.389 . S
C936 C937 1.524 1_565 S
C936 C950 1.377 . S
C937 C936 1.524 1_545 S
C937 C938 1.397 . S
C937 C942 1.363 . S
C938 H915 0.950 1_545 S
C938 C937 1.397 . S
C938 C939 1.334 . S
C939 H916 0.950 . S
C939 C938 1.334 . S
C939 C940 1.287 . S
C940 C939 1.287 . S
C940 C941 1.524 . S
C940 H959 0.913 . S
C941 H917 0.950 . S
C941 C940 1.524 . S
C941 C942 1.415 . S
C942 H918 0.950 . S
C942 C937 1.363 . S
C942 C941 1.415 . S
C943 H919 0.951 . S
C943 C944 1.366 . S
C943 C945 1.388 . S
C944 C943 1.366 . S
C944 C948 1.385 . S
C945 H920 0.951 . S
C945 C943 1.388 . S
C945 C946 1.366 . S
C946 C945 1.366 . S
C946 C947 1.414 . S
C946 C949 1.499 . S
C947 H921 0.950 . S
C947 C946 1.414 . S
C947 C948 1.374 . S
C948 H922 0.950 . S
C948 C944 1.385 . S
C948 C947 1.374 . S
C949 C946 1.499 . S
C949 C950 1.373 . S
C949 C951 1.389 . S
C950 H923 0.950 . S
C950 C936 1.377 . S
C950 C949 1.373 . S
C951 C935 1.377 . S
C951 C949 1.389 . S
C951 C952 1.524 . S
C952 C951 1.524 . S
C952 C953 1.397 . S
C952 C957 1.363 . S
C953 H924 0.950 . S
C953 C952 1.397 . S
C953 C954 1.334 . S
C954 H925 0.950 . S
C954 C953 1.334 . S
C954 C955 1.287 . S
C955 C954 1.287 . S
C955 C956 1.524 . S
C955 H958 0.999 . S
C956 H926 0.950 . S
C956 C955 1.524 . S
C956 C957 1.415 . S
C957 H927 0.950 . S
C957 C952 1.363 . S
C957 C956 1.415 . S
H958 C955 0.999 . S
H959 C940 0.913 . S
H960 C978 0.951 . S
H961 C980 0.951 . S
H962 C982 0.950 . S
H963 C983 0.950 . S
H964 C985 0.950 . S
H965 C988 0.950 . S
H966 C989 0.950 . S
H967 C991 0.950 . S
H968 C992 0.950 . S
H969 C993 0.951 . S
H970 C995 0.951 . S
H971 C997 0.950 . S
H972 C998 0.950 . S
H973 C1000 0.950 . S
H974 C1003 0.950 . S
H975 C1004 0.950 . S
H976 C1006 0.950 . S
H977 C1007 0.950 . S
C978 H960 0.951 . S
C978 C979 1.366 . S
C978 C980 1.388 . S
C979 C978 1.366 . S
C979 C983 1.385 . S
C980 H961 0.951 . S
C980 C978 1.388 . S
C980 C981 1.366 . S
C981 C980 1.366 . S
C981 C982 1.414 . S
C981 C984 1.499 . S
C982 H962 0.950 . S
C982 C981 1.414 . S
C982 C983 1.374 . S
C983 H963 0.950 . S
C983 C979 1.385 . S
C983 C982 1.374 . S
C984 C981 1.499 . S
C984 C985 1.373 . S
C984 C986 1.389 . S
C985 H964 0.950 . S
C985 C984 1.373 . S
C985 C1001 1.377 . S
C986 C984 1.389 . S
C986 C987 1.524 . S
C986 C1000 1.377 . S
C987 C986 1.524 . S
C987 C988 1.397 1_565 S
C987 C992 1.363 . S
C988 H965 0.950 . S
C988 C987 1.397 1_545 S
C988 C989 1.334 . S
C989 H966 0.950 . S
C989 C988 1.334 . S
C989 C990 1.287 . S
C990 C989 1.287 . S
C990 C991 1.524 . S
C990 H1009 0.913 . S
C991 H967 0.950 . S
C991 C990 1.524 . S
C991 C992 1.415 1_545 S
C992 H968 0.950 . S
C992 C987 1.363 . S
C992 C991 1.415 1_565 S
C993 H969 0.951 . S
C993 C994 1.366 . S
C993 C995 1.388 . S
C994 C993 1.366 . S
C994 C998 1.385 . S
C995 H970 0.951 . S
C995 C993 1.388 . S
C995 C996 1.366 . S
C996 C995 1.366 . S
C996 C997 1.414 . S
C996 C999 1.499 . S
C997 H971 0.950 . S
C997 C996 1.414 . S
C997 C998 1.374 . S
C998 H972 0.950 . S
C998 C994 1.385 . S
C998 C997 1.374 . S
C999 C996 1.499 . S
C999 C1000 1.373 . S
C999 C1001 1.389 . S
C1000 H973 0.950 . S
C1000 C986 1.377 . S
C1000 C999 1.373 . S
C1001 C985 1.377 . S
C1001 C999 1.389 . S
C1001 C1002 1.524 . S
C1002 C1001 1.524 . S
C1002 C1003 1.397 . S
C1002 C1007 1.363 . S
C1003 H974 0.950 . S
C1003 C1002 1.397 . S
C1003 C1004 1.334 . S
C1004 H975 0.950 . S
C1004 C1003 1.334 . S
C1004 C1005 1.287 . S
C1005 C1004 1.287 . S
C1005 C1006 1.524 . S
C1005 H1008 0.999 . S
C1006 H976 0.950 . S
C1006 C1005 1.524 . S
C1006 C1007 1.415 . S
C1007 H977 0.950 . S
C1007 C1002 1.363 . S
C1007 C1006 1.415 . S
H1008 C1005 0.999 . S
H1009 C990 0.913 . S
H1010 C1028 0.951 . S
H1011 C1030 0.951 . S
H1012 C1032 0.950 . S
H1013 C1033 0.982 . S
H1014 C1035 0.950 . S
H1015 C1038 0.950 . S
H1016 C1039 0.950 . S
H1017 C1041 0.950 . S
H1018 C1042 0.950 . S
H1019 C1043 0.951 . S
H1020 C1045 0.951 . S
H1021 C1047 0.950 . S
H1022 C1048 0.950 . S
H1023 C1050 0.950 . S
H1024 C1053 0.950 . S
H1025 C1054 0.950 . S
H1026 C1056 0.950 . S
H1027 C1057 0.950 . S
C1028 H1010 0.951 . S
C1028 C1029 1.366 . S
C1028 C1030 1.388 . S
C1029 C1028 1.366 . S
C1029 C1033 1.385 . S
C1030 H1011 0.951 . S
C1030 C1028 1.388 . S
C1030 C1031 1.366 . S
C1031 C1030 1.366 . S
C1031 C1032 1.414 . S
C1031 C1034 1.499 . S
C1032 H1012 0.950 . S
C1032 C1031 1.414 . S
C1032 C1033 1.374 . S
C1033 H1013 0.982 . S
C1033 C1029 1.385 . S
C1033 C1032 1.374 . S
C1034 C1031 1.499 . S
C1034 C1035 1.373 . S
C1034 C1036 1.389 . S
C1035 H1014 0.950 . S
C1035 C1034 1.373 . S
C1035 C1051 1.377 . S
C1036 C1034 1.389 . S
C1036 C1037 1.524 . S
C1036 C1050 1.377 . S
C1037 C1036 1.524 . S
C1037 C1038 1.397 . S
C1037 C1042 1.363 . S
C1038 H1015 0.950 . S
C1038 C1037 1.397 . S
C1038 C1039 1.334 . S
C1039 H1016 0.950 . S
C1039 C1038 1.334 . S
C1039 C1040 1.287 . S
C1040 C1039 1.287 . S
C1040 C1041 1.524 . S
C1040 H1059 0.913 . S
C1041 H1017 0.950 . S
C1041 C1040 1.524 . S
C1041 C1042 1.415 . S
C1042 H1018 0.950 . S
C1042 C1037 1.363 . S
C1042 C1041 1.415 . S
C1043 H1019 0.951 . S
C1043 C1044 1.366 . S
C1043 C1045 1.388 . S
C1044 C1043 1.366 . S
C1044 C1048 1.385 . S
C1045 H1020 0.951 . S
C1045 C1043 1.388 . S
C1045 C1046 1.366 . S
C1046 C1045 1.366 . S
C1046 C1047 1.414 . S
C1046 C1049 1.499 . S
C1047 H1021 0.950 . S
C1047 C1046 1.414 . S
C1047 C1048 1.374 . S
C1048 H1022 0.950 . S
C1048 C1044 1.385 . S
C1048 C1047 1.374 . S
C1049 C1046 1.499 . S
C1049 C1050 1.373 . S
C1049 C1051 1.389 . S
C1050 H1023 0.950 . S
C1050 C1036 1.377 . S
C1050 C1049 1.373 . S
C1051 C1035 1.377 . S
C1051 C1049 1.389 . S
C1051 C1052 1.524 . S
C1052 C1051 1.524 . S
C1052 C1053 1.397 . S
C1052 C1057 1.363 . S
C1053 H1024 0.950 . S
C1053 C1052 1.397 . S
C1053 C1054 1.334 . S
C1054 H1025 0.950 . S
C1054 C1053 1.334 . S
C1054 C1055 1.287 . S
C1055 C1054 1.287 . S
C1055 C1056 1.524 . S
C1055 H1058 0.999 . S
C1056 H1026 0.950 . S
C1056 C1055 1.524 . S
C1056 C1057 1.415 . S
C1057 H1027 0.950 . S
C1057 C1052 1.363 . S
C1057 C1056 1.415 . S
H1058 C1055 0.999 . S
H1059 C1040 0.913 . S
H1060 C1078 0.951 . S
H1061 C1080 0.951 . S
H1062 C1082 0.950 . S
H1063 C1083 0.950 . S
H1064 C1085 0.950 . S
H1065 C1088 0.950 1_565 S
H1066 C1089 0.950 . S
H1067 C1091 0.950 . S
H1068 C1092 0.950 . S
H1069 C1093 0.951 . S
H1070 C1095 0.951 . S
H1071 C1097 0.950 . S
H1072 C1098 0.950 . S
H1073 C1100 0.950 . S
H1074 C1103 0.950 . S
H1075 C1104 0.950 . S
H1076 C1106 0.950 . S
H1077 C1107 0.950 . S
C1078 H1060 0.951 . S
C1078 C1079 1.366 . S
C1078 C1080 1.388 . S
C1079 C1078 1.366 . S
C1079 C1083 1.385 . S
C1080 H1061 0.951 . S
C1080 C1078 1.388 . S
C1080 C1081 1.366 . S
C1081 C1080 1.366 . S
C1081 C1082 1.414 . S
C1081 C1084 1.499 . S
C1082 H1062 0.950 . S
C1082 C1081 1.414 . S
C1082 C1083 1.374 . S
C1083 H1063 0.950 . S
C1083 C1079 1.385 . S
C1083 C1082 1.374 . S
C1084 C1081 1.499 . S
C1084 C1085 1.373 . S
C1084 C1086 1.389 . S
C1085 H1064 0.950 . S
C1085 C1084 1.373 . S
C1085 C1101 1.377 . S
C1086 C1084 1.389 . S
C1086 C1087 1.524 . S
C1086 C1100 1.377 . S
C1087 C1086 1.524 . S
C1087 C1088 1.397 . S
C1087 C1092 1.363 . S
C1088 H1065 0.950 1_545 S
C1088 C1087 1.397 . S
C1088 C1089 1.334 1_545 S
C1089 H1066 0.950 . S
C1089 C1088 1.334 1_565 S
C1089 C1090 1.287 . S
C1090 C1089 1.287 . S
C1090 C1091 1.524 1_565 S
C1090 H1109 0.913 . S
C1091 H1067 0.950 . S
C1091 C1090 1.524 1_545 S
C1091 C1092 1.415 . S
C1092 H1068 0.950 . S
C1092 C1087 1.363 . S
C1092 C1091 1.415 . S
C1093 H1069 0.951 . S
C1093 C1094 1.366 . S
C1093 C1095 1.388 . S
C1094 C1093 1.366 . S
C1094 C1098 1.385 . S
C1095 H1070 0.951 . S
C1095 C1093 1.388 . S
C1095 C1096 1.366 . S
C1096 C1095 1.366 . S
C1096 C1097 1.414 . S
C1096 C1099 1.499 . S
C1097 H1071 0.950 . S
C1097 C1096 1.414 . S
C1097 C1098 1.374 . S
C1098 H1072 0.950 . S
C1098 C1094 1.385 . S
C1098 C1097 1.374 . S
C1099 C1096 1.499 . S
C1099 C1100 1.373 . S
C1099 C1101 1.389 . S
C1100 H1073 0.950 . S
C1100 C1086 1.377 . S
C1100 C1099 1.373 . S
C1101 C1085 1.377 . S
C1101 C1099 1.389 . S
C1101 C1102 1.524 . S
C1102 C1101 1.524 . S
C1102 C1103 1.397 . S
C1102 C1107 1.363 . S
C1103 H1074 0.950 . S
C1103 C1102 1.397 . S
C1103 C1104 1.334 . S
C1104 H1075 0.950 . S
C1104 C1103 1.334 . S
C1104 C1105 1.287 . S
C1105 C1104 1.287 . S
C1105 C1106 1.524 . S
C1105 H1108 0.999 . S
C1106 H1076 0.950 . S
C1106 C1105 1.524 . S
C1106 C1107 1.415 . S
C1107 H1077 0.950 . S
C1107 C1102 1.363 . S
C1107 C1106 1.415 . S
H1108 C1105 0.999 . S
H1109 C1090 0.913 . S
H1110 C1128 0.951 . S
H1111 C1130 0.951 . S
H1112 C1132 0.950 . S
H1113 C1133 0.950 . S
H1114 C1135 0.950 . S
H1115 C1138 0.950 . S
H1116 C1139 0.950 . S
H1117 C1141 0.950 . S
H1118 C1142 0.950 . S
H1119 C1143 0.951 . S
H1120 C1145 0.951 . S
H1121 C1147 0.950 . S
H1122 C1148 0.950 . S
H1123 C1150 0.950 . S
H1124 C1153 0.950 . S
H1125 C1154 0.950 . S
H1126 C1156 0.950 . S
H1127 C1157 0.950 . S
C1128 H1110 0.951 . S
C1128 C1129 1.366 . S
C1128 C1130 1.388 . S
C1129 C1128 1.366 . S
C1129 C1133 1.385 . S
C1130 H1111 0.951 . S
C1130 C1128 1.388 . S
C1130 C1131 1.366 . S
C1131 C1130 1.366 . S
C1131 C1132 1.414 . S
C1131 C1134 1.499 . S
C1132 H1112 0.950 . S
C1132 C1131 1.414 . S
C1132 C1133 1.374 . S
C1133 H1113 0.950 . S
C1133 C1129 1.385 . S
C1133 C1132 1.374 . S
C1134 C1131 1.499 . S
C1134 C1135 1.373 . S
C1134 C1136 1.389 . S
C1135 H1114 0.950 . S
C1135 C1134 1.373 . S
C1135 C1151 1.377 . S
C1136 C1134 1.389 . S
C1136 C1137 1.524 . S
C1136 C1150 1.377 . S
C1137 C1136 1.524 . S
C1137 C1138 1.397 . S
C1137 C1142 1.363 . S
C1138 H1115 0.950 . S
C1138 C1137 1.397 . S
C1138 C1139 1.334 . S
C1139 H1116 0.950 . S
C1139 C1138 1.334 . S
C1139 C1140 1.287 . S
C1140 C1139 1.287 . S
C1140 C1141 1.524 . S
C1140 H1159 0.913 . S
C1141 H1117 0.950 . S
C1141 C1140 1.524 . S
C1141 C1142 1.415 . S
C1142 H1118 0.950 . S
C1142 C1137 1.363 . S
C1142 C1141 1.415 . S
C1143 H1119 0.951 . S
C1143 C1144 1.366 . S
C1143 C1145 1.388 . S
C1144 C1143 1.366 . S
C1144 C1148 1.385 . S
C1145 H1120 0.951 . S
C1145 C1143 1.388 . S
C1145 C1146 1.366 . S
C1146 C1145 1.366 . S
C1146 C1147 1.414 . S
C1146 C1149 1.499 . S
C1147 H1121 0.950 . S
C1147 C1146 1.414 . S
C1147 C1148 1.374 . S
C1148 H1122 0.950 . S
C1148 C1144 1.385 . S
C1148 C1147 1.374 . S
C1149 C1146 1.499 . S
C1149 C1150 1.373 . S
C1149 C1151 1.389 . S
C1150 H1123 0.950 . S
C1150 C1136 1.377 . S
C1150 C1149 1.373 . S
C1151 C1135 1.377 . S
C1151 C1149 1.389 . S
C1151 C1152 1.524 . S
C1152 C1151 1.524 . S
C1152 C1153 1.397 . S
C1152 C1157 1.363 . S
C1153 H1124 0.950 . S
C1153 C1152 1.397 . S
C1153 C1154 1.334 1_655 S
C1154 H1125 0.950 . S
C1154 C1153 1.334 1_455 S
C1154 C1155 1.287 . S
C1155 C1154 1.287 . S
C1155 C1156 1.524 . S
C1155 H1158 0.999 . S
C1156 H1126 0.950 . S
C1156 C1155 1.524 . S
C1156 C1157 1.415 1_455 S
C1157 H1127 0.950 . S
C1157 C1152 1.363 . S
C1157 C1156 1.415 1_655 S
H1158 C1155 0.999 . S
H1159 C1140 0.913 . S
H1160 C1178 0.951 . S
H1161 C1180 0.951 . S
H1162 C1182 0.950 . S
H1163 C1183 0.950 . S
H1164 C1185 0.950 . S
H1165 C1188 0.950 . S
H1166 C1189 0.950 . S
H1167 C1191 0.950 . S
H1168 C1192 0.950 . S
H1169 C1193 0.951 . S
H1170 C1195 0.951 . S
H1171 C1197 0.950 . S
H1172 C1198 0.950 . S
H1173 C1200 0.950 . S
H1174 C1203 0.950 . S
H1175 C1204 0.950 . S
H1176 C1206 0.950 . S
H1177 C1207 0.950 . S
C1178 H1160 0.951 . S
C1178 C1179 1.366 . S
C1178 C1180 1.388 . S
C1179 C1178 1.366 . S
C1179 C1183 1.385 . S
C1180 H1161 0.951 . S
C1180 C1178 1.388 . S
C1180 C1181 1.366 . S
C1181 C1180 1.366 . S
C1181 C1182 1.414 . S
C1181 C1184 1.499 . S
C1182 H1162 0.950 . S
C1182 C1181 1.414 . S
C1182 C1183 1.374 . S
C1183 H1163 0.950 . S
C1183 C1179 1.385 . S
C1183 C1182 1.374 . S
C1184 C1181 1.499 . S
C1184 C1185 1.373 . S
C1184 C1186 1.389 . S
C1185 H1164 0.950 . S
C1185 C1184 1.373 . S
C1185 C1201 1.377 . S
C1186 C1184 1.389 . S
C1186 C1187 1.524 . S
C1186 C1200 1.377 . S
C1187 C1186 1.524 . S
C1187 C1188 1.397 . S
C1187 C1192 1.363 . S
C1188 H1165 0.950 . S
C1188 C1187 1.397 . S
C1188 C1189 1.334 . S
C1189 H1166 0.950 . S
C1189 C1188 1.334 . S
C1189 C1190 1.287 . S
C1190 C1189 1.287 . S
C1190 C1191 1.524 . S
C1190 H1209 0.913 . S
C1191 H1167 0.950 . S
C1191 C1190 1.524 . S
C1191 C1192 1.415 . S
C1192 H1168 0.950 . S
C1192 C1187 1.363 . S
C1192 C1191 1.415 . S
C1193 H1169 0.951 . S
C1193 C1194 1.366 . S
C1193 C1195 1.388 . S
C1194 C1193 1.366 . S
C1194 C1198 1.385 . S
C1195 H1170 0.951 . S
C1195 C1193 1.388 . S
C1195 C1196 1.366 . S
C1196 C1195 1.366 . S
C1196 C1197 1.414 . S
C1196 C1199 1.499 . S
C1197 H1171 0.950 . S
C1197 C1196 1.414 . S
C1197 C1198 1.374 . S
C1198 H1172 0.950 . S
C1198 C1194 1.385 . S
C1198 C1197 1.374 . S
C1199 C1196 1.499 . S
C1199 C1200 1.373 . S
C1199 C1201 1.389 . S
C1200 H1173 0.950 . S
C1200 C1186 1.377 . S
C1200 C1199 1.373 . S
C1201 C1185 1.377 . S
C1201 C1199 1.389 . S
C1201 C1202 1.524 . S
C1202 C1201 1.524 . S
C1202 C1203 1.397 . S
C1202 C1207 1.363 . S
C1203 H1174 0.950 . S
C1203 C1202 1.397 . S
C1203 C1204 1.334 . S
C1204 H1175 0.950 . S
C1204 C1203 1.334 . S
C1204 C1205 1.287 . S
C1205 C1204 1.287 . S
C1205 C1206 1.524 . S
C1205 H1208 0.999 . S
C1206 H1176 0.950 . S
C1206 C1205 1.524 . S
C1206 C1207 1.415 . S
C1207 H1177 0.950 . S
C1207 C1202 1.363 . S
C1207 C1206 1.415 . S
H1208 C1205 0.999 . S
H1209 C1190 0.913 . S
H1210 C1228 0.951 . S
H1211 C1230 0.951 . S
H1212 C1232 0.950 . S
H1213 C1233 0.950 . S
H1214 C1235 0.950 . S
H1215 C1238 0.950 . S
H1216 C1239 0.950 . S
H1217 C1241 0.950 . S
H1218 C1242 0.950 . S
H1219 C1243 0.951 . S
H1220 C1245 0.951 . S
H1221 C1247 0.950 . S
H1222 C1248 0.950 . S
H1223 C1250 0.950 . S
H1224 C1253 0.950 . S
H1225 C1254 0.950 . S
H1226 C1256 0.950 . S
H1227 C1257 0.950 . S
C1228 H1210 0.951 . S
C1228 C1229 1.366 . S
C1228 C1230 1.388 . S
C1229 C1228 1.366 . S
C1229 C1233 1.385 . S
C1230 H1211 0.951 . S
C1230 C1228 1.388 . S
C1230 C1231 1.366 . S
C1231 C1230 1.366 . S
C1231 C1232 1.414 . S
C1231 C1234 1.499 . S
C1232 H1212 0.950 . S
C1232 C1231 1.414 . S
C1232 C1233 1.374 . S
C1233 H1213 0.950 . S
C1233 C1229 1.385 . S
C1233 C1232 1.374 . S
C1234 C1231 1.499 . S
C1234 C1235 1.373 . S
C1234 C1236 1.389 . S
C1235 H1214 0.950 . S
C1235 C1234 1.373 . S
C1235 C1251 1.377 . S
C1236 C1234 1.389 . S
C1236 C1237 1.524 . S
C1236 C1250 1.377 . S
C1237 C1236 1.524 . S
C1237 C1238 1.397 . S
C1237 C1242 1.363 . S
C1238 H1215 0.950 . S
C1238 C1237 1.397 . S
C1238 C1239 1.334 . S
C1239 H1216 0.950 . S
C1239 C1238 1.334 . S
C1239 C1240 1.287 . S
C1240 C1239 1.287 . S
C1240 C1241 1.524 . S
C1240 H1259 0.913 . S
C1241 H1217 0.950 . S
C1241 C1240 1.524 . S
C1241 C1242 1.415 . S
C1242 H1218 0.950 . S
C1242 C1237 1.363 . S
C1242 C1241 1.415 . S
C1243 H1219 0.951 . S
C1243 C1244 1.366 . S
C1243 C1245 1.388 . S
C1244 C1243 1.366 . S
C1244 C1248 1.385 . S
C1245 H1220 0.951 . S
C1245 C1243 1.388 . S
C1245 C1246 1.366 . S
C1246 C1245 1.366 . S
C1246 C1247 1.414 . S
C1246 C1249 1.499 . S
C1247 H1221 0.950 . S
C1247 C1246 1.414 . S
C1247 C1248 1.374 . S
C1248 H1222 0.950 . S
C1248 C1244 1.385 . S
C1248 C1247 1.374 . S
C1249 C1246 1.499 . S
C1249 C1250 1.373 . S
C1249 C1251 1.389 . S
C1250 H1223 0.950 . S
C1250 C1236 1.377 . S
C1250 C1249 1.373 . S
C1251 C1235 1.377 . S
C1251 C1249 1.389 . S
C1251 C1252 1.524 . S
C1252 C1251 1.524 . S
C1252 C1253 1.397 . S
C1252 C1257 1.363 . S
C1253 H1224 0.950 . S
C1253 C1252 1.397 . S
C1253 C1254 1.334 . S
C1254 H1225 0.950 . S
C1254 C1253 1.334 . S
C1254 C1255 1.287 . S
C1255 C1254 1.287 . S
C1255 C1256 1.524 . S
C1255 H1258 0.999 . S
C1256 H1226 0.950 . S
C1256 C1255 1.524 . S
C1256 C1257 1.415 . S
C1257 H1227 0.950 . S
C1257 C1252 1.363 . S
C1257 C1256 1.415 . S
H1258 C1255 0.999 . S
H1259 C1240 0.913 . S
H1260 C1278 0.951 . S
H1261 C1280 0.951 . S
H1262 C1282 0.950 . S
H1263 C1283 0.950 . S
H1264 C1285 0.950 . S
H1265 C1288 0.950 . S
H1266 C1289 0.950 . S
H1267 C1291 0.950 . S
H1268 C1292 0.950 . S
H1269 C1293 0.951 . S
H1270 C1295 0.951 . S
H1271 C1297 0.950 . S
H1272 C1298 0.950 . S
H1273 C1300 0.950 . S
H1274 C1303 0.950 . S
H1275 C1304 0.950 . S
H1276 C1306 0.950 . S
H1277 C1307 0.950 . S
C1278 H1260 0.951 . S
C1278 C1279 1.366 . S
C1278 C1280 1.388 . S
C1279 C1278 1.366 . S
C1279 C1283 1.385 . S
C1280 H1261 0.951 . S
C1280 C1278 1.388 . S
C1280 C1281 1.366 . S
C1281 C1280 1.366 . S
C1281 C1282 1.414 . S
C1281 C1284 1.499 . S
C1282 H1262 0.950 . S
C1282 C1281 1.414 . S
C1282 C1283 1.374 . S
C1283 H1263 0.950 . S
C1283 C1279 1.385 . S
C1283 C1282 1.374 . S
C1284 C1281 1.499 . S
C1284 C1285 1.373 . S
C1284 C1286 1.389 . S
C1285 H1264 0.950 . S
C1285 C1284 1.373 . S
C1285 C1301 1.377 . S
C1286 C1284 1.389 . S
C1286 C1287 1.524 . S
C1286 C1300 1.377 . S
C1287 C1286 1.524 . S
C1287 C1288 1.397 . S
C1287 C1292 1.363 . S
C1288 H1265 0.950 . S
C1288 C1287 1.397 . S
C1288 C1289 1.334 . S
C1289 H1266 0.950 . S
C1289 C1288 1.334 . S
C1289 C1290 1.287 . S
C1290 C1289 1.287 . S
C1290 C1291 1.524 . S
C1290 H1309 0.913 . S
C1291 H1267 0.950 . S
C1291 C1290 1.524 . S
C1291 C1292 1.415 . S
C1292 H1268 0.950 . S
C1292 C1287 1.363 . S
C1292 C1291 1.415 . S
C1293 H1269 0.951 . S
C1293 C1294 1.366 . S
C1293 C1295 1.388 . S
C1294 C1293 1.366 . S
C1294 C1298 1.385 . S
C1295 H1270 0.951 . S
C1295 C1293 1.388 . S
C1295 C1296 1.366 . S
C1296 C1295 1.366 . S
C1296 C1297 1.414 . S
C1296 C1299 1.499 . S
C1297 H1271 0.950 . S
C1297 C1296 1.414 . S
C1297 C1298 1.374 . S
C1298 H1272 0.950 . S
C1298 C1294 1.385 . S
C1298 C1297 1.374 . S
C1299 C1296 1.499 . S
C1299 C1300 1.373 . S
C1299 C1301 1.389 . S
C1300 H1273 0.950 . S
C1300 C1286 1.377 . S
C1300 C1299 1.373 . S
C1301 C1285 1.377 . S
C1301 C1299 1.389 . S
C1301 C1302 1.524 . S
C1302 C1301 1.524 . S
C1302 C1303 1.397 . S
C1302 C1307 1.363 . S
C1303 H1274 0.950 . S
C1303 C1302 1.397 . S
C1303 C1304 1.334 . S
C1304 H1275 0.950 . S
C1304 C1303 1.334 . S
C1304 C1305 1.287 . S
C1305 C1304 1.287 . S
C1305 C1306 1.524 . S
C1305 H1308 0.999 . S
C1306 H1276 0.950 . S
C1306 C1305 1.524 . S
C1306 C1307 1.415 . S
C1307 H1277 0.950 . S
C1307 C1302 1.363 . S
C1307 C1306 1.415 . S
H1308 C1305 0.999 . S
H1309 C1290 0.913 . S
H1310 C1328 0.951 . S
H1311 C1330 0.951 . S
H1312 C1332 0.950 . S
H1313 C1333 0.950 . S
H1314 C1335 0.950 . S
H1315 C1338 0.950 . S
H1316 C1339 0.950 . S
H1317 C1341 0.950 . S
H1318 C1342 0.950 . S
H1319 C1343 0.951 . S
H1320 C1345 0.951 . S
H1321 C1347 0.950 . S
H1322 C1348 0.950 . S
H1323 C1350 0.950 . S
H1324 C1353 0.950 . S
H1325 C1354 0.950 . S
H1326 C1356 0.950 . S
H1327 C1357 0.950 . S
C1328 H1310 0.951 . S
C1328 C1329 1.366 . S
C1328 C1330 1.388 . S
C1329 C1328 1.366 . S
C1329 C1333 1.385 . S
C1330 H1311 0.951 . S
C1330 C1328 1.388 . S
C1330 C1331 1.366 . S
C1331 C1330 1.366 . S
C1331 C1332 1.414 . S
C1331 C1334 1.499 . S
C1332 H1312 0.950 . S
C1332 C1331 1.414 . S
C1332 C1333 1.374 . S
C1333 H1313 0.950 . S
C1333 C1329 1.385 . S
C1333 C1332 1.374 . S
C1334 C1331 1.499 . S
C1334 C1335 1.373 . S
C1334 C1336 1.389 . S
C1335 H1314 0.950 . S
C1335 C1334 1.373 . S
C1335 C1351 1.377 . S
C1336 C1334 1.389 . S
C1336 C1337 1.524 . S
C1336 C1350 1.377 . S
C1337 C1336 1.524 . S
C1337 C1338 1.397 . S
C1337 C1342 1.363 . S
C1338 H1315 0.950 . S
C1338 C1337 1.397 . S
C1338 C1339 1.334 . S
C1339 H1316 0.950 . S
C1339 C1338 1.334 . S
C1339 C1340 1.287 . S
C1340 C1339 1.287 . S
C1340 C1341 1.524 . S
C1340 H1359 0.913 . S
C1341 H1317 0.950 . S
C1341 C1340 1.524 . S
C1341 C1342 1.415 . S
C1342 H1318 0.950 . S
C1342 C1337 1.363 . S
C1342 C1341 1.415 . S
C1343 H1319 0.951 . S
C1343 C1344 1.366 . S
C1343 C1345 1.388 . S
C1344 C1343 1.366 . S
C1344 C1348 1.385 . S
C1345 H1320 0.951 . S
C1345 C1343 1.388 . S
C1345 C1346 1.366 . S
C1346 C1345 1.366 . S
C1346 C1347 1.414 . S
C1346 C1349 1.499 . S
C1347 H1321 0.950 . S
C1347 C1346 1.414 . S
C1347 C1348 1.374 . S
C1348 H1322 0.950 . S
C1348 C1344 1.385 . S
C1348 C1347 1.374 . S
C1349 C1346 1.499 . S
C1349 C1350 1.373 . S
C1349 C1351 1.389 . S
C1350 H1323 0.950 . S
C1350 C1336 1.377 . S
C1350 C1349 1.373 . S
C1351 C1335 1.377 . S
C1351 C1349 1.389 . S
C1351 C1352 1.524 . S
C1352 C1351 1.524 . S
C1352 C1353 1.397 . S
C1352 C1357 1.363 . S
C1353 H1324 0.950 . S
C1353 C1352 1.397 . S
C1353 C1354 1.334 . S
C1354 H1325 0.950 . S
C1354 C1353 1.334 . S
C1354 C1355 1.287 . S
C1355 C1354 1.287 . S
C1355 C1356 1.524 . S
C1355 H1358 0.999 . S
C1356 H1326 0.950 . S
C1356 C1355 1.524 . S
C1356 C1357 1.415 . S
C1357 H1327 0.950 . S
C1357 C1352 1.363 . S
C1357 C1356 1.415 . S
H1358 C1355 0.999 . S
H1359 C1340 0.913 . S
H1360 C1378 0.951 . S
H1361 C1380 0.951 . S
H1362 C1382 0.950 . S
H1363 C1383 0.950 . S
H1364 C1385 0.950 . S
H1365 C1388 0.950 . S
H1366 C1389 0.950 . S
H1367 C1391 0.950 . S
H1368 C1392 0.950 . S
H1369 C1393 0.951 . S
H1370 C1395 0.951 . S
H1371 C1397 0.950 . S
H1372 C1398 0.950 . S
H1373 C1400 0.950 . S
H1374 C1403 0.950 . S
H1375 C1404 0.950 . S
H1376 C1406 0.950 . S
H1377 C1407 0.950 . S
C1378 H1360 0.951 . S
C1378 C1379 1.366 . S
C1378 C1380 1.388 . S
C1379 C1378 1.366 . S
C1379 C1383 1.385 . S
C1380 H1361 0.951 . S
C1380 C1378 1.388 . S
C1380 C1381 1.366 . S
C1381 C1380 1.366 . S
C1381 C1382 1.414 . S
C1381 C1384 1.499 . S
C1382 H1362 0.950 . S
C1382 C1381 1.414 . S
C1382 C1383 1.374 . S
C1383 H1363 0.950 . S
C1383 C1379 1.385 . S
C1383 C1382 1.374 . S
C1384 C1381 1.499 . S
C1384 C1385 1.373 . S
C1384 C1386 1.389 . S
C1385 H1364 0.950 . S
C1385 C1384 1.373 . S
C1385 C1401 1.377 . S
C1386 C1384 1.389 . S
C1386 C1387 1.524 . S
C1386 C1400 1.377 . S
C1387 C1386 1.524 . S
C1387 C1388 1.397 . S
C1387 C1392 1.363 . S
C1388 H1365 0.950 . S
C1388 C1387 1.397 . S
C1388 C1389 1.334 . S
C1389 H1366 0.950 . S
C1389 C1388 1.334 . S
C1389 C1390 1.287 . S
C1390 C1389 1.287 . S
C1390 C1391 1.524 . S
C1390 H1409 0.913 . S
C1391 H1367 0.950 . S
C1391 C1390 1.524 . S
C1391 C1392 1.415 . S
C1392 H1368 0.950 . S
C1392 C1387 1.363 . S
C1392 C1391 1.415 . S
C1393 H1369 0.951 . S
C1393 C1394 1.366 . S
C1393 C1395 1.388 . S
C1394 C1393 1.366 . S
C1394 C1398 1.385 . S
C1395 H1370 0.951 . S
C1395 C1393 1.388 . S
C1395 C1396 1.366 . S
C1396 C1395 1.366 . S
C1396 C1397 1.414 . S
C1396 C1399 1.499 . S
C1397 H1371 0.950 . S
C1397 C1396 1.414 . S
C1397 C1398 1.374 . S
C1398 H1372 0.950 . S
C1398 C1394 1.385 . S
C1398 C1397 1.374 . S
C1399 C1396 1.499 . S
C1399 C1400 1.373 . S
C1399 C1401 1.389 . S
C1400 H1373 0.950 . S
C1400 C1386 1.377 . S
C1400 C1399 1.373 . S
C1401 C1385 1.377 . S
C1401 C1399 1.389 . S
C1401 C1402 1.524 . S
C1402 C1401 1.524 . S
C1402 C1403 1.397 . S
C1402 C1407 1.363 . S
C1403 H1374 0.950 . S
C1403 C1402 1.397 . S
C1403 C1404 1.334 . S
C1404 H1375 0.950 . S
C1404 C1403 1.334 . S
C1404 C1405 1.287 . S
C1405 C1404 1.287 . S
C1405 C1406 1.524 . S
C1405 H1408 0.999 . S
C1406 H1376 0.950 . S
C1406 C1405 1.524 . S
C1406 C1407 1.415 . S
C1407 H1377 0.950 . S
C1407 C1402 1.363 . S
C1407 C1406 1.415 . S
H1408 C1405 0.999 . S
H1409 C1390 0.913 . S
H1410 C1428 0.951 . S
H1411 C1430 0.951 . S
H1412 C1432 0.950 . S
H1413 C1433 0.950 . S
H1414 C1435 0.950 . S
H1415 C1438 0.950 . S
H1416 C1439 0.950 . S
H1417 C1441 0.950 . S
H1418 C1442 0.950 . S
H1419 C1443 0.951 . S
H1420 C1445 0.951 . S
H1421 C1447 0.950 . S
H1422 C1448 0.950 . S
H1423 C1450 0.950 . S
H1424 C1453 0.950 . S
H1425 C1454 0.950 . S
H1426 C1456 0.950 . S
H1427 C1457 0.950 . S
C1428 H1410 0.951 . S
C1428 C1429 1.366 . S
C1428 C1430 1.388 . S
C1429 C1428 1.366 . S
C1429 C1433 1.385 . S
C1430 H1411 0.951 . S
C1430 C1428 1.388 . S
C1430 C1431 1.366 . S
C1431 C1430 1.366 . S
C1431 C1432 1.414 . S
C1431 C1434 1.499 . S
C1432 H1412 0.950 . S
C1432 C1431 1.414 . S
C1432 C1433 1.374 . S
C1433 H1413 0.950 . S
C1433 C1429 1.385 . S
C1433 C1432 1.374 . S
C1434 C1431 1.499 . S
C1434 C1435 1.373 . S
C1434 C1436 1.389 . S
C1435 H1414 0.950 . S
C1435 C1434 1.373 . S
C1435 C1451 1.377 . S
C1436 C1434 1.389 . S
C1436 C1437 1.524 . S
C1436 C1450 1.377 . S
C1437 C1436 1.524 . S
C1437 C1438 1.397 . S
C1437 C1442 1.363 . S
C1438 H1415 0.950 . S
C1438 C1437 1.397 . S
C1438 C1439 1.334 . S
C1439 H1416 0.950 . S
C1439 C1438 1.334 . S
C1439 C1440 1.287 . S
C1440 C1439 1.287 . S
C1440 C1441 1.524 . S
C1440 H1459 0.913 . S
C1441 H1417 0.950 . S
C1441 C1440 1.524 . S
C1441 C1442 1.415 . S
C1442 H1418 0.950 . S
C1442 C1437 1.363 . S
C1442 C1441 1.415 . S
C1443 H1419 0.951 . S
C1443 C1444 1.366 . S
C1443 C1445 1.388 . S
C1444 C1443 1.366 . S
C1444 C1448 1.385 . S
C1445 H1420 0.951 . S
C1445 C1443 1.388 . S
C1445 C1446 1.366 . S
C1446 C1445 1.366 . S
C1446 C1447 1.414 . S
C1446 C1449 1.499 . S
C1447 H1421 0.950 . S
C1447 C1446 1.414 . S
C1447 C1448 1.374 . S
C1448 H1422 0.950 . S
C1448 C1444 1.385 . S
C1448 C1447 1.374 . S
C1449 C1446 1.499 . S
C1449 C1450 1.373 . S
C1449 C1451 1.389 . S
C1450 H1423 0.950 . S
C1450 C1436 1.377 . S
C1450 C1449 1.373 . S
C1451 C1435 1.377 . S
C1451 C1449 1.389 . S
C1451 C1452 1.524 . S
C1452 C1451 1.524 . S
C1452 C1453 1.397 . S
C1452 C1457 1.363 . S
C1453 H1424 0.950 . S
C1453 C1452 1.397 . S
C1453 C1454 1.334 . S
C1454 H1425 0.950 . S
C1454 C1453 1.334 . S
C1454 C1455 1.287 . S
C1455 C1454 1.287 . S
C1455 C1456 1.524 . S
C1455 H1458 0.999 . S
C1456 H1426 0.950 . S
C1456 C1455 1.524 . S
C1456 C1457 1.415 . S
C1457 H1427 0.950 . S
C1457 C1452 1.363 . S
C1457 C1456 1.415 . S
H1458 C1455 0.999 . S
H1459 C1440 0.913 . S
H1460 C1478 0.951 . S
H1461 C1480 0.951 . S
H1462 C1482 0.950 . S
H1463 C1483 0.950 . S
H1464 C1485 0.950 . S
H1465 C1488 0.950 . S
H1466 C1489 0.950 . S
H1467 C1491 0.950 . S
H1468 C1492 0.950 . S
H1469 C1493 0.951 . S
H1470 C1495 0.951 . S
H1471 C1497 0.950 . S
H1472 C1498 0.950 . S
H1473 C1500 0.950 . S
H1474 C1503 0.950 . S
H1475 C1504 0.950 . S
H1476 C1506 0.950 . S
H1477 C1507 0.950 . S
C1478 H1460 0.951 . S
C1478 C1479 1.366 . S
C1478 C1480 1.388 . S
C1479 C1478 1.366 . S
C1479 C1483 1.385 . S
C1480 H1461 0.951 . S
C1480 C1478 1.388 . S
C1480 C1481 1.366 . S
C1481 C1480 1.366 . S
C1481 C1482 1.414 . S
C1481 C1484 1.499 . S
C1482 H1462 0.950 . S
C1482 C1481 1.414 . S
C1482 C1483 1.374 . S
C1483 H1463 0.950 . S
C1483 C1479 1.385 . S
C1483 C1482 1.374 . S
C1484 C1481 1.499 . S
C1484 C1485 1.373 . S
C1484 C1486 1.389 . S
C1485 H1464 0.950 . S
C1485 C1484 1.373 . S
C1485 C1501 1.377 . S
C1486 C1484 1.389 . S
C1486 C1487 1.524 . S
C1486 C1500 1.377 . S
C1487 C1486 1.524 . S
C1487 C1488 1.397 . S
C1487 C1492 1.363 . S
C1488 H1465 0.950 . S
C1488 C1487 1.397 . S
C1488 C1489 1.334 . S
C1489 H1466 0.950 . S
C1489 C1488 1.334 . S
C1489 C1490 1.287 . S
C1490 C1489 1.287 . S
C1490 C1491 1.524 . S
C1490 H1509 0.913 . S
C1491 H1467 0.950 . S
C1491 C1490 1.524 . S
C1491 C1492 1.415 . S
C1492 H1468 0.950 . S
C1492 C1487 1.363 . S
C1492 C1491 1.415 . S
C1493 H1469 0.951 . S
C1493 C1494 1.366 . S
C1493 C1495 1.388 . S
C1494 C1493 1.366 . S
C1494 C1498 1.385 . S
C1495 H1470 0.951 . S
C1495 C1493 1.388 . S
C1495 C1496 1.366 . S
C1496 C1495 1.366 . S
C1496 C1497 1.414 . S
C1496 C1499 1.499 . S
C1497 H1471 0.950 . S
C1497 C1496 1.414 . S
C1497 C1498 1.374 . S
C1498 H1472 0.950 . S
C1498 C1494 1.385 . S
C1498 C1497 1.374 . S
C1499 C1496 1.499 . S
C1499 C1500 1.373 . S
C1499 C1501 1.389 . S
C1500 H1473 0.950 . S
C1500 C1486 1.377 . S
C1500 C1499 1.373 . S
C1501 C1485 1.377 . S
C1501 C1499 1.389 . S
C1501 C1502 1.524 . S
C1502 C1501 1.524 . S
C1502 C1503 1.397 . S
C1502 C1507 1.363 . S
C1503 H1474 0.950 . S
C1503 C1502 1.397 . S
C1503 C1504 1.334 . S
C1504 H1475 0.950 . S
C1504 C1503 1.334 . S
C1504 C1505 1.287 . S
C1505 C1504 1.287 . S
C1505 C1506 1.524 . S
C1505 H1508 0.999 . S
C1506 H1476 0.950 . S
C1506 C1505 1.524 . S
C1506 C1507 1.415 . S
C1507 H1477 0.950 . S
C1507 C1502 1.363 . S
C1507 C1506 1.415 . S
H1508 C1505 0.999 . S
H1509 C1490 0.913 . S
H1510 C1528 0.951 . S
H1511 C1530 0.951 . S
H1512 C1532 0.950 . S
H1513 C1533 0.950 . S
H1514 C1535 0.950 . S
H1515 C1538 0.950 . S
H1516 C1539 0.950 . S
H1517 C1541 0.950 . S
H1518 C1542 0.950 . S
H1519 C1543 0.951 . S
H1520 C1545 0.951 . S
H1521 C1547 0.950 . S
H1522 C1548 0.950 . S
H1523 C1550 0.950 . S
H1524 C1553 0.950 . S
H1525 C1554 0.950 . S
H1526 C1556 0.950 . S
H1527 C1557 0.950 . S
C1528 H1510 0.951 . S
C1528 C1529 1.366 . S
C1528 C1530 1.388 . S
C1529 C1528 1.366 . S
C1529 C1533 1.385 . S
C1530 H1511 0.951 . S
C1530 C1528 1.388 . S
C1530 C1531 1.366 . S
C1531 C1530 1.366 . S
C1531 C1532 1.414 . S
C1531 C1534 1.499 . S
C1532 H1512 0.950 . S
C1532 C1531 1.414 . S
C1532 C1533 1.374 . S
C1533 H1513 0.950 . S
C1533 C1529 1.385 . S
C1533 C1532 1.374 . S
C1534 C1531 1.499 . S
C1534 C1535 1.373 . S
C1534 C1536 1.389 . S
C1535 H1514 0.950 . S
C1535 C1534 1.373 . S
C1535 C1551 1.377 . S
C1536 C1534 1.389 . S
C1536 C1537 1.524 . S
C1536 C1550 1.377 . S
C1537 C1536 1.524 . S
C1537 C1538 1.397 . S
C1537 C1542 1.363 . S
C1538 H1515 0.950 . S
C1538 C1537 1.397 . S
C1538 C1539 1.334 . S
C1539 H1516 0.950 . S
C1539 C1538 1.334 . S
C1539 C1540 1.287 . S
C1540 C1539 1.287 . S
C1540 C1541 1.524 . S
C1540 H1559 0.913 . S
C1541 H1517 0.950 . S
C1541 C1540 1.524 . S
C1541 C1542 1.415 . S
C1542 H1518 0.950 . S
C1542 C1537 1.363 . S
C1542 C1541 1.415 . S
C1543 H1519 0.951 . S
C1543 C1544 1.366 . S
C1543 C1545 1.388 . S
C1544 C1543 1.366 . S
C1544 C1548 1.385 . S
C1545 H1520 0.951 . S
C1545 C1543 1.388 . S
C1545 C1546 1.366 . S
C1546 C1545 1.366 . S
C1546 C1547 1.414 . S
C1546 C1549 1.499 . S
C1547 H1521 0.950 . S
C1547 C1546 1.414 . S
C1547 C1548 1.374 . S
C1548 H1522 0.950 . S
C1548 C1544 1.385 . S
C1548 C1547 1.374 . S
C1549 C1546 1.499 . S
C1549 C1550 1.373 . S
C1549 C1551 1.389 . S
C1550 H1523 0.950 . S
C1550 C1536 1.377 . S
C1550 C1549 1.373 . S
C1551 C1535 1.377 . S
C1551 C1549 1.389 . S
C1551 C1552 1.524 . S
C1552 C1551 1.524 . S
C1552 C1553 1.397 . S
C1552 C1557 1.363 . S
C1553 H1524 0.950 . S
C1553 C1552 1.397 . S
C1553 C1554 1.334 . S
C1554 H1525 0.950 . S
C1554 C1553 1.334 . S
C1554 C1555 1.287 . S
C1555 C1554 1.287 . S
C1555 C1556 1.524 . S
C1555 H1558 0.999 . S
C1556 H1526 0.950 . S
C1556 C1555 1.524 . S
C1556 C1557 1.415 . S
C1557 H1527 0.950 . S
C1557 C1552 1.363 . S
C1557 C1556 1.415 . S
H1558 C1555 0.999 . S
H1559 C1540 0.913 . S
C379 C45 1.608 . S
C394 C127 1.632 . S
C429 C30 1.608 . S
C444 C159 1.632 . S
C479 C39 1.608 . S
C494 C191 1.546 . S
C544 C223 1.547 . S
C529 C34 1.608 . S
C579 C97 1.608 . S
C594 C255 1.632 . S
C644 C287 1.632 . S
C629 C82 1.608 . S
C694 C319 1.546 . S
C679 C91 1.608 . S
C744 C351 1.547 . S
C729 C86 1.608 . S
C794 C313 1.439 . S
C779 C26 1.454 . S
C844 C345 1.438 . S
C829 C36 1.454 . S
C894 C261 1.521 . S
C879 C32 1.462 . S
C944 C293 1.522 . S
C929 C42 1.463 . S
C979 C18 1.536 . S
C994 C281 1.613 . S
C1044 C325 1.523 . S
C1029 C50 1.546 . S
C1079 C4 1.546 . S
C1094 C357 1.525 . S
C1129 C48 1.535 . S
C1144 C249 1.615 . S
C1194 C185 1.438 . S
C1179 C78 1.453 . S
C1229 C88 1.454 . S
C1244 C217 1.438 . S
C1294 C133 1.521 . S
C1279 C84 1.464 . S
C1344 C165 1.522 . S
C1329 C94 1.462 . S
C1394 C153 1.613 . S
C1379 C70 1.536 . S
C1444 C197 1.522 . S
C1429 C102 1.545 . S
C1479 C56 1.544 . S
C1494 C229 1.523 . S
C1529 C100 1.535 . S
C1544 C121 1.615 . S
