# Generated by pormake.
# Topology pyr, (3,6)-cn, num edge types: 1
# Building blocks:
#     Node 0, Type 0, BuildingBlock: VETTIZ_charged_linker_0, # of connection points: 3
#     Node 1, Type 0, BuildingBlock: VETTIZ_charged_linker_0, # of connection points: 3
#     Node 2, Type 0, BuildingBlock: VETTIZ_charged_linker_0, # of connection points: 3
#     Node 3, Type 0, BuildingBlock: VETTIZ_charged_linker_0, # of connection points: 3
#     Node 4, Type 0, BuildingBlock: VETTIZ_charged_linker_0, # of connection points: 3
#     Node 5, Type 0, BuildingBlock: VETTIZ_charged_linker_0, # of connection points: 3
#     Node 6, Type 0, BuildingBlock: VETTIZ_charged_linker_0, # of connection points: 3
#     Node 7, Type 0, BuildingBlock: VETTIZ_charged_linker_0, # of connection points: 3
#     Node 8, Type 1, BuildingBlock: MIFKUJ_clean_sbu_0, # of connection points: 6
#     Node 9, Type 1, BuildingBlock: MIFKUJ_clean_sbu_0, # of connection points: 6
#     Node 10, Type 1, BuildingBlock: MIFKUJ_clean_sbu_0, # of connection points: 6
#     Node 11, Type 1, BuildingBlock: MIFKUJ_clean_sbu_0, # of connection points: 6
#     Edge 12, Type (0, 1), BuildingBlock: TEMPAE_clean_linker_10, # of connection points: 2
#     Edge 13, Type (0, 1), BuildingBlock: TEMPAE_clean_linker_10, # of connection points: 2
#     Edge 14, Type (0, 1), BuildingBlock: TEMPAE_clean_linker_10, # of connection points: 2
#     Edge 15, Type (0, 1), BuildingBlock: TEMPAE_clean_linker_10, # of connection points: 2
#     Edge 16, Type (0, 1), BuildingBlock: TEMPAE_clean_linker_10, # of connection points: 2
#     Edge 17, Type (0, 1), BuildingBlock: TEMPAE_clean_linker_10, # of connection points: 2
#     Edge 18, Type (0, 1), BuildingBlock: TEMPAE_clean_linker_10, # of connection points: 2
#     Edge 19, Type (0, 1), BuildingBlock: TEMPAE_clean_linker_10, # of connection points: 2
#     Edge 20, Type (0, 1), BuildingBlock: TEMPAE_clean_linker_10, # of connection points: 2
#     Edge 21, Type (0, 1), BuildingBlock: TEMPAE_clean_linker_10, # of connection points: 2
#     Edge 22, Type (0, 1), BuildingBlock: TEMPAE_clean_linker_10, # of connection points: 2
#     Edge 23, Type (0, 1), BuildingBlock: TEMPAE_clean_linker_10, # of connection points: 2
#     Edge 24, Type (0, 1), BuildingBlock: TEMPAE_clean_linker_10, # of connection points: 2
#     Edge 25, Type (0, 1), BuildingBlock: TEMPAE_clean_linker_10, # of connection points: 2
#     Edge 26, Type (0, 1), BuildingBlock: TEMPAE_clean_linker_10, # of connection points: 2
#     Edge 27, Type (0, 1), BuildingBlock: TEMPAE_clean_linker_10, # of connection points: 2
#     Edge 28, Type (0, 1), BuildingBlock: TEMPAE_clean_linker_10, # of connection points: 2
#     Edge 29, Type (0, 1), BuildingBlock: TEMPAE_clean_linker_10, # of connection points: 2
#     Edge 30, Type (0, 1), BuildingBlock: TEMPAE_clean_linker_10, # of connection points: 2
#     Edge 31, Type (0, 1), BuildingBlock: TEMPAE_clean_linker_10, # of connection points: 2
#     Edge 32, Type (0, 1), BuildingBlock: TEMPAE_clean_linker_10, # of connection points: 2
#     Edge 33, Type (0, 1), BuildingBlock: TEMPAE_clean_linker_10, # of connection points: 2
#     Edge 34, Type (0, 1), BuildingBlock: TEMPAE_clean_linker_10, # of connection points: 2
#     Edge 35, Type (0, 1), BuildingBlock: TEMPAE_clean_linker_10, # of connection points: 2
# Relax obj value: 0.027
# Max RMSD: 0.079
# Mean RMSD: 0.047
data_MOF--net-pyr--node1-MIFKUJ_clean_sbu_0--node2-VETTIZ_charged_linker_0--edge1-TEMPAE_clean_linker_10
_symmetry_space_group_name_H-M    P1
_symmetry_Int_Tables_number       1
_symmetry_cell_setting            triclinic
loop_
_symmetry_equiv_pos_as_xyz
'x, y, z'
_cell_length_a     48.390196
_cell_length_b     43.408482
_cell_length_c     46.957599
_cell_angle_alpha  86.254164
_cell_angle_beta   88.443974
_cell_angle_gamma 95.702696
loop_
_atom_site_label
_atom_site_type_symbol
_atom_site_fract_x
_atom_site_fract_y
_atom_site_fract_z
_atom_type_partial_charge
C0 C 0.1894 0.13561 0.29926 0.0
C1 C 0.16766 0.14679 0.31469 0.0
C2 C 0.15758 0.17481 0.30496 0.0
C3 C 0.18829 0.17796 0.26312 0.0
C4 C 0.19951 0.15167 0.2737 0.0
C5 C 0.2219 0.1425 0.25409 0.0
H6 H 0.29262 0.16371 0.12697 0.0
C7 C 0.20136 0.18725 0.23472 0.0
C8 C 0.22147 0.16697 0.22953 0.0
H9 H 0.30224 0.09572 0.19647 0.0
H10 H 0.26722 0.11694 0.22469 0.0
H11 H 0.28624 0.22311 0.16625 0.0
H12 H 0.22802 0.15605 0.13042 0.0
H13 H 0.2129 0.19112 0.12854 0.0
H14 H 0.24523 0.18855 0.10918 0.0
H15 H 0.28077 0.22216 0.12863 0.0
H16 H 0.25948 0.24292 0.15125 0.0
C17 C 0.24972 0.14551 0.26978 0.0
C18 C 0.21281 0.10945 0.24487 0.0
C19 C 0.15974 0.26748 0.17037 0.0
C20 C 0.16505 0.27826 0.1417 0.0
C21 C 0.18818 0.26893 0.12685 0.0
C22 C 0.20507 0.24817 0.14006 0.0
C23 C 0.19865 0.23645 0.16833 0.0
C24 C 0.17662 0.24659 0.18315 0.0
C25 C 0.17255 0.23138 0.21284 0.0
C26 C 0.19535 0.20977 0.21313 0.0
C27 C 0.21049 0.21275 0.18699 0.0
C28 C 0.17752 0.25671 0.23447 0.0
C29 C 0.14316 0.21339 0.21522 0.0
C30 C 0.28733 0.15372 0.14841 0.0
C31 C 0.3001 0.12812 0.15964 0.0
C32 C 0.29245 0.11533 0.1874 0.0
C33 C 0.27221 0.12776 0.20375 0.0
C34 C 0.25922 0.153 0.19209 0.0
C35 C 0.26688 0.16563 0.16489 0.0
C36 C 0.25003 0.1916 0.15563 0.0
C37 C 0.23152 0.19296 0.18205 0.0
C38 C 0.23696 0.17024 0.20324 0.0
C39 C 0.27003 0.22162 0.1499 0.0
C40 C 0.23324 0.18166 0.12948 0.0
H41 H 0.1588 0.21123 0.27254 0.0
H42 H 0.19778 0.11435 0.30654 0.0
H43 H 0.19009 0.10656 0.24123 0.0
H44 H 0.2227 0.10444 0.22448 0.0
H45 H 0.21722 0.09146 0.26159 0.0
H46 H 0.25024 0.16428 0.28486 0.0
H47 H 0.25285 0.12362 0.28234 0.0
H48 H 0.26788 0.15217 0.2551 0.0
H49 H 0.14245 0.27472 0.18251 0.0
H50 H 0.19269 0.27688 0.10471 0.0
H51 H 0.22207 0.24148 0.12752 0.0
H52 H 0.19175 0.27682 0.22525 0.0
H53 H 0.15775 0.26567 0.24096 0.0
H54 H 0.18792 0.2483 0.25377 0.0
H55 H 0.13885 0.20075 0.1957 0.0
H56 H 0.14047 0.19549 0.23308 0.0
H57 H 0.12691 0.2295 0.2176 0.0
H58 H 0.14078 0.18379 0.31652 0.0
C59 C 0.16785 0.19051 0.27929 0.0
C60 C 0.23801 0.8636 0.64075 0.0
C61 C 0.22462 0.88692 0.65324 0.0
C62 C 0.23619 0.90043 0.6773 0.0
C63 C 0.27374 0.8674 0.67604 0.0
C64 C 0.26242 0.85429 0.6524 0.0
C65 C 0.2793 0.83006 0.64141 0.0
H66 H 0.38943 0.7462 0.65505 0.0
C67 C 0.29919 0.85248 0.68273 0.0
C68 C 0.30256 0.83062 0.66244 0.0
H69 H 0.32737 0.74161 0.59055 0.0
H70 H 0.30504 0.7825 0.61145 0.0
H71 H 0.39854 0.81943 0.65321 0.0
H72 H 0.34748 0.75215 0.70786 0.0
H73 H 0.36221 0.78022 0.72977 0.0
H74 H 0.38459 0.75785 0.70997 0.0
H75 H 0.41267 0.79662 0.68143 0.0
H76 H 0.39963 0.83328 0.68746 0.0
C77 C 0.29015 0.84104 0.61068 0.0
C78 C 0.26092 0.79861 0.64377 0.0
C79 C 0.3563 0.88372 0.76773 0.0
C80 C 0.38091 0.87377 0.77882 0.0
C81 C 0.39362 0.85037 0.76551 0.0
C82 C 0.38224 0.83722 0.74151 0.0
C83 C 0.35778 0.84746 0.73056 0.0
C84 C 0.34519 0.87033 0.74359 0.0
C85 C 0.31939 0.87831 0.7287 0.0
C86 C 0.31867 0.85647 0.70465 0.0
C87 C 0.3412 0.83847 0.70596 0.0
C88 C 0.32393 0.9128 0.71731 0.0
C89 C 0.29429 0.87045 0.75001 0.0
C90 C 0.37092 0.75389 0.64556 0.0
C91 C 0.36005 0.74061 0.62121 0.0
C92 C 0.33623 0.75166 0.60919 0.0
C93 C 0.32322 0.77528 0.62146 0.0
C94 C 0.33416 0.7881 0.64601 0.0
C95 C 0.35776 0.77754 0.65747 0.0
C96 C 0.3668 0.79421 0.68322 0.0
C97 C 0.34456 0.81632 0.68553 0.0
C98 C 0.32544 0.81254 0.6638 0.0
C99 C 0.39599 0.8117 0.67628 0.0
C100 C 0.36547 0.77003 0.70916 0.0
H101 H 0.26835 0.9019 0.70712 0.0
H102 H 0.22991 0.8531 0.62199 0.0
H103 H 0.24777 0.79616 0.66377 0.0
H104 H 0.27307 0.77839 0.64498 0.0
H105 H 0.24683 0.79672 0.62555 0.0
H106 H 0.29426 0.86677 0.60818 0.0
H107 H 0.27476 0.83385 0.59465 0.0
H108 H 0.31025 0.83251 0.60516 0.0
H109 H 0.34614 0.90179 0.77736 0.0
H110 H 0.4123 0.84191 0.7739 0.0
H111 H 0.39295 0.81951 0.73247 0.0
H112 H 0.3459 0.91926 0.70988 0.0
H113 H 0.31913 0.9284 0.73421 0.0
H114 H 0.31155 0.91793 0.69849 0.0
H115 H 0.29664 0.84885 0.76346 0.0
H116 H 0.2744 0.86574 0.73937 0.0
H117 H 0.29247 0.8894 0.76453 0.0
H118 H 0.22616 0.91828 0.68743 0.0
C119 C 0.26063 0.89078 0.68877 0.0
C120 C 0.62084 0.25264 0.86325 0.0
C121 C 0.59659 0.23714 0.85307 0.0
C122 C 0.585 0.24958 0.82815 0.0
C123 C 0.6212 0.29275 0.82465 0.0
C124 C 0.63271 0.28019 0.8488 0.0
C125 C 0.65842 0.29938 0.85706 0.0
H126 H 0.74892 0.42826 0.83645 0.0
C127 C 0.63848 0.32193 0.81522 0.0
C128 C 0.66031 0.32585 0.83409 0.0
H129 H 0.7493 0.35142 0.90002 0.0
H130 H 0.70862 0.32607 0.88059 0.0
H131 H 0.68145 0.43153 0.83764 0.0
H132 H 0.73424 0.38386 0.78345 0.0
H133 H 0.70993 0.4014 0.76227 0.0
H134 H 0.73488 0.42539 0.7811 0.0
H135 H 0.70618 0.45194 0.8121 0.0
H136 H 0.67196 0.43741 0.80189 0.0
C137 C 0.65284 0.31062 0.88718 0.0
C138 C 0.68327 0.27952 0.85488 0.0
C139 C 0.61093 0.38724 0.72902 0.0
C140 C 0.6221 0.41563 0.71517 0.0
C141 C 0.64637 0.43102 0.72581 0.0
C142 C 0.65909 0.41844 0.7499 0.0
C143 C 0.64751 0.39008 0.76354 0.0
C144 C 0.62383 0.37502 0.75295 0.0
C145 C 0.61428 0.34514 0.76992 0.0
C146 C 0.6361 0.3446 0.79245 0.0
C147 C 0.6556 0.37099 0.78875 0.0
C148 C 0.58498 0.34801 0.78305 0.0
C149 C 0.61559 0.31817 0.75002 0.0
C150 C 0.74025 0.40592 0.84608 0.0
C151 C 0.7522 0.39222 0.87029 0.0
C152 C 0.74021 0.36305 0.88199 0.0
C153 C 0.7166 0.34812 0.87047 0.0
C154 C 0.70462 0.36222 0.84675 0.0
C155 C 0.71652 0.39048 0.83467 0.0
C156 C 0.70099 0.40127 0.80897 0.0
C157 C 0.6778 0.37493 0.80797 0.0
C158 C 0.68011 0.35231 0.83033 0.0
C159 C 0.6896 0.43228 0.81519 0.0
C160 C 0.72094 0.40337 0.78245 0.0
H161 H 0.58722 0.28568 0.7952 0.0
H162 H 0.63057 0.24341 0.88204 0.0
H163 H 0.67986 0.26212 0.83861 0.0
H164 H 0.70289 0.29347 0.84768 0.0
H165 H 0.68643 0.26665 0.87557 0.0
H166 H 0.63102 0.31635 0.88964 0.0
H167 H 0.6561 0.29239 0.90412 0.0
H168 H 0.66571 0.33218 0.89137 0.0
H169 H 0.59263 0.37447 0.72121 0.0
H170 H 0.65534 0.45303 0.71572 0.0
H171 H 0.67739 0.43132 0.75703 0.0
H172 H 0.58323 0.372 0.78945 0.0
H173 H 0.56861 0.34264 0.76748 0.0
H174 H 0.58022 0.33304 0.80283 0.0
H175 H 0.63357 0.32287 0.73452 0.0
H176 H 0.61886 0.29595 0.76164 0.0
H177 H 0.59645 0.31492 0.73757 0.0
H178 H 0.56625 0.23814 0.81994 0.0
C179 C 0.59714 0.27729 0.81392 0.0
C180 C 0.9066 0.74974 0.3344 0.0
C181 C 0.89463 0.76677 0.35517 0.0
C182 C 0.86735 0.75741 0.36558 0.0
C183 C 0.86446 0.71405 0.33552 0.0
C184 C 0.89097 0.72368 0.32461 0.0
C185 C 0.89956 0.70356 0.30156 0.0
H186 H 0.86987 0.57765 0.22492 0.0
C187 C 0.85403 0.68583 0.32161 0.0
C188 C 0.87432 0.67961 0.30145 0.0
H189 H 0.94108 0.6466 0.21458 0.0
H190 H 0.92379 0.67331 0.25367 0.0
H191 H 0.86746 0.57217 0.29359 0.0
H192 H 0.82457 0.62732 0.23281 0.0
H193 H 0.80044 0.61042 0.25947 0.0
H194 H 0.81816 0.58579 0.2373 0.0
H195 H 0.83967 0.5554 0.27319 0.0
H196 H 0.83307 0.5722 0.30656 0.0
C197 C 0.92583 0.68866 0.31113 0.0
C198 C 0.90359 0.72386 0.27305 0.0
C199 C 0.76117 0.62879 0.35554 0.0
C200 C 0.74651 0.60067 0.34894 0.0
C201 C 0.75783 0.58361 0.32764 0.0
C202 C 0.78328 0.59427 0.31344 0.0
C203 C 0.79776 0.62227 0.32061 0.0
C204 C 0.78662 0.6389 0.34143 0.0
C205 C 0.80508 0.66759 0.34707 0.0
C206 C 0.82923 0.66552 0.32624 0.0
C207 C 0.82484 0.63908 0.3106 0.0
C208 C 0.81383 0.66438 0.37858 0.0
C209 C 0.78921 0.69621 0.33941 0.0
C210 C 0.88169 0.59864 0.23083 0.0
C211 C 0.90703 0.60981 0.21645 0.0
C212 C 0.9218 0.63701 0.22542 0.0
C213 C 0.91157 0.65276 0.248 0.0
C214 C 0.88612 0.64149 0.26183 0.0
C215 C 0.8716 0.61486 0.25316 0.0
C216 C 0.84461 0.60663 0.26995 0.0
C217 C 0.84508 0.63302 0.28971 0.0
C218 C 0.8696 0.65325 0.28504 0.0
C219 C 0.84598 0.57486 0.28663 0.0
C220 C 0.82053 0.60732 0.24894 0.0
H221 H 0.83169 0.72521 0.36498 0.0
H222 H 0.92741 0.75682 0.32575 0.0
H223 H 0.89002 0.74313 0.27261 0.0
H224 H 0.89757 0.71081 0.25436 0.0
H225 H 0.92541 0.7344 0.26979 0.0
H226 H 0.92346 0.67989 0.33395 0.0
H227 H 0.94448 0.70587 0.30885 0.0
H228 H 0.92985 0.66843 0.29917 0.0
H229 H 0.75304 0.64284 0.37141 0.0
H230 H 0.74727 0.56169 0.32227 0.0
H231 H 0.79081 0.58015 0.29759 0.0
H232 H 0.81713 0.63992 0.38502 0.0
H233 H 0.79757 0.6714 0.39327 0.0
H234 H 0.83379 0.67782 0.38241 0.0
H235 H 0.77462 0.69164 0.32191 0.0
H236 H 0.80314 0.71677 0.33113 0.0
H237 H 0.77681 0.70239 0.35807 0.0
H238 H 0.85782 0.77023 0.38159 0.0
C239 C 0.85227 0.73118 0.35596 0.0
C240 C 0.83985 0.73701 0.84591 0.0
C241 C 0.86604 0.72928 0.83678 0.0
C242 C 0.87825 0.74317 0.81094 0.0
C243 C 0.83898 0.77306 0.80432 0.0
C244 C 0.8268 0.75904 0.82946 0.0
C245 C 0.79973 0.77143 0.83684 0.0
H246 H 0.71063 0.87956 0.8105 0.0
C247 C 0.82074 0.7959 0.79302 0.0
C248 C 0.79763 0.79504 0.81185 0.0
H249 H 0.7072 0.80956 0.88064 0.0
H250 H 0.7463 0.78753 0.85967 0.0
H251 H 0.72148 0.83359 0.7618 0.0
H252 H 0.77735 0.89534 0.80673 0.0
H253 H 0.78556 0.90087 0.76982 0.0
H254 H 0.75181 0.90821 0.78286 0.0
H255 H 0.72657 0.87441 0.75191 0.0
H256 H 0.74876 0.84767 0.73751 0.0
C257 C 0.77624 0.74441 0.83721 0.0
C258 C 0.803 0.78692 0.86555 0.0
C259 C 0.85224 0.86475 0.70465 0.0
C260 C 0.84034 0.88845 0.68914 0.0
C261 C 0.81356 0.89556 0.69704 0.0
C262 C 0.79925 0.87994 0.72101 0.0
C263 C 0.81189 0.85695 0.73699 0.0
C264 C 0.83763 0.8492 0.72822 0.0
C265 C 0.84751 0.82347 0.74695 0.0
C266 C 0.82364 0.8173 0.76877 0.0
C267 C 0.80306 0.83726 0.76315 0.0
C268 C 0.85022 0.79537 0.72865 0.0
C269 C 0.87485 0.83624 0.7605 0.0
C270 C 0.7184 0.85951 0.8213 0.0
C271 C 0.70624 0.84652 0.84742 0.0
C272 C 0.71635 0.81996 0.86052 0.0
C273 C 0.73916 0.80739 0.84843 0.0
C274 C 0.752 0.8216 0.82303 0.0
C275 C 0.74112 0.84669 0.8095 0.0
C276 C 0.75701 0.85835 0.78233 0.0
C277 C 0.7799 0.83688 0.78239 0.0
C278 C 0.77702 0.8156 0.80642 0.0
C279 C 0.73756 0.85355 0.75696 0.0
C280 C 0.76852 0.89254 0.78531 0.0
H281 H 0.87528 0.77476 0.77521 0.0
H282 H 0.83014 0.72686 0.86586 0.0
H283 H 0.82416 0.79927 0.8668 0.0
H284 H 0.78875 0.80486 0.8684 0.0
H285 H 0.79991 0.76934 0.88394 0.0
H286 H 0.78039 0.7281 0.82065 0.0
H287 H 0.77441 0.73094 0.85823 0.0
H288 H 0.75586 0.75235 0.83201 0.0
H289 H 0.87263 0.85853 0.6986 0.0
H290 H 0.80408 0.91372 0.68511 0.0
H291 H 0.77913 0.88667 0.72644 0.0
H292 H 0.83452 0.79438 0.71177 0.0
H293 H 0.87107 0.7968 0.71788 0.0
H294 H 0.84617 0.77283 0.74118 0.0
H295 H 0.87427 0.86098 0.76516 0.0
H296 H 0.8785 0.82424 0.7813 0.0
H297 H 0.89308 0.83494 0.74589 0.0
H298 H 0.89829 0.73724 0.80342 0.0
C299 C 0.8648 0.76487 0.79458 0.0
C300 C 0.75891 0.13575 0.35434 0.0
C301 C 0.77356 0.11273 0.34299 0.0
C302 C 0.76324 0.09818 0.31888 0.0
C303 C 0.72388 0.1288 0.31863 0.0
C304 C 0.73426 0.14324 0.34202 0.0
C305 C 0.71602 0.16655 0.35226 0.0
H306 H 0.59762 0.23637 0.34198 0.0
C307 C 0.69742 0.14151 0.31161 0.0
C308 C 0.69274 0.16357 0.33136 0.0
H309 H 0.66374 0.25246 0.40094 0.0
H310 H 0.68924 0.21457 0.37932 0.0
H311 H 0.59739 0.16107 0.34346 0.0
H312 H 0.63687 0.23627 0.28797 0.0
H313 H 0.62794 0.20588 0.26608 0.0
H314 H 0.60089 0.22258 0.28528 0.0
H315 H 0.57873 0.1841 0.31898 0.0
H316 H 0.59397 0.15026 0.30819 0.0
C317 C 0.70573 0.15591 0.38324 0.0
C318 C 0.73274 0.19905 0.34894 0.0
C319 C 0.64169 0.10394 0.22773 0.0
C320 C 0.61628 0.11156 0.21667 0.0
C321 C 0.60172 0.13345 0.23017 0.0
C322 C 0.61212 0.14748 0.25418 0.0
C323 C 0.63748 0.13971 0.26495 0.0
C324 C 0.65184 0.11823 0.25185 0.0
C325 C 0.67843 0.1129 0.26654 0.0
C326 C 0.67779 0.1351 0.29024 0.0
C327 C 0.65368 0.15064 0.28917 0.0
C328 C 0.67632 0.07859 0.27845 0.0
C329 C 0.70302 0.12238 0.24494 0.0
C330 C 0.61747 0.23141 0.35034 0.0
C331 C 0.62869 0.24722 0.37323 0.0
C332 C 0.6548 0.24065 0.38321 0.0
C333 C 0.66952 0.21857 0.37068 0.0
C334 C 0.6581 0.20292 0.34779 0.0
C335 C 0.63261 0.20961 0.33784 0.0
C336 C 0.62432 0.19162 0.31258 0.0
C337 C 0.64887 0.17272 0.3093 0.0
C338 C 0.66843 0.17929 0.33011 0.0
C339 C 0.59708 0.17073 0.32094 0.0
C340 C 0.62214 0.21509 0.28655 0.0
H341 H 0.73161 0.09404 0.28848 0.0
H342 H 0.76646 0.1478 0.37253 0.0
H343 H 0.74794 0.20079 0.33055 0.0
H344 H 0.71949 0.21794 0.34417 0.0
H345 H 0.74458 0.20396 0.36835 0.0
H346 H 0.70134 0.1302 0.38581 0.0
H347 H 0.72162 0.1629 0.39884 0.0
H348 H 0.68598 0.16481 0.38934 0.0
H349 H 0.6533 0.08706 0.21799 0.0
H350 H 0.58237 0.14017 0.22184 0.0
H351 H 0.60003 0.16398 0.26331 0.0
H352 H 0.65471 0.07039 0.2861 0.0
H353 H 0.68224 0.06324 0.26177 0.0
H354 H 0.68915 0.07502 0.29724 0.0
H355 H 0.69943 0.14378 0.23177 0.0
H356 H 0.72288 0.12809 0.25533 0.0
H357 H 0.70558 0.10379 0.23021 0.0
H358 H 0.774 0.0802 0.30982 0.0
C359 C 0.73851 0.10609 0.30664 0.0
C360 C 0.38355 0.61326 0.26829 0.0
C361 C 0.36994 0.58907 0.28649 0.0
C362 C 0.34251 0.57762 0.28039 0.0
C363 C 0.34281 0.61469 0.23927 0.0
C364 C 0.36962 0.62585 0.24527 0.0
C365 C 0.38087 0.65279 0.22517 0.0
H366 H 0.36078 0.75747 0.11655 0.0
C367 C 0.33419 0.63356 0.21419 0.0
C368 C 0.3564 0.65611 0.20611 0.0
H369 H 0.43492 0.74958 0.16439 0.0
H370 H 0.41254 0.70433 0.19188 0.0
H371 H 0.3158 0.7411 0.16952 0.0
H372 H 0.35046 0.6867 0.10693 0.0
H373 H 0.3162 0.67009 0.11362 0.0
H374 H 0.32254 0.70974 0.0989 0.0
H375 H 0.30801 0.74421 0.13234 0.0
H376 H 0.28844 0.71626 0.1571 0.0
C377 C 0.3871 0.68142 0.24292 0.0
C378 C 0.40642 0.64328 0.20848 0.0
C379 C 0.23982 0.60822 0.17053 0.0
C380 C 0.22665 0.62196 0.1472 0.0
C381 C 0.24019 0.64877 0.13234 0.0
C382 C 0.26637 0.66146 0.14021 0.0
C383 C 0.27941 0.64729 0.16323 0.0
C384 C 0.2661 0.62127 0.17817 0.0
C385 C 0.28319 0.60975 0.20231 0.0
C386 C 0.30929 0.63248 0.19864 0.0
C387 C 0.30681 0.65444 0.17574 0.0
C388 C 0.2672 0.61289 0.23083 0.0
C389 C 0.28928 0.57622 0.19715 0.0
C390 C 0.37199 0.74594 0.13309 0.0
C391 C 0.39939 0.75694 0.13873 0.0
C392 C 0.4137 0.74132 0.15996 0.0
C393 C 0.40064 0.71517 0.17585 0.0
C394 C 0.37302 0.70448 0.17027 0.0
C395 C 0.35931 0.71957 0.14892 0.0
C396 C 0.33061 0.70403 0.14499 0.0
C397 C 0.32906 0.67761 0.16803 0.0
C398 C 0.35383 0.67818 0.18291 0.0
C399 C 0.30944 0.72751 0.15107 0.0
C400 C 0.32962 0.69213 0.11454 0.0
H401 H 0.30812 0.58056 0.25349 0.0
H402 H 0.40473 0.62241 0.27182 0.0
H403 H 0.40388 0.61809 0.20485 0.0
H404 H 0.40931 0.65504 0.18686 0.0
H405 H 0.42575 0.6479 0.22039 0.0
H406 H 0.3711 0.68165 0.26037 0.0
H407 H 0.40763 0.68121 0.25291 0.0
H408 H 0.38648 0.70371 0.23036 0.0
H409 H 0.22986 0.58783 0.18262 0.0
H410 H 0.23077 0.65961 0.11411 0.0
H411 H 0.27554 0.68173 0.12785 0.0
H412 H 0.25506 0.63337 0.2294 0.0
H413 H 0.25238 0.59203 0.23652 0.0
H414 H 0.28115 0.61695 0.24874 0.0
H415 H 0.29529 0.57432 0.17433 0.0
H416 H 0.30678 0.56866 0.20947 0.0
H417 H 0.27064 0.55954 0.20245 0.0
H418 H 0.33124 0.55932 0.29413 0.0
C419 C 0.32896 0.59019 0.25689 0.0
C420 C 0.10592 0.24872 0.66566 0.0
C421 C 0.11633 0.23624 0.64108 0.0
C422 C 0.14266 0.24823 0.62948 0.0
C423 C 0.14794 0.28436 0.66659 0.0
C424 C 0.12196 0.27297 0.67787 0.0
C425 C 0.11385 0.29005 0.70331 0.0
H426 H 0.14769 0.40107 0.79553 0.0
C427 C 0.15938 0.30933 0.68415 0.0
C428 C 0.13948 0.31303 0.70565 0.0
H429 H 0.07003 0.34288 0.79193 0.0
H430 H 0.08834 0.31787 0.75223 0.0
H431 H 0.15396 0.41727 0.72863 0.0
H432 H 0.18858 0.34796 0.78281 0.0
H433 H 0.215 0.36527 0.75877 0.0
H434 H 0.19917 0.38871 0.78364 0.0
H435 H 0.18176 0.42701 0.75201 0.0
H436 H 0.18833 0.41557 0.71639 0.0
C437 C 0.08777 0.30659 0.69587 0.0
C438 C 0.10967 0.26645 0.72959 0.0
C439 C 0.25628 0.36248 0.66006 0.0
C440 C 0.2726 0.38683 0.67175 0.0
C441 C 0.26201 0.40037 0.69572 0.0
C442 C 0.23559 0.38988 0.70776 0.0
C443 C 0.21941 0.36571 0.69562 0.0
C444 C 0.22989 0.35245 0.67218 0.0
C445 C 0.20968 0.32754 0.66163 0.0
C446 C 0.18531 0.32791 0.68263 0.0
C447 C 0.1911 0.35022 0.70255 0.0
C448 C 0.20221 0.33772 0.63071 0.0
C449 C 0.22301 0.29652 0.6646 0.0
C450 C 0.13445 0.38314 0.78613 0.0
C451 C 0.10729 0.37403 0.79721 0.0
C452 C 0.09114 0.35015 0.78434 0.0
C453 C 0.10172 0.33578 0.76103 0.0
C454 C 0.12875 0.34541 0.75011 0.0
C455 C 0.14459 0.36878 0.76264 0.0
C456 C 0.17258 0.37667 0.74775 0.0
C457 C 0.17093 0.35424 0.72422 0.0
C458 C 0.14524 0.33581 0.72576 0.0
C459 C 0.17456 0.41094 0.73565 0.0
C460 C 0.19519 0.36956 0.76925 0.0
H461 H 0.1784 0.27992 0.63223 0.0
H462 H 0.08564 0.24012 0.67489 0.0
H463 H 0.12635 0.25054 0.72996 0.0
H464 H 0.11084 0.27754 0.75006 0.0
H465 H 0.08941 0.25205 0.72908 0.0
H466 H 0.08793 0.31399 0.67272 0.0
H467 H 0.06841 0.29099 0.70097 0.0
H468 H 0.08674 0.32823 0.70681 0.0
H469 H 0.2636 0.35191 0.64137 0.0
H470 H 0.27425 0.41902 0.70525 0.0
H471 H 0.22874 0.40113 0.72598 0.0
H472 H 0.20384 0.36345 0.62719 0.0
H473 H 0.21636 0.32904 0.61474 0.0
H474 H 0.18046 0.33007 0.62589 0.0
H475 H 0.23462 0.29478 0.68468 0.0
H476 H 0.2076 0.27591 0.66605 0.0
H477 H 0.23792 0.29467 0.64652 0.0
H478 H 0.15124 0.23875 0.61078 0.0
C479 C 0.15849 0.27206 0.64209 0.0
Zn480 Zn 0.02794 0.99407 0.51545 0.0
Zn481 Zn 0.97798 0.01142 0.47407 0.0
C482 C 0.05504 0.04735 0.53784 0.0
O483 O 0.07597 0.03468 0.52659 0.0
C484 C 0.95917 0.94871 0.46416 0.0
O485 O 0.93836 0.95554 0.48034 0.0
O486 O 0.05678 0.96957 0.53371 0.0
O487 O 0.99083 0.9696 0.52511 0.0
O488 O 0.96625 0.00867 0.51549 0.0
C489 C 0.05639 0.9642 0.56066 0.0
O490 O 0.03606 0.97331 0.57611 0.0
O491 O 0.03053 0.03443 0.53528 0.0
C492 C 0.94498 0.05566 0.44373 0.0
O493 O 0.96507 0.07689 0.44921 0.0
O494 O 0.94649 0.02759 0.4525 0.0
O495 O 0.01259 0.03878 0.46259 0.0
O496 O 0.04136 0.00409 0.47462 0.0
O497 O 0.98006 0.96878 0.45935 0.0
C498 C 0.96975 0.98387 0.53015 0.0
C499 C 0.0361 0.02842 0.46007 0.0
Zn500 Zn 0.52217 0.97679 0.98247 0.0
Zn501 Zn 0.48112 0.01149 0.00833 0.0
C502 C 0.4834 0.93932 0.95122 0.0
O503 O 0.49496 0.91728 0.96563 0.0
C504 C 0.51995 0.04778 0.04024 0.0
O505 O 0.50817 0.06999 0.02634 0.0
O506 O 0.55359 0.95481 0.96765 0.0
O507 O 0.53499 0.02249 0.97671 0.0
O508 O 0.49227 0.0334 0.97003 0.0
C509 C 0.55819 0.95695 0.94078 0.0
O510 O 0.5431 0.97406 0.92458 0.0
O511 O 0.49111 0.96746 0.95543 0.0
C512 C 0.44567 0.02816 0.05171 0.0
O513 O 0.46136 0.01041 0.06647 0.0
O514 O 0.44971 0.03223 0.02481 0.0
O515 O 0.46799 0.96593 0.01148 0.0
O516 O 0.51032 0.95629 0.02152 0.0
O517 O 0.51258 0.01977 0.03526 0.0
C518 C 0.51823 0.04 0.96529 0.0
C519 C 0.48428 0.94887 0.02421 0.0
Zn520 Zn 0.52258 0.47366 0.47566 0.0
Zn521 Zn 0.4777 0.51695 0.52205 0.0
C522 C 0.56279 0.52419 0.45042 0.0
O523 O 0.54089 0.53892 0.445 0.0
C524 C 0.4503 0.47942 0.56918 0.0
O525 O 0.46883 0.49574 0.5835 0.0
O526 O 0.5265 0.43259 0.45927 0.0
O527 O 0.51977 0.46519 0.51892 0.0
O528 O 0.51712 0.51204 0.53359 0.0
C529 C 0.54204 0.41421 0.47152 0.0
O530 O 0.55354 0.42171 0.49546 0.0
O531 O 0.55962 0.49781 0.46423 0.0
C532 C 0.44088 0.55965 0.53751 0.0
O533 O 0.42381 0.53825 0.52683 0.0
O534 O 0.46665 0.55614 0.5378 0.0
O535 O 0.46807 0.52066 0.48074 0.0
O536 O 0.49253 0.49274 0.45351 0.0
O537 O 0.45118 0.48298 0.54206 0.0
C538 C 0.52528 0.48517 0.53712 0.0
C539 C 0.47357 0.5106 0.45666 0.0
Zn540 Zn 0.97414 0.51663 0.97639 0.0
Zn541 Zn 0.02436 0.48045 0.02804 0.0
C542 C 0.93252 0.46887 0.95789 0.0
O543 O 0.9541 0.45415 0.95164 0.0
C544 C 0.05223 0.51952 0.06638 0.0
O545 O 0.034 0.50287 0.08381 0.0
O546 O 0.97187 0.55629 0.95275 0.0
O547 O 0.97699 0.52877 0.01743 0.0
O548 O 0.9854 0.48595 0.04213 0.0
C549 C 0.956 0.57509 0.96239 0.0
O550 O 0.94419 0.56888 0.98791 0.0
O551 O 0.93621 0.4941 0.97027 0.0
C552 C 0.03983 0.41803 0.04035 0.0
O553 O 0.03261 0.41367 0.01403 0.0
O554 O 0.03662 0.44379 0.05072 0.0
O555 O 0.03166 0.47238 0.98679 0.0
O556 O 0.00318 0.49396 0.95713 0.0
O557 O 0.05129 0.5157 0.03975 0.0
C558 C 0.97756 0.51304 0.04117 0.0
C559 C 0.02341 0.47794 0.96171 0.0
C560 C 0.14395 0.09673 0.33578 0.0
C561 C 0.15342 0.12783 0.33903 0.0
C562 C 0.12684 0.07947 0.35685 0.0
C563 C 0.11937 0.09361 0.38186 0.0
C564 C 0.13019 0.12446 0.38598 0.0
C565 C 0.14692 0.14135 0.36433 0.0
C566 C 0.11542 0.04676 0.35153 0.0
C567 C 0.12308 0.14006 0.41265 0.0
C568 C 0.04977 0.06495 0.4178 0.0
C569 C 0.05749 0.04491 0.44013 0.0
C570 C 0.06977 0.08089 0.39869 0.0
C571 C 0.09821 0.07712 0.40235 0.0
C572 C 0.1062 0.05724 0.42508 0.0
C573 C 0.08567 0.0411 0.44359 0.0
C574 C 0.06043 0.10155 0.37442 0.0
C575 C 0.13638 0.05311 0.42986 0.0
H576 H 0.14871 0.0864 0.31605 0.0
H577 H 0.15444 0.16536 0.36687 0.0
H578 H 0.11892 0.03062 0.37007 0.0
H579 H 0.09264 0.04587 0.3489 0.0
H580 H 0.125 0.03837 0.3321 0.0
H581 H 0.1357 0.1627 0.41402 0.0
H582 H 0.1008 0.14413 0.41287 0.0
H583 H 0.12635 0.12489 0.43195 0.0
H584 H 0.02799 0.06785 0.41501 0.0
H585 H 0.09173 0.02587 0.46104 0.0
H586 H 0.06749 0.09362 0.35369 0.0
H587 H 0.06996 0.1257 0.37581 0.0
H588 H 0.03748 0.1017 0.37445 0.0
H589 H 0.14563 0.04336 0.41098 0.0
H590 H 0.13915 0.03748 0.44904 0.0
H591 H 0.14818 0.07596 0.43242 0.0
C592 C 0.37692 0.89164 0.82841 0.0
C593 C 0.39345 0.88733 0.80427 0.0
C594 C 0.38901 0.90202 0.85339 0.0
C595 C 0.41826 0.90819 0.85415 0.0
C596 C 0.43492 0.90494 0.8295 0.0
C597 C 0.42231 0.89461 0.80487 0.0
C598 C 0.37059 0.90533 0.87925 0.0
C599 C 0.46618 0.91147 0.82938 0.0
C600 C 0.45431 0.955 0.91046 0.0
C601 C 0.46394 0.93151 0.92839 0.0
C602 C 0.4383 0.94776 0.88685 0.0
C603 C 0.43182 0.91631 0.88108 0.0
C604 C 0.44039 0.8925 0.89986 0.0
C605 C 0.45632 0.90039 0.9233 0.0
C606 C 0.42939 0.97378 0.86739 0.0
C607 C 0.43382 0.85867 0.89449 0.0
H608 H 0.35462 0.88587 0.82811 0.0
H609 H 0.43512 0.89187 0.78608 0.0
H610 H 0.37465 0.88779 0.89648 0.0
H611 H 0.37538 0.92852 0.88759 0.0
H612 H 0.34817 0.90218 0.87445 0.0
H613 H 0.476 0.90921 0.80806 0.0
H614 H 0.47209 0.93526 0.83595 0.0
H615 H 0.47481 0.89507 0.84506 0.0
H616 H 0.45999 0.97912 0.91432 0.0
H617 H 0.46349 0.88208 0.93716 0.0
H618 H 0.4069 0.9697 0.86332 0.0
H619 H 0.44076 0.97452 0.84648 0.0
H620 H 0.43357 0.99674 0.87643 0.0
H621 H 0.41124 0.85336 0.89139 0.0
H622 H 0.44007 0.84299 0.91229 0.0
H623 H 0.44487 0.85354 0.8746 0.0
C624 C 0.62433 0.44181 0.66557 0.0
C625 C 0.60846 0.42876 0.68964 0.0
C626 C 0.61153 0.45252 0.64079 0.0
C627 C 0.58214 0.45014 0.64001 0.0
C628 C 0.56603 0.43767 0.66445 0.0
C629 C 0.57936 0.4272 0.68892 0.0
C630 C 0.62944 0.46568 0.61519 0.0
C631 C 0.53466 0.43482 0.66458 0.0
C632 C 0.54689 0.49826 0.58353 0.0
C633 C 0.54021 0.4765 0.56329 0.0
C634 C 0.56078 0.49014 0.60843 0.0
C635 C 0.56816 0.45951 0.6133 0.0
C636 C 0.5616 0.4375 0.59292 0.0
C637 C 0.54772 0.44623 0.56824 0.0
C638 C 0.5674 0.51428 0.62963 0.0
C639 C 0.56901 0.40458 0.5973 0.0
H640 H 0.64679 0.44285 0.6658 0.0
H641 H 0.56692 0.41766 0.70757 0.0
H642 H 0.62571 0.45073 0.59711 0.0
H643 H 0.62383 0.48909 0.60819 0.0
H644 H 0.65194 0.46742 0.61969 0.0
H645 H 0.52517 0.42562 0.68563 0.0
H646 H 0.52728 0.45777 0.65905 0.0
H647 H 0.52709 0.41909 0.64814 0.0
H648 H 0.54121 0.52169 0.57997 0.0
H649 H 0.54259 0.42915 0.5529 0.0
H650 H 0.59007 0.51705 0.63313 0.0
H651 H 0.55687 0.5066 0.65054 0.0
H652 H 0.56079 0.53723 0.62245 0.0
H653 H 0.5917 0.40454 0.60012 0.0
H654 H 0.56305 0.39046 0.57912 0.0
H655 H 0.5584 0.39323 0.61706 0.0
C656 C 0.94633 0.59201 0.18736 0.0
C657 C 0.9177 0.59373 0.19178 0.0
C658 C 0.95669 0.57815 0.16356 0.0
C659 C 0.93798 0.56528 0.14379 0.0
C660 C 0.90906 0.56629 0.14843 0.0
C661 C 0.8993 0.58065 0.17218 0.0
C662 C 0.9877 0.57776 0.1593 0.0
C663 C 0.88839 0.55266 0.12798 0.0
C664 C 0.96351 0.55779 0.06742 0.0
C665 C 0.96784 0.52626 0.06767 0.0
C666 C 0.95416 0.57079 0.09209 0.0
C667 C 0.94868 0.5518 0.11769 0.0
C668 C 0.9531 0.51999 0.11817 0.0
C669 C 0.96278 0.50765 0.09322 0.0
C670 C 0.9501 0.6049 0.09072 0.0
C671 C 0.94726 0.4989 0.14495 0.0
H672 H 0.96076 0.60148 0.20254 0.0
H673 H 0.8772 0.58221 0.175 0.0
H674 H 0.99291 0.55358 0.15787 0.0
H675 H 0.9948 0.59077 0.13886 0.0
H676 H 0.99945 0.58822 0.17688 0.0
H677 H 0.86654 0.55375 0.13544 0.0
H678 H 0.89162 0.5654 0.10671 0.0
H679 H 0.89163 0.52808 0.12517 0.0
H680 H 0.96756 0.57248 0.04789 0.0
H681 H 0.96605 0.48328 0.09367 0.0
H682 H 0.96283 0.61667 0.1069 0.0
H683 H 0.92806 0.60792 0.09582 0.0
H684 H 0.95589 0.61665 0.06935 0.0
H685 H 0.95985 0.50791 0.16257 0.0
H686 H 0.95191 0.47476 0.14189 0.0
H687 H 0.92508 0.49846 0.1518 0.0
C688 C 0.3436 0.13299 0.12918 0.0
C689 C 0.32096 0.1143 0.14233 0.0
C690 C 0.364 0.11991 0.11347 0.0
C691 C 0.36132 0.0875 0.11054 0.0
C692 C 0.33811 0.06866 0.12324 0.0
C693 C 0.31829 0.08229 0.1392 0.0
C694 C 0.38871 0.14062 0.1006 0.0
C695 C 0.33434 0.03409 0.12019 0.0
C696 C 0.40266 0.05566 0.05128 0.0
C697 C 0.42425 0.04378 0.06645 0.0
C698 C 0.38198 0.07004 0.06534 0.0
C699 C 0.3833 0.07304 0.09513 0.0
C700 C 0.40535 0.06159 0.11043 0.0
C701 C 0.42543 0.04684 0.09593 0.0
C702 C 0.35851 0.08159 0.04845 0.0
C703 C 0.40769 0.06481 0.14213 0.0
H704 H 0.34567 0.15774 0.13179 0.0
H705 H 0.30055 0.06794 0.14912 0.0
H706 H 0.40808 0.13344 0.10995 0.0
H707 H 0.39046 0.13821 0.07727 0.0
H708 H 0.38734 0.16545 0.1043 0.0
H709 H 0.31442 0.02302 0.13018 0.0
H710 H 0.33494 0.02929 0.09727 0.0
H711 H 0.35166 0.02303 0.13032 0.0
H712 H 0.40165 0.05324 0.02849 0.0
H713 H 0.44225 0.03796 0.1077 0.0
H714 H 0.35774 0.10677 0.05073 0.0
H715 H 0.33837 0.0696 0.05697 0.0
H716 H 0.36064 0.07769 0.02538 0.0
H717 H 0.40791 0.08956 0.14681 0.0
H718 H 0.42674 0.05578 0.15062 0.0
H719 H 0.38934 0.05202 0.15375 0.0
C720 C 0.19558 0.92904 0.6371 0.0
C721 C 0.19888 0.89733 0.64095 0.0
C722 C 0.17181 0.93923 0.62455 0.0
C723 C 0.15078 0.91715 0.61575 0.0
C724 C 0.15379 0.88509 0.61997 0.0
C725 C 0.17783 0.87557 0.63246 0.0
C726 C 0.16942 0.97364 0.62027 0.0
C727 C 0.13172 0.86086 0.61106 0.0
C728 C 0.07934 0.94422 0.60433 0.0
C729 C 0.07979 0.95034 0.5746 0.0
C730 C 0.10211 0.9329 0.61799 0.0
C731 C 0.12594 0.9277 0.60153 0.0
C732 C 0.12633 0.9333 0.57147 0.0
C733 C 0.10324 0.94448 0.55837 0.0
C734 C 0.10087 0.92701 0.65007 0.0
C735 C 0.15139 0.92809 0.55319 0.0
H736 H 0.21193 0.94596 0.64332 0.0
H737 H 0.18012 0.85101 0.63573 0.0
H738 H 0.1682 0.98036 0.59716 0.0
H739 H 0.15002 0.97942 0.63089 0.0
H740 H 0.18731 0.98776 0.62886 0.0
H741 H 0.1369 0.83686 0.6165 0.0
H742 H 0.11146 0.86386 0.6216 0.0
H743 H 0.12906 0.86378 0.58768 0.0
H744 H 0.06129 0.94862 0.61704 0.0
H745 H 0.1038 0.94918 0.53539 0.0
H746 H 0.11725 0.94249 0.65956 0.0
H747 H 0.105 0.90277 0.65601 0.0
H748 H 0.0804 0.93101 0.65965 0.0
H749 H 0.16971 0.9434 0.55927 0.0
H750 H 0.14811 0.93281 0.53006 0.0
H751 H 0.15642 0.90379 0.55686 0.0
C752 C 0.77957 0.40545 0.91326 0.0
C753 C 0.77727 0.40749 0.88344 0.0
C754 C 0.8041 0.41654 0.92609 0.0
C755 C 0.82688 0.43062 0.90879 0.0
C756 C 0.82431 0.43413 0.87878 0.0
C757 C 0.79959 0.4224 0.86644 0.0
C758 C 0.80596 0.41224 0.95814 0.0
C759 C 0.848 0.44943 0.85962 0.0
C760 C 0.88424 0.47901 0.94463 0.0
C761 C 0.90483 0.45846 0.94712 0.0
C762 C 0.85886 0.47039 0.93201 0.0
C763 C 0.85375 0.44033 0.92205 0.0
C764 C 0.87421 0.41926 0.92509 0.0
C765 C 0.89956 0.42865 0.93737 0.0
C766 C 0.83774 0.49365 0.92886 0.0
C767 C 0.86938 0.38681 0.9152 0.0
H768 H 0.76222 0.39465 0.92666 0.0
H769 H 0.79813 0.42397 0.84341 0.0
H770 H 0.82241 0.39698 0.96357 0.0
H771 H 0.81186 0.43487 0.96715 0.0
H772 H 0.78607 0.40178 0.96865 0.0
H773 H 0.84198 0.45257 0.83704 0.0
H774 H 0.8554 0.47243 0.86712 0.0
H775 H 0.86572 0.43506 0.86055 0.0
H776 H 0.88824 0.50221 0.95182 0.0
H777 H 0.91534 0.41264 0.93922 0.0
H778 H 0.81788 0.48424 0.93998 0.0
H779 H 0.83332 0.49801 0.90596 0.0
H780 H 0.84492 0.51612 0.93762 0.0
H781 H 0.85039 0.37445 0.926 0.0
H782 H 0.88715 0.37304 0.9196 0.0
H783 H 0.86594 0.38783 0.89191 0.0
C784 C 0.69757 0.57456 0.35016 0.0
C785 C 0.71978 0.58919 0.3645 0.0
C786 C 0.6722 0.56407 0.3646 0.0
C787 C 0.6688 0.56858 0.39405 0.0
C788 C 0.69108 0.58331 0.40866 0.0
C789 C 0.7163 0.5932 0.39379 0.0
C790 C 0.649 0.54825 0.34831 0.0
C791 C 0.68827 0.58867 0.44001 0.0
C792 C 0.59483 0.56646 0.42447 0.0
C793 C 0.59048 0.53638 0.43772 0.0
C794 C 0.62036 0.57742 0.41058 0.0
C795 C 0.64196 0.55772 0.40962 0.0
C796 C 0.63783 0.52749 0.42329 0.0
C797 C 0.61224 0.51727 0.43732 0.0
C798 C 0.62409 0.60996 0.39662 0.0
C799 C 0.66025 0.50567 0.42257 0.0
H800 H 0.69983 0.57169 0.3275 0.0
H801 H 0.73344 0.6039 0.40527 0.0
H802 H 0.64254 0.52476 0.35851 0.0
H803 H 0.63061 0.56157 0.34895 0.0
H804 H 0.65513 0.54597 0.32563 0.0
H805 H 0.70736 0.60106 0.44811 0.0
H806 H 0.67057 0.60247 0.4438 0.0
H807 H 0.68372 0.56615 0.45264 0.0
H808 H 0.57818 0.58141 0.42472 0.0
H809 H 0.60906 0.49393 0.44735 0.0
H810 H 0.62794 0.60915 0.37329 0.0
H811 H 0.64251 0.62319 0.40511 0.0
H812 H 0.60564 0.62274 0.40013 0.0
H813 H 0.66544 0.5013 0.40012 0.0
H814 H 0.6539 0.48306 0.43457 0.0
H815 H 0.67947 0.51638 0.43176 0.0
C816 C 0.15598 0.32377 0.10891 0.0
C817 C 0.14575 0.29801 0.12705 0.0
C818 C 0.13778 0.34245 0.09493 0.0
C819 C 0.10873 0.33512 0.09922 0.0
C820 C 0.09829 0.30907 0.11739 0.0
C821 C 0.11694 0.2908 0.13106 0.0
C822 C 0.14964 0.37015 0.07573 0.0
C823 C 0.06744 0.30053 0.1224 0.0
C824 C 0.06381 0.40058 0.08407 0.0
C825 C 0.05506 0.39507 0.05645 0.0
C826 C 0.08083 0.38086 0.09848 0.0
C827 C 0.08928 0.35501 0.08494 0.0
C828 C 0.0798 0.34871 0.05746 0.0
C829 C 0.06275 0.36881 0.04354 0.0
C830 C 0.09041 0.3882 0.12785 0.0
C831 C 0.08834 0.32126 0.04244 0.0
H832 H 0.17822 0.32955 0.10595 0.0
H833 H 0.10893 0.27058 0.14468 0.0
H834 H 0.14172 0.36824 0.0539 0.0
H835 H 0.1428 0.39172 0.0838 0.0
H836 H 0.17272 0.3724 0.07436 0.0
H837 H 0.06273 0.27945 0.13712 0.0
H838 H 0.05784 0.32002 0.13155 0.0
H839 H 0.05747 0.29635 0.10182 0.0
H840 H 0.0579 0.42077 0.09425 0.0
H841 H 0.05609 0.36439 0.0222 0.0
H842 H 0.11335 0.39332 0.12731 0.0
H843 H 0.08505 0.36784 0.14323 0.0
H844 H 0.08099 0.40842 0.1359 0.0
H845 H 0.11119 0.32391 0.03844 0.0
H846 H 0.07811 0.31875 0.0217 0.0
H847 H 0.08312 0.29955 0.05614 0.0
C848 C 0.57435 0.18232 0.85379 0.0
C849 C 0.58349 0.20824 0.86862 0.0
C850 C 0.56298 0.15451 0.86849 0.0
C851 C 0.56059 0.15269 0.8987 0.0
C852 C 0.56933 0.17896 0.91373 0.0
C853 C 0.5807 0.20638 0.89852 0.0
C854 C 0.55399 0.12692 0.85175 0.0
C855 C 0.56693 0.17803 0.94592 0.0
C856 C 0.51073 0.08974 0.93778 0.0
C857 C 0.52888 0.06836 0.94748 0.0
C858 C 0.5207 0.1171 0.92154 0.0
C859 C 0.54949 0.12315 0.91474 0.0
C860 C 0.56786 0.10143 0.92407 0.0
C861 C 0.55735 0.07435 0.94038 0.0
C862 C 0.50049 0.13977 0.91207 0.0
C863 C 0.59868 0.107 0.91714 0.0
H864 H 0.57669 0.18355 0.83071 0.0
H865 H 0.58735 0.2265 0.91005 0.0
H866 H 0.5664 0.10749 0.85778 0.0
H867 H 0.53188 0.11871 0.85698 0.0
H868 H 0.55653 0.13238 0.82832 0.0
H869 H 0.57406 0.2007 0.95432 0.0
H870 H 0.54503 0.17138 0.95325 0.0
H871 H 0.5795 0.16016 0.95534 0.0
H872 H 0.48871 0.08532 0.94316 0.0
H873 H 0.57151 0.05789 0.94766 0.0
H874 H 0.50203 0.14427 0.88852 0.0
H875 H 0.50582 0.16228 0.92152 0.0
H876 H 0.47865 0.13122 0.91842 0.0
H877 H 0.60246 0.1108 0.89371 0.0
H878 H 0.61002 0.0873 0.9251 0.0
H879 H 0.60751 0.1283 0.92682 0.0
C880 C 0.93439 0.79101 0.38169 0.0
C881 C 0.91011 0.79413 0.36665 0.0
C882 C 0.94649 0.81553 0.39687 0.0
C883 C 0.93417 0.84383 0.39655 0.0
C884 C 0.91061 0.84759 0.37988 0.0
C885 C 0.89871 0.82258 0.36538 0.0
C886 C 0.9714 0.81047 0.41459 0.0
C887 C 0.89709 0.87753 0.37848 0.0
C888 C 0.93713 0.89502 0.45905 0.0
C889 C 0.95626 0.91989 0.4488 0.0
C890 C 0.93104 0.86925 0.44293 0.0
C891 C 0.94401 0.86855 0.4156 0.0
C892 C 0.96432 0.89294 0.40568 0.0
C893 C 0.97039 0.91823 0.42253 0.0
C894 C 0.90966 0.84347 0.45459 0.0
C895 C 0.9784 0.89325 0.37657 0.0
H896 H 0.94302 0.76886 0.38285 0.0
H897 H 0.87995 0.82494 0.35365 0.0
H898 H 0.98772 0.83024 0.41076 0.0
H899 H 0.96513 0.80918 0.43758 0.0
H900 H 0.98042 0.7887 0.40997 0.0
H901 H 0.88077 0.87778 0.36231 0.0
H902 H 0.88744 0.88081 0.39963 0.0
H903 H 0.9129 0.89757 0.37328 0.0
H904 H 0.92634 0.89606 0.47946 0.0
H905 H 0.98512 0.93746 0.41442 0.0
H906 H 0.91772 0.82059 0.45284 0.0
H907 H 0.8907 0.84357 0.44184 0.0
H908 H 0.90371 0.8459 0.47729 0.0
H909 H 0.98634 0.87057 0.37339 0.0
H910 H 0.99592 0.91184 0.37338 0.0
H911 H 0.96306 0.89706 0.35989 0.0
C912 C 0.38087 0.69015 0.62645 0.0
C913 C 0.37324 0.71494 0.60872 0.0
C914 C 0.39276 0.6653 0.61497 0.0
C915 C 0.39729 0.66538 0.58505 0.0
C916 C 0.39003 0.69059 0.56707 0.0
C917 C 0.37796 0.71502 0.57913 0.0
C918 C 0.39996 0.63868 0.6348 0.0
C919 C 0.39478 0.69159 0.5351 0.0
C920 C 0.44806 0.61193 0.55744 0.0
C921 C 0.42997 0.58694 0.54942 0.0
C922 C 0.43773 0.63781 0.56882 0.0
C923 C 0.40866 0.63851 0.57251 0.0
C924 C 0.39033 0.61332 0.56452 0.0
C925 C 0.4012 0.58792 0.55296 0.0
C926 C 0.45788 0.66437 0.57694 0.0
C927 C 0.35921 0.61309 0.56837 0.0
H928 H 0.37696 0.68986 0.64931 0.0
H929 H 0.37239 0.73435 0.56541 0.0
H930 H 0.38764 0.61692 0.62966 0.0
H931 H 0.42221 0.63517 0.63179 0.0
H932 H 0.39582 0.64259 0.65761 0.0
H933 H 0.38897 0.71341 0.52423 0.0
H934 H 0.41696 0.68938 0.52984 0.0
H935 H 0.38238 0.6717 0.52636 0.0
H936 H 0.47031 0.61136 0.55469 0.0
H937 H 0.38707 0.56865 0.54694 0.0
H938 H 0.45534 0.66762 0.60007 0.0
H939 H 0.45339 0.68624 0.56522 0.0
H940 H 0.47984 0.6605 0.57223 0.0
H941 H 0.35358 0.61497 0.59121 0.0
H942 H 0.34781 0.59167 0.56111 0.0
H943 H 0.35207 0.63344 0.55623 0.0
C944 C 0.883 0.92033 0.67012 0.0
C945 C 0.85649 0.90601 0.6653 0.0
C946 C 0.89996 0.9347 0.64748 0.0
C947 C 0.89027 0.9342 0.61933 0.0
C948 C 0.86316 0.92048 0.61444 0.0
C949 C 0.84642 0.90671 0.63764 0.0
C950 C 0.92855 0.94957 0.65361 0.0
C951 C 0.85234 0.91921 0.58465 0.0
C952 C 0.92969 0.98978 0.56328 0.0
C953 C 0.94863 0.97091 0.5521 0.0
C954 C 0.91012 0.978 0.58483 0.0
C955 C 0.90926 0.94652 0.59503 0.0
C956 C 0.92779 0.92713 0.58321 0.0
C957 C 0.94743 0.93964 0.56204 0.0
C958 C 0.89095 0.99944 0.59727 0.0
C959 C 0.92721 0.8933 0.5933 0.0
H960 H 0.89058 0.91987 0.69165 0.0
H961 H 0.82593 0.89539 0.63406 0.0
H962 H 0.94459 0.93658 0.64386 0.0
H963 H 0.93159 0.97371 0.6439 0.0
H964 H 0.93206 0.95 0.67687 0.0
H965 H 0.83022 0.90945 0.58467 0.0
H966 H 0.85436 0.94275 0.57362 0.0
H967 H 0.86495 0.90461 0.57203 0.0
H968 H 0.93058 0.01399 0.55568 0.0
H969 H 0.96184 0.92489 0.55321 0.0
H970 H 0.89534 0.00183 0.62014 0.0
H971 H 0.869 0.98954 0.59623 0.0
H972 H 0.89334 0.02291 0.58599 0.0
H973 H 0.93304 0.89126 0.61598 0.0
H974 H 0.94168 0.88091 0.58052 0.0
H975 H 0.90589 0.88152 0.59208 0.0
C976 C 0.57641 0.08832 0.18967 0.0
C977 C 0.60495 0.09748 0.19086 0.0
C978 C 0.56476 0.07804 0.16454 0.0
C979 C 0.58209 0.07667 0.13998 0.0
C980 C 0.61112 0.08448 0.14139 0.0
C981 C 0.62222 0.09485 0.16683 0.0
C982 C 0.53371 0.0698 0.16399 0.0
C983 C 0.63028 0.08311 0.11569 0.0
C984 C 0.54894 0.0314 0.08095 0.0
C985 C 0.53881 0.05516 0.06373 0.0
C986 C 0.56421 0.03812 0.10521 0.0
C987 C 0.56936 0.06928 0.11242 0.0
C988 C 0.56027 0.09343 0.0944 0.0
C989 C 0.54517 0.08608 0.07026 0.0
C990 C 0.57376 0.01177 0.12378 0.0
C991 C 0.56536 0.12698 0.10132 0.0
H992 H 0.56303 0.08971 0.20835 0.0
H993 H 0.64428 0.10204 0.16755 0.0
H994 H 0.52455 0.08636 0.14886 0.0
H995 H 0.52901 0.04628 0.15631 0.0
H996 H 0.52337 0.07042 0.18533 0.0
H997 H 0.65252 0.08675 0.12109 0.0
H998 H 0.6264 0.06037 0.10625 0.0
H999 H 0.62609 0.10128 0.09909 0.0
H1000 H 0.54423 0.00745 0.076 0.0
H1001 H 0.53759 0.10461 0.057 0.0
H1002 H 0.56191 0.00941 0.1445 0.0
H1003 H 0.59606 0.01668 0.12846 0.0
H1004 H 0.57075 0.9893 0.11367 0.0
H1005 H 0.55376 0.13049 0.12137 0.0
H1006 H 0.5587 0.14312 0.08409 0.0
H1007 H 0.58773 0.13318 0.10488 0.0
C1008 C 0.38032 0.5447 0.32073 0.0
C1009 C 0.38422 0.57643 0.31189 0.0
C1010 C 0.39401 0.53269 0.3444 0.0
C1011 C 0.41245 0.55273 0.35936 0.0
C1012 C 0.4165 0.58471 0.35059 0.0
C1013 C 0.40214 0.59619 0.32727 0.0
C1014 C 0.38881 0.49852 0.35336 0.0
C1015 C 0.43615 0.60686 0.36579 0.0
C1016 C 0.43144 0.53113 0.43566 0.0
C1017 C 0.45753 0.52023 0.43167 0.0
C1018 C 0.41621 0.54092 0.4123 0.0
C1019 C 0.42755 0.54042 0.38423 0.0
C1020 C 0.45382 0.5293 0.38004 0.0
C1021 C 0.46837 0.51906 0.40379 0.0
C1022 C 0.38807 0.55207 0.41767 0.0
C1023 C 0.46687 0.52895 0.35051 0.0
H1024 H 0.36684 0.52909 0.30891 0.0
H1025 H 0.40488 0.62085 0.32121 0.0
H1026 H 0.40846 0.48751 0.35165 0.0
H1027 H 0.38147 0.49528 0.37605 0.0
H1028 H 0.37315 0.48622 0.34012 0.0
H1029 H 0.43761 0.63091 0.35581 0.0
H1030 H 0.42914 0.60724 0.38844 0.0
H1031 H 0.45724 0.59889 0.36568 0.0
H1032 H 0.42281 0.53186 0.45713 0.0
H1033 H 0.48858 0.51085 0.40053 0.0
H1034 H 0.37217 0.53896 0.40534 0.0
H1035 H 0.38852 0.5769 0.41024 0.0
H1036 H 0.38152 0.5494 0.44064 0.0
H1037 H 0.45276 0.51519 0.3368 0.0
H1038 H 0.48717 0.51905 0.35082 0.0
H1039 H 0.47012 0.55294 0.34046 0.0
C1040 C 0.10218 0.4216 0.82423 0.0
C1041 C 0.09572 0.38962 0.82174 0.0
C1042 C 0.09134 0.4366 0.84706 0.0
C1043 C 0.07318 0.41939 0.86778 0.0
C1044 C 0.0665 0.38717 0.86543 0.0
C1045 C 0.07798 0.37266 0.84262 0.0
C1046 C 0.09919 0.47094 0.84891 0.0
C1047 C 0.04705 0.36801 0.88694 0.0
C1048 C 0.06193 0.45089 0.94065 0.0
C1049 C 0.03674 0.46404 0.93736 0.0
C1050 C 0.07422 0.4367 0.91809 0.0
C1051 C 0.06083 0.43518 0.89169 0.0
C1052 C 0.03545 0.44846 0.88821 0.0
C1053 C 0.02384 0.46289 0.91097 0.0
C1054 C 0.10148 0.42321 0.92256 0.0
C1055 C 0.02031 0.44697 0.86056 0.0
H1056 H 0.11543 0.43514 0.80806 0.0
H1057 H 0.07318 0.34789 0.84131 0.0
H1058 H 0.08037 0.48352 0.84735 0.0
H1059 H 0.10827 0.47534 0.86989 0.0
H1060 H 0.11441 0.48076 0.83174 0.0
H1061 H 0.04371 0.34327 0.88195 0.0
H1062 H 0.05551 0.36917 0.9086 0.0
H1063 H 0.02663 0.37757 0.88756 0.0
H1064 H 0.07213 0.45169 0.9609 0.0
H1065 H 0.00429 0.47275 0.90823 0.0
H1066 H 0.11721 0.43376 0.90622 0.0
H1067 H 0.09884 0.39789 0.91992 0.0
H1068 H 0.10962 0.42705 0.94408 0.0
H1069 H 0.03387 0.45829 0.84266 0.0
H1070 H 0.00079 0.45843 0.86125 0.0
H1071 H 0.01514 0.4224 0.85579 0.0
C1072 C 0.68763 0.89377 0.8645 0.0
C1073 C 0.68409 0.8617 0.86162 0.0
C1074 C 0.66712 0.90873 0.87809 0.0
C1075 C 0.64236 0.8912 0.88876 0.0
C1076 C 0.63865 0.85878 0.88594 0.0
C1077 C 0.65971 0.84434 0.87254 0.0
C1078 C 0.67196 0.94328 0.88101 0.0
C1079 C 0.61234 0.83946 0.89676 0.0
C1080 C 0.5993 0.92644 0.94455 0.0
C1081 C 0.57951 0.9397 0.92771 0.0
C1082 C 0.61978 0.9103 0.93219 0.0
C1083 C 0.62017 0.90706 0.90239 0.0
C1084 C 0.59994 0.91994 0.88537 0.0
C1085 C 0.57996 0.93629 0.89822 0.0
C1086 C 0.64125 0.89717 0.95093 0.0
C1087 C 0.59954 0.91664 0.85355 0.0
H1088 H 0.70668 0.90712 0.85643 0.0
H1089 H 0.65694 0.81956 0.87017 0.0
H1090 H 0.65577 0.9552 0.86971 0.0
H1091 H 0.67028 0.94825 0.90384 0.0
H1092 H 0.69268 0.95334 0.8722 0.0
H1093 H 0.6128 0.8145 0.89305 0.0
H1094 H 0.6091 0.84175 0.91997 0.0
H1095 H 0.59419 0.84804 0.88596 0.0
H1096 H 0.59905 0.92904 0.96736 0.0
H1097 H 0.56456 0.94625 0.88512 0.0
H1098 H 0.6623 0.90795 0.94395 0.0
H1099 H 0.64099 0.87185 0.9488 0.0
H1100 H 0.63773 0.9012 0.97381 0.0
H1101 H 0.61902 0.92831 0.84318 0.0
H1102 H 0.58166 0.92683 0.84359 0.0
H1103 H 0.5985 0.89178 0.84909 0.0
C1104 C 0.80019 0.10078 0.38664 0.0
C1105 C 0.79914 0.10371 0.35675 0.0
C1106 C 0.82432 0.09318 0.40015 0.0
C1107 C 0.84799 0.08812 0.3834 0.0
C1108 C 0.84704 0.09069 0.35323 0.0
C1109 C 0.82261 0.09849 0.34025 0.0
C1110 C 0.82447 0.09054 0.43238 0.0
C1111 C 0.87186 0.08535 0.33469 0.0
C1112 C 0.91743 0.09522 0.41964 0.0
C1113 C 0.92066 0.06409 0.42752 0.0
C1114 C 0.89409 0.10337 0.40483 0.0
C1115 C 0.87359 0.07981 0.39763 0.0
C1116 C 0.87697 0.04833 0.40508 0.0
C1117 C 0.90041 0.04086 0.41998 0.0
C1118 C 0.89112 0.13721 0.39733 0.0
C1119 C 0.85562 0.02254 0.3977 0.0
H1120 H 0.78199 0.10423 0.39955 0.0
H1121 H 0.82205 0.10101 0.31716 0.0
H1122 H 0.82868 0.0668 0.44005 0.0
H1123 H 0.84135 0.1069 0.43995 0.0
H1124 H 0.80444 0.09559 0.44228 0.0
H1125 H 0.86768 0.08798 0.31156 0.0
H1126 H 0.88985 0.10203 0.33918 0.0
H1127 H 0.87797 0.06169 0.33975 0.0
H1128 H 0.93297 0.11331 0.42533 0.0
H1129 H 0.90278 0.01672 0.42583 0.0
H1130 H 0.87225 0.14393 0.40829 0.0
H1131 H 0.88846 0.1412 0.37403 0.0
H1132 H 0.90937 0.15263 0.40353 0.0
H1133 H 0.83544 0.02501 0.40865 0.0
H1134 H 0.86191 0.99919 0.40397 0.0
H1135 H 0.85221 0.02405 0.3744 0.0
C1136 C 0.19433 0.57598 0.13543 0.0
C1137 C 0.19937 0.60812 0.13756 0.0
C1138 C 0.16951 0.56288 0.12432 0.0
C1139 C 0.14916 0.58235 0.11518 0.0
C1140 C 0.15383 0.61472 0.11792 0.0
C1141 C 0.17886 0.62719 0.12905 0.0
C1142 C 0.16533 0.52825 0.12175 0.0
C1143 C 0.13258 0.63622 0.10868 0.0
C1144 C 0.09884 0.55067 0.06073 0.0
C1145 C 0.07573 0.53877 0.07817 0.0
C1146 C 0.12262 0.56558 0.07241 0.0
C1147 C 0.12328 0.56882 0.10222 0.0
C1148 C 0.09959 0.55801 0.11975 0.0
C1149 C 0.07614 0.54308 0.10754 0.0
C1150 C 0.14742 0.5769 0.05296 0.0
C1151 C 0.09932 0.56127 0.15158 0.0
H1152 H 0.21018 0.56113 0.14164 0.0
H1153 H 0.18243 0.652 0.13101 0.0
H1154 H 0.14578 0.51832 0.1332 0.0
H1155 H 0.16332 0.52329 0.09897 0.0
H1156 H 0.18279 0.51624 0.13054 0.0
H1157 H 0.13896 0.66069 0.11311 0.0
H1158 H 0.12936 0.63515 0.08545 0.0
H1159 H 0.11229 0.62874 0.11983 0.0
H1160 H 0.09874 0.54744 0.03804 0.0
H1161 H 0.05834 0.53413 0.12119 0.0
H1162 H 0.16526 0.56383 0.05878 0.0
H1163 H 0.15381 0.60177 0.05566 0.0
H1164 H 0.14311 0.57404 0.03011 0.0
H1165 H 0.11482 0.5471 0.1615 0.0
H1166 H 0.07862 0.55368 0.1619 0.0
H1167 H 0.10532 0.58574 0.15613 0.0
C1168 C 0.30743 0.4306 0.65314 0.0
C1169 C 0.30016 0.39862 0.65837 0.0
C1170 C 0.33274 0.44207 0.63914 0.0
C1171 C 0.35138 0.42105 0.63038 0.0
C1172 C 0.34442 0.38875 0.63614 0.0
C1173 C 0.31883 0.37791 0.64994 0.0
C1174 C 0.33926 0.47668 0.63318 0.0
C1175 C 0.36387 0.36563 0.62745 0.0
C1176 C 0.40255 0.45115 0.56967 0.0
C1177 C 0.42624 0.46108 0.5845 0.0
C1178 C 0.37829 0.43733 0.5843 0.0
C1179 C 0.37776 0.433 0.61448 0.0
C1180 C 0.40202 0.44167 0.62946 0.0
C1181 C 0.42591 0.45574 0.61431 0.0
C1182 C 0.35284 0.42855 0.56753 0.0
C1183 C 0.40243 0.43704 0.66159 0.0
H1184 H 0.29294 0.44668 0.6593 0.0
H1185 H 0.31343 0.35317 0.65421 0.0
H1186 H 0.35925 0.48458 0.6427 0.0
H1187 H 0.34166 0.48237 0.60981 0.0
H1188 H 0.3228 0.48992 0.64183 0.0
H1189 H 0.35588 0.34138 0.63451 0.0
H1190 H 0.36697 0.36732 0.60389 0.0
H1191 H 0.38453 0.37101 0.63665 0.0
H1192 H 0.40255 0.45525 0.54666 0.0
H1193 H 0.44417 0.46319 0.62593 0.0
H1194 H 0.33607 0.44291 0.57331 0.0
H1195 H 0.34494 0.40394 0.57296 0.0
H1196 H 0.35707 0.43189 0.5441 0.0
H1197 H 0.38815 0.45217 0.67136 0.0
H1198 H 0.42353 0.44258 0.6698 0.0
H1199 H 0.39492 0.41271 0.66871 0.0
C1200 C 0.86755 0.67895 0.86531 0.0
C1201 C 0.88104 0.70753 0.85455 0.0
C1202 C 0.88154 0.65825 0.88237 0.0
C1203 C 0.90953 0.66663 0.88911 0.0
C1204 C 0.92323 0.69551 0.87833 0.0
C1205 C 0.90884 0.71557 0.861 0.0
C1206 C 0.86638 0.62745 0.89323 0.0
C1207 C 0.95291 0.70537 0.88542 0.0
C1208 C 0.93339 0.62401 0.95546 0.0
C1209 C 0.94743 0.60085 0.94371 0.0
C1210 C 0.9219 0.6464 0.93787 0.0
C1211 C 0.92421 0.64527 0.90786 0.0
C1212 C 0.93926 0.62266 0.89586 0.0
C1213 C 0.95089 0.60082 0.91397 0.0
C1214 C 0.90641 0.67054 0.95141 0.0
C1215 C 0.94193 0.62062 0.86394 0.0
H1216 H 0.84612 0.67268 0.8601 0.0
H1217 H 0.91915 0.73787 0.85291 0.0
H1218 H 0.87794 0.60819 0.88644 0.0
H1219 H 0.86525 0.62575 0.91691 0.0
H1220 H 0.84492 0.62413 0.88534 0.0
H1221 H 0.96062 0.72849 0.87508 0.0
H1222 H 0.95461 0.70626 0.90887 0.0
H1223 H 0.96668 0.6881 0.8785 0.0
H1224 H 0.93083 0.62423 0.97845 0.0
H1225 H 0.96162 0.58286 0.90478 0.0
H1226 H 0.88401 0.66668 0.9468 0.0
H1227 H 0.91415 0.6941 0.94219 0.0
H1228 H 0.90851 0.66985 0.97494 0.0
H1229 H 0.92111 0.6145 0.85534 0.0
H1230 H 0.95576 0.60294 0.85801 0.0
H1231 H 0.9502 0.64342 0.85342 0.0
C1232 C 0.4064 0.81419 0.12902 0.0
C1233 C 0.41302 0.78476 0.12253 0.0
C1234 C 0.41894 0.84095 0.11358 0.0
C1235 C 0.4381 0.83798 0.0908 0.0
C1236 C 0.4448 0.80814 0.08422 0.0
C1237 C 0.4323 0.78182 0.1004 0.0
C1238 C 0.41158 0.87235 0.12151 0.0
C1239 C 0.46472 0.804 0.05979 0.0
C1240 C 0.44747 0.90479 0.03392 0.0
C1241 C 0.47297 0.92019 0.04092 0.0
C1242 C 0.43621 0.87763 0.04961 0.0
C1243 C 0.45045 0.86606 0.07332 0.0
C1244 C 0.4762 0.88159 0.08054 0.0
C1245 C 0.48735 0.9083 0.06399 0.0
C1246 C 0.40904 0.86134 0.04082 0.0
C1247 C 0.4917 0.87032 0.10603 0.0
H1248 H 0.39147 0.8162 0.14628 0.0
H1249 H 0.43722 0.75887 0.09548 0.0
H1250 H 0.43073 0.88739 0.12579 0.0
H1251 H 0.40142 0.88394 0.10345 0.0
H1252 H 0.39737 0.87072 0.14066 0.0
H1253 H 0.46784 0.77924 0.05761 0.0
H1254 H 0.45674 0.81359 0.03949 0.0
H1255 H 0.48518 0.81705 0.06294 0.0
H1256 H 0.43647 0.91378 0.01589 0.0
H1257 H 0.50699 0.92031 0.06951 0.0
H1258 H 0.39305 0.86125 0.05821 0.0
H1259 H 0.41161 0.83678 0.03713 0.0
H1260 H 0.40126 0.87257 0.02109 0.0
H1261 H 0.47845 0.87014 0.12571 0.0
H1262 H 0.51142 0.88508 0.10881 0.0
H1263 H 0.49653 0.84615 0.10371 0.0
C1264 C 0.09758 0.21196 0.59784 0.0
C1265 C 0.10056 0.21031 0.6275 0.0
C1266 C 0.08651 0.1861 0.58393 0.0
C1267 C 0.07852 0.15773 0.60004 0.0
C1268 C 0.08007 0.15642 0.6302 0.0
C1269 C 0.09095 0.18283 0.64361 0.0
C1270 C 0.08487 0.18868 0.55181 0.0
C1271 C 0.07197 0.1266 0.64814 0.0
C1272 C 0.03876 0.09214 0.56297 0.0
C1273 C 0.06045 0.07538 0.55414 0.0
C1274 C 0.04418 0.11887 0.57821 0.0
C1275 C 0.07186 0.1288 0.58501 0.0
C1276 C 0.0937 0.11163 0.57652 0.0
C1277 C 0.08776 0.08532 0.56111 0.0
C1278 C 0.02038 0.13673 0.58666 0.0
C1279 C 0.1235 0.1212 0.58351 0.0
H1280 H 0.10472 0.23332 0.58539 0.0
H1281 H 0.09337 0.18146 0.66653 0.0
H1282 H 0.10063 0.17516 0.54229 0.0
H1283 H 0.06418 0.17877 0.54524 0.0
H1284 H 0.08866 0.21311 0.54284 0.0
H1285 H 0.07119 0.13029 0.67132 0.0
H1286 H 0.05139 0.11584 0.64209 0.0
H1287 H 0.08732 0.10986 0.64422 0.0
H1288 H 0.0176 0.08461 0.55768 0.0
H1289 H 0.10465 0.07241 0.55461 0.0
H1290 H 0.02341 0.16056 0.57624 0.0
H1291 H 0.0199 0.13898 0.61006 0.0
H1292 H 0.99997 0.12545 0.58058 0.0
H1293 H 0.13032 0.14449 0.57308 0.0
H1294 H 0.13792 0.10464 0.57636 0.0
H1295 H 0.12528 0.12288 0.60687 0.0
C1296 C 0.62722 0.29998 0.39096 0.0
C1297 C 0.61349 0.2708 0.38658 0.0
C1298 C 0.61344 0.32237 0.40425 0.0
C1299 C 0.58537 0.31522 0.41373 0.0
C1300 C 0.57131 0.28586 0.40915 0.0
C1301 C 0.58552 0.26403 0.3954 0.0
C1302 C 0.62903 0.35359 0.40835 0.0
C1303 C 0.54151 0.27729 0.4193 0.0
C1304 C 0.56334 0.36412 0.47268 0.0
C1305 C 0.54993 0.38678 0.45737 0.0
C1306 C 0.5738 0.33978 0.45893 0.0
C1307 C 0.57114 0.33836 0.42908 0.0
C1308 C 0.55669 0.36049 0.41369 0.0
C1309 C 0.54607 0.38434 0.42808 0.0
C1310 C 0.58867 0.3163 0.47616 0.0
C1311 C 0.55368 0.35992 0.3818 0.0
H1312 H 0.64876 0.30533 0.38382 0.0
H1313 H 0.57498 0.24136 0.39216 0.0
H1314 H 0.61765 0.3724 0.39865 0.0
H1315 H 0.63041 0.35715 0.43147 0.0
H1316 H 0.65041 0.35588 0.39871 0.0
H1317 H 0.53336 0.25381 0.41341 0.0
H1318 H 0.53983 0.27792 0.44286 0.0
H1319 H 0.52811 0.29444 0.41008 0.0
H1320 H 0.56618 0.36574 0.49537 0.0
H1321 H 0.53579 0.40184 0.4161 0.0
H1322 H 0.61108 0.31906 0.4698 0.0
H1323 H 0.58035 0.29239 0.4718 0.0
H1324 H 0.58666 0.31892 0.49948 0.0
H1325 H 0.57445 0.3649 0.37093 0.0
H1326 H 0.54004 0.37727 0.37336 0.0
H1327 H 0.54504 0.33656 0.37617 0.0
loop_
_geom_bond_atom_site_label_1
_geom_bond_atom_site_label_2
_geom_bond_distance
_geom_bond_site_symmetry_2
_ccdc_geom_bond_type
C0 C1 1.391 . S
C0 C4 1.391 . S
C0 H42 0.948 . S
C1 C0 1.391 . S
C1 C2 1.391 . S
C2 C1 1.391 . S
C2 H58 0.947 . S
C2 C59 1.392 . S
C3 C4 1.391 . S
C3 C7 1.397 . S
C3 C59 1.419 . S
C4 C0 1.391 . S
C4 C3 1.391 . S
C4 C5 1.399 . S
C5 C4 1.399 . S
C5 C8 1.396 . S
C5 C17 1.453 . S
C5 C18 1.684 . S
H6 C30 0.948 . S
C7 C3 1.397 . S
C7 C8 1.394 . S
C7 C26 1.723 . S
C8 C5 1.396 . S
C8 C7 1.394 . S
C8 C38 1.723 . S
H9 C32 0.947 . S
H10 C33 0.948 . S
H11 C39 0.982 . S
H12 C40 0.979 . S
H13 C40 0.980 . S
H14 C40 0.983 . S
H15 C39 0.979 . S
H16 C39 0.977 . S
C17 C5 1.453 . S
C17 H46 0.982 . S
C17 H47 0.979 . S
C17 H48 0.977 . S
C18 C5 1.684 . S
C18 H43 0.979 . S
C18 H44 0.980 . S
C18 H45 0.983 . S
C19 C20 1.391 . S
C19 C24 1.391 . S
C19 H49 0.948 . S
C20 C19 1.391 . S
C20 C21 1.391 . S
C21 C20 1.391 . S
C21 C22 1.392 . S
C21 H50 0.947 . S
C22 C21 1.392 . S
C22 C23 1.419 . S
C22 H51 0.948 . S
C23 C22 1.419 . S
C23 C24 1.391 . S
C23 C27 1.397 . S
C24 C19 1.391 . S
C24 C23 1.391 . S
C24 C25 1.399 . S
C25 C24 1.399 . S
C25 C26 1.396 . S
C25 C28 1.453 . S
C25 C29 1.684 . S
C26 C7 1.723 . S
C26 C25 1.396 . S
C26 C27 1.394 . S
C27 C23 1.397 . S
C27 C26 1.394 . S
C27 C37 1.723 . S
C28 C25 1.453 . S
C28 H52 0.982 . S
C28 H53 0.979 . S
C28 H54 0.977 . S
C29 C25 1.684 . S
C29 H55 0.979 . S
C29 H56 0.980 . S
C29 H57 0.983 . S
C30 H6 0.948 . S
C30 C31 1.391 . S
C30 C35 1.391 . S
C31 C30 1.391 . S
C31 C32 1.391 . S
C32 H9 0.947 . S
C32 C31 1.391 . S
C32 C33 1.392 . S
C33 H10 0.948 . S
C33 C32 1.392 . S
C33 C34 1.419 . S
C34 C33 1.419 . S
C34 C35 1.391 . S
C34 C38 1.397 . S
C35 C30 1.391 . S
C35 C34 1.391 . S
C35 C36 1.399 . S
C36 C35 1.399 . S
C36 C37 1.396 . S
C36 C39 1.453 . S
C36 C40 1.684 . S
C37 C27 1.723 . S
C37 C36 1.396 . S
C37 C38 1.394 . S
C38 C8 1.723 . S
C38 C34 1.397 . S
C38 C37 1.394 . S
C39 H11 0.982 . S
C39 H15 0.979 . S
C39 H16 0.977 . S
C39 C36 1.453 . S
C40 H12 0.979 . S
C40 H13 0.980 . S
C40 H14 0.983 . S
C40 C36 1.684 . S
H41 C59 0.948 . S
H42 C0 0.948 . S
H43 C18 0.979 . S
H44 C18 0.980 . S
H45 C18 0.983 . S
H46 C17 0.982 . S
H47 C17 0.979 . S
H48 C17 0.977 . S
H49 C19 0.948 . S
H50 C21 0.947 . S
H51 C22 0.948 . S
H52 C28 0.982 . S
H53 C28 0.979 . S
H54 C28 0.977 . S
H55 C29 0.979 . S
H56 C29 0.980 . S
H57 C29 0.983 . S
H58 C2 0.947 . S
C59 C2 1.392 . S
C59 C3 1.419 . S
C59 H41 0.948 . S
C60 C61 1.391 . S
C60 C64 1.391 . S
C60 H102 0.948 . S
C61 C60 1.391 . S
C61 C62 1.391 . S
C62 C61 1.391 . S
C62 H118 0.947 . S
C62 C119 1.392 . S
C63 C64 1.391 . S
C63 C67 1.397 . S
C63 C119 1.419 . S
C64 C60 1.391 . S
C64 C63 1.391 . S
C64 C65 1.399 . S
C65 C64 1.399 . S
C65 C68 1.396 . S
C65 C77 1.453 . S
C65 C78 1.684 . S
H66 C90 0.948 . S
C67 C63 1.397 . S
C67 C68 1.394 . S
C67 C86 1.723 . S
C68 C65 1.396 . S
C68 C67 1.394 . S
C68 C98 1.723 . S
H69 C92 0.947 . S
H70 C93 0.948 . S
H71 C99 0.982 . S
H72 C100 0.979 . S
H73 C100 0.980 . S
H74 C100 0.983 . S
H75 C99 0.979 . S
H76 C99 0.977 . S
C77 C65 1.453 . S
C77 H106 0.982 . S
C77 H107 0.979 . S
C77 H108 0.977 . S
C78 C65 1.684 . S
C78 H103 0.979 . S
C78 H104 0.980 . S
C78 H105 0.983 . S
C79 C80 1.391 . S
C79 C84 1.391 . S
C79 H109 0.948 . S
C80 C79 1.391 . S
C80 C81 1.391 . S
C81 C80 1.391 . S
C81 C82 1.392 . S
C81 H110 0.947 . S
C82 C81 1.392 . S
C82 C83 1.419 . S
C82 H111 0.948 . S
C83 C82 1.419 . S
C83 C84 1.391 . S
C83 C87 1.397 . S
C84 C79 1.391 . S
C84 C83 1.391 . S
C84 C85 1.399 . S
C85 C84 1.399 . S
C85 C86 1.396 . S
C85 C88 1.453 . S
C85 C89 1.684 . S
C86 C67 1.723 . S
C86 C85 1.396 . S
C86 C87 1.394 . S
C87 C83 1.397 . S
C87 C86 1.394 . S
C87 C97 1.723 . S
C88 C85 1.453 . S
C88 H112 0.982 . S
C88 H113 0.979 . S
C88 H114 0.977 . S
C89 C85 1.684 . S
C89 H115 0.979 . S
C89 H116 0.980 . S
C89 H117 0.983 . S
C90 H66 0.948 . S
C90 C91 1.391 . S
C90 C95 1.391 . S
C91 C90 1.391 . S
C91 C92 1.391 . S
C92 H69 0.947 . S
C92 C91 1.391 . S
C92 C93 1.392 . S
C93 H70 0.948 . S
C93 C92 1.392 . S
C93 C94 1.419 . S
C94 C93 1.419 . S
C94 C95 1.391 . S
C94 C98 1.397 . S
C95 C90 1.391 . S
C95 C94 1.391 . S
C95 C96 1.399 . S
C96 C95 1.399 . S
C96 C97 1.396 . S
C96 C99 1.453 . S
C96 C100 1.684 . S
C97 C87 1.723 . S
C97 C96 1.396 . S
C97 C98 1.394 . S
C98 C68 1.723 . S
C98 C94 1.397 . S
C98 C97 1.394 . S
C99 H71 0.982 . S
C99 H75 0.979 . S
C99 H76 0.977 . S
C99 C96 1.453 . S
C100 H72 0.979 . S
C100 H73 0.980 . S
C100 H74 0.983 . S
C100 C96 1.684 . S
H101 C119 0.948 . S
H102 C60 0.948 . S
H103 C78 0.979 . S
H104 C78 0.980 . S
H105 C78 0.983 . S
H106 C77 0.982 . S
H107 C77 0.979 . S
H108 C77 0.977 . S
H109 C79 0.948 . S
H110 C81 0.947 . S
H111 C82 0.948 . S
H112 C88 0.982 . S
H113 C88 0.979 . S
H114 C88 0.977 . S
H115 C89 0.979 . S
H116 C89 0.980 . S
H117 C89 0.983 . S
H118 C62 0.947 . S
C119 C62 1.392 . S
C119 C63 1.419 . S
C119 H101 0.948 . S
C120 C121 1.391 . S
C120 C124 1.391 . S
C120 H162 0.948 . S
C121 C120 1.391 . S
C121 C122 1.391 . S
C122 C121 1.391 . S
C122 H178 0.947 . S
C122 C179 1.392 . S
C123 C124 1.391 . S
C123 C127 1.397 . S
C123 C179 1.419 . S
C124 C120 1.391 . S
C124 C123 1.391 . S
C124 C125 1.399 . S
C125 C124 1.399 . S
C125 C128 1.396 . S
C125 C137 1.453 . S
C125 C138 1.684 . S
H126 C150 0.948 . S
C127 C123 1.397 . S
C127 C128 1.394 . S
C127 C146 1.723 . S
C128 C125 1.396 . S
C128 C127 1.394 . S
C128 C158 1.723 . S
H129 C152 0.947 . S
H130 C153 0.948 . S
H131 C159 0.982 . S
H132 C160 0.979 . S
H133 C160 0.980 . S
H134 C160 0.983 . S
H135 C159 0.979 . S
H136 C159 0.977 . S
C137 C125 1.453 . S
C137 H166 0.982 . S
C137 H167 0.979 . S
C137 H168 0.977 . S
C138 C125 1.684 . S
C138 H163 0.979 . S
C138 H164 0.980 . S
C138 H165 0.983 . S
C139 C140 1.391 . S
C139 C144 1.391 . S
C139 H169 0.948 . S
C140 C139 1.391 . S
C140 C141 1.391 . S
C141 C140 1.391 . S
C141 C142 1.392 . S
C141 H170 0.947 . S
C142 C141 1.392 . S
C142 C143 1.419 . S
C142 H171 0.948 . S
C143 C142 1.419 . S
C143 C144 1.391 . S
C143 C147 1.397 . S
C144 C139 1.391 . S
C144 C143 1.391 . S
C144 C145 1.399 . S
C145 C144 1.399 . S
C145 C146 1.396 . S
C145 C148 1.453 . S
C145 C149 1.684 . S
C146 C127 1.723 . S
C146 C145 1.396 . S
C146 C147 1.394 . S
C147 C143 1.397 . S
C147 C146 1.394 . S
C147 C157 1.723 . S
C148 C145 1.453 . S
C148 H172 0.982 . S
C148 H173 0.979 . S
C148 H174 0.977 . S
C149 C145 1.684 . S
C149 H175 0.979 . S
C149 H176 0.980 . S
C149 H177 0.983 . S
C150 H126 0.948 . S
C150 C151 1.391 . S
C150 C155 1.391 . S
C151 C150 1.391 . S
C151 C152 1.391 . S
C152 H129 0.947 . S
C152 C151 1.391 . S
C152 C153 1.392 . S
C153 H130 0.948 . S
C153 C152 1.392 . S
C153 C154 1.419 . S
C154 C153 1.419 . S
C154 C155 1.391 . S
C154 C158 1.397 . S
C155 C150 1.391 . S
C155 C154 1.391 . S
C155 C156 1.399 . S
C156 C155 1.399 . S
C156 C157 1.396 . S
C156 C159 1.453 . S
C156 C160 1.684 . S
C157 C147 1.723 . S
C157 C156 1.396 . S
C157 C158 1.394 . S
C158 C128 1.723 . S
C158 C154 1.397 . S
C158 C157 1.394 . S
C159 H131 0.982 . S
C159 H135 0.979 . S
C159 H136 0.977 . S
C159 C156 1.453 . S
C160 H132 0.979 . S
C160 H133 0.980 . S
C160 H134 0.983 . S
C160 C156 1.684 . S
H161 C179 0.948 . S
H162 C120 0.948 . S
H163 C138 0.979 . S
H164 C138 0.980 . S
H165 C138 0.983 . S
H166 C137 0.982 . S
H167 C137 0.979 . S
H168 C137 0.977 . S
H169 C139 0.948 . S
H170 C141 0.947 . S
H171 C142 0.948 . S
H172 C148 0.982 . S
H173 C148 0.979 . S
H174 C148 0.977 . S
H175 C149 0.979 . S
H176 C149 0.980 . S
H177 C149 0.983 . S
H178 C122 0.947 . S
C179 C122 1.392 . S
C179 C123 1.419 . S
C179 H161 0.948 . S
C180 C181 1.391 . S
C180 C184 1.391 . S
C180 H222 0.948 . S
C181 C180 1.391 . S
C181 C182 1.391 . S
C182 C181 1.391 . S
C182 H238 0.947 . S
C182 C239 1.392 . S
C183 C184 1.391 . S
C183 C187 1.397 . S
C183 C239 1.419 . S
C184 C180 1.391 . S
C184 C183 1.391 . S
C184 C185 1.399 . S
C185 C184 1.399 . S
C185 C188 1.396 . S
C185 C197 1.453 . S
C185 C198 1.684 . S
H186 C210 0.948 . S
C187 C183 1.397 . S
C187 C188 1.394 . S
C187 C206 1.723 . S
C188 C185 1.396 . S
C188 C187 1.394 . S
C188 C218 1.723 . S
H189 C212 0.947 . S
H190 C213 0.948 . S
H191 C219 0.982 . S
H192 C220 0.979 . S
H193 C220 0.980 . S
H194 C220 0.983 . S
H195 C219 0.979 . S
H196 C219 0.977 . S
C197 C185 1.453 . S
C197 H226 0.982 . S
C197 H227 0.979 . S
C197 H228 0.977 . S
C198 C185 1.684 . S
C198 H223 0.979 . S
C198 H224 0.980 . S
C198 H225 0.983 . S
C199 C200 1.391 . S
C199 C204 1.391 . S
C199 H229 0.948 . S
C200 C199 1.391 . S
C200 C201 1.391 . S
C201 C200 1.391 . S
C201 C202 1.392 . S
C201 H230 0.947 . S
C202 C201 1.392 . S
C202 C203 1.419 . S
C202 H231 0.948 . S
C203 C202 1.419 . S
C203 C204 1.391 . S
C203 C207 1.397 . S
C204 C199 1.391 . S
C204 C203 1.391 . S
C204 C205 1.399 . S
C205 C204 1.399 . S
C205 C206 1.396 . S
C205 C208 1.453 . S
C205 C209 1.684 . S
C206 C187 1.723 . S
C206 C205 1.396 . S
C206 C207 1.394 . S
C207 C203 1.397 . S
C207 C206 1.394 . S
C207 C217 1.723 . S
C208 C205 1.453 . S
C208 H232 0.982 . S
C208 H233 0.979 . S
C208 H234 0.977 . S
C209 C205 1.684 . S
C209 H235 0.979 . S
C209 H236 0.980 . S
C209 H237 0.983 . S
C210 H186 0.948 . S
C210 C211 1.391 . S
C210 C215 1.391 . S
C211 C210 1.391 . S
C211 C212 1.391 . S
C212 H189 0.947 . S
C212 C211 1.391 . S
C212 C213 1.392 . S
C213 H190 0.948 . S
C213 C212 1.392 . S
C213 C214 1.419 . S
C214 C213 1.419 . S
C214 C215 1.391 . S
C214 C218 1.397 . S
C215 C210 1.391 . S
C215 C214 1.391 . S
C215 C216 1.399 . S
C216 C215 1.399 . S
C216 C217 1.396 . S
C216 C219 1.453 . S
C216 C220 1.684 . S
C217 C207 1.723 . S
C217 C216 1.396 . S
C217 C218 1.394 . S
C218 C188 1.723 . S
C218 C214 1.397 . S
C218 C217 1.394 . S
C219 H191 0.982 . S
C219 H195 0.979 . S
C219 H196 0.977 . S
C219 C216 1.453 . S
C220 H192 0.979 . S
C220 H193 0.980 . S
C220 H194 0.983 . S
C220 C216 1.684 . S
H221 C239 0.948 . S
H222 C180 0.948 . S
H223 C198 0.979 . S
H224 C198 0.980 . S
H225 C198 0.983 . S
H226 C197 0.982 . S
H227 C197 0.979 . S
H228 C197 0.977 . S
H229 C199 0.948 . S
H230 C201 0.947 . S
H231 C202 0.948 . S
H232 C208 0.982 . S
H233 C208 0.979 . S
H234 C208 0.977 . S
H235 C209 0.979 . S
H236 C209 0.980 . S
H237 C209 0.983 . S
H238 C182 0.947 . S
C239 C182 1.392 . S
C239 C183 1.419 . S
C239 H221 0.948 . S
C240 C241 1.391 . S
C240 C244 1.391 . S
C240 H282 0.948 . S
C241 C240 1.391 . S
C241 C242 1.391 . S
C242 C241 1.391 . S
C242 H298 0.947 . S
C242 C299 1.392 . S
C243 C244 1.391 . S
C243 C247 1.397 . S
C243 C299 1.419 . S
C244 C240 1.391 . S
C244 C243 1.391 . S
C244 C245 1.399 . S
C245 C244 1.399 . S
C245 C248 1.396 . S
C245 C257 1.453 . S
C245 C258 1.684 . S
H246 C270 0.948 . S
C247 C243 1.397 . S
C247 C248 1.394 . S
C247 C266 1.723 . S
C248 C245 1.396 . S
C248 C247 1.394 . S
C248 C278 1.723 . S
H249 C272 0.947 . S
H250 C273 0.948 . S
H251 C279 0.982 . S
H252 C280 0.979 . S
H253 C280 0.980 . S
H254 C280 0.983 . S
H255 C279 0.979 . S
H256 C279 0.977 . S
C257 C245 1.453 . S
C257 H286 0.982 . S
C257 H287 0.979 . S
C257 H288 0.977 . S
C258 C245 1.684 . S
C258 H283 0.979 . S
C258 H284 0.980 . S
C258 H285 0.983 . S
C259 C260 1.391 . S
C259 C264 1.391 . S
C259 H289 0.948 . S
C260 C259 1.391 . S
C260 C261 1.391 . S
C261 C260 1.391 . S
C261 C262 1.392 . S
C261 H290 0.947 . S
C262 C261 1.392 . S
C262 C263 1.419 . S
C262 H291 0.948 . S
C263 C262 1.419 . S
C263 C264 1.391 . S
C263 C267 1.397 . S
C264 C259 1.391 . S
C264 C263 1.391 . S
C264 C265 1.399 . S
C265 C264 1.399 . S
C265 C266 1.396 . S
C265 C268 1.453 . S
C265 C269 1.684 . S
C266 C247 1.723 . S
C266 C265 1.396 . S
C266 C267 1.394 . S
C267 C263 1.397 . S
C267 C266 1.394 . S
C267 C277 1.723 . S
C268 C265 1.453 . S
C268 H292 0.982 . S
C268 H293 0.979 . S
C268 H294 0.977 . S
C269 C265 1.684 . S
C269 H295 0.979 . S
C269 H296 0.980 . S
C269 H297 0.983 . S
C270 H246 0.948 . S
C270 C271 1.391 . S
C270 C275 1.391 . S
C271 C270 1.391 . S
C271 C272 1.391 . S
C272 H249 0.947 . S
C272 C271 1.391 . S
C272 C273 1.392 . S
C273 H250 0.948 . S
C273 C272 1.392 . S
C273 C274 1.419 . S
C274 C273 1.419 . S
C274 C275 1.391 . S
C274 C278 1.397 . S
C275 C270 1.391 . S
C275 C274 1.391 . S
C275 C276 1.399 . S
C276 C275 1.399 . S
C276 C277 1.396 . S
C276 C279 1.453 . S
C276 C280 1.684 . S
C277 C267 1.723 . S
C277 C276 1.396 . S
C277 C278 1.394 . S
C278 C248 1.723 . S
C278 C274 1.397 . S
C278 C277 1.394 . S
C279 H251 0.982 . S
C279 H255 0.979 . S
C279 H256 0.977 . S
C279 C276 1.453 . S
C280 H252 0.979 . S
C280 H253 0.980 . S
C280 H254 0.983 . S
C280 C276 1.684 . S
H281 C299 0.948 . S
H282 C240 0.948 . S
H283 C258 0.979 . S
H284 C258 0.980 . S
H285 C258 0.983 . S
H286 C257 0.982 . S
H287 C257 0.979 . S
H288 C257 0.977 . S
H289 C259 0.948 . S
H290 C261 0.947 . S
H291 C262 0.948 . S
H292 C268 0.982 . S
H293 C268 0.979 . S
H294 C268 0.977 . S
H295 C269 0.979 . S
H296 C269 0.980 . S
H297 C269 0.983 . S
H298 C242 0.947 . S
C299 C242 1.392 . S
C299 C243 1.419 . S
C299 H281 0.948 . S
C300 C301 1.391 . S
C300 C304 1.391 . S
C300 H342 0.948 . S
C301 C300 1.391 . S
C301 C302 1.391 . S
C302 C301 1.391 . S
C302 H358 0.947 . S
C302 C359 1.392 . S
C303 C304 1.391 . S
C303 C307 1.397 . S
C303 C359 1.419 . S
C304 C300 1.391 . S
C304 C303 1.391 . S
C304 C305 1.399 . S
C305 C304 1.399 . S
C305 C308 1.396 . S
C305 C317 1.453 . S
C305 C318 1.684 . S
H306 C330 0.948 . S
C307 C303 1.397 . S
C307 C308 1.394 . S
C307 C326 1.723 . S
C308 C305 1.396 . S
C308 C307 1.394 . S
C308 C338 1.723 . S
H309 C332 0.947 . S
H310 C333 0.948 . S
H311 C339 0.982 . S
H312 C340 0.979 . S
H313 C340 0.980 . S
H314 C340 0.983 . S
H315 C339 0.979 . S
H316 C339 0.977 . S
C317 C305 1.453 . S
C317 H346 0.982 . S
C317 H347 0.979 . S
C317 H348 0.977 . S
C318 C305 1.684 . S
C318 H343 0.979 . S
C318 H344 0.980 . S
C318 H345 0.983 . S
C319 C320 1.391 . S
C319 C324 1.391 . S
C319 H349 0.948 . S
C320 C319 1.391 . S
C320 C321 1.391 . S
C321 C320 1.391 . S
C321 C322 1.392 . S
C321 H350 0.947 . S
C322 C321 1.392 . S
C322 C323 1.419 . S
C322 H351 0.948 . S
C323 C322 1.419 . S
C323 C324 1.391 . S
C323 C327 1.397 . S
C324 C319 1.391 . S
C324 C323 1.391 . S
C324 C325 1.399 . S
C325 C324 1.399 . S
C325 C326 1.396 . S
C325 C328 1.453 . S
C325 C329 1.684 . S
C326 C307 1.723 . S
C326 C325 1.396 . S
C326 C327 1.394 . S
C327 C323 1.397 . S
C327 C326 1.394 . S
C327 C337 1.723 . S
C328 C325 1.453 . S
C328 H352 0.982 . S
C328 H353 0.979 . S
C328 H354 0.977 . S
C329 C325 1.684 . S
C329 H355 0.979 . S
C329 H356 0.980 . S
C329 H357 0.983 . S
C330 H306 0.948 . S
C330 C331 1.391 . S
C330 C335 1.391 . S
C331 C330 1.391 . S
C331 C332 1.391 . S
C332 H309 0.947 . S
C332 C331 1.391 . S
C332 C333 1.392 . S
C333 H310 0.948 . S
C333 C332 1.392 . S
C333 C334 1.419 . S
C334 C333 1.419 . S
C334 C335 1.391 . S
C334 C338 1.397 . S
C335 C330 1.391 . S
C335 C334 1.391 . S
C335 C336 1.399 . S
C336 C335 1.399 . S
C336 C337 1.396 . S
C336 C339 1.453 . S
C336 C340 1.684 . S
C337 C327 1.723 . S
C337 C336 1.396 . S
C337 C338 1.394 . S
C338 C308 1.723 . S
C338 C334 1.397 . S
C338 C337 1.394 . S
C339 H311 0.982 . S
C339 H315 0.979 . S
C339 H316 0.977 . S
C339 C336 1.453 . S
C340 H312 0.979 . S
C340 H313 0.980 . S
C340 H314 0.983 . S
C340 C336 1.684 . S
H341 C359 0.948 . S
H342 C300 0.948 . S
H343 C318 0.979 . S
H344 C318 0.980 . S
H345 C318 0.983 . S
H346 C317 0.982 . S
H347 C317 0.979 . S
H348 C317 0.977 . S
H349 C319 0.948 . S
H350 C321 0.947 . S
H351 C322 0.948 . S
H352 C328 0.982 . S
H353 C328 0.979 . S
H354 C328 0.977 . S
H355 C329 0.979 . S
H356 C329 0.980 . S
H357 C329 0.983 . S
H358 C302 0.947 . S
C359 C302 1.392 . S
C359 C303 1.419 . S
C359 H341 0.948 . S
C360 C361 1.391 . S
C360 C364 1.391 . S
C360 H402 0.948 . S
C361 C360 1.391 . S
C361 C362 1.391 . S
C362 C361 1.391 . S
C362 H418 0.947 . S
C362 C419 1.392 . S
C363 C364 1.391 . S
C363 C367 1.397 . S
C363 C419 1.419 . S
C364 C360 1.391 . S
C364 C363 1.391 . S
C364 C365 1.399 . S
C365 C364 1.399 . S
C365 C368 1.396 . S
C365 C377 1.453 . S
C365 C378 1.684 . S
H366 C390 0.948 . S
C367 C363 1.397 . S
C367 C368 1.394 . S
C367 C386 1.723 . S
C368 C365 1.396 . S
C368 C367 1.394 . S
C368 C398 1.723 . S
H369 C392 0.947 . S
H370 C393 0.948 . S
H371 C399 0.982 . S
H372 C400 0.979 . S
H373 C400 0.980 . S
H374 C400 0.983 . S
H375 C399 0.979 . S
H376 C399 0.977 . S
C377 C365 1.453 . S
C377 H406 0.982 . S
C377 H407 0.979 . S
C377 H408 0.977 . S
C378 C365 1.684 . S
C378 H403 0.979 . S
C378 H404 0.980 . S
C378 H405 0.983 . S
C379 C380 1.391 . S
C379 C384 1.391 . S
C379 H409 0.948 . S
C380 C379 1.391 . S
C380 C381 1.391 . S
C381 C380 1.391 . S
C381 C382 1.392 . S
C381 H410 0.947 . S
C382 C381 1.392 . S
C382 C383 1.419 . S
C382 H411 0.948 . S
C383 C382 1.419 . S
C383 C384 1.391 . S
C383 C387 1.397 . S
C384 C379 1.391 . S
C384 C383 1.391 . S
C384 C385 1.399 . S
C385 C384 1.399 . S
C385 C386 1.396 . S
C385 C388 1.453 . S
C385 C389 1.684 . S
C386 C367 1.723 . S
C386 C385 1.396 . S
C386 C387 1.394 . S
C387 C383 1.397 . S
C387 C386 1.394 . S
C387 C397 1.723 . S
C388 C385 1.453 . S
C388 H412 0.982 . S
C388 H413 0.979 . S
C388 H414 0.977 . S
C389 C385 1.684 . S
C389 H415 0.979 . S
C389 H416 0.980 . S
C389 H417 0.983 . S
C390 H366 0.948 . S
C390 C391 1.391 . S
C390 C395 1.391 . S
C391 C390 1.391 . S
C391 C392 1.391 . S
C392 H369 0.947 . S
C392 C391 1.391 . S
C392 C393 1.392 . S
C393 H370 0.948 . S
C393 C392 1.392 . S
C393 C394 1.419 . S
C394 C393 1.419 . S
C394 C395 1.391 . S
C394 C398 1.397 . S
C395 C390 1.391 . S
C395 C394 1.391 . S
C395 C396 1.399 . S
C396 C395 1.399 . S
C396 C397 1.396 . S
C396 C399 1.453 . S
C396 C400 1.684 . S
C397 C387 1.723 . S
C397 C396 1.396 . S
C397 C398 1.394 . S
C398 C368 1.723 . S
C398 C394 1.397 . S
C398 C397 1.394 . S
C399 H371 0.982 . S
C399 H375 0.979 . S
C399 H376 0.977 . S
C399 C396 1.453 . S
C400 H372 0.979 . S
C400 H373 0.980 . S
C400 H374 0.983 . S
C400 C396 1.684 . S
H401 C419 0.948 . S
H402 C360 0.948 . S
H403 C378 0.979 . S
H404 C378 0.980 . S
H405 C378 0.983 . S
H406 C377 0.982 . S
H407 C377 0.979 . S
H408 C377 0.977 . S
H409 C379 0.948 . S
H410 C381 0.947 . S
H411 C382 0.948 . S
H412 C388 0.982 . S
H413 C388 0.979 . S
H414 C388 0.977 . S
H415 C389 0.979 . S
H416 C389 0.980 . S
H417 C389 0.983 . S
H418 C362 0.947 . S
C419 C362 1.392 . S
C419 C363 1.419 . S
C419 H401 0.948 . S
C420 C421 1.391 . S
C420 C424 1.391 . S
C420 H462 0.948 . S
C421 C420 1.391 . S
C421 C422 1.391 . S
C422 C421 1.391 . S
C422 H478 0.947 . S
C422 C479 1.392 . S
C423 C424 1.391 . S
C423 C427 1.397 . S
C423 C479 1.419 . S
C424 C420 1.391 . S
C424 C423 1.391 . S
C424 C425 1.399 . S
C425 C424 1.399 . S
C425 C428 1.396 . S
C425 C437 1.453 . S
C425 C438 1.684 . S
H426 C450 0.948 . S
C427 C423 1.397 . S
C427 C428 1.394 . S
C427 C446 1.723 . S
C428 C425 1.396 . S
C428 C427 1.394 . S
C428 C458 1.723 . S
H429 C452 0.947 . S
H430 C453 0.948 . S
H431 C459 0.982 . S
H432 C460 0.979 . S
H433 C460 0.980 . S
H434 C460 0.983 . S
H435 C459 0.979 . S
H436 C459 0.977 . S
C437 C425 1.453 . S
C437 H466 0.982 . S
C437 H467 0.979 . S
C437 H468 0.977 . S
C438 C425 1.684 . S
C438 H463 0.979 . S
C438 H464 0.980 . S
C438 H465 0.983 . S
C439 C440 1.391 . S
C439 C444 1.391 . S
C439 H469 0.948 . S
C440 C439 1.391 . S
C440 C441 1.391 . S
C441 C440 1.391 . S
C441 C442 1.392 . S
C441 H470 0.947 . S
C442 C441 1.392 . S
C442 C443 1.419 . S
C442 H471 0.948 . S
C443 C442 1.419 . S
C443 C444 1.391 . S
C443 C447 1.397 . S
C444 C439 1.391 . S
C444 C443 1.391 . S
C444 C445 1.399 . S
C445 C444 1.399 . S
C445 C446 1.396 . S
C445 C448 1.453 . S
C445 C449 1.684 . S
C446 C427 1.723 . S
C446 C445 1.396 . S
C446 C447 1.394 . S
C447 C443 1.397 . S
C447 C446 1.394 . S
C447 C457 1.723 . S
C448 C445 1.453 . S
C448 H472 0.982 . S
C448 H473 0.979 . S
C448 H474 0.977 . S
C449 C445 1.684 . S
C449 H475 0.979 . S
C449 H476 0.980 . S
C449 H477 0.983 . S
C450 H426 0.948 . S
C450 C451 1.391 . S
C450 C455 1.391 . S
C451 C450 1.391 . S
C451 C452 1.391 . S
C452 H429 0.947 . S
C452 C451 1.391 . S
C452 C453 1.392 . S
C453 H430 0.948 . S
C453 C452 1.392 . S
C453 C454 1.419 . S
C454 C453 1.419 . S
C454 C455 1.391 . S
C454 C458 1.397 . S
C455 C450 1.391 . S
C455 C454 1.391 . S
C455 C456 1.399 . S
C456 C455 1.399 . S
C456 C457 1.396 . S
C456 C459 1.453 . S
C456 C460 1.684 . S
C457 C447 1.723 . S
C457 C456 1.396 . S
C457 C458 1.394 . S
C458 C428 1.723 . S
C458 C454 1.397 . S
C458 C457 1.394 . S
C459 H431 0.982 . S
C459 H435 0.979 . S
C459 H436 0.977 . S
C459 C456 1.453 . S
C460 H432 0.979 . S
C460 H433 0.980 . S
C460 H434 0.983 . S
C460 C456 1.684 . S
H461 C479 0.948 . S
H462 C420 0.948 . S
H463 C438 0.979 . S
H464 C438 0.980 . S
H465 C438 0.983 . S
H466 C437 0.982 . S
H467 C437 0.979 . S
H468 C437 0.977 . S
H469 C439 0.948 . S
H470 C441 0.947 . S
H471 C442 0.948 . S
H472 C448 0.982 . S
H473 C448 0.979 . S
H474 C448 0.977 . S
H475 C449 0.979 . S
H476 C449 0.980 . S
H477 C449 0.983 . S
H478 C422 0.947 . S
C479 C422 1.392 . S
C479 C423 1.419 . S
C479 H461 0.948 . S
Zn480 O486 1.969 1_545 S
Zn480 O487 1.965 1_545 S
Zn480 O491 2.024 . S
Zn480 O496 1.969 . S
Zn481 O488 1.969 . S
Zn481 O494 1.969 1_565 S
Zn481 O495 1.965 1_565 S
Zn481 O497 2.024 . S
C482 O483 1.229 . S
C482 O491 1.058 . S
O483 C482 1.229 . S
C484 O485 1.229 . S
C484 O497 1.058 . S
O485 C484 1.229 . S
O486 Zn480 1.969 1_565 S
O486 C489 1.267 . S
O487 Zn480 1.965 1_565 S
O487 C498 1.260 1_455 S
O488 Zn481 1.969 . S
O488 C498 1.258 . S
C489 O486 1.267 . S
C489 O490 1.228 . S
O490 C489 1.228 . S
O491 Zn480 2.024 . S
O491 C482 1.058 . S
C492 O493 1.228 . S
C492 O494 1.267 . S
O493 C492 1.228 . S
O494 Zn481 1.969 1_545 S
O494 C492 1.267 . S
O495 Zn481 1.965 1_545 S
O495 C499 1.260 1_655 S
O496 Zn480 1.969 . S
O496 C499 1.258 . S
O497 Zn481 2.024 . S
O497 C484 1.058 . S
C498 O487 1.260 1_655 S
C498 O488 1.258 . S
C499 O495 1.260 1_455 S
C499 O496 1.258 . S
Zn500 O506 1.969 . S
Zn500 O507 1.965 1_565 S
Zn500 O511 2.024 . S
Zn500 O516 1.969 . S
Zn501 O508 1.969 . S
Zn501 O514 1.969 . S
Zn501 O515 1.965 1_545 S
Zn501 O517 2.024 . S
C502 O503 1.229 . S
C502 O511 1.058 . S
O503 C502 1.229 . S
C504 O505 1.229 . S
C504 O517 1.058 . S
O505 C504 1.229 . S
O506 Zn500 1.969 . S
O506 C509 1.267 . S
O507 Zn500 1.965 1_545 S
O507 C518 1.260 . S
O508 Zn501 1.969 . S
O508 C518 1.258 1_554 S
C509 O506 1.267 . S
C509 O510 1.228 . S
O510 C509 1.228 . S
O511 Zn500 2.024 . S
O511 C502 1.058 . S
C512 O513 1.228 . S
C512 O514 1.267 . S
O513 C512 1.228 . S
O514 Zn501 1.969 . S
O514 C512 1.267 . S
O515 Zn501 1.965 1_565 S
O515 C519 1.260 . S
O516 Zn500 1.969 . S
O516 C519 1.258 1_556 S
O517 Zn501 2.024 . S
O517 C504 1.058 . S
C518 O507 1.260 . S
C518 O508 1.258 1_556 S
C519 O515 1.260 . S
C519 O516 1.258 1_554 S
Zn520 O526 1.969 . S
Zn520 O527 1.965 . S
Zn520 O531 2.024 . S
Zn520 O536 1.969 . S
Zn521 O528 1.969 . S
Zn521 O534 1.969 . S
Zn521 O535 1.965 . S
Zn521 O537 2.024 . S
C522 O523 1.229 . S
C522 O531 1.058 . S
O523 C522 1.229 . S
C524 O525 1.229 . S
C524 O537 1.058 . S
O525 C524 1.229 . S
O526 Zn520 1.969 . S
O526 C529 1.267 . S
O527 Zn520 1.965 . S
O527 C538 1.260 . S
O528 Zn521 1.969 . S
O528 C538 1.258 . S
C529 O526 1.267 . S
C529 O530 1.228 . S
O530 C529 1.228 . S
O531 Zn520 2.024 . S
O531 C522 1.058 . S
C532 O533 1.228 . S
C532 O534 1.267 . S
O533 C532 1.228 . S
O534 Zn521 1.969 . S
O534 C532 1.267 . S
O535 Zn521 1.965 . S
O535 C539 1.260 . S
O536 Zn520 1.969 . S
O536 C539 1.258 . S
O537 Zn521 2.024 . S
O537 C524 1.058 . S
C538 O527 1.260 . S
C538 O528 1.258 . S
C539 O535 1.260 . S
C539 O536 1.258 . S
Zn540 O546 1.969 . S
Zn540 O547 1.965 1_556 S
Zn540 O551 2.024 . S
Zn540 O556 1.984 . S
Zn541 O548 1.999 . S
Zn541 O554 1.969 . S
Zn541 O555 1.965 1_554 S
Zn541 O557 2.024 . S
C542 O543 1.229 . S
C542 O551 1.058 . S
O543 C542 1.229 . S
C544 O545 1.229 . S
C544 O557 1.058 . S
O545 C544 1.229 . S
O546 Zn540 1.969 . S
O546 C549 1.267 . S
O547 Zn540 1.965 1_554 S
O547 C558 1.260 . S
O548 Zn541 1.999 . S
O548 C558 1.228 1_455 S
C549 O546 1.267 . S
C549 O550 1.228 . S
O550 C549 1.228 . S
O551 Zn540 2.024 . S
O551 C542 1.058 . S
C552 O553 1.228 . S
C552 O554 1.267 . S
O553 C552 1.228 . S
O554 Zn541 1.969 . S
O554 C552 1.267 . S
O555 Zn541 1.965 1_556 S
O555 C559 1.260 . S
O556 Zn540 1.984 . S
O556 C559 1.243 1_655 S
O557 Zn541 2.024 . S
O557 C544 1.058 . S
C558 O547 1.260 . S
C558 O548 1.228 1_655 S
C559 O555 1.260 . S
C559 O556 1.243 1_455 S
C560 C561 1.391 . S
C560 C562 1.394 . S
C560 H576 0.931 . S
C561 C560 1.391 . S
C561 C565 1.376 . S
C562 C560 1.394 . S
C562 C563 1.369 . S
C562 C566 1.531 . S
C563 C562 1.369 . S
C563 C564 1.410 . S
C563 C571 1.503 . S
C564 C563 1.410 . S
C564 C565 1.392 . S
C564 C567 1.511 . S
C565 C561 1.376 . S
C565 C564 1.392 . S
C565 H577 0.929 . S
C566 C562 1.531 . S
C566 H578 0.960 . S
C566 H579 0.962 . S
C566 H580 0.960 . S
C567 C564 1.511 . S
C567 H581 0.961 . S
C567 H582 0.961 . S
C567 H583 0.961 . S
C568 C569 1.370 . S
C568 C570 1.363 . S
C568 H584 0.931 . S
C569 C568 1.370 . S
C569 C573 1.408 . S
C570 C568 1.363 . S
C570 C571 1.370 . S
C570 C574 1.524 . S
C571 C563 1.503 . S
C571 C570 1.370 . S
C571 C572 1.403 . S
C572 C571 1.403 . S
C572 C573 1.404 . S
C572 C575 1.539 . S
C573 C569 1.408 . S
C573 C572 1.404 . S
C573 H585 0.930 . S
C574 C570 1.524 . S
C574 H586 0.956 . S
C574 H587 0.961 . S
C574 H588 0.961 . S
C575 C572 1.539 . S
C575 H589 0.958 . S
C575 H590 0.961 . S
C575 H591 0.960 . S
H576 C560 0.931 . S
H577 C565 0.929 . S
H578 C566 0.960 . S
H579 C566 0.962 . S
H580 C566 0.960 . S
H581 C567 0.961 . S
H582 C567 0.961 . S
H583 C567 0.961 . S
H584 C568 0.931 . S
H585 C573 0.930 . S
H586 C574 0.956 . S
H587 C574 0.961 . S
H588 C574 0.961 . S
H589 C575 0.958 . S
H590 C575 0.961 . S
H591 C575 0.960 . S
C592 C593 1.391 . S
C592 C594 1.394 . S
C592 H608 0.931 . S
C593 C592 1.391 . S
C593 C597 1.376 . S
C594 C592 1.394 . S
C594 C595 1.369 . S
C594 C598 1.531 . S
C595 C594 1.369 . S
C595 C596 1.410 . S
C595 C603 1.503 . S
C596 C595 1.410 . S
C596 C597 1.392 . S
C596 C599 1.511 . S
C597 C593 1.376 . S
C597 C596 1.392 . S
C597 H609 0.929 . S
C598 C594 1.531 . S
C598 H610 0.960 . S
C598 H611 0.962 . S
C598 H612 0.960 . S
C599 C596 1.511 . S
C599 H613 0.961 . S
C599 H614 0.961 . S
C599 H615 0.961 . S
C600 C601 1.370 . S
C600 C602 1.363 . S
C600 H616 0.931 . S
C601 C600 1.370 . S
C601 C605 1.408 . S
C602 C600 1.363 . S
C602 C603 1.370 . S
C602 C606 1.524 . S
C603 C595 1.503 . S
C603 C602 1.370 . S
C603 C604 1.403 . S
C604 C603 1.403 . S
C604 C605 1.404 . S
C604 C607 1.539 . S
C605 C601 1.408 . S
C605 C604 1.404 . S
C605 H617 0.930 . S
C606 C602 1.524 . S
C606 H618 0.956 . S
C606 H619 0.961 . S
C606 H620 0.961 . S
C607 C604 1.539 . S
C607 H621 0.958 . S
C607 H622 0.961 . S
C607 H623 0.960 . S
H608 C592 0.931 . S
H609 C597 0.929 . S
H610 C598 0.960 . S
H611 C598 0.962 . S
H612 C598 0.960 . S
H613 C599 0.961 . S
H614 C599 0.961 . S
H615 C599 0.961 . S
H616 C600 0.931 . S
H617 C605 0.930 . S
H618 C606 0.956 . S
H619 C606 0.961 . S
H620 C606 0.961 . S
H621 C607 0.958 . S
H622 C607 0.961 . S
H623 C607 0.960 . S
C624 C625 1.391 . S
C624 C626 1.394 . S
C624 H640 0.931 . S
C625 C624 1.391 . S
C625 C629 1.376 . S
C626 C624 1.394 . S
C626 C627 1.369 . S
C626 C630 1.531 . S
C627 C626 1.369 . S
C627 C628 1.410 . S
C627 C635 1.503 . S
C628 C627 1.410 . S
C628 C629 1.392 . S
C628 C631 1.511 . S
C629 C625 1.376 . S
C629 C628 1.392 . S
C629 H641 0.929 . S
C630 C626 1.531 . S
C630 H642 0.960 . S
C630 H643 0.962 . S
C630 H644 0.960 . S
C631 C628 1.511 . S
C631 H645 0.961 . S
C631 H646 0.961 . S
C631 H647 0.961 . S
C632 C633 1.370 . S
C632 C634 1.363 . S
C632 H648 0.931 . S
C633 C632 1.370 . S
C633 C637 1.408 . S
C634 C632 1.363 . S
C634 C635 1.370 . S
C634 C638 1.524 . S
C635 C627 1.503 . S
C635 C634 1.370 . S
C635 C636 1.403 . S
C636 C635 1.403 . S
C636 C637 1.404 . S
C636 C639 1.539 . S
C637 C633 1.408 . S
C637 C636 1.404 . S
C637 H649 0.930 . S
C638 C634 1.524 . S
C638 H650 0.956 . S
C638 H651 0.961 . S
C638 H652 0.961 . S
C639 C636 1.539 . S
C639 H653 0.958 . S
C639 H654 0.961 . S
C639 H655 0.960 . S
H640 C624 0.931 . S
H641 C629 0.929 . S
H642 C630 0.960 . S
H643 C630 0.962 . S
H644 C630 0.960 . S
H645 C631 0.961 . S
H646 C631 0.961 . S
H647 C631 0.961 . S
H648 C632 0.931 . S
H649 C637 0.930 . S
H650 C638 0.956 . S
H651 C638 0.961 . S
H652 C638 0.961 . S
H653 C639 0.958 . S
H654 C639 0.961 . S
H655 C639 0.960 . S
C656 C657 1.391 . S
C656 C658 1.394 . S
C656 H672 0.931 . S
C657 C656 1.391 . S
C657 C661 1.376 . S
C658 C656 1.394 . S
C658 C659 1.369 . S
C658 C662 1.531 . S
C659 C658 1.369 . S
C659 C660 1.410 . S
C659 C667 1.503 . S
C660 C659 1.410 . S
C660 C661 1.392 . S
C660 C663 1.511 . S
C661 C657 1.376 . S
C661 C660 1.392 . S
C661 H673 0.929 . S
C662 C658 1.531 . S
C662 H674 0.960 . S
C662 H675 0.962 . S
C662 H676 0.960 . S
C663 C660 1.511 . S
C663 H677 0.961 . S
C663 H678 0.961 . S
C663 H679 0.961 . S
C664 C665 1.370 . S
C664 C666 1.363 . S
C664 H680 0.931 . S
C665 C664 1.370 . S
C665 C669 1.408 . S
C666 C664 1.363 . S
C666 C667 1.370 . S
C666 C670 1.524 . S
C667 C659 1.503 . S
C667 C666 1.370 . S
C667 C668 1.403 . S
C668 C667 1.403 . S
C668 C669 1.404 . S
C668 C671 1.539 . S
C669 C665 1.408 . S
C669 C668 1.404 . S
C669 H681 0.930 . S
C670 C666 1.524 . S
C670 H682 0.956 . S
C670 H683 0.961 . S
C670 H684 0.961 . S
C671 C668 1.539 . S
C671 H685 0.958 . S
C671 H686 0.961 . S
C671 H687 0.960 . S
H672 C656 0.931 . S
H673 C661 0.929 . S
H674 C662 0.960 . S
H675 C662 0.962 . S
H676 C662 0.960 . S
H677 C663 0.961 . S
H678 C663 0.961 . S
H679 C663 0.961 . S
H680 C664 0.931 . S
H681 C669 0.930 . S
H682 C670 0.956 . S
H683 C670 0.961 . S
H684 C670 0.961 . S
H685 C671 0.958 . S
H686 C671 0.961 . S
H687 C671 0.960 . S
C688 C689 1.391 . S
C688 C690 1.394 . S
C688 H704 0.931 . S
C689 C688 1.391 . S
C689 C693 1.376 . S
C690 C688 1.394 . S
C690 C691 1.369 . S
C690 C694 1.531 . S
C691 C690 1.369 . S
C691 C692 1.410 . S
C691 C699 1.503 . S
C692 C691 1.410 . S
C692 C693 1.392 . S
C692 C695 1.511 . S
C693 C689 1.376 . S
C693 C692 1.392 . S
C693 H705 0.929 . S
C694 C690 1.531 . S
C694 H706 0.960 . S
C694 H707 0.962 . S
C694 H708 0.960 . S
C695 C692 1.511 . S
C695 H709 0.961 . S
C695 H710 0.961 . S
C695 H711 0.961 . S
C696 C697 1.370 . S
C696 C698 1.363 . S
C696 H712 0.931 . S
C697 C696 1.370 . S
C697 C701 1.408 . S
C698 C696 1.363 . S
C698 C699 1.370 . S
C698 C702 1.524 . S
C699 C691 1.503 . S
C699 C698 1.370 . S
C699 C700 1.403 . S
C700 C699 1.403 . S
C700 C701 1.404 . S
C700 C703 1.539 . S
C701 C697 1.408 . S
C701 C700 1.404 . S
C701 H713 0.930 . S
C702 C698 1.524 . S
C702 H714 0.956 . S
C702 H715 0.961 . S
C702 H716 0.961 . S
C703 C700 1.539 . S
C703 H717 0.958 . S
C703 H718 0.961 . S
C703 H719 0.960 . S
H704 C688 0.931 . S
H705 C693 0.929 . S
H706 C694 0.960 . S
H707 C694 0.962 . S
H708 C694 0.960 . S
H709 C695 0.961 . S
H710 C695 0.961 . S
H711 C695 0.961 . S
H712 C696 0.931 . S
H713 C701 0.930 . S
H714 C702 0.956 . S
H715 C702 0.961 . S
H716 C702 0.961 . S
H717 C703 0.958 . S
H718 C703 0.961 . S
H719 C703 0.960 . S
C720 C721 1.391 . S
C720 C722 1.394 . S
C720 H736 0.931 . S
C721 C720 1.391 . S
C721 C725 1.376 . S
C722 C720 1.394 . S
C722 C723 1.369 . S
C722 C726 1.531 . S
C723 C722 1.369 . S
C723 C724 1.410 . S
C723 C731 1.503 . S
C724 C723 1.410 . S
C724 C725 1.392 . S
C724 C727 1.511 . S
C725 C721 1.376 . S
C725 C724 1.392 . S
C725 H737 0.929 . S
C726 C722 1.531 . S
C726 H738 0.960 . S
C726 H739 0.962 . S
C726 H740 0.960 . S
C727 C724 1.511 . S
C727 H741 0.961 . S
C727 H742 0.961 . S
C727 H743 0.961 . S
C728 C729 1.370 . S
C728 C730 1.363 . S
C728 H744 0.931 . S
C729 C728 1.370 . S
C729 C733 1.408 . S
C730 C728 1.363 . S
C730 C731 1.370 . S
C730 C734 1.524 . S
C731 C723 1.503 . S
C731 C730 1.370 . S
C731 C732 1.403 . S
C732 C731 1.403 . S
C732 C733 1.404 . S
C732 C735 1.539 . S
C733 C729 1.408 . S
C733 C732 1.404 . S
C733 H745 0.930 . S
C734 C730 1.524 . S
C734 H746 0.956 . S
C734 H747 0.961 . S
C734 H748 0.961 . S
C735 C732 1.539 . S
C735 H749 0.958 . S
C735 H750 0.961 . S
C735 H751 0.960 . S
H736 C720 0.931 . S
H737 C725 0.929 . S
H738 C726 0.960 . S
H739 C726 0.962 . S
H740 C726 0.960 . S
H741 C727 0.961 . S
H742 C727 0.961 . S
H743 C727 0.961 . S
H744 C728 0.931 . S
H745 C733 0.930 . S
H746 C734 0.956 . S
H747 C734 0.961 . S
H748 C734 0.961 . S
H749 C735 0.958 . S
H750 C735 0.961 . S
H751 C735 0.960 . S
C752 C753 1.391 . S
C752 C754 1.394 . S
C752 H768 0.931 . S
C753 C752 1.391 . S
C753 C757 1.376 . S
C754 C752 1.394 . S
C754 C755 1.369 . S
C754 C758 1.531 . S
C755 C754 1.369 . S
C755 C756 1.410 . S
C755 C763 1.503 . S
C756 C755 1.410 . S
C756 C757 1.392 . S
C756 C759 1.511 . S
C757 C753 1.376 . S
C757 C756 1.392 . S
C757 H769 0.929 . S
C758 C754 1.531 . S
C758 H770 0.960 . S
C758 H771 0.962 . S
C758 H772 0.960 . S
C759 C756 1.511 . S
C759 H773 0.961 . S
C759 H774 0.961 . S
C759 H775 0.961 . S
C760 C761 1.370 . S
C760 C762 1.363 . S
C760 H776 0.931 . S
C761 C760 1.370 . S
C761 C765 1.408 . S
C762 C760 1.363 . S
C762 C763 1.370 . S
C762 C766 1.524 . S
C763 C755 1.503 . S
C763 C762 1.370 . S
C763 C764 1.403 . S
C764 C763 1.403 . S
C764 C765 1.404 . S
C764 C767 1.539 . S
C765 C761 1.408 . S
C765 C764 1.404 . S
C765 H777 0.930 . S
C766 C762 1.524 . S
C766 H778 0.956 . S
C766 H779 0.961 . S
C766 H780 0.961 . S
C767 C764 1.539 . S
C767 H781 0.958 . S
C767 H782 0.961 . S
C767 H783 0.960 . S
H768 C752 0.931 . S
H769 C757 0.929 . S
H770 C758 0.960 . S
H771 C758 0.962 . S
H772 C758 0.960 . S
H773 C759 0.961 . S
H774 C759 0.961 . S
H775 C759 0.961 . S
H776 C760 0.931 . S
H777 C765 0.930 . S
H778 C766 0.956 . S
H779 C766 0.961 . S
H780 C766 0.961 . S
H781 C767 0.958 . S
H782 C767 0.961 . S
H783 C767 0.960 . S
C784 C785 1.391 . S
C784 C786 1.394 . S
C784 H800 0.931 . S
C785 C784 1.391 . S
C785 C789 1.376 . S
C786 C784 1.394 . S
C786 C787 1.369 . S
C786 C790 1.531 . S
C787 C786 1.369 . S
C787 C788 1.410 . S
C787 C795 1.503 . S
C788 C787 1.410 . S
C788 C789 1.392 . S
C788 C791 1.511 . S
C789 C785 1.376 . S
C789 C788 1.392 . S
C789 H801 0.929 . S
C790 C786 1.531 . S
C790 H802 0.960 . S
C790 H803 0.962 . S
C790 H804 0.960 . S
C791 C788 1.511 . S
C791 H805 0.961 . S
C791 H806 0.961 . S
C791 H807 0.961 . S
C792 C793 1.370 . S
C792 C794 1.363 . S
C792 H808 0.931 . S
C793 C792 1.370 . S
C793 C797 1.408 . S
C794 C792 1.363 . S
C794 C795 1.370 . S
C794 C798 1.524 . S
C795 C787 1.503 . S
C795 C794 1.370 . S
C795 C796 1.403 . S
C796 C795 1.403 . S
C796 C797 1.404 . S
C796 C799 1.539 . S
C797 C793 1.408 . S
C797 C796 1.404 . S
C797 H809 0.930 . S
C798 C794 1.524 . S
C798 H810 0.956 . S
C798 H811 0.961 . S
C798 H812 0.961 . S
C799 C796 1.539 . S
C799 H813 0.958 . S
C799 H814 0.961 . S
C799 H815 0.960 . S
H800 C784 0.931 . S
H801 C789 0.929 . S
H802 C790 0.960 . S
H803 C790 0.962 . S
H804 C790 0.960 . S
H805 C791 0.961 . S
H806 C791 0.961 . S
H807 C791 0.961 . S
H808 C792 0.931 . S
H809 C797 0.930 . S
H810 C798 0.956 . S
H811 C798 0.961 . S
H812 C798 0.961 . S
H813 C799 0.958 . S
H814 C799 0.961 . S
H815 C799 0.960 . S
C816 C817 1.391 . S
C816 C818 1.394 . S
C816 H832 0.931 . S
C817 C816 1.391 . S
C817 C821 1.376 . S
C818 C816 1.394 . S
C818 C819 1.369 . S
C818 C822 1.531 . S
C819 C818 1.369 . S
C819 C820 1.410 . S
C819 C827 1.503 . S
C820 C819 1.410 . S
C820 C821 1.392 . S
C820 C823 1.511 . S
C821 C817 1.376 . S
C821 C820 1.392 . S
C821 H833 0.929 . S
C822 C818 1.531 . S
C822 H834 0.960 . S
C822 H835 0.962 . S
C822 H836 0.960 . S
C823 C820 1.511 . S
C823 H837 0.961 . S
C823 H838 0.961 . S
C823 H839 0.961 . S
C824 C825 1.370 . S
C824 C826 1.363 . S
C824 H840 0.931 . S
C825 C824 1.370 . S
C825 C829 1.408 . S
C826 C824 1.363 . S
C826 C827 1.370 . S
C826 C830 1.524 . S
C827 C819 1.503 . S
C827 C826 1.370 . S
C827 C828 1.403 . S
C828 C827 1.403 . S
C828 C829 1.404 . S
C828 C831 1.539 . S
C829 C825 1.408 . S
C829 C828 1.404 . S
C829 H841 0.930 . S
C830 C826 1.524 . S
C830 H842 0.956 . S
C830 H843 0.961 . S
C830 H844 0.961 . S
C831 C828 1.539 . S
C831 H845 0.958 . S
C831 H846 0.961 . S
C831 H847 0.960 . S
H832 C816 0.931 . S
H833 C821 0.929 . S
H834 C822 0.960 . S
H835 C822 0.962 . S
H836 C822 0.960 . S
H837 C823 0.961 . S
H838 C823 0.961 . S
H839 C823 0.961 . S
H840 C824 0.931 . S
H841 C829 0.930 . S
H842 C830 0.956 . S
H843 C830 0.961 . S
H844 C830 0.961 . S
H845 C831 0.958 . S
H846 C831 0.961 . S
H847 C831 0.960 . S
C848 C849 1.391 . S
C848 C850 1.394 . S
C848 H864 0.931 . S
C849 C848 1.391 . S
C849 C853 1.376 . S
C850 C848 1.394 . S
C850 C851 1.369 . S
C850 C854 1.531 . S
C851 C850 1.369 . S
C851 C852 1.410 . S
C851 C859 1.503 . S
C852 C851 1.410 . S
C852 C853 1.392 . S
C852 C855 1.511 . S
C853 C849 1.376 . S
C853 C852 1.392 . S
C853 H865 0.929 . S
C854 C850 1.531 . S
C854 H866 0.960 . S
C854 H867 0.962 . S
C854 H868 0.960 . S
C855 C852 1.511 . S
C855 H869 0.961 . S
C855 H870 0.961 . S
C855 H871 0.961 . S
C856 C857 1.370 . S
C856 C858 1.363 . S
C856 H872 0.931 . S
C857 C856 1.370 . S
C857 C861 1.408 . S
C858 C856 1.363 . S
C858 C859 1.370 . S
C858 C862 1.524 . S
C859 C851 1.503 . S
C859 C858 1.370 . S
C859 C860 1.403 . S
C860 C859 1.403 . S
C860 C861 1.404 . S
C860 C863 1.539 . S
C861 C857 1.408 . S
C861 C860 1.404 . S
C861 H873 0.930 . S
C862 C858 1.524 . S
C862 H874 0.956 . S
C862 H875 0.961 . S
C862 H876 0.961 . S
C863 C860 1.539 . S
C863 H877 0.958 . S
C863 H878 0.961 . S
C863 H879 0.960 . S
H864 C848 0.931 . S
H865 C853 0.929 . S
H866 C854 0.960 . S
H867 C854 0.962 . S
H868 C854 0.960 . S
H869 C855 0.961 . S
H870 C855 0.961 . S
H871 C855 0.961 . S
H872 C856 0.931 . S
H873 C861 0.930 . S
H874 C862 0.956 . S
H875 C862 0.961 . S
H876 C862 0.961 . S
H877 C863 0.958 . S
H878 C863 0.961 . S
H879 C863 0.960 . S
C880 C881 1.391 . S
C880 C882 1.394 . S
C880 H896 0.931 . S
C881 C880 1.391 . S
C881 C885 1.376 . S
C882 C880 1.394 . S
C882 C883 1.369 . S
C882 C886 1.531 . S
C883 C882 1.369 . S
C883 C884 1.410 . S
C883 C891 1.503 . S
C884 C883 1.410 . S
C884 C885 1.392 . S
C884 C887 1.511 . S
C885 C881 1.376 . S
C885 C884 1.392 . S
C885 H897 0.929 . S
C886 C882 1.531 . S
C886 H898 0.960 . S
C886 H899 0.962 . S
C886 H900 0.960 . S
C887 C884 1.511 . S
C887 H901 0.961 . S
C887 H902 0.961 . S
C887 H903 0.961 . S
C888 C889 1.370 . S
C888 C890 1.363 . S
C888 H904 0.931 . S
C889 C888 1.370 . S
C889 C893 1.408 . S
C890 C888 1.363 . S
C890 C891 1.370 . S
C890 C894 1.524 . S
C891 C883 1.503 . S
C891 C890 1.370 . S
C891 C892 1.403 . S
C892 C891 1.403 . S
C892 C893 1.404 . S
C892 C895 1.539 . S
C893 C889 1.408 . S
C893 C892 1.404 . S
C893 H905 0.930 . S
C894 C890 1.524 . S
C894 H906 0.956 . S
C894 H907 0.961 . S
C894 H908 0.961 . S
C895 C892 1.539 . S
C895 H909 0.958 . S
C895 H910 0.961 . S
C895 H911 0.960 . S
H896 C880 0.931 . S
H897 C885 0.929 . S
H898 C886 0.960 . S
H899 C886 0.962 . S
H900 C886 0.960 . S
H901 C887 0.961 . S
H902 C887 0.961 . S
H903 C887 0.961 . S
H904 C888 0.931 . S
H905 C893 0.930 . S
H906 C894 0.956 . S
H907 C894 0.961 . S
H908 C894 0.961 . S
H909 C895 0.958 . S
H910 C895 0.961 . S
H911 C895 0.960 . S
C912 C913 1.391 . S
C912 C914 1.394 . S
C912 H928 0.931 . S
C913 C912 1.391 . S
C913 C917 1.376 . S
C914 C912 1.394 . S
C914 C915 1.369 . S
C914 C918 1.531 . S
C915 C914 1.369 . S
C915 C916 1.410 . S
C915 C923 1.503 . S
C916 C915 1.410 . S
C916 C917 1.392 . S
C916 C919 1.511 . S
C917 C913 1.376 . S
C917 C916 1.392 . S
C917 H929 0.929 . S
C918 C914 1.531 . S
C918 H930 0.960 . S
C918 H931 0.962 . S
C918 H932 0.960 . S
C919 C916 1.511 . S
C919 H933 0.961 . S
C919 H934 0.961 . S
C919 H935 0.961 . S
C920 C921 1.370 . S
C920 C922 1.363 . S
C920 H936 0.931 . S
C921 C920 1.370 . S
C921 C925 1.408 . S
C922 C920 1.363 . S
C922 C923 1.370 . S
C922 C926 1.524 . S
C923 C915 1.503 . S
C923 C922 1.370 . S
C923 C924 1.403 . S
C924 C923 1.403 . S
C924 C925 1.404 . S
C924 C927 1.539 . S
C925 C921 1.408 . S
C925 C924 1.404 . S
C925 H937 0.930 . S
C926 C922 1.524 . S
C926 H938 0.956 . S
C926 H939 0.961 . S
C926 H940 0.961 . S
C927 C924 1.539 . S
C927 H941 0.958 . S
C927 H942 0.961 . S
C927 H943 0.960 . S
H928 C912 0.931 . S
H929 C917 0.929 . S
H930 C918 0.960 . S
H931 C918 0.962 . S
H932 C918 0.960 . S
H933 C919 0.961 . S
H934 C919 0.961 . S
H935 C919 0.961 . S
H936 C920 0.931 . S
H937 C925 0.930 . S
H938 C926 0.956 . S
H939 C926 0.961 . S
H940 C926 0.961 . S
H941 C927 0.958 . S
H942 C927 0.961 . S
H943 C927 0.960 . S
C944 C945 1.391 . S
C944 C946 1.394 . S
C944 H960 0.931 . S
C945 C944 1.391 . S
C945 C949 1.376 . S
C946 C944 1.394 . S
C946 C947 1.369 . S
C946 C950 1.531 . S
C947 C946 1.369 . S
C947 C948 1.410 . S
C947 C955 1.503 . S
C948 C947 1.410 . S
C948 C949 1.392 . S
C948 C951 1.511 . S
C949 C945 1.376 . S
C949 C948 1.392 . S
C949 H961 0.929 . S
C950 C946 1.531 . S
C950 H962 0.960 . S
C950 H963 0.962 . S
C950 H964 0.960 . S
C951 C948 1.511 . S
C951 H965 0.961 . S
C951 H966 0.961 . S
C951 H967 0.961 . S
C952 C953 1.370 . S
C952 C954 1.363 . S
C952 H968 0.931 . S
C953 C952 1.370 . S
C953 C957 1.408 . S
C954 C952 1.363 . S
C954 C955 1.370 . S
C954 C958 1.524 . S
C955 C947 1.503 . S
C955 C954 1.370 . S
C955 C956 1.403 . S
C956 C955 1.403 . S
C956 C957 1.404 . S
C956 C959 1.539 . S
C957 C953 1.408 . S
C957 C956 1.404 . S
C957 H969 0.930 . S
C958 C954 1.524 . S
C958 H970 0.956 . S
C958 H971 0.961 . S
C958 H972 0.961 . S
C959 C956 1.539 . S
C959 H973 0.958 . S
C959 H974 0.961 . S
C959 H975 0.960 . S
H960 C944 0.931 . S
H961 C949 0.929 . S
H962 C950 0.960 . S
H963 C950 0.962 . S
H964 C950 0.960 . S
H965 C951 0.961 . S
H966 C951 0.961 . S
H967 C951 0.961 . S
H968 C952 0.931 . S
H969 C957 0.930 . S
H970 C958 0.956 . S
H971 C958 0.961 . S
H972 C958 0.961 . S
H973 C959 0.958 . S
H974 C959 0.961 . S
H975 C959 0.960 . S
C976 C977 1.391 . S
C976 C978 1.394 . S
C976 H992 0.931 . S
C977 C976 1.391 . S
C977 C981 1.376 . S
C978 C976 1.394 . S
C978 C979 1.369 . S
C978 C982 1.531 . S
C979 C978 1.369 . S
C979 C980 1.410 . S
C979 C987 1.503 . S
C980 C979 1.410 . S
C980 C981 1.392 . S
C980 C983 1.511 . S
C981 C977 1.376 . S
C981 C980 1.392 . S
C981 H993 0.929 . S
C982 C978 1.531 . S
C982 H994 0.960 . S
C982 H995 0.962 . S
C982 H996 0.960 . S
C983 C980 1.511 . S
C983 H997 0.961 . S
C983 H998 0.961 . S
C983 H999 0.961 . S
C984 C985 1.370 . S
C984 C986 1.363 . S
C984 H1000 0.931 . S
C985 C984 1.370 . S
C985 C989 1.408 . S
C986 C984 1.363 . S
C986 C987 1.370 . S
C986 C990 1.524 . S
C987 C979 1.503 . S
C987 C986 1.370 . S
C987 C988 1.403 . S
C988 C987 1.403 . S
C988 C989 1.404 . S
C988 C991 1.539 . S
C989 C985 1.408 . S
C989 C988 1.404 . S
C989 H1001 0.930 . S
C990 C986 1.524 . S
C990 H1002 0.956 . S
C990 H1003 0.961 . S
C990 H1004 0.961 . S
C991 C988 1.539 . S
C991 H1005 0.958 . S
C991 H1006 0.961 . S
C991 H1007 0.960 . S
H992 C976 0.931 . S
H993 C981 0.929 . S
H994 C982 0.960 . S
H995 C982 0.962 . S
H996 C982 0.960 . S
H997 C983 0.961 . S
H998 C983 0.961 . S
H999 C983 0.961 . S
H1000 C984 0.931 . S
H1001 C989 0.930 . S
H1002 C990 0.956 . S
H1003 C990 0.961 . S
H1004 C990 0.961 . S
H1005 C991 0.958 . S
H1006 C991 0.961 . S
H1007 C991 0.960 . S
C1008 C1009 1.391 . S
C1008 C1010 1.394 . S
C1008 H1024 0.931 . S
C1009 C1008 1.391 . S
C1009 C1013 1.376 . S
C1010 C1008 1.394 . S
C1010 C1011 1.369 . S
C1010 C1014 1.531 . S
C1011 C1010 1.369 . S
C1011 C1012 1.410 . S
C1011 C1019 1.503 . S
C1012 C1011 1.410 . S
C1012 C1013 1.392 . S
C1012 C1015 1.511 . S
C1013 C1009 1.376 . S
C1013 C1012 1.392 . S
C1013 H1025 0.929 . S
C1014 C1010 1.531 . S
C1014 H1026 0.960 . S
C1014 H1027 0.962 . S
C1014 H1028 0.960 . S
C1015 C1012 1.511 . S
C1015 H1029 0.961 . S
C1015 H1030 0.961 . S
C1015 H1031 0.961 . S
C1016 C1017 1.370 . S
C1016 C1018 1.363 . S
C1016 H1032 0.931 . S
C1017 C1016 1.370 . S
C1017 C1021 1.408 . S
C1018 C1016 1.363 . S
C1018 C1019 1.370 . S
C1018 C1022 1.524 . S
C1019 C1011 1.503 . S
C1019 C1018 1.370 . S
C1019 C1020 1.403 . S
C1020 C1019 1.403 . S
C1020 C1021 1.404 . S
C1020 C1023 1.539 . S
C1021 C1017 1.408 . S
C1021 C1020 1.404 . S
C1021 H1033 0.930 . S
C1022 C1018 1.524 . S
C1022 H1034 0.956 . S
C1022 H1035 0.961 . S
C1022 H1036 0.961 . S
C1023 C1020 1.539 . S
C1023 H1037 0.958 . S
C1023 H1038 0.961 . S
C1023 H1039 0.960 . S
H1024 C1008 0.931 . S
H1025 C1013 0.929 . S
H1026 C1014 0.960 . S
H1027 C1014 0.962 . S
H1028 C1014 0.960 . S
H1029 C1015 0.961 . S
H1030 C1015 0.961 . S
H1031 C1015 0.961 . S
H1032 C1016 0.931 . S
H1033 C1021 0.930 . S
H1034 C1022 0.956 . S
H1035 C1022 0.961 . S
H1036 C1022 0.961 . S
H1037 C1023 0.958 . S
H1038 C1023 0.961 . S
H1039 C1023 0.960 . S
C1040 C1041 1.391 . S
C1040 C1042 1.394 . S
C1040 H1056 0.931 . S
C1041 C1040 1.391 . S
C1041 C1045 1.376 . S
C1042 C1040 1.394 . S
C1042 C1043 1.369 . S
C1042 C1046 1.531 . S
C1043 C1042 1.369 . S
C1043 C1044 1.410 . S
C1043 C1051 1.503 . S
C1044 C1043 1.410 . S
C1044 C1045 1.392 . S
C1044 C1047 1.511 . S
C1045 C1041 1.376 . S
C1045 C1044 1.392 . S
C1045 H1057 0.929 . S
C1046 C1042 1.531 . S
C1046 H1058 0.960 . S
C1046 H1059 0.962 . S
C1046 H1060 0.960 . S
C1047 C1044 1.511 . S
C1047 H1061 0.961 . S
C1047 H1062 0.961 . S
C1047 H1063 0.961 . S
C1048 C1049 1.370 . S
C1048 C1050 1.363 . S
C1048 H1064 0.931 . S
C1049 C1048 1.370 . S
C1049 C1053 1.408 . S
C1050 C1048 1.363 . S
C1050 C1051 1.370 . S
C1050 C1054 1.524 . S
C1051 C1043 1.503 . S
C1051 C1050 1.370 . S
C1051 C1052 1.403 . S
C1052 C1051 1.403 . S
C1052 C1053 1.404 . S
C1052 C1055 1.539 . S
C1053 C1049 1.408 . S
C1053 C1052 1.404 . S
C1053 H1065 0.930 . S
C1054 C1050 1.524 . S
C1054 H1066 0.956 . S
C1054 H1067 0.961 . S
C1054 H1068 0.961 . S
C1055 C1052 1.539 . S
C1055 H1069 0.958 . S
C1055 H1070 0.961 . S
C1055 H1071 0.960 . S
H1056 C1040 0.931 . S
H1057 C1045 0.929 . S
H1058 C1046 0.960 . S
H1059 C1046 0.962 . S
H1060 C1046 0.960 . S
H1061 C1047 0.961 . S
H1062 C1047 0.961 . S
H1063 C1047 0.961 . S
H1064 C1048 0.931 . S
H1065 C1053 0.930 . S
H1066 C1054 0.956 . S
H1067 C1054 0.961 . S
H1068 C1054 0.961 . S
H1069 C1055 0.958 . S
H1070 C1055 0.961 . S
H1071 C1055 0.960 . S
C1072 C1073 1.391 . S
C1072 C1074 1.394 . S
C1072 H1088 0.931 . S
C1073 C1072 1.391 . S
C1073 C1077 1.376 . S
C1074 C1072 1.394 . S
C1074 C1075 1.369 . S
C1074 C1078 1.531 . S
C1075 C1074 1.369 . S
C1075 C1076 1.410 . S
C1075 C1083 1.503 . S
C1076 C1075 1.410 . S
C1076 C1077 1.392 . S
C1076 C1079 1.511 . S
C1077 C1073 1.376 . S
C1077 C1076 1.392 . S
C1077 H1089 0.929 . S
C1078 C1074 1.531 . S
C1078 H1090 0.960 . S
C1078 H1091 0.962 . S
C1078 H1092 0.960 . S
C1079 C1076 1.511 . S
C1079 H1093 0.961 . S
C1079 H1094 0.961 . S
C1079 H1095 0.961 . S
C1080 C1081 1.370 . S
C1080 C1082 1.363 . S
C1080 H1096 0.931 . S
C1081 C1080 1.370 . S
C1081 C1085 1.408 . S
C1082 C1080 1.363 . S
C1082 C1083 1.370 . S
C1082 C1086 1.524 . S
C1083 C1075 1.503 . S
C1083 C1082 1.370 . S
C1083 C1084 1.403 . S
C1084 C1083 1.403 . S
C1084 C1085 1.404 . S
C1084 C1087 1.539 . S
C1085 C1081 1.408 . S
C1085 C1084 1.404 . S
C1085 H1097 0.930 . S
C1086 C1082 1.524 . S
C1086 H1098 0.956 . S
C1086 H1099 0.961 . S
C1086 H1100 0.961 . S
C1087 C1084 1.539 . S
C1087 H1101 0.958 . S
C1087 H1102 0.961 . S
C1087 H1103 0.960 . S
H1088 C1072 0.931 . S
H1089 C1077 0.929 . S
H1090 C1078 0.960 . S
H1091 C1078 0.962 . S
H1092 C1078 0.960 . S
H1093 C1079 0.961 . S
H1094 C1079 0.961 . S
H1095 C1079 0.961 . S
H1096 C1080 0.931 . S
H1097 C1085 0.930 . S
H1098 C1086 0.956 . S
H1099 C1086 0.961 . S
H1100 C1086 0.961 . S
H1101 C1087 0.958 . S
H1102 C1087 0.961 . S
H1103 C1087 0.960 . S
C1104 C1105 1.391 . S
C1104 C1106 1.394 . S
C1104 H1120 0.931 . S
C1105 C1104 1.391 . S
C1105 C1109 1.376 . S
C1106 C1104 1.394 . S
C1106 C1107 1.369 . S
C1106 C1110 1.531 . S
C1107 C1106 1.369 . S
C1107 C1108 1.410 . S
C1107 C1115 1.503 . S
C1108 C1107 1.410 . S
C1108 C1109 1.392 . S
C1108 C1111 1.511 . S
C1109 C1105 1.376 . S
C1109 C1108 1.392 . S
C1109 H1121 0.929 . S
C1110 C1106 1.531 . S
C1110 H1122 0.960 . S
C1110 H1123 0.962 . S
C1110 H1124 0.960 . S
C1111 C1108 1.511 . S
C1111 H1125 0.961 . S
C1111 H1126 0.961 . S
C1111 H1127 0.961 . S
C1112 C1113 1.370 . S
C1112 C1114 1.363 . S
C1112 H1128 0.931 . S
C1113 C1112 1.370 . S
C1113 C1117 1.408 . S
C1114 C1112 1.363 . S
C1114 C1115 1.370 . S
C1114 C1118 1.524 . S
C1115 C1107 1.503 . S
C1115 C1114 1.370 . S
C1115 C1116 1.403 . S
C1116 C1115 1.403 . S
C1116 C1117 1.404 . S
C1116 C1119 1.539 . S
C1117 C1113 1.408 . S
C1117 C1116 1.404 . S
C1117 H1129 0.930 . S
C1118 C1114 1.524 . S
C1118 H1130 0.956 . S
C1118 H1131 0.961 . S
C1118 H1132 0.961 . S
C1119 C1116 1.539 . S
C1119 H1133 0.958 . S
C1119 H1134 0.961 1_545 S
C1119 H1135 0.960 . S
H1120 C1104 0.931 . S
H1121 C1109 0.929 . S
H1122 C1110 0.960 . S
H1123 C1110 0.962 . S
H1124 C1110 0.960 . S
H1125 C1111 0.961 . S
H1126 C1111 0.961 . S
H1127 C1111 0.961 . S
H1128 C1112 0.931 . S
H1129 C1117 0.930 . S
H1130 C1118 0.956 . S
H1131 C1118 0.961 . S
H1132 C1118 0.961 . S
H1133 C1119 0.958 . S
H1134 C1119 0.961 1_565 S
H1135 C1119 0.960 . S
C1136 C1137 1.391 . S
C1136 C1138 1.394 . S
C1136 H1152 0.931 . S
C1137 C1136 1.391 . S
C1137 C1141 1.376 . S
C1138 C1136 1.394 . S
C1138 C1139 1.369 . S
C1138 C1142 1.531 . S
C1139 C1138 1.369 . S
C1139 C1140 1.410 . S
C1139 C1147 1.503 . S
C1140 C1139 1.410 . S
C1140 C1141 1.392 . S
C1140 C1143 1.511 . S
C1141 C1137 1.376 . S
C1141 C1140 1.392 . S
C1141 H1153 0.929 . S
C1142 C1138 1.531 . S
C1142 H1154 0.960 . S
C1142 H1155 0.962 . S
C1142 H1156 0.960 . S
C1143 C1140 1.511 . S
C1143 H1157 0.961 . S
C1143 H1158 0.961 . S
C1143 H1159 0.961 . S
C1144 C1145 1.370 . S
C1144 C1146 1.363 . S
C1144 H1160 0.931 . S
C1145 C1144 1.370 . S
C1145 C1149 1.408 . S
C1146 C1144 1.363 . S
C1146 C1147 1.370 . S
C1146 C1150 1.524 . S
C1147 C1139 1.503 . S
C1147 C1146 1.370 . S
C1147 C1148 1.403 . S
C1148 C1147 1.403 . S
C1148 C1149 1.404 . S
C1148 C1151 1.539 . S
C1149 C1145 1.408 . S
C1149 C1148 1.404 . S
C1149 H1161 0.930 . S
C1150 C1146 1.524 . S
C1150 H1162 0.956 . S
C1150 H1163 0.961 . S
C1150 H1164 0.961 . S
C1151 C1148 1.539 . S
C1151 H1165 0.958 . S
C1151 H1166 0.961 . S
C1151 H1167 0.960 . S
H1152 C1136 0.931 . S
H1153 C1141 0.929 . S
H1154 C1142 0.960 . S
H1155 C1142 0.962 . S
H1156 C1142 0.960 . S
H1157 C1143 0.961 . S
H1158 C1143 0.961 . S
H1159 C1143 0.961 . S
H1160 C1144 0.931 . S
H1161 C1149 0.930 . S
H1162 C1150 0.956 . S
H1163 C1150 0.961 . S
H1164 C1150 0.961 . S
H1165 C1151 0.958 . S
H1166 C1151 0.961 . S
H1167 C1151 0.960 . S
C1168 C1169 1.391 . S
C1168 C1170 1.394 . S
C1168 H1184 0.931 . S
C1169 C1168 1.391 . S
C1169 C1173 1.376 . S
C1170 C1168 1.394 . S
C1170 C1171 1.369 . S
C1170 C1174 1.531 . S
C1171 C1170 1.369 . S
C1171 C1172 1.410 . S
C1171 C1179 1.503 . S
C1172 C1171 1.410 . S
C1172 C1173 1.392 . S
C1172 C1175 1.511 . S
C1173 C1169 1.376 . S
C1173 C1172 1.392 . S
C1173 H1185 0.929 . S
C1174 C1170 1.531 . S
C1174 H1186 0.960 . S
C1174 H1187 0.962 . S
C1174 H1188 0.960 . S
C1175 C1172 1.511 . S
C1175 H1189 0.961 . S
C1175 H1190 0.961 . S
C1175 H1191 0.961 . S
C1176 C1177 1.370 . S
C1176 C1178 1.363 . S
C1176 H1192 0.931 . S
C1177 C1176 1.370 . S
C1177 C1181 1.408 . S
C1178 C1176 1.363 . S
C1178 C1179 1.370 . S
C1178 C1182 1.524 . S
C1179 C1171 1.503 . S
C1179 C1178 1.370 . S
C1179 C1180 1.403 . S
C1180 C1179 1.403 . S
C1180 C1181 1.404 . S
C1180 C1183 1.539 . S
C1181 C1177 1.408 . S
C1181 C1180 1.404 . S
C1181 H1193 0.930 . S
C1182 C1178 1.524 . S
C1182 H1194 0.956 . S
C1182 H1195 0.961 . S
C1182 H1196 0.961 . S
C1183 C1180 1.539 . S
C1183 H1197 0.958 . S
C1183 H1198 0.961 . S
C1183 H1199 0.960 . S
H1184 C1168 0.931 . S
H1185 C1173 0.929 . S
H1186 C1174 0.960 . S
H1187 C1174 0.962 . S
H1188 C1174 0.960 . S
H1189 C1175 0.961 . S
H1190 C1175 0.961 . S
H1191 C1175 0.961 . S
H1192 C1176 0.931 . S
H1193 C1181 0.930 . S
H1194 C1182 0.956 . S
H1195 C1182 0.961 . S
H1196 C1182 0.961 . S
H1197 C1183 0.958 . S
H1198 C1183 0.961 . S
H1199 C1183 0.960 . S
C1200 C1201 1.391 . S
C1200 C1202 1.394 . S
C1200 H1216 0.931 . S
C1201 C1200 1.391 . S
C1201 C1205 1.376 . S
C1202 C1200 1.394 . S
C1202 C1203 1.369 . S
C1202 C1206 1.531 . S
C1203 C1202 1.369 . S
C1203 C1204 1.410 . S
C1203 C1211 1.503 . S
C1204 C1203 1.410 . S
C1204 C1205 1.392 . S
C1204 C1207 1.511 . S
C1205 C1201 1.376 . S
C1205 C1204 1.392 . S
C1205 H1217 0.929 . S
C1206 C1202 1.531 . S
C1206 H1218 0.960 . S
C1206 H1219 0.962 . S
C1206 H1220 0.960 . S
C1207 C1204 1.511 . S
C1207 H1221 0.961 . S
C1207 H1222 0.961 . S
C1207 H1223 0.961 . S
C1208 C1209 1.370 . S
C1208 C1210 1.363 . S
C1208 H1224 0.931 . S
C1209 C1208 1.370 . S
C1209 C1213 1.408 . S
C1210 C1208 1.363 . S
C1210 C1211 1.370 . S
C1210 C1214 1.524 . S
C1211 C1203 1.503 . S
C1211 C1210 1.370 . S
C1211 C1212 1.403 . S
C1212 C1211 1.403 . S
C1212 C1213 1.404 . S
C1212 C1215 1.539 . S
C1213 C1209 1.408 . S
C1213 C1212 1.404 . S
C1213 H1225 0.930 . S
C1214 C1210 1.524 . S
C1214 H1226 0.956 . S
C1214 H1227 0.961 . S
C1214 H1228 0.961 . S
C1215 C1212 1.539 . S
C1215 H1229 0.958 . S
C1215 H1230 0.961 . S
C1215 H1231 0.960 . S
H1216 C1200 0.931 . S
H1217 C1205 0.929 . S
H1218 C1206 0.960 . S
H1219 C1206 0.962 . S
H1220 C1206 0.960 . S
H1221 C1207 0.961 . S
H1222 C1207 0.961 . S
H1223 C1207 0.961 . S
H1224 C1208 0.931 . S
H1225 C1213 0.930 . S
H1226 C1214 0.956 . S
H1227 C1214 0.961 . S
H1228 C1214 0.961 . S
H1229 C1215 0.958 . S
H1230 C1215 0.961 . S
H1231 C1215 0.960 . S
C1232 C1233 1.391 . S
C1232 C1234 1.394 . S
C1232 H1248 0.931 . S
C1233 C1232 1.391 . S
C1233 C1237 1.376 . S
C1234 C1232 1.394 . S
C1234 C1235 1.369 . S
C1234 C1238 1.531 . S
C1235 C1234 1.369 . S
C1235 C1236 1.410 . S
C1235 C1243 1.503 . S
C1236 C1235 1.410 . S
C1236 C1237 1.392 . S
C1236 C1239 1.511 . S
C1237 C1233 1.376 . S
C1237 C1236 1.392 . S
C1237 H1249 0.929 . S
C1238 C1234 1.531 . S
C1238 H1250 0.960 . S
C1238 H1251 0.962 . S
C1238 H1252 0.960 . S
C1239 C1236 1.511 . S
C1239 H1253 0.961 . S
C1239 H1254 0.961 . S
C1239 H1255 0.961 . S
C1240 C1241 1.370 . S
C1240 C1242 1.363 . S
C1240 H1256 0.931 . S
C1241 C1240 1.370 . S
C1241 C1245 1.408 . S
C1242 C1240 1.363 . S
C1242 C1243 1.370 . S
C1242 C1246 1.524 . S
C1243 C1235 1.503 . S
C1243 C1242 1.370 . S
C1243 C1244 1.403 . S
C1244 C1243 1.403 . S
C1244 C1245 1.404 . S
C1244 C1247 1.539 . S
C1245 C1241 1.408 . S
C1245 C1244 1.404 . S
C1245 H1257 0.930 . S
C1246 C1242 1.524 . S
C1246 H1258 0.956 . S
C1246 H1259 0.961 . S
C1246 H1260 0.961 . S
C1247 C1244 1.539 . S
C1247 H1261 0.958 . S
C1247 H1262 0.961 . S
C1247 H1263 0.960 . S
H1248 C1232 0.931 . S
H1249 C1237 0.929 . S
H1250 C1238 0.960 . S
H1251 C1238 0.962 . S
H1252 C1238 0.960 . S
H1253 C1239 0.961 . S
H1254 C1239 0.961 . S
H1255 C1239 0.961 . S
H1256 C1240 0.931 . S
H1257 C1245 0.930 . S
H1258 C1246 0.956 . S
H1259 C1246 0.961 . S
H1260 C1246 0.961 . S
H1261 C1247 0.958 . S
H1262 C1247 0.961 . S
H1263 C1247 0.960 . S
C1264 C1265 1.391 . S
C1264 C1266 1.394 . S
C1264 H1280 0.931 . S
C1265 C1264 1.391 . S
C1265 C1269 1.376 . S
C1266 C1264 1.394 . S
C1266 C1267 1.369 . S
C1266 C1270 1.531 . S
C1267 C1266 1.369 . S
C1267 C1268 1.410 . S
C1267 C1275 1.503 . S
C1268 C1267 1.410 . S
C1268 C1269 1.392 . S
C1268 C1271 1.511 . S
C1269 C1265 1.376 . S
C1269 C1268 1.392 . S
C1269 H1281 0.929 . S
C1270 C1266 1.531 . S
C1270 H1282 0.960 . S
C1270 H1283 0.962 . S
C1270 H1284 0.960 . S
C1271 C1268 1.511 . S
C1271 H1285 0.961 . S
C1271 H1286 0.961 . S
C1271 H1287 0.961 . S
C1272 C1273 1.370 . S
C1272 C1274 1.363 . S
C1272 H1288 0.931 . S
C1273 C1272 1.370 . S
C1273 C1277 1.408 . S
C1274 C1272 1.363 . S
C1274 C1275 1.370 . S
C1274 C1278 1.524 . S
C1275 C1267 1.503 . S
C1275 C1274 1.370 . S
C1275 C1276 1.403 . S
C1276 C1275 1.403 . S
C1276 C1277 1.404 . S
C1276 C1279 1.539 . S
C1277 C1273 1.408 . S
C1277 C1276 1.404 . S
C1277 H1289 0.930 . S
C1278 C1274 1.524 . S
C1278 H1290 0.956 . S
C1278 H1291 0.961 . S
C1278 H1292 0.961 . S
C1279 C1276 1.539 . S
C1279 H1293 0.958 . S
C1279 H1294 0.961 . S
C1279 H1295 0.960 . S
H1280 C1264 0.931 . S
H1281 C1269 0.929 . S
H1282 C1270 0.960 . S
H1283 C1270 0.962 . S
H1284 C1270 0.960 . S
H1285 C1271 0.961 . S
H1286 C1271 0.961 . S
H1287 C1271 0.961 . S
H1288 C1272 0.931 . S
H1289 C1277 0.930 . S
H1290 C1278 0.956 . S
H1291 C1278 0.961 . S
H1292 C1278 0.961 . S
H1293 C1279 0.958 . S
H1294 C1279 0.961 . S
H1295 C1279 0.960 . S
C1296 C1297 1.391 . S
C1296 C1298 1.394 . S
C1296 H1312 0.931 . S
C1297 C1296 1.391 . S
C1297 C1301 1.376 . S
C1298 C1296 1.394 . S
C1298 C1299 1.369 . S
C1298 C1302 1.531 . S
C1299 C1298 1.369 . S
C1299 C1300 1.410 . S
C1299 C1307 1.503 . S
C1300 C1299 1.410 . S
C1300 C1301 1.392 . S
C1300 C1303 1.511 . S
C1301 C1297 1.376 . S
C1301 C1300 1.392 . S
C1301 H1313 0.929 . S
C1302 C1298 1.531 . S
C1302 H1314 0.960 . S
C1302 H1315 0.962 . S
C1302 H1316 0.960 . S
C1303 C1300 1.511 . S
C1303 H1317 0.961 . S
C1303 H1318 0.961 . S
C1303 H1319 0.961 . S
C1304 C1305 1.370 . S
C1304 C1306 1.363 . S
C1304 H1320 0.931 . S
C1305 C1304 1.370 . S
C1305 C1309 1.408 . S
C1306 C1304 1.363 . S
C1306 C1307 1.370 . S
C1306 C1310 1.524 . S
C1307 C1299 1.503 . S
C1307 C1306 1.370 . S
C1307 C1308 1.403 . S
C1308 C1307 1.403 . S
C1308 C1309 1.404 . S
C1308 C1311 1.539 . S
C1309 C1305 1.408 . S
C1309 C1308 1.404 . S
C1309 H1321 0.930 . S
C1310 C1306 1.524 . S
C1310 H1322 0.956 . S
C1310 H1323 0.961 . S
C1310 H1324 0.961 . S
C1311 C1308 1.539 . S
C1311 H1325 0.958 . S
C1311 H1326 0.961 . S
C1311 H1327 0.960 . S
H1312 C1296 0.931 . S
H1313 C1301 0.929 . S
H1314 C1302 0.960 . S
H1315 C1302 0.962 . S
H1316 C1302 0.960 . S
H1317 C1303 0.961 . S
H1318 C1303 0.961 . S
H1319 C1303 0.961 . S
H1320 C1304 0.931 . S
H1321 C1309 0.930 . S
H1322 C1310 0.956 . S
H1323 C1310 0.961 . S
H1324 C1310 0.961 . S
H1325 C1311 0.958 . S
H1326 C1311 0.961 . S
H1327 C1311 0.960 . S
C561 C1 1.479 . S
C569 C499 1.474 . S
C593 C80 1.244 . S
C601 C502 1.237 . S
C633 C538 1.748 . S
C625 C140 1.771 . S
C657 C211 1.671 . S
C665 C558 1.659 . S
C697 C512 1.676 . S
C689 C31 1.689 . S
C729 C489 1.518 . S
C721 C61 1.526 . S
C761 C542 1.561 . S
C753 C151 1.605 . S
C793 C522 1.392 . S
C785 C200 1.487 . S
C817 C20 1.299 . S
C825 C552 1.321 . S
C857 C518 1.615 . S
C849 C121 1.615 . S
C881 C181 1.630 . S
C889 C484 1.589 . S
C913 C91 1.295 . S
C921 C532 1.297 . S
C953 C498 1.475 . S
C945 C260 1.496 . S
C977 C320 1.245 . S
C985 C504 1.237 . S
C1009 C361 1.744 . S
C1017 C539 1.747 . S
C1041 C451 1.638 . S
C1049 C559 1.643 . S
C1073 C271 1.692 . S
C1081 C509 1.678 . S
C1113 C492 1.502 . S
C1105 C301 1.501 . S
C1145 C544 1.553 . S
C1137 C380 1.628 . S
C1177 C524 1.385 . S
C1169 C440 1.490 . S
C1201 C241 1.311 . S
C1209 C549 1.319 . S
C1241 C519 1.622 . S
C1233 C391 1.603 . S
C1273 C482 1.580 . S
C1265 C421 1.586 . S
C1297 C331 1.330 . S
C1305 C529 1.314 . S
