# Generated by pormake.
# Topology zzz, (3,6)-cn, num edge types: 1
# Building blocks:
#     Node 0, Type 0, BuildingBlock: PAMTOO_clean_linker_0, # of connection points: 3
#     Node 1, Type 0, BuildingBlock: PAMTOO_clean_linker_0, # of connection points: 3
#     Node 2, Type 0, BuildingBlock: PAMTOO_clean_linker_0, # of connection points: 3
#     Node 3, Type 0, BuildingBlock: PAMTOO_clean_linker_0, # of connection points: 3
#     Node 4, Type 0, BuildingBlock: PAMTOO_clean_linker_0, # of connection points: 3
#     Node 5, Type 0, BuildingBlock: PAMTOO_clean_linker_0, # of connection points: 3
#     Node 6, Type 0, BuildingBlock: PAMTOO_clean_linker_0, # of connection points: 3
#     Node 7, Type 0, BuildingBlock: PAMTOO_clean_linker_0, # of connection points: 3
#     Node 8, Type 1, BuildingBlock: CUWYAW_clean_sbu_0, # of connection points: 6
#     Node 9, Type 1, BuildingBlock: CUWYAW_clean_sbu_0, # of connection points: 6
#     Node 10, Type 1, BuildingBlock: CUWYAW_clean_sbu_0, # of connection points: 6
#     Node 11, Type 1, BuildingBlock: CUWYAW_clean_sbu_0, # of connection points: 6
#     Edge 12, Type (0, 1), BuildingBlock: KIFKEQ_clean_linker_1, # of connection points: 2
#     Edge 13, Type (0, 1), BuildingBlock: KIFKEQ_clean_linker_1, # of connection points: 2
#     Edge 14, Type (0, 1), BuildingBlock: KIFKEQ_clean_linker_1, # of connection points: 2
#     Edge 15, Type (0, 1), BuildingBlock: KIFKEQ_clean_linker_1, # of connection points: 2
#     Edge 16, Type (0, 1), BuildingBlock: KIFKEQ_clean_linker_1, # of connection points: 2
#     Edge 17, Type (0, 1), BuildingBlock: KIFKEQ_clean_linker_1, # of connection points: 2
#     Edge 18, Type (0, 1), BuildingBlock: KIFKEQ_clean_linker_1, # of connection points: 2
#     Edge 19, Type (0, 1), BuildingBlock: KIFKEQ_clean_linker_1, # of connection points: 2
#     Edge 20, Type (0, 1), BuildingBlock: KIFKEQ_clean_linker_1, # of connection points: 2
#     Edge 21, Type (0, 1), BuildingBlock: KIFKEQ_clean_linker_1, # of connection points: 2
#     Edge 22, Type (0, 1), BuildingBlock: KIFKEQ_clean_linker_1, # of connection points: 2
#     Edge 23, Type (0, 1), BuildingBlock: KIFKEQ_clean_linker_1, # of connection points: 2
#     Edge 24, Type (0, 1), BuildingBlock: KIFKEQ_clean_linker_1, # of connection points: 2
#     Edge 25, Type (0, 1), BuildingBlock: KIFKEQ_clean_linker_1, # of connection points: 2
#     Edge 26, Type (0, 1), BuildingBlock: KIFKEQ_clean_linker_1, # of connection points: 2
#     Edge 27, Type (0, 1), BuildingBlock: KIFKEQ_clean_linker_1, # of connection points: 2
#     Edge 28, Type (0, 1), BuildingBlock: KIFKEQ_clean_linker_1, # of connection points: 2
#     Edge 29, Type (0, 1), BuildingBlock: KIFKEQ_clean_linker_1, # of connection points: 2
#     Edge 30, Type (0, 1), BuildingBlock: KIFKEQ_clean_linker_1, # of connection points: 2
#     Edge 31, Type (0, 1), BuildingBlock: KIFKEQ_clean_linker_1, # of connection points: 2
#     Edge 32, Type (0, 1), BuildingBlock: KIFKEQ_clean_linker_1, # of connection points: 2
#     Edge 33, Type (0, 1), BuildingBlock: KIFKEQ_clean_linker_1, # of connection points: 2
#     Edge 34, Type (0, 1), BuildingBlock: KIFKEQ_clean_linker_1, # of connection points: 2
#     Edge 35, Type (0, 1), BuildingBlock: KIFKEQ_clean_linker_1, # of connection points: 2
# Relax obj value: 0.255
# Max RMSD: 0.163
# Mean RMSD: 0.135
data_MOF--net-zzz--node1-CUWYAW_clean_sbu_0--node2-PAMTOO_clean_linker_0--edge1-KIFKEQ_clean_linker_1
_symmetry_space_group_name_H-M    P1
_symmetry_Int_Tables_number       1
_symmetry_cell_setting            triclinic
loop_
_symmetry_equiv_pos_as_xyz
'x, y, z'
_cell_length_a     51.829869
_cell_length_b     51.998986
_cell_length_c     14.279646
_cell_angle_alpha  89.908201
_cell_angle_beta   89.914881
_cell_angle_gamma 89.739767
loop_
_atom_site_label
_atom_site_type_symbol
_atom_site_fract_x
_atom_site_fract_y
_atom_site_fract_z
_atom_type_partial_charge
H0 H 0.82124 0.47281 0.42777 0.0
H1 H 0.75413 0.48235 0.25486 0.0
H2 H 0.77545 0.5417 0.45002 0.0
H3 H 0.71239 0.53643 0.41494 0.0
C4 C 0.71583 0.52307 0.35546 0.0
O5 O 0.74074 0.527 0.32247 0.0
H6 H 0.71362 0.50307 0.38219 0.0
C7 C 0.80403 0.48366 0.40943 0.0
C8 C 0.80025 0.50795 0.44939 0.0
C9 C 0.78775 0.47429 0.33912 0.0
C10 C 0.76649 0.48911 0.31071 0.0
C11 C 0.7614 0.51301 0.35256 0.0
C12 C 0.77865 0.52274 0.42081 0.0
H13 H 1.00543 0.81515 0.27114 0.0
H14 H 1.01814 0.7356 0.20806 0.0
H15 H 0.03367 0.76388 0.48545 0.0
H16 H 0.99725 0.70686 0.38886 0.0
C17 C 1.01787 0.70088 0.38357 0.0
O18 O 0.03373 0.72222 0.3721 0.0
H19 H 1.02263 0.69166 0.45164 0.0
C20 C 1.01041 0.79593 0.29475 0.0
C21 C 1.01968 0.79259 0.38639 0.0
C22 C 1.00977 0.77559 0.23025 0.0
C23 C 1.01739 0.75105 0.25866 0.0
C24 C 0.02502 0.74631 0.35082 0.0
C25 C 0.02624 0.76718 0.41561 0.0
H26 H 0.73974 0.97576 0.32532 0.0
H27 H 0.81948 0.978 0.24201 0.0
H28 H 0.79263 0.02472 0.47152 0.0
H29 H 0.84739 0.04864 0.36065 0.0
C30 C 0.84171 0.03322 0.31111 0.0
O31 O 0.83338 1.01219 0.3632 0.0
H32 H 0.82564 0.0414 0.26853 0.0
C33 C 0.75934 0.98228 0.33677 0.0
C34 C 0.76373 1.00011 0.40827 0.0
C35 C 0.77912 0.97449 0.27535 0.0
C36 C 0.80409 0.98396 0.28855 0.0
C37 C 0.80911 1.0023 0.35762 0.0
C38 C 0.7889 1.01035 0.41849 0.0
H39 H 0.47888 0.7334 0.39637 0.0
H40 H 0.48898 0.79804 0.2127 0.0
H41 H 0.5504 0.77503 0.39837 0.0
H42 H 0.54842 0.83818 0.34996 0.0
C43 C 0.53347 0.83469 0.2958 0.0
O44 O 0.53543 0.80916 0.2676 0.0
H45 H 0.51432 0.83848 0.32858 0.0
C46 C 0.49027 0.74974 0.37373 0.0
C47 C 0.51537 0.75238 0.40851 0.0
C48 C 0.48063 0.76584 0.30295 0.0
C49 C 0.49601 0.7859 0.26896 0.0
C50 C 0.52084 0.78991 0.30486 0.0
C51 C 0.53081 0.77276 0.37366 0.0
H52 H 0.23802 0.57473 0.13749 0.0
H53 H 0.30656 0.56818 0.30482 0.0
H54 H 0.28579 0.50722 0.11573 0.0
H55 H 0.34672 0.54491 0.16477 0.0
C56 C 0.34542 0.52663 0.20531 0.0
O57 O 0.32059 0.52342 0.24018 0.0
H58 H 0.34981 0.51058 0.1565 0.0
C59 C 0.25574 0.56459 0.15473 0.0
C60 C 0.26004 0.54024 0.11597 0.0
C61 C 0.27212 0.57477 0.22324 0.0
C62 C 0.29414 0.56086 0.2501 0.0
C63 C 0.29969 0.53691 0.20938 0.0
C64 C 0.28228 0.52628 0.14353 0.0
H65 H 0.97482 0.23323 0.12297 0.0
H66 H 0.9834 0.30027 0.29513 0.0
H67 H 0.04442 0.27782 0.10619 0.0
H68 H 1.00798 0.34012 0.16186 0.0
C69 C 0.02618 0.33799 0.20267 0.0
O70 O 0.02892 0.31273 0.23395 0.0
H71 H 0.04241 0.34241 0.15454 0.0
C72 C 0.9857 0.25024 0.1418 0.0
C73 C 1.01038 0.25353 0.10365 0.0
C74 C 0.97588 0.26673 0.21091 0.0
C75 C 0.99055 0.28783 0.23995 0.0
C76 C 1.01489 0.29254 0.20063 0.0
C77 C 0.02514 0.27499 0.13349 0.0
H78 H 0.32339 0.07793 0.12678 0.0
H79 H 0.24599 0.07811 0.23594 0.0
H80 H 0.26875 1.02255 0.02795 0.0
H81 H 0.2388 1.01966 0.26103 0.0
C82 C 0.22383 1.0207 0.20524 0.0
O83 O 0.23014 0.03922 0.13873 0.0
H84 H 0.22368 1.00169 0.16984 0.0
C85 C 0.30372 0.07092 0.12536 0.0
C86 C 0.2982 0.0501 0.06694 0.0
C87 C 0.2853 0.0809 0.18819 0.0
C88 C 0.26032 0.07068 0.18788 0.0
C89 C 0.25417 0.04961 0.13126 0.0
C90 C 0.27323 0.03915 0.07051 0.0
H91 H 0.57289 0.31035 0.16386 0.0
H92 H 0.55674 0.23793 0.29758 0.0
H93 H 0.50146 0.27173 0.10922 0.0
H94 H 0.52981 0.20569 0.14441 0.0
C95 C 0.51303 0.2077 0.19282 0.0
O96 O 0.51132 0.23266 0.22687 0.0
H97 H 0.49549 0.20365 0.15091 0.0
C98 C 0.56096 0.29341 0.17139 0.0
C99 C 0.53711 0.29308 0.12505 0.0
C100 C 0.56828 0.27394 0.23476 0.0
C101 C 0.55172 0.253 0.24827 0.0
C102 C 0.52782 0.2519 0.20304 0.0
C103 C 0.52032 0.27211 0.1417 0.0
C104 C 0.9928 0.05417 0.49698 0.0
Eu105 Eu 1.01113 0.03437 0.64975 0.0
C106 C 0.97396 0.07495 0.48086 0.0
C107 C 0.95689 0.07386 0.40498 0.0
C108 C 0.9399 0.09431 0.38743 0.0
C109 C 0.93993 0.1163 0.44511 0.0
C110 C 0.95618 0.11651 0.52402 0.0
C111 C 0.97283 0.096 0.54202 0.0
C112 C 0.9794 0.0271 0.80158 0.0
C113 C 0.03037 0.07788 0.80235 0.0
C114 C 0.06802 0.99322 0.93989 0.0
Eu115 Eu 0.04571 1.01847 0.80633 0.0
C116 C 0.06502 0.96545 0.95856 0.0
C117 C 0.08333 0.94792 0.92316 0.0
C118 C 0.07726 0.92189 0.91468 0.0
C119 C 0.05284 0.91301 0.94189 0.0
C120 C 0.03546 0.93011 0.98483 0.0
C121 C 0.0415 0.95605 0.99339 0.0
C122 C 0.07126 0.03564 0.65113 0.0
C123 C 1.02373 0.97374 0.66524 0.0
O124 O 1.01487 0.06117 0.53379 0.0
O125 O 0.98353 0.03317 0.53469 0.0
O126 O 0.97179 0.03352 0.71877 0.0
O127 O 1.00364 0.02413 0.80046 0.0
O128 O 1.02212 0.07313 0.71608 0.0
O129 O 0.03834 0.05895 0.85706 0.0
O130 O 0.04756 1.00761 0.95372 0.0
O131 O 0.07962 0.99874 0.86111 0.0
O132 O 0.07681 0.04225 0.73638 0.0
O133 O 0.05192 1.02084 0.65181 0.0
O134 O 0.03306 0.97924 0.74912 0.0
O135 O 1.01596 0.99239 0.60876 0.0
H136 H 0.95709 0.05746 0.35825 0.0
H137 H 0.92734 0.09322 0.32705 0.0
H138 H 0.9572 0.13312 0.56946 0.0
H139 H 0.98544 0.09702 0.6023 0.0
H140 H 0.10166 0.95461 0.89604 0.0
H141 H 0.09112 0.90901 0.88235 0.0
H142 H 1.01682 0.92355 1.00939 0.0
H143 H 0.02701 0.96891 0.02198 0.0
C144 C 0.49656 1.00353 0.48584 0.0
Eu145 Eu 0.52072 1.0069 0.64261 0.0
C146 C 0.47129 1.01556 0.46532 0.0
C147 C 0.44891 1.00633 0.50949 0.0
C148 C 0.42625 1.02076 0.5089 0.0
C149 C 0.42514 0.04465 0.46285 0.0
C150 C 0.44712 0.05325 0.41415 0.0
C151 C 0.46998 0.03887 0.41556 0.0
C152 C 0.53247 0.97126 0.77877 0.0
C153 C 0.47874 0.02462 0.81001 0.0
C154 C 0.5651 0.04018 0.99081 0.0
Eu155 Eu 0.53969 0.03439 0.83769 0.0
C156 C 0.59181 0.03103 1.00616 0.0
C157 C 0.6126 0.04468 0.96709 0.0
C158 C 0.63683 0.03322 0.95888 0.0
C159 C 0.64104 1.00798 0.99082 0.0
C160 C 0.62073 0.99502 0.03598 0.0
C161 C 0.59636 1.00641 0.04344 0.0
C162 C 0.52641 0.06951 0.70119 0.0
C163 C 0.58192 1.01658 0.67101 0.0
O164 O 0.51573 1.01954 0.49812 0.0
O165 O 0.49635 0.98502 0.54837 0.0
O166 O 0.52608 0.96527 0.69344 0.0
O167 O 0.53337 0.99551 0.78283 0.0
O168 O 0.48353 1.0186 0.72071 0.0
O169 O 0.49735 0.02944 0.87146 0.0
O170 O 0.54762 1.02222 0.98098 0.0
O171 O 0.5625 0.0587 0.9291 0.0
O172 O 0.53218 0.07591 0.78661 0.0
O173 O 0.52725 0.04533 0.69795 0.0
O174 O 0.57709 0.02355 0.75929 0.0
O175 O 0.56334 1.01078 0.61056 0.0
H176 H 0.44913 0.98855 0.54911 0.0
H177 H 0.4099 1.01354 0.54803 0.0
H178 H 0.44678 0.07119 0.37557 0.0
H179 H 0.48693 0.0465 0.38098 0.0
H180 H 0.60987 0.0637 0.93762 0.0
H181 H 0.6519 0.04383 0.92348 0.0
H182 H 0.62351 0.97593 0.06467 0.0
H183 H 0.5808 0.99544 0.07441 0.0
C184 C 0.56863 0.49607 0.56611 0.0
Eu185 Eu 0.54661 0.51841 0.70896 0.0
C186 C 0.57562 0.46917 0.54772 0.0
C187 C 0.59791 0.46298 0.49668 0.0
C188 C 0.60553 0.43724 0.48642 0.0
C189 C 0.59126 0.41738 0.52912 0.0
C190 C 0.56919 0.42402 0.5815 0.0
C191 C 0.56117 0.44948 0.58855 0.0
C192 C 0.57376 0.53437 0.86155 0.0
C193 C 0.52546 0.47416 0.85645 0.0
C194 C 0.49712 0.55468 0.02918 0.0
Eu195 Eu 0.51363 0.5351 0.87347 0.0
C196 C 0.47853 0.57551 0.04772 0.0
C197 C 0.46189 0.57424 0.12502 0.0
C198 C 0.44463 0.59442 0.14332 0.0
C199 C 0.44392 0.61629 0.08482 0.0
C200 C 0.45988 0.61675 1.00499 0.0
C201 C 0.47682 0.59653 0.98634 0.0
C202 C 0.48099 0.52988 0.72377 0.0
C203 C 0.53194 0.57796 0.71781 0.0
O204 O 0.54393 0.50131 0.56998 0.0
O205 O 0.58143 0.50677 0.63417 0.0
O206 O 0.57897 0.54086 0.77585 0.0
O207 O 0.5539 0.52028 0.8632 0.0
O208 O 0.53634 0.47947 0.77454 0.0
O209 O 0.51664 0.49274 0.91107 0.0
O210 O 0.51891 0.56157 0.98944 0.0
O211 O 0.48732 0.53384 0.99255 0.0
O212 O 0.47389 0.53622 0.8073 0.0
O213 O 0.50508 0.52604 0.72368 0.0
O214 O 0.52558 0.57351 0.8065 0.0
O215 O 0.53771 0.5588 0.66081 0.0
H216 H 0.6094 0.47802 0.46495 0.0
H217 H 0.62233 0.43299 0.44401 0.0
H218 H 0.55792 0.40959 0.61752 0.0
H219 H 0.54369 0.4538 0.62679 0.0
H220 H 0.46251 0.55786 0.17197 0.0
H221 H 0.43235 0.59319 0.20458 0.0
H222 H 0.46034 0.63332 0.95901 0.0
H223 H 0.48908 0.59768 0.92499 0.0
C224 C 0.0563 0.55238 0.53879 0.0
Eu225 Eu 0.03835 0.53697 0.69841 0.0
C226 C 0.07756 0.57004 0.51653 0.0
C227 C 0.0761 0.58645 0.43875 0.0
C228 C 0.0967 0.60279 0.41714 0.0
C229 C 0.11917 0.60279 0.47274 0.0
C230 C 0.11992 0.587 0.55282 0.0
C231 C 0.0993 0.571 0.5748 0.0
C232 C 0.03338 0.56882 0.85279 0.0
C233 C 0.08208 0.51767 0.84877 0.0
C234 C 1.00297 0.4895 0.04097 0.0
Eu235 Eu 1.02095 0.50476 0.88134 0.0
C236 C 0.98159 0.47189 0.06201 0.0
C237 C 0.98251 0.4556 0.14024 0.0
C238 C 0.96174 0.43935 0.16042 0.0
C239 C 0.93963 0.43932 0.10293 0.0
C240 C 0.93947 0.45493 0.02234 0.0
C241 C 0.96027 0.47083 1.0018 0.0
C242 C 0.02544 0.47265 0.72793 0.0
C243 C 0.97731 0.52428 0.73029 0.0
O244 O 0.06305 0.53045 0.57769 0.0
O245 O 0.03609 0.56297 0.57868 0.0
O246 O 0.03948 0.57654 0.76939 0.0
O247 O 0.03016 0.54483 0.84767 0.0
O248 O 0.07692 0.52542 0.76211 0.0
O249 O 0.06367 0.5113 0.90927 0.0
O250 O 0.99636 0.51149 1.0022 0.0
O251 O 1.0232 0.47887 1.00136 0.0
O252 O 1.01926 0.46526 0.81159 0.0
O253 O 0.02913 0.49665 0.73165 0.0
O254 O 0.98237 0.51654 0.81715 0.0
O255 O 0.9958 0.53043 0.66993 0.0
H256 H 0.05922 0.58639 0.39408 0.0
H257 H 0.09525 0.61497 0.3558 0.0
H258 H 0.13693 0.586 0.59662 0.0
H259 H 0.10066 0.55889 0.63638 0.0
H260 H 0.9991 0.45573 0.18635 0.0
H261 H 0.96274 0.4273 0.22221 0.0
H262 H 0.92276 0.45593 0.97704 0.0
H263 H 0.95934 0.48281 0.9398 0.0
H264 H 0.18462 0.98657 0.23932 0.0
H265 H 0.20511 0.06574 0.28537 0.0
H266 H 0.14645 0.99205 0.33738 0.0
H267 H 0.1666 0.07159 0.38202 0.0
H268 H 0.11684 0.06176 0.64908 0.0
H269 H 0.15122 0.05999 0.53281 0.0
H270 H 0.10457 1.01028 0.36076 0.0
H271 H 0.07029 1.01168 0.47901 0.0
C272 C 0.18061 1.0054 0.26836 0.0
C273 C 0.19787 0.02582 0.25286 0.0
C274 C 0.15859 1.00859 0.32482 0.0
C275 C 0.15318 0.03228 0.36862 0.0
C276 C 0.17012 0.05292 0.35094 0.0
C277 C 0.19217 0.04969 0.29437 0.0
C278 C 0.11376 0.05066 0.58597 0.0
C279 C 0.09077 0.03677 0.57388 0.0
C280 C 0.13352 0.04975 0.51862 0.0
C281 C 0.13099 0.0349 0.43666 0.0
C282 C 0.10756 1.02164 0.42326 0.0
C283 C 0.08774 1.02259 0.49081 0.0
H284 H 0.48052 0.20088 0.34424 0.0
H285 H 0.54892 0.16897 0.21695 0.0
H286 H 0.48144 0.16684 0.46326 0.0
H287 H 0.55017 0.13516 0.33587 0.0
H288 H 0.5337 0.06382 0.51089 0.0
H289 H 0.52894 0.09659 0.38878 0.0
H290 H 0.50497 0.15164 0.59801 0.0
H291 H 0.50884 0.11854 0.71857 0.0
C292 C 0.49597 0.1868 0.34257 0.0
C293 C 0.51485 0.18794 0.27184 0.0
C294 C 0.49652 0.1672 0.41075 0.0
C295 C 0.51585 0.14798 0.40969 0.0
C296 C 0.53474 0.14925 0.33873 0.0
C297 C 0.53423 0.16887 0.27095 0.0
C298 C 0.52648 0.0826 0.53011 0.0
C299 C 0.52099 0.08826 0.62423 0.0
C300 C 0.5243 0.10168 0.46036 0.0
C301 C 0.51663 0.12703 0.48288 0.0
C302 C 0.5106 0.13242 0.57707 0.0
C303 C 0.5129 0.11339 0.64655 0.0
H304 H 0.39219 0.55112 0.2066 0.0
H305 H 0.34541 0.50071 0.37565 0.0
H306 H 0.42593 0.55033 0.32649 0.0
H307 H 0.37906 0.4998 0.49539 0.0
H308 H 0.42901 0.53038 0.73492 0.0
H309 H 0.39739 0.52881 0.60999 0.0
H310 H 0.4587 0.52291 0.40601 0.0
H311 H 0.49079 0.52461 0.53312 0.0
C312 C 0.38902 0.54004 0.26986 0.0
C313 C 0.36567 0.52669 0.28277 0.0
C314 C 0.40851 0.53934 0.33817 0.0
C315 C 0.40527 0.52518 0.42142 0.0
C316 C 0.38213 0.51133 0.43319 0.0
C317 C 0.36273 0.51189 0.36457 0.0
C318 C 0.43589 0.52857 0.66354 0.0
C319 C 0.46251 0.52754 0.64426 0.0
C320 C 0.41763 0.52752 0.59162 0.0
C321 C 0.42531 0.52559 0.49745 0.0
C322 C 0.45203 0.52453 0.47765 0.0
C323 C 0.47044 0.52533 0.55038 0.0
H324 H 1.00265 0.38537 0.20693 0.0
H325 H 0.05151 0.33648 0.37496 0.0
H326 H 1.00419 0.41869 0.32766 0.0
H327 H 0.05327 0.36978 0.49564 0.0
H328 H 0.02558 0.42087 0.7371 0.0
H329 H 0.02644 0.38945 0.61202 0.0
H330 H 0.03089 0.45066 0.40807 0.0
H331 H 0.02982 0.4826 0.53573 0.0
C332 C 1.01353 0.3816 0.27026 0.0
C333 C 0.02623 0.35777 0.28225 0.0
C334 C 1.01468 0.40092 0.33916 0.0
C335 C 0.0287 0.39712 0.42251 0.0
C336 C 0.04183 0.37341 0.4336 0.0
C337 C 0.04079 0.35416 0.36434 0.0
C338 C 0.02694 0.42781 0.6657 0.0
C339 C 0.02771 0.45441 0.64699 0.0
C340 C 0.0276 0.40962 0.59347 0.0
C341 C 0.02888 0.41721 0.49905 0.0
C342 C 0.02975 0.44393 0.47974 0.0
C343 C 0.02934 0.46232 0.55287 0.0
H344 H 0.89345 0.04549 0.3295 0.0
H345 H 0.84073 1.00747 0.14292 0.0
H346 H 0.92788 0.04141 0.21265 0.0
H347 H 0.8752 1.00202 0.0284 0.0
H348 H 0.92746 0.03031 0.79555 0.0
H349 H 0.89645 0.02866 0.92189 0.0
H350 H 0.95815 1.01622 0.12015 0.0
H351 H 0.98974 1.01847 0.9911 0.0
C352 C 0.88939 0.03559 0.26452 0.0
C353 C 0.86425 0.0267 0.24594 0.0
C354 C 0.90921 0.03316 0.19736 0.0
C355 C 0.90451 1.02167 0.10965 0.0
C356 C 0.87966 1.01153 0.09375 0.0
C357 C 0.85985 1.0142 0.16034 0.0
C358 C 0.93459 0.02704 0.86588 0.0
C359 C 0.96122 0.02448 0.88264 0.0
C360 C 0.91661 0.02586 0.93893 0.0
C361 C 0.92445 1.02199 0.03225 0.0
C362 C 0.95121 1.01932 0.04954 0.0
C363 C 0.96939 1.02045 0.97553 0.0
H364 H 0.51419 0.83207 0.11458 0.0
H365 H 0.55818 0.88125 0.29632 0.0
H366 H 0.51553 0.865 0.99191 0.0
H367 H 0.55984 0.91411 0.17391 0.0
H368 H 0.53064 0.97815 0.97101 0.0
H369 H 0.53293 0.94519 0.09324 0.0
H370 H 0.54287 0.88689 0.88114 0.0
H371 H 0.54084 0.91995 0.76 0.0
C372 C 0.52464 0.84968 0.12764 0.0
C373 C 0.53668 0.85364 0.21464 0.0
C374 C 0.52541 0.86868 0.05724 0.0
C375 C 0.5379 0.89242 0.07214 0.0
C376 C 0.54987 0.89631 0.15945 0.0
C377 C 0.5492 0.87728 0.22949 0.0
C378 C 0.53415 0.95848 0.95076 0.0
C379 C 0.53614 0.95194 0.85557 0.0
C380 C 0.53522 0.93939 0.02092 0.0
C381 C 0.53801 0.91311 0.99778 0.0
C382 C 0.54033 0.90672 0.90233 0.0
C383 C 0.53938 0.92579 0.8326 0.0
H384 H 0.71938 0.51725 0.16156 0.0
H385 H 0.66539 0.53656 0.38068 0.0
H386 H 0.68484 0.5211 0.04546 0.0
H387 H 0.63081 0.54038 0.26505 0.0
H388 H 0.57056 0.51554 0.04157 0.0
H389 H 0.60478 0.51379 0.15985 0.0
H390 H 0.65635 0.55282 0.96981 0.0
H391 H 0.62228 0.55449 0.85217 0.0
C392 C 0.70025 0.52279 0.18481 0.0
C393 C 0.69536 0.52737 0.28033 0.0
C394 C 0.68037 0.52496 0.1182 0.0
C395 C 0.65491 0.5312 0.14541 0.0
C396 C 0.65004 0.53543 0.24116 0.0
C397 C 0.66994 0.5335 0.30746 0.0
C398 C 0.58914 0.52395 0.0255 0.0
C399 C 0.59362 0.53511 0.93722 0.0
C400 C 0.60879 0.523 0.09337 0.0
C401 C 0.63354 0.533 0.07451 0.0
C402 C 0.63777 0.54455 0.98664 0.0
C403 C 0.6181 0.54569 0.91928 0.0
H404 H 0.05108 0.65897 0.37267 0.0
H405 H 0.99118 0.69765 0.21716 0.0
H406 H 0.05394 0.62587 0.25013 0.0
H407 H 0.99433 0.66512 0.09423 0.0
H408 H 0.02856 0.62047 0.84587 0.0
H409 H 0.02528 0.65129 0.97306 0.0
H410 H 0.02829 0.58929 0.17398 0.0
H411 H 0.03138 0.55796 0.04445 0.0
C412 C 0.03871 0.66056 0.31187 0.0
C413 C 1.0211 0.68123 0.30443 0.0
C414 C 0.04017 0.64144 0.24198 0.0
C415 C 1.02438 0.64267 0.16174 0.0
C416 C 1.00701 0.66354 0.15418 0.0
C417 C 1.00529 0.68237 0.22454 0.0
C418 C 0.02833 0.61323 0.91705 0.0
C419 C 0.03007 0.58661 0.9345 0.0
C420 C 0.02636 0.63103 0.99034 0.0
C421 C 0.02641 0.62299 0.0844 0.0
C422 C 0.0283 0.59628 0.10251 0.0
C423 C 0.02986 0.57827 0.02836 0.0
H424 H 0.92864 0.2535 0.14147 0.0
H425 H 0.97197 0.25902 0.39817 0.0
H426 H 0.90193 0.21997 0.21091 0.0
H427 H 0.94572 0.22553 0.46717 0.0
H428 H 0.91676 0.15308 0.557 0.0
H429 H 0.90919 0.19788 0.51303 0.0
H430 H 0.92461 0.17869 0.22404 0.0
H431 H 0.93295 0.13473 0.26753 0.0
C432 C 0.93147 0.24857 0.21451 0.0
C433 C 0.95286 0.25813 0.26357 0.0
C434 C 0.91626 0.22929 0.25416 0.0
C435 C 0.92244 0.21933 0.34297 0.0
C436 C 0.94057 0.23249 0.39813 0.0
C437 C 0.95572 0.25182 0.35854 0.0
C438 C 0.91792 0.15834 0.48372 0.0
C439 C 0.92646 0.14043 0.41638 0.0
C440 C 0.91332 0.18397 0.45857 0.0
C441 C 0.91683 0.19201 0.36547 0.0
C442 C 0.92161 0.17328 0.29651 0.0
C443 C 0.9265 0.14781 0.32169 0.0
H444 H 0.31985 0.12107 0.18475 0.0
H445 H 0.27183 0.07738 0.37368 0.0
H446 H 0.35262 0.12406 0.30491 0.0
H447 H 0.3037 0.08217 0.49571 0.0
H448 H 0.3758 0.02669 0.45927 0.0
H449 H 0.33649 0.05073 0.44439 0.0
H450 H 0.37919 0.12195 0.44872 0.0
H451 H 0.41928 0.09745 0.46828 0.0
C452 C 0.31553 0.11354 0.25378 0.0
C453 C 0.2944 0.09706 0.26727 0.0
C454 C 0.33429 0.1155 0.32342 0.0
C455 C 0.33144 0.1015 0.40706 0.0
C456 C 0.30687 0.09194 0.42963 0.0
C457 C 0.28845 0.08929 0.35919 0.0
C458 C 0.37699 0.04746 0.46105 0.0
C459 C 0.40089 0.06001 0.46375 0.0
C460 C 0.35421 0.06143 0.45313 0.0
C461 C 0.35457 0.08842 0.44588 0.0
C462 C 0.37828 0.10119 0.45426 0.0
C463 C 0.40124 0.08711 0.46377 0.0
H464 H 0.61527 0.29684 0.19869 0.0
H465 H 0.57082 0.2628 0.42281 0.0
H466 H 0.63405 0.32675 0.30951 0.0
H467 H 0.5912 0.29123 0.53353 0.0
H468 H 0.55817 0.37681 0.5178 0.0
H469 H 0.56765 0.33279 0.48451 0.0
H470 H 0.64886 0.35009 0.46299 0.0
H471 H 0.63956 0.39498 0.50437 0.0
C472 C 0.61063 0.29466 0.27227 0.0
C473 C 0.58994 0.27899 0.30065 0.0
C474 C 0.62178 0.31159 0.33621 0.0
C475 C 0.61266 0.31229 0.42877 0.0
C476 C 0.59771 0.29166 0.46137 0.0
C477 C 0.58594 0.27528 0.39722 0.0
C478 C 0.57827 0.37142 0.51095 0.0
C479 C 0.59805 0.38978 0.51478 0.0
C480 C 0.58376 0.34586 0.49175 0.0
C481 C 0.60913 0.33778 0.47302 0.0
C482 C 0.62919 0.35577 0.47862 0.0
C483 C 0.62373 0.38152 0.50063 0.0
H484 H 0.26531 0.57712 0.4113 0.0
H485 H 0.25536 0.62144 0.15829 0.0
H486 H 0.23012 0.60055 0.48406 0.0
H487 H 0.21997 0.64518 0.23136 0.0
H488 H 0.1368 0.60924 0.29374 0.0
H489 H 0.18031 0.61916 0.24672 0.0
H490 H 0.20038 0.6357 0.53377 0.0
H491 H 0.15606 0.62657 0.58125 0.0
C492 C 0.25672 0.59305 0.37331 0.0
C493 C 0.26239 0.5969 0.27822 0.0
C494 C 0.23639 0.60654 0.41503 0.0
C495 C 0.22158 0.62399 0.36193 0.0
C496 C 0.23063 0.63133 0.27303 0.0
C497 C 0.25098 0.61785 0.23137 0.0
C498 C 0.14996 0.61619 0.34668 0.0
C499 C 0.14302 0.61628 0.44183 0.0
C500 C 0.17511 0.622 0.31949 0.0
C501 C 0.194 0.62779 0.38685 0.0
C502 C 0.18634 0.63092 0.48052 0.0
C503 C 0.161 0.62542 0.50766 0.0
H504 H 0.0397 0.76018 0.0829 0.0
H505 H 0.97193 0.80498 0.15057 0.0
H506 H 0.04645 0.78613 0.9436 0.0
H507 H 0.97933 0.83178 0.01512 0.0
H508 H 1.00727 0.8957 0.8707 0.0
H509 H 0.99136 0.85166 0.87413 0.0
H510 H 0.06528 0.82614 0.98114 0.0
H511 H 0.08115 0.86969 0.97405 0.0
C512 C 0.02546 0.77473 0.06561 0.0
C513 C 1.00609 0.78162 0.12992 0.0
C514 C 0.02945 0.78977 0.9859 0.0
C515 C 1.01457 0.81212 0.97194 0.0
C516 C 0.99181 0.81524 0.02484 0.0
C517 C 0.98759 0.79998 0.10354 0.0
C518 C 1.02021 0.88044 0.89286 0.0
C519 C 0.04512 0.8861 0.92542 0.0
C520 C 1.01119 0.85522 0.89392 0.0
C521 C 0.02666 0.83538 0.93062 0.0
C522 C 0.05264 0.84074 0.95222 0.0
C523 C 0.06177 0.86588 0.94947 0.0
H524 H 0.79518 0.98599 0.09776 0.0
H525 H 0.74632 0.93369 0.2512 0.0
H526 H 0.7665 0.98336 0.96441 0.0
H527 H 0.71693 0.93219 0.1198 0.0
H528 H 0.65225 0.95707 0.95489 0.0
H529 H 0.69433 0.936 0.96906 0.0
H530 H 0.72971 1.0102 0.01144 0.0
H531 H 0.68831 0.03078 1.0014 0.0
C532 C 0.77916 0.97272 0.10147 0.0
C533 C 0.77194 0.96139 0.18701 0.0
C534 C 0.76261 0.97128 0.02467 0.0
C535 C 0.73856 0.95918 0.0345 0.0
C536 C 0.73485 0.94255 0.11107 0.0
C537 C 0.75164 0.94358 0.18722 0.0
C538 C 0.66913 0.96884 0.96623 0.0
C539 C 0.66675 0.99556 0.98012 0.0
C540 C 0.69325 0.95678 0.97262 0.0
C541 C 0.7154 0.9713 0.99203 0.0
C542 C 0.71324 0.99828 0.99514 0.0
C543 C 0.68924 1.01022 0.99009 0.0
H544 H 0.47486 0.75773 0.11659 0.0
H545 H 0.4336 0.75397 0.37874 0.0
H546 H 0.44749 0.72452 0.05299 0.0
H547 H 0.4058 0.7206 0.31476 0.0
H548 H 0.43729 0.63517 0.26172 0.0
H549 H 0.42831 0.67916 0.30276 0.0
H550 H 0.41072 0.69665 0.0139 0.0
H551 H 0.41901 0.65182 0.97256 0.0
C552 C 0.45884 0.75099 0.1587 0.0
C553 C 0.45695 0.75762 0.25365 0.0
C554 C 0.44302 0.73182 0.12216 0.0
C555 C 0.42522 0.7191 0.18044 0.0
C556 C 0.4199 0.72954 0.26918 0.0
C557 C 0.43575 0.74871 0.30574 0.0
C558 C 0.43023 0.64787 0.20727 0.0
C559 C 0.42987 0.64009 0.11313 0.0
C560 C 0.42494 0.67335 0.23102 0.0
C561 C 0.41945 0.69166 0.16106 0.0
C562 C 0.41543 0.68309 0.06901 0.0
C563 C 0.42045 0.65745 0.04534 0.0
H564 H 0.7958 0.47129 0.15178 0.0
H565 H 0.80147 0.42695 0.40644 0.0
H566 H 0.82997 0.44563 0.08246 0.0
H567 H 0.83581 0.40099 0.3369 0.0
H568 H 0.92099 0.43341 0.28087 0.0
H569 H 0.87691 0.42509 0.3246 0.0
H570 H 0.85803 0.40848 0.03656 0.0
H571 H 0.90293 0.41587 0.99247 0.0
C572 C 0.80318 0.45496 0.19079 0.0
C573 C 0.7967 0.45162 0.28542 0.0
C574 C 0.8229 0.44017 0.15105 0.0
C575 C 0.83628 0.42195 0.20576 0.0
C576 C 0.82625 0.41535 0.29401 0.0
C577 C 0.80652 0.43013 0.33369 0.0
C578 C 0.90795 0.42671 0.2271 0.0
C579 C 0.91544 0.42622 0.13251 0.0
C580 C 0.88245 0.42184 0.2524 0.0
C581 C 0.86378 0.41663 0.18363 0.0
C582 C 0.87191 0.41286 0.09081 0.0
C583 C 0.89759 0.41738 0.0656 0.0
H584 H 0.05246 0.22145 0.12639 0.0
H585 H 0.9884 0.23637 0.94224 0.0
H586 H 0.06016 0.18021 0.0477 0.0
H587 H 0.99532 0.19517 0.86555 0.0
H588 H 1.01842 0.123 0.70904 0.0
H589 H 1.01822 0.16687 0.76938 0.0
H590 H 0.04226 0.13859 0.04022 0.0
H591 H 0.04318 0.09491 0.97892 0.0
C592 C 0.04055 0.21634 0.06706 0.0
C593 C 1.02003 0.23251 0.04005 0.0
C594 C 0.04458 0.19234 0.02289 0.0
C595 C 0.02816 0.18375 0.95035 0.0
C596 C 1.00865 0.2008 0.91998 0.0
C597 C 1.00468 0.22465 0.96398 0.0
C598 C 1.0238 0.12609 0.78138 0.0
C599 C 0.03074 0.10509 0.83872 0.0
C600 C 1.02357 0.15143 0.81649 0.0
C601 C 0.03017 0.15676 0.91046 0.0
C602 C 0.03745 0.13571 0.96726 0.0
C603 C 0.03777 0.11041 0.93206 0.0
H604 H 0.33226 1.01287 0.12003 0.0
H605 H 0.31577 0.06574 0.8956 0.0
H606 H 0.37521 1.0048 0.0543 0.0
H607 H 0.35873 0.0579 0.82928 0.0
H608 H 0.43455 0.02635 0.70318 0.0
H609 H 0.38963 0.02856 0.75524 0.0
H610 H 0.41514 0.0289 0.04285 0.0
H611 H 0.45993 0.02645 0.99056 0.0
C612 C 0.33747 1.02198 0.05442 0.0
C613 C 0.32026 0.03934 0.01153 0.0
C614 C 0.36233 1.01778 0.01756 0.0
C615 C 0.37081 0.03088 0.93665 0.0
C616 C 0.353 0.04722 0.89101 0.0
C617 C 0.3282 0.05157 0.92847 0.0
C618 C 0.43061 0.02673 0.77748 0.0
C619 C 0.45111 0.02613 0.84222 0.0
C620 C 0.40474 0.02815 0.80755 0.0
C621 C 0.39845 0.02875 0.90363 0.0
C622 C 0.41899 0.02805 0.96836 0.0
C623 C 0.44484 0.02688 0.93822 0.0
H624 H 0.56509 0.31484 0.9844 0.0
H625 H 0.49458 0.32511 0.14021 0.0
H626 H 0.56034 0.35754 0.91734 0.0
H627 H 0.48913 0.36801 0.07053 0.0
H628 H 0.50674 0.45501 0.02418 0.0
H629 H 0.50631 0.41047 0.07899 0.0
H630 H 0.53966 0.38597 0.81637 0.0
H631 H 0.54097 0.43033 0.76409 0.0
C632 C 0.54806 0.32599 1.00211 0.0
C633 C 0.53014 0.31633 0.06738 0.0
C634 C 0.54528 0.35067 0.96344 0.0
C635 C 0.5244 0.36675 0.98836 0.0
C636 C 0.50573 0.35657 0.05035 0.0
C637 C 0.50854 0.33171 0.08917 0.0
C638 C 0.51394 0.44013 0.97792 0.0
C639 C 0.524 0.44662 0.88917 0.0
C640 C 0.51349 0.41438 1.00922 0.0
C641 C 0.52303 0.39418 0.95278 0.0
C642 C 0.53253 0.40072 0.86329 0.0
C643 C 0.53311 0.4264 0.83248 0.0
H644 H 0.24098 0.56049 0.9544 0.0
H645 H 0.23004 0.49774 0.14742 0.0
H646 H 0.19905 0.5521 0.88462 0.0
H647 H 0.18803 0.48868 0.07617 0.0
H648 H 0.10131 0.507 0.02454 0.0
H649 H 0.14603 0.5079 0.07693 0.0
H650 H 0.17063 0.52656 0.79591 0.0
H651 H 0.12588 0.52631 0.74415 0.0
C652 C 0.22999 0.54416 0.97934 0.0
C653 C 0.23904 0.52961 0.05583 0.0
C654 C 0.20577 0.53936 0.93952 0.0
C655 C 0.18969 0.51986 0.97509 0.0
C656 C 0.19953 0.50417 0.04771 0.0
C657 C 0.22389 0.50899 0.08751 0.0
C658 C 0.11623 0.51116 0.9736 0.0
C659 C 0.10971 0.51677 0.88 0.0
C660 C 0.14206 0.51147 1.00363 0.0
C661 C 0.16228 0.51733 0.94105 0.0
C662 C 0.15576 0.52233 0.8469 0.0
C663 C 0.12994 0.52209 0.81695 0.0
H664 H 0.04529 0.83552 0.33023 0.0
H665 H 1.00445 0.80523 0.56913 0.0
H666 H 0.04593 0.87791 0.40165 0.0
H667 H 1.00581 0.84818 0.64303 0.0
H668 H 0.03572 0.92925 0.76282 0.0
H669 H 0.03658 0.88465 0.70535 0.0
H670 H 1.01132 0.91101 0.4344 0.0
H671 H 1.01061 0.95528 0.49099 0.0
C672 C 0.03669 0.83779 0.39894 0.0
C673 C 1.02445 0.81676 0.44285 0.0
C674 C 0.03695 0.8623 0.4398 0.0
C675 C 0.02543 0.86686 0.5274 0.0
C676 C 1.01475 0.84552 0.5751 0.0
C677 C 1.01411 0.8208 0.53309 0.0
C678 C 0.03015 0.92552 0.69124 0.0
C679 C 1.02307 0.94616 0.63206 0.0
C680 C 0.03046 0.89987 0.65853 0.0
C681 C 1.02392 0.894 0.5653 0.0
C682 C 1.01667 0.91462 0.50646 0.0
C683 C 1.01615 0.94016 0.53925 0.0
H684 H 0.72601 0.03315 0.35259 0.0
H685 H 0.74788 0.98426 0.58288 0.0
H686 H 0.68296 0.03848 0.42005 0.0
H687 H 0.70458 0.9892 0.65086 0.0
H688 H 0.62645 1.01662 0.77671 0.0
H689 H 0.67134 1.01596 0.7232 0.0
H690 H 0.64507 1.01272 0.43669 0.0
H691 H 0.60042 1.0138 0.49037 0.0
C692 C 0.72183 0.02421 0.41948 0.0
C693 C 0.74065 1.00881 0.46344 0.0
C694 C 0.69692 0.02684 0.45751 0.0
C695 C 0.68983 1.01398 0.54066 0.0
C696 C 0.70914 0.99959 0.58722 0.0
C697 C 0.73413 0.9969 0.54875 0.0
C698 C 0.63025 1.01595 0.70232 0.0
C699 C 0.60956 1.01547 0.63829 0.0
C700 C 0.65611 1.01538 0.67141 0.0
C701 C 0.66219 1.01454 0.57511 0.0
C702 C 0.64144 1.01388 0.51125 0.0
C703 C 0.61564 1.01425 0.54223 0.0
H704 H 0.55648 0.71928 0.38529 0.0
H705 H 0.49395 0.73698 0.57376 0.0
H706 H 0.56353 0.67832 0.46687 0.0
H707 H 0.50028 0.69604 0.65359 0.0
H708 H 0.52278 0.62357 0.81185 0.0
H709 H 0.52361 0.66737 0.74968 0.0
H710 H 0.5432 0.63766 0.47629 0.0
H711 H 0.54303 0.59415 0.53891 0.0
C712 C 0.5448 0.71483 0.44612 0.0
C713 C 0.52482 0.73162 0.47337 0.0
C714 C 0.54845 0.69104 0.492 0.0
C715 C 0.53221 0.68332 0.56652 0.0
C716 C 0.51339 0.70103 0.59744 0.0
C717 C 0.50977 0.7247 0.55164 0.0
C718 C 0.5274 0.62636 0.73856 0.0
C719 C 0.53277 0.60506 0.68078 0.0
C720 C 0.52779 0.65162 0.70251 0.0
C721 C 0.53352 0.65646 0.60735 0.0
C722 C 0.53917 0.63509 0.5501 0.0
C723 C 0.53882 0.6099 0.58612 0.0
H724 H 0.8178 0.48579 0.61006 0.0
H725 H 0.83134 0.55009 0.42625 0.0
H726 H 0.85946 0.49252 0.68427 0.0
H727 H 0.87304 0.55751 0.50213 0.0
H728 H 0.93298 0.51508 0.83198 0.0
H729 H 0.88835 0.51623 0.77803 0.0
H730 H 0.91437 0.53725 0.50094 0.0
H731 H 0.95883 0.53674 0.55541 0.0
C732 C 0.8293 0.50208 0.58812 0.0
C733 C 0.82109 0.51753 0.51269 0.0
C734 C 0.85337 0.50593 0.63054 0.0
C735 C 0.8701 0.52537 0.59878 0.0
C736 C 0.86104 0.542 0.52759 0.0
C737 C 0.83685 0.53813 0.48513 0.0
C738 C 0.92923 0.5201 0.75963 0.0
C739 C 0.94977 0.5257 0.69827 0.0
C740 C 0.9035 0.52068 0.7284 0.0
C741 C 0.89742 0.52683 0.63469 0.0
C742 C 0.91798 0.53286 0.5739 0.0
C743 C 0.94368 0.53233 0.60514 0.0
loop_
_geom_bond_atom_site_label_1
_geom_bond_atom_site_label_2
_geom_bond_distance
_geom_bond_site_symmetry_2
_ccdc_geom_bond_type
H0 C7 0.929 . S
H1 C10 0.930 . S
H2 C12 0.929 . S
H3 C4 0.969 . S
C4 H3 0.969 . S
C4 O5 1.550 . S
C4 H6 0.973 . S
O5 C4 1.550 . S
O5 C11 1.412 . S
H6 C4 0.973 . S
C7 H0 0.929 . S
C7 C8 1.400 . S
C7 C9 1.364 . S
C8 C7 1.400 . S
C8 C12 1.377 . S
C9 C7 1.364 . S
C9 C10 1.374 . S
C10 H1 0.930 . S
C10 C9 1.374 . S
C10 C11 1.383 . S
C11 O5 1.412 . S
C11 C10 1.383 . S
C11 C12 1.394 . S
C12 H2 0.929 . S
C12 C8 1.377 . S
C12 C11 1.394 . S
H13 C20 0.928 1_655 S
H14 C23 0.930 . S
H15 C25 0.928 1_655 S
H16 C17 0.969 . S
C17 H16 0.969 . S
C17 O18 1.550 1_455 S
C17 H19 0.973 1_455 S
O18 C17 1.550 1_655 S
O18 C24 1.405 1_655 S
H19 C17 0.973 1_655 S
C20 H13 0.928 1_455 S
C20 C21 1.399 . S
C20 C22 1.364 . S
C21 C20 1.399 . S
C21 C25 1.377 . S
C22 C20 1.364 . S
C22 C23 1.374 1_455 S
C23 H14 0.930 . S
C23 C22 1.374 1_655 S
C23 C24 1.382 1_655 S
C24 O18 1.405 1_455 S
C24 C23 1.382 1_455 S
C24 C25 1.394 . S
C25 H15 0.928 1_455 S
C25 C21 1.377 . S
C25 C24 1.394 . S
H26 C33 0.928 1_565 S
H27 C36 0.929 . S
H28 C38 0.928 1_565 S
H29 C30 0.969 . S
C30 H29 0.969 . S
C30 O31 1.550 1_545 S
C30 H32 0.973 1_545 S
O31 C30 1.550 1_565 S
O31 C37 1.405 1_565 S
H32 C30 0.973 1_565 S
C33 H26 0.928 1_545 S
C33 C34 1.399 . S
C33 C35 1.364 . S
C34 C33 1.399 . S
C34 C38 1.377 . S
C35 C33 1.364 . S
C35 C36 1.374 1_545 S
C36 H27 0.929 . S
C36 C35 1.374 1_565 S
C36 C37 1.382 1_565 S
C37 O31 1.405 1_545 S
C37 C36 1.382 1_545 S
C37 C38 1.394 . S
C38 H28 0.928 1_545 S
C38 C34 1.377 . S
C38 C37 1.394 . S
H39 C46 0.929 . S
H40 C49 0.930 . S
H41 C51 0.929 . S
H42 C43 0.969 . S
C43 H42 0.969 . S
C43 O44 1.550 . S
C43 H45 0.973 . S
O44 C43 1.550 . S
O44 C50 1.412 . S
H45 C43 0.973 . S
C46 H39 0.929 . S
C46 C47 1.400 . S
C46 C48 1.364 . S
C47 C46 1.400 . S
C47 C51 1.377 . S
C48 C46 1.364 . S
C48 C49 1.374 . S
C49 H40 0.930 . S
C49 C48 1.374 . S
C49 C50 1.383 . S
C50 O44 1.412 . S
C50 C49 1.383 . S
C50 C51 1.394 . S
C51 H41 0.929 . S
C51 C47 1.377 . S
C51 C50 1.394 . S
H52 C59 0.929 . S
H53 C62 0.930 . S
H54 C64 0.929 . S
H55 C56 0.969 . S
C56 H55 0.969 . S
C56 O57 1.550 . S
C56 H58 0.973 . S
O57 C56 1.550 . S
O57 C63 1.412 . S
H58 C56 0.973 . S
C59 H52 0.929 . S
C59 C60 1.400 1_554 S
C59 C61 1.364 . S
C60 C59 1.400 1_556 S
C60 C64 1.377 . S
C61 C59 1.364 . S
C61 C62 1.374 . S
C62 H53 0.930 . S
C62 C61 1.374 . S
C62 C63 1.383 . S
C63 O57 1.412 . S
C63 C62 1.383 . S
C63 C64 1.394 1_554 S
C64 H54 0.929 . S
C64 C60 1.377 . S
C64 C63 1.394 1_556 S
H65 C72 0.928 1_655 S
H66 C75 0.930 . S
H67 C77 0.928 1_655 S
H68 C69 0.969 . S
C69 H68 0.969 . S
C69 O70 1.550 1_455 S
C69 H71 0.973 1_455 S
O70 C69 1.550 1_655 S
O70 C76 1.402 1_655 S
H71 C69 0.973 1_655 S
C72 H65 0.928 1_455 S
C72 C73 1.400 1_554 S
C72 C74 1.364 . S
C73 C72 1.400 1_556 S
C73 C77 1.377 . S
C74 C72 1.364 . S
C74 C75 1.374 1_455 S
C75 H66 0.930 . S
C75 C74 1.374 1_655 S
C75 C76 1.382 1_655 S
C76 O70 1.402 1_455 S
C76 C75 1.382 1_455 S
C76 C77 1.394 1_554 S
C77 H67 0.928 1_455 S
C77 C73 1.377 . S
C77 C76 1.394 1_556 S
H78 C85 0.928 1_565 S
H79 C88 0.930 . S
H80 C90 0.928 1_565 S
H81 C82 0.969 . S
C82 H81 0.969 . S
C82 O83 1.550 1_545 S
C82 H84 0.973 1_545 S
O83 C82 1.550 1_565 S
O83 C89 1.402 1_565 S
H84 C82 0.973 1_565 S
C85 H78 0.928 1_545 S
C85 C86 1.400 1_554 S
C85 C87 1.364 . S
C86 C85 1.400 1_556 S
C86 C90 1.377 . S
C87 C85 1.364 . S
C87 C88 1.374 1_545 S
C88 H79 0.930 . S
C88 C87 1.374 1_565 S
C88 C89 1.382 1_565 S
C89 O83 1.402 1_545 S
C89 C88 1.382 1_545 S
C89 C90 1.394 1_554 S
C90 H80 0.928 1_545 S
C90 C86 1.377 . S
C90 C89 1.394 1_556 S
H91 C98 0.929 . S
H92 C101 0.930 . S
H93 C103 0.929 . S
H94 C95 0.969 . S
C95 H94 0.969 . S
C95 O96 1.550 . S
C95 H97 0.973 . S
O96 C95 1.550 . S
O96 C102 1.412 . S
H97 C95 0.973 . S
C98 H91 0.929 . S
C98 C99 1.400 1_554 S
C98 C100 1.364 . S
C99 C98 1.400 1_556 S
C99 C103 1.377 . S
C100 C98 1.364 . S
C100 C101 1.374 . S
C101 H92 0.930 . S
C101 C100 1.374 . S
C101 C102 1.383 . S
C102 O96 1.412 . S
C102 C101 1.383 . S
C102 C103 1.394 1_554 S
C103 H93 0.929 . S
C103 C99 1.377 . S
C103 C102 1.394 1_556 S
C104 Eu105 2.835 . S
C104 C106 1.500 . S
C104 O124 1.257 . S
C104 O125 1.260 . S
Eu105 C104 2.835 . S
Eu105 O124 2.473 . S
Eu105 O125 2.480 . S
Eu105 O126 2.430 . S
Eu105 O127 2.670 1_545 S
Eu105 O128 2.394 . S
Eu105 O133 2.355 1_655 S
Eu105 O135 2.374 1_545 S
C106 C104 1.500 . S
C106 C107 1.377 . S
C106 C111 1.377 . S
C107 C106 1.377 . S
C107 C108 1.395 . S
C107 H136 0.931 . S
C108 C107 1.395 . S
C108 C109 1.383 . S
C108 H137 0.931 . S
C109 C108 1.383 . S
C109 C110 1.394 . S
C110 C109 1.394 . S
C110 C111 1.378 . S
C110 H138 0.931 1_655 S
C111 C106 1.377 . S
C111 C110 1.378 . S
C111 H139 0.931 1_655 S
C112 O126 1.259 . S
C112 O127 1.270 1_545 S
C113 O128 1.251 1_455 S
C113 O129 1.251 . S
C114 Eu115 2.835 . S
C114 C116 1.500 . S
C114 O130 1.257 . S
C114 O131 1.260 . S
Eu115 C114 2.835 . S
Eu115 O127 2.355 1_455 S
Eu115 O129 2.374 1_565 S
Eu115 O130 2.473 . S
Eu115 O131 2.480 . S
Eu115 O132 2.430 . S
Eu115 O133 2.670 1_565 S
Eu115 O134 2.394 . S
C116 C114 1.500 . S
C116 C117 1.377 . S
C116 C121 1.377 1_556 S
C117 C116 1.377 . S
C117 C118 1.395 1_556 S
C117 H140 0.931 . S
C118 C117 1.395 1_554 S
C118 C119 1.383 . S
C118 H141 0.931 . S
C119 C118 1.383 . S
C119 C120 1.394 . S
C120 C119 1.394 . S
C120 C121 1.378 . S
C120 H142 0.931 1_455 S
C121 C116 1.377 1_554 S
C121 C120 1.378 . S
C121 H143 0.931 1_455 S
C122 O132 1.282 . S
C122 O133 1.253 1_565 S
C123 O134 1.251 1_655 S
C123 O135 1.251 . S
O124 C104 1.257 . S
O124 Eu105 2.473 . S
O125 C104 1.260 . S
O125 Eu105 2.480 . S
O126 Eu105 2.430 . S
O126 C112 1.259 . S
O127 Eu105 2.670 1_565 S
O127 C112 1.270 1_565 S
O127 Eu115 2.355 1_655 S
O128 Eu105 2.394 . S
O128 C113 1.251 1_655 S
O129 C113 1.251 . S
O129 Eu115 2.374 1_545 S
O130 C114 1.257 . S
O130 Eu115 2.473 . S
O131 C114 1.260 . S
O131 Eu115 2.480 . S
O132 Eu115 2.430 . S
O132 C122 1.282 . S
O133 Eu105 2.355 1_455 S
O133 Eu115 2.670 1_545 S
O133 C122 1.253 1_545 S
O134 Eu115 2.394 . S
O134 C123 1.251 1_455 S
O135 Eu105 2.374 1_565 S
O135 C123 1.251 . S
H136 C107 0.931 . S
H137 C108 0.931 . S
H138 C110 0.931 1_455 S
H139 C111 0.931 1_455 S
H140 C117 0.931 . S
H141 C118 0.931 . S
H142 C120 0.931 1_655 S
H143 C121 0.931 1_655 S
C144 Eu145 2.835 . S
C144 C146 1.500 . S
C144 O164 1.257 . S
C144 O165 1.260 . S
Eu145 C144 2.835 . S
Eu145 O164 2.473 . S
Eu145 O165 2.480 . S
Eu145 O166 2.430 . S
Eu145 O167 2.670 . S
Eu145 O168 2.394 . S
Eu145 O173 2.355 1_565 S
Eu145 O175 2.374 . S
C146 C144 1.500 . S
C146 C147 1.377 . S
C146 C151 1.377 . S
C147 C146 1.377 . S
C147 C148 1.395 . S
C147 H176 0.931 . S
C148 C147 1.395 . S
C148 C149 1.383 . S
C148 H177 0.931 . S
C149 C148 1.383 . S
C149 C150 1.394 . S
C150 C149 1.394 . S
C150 C151 1.378 . S
C150 H178 0.931 1_565 S
C151 C146 1.377 . S
C151 C150 1.378 . S
C151 H179 0.931 1_565 S
C152 O166 1.259 . S
C152 O167 1.270 . S
C153 O168 1.251 1_545 S
C153 O169 1.251 . S
C154 Eu155 2.835 . S
C154 C156 1.500 . S
C154 O170 1.257 . S
C154 O171 1.260 . S
Eu155 C154 2.835 . S
Eu155 O167 2.355 1_545 S
Eu155 O169 2.374 . S
Eu155 O170 2.473 . S
Eu155 O171 2.480 . S
Eu155 O172 2.430 . S
Eu155 O173 2.670 . S
Eu155 O174 2.394 . S
C156 C154 1.500 . S
C156 C157 1.377 . S
C156 C161 1.377 1_556 S
C157 C156 1.377 . S
C157 C158 1.395 1_556 S
C157 H180 0.931 . S
C158 C157 1.395 1_554 S
C158 C159 1.383 . S
C158 H181 0.931 . S
C159 C158 1.383 . S
C159 C160 1.394 . S
C160 C159 1.394 . S
C160 C161 1.378 . S
C160 H182 0.931 1_545 S
C161 C156 1.377 1_554 S
C161 C160 1.378 . S
C161 H183 0.931 1_545 S
C162 O172 1.259 . S
C162 O173 1.270 . S
C163 O174 1.251 1_565 S
C163 O175 1.251 . S
O164 C144 1.257 . S
O164 Eu145 2.473 . S
O165 C144 1.260 . S
O165 Eu145 2.480 . S
O166 Eu145 2.430 . S
O166 C152 1.259 . S
O167 Eu145 2.670 . S
O167 C152 1.270 . S
O167 Eu155 2.355 1_565 S
O168 Eu145 2.394 . S
O168 C153 1.251 1_565 S
O169 C153 1.251 . S
O169 Eu155 2.374 . S
O170 C154 1.257 . S
O170 Eu155 2.473 . S
O171 C154 1.260 . S
O171 Eu155 2.480 . S
O172 Eu155 2.430 . S
O172 C162 1.259 . S
O173 Eu145 2.355 1_545 S
O173 Eu155 2.670 . S
O173 C162 1.270 . S
O174 Eu155 2.394 . S
O174 C163 1.251 1_545 S
O175 Eu145 2.374 . S
O175 C163 1.251 . S
H176 C147 0.931 . S
H177 C148 0.931 . S
H178 C150 0.931 1_545 S
H179 C151 0.931 1_545 S
H180 C157 0.931 . S
H181 C158 0.931 . S
H182 C160 0.931 1_565 S
H183 C161 0.931 1_565 S
C184 Eu185 2.835 . S
C184 C186 1.500 . S
C184 O204 1.257 . S
C184 O205 1.260 . S
Eu185 C184 2.835 . S
Eu185 O204 2.473 . S
Eu185 O205 2.480 . S
Eu185 O206 2.430 . S
Eu185 O207 2.670 . S
Eu185 O208 2.394 . S
Eu185 O213 2.355 . S
Eu185 O215 2.374 . S
C186 C184 1.500 . S
C186 C187 1.377 . S
C186 C191 1.377 . S
C187 C186 1.377 . S
C187 C188 1.395 . S
C187 H216 0.931 . S
C188 C187 1.395 . S
C188 C189 1.383 . S
C188 H217 0.931 . S
C189 C188 1.383 . S
C189 C190 1.394 . S
C190 C189 1.394 . S
C190 C191 1.378 . S
C190 H218 0.931 . S
C191 C186 1.377 . S
C191 C190 1.378 . S
C191 H219 0.931 . S
C192 O206 1.259 . S
C192 O207 1.270 . S
C193 O208 1.251 . S
C193 O209 1.251 . S
C194 Eu195 2.835 . S
C194 C196 1.500 . S
C194 O210 1.257 . S
C194 O211 1.260 . S
Eu195 C194 2.835 . S
Eu195 O207 2.355 . S
Eu195 O209 2.374 . S
Eu195 O210 2.473 . S
Eu195 O211 2.480 . S
Eu195 O212 2.430 . S
Eu195 O213 2.670 . S
Eu195 O214 2.394 . S
C196 C194 1.500 . S
C196 C197 1.377 . S
C196 C201 1.377 1_556 S
C197 C196 1.377 . S
C197 C198 1.395 1_556 S
C197 H220 0.931 . S
C198 C197 1.395 1_554 S
C198 C199 1.383 . S
C198 H221 0.931 . S
C199 C198 1.383 . S
C199 C200 1.394 . S
C200 C199 1.394 . S
C200 C201 1.378 . S
C200 H222 0.931 . S
C201 C196 1.377 1_554 S
C201 C200 1.378 . S
C201 H223 0.931 . S
C202 O212 1.259 . S
C202 O213 1.270 . S
C203 O214 1.251 . S
C203 O215 1.251 . S
O204 C184 1.257 . S
O204 Eu185 2.473 . S
O205 C184 1.260 . S
O205 Eu185 2.480 . S
O206 Eu185 2.430 . S
O206 C192 1.259 . S
O207 Eu185 2.670 . S
O207 C192 1.270 . S
O207 Eu195 2.355 . S
O208 Eu185 2.394 . S
O208 C193 1.251 . S
O209 C193 1.251 . S
O209 Eu195 2.374 . S
O210 C194 1.257 . S
O210 Eu195 2.473 . S
O211 C194 1.260 . S
O211 Eu195 2.480 . S
O212 Eu195 2.430 . S
O212 C202 1.259 . S
O213 Eu185 2.355 . S
O213 Eu195 2.670 . S
O213 C202 1.270 . S
O214 Eu195 2.394 . S
O214 C203 1.251 . S
O215 Eu185 2.374 . S
O215 C203 1.251 . S
H216 C187 0.931 . S
H217 C188 0.931 . S
H218 C190 0.931 . S
H219 C191 0.931 . S
H220 C197 0.931 . S
H221 C198 0.931 . S
H222 C200 0.931 . S
H223 C201 0.931 . S
C224 Eu225 2.835 . S
C224 C226 1.500 . S
C224 O244 1.257 . S
C224 O245 1.260 . S
Eu225 C224 2.835 . S
Eu225 O244 2.473 . S
Eu225 O245 2.480 . S
Eu225 O246 2.430 . S
Eu225 O247 2.670 1_455 S
Eu225 O248 2.394 . S
Eu225 O253 2.355 . S
Eu225 O255 2.374 1_455 S
C226 C224 1.500 . S
C226 C227 1.377 . S
C226 C231 1.377 . S
C227 C226 1.377 . S
C227 C228 1.395 . S
C227 H256 0.931 . S
C228 C227 1.395 . S
C228 C229 1.383 . S
C228 H257 0.931 . S
C229 C228 1.383 . S
C229 C230 1.394 . S
C230 C229 1.394 . S
C230 C231 1.378 . S
C230 H258 0.931 . S
C231 C226 1.377 . S
C231 C230 1.378 . S
C231 H259 0.931 . S
C232 O246 1.270 . S
C232 O247 1.262 1_455 S
C233 O248 1.251 . S
C233 O249 1.251 . S
C234 Eu235 2.835 . S
C234 C236 1.500 . S
C234 O250 1.257 . S
C234 O251 1.260 . S
Eu235 C234 2.835 . S
Eu235 O247 2.355 . S
Eu235 O249 2.374 1_655 S
Eu235 O250 2.473 . S
Eu235 O251 2.480 . S
Eu235 O252 2.430 . S
Eu235 O253 2.670 1_655 S
Eu235 O254 2.394 . S
C236 C234 1.500 . S
C236 C237 1.377 . S
C236 C241 1.377 1_556 S
C237 C236 1.377 . S
C237 C238 1.395 1_556 S
C237 H260 0.931 . S
C238 C237 1.395 1_554 S
C238 C239 1.383 . S
C238 H261 0.931 . S
C239 C238 1.383 . S
C239 C240 1.394 . S
C240 C239 1.394 . S
C240 C241 1.378 . S
C240 H262 0.931 . S
C241 C236 1.377 1_554 S
C241 C240 1.378 . S
C241 H263 0.931 . S
C242 O252 1.265 . S
C242 O253 1.266 1_655 S
C243 O254 1.251 . S
C243 O255 1.251 . S
O244 C224 1.257 . S
O244 Eu225 2.473 . S
O245 C224 1.260 . S
O245 Eu225 2.480 . S
O246 Eu225 2.430 . S
O246 C232 1.270 . S
O247 Eu225 2.670 1_655 S
O247 C232 1.262 1_655 S
O247 Eu235 2.355 . S
O248 Eu225 2.394 . S
O248 C233 1.251 . S
O249 C233 1.251 . S
O249 Eu235 2.374 1_455 S
O250 C234 1.257 . S
O250 Eu235 2.473 . S
O251 C234 1.260 . S
O251 Eu235 2.480 . S
O252 Eu235 2.430 . S
O252 C242 1.265 . S
O253 Eu225 2.355 . S
O253 Eu235 2.670 1_455 S
O253 C242 1.266 1_455 S
O254 Eu235 2.394 . S
O254 C243 1.251 . S
O255 Eu225 2.374 1_655 S
O255 C243 1.251 . S
H256 C227 0.931 . S
H257 C228 0.931 . S
H258 C230 0.931 . S
H259 C231 0.931 . S
H260 C237 0.931 . S
H261 C238 0.931 . S
H262 C240 0.931 . S
H263 C241 0.931 . S
H264 C272 0.950 . S
H265 C277 0.950 . S
H266 C274 0.950 . S
H267 C276 0.950 . S
H268 C278 0.950 . S
H269 C280 0.950 . S
H270 C282 0.950 . S
H271 C283 0.950 . S
C272 H264 0.950 . S
C272 C273 1.397 . S
C272 C274 1.391 . S
C273 C272 1.397 . S
C273 C277 1.382 1_565 S
C274 H266 0.950 . S
C274 C272 1.391 . S
C274 C275 1.402 . S
C275 C274 1.402 . S
C275 C276 1.397 1_565 S
C275 C281 1.490 1_565 S
C276 H267 0.950 . S
C276 C275 1.397 1_545 S
C276 C277 1.391 . S
C277 H265 0.950 . S
C277 C273 1.382 1_545 S
C277 C276 1.391 . S
C278 H268 0.950 . S
C278 C279 1.386 . S
C278 C280 1.391 . S
C279 C278 1.386 . S
C279 C283 1.393 1_545 S
C280 H269 0.950 . S
C280 C278 1.391 . S
C280 C281 1.413 . S
C281 C275 1.490 1_545 S
C281 C280 1.413 . S
C281 C282 1.387 1_545 S
C282 H270 0.950 . S
C282 C281 1.387 1_565 S
C282 C283 1.391 . S
C283 H271 0.950 . S
C283 C279 1.393 1_565 S
C283 C282 1.391 . S
H284 C292 0.950 . S
H285 C297 0.950 . S
H286 C294 0.950 . S
H287 C296 0.950 . S
H288 C298 0.950 . S
H289 C300 0.950 . S
H290 C302 0.950 . S
H291 C303 0.950 . S
C292 H284 0.950 . S
C292 C293 1.386 . S
C292 C294 1.391 . S
C293 C292 1.386 . S
C293 C297 1.393 . S
C294 H286 0.950 . S
C294 C292 1.391 . S
C294 C295 1.400 . S
C295 C294 1.400 . S
C295 C296 1.398 . S
C295 C301 1.491 . S
C296 H287 0.950 . S
C296 C295 1.398 . S
C296 C297 1.391 . S
C297 H285 0.950 . S
C297 C293 1.393 . S
C297 C296 1.391 . S
C298 H288 0.950 . S
C298 C299 1.386 . S
C298 C300 1.391 . S
C299 C298 1.386 . S
C299 C303 1.393 . S
C300 H289 0.950 . S
C300 C298 1.391 . S
C300 C301 1.400 . S
C301 C295 1.491 . S
C301 C300 1.400 . S
C301 C302 1.398 . S
C302 H290 0.950 . S
C302 C301 1.398 . S
C302 C303 1.391 . S
C303 H291 0.950 . S
C303 C299 1.393 . S
C303 C302 1.391 . S
H304 C312 0.950 . S
H305 C317 0.950 . S
H306 C314 0.950 . S
H307 C316 0.950 . S
H308 C318 0.950 . S
H309 C320 0.950 . S
H310 C322 0.950 . S
H311 C323 0.950 . S
C312 H304 0.950 . S
C312 C313 1.386 . S
C312 C314 1.391 . S
C313 C312 1.386 . S
C313 C317 1.393 . S
C314 H306 0.950 . S
C314 C312 1.391 . S
C314 C315 1.400 . S
C315 C314 1.400 . S
C315 C316 1.398 . S
C315 C321 1.491 . S
C316 H307 0.950 . S
C316 C315 1.398 . S
C316 C317 1.391 . S
C317 H305 0.950 . S
C317 C313 1.393 . S
C317 C316 1.391 . S
C318 H308 0.950 . S
C318 C319 1.386 . S
C318 C320 1.391 . S
C319 C318 1.386 . S
C319 C323 1.393 . S
C320 H309 0.950 . S
C320 C318 1.391 . S
C320 C321 1.400 . S
C321 C315 1.491 . S
C321 C320 1.400 . S
C321 C322 1.398 . S
C322 H310 0.950 . S
C322 C321 1.398 . S
C322 C323 1.391 . S
C323 H311 0.950 . S
C323 C319 1.393 . S
C323 C322 1.391 . S
H324 C332 0.950 . S
H325 C337 0.950 . S
H326 C334 0.950 . S
H327 C336 0.950 . S
H328 C338 0.950 . S
H329 C340 0.950 . S
H330 C342 0.950 . S
H331 C343 0.950 . S
C332 H324 0.950 . S
C332 C333 1.394 . S
C332 C334 1.391 . S
C333 C332 1.394 . S
C333 C337 1.385 1_655 S
C334 H326 0.950 . S
C334 C332 1.391 . S
C334 C335 1.401 1_655 S
C335 C334 1.401 1_455 S
C335 C336 1.398 . S
C335 C341 1.491 . S
C336 H327 0.950 . S
C336 C335 1.398 . S
C336 C337 1.391 . S
C337 H325 0.950 . S
C337 C333 1.385 1_455 S
C337 C336 1.391 . S
C338 H328 0.950 . S
C338 C339 1.386 . S
C338 C340 1.391 . S
C339 C338 1.386 . S
C339 C343 1.393 1_455 S
C340 H329 0.950 . S
C340 C338 1.391 . S
C340 C341 1.400 . S
C341 C335 1.491 . S
C341 C340 1.400 . S
C341 C342 1.398 1_455 S
C342 H330 0.950 . S
C342 C341 1.398 1_655 S
C342 C343 1.391 . S
C343 H331 0.950 . S
C343 C339 1.393 1_655 S
C343 C342 1.391 . S
H344 C352 0.950 . S
H345 C357 0.950 . S
H346 C354 0.950 . S
H347 C356 0.950 . S
H348 C358 0.950 . S
H349 C360 0.950 . S
H350 C362 0.950 . S
H351 C363 0.950 . S
C352 H344 0.950 . S
C352 C353 1.373 1_545 S
C352 C354 1.391 . S
C353 C352 1.373 1_565 S
C353 C357 1.407 . S
C354 H346 0.950 . S
C354 C352 1.391 . S
C354 C355 1.394 1_545 S
C355 C354 1.394 1_565 S
C355 C356 1.405 . S
C355 C361 1.490 1_565 S
C356 H347 0.950 . S
C356 C355 1.405 . S
C356 C357 1.391 . S
C357 H345 0.950 . S
C357 C353 1.407 . S
C357 C356 1.391 . S
C358 H348 0.950 . S
C358 C359 1.374 1_565 S
C358 C360 1.391 . S
C359 C358 1.374 1_545 S
C359 C363 1.406 1_556 S
C360 H349 0.950 . S
C360 C358 1.391 . S
C360 C361 1.395 1_566 S
C361 C355 1.490 1_545 S
C361 C360 1.395 1_544 S
C361 C362 1.405 . S
C362 H350 0.950 . S
C362 C361 1.405 . S
C362 C363 1.391 . S
C363 H351 0.950 . S
C363 C359 1.406 1_554 S
C363 C362 1.391 . S
H364 C372 0.950 . S
H365 C377 0.950 . S
H366 C374 0.950 . S
H367 C376 0.950 . S
H368 C378 0.950 . S
H369 C380 0.950 . S
H370 C382 0.950 . S
H371 C383 0.950 . S
C372 H364 0.950 . S
C372 C373 1.386 . S
C372 C374 1.391 . S
C373 C372 1.386 . S
C373 C377 1.393 . S
C374 H366 0.950 . S
C374 C372 1.391 . S
C374 C375 1.400 . S
C375 C374 1.400 . S
C375 C376 1.398 . S
C375 C381 1.491 . S
C376 H367 0.950 . S
C376 C375 1.398 . S
C376 C377 1.391 . S
C377 H365 0.950 . S
C377 C373 1.393 . S
C377 C376 1.391 . S
C378 H368 0.950 . S
C378 C379 1.386 1_554 S
C378 C380 1.391 . S
C379 C378 1.386 1_556 S
C379 C383 1.393 . S
C380 H369 0.950 . S
C380 C378 1.391 . S
C380 C381 1.400 . S
C381 C375 1.491 . S
C381 C380 1.400 . S
C381 C382 1.398 1_554 S
C382 H370 0.950 . S
C382 C381 1.398 1_556 S
C382 C383 1.391 . S
C383 H371 0.950 . S
C383 C379 1.393 . S
C383 C382 1.391 . S
H384 C392 0.950 . S
H385 C397 0.950 . S
H386 C394 0.950 . S
H387 C396 0.950 . S
H388 C398 0.950 . S
H389 C400 0.950 . S
H390 C402 0.950 . S
H391 C403 0.950 . S
C392 H384 0.950 . S
C392 C393 1.386 . S
C392 C394 1.391 . S
C393 C392 1.386 . S
C393 C397 1.393 . S
C394 H386 0.950 . S
C394 C392 1.391 . S
C394 C395 1.400 . S
C395 C394 1.400 . S
C395 C396 1.398 . S
C395 C401 1.491 . S
C396 H387 0.950 . S
C396 C395 1.398 . S
C396 C397 1.391 . S
C397 H385 0.950 . S
C397 C393 1.393 . S
C397 C396 1.391 . S
C398 H388 0.950 . S
C398 C399 1.386 . S
C398 C400 1.391 1_556 S
C399 C398 1.386 . S
C399 C403 1.393 . S
C400 H389 0.950 . S
C400 C398 1.391 1_554 S
C400 C401 1.400 . S
C401 C395 1.491 . S
C401 C400 1.400 . S
C401 C402 1.398 . S
C402 H390 0.950 . S
C402 C401 1.398 . S
C402 C403 1.391 1_554 S
C403 H391 0.950 . S
C403 C399 1.393 . S
C403 C402 1.391 1_556 S
H404 C412 0.952 . S
H405 C417 0.950 . S
H406 C414 0.954 . S
H407 C416 0.950 . S
H408 C418 0.950 . S
H409 C420 0.950 . S
H410 C422 0.950 . S
H411 C423 0.950 . S
C412 H404 0.952 . S
C412 C413 1.384 1_455 S
C412 C414 1.391 . S
C413 C412 1.384 1_655 S
C413 C417 1.393 . S
C414 H406 0.954 . S
C414 C412 1.391 . S
C414 C415 1.397 1_455 S
C415 C414 1.397 1_655 S
C415 C416 1.404 . S
C415 C421 1.490 . S
C416 H407 0.950 . S
C416 C415 1.404 . S
C416 C417 1.391 . S
C417 H405 0.950 . S
C417 C413 1.393 . S
C417 C416 1.391 . S
C418 H408 0.950 . S
C418 C419 1.385 . S
C418 C420 1.391 . S
C419 C418 1.385 . S
C419 C423 1.393 1_656 S
C420 H409 0.950 . S
C420 C418 1.391 . S
C420 C421 1.400 1_556 S
C421 C415 1.490 . S
C421 C420 1.400 1_554 S
C421 C422 1.398 1_655 S
C422 H410 0.950 . S
C422 C421 1.398 1_455 S
C422 C423 1.391 . S
C423 H411 0.950 . S
C423 C419 1.393 1_454 S
C423 C422 1.391 . S
H424 C432 0.950 . S
H425 C437 0.950 . S
H426 C434 0.950 . S
H427 C436 0.950 . S
H428 C438 0.950 1_455 S
H429 C440 0.950 1_455 S
H430 C442 0.950 . S
H431 C443 0.950 . S
C432 H424 0.950 . S
C432 C433 1.386 1_655 S
C432 C434 1.391 . S
C433 C432 1.386 1_455 S
C433 C437 1.393 . S
C434 H426 0.950 . S
C434 C432 1.391 . S
C434 C435 1.400 . S
C435 C434 1.400 . S
C435 C436 1.398 1_655 S
C435 C441 1.491 . S
C436 H427 0.950 . S
C436 C435 1.398 1_455 S
C436 C437 1.391 . S
C437 H425 0.950 . S
C437 C433 1.393 . S
C437 C436 1.391 . S
C438 H428 0.950 1_655 S
C438 C439 1.386 . S
C438 C440 1.391 . S
C439 C438 1.386 . S
C439 C443 1.393 . S
C440 H429 0.950 1_655 S
C440 C438 1.391 . S
C440 C441 1.400 . S
C441 C435 1.491 . S
C441 C440 1.400 . S
C441 C442 1.398 . S
C442 H430 0.950 . S
C442 C441 1.398 . S
C442 C443 1.391 . S
C443 H431 0.950 . S
C443 C439 1.393 . S
C443 C442 1.391 . S
H444 C452 0.950 . S
H445 C457 0.950 . S
H446 C454 0.950 . S
H447 C456 0.950 . S
H448 C458 0.950 . S
H449 C460 0.950 . S
H450 C462 0.946 . S
H451 C463 0.950 1_545 S
C452 H444 0.950 . S
C452 C453 1.386 . S
C452 C454 1.391 . S
C453 C452 1.386 . S
C453 C457 1.393 1_545 S
C454 H446 0.950 . S
C454 C452 1.391 . S
C454 C455 1.400 1_545 S
C455 C454 1.400 1_565 S
C455 C456 1.398 . S
C455 C461 1.491 . S
C456 H447 0.950 . S
C456 C455 1.398 . S
C456 C457 1.391 . S
C457 H445 0.950 . S
C457 C453 1.393 1_565 S
C457 C456 1.391 . S
C458 H448 0.950 . S
C458 C459 1.386 . S
C458 C460 1.391 . S
C459 C458 1.386 . S
C459 C463 1.393 . S
C460 H449 0.950 . S
C460 C458 1.391 . S
C460 C461 1.400 . S
C461 C455 1.491 . S
C461 C460 1.400 . S
C461 C462 1.401 1_565 S
C462 H450 0.946 . S
C462 C461 1.401 1_545 S
C462 C463 1.392 1_545 S
C463 H451 0.950 1_565 S
C463 C459 1.393 . S
C463 C462 1.392 1_565 S
H464 C472 0.950 . S
H465 C477 0.950 . S
H466 C474 0.950 . S
H467 C476 0.950 . S
H468 C478 0.950 . S
H469 C480 0.950 . S
H470 C482 0.950 . S
H471 C483 0.950 . S
C472 H464 0.950 . S
C472 C473 1.386 . S
C472 C474 1.391 . S
C473 C472 1.386 . S
C473 C477 1.393 . S
C474 H466 0.950 . S
C474 C472 1.391 . S
C474 C475 1.400 . S
C475 C474 1.400 . S
C475 C476 1.398 . S
C475 C481 1.491 . S
C476 H467 0.950 . S
C476 C475 1.398 . S
C476 C477 1.391 . S
C477 H465 0.950 . S
C477 C473 1.393 . S
C477 C476 1.391 . S
C478 H468 0.950 . S
C478 C479 1.386 . S
C478 C480 1.391 . S
C479 C478 1.386 . S
C479 C483 1.393 . S
C480 H469 0.950 . S
C480 C478 1.391 . S
C480 C481 1.400 . S
C481 C475 1.491 . S
C481 C480 1.400 . S
C481 C482 1.398 . S
C482 H470 0.950 . S
C482 C481 1.398 . S
C482 C483 1.391 . S
C483 H471 0.950 . S
C483 C479 1.393 . S
C483 C482 1.391 . S
H484 C492 0.950 . S
H485 C497 0.950 . S
H486 C494 0.950 . S
H487 C496 0.950 . S
H488 C498 0.950 . S
H489 C500 0.950 . S
H490 C502 0.950 . S
H491 C503 0.950 . S
C492 H484 0.950 . S
C492 C493 1.386 . S
C492 C494 1.391 . S
C493 C492 1.386 . S
C493 C497 1.393 . S
C494 H486 0.950 . S
C494 C492 1.391 . S
C494 C495 1.400 . S
C495 C494 1.400 . S
C495 C496 1.398 . S
C495 C501 1.491 . S
C496 H487 0.950 . S
C496 C495 1.398 . S
C496 C497 1.391 . S
C497 H485 0.950 . S
C497 C493 1.393 . S
C497 C496 1.391 . S
C498 H488 0.950 . S
C498 C499 1.386 . S
C498 C500 1.391 . S
C499 C498 1.386 . S
C499 C503 1.393 . S
C500 H489 0.950 . S
C500 C498 1.391 . S
C500 C501 1.400 . S
C501 C495 1.491 . S
C501 C500 1.400 . S
C501 C502 1.398 . S
C502 H490 0.950 . S
C502 C501 1.398 . S
C502 C503 1.391 . S
C503 H491 0.950 . S
C503 C499 1.393 . S
C503 C502 1.391 . S
H504 C512 0.950 . S
H505 C517 0.950 . S
H506 C514 0.950 . S
H507 C516 0.950 . S
H508 C518 0.950 . S
H509 C520 0.950 1_655 S
H510 C522 0.950 . S
H511 C523 0.950 . S
C512 H504 0.950 . S
C512 C513 1.386 1_455 S
C512 C514 1.391 . S
C513 C512 1.386 1_655 S
C513 C517 1.393 . S
C514 H506 0.950 . S
C514 C512 1.391 . S
C514 C515 1.400 . S
C515 C514 1.400 . S
C515 C516 1.398 1_455 S
C515 C521 1.491 . S
C516 H507 0.950 . S
C516 C515 1.398 1_655 S
C516 C517 1.391 . S
C517 H505 0.950 . S
C517 C513 1.393 . S
C517 C516 1.391 . S
C518 H508 0.950 . S
C518 C519 1.386 . S
C518 C520 1.391 . S
C519 C518 1.386 . S
C519 C523 1.393 . S
C520 H509 0.950 1_455 S
C520 C518 1.391 . S
C520 C521 1.400 . S
C521 C515 1.491 . S
C521 C520 1.400 . S
C521 C522 1.398 . S
C522 H510 0.950 . S
C522 C521 1.398 . S
C522 C523 1.391 . S
C523 H511 0.950 . S
C523 C519 1.393 . S
C523 C522 1.391 . S
H524 C532 0.950 . S
H525 C537 0.950 . S
H526 C534 0.950 . S
H527 C536 0.950 . S
H528 C538 0.950 1_565 S
H529 C540 0.933 1_565 S
H530 C542 0.950 . S
H531 C543 0.950 . S
C532 H524 0.950 . S
C532 C533 1.386 1_545 S
C532 C534 1.391 . S
C533 C532 1.386 1_565 S
C533 C537 1.393 . S
C534 H526 0.950 . S
C534 C532 1.391 . S
C534 C535 1.400 . S
C535 C534 1.400 . S
C535 C536 1.398 1_545 S
C535 C541 1.491 . S
C536 H527 0.950 . S
C536 C535 1.398 1_565 S
C536 C537 1.391 . S
C537 H525 0.950 . S
C537 C533 1.393 . S
C537 C536 1.391 . S
C538 H528 0.950 1_545 S
C538 C539 1.386 . S
C538 C540 1.396 . S
C539 C538 1.386 . S
C539 C543 1.393 . S
C540 H529 0.933 1_545 S
C540 C538 1.396 . S
C540 C541 1.412 . S
C541 C535 1.491 . S
C541 C540 1.412 . S
C541 C542 1.398 . S
C542 H530 0.950 . S
C542 C541 1.398 . S
C542 C543 1.391 . S
C543 H531 0.950 . S
C543 C539 1.393 . S
C543 C542 1.391 . S
H544 C552 0.950 . S
H545 C557 0.950 . S
H546 C554 0.950 . S
H547 C556 0.950 . S
H548 C558 0.950 . S
H549 C560 0.950 . S
H550 C562 0.950 . S
H551 C563 0.950 . S
C552 H544 0.950 . S
C552 C553 1.386 . S
C552 C554 1.391 . S
C553 C552 1.386 . S
C553 C557 1.393 . S
C554 H546 0.950 . S
C554 C552 1.391 . S
C554 C555 1.400 . S
C555 C554 1.400 . S
C555 C556 1.398 . S
C555 C561 1.491 . S
C556 H547 0.950 . S
C556 C555 1.398 . S
C556 C557 1.391 . S
C557 H545 0.950 . S
C557 C553 1.393 . S
C557 C556 1.391 . S
C558 H548 0.950 . S
C558 C559 1.386 . S
C558 C560 1.391 . S
C559 C558 1.386 . S
C559 C563 1.393 . S
C560 H549 0.950 . S
C560 C558 1.391 . S
C560 C561 1.400 . S
C561 C555 1.491 . S
C561 C560 1.400 . S
C561 C562 1.398 . S
C562 H550 0.950 . S
C562 C561 1.398 . S
C562 C563 1.391 . S
C563 H551 0.950 . S
C563 C559 1.393 . S
C563 C562 1.391 . S
H564 C572 0.950 . S
H565 C577 0.950 . S
H566 C574 0.950 . S
H567 C576 0.950 . S
H568 C578 0.950 . S
H569 C580 0.950 . S
H570 C582 0.950 . S
H571 C583 0.950 1_556 S
C572 H564 0.950 . S
C572 C573 1.386 . S
C572 C574 1.391 . S
C573 C572 1.386 . S
C573 C577 1.393 . S
C574 H566 0.950 . S
C574 C572 1.391 . S
C574 C575 1.400 . S
C575 C574 1.400 . S
C575 C576 1.398 . S
C575 C581 1.491 . S
C576 H567 0.950 . S
C576 C575 1.398 . S
C576 C577 1.391 . S
C577 H565 0.950 . S
C577 C573 1.393 . S
C577 C576 1.391 . S
C578 H568 0.950 . S
C578 C579 1.386 . S
C578 C580 1.391 . S
C579 C578 1.386 . S
C579 C583 1.393 . S
C580 H569 0.950 . S
C580 C578 1.391 . S
C580 C581 1.400 . S
C581 C575 1.491 . S
C581 C580 1.400 . S
C581 C582 1.398 . S
C582 H570 0.950 . S
C582 C581 1.398 . S
C582 C583 1.391 . S
C583 H571 0.950 1_554 S
C583 C579 1.393 . S
C583 C582 1.391 . S
H584 C592 0.950 1_554 S
H585 C597 0.950 . S
H586 C594 0.950 1_554 S
H587 C596 0.951 . S
H588 C598 0.950 . S
H589 C600 0.950 . S
H590 C602 0.950 . S
H591 C603 0.950 . S
C592 H584 0.950 1_556 S
C592 C593 1.390 . S
C592 C594 1.391 . S
C593 C592 1.390 . S
C593 C597 1.390 1_455 S
C594 H586 0.950 1_556 S
C594 C592 1.391 . S
C594 C595 1.400 . S
C595 C594 1.400 . S
C595 C596 1.397 1_455 S
C595 C601 1.491 . S
C596 H587 0.951 . S
C596 C595 1.397 1_655 S
C596 C597 1.391 . S
C597 H585 0.950 . S
C597 C593 1.390 1_655 S
C597 C596 1.391 . S
C598 H588 0.950 . S
C598 C599 1.386 . S
C598 C600 1.391 . S
C599 C598 1.386 . S
C599 C603 1.393 . S
C600 H589 0.950 . S
C600 C598 1.391 . S
C600 C601 1.400 . S
C601 C595 1.491 . S
C601 C600 1.400 . S
C601 C602 1.398 . S
C602 H590 0.950 . S
C602 C601 1.398 . S
C602 C603 1.391 . S
C603 H591 0.950 . S
C603 C599 1.393 . S
C603 C602 1.391 . S
H604 C612 0.950 . S
H605 C617 0.950 . S
H606 C614 0.950 . S
H607 C616 0.950 . S
H608 C618 0.950 . S
H609 C620 0.950 . S
H610 C622 0.950 . S
H611 C623 0.950 . S
C612 H604 0.950 . S
C612 C613 1.386 1_565 S
C612 C614 1.391 . S
C613 C612 1.386 1_545 S
C613 C617 1.393 . S
C614 H606 0.950 . S
C614 C612 1.391 . S
C614 C615 1.400 1_565 S
C615 C614 1.400 1_545 S
C615 C616 1.398 . S
C615 C621 1.491 . S
C616 H607 0.950 . S
C616 C615 1.398 . S
C616 C617 1.391 . S
C617 H605 0.950 . S
C617 C613 1.393 . S
C617 C616 1.391 . S
C618 H608 0.950 . S
C618 C619 1.386 . S
C618 C620 1.391 . S
C619 C618 1.386 . S
C619 C623 1.393 1_545 S
C620 H609 0.950 . S
C620 C618 1.391 . S
C620 C621 1.400 . S
C621 C615 1.491 . S
C621 C620 1.400 . S
C621 C622 1.398 1_545 S
C622 H610 0.950 . S
C622 C621 1.398 1_565 S
C622 C623 1.391 . S
C623 H611 0.950 . S
C623 C619 1.393 1_565 S
C623 C622 1.391 . S
H624 C632 0.950 . S
H625 C637 0.950 1_554 S
H626 C634 0.950 . S
H627 C636 0.950 . S
H628 C638 0.950 . S
H629 C640 0.950 . S
H630 C642 0.950 . S
H631 C643 0.950 . S
C632 H624 0.950 . S
C632 C633 1.386 . S
C632 C634 1.391 . S
C633 C632 1.386 . S
C633 C637 1.393 . S
C634 H626 0.950 . S
C634 C632 1.391 . S
C634 C635 1.400 . S
C635 C634 1.400 . S
C635 C636 1.398 . S
C635 C641 1.491 . S
C636 H627 0.950 . S
C636 C635 1.398 . S
C636 C637 1.391 . S
C637 H625 0.950 1_556 S
C637 C633 1.393 . S
C637 C636 1.391 . S
C638 H628 0.950 . S
C638 C639 1.386 . S
C638 C640 1.391 . S
C639 C638 1.386 . S
C639 C643 1.393 . S
C640 H629 0.950 . S
C640 C638 1.391 . S
C640 C641 1.400 . S
C641 C635 1.491 . S
C641 C640 1.400 . S
C641 C642 1.398 . S
C642 H630 0.950 . S
C642 C641 1.398 . S
C642 C643 1.391 . S
C643 H631 0.950 . S
C643 C639 1.393 . S
C643 C642 1.391 . S
H644 C652 0.950 . S
H645 C657 0.950 1_554 S
H646 C654 0.950 . S
H647 C656 0.950 1_554 S
H648 C658 0.950 . S
H649 C660 0.950 . S
H650 C662 0.950 . S
H651 C663 0.950 . S
C652 H644 0.950 . S
C652 C653 1.386 . S
C652 C654 1.391 . S
C653 C652 1.386 . S
C653 C657 1.393 . S
C654 H646 0.950 . S
C654 C652 1.391 . S
C654 C655 1.400 . S
C655 C654 1.400 . S
C655 C656 1.398 . S
C655 C661 1.491 . S
C656 H647 0.950 1_556 S
C656 C655 1.398 . S
C656 C657 1.391 . S
C657 H645 0.950 1_556 S
C657 C653 1.393 . S
C657 C656 1.391 . S
C658 H648 0.950 . S
C658 C659 1.386 . S
C658 C660 1.391 . S
C659 C658 1.386 . S
C659 C663 1.393 . S
C660 H649 0.950 . S
C660 C658 1.391 . S
C660 C661 1.400 . S
C661 C655 1.491 . S
C661 C660 1.400 . S
C661 C662 1.398 . S
C662 H650 0.950 . S
C662 C661 1.398 . S
C662 C663 1.391 . S
C663 H651 0.950 . S
C663 C659 1.393 . S
C663 C662 1.391 . S
H664 C672 0.950 . S
H665 C677 0.950 . S
H666 C674 0.950 . S
H667 C676 0.950 . S
H668 C678 0.950 . S
H669 C680 0.950 . S
H670 C682 0.950 . S
H671 C683 0.950 . S
C672 H664 0.950 . S
C672 C673 1.386 1_455 S
C672 C674 1.391 . S
C673 C672 1.386 1_655 S
C673 C677 1.393 . S
C674 H666 0.950 . S
C674 C672 1.391 . S
C674 C675 1.400 1_455 S
C675 C674 1.400 1_655 S
C675 C676 1.398 . S
C675 C681 1.491 . S
C676 H667 0.950 . S
C676 C675 1.398 . S
C676 C677 1.391 . S
C677 H665 0.950 . S
C677 C673 1.393 . S
C677 C676 1.391 . S
C678 H668 0.950 . S
C678 C679 1.386 . S
C678 C680 1.391 . S
C679 C678 1.386 . S
C679 C683 1.393 1_655 S
C680 H669 0.950 . S
C680 C678 1.391 . S
C680 C681 1.400 . S
C681 C675 1.491 . S
C681 C680 1.400 . S
C681 C682 1.398 1_655 S
C682 H670 0.950 . S
C682 C681 1.398 1_455 S
C682 C683 1.391 . S
C683 H671 0.950 . S
C683 C679 1.393 1_455 S
C683 C682 1.391 . S
H684 C692 0.950 . S
H685 C697 0.950 . S
H686 C694 0.950 . S
H687 C696 0.950 . S
H688 C698 0.950 . S
H689 C700 0.950 . S
H690 C702 0.950 . S
H691 C703 0.950 . S
C692 H684 0.950 . S
C692 C693 1.386 1_545 S
C692 C694 1.391 . S
C693 C692 1.386 1_565 S
C693 C697 1.393 . S
C694 H686 0.950 . S
C694 C692 1.391 . S
C694 C695 1.400 1_545 S
C695 C694 1.400 1_565 S
C695 C696 1.398 . S
C695 C701 1.491 . S
C696 H687 0.950 . S
C696 C695 1.398 . S
C696 C697 1.391 . S
C697 H685 0.950 . S
C697 C693 1.393 . S
C697 C696 1.391 . S
C698 H688 0.950 . S
C698 C699 1.386 . S
C698 C700 1.391 . S
C699 C698 1.386 . S
C699 C703 1.393 1_565 S
C700 H689 0.950 . S
C700 C698 1.391 . S
C700 C701 1.400 . S
C701 C695 1.491 . S
C701 C700 1.400 . S
C701 C702 1.398 1_565 S
C702 H690 0.950 . S
C702 C701 1.398 1_545 S
C702 C703 1.391 . S
C703 H691 0.950 . S
C703 C699 1.393 1_545 S
C703 C702 1.391 . S
H704 C712 0.950 . S
H705 C717 0.950 . S
H706 C714 0.950 . S
H707 C716 0.950 . S
H708 C718 0.950 . S
H709 C720 0.950 . S
H710 C722 0.950 . S
H711 C723 0.950 . S
C712 H704 0.950 . S
C712 C713 1.386 . S
C712 C714 1.391 . S
C713 C712 1.386 . S
C713 C717 1.393 . S
C714 H706 0.950 . S
C714 C712 1.391 . S
C714 C715 1.400 . S
C715 C714 1.400 . S
C715 C716 1.398 . S
C715 C721 1.491 . S
C716 H707 0.950 . S
C716 C715 1.398 . S
C716 C717 1.391 . S
C717 H705 0.950 . S
C717 C713 1.393 . S
C717 C716 1.391 . S
C718 H708 0.950 . S
C718 C719 1.386 . S
C718 C720 1.391 . S
C719 C718 1.386 . S
C719 C723 1.393 . S
C720 H709 0.950 . S
C720 C718 1.391 . S
C720 C721 1.400 . S
C721 C715 1.491 . S
C721 C720 1.400 . S
C721 C722 1.398 . S
C722 H710 0.950 . S
C722 C721 1.398 . S
C722 C723 1.391 . S
C723 H711 0.950 . S
C723 C719 1.393 . S
C723 C722 1.391 . S
H724 C732 0.950 . S
H725 C737 0.950 . S
H726 C734 0.950 . S
H727 C736 0.950 . S
H728 C738 0.950 . S
H729 C740 0.950 . S
H730 C742 0.950 . S
H731 C743 0.950 . S
C732 H724 0.950 . S
C732 C733 1.386 . S
C732 C734 1.391 . S
C733 C732 1.386 . S
C733 C737 1.393 . S
C734 H726 0.950 . S
C734 C732 1.391 . S
C734 C735 1.400 . S
C735 C734 1.400 . S
C735 C736 1.398 . S
C735 C741 1.491 . S
C736 H727 0.950 . S
C736 C735 1.398 . S
C736 C737 1.391 . S
C737 H725 0.950 . S
C737 C733 1.393 . S
C737 C736 1.391 . S
C738 H728 0.950 . S
C738 C739 1.386 . S
C738 C740 1.391 . S
C739 C738 1.386 . S
C739 C743 1.393 . S
C740 H729 0.950 . S
C740 C738 1.391 . S
C740 C741 1.400 . S
C741 C735 1.491 . S
C741 C740 1.400 . S
C741 C742 1.398 . S
C742 H730 0.950 . S
C742 C741 1.398 . S
C742 C743 1.391 . S
C743 H731 0.950 . S
C743 C739 1.393 . S
C743 C742 1.391 . S
C273 C82 1.679 1_565 S
C279 C122 1.970 1_545 S
C299 C162 1.981 . S
C293 C95 1.709 . S
C319 C202 1.993 . S
C313 C56 1.688 . S
C339 C242 1.981 1_455 S
C333 C69 1.689 1_655 S
C359 C112 1.971 . S
C353 C30 1.699 1_565 S
C373 C43 1.705 . S
C379 C152 1.988 . S
C393 C4 1.693 . S
C399 C192 1.993 . S
C413 C17 1.703 1_655 S
C419 C232 1.977 1_655 S
C439 C109 0.476 . S
C433 C74 0.466 . S
C459 C149 0.476 . S
C453 C87 0.520 . S
C479 C189 0.458 . S
C473 C100 0.471 . S
C493 C61 0.507 . S
C499 C229 0.461 . S
C513 C22 0.504 1_655 S
C519 C119 0.458 . S
C539 C159 0.483 . S
C533 C35 0.524 1_565 S
C559 C199 0.484 . S
C553 C48 0.479 . S
C573 C9 0.499 . S
C579 C239 0.500 . S
C593 C73 2.048 . S
C599 C113 2.267 . S
C613 C86 2.032 . S
C619 C153 2.241 . S
C639 C193 2.216 . S
C633 C99 2.009 . S
C659 C233 2.245 . S
C653 C60 2.023 . S
C673 C21 2.044 1_655 S
C679 C123 2.267 . S
C699 C163 2.232 . S
C693 C34 2.009 1_565 S
C719 C203 2.216 . S
C713 C47 2.012 . S
C733 C8 2.033 . S
C739 C243 2.250 . S
