# Generated by pormake.
# Topology bwt, (3,3)-cn, num edge types: 1
# Building blocks:
#     Node 0, Type 0, BuildingBlock: OLANEW_clean_sbu_2, # of connection points: 3
#     Node 1, Type 0, BuildingBlock: OLANEW_clean_sbu_2, # of connection points: 3
#     Node 2, Type 0, BuildingBlock: OLANEW_clean_sbu_2, # of connection points: 3
#     Node 3, Type 0, BuildingBlock: OLANEW_clean_sbu_2, # of connection points: 3
#     Node 4, Type 0, BuildingBlock: OLANEW_clean_sbu_2, # of connection points: 3
#     Node 5, Type 0, BuildingBlock: OLANEW_clean_sbu_2, # of connection points: 3
#     Node 6, Type 0, BuildingBlock: OLANEW_clean_sbu_2, # of connection points: 3
#     Node 7, Type 0, BuildingBlock: OLANEW_clean_sbu_2, # of connection points: 3
#     Node 8, Type 0, BuildingBlock: OLANEW_clean_sbu_2, # of connection points: 3
#     Node 9, Type 0, BuildingBlock: OLANEW_clean_sbu_2, # of connection points: 3
#     Node 10, Type 0, BuildingBlock: OLANEW_clean_sbu_2, # of connection points: 3
#     Node 11, Type 0, BuildingBlock: OLANEW_clean_sbu_2, # of connection points: 3
#     Node 12, Type 0, BuildingBlock: OLANEW_clean_sbu_2, # of connection points: 3
#     Node 13, Type 0, BuildingBlock: OLANEW_clean_sbu_2, # of connection points: 3
#     Node 14, Type 0, BuildingBlock: OLANEW_clean_sbu_2, # of connection points: 3
#     Node 15, Type 0, BuildingBlock: OLANEW_clean_sbu_2, # of connection points: 3
#     Node 16, Type 0, BuildingBlock: OLANEW_clean_sbu_2, # of connection points: 3
#     Node 17, Type 0, BuildingBlock: OLANEW_clean_sbu_2, # of connection points: 3
#     Node 18, Type 0, BuildingBlock: OLANEW_clean_sbu_2, # of connection points: 3
#     Node 19, Type 0, BuildingBlock: OLANEW_clean_sbu_2, # of connection points: 3
#     Node 20, Type 0, BuildingBlock: OLANEW_clean_sbu_2, # of connection points: 3
#     Node 21, Type 0, BuildingBlock: OLANEW_clean_sbu_2, # of connection points: 3
#     Node 22, Type 0, BuildingBlock: OLANEW_clean_sbu_2, # of connection points: 3
#     Node 23, Type 0, BuildingBlock: OLANEW_clean_sbu_2, # of connection points: 3
#     Node 24, Type 1, BuildingBlock: ESEHIV_clean_linker_0, # of connection points: 3
#     Node 25, Type 1, BuildingBlock: ESEHIV_clean_linker_0, # of connection points: 3
#     Node 26, Type 1, BuildingBlock: ESEHIV_clean_linker_0, # of connection points: 3
#     Node 27, Type 1, BuildingBlock: ESEHIV_clean_linker_0, # of connection points: 3
#     Node 28, Type 1, BuildingBlock: ESEHIV_clean_linker_0, # of connection points: 3
#     Node 29, Type 1, BuildingBlock: ESEHIV_clean_linker_0, # of connection points: 3
#     Node 30, Type 1, BuildingBlock: ESEHIV_clean_linker_0, # of connection points: 3
#     Node 31, Type 1, BuildingBlock: ESEHIV_clean_linker_0, # of connection points: 3
#     Node 32, Type 1, BuildingBlock: ESEHIV_clean_linker_0, # of connection points: 3
#     Node 33, Type 1, BuildingBlock: ESEHIV_clean_linker_0, # of connection points: 3
#     Node 34, Type 1, BuildingBlock: ESEHIV_clean_linker_0, # of connection points: 3
#     Node 35, Type 1, BuildingBlock: ESEHIV_clean_linker_0, # of connection points: 3
#     Node 36, Type 1, BuildingBlock: ESEHIV_clean_linker_0, # of connection points: 3
#     Node 37, Type 1, BuildingBlock: ESEHIV_clean_linker_0, # of connection points: 3
#     Node 38, Type 1, BuildingBlock: ESEHIV_clean_linker_0, # of connection points: 3
#     Node 39, Type 1, BuildingBlock: ESEHIV_clean_linker_0, # of connection points: 3
#     Node 40, Type 1, BuildingBlock: ESEHIV_clean_linker_0, # of connection points: 3
#     Node 41, Type 1, BuildingBlock: ESEHIV_clean_linker_0, # of connection points: 3
#     Node 42, Type 1, BuildingBlock: ESEHIV_clean_linker_0, # of connection points: 3
#     Node 43, Type 1, BuildingBlock: ESEHIV_clean_linker_0, # of connection points: 3
#     Node 44, Type 1, BuildingBlock: ESEHIV_clean_linker_0, # of connection points: 3
#     Node 45, Type 1, BuildingBlock: ESEHIV_clean_linker_0, # of connection points: 3
#     Node 46, Type 1, BuildingBlock: ESEHIV_clean_linker_0, # of connection points: 3
#     Node 47, Type 1, BuildingBlock: ESEHIV_clean_linker_0, # of connection points: 3
#     Edge 48, Type (0, 1), BuildingBlock: OJICUG_clean_linker_0, # of connection points: 2
#     Edge 49, Type (0, 1), BuildingBlock: OJICUG_clean_linker_0, # of connection points: 2
#     Edge 50, Type (0, 1), BuildingBlock: OJICUG_clean_linker_0, # of connection points: 2
#     Edge 51, Type (0, 1), BuildingBlock: OJICUG_clean_linker_0, # of connection points: 2
#     Edge 52, Type (0, 1), BuildingBlock: OJICUG_clean_linker_0, # of connection points: 2
#     Edge 53, Type (0, 1), BuildingBlock: OJICUG_clean_linker_0, # of connection points: 2
#     Edge 54, Type (0, 1), BuildingBlock: OJICUG_clean_linker_0, # of connection points: 2
#     Edge 55, Type (0, 1), BuildingBlock: OJICUG_clean_linker_0, # of connection points: 2
#     Edge 56, Type (0, 1), BuildingBlock: OJICUG_clean_linker_0, # of connection points: 2
#     Edge 57, Type (0, 1), BuildingBlock: OJICUG_clean_linker_0, # of connection points: 2
#     Edge 58, Type (0, 1), BuildingBlock: OJICUG_clean_linker_0, # of connection points: 2
#     Edge 59, Type (0, 1), BuildingBlock: OJICUG_clean_linker_0, # of connection points: 2
#     Edge 60, Type (0, 1), BuildingBlock: OJICUG_clean_linker_0, # of connection points: 2
#     Edge 61, Type (0, 1), BuildingBlock: OJICUG_clean_linker_0, # of connection points: 2
#     Edge 62, Type (0, 1), BuildingBlock: OJICUG_clean_linker_0, # of connection points: 2
#     Edge 63, Type (0, 1), BuildingBlock: OJICUG_clean_linker_0, # of connection points: 2
#     Edge 64, Type (0, 1), BuildingBlock: OJICUG_clean_linker_0, # of connection points: 2
#     Edge 65, Type (0, 1), BuildingBlock: OJICUG_clean_linker_0, # of connection points: 2
#     Edge 66, Type (0, 1), BuildingBlock: OJICUG_clean_linker_0, # of connection points: 2
#     Edge 67, Type (0, 1), BuildingBlock: OJICUG_clean_linker_0, # of connection points: 2
#     Edge 68, Type (0, 1), BuildingBlock: OJICUG_clean_linker_0, # of connection points: 2
#     Edge 69, Type (0, 1), BuildingBlock: OJICUG_clean_linker_0, # of connection points: 2
#     Edge 70, Type (0, 1), BuildingBlock: OJICUG_clean_linker_0, # of connection points: 2
#     Edge 71, Type (0, 1), BuildingBlock: OJICUG_clean_linker_0, # of connection points: 2
#     Edge 72, Type (0, 1), BuildingBlock: OJICUG_clean_linker_0, # of connection points: 2
#     Edge 73, Type (0, 1), BuildingBlock: OJICUG_clean_linker_0, # of connection points: 2
#     Edge 74, Type (0, 1), BuildingBlock: OJICUG_clean_linker_0, # of connection points: 2
#     Edge 75, Type (0, 1), BuildingBlock: OJICUG_clean_linker_0, # of connection points: 2
#     Edge 76, Type (0, 1), BuildingBlock: OJICUG_clean_linker_0, # of connection points: 2
#     Edge 77, Type (0, 1), BuildingBlock: OJICUG_clean_linker_0, # of connection points: 2
#     Edge 78, Type (0, 1), BuildingBlock: OJICUG_clean_linker_0, # of connection points: 2
#     Edge 79, Type (0, 1), BuildingBlock: OJICUG_clean_linker_0, # of connection points: 2
#     Edge 80, Type (0, 1), BuildingBlock: OJICUG_clean_linker_0, # of connection points: 2
#     Edge 81, Type (0, 1), BuildingBlock: OJICUG_clean_linker_0, # of connection points: 2
#     Edge 82, Type (0, 1), BuildingBlock: OJICUG_clean_linker_0, # of connection points: 2
#     Edge 83, Type (0, 1), BuildingBlock: OJICUG_clean_linker_0, # of connection points: 2
#     Edge 84, Type (0, 1), BuildingBlock: OJICUG_clean_linker_0, # of connection points: 2
#     Edge 85, Type (0, 1), BuildingBlock: OJICUG_clean_linker_0, # of connection points: 2
#     Edge 86, Type (0, 1), BuildingBlock: OJICUG_clean_linker_0, # of connection points: 2
#     Edge 87, Type (0, 1), BuildingBlock: OJICUG_clean_linker_0, # of connection points: 2
#     Edge 88, Type (0, 1), BuildingBlock: OJICUG_clean_linker_0, # of connection points: 2
#     Edge 89, Type (0, 1), BuildingBlock: OJICUG_clean_linker_0, # of connection points: 2
#     Edge 90, Type (0, 1), BuildingBlock: OJICUG_clean_linker_0, # of connection points: 2
#     Edge 91, Type (0, 1), BuildingBlock: OJICUG_clean_linker_0, # of connection points: 2
#     Edge 92, Type (0, 1), BuildingBlock: OJICUG_clean_linker_0, # of connection points: 2
#     Edge 93, Type (0, 1), BuildingBlock: OJICUG_clean_linker_0, # of connection points: 2
#     Edge 94, Type (0, 1), BuildingBlock: OJICUG_clean_linker_0, # of connection points: 2
#     Edge 95, Type (0, 1), BuildingBlock: OJICUG_clean_linker_0, # of connection points: 2
#     Edge 96, Type (0, 1), BuildingBlock: OJICUG_clean_linker_0, # of connection points: 2
#     Edge 97, Type (0, 1), BuildingBlock: OJICUG_clean_linker_0, # of connection points: 2
#     Edge 98, Type (0, 1), BuildingBlock: OJICUG_clean_linker_0, # of connection points: 2
#     Edge 99, Type (0, 1), BuildingBlock: OJICUG_clean_linker_0, # of connection points: 2
#     Edge 100, Type (0, 1), BuildingBlock: OJICUG_clean_linker_0, # of connection points: 2
#     Edge 101, Type (0, 1), BuildingBlock: OJICUG_clean_linker_0, # of connection points: 2
#     Edge 102, Type (0, 1), BuildingBlock: OJICUG_clean_linker_0, # of connection points: 2
#     Edge 103, Type (0, 1), BuildingBlock: OJICUG_clean_linker_0, # of connection points: 2
#     Edge 104, Type (0, 1), BuildingBlock: OJICUG_clean_linker_0, # of connection points: 2
#     Edge 105, Type (0, 1), BuildingBlock: OJICUG_clean_linker_0, # of connection points: 2
#     Edge 106, Type (0, 1), BuildingBlock: OJICUG_clean_linker_0, # of connection points: 2
#     Edge 107, Type (0, 1), BuildingBlock: OJICUG_clean_linker_0, # of connection points: 2
#     Edge 108, Type (0, 1), BuildingBlock: OJICUG_clean_linker_0, # of connection points: 2
#     Edge 109, Type (0, 1), BuildingBlock: OJICUG_clean_linker_0, # of connection points: 2
#     Edge 110, Type (0, 1), BuildingBlock: OJICUG_clean_linker_0, # of connection points: 2
#     Edge 111, Type (0, 1), BuildingBlock: OJICUG_clean_linker_0, # of connection points: 2
#     Edge 112, Type (0, 1), BuildingBlock: OJICUG_clean_linker_0, # of connection points: 2
#     Edge 113, Type (0, 1), BuildingBlock: OJICUG_clean_linker_0, # of connection points: 2
#     Edge 114, Type (0, 1), BuildingBlock: OJICUG_clean_linker_0, # of connection points: 2
#     Edge 115, Type (0, 1), BuildingBlock: OJICUG_clean_linker_0, # of connection points: 2
#     Edge 116, Type (0, 1), BuildingBlock: OJICUG_clean_linker_0, # of connection points: 2
#     Edge 117, Type (0, 1), BuildingBlock: OJICUG_clean_linker_0, # of connection points: 2
#     Edge 118, Type (0, 1), BuildingBlock: OJICUG_clean_linker_0, # of connection points: 2
#     Edge 119, Type (0, 1), BuildingBlock: OJICUG_clean_linker_0, # of connection points: 2
# Relax obj value: 0.131
# Max RMSD: 0.138
# Mean RMSD: 0.097
data_MOF--net-bwt--node1-OLANEW_clean_sbu_2--node2-ESEHIV_clean_linker_0--edge1-OJICUG_clean_linker_0
_symmetry_space_group_name_H-M    P1
_symmetry_Int_Tables_number       1
_symmetry_cell_setting            triclinic
loop_
_symmetry_equiv_pos_as_xyz
'x, y, z'
_cell_length_a     39.96417
_cell_length_b     39.958675
_cell_length_c     39.954987
_cell_angle_alpha  93.772849
_cell_angle_beta   93.674824
_cell_angle_gamma 93.796873
loop_
_atom_site_label
_atom_site_type_symbol
_atom_site_fract_x
_atom_site_fract_y
_atom_site_fract_z
_atom_type_partial_charge
O0 O 0.28739 0.58721 0.24459 0.0
Cd1 Cd 0.27376 0.59958 0.18608 0.0
O2 O 0.33878 0.57338 0.2369 0.0
Cd3 Cd 0.38892 0.55736 0.25147 0.0
O4 O 0.44111 0.5488 0.26684 0.0
C5 C 0.44896 0.53647 0.29456 0.0
O6 O 0.42508 0.52773 0.31406 0.0
C7 C 0.31537 0.57808 0.25652 0.0
C8 C 0.20787 0.57621 0.1648 0.0
O9 O 0.23283 0.55899 0.15802 0.0
O10 O 0.214 0.60476 0.18135 0.0
O11 O 0.17337 0.40885 0.7421 0.0
Cd12 Cd 0.16431 0.39205 0.68203 0.0
O13 O 0.13214 0.37581 0.75823 0.0
Cd14 Cd 0.10793 0.36729 0.70763 0.0
O15 O 0.06055 0.386 0.68947 0.0
C16 C 0.03487 0.37579 0.70412 0.0
O17 O 0.03811 0.35227 0.72535 0.0
C18 C 0.15754 0.39646 0.76551 0.0
C19 C 0.21585 0.42444 0.6499 0.0
O20 O 0.18684 0.43628 0.65051 0.0
O21 O 0.22013 0.39672 0.66344 0.0
O22 O 0.75084 0.93224 0.65218 0.0
Cd23 Cd 0.76677 0.9302 0.71214 0.0
O24 O 0.78346 0.89215 0.63825 0.0
Cd25 Cd 0.81145 0.89722 0.68702 0.0
O26 O 0.85969 0.92085 0.70758 0.0
C27 C 0.88376 0.91575 0.68902 0.0
O28 O 0.87788 0.89569 0.66157 0.0
C29 C 0.76122 0.91196 0.62994 0.0
C30 C 0.7235 0.96626 0.74994 0.0
O31 O 0.7525 0.97942 0.74416 0.0
O32 O 0.71528 0.93597 0.73836 0.0
O33 O 0.73464 0.98628 0.30143 0.0
Cd34 Cd 0.74458 0.97275 0.35966 0.0
O35 O 0.68163 0.99565 0.3062 0.0
Cd36 Cd 0.63055 0.00409 0.28702 0.0
O37 O 0.57682 0.00096 0.27195 0.0
C38 C 0.56621 0.98586 0.24391 0.0
O39 O 0.58811 0.97363 0.22408 0.0
C40 C 0.70675 0.99424 0.28829 0.0
C41 C 0.79982 0.93389 0.36361 0.0
O42 O 0.76991 0.91984 0.36063 0.0
O43 O 0.8034 0.96608 0.36556 0.0
O44 O 0.32329 0.32852 0.5688 0.0
Cd45 Cd 0.26299 0.33331 0.55967 0.0
O46 O 0.33817 0.37832 0.59398 0.0
Cd47 Cd 0.29066 0.398 0.57794 0.0
O48 O 0.2837 0.4386 0.54482 0.0
C49 C 0.31142 0.45504 0.54121 0.0
O50 O 0.33891 0.4458 0.55678 0.0
C51 C 0.34571 0.34916 0.58388 0.0
C52 C 0.23578 0.2676 0.54456 0.0
O53 O 0.24595 0.28587 0.52152 0.0
O54 O 0.23702 0.28092 0.57473 0.0
O55 O 0.29319 0.77448 0.09262 0.0
Cd56 Cd 0.35205 0.79588 0.10127 0.0
O57 O 0.30806 0.72899 0.06541 0.0
Cd58 Cd 0.29691 0.68029 0.03739 0.0
O59 O 0.28365 0.62975 0.01436 0.0
C60 C 0.2587 0.62374 0.99294 0.0
O61 O 0.24086 0.64863 0.98423 0.0
C62 C 0.28524 0.7459 0.07737 0.0
C63 C 0.3635 0.8517 0.06493 0.0
O64 O 0.36952 0.82235 0.05293 0.0
O65 O 0.35265 0.85463 0.0944 0.0
O66 O 0.7709 0.23346 0.4316 0.0
Cd67 Cd 0.71095 0.21741 0.428 0.0
O68 O 0.78186 0.1966 0.39109 0.0
Cd69 Cd 0.7353 0.16534 0.39347 0.0
O70 O 0.72315 0.11565 0.41106 0.0
C71 C 0.70816 0.09073 0.39352 0.0
O72 O 0.69626 0.09469 0.36272 0.0
C73 C 0.79135 0.22162 0.41162 0.0
C74 C 0.67811 0.27314 0.45054 0.0
O75 O 0.68339 0.24932 0.46977 0.0
O76 O 0.68784 0.27029 0.42064 0.0
O77 O 0.65232 0.75794 0.95168 0.0
Cd78 Cd 0.71136 0.77908 0.9606 0.0
O79 O 0.63932 0.80413 0.92839 0.0
Cd80 Cd 0.6847 0.83352 0.94908 0.0
O81 O 0.70306 0.87508 0.98519 0.0
C82 C 0.68789 0.90193 0.98323 0.0
O83 O 0.66439 0.90337 0.9589 0.0
C84 C 0.63106 0.77435 0.93575 0.0
C85 C 0.7496 0.73821 0.99925 0.0
O86 O 0.73918 0.76541 0.01238 0.0
O87 O 0.74193 0.73034 0.96797 0.0
O88 O 0.62513 0.3073 0.31095 0.0
Cd89 Cd 0.61386 0.24644 0.30942 0.0
O90 O 0.64997 0.31459 0.36174 0.0
Cd91 Cd 0.63492 0.26338 0.37319 0.0
O92 O 0.60397 0.25301 0.41477 0.0
C93 C 0.58361 0.27565 0.41975 0.0
O94 O 0.58173 0.29923 0.3984 0.0
C95 C 0.64015 0.32664 0.3345 0.0
C96 C 0.57257 0.2301 0.25122 0.0
O97 O 0.56041 0.2392 0.27902 0.0
O98 O 0.60429 0.22702 0.25121 0.0
O99 O 0.00933 0.2027 0.71404 0.0
Cd100 Cd 0.99548 0.26087 0.70785 0.0
O101 O 0.05935 0.20753 0.69416 0.0
Cd102 Cd 0.04887 0.25561 0.67443 0.0
O103 O 0.02451 0.27115 0.62823 0.0
C104 C 0.04005 0.28598 0.60603 0.0
O105 O 0.07203 0.29573 0.61216 0.0
C106 C 0.03684 0.19011 0.7077 0.0
C107 C 0.98443 0.28918 0.77147 0.0
O108 O 0.96041 0.27332 0.75285 0.0
O109 O 0.01339 0.29251 0.75956 0.0
O110 O 0.37329 0.73697 0.18802 0.0
Cd111 Cd 0.36104 0.67651 0.18121 0.0
O112 O 0.33405 0.74707 0.14995 0.0
Cd113 Cd 0.33894 0.69751 0.12462 0.0
O114 O 0.36436 0.68398 0.07913 0.0
C115 C 0.38039 0.70979 0.06956 0.0
O116 O 0.38124 0.73811 0.08832 0.0
C117 C 0.35528 0.75768 0.17392 0.0
C118 C 0.38659 0.65506 0.24153 0.0
O119 O 0.40316 0.65297 0.21513 0.0
O120 O 0.35698 0.6655 0.23895 0.0
O121 O 0.99263 0.66928 0.77082 0.0
Cd122 Cd 0.01299 0.72787 0.78622 0.0
O123 O 0.95971 0.66816 0.8128 0.0
Cd124 Cd 0.98602 0.71178 0.84081 0.0
O125 O 0.01626 0.71951 0.88845 0.0
C126 C 0.01472 0.69367 0.90538 0.0
O127 O 0.99568 0.66708 0.89301 0.0
C128 C 0.96957 0.65435 0.78595 0.0
C129 C 0.03444 0.75775 0.7295 0.0
O130 O 0.05592 0.74893 0.75184 0.0
O131 O 0.00314 0.75303 0.73418 0.0
O132 O 0.63931 0.40913 0.70718 0.0
Cd133 Cd 0.66522 0.41303 0.76417 0.0
O134 O 0.61586 0.45681 0.71687 0.0
Cd135 Cd 0.58345 0.49307 0.69578 0.0
O136 O 0.538 0.512 0.67309 0.0
C137 C 0.5203 0.49422 0.65002 0.0
O138 O 0.5306 0.46514 0.63917 0.0
C139 C 0.62228 0.43254 0.69673 0.0
C140 C 0.73268 0.43299 0.75868 0.0
O141 O 0.72321 0.40188 0.7602 0.0
O142 O 0.7105 0.4546 0.761 0.0
O143 O 0.82516 0.68359 0.29514 0.0
Cd144 Cd 0.80942 0.6826 0.35299 0.0
O145 O 0.84951 0.63649 0.30165 0.0
Cd146 Cd 0.87579 0.59499 0.27916 0.0
O147 O 0.90583 0.56114 0.25022 0.0
C148 C 0.91311 0.56736 0.22061 0.0
O149 O 0.90227 0.59431 0.20762 0.0
C150 C 0.83976 0.65885 0.28277 0.0
C151 C 0.75649 0.63333 0.35227 0.0
O152 O 0.75136 0.66339 0.34504 0.0
O153 O 0.78659 0.62669 0.36113 0.0
O154 O 0.18783 0.07322 0.31905 0.0
Cd155 Cd 0.19929 0.07588 0.25998 0.0
O156 O 0.17765 0.0183 0.31673 0.0
Cd157 Cd 0.15916 0.9728 0.3392 0.0
O158 O 0.1218 0.93259 0.34828 0.0
C159 C 0.10236 0.93599 0.37207 0.0
O160 O 0.10653 0.9632 0.39264 0.0
C161 C 0.18033 0.04659 0.33349 0.0
C162 C 0.2538 0.03926 0.24455 0.0
O163 O 0.2583 0.06928 0.25819 0.0
O164 O 0.22356 0.02664 0.23809 0.0
O165 O 0.28252 0.91397 0.7737 0.0
Cd166 Cd 0.25775 0.89756 0.71731 0.0
O167 O 0.32444 0.94442 0.75556 0.0
Cd168 Cd 0.37202 0.97529 0.76247 0.0
O169 O 0.4188 0.00523 0.77769 0.0
C170 C 0.43663 0.99818 0.80344 0.0
O171 O 0.42637 0.9729 0.82054 0.0
C172 C 0.30873 0.93372 0.7799 0.0
C173 C 0.19664 0.92689 0.7117 0.0
O174 O 0.19854 0.89773 0.72295 0.0
O175 O 0.22345 0.94162 0.70212 0.0
O176 O 0.65785 0.68272 0.33587 0.0
Cd177 Cd 0.70909 0.70932 0.31643 0.0
O178 O 0.68031 0.67181 0.38558 0.0
Cd179 Cd 0.66998 0.6466 0.43124 0.0
O180 O 0.64728 0.60407 0.45569 0.0
C181 C 0.6399 0.57778 0.43626 0.0
O182 O 0.64567 0.57862 0.40438 0.0
C183 C 0.65499 0.67143 0.36463 0.0
C184 C 0.71849 0.77387 0.34771 0.0
O185 O 0.70009 0.76814 0.3202 0.0
O186 O 0.73313 0.74927 0.35978 0.0
O187 O 0.80786 0.2759 0.03191 0.0
Cd188 Cd 0.75447 0.27147 0.05854 0.0
O189 O 0.80723 0.33065 0.03854 0.0
Cd190 Cd 0.82853 0.38256 0.03956 0.0
O191 O 0.83786 0.4356 0.05621 0.0
C192 C 0.85099 0.45839 0.03944 0.0
O193 O 0.8608 0.4504 0.00936 0.0
C194 C 0.82173 0.30488 0.02839 0.0
C195 C 0.73847 0.20617 0.07593 0.0
O196 O 0.72776 0.21603 0.04754 0.0
O197 O 0.75664 0.22726 0.09612 0.0
O198 O 0.28551 0.83179 0.54756 0.0
Cd199 Cd 0.34444 0.82863 0.53663 0.0
O200 O 0.2849 0.88209 0.57307 0.0
Cd201 Cd 0.26499 0.92599 0.59873 0.0
O202 O 0.25963 0.96181 0.64162 0.0
C203 C 0.24731 0.99037 0.64427 0.0
O204 O 0.24755 0.00579 0.67438 0.0
C205 C 0.26933 0.85441 0.56177 0.0
C206 C 0.34883 0.76377 0.50754 0.0
O207 O 0.35434 0.77026 0.53934 0.0
O208 O 0.34269 0.78823 0.48941 0.0
O209 O 0.292 0.28939 0.12059 0.0
Cd210 Cd 0.23208 0.29677 0.12023 0.0
O211 O 0.277 0.24895 0.082 0.0
Cd212 Cd 0.28355 0.20485 0.04843 0.0
O213 O 0.29609 0.15997 0.0194 0.0
C214 C 0.32396 0.14766 0.02653 0.0
O215 O 0.34428 0.16252 0.05099 0.0
C216 C 0.30025 0.26646 0.09978 0.0
C217 C 0.21622 0.33801 0.06909 0.0
O218 O 0.22005 0.34993 0.09977 0.0
O219 O 0.21925 0.30655 0.06282 0.0
O220 O 0.31594 0.7231 0.66931 0.0
Cd221 Cd 0.32268 0.77561 0.70435 0.0
O222 O 0.36651 0.72996 0.65118 0.0
Cd223 Cd 0.40966 0.71193 0.62574 0.0
O224 O 0.43299 0.68884 0.58272 0.0
C225 C 0.43412 0.70595 0.55708 0.0
O226 O 0.424 0.73661 0.55918 0.0
C227 C 0.33903 0.71207 0.6521 0.0
C228 C 0.35879 0.76337 0.76379 0.0
O229 O 0.32691 0.75672 0.76005 0.0
O230 O 0.37349 0.77657 0.73976 0.0
O231 O 0.95123 0.65441 0.26885 0.0
Cd232 Cd 0.98208 0.60659 0.24988 0.0
O233 O 0.9929 0.66223 0.3075 0.0
Cd234 Cd 0.02047 0.69367 0.34852 0.0
O235 O 0.03392 0.7288 0.39223 0.0
C236 C 0.02068 0.72284 0.41949 0.0
O237 O 9e-05 0.6959 0.4202 0.0
C238 C 0.96524 0.67119 0.29464 0.0
C239 C 0.02383 0.62274 0.19906 0.0
O240 O 0.99374 0.60998 0.19242 0.0
O241 O 0.03445 0.62823 0.23001 0.0
O242 O 0.66381 0.26196 0.8042 0.0
Cd243 Cd 0.66829 0.32067 0.79101 0.0
O244 O 0.6277 0.27219 0.8419 0.0
Cd245 Cd 0.58966 0.26353 0.87833 0.0
O246 O 0.55861 0.26017 0.92142 0.0
C247 C 0.56401 0.23837 0.94256 0.0
O248 O 0.58771 0.21768 0.93756 0.0
C249 C 0.64362 0.25107 0.82498 0.0
C250 C 0.6286 0.32265 0.73142 0.0
O251 O 0.66041 0.3205 0.7308 0.0
O252 O 0.61608 0.32545 0.76013 0.0
O253 O 0.07641 0.30717 0.2057 0.0
Cd254 Cd 0.09709 0.25879 0.2325 0.0
O255 O 0.09625 0.29453 0.15707 0.0
Cd256 Cd 0.11082 0.29751 0.10538 0.0
O257 O 0.14496 0.29131 0.06519 0.0
C258 C 0.13822 0.2888 0.03356 0.0
O259 O 0.16244 0.2824 0.01384 0.0
C260 C 0.0808 0.31449 0.17576 0.0
C261 C 0.06744 0.25622 0.29352 0.0
O262 O 0.09502 0.27397 0.29138 0.0
O263 O 0.05463 0.23888 0.2671 0.0
H264 H 0.34563 0.63724 0.39832 0.0
H265 H 0.3159 0.53405 0.41104 0.0
H266 H 0.32967 0.6044 0.49735 0.0
C267 C 0.3389 0.61792 0.41495 0.0
C268 C 0.3381 0.62585 0.44977 0.0
C269 C 0.32999 0.58519 0.40088 0.0
C270 C 0.32208 0.55949 0.42184 0.0
C271 C 0.32348 0.56632 0.45678 0.0
C272 C 0.33072 0.59946 0.47049 0.0
H273 H 0.18513 0.39289 0.92306 0.0
H274 H 0.207 0.49353 0.8942 0.0
H275 H 0.22351 0.47106 0.99733 0.0
C276 C 0.19369 0.4189 0.92972 0.0
C277 C 0.20384 0.42919 0.96335 0.0
C278 C 0.19496 0.44182 0.90449 0.0
C279 C 0.2061 0.47558 0.91337 0.0
C280 C 0.2164 0.48626 0.94686 0.0
C281 C 0.21522 0.4629 0.97156 0.0
H282 H 0.72531 0.86916 0.47473 0.0
H283 H 0.71735 0.97496 0.49508 0.0
H284 H 0.71064 0.93224 0.39282 0.0
C285 C 0.72229 0.89384 0.46572 0.0
C286 C 0.71833 0.89739 0.43101 0.0
C287 C 0.72246 0.92168 0.489 0.0
C288 C 0.71716 0.95335 0.47719 0.0
C289 C 0.71275 0.95757 0.4425 0.0
C290 C 0.71307 0.92928 0.41958 0.0
H291 H 0.71001 0.079 0.16206 0.0
H292 H 0.69889 0.97425 0.12825 0.0
H293 H 0.71205 0.04904 0.05677 0.0
C294 C 0.70852 0.05949 0.14175 0.0
C295 C 0.7112 0.06828 0.10847 0.0
C296 C 0.70452 0.02562 0.14911 0.0
C297 C 0.70269 0.00039 0.12274 0.0
C298 C 0.70481 0.00867 0.0893 0.0
C299 C 0.70921 0.04264 0.08243 0.0
H300 H 0.49841 0.33013 0.63504 0.0
H301 H 0.47863 0.306 0.52933 0.0
H302 H 0.57663 0.29364 0.57538 0.0
C303 C 0.50717 0.32089 0.61131 0.0
C304 C 0.54048 0.31161 0.60937 0.0
C305 C 0.48459 0.31797 0.5828 0.0
C306 C 0.49583 0.30751 0.55159 0.0
C307 C 0.52914 0.29939 0.54871 0.0
C308 C 0.55116 0.30073 0.57772 0.0
H309 H 0.14736 0.67596 0.11399 0.0
H310 H 0.13835 0.71 0.01428 0.0
H311 H 0.05159 0.66533 0.05684 0.0
C312 C 0.13192 0.6792 0.09129 0.0
C313 C 0.09757 0.66836 0.08883 0.0
C314 C 0.14644 0.69487 0.06474 0.0
C315 C 0.1268 0.69876 0.03507 0.0
C316 C 0.09276 0.68721 0.0317 0.0
C317 C 0.07828 0.67262 0.05887 0.0
H318 H 0.94327 0.2599 0.37723 0.0
H319 H 0.92912 0.27625 0.48236 0.0
H320 H 0.02918 0.27721 0.4481 0.0
C321 C 0.95378 0.2648 0.4029 0.0
C322 C 0.98881 0.26856 0.40947 0.0
C323 C 0.93211 0.26686 0.42906 0.0
C324 C 0.94581 0.27458 0.4621 0.0
C325 C 0.98084 0.27859 0.46941 0.0
C326 C 0.00217 0.27564 0.44279 0.0
H327 H 0.48424 0.73736 0.86196 0.0
H328 H 0.48891 0.71695 0.96639 0.0
H329 H 0.39321 0.72262 0.91301 0.0
C330 C 0.47153 0.7319 0.88432 0.0
C331 C 0.4362 0.73022 0.88335 0.0
C332 C 0.49085 0.72777 0.91422 0.0
C333 C 0.47444 0.71921 0.94285 0.0
C334 C 0.43925 0.71684 0.94221 0.0
C335 C 0.42031 0.72269 0.91263 0.0
H336 H 0.68026 0.48738 0.33992 0.0
H337 H 0.57477 0.4586 0.32426 0.0
H338 H 0.60848 0.56317 0.3329 0.0
C339 C 0.65458 0.49452 0.33731 0.0
C340 C 0.64791 0.52867 0.33704 0.0
C341 C 0.62831 0.46925 0.33262 0.0
C342 C 0.59505 0.47816 0.32815 0.0
C343 C 0.58776 0.51198 0.32798 0.0
C344 C 0.61426 0.53708 0.33248 0.0
H345 H 0.09793 0.0451 0.72041 0.0
H346 H 0.9897 0.03971 0.71255 0.0
H347 H 0.04152 0.94911 0.70837 0.0
C348 C 0.07401 0.03043 0.71735 0.0
C349 C 0.07342 0.99512 0.71426 0.0
C350 C 0.04395 0.04691 0.71696 0.0
C351 C 0.01309 0.02747 0.71405 0.0
C352 C 0.01209 0.99223 0.71114 0.0
C353 C 0.04231 0.97631 0.71117 0.0
H354 H 0.33146 0.91173 0.21219 0.0
H355 H 0.4363 0.89696 0.20614 0.0
H356 H 0.40468 0.99646 0.22664 0.0
C357 C 0.35721 0.92216 0.21253 0.0
C358 C 0.36461 0.95695 0.21927 0.0
C359 C 0.3828 0.90036 0.20746 0.0
C360 C 0.41634 0.91363 0.20975 0.0
C361 C 0.42447 0.94815 0.21727 0.0
C362 C 0.39846 0.96971 0.22172 0.0
H363 H 0.86567 0.52649 0.75382 0.0
H364 H 0.96447 0.50386 0.72735 0.0
H365 H 0.88412 0.42612 0.71702 0.0
C366 C 0.88249 0.50865 0.74405 0.0
C367 C 0.87055 0.475 0.73586 0.0
C368 C 0.91618 0.51943 0.74054 0.0
C369 C 0.9381 0.49608 0.72859 0.0
C370 C 0.92685 0.46227 0.72045 0.0
C371 C 0.89296 0.45204 0.72383 0.0
H372 H 0.62137 0.37707 0.55283 0.0
H373 H 0.60283 0.48026 0.54624 0.0
H374 H 0.61576 0.41862 0.45615 0.0
C375 C 0.61618 0.39741 0.53713 0.0
C376 C 0.6197 0.39361 0.50231 0.0
C377 C 0.60872 0.42818 0.55278 0.0
C378 C 0.60634 0.45616 0.53351 0.0
C379 C 0.61026 0.45352 0.49865 0.0
C380 C 0.6149 0.42154 0.48315 0.0
H381 H 0.81817 0.68168 0.12799 0.0
H382 H 0.86363 0.589 0.14202 0.0
H383 H 0.83028 0.61269 0.04271 0.0
C384 C 0.82785 0.65899 0.11723 0.0
C385 C 0.82372 0.6509 0.08227 0.0
C386 C 0.84203 0.6367 0.13887 0.0
C387 C 0.85257 0.60621 0.12534 0.0
C388 C 0.84737 0.59683 0.09088 0.0
C389 C 0.834 0.61978 0.06936 0.0
H390 H 0.18783 0.12853 0.46411 0.0
H391 H 0.19032 0.0277 0.49569 0.0
H392 H 0.21749 0.11244 0.56646 0.0
C393 C 0.19182 0.11144 0.48367 0.0
C394 C 0.20246 0.12474 0.51626 0.0
C395 C 0.18753 0.07653 0.47571 0.0
C396 C 0.19363 0.05465 0.5013 0.0
C397 C 0.20386 0.06749 0.53427 0.0
C398 C 0.20816 0.10252 0.54147 0.0
H399 H 0.35779 0.92504 0.93369 0.0
H400 H 0.33745 0.02665 0.91438 0.0
H401 H 0.36511 0.00181 0.01482 0.0
C402 C 0.35654 0.95108 0.94254 0.0
C403 C 0.36235 0.96044 0.97704 0.0
C404 C 0.34765 0.97469 0.91953 0.0
C405 C 0.34525 0.00829 0.93152 0.0
C406 C 0.35176 0.01826 0.9658 0.0
C407 C 0.36073 0.99429 0.98826 0.0
H408 H 0.50557 0.63971 0.34099 0.0
H409 H 0.5221 0.64806 0.44841 0.0
H410 H 0.42197 0.64831 0.40274 0.0
C411 C 0.49554 0.6398 0.3655 0.0
C412 C 0.46072 0.64123 0.36793 0.0
C413 C 0.518 0.64161 0.39412 0.0
C414 C 0.50516 0.64556 0.42597 0.0
C415 C 0.47076 0.64918 0.42899 0.0
C416 C 0.44854 0.64603 0.40004 0.0
H417 H 0.92383 0.31942 0.91738 0.0
H418 H 0.97934 0.30658 0.01096 0.0
H419 H 0.03034 0.30904 0.9196 0.0
C420 C 0.94756 0.31672 0.9313 0.0
C421 C 0.97706 0.31478 0.91414 0.0
C422 C 0.94821 0.31374 0.9662 0.0
C423 C 0.97887 0.30947 0.98415 0.0
C424 C 0.00867 0.3079 0.96751 0.0
C425 C 0.0075 0.31087 0.93261 0.0
H426 H 0.13077 0.81741 0.62446 0.0
H427 H 0.11734 0.81357 0.51702 0.0
H428 H 0.03401 0.78593 0.57401 0.0
C429 C 0.11411 0.81367 0.60189 0.0
C430 C 0.08046 0.80116 0.60366 0.0
C431 C 0.12736 0.81895 0.57074 0.0
C432 C 0.10679 0.81096 0.54107 0.0
C433 C 0.07362 0.79746 0.54204 0.0
C434 C 0.06018 0.79459 0.57343 0.0
H435 H 0.44537 0.22841 0.14588 0.0
H436 H 0.44419 0.24572 0.0408 0.0
H437 H 0.53688 0.22827 0.09507 0.0
C438 C 0.45861 0.23152 0.12338 0.0
C439 C 0.49346 0.22844 0.12457 0.0
C440 C 0.44066 0.23901 0.09373 0.0
C441 C 0.45764 0.24037 0.064 0.0
C442 C 0.49212 0.23511 0.06405 0.0
C443 C 0.50992 0.22992 0.09459 0.0
H444 H 0.29306 0.55441 0.61467 0.0
H445 H 0.39774 0.58343 0.61076 0.0
H446 H 0.36563 0.47939 0.61666 0.0
C447 C 0.31857 0.54722 0.61282 0.0
C448 C 0.32571 0.51331 0.61429 0.0
C449 C 0.34438 0.57254 0.61155 0.0
C450 C 0.37772 0.56377 0.61087 0.0
C451 C 0.38569 0.5303 0.61344 0.0
C452 C 0.35949 0.50515 0.61443 0.0
H453 H 0.88933 0.80865 0.34013 0.0
H454 H 0.99633 0.80477 0.35364 0.0
H455 H 0.95149 0.89736 0.37744 0.0
C456 C 0.91368 0.8211 0.34826 0.0
C457 C 0.91657 0.85534 0.35976 0.0
C458 C 0.94238 0.80288 0.34658 0.0
C459 C 0.97423 0.81894 0.35561 0.0
C460 C 0.97783 0.85325 0.36608 0.0
C461 C 0.94881 0.87097 0.36895 0.0
H462 H 0.66181 0.09491 0.81018 0.0
H463 H 0.5611 0.11251 0.8344 0.0
H464 H 0.58855 0.01143 0.81386 0.0
C465 C 0.63693 0.08497 0.8153 0.0
C466 C 0.62853 0.05013 0.81134 0.0
C467 C 0.61299 0.10751 0.82431 0.0
C468 C 0.58006 0.09511 0.82895 0.0
C469 C 0.57106 0.06044 0.82476 0.0
C470 C 0.59564 0.03814 0.81706 0.0
H471 H 0.10244 0.46083 0.14226 0.0
H472 H 0.99771 0.44755 0.16008 0.0
H473 H 0.04413 0.54687 0.1551 0.0
C474 C 0.07834 0.47134 0.14463 0.0
C475 C 0.07665 0.50649 0.14638 0.0
C476 C 0.05011 0.4497 0.14927 0.0
C477 C 0.01963 0.46371 0.1557 0.0
C478 C 0.0175 0.49867 0.15812 0.0
C479 C 0.04578 0.5199 0.15261 0.0
C480 C 0.16656 0.53509 0.13172 0.0
C481 C 0.17297 0.56233 0.15578 0.0
H482 H 0.13067 0.49724 0.10847 0.0
C483 C 0.14616 0.57428 0.1731 0.0
H484 H 0.18659 0.52575 0.11747 0.0
C485 C 0.11419 0.55743 0.16858 0.0
C486 C 0.10828 0.52857 0.14622 0.0
H487 H 0.15029 0.5954 0.19167 0.0
H488 H 0.09482 0.56587 0.18421 0.0
C489 C 0.1345 0.51867 0.12669 0.0
C490 C 0.27739 0.43924 0.64853 0.0
C491 C 0.24429 0.44378 0.63668 0.0
H492 H 0.32874 0.45799 0.65187 0.0
C493 C 0.23853 0.469 0.6146 0.0
H494 H 0.28259 0.42004 0.66568 0.0
C495 C 0.26521 0.49029 0.60577 0.0
C496 C 0.29818 0.4874 0.61949 0.0
H497 H 0.21328 0.47274 0.6047 0.0
H498 H 0.25981 0.50951 0.58871 0.0
C499 C 0.30398 0.461 0.64034 0.0
C500 C 0.71084 0.01337 0.79053 0.0
C501 C 0.6995 0.98602 0.76791 0.0
H502 H 0.69748 0.05398 0.8234 0.0
C503 C 0.66483 0.97858 0.76123 0.0
H504 H 0.73749 0.01943 0.79633 0.0
C505 C 0.64189 0.99897 0.77577 0.0
C506 C 0.65303 0.02682 0.7981 0.0
H507 H 0.65542 0.9578 0.74363 0.0
H508 H 0.61547 0.99346 0.76838 0.0
C509 C 0.68785 0.03328 0.80583 0.0
C510 C 0.86041 0.92825 0.35486 0.0
C511 C 0.82946 0.9137 0.36335 0.0
H512 H 0.91141 0.92112 0.34547 0.0
C513 C 0.82704 0.87972 0.37052 0.0
H514 H 0.86292 0.95425 0.34868 0.0
C515 C 0.85526 0.86077 0.36963 0.0
C516 C 0.88633 0.87527 0.36094 0.0
H517 H 0.80345 0.86787 0.37713 0.0
H518 H 0.85274 0.83487 0.3761 0.0
C519 C 0.88835 0.90921 0.35327 0.0
C520 C 0.23192 0.2156 0.50592 0.0
C521 C 0.22509 0.23162 0.53682 0.0
H522 H 0.23138 0.16952 0.47573 0.0
C523 C 0.20995 0.21247 0.56076 0.0
H524 H 0.24394 0.22954 0.48708 0.0
C525 C 0.20208 0.17792 0.554 0.0
C526 C 0.20953 0.16173 0.52328 0.0
H527 H 0.20436 0.22413 0.58482 0.0
H528 H 0.19018 0.1639 0.57284 0.0
C529 C 0.22451 0.1811 0.49935 0.0
C530 C 0.35097 0.91027 0.05328 0.0
C531 C 0.36686 0.88099 0.04448 0.0
H532 H 0.33631 0.95778 0.03861 0.0
C533 C 0.38393 0.87918 0.01484 0.0
H534 H 0.33749 0.91233 0.07592 0.0
C535 C 0.38401 0.9057 0.99373 0.0
C536 C 0.36653 0.93431 0.00156 0.0
H537 H 0.3967 0.85701 0.00762 0.0
H538 H 0.39716 0.90343 0.97091 0.0
C539 C 0.35055 0.9365 0.03193 0.0
C540 C 0.64243 0.30253 0.49066 0.0
C541 C 0.66171 0.30328 0.46261 0.0
H542 H 0.61144 0.32884 0.52315 0.0
C543 C 0.66565 0.33327 0.44646 0.0
H544 H 0.63887 0.27968 0.50356 0.0
C545 C 0.65142 0.36225 0.45873 0.0
C546 C 0.63196 0.36177 0.48697 0.0
H547 H 0.68087 0.33472 0.42507 0.0
H548 H 0.65696 0.3852 0.44662 0.0
C549 C 0.627 0.33106 0.50213 0.0
C550 C 0.79033 0.72971 0.04756 0.0
C551 C 0.76947 0.71622 0.01969 0.0
H552 H 0.82517 0.72011 0.088 0.0
C553 C 0.76736 0.68142 0.01171 0.0
H554 H 0.79265 0.75657 0.05401 0.0
C555 C 0.78501 0.6603 0.03182 0.0
C556 C 0.80603 0.6736 0.05988 0.0
H557 H 0.75119 0.67036 0.99049 0.0
H558 H 0.7813 0.63347 0.02572 0.0
C559 C 0.80879 0.70871 0.06713 0.0
C560 C 0.56124 0.20902 0.19071 0.0
C561 C 0.55105 0.22644 0.21958 0.0
H562 H 0.55047 0.19467 0.13837 0.0
C563 C 0.52115 0.2429 0.21742 0.0
H564 H 0.58418 0.19602 0.19173 0.0
C565 C 0.50249 0.24315 0.18678 0.0
C566 C 0.51269 0.22616 0.15754 0.0
H567 H 0.51289 0.25695 0.23913 0.0
H568 H 0.48065 0.2578 0.18596 0.0
C569 C 0.54205 0.20856 0.16007 0.0
C570 C 0.00474 0.32141 0.82559 0.0
C571 C 0.97972 0.30058 0.80671 0.0
H572 H 0.0229 0.3434 0.87417 0.0
C573 C 0.95168 0.2881 0.82272 0.0
H574 H 0.02644 0.3318 0.81386 0.0
C575 C 0.94991 0.29424 0.85738 0.0
C576 C 0.97599 0.31333 0.87673 0.0
H577 H 0.93196 0.27198 0.80884 0.0
H578 H 0.92904 0.28234 0.86921 0.0
C579 C 0.00278 0.32791 0.86019 0.0
C580 C 0.39212 0.6636 0.30427 0.0
C581 C 0.40243 0.64814 0.27441 0.0
H582 H 0.4027 0.67443 0.35708 0.0
C583 C 0.42971 0.62795 0.276 0.0
H584 H 0.37117 0.67946 0.30369 0.0
C585 C 0.44694 0.62387 0.30671 0.0
C586 C 0.43833 0.64109 0.33651 0.0
H587 H 0.43798 0.61551 0.25338 0.0
H588 H 0.46779 0.60795 0.3068 0.0
C589 C 0.41011 0.66043 0.33499 0.0
C590 C 0.0312 0.75496 0.66732 0.0
C591 C 0.04525 0.77038 0.69791 0.0
H592 H 0.03243 0.75074 0.61423 0.0
C593 C 0.07017 0.79675 0.69784 0.0
H594 H 0.01226 0.7342 0.66689 0.0
C595 C 0.08071 0.80775 0.66737 0.0
C596 C 0.06746 0.79165 0.63638 0.0
H597 H 0.0812 0.80908 0.72131 0.0
H598 H 0.09932 0.82879 0.66829 0.0
C599 C 0.04261 0.76493 0.63701 0.0
C600 C 0.77594 0.47535 0.74149 0.0
C601 C 0.76793 0.44363 0.75319 0.0
H602 H 0.81407 0.50955 0.72551 0.0
C603 C 0.7937 0.42195 0.75861 0.0
H604 H 0.75654 0.49244 0.73662 0.0
C605 C 0.82693 0.43202 0.7529 0.0
C606 C 0.83504 0.4638 0.74111 0.0
H607 H 0.78828 0.39735 0.76768 0.0
H608 H 0.84629 0.41506 0.75832 0.0
C609 C 0.80901 0.4852 0.73524 0.0
C610 C 0.73079 0.57756 0.36647 0.0
C611 C 0.72868 0.6068 0.34904 0.0
H612 H 0.7067 0.53045 0.37717 0.0
C613 C 0.70016 0.61009 0.32743 0.0
H614 H 0.7525 0.57439 0.38333 0.0
C615 C 0.67423 0.58467 0.32329 0.0
C616 C 0.67599 0.55545 0.34097 0.0
H617 H 0.69819 0.63207 0.31313 0.0
H618 H 0.65305 0.58775 0.30575 0.0
C619 C 0.70464 0.55226 0.36266 0.0
C620 C 0.27863 0.99224 0.21269 0.0
C621 C 0.28262 0.01948 0.23694 0.0
H622 H 0.3016 0.95226 0.18695 0.0
C623 C 0.31414 0.02714 0.25434 0.0
H624 H 0.25471 0.98605 0.19858 0.0
C625 C 0.3409 0.00718 0.24839 0.0
C626 C 0.33684 0.9795 0.22445 0.0
H627 H 0.31787 0.04795 0.27329 0.0
H628 H 0.36442 0.01295 0.26327 0.0
C629 C 0.30551 0.97275 0.20622 0.0
C630 C 0.1616 0.97353 0.69489 0.0
C631 C 0.16483 0.94376 0.71131 0.0
H632 H 0.13012 0.01285 0.68251 0.0
C633 C 0.13785 0.93098 0.72863 0.0
H634 H 0.18186 0.9839 0.68116 0.0
C635 C 0.10842 0.94784 0.72989 0.0
C636 C 0.10512 0.97769 0.71354 0.0
H637 H 0.13966 0.90824 0.74178 0.0
H638 H 0.08839 0.93768 0.74409 0.0
C639 C 0.13203 0.99027 0.6959 0.0
C640 C 0.74457 0.81428 0.39384 0.0
C641 C 0.72103 0.80728 0.36627 0.0
H642 H 0.76284 0.84863 0.43518 0.0
C643 C 0.69844 0.83156 0.35822 0.0
H644 H 0.76264 0.79633 0.4004 0.0
C645 C 0.6982 0.86144 0.37853 0.0
C646 C 0.72064 0.86762 0.40715 0.0
H647 H 0.68002 0.82689 0.33706 0.0
H648 H 0.67953 0.879 0.37262 0.0
C649 C 0.7445 0.84416 0.41392 0.0
C650 C 0.708 0.14936 0.06411 0.0
C651 C 0.73054 0.17132 0.0849 0.0
H652 H 0.6836 0.09995 0.05563 0.0
C653 C 0.74589 0.15947 0.11403 0.0
H654 H 0.69557 0.15778 0.0416 0.0
C655 C 0.73932 0.12621 0.12188 0.0
C656 C 0.71709 0.10407 0.10089 0.0
H657 H 0.76346 0.17573 0.13053 0.0
H658 H 0.75232 0.11765 0.14401 0.0
C659 C 0.70127 0.11616 0.07207 0.0
C660 C 0.33762 0.72149 0.45836 0.0
C661 C 0.34804 0.72888 0.49239 0.0
H662 H 0.32476 0.68382 0.41873 0.0
C663 C 0.3562 0.70242 0.51211 0.0
H664 H 0.33064 0.74125 0.44253 0.0
C665 C 0.35468 0.66936 0.49803 0.0
C666 C 0.34316 0.66157 0.46414 0.0
H667 H 0.36379 0.70723 0.53852 0.0
H668 H 0.36242 0.65007 0.51403 0.0
C669 C 0.33471 0.6883 0.44456 0.0
C670 C 0.21679 0.3499 0.00853 0.0
C671 C 0.21003 0.36016 0.04156 0.0
H672 H 0.22097 0.36379 0.95816 0.0
C673 C 0.19897 0.39237 0.04828 0.0
H674 H 0.22549 0.32523 0.00264 0.0
C675 C 0.19569 0.41429 0.02263 0.0
C676 C 0.20395 0.40466 0.98982 0.0
H677 H 0.19316 0.40079 0.07345 0.0
H678 H 0.18708 0.43896 0.02866 0.0
C679 C 0.214 0.37198 0.98297 0.0
C680 C 0.41008 0.77141 0.80344 0.0
C681 C 0.37818 0.75532 0.7946 0.0
H682 H 0.45272 0.77721 0.83879 0.0
C683 C 0.3653 0.73094 0.81504 0.0
H684 H 0.42052 0.79051 0.78829 0.0
C685 C 0.3842 0.72246 0.84354 0.0
C686 C 0.41618 0.73862 0.85258 0.0
H687 H 0.34087 0.7179 0.80864 0.0
H688 H 0.37386 0.70293 0.8582 0.0
C689 C 0.42869 0.76346 0.83227 0.0
C690 C 0.07277 0.6554 0.17771 0.0
C691 C 0.04503 0.63185 0.17163 0.0
H692 H 0.1106 0.68609 0.15641 0.0
C693 C 0.03658 0.61824 0.13866 0.0
H694 H 0.07988 0.66631 0.20291 0.0
C695 C 0.05473 0.62881 0.1121 0.0
C696 C 0.08126 0.65393 0.11773 0.0
H697 H 0.01562 0.59966 0.13326 0.0
H698 H 0.04747 0.6177 0.08703 0.0
C699 C 0.09054 0.66655 0.15101 0.0
C700 C 0.57198 0.31211 0.70128 0.0
C701 C 0.60657 0.32008 0.70008 0.0
H702 H 0.52462 0.30126 0.67402 0.0
C703 C 0.61978 0.3241 0.66873 0.0
H704 H 0.56113 0.30808 0.72498 0.0
C705 C 0.59859 0.32096 0.63922 0.0
C706 C 0.56371 0.31346 0.6404 0.0
H707 H 0.6464 0.33022 0.66705 0.0
H708 H 0.60952 0.3256 0.61573 0.0
C709 C 0.55095 0.3084 0.67187 0.0
C710 C 0.02158 0.23496 0.32785 0.0
C711 C 0.04969 0.25727 0.32487 0.0
H712 H 0.98098 0.22044 0.35726 0.0
C713 C 0.05918 0.28193 0.35112 0.0
H714 H 0.01383 0.21546 0.30825 0.0
C715 C 0.03999 0.28514 0.37911 0.0
C716 C 0.01105 0.26366 0.3814 0.0
H717 H 0.08073 0.29953 0.34952 0.0
H718 H 0.04711 0.30519 0.39832 0.0
C719 C 0.00261 0.23799 0.35586 0.0
C720 C 0.29273 0.56689 0.3119 0.0
C721 C 0.32043 0.57492 0.29319 0.0
H722 H 0.27439 0.56314 0.36094 0.0
C723 C 0.35195 0.58328 0.31035 0.0
H724 H 0.26808 0.56033 0.29941 0.0
C725 C 0.35542 0.58542 0.34545 0.0
C726 C 0.32748 0.57856 0.36401 0.0
H727 H 0.37357 0.59004 0.29693 0.0
H728 H 0.37969 0.59334 0.35815 0.0
C729 C 0.29631 0.56836 0.34702 0.0
C730 C 0.14847 0.39614 0.82704 0.0
C731 C 0.16766 0.40729 0.80112 0.0
H732 H 0.14156 0.3988 0.87979 0.0
C733 C 0.1959 0.42989 0.80947 0.0
H734 H 0.12642 0.37893 0.8215 0.0
C735 C 0.20465 0.44118 0.84294 0.0
C736 C 0.18535 0.43018 0.86884 0.0
H737 H 0.21127 0.43898 0.79015 0.0
H738 H 0.2268 0.45824 0.84856 0.0
C739 C 0.15719 0.40749 0.86049 0.0
C740 C 0.76492 0.89428 0.56923 0.0
C741 C 0.74934 0.91281 0.59417 0.0
H742 H 0.76931 0.88318 0.51682 0.0
C743 C 0.72375 0.93341 0.58438 0.0
H744 H 0.78489 0.87835 0.57584 0.0
C745 C 0.71443 0.93585 0.5503 0.0
C746 C 0.73062 0.91788 0.52535 0.0
H747 H 0.71119 0.94795 0.60299 0.0
H748 H 0.69465 0.9519 0.54351 0.0
C749 C 0.75582 0.89691 0.5353 0.0
C750 C 0.72376 0.98391 0.22983 0.0
C751 C 0.70409 0.00095 0.25236 0.0
H752 H 0.73911 0.97824 0.17956 0.0
C753 C 0.6838 0.02567 0.24058 0.0
H754 H 0.73976 0.96486 0.2383 0.0
C755 C 0.68355 0.03346 0.20693 0.0
C756 C 0.70343 0.01653 0.18445 0.0
H757 H 0.6691 0.03984 0.25758 0.0
H758 H 0.66798 0.05287 0.19851 0.0
C759 C 0.72326 0.99144 0.19619 0.0
C760 C 0.38979 0.30948 0.57152 0.0
C761 C 0.38105 0.34012 0.58675 0.0
H762 H 0.42938 0.27864 0.55839 0.0
C763 C 0.40668 0.36283 0.60233 0.0
H764 H 0.37074 0.29138 0.55932 0.0
C765 C 0.44038 0.35538 0.60182 0.0
C766 C 0.449 0.32528 0.58545 0.0
H767 H 0.4008 0.38668 0.61422 0.0
H768 H 0.45974 0.3736 0.61327 0.0
C769 C 0.42338 0.30224 0.57075 0.0
C770 C 0.24119 0.69884 0.07904 0.0
C771 C 0.24988 0.73264 0.07381 0.0
H772 H 0.20128 0.6604 0.08061 0.0
C773 C 0.22443 0.75398 0.06603 0.0
H774 H 0.26039 0.68212 0.08584 0.0
C775 C 0.19081 0.74153 0.06276 0.0
C776 C 0.18208 0.70775 0.06804 0.0
H777 H 0.23058 0.78018 0.06209 0.0
H778 H 0.17155 0.75837 0.0565 0.0
C779 C 0.20749 0.68653 0.07641 0.0
C780 C 0.85054 0.21918 0.39536 0.0
C781 C 0.82675 0.23544 0.4137 0.0
H782 H 0.90228 0.21594 0.38625 0.0
C783 C 0.83753 0.26374 0.43547 0.0
H784 H 0.84314 0.19726 0.37844 0.0
C785 C 0.87157 0.27479 0.43964 0.0
C786 C 0.89553 0.2577 0.42224 0.0
H787 H 0.81978 0.27698 0.44981 0.0
H788 H 0.87917 0.29643 0.45685 0.0
C789 C 0.88451 0.23008 0.39968 0.0
C790 C 0.57377 0.77757 0.9078 0.0
C791 C 0.59615 0.76003 0.92745 0.0
H792 H 0.52327 0.78128 0.88846 0.0
C793 C 0.58417 0.73008 0.94067 0.0
H794 H 0.58211 0.80069 0.89717 0.0
C795 C 0.55018 0.71876 0.93548 0.0
C796 C 0.52762 0.73704 0.91677 0.0
H797 H 0.60079 0.71595 0.95589 0.0
H798 H 0.54144 0.69606 0.94659 0.0
C799 C 0.53999 0.76624 0.90254 0.0
C800 C 0.65702 0.38562 0.35825 0.0
C801 C 0.64192 0.36351 0.33184 0.0
H802 H 0.66461 0.43672 0.3791 0.0
C803 C 0.62502 0.37699 0.30442 0.0
H804 H 0.67023 0.37609 0.37973 0.0
C805 C 0.62158 0.41148 0.3043 0.0
C806 C 0.63529 0.43332 0.33138 0.0
H807 H 0.61312 0.36077 0.28364 0.0
H808 H 0.60748 0.42106 0.28336 0.0
C809 C 0.65386 0.42029 0.35793 0.0
C810 C 0.06642 0.1373 0.69797 0.0
C811 C 0.04127 0.15439 0.71347 0.0
H812 H 0.08658 0.09003 0.68627 0.0
C813 C 0.01874 0.13636 0.73239 0.0
H814 H 0.08409 0.15043 0.68309 0.0
C815 C 0.02047 0.10176 0.73466 0.0
C816 C 0.04453 0.08428 0.71775 0.0
H817 H 0.99927 0.14884 0.74493 0.0
H818 H 0.00253 0.08861 0.74923 0.0
C819 C 0.06793 0.10262 0.69993 0.0
C820 C 0.3879 0.80589 0.2068 0.0
C821 C 0.36064 0.79401 0.18421 0.0
H822 H 0.41592 0.84854 0.23227 0.0
C823 C 0.33966 0.81728 0.17063 0.0
H824 H 0.40442 0.78864 0.21799 0.0
C825 C 0.34664 0.85176 0.17838 0.0
C826 C 0.37453 0.86368 0.20019 0.0
H827 H 0.31821 0.80894 0.1535 0.0
H828 H 0.33064 0.8691 0.16661 0.0
C829 C 0.39473 0.84029 0.21474 0.0
C830 C 0.96487 0.60476 0.74336 0.0
C831 C 0.95496 0.62046 0.77331 0.0
H832 H 0.96003 0.56076 0.70923 0.0
C833 C 0.93159 0.603 0.79183 0.0
H834 H 0.98277 0.61753 0.72845 0.0
C835 C 0.91883 0.57047 0.781 0.0
C836 C 0.92895 0.55457 0.75125 0.0
H837 H 0.92351 0.61423 0.81511 0.0
H838 H 0.9016 0.55747 0.79643 0.0
C839 C 0.95199 0.57217 0.73244 0.0
C840 C 0.59555 0.40656 0.64229 0.0
C841 C 0.61365 0.43364 0.66063 0.0
H842 H 0.57879 0.38398 0.59347 0.0
C843 C 0.62679 0.46068 0.64378 0.0
H844 H 0.58441 0.38612 0.6552 0.0
C845 C 0.6239 0.45963 0.60874 0.0
C846 C 0.60745 0.4316 0.58996 0.0
H847 H 0.64097 0.48179 0.65764 0.0
H848 H 0.63622 0.47993 0.59645 0.0
C849 C 0.59231 0.40556 0.60718 0.0
C850 C 0.85182 0.68036 0.22687 0.0
C851 C 0.84171 0.65388 0.2462 0.0
H852 H 0.86063 0.69553 0.17739 0.0
C853 C 0.83115 0.62238 0.23014 0.0
H854 H 0.8596 0.70501 0.23884 0.0
C855 C 0.83124 0.61709 0.19539 0.0
C856 C 0.8422 0.64313 0.17587 0.0
H857 H 0.82207 0.60192 0.24442 0.0
H858 H 0.82235 0.59258 0.18377 0.0
C859 C 0.85226 0.67496 0.19188 0.0
C860 C 0.19365 0.02886 0.39121 0.0
C861 C 0.17597 0.04903 0.3698 0.0
H862 H 0.21183 0.02209 0.44167 0.0
C863 C 0.15787 0.07472 0.38371 0.0
H864 H 0.20798 0.00901 0.3809 0.0
C865 C 0.15908 0.08155 0.41847 0.0
C866 C 0.17957 0.06372 0.43999 0.0
H867 H 0.14376 0.09033 0.3676 0.0
H868 H 0.14529 0.10201 0.42833 0.0
C869 C 0.19571 0.03633 0.42604 0.0
C870 C 0.31274 0.92239 0.84058 0.0
C871 C 0.32029 0.94381 0.81522 0.0
H872 H 0.31447 0.91548 0.8931 0.0
C873 C 0.33676 0.97555 0.82433 0.0
H874 H 0.29949 0.898 0.83441 0.0
C875 C 0.34647 0.98522 0.85798 0.0
C876 C 0.33889 0.96383 0.88346 0.0
H877 H 0.34112 0.99352 0.80576 0.0
H878 H 0.35965 0.00965 0.86397 0.0
C879 C 0.32174 0.93231 0.87427 0.0
C880 C 0.60101 0.63634 0.35373 0.0
C881 C 0.62172 0.65974 0.37451 0.0
H882 H 0.55268 0.60989 0.34517 0.0
C883 C 0.60958 0.67409 0.40389 0.0
H884 H 0.61004 0.62501 0.33096 0.0
C885 C 0.5764 0.66675 0.41138 0.0
C886 C 0.55487 0.64433 0.38991 0.0
H887 H 0.62521 0.69249 0.42008 0.0
H888 H 0.56726 0.68031 0.43289 0.0
C889 C 0.56814 0.62802 0.36181 0.0
C890 C 0.87807 0.28414 0.01885 0.0
C891 C 0.85456 0.30818 0.01357 0.0
H892 H 0.92635 0.26738 0.00831 0.0
C893 C 0.86227 0.33453 0.99313 0.0
H894 H 0.87267 0.26349 0.0344 0.0
C895 C 0.89289 0.33665 0.97804 0.0
C896 C 0.91644 0.31262 0.9834 0.0
H897 H 0.84425 0.3529 0.98794 0.0
H898 H 0.89812 0.35697 0.96206 0.0
C899 C 0.90884 0.2865 0.00414 0.0
C900 C 0.21562 0.82276 0.54138 0.0
C901 C 0.23272 0.84738 0.56411 0.0
H902 H 0.16989 0.79387 0.52628 0.0
C903 C 0.21492 0.86277 0.58944 0.0
H904 H 0.22857 0.81008 0.52174 0.0
C905 C 0.18061 0.85388 0.59162 0.0
C906 C 0.16362 0.82923 0.56869 0.0
H907 H 0.22751 0.88079 0.60819 0.0
H908 H 0.16742 0.86621 0.61126 0.0
C909 C 0.18172 0.81367 0.54375 0.0
C910 C 0.35918 0.26919 0.12504 0.0
C911 C 0.33607 0.25978 0.09758 0.0
H912 H 0.41003 0.2712 0.14503 0.0
C913 C 0.34782 0.24498 0.06809 0.0
H914 H 0.35112 0.28134 0.1479 0.0
C915 C 0.38156 0.23795 0.06675 0.0
C916 C 0.4046 0.24654 0.09458 0.0
H917 H 0.33125 0.23938 0.04573 0.0
H918 H 0.38937 0.22552 0.04396 0.0
C919 C 0.39299 0.26291 0.12348 0.0
C920 C 0.31808 0.65239 0.65447 0.0
C921 C 0.33541 0.67702 0.63742 0.0
H922 H 0.30746 0.59996 0.65956 0.0
C923 C 0.35123 0.66718 0.60833 0.0
H924 H 0.30539 0.65923 0.67682 0.0
C925 C 0.35267 0.63308 0.59849 0.0
C926 C 0.33755 0.60838 0.61721 0.0
H927 H 0.36313 0.68575 0.59365 0.0
H928 H 0.36648 0.62597 0.57697 0.0
C929 C 0.31917 0.61841 0.64449 0.0
C930 C 0.93996 0.72595 0.28647 0.0
C931 C 0.95151 0.70227 0.30814 0.0
H932 H 0.92771 0.77714 0.28213 0.0
C933 C 0.95377 0.71029 0.34298 0.0
H934 H 0.93767 0.72019 0.25951 0.0
C935 C 0.94862 0.74272 0.35578 0.0
C936 C 0.94004 0.76728 0.33393 0.0
H937 H 0.96129 0.69193 0.36021 0.0
H938 H 0.95293 0.7491 0.38256 0.0
C939 C 0.93429 0.7584 0.29934 0.0
C940 C 0.62273 0.20008 0.85394 0.0
C941 C 0.63709 0.21425 0.82644 0.0
H942 H 0.60343 0.15502 0.87471 0.0
C943 C 0.64453 0.19277 0.799 0.0
H944 H 0.61813 0.21552 0.87609 0.0
C945 C 0.63699 0.15819 0.79861 0.0
C946 C 0.62171 0.14418 0.82559 0.0
H947 H 0.65559 0.20273 0.77734 0.0
H948 H 0.64245 0.14243 0.77679 0.0
C949 C 0.61471 0.16537 0.85335 0.0
C950 C 0.08404 0.36323 0.1387 0.0
C951 C 0.06938 0.34681 0.16473 0.0
H952 H 0.08853 0.40814 0.11244 0.0
C953 C 0.04566 0.36327 0.18309 0.0
H954 H 0.10297 0.35188 0.12457 0.0
C955 C 0.03819 0.39599 0.17693 0.0
C956 C 0.05399 0.41311 0.15197 0.0
H957 H 0.0338 0.35137 0.20331 0.0
H958 H 0.02138 0.40839 0.19311 0.0
C959 C 0.07618 0.3959 0.13217 0.0
C960 C 0.49299 0.51103 0.33039 0.0
C961 C 0.48461 0.53196 0.30466 0.0
H962 H 0.53227 0.48838 0.35799 0.0
C963 C 0.51062 0.54812 0.28829 0.0
H964 H 0.47356 0.4984 0.34362 0.0
C965 C 0.54424 0.5427 0.29683 0.0
C966 C 0.55249 0.52066 0.32158 0.0
H967 H 0.50501 0.56472 0.26863 0.0
H968 H 0.56371 0.55484 0.28326 0.0
C969 C 0.52656 0.50524 0.33858 0.0
C970 C 0.00312 0.42428 0.68591 0.0
C971 C 0.0042 0.39464 0.70294 0.0
H972 H 0.97748 0.46875 0.6777 0.0
C973 C 0.97732 0.38541 0.72226 0.0
H974 H 0.0233 0.43201 0.67062 0.0
C975 C 0.95119 0.40654 0.72643 0.0
C976 C 0.95135 0.43735 0.71134 0.0
H977 H 0.97728 0.36267 0.73561 0.0
H978 H 0.93191 0.39962 0.74307 0.0
C979 C 0.97699 0.44544 0.69012 0.0
C980 C 0.94379 0.92656 0.67659 0.0
C981 C 0.91703 0.93415 0.69628 0.0
H982 H 0.99459 0.93914 0.66565 0.0
C983 C 0.92198 0.96053 0.72156 0.0
H984 H 0.9408 0.90645 0.65686 0.0
C985 C 0.95289 0.97935 0.72654 0.0
C986 C 0.97948 0.97195 0.70653 0.0
H987 H 0.90181 0.96704 0.7371 0.0
H988 H 0.95602 0.99966 0.74607 0.0
C989 C 0.97467 0.94521 0.6817 0.0
C990 C 0.51801 0.95891 0.20624 0.0
C991 C 0.52966 0.97929 0.2352 0.0
H992 H 0.47558 0.93349 0.1776 0.0
C993 C 0.50609 0.99168 0.25668 0.0
H994 H 0.53544 0.94911 0.18903 0.0
C995 C 0.47175 0.98273 0.25007 0.0
C996 C 0.4603 0.96108 0.22194 0.0
H997 H 0.5142 0.00755 0.27914 0.0
H998 H 0.45433 0.99161 0.26776 0.0
C999 C 0.48373 0.94984 0.19973 0.0
C1000 C 0.34178 0.50702 0.52416 0.0
C1001 C 0.31325 0.48423 0.5204 0.0
H1002 H 0.36686 0.55122 0.50737 0.0
C1003 C 0.28734 0.48922 0.49614 0.0
H1004 H 0.36226 0.5038 0.54247 0.0
C1005 C 0.29044 0.51601 0.47538 0.0
C1006 C 0.31907 0.53865 0.47924 0.0
H1007 H 0.26511 0.47199 0.49265 0.0
H1008 H 0.27053 0.5191 0.45636 0.0
C1009 C 0.34446 0.53419 0.5041 0.0
C1010 C 0.2674 0.56218 0.98983 0.0
C1011 C 0.24901 0.58884 0.97928 0.0
H1012 H 0.27181 0.50904 0.98741 0.0
C1013 C 0.22082 0.58164 0.95638 0.0
H1014 H 0.28938 0.56682 0.00725 0.0
C1015 C 0.21073 0.5484 0.94503 0.0
C1016 C 0.22854 0.52172 0.95647 0.0
H1017 H 0.20617 0.60161 0.94768 0.0
H1018 H 0.18838 0.5435 0.92815 0.0
C1019 C 0.25727 0.52904 0.97857 0.0
C1020 C 0.68782 0.02956 0.39021 0.0
C1021 C 0.70757 0.05692 0.40669 0.0
H1022 H 0.6733 0.97684 0.38894 0.0
C1023 C 0.7283 0.05146 0.43527 0.0
H1024 H 0.67154 0.033 0.36816 0.0
C1025 C 0.7298 0.01936 0.44676 0.0
C1026 C 0.71019 0.99185 0.43035 0.0
H1027 H 0.74416 0.07186 0.44837 0.0
H1028 H 0.74705 0.01607 0.46812 0.0
C1029 C 0.68897 0.99738 0.40203 0.0
C1030 C 0.71501 0.92663 0.03858 0.0
C1031 C 0.69421 0.92999 0.00943 0.0
H1032 H 0.73478 0.94893 0.08665 0.0
C1033 C 0.67797 0.95989 0.00628 0.0
H1034 H 0.72788 0.90392 0.04179 0.0
C1035 C 0.68187 0.98556 0.03197 0.0
C1036 C 0.70199 0.9819 0.06146 0.0
H1037 H 0.66176 0.9633 0.98417 0.0
H1038 H 0.6684 0.00796 0.02909 0.0
C1039 C 0.71876 0.95228 0.06438 0.0
C1040 C 0.54736 0.30664 0.4578 0.0
C1041 C 0.56645 0.27891 0.45141 0.0
H1042 H 0.52104 0.33489 0.49365 0.0
C1043 C 0.57153 0.2566 0.47677 0.0
H1044 H 0.543 0.32439 0.4389 0.0
C1045 C 0.55924 0.26296 0.50845 0.0
C1046 C 0.54108 0.29131 0.515 0.0
H1047 H 0.5862 0.23505 0.47264 0.0
H1048 H 0.56418 0.24594 0.52791 0.0
C1049 C 0.53478 0.31272 0.48919 0.0
C1050 C 0.03914 0.30493 0.54724 0.0
C1051 C 0.02356 0.28721 0.57193 0.0
H1052 H 0.03752 0.31691 0.49568 0.0
C1053 C 0.99308 0.2682 0.56305 0.0
H1054 H 0.06261 0.31989 0.55334 0.0
C1055 C 0.97917 0.26584 0.53002 0.0
C1056 C 0.99498 0.28295 0.505 0.0
H1057 H 0.98052 0.25396 0.58133 0.0
H1058 H 0.95657 0.24954 0.52399 0.0
C1059 C 0.0249 0.30298 0.51415 0.0
C1060 C 0.39167 0.73863 0.01801 0.0
C1061 C 0.39402 0.70989 0.03618 0.0
H1062 H 0.40364 0.76287 0.97364 0.0
C1063 C 0.41009 0.68243 0.02255 0.0
H1064 H 0.37903 0.75994 0.02781 0.0
C1065 C 0.42478 0.68439 0.99171 0.0
C1066 C 0.42253 0.71337 0.9738 0.0
H1067 H 0.41221 0.66004 0.03619 0.0
H1068 H 0.43795 0.66344 0.98189 0.0
C1069 C 0.40549 0.74024 0.98698 0.0
C1070 C 0.03162 0.66387 0.95612 0.0
C1071 C 0.03434 0.69277 0.93797 0.0
H1072 H 0.04813 0.63938 0.99955 0.0
C1073 C 0.0562 0.72019 0.95105 0.0
H1074 H 0.0151 0.64224 0.94675 0.0
C1075 C 0.07511 0.71857 0.98156 0.0
C1076 C 0.07242 0.68955 0.9996 0.0
H1077 H 0.05883 0.74283 0.93767 0.0
H1078 H 0.09164 0.74012 0.99115 0.0
C1079 C 0.05042 0.66228 0.98653 0.0
C1080 C 0.46582 0.48392 0.61463 0.0
C1081 C 0.48706 0.50473 0.63791 0.0
H1082 H 0.41724 0.4759 0.58809 0.0
C1083 C 0.47547 0.53494 0.65109 0.0
H1084 H 0.47403 0.46049 0.60392 0.0
C1085 C 0.443 0.54359 0.64224 0.0
C1086 C 0.4213 0.52237 0.61978 0.0
H1087 H 0.49111 0.55155 0.6691 0.0
H1088 H 0.43451 0.56634 0.65414 0.0
C1089 C 0.43324 0.49264 0.60567 0.0
C1090 C 0.95244 0.52118 0.21853 0.0
C1091 C 0.93645 0.54662 0.20245 0.0
H1092 H 0.99051 0.48597 0.21674 0.0
C1093 C 0.94483 0.55359 0.1698 0.0
H1094 H 0.94642 0.51497 0.24353 0.0
C1095 C 0.97054 0.5373 0.15469 0.0
C1096 C 0.98757 0.51311 0.17159 0.0
H1097 H 0.93266 0.57276 0.15654 0.0
H1098 H 0.97766 0.54411 0.1302 0.0
C1099 C 0.97764 0.50451 0.20318 0.0
C1100 C 0.06618 0.88501 0.34912 0.0
C1101 C 0.07274 0.91193 0.37363 0.0
H1102 H 0.03109 0.84568 0.32738 0.0
C1103 C 0.04929 0.91718 0.39789 0.0
H1104 H 0.08372 0.88017 0.3301 0.0
C1105 C 0.01911 0.89711 0.39651 0.0
C1106 C 0.01173 0.87139 0.37083 0.0
H1107 H 0.05369 0.9375 0.4173 0.0
H1108 H 0.00118 0.90229 0.41506 0.0
C1109 C 0.03603 0.86503 0.3477 0.0
C1110 C 0.49335 0.00339 0.83465 0.0
C1111 C 0.46974 0.01646 0.81234 0.0
H1112 H 0.54409 0.00731 0.85634 0.0
C1113 C 0.47877 0.04618 0.79714 0.0
H1114 H 0.48713 0.98061 0.84687 0.0
C1115 C 0.5112 0.06164 0.80292 0.0
C1116 C 0.53536 0.04751 0.82374 0.0
H1117 H 0.46107 0.05701 0.78002 0.0
H1118 H 0.51788 0.08366 0.78968 0.0
C1119 C 0.52594 0.01864 0.8401 0.0
C1120 C 0.60761 0.54483 0.47621 0.0
C1121 C 0.62896 0.5457 0.44977 0.0
H1122 H 0.58247 0.51492 0.51048 0.0
C1123 C 0.64113 0.51568 0.43702 0.0
H1124 H 0.59735 0.56764 0.48599 0.0
C1125 C 0.63411 0.48565 0.45204 0.0
C1126 C 0.61363 0.48458 0.47952 0.0
H1127 H 0.65766 0.5157 0.41656 0.0
H1128 H 0.64628 0.4638 0.4429 0.0
C1129 C 0.59941 0.51451 0.49043 0.0
C1130 C 0.84169 0.50168 0.08515 0.0
C1131 C 0.85296 0.49386 0.05318 0.0
H1132 H 0.83063 0.53989 0.12165 0.0
C1133 C 0.86452 0.52023 0.03428 0.0
H1134 H 0.83261 0.48207 0.10044 0.0
C1135 C 0.86379 0.55378 0.04676 0.0
C1136 C 0.85155 0.56154 0.07838 0.0
H1137 H 0.8735 0.51502 0.0096 0.0
H1138 H 0.87245 0.57362 0.03152 0.0
C1139 C 0.84088 0.535 0.0975 0.0
C1140 C 0.2432 0.99931 0.58226 0.0
C1141 C 0.23338 0.00694 0.61489 0.0
H1142 H 0.24149 0.01255 0.531 0.0
C1143 C 0.21156 0.0327 0.62002 0.0
H1144 H 0.26047 0.98013 0.57752 0.0
C1145 C 0.20091 0.05136 0.59352 0.0
C1146 C 0.2118 0.04474 0.56119 0.0
H1147 H 0.20322 0.03901 0.64478 0.0
H1148 H 0.18466 0.0715 0.59849 0.0
C1149 C 0.23241 0.01799 0.5556 0.0
C1150 C 0.31029 0.09946 0.98348 0.0
C1151 C 0.33248 0.11594 0.00896 0.0
H1152 H 0.29898 0.05561 0.94995 0.0
C1153 C 0.36229 0.10116 0.0184 0.0
H1154 H 0.28715 0.11021 0.97556 0.0
C1155 C 0.36915 0.06995 0.00356 0.0
C1156 C 0.3464 0.05294 0.9789 0.0
H1157 H 0.38004 0.11332 0.03778 0.0
H1158 H 0.39203 0.05886 0.01173 0.0
C1159 C 0.31718 0.06828 0.9686 0.0
C1160 C 0.45774 0.65953 0.52223 0.0
C1161 C 0.44333 0.69072 0.52446 0.0
H1162 H 0.47794 0.6218 0.48999 0.0
C1163 C 0.43672 0.70703 0.49488 0.0
H1164 H 0.46303 0.64631 0.54456 0.0
C1165 C 0.44415 0.6925 0.46379 0.0
C1166 C 0.45923 0.66178 0.46163 0.0
H1167 H 0.42556 0.73102 0.49564 0.0
H1168 H 0.43913 0.70587 0.44148 0.0
C1169 C 0.46605 0.64539 0.49109 0.0
C1170 C 0.02423 0.73213 0.48202 0.0
C1171 C 0.03039 0.74423 0.45065 0.0
H1172 H 0.03334 0.73905 0.53522 0.0
C1173 C 0.04734 0.77605 0.44955 0.0
H1174 H 0.01117 0.70773 0.48373 0.0
C1175 C 0.0594 0.79462 0.4793 0.0
C1176 C 0.05521 0.78149 0.51075 0.0
H1177 H 0.05192 0.7863 0.42569 0.0
H1178 H 0.07291 0.81877 0.47758 0.0
C1179 C 0.03669 0.75038 0.51168 0.0
C1180 C 0.52083 0.26042 0.97972 0.0
C1181 C 0.54481 0.23707 0.97305 0.0
H1182 H 0.48577 0.27849 0.0138 0.0
C1183 C 0.55086 0.21282 0.99622 0.0
H1184 H 0.51563 0.27951 0.96244 0.0
C1185 C 0.53361 0.21212 0.02553 0.0
C1186 C 0.50989 0.23568 0.03243 0.0
H1187 H 0.56905 0.19437 0.99184 0.0
H1188 H 0.53872 0.19295 0.04274 0.0
C1189 C 0.50358 0.25974 0.00909 0.0
C1190 C 0.09392 0.275 0.98734 0.0
C1191 C 0.10398 0.292 0.01857 0.0
H1192 H 0.05568 0.26576 0.94741 0.0
C1193 C 0.08192 0.3133 0.03384 0.0
H1194 H 0.11033 0.25825 0.97509 0.0
C1195 C 0.05061 0.31807 0.01767 0.0
C1196 C 0.04089 0.30159 0.98598 0.0
H1197 H 0.08934 0.32733 0.05754 0.0
H1198 H 0.03452 0.33546 0.02945 0.0
C1199 C 0.06268 0.27951 0.97138 0.0
loop_
_geom_bond_atom_site_label_1
_geom_bond_atom_site_label_2
_geom_bond_distance
_geom_bond_site_symmetry_2
_ccdc_geom_bond_type
O0 Cd1 2.300 . S
O0 C7 1.275 . S
Cd1 O0 2.300 . S
Cd1 O9 2.381 . S
Cd1 O10 2.378 . S
O2 Cd3 2.385 . S
O2 C7 1.255 . S
Cd3 O2 2.385 . S
Cd3 O4 2.317 . S
O4 Cd3 2.317 . S
O4 C5 1.232 . S
C5 O4 1.232 . S
C5 O6 1.218 . S
O6 C5 1.218 . S
C7 O0 1.275 . S
C7 O2 1.255 . S
C8 O9 1.258 . S
C8 O10 1.256 . S
O9 Cd1 2.381 . S
O9 C8 1.258 . S
O10 Cd1 2.378 . S
O10 C8 1.256 . S
O11 Cd12 2.300 . S
O11 C18 1.275 . S
Cd12 O11 2.300 . S
Cd12 O20 2.381 . S
Cd12 O21 2.378 . S
O13 Cd14 2.385 . S
O13 C18 1.255 . S
Cd14 O13 2.385 . S
Cd14 O15 2.317 . S
O15 Cd14 2.317 . S
O15 C16 1.232 . S
C16 O15 1.232 . S
C16 O17 1.218 . S
O17 C16 1.218 . S
C18 O11 1.275 . S
C18 O13 1.255 . S
C19 O20 1.258 . S
C19 O21 1.256 . S
O20 Cd12 2.381 . S
O20 C19 1.258 . S
O21 Cd12 2.378 . S
O21 C19 1.256 . S
O22 Cd23 2.300 . S
O22 C29 1.275 . S
Cd23 O22 2.300 . S
Cd23 O31 2.381 1_565 S
Cd23 O32 2.378 . S
O24 Cd25 2.385 . S
O24 C29 1.255 . S
Cd25 O24 2.385 . S
Cd25 O26 2.317 . S
O26 Cd25 2.317 . S
O26 C27 1.232 . S
C27 O26 1.232 . S
C27 O28 1.218 . S
O28 C27 1.218 . S
C29 O22 1.275 . S
C29 O24 1.255 . S
C30 O31 1.258 . S
C30 O32 1.256 1_545 S
O31 Cd23 2.381 1_545 S
O31 C30 1.258 . S
O32 Cd23 2.378 . S
O32 C30 1.256 1_565 S
O33 Cd34 2.300 . S
O33 C40 1.275 . S
Cd34 O33 2.300 . S
Cd34 O42 2.381 1_545 S
Cd34 O43 2.378 . S
O35 Cd36 2.385 . S
O35 C40 1.255 . S
Cd36 O35 2.385 . S
Cd36 O37 2.317 . S
O37 Cd36 2.317 . S
O37 C38 1.232 . S
C38 O37 1.232 . S
C38 O39 1.218 . S
O39 C38 1.218 . S
C40 O33 1.275 . S
C40 O35 1.255 . S
C41 O42 1.258 . S
C41 O43 1.256 1_565 S
O42 Cd34 2.381 1_565 S
O42 C41 1.258 . S
O43 Cd34 2.378 . S
O43 C41 1.256 1_545 S
O44 Cd45 2.300 . S
O44 C51 1.275 . S
Cd45 O44 2.300 . S
Cd45 O53 2.381 . S
Cd45 O54 2.378 . S
O46 Cd47 2.385 . S
O46 C51 1.255 . S
Cd47 O46 2.385 . S
Cd47 O48 2.317 . S
O48 Cd47 2.317 . S
O48 C49 1.232 . S
C49 O48 1.232 . S
C49 O50 1.218 . S
O50 C49 1.218 . S
C51 O44 1.275 . S
C51 O46 1.255 . S
C52 O53 1.258 . S
C52 O54 1.256 . S
O53 Cd45 2.381 . S
O53 C52 1.258 . S
O54 Cd45 2.378 . S
O54 C52 1.256 . S
O55 Cd56 2.300 . S
O55 C62 1.275 . S
Cd56 O55 2.300 . S
Cd56 O64 2.381 1_554 S
Cd56 O65 2.378 . S
O57 Cd58 2.385 . S
O57 C62 1.255 . S
Cd58 O57 2.385 . S
Cd58 O59 2.317 . S
O59 Cd58 2.317 . S
O59 C60 1.232 . S
C60 O59 1.232 . S
C60 O61 1.218 . S
O61 C60 1.218 . S
C62 O55 1.275 . S
C62 O57 1.255 . S
C63 O64 1.258 . S
C63 O65 1.256 1_556 S
O64 Cd56 2.381 1_556 S
O64 C63 1.258 . S
O65 Cd56 2.378 . S
O65 C63 1.256 1_554 S
O66 Cd67 2.300 . S
O66 C73 1.275 . S
Cd67 O66 2.300 . S
Cd67 O75 2.381 . S
Cd67 O76 2.378 . S
O68 Cd69 2.385 . S
O68 C73 1.255 . S
Cd69 O68 2.385 . S
Cd69 O70 2.317 . S
O70 Cd69 2.317 . S
O70 C71 1.232 . S
C71 O70 1.232 . S
C71 O72 1.218 . S
O72 C71 1.218 . S
C73 O66 1.275 . S
C73 O68 1.255 . S
C74 O75 1.258 . S
C74 O76 1.256 . S
O75 Cd67 2.381 . S
O75 C74 1.258 . S
O76 Cd67 2.378 . S
O76 C74 1.256 . S
O77 Cd78 2.300 . S
O77 C84 1.275 . S
Cd78 O77 2.300 . S
Cd78 O86 2.381 1_556 S
Cd78 O87 2.378 . S
O79 Cd80 2.385 . S
O79 C84 1.255 . S
Cd80 O79 2.385 . S
Cd80 O81 2.317 . S
O81 Cd80 2.317 . S
O81 C82 1.232 . S
C82 O81 1.232 . S
C82 O83 1.218 . S
O83 C82 1.218 . S
C84 O77 1.275 . S
C84 O79 1.255 . S
C85 O86 1.258 . S
C85 O87 1.256 1_554 S
O86 Cd78 2.381 1_554 S
O86 C85 1.258 . S
O87 Cd78 2.378 . S
O87 C85 1.256 1_556 S
O88 Cd89 2.300 . S
O88 C95 1.275 . S
Cd89 O88 2.300 . S
Cd89 O97 2.381 . S
Cd89 O98 2.378 . S
O90 Cd91 2.385 . S
O90 C95 1.255 . S
Cd91 O90 2.385 . S
Cd91 O92 2.317 . S
O92 Cd91 2.317 . S
O92 C93 1.232 . S
C93 O92 1.232 . S
C93 O94 1.218 . S
O94 C93 1.218 . S
C95 O88 1.275 . S
C95 O90 1.255 . S
C96 O97 1.258 . S
C96 O98 1.256 . S
O97 Cd89 2.381 . S
O97 C96 1.258 . S
O98 Cd89 2.378 . S
O98 C96 1.256 . S
O99 Cd100 2.300 . S
O99 C106 1.275 . S
Cd100 O99 2.300 . S
Cd100 O108 2.381 1_455 S
Cd100 O109 2.378 . S
O101 Cd102 2.385 . S
O101 C106 1.255 . S
Cd102 O101 2.385 . S
Cd102 O103 2.317 . S
O103 Cd102 2.317 . S
O103 C104 1.232 . S
C104 O103 1.232 . S
C104 O105 1.218 . S
O105 C104 1.218 . S
C106 O99 1.275 . S
C106 O101 1.255 . S
C107 O108 1.258 . S
C107 O109 1.256 1_655 S
O108 Cd100 2.381 1_655 S
O108 C107 1.258 . S
O109 Cd100 2.378 . S
O109 C107 1.256 1_455 S
O110 Cd111 2.300 . S
O110 C117 1.275 . S
Cd111 O110 2.300 . S
Cd111 O119 2.381 . S
Cd111 O120 2.378 . S
O112 Cd113 2.385 . S
O112 C117 1.255 . S
Cd113 O112 2.385 . S
Cd113 O114 2.317 . S
O114 Cd113 2.317 . S
O114 C115 1.232 . S
C115 O114 1.232 . S
C115 O116 1.218 . S
O116 C115 1.218 . S
C117 O110 1.275 . S
C117 O112 1.255 . S
C118 O119 1.258 . S
C118 O120 1.256 . S
O119 Cd111 2.381 . S
O119 C118 1.258 . S
O120 Cd111 2.378 . S
O120 C118 1.256 . S
O121 Cd122 2.300 . S
O121 C128 1.275 . S
Cd122 O121 2.300 . S
Cd122 O130 2.381 1_655 S
Cd122 O131 2.378 . S
O123 Cd124 2.385 . S
O123 C128 1.255 . S
Cd124 O123 2.385 . S
Cd124 O125 2.317 . S
O125 Cd124 2.317 . S
O125 C126 1.232 . S
C126 O125 1.232 . S
C126 O127 1.218 . S
O127 C126 1.218 . S
C128 O121 1.275 . S
C128 O123 1.255 . S
C129 O130 1.258 . S
C129 O131 1.256 1_455 S
O130 Cd122 2.381 1_455 S
O130 C129 1.258 . S
O131 Cd122 2.378 . S
O131 C129 1.256 1_655 S
O132 Cd133 2.300 . S
O132 C139 1.275 . S
Cd133 O132 2.300 . S
Cd133 O141 2.381 . S
Cd133 O142 2.378 . S
O134 Cd135 2.385 . S
O134 C139 1.255 . S
Cd135 O134 2.385 . S
Cd135 O136 2.317 . S
O136 Cd135 2.317 . S
O136 C137 1.232 . S
C137 O136 1.232 . S
C137 O138 1.218 . S
O138 C137 1.218 . S
C139 O132 1.275 . S
C139 O134 1.255 . S
C140 O141 1.258 . S
C140 O142 1.256 . S
O141 Cd133 2.381 . S
O141 C140 1.258 . S
O142 Cd133 2.378 . S
O142 C140 1.256 . S
O143 Cd144 2.300 . S
O143 C150 1.275 . S
Cd144 O143 2.300 . S
Cd144 O152 2.381 . S
Cd144 O153 2.378 . S
O145 Cd146 2.385 . S
O145 C150 1.255 . S
Cd146 O145 2.385 . S
Cd146 O147 2.317 . S
O147 Cd146 2.317 . S
O147 C148 1.232 . S
C148 O147 1.232 . S
C148 O149 1.218 . S
O149 C148 1.218 . S
C150 O143 1.275 . S
C150 O145 1.255 . S
C151 O152 1.258 . S
C151 O153 1.256 . S
O152 Cd144 2.381 . S
O152 C151 1.258 . S
O153 Cd144 2.378 . S
O153 C151 1.256 . S
O154 Cd155 2.300 1_545 S
O154 C161 1.275 . S
Cd155 O154 2.300 1_565 S
Cd155 O163 2.381 1_565 S
Cd155 O164 2.378 . S
O156 Cd157 2.385 . S
O156 C161 1.255 1_565 S
Cd157 O156 2.385 . S
Cd157 O158 2.317 . S
O158 Cd157 2.317 . S
O158 C159 1.232 . S
C159 O158 1.232 . S
C159 O160 1.218 . S
O160 C159 1.218 . S
C161 O154 1.275 . S
C161 O156 1.255 1_545 S
C162 O163 1.258 1_565 S
C162 O164 1.256 . S
O163 Cd155 2.381 1_545 S
O163 C162 1.258 1_545 S
O164 Cd155 2.378 . S
O164 C162 1.256 . S
O165 Cd166 2.300 1_565 S
O165 C172 1.275 . S
Cd166 O165 2.300 1_545 S
Cd166 O174 2.381 1_545 S
Cd166 O175 2.378 . S
O167 Cd168 2.385 . S
O167 C172 1.255 1_545 S
Cd168 O167 2.385 . S
Cd168 O169 2.317 . S
O169 Cd168 2.317 . S
O169 C170 1.232 . S
C170 O169 1.232 . S
C170 O171 1.218 . S
O171 C170 1.218 . S
C172 O165 1.275 . S
C172 O167 1.255 1_565 S
C173 O174 1.258 1_545 S
C173 O175 1.256 . S
O174 Cd166 2.381 1_565 S
O174 C173 1.258 1_565 S
O175 Cd166 2.378 . S
O175 C173 1.256 . S
O176 Cd177 2.300 . S
O176 C183 1.275 . S
Cd177 O176 2.300 . S
Cd177 O185 2.381 . S
Cd177 O186 2.378 . S
O178 Cd179 2.385 . S
O178 C183 1.255 . S
Cd179 O178 2.385 . S
Cd179 O180 2.317 . S
O180 Cd179 2.317 . S
O180 C181 1.232 . S
C181 O180 1.232 . S
C181 O182 1.218 . S
O182 C181 1.218 . S
C183 O176 1.275 . S
C183 O178 1.255 . S
C184 O185 1.258 . S
C184 O186 1.256 . S
O185 Cd177 2.381 . S
O185 C184 1.258 . S
O186 Cd177 2.378 . S
O186 C184 1.256 . S
O187 Cd188 2.300 1_556 S
O187 C194 1.275 . S
Cd188 O187 2.300 1_554 S
Cd188 O196 2.381 1_554 S
Cd188 O197 2.378 . S
O189 Cd190 2.385 . S
O189 C194 1.255 1_554 S
Cd190 O189 2.385 . S
Cd190 O191 2.317 . S
O191 Cd190 2.317 . S
O191 C192 1.232 . S
C192 O191 1.232 . S
C192 O193 1.218 . S
O193 C192 1.218 . S
C194 O187 1.275 . S
C194 O189 1.255 1_556 S
C195 O196 1.258 1_554 S
C195 O197 1.256 . S
O196 Cd188 2.381 1_556 S
O196 C195 1.258 1_556 S
O197 Cd188 2.378 . S
O197 C195 1.256 . S
O198 Cd199 2.300 . S
O198 C205 1.275 . S
Cd199 O198 2.300 . S
Cd199 O207 2.381 . S
Cd199 O208 2.378 . S
O200 Cd201 2.385 . S
O200 C205 1.255 . S
Cd201 O200 2.385 . S
Cd201 O202 2.317 . S
O202 Cd201 2.317 . S
O202 C203 1.232 . S
C203 O202 1.232 . S
C203 O204 1.218 . S
O204 C203 1.218 . S
C205 O198 1.275 . S
C205 O200 1.255 . S
C206 O207 1.258 . S
C206 O208 1.256 . S
O207 Cd199 2.381 . S
O207 C206 1.258 . S
O208 Cd199 2.378 . S
O208 C206 1.256 . S
O209 Cd210 2.300 1_554 S
O209 C216 1.275 . S
Cd210 O209 2.300 1_556 S
Cd210 O218 2.381 1_556 S
Cd210 O219 2.378 . S
O211 Cd212 2.385 . S
O211 C216 1.255 1_556 S
Cd212 O211 2.385 . S
Cd212 O213 2.317 . S
O213 Cd212 2.317 . S
O213 C214 1.232 . S
C214 O213 1.232 . S
C214 O215 1.218 . S
O215 C214 1.218 . S
C216 O209 1.275 . S
C216 O211 1.255 1_554 S
C217 O218 1.258 1_556 S
C217 O219 1.256 . S
O218 Cd210 2.381 1_554 S
O218 C217 1.258 1_554 S
O219 Cd210 2.378 . S
O219 C217 1.256 . S
O220 Cd221 2.300 . S
O220 C227 1.275 . S
Cd221 O220 2.300 . S
Cd221 O229 2.381 . S
Cd221 O230 2.378 . S
O222 Cd223 2.385 . S
O222 C227 1.255 . S
Cd223 O222 2.385 . S
Cd223 O224 2.317 . S
O224 Cd223 2.317 . S
O224 C225 1.232 . S
C225 O224 1.232 . S
C225 O226 1.218 . S
O226 C225 1.218 . S
C227 O220 1.275 . S
C227 O222 1.255 . S
C228 O229 1.258 . S
C228 O230 1.256 . S
O229 Cd221 2.381 . S
O229 C228 1.258 . S
O230 Cd221 2.378 . S
O230 C228 1.256 . S
O231 Cd232 2.300 1_655 S
O231 C238 1.275 . S
Cd232 O231 2.300 1_455 S
Cd232 O240 2.381 1_455 S
Cd232 O241 2.378 . S
O233 Cd234 2.385 . S
O233 C238 1.255 1_455 S
Cd234 O233 2.385 . S
Cd234 O235 2.317 . S
O235 Cd234 2.317 . S
O235 C236 1.232 . S
C236 O235 1.232 . S
C236 O237 1.218 . S
O237 C236 1.218 . S
C238 O231 1.275 . S
C238 O233 1.255 1_655 S
C239 O240 1.258 1_455 S
C239 O241 1.256 . S
O240 Cd232 2.381 1_655 S
O240 C239 1.258 1_655 S
O241 Cd232 2.378 . S
O241 C239 1.256 . S
O242 Cd243 2.300 . S
O242 C249 1.275 . S
Cd243 O242 2.300 . S
Cd243 O251 2.381 . S
Cd243 O252 2.378 . S
O244 Cd245 2.385 . S
O244 C249 1.255 . S
Cd245 O244 2.385 . S
Cd245 O246 2.317 . S
O246 Cd245 2.317 . S
O246 C247 1.232 . S
C247 O246 1.232 . S
C247 O248 1.218 . S
O248 C247 1.218 . S
C249 O242 1.275 . S
C249 O244 1.255 . S
C250 O251 1.258 . S
C250 O252 1.256 . S
O251 Cd243 2.381 . S
O251 C250 1.258 . S
O252 Cd243 2.378 . S
O252 C250 1.256 . S
O253 Cd254 2.300 1_455 S
O253 C260 1.275 . S
Cd254 O253 2.300 1_655 S
Cd254 O262 2.381 1_655 S
Cd254 O263 2.378 . S
O255 Cd256 2.385 . S
O255 C260 1.255 1_655 S
Cd256 O255 2.385 . S
Cd256 O257 2.317 . S
O257 Cd256 2.317 . S
O257 C258 1.232 . S
C258 O257 1.232 . S
C258 O259 1.218 . S
O259 C258 1.218 . S
C260 O253 1.275 . S
C260 O255 1.255 1_455 S
C261 O262 1.258 1_655 S
C261 O263 1.256 . S
O262 Cd254 2.381 1_455 S
O262 C261 1.258 1_455 S
O263 Cd254 2.378 . S
O263 C261 1.256 . S
H264 C267 0.931 . S
H265 C270 0.928 . S
H266 C272 0.930 . S
C267 H264 0.931 . S
C267 C268 1.413 . S
C267 C269 1.360 . S
C268 C267 1.413 . S
C268 C272 1.429 . S
C269 C267 1.360 . S
C269 C270 1.372 . S
C270 H265 0.928 . S
C270 C269 1.372 . S
C270 C271 1.404 . S
C271 C270 1.404 . S
C271 C272 1.391 . S
C272 H266 0.930 . S
C272 C268 1.429 . S
C272 C271 1.391 . S
H273 C276 0.931 . S
H274 C279 0.928 . S
H275 C281 0.930 . S
C276 H273 0.931 . S
C276 C277 1.413 . S
C276 C278 1.360 . S
C277 C276 1.413 . S
C277 C281 1.429 . S
C278 C276 1.360 . S
C278 C279 1.372 . S
C279 H274 0.928 . S
C279 C278 1.372 . S
C279 C280 1.404 . S
C280 C279 1.404 . S
C280 C281 1.391 . S
C281 H275 0.930 . S
C281 C277 1.429 . S
C281 C280 1.391 . S
H282 C285 0.931 . S
H283 C288 0.928 . S
H284 C290 0.930 . S
C285 H282 0.931 . S
C285 C286 1.413 . S
C285 C287 1.360 1_565 S
C286 C285 1.413 . S
C286 C290 1.429 . S
C287 C285 1.360 1_545 S
C287 C288 1.372 . S
C288 H283 0.928 . S
C288 C287 1.372 . S
C288 C289 1.404 . S
C289 C288 1.404 . S
C289 C290 1.391 1_545 S
C290 H284 0.930 . S
C290 C286 1.429 . S
C290 C289 1.391 1_565 S
H291 C294 0.931 . S
H292 C297 0.928 . S
H293 C299 0.930 . S
C294 H291 0.931 . S
C294 C295 1.413 . S
C294 C296 1.378 . S
C295 C294 1.413 . S
C295 C299 1.429 1_545 S
C296 C294 1.378 . S
C296 C297 1.354 1_545 S
C297 H292 0.928 . S
C297 C296 1.354 1_565 S
C297 C298 1.404 . S
C298 C297 1.404 . S
C298 C299 1.391 . S
C299 H293 0.930 . S
C299 C295 1.429 1_565 S
C299 C298 1.391 . S
H300 C303 0.931 . S
H301 C306 0.928 . S
H302 C308 0.930 . S
C303 H300 0.931 . S
C303 C304 1.413 . S
C303 C305 1.360 . S
C304 C303 1.413 . S
C304 C308 1.429 . S
C305 C303 1.360 . S
C305 C306 1.372 . S
C306 H301 0.928 . S
C306 C305 1.372 . S
C306 C307 1.404 . S
C307 C306 1.404 . S
C307 C308 1.391 . S
C308 H302 0.930 . S
C308 C304 1.429 . S
C308 C307 1.391 . S
H309 C312 0.931 . S
H310 C315 0.928 . S
H311 C317 0.930 . S
C312 H309 0.931 . S
C312 C313 1.413 . S
C312 C314 1.378 . S
C313 C312 1.413 . S
C313 C317 1.429 1_554 S
C314 C312 1.378 . S
C314 C315 1.354 1_554 S
C315 H310 0.928 . S
C315 C314 1.354 1_556 S
C315 C316 1.404 . S
C316 C315 1.404 . S
C316 C317 1.391 . S
C317 H311 0.930 . S
C317 C313 1.429 1_556 S
C317 C316 1.391 . S
H318 C321 0.931 . S
H319 C324 0.928 . S
H320 C326 0.930 . S
C321 H318 0.931 . S
C321 C322 1.413 . S
C321 C323 1.360 . S
C322 C321 1.413 . S
C322 C326 1.429 . S
C323 C321 1.360 . S
C323 C324 1.372 . S
C324 H319 0.928 . S
C324 C323 1.372 . S
C324 C325 1.404 . S
C325 C324 1.404 . S
C325 C326 1.391 . S
C326 H320 0.930 . S
C326 C322 1.429 . S
C326 C325 1.391 . S
H327 C330 0.931 . S
H328 C333 0.928 . S
H329 C335 0.930 . S
C330 H327 0.931 . S
C330 C331 1.413 . S
C330 C332 1.360 1_556 S
C331 C330 1.413 . S
C331 C335 1.429 . S
C332 C330 1.360 1_554 S
C332 C333 1.372 . S
C333 H328 0.928 . S
C333 C332 1.372 . S
C333 C334 1.404 . S
C334 C333 1.404 . S
C334 C335 1.391 1_554 S
C335 H329 0.930 . S
C335 C331 1.429 . S
C335 C334 1.391 1_556 S
H336 C339 0.931 . S
H337 C342 0.928 . S
H338 C344 0.930 . S
C339 H336 0.931 . S
C339 C340 1.413 . S
C339 C341 1.360 . S
C340 C339 1.413 . S
C340 C344 1.429 . S
C341 C339 1.360 . S
C341 C342 1.372 . S
C342 H337 0.928 . S
C342 C341 1.372 . S
C342 C343 1.404 . S
C343 C342 1.404 . S
C343 C344 1.391 . S
C344 H338 0.930 . S
C344 C340 1.429 . S
C344 C343 1.391 . S
H345 C348 0.931 . S
H346 C351 0.928 . S
H347 C353 0.930 . S
C348 H345 0.931 . S
C348 C349 1.413 . S
C348 C350 1.378 . S
C349 C348 1.413 . S
C349 C353 1.429 1_455 S
C350 C348 1.378 . S
C350 C351 1.354 1_455 S
C351 H346 0.928 . S
C351 C350 1.354 1_655 S
C351 C352 1.404 . S
C352 C351 1.404 . S
C352 C353 1.391 . S
C353 H347 0.930 . S
C353 C349 1.429 1_655 S
C353 C352 1.391 . S
H354 C357 0.931 . S
H355 C360 0.928 . S
H356 C362 0.930 . S
C357 H354 0.931 . S
C357 C358 1.413 . S
C357 C359 1.360 . S
C358 C357 1.413 . S
C358 C362 1.429 . S
C359 C357 1.360 . S
C359 C360 1.372 . S
C360 H355 0.928 . S
C360 C359 1.372 . S
C360 C361 1.404 . S
C361 C360 1.404 . S
C361 C362 1.391 . S
C362 H356 0.930 . S
C362 C358 1.429 . S
C362 C361 1.391 . S
H363 C366 0.931 . S
H364 C369 0.928 . S
H365 C371 0.930 . S
C366 H363 0.931 . S
C366 C367 1.413 . S
C366 C368 1.360 1_655 S
C367 C366 1.413 . S
C367 C371 1.429 . S
C368 C366 1.360 1_455 S
C368 C369 1.372 . S
C369 H364 0.928 . S
C369 C368 1.372 . S
C369 C370 1.404 . S
C370 C369 1.404 . S
C370 C371 1.391 1_455 S
C371 H365 0.930 . S
C371 C367 1.429 . S
C371 C370 1.391 1_655 S
H372 C375 0.931 . S
H373 C378 0.928 . S
H374 C380 0.930 . S
C375 H372 0.931 . S
C375 C376 1.413 . S
C375 C377 1.360 . S
C376 C375 1.413 . S
C376 C380 1.429 . S
C377 C375 1.360 . S
C377 C378 1.372 . S
C378 H373 0.928 . S
C378 C377 1.372 . S
C378 C379 1.404 . S
C379 C378 1.404 . S
C379 C380 1.391 . S
C380 H374 0.930 . S
C380 C376 1.429 . S
C380 C379 1.391 . S
H381 C384 0.931 . S
H382 C387 0.928 . S
H383 C389 0.930 . S
C384 H381 0.931 . S
C384 C385 1.413 . S
C384 C386 1.360 . S
C385 C384 1.413 . S
C385 C389 1.429 . S
C386 C384 1.360 . S
C386 C387 1.372 . S
C387 H382 0.928 . S
C387 C386 1.372 . S
C387 C388 1.404 . S
C388 C387 1.404 . S
C388 C389 1.391 . S
C389 H383 0.930 . S
C389 C385 1.429 . S
C389 C388 1.391 . S
H390 C393 0.931 . S
H391 C396 0.928 . S
H392 C398 0.930 . S
C393 H390 0.931 . S
C393 C394 1.413 . S
C393 C395 1.360 1_545 S
C394 C393 1.413 . S
C394 C398 1.429 . S
C395 C393 1.360 1_565 S
C395 C396 1.372 . S
C396 H391 0.928 . S
C396 C395 1.372 . S
C396 C397 1.404 . S
C397 C396 1.404 . S
C397 C398 1.391 1_565 S
C398 H392 0.930 . S
C398 C394 1.429 . S
C398 C397 1.391 1_545 S
H399 C402 0.931 . S
H400 C405 0.928 . S
H401 C407 0.930 . S
C402 H399 0.931 . S
C402 C403 1.413 . S
C402 C404 1.376 . S
C403 C402 1.413 . S
C403 C407 1.429 1_565 S
C404 C402 1.376 . S
C404 C405 1.357 1_565 S
C405 H400 0.928 . S
C405 C404 1.357 1_545 S
C405 C406 1.404 . S
C406 C405 1.404 . S
C406 C407 1.391 . S
C407 H401 0.930 . S
C407 C403 1.429 1_545 S
C407 C406 1.391 . S
H408 C411 0.931 . S
H409 C414 0.928 . S
H410 C416 0.930 . S
C411 H408 0.931 . S
C411 C412 1.413 . S
C411 C413 1.360 . S
C412 C411 1.413 . S
C412 C416 1.429 . S
C413 C411 1.360 . S
C413 C414 1.372 . S
C414 H409 0.928 . S
C414 C413 1.372 . S
C414 C415 1.404 . S
C415 C414 1.404 . S
C415 C416 1.391 . S
C416 H410 0.930 . S
C416 C412 1.429 . S
C416 C415 1.391 . S
H417 C420 0.931 . S
H418 C423 0.928 . S
H419 C425 0.930 . S
C420 H417 0.931 . S
C420 C421 1.413 . S
C420 C422 1.376 . S
C421 C420 1.413 . S
C421 C425 1.429 1_556 S
C422 C420 1.376 . S
C422 C423 1.357 1_556 S
C423 H418 0.928 . S
C423 C422 1.357 1_554 S
C423 C424 1.404 . S
C424 C423 1.404 . S
C424 C425 1.391 . S
C425 H419 0.930 . S
C425 C421 1.429 1_554 S
C425 C424 1.391 . S
H426 C429 0.931 . S
H427 C432 0.928 . S
H428 C434 0.930 . S
C429 H426 0.931 . S
C429 C430 1.413 . S
C429 C431 1.360 . S
C430 C429 1.413 . S
C430 C434 1.429 . S
C431 C429 1.360 . S
C431 C432 1.372 . S
C432 H427 0.928 . S
C432 C431 1.372 . S
C432 C433 1.404 . S
C433 C432 1.404 . S
C433 C434 1.391 . S
C434 H428 0.930 . S
C434 C430 1.429 . S
C434 C433 1.391 . S
H435 C438 0.931 . S
H436 C441 0.928 . S
H437 C443 0.930 . S
C438 H435 0.931 . S
C438 C439 1.413 . S
C438 C440 1.360 1_554 S
C439 C438 1.413 . S
C439 C443 1.429 . S
C440 C438 1.360 1_556 S
C440 C441 1.372 . S
C441 H436 0.928 . S
C441 C440 1.372 . S
C441 C442 1.404 . S
C442 C441 1.404 . S
C442 C443 1.391 1_556 S
C443 H437 0.930 . S
C443 C439 1.429 . S
C443 C442 1.391 1_554 S
H444 C447 0.931 . S
H445 C450 0.928 . S
H446 C452 0.930 . S
C447 H444 0.931 . S
C447 C448 1.413 . S
C447 C449 1.360 . S
C448 C447 1.413 . S
C448 C452 1.429 . S
C449 C447 1.360 . S
C449 C450 1.372 . S
C450 H445 0.928 . S
C450 C449 1.372 . S
C450 C451 1.404 . S
C451 C450 1.404 . S
C451 C452 1.391 . S
C452 H446 0.930 . S
C452 C448 1.429 . S
C452 C451 1.391 . S
H453 C456 0.931 . S
H454 C459 0.928 . S
H455 C461 0.930 . S
C456 H453 0.931 . S
C456 C457 1.413 . S
C456 C458 1.376 . S
C457 C456 1.413 . S
C457 C461 1.429 1_655 S
C458 C456 1.376 . S
C458 C459 1.357 1_655 S
C459 H454 0.928 . S
C459 C458 1.357 1_455 S
C459 C460 1.404 . S
C460 C459 1.404 . S
C460 C461 1.391 . S
C461 H455 0.930 . S
C461 C457 1.429 1_455 S
C461 C460 1.391 . S
H462 C465 0.931 . S
H463 C468 0.928 . S
H464 C470 0.930 . S
C465 H462 0.931 . S
C465 C466 1.413 . S
C465 C467 1.360 . S
C466 C465 1.413 . S
C466 C470 1.429 . S
C467 C465 1.360 . S
C467 C468 1.372 . S
C468 H463 0.928 . S
C468 C467 1.372 . S
C468 C469 1.404 . S
C469 C468 1.404 . S
C469 C470 1.391 . S
C470 H464 0.930 . S
C470 C466 1.429 . S
C470 C469 1.391 . S
H471 C474 0.931 . S
H472 C477 0.928 . S
H473 C479 0.930 . S
C474 H471 0.931 . S
C474 C475 1.413 . S
C474 C476 1.360 1_455 S
C475 C474 1.413 . S
C475 C479 1.429 . S
C476 C474 1.360 1_655 S
C476 C477 1.372 . S
C477 H472 0.928 . S
C477 C476 1.372 . S
C477 C478 1.404 . S
C478 C477 1.404 . S
C478 C479 1.391 1_655 S
C479 H473 0.930 . S
C479 C475 1.429 . S
C479 C478 1.391 1_455 S
C480 C481 1.387 . S
C480 H484 0.950 . S
C480 C489 1.390 . S
C481 C480 1.387 . S
C481 C483 1.387 . S
H482 C489 0.950 . S
C483 C481 1.387 . S
C483 C485 1.390 . S
C483 H487 0.950 . S
H484 C480 0.950 . S
C485 C483 1.390 . S
C485 C486 1.387 . S
C485 H488 0.950 . S
C486 C485 1.387 . S
C486 C489 1.387 . S
H487 C483 0.950 . S
H488 C485 0.950 . S
C489 C480 1.390 . S
C489 H482 0.950 . S
C489 C486 1.387 . S
C490 C491 1.387 . S
C490 H494 0.950 . S
C490 C499 1.390 . S
C491 C490 1.387 . S
C491 C493 1.387 . S
H492 C499 0.950 . S
C493 C491 1.387 . S
C493 C495 1.390 . S
C493 H497 0.950 . S
H494 C490 0.950 . S
C495 C493 1.390 . S
C495 C496 1.387 . S
C495 H498 0.950 . S
C496 C495 1.387 . S
C496 C499 1.387 . S
H497 C493 0.950 . S
H498 C495 0.950 . S
C499 C490 1.390 . S
C499 H492 0.950 . S
C499 C496 1.387 . S
C500 C501 1.387 . S
C500 H504 0.950 . S
C500 C509 1.390 . S
C501 C500 1.387 . S
C501 C503 1.387 . S
H502 C509 0.950 . S
C503 C501 1.387 . S
C503 C505 1.390 . S
C503 H507 0.950 . S
H504 C500 0.950 . S
C505 C503 1.390 . S
C505 C506 1.387 . S
C505 H508 0.950 . S
C506 C505 1.387 . S
C506 C509 1.387 . S
H507 C503 0.950 . S
H508 C505 0.950 . S
C509 C500 1.390 . S
C509 H502 0.950 . S
C509 C506 1.387 . S
C510 C511 1.387 . S
C510 H514 0.950 . S
C510 C519 1.390 . S
C511 C510 1.387 . S
C511 C513 1.387 . S
H512 C519 0.950 . S
C513 C511 1.387 . S
C513 C515 1.390 . S
C513 H517 0.950 . S
H514 C510 0.950 . S
C515 C513 1.390 . S
C515 C516 1.387 . S
C515 H518 0.950 . S
C516 C515 1.387 . S
C516 C519 1.387 . S
H517 C513 0.950 . S
H518 C515 0.950 . S
C519 C510 1.390 . S
C519 H512 0.950 . S
C519 C516 1.387 . S
C520 C521 1.387 . S
C520 H524 0.950 . S
C520 C529 1.390 . S
C521 C520 1.387 . S
C521 C523 1.387 . S
H522 C529 0.950 . S
C523 C521 1.387 . S
C523 C525 1.390 . S
C523 H527 0.950 . S
H524 C520 0.950 . S
C525 C523 1.390 . S
C525 C526 1.387 . S
C525 H528 0.950 . S
C526 C525 1.387 . S
C526 C529 1.387 . S
H527 C523 0.950 . S
H528 C525 0.950 . S
C529 C520 1.390 . S
C529 H522 0.950 . S
C529 C526 1.387 . S
C530 C531 1.387 . S
C530 H534 0.950 1_556 S
C530 C539 1.390 . S
C531 C530 1.387 . S
C531 C533 1.387 . S
H532 C539 0.950 . S
C533 C531 1.387 . S
C533 C535 1.390 . S
C533 H537 0.950 . S
H534 C530 0.950 1_554 S
C535 C533 1.390 . S
C535 C536 1.387 . S
C535 H538 0.950 . S
C536 C535 1.387 . S
C536 C539 1.387 . S
H537 C533 0.950 . S
H538 C535 0.950 . S
C539 C530 1.390 . S
C539 H532 0.950 . S
C539 C536 1.387 . S
C540 C541 1.387 . S
C540 H544 0.950 . S
C540 C549 1.390 . S
C541 C540 1.387 . S
C541 C543 1.387 . S
H542 C549 0.950 . S
C543 C541 1.387 . S
C543 C545 1.390 . S
C543 H547 0.950 . S
H544 C540 0.950 . S
C545 C543 1.390 . S
C545 C546 1.387 . S
C545 H548 0.950 . S
C546 C545 1.387 . S
C546 C549 1.387 . S
H547 C543 0.950 . S
H548 C545 0.950 . S
C549 C540 1.390 . S
C549 H542 0.950 . S
C549 C546 1.387 . S
C550 C551 1.387 . S
C550 H554 0.950 . S
C550 C559 1.390 . S
C551 C550 1.387 . S
C551 C553 1.387 . S
H552 C559 0.950 . S
C553 C551 1.387 . S
C553 C555 1.390 . S
C553 H557 0.950 . S
H554 C550 0.950 . S
C555 C553 1.390 . S
C555 C556 1.387 . S
C555 H558 0.950 . S
C556 C555 1.387 . S
C556 C559 1.387 . S
H557 C553 0.950 . S
H558 C555 0.950 . S
C559 C550 1.390 . S
C559 H552 0.950 . S
C559 C556 1.387 . S
C560 C561 1.387 . S
C560 H564 0.950 . S
C560 C569 1.390 . S
C561 C560 1.387 . S
C561 C563 1.387 . S
H562 C569 0.950 . S
C563 C561 1.387 . S
C563 C565 1.390 . S
C563 H567 0.950 . S
H564 C560 0.950 . S
C565 C563 1.390 . S
C565 C566 1.387 . S
C565 H568 0.950 . S
C566 C565 1.387 . S
C566 C569 1.387 . S
H567 C563 0.950 . S
H568 C565 0.950 . S
C569 C560 1.390 . S
C569 H562 0.950 . S
C569 C566 1.387 . S
C570 C571 1.387 . S
C570 H574 0.950 1_655 S
C570 C579 1.390 . S
C571 C570 1.387 . S
C571 C573 1.387 . S
H572 C579 0.949 1_455 S
C573 C571 1.387 . S
C573 C575 1.390 . S
C573 H577 0.950 . S
H574 C570 0.950 1_455 S
C575 C573 1.390 . S
C575 C576 1.387 . S
C575 H578 0.950 . S
C576 C575 1.387 . S
C576 C579 1.387 . S
H577 C573 0.950 . S
H578 C575 0.950 . S
C579 C570 1.390 . S
C579 H572 0.949 1_655 S
C579 C576 1.387 . S
C580 C581 1.387 . S
C580 H584 0.950 . S
C580 C589 1.390 . S
C581 C580 1.387 . S
C581 C583 1.387 . S
H582 C589 0.950 . S
C583 C581 1.387 . S
C583 C585 1.390 . S
C583 H587 0.950 . S
H584 C580 0.950 . S
C585 C583 1.390 . S
C585 C586 1.387 . S
C585 H588 0.950 . S
C586 C585 1.387 . S
C586 C589 1.387 . S
H587 C583 0.950 . S
H588 C585 0.950 . S
C589 C580 1.390 . S
C589 H582 0.950 . S
C589 C586 1.387 . S
C590 C591 1.387 . S
C590 H594 0.950 . S
C590 C599 1.390 . S
C591 C590 1.387 . S
C591 C593 1.387 . S
H592 C599 0.950 . S
C593 C591 1.387 . S
C593 C595 1.390 . S
C593 H597 0.950 . S
H594 C590 0.950 . S
C595 C593 1.390 . S
C595 C596 1.387 . S
C595 H598 0.950 . S
C596 C595 1.387 . S
C596 C599 1.387 . S
H597 C593 0.950 . S
H598 C595 0.950 . S
C599 C590 1.390 . S
C599 H592 0.950 . S
C599 C596 1.387 . S
C600 C601 1.387 . S
C600 H604 0.950 . S
C600 C609 1.390 . S
C601 C600 1.387 . S
C601 C603 1.387 . S
H602 C609 0.950 . S
C603 C601 1.387 . S
C603 C605 1.390 . S
C603 H607 0.950 . S
H604 C600 0.950 . S
C605 C603 1.390 . S
C605 C606 1.387 . S
C605 H608 0.950 . S
C606 C605 1.387 . S
C606 C609 1.387 . S
H607 C603 0.950 . S
H608 C605 0.950 . S
C609 C600 1.390 . S
C609 H602 0.950 . S
C609 C606 1.387 . S
C610 C611 1.387 . S
C610 H614 0.950 . S
C610 C619 1.390 . S
C611 C610 1.387 . S
C611 C613 1.387 . S
H612 C619 0.950 . S
C613 C611 1.387 . S
C613 C615 1.390 . S
C613 H617 0.950 . S
H614 C610 0.950 . S
C615 C613 1.390 . S
C615 C616 1.387 . S
C615 H618 0.950 . S
C616 C615 1.387 . S
C616 C619 1.387 . S
H617 C613 0.950 . S
H618 C615 0.950 . S
C619 C610 1.390 . S
C619 H612 0.950 . S
C619 C616 1.387 . S
C620 C621 1.387 . S
C620 H624 0.950 . S
C620 C629 1.390 . S
C621 C620 1.387 . S
C621 C623 1.387 . S
H622 C629 0.950 . S
C623 C621 1.387 . S
C623 C625 1.390 . S
C623 H627 0.950 . S
H624 C620 0.950 . S
C625 C623 1.390 . S
C625 C626 1.387 . S
C625 H628 0.950 . S
C626 C625 1.387 . S
C626 C629 1.387 . S
H627 C623 0.950 . S
H628 C625 0.950 . S
C629 C620 1.390 . S
C629 H622 0.950 . S
C629 C626 1.387 . S
C630 C631 1.387 . S
C630 H634 0.950 . S
C630 C639 1.390 . S
C631 C630 1.387 . S
C631 C633 1.387 . S
H632 C639 0.950 . S
C633 C631 1.387 . S
C633 C635 1.390 . S
C633 H637 0.950 1_545 S
H634 C630 0.950 . S
C635 C633 1.390 . S
C635 C636 1.387 . S
C635 H638 0.950 . S
C636 C635 1.387 . S
C636 C639 1.387 . S
H637 C633 0.950 1_565 S
H638 C635 0.950 . S
C639 C630 1.390 . S
C639 H632 0.950 . S
C639 C636 1.387 . S
C640 C641 1.387 . S
C640 H644 0.950 . S
C640 C649 1.390 . S
C641 C640 1.387 . S
C641 C643 1.387 . S
H642 C649 0.950 . S
C643 C641 1.387 . S
C643 C645 1.390 . S
C643 H647 0.950 . S
H644 C640 0.950 . S
C645 C643 1.390 . S
C645 C646 1.387 . S
C645 H648 0.950 . S
C646 C645 1.387 . S
C646 C649 1.387 . S
H647 C643 0.950 . S
H648 C645 0.950 . S
C649 C640 1.390 . S
C649 H642 0.950 . S
C649 C646 1.387 . S
C650 C651 1.387 . S
C650 H654 0.955 . S
C650 C659 1.390 . S
C651 C650 1.387 . S
C651 C653 1.387 . S
H652 C659 0.950 . S
C653 C651 1.387 . S
C653 C655 1.390 . S
C653 H657 0.950 . S
H654 C650 0.955 . S
C655 C653 1.390 . S
C655 C656 1.387 . S
C655 H658 0.950 . S
C656 C655 1.387 . S
C656 C659 1.387 . S
H657 C653 0.950 . S
H658 C655 0.950 . S
C659 C650 1.390 . S
C659 H652 0.950 . S
C659 C656 1.387 . S
C660 C661 1.387 . S
C660 H664 0.950 . S
C660 C669 1.390 . S
C661 C660 1.387 . S
C661 C663 1.387 . S
H662 C669 0.950 . S
C663 C661 1.387 . S
C663 C665 1.390 . S
C663 H667 0.950 . S
H664 C660 0.950 . S
C665 C663 1.390 . S
C665 C666 1.387 . S
C665 H668 0.950 . S
C666 C665 1.387 . S
C666 C669 1.387 . S
H667 C663 0.950 . S
H668 C665 0.950 . S
C669 C660 1.390 . S
C669 H662 0.950 . S
C669 C666 1.387 . S
C670 C671 1.387 . S
C670 H674 0.950 . S
C670 C679 1.390 . S
C671 C670 1.387 . S
C671 C673 1.387 . S
H672 C679 0.950 . S
C673 C671 1.387 . S
C673 C675 1.390 . S
C673 H677 0.950 1_556 S
H674 C670 0.950 . S
C675 C673 1.390 . S
C675 C676 1.387 . S
C675 H678 0.950 . S
C676 C675 1.387 . S
C676 C679 1.387 . S
H677 C673 0.950 1_554 S
H678 C675 0.950 . S
C679 C670 1.390 . S
C679 H672 0.950 . S
C679 C676 1.387 . S
C680 C681 1.387 . S
C680 H684 0.950 . S
C680 C689 1.390 . S
C681 C680 1.387 . S
C681 C683 1.387 . S
H682 C689 0.950 . S
C683 C681 1.387 . S
C683 C685 1.390 . S
C683 H687 0.950 . S
H684 C680 0.950 . S
C685 C683 1.390 . S
C685 C686 1.387 . S
C685 H688 0.950 . S
C686 C685 1.387 . S
C686 C689 1.387 . S
H687 C683 0.950 . S
H688 C685 0.950 . S
C689 C680 1.390 . S
C689 H682 0.950 . S
C689 C686 1.387 . S
C690 C691 1.387 . S
C690 H694 0.950 . S
C690 C699 1.390 . S
C691 C690 1.387 . S
C691 C693 1.387 . S
H692 C699 0.950 . S
C693 C691 1.387 . S
C693 C695 1.390 . S
C693 H697 0.950 . S
H694 C690 0.950 . S
C695 C693 1.390 . S
C695 C696 1.387 . S
C695 H698 0.950 . S
C696 C695 1.387 . S
C696 C699 1.387 . S
H697 C693 0.950 . S
H698 C695 0.950 . S
C699 C690 1.390 . S
C699 H692 0.950 . S
C699 C696 1.387 . S
C700 C701 1.387 . S
C700 H704 0.950 . S
C700 C709 1.390 . S
C701 C700 1.387 . S
C701 C703 1.387 . S
H702 C709 0.950 . S
C703 C701 1.387 . S
C703 C705 1.390 . S
C703 H707 0.950 . S
H704 C700 0.950 . S
C705 C703 1.390 . S
C705 C706 1.387 . S
C705 H708 0.950 . S
C706 C705 1.387 . S
C706 C709 1.387 . S
H707 C703 0.950 . S
H708 C705 0.950 . S
C709 C700 1.390 . S
C709 H702 0.950 . S
C709 C706 1.387 . S
C710 C711 1.387 . S
C710 H714 0.950 . S
C710 C719 1.390 . S
C711 C710 1.387 . S
C711 C713 1.387 . S
H712 C719 0.950 . S
C713 C711 1.387 . S
C713 C715 1.390 . S
C713 H717 0.950 . S
H714 C710 0.950 . S
C715 C713 1.390 . S
C715 C716 1.387 . S
C715 H718 0.950 . S
C716 C715 1.387 . S
C716 C719 1.387 . S
H717 C713 0.950 . S
H718 C715 0.950 . S
C719 C710 1.390 . S
C719 H712 0.950 . S
C719 C716 1.387 . S
C720 C721 1.387 . S
C720 H724 0.950 . S
C720 C729 1.390 . S
C721 C720 1.387 . S
C721 C723 1.387 . S
H722 C729 0.950 . S
C723 C721 1.387 . S
C723 C725 1.390 . S
C723 H727 0.950 . S
H724 C720 0.950 . S
C725 C723 1.390 . S
C725 C726 1.387 . S
C725 H728 0.950 . S
C726 C725 1.387 . S
C726 C729 1.387 . S
H727 C723 0.950 . S
H728 C725 0.950 . S
C729 C720 1.390 . S
C729 H722 0.950 . S
C729 C726 1.387 . S
C730 C731 1.387 . S
C730 H734 0.950 . S
C730 C739 1.390 . S
C731 C730 1.387 . S
C731 C733 1.387 . S
H732 C739 0.950 . S
C733 C731 1.387 . S
C733 C735 1.390 . S
C733 H737 0.950 . S
H734 C730 0.950 . S
C735 C733 1.390 . S
C735 C736 1.387 . S
C735 H738 0.950 . S
C736 C735 1.387 . S
C736 C739 1.387 . S
H737 C733 0.950 . S
H738 C735 0.950 . S
C739 C730 1.390 . S
C739 H732 0.950 . S
C739 C736 1.387 . S
C740 C741 1.387 . S
C740 H744 0.950 . S
C740 C749 1.390 . S
C741 C740 1.387 . S
C741 C743 1.387 . S
H742 C749 0.950 . S
C743 C741 1.387 . S
C743 C745 1.390 1_565 S
C743 H747 0.950 1_565 S
H744 C740 0.950 . S
C745 C743 1.390 1_545 S
C745 C746 1.395 . S
C745 H748 0.950 . S
C746 C745 1.395 . S
C746 C749 1.370 1_545 S
H747 C743 0.950 1_545 S
H748 C745 0.950 . S
C749 C740 1.390 . S
C749 H742 0.950 . S
C749 C746 1.370 1_565 S
C750 C751 1.387 1_565 S
C750 H754 0.950 . S
C750 C759 1.390 . S
C751 C750 1.387 1_545 S
C751 C753 1.387 . S
H752 C759 0.950 . S
C753 C751 1.387 . S
C753 C755 1.390 . S
C753 H757 0.950 . S
H754 C750 0.950 . S
C755 C753 1.390 . S
C755 C756 1.387 . S
C755 H758 0.950 . S
C756 C755 1.387 . S
C756 C759 1.387 1_545 S
H757 C753 0.950 . S
H758 C755 0.950 . S
C759 C750 1.390 . S
C759 H752 0.950 . S
C759 C756 1.387 1_565 S
C760 C761 1.387 . S
C760 H764 0.950 . S
C760 C769 1.390 . S
C761 C760 1.387 . S
C761 C763 1.387 . S
H762 C769 0.950 . S
C763 C761 1.387 . S
C763 C765 1.390 . S
C763 H767 0.950 . S
H764 C760 0.950 . S
C765 C763 1.390 . S
C765 C766 1.387 . S
C765 H768 0.950 . S
C766 C765 1.387 . S
C766 C769 1.387 . S
H767 C763 0.950 . S
H768 C765 0.950 . S
C769 C760 1.390 . S
C769 H762 0.950 . S
C769 C766 1.387 . S
C770 C771 1.387 . S
C770 H774 0.950 . S
C770 C779 1.390 . S
C771 C770 1.387 . S
C771 C773 1.387 1_554 S
H772 C779 0.950 . S
C773 C771 1.387 1_556 S
C773 C775 1.390 . S
C773 H777 0.950 . S
H774 C770 0.950 . S
C775 C773 1.390 . S
C775 C776 1.387 1_556 S
C775 H778 0.950 . S
C776 C775 1.387 1_554 S
C776 C779 1.387 . S
H777 C773 0.950 . S
H778 C775 0.950 . S
C779 C770 1.390 . S
C779 H772 0.950 . S
C779 C776 1.387 . S
C780 C781 1.387 . S
C780 H784 0.950 . S
C780 C789 1.390 . S
C781 C780 1.387 . S
C781 C783 1.387 . S
H782 C789 0.950 . S
C783 C781 1.387 . S
C783 C785 1.390 . S
C783 H787 0.950 . S
H784 C780 0.950 . S
C785 C783 1.390 . S
C785 C786 1.387 . S
C785 H788 0.950 . S
C786 C785 1.387 . S
C786 C789 1.387 . S
H787 C783 0.950 . S
H788 C785 0.950 . S
C789 C780 1.390 . S
C789 H782 0.950 . S
C789 C786 1.387 . S
C790 C791 1.387 . S
C790 H794 0.950 . S
C790 C799 1.390 . S
C791 C790 1.387 . S
C791 C793 1.387 . S
H792 C799 0.950 . S
C793 C791 1.387 . S
C793 C795 1.390 1_556 S
C793 H797 0.950 . S
H794 C790 0.950 . S
C795 C793 1.390 1_554 S
C795 C796 1.390 . S
C795 H798 0.950 . S
C796 C795 1.390 . S
C796 C799 1.375 1_554 S
H797 C793 0.950 . S
H798 C795 0.950 . S
C799 C790 1.390 . S
C799 H792 0.950 . S
C799 C796 1.375 1_556 S
C800 C801 1.387 . S
C800 H804 0.950 . S
C800 C809 1.390 . S
C801 C800 1.387 . S
C801 C803 1.387 . S
H802 C809 0.950 . S
C803 C801 1.387 . S
C803 C805 1.390 . S
C803 H807 0.950 . S
H804 C800 0.950 . S
C805 C803 1.390 . S
C805 C806 1.387 . S
C805 H808 0.950 . S
C806 C805 1.387 . S
C806 C809 1.387 . S
H807 C803 0.950 . S
H808 C805 0.950 . S
C809 C800 1.390 . S
C809 H802 0.950 . S
C809 C806 1.387 . S
C810 C811 1.387 . S
C810 H814 0.950 . S
C810 C819 1.390 . S
C811 C810 1.387 . S
C811 C813 1.387 . S
H812 C819 0.950 . S
C813 C811 1.387 . S
C813 C815 1.390 . S
C813 H817 0.950 . S
H814 C810 0.950 . S
C815 C813 1.390 . S
C815 C816 1.387 . S
C815 H818 0.950 . S
C816 C815 1.387 . S
C816 C819 1.387 . S
H817 C813 0.950 . S
H818 C815 0.950 . S
C819 C810 1.390 . S
C819 H812 0.950 . S
C819 C816 1.387 . S
C820 C821 1.387 . S
C820 H824 0.950 . S
C820 C829 1.390 . S
C821 C820 1.387 . S
C821 C823 1.387 . S
H822 C829 0.950 . S
C823 C821 1.387 . S
C823 C825 1.390 . S
C823 H827 0.950 . S
H824 C820 0.950 . S
C825 C823 1.390 . S
C825 C826 1.387 . S
C825 H828 0.950 . S
C826 C825 1.387 . S
C826 C829 1.387 . S
H827 C823 0.950 . S
H828 C825 0.950 . S
C829 C820 1.390 . S
C829 H822 0.950 . S
C829 C826 1.387 . S
C830 C831 1.387 1_455 S
C830 H834 0.950 . S
C830 C839 1.390 . S
C831 C830 1.387 1_655 S
C831 C833 1.387 . S
H832 C839 0.950 . S
C833 C831 1.387 . S
C833 C835 1.390 . S
C833 H837 0.950 . S
H834 C830 0.950 . S
C835 C833 1.390 . S
C835 C836 1.387 1_655 S
C835 H838 0.950 . S
C836 C835 1.387 1_455 S
C836 C839 1.387 . S
H837 C833 0.950 . S
H838 C835 0.950 . S
C839 C830 1.390 . S
C839 H832 0.950 . S
C839 C836 1.387 . S
C840 C841 1.387 . S
C840 H844 0.950 . S
C840 C849 1.390 . S
C841 C840 1.387 . S
C841 C843 1.387 . S
H842 C849 0.950 . S
C843 C841 1.387 . S
C843 C845 1.390 . S
C843 H847 0.950 . S
H844 C840 0.950 . S
C845 C843 1.390 . S
C845 C846 1.387 . S
C845 H848 0.950 . S
C846 C845 1.387 . S
C846 C849 1.387 . S
H847 C843 0.950 . S
H848 C845 0.950 . S
C849 C840 1.390 . S
C849 H842 0.950 . S
C849 C846 1.387 . S
C850 C851 1.387 . S
C850 H854 0.950 . S
C850 C859 1.390 . S
C851 C850 1.387 . S
C851 C853 1.387 . S
H852 C859 0.950 . S
C853 C851 1.387 . S
C853 C855 1.390 . S
C853 H857 0.950 . S
H854 C850 0.950 . S
C855 C853 1.390 . S
C855 C856 1.387 . S
C855 H858 0.950 . S
C856 C855 1.387 . S
C856 C859 1.387 . S
H857 C853 0.950 . S
H858 C855 0.950 . S
C859 C850 1.390 . S
C859 H852 0.950 . S
C859 C856 1.387 . S
C860 C861 1.387 . S
C860 H864 0.950 . S
C860 C869 1.390 . S
C861 C860 1.387 . S
C861 C863 1.387 . S
H862 C869 0.948 1_565 S
C863 C861 1.387 . S
C863 C865 1.390 . S
C863 H867 0.950 . S
H864 C860 0.950 . S
C865 C863 1.390 . S
C865 C866 1.380 1_545 S
C865 H868 0.950 . S
C866 C865 1.380 1_565 S
C866 C869 1.385 1_565 S
H867 C863 0.950 . S
H868 C865 0.950 . S
C869 C860 1.390 . S
C869 H862 0.948 1_545 S
C869 C866 1.385 1_545 S
C870 C871 1.387 . S
C870 H874 0.950 . S
C870 C879 1.390 . S
C871 C870 1.387 . S
C871 C873 1.387 1_565 S
H872 C879 0.950 . S
C873 C871 1.387 1_545 S
C873 C875 1.390 . S
C873 H877 0.950 . S
H874 C870 0.950 . S
C875 C873 1.390 . S
C875 C876 1.387 1_545 S
C875 H878 0.950 . S
C876 C875 1.387 1_565 S
C876 C879 1.387 . S
H877 C873 0.950 . S
H878 C875 0.950 . S
C879 C870 1.390 . S
C879 H872 0.950 . S
C879 C876 1.387 . S
C880 C881 1.387 . S
C880 H884 0.950 . S
C880 C889 1.390 . S
C881 C880 1.387 . S
C881 C883 1.387 . S
H882 C889 0.950 . S
C883 C881 1.387 . S
C883 C885 1.390 . S
C883 H887 0.950 . S
H884 C880 0.950 . S
C885 C883 1.390 . S
C885 C886 1.387 . S
C885 H888 0.950 . S
C886 C885 1.387 . S
C886 C889 1.387 . S
H887 C883 0.950 . S
H888 C885 0.950 . S
C889 C880 1.390 . S
C889 H882 0.950 . S
C889 C886 1.387 . S
C890 C891 1.387 . S
C890 H894 0.950 . S
C890 C899 1.390 . S
C891 C890 1.387 . S
C891 C893 1.387 . S
H892 C899 0.950 . S
C893 C891 1.387 . S
C893 C895 1.390 . S
C893 H897 0.950 . S
H894 C890 0.950 . S
C895 C893 1.390 . S
C895 C896 1.387 . S
C895 H898 0.950 . S
C896 C895 1.387 . S
C896 C899 1.387 . S
H897 C893 0.950 . S
H898 C895 0.950 . S
C899 C890 1.390 . S
C899 H892 0.950 . S
C899 C896 1.387 . S
C900 C901 1.387 . S
C900 H904 0.950 . S
C900 C909 1.390 . S
C901 C900 1.387 . S
C901 C903 1.387 . S
H902 C909 0.950 . S
C903 C901 1.387 . S
C903 C905 1.390 . S
C903 H907 0.950 . S
H904 C900 0.950 . S
C905 C903 1.390 . S
C905 C906 1.387 . S
C905 H908 0.950 . S
C906 C905 1.387 . S
C906 C909 1.387 . S
H907 C903 0.950 . S
H908 C905 0.950 . S
C909 C900 1.390 . S
C909 H902 0.950 . S
C909 C906 1.387 . S
C910 C911 1.387 . S
C910 H914 0.950 . S
C910 C919 1.390 . S
C911 C910 1.387 . S
C911 C913 1.387 1_554 S
H912 C919 0.950 . S
C913 C911 1.387 1_556 S
C913 C915 1.390 . S
C913 H917 0.950 . S
H914 C910 0.950 . S
C915 C913 1.390 . S
C915 C916 1.399 . S
C915 H918 0.950 . S
C916 C915 1.399 . S
C916 C919 1.365 1_556 S
H917 C913 0.950 . S
H918 C915 0.950 . S
C919 C910 1.390 . S
C919 H912 0.950 . S
C919 C916 1.365 1_554 S
C920 C921 1.387 . S
C920 H924 0.950 . S
C920 C929 1.390 . S
C921 C920 1.387 . S
C921 C923 1.387 . S
H922 C929 0.950 . S
C923 C921 1.387 . S
C923 C925 1.390 . S
C923 H927 0.950 . S
H924 C920 0.950 . S
C925 C923 1.390 . S
C925 C926 1.387 . S
C925 H928 0.950 . S
C926 C925 1.387 . S
C926 C929 1.387 . S
H927 C923 0.950 . S
H928 C925 0.950 . S
C929 C920 1.390 . S
C929 H922 0.950 . S
C929 C926 1.387 . S
C930 C931 1.387 . S
C930 H934 0.950 1_655 S
C930 C939 1.390 1_655 S
C931 C930 1.387 . S
C931 C933 1.387 . S
H932 C939 0.950 . S
C933 C931 1.387 . S
C933 C935 1.390 . S
C933 H937 0.950 . S
H934 C930 0.950 1_455 S
C935 C933 1.390 . S
C935 C936 1.387 . S
C935 H938 0.950 . S
C936 C935 1.387 . S
C936 C939 1.387 1_655 S
H937 C933 0.950 . S
H938 C935 0.950 . S
C939 C930 1.390 1_455 S
C939 H932 0.950 . S
C939 C936 1.387 1_455 S
C940 C941 1.387 . S
C940 H944 0.950 . S
C940 C949 1.390 . S
C941 C940 1.387 . S
C941 C943 1.387 . S
H942 C949 0.950 . S
C943 C941 1.387 . S
C943 C945 1.390 . S
C943 H947 0.950 . S
H944 C940 0.950 . S
C945 C943 1.390 . S
C945 C946 1.387 . S
C945 H948 0.950 . S
C946 C945 1.387 . S
C946 C949 1.387 . S
H947 C943 0.950 . S
H948 C945 0.950 . S
C949 C940 1.390 . S
C949 H942 0.950 . S
C949 C946 1.387 . S
C950 C951 1.387 . S
C950 H954 0.950 . S
C950 C959 1.390 . S
C951 C950 1.387 . S
C951 C953 1.387 . S
H952 C959 0.950 . S
C953 C951 1.387 . S
C953 C955 1.397 . S
C953 H957 0.950 . S
H954 C950 0.950 . S
C955 C953 1.397 . S
C955 C956 1.387 1_455 S
C955 H958 0.944 1_455 S
C956 C955 1.387 1_655 S
C956 C959 1.387 1_655 S
H957 C953 0.950 . S
H958 C955 0.944 1_655 S
C959 C950 1.390 . S
C959 H952 0.950 . S
C959 C956 1.387 1_455 S
C960 C961 1.387 . S
C960 H964 0.950 . S
C960 C969 1.390 . S
C961 C960 1.387 . S
C961 C963 1.387 . S
H962 C969 0.950 . S
C963 C961 1.387 . S
C963 C965 1.390 . S
C963 H967 0.950 . S
H964 C960 0.950 . S
C965 C963 1.390 . S
C965 C966 1.387 . S
C965 H968 0.950 . S
C966 C965 1.387 . S
C966 C969 1.387 . S
H967 C963 0.950 . S
H968 C965 0.950 . S
C969 C960 1.390 . S
C969 H962 0.950 . S
C969 C966 1.387 . S
C970 C971 1.387 . S
C970 H974 0.950 . S
C970 C979 1.390 . S
C971 C970 1.387 . S
C971 C973 1.387 . S
H972 C979 0.950 . S
C973 C971 1.387 . S
C973 C975 1.390 . S
C973 H977 0.950 . S
H974 C970 0.950 . S
C975 C973 1.390 . S
C975 C976 1.387 . S
C975 H978 0.950 . S
C976 C975 1.387 . S
C976 C979 1.387 . S
H977 C973 0.950 . S
H978 C975 0.950 . S
C979 C970 1.390 . S
C979 H972 0.950 . S
C979 C976 1.387 . S
C980 C981 1.387 . S
C980 H984 0.950 1_545 S
C980 C989 1.390 . S
C981 C980 1.387 . S
C981 C983 1.387 . S
H982 C989 0.950 . S
C983 C981 1.387 . S
C983 C985 1.390 . S
C983 H987 0.950 . S
H984 C980 0.950 1_565 S
C985 C983 1.390 . S
C985 C986 1.387 . S
C985 H988 0.950 . S
C986 C985 1.387 . S
C986 C989 1.387 . S
H987 C983 0.950 . S
H988 C985 0.950 . S
C989 C980 1.390 . S
C989 H982 0.950 . S
C989 C986 1.387 . S
C990 C991 1.387 . S
C990 H994 0.950 . S
C990 C999 1.390 . S
C991 C990 1.387 . S
C991 C993 1.387 . S
H992 C999 0.950 . S
C993 C991 1.387 . S
C993 C995 1.390 . S
C993 H997 0.950 . S
H994 C990 0.950 . S
C995 C993 1.390 . S
C995 C996 1.387 . S
C995 H998 0.950 . S
C996 C995 1.387 . S
C996 C999 1.387 . S
H997 C993 0.950 . S
H998 C995 0.950 . S
C999 C990 1.390 . S
C999 H992 0.950 . S
C999 C996 1.387 . S
C1000 C1001 1.387 . S
C1000 H1004 0.950 . S
C1000 C1009 1.390 . S
C1001 C1000 1.387 . S
C1001 C1003 1.387 . S
H1002 C1009 0.950 . S
C1003 C1001 1.387 . S
C1003 C1005 1.390 . S
C1003 H1007 0.950 . S
H1004 C1000 0.950 . S
C1005 C1003 1.390 . S
C1005 C1006 1.387 . S
C1005 H1008 0.950 . S
C1006 C1005 1.387 . S
C1006 C1009 1.387 . S
H1007 C1003 0.950 . S
H1008 C1005 0.950 . S
C1009 C1000 1.390 . S
C1009 H1002 0.950 . S
C1009 C1006 1.387 . S
C1010 C1011 1.387 . S
C1010 H1014 0.950 1_556 S
C1010 C1019 1.390 . S
C1011 C1010 1.387 . S
C1011 C1013 1.387 . S
H1012 C1019 0.950 . S
C1013 C1011 1.387 . S
C1013 C1015 1.390 . S
C1013 H1017 0.950 . S
H1014 C1010 0.950 1_554 S
C1015 C1013 1.390 . S
C1015 C1016 1.387 . S
C1015 H1018 0.950 . S
C1016 C1015 1.387 . S
C1016 C1019 1.387 . S
H1017 C1013 0.950 . S
H1018 C1015 0.950 . S
C1019 C1010 1.390 . S
C1019 H1012 0.950 . S
C1019 C1016 1.387 . S
C1020 C1021 1.387 . S
C1020 H1024 0.950 . S
C1020 C1029 1.390 . S
C1021 C1020 1.387 . S
C1021 C1023 1.387 . S
H1022 C1029 0.950 . S
C1023 C1021 1.387 . S
C1023 C1025 1.390 . S
C1023 H1027 0.950 . S
H1024 C1020 0.950 . S
C1025 C1023 1.390 . S
C1025 C1026 1.387 . S
C1025 H1028 0.950 . S
C1026 C1025 1.387 . S
C1026 C1029 1.387 . S
H1027 C1023 0.950 . S
H1028 C1025 0.950 . S
C1029 C1020 1.390 . S
C1029 H1022 0.950 . S
C1029 C1026 1.387 . S
C1030 C1031 1.387 . S
C1030 H1034 0.950 . S
C1030 C1039 1.390 . S
C1031 C1030 1.387 . S
C1031 C1033 1.387 1_554 S
H1032 C1039 0.950 . S
C1033 C1031 1.387 1_556 S
C1033 C1035 1.390 1_556 S
C1033 H1037 0.950 . S
H1034 C1030 0.950 . S
C1035 C1033 1.390 1_554 S
C1035 C1036 1.387 . S
C1035 H1038 0.950 1_554 S
C1036 C1035 1.387 . S
C1036 C1039 1.387 . S
H1037 C1033 0.950 . S
H1038 C1035 0.950 1_556 S
C1039 C1030 1.390 . S
C1039 H1032 0.950 . S
C1039 C1036 1.387 . S
C1040 C1041 1.387 . S
C1040 H1044 0.950 . S
C1040 C1049 1.390 . S
C1041 C1040 1.387 . S
C1041 C1043 1.387 . S
H1042 C1049 0.950 . S
C1043 C1041 1.387 . S
C1043 C1045 1.390 . S
C1043 H1047 0.950 . S
H1044 C1040 0.950 . S
C1045 C1043 1.390 . S
C1045 C1046 1.387 . S
C1045 H1048 0.950 . S
C1046 C1045 1.387 . S
C1046 C1049 1.387 . S
H1047 C1043 0.950 . S
H1048 C1045 0.950 . S
C1049 C1040 1.390 . S
C1049 H1042 0.950 . S
C1049 C1046 1.387 . S
C1050 C1051 1.387 . S
C1050 H1054 0.950 1_655 S
C1050 C1059 1.390 . S
C1051 C1050 1.387 . S
C1051 C1053 1.387 . S
H1052 C1059 0.974 . S
C1053 C1051 1.387 . S
C1053 C1055 1.390 . S
C1053 H1057 0.950 . S
H1054 C1050 0.950 1_455 S
C1055 C1053 1.390 . S
C1055 C1056 1.387 . S
C1055 H1058 0.950 . S
C1056 C1055 1.387 . S
C1056 C1059 1.387 . S
H1057 C1053 0.950 . S
H1058 C1055 0.950 . S
C1059 C1050 1.390 . S
C1059 H1052 0.974 . S
C1059 C1056 1.387 . S
C1060 C1061 1.387 . S
C1060 H1064 0.950 . S
C1060 C1069 1.390 . S
C1061 C1060 1.387 . S
C1061 C1063 1.387 . S
H1062 C1069 0.950 . S
C1063 C1061 1.387 . S
C1063 C1065 1.390 . S
C1063 H1067 0.950 . S
H1064 C1060 0.950 . S
C1065 C1063 1.390 . S
C1065 C1066 1.387 . S
C1065 H1068 0.950 . S
C1066 C1065 1.387 . S
C1066 C1069 1.387 . S
H1067 C1063 0.950 . S
H1068 C1065 0.950 . S
C1069 C1060 1.390 . S
C1069 H1062 0.950 . S
C1069 C1066 1.387 . S
C1070 C1071 1.387 . S
C1070 H1074 0.950 1_455 S
C1070 C1079 1.390 . S
C1071 C1070 1.387 . S
C1071 C1073 1.387 . S
H1072 C1079 0.950 . S
C1073 C1071 1.387 . S
C1073 C1075 1.390 . S
C1073 H1077 0.950 . S
H1074 C1070 0.950 1_655 S
C1075 C1073 1.390 . S
C1075 C1076 1.387 . S
C1075 H1078 0.950 . S
C1076 C1075 1.387 . S
C1076 C1079 1.387 . S
H1077 C1073 0.950 . S
H1078 C1075 0.950 . S
C1079 C1070 1.390 . S
C1079 H1072 0.950 . S
C1079 C1076 1.387 . S
C1080 C1081 1.387 . S
C1080 H1084 0.950 . S
C1080 C1089 1.390 . S
C1081 C1080 1.387 . S
C1081 C1083 1.387 . S
H1082 C1089 0.950 . S
C1083 C1081 1.387 . S
C1083 C1085 1.390 . S
C1083 H1087 0.950 . S
H1084 C1080 0.950 . S
C1085 C1083 1.390 . S
C1085 C1086 1.387 . S
C1085 H1088 0.950 . S
C1086 C1085 1.387 . S
C1086 C1089 1.387 . S
H1087 C1083 0.950 . S
H1088 C1085 0.950 . S
C1089 C1080 1.390 . S
C1089 H1082 0.950 . S
C1089 C1086 1.387 . S
C1090 C1091 1.387 . S
C1090 H1094 0.950 . S
C1090 C1099 1.390 . S
C1091 C1090 1.387 . S
C1091 C1093 1.387 . S
H1092 C1099 0.950 . S
C1093 C1091 1.387 . S
C1093 C1095 1.390 . S
C1093 H1097 0.950 . S
H1094 C1090 0.950 . S
C1095 C1093 1.390 . S
C1095 C1096 1.387 . S
C1095 H1098 0.950 . S
C1096 C1095 1.387 . S
C1096 C1099 1.387 . S
H1097 C1093 0.950 . S
H1098 C1095 0.950 . S
C1099 C1090 1.390 . S
C1099 H1092 0.950 . S
C1099 C1096 1.387 . S
C1100 C1101 1.387 . S
C1100 H1104 0.950 . S
C1100 C1109 1.390 . S
C1101 C1100 1.387 . S
C1101 C1103 1.386 1_565 S
H1102 C1109 0.950 . S
C1103 C1101 1.386 1_545 S
C1103 C1105 1.389 1_545 S
C1103 H1107 0.952 . S
H1104 C1100 0.950 . S
C1105 C1103 1.389 1_565 S
C1105 C1106 1.387 . S
C1105 H1108 0.936 1_565 S
C1106 C1105 1.387 . S
C1106 C1109 1.387 . S
H1107 C1103 0.952 . S
H1108 C1105 0.936 1_545 S
C1109 C1100 1.390 . S
C1109 H1102 0.950 . S
C1109 C1106 1.387 . S
C1110 C1111 1.387 . S
C1110 H1114 0.950 1_545 S
C1110 C1119 1.390 . S
C1111 C1110 1.387 . S
C1111 C1113 1.387 . S
H1112 C1119 0.928 1_565 S
C1113 C1111 1.387 . S
C1113 C1115 1.390 . S
C1113 H1117 0.950 . S
H1114 C1110 0.950 1_565 S
C1115 C1113 1.390 . S
C1115 C1116 1.387 . S
C1115 H1118 0.950 . S
C1116 C1115 1.387 . S
C1116 C1119 1.387 . S
H1117 C1113 0.950 . S
H1118 C1115 0.950 . S
C1119 C1110 1.390 . S
C1119 H1112 0.928 1_545 S
C1119 C1116 1.387 . S
C1120 C1121 1.387 . S
C1120 H1124 0.950 . S
C1120 C1129 1.390 . S
C1121 C1120 1.387 . S
C1121 C1123 1.387 . S
H1122 C1129 0.950 . S
C1123 C1121 1.387 . S
C1123 C1125 1.390 . S
C1123 H1127 0.950 . S
H1124 C1120 0.950 . S
C1125 C1123 1.390 . S
C1125 C1126 1.387 . S
C1125 H1128 0.950 . S
C1126 C1125 1.387 . S
C1126 C1129 1.387 . S
H1127 C1123 0.950 . S
H1128 C1125 0.950 . S
C1129 C1120 1.390 . S
C1129 H1122 0.950 . S
C1129 C1126 1.387 . S
C1130 C1131 1.387 . S
C1130 H1134 0.950 . S
C1130 C1139 1.390 . S
C1131 C1130 1.387 . S
C1131 C1133 1.387 . S
H1132 C1139 0.950 . S
C1133 C1131 1.387 . S
C1133 C1135 1.390 . S
C1133 H1137 0.950 1_554 S
H1134 C1130 0.950 . S
C1135 C1133 1.390 . S
C1135 C1136 1.387 . S
C1135 H1138 0.930 1_554 S
C1136 C1135 1.387 . S
C1136 C1139 1.387 . S
H1137 C1133 0.950 1_556 S
H1138 C1135 0.930 1_556 S
C1139 C1130 1.390 . S
C1139 H1132 0.950 . S
C1139 C1136 1.387 . S
C1140 C1141 1.387 . S
C1140 H1144 0.950 . S
C1140 C1149 1.390 . S
C1141 C1140 1.387 . S
C1141 C1143 1.387 . S
H1142 C1149 0.950 . S
C1143 C1141 1.387 . S
C1143 C1145 1.390 . S
C1143 H1147 0.950 . S
H1144 C1140 0.950 . S
C1145 C1143 1.390 . S
C1145 C1146 1.387 . S
C1145 H1148 0.950 . S
C1146 C1145 1.387 . S
C1146 C1149 1.387 . S
H1147 C1143 0.950 . S
H1148 C1145 0.950 . S
C1149 C1140 1.390 . S
C1149 H1142 0.950 . S
C1149 C1146 1.387 . S
C1150 C1151 1.387 . S
C1150 H1154 0.950 . S
C1150 C1159 1.390 . S
C1151 C1150 1.387 . S
C1151 C1153 1.387 . S
H1152 C1159 0.950 . S
C1153 C1151 1.387 . S
C1153 C1155 1.390 . S
C1153 H1157 0.950 1_556 S
H1154 C1150 0.950 . S
C1155 C1153 1.390 . S
C1155 C1156 1.387 . S
C1155 H1158 0.950 . S
C1156 C1155 1.387 . S
C1156 C1159 1.387 . S
H1157 C1153 0.950 1_554 S
H1158 C1155 0.950 . S
C1159 C1150 1.390 . S
C1159 H1152 0.950 . S
C1159 C1156 1.387 . S
C1160 C1161 1.387 . S
C1160 H1164 0.950 . S
C1160 C1169 1.390 . S
C1161 C1160 1.387 . S
C1161 C1163 1.387 . S
H1162 C1169 0.950 . S
C1163 C1161 1.387 . S
C1163 C1165 1.390 . S
C1163 H1167 0.950 . S
H1164 C1160 0.950 . S
C1165 C1163 1.390 . S
C1165 C1166 1.387 . S
C1165 H1168 0.950 . S
C1166 C1165 1.387 . S
C1166 C1169 1.387 . S
H1167 C1163 0.950 . S
H1168 C1165 0.950 . S
C1169 C1160 1.390 . S
C1169 H1162 0.950 . S
C1169 C1166 1.387 . S
C1170 C1171 1.387 . S
C1170 H1174 0.947 1_455 S
C1170 C1179 1.390 . S
C1171 C1170 1.387 . S
C1171 C1173 1.387 . S
H1172 C1179 0.950 . S
C1173 C1171 1.387 . S
C1173 C1175 1.390 . S
C1173 H1177 0.950 . S
H1174 C1170 0.947 1_655 S
C1175 C1173 1.390 . S
C1175 C1176 1.387 . S
C1175 H1178 0.950 . S
C1176 C1175 1.387 . S
C1176 C1179 1.387 . S
H1177 C1173 0.950 . S
H1178 C1175 0.950 . S
C1179 C1170 1.390 . S
C1179 H1172 0.950 . S
C1179 C1176 1.387 . S
C1180 C1181 1.387 . S
C1180 H1184 0.950 . S
C1180 C1189 1.390 . S
C1181 C1180 1.387 . S
C1181 C1183 1.387 . S
H1182 C1189 0.950 . S
C1183 C1181 1.387 . S
C1183 C1185 1.390 . S
C1183 H1187 0.950 . S
H1184 C1180 0.950 . S
C1185 C1183 1.390 . S
C1185 C1186 1.387 . S
C1185 H1188 0.950 . S
C1186 C1185 1.387 . S
C1186 C1189 1.387 . S
H1187 C1183 0.950 . S
H1188 C1185 0.950 . S
C1189 C1180 1.390 . S
C1189 H1182 0.950 . S
C1189 C1186 1.387 . S
C1190 C1191 1.387 . S
C1190 H1194 0.950 1_655 S
C1190 C1199 1.390 . S
C1191 C1190 1.387 . S
C1191 C1193 1.387 . S
H1192 C1199 0.950 . S
C1193 C1191 1.387 . S
C1193 C1195 1.390 . S
C1193 H1197 0.950 . S
H1194 C1190 0.950 1_455 S
C1195 C1193 1.390 . S
C1195 C1196 1.387 . S
C1195 H1198 0.950 . S
C1196 C1195 1.387 . S
C1196 C1199 1.387 . S
H1197 C1193 0.950 . S
H1198 C1195 0.950 . S
C1199 C1190 1.390 . S
C1199 H1192 0.950 . S
C1199 C1196 1.387 . S
C486 C475 1.800 . S
C481 C8 1.759 . S
C496 C448 1.692 . S
C491 C19 1.607 . S
C506 C466 1.536 . S
C501 C30 1.504 . S
C516 C457 1.911 . S
C511 C41 1.857 . S
C526 C394 1.801 . S
C521 C52 1.760 . S
C531 C63 1.854 . S
C536 C403 1.913 . S
C546 C376 1.693 . S
C541 C74 1.610 . S
C551 C85 1.505 . S
C556 C385 1.534 . S
C566 C439 1.800 . S
C561 C96 1.758 . S
C571 C107 1.853 . S
C576 C421 1.913 . S
C581 C118 1.608 . S
C586 C412 1.692 . S
C596 C430 1.537 . S
C591 C129 1.504 . S
C606 C367 1.801 . S
C601 C140 1.701 . S
C611 C151 1.513 . S
C616 C340 1.694 . S
C626 C358 1.538 . S
C621 C162 1.436 . S
C631 C173 1.765 . S
C636 C349 1.915 . S
C646 C286 1.802 . S
C641 C184 1.699 . S
C656 C295 1.913 . S
C651 C195 1.770 . S
C661 C206 1.516 . S
C666 C268 1.694 . S
C671 C217 1.437 . S
C676 C277 1.535 . S
C681 C228 1.696 . S
C686 C331 1.805 . S
C691 C239 1.768 . S
C696 C313 1.914 . S
C706 C304 1.693 . S
C701 C250 1.515 . S
C711 C261 1.436 . S
C716 C322 1.536 . S
C726 C269 1.336 . S
C721 C7 1.361 . S
C736 C278 1.358 . S
C731 C18 1.384 . S
C741 C29 1.362 . S
C746 C287 1.347 . S
C751 C40 1.256 . S
C756 C296 1.257 . S
C766 C305 1.337 . S
C761 C51 1.362 . S
C771 C62 1.256 . S
C776 C314 1.254 . S
C786 C323 1.357 . S
C781 C73 1.385 . S
C796 C332 1.347 . S
C791 C84 1.361 . S
C806 C341 1.334 . S
C801 C95 1.361 . S
C811 C106 1.255 . S
C816 C350 1.255 . S
C821 C117 1.387 . S
C826 C359 1.361 . S
C831 C128 1.362 . S
C836 C368 1.345 . S
C841 C139 1.239 . S
C846 C377 1.340 . S
C851 C150 1.204 . S
C856 C386 1.365 . S
C861 C161 1.219 . S
C866 C395 1.352 . S
C871 C172 1.125 . S
C876 C404 1.260 . S
C881 C183 1.239 . S
C886 C413 1.340 . S
C896 C422 1.259 . S
C891 C194 1.123 . S
C906 C431 1.362 . S
C901 C205 1.199 . S
C916 C440 1.353 . S
C911 C216 1.219 . S
C926 C449 1.338 . S
C921 C227 1.235 . S
C931 C238 1.124 . S
C936 C458 1.258 . S
C941 C249 1.205 . S
C946 C467 1.365 . S
C951 C260 1.225 . S
C956 C476 1.349 . S
C961 C5 1.551 . S
C966 C343 1.758 . S
C976 C370 1.737 . S
C971 C16 1.574 . S
C981 C27 1.378 1_545 S
C986 C352 1.492 . S
C996 C361 1.952 . S
C991 C38 1.784 1_565 S
C1001 C49 1.552 . S
C1006 C271 1.760 . S
C1011 C60 1.790 1_556 S
C1016 C280 1.952 . S
C1021 C71 1.579 . S
C1026 C289 1.736 . S
C1031 C82 1.378 1_554 S
C1036 C298 1.490 . S
C1046 C307 1.759 . S
C1041 C93 1.550 . S
C1056 C325 1.953 . S
C1051 C104 1.787 1_655 S
C1061 C115 1.577 . S
C1066 C334 1.735 . S
C1071 C126 1.378 1_455 S
C1076 C316 1.492 . S
C1086 C451 1.766 . S
C1081 C137 1.241 . S
C1096 C478 1.747 . S
C1091 C148 1.100 . S
C1101 C159 1.040 . S
C1106 C460 1.499 . S
C1116 C469 1.961 . S
C1111 C170 1.331 . S
C1121 C181 1.244 . S
C1126 C379 1.768 . S
C1131 C192 1.337 . S
C1136 C388 1.962 . S
C1141 C203 1.103 . S
C1146 C397 1.744 . S
C1156 C406 1.504 . S
C1151 C214 1.037 . S
C1166 C415 1.767 . S
C1161 C225 1.241 . S
C1176 C433 1.961 . S
C1171 C236 1.334 . S
C1181 C247 1.105 . S
C1186 C442 1.744 . S
C1196 C424 1.502 . S
C1191 C258 1.034 . S
