# Generated by pormake.
# Topology anh, (6,3)-cn, num edge types: 1
# Building blocks:
#     Node 0, Type 0, BuildingBlock: PAMTUU_clean_sbu_0, # of connection points: 6
#     Node 1, Type 0, BuildingBlock: PAMTUU_clean_sbu_0, # of connection points: 6
#     Node 2, Type 0, BuildingBlock: PAMTUU_clean_sbu_0, # of connection points: 6
#     Node 3, Type 1, BuildingBlock: BETDAH_clean_linker_0, # of connection points: 3
#     Node 4, Type 1, BuildingBlock: BETDAH_clean_linker_0, # of connection points: 3
#     Node 5, Type 1, BuildingBlock: BETDAH_clean_linker_0, # of connection points: 3
#     Node 6, Type 1, BuildingBlock: BETDAH_clean_linker_0, # of connection points: 3
#     Node 7, Type 1, BuildingBlock: BETDAH_clean_linker_0, # of connection points: 3
#     Node 8, Type 1, BuildingBlock: BETDAH_clean_linker_0, # of connection points: 3
#     Edge 9, Type (0, 1), BuildingBlock: UVAHIK_clean_linker_0, # of connection points: 2
#     Edge 10, Type (0, 1), BuildingBlock: UVAHIK_clean_linker_0, # of connection points: 2
#     Edge 11, Type (0, 1), BuildingBlock: UVAHIK_clean_linker_0, # of connection points: 2
#     Edge 12, Type (0, 1), BuildingBlock: UVAHIK_clean_linker_0, # of connection points: 2
#     Edge 13, Type (0, 1), BuildingBlock: UVAHIK_clean_linker_0, # of connection points: 2
#     Edge 14, Type (0, 1), BuildingBlock: UVAHIK_clean_linker_0, # of connection points: 2
#     Edge 15, Type (0, 1), BuildingBlock: UVAHIK_clean_linker_0, # of connection points: 2
#     Edge 16, Type (0, 1), BuildingBlock: UVAHIK_clean_linker_0, # of connection points: 2
#     Edge 17, Type (0, 1), BuildingBlock: UVAHIK_clean_linker_0, # of connection points: 2
#     Edge 18, Type (0, 1), BuildingBlock: UVAHIK_clean_linker_0, # of connection points: 2
#     Edge 19, Type (0, 1), BuildingBlock: UVAHIK_clean_linker_0, # of connection points: 2
#     Edge 20, Type (0, 1), BuildingBlock: UVAHIK_clean_linker_0, # of connection points: 2
#     Edge 21, Type (0, 1), BuildingBlock: UVAHIK_clean_linker_0, # of connection points: 2
#     Edge 22, Type (0, 1), BuildingBlock: UVAHIK_clean_linker_0, # of connection points: 2
#     Edge 23, Type (0, 1), BuildingBlock: UVAHIK_clean_linker_0, # of connection points: 2
#     Edge 24, Type (0, 1), BuildingBlock: UVAHIK_clean_linker_0, # of connection points: 2
#     Edge 25, Type (0, 1), BuildingBlock: UVAHIK_clean_linker_0, # of connection points: 2
#     Edge 26, Type (0, 1), BuildingBlock: UVAHIK_clean_linker_0, # of connection points: 2
# Relax obj value: 0.172
# Max RMSD: 0.139
# Mean RMSD: 0.096
data_MOF--net-anh--node1-PAMTUU_clean_sbu_0--node2-BETDAH_clean_linker_0--edge1-UVAHIK_clean_linker_0
_symmetry_space_group_name_H-M    P1
_symmetry_Int_Tables_number       1
_symmetry_cell_setting            triclinic
loop_
_symmetry_equiv_pos_as_xyz
'x, y, z'
_cell_length_a     39.211933
_cell_length_b     39.345564
_cell_length_c     64.205914
_cell_angle_alpha  93.413482
_cell_angle_beta   92.737324
_cell_angle_gamma 120.17491
loop_
_atom_site_label
_atom_site_type_symbol
_atom_site_fract_x
_atom_site_fract_y
_atom_site_fract_z
_atom_type_partial_charge
Tb0 Tb 0.13073 0.66417 0.15259 0.0
Tb1 Tb 0.17501 0.61261 0.15032 0.0
C2 C 0.14605 0.63352 0.11031 0.0
C3 C 1.05897 0.69643 0.16329 0.0
C4 C 0.98453 0.67829 0.17626 0.0
C5 C 1.00236 0.70572 0.16146 0.0
C6 C 1.03928 0.71471 0.15507 0.0
C7 C 1.04209 0.67007 0.17857 0.0
C8 C 1.00527 0.66126 0.1851 0.0
C9 C 0.09568 0.70307 0.15483 0.0
O10 O 1.08139 0.60286 0.1485 0.0
O11 O 0.11455 0.57038 0.15685 0.0
O12 O 0.18741 0.64102 0.18182 0.0
O13 O 0.13022 0.64264 0.18308 0.0
O14 O 0.21065 0.59539 0.13474 0.0
O15 O 0.18406 0.5695 0.16273 0.0
O16 O 0.22266 0.67313 0.14724 0.0
O17 O 0.19356 0.70817 0.15894 0.0
O18 O 0.14972 0.66472 0.12114 0.0
O19 O 0.14414 0.60428 0.1199 0.0
C20 C 1.08138 0.57072 0.15329 0.0
O21 O 0.12395 0.70822 0.1685 0.0
O22 O 0.09107 0.67905 0.13863 0.0
C23 C 0.16017 0.64178 0.19253 0.0
C24 C 0.2446 0.57237 0.15632 0.0
C25 C 0.3068 0.55824 0.16673 0.0
C26 C 0.27801 0.5512 0.18075 0.0
C27 C 0.24715 0.55812 0.17558 0.0
C28 C 0.27476 0.58175 0.14294 0.0
C29 C 0.30561 0.5749 0.14812 0.0
C30 C 0.20808 0.57177 0.14882 0.0
C31 C 0.22488 0.70673 0.15366 0.0
H32 H 0.987 0.71885 0.15402 0.0
H33 H 1.05185 0.73494 0.14317 0.0
H34 H 1.05689 0.65556 0.18505 0.0
H35 H 0.99261 0.64035 0.19667 0.0
H36 H 0.27835 0.53869 0.19528 0.0
H37 H 0.22425 0.55038 0.18621 0.0
H38 H 0.2734 0.59231 0.1279 0.0
H39 H 0.32694 0.58011 0.1368 0.0
Tb40 Tb 0.56629 0.11813 0.4777 0.0
Tb41 Tb 0.66106 0.16189 0.49268 0.0
C42 C 0.63004 0.14573 0.4453 0.0
C43 C 0.45763 1.05294 0.47543 0.0
C44 C 0.39123 0.98742 0.48918 0.0
C45 C 0.39502 0.99164 0.46764 0.0
C46 C 0.42787 1.02419 0.46085 0.0
C47 C 0.45364 1.04921 0.49695 0.0
C48 C 0.42068 1.01689 0.50375 0.0
C49 C 0.49287 0.08622 0.46804 0.0
O50 O 0.57716 0.06826 0.47686 0.0
O51 O 0.64181 0.09931 0.49146 0.0
O52 O 0.63002 0.16004 0.52025 0.0
O53 O 0.57099 0.10441 0.50933 0.0
O54 O 0.72048 0.20467 0.49008 0.0
O55 O 0.70454 0.16322 0.51354 0.0
O56 O 0.65129 0.2108 0.48715 0.0
O57 O 0.58409 0.17895 0.48911 0.0
O58 O 0.5976 0.14436 0.45076 0.0
O59 O 0.65513 0.14469 0.4592 0.0
C60 C 0.60863 0.06714 0.48418 0.0
O61 O 0.51314 0.11702 0.48158 0.0
O62 O 0.51582 0.07749 0.45776 0.0
C63 C 0.59666 0.12933 0.52437 0.0
C64 C 0.76173 0.22566 0.5223 0.0
C65 C 0.82628 0.28455 0.54904 0.0
C66 C 0.81077 0.24445 0.55188 0.0
C67 C 0.77893 0.2153 0.53856 0.0
C68 C 0.77509 0.26573 0.52048 0.0
C69 C 0.80707 0.29493 0.53377 0.0
C70 C 0.73294 0.19435 0.50642 0.0
C71 C 0.61843 0.21168 0.48884 0.0
H72 H 0.37332 0.96914 0.45597 0.0
H73 H 0.43043 1.0265 0.4442 0.0
H74 H 0.47616 0.07104 0.50857 0.0
H75 H 0.4185 1.01478 0.52043 0.0
H76 H 0.82472 0.23556 0.56362 0.0
H77 H 0.76901 0.18457 0.54034 0.0
H78 H 0.76227 0.27462 0.50815 0.0
H79 H 0.81856 0.32555 0.531 0.0
Tb80 Tb 0.62928 0.58067 0.80946 0.0
Tb81 Tb 0.67805 0.67595 0.82255 0.0
C82 C 0.65209 0.64049 0.77589 0.0
C83 C 0.60159 0.47622 0.80706 0.0
C84 C 0.61558 0.41611 0.81867 0.0
C85 C 0.60436 0.41708 0.79768 0.0
C86 C 0.59729 0.44683 0.79194 0.0
C87 C 0.61384 0.4759 0.82797 0.0
C88 C 0.62049 0.44592 0.83374 0.0
C89 C 0.59343 0.50702 0.80085 0.0
O90 O 0.69127 0.59716 0.80711 0.0
O91 O 0.7249 0.66143 0.82247 0.0
O92 O 0.65411 0.64563 0.85036 0.0
O93 O 0.65685 0.59066 0.84075 0.0
O94 O 0.69275 0.73341 0.81663 0.0
O95 O 0.71712 0.72284 0.84468 0.0
O96 O 0.61633 0.66093 0.81743 0.0
O97 O 0.58472 0.59416 0.82027 0.0
O98 O 0.62342 0.60864 0.78263 0.0
O99 O 0.68164 0.66736 0.78891 0.0
C100 C 0.72436 0.62944 0.81466 0.0
O101 O 0.58477 0.52466 0.81576 0.0
O102 O 0.61799 0.53192 0.78875 0.0
C103 C 0.65566 0.61453 0.8553 0.0
C104 C 0.69805 0.77037 0.84772 0.0
C105 C 0.66699 0.81293 0.86801 0.0
C106 C 0.70644 0.83243 0.86268 0.0
C107 C 0.72178 0.81127 0.8525 0.0
C108 C 0.65962 0.75049 0.85413 0.0
C109 C 0.64417 0.77153 0.8641 0.0
C110 C 0.71204 0.74841 0.83505 0.0
C111 C 0.58415 0.62733 0.81989 0.0
H112 H 0.5999 0.39415 0.78579 0.0
H113 H 0.58806 0.44668 0.77574 0.0
H114 H 0.61789 0.49857 0.8399 0.0
H115 H 0.62933 0.44594 0.84999 0.0
H116 H 0.72498 0.8642 0.8657 0.0
H117 H 0.75166 0.82696 0.8478 0.0
H118 H 0.64097 0.7188 0.85065 0.0
H119 H 0.61353 0.75547 0.8676 0.0
H120 H 0.59183 0.06929 0.22547 0.0
H121 H 0.69375 0.17943 0.21426 0.0
H122 H 0.61497 0.09927 0.16234 0.0
C123 C 0.61042 0.08915 0.21456 0.0
C124 C 0.59931 0.079 0.19295 0.0
C125 C 0.64436 0.12502 0.22244 0.0
C126 C 0.66751 0.15184 0.20833 0.0
C127 C 0.65699 0.14273 0.18657 0.0
C128 C 0.62279 0.10638 0.17908 0.0
N129 N 0.67987 0.16898 0.17173 0.0
C130 C 0.7152 0.20539 0.17602 0.0
H131 H 0.62463 0.57576 0.55517 0.0
H132 H 0.62036 0.67959 0.54252 0.0
H133 H 0.62143 0.60358 0.49154 0.0
C134 C 0.62376 0.59483 0.54391 0.0
C135 C 0.62393 0.58533 0.52249 0.0
C136 C 0.62258 0.62857 0.55124 0.0
C137 C 0.62124 0.65359 0.53685 0.0
C138 C 0.62021 0.64445 0.51519 0.0
C139 C 0.62157 0.61026 0.50817 0.0
N140 N 0.61795 0.66869 0.50002 0.0
C141 C 0.61561 0.70298 0.50388 0.0
H142 H 1.07731 0.6216 0.88767 0.0
H143 H 0.18552 0.62334 0.87703 0.0
H144 H 0.11683 0.63302 0.82573 0.0
C145 C 0.09866 0.62355 0.87699 0.0
C146 C 0.09264 0.62793 0.85578 0.0
C147 C 0.13195 0.62207 0.88484 0.0
C148 C 0.15988 0.62456 0.87108 0.0
C149 C 0.15433 0.62802 0.84963 0.0
C150 C 0.12065 0.62964 0.84215 0.0
N151 N 0.18184 0.63019 0.83515 0.0
C152 C 0.21676 0.6293 0.83965 0.0
H153 H 0.17125 0.63219 0.41938 0.0
H154 H 0.15816 0.51765 0.40623 0.0
H155 H 0.16501 0.56277 0.46986 0.0
C156 C 0.16746 0.60512 0.42493 0.0
C157 C 0.16859 0.60128 0.44653 0.0
C158 C 0.16332 0.57507 0.41027 0.0
C159 C 0.16135 0.5411 0.41737 0.0
C160 C 0.16148 0.53632 0.43879 0.0
C161 C 0.16485 0.56638 0.45328 0.0
N162 N 0.15724 0.50078 0.44551 0.0
C163 C 0.14052 0.48714 0.46401 0.0
H164 H 0.54926 0.08243 0.74623 0.0
H165 H 0.46419 0.96078 0.7265 0.0
H166 H 0.48944 1.00203 0.79195 0.0
C167 C 0.52918 1.0528 0.75014 0.0
C168 C 0.52248 1.04591 0.77118 0.0
C169 C 0.50895 1.02235 0.73389 0.0
C170 C 0.4803 0.98466 0.73881 0.0
C171 C 0.47322 0.97711 0.75969 0.0
C172 C 0.49473 1.00773 0.77582 0.0
N173 N 0.44442 0.93854 0.7641 0.0
C174 C 0.44539 0.92462 0.78337 0.0
H175 H 0.6407 0.51783 0.07362 0.0
H176 H 0.54582 0.40579 0.04503 0.0
H177 H 0.57768 0.42193 0.11131 0.0
C178 C 0.61739 0.48778 0.075 0.0
C179 C 0.61225 0.47273 0.09461 0.0
C180 C 0.59379 0.46389 0.05699 0.0
C181 C 0.56485 0.42436 0.0587 0.0
C182 C 0.55853 0.40948 0.07831 0.0
C183 C 0.58249 0.43362 0.09618 0.0
N184 N 0.52579 0.37153 0.08027 0.0
C185 C 0.49928 0.368 0.09471 0.0
C186 C 0.32012 0.50472 0.17571 0.0
C187 C 0.33437 0.54311 0.16976 0.0
C188 C 0.34259 0.48642 0.17363 0.0
C189 C 0.40972 0.48673 0.13743 0.0
H190 H 0.41707 0.41141 0.17098 0.0
C191 C 0.44024 0.37217 0.09985 0.0
C192 C 0.47499 0.37473 0.10843 0.0
C193 C 0.42229 0.38933 0.11114 0.0
C194 C 0.41519 0.43243 0.16154 0.0
H195 H 0.38514 0.59403 0.15937 0.0
H196 H 0.42426 0.56187 0.15556 0.0
H197 H 0.3925 0.45337 0.18584 0.0
H198 H 0.51744 0.39477 0.13563 0.0
H199 H 0.4855 0.42444 0.15569 0.0
H200 H 0.43126 0.4654 0.113 0.0
C201 C 0.39546 0.5458 0.16151 0.0
C202 C 0.40126 0.45638 0.17 0.0
C203 C 0.37306 0.56415 0.16365 0.0
C204 C 0.49014 0.39199 0.12896 0.0
C205 C 0.47201 0.40899 0.14036 0.0
C206 C 0.42297 0.46255 0.12894 0.0
C207 C 0.37961 0.50614 0.16551 0.0
C208 C 0.39825 0.4836 0.15793 0.0
C209 C 0.43899 0.4093 0.13112 0.0
C210 C 0.42535 0.43486 0.14078 0.0
H211 H 0.29033 0.48755 0.18033 0.0
H212 H 0.32957 0.45577 0.17672 0.0
H213 H 0.40711 0.50693 0.12762 0.0
H214 H 0.42856 0.35943 0.08389 0.0
H215 H 0.39667 0.38901 0.10377 0.0
C216 C 0.89718 0.30653 0.55817 0.0
C217 C 0.86621 0.31464 0.55879 0.0
C218 C 0.93647 0.33714 0.5609 0.0
C219 C 0.98629 0.43824 0.54713 0.0
H220 H 1.07367 0.41839 0.54901 0.0
C221 C 1.07787 0.46388 0.47922 0.0
C222 C 0.11818 0.47657 0.48198 0.0
C223 C 1.05571 0.4561 0.49643 0.0
C224 C 1.05011 0.4252 0.54881 0.0
H225 H 0.85196 0.36026 0.56614 0.0
H226 H 0.92085 0.41393 0.57156 0.0
H227 H 1.01945 0.38364 0.57081 0.0
H228 H 0.16784 0.49204 0.50445 0.0
H229 H 0.12857 0.47759 0.53499 0.0
H230 H 1.01647 0.47901 0.52478 0.0
C231 C 0.91481 0.38404 0.56809 0.0
C232 C 1.01876 0.40497 0.56115 0.0
C233 C 0.87532 0.35333 0.56505 0.0
C234 C 0.13645 0.48166 0.50214 0.0
C235 C 0.11413 0.47365 0.5195 0.0
C236 C 1.01784 0.45886 0.53512 0.0
C237 C 0.94575 0.37665 0.56442 0.0
C238 C 0.9849 0.40875 0.55905 0.0
C239 C 1.07354 0.46108 0.51679 0.0
C240 C 1.04839 0.45012 0.53456 0.0
H241 H 0.89129 0.27707 0.55335 0.0
H242 H 0.95906 0.32983 0.55789 0.0
H243 H 0.96124 0.4426 0.54512 0.0
H244 H 1.06349 0.46018 0.46373 0.0
H245 H 1.02432 0.44546 0.4937 0.0
C246 C 0.61724 0.82034 0.88822 0.0
C247 C 0.64763 0.8355 0.87464 0.0
C248 C 0.59214 0.8358 0.88998 0.0
C249 C 0.57377 0.91443 0.87199 0.0
H250 H 0.46833 0.82605 0.85511 0.0
C251 C 0.46526 0.93732 0.82128 0.0
C252 C 0.45252 0.91184 0.80278 0.0
C253 C 0.48053 0.92854 0.83897 0.0
C254 C 0.49742 0.85114 0.8601 0.0
H255 H 0.67789 0.88151 0.85402 0.0
H256 H 0.63482 0.90842 0.85721 0.0
H257 H 0.51774 0.81438 0.87209 0.0
H258 H 0.44292 0.85643 0.78823 0.0
H259 H 0.46956 0.8409 0.8189 0.0
H260 H 0.55459 0.95064 0.85808 0.0
C261 C 0.63019 0.88472 0.8666 0.0
C262 C 0.5257 0.84454 0.87007 0.0
C263 C 0.65505 0.86916 0.86473 0.0
C264 C 0.4524 0.87625 0.80249 0.0
C265 C 0.46746 0.86735 0.82013 0.0
C266 C 0.54553 0.921 0.86192 0.0
C267 C 0.59719 0.86689 0.87833 0.0
C268 C 0.56489 0.8758 0.87489 0.0
C269 C 0.48317 0.89414 0.8383 0.0
C270 C 0.50784 0.88904 0.85468 0.0
H271 H 0.61136 0.79501 0.8965 0.0
H272 H 0.56736 0.82188 0.89943 0.0
H273 H 0.60352 0.93921 0.87591 0.0
H274 H 0.46539 0.96495 0.82176 0.0
H275 H 0.49206 0.94956 0.85278 0.0
C276 C 0.91633 0.62394 0.18158 0.0
C277 C 0.94286 0.66442 0.18055 0.0
C278 C 0.87576 0.60952 0.18157 0.0
C279 C 0.80525 0.6322 0.15819 0.0
H280 H 0.72977 0.53679 0.18157 0.0
C281 C 0.65019 0.5372 0.11704 0.0
C282 C 0.63949 0.49741 0.11311 0.0
C283 C 0.6805 0.56198 0.13246 0.0
C284 C 0.75041 0.56357 0.17497 0.0
H285 H 0.9479 0.72195 0.18086 0.0
H286 H 0.87673 0.69651 0.18042 0.0
H287 H 0.7983 0.57423 0.19704 0.0
H288 H 0.65024 0.45171 0.12305 0.0
H289 H 0.70362 0.49487 0.14952 0.0
H290 H 0.75865 0.6203 0.13519 0.0
C291 C 0.88746 0.676 0.18104 0.0
C292 C 0.78957 0.58505 0.18389 0.0
C293 C 0.92815 0.6905 0.18118 0.0
C294 C 0.65775 0.48222 0.12581 0.0
C295 C 0.68827 0.50703 0.1411 0.0
C296 C 0.76625 0.61065 0.14921 0.0
C297 C 0.86075 0.63519 0.18041 0.0
C298 C 0.81778 0.61857 0.17497 0.0
C299 C 0.70098 0.54753 0.1441 0.0
C300 C 0.73883 0.57506 0.15687 0.0
H301 H 0.92644 0.60289 0.18088 0.0
H302 H 0.85598 0.57786 0.18081 0.0
H303 H 0.82629 0.65767 0.1508 0.0
H304 H 0.636 0.54946 0.10769 0.0
H305 H 0.689 0.59284 0.13466 0.0
C306 C 0.36579 0.93257 0.51263 0.0
C307 C 0.3584 0.95084 0.49624 0.0
C308 C 0.33702 0.89485 0.5169 0.0
C309 C 0.23301 0.813 0.50224 0.0
H310 H 0.28321 0.74972 0.49974 0.0
C311 C 0.16258 0.66046 0.45731 0.0
C312 C 0.17661 0.63488 0.46189 0.0
C313 C 0.17658 0.69617 0.46958 0.0
C314 C 0.26832 0.76652 0.50109 0.0
H315 H 0.31352 0.94556 0.47304 0.0
H316 H 0.26394 0.87909 0.47988 0.0
H317 H 0.32349 0.82023 0.50735 0.0
H318 H 0.21307 0.62503 0.48448 0.0
H319 H 0.23554 0.68598 0.50643 0.0
H320 H 0.17779 0.75891 0.49489 0.0
C321 C 0.29178 0.89401 0.48959 0.0
C322 C 0.29163 0.80729 0.50546 0.0
C323 C 0.32047 0.93188 0.48541 0.0
C324 C 0.20161 0.6439 0.48033 0.0
C325 C 0.21497 0.67923 0.49284 0.0
C326 C 0.20952 0.77196 0.49797 0.0
C327 C 0.3004 0.87442 0.50475 0.0
C328 C 0.27447 0.83117 0.5052 0.0
C329 C 0.20441 0.7068 0.48695 0.0
C330 C 0.22713 0.74844 0.49643 0.0
H331 H 0.39466 0.94623 0.5213 0.0
H332 H 0.3443 0.88074 0.52891 0.0
H333 H 0.2189 0.83063 0.50227 0.0
H334 H 0.14227 0.65387 0.44362 0.0
H335 H 0.16767 0.71653 0.4645 0.0
C336 C 0.64005 0.36883 0.81298 0.0
C337 C 0.61954 0.38257 0.8249 0.0
C338 C 0.63868 0.33367 0.81691 0.0
C339 C 0.63661 0.26014 0.83168 0.0
H340 H 0.52574 0.17868 0.82501 0.0
C341 C 0.52194 0.08242 0.80461 0.0
C342 C 0.54251 0.07946 0.7879 0.0
C343 C 0.53794 0.11733 0.8179 0.0
C344 C 0.55695 0.20059 0.82759 0.0
H345 H 0.5836 0.3718 0.85107 0.0
H346 H 0.58068 0.30987 0.85771 0.0
H347 H 0.54385 0.24669 0.83304 0.0
H348 H 0.59836 0.10916 0.77388 0.0
H349 H 0.62472 0.17065 0.79576 0.0
H350 H 0.64973 0.21405 0.82571 0.0
C351 C 0.59799 0.32647 0.84546 0.0
C352 C 0.5673 0.23984 0.83213 0.0
C353 C 0.59974 0.36188 0.84168 0.0
C354 C 0.58099 0.11088 0.78608 0.0
C355 C 0.59654 0.14609 0.79901 0.0
C356 C 0.6263 0.22066 0.82751 0.0
C357 C 0.6164 0.31143 0.83267 0.0
C358 C 0.60706 0.27012 0.83324 0.0
C359 C 0.57439 0.15045 0.81447 0.0
C360 C 0.58619 0.19055 0.82432 0.0
H361 H 0.65588 0.3845 0.80011 0.0
H362 H 0.65282 0.32256 0.80668 0.0
H363 H 0.66755 0.28301 0.83272 0.0
H364 H 0.49236 0.05884 0.80669 0.0
H365 H 0.52057 0.11904 0.8301 0.0
C366 C 0.64178 1.02772 0.49182 0.0
C367 C 0.60728 1.02827 0.48512 0.0
C368 C 0.64123 0.99207 0.49364 0.0
C369 C 0.57382 0.88421 0.49845 0.0
H370 H 0.66605 0.87799 0.48522 0.0
C371 C 0.57712 0.73677 0.49778 0.0
C372 C 0.61302 0.7389 0.50407 0.0
C373 C 0.57532 0.77133 0.49582 0.0
C374 C 0.64017 0.87915 0.48931 0.0
H375 H 0.54485 0.99057 0.47507 0.0
H376 H 0.54391 0.92821 0.47807 0.0
H377 H 0.66445 0.93801 0.48039 0.0
H378 H 0.67518 0.77894 0.51339 0.0
H379 H 0.67221 0.83921 0.51041 0.0
H380 H 0.54957 0.82518 0.50736 0.0
C381 C 0.57151 0.95571 0.48211 0.0
C382 C 0.63921 0.91385 0.48648 0.0
C383 C 0.57209 0.9916 0.48021 0.0
C384 C 0.64702 0.77636 0.50865 0.0
C385 C 0.64529 0.81095 0.50669 0.0
C386 C 0.57478 0.84941 0.50129 0.0
C387 C 0.60616 0.95532 0.48887 0.0
C388 C 0.60616 0.91723 0.49113 0.0
C389 C 0.6095 0.80914 0.49999 0.0
C390 C 0.60811 0.8463 0.49689 0.0
H391 H 0.66956 1.05504 0.49588 0.0
H392 H 0.66844 0.9935 0.49925 0.0
H393 H 0.54797 0.8855 0.50249 0.0
H394 H 0.55052 0.70827 0.49388 0.0
H395 H 0.54727 0.76828 0.4904 0.0
C396 C 0.76334 0.59403 0.81539 0.0
C397 C 0.76261 0.62944 0.81537 0.0
C398 C 0.79946 0.59448 0.81777 0.0
C399 C 0.90779 0.66349 0.83529 0.0
H400 H 0.91765 0.5751 0.81363 0.0
C401 C 1.04387 0.65104 0.86175 0.0
C402 C 1.05721 0.63108 0.84852 0.0
C403 C 1.00908 0.65145 0.85623 0.0
C404 C 0.91584 0.60041 0.8196 0.0
H405 H 0.7998 0.69307 0.81695 0.0
H406 H 0.86224 0.69394 0.82 0.0
H407 H 0.856 0.57464 0.80607 0.0
H408 H 1.04423 0.59707 0.81843 0.0
H409 H 0.98441 0.59923 0.80832 0.0
H410 H 0.96798 0.69013 0.84799 0.0
C411 C 0.83512 0.66564 0.81909 0.0
C412 C 0.87991 0.59985 0.81553 0.0
C413 C 0.79906 0.66519 0.81711 0.0
C414 C 1.03517 0.61284 0.82908 0.0
C415 C 1.00035 0.6136 0.82341 0.0
C416 C 0.94376 0.6643 0.83908 0.0
C417 C 0.83613 0.63036 0.81987 0.0
C418 C 0.87503 0.63124 0.82347 0.0
C419 C 0.98642 0.63261 0.83701 0.0
C420 C 0.9484 0.63255 0.8316 0.0
H421 H 0.73591 0.5659 0.81427 0.0
H422 H 0.79839 0.56657 0.81856 0.0
H423 H 0.9057 0.68813 0.84208 0.0
H424 H 1.06019 0.66629 0.87665 0.0
H425 H 0.99963 0.66596 0.86744 0.0
C426 C 0.26767 0.7801 0.1641 0.0
C427 C 0.26411 0.74454 0.1555 0.0
C428 C 0.30427 0.81559 0.1662 0.0
C429 C 0.41365 0.85547 0.16742 0.0
H430 H 0.41711 0.95486 0.16259 0.0
C431 C 0.5544 1.00586 0.19557 0.0
C432 C 0.56311 1.03979 0.18544 0.0
C433 C 0.51913 0.96987 0.19012 0.0
C434 C 0.41698 0.92746 0.16377 0.0
H435 H 0.29704 0.71916 0.14217 0.0
H436 H 0.3606 0.78099 0.14546 0.0
H437 H 0.35417 0.89306 0.15613 0.0
H438 H 0.54124 0.06137 0.16095 0.0
H439 H 0.48009 0.99833 0.15103 0.0
H440 H 0.47656 0.88979 0.17459 0.0
C441 C 0.33512 0.78137 0.15096 0.0
C442 C 0.38053 0.89178 0.16035 0.0
C443 C 0.29844 0.74575 0.14894 0.0
C444 C 0.53581 1.03603 0.1691 0.0
C445 C 0.50037 0.99984 0.16359 0.0
C446 C 0.4501 0.89113 0.17076 0.0
C447 C 0.33873 0.81696 0.15969 0.0
C448 C 0.3781 0.85511 0.16235 0.0
C449 C 0.49119 0.96621 0.17419 0.0
C450 C 0.45241 0.92785 0.16925 0.0
H451 H 0.24215 0.7806 0.16947 0.0
H452 H 0.30556 0.84187 0.17335 0.0
H453 H 0.41337 0.82818 0.16932 0.0
H454 H 0.5748 1.00715 0.20801 0.0
H455 H 0.51338 0.94515 0.1989 0.0
C456 C 0.58647 0.25311 0.49552 0.0
C457 C 0.62 0.25074 0.4908 0.0
C458 C 0.5878 0.28958 0.4974 0.0
C459 C 0.65921 0.39949 0.50444 0.0
H460 H 0.5646 0.40423 0.4903 0.0
C461 C 0.6511 0.53987 0.52799 0.0
C462 C 0.62677 0.54942 0.51578 0.0
C463 C 0.65124 0.50463 0.52342 0.0
C464 C 0.59156 0.40379 0.49411 0.0
H465 H 0.68126 0.28573 0.48409 0.0
H466 H 0.68337 0.34882 0.48679 0.0
H467 H 0.56286 0.34158 0.48501 0.0
H468 H 0.5845 0.52907 0.48844 0.0
H469 H 0.58556 0.46804 0.48002 0.0
H470 H 0.68827 0.46183 0.51291 0.0
C471 C 0.65609 0.32261 0.48958 0.0
C472 C 0.5904 0.36741 0.49138 0.0
C473 C 0.65485 0.28614 0.48788 0.0
C474 C 0.6037 0.523 0.49823 0.0
C475 C 0.60394 0.48757 0.49358 0.0
C476 C 0.66044 0.43586 0.50703 0.0
C477 C 0.62261 0.32512 0.49444 0.0
C478 C 0.62411 0.36443 0.49668 0.0
C479 C 0.62738 0.47748 0.50627 0.0
C480 C 0.62653 0.43872 0.50217 0.0
H481 H 0.55908 0.2267 0.498 0.0
H482 H 0.56148 0.28983 0.50154 0.0
H483 H 0.68584 0.39893 0.50898 0.0
H484 H 0.66991 0.55955 0.54142 0.0
H485 H 0.66943 0.4983 0.53384 0.0
C486 C 0.51054 0.59172 0.82443 0.0
C487 C 0.5462 0.62714 0.82265 0.0
C488 C 0.47511 0.5917 0.82713 0.0
C489 C 0.43596 0.65809 0.84325 0.0
H490 H 0.33682 0.57254 0.81592 0.0
C491 C 0.29018 0.66432 0.84011 0.0
C492 C 0.254 0.62909 0.84073 0.0
C493 C 0.32572 0.66391 0.83895 0.0
C494 C 0.36405 0.59647 0.82396 0.0
H495 H 0.57194 0.69049 0.8225 0.0
H496 H 0.51052 0.6904 0.82697 0.0
H497 H 0.39804 0.57215 0.81172 0.0
H498 H 0.22654 0.56578 0.84077 0.0
H499 H 0.2884 0.56483 0.83915 0.0
H500 H 0.40199 0.68247 0.85544 0.0
C501 C 0.50986 0.66252 0.82651 0.0
C502 C 0.39942 0.59625 0.82151 0.0
C503 C 0.54525 0.66254 0.82376 0.0
C504 C 0.25408 0.59343 0.84046 0.0
C505 C 0.2896 0.59294 0.8393 0.0
C506 C 0.40059 0.65829 0.8457 0.0
C507 C 0.4741 0.6271 0.82823 0.0
C508 C 0.43607 0.62711 0.83106 0.0
C509 C 0.32606 0.62815 0.83829 0.0
C510 C 0.36396 0.62753 0.83606 0.0
H511 H 0.5099 0.56384 0.82376 0.0
H512 H 0.44855 0.56382 0.82867 0.0
H513 H 0.46324 0.6821 0.85121 0.0
H514 H 0.2909 0.6922 0.84 0.0
H515 H 0.35278 0.69163 0.83792 0.0
C516 C 1.00634 0.53239 0.15349 0.0
C517 C 1.04289 0.5336 0.15548 0.0
C518 C 0.97063 0.49756 0.15612 0.0
C519 C 0.92671 0.38798 0.15674 0.0
H520 H 0.84361 0.3932 0.18446 0.0
C521 C 0.78886 0.24582 0.179 0.0
C522 C 0.75194 0.24343 0.17658 0.0
C523 C 0.82406 0.28157 0.17719 0.0
C524 C 0.86625 0.39105 0.17648 0.0
H525 H 1.06985 0.49837 0.16193 0.0
H526 H 1.00834 0.43846 0.16663 0.0
H527 H 0.9044 0.45408 0.1793 0.0
H528 H 0.72276 0.27648 0.17041 0.0
H529 H 0.78387 0.33883 0.1672 0.0
H530 H 0.88868 0.32508 0.15385 0.0
C531 C 1.00693 0.46415 0.16272 0.0
C532 C 0.90131 0.42618 0.17348 0.0
C533 C 1.0425 0.49885 0.16013 0.0
C534 C 0.7509 0.27764 0.17264 0.0
C535 C 0.78607 0.31344 0.17083 0.0
C536 C 0.89173 0.35293 0.15974 0.0
C537 C 0.9703 0.46278 0.16076 0.0
C538 C 0.93226 0.42528 0.16362 0.0
C539 C 0.82329 0.31595 0.1728 0.0
C540 C 0.86088 0.35375 0.16973 0.0
H541 H 1.00524 0.55842 0.14997 0.0
H542 H 0.94319 0.49784 0.15425 0.0
H543 H 0.94926 0.38575 0.1487 0.0
H544 H 0.7905 0.2198 0.18189 0.0
H545 H 0.85194 0.28217 0.17916 0.0
C546 C 0.14678 0.60047 0.07585 0.0
C547 C 0.14567 0.63163 0.08711 0.0
C548 C 0.14745 0.59883 0.05408 0.0
C549 C 0.12584 0.58938 0.00735 0.0
H550 H 0.18417 0.6853 0.9801 0.0
C551 C 0.10476 0.59314 0.91818 0.0
C552 C 0.1373 0.61894 0.90765 0.0
C553 C 0.10807 0.59344 0.93995 0.0
C554 C 0.16813 0.65814 0.98745 0.0
H555 H 0.1442 0.68549 0.08414 0.0
H556 H 0.14448 0.6822 0.04605 0.0
H557 H 0.18556 0.68897 0.0182 0.0
H558 H 0.1994 0.66421 0.91176 0.0
H559 H 0.20556 0.66411 0.94987 0.0
H560 H 0.10903 0.55845 0.97669 0.0
C561 C 0.14559 0.65935 0.05414 0.0
C562 C 0.16843 0.66032 0.00932 0.0
C563 C 0.14512 0.6611 0.07599 0.0
C564 C 0.17381 0.64386 0.91938 0.0
C565 C 0.17717 0.64416 0.94125 0.0
C566 C 0.12566 0.5872 0.98552 0.0
C567 C 0.14679 0.62818 0.04288 0.0
C568 C 0.14706 0.62598 0.01958 0.0
C569 C 0.14412 0.61942 0.95186 0.0
C570 C 0.1465 0.62156 0.97523 0.0
H571 H 0.14758 0.57739 0.08387 0.0
H572 H 0.14906 0.57474 0.04606 0.0
H573 H 0.10868 0.56231 0.0146 0.0
H574 H 1.07632 0.57322 0.90958 0.0
H575 H 1.08187 0.57419 0.94749 0.0
C576 C 0.67366 0.15291 0.41622 0.0
C577 C 0.63813 0.14858 0.42287 0.0
C578 C 0.68069 0.15534 0.39498 0.0
C579 C 0.6456 0.17444 0.3443 0.0
H580 H 0.69354 0.11811 0.3196 0.0
C581 C 0.65066 0.10404 0.25792 0.0
C582 C 0.65458 0.13394 0.24556 0.0
C583 C 0.65539 0.11043 0.27977 0.0
C584 C 0.68001 0.13395 0.32621 0.0
H585 H 0.5821 0.14325 0.41225 0.0
H586 H 0.59397 0.14671 0.3755 0.0
H587 H 0.68731 0.11971 0.35717 0.0
H588 H 0.66853 0.19477 0.24657 0.0
H589 H 0.67774 0.20634 0.28482 0.0
H590 H 0.63654 0.18708 0.31325 0.0
C591 C 0.61688 0.14911 0.38663 0.0
C592 C 0.67687 0.13527 0.34785 0.0
C593 C 0.60992 0.14681 0.40779 0.0
C594 C 0.66535 0.17113 0.25562 0.0
C595 C 0.67017 0.17758 0.27756 0.0
C596 C 0.6486 0.17299 0.32267 0.0
C597 C 0.65234 0.15345 0.37989 0.0
C598 C 0.65893 0.15491 0.35714 0.0
C599 C 0.66442 0.14702 0.28994 0.0
C600 C 0.6652 0.15212 0.31325 0.0
H601 H 0.69611 0.15451 0.42739 0.0
H602 H 0.70851 0.15904 0.39042 0.0
H603 H 0.63228 0.19049 0.35091 0.0
H604 H 0.64297 0.07521 0.25068 0.0
H605 H 0.65035 0.08603 0.28867 0.0
C606 C 0.67998 0.67831 0.74445 0.0
C607 C 0.65062 0.64497 0.75308 0.0
C608 C 0.67843 0.6809 0.72271 0.0
C609 C 0.63702 0.61657 0.67313 0.0
H610 H 0.65259 0.70981 0.64777 0.0
C611 C 0.59627 0.60682 0.58565 0.0
C612 C 0.62298 0.63685 0.57416 0.0
C613 C 0.60014 0.61157 0.6075 0.0
C614 C 0.64857 0.68369 0.65462 0.0
H615 H 0.59609 0.5887 0.74548 0.0
H616 H 0.59357 0.59328 0.70807 0.0
H617 H 0.66016 0.71147 0.68605 0.0
H618 H 0.67354 0.69622 0.57649 0.0
H619 H 0.68068 0.70458 0.61496 0.0
H620 H 0.62565 0.58866 0.64202 0.0
C621 C 0.61805 0.61724 0.71795 0.0
C622 C 0.65295 0.68467 0.67653 0.0
C623 C 0.61945 0.61475 0.73952 0.0
C624 C 0.65243 0.67269 0.585 0.0
C625 C 0.65651 0.67741 0.607 0.0
C626 C 0.63279 0.61562 0.65137 0.0
C627 C 0.6477 0.65003 0.70921 0.0
C628 C 0.64647 0.65082 0.68602 0.0
C629 C 0.63109 0.64637 0.61851 0.0
C630 C 0.63772 0.64885 0.64178 0.0
H631 H 0.70434 0.70217 0.75444 0.0
H632 H 0.70177 0.70652 0.71643 0.0
H633 H 0.63274 0.59027 0.67989 0.0
H634 H 0.573 0.57906 0.57768 0.0
H635 H 0.5793 0.58748 0.6158 0.0
C636 C 0.61779 0.14051 0.56289 0.0
C637 C 0.58789 0.12148 0.54628 0.0
C638 C 0.60962 0.13056 0.58336 0.0
C639 C 0.52814 0.08505 0.61732 0.0
H640 H 0.59902 0.06233 0.64978 0.0
C641 C 0.48751 1.01555 0.69554 0.0
C642 C 0.51793 1.03066 0.71191 0.0
C643 C 0.49617 1.02581 0.67517 0.0
C644 C 0.57915 0.06902 0.64104 0.0
H645 H 0.52579 0.07786 0.53821 0.0
H646 H 0.51161 0.06096 0.57382 0.0
H647 H 0.61468 0.08474 0.61504 0.0
H648 H 0.58148 0.06694 0.71951 0.0
H649 H 0.59636 0.08578 0.68429 0.0
H650 H 0.49282 0.06988 0.64332 0.0
C651 C 0.54129 0.08351 0.57106 0.0
C652 C 0.58818 0.08188 0.62115 0.0
C653 C 0.54952 0.09311 0.55063 0.0
C654 C 0.55725 1.0553 0.70733 0.0
C655 C 0.56586 0.06571 0.68704 0.0
C656 C 0.51926 0.07249 0.63726 0.0
C657 C 0.57132 0.10178 0.5876 0.0
C658 C 0.56268 0.08986 0.60906 0.0
C659 C 0.53541 1.05146 0.67073 0.0
C660 C 0.54458 0.06418 0.64936 0.0
H661 H 0.64767 0.1624 0.56002 0.0
H662 H 0.63324 0.14532 0.59587 0.0
H663 H 0.50816 0.09138 0.60841 0.0
H664 H 0.45691 0.99664 0.69855 0.0
H665 H 0.47205 1.01376 0.6629 0.0
C666 C 0.65497 0.57041 0.88177 0.0
C667 C 0.65342 0.60412 0.87716 0.0
C668 C 0.65065 0.55859 0.90195 0.0
C669 C 0.61019 0.56752 0.95125 0.0
H670 H 0.66922 0.52002 0.97244 0.0
C671 C 0.60313 0.51794 0.03502 0.0
C672 C 0.59939 0.48072 0.03654 0.0
C673 C 0.61014 0.53476 0.016 0.0
C674 C 0.65233 0.53296 0.96666 0.0
H675 H 0.64699 0.65242 0.89033 0.0
H676 H 0.6401 0.63205 0.92593 0.0
H677 H 0.68324 0.54867 0.9391 0.0
H678 H 0.59961 0.43176 0.01937 0.0
H679 H 0.612 0.46123 0.98605 0.0
H680 H 0.57952 0.5519 0.97903 0.0
C681 C 0.64405 0.61445 0.91372 0.0
C682 C 0.66033 0.54939 0.94756 0.0
C683 C 0.64826 0.62628 0.89338 0.0
C684 C 0.60222 0.46039 0.0186 0.0
C685 C 0.60964 0.4774 -0.00038 0.0
C686 C 0.60242 0.55135 0.97048 0.0
C687 C 0.64497 0.58029 0.91819 0.0
C688 C 0.6389 0.56626 0.93943 0.0
C689 C 0.61393 0.51486 -0.00183 0.0
C690 C 0.62301 0.53337 0.9782 0.0
H691 H 0.65895 0.55259 0.86971 0.0
H692 H 0.6508 0.53177 0.90468 0.0
H693 H 0.59281 0.57984 0.94534 0.0
H694 H 0.6007 0.53408 0.04858 0.0
H695 H 0.61347 0.56371 0.01535 0.0
C696 C 0.13425 0.64077 0.2276 0.0
C697 C 0.16163 0.63805 0.21528 0.0
C698 C 0.13417 0.6345 0.24881 0.0
C699 C 0.16221 0.58359 0.28588 0.0
H700 H 0.15555 0.65346 0.32855 0.0
C701 C 0.18421 0.57212 0.3742 0.0
C702 C 0.161 0.57961 0.38761 0.0
C703 C 0.18342 0.57861 0.35306 0.0
C704 C 0.15683 0.6333 0.31681 0.0
H705 H 0.21083 0.62729 0.21567 0.0
H706 H 0.21051 0.61631 0.25258 0.0
H707 H 0.15586 0.66686 0.29193 0.0
H708 H 0.11763 0.59819 0.38934 0.0
H709 H 0.11553 0.60868 0.3524 0.0
H710 H 0.16264 0.54966 0.31059 0.0
C711 C 0.189 0.62304 0.2458 0.0
C712 C 0.15712 0.6411 0.29585 0.0
C713 C 0.18933 0.62963 0.22469 0.0
C714 C 0.13628 0.59275 0.37939 0.0
C715 C 0.13522 0.59892 0.35826 0.0
C716 C 0.16159 0.57559 0.3068 0.0
C717 C 0.1612 0.62502 0.25802 0.0
C718 C 0.16007 0.61645 0.28021 0.0
C719 C 0.15912 0.59238 0.34487 0.0
C720 C 0.15908 0.60045 0.32254 0.0
H721 H 0.11253 0.6472 0.22081 0.0
H722 H 0.1123 0.63603 0.25788 0.0
H723 H 0.1639 0.56375 0.27408 0.0
H724 H 0.20379 0.56232 0.3802 0.0
H725 H 0.20259 0.57376 0.34327 0.0
loop_
_geom_bond_atom_site_label_1
_geom_bond_atom_site_label_2
_geom_bond_distance
_geom_bond_site_symmetry_2
_ccdc_geom_bond_type
Tb0 C9 2.764 1_455 S
Tb0 O10 2.325 1_455 S
Tb0 O13 2.303 . S
Tb0 O17 2.322 . S
Tb0 O18 2.349 . S
Tb0 O21 2.415 1_455 S
Tb0 O22 2.399 1_455 S
Tb1 O11 2.322 . S
Tb1 O12 2.349 . S
Tb1 O14 2.415 . S
Tb1 O15 2.399 . S
Tb1 O16 2.325 . S
Tb1 O19 2.303 . S
Tb1 C30 2.764 . S
C2 O18 1.261 . S
C2 O19 1.257 . S
C3 C6 1.358 . S
C3 C7 1.332 . S
C3 C9 1.504 . S
C4 C5 1.373 . S
C4 C8 1.308 . S
C5 C4 1.373 . S
C5 C6 1.429 . S
C5 H32 0.932 . S
C6 C3 1.358 . S
C6 C5 1.429 . S
C6 H33 0.930 . S
C7 C3 1.332 . S
C7 C8 1.394 . S
C7 H34 0.932 . S
C8 C4 1.308 . S
C8 C7 1.394 . S
C8 H35 0.929 . S
C9 Tb0 2.764 1_655 S
C9 C3 1.504 . S
C9 O21 1.239 . S
C9 O22 1.263 . S
O10 Tb0 2.325 1_655 S
O10 C20 1.236 . S
O11 Tb1 2.322 . S
O11 C20 1.257 1_455 S
O12 Tb1 2.349 . S
O12 C23 1.261 . S
O13 Tb0 2.303 . S
O13 C23 1.257 . S
O14 Tb1 2.415 . S
O14 C30 1.239 . S
O15 Tb1 2.399 . S
O15 C30 1.263 . S
O16 Tb1 2.325 . S
O16 C31 1.236 . S
O17 Tb0 2.322 . S
O17 C31 1.257 . S
O18 Tb0 2.349 . S
O18 C2 1.261 . S
O19 Tb1 2.303 . S
O19 C2 1.257 . S
C20 O10 1.236 . S
C20 O11 1.257 1_655 S
O21 Tb0 2.415 1_655 S
O21 C9 1.239 . S
O22 Tb0 2.399 1_655 S
O22 C9 1.263 . S
C23 O12 1.261 . S
C23 O13 1.257 . S
C24 C27 1.358 . S
C24 C28 1.332 . S
C24 C30 1.504 . S
C25 C26 1.373 . S
C25 C29 1.308 . S
C26 C25 1.373 . S
C26 C27 1.429 . S
C26 H36 0.932 . S
C27 C24 1.358 . S
C27 C26 1.429 . S
C27 H37 0.930 . S
C28 C24 1.332 . S
C28 C29 1.394 . S
C28 H38 0.932 . S
C29 C25 1.308 . S
C29 C28 1.394 . S
C29 H39 0.929 . S
C30 Tb1 2.764 . S
C30 O14 1.239 . S
C30 O15 1.263 . S
C30 C24 1.504 . S
C31 O16 1.236 . S
C31 O17 1.257 . S
H32 C5 0.932 . S
H33 C6 0.930 . S
H34 C7 0.932 . S
H35 C8 0.929 . S
H36 C26 0.932 . S
H37 C27 0.930 . S
H38 C28 0.932 . S
H39 C29 0.929 . S
Tb40 C49 2.764 1_545 S
Tb40 O50 2.325 1_545 S
Tb40 O53 2.303 . S
Tb40 O57 2.322 . S
Tb40 O58 2.349 . S
Tb40 O61 2.415 1_545 S
Tb40 O62 2.399 1_545 S
Tb41 O51 2.322 . S
Tb41 O52 2.349 . S
Tb41 O54 2.415 . S
Tb41 O55 2.399 . S
Tb41 O56 2.325 . S
Tb41 O59 2.303 . S
Tb41 C70 2.764 . S
C42 O58 1.261 . S
C42 O59 1.257 . S
C43 C46 1.358 . S
C43 C47 1.332 . S
C43 C49 1.504 . S
C44 C45 1.373 . S
C44 C48 1.308 . S
C45 C44 1.373 . S
C45 C46 1.429 . S
C45 H72 0.932 . S
C46 C43 1.358 . S
C46 C45 1.429 . S
C46 H73 0.930 . S
C47 C43 1.332 . S
C47 C48 1.394 . S
C47 H74 0.932 . S
C48 C44 1.308 . S
C48 C47 1.394 . S
C48 H75 0.929 . S
C49 Tb40 2.764 1_565 S
C49 C43 1.504 . S
C49 O61 1.239 . S
C49 O62 1.263 . S
O50 Tb40 2.325 1_565 S
O50 C60 1.236 . S
O51 Tb41 2.322 . S
O51 C60 1.257 1_545 S
O52 Tb41 2.349 . S
O52 C63 1.261 . S
O53 Tb40 2.303 . S
O53 C63 1.257 . S
O54 Tb41 2.415 . S
O54 C70 1.239 . S
O55 Tb41 2.399 . S
O55 C70 1.263 . S
O56 Tb41 2.325 . S
O56 C71 1.236 . S
O57 Tb40 2.322 . S
O57 C71 1.257 . S
O58 Tb40 2.349 . S
O58 C42 1.261 . S
O59 Tb41 2.303 . S
O59 C42 1.257 . S
C60 O50 1.236 . S
C60 O51 1.257 1_565 S
O61 Tb40 2.415 1_565 S
O61 C49 1.239 . S
O62 Tb40 2.399 1_565 S
O62 C49 1.263 . S
C63 O52 1.261 . S
C63 O53 1.257 . S
C64 C67 1.358 . S
C64 C68 1.332 . S
C64 C70 1.504 . S
C65 C66 1.373 . S
C65 C69 1.308 . S
C66 C65 1.373 . S
C66 C67 1.429 . S
C66 H76 0.932 . S
C67 C64 1.358 . S
C67 C66 1.429 . S
C67 H77 0.930 . S
C68 C64 1.332 . S
C68 C69 1.394 . S
C68 H78 0.932 . S
C69 C65 1.308 . S
C69 C68 1.394 . S
C69 H79 0.929 . S
C70 Tb41 2.764 . S
C70 O54 1.239 . S
C70 O55 1.263 . S
C70 C64 1.504 . S
C71 O56 1.236 . S
C71 O57 1.257 . S
H72 C45 0.932 . S
H73 C46 0.930 . S
H74 C47 0.932 . S
H75 C48 0.929 . S
H76 C66 0.932 . S
H77 C67 0.930 . S
H78 C68 0.932 . S
H79 C69 0.929 . S
Tb80 C89 2.764 . S
Tb80 O90 2.325 . S
Tb80 O93 2.303 . S
Tb80 O97 2.322 . S
Tb80 O98 2.349 . S
Tb80 O101 2.415 . S
Tb80 O102 2.399 . S
Tb81 O91 2.322 . S
Tb81 O92 2.349 . S
Tb81 O94 2.415 . S
Tb81 O95 2.399 . S
Tb81 O96 2.325 . S
Tb81 O99 2.303 . S
Tb81 C110 2.764 . S
C82 O98 1.261 . S
C82 O99 1.257 . S
C83 C86 1.358 . S
C83 C87 1.332 . S
C83 C89 1.504 . S
C84 C85 1.373 . S
C84 C88 1.308 . S
C85 C84 1.373 . S
C85 C86 1.429 . S
C85 H112 0.932 . S
C86 C83 1.358 . S
C86 C85 1.429 . S
C86 H113 0.930 . S
C87 C83 1.332 . S
C87 C88 1.394 . S
C87 H114 0.932 . S
C88 C84 1.308 . S
C88 C87 1.394 . S
C88 H115 0.929 . S
C89 Tb80 2.764 . S
C89 C83 1.504 . S
C89 O101 1.239 . S
C89 O102 1.263 . S
O90 Tb80 2.325 . S
O90 C100 1.236 . S
O91 Tb81 2.322 . S
O91 C100 1.257 . S
O92 Tb81 2.349 . S
O92 C103 1.261 . S
O93 Tb80 2.303 . S
O93 C103 1.257 . S
O94 Tb81 2.415 . S
O94 C110 1.239 . S
O95 Tb81 2.399 . S
O95 C110 1.263 . S
O96 Tb81 2.325 . S
O96 C111 1.236 . S
O97 Tb80 2.322 . S
O97 C111 1.257 . S
O98 Tb80 2.349 . S
O98 C82 1.261 . S
O99 Tb81 2.303 . S
O99 C82 1.257 . S
C100 O90 1.236 . S
C100 O91 1.257 . S
O101 Tb80 2.415 . S
O101 C89 1.239 . S
O102 Tb80 2.399 . S
O102 C89 1.263 . S
C103 O92 1.261 . S
C103 O93 1.257 . S
C104 C107 1.358 . S
C104 C108 1.332 . S
C104 C110 1.504 . S
C105 C106 1.373 . S
C105 C109 1.308 . S
C106 C105 1.373 . S
C106 C107 1.429 . S
C106 H116 0.932 . S
C107 C104 1.358 . S
C107 C106 1.429 . S
C107 H117 0.930 . S
C108 C104 1.332 . S
C108 C109 1.394 . S
C108 H118 0.932 . S
C109 C105 1.308 . S
C109 C108 1.394 . S
C109 H119 0.929 . S
C110 Tb81 2.764 . S
C110 O94 1.239 . S
C110 O95 1.263 . S
C110 C104 1.504 . S
C111 O96 1.236 . S
C111 O97 1.257 . S
H112 C85 0.932 . S
H113 C86 0.930 . S
H114 C87 0.932 . S
H115 C88 0.929 . S
H116 C106 0.932 . S
H117 C107 0.930 . S
H118 C108 0.932 . S
H119 C109 0.929 . S
H120 C123 0.929 . S
H121 C126 0.929 . S
H122 C128 0.930 . S
C123 H120 0.929 . S
C123 C124 1.398 . S
C123 C125 1.396 . S
C124 C123 1.398 . S
C124 C128 1.407 . S
C125 C123 1.396 . S
C125 C126 1.394 . S
C126 H121 0.929 . S
C126 C125 1.394 . S
C126 C127 1.382 . S
C127 C126 1.382 . S
C127 C128 1.392 . S
C127 N129 1.420 . S
C128 H122 0.930 . S
C128 C124 1.407 . S
C128 C127 1.392 . S
N129 C127 1.420 . S
N129 C130 1.244 . S
C130 N129 1.244 . S
H131 C134 0.929 . S
H132 C137 0.929 . S
H133 C139 0.930 . S
C134 H131 0.929 . S
C134 C135 1.398 . S
C134 C136 1.396 . S
C135 C134 1.398 . S
C135 C139 1.407 . S
C136 C134 1.396 . S
C136 C137 1.394 . S
C137 H132 0.929 . S
C137 C136 1.394 . S
C137 C138 1.382 . S
C138 C137 1.382 . S
C138 C139 1.392 . S
C138 N140 1.420 . S
C139 H133 0.930 . S
C139 C135 1.407 . S
C139 C138 1.392 . S
N140 C138 1.420 . S
N140 C141 1.244 . S
C141 N140 1.244 . S
H142 C145 0.929 . S
H143 C148 0.929 . S
H144 C150 0.930 . S
C145 H142 0.929 . S
C145 C146 1.398 . S
C145 C147 1.396 . S
C146 C145 1.398 . S
C146 C150 1.407 . S
C147 C145 1.396 . S
C147 C148 1.394 . S
C148 H143 0.929 . S
C148 C147 1.394 . S
C148 C149 1.382 . S
C149 C148 1.382 . S
C149 C150 1.392 . S
C149 N151 1.420 . S
C150 H144 0.930 . S
C150 C146 1.407 . S
C150 C149 1.392 . S
N151 C149 1.420 . S
N151 C152 1.244 . S
C152 N151 1.244 . S
H153 C156 0.929 . S
H154 C159 0.929 . S
H155 C161 0.930 . S
C156 H153 0.929 . S
C156 C157 1.398 . S
C156 C158 1.396 . S
C157 C156 1.398 . S
C157 C161 1.407 . S
C158 C156 1.396 . S
C158 C159 1.394 1_455 S
C159 H154 0.929 . S
C159 C158 1.394 1_655 S
C159 C160 1.382 . S
C160 C159 1.382 . S
C160 C161 1.392 1_655 S
C160 N162 1.420 . S
C161 H155 0.930 . S
C161 C157 1.407 . S
C161 C160 1.392 1_455 S
N162 C160 1.420 . S
N162 C163 1.244 . S
C163 N162 1.244 . S
H164 C167 0.929 . S
H165 C170 0.929 1_565 S
H166 C172 0.930 . S
C167 H164 0.929 . S
C167 C168 1.398 . S
C167 C169 1.396 . S
C168 C167 1.398 . S
C168 C172 1.407 . S
C169 C167 1.396 . S
C169 C170 1.394 . S
C170 H165 0.929 1_545 S
C170 C169 1.394 . S
C170 C171 1.382 . S
C171 C170 1.382 . S
C171 C172 1.392 . S
C171 N173 1.420 1_545 S
C172 H166 0.930 . S
C172 C168 1.407 . S
C172 C171 1.392 . S
N173 C171 1.420 1_565 S
N173 C174 1.244 . S
C174 N173 1.244 . S
H175 C178 0.929 . S
H176 C181 0.929 . S
H177 C183 0.930 . S
C178 H175 0.929 . S
C178 C179 1.398 . S
C178 C180 1.396 . S
C179 C178 1.398 . S
C179 C183 1.407 . S
C180 C178 1.396 . S
C180 C181 1.394 . S
C181 H176 0.929 . S
C181 C180 1.394 . S
C181 C182 1.382 . S
C182 C181 1.382 . S
C182 C183 1.392 . S
C182 N184 1.420 . S
C183 H177 0.930 . S
C183 C179 1.407 . S
C183 C182 1.392 . S
N184 C182 1.420 . S
N184 C185 1.244 . S
C185 N184 1.244 . S
C186 C187 1.349 . S
C186 C188 1.327 . S
C186 H211 0.950 . S
C187 C186 1.349 . S
C187 C203 1.349 . S
C188 C186 1.327 . S
C188 C207 1.429 . S
C188 H212 0.950 . S
C189 C206 1.574 . S
C189 C208 1.368 . S
C189 H213 0.949 . S
H190 C194 0.949 . S
C191 C192 1.349 . S
C191 C193 1.327 . S
C191 H214 0.950 . S
C192 C191 1.349 . S
C192 C204 1.349 . S
C193 C191 1.327 . S
C193 C209 1.429 . S
C193 H215 0.950 . S
C194 H190 0.949 . S
C194 C202 1.574 . S
C194 C210 1.368 . S
H195 C203 0.950 . S
H196 C201 0.950 . S
H197 C202 0.949 . S
H198 C204 0.950 . S
H199 C205 0.950 . S
H200 C206 0.949 . S
C201 H196 0.950 . S
C201 C203 1.327 . S
C201 C207 1.429 . S
C202 C194 1.574 . S
C202 H197 0.949 . S
C202 C208 1.368 . S
C203 C187 1.349 . S
C203 H195 0.950 . S
C203 C201 1.327 . S
C204 C192 1.349 . S
C204 H198 0.950 . S
C204 C205 1.327 . S
C205 H199 0.950 . S
C205 C204 1.327 . S
C205 C209 1.429 . S
C206 C189 1.574 . S
C206 H200 0.949 . S
C206 C210 1.368 . S
C207 C188 1.429 . S
C207 C201 1.429 . S
C207 C208 1.523 . S
C208 C189 1.368 . S
C208 C202 1.368 . S
C208 C207 1.523 . S
C209 C193 1.429 . S
C209 C205 1.429 . S
C209 C210 1.523 . S
C210 C194 1.368 . S
C210 C206 1.368 . S
C210 C209 1.523 . S
H211 C186 0.950 . S
H212 C188 0.950 . S
H213 C189 0.949 . S
H214 C191 0.950 . S
H215 C193 0.950 . S
C216 C217 1.349 . S
C216 C218 1.327 . S
C216 H241 0.950 . S
C217 C216 1.349 . S
C217 C233 1.349 . S
C218 C216 1.327 . S
C218 C237 1.429 . S
C218 H242 0.950 . S
C219 C236 1.574 . S
C219 C238 1.368 . S
C219 H243 0.949 . S
H220 C224 0.949 . S
C221 C222 1.349 . S
C221 C223 1.327 . S
C221 H244 0.950 . S
C222 C221 1.349 . S
C222 C234 1.349 . S
C223 C221 1.327 . S
C223 C239 1.429 . S
C223 H245 0.950 . S
C224 H220 0.949 . S
C224 C232 1.574 . S
C224 C240 1.368 . S
H225 C233 0.950 . S
H226 C231 0.950 . S
H227 C232 0.949 . S
H228 C234 0.950 . S
H229 C235 0.950 . S
H230 C236 0.949 . S
C231 H226 0.950 . S
C231 C233 1.327 . S
C231 C237 1.429 . S
C232 C224 1.574 . S
C232 H227 0.949 . S
C232 C238 1.368 . S
C233 C217 1.349 . S
C233 H225 0.950 . S
C233 C231 1.327 . S
C234 C222 1.349 . S
C234 H228 0.950 . S
C234 C235 1.327 . S
C235 H229 0.950 . S
C235 C234 1.327 . S
C235 C239 1.429 . S
C236 C219 1.574 . S
C236 H230 0.949 . S
C236 C240 1.368 . S
C237 C218 1.429 . S
C237 C231 1.429 . S
C237 C238 1.523 . S
C238 C219 1.368 . S
C238 C232 1.368 . S
C238 C237 1.523 . S
C239 C223 1.429 . S
C239 C235 1.429 . S
C239 C240 1.523 . S
C240 C224 1.368 . S
C240 C236 1.368 . S
C240 C239 1.523 . S
H241 C216 0.950 . S
H242 C218 0.950 . S
H243 C219 0.949 . S
H244 C221 0.950 . S
H245 C223 0.950 . S
C246 C247 1.349 . S
C246 C248 1.327 . S
C246 H271 0.950 . S
C247 C246 1.349 . S
C247 C263 1.349 . S
C248 C246 1.327 . S
C248 C267 1.429 . S
C248 H272 0.950 . S
C249 C266 1.574 . S
C249 C268 1.368 . S
C249 H273 0.949 . S
H250 C254 0.949 . S
C251 C252 1.349 . S
C251 C253 1.327 . S
C251 H274 0.950 . S
C252 C251 1.349 . S
C252 C264 1.349 . S
C253 C251 1.327 . S
C253 C269 1.429 . S
C253 H275 0.950 . S
C254 H250 0.949 . S
C254 C262 1.574 . S
C254 C270 1.368 . S
H255 C263 0.950 . S
H256 C261 0.950 . S
H257 C262 0.949 . S
H258 C264 0.950 . S
H259 C265 0.950 . S
H260 C266 0.949 . S
C261 H256 0.950 . S
C261 C263 1.327 . S
C261 C267 1.429 . S
C262 C254 1.574 . S
C262 H257 0.949 . S
C262 C268 1.368 . S
C263 C247 1.349 . S
C263 H255 0.950 . S
C263 C261 1.327 . S
C264 C252 1.349 . S
C264 H258 0.950 . S
C264 C265 1.327 . S
C265 H259 0.950 . S
C265 C264 1.327 . S
C265 C269 1.429 . S
C266 C249 1.574 . S
C266 H260 0.949 . S
C266 C270 1.368 . S
C267 C248 1.429 . S
C267 C261 1.429 . S
C267 C268 1.523 . S
C268 C249 1.368 . S
C268 C262 1.368 . S
C268 C267 1.523 . S
C269 C253 1.429 . S
C269 C265 1.429 . S
C269 C270 1.523 . S
C270 C254 1.368 . S
C270 C266 1.368 . S
C270 C269 1.523 . S
H271 C246 0.950 . S
H272 C248 0.950 . S
H273 C249 0.949 . S
H274 C251 0.950 . S
H275 C253 0.950 . S
C276 C277 1.349 . S
C276 C278 1.327 . S
C276 H301 0.950 . S
C277 C276 1.349 . S
C277 C293 1.349 . S
C278 C276 1.327 . S
C278 C297 1.429 . S
C278 H302 0.950 . S
C279 C296 1.574 . S
C279 C298 1.368 . S
C279 H303 0.949 . S
H280 C284 0.949 . S
C281 C282 1.349 . S
C281 C283 1.327 . S
C281 H304 0.950 . S
C282 C281 1.349 . S
C282 C294 1.349 . S
C283 C281 1.327 . S
C283 C299 1.429 . S
C283 H305 0.950 . S
C284 H280 0.949 . S
C284 C292 1.574 . S
C284 C300 1.368 . S
H285 C293 0.950 . S
H286 C291 0.950 . S
H287 C292 0.949 . S
H288 C294 0.950 . S
H289 C295 0.950 . S
H290 C296 0.949 . S
C291 H286 0.950 . S
C291 C293 1.327 . S
C291 C297 1.429 . S
C292 C284 1.574 . S
C292 H287 0.949 . S
C292 C298 1.368 . S
C293 C277 1.349 . S
C293 H285 0.950 . S
C293 C291 1.327 . S
C294 C282 1.349 . S
C294 H288 0.950 . S
C294 C295 1.327 . S
C295 H289 0.950 . S
C295 C294 1.327 . S
C295 C299 1.429 . S
C296 C279 1.574 . S
C296 H290 0.949 . S
C296 C300 1.368 . S
C297 C278 1.429 . S
C297 C291 1.429 . S
C297 C298 1.523 . S
C298 C279 1.368 . S
C298 C292 1.368 . S
C298 C297 1.523 . S
C299 C283 1.429 . S
C299 C295 1.429 . S
C299 C300 1.523 . S
C300 C284 1.368 . S
C300 C296 1.368 . S
C300 C299 1.523 . S
H301 C276 0.950 . S
H302 C278 0.950 . S
H303 C279 0.949 . S
H304 C281 0.950 . S
H305 C283 0.950 . S
C306 C307 1.349 . S
C306 C308 1.327 . S
C306 H331 0.950 . S
C307 C306 1.349 . S
C307 C323 1.349 . S
C308 C306 1.327 . S
C308 C327 1.429 . S
C308 H332 0.950 . S
C309 C326 1.574 . S
C309 C328 1.368 . S
C309 H333 0.949 . S
H310 C314 0.949 . S
C311 C312 1.349 . S
C311 C313 1.327 . S
C311 H334 0.950 . S
C312 C311 1.349 . S
C312 C324 1.349 . S
C313 C311 1.327 . S
C313 C329 1.429 . S
C313 H335 0.950 . S
C314 H310 0.949 . S
C314 C322 1.574 . S
C314 C330 1.368 . S
H315 C323 0.950 . S
H316 C321 0.950 . S
H317 C322 0.949 . S
H318 C324 0.950 . S
H319 C325 0.950 . S
H320 C326 0.949 . S
C321 H316 0.950 . S
C321 C323 1.327 . S
C321 C327 1.429 . S
C322 C314 1.574 . S
C322 H317 0.949 . S
C322 C328 1.368 . S
C323 C307 1.349 . S
C323 H315 0.950 . S
C323 C321 1.327 . S
C324 C312 1.349 . S
C324 H318 0.950 . S
C324 C325 1.327 . S
C325 H319 0.950 . S
C325 C324 1.327 . S
C325 C329 1.429 . S
C326 C309 1.574 . S
C326 H320 0.949 . S
C326 C330 1.368 . S
C327 C308 1.429 . S
C327 C321 1.429 . S
C327 C328 1.523 . S
C328 C309 1.368 . S
C328 C322 1.368 . S
C328 C327 1.523 . S
C329 C313 1.429 . S
C329 C325 1.429 . S
C329 C330 1.523 . S
C330 C314 1.368 . S
C330 C326 1.368 . S
C330 C329 1.523 . S
H331 C306 0.950 . S
H332 C308 0.950 . S
H333 C309 0.949 . S
H334 C311 0.950 . S
H335 C313 0.950 . S
C336 C337 1.349 . S
C336 C338 1.327 . S
C336 H361 0.950 . S
C337 C336 1.349 . S
C337 C353 1.349 . S
C338 C336 1.327 . S
C338 C357 1.429 . S
C338 H362 0.950 . S
C339 C356 1.574 . S
C339 C358 1.368 . S
C339 H363 0.949 . S
H340 C344 0.949 . S
C341 C342 1.349 . S
C341 C343 1.327 . S
C341 H364 0.950 . S
C342 C341 1.349 . S
C342 C354 1.349 . S
C343 C341 1.327 . S
C343 C359 1.429 . S
C343 H365 0.950 . S
C344 H340 0.949 . S
C344 C352 1.574 . S
C344 C360 1.368 . S
H345 C353 0.950 . S
H346 C351 0.950 . S
H347 C352 0.949 . S
H348 C354 0.950 . S
H349 C355 0.950 . S
H350 C356 0.949 . S
C351 H346 0.950 . S
C351 C353 1.327 . S
C351 C357 1.429 . S
C352 C344 1.574 . S
C352 H347 0.949 . S
C352 C358 1.368 . S
C353 C337 1.349 . S
C353 H345 0.950 . S
C353 C351 1.327 . S
C354 C342 1.349 . S
C354 H348 0.950 . S
C354 C355 1.327 . S
C355 H349 0.950 . S
C355 C354 1.327 . S
C355 C359 1.429 . S
C356 C339 1.574 . S
C356 H350 0.949 . S
C356 C360 1.368 . S
C357 C338 1.429 . S
C357 C351 1.429 . S
C357 C358 1.523 . S
C358 C339 1.368 . S
C358 C352 1.368 . S
C358 C357 1.523 . S
C359 C343 1.429 . S
C359 C355 1.429 . S
C359 C360 1.523 . S
C360 C344 1.368 . S
C360 C356 1.368 . S
C360 C359 1.523 . S
H361 C336 0.950 . S
H362 C338 0.950 . S
H363 C339 0.949 . S
H364 C341 0.950 . S
H365 C343 0.950 . S
C366 C367 1.349 . S
C366 C368 1.327 . S
C366 H391 0.950 . S
C367 C366 1.349 . S
C367 C383 1.349 . S
C368 C366 1.327 . S
C368 C387 1.429 . S
C368 H392 0.950 . S
C369 C386 1.574 . S
C369 C388 1.368 . S
C369 H393 0.949 . S
H370 C374 0.949 . S
C371 C372 1.349 . S
C371 C373 1.327 . S
C371 H394 0.950 . S
C372 C371 1.349 . S
C372 C384 1.349 . S
C373 C371 1.327 . S
C373 C389 1.429 . S
C373 H395 0.950 . S
C374 H370 0.949 . S
C374 C382 1.574 . S
C374 C390 1.368 . S
H375 C383 0.950 . S
H376 C381 0.950 . S
H377 C382 0.949 . S
H378 C384 0.950 . S
H379 C385 0.950 . S
H380 C386 0.949 . S
C381 H376 0.950 . S
C381 C383 1.327 . S
C381 C387 1.429 . S
C382 C374 1.574 . S
C382 H377 0.949 . S
C382 C388 1.368 . S
C383 C367 1.349 . S
C383 H375 0.950 . S
C383 C381 1.327 . S
C384 C372 1.349 . S
C384 H378 0.950 . S
C384 C385 1.327 . S
C385 H379 0.950 . S
C385 C384 1.327 . S
C385 C389 1.429 . S
C386 C369 1.574 . S
C386 H380 0.949 . S
C386 C390 1.368 . S
C387 C368 1.429 . S
C387 C381 1.429 . S
C387 C388 1.523 . S
C388 C369 1.368 . S
C388 C382 1.368 . S
C388 C387 1.523 . S
C389 C373 1.429 . S
C389 C385 1.429 . S
C389 C390 1.523 . S
C390 C374 1.368 . S
C390 C386 1.368 . S
C390 C389 1.523 . S
H391 C366 0.950 . S
H392 C368 0.950 . S
H393 C369 0.949 . S
H394 C371 0.950 . S
H395 C373 0.950 . S
C396 C397 1.349 . S
C396 C398 1.327 . S
C396 H421 0.950 . S
C397 C396 1.349 . S
C397 C413 1.349 . S
C398 C396 1.327 . S
C398 C417 1.429 . S
C398 H422 0.950 . S
C399 C416 1.574 . S
C399 C418 1.368 . S
C399 H423 0.949 . S
H400 C404 0.949 . S
C401 C402 1.349 . S
C401 C403 1.327 . S
C401 H424 0.950 . S
C402 C401 1.349 . S
C402 C414 1.349 . S
C403 C401 1.327 . S
C403 C419 1.429 . S
C403 H425 0.950 . S
C404 H400 0.949 . S
C404 C412 1.574 . S
C404 C420 1.368 . S
H405 C413 0.950 . S
H406 C411 0.950 . S
H407 C412 0.949 . S
H408 C414 0.950 . S
H409 C415 0.950 . S
H410 C416 0.949 . S
C411 H406 0.950 . S
C411 C413 1.327 . S
C411 C417 1.429 . S
C412 C404 1.574 . S
C412 H407 0.949 . S
C412 C418 1.368 . S
C413 C397 1.349 . S
C413 H405 0.950 . S
C413 C411 1.327 . S
C414 C402 1.349 . S
C414 H408 0.950 . S
C414 C415 1.327 . S
C415 H409 0.950 . S
C415 C414 1.327 . S
C415 C419 1.429 . S
C416 C399 1.574 . S
C416 H410 0.949 . S
C416 C420 1.368 . S
C417 C398 1.429 . S
C417 C411 1.429 . S
C417 C418 1.523 . S
C418 C399 1.368 . S
C418 C412 1.368 . S
C418 C417 1.523 . S
C419 C403 1.429 . S
C419 C415 1.429 . S
C419 C420 1.523 . S
C420 C404 1.368 . S
C420 C416 1.368 . S
C420 C419 1.523 . S
H421 C396 0.950 . S
H422 C398 0.950 . S
H423 C399 0.949 . S
H424 C401 0.950 . S
H425 C403 0.950 . S
C426 C427 1.349 . S
C426 C428 1.327 . S
C426 H451 0.950 . S
C427 C426 1.349 . S
C427 C443 1.349 . S
C428 C426 1.327 . S
C428 C447 1.429 . S
C428 H452 0.950 . S
C429 C446 1.574 . S
C429 C448 1.368 . S
C429 H453 0.949 . S
H430 C434 0.949 . S
C431 C432 1.349 . S
C431 C433 1.327 . S
C431 H454 0.950 . S
C432 C431 1.349 . S
C432 C444 1.349 . S
C433 C431 1.327 . S
C433 C449 1.429 . S
C433 H455 0.950 . S
C434 H430 0.949 . S
C434 C442 1.574 . S
C434 C450 1.368 . S
H435 C443 0.950 . S
H436 C441 0.950 . S
H437 C442 0.949 . S
H438 C444 0.950 . S
H439 C445 0.950 . S
H440 C446 0.949 . S
C441 H436 0.950 . S
C441 C443 1.327 . S
C441 C447 1.429 . S
C442 C434 1.574 . S
C442 H437 0.949 . S
C442 C448 1.368 . S
C443 C427 1.349 . S
C443 H435 0.950 . S
C443 C441 1.327 . S
C444 C432 1.349 . S
C444 H438 0.950 . S
C444 C445 1.327 . S
C445 H439 0.950 . S
C445 C444 1.327 . S
C445 C449 1.429 . S
C446 C429 1.574 . S
C446 H440 0.949 . S
C446 C450 1.368 . S
C447 C428 1.429 . S
C447 C441 1.429 . S
C447 C448 1.523 . S
C448 C429 1.368 . S
C448 C442 1.368 . S
C448 C447 1.523 . S
C449 C433 1.429 . S
C449 C445 1.429 . S
C449 C450 1.523 . S
C450 C434 1.368 . S
C450 C446 1.368 . S
C450 C449 1.523 . S
H451 C426 0.950 . S
H452 C428 0.950 . S
H453 C429 0.949 . S
H454 C431 0.950 . S
H455 C433 0.950 . S
C456 C457 1.349 . S
C456 C458 1.327 . S
C456 H481 0.950 . S
C457 C456 1.349 . S
C457 C473 1.349 . S
C458 C456 1.327 . S
C458 C477 1.429 . S
C458 H482 0.950 . S
C459 C476 1.574 . S
C459 C478 1.368 . S
C459 H483 0.949 . S
H460 C464 0.949 . S
C461 C462 1.349 . S
C461 C463 1.327 . S
C461 H484 0.950 . S
C462 C461 1.349 . S
C462 C474 1.349 . S
C463 C461 1.327 . S
C463 C479 1.429 . S
C463 H485 0.950 . S
C464 H460 0.949 . S
C464 C472 1.574 . S
C464 C480 1.368 . S
H465 C473 0.950 . S
H466 C471 0.950 . S
H467 C472 0.949 . S
H468 C474 0.950 . S
H469 C475 0.950 . S
H470 C476 0.949 . S
C471 H466 0.950 . S
C471 C473 1.327 . S
C471 C477 1.429 . S
C472 C464 1.574 . S
C472 H467 0.949 . S
C472 C478 1.368 . S
C473 C457 1.349 . S
C473 H465 0.950 . S
C473 C471 1.327 . S
C474 C462 1.349 . S
C474 H468 0.950 . S
C474 C475 1.327 . S
C475 H469 0.950 . S
C475 C474 1.327 . S
C475 C479 1.429 . S
C476 C459 1.574 . S
C476 H470 0.949 . S
C476 C480 1.368 . S
C477 C458 1.429 . S
C477 C471 1.429 . S
C477 C478 1.523 . S
C478 C459 1.368 . S
C478 C472 1.368 . S
C478 C477 1.523 . S
C479 C463 1.429 . S
C479 C475 1.429 . S
C479 C480 1.523 . S
C480 C464 1.368 . S
C480 C476 1.368 . S
C480 C479 1.523 . S
H481 C456 0.950 . S
H482 C458 0.950 . S
H483 C459 0.949 . S
H484 C461 0.950 . S
H485 C463 0.950 . S
C486 C487 1.349 . S
C486 C488 1.327 . S
C486 H511 0.950 . S
C487 C486 1.349 . S
C487 C503 1.349 . S
C488 C486 1.327 . S
C488 C507 1.429 . S
C488 H512 0.950 . S
C489 C506 1.574 . S
C489 C508 1.368 . S
C489 H513 0.949 . S
H490 C494 0.949 . S
C491 C492 1.349 . S
C491 C493 1.327 . S
C491 H514 0.950 . S
C492 C491 1.349 . S
C492 C504 1.349 . S
C493 C491 1.327 . S
C493 C509 1.429 . S
C493 H515 0.950 . S
C494 H490 0.949 . S
C494 C502 1.574 . S
C494 C510 1.368 . S
H495 C503 0.950 . S
H496 C501 0.950 . S
H497 C502 0.949 . S
H498 C504 0.950 . S
H499 C505 0.950 . S
H500 C506 0.949 . S
C501 H496 0.950 . S
C501 C503 1.327 . S
C501 C507 1.429 . S
C502 C494 1.574 . S
C502 H497 0.949 . S
C502 C508 1.368 . S
C503 C487 1.349 . S
C503 H495 0.950 . S
C503 C501 1.327 . S
C504 C492 1.349 . S
C504 H498 0.950 . S
C504 C505 1.327 . S
C505 H499 0.950 . S
C505 C504 1.327 . S
C505 C509 1.429 . S
C506 C489 1.574 . S
C506 H500 0.949 . S
C506 C510 1.368 . S
C507 C488 1.429 . S
C507 C501 1.429 . S
C507 C508 1.523 . S
C508 C489 1.368 . S
C508 C502 1.368 . S
C508 C507 1.523 . S
C509 C493 1.429 . S
C509 C505 1.429 . S
C509 C510 1.523 . S
C510 C494 1.368 . S
C510 C506 1.368 . S
C510 C509 1.523 . S
H511 C486 0.950 . S
H512 C488 0.950 . S
H513 C489 0.949 . S
H514 C491 0.950 . S
H515 C493 0.950 . S
C516 C517 1.349 . S
C516 C518 1.327 . S
C516 H541 0.950 . S
C517 C516 1.349 . S
C517 C533 1.349 . S
C518 C516 1.327 . S
C518 C537 1.429 . S
C518 H542 0.950 . S
C519 C536 1.574 . S
C519 C538 1.368 . S
C519 H543 0.949 . S
H520 C524 0.949 . S
C521 C522 1.349 . S
C521 C523 1.327 . S
C521 H544 0.950 . S
C522 C521 1.349 . S
C522 C534 1.349 . S
C523 C521 1.327 . S
C523 C539 1.429 . S
C523 H545 0.950 . S
C524 H520 0.949 . S
C524 C532 1.574 . S
C524 C540 1.368 . S
H525 C533 0.950 . S
H526 C531 0.950 . S
H527 C532 0.949 . S
H528 C534 0.950 . S
H529 C535 0.950 . S
H530 C536 0.949 . S
C531 H526 0.950 . S
C531 C533 1.327 . S
C531 C537 1.429 . S
C532 C524 1.574 . S
C532 H527 0.949 . S
C532 C538 1.368 . S
C533 C517 1.349 . S
C533 H525 0.950 . S
C533 C531 1.327 . S
C534 C522 1.349 . S
C534 H528 0.950 . S
C534 C535 1.327 . S
C535 H529 0.950 . S
C535 C534 1.327 . S
C535 C539 1.429 . S
C536 C519 1.574 . S
C536 H530 0.949 . S
C536 C540 1.368 . S
C537 C518 1.429 . S
C537 C531 1.429 . S
C537 C538 1.523 . S
C538 C519 1.368 . S
C538 C532 1.368 . S
C538 C537 1.523 . S
C539 C523 1.429 . S
C539 C535 1.429 . S
C539 C540 1.523 . S
C540 C524 1.368 . S
C540 C536 1.368 . S
C540 C539 1.523 . S
H541 C516 0.950 . S
H542 C518 0.950 . S
H543 C519 0.949 . S
H544 C521 0.950 . S
H545 C523 0.950 . S
C546 C547 1.349 . S
C546 C548 1.327 . S
C546 H571 0.950 . S
C547 C546 1.349 . S
C547 C563 1.349 . S
C548 C546 1.327 . S
C548 C567 1.429 . S
C548 H572 0.950 . S
C549 C566 1.574 . S
C549 C568 1.368 . S
C549 H573 0.949 . S
H550 C554 0.949 . S
C551 C552 1.349 . S
C551 C553 1.327 . S
C551 H574 0.950 . S
C552 C551 1.349 . S
C552 C564 1.349 . S
C553 C551 1.327 . S
C553 C569 1.429 . S
C553 H575 0.950 . S
C554 H550 0.949 . S
C554 C562 1.574 . S
C554 C570 1.368 1_554 S
H555 C563 0.950 . S
H556 C561 0.950 . S
H557 C562 0.949 . S
H558 C564 0.950 . S
H559 C565 0.950 . S
H560 C566 0.949 1_556 S
C561 H556 0.950 . S
C561 C563 1.327 . S
C561 C567 1.429 . S
C562 C554 1.574 . S
C562 H557 0.949 . S
C562 C568 1.368 . S
C563 C547 1.349 . S
C563 H555 0.950 . S
C563 C561 1.327 . S
C564 C552 1.349 . S
C564 H558 0.950 . S
C564 C565 1.327 . S
C565 H559 0.950 . S
C565 C564 1.327 . S
C565 C569 1.429 . S
C566 C549 1.574 . S
C566 H560 0.949 1_554 S
C566 C570 1.368 1_554 S
C567 C548 1.429 . S
C567 C561 1.429 . S
C567 C568 1.523 . S
C568 C549 1.368 . S
C568 C562 1.368 . S
C568 C567 1.523 . S
C569 C553 1.429 . S
C569 C565 1.429 . S
C569 C570 1.523 . S
C570 C554 1.368 1_556 S
C570 C566 1.368 1_556 S
C570 C569 1.523 . S
H571 C546 0.950 . S
H572 C548 0.950 . S
H573 C549 0.949 . S
H574 C551 0.950 . S
H575 C553 0.950 . S
C576 C577 1.349 . S
C576 C578 1.327 . S
C576 H601 0.950 . S
C577 C576 1.349 . S
C577 C593 1.349 . S
C578 C576 1.327 . S
C578 C597 1.429 . S
C578 H602 0.950 . S
C579 C596 1.574 . S
C579 C598 1.368 . S
C579 H603 0.949 . S
H580 C584 0.949 . S
C581 C582 1.349 . S
C581 C583 1.327 . S
C581 H604 0.950 . S
C582 C581 1.349 . S
C582 C594 1.349 . S
C583 C581 1.327 . S
C583 C599 1.429 . S
C583 H605 0.950 . S
C584 H580 0.949 . S
C584 C592 1.574 . S
C584 C600 1.368 . S
H585 C593 0.950 . S
H586 C591 0.950 . S
H587 C592 0.949 . S
H588 C594 0.950 . S
H589 C595 0.950 . S
H590 C596 0.949 . S
C591 H586 0.950 . S
C591 C593 1.327 . S
C591 C597 1.429 . S
C592 C584 1.574 . S
C592 H587 0.949 . S
C592 C598 1.368 . S
C593 C577 1.349 . S
C593 H585 0.950 . S
C593 C591 1.327 . S
C594 C582 1.349 . S
C594 H588 0.950 . S
C594 C595 1.327 . S
C595 H589 0.950 . S
C595 C594 1.327 . S
C595 C599 1.429 . S
C596 C579 1.574 . S
C596 H590 0.949 . S
C596 C600 1.368 . S
C597 C578 1.429 . S
C597 C591 1.429 . S
C597 C598 1.523 . S
C598 C579 1.368 . S
C598 C592 1.368 . S
C598 C597 1.523 . S
C599 C583 1.429 . S
C599 C595 1.429 . S
C599 C600 1.523 . S
C600 C584 1.368 . S
C600 C596 1.368 . S
C600 C599 1.523 . S
H601 C576 0.950 . S
H602 C578 0.950 . S
H603 C579 0.949 . S
H604 C581 0.950 . S
H605 C583 0.950 . S
C606 C607 1.349 . S
C606 C608 1.327 . S
C606 H631 0.950 . S
C607 C606 1.349 . S
C607 C623 1.349 . S
C608 C606 1.327 . S
C608 C627 1.429 . S
C608 H632 0.950 . S
C609 C626 1.574 . S
C609 C628 1.368 . S
C609 H633 0.949 . S
H610 C614 0.949 . S
C611 C612 1.349 . S
C611 C613 1.327 . S
C611 H634 0.950 . S
C612 C611 1.349 . S
C612 C624 1.349 . S
C613 C611 1.327 . S
C613 C629 1.429 . S
C613 H635 0.950 . S
C614 H610 0.949 . S
C614 C622 1.574 . S
C614 C630 1.368 . S
H615 C623 0.950 . S
H616 C621 0.950 . S
H617 C622 0.949 . S
H618 C624 0.950 . S
H619 C625 0.950 . S
H620 C626 0.949 . S
C621 H616 0.950 . S
C621 C623 1.327 . S
C621 C627 1.429 . S
C622 C614 1.574 . S
C622 H617 0.949 . S
C622 C628 1.368 . S
C623 C607 1.349 . S
C623 H615 0.950 . S
C623 C621 1.327 . S
C624 C612 1.349 . S
C624 H618 0.950 . S
C624 C625 1.327 . S
C625 H619 0.950 . S
C625 C624 1.327 . S
C625 C629 1.429 . S
C626 C609 1.574 . S
C626 H620 0.949 . S
C626 C630 1.368 . S
C627 C608 1.429 . S
C627 C621 1.429 . S
C627 C628 1.523 . S
C628 C609 1.368 . S
C628 C622 1.368 . S
C628 C627 1.523 . S
C629 C613 1.429 . S
C629 C625 1.429 . S
C629 C630 1.523 . S
C630 C614 1.368 . S
C630 C626 1.368 . S
C630 C629 1.523 . S
H631 C606 0.950 . S
H632 C608 0.950 . S
H633 C609 0.949 . S
H634 C611 0.950 . S
H635 C613 0.950 . S
C636 C637 1.349 . S
C636 C638 1.327 . S
C636 H661 0.950 . S
C637 C636 1.349 . S
C637 C653 1.349 . S
C638 C636 1.327 . S
C638 C657 1.429 . S
C638 H662 0.950 . S
C639 C656 1.574 . S
C639 C658 1.368 . S
C639 H663 0.949 1_545 S
H640 C644 0.949 . S
C641 C642 1.326 1_565 S
C641 C643 1.320 1_565 S
C641 H664 0.982 . S
C642 C641 1.326 1_545 S
C642 C654 1.349 . S
C643 C641 1.320 1_545 S
C643 C659 1.429 . S
C643 H665 0.950 1_545 S
C644 H640 0.949 . S
C644 C652 1.574 . S
C644 C660 1.368 . S
H645 C653 0.950 . S
H646 C651 0.950 1_565 S
H647 C652 0.949 . S
H648 C654 0.950 . S
H649 C655 0.950 . S
H650 C656 0.949 1_565 S
C651 H646 0.950 1_545 S
C651 C653 1.327 . S
C651 C657 1.429 . S
C652 C644 1.574 . S
C652 H647 0.949 . S
C652 C658 1.368 . S
C653 C637 1.349 . S
C653 H645 0.950 . S
C653 C651 1.327 . S
C654 C642 1.349 . S
C654 H648 0.950 . S
C654 C655 1.327 . S
C655 H649 0.950 . S
C655 C654 1.327 . S
C655 C659 1.429 . S
C656 C639 1.574 . S
C656 H650 0.949 1_545 S
C656 C660 1.368 . S
C657 C638 1.429 . S
C657 C651 1.429 . S
C657 C658 1.523 . S
C658 C639 1.368 . S
C658 C652 1.368 . S
C658 C657 1.523 . S
C659 C643 1.429 . S
C659 C655 1.429 . S
C659 C660 1.523 . S
C660 C644 1.368 . S
C660 C656 1.368 . S
C660 C659 1.523 . S
H661 C636 0.950 . S
H662 C638 0.950 . S
H663 C639 0.949 1_565 S
H664 C641 0.982 . S
H665 C643 0.950 1_565 S
C666 C667 1.349 . S
C666 C668 1.327 . S
C666 H691 0.950 . S
C667 C666 1.349 . S
C667 C683 1.349 . S
C668 C666 1.327 . S
C668 C687 1.429 . S
C668 H692 0.950 . S
C669 C686 1.574 . S
C669 C688 1.368 . S
C669 H693 0.949 . S
H670 C674 0.949 . S
C671 C672 1.349 . S
C671 C673 1.327 . S
C671 H694 0.950 . S
C672 C671 1.349 . S
C672 C684 1.349 . S
C673 C671 1.327 . S
C673 C689 1.429 . S
C673 H695 0.950 . S
C674 H670 0.949 . S
C674 C682 1.574 . S
C674 C690 1.368 1_556 S
H675 C683 0.950 . S
H676 C681 0.950 . S
H677 C682 0.949 . S
H678 C684 0.950 . S
H679 C685 0.950 . S
H680 C686 0.949 1_554 S
C681 H676 0.950 . S
C681 C683 1.327 . S
C681 C687 1.429 . S
C682 C674 1.574 . S
C682 H677 0.949 . S
C682 C688 1.368 . S
C683 C667 1.349 . S
C683 H675 0.950 . S
C683 C681 1.327 . S
C684 C672 1.349 . S
C684 H678 0.950 . S
C684 C685 1.327 . S
C685 H679 0.950 . S
C685 C684 1.327 . S
C685 C689 1.429 . S
C686 C669 1.574 . S
C686 H680 0.949 1_556 S
C686 C690 1.368 1_556 S
C687 C668 1.429 . S
C687 C681 1.429 . S
C687 C688 1.523 . S
C688 C669 1.368 . S
C688 C682 1.368 . S
C688 C687 1.523 . S
C689 C673 1.429 . S
C689 C685 1.429 . S
C689 C690 1.523 . S
C690 C674 1.368 1_554 S
C690 C686 1.368 1_554 S
C690 C689 1.523 . S
H691 C666 0.950 . S
H692 C668 0.950 . S
H693 C669 0.949 . S
H694 C671 0.950 . S
H695 C673 0.950 . S
C696 C697 1.349 . S
C696 C698 1.327 . S
C696 H721 0.950 . S
C697 C696 1.349 . S
C697 C713 1.349 . S
C698 C696 1.327 . S
C698 C717 1.429 . S
C698 H722 0.950 . S
C699 C716 1.574 . S
C699 C718 1.368 . S
C699 H723 0.949 . S
H700 C704 0.949 . S
C701 C702 1.349 . S
C701 C703 1.327 . S
C701 H724 0.950 . S
C702 C701 1.349 . S
C702 C714 1.349 . S
C703 C701 1.327 . S
C703 C719 1.429 . S
C703 H725 0.950 . S
C704 H700 0.949 . S
C704 C712 1.574 . S
C704 C720 1.368 . S
H705 C713 0.950 . S
H706 C711 0.950 . S
H707 C712 0.949 . S
H708 C714 0.950 . S
H709 C715 0.950 . S
H710 C716 0.949 . S
C711 H706 0.950 . S
C711 C713 1.327 . S
C711 C717 1.429 . S
C712 C704 1.574 . S
C712 H707 0.949 . S
C712 C718 1.368 . S
C713 C697 1.349 . S
C713 H705 0.950 . S
C713 C711 1.327 . S
C714 C702 1.349 . S
C714 H708 0.950 . S
C714 C715 1.327 . S
C715 H709 0.950 . S
C715 C714 1.327 . S
C715 C719 1.429 . S
C716 C699 1.574 . S
C716 H710 0.949 . S
C716 C720 1.368 . S
C717 C698 1.429 . S
C717 C711 1.429 . S
C717 C718 1.523 . S
C718 C699 1.368 . S
C718 C712 1.368 . S
C718 C717 1.523 . S
C719 C703 1.429 . S
C719 C715 1.429 . S
C719 C720 1.523 . S
C720 C704 1.368 . S
C720 C716 1.368 . S
C720 C719 1.523 . S
H721 C696 0.950 . S
H722 C698 0.950 . S
H723 C699 0.949 . S
H724 C701 0.950 . S
H725 C703 0.950 . S
C187 C25 0.405 . S
C192 C185 0.440 . S
C217 C65 0.239 . S
C222 C163 0.231 . S
C247 C105 0.280 . S
C252 C174 0.230 . S
C277 C4 0.282 . S
C282 C179 0.200 . S
C312 C157 0.210 . S
C307 C44 0.158 . S
C342 C168 0.235 . S
C337 C84 0.158 . S
C367 C60 2.987 . S
C372 C141 2.926 . S
C397 C100 2.979 . S
C402 C146 2.931 1_655 S
C427 C31 2.939 . S
C432 C124 2.891 1_565 S
C462 C135 2.893 . S
C457 C71 2.933 . S
C492 C152 2.889 . S
C487 C111 2.930 . S
C517 C20 2.984 . S
C522 C130 2.926 . S
C552 C147 1.729 . S
C547 C2 1.699 . S
C577 C42 1.731 . S
C582 C125 1.744 . S
C607 C82 1.721 . S
C612 C136 1.744 . S
C642 C169 1.229 . S
C637 C63 1.207 . S
C672 C180 1.284 . S
C667 C103 1.260 . S
C697 C23 1.188 . S
C702 C158 1.207 . S
