# Generated by pormake.
# Topology wbl, (4,4)-cn, num edge types: 1
# Building blocks:
#     Node 0, Type 0, BuildingBlock: MUDLON_clean_linker_0, # of connection points: 4
#     Node 1, Type 0, BuildingBlock: MUDLON_clean_linker_0, # of connection points: 4
#     Node 2, Type 0, BuildingBlock: MUDLON_clean_linker_0, # of connection points: 4
#     Node 3, Type 0, BuildingBlock: MUDLON_clean_linker_0, # of connection points: 4
#     Node 4, Type 0, BuildingBlock: MUDLON_clean_linker_0, # of connection points: 4
#     Node 5, Type 0, BuildingBlock: MUDLON_clean_linker_0, # of connection points: 4
#     Node 6, Type 0, BuildingBlock: MUDLON_clean_linker_0, # of connection points: 4
#     Node 7, Type 0, BuildingBlock: MUDLON_clean_linker_0, # of connection points: 4
#     Node 8, Type 1, BuildingBlock: GALJAG_clean_sbu_0, # of connection points: 4
#     Node 9, Type 1, BuildingBlock: GALJAG_clean_sbu_0, # of connection points: 4
#     Node 10, Type 1, BuildingBlock: GALJAG_clean_sbu_0, # of connection points: 4
#     Node 11, Type 1, BuildingBlock: GALJAG_clean_sbu_0, # of connection points: 4
#     Node 12, Type 1, BuildingBlock: GALJAG_clean_sbu_0, # of connection points: 4
#     Node 13, Type 1, BuildingBlock: GALJAG_clean_sbu_0, # of connection points: 4
#     Node 14, Type 1, BuildingBlock: GALJAG_clean_sbu_0, # of connection points: 4
#     Node 15, Type 1, BuildingBlock: GALJAG_clean_sbu_0, # of connection points: 4
#     Edge 16, Type (0, 1), BuildingBlock: CIFDUS_clean_linker_0, # of connection points: 2
#     Edge 17, Type (0, 1), BuildingBlock: CIFDUS_clean_linker_0, # of connection points: 2
#     Edge 18, Type (0, 1), BuildingBlock: CIFDUS_clean_linker_0, # of connection points: 2
#     Edge 19, Type (0, 1), BuildingBlock: CIFDUS_clean_linker_0, # of connection points: 2
#     Edge 20, Type (0, 1), BuildingBlock: CIFDUS_clean_linker_0, # of connection points: 2
#     Edge 21, Type (0, 1), BuildingBlock: CIFDUS_clean_linker_0, # of connection points: 2
#     Edge 22, Type (0, 1), BuildingBlock: CIFDUS_clean_linker_0, # of connection points: 2
#     Edge 23, Type (0, 1), BuildingBlock: CIFDUS_clean_linker_0, # of connection points: 2
#     Edge 24, Type (0, 1), BuildingBlock: CIFDUS_clean_linker_0, # of connection points: 2
#     Edge 25, Type (0, 1), BuildingBlock: CIFDUS_clean_linker_0, # of connection points: 2
#     Edge 26, Type (0, 1), BuildingBlock: CIFDUS_clean_linker_0, # of connection points: 2
#     Edge 27, Type (0, 1), BuildingBlock: CIFDUS_clean_linker_0, # of connection points: 2
#     Edge 28, Type (0, 1), BuildingBlock: CIFDUS_clean_linker_0, # of connection points: 2
#     Edge 29, Type (0, 1), BuildingBlock: CIFDUS_clean_linker_0, # of connection points: 2
#     Edge 30, Type (0, 1), BuildingBlock: CIFDUS_clean_linker_0, # of connection points: 2
#     Edge 31, Type (0, 1), BuildingBlock: CIFDUS_clean_linker_0, # of connection points: 2
#     Edge 32, Type (0, 1), BuildingBlock: CIFDUS_clean_linker_0, # of connection points: 2
#     Edge 33, Type (0, 1), BuildingBlock: CIFDUS_clean_linker_0, # of connection points: 2
#     Edge 34, Type (0, 1), BuildingBlock: CIFDUS_clean_linker_0, # of connection points: 2
#     Edge 35, Type (0, 1), BuildingBlock: CIFDUS_clean_linker_0, # of connection points: 2
#     Edge 36, Type (0, 1), BuildingBlock: CIFDUS_clean_linker_0, # of connection points: 2
#     Edge 37, Type (0, 1), BuildingBlock: CIFDUS_clean_linker_0, # of connection points: 2
#     Edge 38, Type (0, 1), BuildingBlock: CIFDUS_clean_linker_0, # of connection points: 2
#     Edge 39, Type (0, 1), BuildingBlock: CIFDUS_clean_linker_0, # of connection points: 2
#     Edge 40, Type (0, 1), BuildingBlock: CIFDUS_clean_linker_0, # of connection points: 2
#     Edge 41, Type (0, 1), BuildingBlock: CIFDUS_clean_linker_0, # of connection points: 2
#     Edge 42, Type (0, 1), BuildingBlock: CIFDUS_clean_linker_0, # of connection points: 2
#     Edge 43, Type (0, 1), BuildingBlock: CIFDUS_clean_linker_0, # of connection points: 2
#     Edge 44, Type (0, 1), BuildingBlock: CIFDUS_clean_linker_0, # of connection points: 2
#     Edge 45, Type (0, 1), BuildingBlock: CIFDUS_clean_linker_0, # of connection points: 2
#     Edge 46, Type (0, 1), BuildingBlock: CIFDUS_clean_linker_0, # of connection points: 2
#     Edge 47, Type (0, 1), BuildingBlock: CIFDUS_clean_linker_0, # of connection points: 2
# Relax obj value: 0.116
# Max RMSD: 0.154
# Mean RMSD: 0.140
data_MOF--net-wbl--node1-GALJAG_clean_sbu_0--node2-MUDLON_clean_linker_0--edge1-CIFDUS_clean_linker_0
_symmetry_space_group_name_H-M    P1
_symmetry_Int_Tables_number       1
_symmetry_cell_setting            triclinic
loop_
_symmetry_equiv_pos_as_xyz
'x, y, z'
_cell_length_a     47.753145
_cell_length_b     47.868436
_cell_length_c     77.387242
_cell_angle_alpha  90.006303
_cell_angle_beta   90.004928
_cell_angle_gamma 89.989301
loop_
_atom_site_label
_atom_site_type_symbol
_atom_site_fract_x
_atom_site_fract_y
_atom_site_fract_z
_atom_type_partial_charge
H0 H 0.1183 0.93333 0.34607 0.0
N1 N 0.06909 0.92322 0.32849 0.0
H2 H 0.12947 0.91854 0.3754 0.0
H3 H 0.03594 0.89701 0.35086 0.0
H4 H 0.04686 0.8832 0.38074 0.0
H5 H 0.07365 0.87654 0.31021 0.0
H6 H 0.11192 0.86278 0.29101 0.0
H7 H 0.11264 0.9568 0.3178 0.0
H8 H 0.15143 0.94288 0.29956 0.0
H9 H 0.08463 0.97545 0.33937 0.0
H10 H 0.01859 0.92891 0.31472 0.0
H11 H 0.05634 0.0177 0.33807 0.0
H12 H 0.98912 0.97062 0.31445 0.0
H13 H 0.93936 0.1397 0.34992 0.0
H14 H 0.9194 0.1476 0.37857 0.0
H15 H 0.90638 0.05863 0.38427 0.0
H16 H 0.92487 0.05126 0.35528 0.0
H17 H 0.89978 0.05634 0.32809 0.0
H18 H 0.85829 0.06602 0.31069 0.0
H19 H 0.89613 0.14283 0.29287 0.0
H20 H 0.93722 0.13336 0.31091 0.0
H21 H 0.98702 0.0773 0.35399 0.0
H22 H 0.01829 0.03767 0.3517 0.0
H23 H 0.98001 0.015 0.30307 0.0
N24 N 0.94431 0.0915 0.33306 0.0
H25 H 0.94769 0.05362 0.30581 0.0
C26 C 0.07633 0.91567 0.34601 0.0
C27 C 0.10258 0.92212 0.35331 0.0
C28 C 0.10898 0.91378 0.37014 0.0
C29 C 0.08905 0.89965 0.38018 0.0
C30 C 0.06254 0.89407 0.37318 0.0
C31 C 0.05634 0.90184 0.35618 0.0
C32 C 0.09019 0.91752 0.31559 0.0
C33 C 0.09032 0.89127 0.3076 0.0
C34 C 0.11239 0.88338 0.29677 0.0
C35 C 0.13511 0.90153 0.29388 0.0
C36 C 0.13425 0.92839 0.30127 0.0
C37 C 0.11198 0.93639 0.31189 0.0
C38 C 0.05381 0.94905 0.32686 0.0
C39 C 0.06414 0.9744 0.33346 0.0
C40 C 0.04765 0.99852 0.33297 0.0
C41 C 0.02021 0.99771 0.32628 0.0
C42 C 0.01023 0.97233 0.31943 0.0
C43 C 0.02695 0.94837 0.31965 0.0
C44 C 0.9339 0.09501 0.3505 0.0
C45 C 0.93228 0.12197 0.35744 0.0
C46 C 0.92102 0.12636 0.37388 0.0
C47 C 0.91137 0.10373 0.38387 0.0
C48 C 0.91319 0.07662 0.37691 0.0
C49 C 0.92402 0.07232 0.36035 0.0
C50 C 0.92157 0.09431 0.32086 0.0
C51 C 0.89925 0.07512 0.32033 0.0
C52 C 0.8756 0.08061 0.31024 0.0
C53 C 0.87374 0.10535 0.30047 0.0
C54 C 0.89665 0.12383 0.30046 0.0
C55 C 0.92026 0.11836 0.3106 0.0
C56 C 0.96334 0.06792 0.33079 0.0
C57 C 0.98483 0.06354 0.34297 0.0
C58 C 0.00319 0.04099 0.34148 0.0
C59 C 0.00153 0.02268 0.32731 0.0
C60 C 0.98134 0.02802 0.31449 0.0
C61 C 0.9626 0.05036 0.31612 0.0
H62 H 0.93055 0.39015 0.58943 0.0
N63 N 0.91357 0.44054 0.57623 0.0
H64 H 0.91704 0.37018 0.61715 0.0
H65 H 0.88482 0.46538 0.60141 0.0
H66 H 0.87092 0.44528 0.62931 0.0
H67 H 0.86166 0.43161 0.56543 0.0
H68 H 0.84485 0.39237 0.54815 0.0
H69 H 0.9469 0.40534 0.55656 0.0
H70 H 0.93037 0.36698 0.53888 0.0
H71 H 0.96708 0.422 0.58281 0.0
H72 H 0.91905 0.49313 0.56586 0.0
H73 H 0.00991 0.44901 0.58059 0.0
H74 H 0.96185 0.52111 0.56457 0.0
H75 H 0.14205 0.55502 0.58653 0.0
H76 H 0.15899 0.56938 0.61492 0.0
H77 H 0.07366 0.58636 0.63066 0.0
H78 H 0.05746 0.57419 0.60185 0.0
H79 H 0.05641 0.60251 0.575 0.0
H80 H 0.06484 0.64579 0.55897 0.0
H81 H 0.13617 0.60761 0.53405 0.0
H82 H 0.12766 0.56443 0.55027 0.0
H83 H 0.0764 0.512 0.59502 0.0
H84 H 0.03424 0.48399 0.59471 0.0
H85 H 0.0045 0.52973 0.55021 0.0
N86 N 0.08965 0.55589 0.57478 0.0
H87 H 0.04593 0.55877 0.55103 0.0
C88 C 0.90859 0.42938 0.5933 0.0
C89 C 0.91792 0.40258 0.59811 0.0
C90 C 0.90996 0.39104 0.61392 0.0
C91 C 0.89266 0.40604 0.62532 0.0
C92 C 0.88436 0.43328 0.62083 0.0
C93 C 0.89222 0.44477 0.60493 0.0
C94 C 0.90546 0.42156 0.56256 0.0
C95 C 0.87678 0.418 0.55927 0.0
C96 C 0.86721 0.39552 0.54937 0.0
C97 C 0.88625 0.37617 0.54238 0.0
C98 C 0.9151 0.38108 0.54445 0.0
C99 C 0.92464 0.40338 0.55451 0.0
C100 C 0.93968 0.45549 0.57433 0.0
C101 C 0.96567 0.44346 0.57856 0.0
C102 C 0.99028 0.45915 0.57747 0.0
C103 C 0.98951 0.48746 0.57253 0.0
C104 C 0.96346 0.49932 0.56816 0.0
C105 C 0.9389 0.48343 0.56899 0.0
C106 C 0.09857 0.56312 0.5921 0.0
C107 C 0.12711 0.56185 0.59617 0.0
C108 C 0.13668 0.56989 0.6125 0.0
C109 C 0.11777 0.57897 0.6253 0.0
C110 C 0.08904 0.58005 0.62116 0.0
C111 C 0.07961 0.57272 0.60469 0.0
C112 C 0.09142 0.58018 0.56374 0.0
C113 C 0.07357 0.60334 0.56589 0.0
C114 C 0.07837 0.62801 0.55667 0.0
C115 C 0.10128 0.63014 0.54532 0.0
C116 C 0.11853 0.60668 0.54283 0.0
C117 C 0.11358 0.58197 0.55194 0.0
C118 C 0.06411 0.53916 0.57389 0.0
C119 C 0.06059 0.51662 0.5854 0.0
C120 C 0.03651 0.50012 0.58502 0.0
C121 C 0.01556 0.50474 0.57258 0.0
C122 C 0.01967 0.52613 0.56037 0.0
C123 C 0.04364 0.54296 0.56091 0.0
H124 H 0.61483 0.45167 0.84922 0.0
N125 N 0.57366 0.43096 0.82798 0.0
H126 H 0.62364 0.43831 0.87911 0.0
H127 H 0.54618 0.39329 0.84671 0.0
H128 H 0.55569 0.37903 0.87669 0.0
H129 H 0.57985 0.38423 0.81004 0.0
H130 H 0.61962 0.37049 0.792 0.0
H131 H 0.61832 0.46426 0.81925 0.0
H132 H 0.65856 0.45045 0.80183 0.0
H133 H 0.5847 0.48469 0.83875 0.0
H134 H 0.52564 0.43381 0.81077 0.0
H135 H 0.55388 0.52466 0.83609 0.0
H136 H 0.49485 0.47438 0.80733 0.0
H137 H 0.42118 0.64152 0.84146 0.0
H138 H 0.40743 0.65017 0.87119 0.0
H139 H 0.44864 0.57383 0.88681 0.0
H140 H 0.46067 0.56423 0.85724 0.0
H141 H 0.3956 0.57244 0.8309 0.0
H142 H 0.35424 0.58434 0.81384 0.0
H143 H 0.40374 0.64189 0.7836 0.0
H144 H 0.44522 0.62963 0.80072 0.0
H145 H 0.50169 0.59824 0.82097 0.0
H146 H 0.53379 0.55871 0.81773 0.0
H147 H 0.46446 0.50175 0.82477 0.0
N148 N 0.44738 0.59666 0.82836 0.0
H149 H 0.43269 0.54121 0.82742 0.0
C150 C 0.57939 0.4238 0.84575 0.0
C151 C 0.60138 0.43624 0.8551 0.0
C152 C 0.60651 0.42852 0.87221 0.0
C153 C 0.59023 0.40778 0.8802 0.0
C154 C 0.56852 0.39508 0.8708 0.0
C155 C 0.56304 0.40322 0.85377 0.0
C156 C 0.59606 0.42513 0.81603 0.0
C157 C 0.5968 0.3989 0.80803 0.0
C158 C 0.61967 0.39102 0.79788 0.0
C159 C 0.6425 0.40923 0.7956 0.0
C160 C 0.64128 0.43597 0.80317 0.0
C161 C 0.61828 0.44387 0.81326 0.0
C162 C 0.55735 0.45593 0.82512 0.0
C163 C 0.5653 0.48208 0.8318 0.0
C164 C 0.54761 0.5052 0.83011 0.0
C165 C 0.5217 0.50286 0.82154 0.0
C166 C 0.51438 0.47691 0.81427 0.0
C167 C 0.53201 0.45374 0.81609 0.0
C168 C 0.44098 0.60165 0.84653 0.0
C169 C 0.42697 0.62638 0.85123 0.0
C170 C 0.41942 0.63153 0.86838 0.0
C171 C 0.42655 0.61254 0.88153 0.0
C172 C 0.4419 0.58852 0.87703 0.0
C173 C 0.44892 0.58305 0.85983 0.0
C174 C 0.42364 0.60002 0.81695 0.0
C175 C 0.3978 0.5869 0.82024 0.0
C176 C 0.3741 0.59384 0.81052 0.0
C177 C 0.3757 0.61418 0.79743 0.0
C178 C 0.4018 0.62637 0.79372 0.0
C179 C 0.42552 0.61925 0.80336 0.0
C180 C 0.46485 0.57284 0.82438 0.0
C181 C 0.49344 0.57718 0.82144 0.0
C182 C 0.51176 0.55454 0.81977 0.0
C183 C 0.50184 0.52693 0.82117 0.0
C184 C 0.47288 0.52262 0.82338 0.0
C185 C 0.45456 0.54529 0.8249 0.0
H186 H 0.43402 0.88917 0.10372 0.0
N187 N 0.41664 0.93639 0.08681 0.0
H188 H 0.42251 0.87587 0.1334 0.0
H189 H 0.38872 0.96641 0.11015 0.0
H190 H 0.3775 0.95335 0.14008 0.0
H191 H 0.3674 0.91267 0.08026 0.0
H192 H 0.3582 0.86997 0.06402 0.0
H193 H 0.45458 0.90825 0.06553 0.0
H194 H 0.44522 0.86677 0.04883 0.0
H195 H 0.4709 0.92281 0.09473 0.0
H196 H 0.41838 0.98815 0.0744 0.0
H197 H 0.51177 0.95269 0.09181 0.0
H198 H 0.4589 0.0192 0.07252 0.0
H199 H 0.63423 0.07055 0.09614 0.0
H200 H 0.6463 0.09099 0.12409 0.0
H201 H 0.55819 0.10278 0.13498 0.0
H202 H 0.54664 0.08411 0.10661 0.0
H203 H 0.5502 0.11071 0.07916 0.0
H204 H 0.55839 0.15051 0.06014 0.0
H205 H 0.62863 0.10723 0.0372 0.0
H206 H 0.62081 0.06786 0.05685 0.0
H207 H 0.57389 0.0212 0.10349 0.0
H208 H 0.53392 0.99009 0.10412 0.0
H209 H 0.50051 0.03053 0.05862 0.0
N210 N 0.58352 0.06447 0.08231 0.0
H211 H 0.53942 0.06279 0.05866 0.0
C212 C 0.41182 0.92871 0.10464 0.0
C213 C 0.42176 0.90337 0.11155 0.0
C214 C 0.41513 0.89575 0.12849 0.0
C215 C 0.39897 0.91351 0.13896 0.0
C216 C 0.39007 0.93933 0.13229 0.0
C217 C 0.39635 0.94676 0.11524 0.0
C218 C 0.4117 0.91375 0.07467 0.0
C219 C 0.38445 0.90291 0.07327 0.0
C220 C 0.37919 0.87851 0.06387 0.0
C221 C 0.40107 0.86453 0.05531 0.0
C222 C 0.428 0.87644 0.0557 0.0
C223 C 0.43335 0.90056 0.06532 0.0
C224 C 0.44154 0.95317 0.08454 0.0
C225 C 0.46817 0.94369 0.08966 0.0
C226 C 0.49157 0.96103 0.08814 0.0
C227 C 0.48886 0.98863 0.08202 0.0
C228 C 0.4621 0.99799 0.07696 0.0
C229 C 0.43881 0.98036 0.07811 0.0
C230 C 0.58965 0.07547 0.09933 0.0
C231 C 0.61761 0.07755 0.10463 0.0
C232 C 0.6244 0.08906 0.12069 0.0
C233 C 0.60325 0.09847 0.13196 0.0
C234 C 0.57514 0.09623 0.12662 0.0
C235 C 0.56842 0.08523 0.11042 0.0
C236 C 0.58508 0.08634 0.06947 0.0
C237 C 0.56719 0.10969 0.06994 0.0
C238 C 0.57179 0.13237 0.05892 0.0
C239 C 0.59432 0.13221 0.04719 0.0
C240 C 0.61139 0.10827 0.04626 0.0
C241 C 0.60681 0.08565 0.05733 0.0
C242 C 0.55953 0.04563 0.08166 0.0
C243 C 0.55775 0.02379 0.09378 0.0
C244 C 0.53493 0.00559 0.09396 0.0
C245 C 0.51358 0.00779 0.08151 0.0
C246 C 0.51598 0.02866 0.06877 0.0
C247 C 0.53858 0.0473 0.06881 0.0
H248 H 0.11433 0.53592 0.89662 0.0
N249 N 0.08548 0.559 0.92249 0.0
H250 H 0.12435 0.55665 0.86824 0.0
H251 H 0.06582 0.60843 0.9104 0.0
H252 H 0.07565 0.62929 0.88222 0.0
H253 H 0.08462 0.60959 0.93835 0.0
H254 H 0.12128 0.62848 0.95698 0.0
H255 H 0.12643 0.52995 0.93749 0.0
H256 H 0.16182 0.5476 0.9574 0.0
H257 H 0.08284 0.50446 0.92959 0.0
H258 H 0.03211 0.57804 0.92322 0.0
H259 H 0.04078 0.47592 0.93256 0.0
H260 H 0.98988 0.54969 0.92458 0.0
H261 H 0.92379 0.39324 0.91161 0.0
H262 H 0.91784 0.36646 0.88501 0.0
H263 H 0.89057 0.44115 0.85862 0.0
H264 H 0.89613 0.46784 0.88549 0.0
H265 H 0.85741 0.46215 0.92195 0.0
H266 H 0.82412 0.4393 0.94132 0.0
H267 H 0.89018 0.3858 0.9603 0.0
H268 H 0.9236 0.40935 0.94097 0.0
H269 H 0.96426 0.42971 0.91145 0.0
H270 H 0.00658 0.4566 0.91579 0.0
H271 H 0.95786 0.52296 0.93904 0.0
N272 N 0.9103 0.44837 0.91647 0.0
H273 H 0.91516 0.49666 0.93315 0.0
C274 C 0.0895 0.57067 0.90556 0.0
C275 C 0.10565 0.55617 0.89341 0.0
C276 C 0.11123 0.56799 0.87725 0.0
C277 C 0.10086 0.59465 0.87305 0.0
C278 C 0.08419 0.60887 0.88517 0.0
C279 C 0.07848 0.59694 0.90126 0.0
C280 C 0.1032 0.56853 0.93628 0.0
C281 C 0.10137 0.59598 0.94254 0.0
C282 C 0.12228 0.60666 0.95337 0.0
C283 C 0.14506 0.58982 0.95845 0.0
C284 C 0.14526 0.56157 0.95331 0.0
C285 C 0.12479 0.55121 0.94214 0.0
C286 C 0.06056 0.54325 0.92607 0.0
C287 C 0.06253 0.51444 0.92894 0.0
C288 C 0.03837 0.49812 0.93037 0.0
C289 C 0.01162 0.51021 0.92851 0.0
C290 C 0.00987 0.53943 0.92631 0.0
C291 C 0.03408 0.55579 0.92532 0.0
C292 C 0.90996 0.43258 0.90058 0.0
C293 C 0.91656 0.40393 0.90015 0.0
C294 C 0.91321 0.38861 0.88492 0.0
C295 C 0.9036 0.40169 0.86979 0.0
C296 C 0.89821 0.43057 0.87006 0.0
C297 C 0.90128 0.44581 0.88536 0.0
C298 C 0.89275 0.43732 0.92996 0.0
C299 C 0.86479 0.44596 0.9306 0.0
C300 C 0.84587 0.4329 0.94168 0.0
C301 C 0.85453 0.41067 0.95228 0.0
C302 C 0.8829 0.40271 0.95216 0.0
C303 C 0.90198 0.41615 0.94119 0.0
C304 C 0.93625 0.46146 0.9216 0.0
C305 C 0.96254 0.44998 0.91751 0.0
C306 C 0.98701 0.46543 0.92023 0.0
C307 C 0.98591 0.49238 0.92757 0.0
C308 C 0.95968 0.50278 0.93285 0.0
C309 C 0.93519 0.48761 0.92971 0.0
H310 H 0.5643 0.39387 0.15529 0.0
N311 N 0.58546 0.44096 0.1706 0.0
H312 H 0.5706 0.37976 0.12513 0.0
H313 H 0.60855 0.47068 0.14518 0.0
H314 H 0.6143 0.45687 0.11478 0.0
H315 H 0.62969 0.40648 0.16658 0.0
H316 H 0.64274 0.36663 0.18401 0.0
H317 H 0.56373 0.42646 0.20286 0.0
H318 H 0.57764 0.38723 0.22062 0.0
H319 H 0.53255 0.41924 0.17354 0.0
H320 H 0.58013 0.4956 0.17534 0.0
H321 H 0.48931 0.44552 0.17759 0.0
H322 H 0.53694 0.52243 0.17838 0.0
H323 H 0.35717 0.54664 0.16435 0.0
H324 H 0.34203 0.56334 0.13592 0.0
H325 H 0.42569 0.59401 0.12611 0.0
H326 H 0.44072 0.57643 0.15426 0.0
H327 H 0.43228 0.6032 0.1801 0.0
H328 H 0.41854 0.64177 0.19875 0.0
H329 H 0.35895 0.58808 0.22448 0.0
H330 H 0.37244 0.54954 0.20531 0.0
H331 H 0.41603 0.50222 0.16379 0.0
H332 H 0.45883 0.4747 0.16288 0.0
H333 H 0.4995 0.5353 0.19585 0.0
N334 N 0.40757 0.55153 0.17865 0.0
H335 H 0.4575 0.56342 0.19588 0.0
C336 C 0.5864 0.43324 0.15253 0.0
C337 C 0.57495 0.40791 0.14652 0.0
C338 C 0.5786 0.39983 0.12933 0.0
C339 C 0.59302 0.41722 0.11775 0.0
C340 C 0.60303 0.44319 0.12349 0.0
C341 C 0.59987 0.45103 0.14079 0.0
C342 C 0.59407 0.4186 0.18232 0.0
C343 C 0.61774 0.40229 0.17818 0.0
C344 C 0.6256 0.37961 0.1884 0.0
C345 C 0.61084 0.37316 0.20359 0.0
C346 C 0.58879 0.39086 0.20865 0.0
C347 C 0.58067 0.41344 0.19829 0.0
C348 C 0.55966 0.45552 0.17439 0.0
C349 C 0.53366 0.44172 0.17484 0.0
C350 C 0.50888 0.45689 0.177 0.0
C351 C 0.50941 0.48626 0.17825 0.0
C352 C 0.53555 0.49988 0.17785 0.0
C353 C 0.56033 0.48462 0.17602 0.0
C354 C 0.39993 0.56027 0.16142 0.0
C355 C 0.37221 0.55673 0.15594 0.0
C356 C 0.3636 0.56649 0.13978 0.0
C357 C 0.38261 0.58015 0.12876 0.0
C358 C 0.41057 0.5833 0.13417 0.0
C359 C 0.41917 0.57345 0.15032 0.0
C360 C 0.40324 0.57338 0.19127 0.0
C361 C 0.41651 0.59955 0.18987 0.0
C362 C 0.40878 0.6216 0.20068 0.0
C363 C 0.38754 0.61807 0.21307 0.0
C364 C 0.37516 0.59156 0.21493 0.0
C365 C 0.38297 0.56948 0.20412 0.0
C366 C 0.43319 0.53526 0.17957 0.0
C367 C 0.43422 0.50961 0.17079 0.0
C368 C 0.45873 0.49372 0.17044 0.0
C369 C 0.48288 0.5027 0.17925 0.0
C370 C 0.48162 0.52795 0.18856 0.0
C371 C 0.45722 0.54415 0.18864 0.0
H372 H 0.38888 0.94322 0.40544 0.0
N373 N 0.43601 0.93198 0.42472 0.0
H374 H 0.37853 0.92581 0.3766 0.0
H375 H 0.46908 0.90175 0.40428 0.0
H376 H 0.45894 0.88476 0.37493 0.0
H377 H 0.43039 0.88625 0.44379 0.0
H378 H 0.39099 0.87338 0.46234 0.0
H379 H 0.39176 0.96594 0.43366 0.0
H380 H 0.3518 0.95284 0.45125 0.0
H381 H 0.4215 0.98313 0.41144 0.0
H382 H 0.4844 0.9396 0.44093 0.0
H383 H 0.44921 0.02579 0.41278 0.0
H384 H 0.51296 0.98206 0.44181 0.0
H385 H 0.54743 0.15534 0.41015 0.0
H386 H 0.56503 0.17132 0.38207 0.0
H387 H 0.60177 0.09002 0.37334 0.0
H388 H 0.58355 0.07412 0.40112 0.0
H389 H 0.59689 0.06764 0.43 0.0
H390 H 0.63888 0.07495 0.44741 0.0
H391 H 0.60664 0.1549 0.46406 0.0
H392 H 0.5649 0.14766 0.44618 0.0
H393 H 0.51991 0.08519 0.39954 0.0
H394 H 0.49086 0.04397 0.4005 0.0
H395 H 0.51644 0.02889 0.45318 0.0
N396 N 0.55456 0.10548 0.42475 0.0
H397 H 0.54645 0.06975 0.45216 0.0
C398 C 0.42968 0.92329 0.40727 0.0
C399 C 0.40433 0.93038 0.39907 0.0
C400 C 0.3984 0.92046 0.3825 0.0
C401 C 0.41785 0.90379 0.37363 0.0
C402 C 0.44361 0.89762 0.38151 0.0
C403 C 0.44937 0.90718 0.39823 0.0
C404 C 0.41411 0.92688 0.43722 0.0
C405 C 0.41351 0.90105 0.4457 0.0
C406 C 0.3908 0.89364 0.45614 0.0
C407 C 0.36786 0.91185 0.45813 0.0
C408 C 0.3691 0.93831 0.45021 0.0
C409 C 0.39203 0.94583 0.43998 0.0
C410 C 0.45089 0.9581 0.42617 0.0
C411 C 0.4412 0.98277 0.41833 0.0
C412 C 0.45728 0.00715 0.41895 0.0
C413 C 0.4835 0.00738 0.42728 0.0
C414 C 0.49277 0.9828 0.43545 0.0
C415 C 0.47658 0.95848 0.4349 0.0
C416 C 0.56414 0.11367 0.40775 0.0
C417 C 0.55909 0.14099 0.40207 0.0
C418 C 0.56932 0.15008 0.38611 0.0
C419 C 0.58485 0.13195 0.3755 0.0
C420 C 0.58963 0.10442 0.38112 0.0
C421 C 0.57947 0.09537 0.39709 0.0
C422 C 0.57768 0.10721 0.43679 0.0
C423 C 0.59872 0.08663 0.4375 0.0
C424 C 0.62267 0.09077 0.44758 0.0
C425 C 0.62621 0.1156 0.45707 0.0
C426 C 0.60475 0.13572 0.45674 0.0
C427 C 0.58078 0.13152 0.44669 0.0
C428 C 0.53769 0.08 0.42527 0.0
C429 C 0.52026 0.07275 0.41121 0.0
C430 C 0.50298 0.04927 0.41186 0.0
C431 C 0.50158 0.03275 0.42683 0.0
C432 C 0.51768 0.04061 0.44124 0.0
C433 C 0.53513 0.06409 0.44057 0.0
H434 H 0.07349 0.89651 0.65222 0.0
N435 N 0.09742 0.93519 0.67366 0.0
H436 H 0.08748 0.88601 0.62258 0.0
H437 H 0.13415 0.96306 0.65435 0.0
H438 H 0.14838 0.95267 0.62457 0.0
H439 H 0.13946 0.89772 0.67024 0.0
H440 H 0.14808 0.85603 0.68688 0.0
H441 H 0.06918 0.91788 0.70328 0.0
H442 H 0.07866 0.87641 0.72035 0.0
H443 H 0.04294 0.91689 0.6721 0.0
H444 H 0.09452 0.98951 0.68021 0.0
H445 H 0.00098 0.94582 0.67374 0.0
H446 H 0.05277 0.01897 0.68117 0.0
H447 H 0.87462 0.05181 0.65976 0.0
H448 H 0.85953 0.06379 0.6304 0.0
H449 H 0.94408 0.08904 0.61803 0.0
H450 H 0.959 0.0764 0.6472 0.0
H451 H 0.95707 0.10456 0.67268 0.0
H452 H 0.94764 0.14732 0.68887 0.0
H453 H 0.87914 0.10621 0.71503 0.0
H454 H 0.88836 0.06364 0.69836 0.0
H455 H 0.93518 0.00866 0.65636 0.0
H456 H 0.97614 0.9787 0.65757 0.0
H457 H 0.01238 0.0323 0.69654 0.0
N458 N 0.9257 0.05657 0.67325 0.0
H459 H 0.97218 0.0629 0.69479 0.0
C460 C 0.10278 0.93071 0.65548 0.0
C461 C 0.08928 0.90938 0.64614 0.0
C462 C 0.09737 0.90334 0.62919 0.0
C463 C 0.11915 0.91842 0.62127 0.0
C464 C 0.13178 0.94047 0.6304 0.0
C465 C 0.12359 0.94657 0.64733 0.0
C466 C 0.10221 0.91046 0.68435 0.0
C467 C 0.12546 0.89314 0.68087 0.0
C468 C 0.13082 0.86934 0.6907 0.0
C469 C 0.11386 0.86248 0.70489 0.0
C470 C 0.09165 0.88055 0.70918 0.0
C471 C 0.0861 0.90439 0.6992 0.0
C472 C 0.07197 0.95106 0.6762 0.0
C473 C 0.04524 0.93909 0.67425 0.0
C474 C 0.02121 0.95578 0.67509 0.0
C475 C 0.02332 0.9849 0.67749 0.0
C476 C 0.05013 0.99665 0.67962 0.0
C477 C 0.07409 0.97988 0.67901 0.0
C478 C 0.91781 0.06317 0.65567 0.0
C479 C 0.88984 0.05979 0.65064 0.0
C480 C 0.88127 0.06681 0.63391 0.0
C481 C 0.9006 0.0774 0.62187 0.0
C482 C 0.92873 0.08061 0.62691 0.0
C483 C 0.93726 0.07363 0.64364 0.0
C484 C 0.92332 0.08082 0.68431 0.0
C485 C 0.94019 0.10465 0.68199 0.0
C486 C 0.93488 0.12907 0.69137 0.0
C487 C 0.91251 0.13028 0.70319 0.0
C488 C 0.89629 0.10613 0.70587 0.0
C489 C 0.90167 0.08171 0.6965 0.0
C490 C 0.95056 0.03907 0.67478 0.0
C491 C 0.95209 0.01431 0.66501 0.0
C492 C 0.97548 0.99685 0.66591 0.0
C493 C 0.99788 0.00309 0.67705 0.0
C494 C 0.99595 0.02718 0.68743 0.0
C495 C 0.97265 0.04489 0.68638 0.0
In496 In 0.34228 0.66637 0.00405 0.0
O497 O 0.32763 0.71164 0.00789 0.0
O498 O 0.36976 0.70137 0.01418 0.0
C499 C 0.29357 0.64285 0.9936 0.0
C500 C 0.35641 0.63964 0.03358 0.0
C501 C 0.37072 0.66162 0.97403 0.0
O502 O 0.29412 0.66658 0.00076 0.0
O503 O 0.31713 0.63131 0.99215 0.0
O504 O 0.37118 0.6431 0.98561 0.0
O505 O 0.3565 0.68303 0.97772 0.0
C506 C 0.35104 0.71995 0.01354 0.0
O507 O 0.37259 0.64131 0.02075 0.0
O508 O 0.33292 0.65123 0.03148 0.0
In509 In 0.33259 0.81972 0.25722 0.0
O510 O 0.32682 0.77318 0.252 0.0
O511 O 0.36818 0.78775 0.25647 0.0
C512 C 0.27796 0.83254 0.26186 0.0
C513 C 0.34509 0.84129 0.22588 0.0
C514 C 0.35299 0.83635 0.28817 0.0
O515 O 0.2876 0.80823 0.26395 0.0
O516 O 0.29574 0.85034 0.25694 0.0
O517 O 0.36383 0.84419 0.2741 0.0
O518 O 0.33256 0.81993 0.28653 0.0
C519 C 0.35253 0.76729 0.25294 0.0
O520 O 0.35234 0.85318 0.23975 0.0
O521 O 0.3312 0.81914 0.22791 0.0
In522 In 0.17266 0.82819 0.49991 0.0
O523 O 0.17888 0.84882 0.52626 0.0
O524 O 0.13803 0.84945 0.51545 0.0
C525 C 0.15158 0.84003 0.4683 0.0
C526 C 0.16134 0.77521 0.5102 0.0
C527 C 0.22604 0.84276 0.49254 0.0
O528 O 0.14576 0.85441 0.48148 0.0
O529 O 0.16743 0.8195 0.47115 0.0
O530 O 0.21742 0.81785 0.49201 0.0
O531 O 0.20787 0.86039 0.49721 0.0
C532 C 0.15359 0.85594 0.52799 0.0
O533 O 0.18453 0.78696 0.51296 0.0
O534 O 0.14394 0.79001 0.50207 0.0
In535 In 0.17194 0.66114 0.74939 0.0
O536 O 0.14558 0.62892 0.76387 0.0
O537 O 0.15888 0.66471 0.77776 0.0
C538 C 0.15323 0.64213 0.71854 0.0
C539 C 0.2244 0.64418 0.7574 0.0
C540 C 0.16541 0.71631 0.74295 0.0
O541 O 0.13747 0.65346 0.72954 0.0
O542 O 0.17847 0.63997 0.72312 0.0
O543 O 0.18794 0.70344 0.7398 0.0
O544 O 0.14654 0.70154 0.74978 0.0
C545 C 0.14599 0.64172 0.77809 0.0
O546 O 0.21687 0.66943 0.75845 0.0
O547 O 0.20569 0.62776 0.75199 0.0
In548 In 0.82798 0.16927 0.50516 0.0
O549 O 0.82257 0.21665 0.50868 0.0
O550 O 0.86068 0.19781 0.51686 0.0
C551 C 0.77383 0.16427 0.49523 0.0
C552 C 0.83668 0.14178 0.53519 0.0
C553 C 0.85643 0.15414 0.47627 0.0
O554 O 0.78766 0.18649 0.49312 0.0
O555 O 0.78711 0.14492 0.50265 0.0
O556 O 0.84025 0.13769 0.4841 0.0
O557 O 0.85846 0.17792 0.48305 0.0
C558 C 0.84651 0.21991 0.51537 0.0
O559 O 0.85132 0.1375 0.52187 0.0
O560 O 0.8172 0.15931 0.53321 0.0
In561 In 0.83528 0.3262 0.74877 0.0
O562 O 0.85178 0.36389 0.73386 0.0
O563 O 0.8353 0.33004 0.71933 0.0
C564 C 0.86503 0.34135 0.77704 0.0
C565 C 0.84901 0.27307 0.74002 0.0
C566 C 0.78207 0.33936 0.75827 0.0
O567 O 0.87057 0.35016 0.76208 0.0
O568 O 0.84519 0.324 0.77766 0.0
O569 O 0.79337 0.31626 0.76175 0.0
O570 O 0.79728 0.35562 0.74957 0.0
C571 C 0.84669 0.35382 0.71913 0.0
O572 O 0.82438 0.28249 0.73915 0.0
O573 O 0.86685 0.29034 0.74559 0.0
In574 In 0.66405 0.32754 0.99965 0.0
O575 O 0.67807 0.283 0.00567 0.0
O576 O 0.63437 0.29069 0.00297 0.0
C577 C 0.71497 0.35104 0.99423 0.0
C578 C 0.64706 0.34603 0.03084 0.0
C579 C 0.63896 0.33968 0.96922 0.0
O580 O 0.71028 0.32557 0.99116 0.0
O581 O 0.69431 0.36416 0.00024 0.0
O582 O 0.63661 0.35502 0.98239 0.0
O583 O 0.65343 0.31795 0.97148 0.0
C584 C 0.65349 0.27323 0.00625 0.0
O585 O 0.63503 0.35333 0.01702 0.0
O586 O 0.6676 0.32979 0.02886 0.0
In587 In 0.67682 0.17656 0.25298 0.0
O588 O 0.64924 0.14602 0.26818 0.0
O589 O 0.66171 0.18338 0.28064 0.0
C590 C 0.66244 0.15089 0.22309 0.0
C591 C 0.7297 0.16559 0.26342 0.0
C592 C 0.66826 0.22997 0.24294 0.0
O593 O 0.64532 0.16489 0.23195 0.0
O594 O 0.68678 0.14956 0.22934 0.0
O595 O 0.69107 0.21734 0.24027 0.0
O596 O 0.65005 0.21579 0.25083 0.0
C597 C 0.64847 0.1607 0.28168 0.0
O598 O 0.71942 0.1899 0.26362 0.0
O599 O 0.71343 0.14694 0.25779 0.0
H600 H 0.15873 0.84966 0.29449 0.0
H601 H 0.16918 0.93162 0.27206 0.0
H602 H 0.21378 0.91717 0.25952 0.0
H603 H 0.25127 0.88208 0.25645 0.0
H604 H 0.23951 0.79977 0.27801 0.0
H605 H 0.19356 0.81339 0.28891 0.0
C606 C 0.1703 0.86426 0.28651 0.0
C607 C 0.16055 0.89183 0.28442 0.0
C608 C 0.1958 0.85575 0.27917 0.0
C609 C 0.17634 0.91045 0.27424 0.0
C610 C 0.20182 0.90216 0.26696 0.0
C611 C 0.23849 0.86705 0.26336 0.0
C612 C 0.24888 0.84003 0.26654 0.0
C613 C 0.21202 0.87502 0.26962 0.0
C614 C 0.23203 0.82072 0.27541 0.0
C615 C 0.20577 0.82851 0.28171 0.0
H616 H 0.15223 0.65492 0.54304 0.0
H617 H 0.06555 0.66627 0.52902 0.0
H618 H 0.07663 0.7118 0.51635 0.0
H619 H 0.11085 0.7489 0.50995 0.0
H620 H 0.19726 0.7378 0.52475 0.0
H621 H 0.18647 0.69151 0.53623 0.0
C622 C 0.13583 0.6672 0.537 0.0
C623 C 0.10813 0.65719 0.53691 0.0
C624 C 0.14231 0.69341 0.52991 0.0
C625 C 0.08701 0.67359 0.52935 0.0
C626 C 0.09335 0.69957 0.52207 0.0
C627 C 0.12733 0.73627 0.5156 0.0
C628 C 0.15482 0.74676 0.51649 0.0
C629 C 0.1209 0.70979 0.52239 0.0
C630 C 0.17593 0.73022 0.52393 0.0
C631 C 0.16978 0.70375 0.5305 0.0
H632 H 0.33307 0.5828 0.78428 0.0
H633 H 0.36018 0.66803 0.79112 0.0
H634 H 0.31635 0.68493 0.77867 0.0
H635 H 0.26921 0.67556 0.76721 0.0
H636 H 0.24216 0.5903 0.76023 0.0
H637 H 0.28691 0.5734 0.77137 0.0
C638 C 0.32937 0.60506 0.783 0.0
C639 C 0.34985 0.6241 0.78864 0.0
C640 C 0.30405 0.61465 0.77587 0.0
C641 C 0.34491 0.6529 0.78671 0.0
C642 C 0.31975 0.6626 0.7797 0.0
C643 C 0.2732 0.65329 0.76802 0.0
C644 C 0.25233 0.63424 0.76299 0.0
C645 C 0.29903 0.64368 0.77442 0.0
C646 C 0.25786 0.60543 0.76404 0.0
C647 C 0.28344 0.59573 0.77044 0.0
H648 H 0.35493 0.84631 0.03731 0.0
H649 H 0.43642 0.81964 0.05514 0.0
H650 H 0.42859 0.7735 0.04299 0.0
H651 H 0.39812 0.73989 0.0285 0.0
H652 H 0.3156 0.76492 0.01194 0.0
H653 H 0.32417 0.81233 0.02265 0.0
C654 C 0.37094 0.8304 0.03863 0.0
C655 C 0.39633 0.83673 0.04708 0.0
C656 C 0.36606 0.80348 0.03194 0.0
C657 C 0.41692 0.81578 0.04841 0.0
C658 C 0.41237 0.78919 0.0416 0.0
C659 C 0.38202 0.75573 0.02716 0.0
C660 C 0.35625 0.7489 0.01945 0.0
C661 C 0.38697 0.78274 0.03349 0.0
C662 C 0.3356 0.76965 0.01785 0.0
C663 C 0.3405 0.79675 0.02397 0.0
H664 H 0.19993 0.57627 0.95426 0.0
H665 H 0.14599 0.63164 0.98313 0.0
H666 H 0.18701 0.65347 0.99638 0.0
H667 H 0.23869 0.65712 0.99948 0.0
H668 H 0.29119 0.59902 0.97169 0.0
H669 H 0.25013 0.57756 0.95872 0.0
C670 C 0.19686 0.59261 0.96377 0.0
C671 C 0.16968 0.60209 0.96766 0.0
C672 C 0.22041 0.60467 0.97157 0.0
C673 C 0.16657 0.62402 0.97965 0.0
C674 C 0.19006 0.63646 0.98733 0.0
C675 C 0.24103 0.63971 0.99063 0.0
C676 C 0.26797 0.62977 0.98651 0.0
C677 C 0.21714 0.62707 0.9833 0.0
C678 C 0.27073 0.60708 0.97511 0.0
C679 C 0.24725 0.59478 0.96764 0.0
H680 H 0.41769 0.66013 0.228 0.0
H681 H 0.33305 0.63131 0.21988 0.0
H682 H 0.31482 0.6739 0.23299 0.0
H683 H 0.32273 0.72109 0.24434 0.0
H684 H 0.40721 0.7508 0.25161 0.0
H685 H 0.42563 0.70622 0.24121 0.0
C686 C 0.39525 0.66313 0.22916 0.0
C687 C 0.3768 0.64256 0.22288 0.0
C688 C 0.38485 0.68795 0.23644 0.0
C689 C 0.34778 0.6466 0.22476 0.0
C690 C 0.3373 0.67109 0.23212 0.0
C691 C 0.34518 0.71769 0.24384 0.0
C692 C 0.36357 0.73929 0.24861 0.0
C693 C 0.35561 0.69214 0.23767 0.0
C694 C 0.3926 0.73454 0.24796 0.0
C695 C 0.40315 0.70907 0.24197 0.0
H696 H 0.3444 0.85988 0.45841 0.0
H697 H 0.33274 0.94316 0.47865 0.0
H698 H 0.28818 0.92906 0.49139 0.0
H699 H 0.25144 0.8935 0.49573 0.0
H700 H 0.26454 0.80988 0.47653 0.0
H701 H 0.30996 0.82358 0.46485 0.0
C702 C 0.33254 0.87488 0.46592 0.0
C703 C 0.34202 0.90266 0.4674 0.0
C704 C 0.30709 0.86657 0.47342 0.0
C705 C 0.32583 0.92179 0.47696 0.0
C706 C 0.30037 0.91371 0.48436 0.0
C707 C 0.26436 0.87825 0.48911 0.0
C708 C 0.25454 0.85077 0.4869 0.0
C709 C 0.29059 0.88625 0.48246 0.0
C710 C 0.27159 0.83118 0.4784 0.0
C711 C 0.29755 0.83901 0.47166 0.0
H712 H 0.16425 0.83887 0.71323 0.0
H713 H 0.0751 0.82655 0.7187 0.0
H714 H 0.0834 0.78147 0.73248 0.0
H715 H 0.11575 0.74376 0.7408 0.0
H716 H 0.20457 0.7546 0.73317 0.0
H717 H 0.19658 0.80182 0.72219 0.0
C718 C 0.14656 0.82631 0.71733 0.0
C719 C 0.11905 0.83617 0.71474 0.0
C720 C 0.15143 0.79998 0.72476 0.0
C721 C 0.09652 0.81979 0.72063 0.0
C722 C 0.10123 0.79382 0.72839 0.0
C723 C 0.13338 0.7566 0.73692 0.0
C724 C 0.16072 0.7457 0.73778 0.0
C725 C 0.12856 0.78348 0.73023 0.0
C726 C 0.18333 0.76248 0.73259 0.0
C727 C 0.17876 0.78947 0.72629 0.0
H728 H 0.66742 0.3581 0.79688 0.0
H729 H 0.67526 0.43934 0.77317 0.0
H730 H 0.71855 0.42459 0.759 0.0
H731 H 0.75505 0.38904 0.75411 0.0
H732 H 0.74665 0.30781 0.77773 0.0
H733 H 0.70237 0.32197 0.79083 0.0
C734 C 0.67827 0.37248 0.78837 0.0
C735 C 0.66802 0.39984 0.78614 0.0
C736 C 0.70308 0.36385 0.78022 0.0
C737 C 0.6828 0.41829 0.77533 0.0
C738 C 0.70751 0.40983 0.76714 0.0
C739 C 0.74339 0.37437 0.762 0.0
C740 C 0.75417 0.34742 0.76497 0.0
C741 C 0.71799 0.38273 0.76962 0.0
C742 C 0.73884 0.32867 0.77524 0.0
C743 C 0.71353 0.33678 0.78278 0.0
H744 H 0.64585 0.15393 0.04018 0.0
H745 H 0.55777 0.16789 0.03104 0.0
H746 H 0.56846 0.21204 0.01669 0.0
H747 H 0.6026 0.24803 0.00832 0.0
H748 H 0.69066 0.23374 0.01721 0.0
H749 H 0.6802 0.18803 0.02968 0.0
C750 C 0.62899 0.16629 0.03474 0.0
C751 C 0.601 0.1576 0.03684 0.0
C752 C 0.63528 0.19165 0.02647 0.0
C753 C 0.57946 0.17423 0.0299 0.0
C754 C 0.58556 0.19945 0.02162 0.0
C755 C 0.61953 0.23477 0.01281 0.0
C756 C 0.64735 0.24434 0.01193 0.0
C757 C 0.61335 0.2086 0.0201 0.0
C758 C 0.66906 0.22689 0.01775 0.0
C759 C 0.66309 0.20078 0.02494 0.0
H760 H 0.84855 0.15627 0.29841 0.0
H761 H 0.83936 0.0706 0.28193 0.0
H762 H 0.79429 0.08183 0.26871 0.0
H763 H 0.75673 0.11564 0.2627 0.0
H764 H 0.76645 0.20141 0.27878 0.0
H765 H 0.81235 0.19055 0.291 0.0
C766 C 0.83698 0.14012 0.29165 0.0
C767 C 0.84737 0.11259 0.29123 0.0
C768 C 0.81113 0.14673 0.28403 0.0
C769 C 0.83173 0.09188 0.28267 0.0
C770 C 0.80599 0.0983 0.27504 0.0
C771 C 0.76897 0.13198 0.2688 0.0
C772 C 0.75814 0.15926 0.26991 0.0
C773 C 0.79534 0.12558 0.27582 0.0
C774 C 0.77429 0.18024 0.27778 0.0
C775 C 0.80052 0.17404 0.2848 0.0
H776 H 0.90818 0.32439 0.54674 0.0
H777 H 0.84088 0.3679 0.52102 0.0
H778 H 0.82225 0.32339 0.51054 0.0
H779 H 0.8247 0.27177 0.50921 0.0
H780 H 0.89321 0.22928 0.5344 0.0
H781 H 0.91191 0.2738 0.54433 0.0
C782 C 0.88977 0.32431 0.53853 0.0
C783 C 0.87606 0.34956 0.53463 0.0
C784 C 0.87928 0.29875 0.53252 0.0
C785 C 0.85177 0.3488 0.52435 0.0
C786 C 0.84113 0.32335 0.51832 0.0
C787 C 0.84371 0.27233 0.51687 0.0
C788 C 0.85747 0.24726 0.52112 0.0
C789 C 0.85457 0.29814 0.52246 0.0
C790 C 0.8822 0.24827 0.53095 0.0
C791 C 0.89294 0.27373 0.53665 0.0
H792 H 0.65595 0.16409 0.45838 0.0
H793 H 0.65634 0.0791 0.47698 0.0
H794 H 0.70149 0.08704 0.491 0.0
H795 H 0.74169 0.11757 0.49703 0.0
H796 H 0.7414 0.20249 0.47833 0.0
H797 H 0.69513 0.19527 0.46557 0.0
C798 C 0.66567 0.14743 0.46574 0.0
C799 C 0.65276 0.12101 0.46658 0.0
C800 C 0.69167 0.15212 0.47373 0.0
C801 C 0.66595 0.09953 0.47593 0.0
C802 C 0.69172 0.10408 0.48401 0.0
C803 C 0.7314 0.13457 0.49028 0.0
C804 C 0.745 0.16051 0.4886 0.0
C805 C 0.70492 0.13019 0.48284 0.0
C806 C 0.7314 0.18231 0.4798 0.0
C807 C 0.70497 0.17818 0.47247 0.0
H808 H 0.86059 0.15219 0.70833 0.0
H809 H 0.94813 0.16878 0.71755 0.0
H810 H 0.93624 0.214 0.73031 0.0
H811 H 0.90097 0.24957 0.73797 0.0
H812 H 0.81354 0.23266 0.72853 0.0
H813 H 0.82538 0.18669 0.71703 0.0
C814 C 0.87707 0.16546 0.71338 0.0
C815 C 0.90523 0.15704 0.71196 0.0
C816 C 0.8701 0.19145 0.72066 0.0
C817 C 0.92631 0.17484 0.7183 0.0
C818 C 0.91952 0.20067 0.72566 0.0
C819 C 0.88451 0.23573 0.73352 0.0
C820 C 0.85642 0.24458 0.73409 0.0
C821 C 0.8915 0.20932 0.72675 0.0
C822 C 0.83534 0.22641 0.72822 0.0
C823 C 0.84209 0.2001 0.72161 0.0
H824 H 0.81295 0.4315 0.97242 0.0
H825 H 0.84829 0.35404 0.95418 0.0
H826 H 0.80915 0.32812 0.9668 0.0
H827 H 0.76241 0.32811 0.98049 0.0
H828 H 0.7272 0.40605 0.99826 0.0
H829 H 0.76862 0.43105 0.98836 0.0
C830 C 0.81219 0.40891 0.97136 0.0
C831 C 0.83333 0.39473 0.96227 0.0
C832 C 0.78946 0.39423 0.97841 0.0
C833 C 0.83234 0.36543 0.96121 0.0
C834 C 0.80984 0.35062 0.96829 0.0
C835 C 0.76399 0.35051 0.98237 0.0
C836 C 0.74161 0.36522 0.98993 0.0
C837 C 0.7879 0.36488 0.97654 0.0
C838 C 0.74402 0.39422 0.99238 0.0
C839 C 0.76771 0.40859 0.9867 0.0
H840 H 0.66244 0.34993 0.20944 0.0
H841 H 0.57445 0.33784 0.22006 0.0
H842 H 0.58483 0.29371 0.23434 0.0
H843 H 0.61832 0.25686 0.24201 0.0
H844 H 0.70575 0.2671 0.22947 0.0
H845 H 0.69604 0.31336 0.21746 0.0
C846 C 0.64545 0.33762 0.21477 0.0
C847 C 0.61765 0.34735 0.21356 0.0
C848 C 0.65144 0.31175 0.2225 0.0
C849 C 0.59609 0.33127 0.22097 0.0
C850 C 0.60196 0.30581 0.22901 0.0
C851 C 0.63529 0.26932 0.23677 0.0
C852 C 0.6627 0.25857 0.2366 0.0
C853 C 0.62948 0.29564 0.2296 0.0
C854 C 0.68445 0.27488 0.2297 0.0
C855 C 0.67891 0.30133 0.22283 0.0
H856 H 0.13064 0.86454 0.38928 0.0
H857 H 0.06334 0.91382 0.41034 0.0
H858 H 0.07661 0.89972 0.43972 0.0
H859 H 0.10828 0.87409 0.45936 0.0
H860 H 0.17378 0.82263 0.43787 0.0
H861 H 0.1603 0.83669 0.40871 0.0
C862 C 0.11893 0.87209 0.40036 0.0
C863 C 0.09627 0.8903 0.39782 0.0
C864 C 0.12636 0.86349 0.41707 0.0
C865 C 0.08089 0.89977 0.41212 0.0
C866 C 0.08851 0.89176 0.42886 0.0
C867 C 0.11948 0.86591 0.44827 0.0
C868 C 0.14207 0.84749 0.45074 0.0
C869 C 0.11132 0.87375 0.43149 0.0
C870 C 0.15628 0.8368 0.43628 0.0
C871 C 0.14865 0.84489 0.41961 0.0
H872 H 0.09639 0.61948 0.64654 0.0
H873 H 0.16229 0.55773 0.64371 0.0
H874 H 0.17975 0.57266 0.67178 0.0
H875 H 0.1761 0.60292 0.69746 0.0
H876 H 0.10735 0.66099 0.70145 0.0
H877 H 0.09077 0.64721 0.67282 0.0
C878 C 0.11424 0.6088 0.6521 0.0
C879 C 0.12798 0.58754 0.64277 0.0
C880 C 0.12365 0.61676 0.66857 0.0
C881 C 0.15154 0.57459 0.65026 0.0
C882 C 0.16145 0.58292 0.66645 0.0
C883 C 0.15748 0.6125 0.69202 0.0
C884 C 0.14301 0.633 0.70146 0.0
C885 C 0.1477 0.60401 0.67571 0.0
C886 C 0.11877 0.64509 0.69441 0.0
C887 C 0.10933 0.63727 0.67804 0.0
H888 H 0.42113 0.66243 0.89874 0.0
H889 H 0.41087 0.57336 0.90552 0.0
H890 H 0.39536 0.58078 0.93507 0.0
H891 H 0.38241 0.61242 0.95864 0.0
H892 H 0.38749 0.70149 0.95105 0.0
H893 H 0.40683 0.69421 0.92206 0.0
C894 C 0.41523 0.64459 0.90655 0.0
C895 C 0.41744 0.61733 0.89976 0.0
C896 C 0.40527 0.649 0.92342 0.0
C897 C 0.41011 0.59456 0.91036 0.0
C898 C 0.40093 0.59877 0.92728 0.0
C899 C 0.38803 0.63022 0.95069 0.0
C900 C 0.38379 0.65743 0.95695 0.0
C901 C 0.39825 0.62587 0.9339 0.0
C902 C 0.39065 0.68034 0.94645 0.0
C903 C 0.40166 0.67617 0.9299 0.0
H904 H 0.37524 0.86437 0.14785 0.0
H905 H 0.40303 0.94274 0.16923 0.0
H906 H 0.38877 0.92751 0.19818 0.0
H907 H 0.3687 0.89143 0.21741 0.0
H908 H 0.33953 0.81386 0.1954 0.0
H909 H 0.35403 0.8292 0.16674 0.0
C910 C 0.37832 0.87801 0.15889 0.0
C911 C 0.39037 0.90449 0.1565 0.0
C912 C 0.36976 0.86927 0.17536 0.0
C913 C 0.39376 0.92225 0.17081 0.0
C914 C 0.38567 0.91352 0.18733 0.0
C915 C 0.36549 0.87796 0.20632 0.0
C916 C 0.35312 0.85153 0.20854 0.0
C917 C 0.37366 0.88703 0.18977 0.0
C918 C 0.34894 0.83433 0.19405 0.0
C919 C 0.35729 0.84304 0.17764 0.0
H920 H 0.10003 0.57137 0.84095 0.0
H921 H 0.11859 0.6481 0.86784 0.0
H922 H 0.13292 0.66992 0.84071 0.0
H923 H 0.14214 0.66657 0.80955 0.0
H924 H 0.12345 0.58992 0.78258 0.0
H925 H 0.10724 0.56871 0.8095 0.0
C926 C 0.10725 0.59285 0.84084 0.0
C927 C 0.10834 0.60806 0.85638 0.0
C928 C 0.11547 0.60527 0.8252 0.0
C929 C 0.11734 0.63602 0.85603 0.0
C930 C 0.12567 0.64847 0.84054 0.0
C931 C 0.13432 0.6453 0.80955 0.0
C932 C 0.13411 0.62981 0.79412 0.0
C933 C 0.12506 0.63322 0.82507 0.0
C934 C 0.12383 0.6023 0.7943 0.0
C935 C 0.11463 0.59012 0.80969 0.0
H936 H 0.41034 0.57919 0.09795 0.0
H937 H 0.33354 0.60733 0.12167 0.0
H938 H 0.31818 0.62711 0.09421 0.0
H939 H 0.32709 0.63772 0.06364 0.0
H940 H 0.40457 0.61104 0.04017 0.0
H941 H 0.41923 0.58971 0.06738 0.0
C942 C 0.39033 0.58982 0.09715 0.0
C943 C 0.37315 0.5917 0.11188 0.0
C944 C 0.38175 0.60151 0.08137 0.0
C945 C 0.34705 0.60518 0.11051 0.0
C946 C 0.3383 0.61669 0.09483 0.0
C947 C 0.34713 0.62713 0.06447 0.0
C948 C 0.36471 0.62596 0.04992 0.0
C949 C 0.35553 0.6151 0.0802 0.0
C950 C 0.39065 0.61224 0.0512 0.0
C951 C 0.39906 0.60005 0.06676 0.0
H952 H 0.37134 0.87493 0.3652 0.0
H953 H 0.44845 0.90629 0.34379 0.0
H954 H 0.43543 0.88812 0.31524 0.0
H955 H 0.40129 0.86406 0.29629 0.0
H956 H 0.3252 0.83126 0.31852 0.0
H957 H 0.33858 0.84924 0.34679 0.0
C958 C 0.38522 0.87782 0.35424 0.0
C959 C 0.41064 0.89211 0.35648 0.0
C960 C 0.37776 0.86706 0.33803 0.0
C961 C 0.42876 0.89532 0.34232 0.0
C962 C 0.42128 0.88501 0.32602 0.0
C963 C 0.38773 0.86083 0.30735 0.0
C964 C 0.36224 0.84646 0.30529 0.0
C965 C 0.39573 0.87096 0.3237 0.0
C966 C 0.34495 0.84221 0.31975 0.0
C967 C 0.35254 0.85254 0.33593 0.0
H968 H 0.08903 0.90421 0.59263 0.0
H969 H 0.17367 0.9129 0.6114 0.0
H970 H 0.19184 0.89556 0.58395 0.0
H971 H 0.1837 0.87558 0.55516 0.0
H972 H 0.09915 0.86668 0.5363 0.0
H973 H 0.08096 0.88629 0.56322 0.0
C974 C 0.11145 0.90233 0.59068 0.0
C975 C 0.12994 0.90981 0.60406 0.0
C976 C 0.12178 0.89216 0.57488 0.0
C977 C 0.15896 0.90761 0.60126 0.0
C978 C 0.16938 0.89749 0.5856 0.0
C979 C 0.1613 0.87809 0.55691 0.0
C980 C 0.1428 0.86955 0.5438 0.0
C981 C 0.15099 0.88939 0.5724 0.0
C982 C 0.11384 0.87307 0.5462 0.0
C983 C 0.10341 0.88424 0.56161 0.0
H984 H 0.59965 0.35524 0.89194 0.0
H985 H 0.5952 0.44108 0.90852 0.0
H986 H 0.6079 0.42729 0.93795 0.0
H987 H 0.6224 0.39106 0.95862 0.0
H988 H 0.63008 0.30563 0.94155 0.0
H989 H 0.61377 0.31887 0.91272 0.0
C990 C 0.60118 0.37081 0.90208 0.0
C991 C 0.59645 0.39909 0.89816 0.0
C992 C 0.60913 0.36279 0.91885 0.0
C993 C 0.59888 0.4192 0.91128 0.0
C994 C 0.60609 0.41132 0.92809 0.0
C995 C 0.6202 0.37532 0.94863 0.0
C996 C 0.62731 0.34741 0.95219 0.0
C997 C 0.61156 0.38322 0.93197 0.0
C998 C 0.62473 0.32726 0.93909 0.0
C999 C 0.61544 0.33482 0.92261 0.0
H1000 H 0.64599 0.08375 0.15374 0.0
H1001 H 0.57686 0.1415 0.14887 0.0
H1002 H 0.58811 0.16146 0.17694 0.0
H1003 H 0.6182 0.16351 0.20264 0.0
H1004 H 0.68972 0.10882 0.20639 0.0
H1005 H 0.67724 0.08712 0.17881 0.0
C1006 C 0.63355 0.10096 0.15864 0.0
C1007 C 0.61045 0.11086 0.1491 0.0
C1008 C 0.64063 0.11301 0.17461 0.0
C1009 C 0.59437 0.13289 0.15597 0.0
C1010 C 0.60093 0.14456 0.17201 0.0
C1011 C 0.63097 0.14675 0.19743 0.0
C1012 C 0.65473 0.13764 0.20654 0.0
C1013 C 0.62402 0.13483 0.18142 0.0
C1014 C 0.67132 0.11618 0.19958 0.0
C1015 C 0.66418 0.10377 0.18383 0.0
H1016 H 0.92741 0.14199 0.40812 0.0
H1017 H 0.86724 0.07624 0.39898 0.0
H1018 H 0.84648 0.08456 0.42728 0.0
H1019 H 0.84386 0.11197 0.45414 0.0
H1020 H 0.90141 0.18021 0.46207 0.0
H1021 H 0.9244 0.16975 0.43461 0.0
C1022 C 0.90956 0.12963 0.41217 0.0
C1023 C 0.89902 0.10849 0.40132 0.0
C1024 C 0.89714 0.13505 0.42826 0.0
C1025 C 0.87621 0.09235 0.40709 0.0
C1026 C 0.86412 0.09723 0.42325 0.0
C1027 C 0.86158 0.12437 0.44989 0.0
C1028 C 0.87101 0.14676 0.46009 0.0
C1029 C 0.87426 0.11866 0.43389 0.0
C1030 C 0.89377 0.16289 0.45439 0.0
C1031 C 0.90691 0.15692 0.4387 0.0
H1032 H 0.8903 0.42873 0.6576 0.0
H1033 H 0.87172 0.3535 0.62911 0.0
H1034 H 0.85497 0.33106 0.65547 0.0
H1035 H 0.8462 0.3325 0.68669 0.0
H1036 H 0.86563 0.40724 0.71544 0.0
H1037 H 0.88106 0.43031 0.6889 0.0
C1038 C 0.8824 0.4075 0.65717 0.0
C1039 C 0.88239 0.39276 0.64145 0.0
C1040 C 0.87287 0.39467 0.67241 0.0
C1041 C 0.87234 0.36516 0.6411 0.0
C1042 C 0.86259 0.35236 0.65615 0.0
C1043 C 0.85364 0.3539 0.68712 0.0
C1044 C 0.85471 0.36816 0.70297 0.0
C1045 C 0.86286 0.36687 0.67188 0.0
C1046 C 0.8646 0.39581 0.70337 0.0
C1047 C 0.87346 0.409 0.68821 0.0
H1048 H 0.58602 0.10452 0.34463 0.0
H1049 H 0.61057 0.18179 0.36904 0.0
H1050 H 0.63148 0.19784 0.34204 0.0
H1051 H 0.64417 0.18937 0.31178 0.0
H1052 H 0.62037 0.11189 0.28736 0.0
H1053 H 0.598 0.09638 0.31412 0.0
C1054 C 0.59607 0.12481 0.34405 0.0
C1055 C 0.59674 0.1419 0.35885 0.0
C1056 C 0.60826 0.13384 0.32851 0.0
C1057 C 0.60945 0.16834 0.35781 0.0
C1058 C 0.62158 0.17748 0.3424 0.0
C1059 C 0.634 0.16913 0.31229 0.0
C1060 C 0.63399 0.15178 0.29764 0.0
C1061 C 0.62126 0.16034 0.32771 0.0
C1062 C 0.62068 0.12563 0.29849 0.0
C1063 C 0.60791 0.11674 0.31378 0.0
H1064 H 0.85317 0.10544 0.61284 0.0
H1065 H 0.92748 0.0679 0.59119 0.0
H1066 H 0.91357 0.08329 0.56235 0.0
H1067 H 0.88114 0.10889 0.5434 0.0
H1068 H 0.80704 0.14667 0.56514 0.0
H1069 H 0.81974 0.1292 0.59374 0.0
C1070 C 0.86613 0.10026 0.60178 0.0
C1071 C 0.8914 0.08562 0.60421 0.0
C1072 C 0.85802 0.10918 0.58523 0.0
C1073 C 0.90814 0.07949 0.58975 0.0
C1074 C 0.90012 0.08815 0.57322 0.0
C1075 C 0.86763 0.11305 0.55437 0.0
C1076 C 0.84321 0.12908 0.55215 0.0
C1077 C 0.87525 0.10325 0.57083 0.0
C1078 C 0.82598 0.1344 0.5665 0.0
C1079 C 0.83325 0.12447 0.58287 0.0
H1080 H 0.91866 0.41319 0.83664 0.0
H1081 H 0.87449 0.35293 0.86783 0.0
H1082 H 0.86049 0.32745 0.84187 0.0
H1083 H 0.85776 0.32439 0.81022 0.0
H1084 H 0.90202 0.38456 0.77897 0.0
H1085 H 0.91918 0.40783 0.80499 0.0
C1086 C 0.9061 0.39439 0.83771 0.0
C1087 C 0.89747 0.38504 0.85409 0.0
C1088 C 0.89808 0.37987 0.82273 0.0
C1089 C 0.88153 0.36044 0.85536 0.0
C1090 C 0.87339 0.34595 0.84052 0.0
C1091 C 0.87146 0.34238 0.80912 0.0
C1092 C 0.87843 0.35287 0.79271 0.0
C1093 C 0.88113 0.35575 0.82413 0.0
C1094 C 0.89631 0.3761 0.79147 0.0
C1095 C 0.90604 0.3895 0.80634 0.0
H1096 H 0.61983 0.36978 0.10913 0.0
H1097 H 0.58138 0.44298 0.08709 0.0
H1098 H 0.5936 0.42683 0.05794 0.0
H1099 H 0.61627 0.39211 0.03886 0.0
H1100 H 0.65756 0.32078 0.06149 0.0
H1101 H 0.64315 0.33583 0.09029 0.0
C1102 C 0.61394 0.38201 0.0979 0.0
C1103 C 0.59953 0.40731 0.10012 0.0
C1104 C 0.62164 0.37295 0.08134 0.0
C1105 C 0.59244 0.42337 0.08558 0.0
C1106 C 0.59941 0.41414 0.06897 0.0
C1107 C 0.62196 0.37987 0.05012 0.0
C1108 C 0.63786 0.35536 0.0481 0.0
C1109 C 0.61415 0.38901 0.0667 0.0
C1110 C 0.6454 0.33978 0.06276 0.0
C1111 C 0.63714 0.34833 0.07921 0.0
loop_
_geom_bond_atom_site_label_1
_geom_bond_atom_site_label_2
_geom_bond_distance
_geom_bond_site_symmetry_2
_ccdc_geom_bond_type
H0 C27 0.929 . S
N1 C26 1.433 . S
N1 C32 1.435 . S
N1 C38 1.423 . S
H2 C28 0.930 . S
H3 C31 0.931 . S
H4 C30 0.929 . S
H5 C33 0.930 . S
H6 C34 0.932 . S
H7 C37 0.929 . S
H8 C36 0.931 . S
H9 C39 0.929 . S
H10 C43 0.932 . S
H11 C40 0.931 . S
H12 C42 0.929 . S
H13 C45 0.929 . S
H14 C46 0.930 . S
H15 C48 0.929 . S
H16 C49 0.931 . S
H17 C51 0.930 . S
H18 C52 0.932 . S
H19 C54 0.931 . S
H20 C55 0.929 . S
H21 C57 0.929 . S
H22 C58 0.931 1_455 S
H23 C60 0.929 . S
N24 C44 1.433 . S
N24 C50 1.435 . S
N24 C56 1.423 . S
H25 C61 0.932 . S
C26 N1 1.433 . S
C26 C27 1.363 . S
C26 C31 1.370 . S
C27 H0 0.929 . S
C27 C26 1.363 . S
C27 C28 1.385 . S
C28 H2 0.930 . S
C28 C27 1.385 . S
C28 C29 1.357 . S
C29 C28 1.357 . S
C29 C30 1.406 . S
C30 H4 0.929 . S
C30 C29 1.406 . S
C30 C31 1.391 . S
C31 H3 0.931 . S
C31 C26 1.370 . S
C31 C30 1.391 . S
C32 N1 1.435 . S
C32 C33 1.358 . S
C32 C37 1.371 . S
C33 H5 0.930 . S
C33 C32 1.358 . S
C33 C34 1.405 . S
C34 H6 0.932 . S
C34 C33 1.405 . S
C34 C35 1.383 . S
C35 C34 1.383 . S
C35 C36 1.393 . S
C36 H8 0.931 . S
C36 C35 1.393 . S
C36 C37 1.382 . S
C37 H7 0.929 . S
C37 C32 1.371 . S
C37 C36 1.382 . S
C38 N1 1.423 . S
C38 C39 1.362 . S
C38 C43 1.388 . S
C39 H9 0.929 . S
C39 C38 1.362 . S
C39 C40 1.376 1_565 S
C40 H11 0.931 . S
C40 C39 1.376 1_545 S
C40 C41 1.396 . S
C41 C40 1.396 . S
C41 C42 1.348 1_545 S
C41 C59 1.472 . S
C42 H12 0.929 . S
C42 C41 1.348 1_565 S
C42 C43 1.443 . S
C43 H10 0.932 . S
C43 C38 1.388 . S
C43 C42 1.443 . S
C44 N24 1.433 . S
C44 C45 1.363 . S
C44 C49 1.370 . S
C45 H13 0.929 . S
C45 C44 1.363 . S
C45 C46 1.385 . S
C46 H14 0.930 . S
C46 C45 1.385 . S
C46 C47 1.357 . S
C47 C46 1.357 . S
C47 C48 1.406 . S
C48 H15 0.929 . S
C48 C47 1.406 . S
C48 C49 1.391 . S
C49 H16 0.931 . S
C49 C44 1.370 . S
C49 C48 1.391 . S
C50 N24 1.435 . S
C50 C51 1.358 . S
C50 C55 1.371 . S
C51 H17 0.930 . S
C51 C50 1.358 . S
C51 C52 1.405 . S
C52 H18 0.932 . S
C52 C51 1.405 . S
C52 C53 1.383 . S
C53 C52 1.383 . S
C53 C54 1.393 . S
C54 H19 0.931 . S
C54 C53 1.393 . S
C54 C55 1.382 . S
C55 H20 0.929 . S
C55 C50 1.371 . S
C55 C54 1.382 . S
C56 N24 1.423 . S
C56 C57 1.362 . S
C56 C61 1.388 . S
C57 H21 0.929 . S
C57 C56 1.362 . S
C57 C58 1.376 . S
C58 H22 0.931 1_655 S
C58 C57 1.376 . S
C58 C59 1.396 1_655 S
C59 C41 1.472 . S
C59 C58 1.396 1_455 S
C59 C60 1.348 1_455 S
C60 H23 0.929 . S
C60 C59 1.348 1_655 S
C60 C61 1.443 . S
C61 H25 0.932 . S
C61 C56 1.388 . S
C61 C60 1.443 . S
H62 C89 0.929 . S
N63 C88 1.433 . S
N63 C94 1.435 . S
N63 C100 1.423 . S
H64 C90 0.930 . S
H65 C93 0.931 . S
H66 C92 0.929 . S
H67 C95 0.930 . S
H68 C96 0.932 . S
H69 C99 0.929 . S
H70 C98 0.931 . S
H71 C101 0.929 . S
H72 C105 0.932 . S
H73 C102 0.931 . S
H74 C104 0.929 . S
H75 C107 0.929 . S
H76 C108 0.930 . S
H77 C110 0.929 . S
H78 C111 0.931 . S
H79 C113 0.930 . S
H80 C114 0.932 . S
H81 C116 0.931 . S
H82 C117 0.929 . S
H83 C119 0.929 . S
H84 C120 0.931 . S
H85 C122 0.929 . S
N86 C106 1.433 . S
N86 C112 1.435 . S
N86 C118 1.423 . S
H87 C123 0.932 . S
C88 N63 1.433 . S
C88 C89 1.363 . S
C88 C93 1.370 . S
C89 H62 0.929 . S
C89 C88 1.363 . S
C89 C90 1.385 . S
C90 H64 0.930 . S
C90 C89 1.385 . S
C90 C91 1.357 . S
C91 C90 1.357 . S
C91 C92 1.406 . S
C92 H66 0.929 . S
C92 C91 1.406 . S
C92 C93 1.391 . S
C93 H65 0.931 . S
C93 C88 1.370 . S
C93 C92 1.391 . S
C94 N63 1.435 . S
C94 C95 1.358 . S
C94 C99 1.371 . S
C95 H67 0.930 . S
C95 C94 1.358 . S
C95 C96 1.405 . S
C96 H68 0.932 . S
C96 C95 1.405 . S
C96 C97 1.383 . S
C97 C96 1.383 . S
C97 C98 1.393 . S
C98 H70 0.931 . S
C98 C97 1.393 . S
C98 C99 1.382 . S
C99 H69 0.929 . S
C99 C94 1.371 . S
C99 C98 1.382 . S
C100 N63 1.423 . S
C100 C101 1.362 . S
C100 C105 1.388 . S
C101 H71 0.929 . S
C101 C100 1.362 . S
C101 C102 1.376 1_655 S
C102 H73 0.931 . S
C102 C101 1.376 1_455 S
C102 C103 1.396 . S
C103 C102 1.396 . S
C103 C104 1.348 1_455 S
C103 C121 1.472 . S
C104 H74 0.929 . S
C104 C103 1.348 1_655 S
C104 C105 1.443 . S
C105 H72 0.932 . S
C105 C100 1.388 . S
C105 C104 1.443 . S
C106 N86 1.433 . S
C106 C107 1.363 . S
C106 C111 1.370 . S
C107 H75 0.929 . S
C107 C106 1.363 . S
C107 C108 1.385 . S
C108 H76 0.930 . S
C108 C107 1.385 . S
C108 C109 1.357 . S
C109 C108 1.357 . S
C109 C110 1.406 . S
C110 H77 0.929 . S
C110 C109 1.406 . S
C110 C111 1.391 . S
C111 H78 0.931 . S
C111 C106 1.370 . S
C111 C110 1.391 . S
C112 N86 1.435 . S
C112 C113 1.358 . S
C112 C117 1.371 . S
C113 H79 0.930 . S
C113 C112 1.358 . S
C113 C114 1.405 . S
C114 H80 0.932 . S
C114 C113 1.405 . S
C114 C115 1.383 . S
C115 C114 1.383 . S
C115 C116 1.393 . S
C116 H81 0.931 . S
C116 C115 1.393 . S
C116 C117 1.382 . S
C117 H82 0.929 . S
C117 C112 1.371 . S
C117 C116 1.382 . S
C118 N86 1.423 . S
C118 C119 1.362 . S
C118 C123 1.388 . S
C119 H83 0.929 . S
C119 C118 1.362 . S
C119 C120 1.376 . S
C120 H84 0.931 . S
C120 C119 1.376 . S
C120 C121 1.396 . S
C121 C103 1.472 . S
C121 C120 1.396 . S
C121 C122 1.348 . S
C122 H85 0.929 . S
C122 C121 1.348 . S
C122 C123 1.443 . S
C123 H87 0.932 . S
C123 C118 1.388 . S
C123 C122 1.443 . S
H124 C151 0.929 . S
N125 C150 1.433 . S
N125 C156 1.435 . S
N125 C162 1.423 . S
H126 C152 0.930 . S
H127 C155 0.931 . S
H128 C154 0.929 . S
H129 C157 0.930 . S
H130 C158 0.932 . S
H131 C161 0.929 . S
H132 C160 0.931 . S
H133 C163 0.929 . S
H134 C167 0.932 . S
H135 C164 0.931 . S
H136 C166 0.929 . S
H137 C169 0.929 . S
H138 C170 0.930 . S
H139 C172 0.929 . S
H140 C173 0.931 . S
H141 C175 0.930 . S
H142 C176 0.932 . S
H143 C178 0.931 . S
H144 C179 0.929 . S
H145 C181 0.929 . S
H146 C182 0.931 . S
H147 C184 0.929 . S
N148 C168 1.433 . S
N148 C174 1.435 . S
N148 C180 1.423 . S
H149 C185 0.932 . S
C150 N125 1.433 . S
C150 C151 1.363 . S
C150 C155 1.370 . S
C151 H124 0.929 . S
C151 C150 1.363 . S
C151 C152 1.385 . S
C152 H126 0.930 . S
C152 C151 1.385 . S
C152 C153 1.357 . S
C153 C152 1.357 . S
C153 C154 1.406 . S
C154 H128 0.929 . S
C154 C153 1.406 . S
C154 C155 1.391 . S
C155 H127 0.931 . S
C155 C150 1.370 . S
C155 C154 1.391 . S
C156 N125 1.435 . S
C156 C157 1.358 . S
C156 C161 1.371 . S
C157 H129 0.930 . S
C157 C156 1.358 . S
C157 C158 1.405 . S
C158 H130 0.932 . S
C158 C157 1.405 . S
C158 C159 1.383 . S
C159 C158 1.383 . S
C159 C160 1.393 . S
C160 H132 0.931 . S
C160 C159 1.393 . S
C160 C161 1.382 . S
C161 H131 0.929 . S
C161 C156 1.371 . S
C161 C160 1.382 . S
C162 N125 1.423 . S
C162 C163 1.362 . S
C162 C167 1.388 . S
C163 H133 0.929 . S
C163 C162 1.362 . S
C163 C164 1.376 . S
C164 H135 0.931 . S
C164 C163 1.376 . S
C164 C165 1.396 . S
C165 C164 1.396 . S
C165 C166 1.348 . S
C165 C183 1.472 . S
C166 H136 0.929 . S
C166 C165 1.348 . S
C166 C167 1.443 . S
C167 H134 0.932 . S
C167 C162 1.388 . S
C167 C166 1.443 . S
C168 N148 1.433 . S
C168 C169 1.363 . S
C168 C173 1.370 . S
C169 H137 0.929 . S
C169 C168 1.363 . S
C169 C170 1.385 . S
C170 H138 0.930 . S
C170 C169 1.385 . S
C170 C171 1.357 . S
C171 C170 1.357 . S
C171 C172 1.406 . S
C172 H139 0.929 . S
C172 C171 1.406 . S
C172 C173 1.391 . S
C173 H140 0.931 . S
C173 C168 1.370 . S
C173 C172 1.391 . S
C174 N148 1.435 . S
C174 C175 1.358 . S
C174 C179 1.371 . S
C175 H141 0.930 . S
C175 C174 1.358 . S
C175 C176 1.405 . S
C176 H142 0.932 . S
C176 C175 1.405 . S
C176 C177 1.383 . S
C177 C176 1.383 . S
C177 C178 1.393 . S
C178 H143 0.931 . S
C178 C177 1.393 . S
C178 C179 1.382 . S
C179 H144 0.929 . S
C179 C174 1.371 . S
C179 C178 1.382 . S
C180 N148 1.423 . S
C180 C181 1.362 . S
C180 C185 1.388 . S
C181 H145 0.929 . S
C181 C180 1.362 . S
C181 C182 1.376 . S
C182 H146 0.931 . S
C182 C181 1.376 . S
C182 C183 1.396 . S
C183 C165 1.472 . S
C183 C182 1.396 . S
C183 C184 1.348 . S
C184 H147 0.929 . S
C184 C183 1.348 . S
C184 C185 1.443 . S
C185 H149 0.932 . S
C185 C180 1.388 . S
C185 C184 1.443 . S
H186 C213 0.929 . S
N187 C212 1.433 . S
N187 C218 1.435 . S
N187 C224 1.423 . S
H188 C214 0.930 . S
H189 C217 0.931 . S
H190 C216 0.929 . S
H191 C219 0.930 . S
H192 C220 0.932 . S
H193 C223 0.929 . S
H194 C222 0.931 . S
H195 C225 0.929 . S
H196 C229 0.932 . S
H197 C226 0.931 . S
H198 C228 0.929 . S
H199 C231 0.929 . S
H200 C232 0.930 . S
H201 C234 0.929 . S
H202 C235 0.931 . S
H203 C237 0.930 . S
H204 C238 0.932 . S
H205 C240 0.931 . S
H206 C241 0.929 . S
H207 C243 0.929 . S
H208 C244 0.931 1_565 S
H209 C246 0.929 . S
N210 C230 1.433 . S
N210 C236 1.435 . S
N210 C242 1.423 . S
H211 C247 0.932 . S
C212 N187 1.433 . S
C212 C213 1.363 . S
C212 C217 1.370 . S
C213 H186 0.929 . S
C213 C212 1.363 . S
C213 C214 1.385 . S
C214 H188 0.930 . S
C214 C213 1.385 . S
C214 C215 1.357 . S
C215 C214 1.357 . S
C215 C216 1.406 . S
C216 H190 0.929 . S
C216 C215 1.406 . S
C216 C217 1.391 . S
C217 H189 0.931 . S
C217 C212 1.370 . S
C217 C216 1.391 . S
C218 N187 1.435 . S
C218 C219 1.358 . S
C218 C223 1.371 . S
C219 H191 0.930 . S
C219 C218 1.358 . S
C219 C220 1.405 . S
C220 H192 0.932 . S
C220 C219 1.405 . S
C220 C221 1.383 . S
C221 C220 1.383 . S
C221 C222 1.393 . S
C222 H194 0.931 . S
C222 C221 1.393 . S
C222 C223 1.382 . S
C223 H193 0.929 . S
C223 C218 1.371 . S
C223 C222 1.382 . S
C224 N187 1.423 . S
C224 C225 1.362 . S
C224 C229 1.388 . S
C225 H195 0.929 . S
C225 C224 1.362 . S
C225 C226 1.376 . S
C226 H197 0.931 . S
C226 C225 1.376 . S
C226 C227 1.396 . S
C227 C226 1.396 . S
C227 C228 1.348 . S
C227 C245 1.444 1_565 S
C228 H198 0.929 . S
C228 C227 1.348 . S
C228 C229 1.443 . S
C229 H196 0.932 . S
C229 C224 1.388 . S
C229 C228 1.443 . S
C230 N210 1.433 . S
C230 C231 1.363 . S
C230 C235 1.370 . S
C231 H199 0.929 . S
C231 C230 1.363 . S
C231 C232 1.385 . S
C232 H200 0.930 . S
C232 C231 1.385 . S
C232 C233 1.357 . S
C233 C232 1.357 . S
C233 C234 1.406 . S
C234 H201 0.929 . S
C234 C233 1.406 . S
C234 C235 1.391 . S
C235 H202 0.931 . S
C235 C230 1.370 . S
C235 C234 1.391 . S
C236 N210 1.435 . S
C236 C237 1.358 . S
C236 C241 1.371 . S
C237 H203 0.930 . S
C237 C236 1.358 . S
C237 C238 1.405 . S
C238 H204 0.932 . S
C238 C237 1.405 . S
C238 C239 1.383 . S
C239 C238 1.383 . S
C239 C240 1.393 . S
C240 H205 0.931 . S
C240 C239 1.393 . S
C240 C241 1.382 . S
C241 H206 0.929 . S
C241 C236 1.371 . S
C241 C240 1.382 . S
C242 N210 1.423 . S
C242 C243 1.362 . S
C242 C247 1.388 . S
C243 H207 0.929 . S
C243 C242 1.362 . S
C243 C244 1.376 . S
C244 H208 0.931 1_545 S
C244 C243 1.376 . S
C244 C245 1.400 . S
C245 C227 1.444 1_545 S
C245 C244 1.400 . S
C245 C246 1.375 . S
C246 H209 0.929 . S
C246 C245 1.375 . S
C246 C247 1.443 . S
C247 H211 0.932 . S
C247 C242 1.388 . S
C247 C246 1.443 . S
H248 C275 0.929 . S
N249 C274 1.433 . S
N249 C280 1.435 . S
N249 C286 1.423 . S
H250 C276 0.930 . S
H251 C279 0.931 . S
H252 C278 0.929 . S
H253 C281 0.930 . S
H254 C282 0.932 . S
H255 C285 0.929 . S
H256 C284 0.931 . S
H257 C287 0.929 . S
H258 C291 0.932 . S
H259 C288 0.931 . S
H260 C290 0.929 . S
H261 C293 0.929 . S
H262 C294 0.930 . S
H263 C296 0.929 . S
H264 C297 0.931 . S
H265 C299 0.930 . S
H266 C300 0.932 . S
H267 C302 0.931 . S
H268 C303 0.929 . S
H269 C305 0.929 . S
H270 C306 0.931 1_455 S
H271 C308 0.929 . S
N272 C292 1.433 . S
N272 C298 1.435 . S
N272 C304 1.423 . S
H273 C309 0.932 . S
C274 N249 1.433 . S
C274 C275 1.363 . S
C274 C279 1.370 . S
C275 H248 0.929 . S
C275 C274 1.363 . S
C275 C276 1.385 . S
C276 H250 0.930 . S
C276 C275 1.385 . S
C276 C277 1.357 . S
C277 C276 1.357 . S
C277 C278 1.406 . S
C278 H252 0.929 . S
C278 C277 1.406 . S
C278 C279 1.391 . S
C279 H251 0.931 . S
C279 C274 1.370 . S
C279 C278 1.391 . S
C280 N249 1.435 . S
C280 C281 1.358 . S
C280 C285 1.371 . S
C281 H253 0.930 . S
C281 C280 1.358 . S
C281 C282 1.405 . S
C282 H254 0.932 . S
C282 C281 1.405 . S
C282 C283 1.383 . S
C283 C282 1.383 . S
C283 C284 1.393 . S
C284 H256 0.931 . S
C284 C283 1.393 . S
C284 C285 1.382 . S
C285 H255 0.929 . S
C285 C280 1.371 . S
C285 C284 1.382 . S
C286 N249 1.423 . S
C286 C287 1.362 . S
C286 C291 1.388 . S
C287 H257 0.929 . S
C287 C286 1.362 . S
C287 C288 1.376 . S
C288 H259 0.931 . S
C288 C287 1.376 . S
C288 C289 1.396 . S
C289 C288 1.396 . S
C289 C290 1.348 . S
C289 C307 1.506 . S
C290 H260 0.929 . S
C290 C289 1.348 . S
C290 C291 1.443 . S
C291 H258 0.932 . S
C291 C286 1.388 . S
C291 C290 1.443 . S
C292 N272 1.433 . S
C292 C293 1.363 . S
C292 C297 1.370 . S
C293 H261 0.929 . S
C293 C292 1.363 . S
C293 C294 1.385 . S
C294 H262 0.930 . S
C294 C293 1.385 . S
C294 C295 1.357 . S
C295 C294 1.357 . S
C295 C296 1.406 . S
C296 H263 0.929 . S
C296 C295 1.406 . S
C296 C297 1.391 . S
C297 H264 0.931 . S
C297 C292 1.370 . S
C297 C296 1.391 . S
C298 N272 1.435 . S
C298 C299 1.358 . S
C298 C303 1.371 . S
C299 H265 0.930 . S
C299 C298 1.358 . S
C299 C300 1.405 . S
C300 H266 0.932 . S
C300 C299 1.405 . S
C300 C301 1.383 . S
C301 C300 1.383 . S
C301 C302 1.393 . S
C302 H267 0.931 . S
C302 C301 1.393 . S
C302 C303 1.382 . S
C303 H268 0.929 . S
C303 C298 1.371 . S
C303 C302 1.382 . S
C304 N272 1.423 . S
C304 C305 1.362 . S
C304 C309 1.388 . S
C305 H269 0.929 . S
C305 C304 1.362 . S
C305 C306 1.376 . S
C306 H270 0.931 1_655 S
C306 C305 1.376 . S
C306 C307 1.392 1_655 S
C307 C289 1.506 . S
C307 C306 1.392 1_455 S
C307 C308 1.316 1_455 S
C308 H271 0.929 . S
C308 C307 1.316 1_655 S
C308 C309 1.443 . S
C309 H273 0.932 . S
C309 C304 1.388 . S
C309 C308 1.443 . S
H310 C337 0.929 . S
N311 C336 1.433 . S
N311 C342 1.435 . S
N311 C348 1.423 . S
H312 C338 0.930 . S
H313 C341 0.931 . S
H314 C340 0.929 . S
H315 C343 0.930 . S
H316 C344 0.932 . S
H317 C347 0.929 . S
H318 C346 0.931 . S
H319 C349 0.929 . S
H320 C353 0.932 . S
H321 C350 0.931 . S
H322 C352 0.929 . S
H323 C355 0.929 . S
H324 C356 0.930 . S
H325 C358 0.929 . S
H326 C359 0.931 . S
H327 C361 0.930 . S
H328 C362 0.932 . S
H329 C364 0.931 . S
H330 C365 0.929 . S
H331 C367 0.929 . S
H332 C368 0.931 . S
H333 C370 0.929 . S
N334 C354 1.433 . S
N334 C360 1.435 . S
N334 C366 1.423 . S
H335 C371 0.932 . S
C336 N311 1.433 . S
C336 C337 1.363 . S
C336 C341 1.370 . S
C337 H310 0.929 . S
C337 C336 1.363 . S
C337 C338 1.385 . S
C338 H312 0.930 . S
C338 C337 1.385 . S
C338 C339 1.357 . S
C339 C338 1.357 . S
C339 C340 1.406 . S
C340 H314 0.929 . S
C340 C339 1.406 . S
C340 C341 1.391 . S
C341 H313 0.931 . S
C341 C336 1.370 . S
C341 C340 1.391 . S
C342 N311 1.435 . S
C342 C343 1.358 . S
C342 C347 1.371 . S
C343 H315 0.930 . S
C343 C342 1.358 . S
C343 C344 1.405 . S
C344 H316 0.932 . S
C344 C343 1.405 . S
C344 C345 1.383 . S
C345 C344 1.383 . S
C345 C346 1.393 . S
C346 H318 0.931 . S
C346 C345 1.393 . S
C346 C347 1.382 . S
C347 H317 0.929 . S
C347 C342 1.371 . S
C347 C346 1.382 . S
C348 N311 1.423 . S
C348 C349 1.362 . S
C348 C353 1.388 . S
C349 H319 0.929 . S
C349 C348 1.362 . S
C349 C350 1.376 . S
C350 H321 0.931 . S
C350 C349 1.376 . S
C350 C351 1.396 . S
C351 C350 1.396 . S
C351 C352 1.348 . S
C351 C369 1.472 . S
C352 H322 0.929 . S
C352 C351 1.348 . S
C352 C353 1.443 . S
C353 H320 0.932 . S
C353 C348 1.388 . S
C353 C352 1.443 . S
C354 N334 1.433 . S
C354 C355 1.363 . S
C354 C359 1.370 . S
C355 H323 0.929 . S
C355 C354 1.363 . S
C355 C356 1.385 . S
C356 H324 0.930 . S
C356 C355 1.385 . S
C356 C357 1.357 . S
C357 C356 1.357 . S
C357 C358 1.406 . S
C358 H325 0.929 . S
C358 C357 1.406 . S
C358 C359 1.391 . S
C359 H326 0.931 . S
C359 C354 1.370 . S
C359 C358 1.391 . S
C360 N334 1.435 . S
C360 C361 1.358 . S
C360 C365 1.371 . S
C361 H327 0.930 . S
C361 C360 1.358 . S
C361 C362 1.405 . S
C362 H328 0.932 . S
C362 C361 1.405 . S
C362 C363 1.383 . S
C363 C362 1.383 . S
C363 C364 1.393 . S
C364 H329 0.931 . S
C364 C363 1.393 . S
C364 C365 1.382 . S
C365 H330 0.929 . S
C365 C360 1.371 . S
C365 C364 1.382 . S
C366 N334 1.423 . S
C366 C367 1.362 . S
C366 C371 1.388 . S
C367 H331 0.929 . S
C367 C366 1.362 . S
C367 C368 1.376 . S
C368 H332 0.931 . S
C368 C367 1.376 . S
C368 C369 1.396 . S
C369 C351 1.472 . S
C369 C368 1.396 . S
C369 C370 1.348 . S
C370 H333 0.929 . S
C370 C369 1.348 . S
C370 C371 1.443 . S
C371 H335 0.932 . S
C371 C366 1.388 . S
C371 C370 1.443 . S
H372 C399 0.929 . S
N373 C398 1.433 . S
N373 C404 1.435 . S
N373 C410 1.423 . S
H374 C400 0.930 . S
H375 C403 0.931 . S
H376 C402 0.929 . S
H377 C405 0.930 . S
H378 C406 0.932 . S
H379 C409 0.929 . S
H380 C408 0.931 . S
H381 C411 0.929 . S
H382 C415 0.932 . S
H383 C412 0.931 . S
H384 C414 0.929 . S
H385 C417 0.929 . S
H386 C418 0.930 . S
H387 C420 0.929 . S
H388 C421 0.931 . S
H389 C423 0.930 . S
H390 C424 0.932 . S
H391 C426 0.931 . S
H392 C427 0.929 . S
H393 C429 0.929 . S
H394 C430 0.931 . S
H395 C432 0.929 . S
N396 C416 1.433 . S
N396 C422 1.435 . S
N396 C428 1.423 . S
H397 C433 0.932 . S
C398 N373 1.433 . S
C398 C399 1.363 . S
C398 C403 1.370 . S
C399 H372 0.929 . S
C399 C398 1.363 . S
C399 C400 1.385 . S
C400 H374 0.930 . S
C400 C399 1.385 . S
C400 C401 1.357 . S
C401 C400 1.357 . S
C401 C402 1.406 . S
C402 H376 0.929 . S
C402 C401 1.406 . S
C402 C403 1.391 . S
C403 H375 0.931 . S
C403 C398 1.370 . S
C403 C402 1.391 . S
C404 N373 1.435 . S
C404 C405 1.358 . S
C404 C409 1.371 . S
C405 H377 0.930 . S
C405 C404 1.358 . S
C405 C406 1.405 . S
C406 H378 0.932 . S
C406 C405 1.405 . S
C406 C407 1.383 . S
C407 C406 1.383 . S
C407 C408 1.393 . S
C408 H380 0.931 . S
C408 C407 1.393 . S
C408 C409 1.382 . S
C409 H379 0.929 . S
C409 C404 1.371 . S
C409 C408 1.382 . S
C410 N373 1.423 . S
C410 C411 1.362 . S
C410 C415 1.388 . S
C411 H381 0.929 . S
C411 C410 1.362 . S
C411 C412 1.376 1_565 S
C412 H383 0.931 . S
C412 C411 1.376 1_545 S
C412 C413 1.396 . S
C413 C412 1.396 . S
C413 C414 1.348 1_545 S
C413 C431 1.472 . S
C414 H384 0.929 . S
C414 C413 1.348 1_565 S
C414 C415 1.443 . S
C415 H382 0.932 . S
C415 C410 1.388 . S
C415 C414 1.443 . S
C416 N396 1.433 . S
C416 C417 1.363 . S
C416 C421 1.370 . S
C417 H385 0.929 . S
C417 C416 1.363 . S
C417 C418 1.385 . S
C418 H386 0.930 . S
C418 C417 1.385 . S
C418 C419 1.357 . S
C419 C418 1.357 . S
C419 C420 1.406 . S
C420 H387 0.929 . S
C420 C419 1.406 . S
C420 C421 1.391 . S
C421 H388 0.931 . S
C421 C416 1.370 . S
C421 C420 1.391 . S
C422 N396 1.435 . S
C422 C423 1.358 . S
C422 C427 1.371 . S
C423 H389 0.930 . S
C423 C422 1.358 . S
C423 C424 1.405 . S
C424 H390 0.932 . S
C424 C423 1.405 . S
C424 C425 1.383 . S
C425 C424 1.383 . S
C425 C426 1.393 . S
C426 H391 0.931 . S
C426 C425 1.393 . S
C426 C427 1.382 . S
C427 H392 0.929 . S
C427 C422 1.371 . S
C427 C426 1.382 . S
C428 N396 1.423 . S
C428 C429 1.362 . S
C428 C433 1.388 . S
C429 H393 0.929 . S
C429 C428 1.362 . S
C429 C430 1.376 . S
C430 H394 0.931 . S
C430 C429 1.376 . S
C430 C431 1.396 . S
C431 C413 1.472 . S
C431 C430 1.396 . S
C431 C432 1.348 . S
C432 H395 0.929 . S
C432 C431 1.348 . S
C432 C433 1.443 . S
C433 H397 0.932 . S
C433 C428 1.388 . S
C433 C432 1.443 . S
H434 C461 0.929 . S
N435 C460 1.433 . S
N435 C466 1.435 . S
N435 C472 1.423 . S
H436 C462 0.930 . S
H437 C465 0.931 . S
H438 C464 0.929 . S
H439 C467 0.930 . S
H440 C468 0.932 . S
H441 C471 0.929 . S
H442 C470 0.931 . S
H443 C473 0.929 . S
H444 C477 0.932 . S
H445 C474 0.931 . S
H446 C476 0.929 . S
H447 C479 0.929 . S
H448 C480 0.930 . S
H449 C482 0.929 . S
H450 C483 0.931 . S
H451 C485 0.930 . S
H452 C486 0.932 . S
H453 C488 0.931 . S
H454 C489 0.929 . S
H455 C491 0.929 . S
H456 C492 0.931 1_565 S
H457 C494 0.929 . S
N458 C478 1.433 . S
N458 C484 1.435 . S
N458 C490 1.423 . S
H459 C495 0.932 . S
C460 N435 1.433 . S
C460 C461 1.363 . S
C460 C465 1.370 . S
C461 H434 0.929 . S
C461 C460 1.363 . S
C461 C462 1.385 . S
C462 H436 0.930 . S
C462 C461 1.385 . S
C462 C463 1.357 . S
C463 C462 1.357 . S
C463 C464 1.406 . S
C464 H438 0.929 . S
C464 C463 1.406 . S
C464 C465 1.391 . S
C465 H437 0.931 . S
C465 C460 1.370 . S
C465 C464 1.391 . S
C466 N435 1.435 . S
C466 C467 1.358 . S
C466 C471 1.371 . S
C467 H439 0.930 . S
C467 C466 1.358 . S
C467 C468 1.405 . S
C468 H440 0.932 . S
C468 C467 1.405 . S
C468 C469 1.383 . S
C469 C468 1.383 . S
C469 C470 1.393 . S
C470 H442 0.931 . S
C470 C469 1.393 . S
C470 C471 1.382 . S
C471 H441 0.929 . S
C471 C466 1.371 . S
C471 C470 1.382 . S
C472 N435 1.423 . S
C472 C473 1.362 . S
C472 C477 1.388 . S
C473 H443 0.929 . S
C473 C472 1.362 . S
C473 C474 1.376 1_455 S
C474 H445 0.931 . S
C474 C473 1.376 1_655 S
C474 C475 1.396 . S
C475 C474 1.396 . S
C475 C476 1.348 1_655 S
C475 C493 1.471 1_565 S
C476 H446 0.929 . S
C476 C475 1.348 1_455 S
C476 C477 1.443 . S
C477 H444 0.932 . S
C477 C472 1.388 . S
C477 C476 1.443 . S
C478 N458 1.433 . S
C478 C479 1.363 . S
C478 C483 1.370 . S
C479 H447 0.929 . S
C479 C478 1.363 . S
C479 C480 1.385 . S
C480 H448 0.930 . S
C480 C479 1.385 . S
C480 C481 1.357 . S
C481 C480 1.357 . S
C481 C482 1.406 . S
C482 H449 0.929 . S
C482 C481 1.406 . S
C482 C483 1.391 . S
C483 H450 0.931 . S
C483 C478 1.370 . S
C483 C482 1.391 . S
C484 N458 1.435 . S
C484 C485 1.358 . S
C484 C489 1.371 . S
C485 H451 0.930 . S
C485 C484 1.358 . S
C485 C486 1.405 . S
C486 H452 0.932 . S
C486 C485 1.405 . S
C486 C487 1.383 . S
C487 C486 1.383 . S
C487 C488 1.393 . S
C488 H453 0.931 . S
C488 C487 1.393 . S
C488 C489 1.382 . S
C489 H454 0.929 . S
C489 C484 1.371 . S
C489 C488 1.382 . S
C490 N458 1.423 . S
C490 C491 1.362 . S
C490 C495 1.388 . S
C491 H455 0.929 . S
C491 C490 1.362 . S
C491 C492 1.376 . S
C492 H456 0.931 1_545 S
C492 C491 1.376 . S
C492 C493 1.396 . S
C493 C475 1.471 1_545 S
C493 C492 1.396 . S
C493 C494 1.349 . S
C494 H457 0.929 . S
C494 C493 1.349 . S
C494 C495 1.443 . S
C495 H459 0.932 . S
C495 C490 1.388 . S
C495 C494 1.443 . S
In496 O497 2.294 . S
In496 O498 2.326 . S
In496 O502 2.266 1_554 S
In496 O503 2.326 1_554 S
In496 O504 2.266 1_554 S
In496 O505 2.326 1_554 S
In496 O507 2.294 . S
In496 O508 2.326 . S
O497 In496 2.294 . S
O497 C506 1.240 . S
O498 In496 2.326 . S
O498 C506 1.252 . S
C499 O502 1.252 . S
C499 O503 1.260 . S
C500 O507 1.240 . S
C500 O508 1.252 . S
C501 O504 1.252 . S
C501 O505 1.260 . S
O502 In496 2.266 1_556 S
O502 C499 1.252 . S
O503 In496 2.326 1_556 S
O503 C499 1.260 . S
O504 In496 2.266 1_556 S
O504 C501 1.252 . S
O505 In496 2.326 1_556 S
O505 C501 1.260 . S
C506 O497 1.240 . S
C506 O498 1.252 . S
O507 In496 2.294 . S
O507 C500 1.240 . S
O508 In496 2.326 . S
O508 C500 1.252 . S
In509 O510 2.294 . S
In509 O511 2.326 . S
In509 O515 2.266 . S
In509 O516 2.326 . S
In509 O517 2.266 . S
In509 O518 2.326 . S
In509 O520 2.294 . S
In509 O521 2.326 . S
O510 In509 2.294 . S
O510 C519 1.240 . S
O511 In509 2.326 . S
O511 C519 1.252 . S
C512 O515 1.252 . S
C512 O516 1.260 . S
C513 O520 1.240 . S
C513 O521 1.252 . S
C514 O517 1.252 . S
C514 O518 1.260 . S
O515 In509 2.266 . S
O515 C512 1.252 . S
O516 In509 2.326 . S
O516 C512 1.260 . S
O517 In509 2.266 . S
O517 C514 1.252 . S
O518 In509 2.326 . S
O518 C514 1.260 . S
C519 O510 1.240 . S
C519 O511 1.252 . S
O520 In509 2.294 . S
O520 C513 1.240 . S
O521 In509 2.326 . S
O521 C513 1.252 . S
In522 O523 2.294 . S
In522 O524 2.326 . S
In522 O528 2.266 . S
In522 O529 2.326 . S
In522 O530 2.266 . S
In522 O531 2.326 . S
In522 O533 2.294 . S
In522 O534 2.326 . S
O523 In522 2.294 . S
O523 C532 1.240 . S
O524 In522 2.326 . S
O524 C532 1.252 . S
C525 O528 1.252 . S
C525 O529 1.260 . S
C526 O533 1.240 . S
C526 O534 1.252 . S
C527 O530 1.252 . S
C527 O531 1.260 . S
O528 In522 2.266 . S
O528 C525 1.252 . S
O529 In522 2.326 . S
O529 C525 1.260 . S
O530 In522 2.266 . S
O530 C527 1.252 . S
O531 In522 2.326 . S
O531 C527 1.260 . S
C532 O523 1.240 . S
C532 O524 1.252 . S
O533 In522 2.294 . S
O533 C526 1.240 . S
O534 In522 2.326 . S
O534 C526 1.252 . S
In535 O536 2.294 . S
In535 O537 2.326 . S
In535 O541 2.266 . S
In535 O542 2.326 . S
In535 O543 2.266 . S
In535 O544 2.326 . S
In535 O546 2.294 . S
In535 O547 2.326 . S
O536 In535 2.294 . S
O536 C545 1.240 . S
O537 In535 2.326 . S
O537 C545 1.252 . S
C538 O541 1.252 . S
C538 O542 1.260 . S
C539 O546 1.240 . S
C539 O547 1.252 . S
C540 O543 1.252 . S
C540 O544 1.260 . S
O541 In535 2.266 . S
O541 C538 1.252 . S
O542 In535 2.326 . S
O542 C538 1.260 . S
O543 In535 2.266 . S
O543 C540 1.252 . S
O544 In535 2.326 . S
O544 C540 1.260 . S
C545 O536 1.240 . S
C545 O537 1.252 . S
O546 In535 2.294 . S
O546 C539 1.240 . S
O547 In535 2.326 . S
O547 C539 1.252 . S
In548 O549 2.294 . S
In548 O550 2.326 . S
In548 O554 2.266 . S
In548 O555 2.326 . S
In548 O556 2.266 . S
In548 O557 2.326 . S
In548 O559 2.294 . S
In548 O560 2.326 . S
O549 In548 2.294 . S
O549 C558 1.240 . S
O550 In548 2.326 . S
O550 C558 1.252 . S
C551 O554 1.252 . S
C551 O555 1.260 . S
C552 O559 1.240 . S
C552 O560 1.252 . S
C553 O556 1.252 . S
C553 O557 1.260 . S
O554 In548 2.266 . S
O554 C551 1.252 . S
O555 In548 2.326 . S
O555 C551 1.260 . S
O556 In548 2.266 . S
O556 C553 1.252 . S
O557 In548 2.326 . S
O557 C553 1.260 . S
C558 O549 1.240 . S
C558 O550 1.252 . S
O559 In548 2.294 . S
O559 C552 1.240 . S
O560 In548 2.326 . S
O560 C552 1.252 . S
In561 O562 2.294 . S
In561 O563 2.326 . S
In561 O567 2.266 . S
In561 O568 2.326 . S
In561 O569 2.266 . S
In561 O570 2.326 . S
In561 O572 2.294 . S
In561 O573 2.326 . S
O562 In561 2.294 . S
O562 C571 1.240 . S
O563 In561 2.326 . S
O563 C571 1.252 . S
C564 O567 1.252 . S
C564 O568 1.260 . S
C565 O572 1.240 . S
C565 O573 1.252 . S
C566 O569 1.252 . S
C566 O570 1.260 . S
O567 In561 2.266 . S
O567 C564 1.252 . S
O568 In561 2.326 . S
O568 C564 1.260 . S
O569 In561 2.266 . S
O569 C566 1.252 . S
O570 In561 2.326 . S
O570 C566 1.260 . S
C571 O562 1.240 . S
C571 O563 1.252 . S
O572 In561 2.294 . S
O572 C565 1.240 . S
O573 In561 2.326 . S
O573 C565 1.252 . S
In574 O575 2.294 . S
In574 O576 2.326 . S
In574 O580 2.266 1_554 S
In574 O581 2.326 1_554 S
In574 O582 2.266 1_554 S
In574 O583 2.326 1_554 S
In574 O585 2.294 . S
In574 O586 2.326 . S
O575 In574 2.294 . S
O575 C584 1.240 . S
O576 In574 2.326 . S
O576 C584 1.252 . S
C577 O580 1.252 . S
C577 O581 1.260 . S
C578 O585 1.240 . S
C578 O586 1.252 . S
C579 O582 1.252 . S
C579 O583 1.260 . S
O580 In574 2.266 1_556 S
O580 C577 1.252 . S
O581 In574 2.326 1_556 S
O581 C577 1.260 . S
O582 In574 2.266 1_556 S
O582 C579 1.252 . S
O583 In574 2.326 1_556 S
O583 C579 1.260 . S
C584 O575 1.240 . S
C584 O576 1.252 . S
O585 In574 2.294 . S
O585 C578 1.240 . S
O586 In574 2.326 . S
O586 C578 1.252 . S
In587 O588 2.294 . S
In587 O589 2.326 . S
In587 O593 2.266 . S
In587 O594 2.326 . S
In587 O595 2.266 . S
In587 O596 2.326 . S
In587 O598 2.294 . S
In587 O599 2.326 . S
O588 In587 2.294 . S
O588 C597 1.240 . S
O589 In587 2.326 . S
O589 C597 1.252 . S
C590 O593 1.252 . S
C590 O594 1.260 . S
C591 O598 1.240 . S
C591 O599 1.252 . S
C592 O595 1.252 . S
C592 O596 1.260 . S
O593 In587 2.266 . S
O593 C590 1.252 . S
O594 In587 2.326 . S
O594 C590 1.260 . S
O595 In587 2.266 . S
O595 C592 1.252 . S
O596 In587 2.326 . S
O596 C592 1.260 . S
C597 O588 1.240 . S
C597 O589 1.252 . S
O598 In587 2.294 . S
O598 C591 1.240 . S
O599 In587 2.326 . S
O599 C591 1.252 . S
H600 C606 0.930 . S
H601 C609 0.930 . S
H602 C610 0.930 . S
H603 C611 0.930 . S
H604 C614 0.930 . S
H605 C615 0.930 . S
C606 H600 0.930 . S
C606 C607 1.355 . S
C606 C608 1.415 . S
C607 C606 1.355 . S
C607 C609 1.419 . S
C608 C606 1.415 . S
C608 C613 1.425 . S
C608 C615 1.409 . S
C609 H601 0.930 . S
C609 C607 1.419 . S
C609 C610 1.362 . S
C610 H602 0.930 . S
C610 C609 1.362 . S
C610 C613 1.409 . S
C611 H603 0.930 . S
C611 C612 1.355 . S
C611 C613 1.415 . S
C612 C611 1.355 . S
C612 C614 1.419 . S
C613 C608 1.425 . S
C613 C610 1.409 . S
C613 C611 1.415 . S
C614 H604 0.930 . S
C614 C612 1.419 . S
C614 C615 1.362 . S
C615 H605 0.930 . S
C615 C608 1.409 . S
C615 C614 1.362 . S
H616 C622 0.930 . S
H617 C625 0.930 . S
H618 C626 0.930 . S
H619 C627 0.930 . S
H620 C630 0.930 . S
H621 C631 0.930 . S
C622 H616 0.930 . S
C622 C623 1.355 . S
C622 C624 1.415 . S
C623 C622 1.355 . S
C623 C625 1.419 . S
C624 C622 1.415 . S
C624 C629 1.425 . S
C624 C631 1.409 . S
C625 H617 0.930 . S
C625 C623 1.419 . S
C625 C626 1.362 . S
C626 H618 0.930 . S
C626 C625 1.362 . S
C626 C629 1.409 . S
C627 H619 0.930 . S
C627 C628 1.355 . S
C627 C629 1.415 . S
C628 C627 1.355 . S
C628 C630 1.419 . S
C629 C624 1.425 . S
C629 C626 1.409 . S
C629 C627 1.415 . S
C630 H620 0.930 . S
C630 C628 1.419 . S
C630 C631 1.362 . S
C631 H621 0.930 . S
C631 C624 1.409 . S
C631 C630 1.362 . S
H632 C638 0.930 . S
H633 C641 0.930 . S
H634 C642 0.930 . S
H635 C643 0.930 . S
H636 C646 0.930 . S
H637 C647 0.930 . S
C638 H632 0.930 . S
C638 C639 1.355 . S
C638 C640 1.415 . S
C639 C638 1.355 . S
C639 C641 1.419 . S
C640 C638 1.415 . S
C640 C645 1.425 . S
C640 C647 1.409 . S
C641 H633 0.930 . S
C641 C639 1.419 . S
C641 C642 1.362 . S
C642 H634 0.930 . S
C642 C641 1.362 . S
C642 C645 1.409 . S
C643 H635 0.930 . S
C643 C644 1.355 . S
C643 C645 1.415 . S
C644 C643 1.355 . S
C644 C646 1.419 . S
C645 C640 1.425 . S
C645 C642 1.409 . S
C645 C643 1.415 . S
C646 H636 0.930 . S
C646 C644 1.419 . S
C646 C647 1.362 . S
C647 H637 0.930 . S
C647 C640 1.409 . S
C647 C646 1.362 . S
H648 C654 0.930 . S
H649 C657 0.930 . S
H650 C658 0.930 . S
H651 C659 0.930 . S
H652 C662 0.927 . S
H653 C663 0.930 . S
C654 H648 0.930 . S
C654 C655 1.355 . S
C654 C656 1.415 . S
C655 C654 1.355 . S
C655 C657 1.419 . S
C656 C654 1.415 . S
C656 C661 1.425 . S
C656 C663 1.409 . S
C657 H649 0.930 . S
C657 C655 1.419 . S
C657 C658 1.362 . S
C658 H650 0.930 . S
C658 C657 1.362 . S
C658 C661 1.409 . S
C659 H651 0.930 . S
C659 C660 1.355 . S
C659 C661 1.415 . S
C660 C659 1.355 . S
C660 C662 1.419 . S
C661 C656 1.425 . S
C661 C658 1.409 . S
C661 C659 1.415 . S
C662 H652 0.927 . S
C662 C660 1.419 . S
C662 C663 1.362 . S
C663 H653 0.930 . S
C663 C656 1.409 . S
C663 C662 1.362 . S
H664 C670 0.930 . S
H665 C673 0.930 . S
H666 C674 0.930 . S
H667 C675 0.930 . S
H668 C678 0.930 . S
H669 C679 0.930 . S
C670 H664 0.930 . S
C670 C671 1.355 . S
C670 C672 1.415 . S
C671 C670 1.355 . S
C671 C673 1.419 . S
C672 C670 1.415 . S
C672 C677 1.425 . S
C672 C679 1.409 . S
C673 H665 0.930 . S
C673 C671 1.419 . S
C673 C674 1.362 . S
C674 H666 0.930 . S
C674 C673 1.362 . S
C674 C677 1.409 . S
C675 H667 0.930 . S
C675 C676 1.355 . S
C675 C677 1.415 . S
C676 C675 1.355 . S
C676 C678 1.419 . S
C677 C672 1.425 . S
C677 C674 1.409 . S
C677 C675 1.415 . S
C678 H668 0.930 . S
C678 C676 1.419 . S
C678 C679 1.362 . S
C679 H669 0.930 . S
C679 C672 1.409 . S
C679 C678 1.362 . S
H680 C686 0.930 . S
H681 C689 0.930 . S
H682 C690 0.930 . S
H683 C691 0.930 . S
H684 C694 0.930 . S
H685 C695 0.930 . S
C686 H680 0.930 . S
C686 C687 1.355 . S
C686 C688 1.415 . S
C687 C686 1.355 . S
C687 C689 1.419 . S
C688 C686 1.415 . S
C688 C693 1.425 . S
C688 C695 1.409 . S
C689 H681 0.930 . S
C689 C687 1.419 . S
C689 C690 1.362 . S
C690 H682 0.930 . S
C690 C689 1.362 . S
C690 C693 1.409 . S
C691 H683 0.930 . S
C691 C692 1.355 . S
C691 C693 1.415 . S
C692 C691 1.355 . S
C692 C694 1.419 . S
C693 C688 1.425 . S
C693 C690 1.409 . S
C693 C691 1.415 . S
C694 H684 0.930 . S
C694 C692 1.419 . S
C694 C695 1.362 . S
C695 H685 0.930 . S
C695 C688 1.409 . S
C695 C694 1.362 . S
H696 C702 0.930 . S
H697 C705 0.930 . S
H698 C706 0.930 . S
H699 C707 0.930 . S
H700 C710 0.930 . S
H701 C711 0.930 . S
C702 H696 0.930 . S
C702 C703 1.355 . S
C702 C704 1.415 . S
C703 C702 1.355 . S
C703 C705 1.419 . S
C704 C702 1.415 . S
C704 C709 1.425 . S
C704 C711 1.409 . S
C705 H697 0.930 . S
C705 C703 1.419 . S
C705 C706 1.362 . S
C706 H698 0.930 . S
C706 C705 1.362 . S
C706 C709 1.409 . S
C707 H699 0.930 . S
C707 C708 1.355 . S
C707 C709 1.415 . S
C708 C707 1.355 . S
C708 C710 1.419 . S
C709 C704 1.425 . S
C709 C706 1.409 . S
C709 C707 1.415 . S
C710 H700 0.930 . S
C710 C708 1.419 . S
C710 C711 1.362 . S
C711 H701 0.930 . S
C711 C704 1.409 . S
C711 C710 1.362 . S
H712 C718 0.930 . S
H713 C721 0.930 . S
H714 C722 0.930 . S
H715 C723 0.930 . S
H716 C726 0.930 . S
H717 C727 0.930 . S
C718 H712 0.930 . S
C718 C719 1.355 . S
C718 C720 1.415 . S
C719 C718 1.355 . S
C719 C721 1.419 . S
C720 C718 1.415 . S
C720 C725 1.425 . S
C720 C727 1.409 . S
C721 H713 0.930 . S
C721 C719 1.419 . S
C721 C722 1.362 . S
C722 H714 0.930 . S
C722 C721 1.362 . S
C722 C725 1.409 . S
C723 H715 0.930 . S
C723 C724 1.355 . S
C723 C725 1.415 . S
C724 C723 1.355 . S
C724 C726 1.419 . S
C725 C720 1.425 . S
C725 C722 1.409 . S
C725 C723 1.415 . S
C726 H716 0.930 . S
C726 C724 1.419 . S
C726 C727 1.362 . S
C727 H717 0.930 . S
C727 C720 1.409 . S
C727 C726 1.362 . S
H728 C734 0.930 . S
H729 C737 0.930 . S
H730 C738 0.930 . S
H731 C739 0.930 . S
H732 C742 0.930 . S
H733 C743 0.930 . S
C734 H728 0.930 . S
C734 C735 1.355 . S
C734 C736 1.415 . S
C735 C734 1.355 . S
C735 C737 1.419 . S
C736 C734 1.415 . S
C736 C741 1.425 . S
C736 C743 1.409 . S
C737 H729 0.930 . S
C737 C735 1.419 . S
C737 C738 1.362 . S
C738 H730 0.930 . S
C738 C737 1.362 . S
C738 C741 1.409 . S
C739 H731 0.930 . S
C739 C740 1.355 . S
C739 C741 1.415 . S
C740 C739 1.355 . S
C740 C742 1.419 . S
C741 C736 1.425 . S
C741 C738 1.409 . S
C741 C739 1.415 . S
C742 H732 0.930 . S
C742 C740 1.419 . S
C742 C743 1.362 . S
C743 H733 0.930 . S
C743 C736 1.409 . S
C743 C742 1.362 . S
H744 C750 0.930 . S
H745 C753 0.930 . S
H746 C754 0.930 . S
H747 C755 0.930 . S
H748 C758 0.930 . S
H749 C759 0.930 . S
C750 H744 0.930 . S
C750 C751 1.355 . S
C750 C752 1.415 . S
C751 C750 1.355 . S
C751 C753 1.419 . S
C752 C750 1.415 . S
C752 C757 1.425 . S
C752 C759 1.409 . S
C753 H745 0.930 . S
C753 C751 1.419 . S
C753 C754 1.362 . S
C754 H746 0.930 . S
C754 C753 1.362 . S
C754 C757 1.409 . S
C755 H747 0.930 . S
C755 C756 1.355 . S
C755 C757 1.415 . S
C756 C755 1.355 . S
C756 C758 1.419 . S
C757 C752 1.425 . S
C757 C754 1.409 . S
C757 C755 1.415 . S
C758 H748 0.930 . S
C758 C756 1.419 . S
C758 C759 1.362 . S
C759 H749 0.930 . S
C759 C752 1.409 . S
C759 C758 1.362 . S
H760 C766 0.930 . S
H761 C769 0.930 . S
H762 C770 0.930 . S
H763 C771 0.930 . S
H764 C774 0.930 . S
H765 C775 0.930 . S
C766 H760 0.930 . S
C766 C767 1.355 . S
C766 C768 1.415 . S
C767 C766 1.355 . S
C767 C769 1.419 . S
C768 C766 1.415 . S
C768 C773 1.425 . S
C768 C775 1.409 . S
C769 H761 0.930 . S
C769 C767 1.419 . S
C769 C770 1.362 . S
C770 H762 0.930 . S
C770 C769 1.362 . S
C770 C773 1.409 . S
C771 H763 0.930 . S
C771 C772 1.355 . S
C771 C773 1.415 . S
C772 C771 1.355 . S
C772 C774 1.419 . S
C773 C768 1.425 . S
C773 C770 1.409 . S
C773 C771 1.415 . S
C774 H764 0.930 . S
C774 C772 1.419 . S
C774 C775 1.362 . S
C775 H765 0.930 . S
C775 C768 1.409 . S
C775 C774 1.362 . S
H776 C782 0.930 . S
H777 C785 0.930 . S
H778 C786 0.930 . S
H779 C787 0.930 . S
H780 C790 0.930 . S
H781 C791 0.930 . S
C782 H776 0.930 . S
C782 C783 1.355 . S
C782 C784 1.415 . S
C783 C782 1.355 . S
C783 C785 1.419 . S
C784 C782 1.415 . S
C784 C789 1.425 . S
C784 C791 1.409 . S
C785 H777 0.930 . S
C785 C783 1.419 . S
C785 C786 1.362 . S
C786 H778 0.930 . S
C786 C785 1.362 . S
C786 C789 1.409 . S
C787 H779 0.930 . S
C787 C788 1.355 . S
C787 C789 1.415 . S
C788 C787 1.355 . S
C788 C790 1.419 . S
C789 C784 1.425 . S
C789 C786 1.409 . S
C789 C787 1.415 . S
C790 H780 0.930 . S
C790 C788 1.419 . S
C790 C791 1.362 . S
C791 H781 0.930 . S
C791 C784 1.409 . S
C791 C790 1.362 . S
H792 C798 0.930 . S
H793 C801 0.930 . S
H794 C802 0.930 . S
H795 C803 0.930 . S
H796 C806 0.930 . S
H797 C807 0.930 . S
C798 H792 0.930 . S
C798 C799 1.355 . S
C798 C800 1.415 . S
C799 C798 1.355 . S
C799 C801 1.419 . S
C800 C798 1.415 . S
C800 C805 1.425 . S
C800 C807 1.409 . S
C801 H793 0.930 . S
C801 C799 1.419 . S
C801 C802 1.362 . S
C802 H794 0.930 . S
C802 C801 1.362 . S
C802 C805 1.409 . S
C803 H795 0.930 . S
C803 C804 1.355 . S
C803 C805 1.415 . S
C804 C803 1.355 . S
C804 C806 1.419 . S
C805 C800 1.425 . S
C805 C802 1.409 . S
C805 C803 1.415 . S
C806 H796 0.930 . S
C806 C804 1.419 . S
C806 C807 1.362 . S
C807 H797 0.930 . S
C807 C800 1.409 . S
C807 C806 1.362 . S
H808 C814 0.930 . S
H809 C817 0.930 . S
H810 C818 0.930 . S
H811 C819 0.930 . S
H812 C822 0.930 . S
H813 C823 0.930 . S
C814 H808 0.930 . S
C814 C815 1.355 . S
C814 C816 1.415 . S
C815 C814 1.355 . S
C815 C817 1.419 . S
C816 C814 1.415 . S
C816 C821 1.425 . S
C816 C823 1.409 . S
C817 H809 0.930 . S
C817 C815 1.419 . S
C817 C818 1.362 . S
C818 H810 0.930 . S
C818 C817 1.362 . S
C818 C821 1.409 . S
C819 H811 0.930 . S
C819 C820 1.355 . S
C819 C821 1.415 . S
C820 C819 1.355 . S
C820 C822 1.419 . S
C821 C816 1.425 . S
C821 C818 1.409 . S
C821 C819 1.415 . S
C822 H812 0.930 . S
C822 C820 1.419 . S
C822 C823 1.362 . S
C823 H813 0.930 . S
C823 C816 1.409 . S
C823 C822 1.362 . S
H824 C830 0.982 . S
H825 C833 0.930 . S
H826 C834 0.930 . S
H827 C835 0.930 . S
H828 C838 0.930 . S
H829 C839 0.930 . S
C830 H824 0.982 . S
C830 C831 1.355 . S
C830 C832 1.415 . S
C831 C830 1.355 . S
C831 C833 1.419 . S
C832 C830 1.415 . S
C832 C837 1.425 . S
C832 C839 1.409 1_556 S
C833 H825 0.930 . S
C833 C831 1.419 . S
C833 C834 1.362 . S
C834 H826 0.930 . S
C834 C833 1.362 . S
C834 C837 1.409 . S
C835 H827 0.930 . S
C835 C836 1.355 . S
C835 C837 1.415 . S
C836 C835 1.355 . S
C836 C838 1.419 1_556 S
C837 C832 1.425 . S
C837 C834 1.409 . S
C837 C835 1.415 . S
C838 H828 0.930 . S
C838 C836 1.419 1_554 S
C838 C839 1.362 . S
C839 H829 0.930 . S
C839 C832 1.409 1_554 S
C839 C838 1.362 . S
H840 C846 0.930 . S
H841 C849 0.930 . S
H842 C850 0.930 . S
H843 C851 0.930 . S
H844 C854 0.930 . S
H845 C855 0.930 . S
C846 H840 0.930 . S
C846 C847 1.355 . S
C846 C848 1.415 . S
C847 C846 1.355 . S
C847 C849 1.419 . S
C848 C846 1.415 . S
C848 C853 1.425 . S
C848 C855 1.409 . S
C849 H841 0.930 . S
C849 C847 1.419 . S
C849 C850 1.362 . S
C850 H842 0.930 . S
C850 C849 1.362 . S
C850 C853 1.409 . S
C851 H843 0.930 . S
C851 C852 1.355 . S
C851 C853 1.415 . S
C852 C851 1.355 . S
C852 C854 1.419 . S
C853 C848 1.425 . S
C853 C850 1.409 . S
C853 C851 1.415 . S
C854 H844 0.930 . S
C854 C852 1.419 . S
C854 C855 1.362 . S
C855 H845 0.930 . S
C855 C848 1.409 . S
C855 C854 1.362 . S
H856 C862 0.930 . S
H857 C865 0.930 . S
H858 C866 0.930 . S
H859 C867 0.930 . S
H860 C870 0.930 . S
H861 C871 0.930 . S
C862 H856 0.930 . S
C862 C863 1.355 . S
C862 C864 1.415 . S
C863 C862 1.355 . S
C863 C865 1.419 . S
C864 C862 1.415 . S
C864 C869 1.425 . S
C864 C871 1.409 . S
C865 H857 0.930 . S
C865 C863 1.419 . S
C865 C866 1.362 . S
C866 H858 0.930 . S
C866 C865 1.362 . S
C866 C869 1.409 . S
C867 H859 0.930 . S
C867 C868 1.355 . S
C867 C869 1.415 . S
C868 C867 1.355 . S
C868 C870 1.419 . S
C869 C864 1.425 . S
C869 C866 1.409 . S
C869 C867 1.415 . S
C870 H860 0.930 . S
C870 C868 1.419 . S
C870 C871 1.362 . S
C871 H861 0.930 . S
C871 C864 1.409 . S
C871 C870 1.362 . S
H872 C878 0.930 . S
H873 C881 0.930 . S
H874 C882 0.930 . S
H875 C883 0.930 . S
H876 C886 0.930 . S
H877 C887 0.930 . S
C878 H872 0.930 . S
C878 C879 1.355 . S
C878 C880 1.415 . S
C879 C878 1.355 . S
C879 C881 1.419 . S
C880 C878 1.415 . S
C880 C885 1.425 . S
C880 C887 1.409 . S
C881 H873 0.930 . S
C881 C879 1.419 . S
C881 C882 1.362 . S
C882 H874 0.930 . S
C882 C881 1.362 . S
C882 C885 1.409 . S
C883 H875 0.930 . S
C883 C884 1.355 . S
C883 C885 1.415 . S
C884 C883 1.355 . S
C884 C886 1.419 . S
C885 C880 1.425 . S
C885 C882 1.409 . S
C885 C883 1.415 . S
C886 H876 0.930 . S
C886 C884 1.419 . S
C886 C887 1.362 . S
C887 H877 0.930 . S
C887 C880 1.409 . S
C887 C886 1.362 . S
H888 C894 0.930 . S
H889 C897 0.930 . S
H890 C898 0.930 . S
H891 C899 0.930 . S
H892 C902 0.930 . S
H893 C903 0.930 . S
C894 H888 0.930 . S
C894 C895 1.355 . S
C894 C896 1.415 . S
C895 C894 1.355 . S
C895 C897 1.419 . S
C896 C894 1.415 . S
C896 C901 1.425 . S
C896 C903 1.409 . S
C897 H889 0.930 . S
C897 C895 1.419 . S
C897 C898 1.362 . S
C898 H890 0.930 . S
C898 C897 1.362 . S
C898 C901 1.409 . S
C899 H891 0.930 . S
C899 C900 1.355 . S
C899 C901 1.415 . S
C900 C899 1.355 . S
C900 C902 1.419 . S
C901 C896 1.425 . S
C901 C898 1.409 . S
C901 C899 1.415 . S
C902 H892 0.930 . S
C902 C900 1.419 . S
C902 C903 1.362 . S
C903 H893 0.930 . S
C903 C896 1.409 . S
C903 C902 1.362 . S
H904 C910 0.930 . S
H905 C913 0.930 . S
H906 C914 0.930 . S
H907 C915 0.930 . S
H908 C918 0.930 . S
H909 C919 0.930 . S
C910 H904 0.930 . S
C910 C911 1.355 . S
C910 C912 1.415 . S
C911 C910 1.355 . S
C911 C913 1.419 . S
C912 C910 1.415 . S
C912 C917 1.425 . S
C912 C919 1.409 . S
C913 H905 0.930 . S
C913 C911 1.419 . S
C913 C914 1.362 . S
C914 H906 0.930 . S
C914 C913 1.362 . S
C914 C917 1.409 . S
C915 H907 0.930 . S
C915 C916 1.355 . S
C915 C917 1.415 . S
C916 C915 1.355 . S
C916 C918 1.419 . S
C917 C912 1.425 . S
C917 C914 1.409 . S
C917 C915 1.415 . S
C918 H908 0.930 . S
C918 C916 1.419 . S
C918 C919 1.362 . S
C919 H909 0.930 . S
C919 C912 1.409 . S
C919 C918 1.362 . S
H920 C926 0.930 . S
H921 C929 0.930 . S
H922 C930 0.930 . S
H923 C931 0.930 . S
H924 C934 0.930 . S
H925 C935 0.930 . S
C926 H920 0.930 . S
C926 C927 1.355 . S
C926 C928 1.415 . S
C927 C926 1.355 . S
C927 C929 1.419 . S
C928 C926 1.415 . S
C928 C933 1.425 . S
C928 C935 1.409 . S
C929 H921 0.930 . S
C929 C927 1.419 . S
C929 C930 1.362 . S
C930 H922 0.930 . S
C930 C929 1.362 . S
C930 C933 1.409 . S
C931 H923 0.930 . S
C931 C932 1.355 . S
C931 C933 1.415 . S
C932 C931 1.355 . S
C932 C934 1.419 . S
C933 C928 1.425 . S
C933 C930 1.409 . S
C933 C931 1.415 . S
C934 H924 0.930 . S
C934 C932 1.419 . S
C934 C935 1.362 . S
C935 H925 0.930 . S
C935 C928 1.409 . S
C935 C934 1.362 . S
H936 C942 0.930 . S
H937 C945 0.930 . S
H938 C946 0.930 . S
H939 C947 0.930 . S
H940 C950 0.930 . S
H941 C951 0.930 . S
C942 H936 0.930 . S
C942 C943 1.355 . S
C942 C944 1.415 . S
C943 C942 1.355 . S
C943 C945 1.419 . S
C944 C942 1.415 . S
C944 C949 1.425 . S
C944 C951 1.409 . S
C945 H937 0.930 . S
C945 C943 1.419 . S
C945 C946 1.362 . S
C946 H938 0.930 . S
C946 C945 1.362 . S
C946 C949 1.409 . S
C947 H939 0.930 . S
C947 C948 1.355 . S
C947 C949 1.415 . S
C948 C947 1.355 . S
C948 C950 1.419 . S
C949 C944 1.425 . S
C949 C946 1.409 . S
C949 C947 1.415 . S
C950 H940 0.930 . S
C950 C948 1.419 . S
C950 C951 1.362 . S
C951 H941 0.930 . S
C951 C944 1.409 . S
C951 C950 1.362 . S
H952 C958 0.930 . S
H953 C961 0.930 . S
H954 C962 0.930 . S
H955 C963 0.930 . S
H956 C966 0.930 . S
H957 C967 0.930 . S
C958 H952 0.930 . S
C958 C959 1.355 . S
C958 C960 1.415 . S
C959 C958 1.355 . S
C959 C961 1.419 . S
C960 C958 1.415 . S
C960 C965 1.425 . S
C960 C967 1.409 . S
C961 H953 0.930 . S
C961 C959 1.419 . S
C961 C962 1.362 . S
C962 H954 0.930 . S
C962 C961 1.362 . S
C962 C965 1.409 . S
C963 H955 0.930 . S
C963 C964 1.355 . S
C963 C965 1.415 . S
C964 C963 1.355 . S
C964 C966 1.419 . S
C965 C960 1.425 . S
C965 C962 1.409 . S
C965 C963 1.415 . S
C966 H956 0.930 . S
C966 C964 1.419 . S
C966 C967 1.362 . S
C967 H957 0.930 . S
C967 C960 1.409 . S
C967 C966 1.362 . S
H968 C974 0.930 . S
H969 C977 0.930 . S
H970 C978 0.930 . S
H971 C979 0.930 . S
H972 C982 0.930 . S
H973 C983 0.930 . S
C974 H968 0.930 . S
C974 C975 1.355 . S
C974 C976 1.415 . S
C975 C974 1.355 . S
C975 C977 1.419 . S
C976 C974 1.415 . S
C976 C981 1.425 . S
C976 C983 1.409 . S
C977 H969 0.930 . S
C977 C975 1.419 . S
C977 C978 1.362 . S
C978 H970 0.930 . S
C978 C977 1.362 . S
C978 C981 1.409 . S
C979 H971 0.930 . S
C979 C980 1.355 . S
C979 C981 1.415 . S
C980 C979 1.355 . S
C980 C982 1.419 . S
C981 C976 1.425 . S
C981 C978 1.409 . S
C981 C979 1.415 . S
C982 H972 0.930 . S
C982 C980 1.419 . S
C982 C983 1.362 . S
C983 H973 0.930 . S
C983 C976 1.409 . S
C983 C982 1.362 . S
H984 C990 0.930 . S
H985 C993 0.930 . S
H986 C994 0.930 . S
H987 C995 0.930 . S
H988 C998 0.930 . S
H989 C999 0.930 . S
C990 H984 0.930 . S
C990 C991 1.355 . S
C990 C992 1.415 . S
C991 C990 1.355 . S
C991 C993 1.419 . S
C992 C990 1.415 . S
C992 C997 1.425 . S
C992 C999 1.409 . S
C993 H985 0.930 . S
C993 C991 1.419 . S
C993 C994 1.362 . S
C994 H986 0.930 . S
C994 C993 1.362 . S
C994 C997 1.409 . S
C995 H987 0.930 . S
C995 C996 1.355 . S
C995 C997 1.415 . S
C996 C995 1.355 . S
C996 C998 1.419 . S
C997 C992 1.425 . S
C997 C994 1.409 . S
C997 C995 1.415 . S
C998 H988 0.930 . S
C998 C996 1.419 . S
C998 C999 1.362 . S
C999 H989 0.930 . S
C999 C992 1.409 . S
C999 C998 1.362 . S
H1000 C1006 0.930 . S
H1001 C1009 0.930 . S
H1002 C1010 0.930 . S
H1003 C1011 0.930 . S
H1004 C1014 0.930 . S
H1005 C1015 0.930 . S
C1006 H1000 0.930 . S
C1006 C1007 1.355 . S
C1006 C1008 1.415 . S
C1007 C1006 1.355 . S
C1007 C1009 1.419 . S
C1008 C1006 1.415 . S
C1008 C1013 1.425 . S
C1008 C1015 1.409 . S
C1009 H1001 0.930 . S
C1009 C1007 1.419 . S
C1009 C1010 1.362 . S
C1010 H1002 0.930 . S
C1010 C1009 1.362 . S
C1010 C1013 1.409 . S
C1011 H1003 0.930 . S
C1011 C1012 1.355 . S
C1011 C1013 1.415 . S
C1012 C1011 1.355 . S
C1012 C1014 1.419 . S
C1013 C1008 1.425 . S
C1013 C1010 1.409 . S
C1013 C1011 1.415 . S
C1014 H1004 0.930 . S
C1014 C1012 1.419 . S
C1014 C1015 1.362 . S
C1015 H1005 0.930 . S
C1015 C1008 1.409 . S
C1015 C1014 1.362 . S
H1016 C1022 0.930 . S
H1017 C1025 0.930 . S
H1018 C1026 0.930 . S
H1019 C1027 0.930 . S
H1020 C1030 0.930 . S
H1021 C1031 0.930 . S
C1022 H1016 0.930 . S
C1022 C1023 1.355 . S
C1022 C1024 1.415 . S
C1023 C1022 1.355 . S
C1023 C1025 1.419 . S
C1024 C1022 1.415 . S
C1024 C1029 1.425 . S
C1024 C1031 1.409 . S
C1025 H1017 0.930 . S
C1025 C1023 1.419 . S
C1025 C1026 1.362 . S
C1026 H1018 0.930 . S
C1026 C1025 1.362 . S
C1026 C1029 1.409 . S
C1027 H1019 0.930 . S
C1027 C1028 1.355 . S
C1027 C1029 1.415 . S
C1028 C1027 1.355 . S
C1028 C1030 1.419 . S
C1029 C1024 1.425 . S
C1029 C1026 1.409 . S
C1029 C1027 1.415 . S
C1030 H1020 0.930 . S
C1030 C1028 1.419 . S
C1030 C1031 1.362 . S
C1031 H1021 0.930 . S
C1031 C1024 1.409 . S
C1031 C1030 1.362 . S
H1032 C1038 0.930 . S
H1033 C1041 0.930 . S
H1034 C1042 0.930 . S
H1035 C1043 0.930 . S
H1036 C1046 0.930 . S
H1037 C1047 0.930 . S
C1038 H1032 0.930 . S
C1038 C1039 1.355 . S
C1038 C1040 1.415 . S
C1039 C1038 1.355 . S
C1039 C1041 1.419 . S
C1040 C1038 1.415 . S
C1040 C1045 1.425 . S
C1040 C1047 1.409 . S
C1041 H1033 0.930 . S
C1041 C1039 1.419 . S
C1041 C1042 1.362 . S
C1042 H1034 0.930 . S
C1042 C1041 1.362 . S
C1042 C1045 1.409 . S
C1043 H1035 0.930 . S
C1043 C1044 1.355 . S
C1043 C1045 1.415 . S
C1044 C1043 1.355 . S
C1044 C1046 1.419 . S
C1045 C1040 1.425 . S
C1045 C1042 1.409 . S
C1045 C1043 1.415 . S
C1046 H1036 0.930 . S
C1046 C1044 1.419 . S
C1046 C1047 1.362 . S
C1047 H1037 0.930 . S
C1047 C1040 1.409 . S
C1047 C1046 1.362 . S
H1048 C1054 0.930 . S
H1049 C1057 0.930 . S
H1050 C1058 0.930 . S
H1051 C1059 0.930 . S
H1052 C1062 0.930 . S
H1053 C1063 0.930 . S
C1054 H1048 0.930 . S
C1054 C1055 1.355 . S
C1054 C1056 1.415 . S
C1055 C1054 1.355 . S
C1055 C1057 1.419 . S
C1056 C1054 1.415 . S
C1056 C1061 1.425 . S
C1056 C1063 1.409 . S
C1057 H1049 0.930 . S
C1057 C1055 1.419 . S
C1057 C1058 1.362 . S
C1058 H1050 0.930 . S
C1058 C1057 1.362 . S
C1058 C1061 1.409 . S
C1059 H1051 0.930 . S
C1059 C1060 1.355 . S
C1059 C1061 1.415 . S
C1060 C1059 1.355 . S
C1060 C1062 1.419 . S
C1061 C1056 1.425 . S
C1061 C1058 1.409 . S
C1061 C1059 1.415 . S
C1062 H1052 0.930 . S
C1062 C1060 1.419 . S
C1062 C1063 1.362 . S
C1063 H1053 0.930 . S
C1063 C1056 1.409 . S
C1063 C1062 1.362 . S
H1064 C1070 0.930 . S
H1065 C1073 0.930 . S
H1066 C1074 0.930 . S
H1067 C1075 0.930 . S
H1068 C1078 0.930 . S
H1069 C1079 0.930 . S
C1070 H1064 0.930 . S
C1070 C1071 1.355 . S
C1070 C1072 1.415 . S
C1071 C1070 1.355 . S
C1071 C1073 1.419 . S
C1072 C1070 1.415 . S
C1072 C1077 1.425 . S
C1072 C1079 1.409 . S
C1073 H1065 0.930 . S
C1073 C1071 1.419 . S
C1073 C1074 1.362 . S
C1074 H1066 0.930 . S
C1074 C1073 1.362 . S
C1074 C1077 1.409 . S
C1075 H1067 0.930 . S
C1075 C1076 1.355 . S
C1075 C1077 1.415 . S
C1076 C1075 1.355 . S
C1076 C1078 1.419 . S
C1077 C1072 1.425 . S
C1077 C1074 1.409 . S
C1077 C1075 1.415 . S
C1078 H1068 0.930 . S
C1078 C1076 1.419 . S
C1078 C1079 1.362 . S
C1079 H1069 0.930 . S
C1079 C1072 1.409 . S
C1079 C1078 1.362 . S
H1080 C1086 0.930 . S
H1081 C1089 0.930 . S
H1082 C1090 0.930 . S
H1083 C1091 0.930 . S
H1084 C1094 0.930 . S
H1085 C1095 0.930 . S
C1086 H1080 0.930 . S
C1086 C1087 1.355 . S
C1086 C1088 1.415 . S
C1087 C1086 1.355 . S
C1087 C1089 1.419 . S
C1088 C1086 1.415 . S
C1088 C1093 1.425 . S
C1088 C1095 1.409 . S
C1089 H1081 0.930 . S
C1089 C1087 1.419 . S
C1089 C1090 1.362 . S
C1090 H1082 0.930 . S
C1090 C1089 1.362 . S
C1090 C1093 1.409 . S
C1091 H1083 0.930 . S
C1091 C1092 1.355 . S
C1091 C1093 1.415 . S
C1092 C1091 1.355 . S
C1092 C1094 1.419 . S
C1093 C1088 1.425 . S
C1093 C1090 1.409 . S
C1093 C1091 1.415 . S
C1094 H1084 0.930 . S
C1094 C1092 1.419 . S
C1094 C1095 1.362 . S
C1095 H1085 0.930 . S
C1095 C1088 1.409 . S
C1095 C1094 1.362 . S
H1096 C1102 0.930 . S
H1097 C1105 0.930 . S
H1098 C1106 0.930 . S
H1099 C1107 0.930 . S
H1100 C1110 0.930 . S
H1101 C1111 0.930 . S
C1102 H1096 0.930 . S
C1102 C1103 1.355 . S
C1102 C1104 1.415 . S
C1103 C1102 1.355 . S
C1103 C1105 1.419 . S
C1104 C1102 1.415 . S
C1104 C1109 1.425 . S
C1104 C1111 1.409 . S
C1105 H1097 0.930 . S
C1105 C1103 1.419 . S
C1105 C1106 1.362 . S
C1106 H1098 0.930 . S
C1106 C1105 1.362 . S
C1106 C1109 1.409 . S
C1107 H1099 0.930 . S
C1107 C1108 1.355 . S
C1107 C1109 1.415 . S
C1108 C1107 1.355 . S
C1108 C1110 1.419 . S
C1109 C1104 1.425 . S
C1109 C1106 1.409 . S
C1109 C1107 1.415 . S
C1110 H1100 0.930 . S
C1110 C1108 1.419 . S
C1110 C1111 1.362 . S
C1111 H1101 0.930 . S
C1111 C1104 1.409 . S
C1111 C1110 1.362 . S
C612 C512 1.458 . S
C607 C35 1.374 . S
C628 C526 1.452 . S
C623 C115 1.344 . S
C644 C539 1.450 . S
C639 C177 1.393 . S
C655 C221 1.287 . S
C660 C506 1.458 . S
C671 C283 1.371 . S
C676 C499 1.456 . S
C687 C363 1.354 . S
C692 C519 1.451 . S
C708 C527 1.459 . S
C703 C407 1.333 . S
C724 C540 1.461 . S
C719 C469 1.307 . S
C735 C159 1.375 . S
C740 C566 1.458 . S
C756 C584 1.452 . S
C751 C239 1.349 . S
C767 C53 1.394 . S
C772 C591 1.455 . S
C788 C558 1.451 . S
C783 C97 1.352 . S
C799 C425 1.407 . S
C804 C551 1.467 . S
C815 C487 1.346 . S
C820 C565 1.462 . S
C836 C577 1.442 . S
C831 C301 1.316 . S
C847 C345 1.301 . S
C852 C592 1.460 . S
C868 C525 1.950 . S
C863 C29 1.959 . S
C884 C538 1.930 . S
C879 C109 1.882 . S
C895 C171 1.921 . S
C900 C501 1.953 . S
C911 C215 1.943 . S
C916 C513 1.923 . S
C927 C277 1.915 . S
C932 C545 1.901 . S
C948 C500 1.936 . S
C943 C357 1.906 . S
C964 C514 1.948 . S
C959 C401 1.956 . S
C980 C532 1.913 . S
C975 C463 1.933 . S
C996 C579 1.958 . S
C991 C153 1.947 . S
C1012 C590 1.961 . S
C1007 C233 1.930 . S
C1023 C47 1.923 . S
C1028 C553 1.954 . S
C1044 C571 1.919 . S
C1039 C91 1.917 . S
C1060 C597 1.911 . S
C1055 C419 1.873 . S
C1071 C481 1.873 . S
C1076 C552 1.910 . S
C1092 C564 1.934 . S
C1087 C295 1.891 . S
C1108 C578 1.945 . S
C1103 C339 1.953 . S
