# Generated by pormake.
# Topology tsx, (6,3)-cn, num edge types: 1
# Building blocks:
#     Node 0, Type 0, BuildingBlock: MIDCAF_clean_sbu_0, # of connection points: 6
#     Node 1, Type 0, BuildingBlock: MIDCAF_clean_sbu_0, # of connection points: 6
#     Node 2, Type 1, BuildingBlock: BETDIP_clean_linker_0, # of connection points: 3
#     Node 3, Type 1, BuildingBlock: BETDIP_clean_linker_0, # of connection points: 3
#     Node 4, Type 1, BuildingBlock: BETDIP_clean_linker_0, # of connection points: 3
#     Node 5, Type 1, BuildingBlock: BETDIP_clean_linker_0, # of connection points: 3
#     Edge 6, Type (0, 1), BuildingBlock: FUNLAD_clean_linker_1, # of connection points: 2
#     Edge 7, Type (0, 1), BuildingBlock: FUNLAD_clean_linker_1, # of connection points: 2
#     Edge 8, Type (0, 1), BuildingBlock: FUNLAD_clean_linker_1, # of connection points: 2
#     Edge 9, Type (0, 1), BuildingBlock: FUNLAD_clean_linker_1, # of connection points: 2
#     Edge 10, Type (0, 1), BuildingBlock: FUNLAD_clean_linker_1, # of connection points: 2
#     Edge 11, Type (0, 1), BuildingBlock: FUNLAD_clean_linker_1, # of connection points: 2
#     Edge 12, Type (0, 1), BuildingBlock: FUNLAD_clean_linker_1, # of connection points: 2
#     Edge 13, Type (0, 1), BuildingBlock: FUNLAD_clean_linker_1, # of connection points: 2
#     Edge 14, Type (0, 1), BuildingBlock: FUNLAD_clean_linker_1, # of connection points: 2
#     Edge 15, Type (0, 1), BuildingBlock: FUNLAD_clean_linker_1, # of connection points: 2
#     Edge 16, Type (0, 1), BuildingBlock: FUNLAD_clean_linker_1, # of connection points: 2
#     Edge 17, Type (0, 1), BuildingBlock: FUNLAD_clean_linker_1, # of connection points: 2
# Relax obj value: 0.082
# Max RMSD: 0.149
# Mean RMSD: 0.113
data_MOF--net-tsx--node1-MIDCAF_clean_sbu_0--node2-BETDIP_clean_linker_0--edge1-FUNLAD_clean_linker_1
_symmetry_space_group_name_H-M    P1
_symmetry_Int_Tables_number       1
_symmetry_cell_setting            triclinic
loop_
_symmetry_equiv_pos_as_xyz
'x, y, z'
_cell_length_a     20.938348
_cell_length_b     21.610704
_cell_length_c     36.995787
_cell_angle_alpha  90.369639
_cell_angle_beta   104.04334
_cell_angle_gamma 89.991051
loop_
_atom_site_label
_atom_site_type_symbol
_atom_site_fract_x
_atom_site_fract_y
_atom_site_fract_z
_atom_type_partial_charge
Zn0 Zn 0.91745 0.03869 0.96375 0.0
Zn1 Zn 0.15917 0.06118 0.04303 0.0
Zn2 Zn 0.03661 0.05965 0.00426 0.0
C3 C 0.11845 0.18362 0.02144 0.0
C4 C 0.1593 0.98286 0.98501 0.0
O5 O 0.98374 0.99626 0.03413 0.0
O6 O 0.89468 0.96748 0.99181 0.0
C7 C 0.93009 0.16534 0.98534 0.0
O8 O 0.06081 0.15882 0.01292 0.0
O9 O 0.16907 0.14998 0.03133 0.0
O10 O 0.19689 0.99633 0.01624 0.0
O11 O 0.10118 0.00664 0.97537 0.0
O12 O 0.88823 0.12281 0.9748 0.0
O13 O 0.99201 0.15272 0.99491 0.0
O14 O 0.04393 0.02261 0.95005 0.0
O15 O 0.94182 0.02474 0.9154 0.0
C16 C 1.00263 0.01698 0.91818 0.0
O17 O 0.0382 0.02049 0.05896 0.0
O18 O 0.13923 0.04082 0.09174 0.0
C19 C 0.93202 0.96198 0.02401 0.0
C20 C 0.08155 0.02186 0.09025 0.0
Zn21 Zn 0.69501 0.47461 0.57464 0.0
Zn22 Zn 0.47186 0.47777 0.46687 0.0
Zn23 Zn 0.58386 0.47494 0.52 0.0
C24 C 0.5749 0.44422 0.4341 0.0
C25 C 0.49256 0.59631 0.49847 0.0
O26 O 0.56418 0.42233 0.56694 0.0
O27 O 0.65857 0.42492 0.6099 0.0
C28 C 0.72285 0.41657 0.5122 0.0
O29 O 0.60781 0.44365 0.46833 0.0
O30 O 0.51481 0.45929 0.42586 0.0
O31 O 0.44925 0.56473 0.47621 0.0
O32 O 0.54742 0.5712 0.51527 0.0
O33 O 0.74986 0.43263 0.54521 0.0
O34 O 0.66184 0.42934 0.49777 0.0
O35 O 0.6127 0.57195 0.5359 0.0
O36 O 0.70349 0.56598 0.58133 0.0
C37 C 0.66092 0.59814 0.55939 0.0
O38 O 0.51047 0.41334 0.53624 0.0
O39 O 0.42608 0.41102 0.48685 0.0
C40 C 0.59897 0.40871 0.59968 0.0
C41 C 0.45338 0.39237 0.51919 0.0
H42 H 0.15514 0.97465 0.47895 0.0
H43 H 0.05152 0.05796 0.37644 0.0
H44 H 0.22126 0.94545 0.37839 0.0
H45 H 0.06645 0.14238 0.43115 0.0
C46 C 0.03532 0.1108 0.44206 0.0
C47 C 0.15082 0.98262 0.44962 0.0
C48 C 0.19589 0.95609 0.43122 0.0
C49 C 0.09957 0.02035 0.42997 0.0
C50 C 0.09154 0.02938 0.39155 0.0
C51 C 0.13484 0.00159 0.37279 0.0
C52 C 0.1874 0.96636 0.39293 0.0
N53 N 0.05534 0.04832 0.44875 0.0
H54 H 0.96336 0.00877 0.53183 0.0
H55 H 0.06095 0.08141 0.63951 0.0
H56 H 0.89078 0.96629 0.62852 0.0
H57 H 0.03467 0.17363 0.58695 0.0
C58 C 0.07042 0.14794 0.57591 0.0
C59 C 0.96722 0.01206 0.56153 0.0
C60 C 0.92188 0.98064 0.57739 0.0
C61 C 0.01667 0.04917 0.58387 0.0
C62 C 0.02247 0.053 0.62242 0.0
C63 C 0.97799 0.02162 0.63861 0.0
C64 C 0.9268 0.98748 0.61585 0.0
N65 N 0.05972 0.08393 0.56754 0.0
H66 H 0.60698 0.56558 0.94856 0.0
H67 H 0.45486 0.56059 0.84666 0.0
H68 H 0.6343 0.46017 0.85489 0.0
H69 H 0.39098 0.5982 0.87996 0.0
C70 C 0.42183 0.62476 0.90255 0.0
C71 C 0.58836 0.54855 0.92033 0.0
C72 C 0.62686 0.50821 0.90459 0.0
C73 C 0.52563 0.56684 0.90009 0.0
C74 C 0.50191 0.5452 0.86328 0.0
C75 C 0.53976 0.50543 0.84677 0.0
C76 C 0.60261 0.4877 0.86761 0.0
N77 N 0.48918 0.60909 0.91698 0.0
H78 H 0.50108 0.54035 0.05667 0.0
H79 H 0.63244 0.55987 0.16557 0.0
H80 H 0.44566 0.47078 0.15344 0.0
H81 H 0.70816 0.57999 0.13491 0.0
C82 C 0.68219 0.6029 0.10957 0.0
C83 C 0.51212 0.53307 0.08651 0.0
C84 C 0.4655 0.50435 0.10243 0.0
C85 C 0.57263 0.55344 0.10892 0.0
C86 C 0.58715 0.5429 0.14761 0.0
C87 C 0.54168 0.51242 0.16363 0.0
C88 C 0.48055 0.49466 0.14105 0.0
N89 N 0.61603 0.5869 0.09195 0.0
H90 H 0.08788 0.28053 0.02874 0.0
C91 C 0.12737 0.25156 0.02388 0.0
H92 H 0.22638 0.2467 0.0205 0.0
H93 H 0.30609 0.52195 0.01915 0.0
H94 H 0.26291 0.51146 0.95212 0.0
H95 H 0.19457 0.42136 0.9255 0.0
H96 H 0.16818 0.3416 0.96588 0.0
C97 C 0.18747 0.27577 0.0261 0.0
C98 C 0.2085 0.33819 0.04152 0.0
C99 C 0.2234 0.3842 0.01779 0.0
C100 C 0.2639 0.43541 0.03308 0.0
C101 C 0.27717 0.48124 0.00876 0.0
C102 C 0.25232 0.47594 0.97034 0.0
C103 C 0.21379 0.42522 0.95536 0.0
C104 C 0.19931 0.37969 0.9787 0.0
H105 H 0.40776 0.45077 0.05459 0.0
C106 C 0.4039 0.47867 0.07851 0.0
H107 H 0.34258 0.51209 0.11154 0.0
H108 H 0.17983 0.26362 0.09529 0.0
H109 H 0.21756 0.27697 0.16199 0.0
H110 H 0.28867 0.36506 0.18868 0.0
H111 H 0.32241 0.44 0.14886 0.0
C112 C 0.34592 0.48297 0.08804 0.0
C113 C 0.29069 0.43952 0.07209 0.0
C114 C 0.26938 0.39737 0.09608 0.0
C115 C 0.2283 0.34651 0.08072 0.0
C116 C 0.21058 0.30327 0.10525 0.0
C117 C 0.23193 0.31034 0.14373 0.0
C118 C 0.27193 0.35992 0.15874 0.0
C119 C 0.29089 0.4028 0.13539 0.0
H120 H 0.14309 0.91849 0.93684 0.0
C121 C 0.17948 0.93546 0.96104 0.0
H122 H 0.27523 0.92514 0.99528 0.0
H123 H 0.31927 0.64626 0.9664 0.0
H124 H 0.30659 0.64453 0.02977 0.0
H125 H 0.27046 0.73767 0.05815 0.0
H126 H 0.24652 0.83289 0.02329 0.0
C127 C 0.2396 0.90947 0.97039 0.0
C128 C 0.25658 0.85268 0.9517 0.0
C129 C 0.27103 0.7974 0.97265 0.0
C130 C 0.29261 0.74388 0.95649 0.0
C131 C 0.30469 0.68882 0.97767 0.0
C132 C 0.29705 0.68699 0.014 0.0
C133 C 0.27666 0.7394 0.02996 0.0
C134 C 0.26345 0.79394 0.00965 0.0
H135 H 0.42507 0.70002 0.94105 0.0
C136 C 0.39449 0.67429 0.91787 0.0
H137 H 0.2987 0.66839 0.87944 0.0
H138 H 0.23296 0.95078 0.90348 0.0
H139 H 0.24117 0.95068 0.83932 0.0
H140 H 0.2764 0.85708 0.81098 0.0
H141 H 0.30394 0.763 0.84679 0.0
C142 C 0.32884 0.69191 0.90371 0.0
C143 C 0.30062 0.74592 0.91956 0.0
C144 C 0.28303 0.80007 0.89795 0.0
C145 C 0.26164 0.85381 0.91414 0.0
C146 C 0.24763 0.90813 0.89243 0.0
C147 C 0.25271 0.9089 0.85559 0.0
C148 C 0.27258 0.85621 0.83964 0.0
C149 C 0.28802 0.80243 0.86049 0.0
H150 H 0.95643 0.90226 0.07396 0.0
C151 C 0.91853 0.91344 0.04912 0.0
H152 H 0.82487 0.89154 0.01525 0.0
H153 H 0.79915 0.6154 0.05193 0.0
H154 H 0.81616 0.60849 0.98949 0.0
H155 H 0.84994 0.70023 0.95933 0.0
H156 H 0.86707 0.79921 0.99146 0.0
C157 C 0.86191 0.88108 0.0406 0.0
C158 C 0.85039 0.82495 0.06127 0.0
C159 C 0.84059 0.76732 0.04206 0.0
C160 C 0.82042 0.7146 0.05922 0.0
C161 C 0.81243 0.65736 0.03972 0.0
C162 C 0.82264 0.6526 0.00399 0.0
C163 C 0.84169 0.70422 0.98703 0.0
C164 C 0.85094 0.7609 0.00574 0.0
H165 H 0.68742 0.67124 0.06873 0.0
C166 C 0.71397 0.64875 0.09416 0.0
H167 H 0.80447 0.64725 0.1373 0.0
H168 H 0.86704 0.92774 0.10679 0.0
H169 H 0.85589 0.93254 0.17032 0.0
H170 H 0.82376 0.8402 0.20055 0.0
H171 H 0.80209 0.7425 0.1672 0.0
C172 C 0.77833 0.66759 0.11109 0.0
C173 C 0.80921 0.71973 0.09538 0.0
C174 C 0.82383 0.77598 0.11571 0.0
C175 C 0.84364 0.82901 0.09848 0.0
C176 C 0.85391 0.88552 0.11869 0.0
C177 C 0.84709 0.88911 0.15517 0.0
C178 C 0.82895 0.83712 0.17219 0.0
C179 C 0.81686 0.78125 0.15274 0.0
H180 H 0.85159 0.23178 0.98417 0.0
C181 C 0.90403 0.22854 0.98557 0.0
H182 H 0.98757 0.27815 0.97977 0.0
H183 H 0.77862 0.44815 0.87008 0.0
H184 H 0.85401 0.41898 0.83217 0.0
H185 H 0.95066 0.35338 0.85791 0.0
H186 H 0.97282 0.31692 0.92171 0.0
C187 C 0.93674 0.28048 0.98162 0.0
C188 C 0.89758 0.33839 0.97147 0.0
C189 C 0.88711 0.36126 0.93475 0.0
C190 C 0.83108 0.39858 0.91983 0.0
C191 C 0.82009 0.41901 0.88255 0.0
C192 C 0.86306 0.40282 0.8606 0.0
C193 C 0.9175 0.36591 0.8751 0.0
C194 C 0.92953 0.34508 0.9117 0.0
H195 H 0.72131 0.52133 0.94729 0.0
C196 C 0.6933 0.48936 0.92662 0.0
H197 H 0.69006 0.40048 0.90234 0.0
H198 H 0.91742 0.31948 0.04586 0.0
H199 H 0.84578 0.35307 0.0853 0.0
H200 H 0.74523 0.41328 0.05901 0.0
H201 H 0.71606 0.44107 0.99368 0.0
C202 C 0.71836 0.43317 0.92237 0.0
C203 C 0.78601 0.41308 0.94171 0.0
C204 C 0.8018 0.39759 0.98005 0.0
C205 C 0.8586 0.3612 0.99505 0.0
C206 C 0.87384 0.34592 0.03327 0.0
C207 C 0.83341 0.36505 0.05606 0.0
C208 C 0.77684 0.39907 0.04126 0.0
C209 C 0.76074 0.41493 0.00366 0.0
H210 H 0.70289 0.68582 0.58429 0.0
C211 C 0.67175 0.66541 0.55917 0.0
H212 H 0.6324 0.67729 0.50141 0.0
H213 H 0.74362 0.94886 0.58445 0.0
H214 H 0.63926 0.95239 0.60257 0.0
H215 H 0.55896 0.86693 0.58584 0.0
H216 H 0.58277 0.77725 0.5511 0.0
C217 C 0.65839 0.69846 0.52757 0.0
C218 C 0.69405 0.75792 0.52694 0.0
C219 C 0.67919 0.81 0.54669 0.0
C220 C 0.72544 0.8591 0.55627 0.0
C221 C 0.71015 0.91013 0.57677 0.0
C222 C 0.65048 0.91277 0.58716 0.0
C223 C 0.60527 0.86464 0.57776 0.0
C224 C 0.61943 0.81349 0.55795 0.0
H225 H 0.85162 0.95273 0.52422 0.0
C226 C 0.86871 0.942 0.55365 0.0
H227 H 0.86066 0.8805 0.59659 0.0
H228 H 0.72955 0.67199 0.48088 0.0
H229 H 0.83009 0.67181 0.45909 0.0
H230 H 0.91179 0.75573 0.47703 0.0
H231 H 0.89327 0.84055 0.51662 0.0
C232 C 0.84249 0.89342 0.56763 0.0
C233 C 0.78649 0.85569 0.54622 0.0
C234 C 0.79751 0.80748 0.52234 0.0
C235 C 0.75069 0.75875 0.51232 0.0
C236 C 0.76365 0.70996 0.48942 0.0
C237 C 0.82108 0.70936 0.47671 0.0
C238 C 0.86708 0.75663 0.48681 0.0
C239 C 0.85587 0.80507 0.50954 0.0
H240 H 0.81605 0.3833 0.50287 0.0
C241 C 0.76292 0.38034 0.49213 0.0
H242 H 0.68571 0.32938 0.45672 0.0
H243 H 0.9147 0.23258 0.37818 0.0
H244 H 0.8521 0.29735 0.32877 0.0
H245 H 0.75833 0.35916 0.33808 0.0
H246 H 0.72542 0.3551 0.39675 0.0
C247 C 0.73845 0.33582 0.46712 0.0
C248 C 0.78469 0.28903 0.45809 0.0
C249 C 0.80281 0.29115 0.42377 0.0
C250 C 0.85792 0.25653 0.41884 0.0
C251 C 0.87444 0.25915 0.38393 0.0
C252 C 0.83866 0.29585 0.35522 0.0
C253 C 0.78573 0.33056 0.36043 0.0
C254 C 0.76765 0.32823 0.39423 0.0
H255 H 0.94337 0.09924 0.45733 0.0
C256 C 0.97646 0.13196 0.44903 0.0
H257 H 0.99352 0.22628 0.43605 0.0
H258 H 0.75036 0.26139 0.52267 0.0
H259 H 0.81153 0.19682 0.57275 0.0
H260 H 0.91426 0.14597 0.56779 0.0
H261 H 0.95607 0.15818 0.5128 0.0
C262 C 0.96001 0.19482 0.4451 0.0
C263 C 0.8957 0.2208 0.44864 0.0
C264 C 0.8745 0.21541 0.48223 0.0
C265 C 0.81737 0.24776 0.48619 0.0
C266 C 0.79495 0.2396 0.51902 0.0
C267 C 0.82935 0.20254 0.54784 0.0
C268 C 0.88711 0.1737 0.54495 0.0
C269 C 0.91007 0.18045 0.51283 0.0
H270 H 0.44727 0.32108 0.56124 0.0
C271 C 0.4197 0.34512 0.53667 0.0
H272 H 0.32928 0.35462 0.49689 0.0
H273 H 0.18595 0.10815 0.49615 0.0
H274 H 0.2151 0.10397 0.43667 0.0
H275 H 0.29441 0.17792 0.42192 0.0
H276 H 0.34452 0.2574 0.46635 0.0
C277 C 0.35603 0.33093 0.52183 0.0
C278 C 0.32058 0.27909 0.53486 0.0
C279 C 0.29384 0.23104 0.50928 0.0
C280 C 0.24943 0.18723 0.51822 0.0
C281 C 0.22083 0.14198 0.49122 0.0
C282 C 0.23705 0.13898 0.4569 0.0
C283 C 0.28167 0.18073 0.44854 0.0
C284 C 0.30982 0.22631 0.47426 0.0
H285 H 0.12467 0.23017 0.57356 0.0
C286 C 0.12413 0.18032 0.56946 0.0
H287 H 0.17879 0.10222 0.55602 0.0
H288 H 0.36065 0.36603 0.59044 0.0
H289 H 0.34088 0.36349 0.65219 0.0
H290 H 0.27777 0.27812 0.67084 0.0
H291 H 0.2305 0.1968 0.62678 0.0
C292 C 0.17818 0.15202 0.56008 0.0
C293 C 0.23331 0.19046 0.55324 0.0
C294 C 0.266 0.23412 0.58038 0.0
C295 C 0.30721 0.28031 0.57065 0.0
C296 C 0.33227 0.32774 0.59687 0.0
C297 C 0.32094 0.32707 0.63244 0.0
C298 C 0.28508 0.27923 0.64287 0.0
C299 C 0.25778 0.23319 0.61725 0.0
H300 H 0.51222 0.68567 0.52915 0.0
C301 C 0.47781 0.66087 0.50715 0.0
H302 H 0.38498 0.66112 0.46901 0.0
H303 H 0.21481 0.84282 0.5277 0.0
H304 H 0.17933 0.74732 0.55135 0.0
H305 H 0.24405 0.6514 0.55313 0.0
H306 H 0.3445 0.65033 0.53107 0.0
C307 C 0.42036 0.68715 0.48996 0.0
C308 C 0.39682 0.7475 0.50117 0.0
C309 C 0.33987 0.74799 0.5155 0.0
C310 C 0.30298 0.8033 0.51486 0.0
C311 C 0.24462 0.80192 0.5277 0.0
C312 C 0.22387 0.74752 0.5414 0.0
C313 C 0.26029 0.6935 0.54238 0.0
C314 C 0.31758 0.69341 0.52952 0.0
H315 H 0.27157 0.88555 0.43115 0.0
C316 C 0.25014 0.91408 0.44954 0.0
H317 H 0.25504 0.93424 0.50644 0.0
H318 H 0.51118 0.76545 0.47884 0.0
H319 H 0.55262 0.86341 0.46222 0.0
H320 H 0.49018 0.96005 0.4634 0.0
H321 H 0.38526 0.95891 0.48107 0.0
C322 C 0.27424 0.90765 0.48648 0.0
C323 C 0.32331 0.85778 0.49987 0.0
C324 C 0.38551 0.85946 0.49106 0.0
C325 C 0.42213 0.80398 0.49121 0.0
C326 C 0.48193 0.80631 0.47989 0.0
C327 C 0.5062 0.86228 0.47022 0.0
C328 C 0.47103 0.91671 0.47086 0.0
C329 C 0.41103 0.9155 0.48089 0.0
H330 H 0.00964 0.00257 0.12373 0.0
C331 C 0.06178 0.00752 0.12491 0.0
H332 H 0.15787 0.01447 0.15909 0.0
H333 H 0.10005 0.12785 0.3014 0.0
H334 H 0.14539 0.21633 0.27599 0.0
H335 H 0.16321 0.21252 0.21249 0.0
H336 H 0.13585 0.12045 0.17407 0.0
C337 C 0.10599 0.00756 0.15795 0.0
C338 C 0.08624 0.01163 0.19384 0.0
C339 C 0.10216 0.06612 0.2158 0.0
C340 C 0.09217 0.06836 0.25237 0.0
C341 C 0.10804 0.12338 0.27368 0.0
C342 C 0.13363 0.17462 0.25934 0.0
C343 C 0.14364 0.17248 0.22359 0.0
C344 C 0.12804 0.11912 0.20191 0.0
H345 H 0.17195 0.00644 0.32195 0.0
C346 C 0.12752 0.00892 0.33224 0.0
H347 H 0.02323 0.0113 0.31624 0.0
H348 H 0.04579 0.90144 0.1582 0.0
H349 H 0.99356 0.81631 0.18233 0.0
H350 H 0.97341 0.82176 0.24526 0.0
H351 H 1.00601 0.91244 0.28461 0.0
C352 C 0.06903 0.01356 0.30745 0.0
C353 C 0.06668 0.01604 0.267 0.0
C354 C 0.0453 0.9637 0.24396 0.0
C355 C 0.05582 0.96106 0.20738 0.0
C356 C 0.03752 0.90671 0.18577 0.0
C357 C 1.00789 0.85725 0.19941 0.0
C358 C 0.99658 0.86029 0.23486 0.0
C359 C 0.01544 0.91258 0.25712 0.0
H360 H 0.08043 0.00845 0.88737 0.0
C361 C 0.02751 0.00783 0.88452 0.0
H362 H 0.93355 0.00845 0.84749 0.0
H363 H 1.00355 0.14188 0.71454 0.0
H364 H 0.95171 0.2254 0.74117 0.0
H365 H 0.92677 0.214 0.80264 0.0
H366 H 0.95347 0.1192 0.83781 0.0
C367 C 0.98645 0.00635 0.85048 0.0
C368 C 0.01023 0.01535 0.81621 0.0
C369 C 0.99436 0.07121 0.79613 0.0
C370 C 0.00832 0.07775 0.76069 0.0
C371 C 0.99259 0.13415 0.74128 0.0
C372 C 0.96329 0.18256 0.75635 0.0
C373 C 0.94927 0.17615 0.79096 0.0
C374 C 0.96459 0.12132 0.81077 0.0
H375 H 0.93618 0.01986 0.68787 0.0
C376 C 0.98184 0.02505 0.67905 0.0
H377 H 0.08577 0.02995 0.69784 0.0
H378 H 0.05298 0.90453 0.84911 0.0
H379 H 0.11117 0.82423 0.82404 0.0
H380 H 0.13694 0.83656 0.76286 0.0
H381 H 0.10427 0.92934 0.72623 0.0
C382 C 0.03869 0.02954 0.70528 0.0
C383 C 0.03744 0.0282 0.74526 0.0
C384 C 0.05875 0.97465 0.76674 0.0
C385 C 0.0446 0.96789 0.80224 0.0
C386 C 0.06345 0.91261 0.82233 0.0
C387 C 0.09657 0.86597 0.80815 0.0
C388 C 0.11107 0.87291 0.77368 0.0
C389 C 0.09212 0.92635 0.75297 0.0
H390 H 0.60235 0.36522 0.65305 0.0
C391 C 0.56859 0.38377 0.62837 0.0
H392 H 0.47661 0.42623 0.60775 0.0
H393 H 0.50074 0.33587 0.78497 0.0
H394 H 0.47236 0.23317 0.75881 0.0
H395 H 0.45747 0.21349 0.69146 0.0
H396 H 0.47022 0.29678 0.64976 0.0
C397 C 0.50916 0.40336 0.6312 0.0
C398 C 0.50067 0.41676 0.66922 0.0
C399 C 0.49373 0.36794 0.6932 0.0
C400 C 0.50329 0.37927 0.73205 0.0
C401 C 0.49511 0.32962 0.75531 0.0
C402 C 0.47864 0.27054 0.74063 0.0
C403 C 0.47029 0.25944 0.70271 0.0
C404 C 0.47798 0.3074 0.67915 0.0
H405 H 0.47019 0.51185 0.7912 0.0
C406 C 0.51383 0.48788 0.80679 0.0
H407 H 0.58422 0.41939 0.80256 0.0
H408 H 0.5058 0.52273 0.62964 0.0
H409 H 0.53628 0.62489 0.6551 0.0
H410 H 0.56429 0.64308 0.72298 0.0
H411 H 0.5607 0.55994 0.7655 0.0
C412 C 0.54341 0.44773 0.78814 0.0
C413 C 0.52169 0.43917 0.74695 0.0
C414 C 0.5258 0.48883 0.72253 0.0
C415 C 0.51277 0.47785 0.68348 0.0
C416 C 0.51628 0.52812 0.65957 0.0
C417 C 0.53374 0.58714 0.6738 0.0
C418 C 0.54927 0.5974 0.71198 0.0
C419 C 0.54606 0.54902 0.73616 0.0
H420 H 0.66235 0.4394 0.41059 0.0
C421 C 0.60902 0.43609 0.40392 0.0
H422 H 0.5211 0.43191 0.36149 0.0
H423 H 0.63691 0.59674 0.25347 0.0
H424 H 0.62907 0.68051 0.29645 0.0
H425 H 0.60998 0.65835 0.35836 0.0
H426 H 0.59898 0.55271 0.37774 0.0
C427 C 0.5745 0.43492 0.36824 0.0
C428 C 0.60454 0.44741 0.33668 0.0
C429 C 0.61202 0.50954 0.32628 0.0
C430 C 0.62213 0.52247 0.29051 0.0
C431 C 0.62828 0.58476 0.28027 0.0
C432 C 0.62411 0.63311 0.30467 0.0
C433 C 0.61342 0.62062 0.33953 0.0
C434 C 0.60717 0.55969 0.35032 0.0
H435 H 0.51387 0.4982 0.21679 0.0
C436 C 0.55558 0.49994 0.20408 0.0
H437 H 0.6584 0.48409 0.21328 0.0
H438 H 0.60386 0.32385 0.35102 0.0
H439 H 0.61816 0.24022 0.30923 0.0
H440 H 0.63616 0.26283 0.24711 0.0
H441 H 0.63977 0.36923 0.22629 0.0
C442 C 0.61592 0.48702 0.22519 0.0
C443 C 0.62398 0.4734 0.2653 0.0
C444 C 0.62394 0.41132 0.27726 0.0
C445 C 0.61367 0.39829 0.31302 0.0
C446 C 0.61117 0.33593 0.32395 0.0
C447 C 0.61953 0.28772 0.30032 0.0
C448 C 0.62974 0.30046 0.26535 0.0
C449 C 0.63161 0.36153 0.25371 0.0
loop_
_geom_bond_atom_site_label_1
_geom_bond_atom_site_label_2
_geom_bond_distance
_geom_bond_site_symmetry_2
_ccdc_geom_bond_type
Zn0 O6 1.920 1_545 S
Zn0 O12 1.898 . S
Zn0 O15 1.905 1_545 S
Zn1 O9 1.905 . S
Zn1 O10 1.898 1_545 S
Zn1 O18 1.920 1_545 S
Zn2 O5 2.080 1_445 S
Zn2 O8 2.114 . S
Zn2 O11 2.120 1_545 S
Zn2 O13 2.120 1_455 S
Zn2 O14 2.114 1_554 S
Zn2 O17 2.080 . S
C3 O8 1.166 . S
C3 O9 1.182 . S
C4 O10 1.167 . S
C4 O11 1.299 . S
O5 Zn2 2.080 1_665 S
O5 C19 1.305 . S
O6 Zn0 1.920 1_565 S
O6 C19 1.234 1_556 S
C7 O12 1.167 . S
C7 O13 1.299 1_556 S
O8 Zn2 2.114 . S
O8 C3 1.166 . S
O9 Zn1 1.905 . S
O9 C3 1.182 . S
O10 Zn1 1.898 1_565 S
O10 C4 1.167 . S
O11 Zn2 2.120 1_565 S
O11 C4 1.299 . S
O12 Zn0 1.898 . S
O12 C7 1.167 . S
O13 Zn2 2.120 1_655 S
O13 C7 1.299 1_554 S
O14 Zn2 2.114 1_556 S
O14 C16 1.169 1_545 S
O15 Zn0 1.905 1_565 S
O15 C16 1.176 1_655 S
C16 O14 1.169 1_565 S
C16 O15 1.176 1_455 S
O17 Zn2 2.080 . S
O17 C20 1.305 1_545 S
O18 Zn1 1.920 1_565 S
O18 C20 1.234 . S
C19 O5 1.305 . S
C19 O6 1.234 1_554 S
C20 O17 1.305 1_565 S
C20 O18 1.234 . S
Zn21 O27 1.920 . S
Zn21 O33 1.898 . S
Zn21 O36 1.905 . S
Zn22 O30 1.905 . S
Zn22 O31 1.898 . S
Zn22 O39 1.920 . S
Zn23 O26 2.080 . S
Zn23 O29 2.114 . S
Zn23 O32 2.120 . S
Zn23 O34 2.120 . S
Zn23 O35 2.114 . S
Zn23 O38 2.080 . S
C24 O29 1.166 . S
C24 O30 1.182 . S
C25 O31 1.167 . S
C25 O32 1.299 . S
O26 Zn23 2.080 . S
O26 C40 1.305 . S
O27 Zn21 1.920 . S
O27 C40 1.234 . S
C28 O33 1.167 . S
C28 O34 1.299 . S
O29 Zn23 2.114 . S
O29 C24 1.166 . S
O30 Zn22 1.905 . S
O30 C24 1.182 . S
O31 Zn22 1.898 . S
O31 C25 1.167 . S
O32 Zn23 2.120 . S
O32 C25 1.299 . S
O33 Zn21 1.898 . S
O33 C28 1.167 . S
O34 Zn23 2.120 . S
O34 C28 1.299 . S
O35 Zn23 2.114 . S
O35 C37 1.166 . S
O36 Zn21 1.905 . S
O36 C37 1.182 . S
C37 O35 1.166 . S
C37 O36 1.182 . S
O38 Zn23 2.080 . S
O38 C41 1.305 . S
O39 Zn22 1.920 . S
O39 C41 1.234 . S
C40 O26 1.305 . S
C40 O27 1.234 . S
C41 O38 1.305 . S
C41 O39 1.234 . S
H42 C47 0.930 1_565 S
H43 C50 0.930 . S
H44 C52 0.930 . S
H45 C46 1.016 . S
C46 H45 1.016 . S
C46 N53 1.286 . S
C47 H42 0.930 1_545 S
C47 C48 1.397 1_545 S
C47 C49 1.361 . S
C48 C47 1.397 1_565 S
C48 C52 1.390 . S
C49 C47 1.361 . S
C49 C50 1.393 . S
C49 N53 1.413 . S
C50 H43 0.930 . S
C50 C49 1.393 . S
C50 C51 1.399 . S
C51 C50 1.399 . S
C51 C52 1.381 1_545 S
C52 H44 0.930 . S
C52 C48 1.390 . S
C52 C51 1.381 1_565 S
N53 C46 1.286 . S
N53 C49 1.413 . S
H54 C59 0.930 1_565 S
H55 C62 0.930 . S
H56 C64 0.930 . S
H57 C58 1.016 . S
C58 H57 1.016 . S
C58 N65 1.286 . S
C59 H54 0.930 1_545 S
C59 C60 1.397 1_545 S
C59 C61 1.361 1_655 S
C60 C59 1.397 1_565 S
C60 C64 1.390 . S
C61 C59 1.361 1_455 S
C61 C62 1.393 . S
C61 N65 1.413 . S
C62 H55 0.930 . S
C62 C61 1.393 . S
C62 C63 1.399 1_455 S
C63 C62 1.399 1_655 S
C63 C64 1.381 1_545 S
C64 H56 0.930 . S
C64 C60 1.390 . S
C64 C63 1.381 1_565 S
N65 C58 1.286 . S
N65 C61 1.413 . S
H66 C71 0.930 . S
H67 C74 0.930 . S
H68 C76 0.930 . S
H69 C70 1.016 . S
C70 H69 1.016 . S
C70 N77 1.286 . S
C71 H66 0.930 . S
C71 C72 1.397 . S
C71 C73 1.361 . S
C72 C71 1.397 . S
C72 C76 1.390 . S
C73 C71 1.361 . S
C73 C74 1.393 . S
C73 N77 1.413 . S
C74 H67 0.930 . S
C74 C73 1.393 . S
C74 C75 1.399 . S
C75 C74 1.399 . S
C75 C76 1.381 . S
C76 H68 0.930 . S
C76 C72 1.390 . S
C76 C75 1.381 . S
N77 C70 1.286 . S
N77 C73 1.413 . S
H78 C83 0.930 . S
H79 C86 0.930 . S
H80 C88 0.930 . S
H81 C82 1.016 . S
C82 H81 1.016 . S
C82 N89 1.286 . S
C83 H78 0.930 . S
C83 C84 1.397 . S
C83 C85 1.361 . S
C84 C83 1.397 . S
C84 C88 1.390 . S
C85 C83 1.361 . S
C85 C86 1.393 . S
C85 N89 1.413 . S
C86 H79 0.930 . S
C86 C85 1.393 . S
C86 C87 1.399 . S
C87 C86 1.399 . S
C87 C88 1.381 . S
C88 H80 0.930 . S
C88 C84 1.390 . S
C88 C87 1.381 . S
N89 C82 1.286 . S
N89 C85 1.413 . S
H90 C91 0.951 . S
C91 H90 0.951 . S
C91 C97 1.265 . S
H92 C97 0.950 . S
H93 C101 0.949 1_554 S
H94 C102 0.950 . S
H95 C103 0.951 . S
H96 C104 0.951 . S
C97 C91 1.265 . S
C97 H92 0.950 . S
C97 C98 1.478 . S
C98 C97 1.478 . S
C98 C99 1.397 . S
C98 C115 1.394 . S
C99 C98 1.397 . S
C99 C100 1.438 . S
C99 C104 1.429 1_554 S
C100 C99 1.438 . S
C100 C101 1.428 1_554 S
C100 C113 1.394 . S
C101 H93 0.949 1_556 S
C101 C100 1.428 1_556 S
C101 C102 1.345 . S
C102 H94 0.950 . S
C102 C101 1.345 . S
C102 C103 1.424 . S
C103 H95 0.951 . S
C103 C102 1.424 . S
C103 C104 1.347 . S
C104 H96 0.951 . S
C104 C99 1.429 1_556 S
C104 C103 1.347 . S
H105 C106 0.951 . S
C106 H105 0.951 . S
C106 C112 1.265 . S
H107 C112 0.950 . S
H108 C116 0.949 . S
H109 C117 0.950 . S
H110 C118 0.951 . S
H111 C119 0.951 . S
C112 C106 1.265 . S
C112 H107 0.950 . S
C112 C113 1.478 . S
C113 C100 1.394 . S
C113 C112 1.478 . S
C113 C114 1.397 . S
C114 C113 1.397 . S
C114 C115 1.438 . S
C114 C119 1.429 . S
C115 C98 1.394 . S
C115 C114 1.438 . S
C115 C116 1.428 . S
C116 H108 0.949 . S
C116 C115 1.428 . S
C116 C117 1.345 . S
C117 H109 0.950 . S
C117 C116 1.345 . S
C117 C118 1.424 . S
C118 H110 0.951 . S
C118 C117 1.424 . S
C118 C119 1.347 . S
C119 H111 0.951 . S
C119 C114 1.429 . S
C119 C118 1.347 . S
H120 C121 0.951 . S
C121 H120 0.951 . S
C121 C127 1.265 1_556 S
H122 C127 0.950 . S
H123 C131 0.949 . S
H124 C132 0.950 . S
H125 C133 0.951 . S
H126 C134 0.951 . S
C127 C121 1.265 1_554 S
C127 H122 0.950 . S
C127 C128 1.478 1_554 S
C128 C127 1.478 1_556 S
C128 C129 1.397 1_556 S
C128 C145 1.394 . S
C129 C128 1.397 1_554 S
C129 C130 1.438 1_554 S
C129 C134 1.429 . S
C130 C129 1.438 1_556 S
C130 C131 1.428 1_556 S
C130 C143 1.394 . S
C131 H123 0.949 . S
C131 C130 1.428 1_554 S
C131 C132 1.345 . S
C132 H124 0.950 . S
C132 C131 1.345 . S
C132 C133 1.424 . S
C133 H125 0.951 . S
C133 C132 1.424 . S
C133 C134 1.347 . S
C134 H126 0.951 . S
C134 C129 1.429 . S
C134 C133 1.347 . S
H135 C136 0.951 . S
C136 H135 0.951 . S
C136 C142 1.265 . S
H137 C142 0.950 . S
H138 C146 0.949 . S
H139 C147 0.950 . S
H140 C148 0.951 . S
H141 C149 0.951 . S
C142 C136 1.265 . S
C142 H137 0.950 . S
C142 C143 1.478 . S
C143 C130 1.394 . S
C143 C142 1.478 . S
C143 C144 1.397 . S
C144 C143 1.397 . S
C144 C145 1.438 . S
C144 C149 1.429 . S
C145 C128 1.394 . S
C145 C144 1.438 . S
C145 C146 1.428 . S
C146 H138 0.949 . S
C146 C145 1.428 . S
C146 C147 1.345 . S
C147 H139 0.950 . S
C147 C146 1.345 . S
C147 C148 1.424 . S
C148 H140 0.951 . S
C148 C147 1.424 . S
C148 C149 1.347 . S
C149 H141 0.951 . S
C149 C144 1.429 . S
C149 C148 1.347 . S
H150 C151 0.951 . S
C151 H150 0.951 . S
C151 C157 1.265 . S
H152 C157 0.950 1_556 S
H153 C161 0.949 . S
H154 C162 0.950 . S
H155 C163 0.951 . S
H156 C164 0.951 . S
C157 C151 1.265 . S
C157 H152 0.950 1_554 S
C157 C158 1.478 . S
C158 C157 1.478 . S
C158 C159 1.397 . S
C158 C175 1.394 . S
C159 C158 1.397 . S
C159 C160 1.438 . S
C159 C164 1.429 1_554 S
C160 C159 1.438 . S
C160 C161 1.428 1_554 S
C160 C173 1.394 . S
C161 H153 0.949 . S
C161 C160 1.428 1_556 S
C161 C162 1.345 . S
C162 H154 0.950 . S
C162 C161 1.345 . S
C162 C163 1.424 . S
C163 H155 0.951 . S
C163 C162 1.424 . S
C163 C164 1.347 . S
C164 H156 0.951 . S
C164 C159 1.429 1_556 S
C164 C163 1.347 . S
H165 C166 0.951 . S
C166 H165 0.951 . S
C166 C172 1.265 . S
H167 C172 0.950 . S
H168 C176 0.949 . S
H169 C177 0.950 . S
H170 C178 0.951 . S
H171 C179 0.951 . S
C172 C166 1.265 . S
C172 H167 0.950 . S
C172 C173 1.478 . S
C173 C160 1.394 . S
C173 C172 1.478 . S
C173 C174 1.397 . S
C174 C173 1.397 . S
C174 C175 1.438 . S
C174 C179 1.429 . S
C175 C158 1.394 . S
C175 C174 1.438 . S
C175 C176 1.428 . S
C176 H168 0.949 . S
C176 C175 1.428 . S
C176 C177 1.345 . S
C177 H169 0.950 . S
C177 C176 1.345 . S
C177 C178 1.424 . S
C178 H170 0.951 . S
C178 C177 1.424 . S
C178 C179 1.347 . S
C179 H171 0.951 . S
C179 C174 1.429 . S
C179 C178 1.347 . S
H180 C181 0.951 . S
C181 H180 0.951 . S
C181 C187 1.265 . S
H182 C187 0.950 . S
H183 C191 0.949 . S
H184 C192 0.950 . S
H185 C193 0.951 . S
H186 C194 0.951 . S
C187 C181 1.265 . S
C187 H182 0.950 . S
C187 C188 1.478 . S
C188 C187 1.478 . S
C188 C189 1.397 . S
C188 C205 1.394 . S
C189 C188 1.397 . S
C189 C190 1.438 . S
C189 C194 1.429 . S
C190 C189 1.438 . S
C190 C191 1.428 . S
C190 C203 1.394 . S
C191 H183 0.949 . S
C191 C190 1.428 . S
C191 C192 1.345 . S
C192 H184 0.950 . S
C192 C191 1.345 . S
C192 C193 1.424 . S
C193 H185 0.951 . S
C193 C192 1.424 . S
C193 C194 1.347 . S
C194 H186 0.951 . S
C194 C189 1.429 . S
C194 C193 1.347 . S
H195 C196 0.951 . S
C196 H195 0.951 . S
C196 C202 1.265 . S
H197 C202 0.950 . S
H198 C206 0.949 . S
H199 C207 0.950 . S
H200 C208 0.951 . S
H201 C209 0.951 . S
C202 C196 1.265 . S
C202 H197 0.950 . S
C202 C203 1.478 . S
C203 C190 1.394 . S
C203 C202 1.478 . S
C203 C204 1.397 . S
C204 C203 1.397 . S
C204 C205 1.438 . S
C204 C209 1.429 1_556 S
C205 C188 1.394 . S
C205 C204 1.438 . S
C205 C206 1.428 1_556 S
C206 H198 0.949 . S
C206 C205 1.428 1_554 S
C206 C207 1.345 . S
C207 H199 0.950 . S
C207 C206 1.345 . S
C207 C208 1.424 . S
C208 H200 0.951 . S
C208 C207 1.424 . S
C208 C209 1.347 . S
C209 H201 0.951 . S
C209 C204 1.429 1_554 S
C209 C208 1.347 . S
H210 C211 0.951 . S
C211 H210 0.951 . S
C211 C217 1.265 . S
H212 C217 0.950 . S
H213 C221 0.949 . S
H214 C222 0.950 . S
H215 C223 0.951 . S
H216 C224 0.951 . S
C217 C211 1.265 . S
C217 H212 0.950 . S
C217 C218 1.478 . S
C218 C217 1.478 . S
C218 C219 1.397 . S
C218 C235 1.394 . S
C219 C218 1.397 . S
C219 C220 1.438 . S
C219 C224 1.429 . S
C220 C219 1.438 . S
C220 C221 1.428 . S
C220 C233 1.394 . S
C221 H213 0.949 . S
C221 C220 1.428 . S
C221 C222 1.345 . S
C222 H214 0.950 . S
C222 C221 1.345 . S
C222 C223 1.424 . S
C223 H215 0.951 . S
C223 C222 1.424 . S
C223 C224 1.347 . S
C224 H216 0.951 . S
C224 C219 1.429 . S
C224 C223 1.347 . S
H225 C226 0.951 . S
C226 H225 0.951 . S
C226 C232 1.265 . S
H227 C232 0.950 . S
H228 C236 0.949 . S
H229 C237 0.950 . S
H230 C238 0.951 . S
H231 C239 0.951 . S
C232 C226 1.265 . S
C232 H227 0.950 . S
C232 C233 1.478 . S
C233 C220 1.394 . S
C233 C232 1.478 . S
C233 C234 1.397 . S
C234 C233 1.397 . S
C234 C235 1.438 . S
C234 C239 1.429 . S
C235 C218 1.394 . S
C235 C234 1.438 . S
C235 C236 1.428 . S
C236 H228 0.949 . S
C236 C235 1.428 . S
C236 C237 1.345 . S
C237 H229 0.950 . S
C237 C236 1.345 . S
C237 C238 1.424 . S
C238 H230 0.951 . S
C238 C237 1.424 . S
C238 C239 1.347 . S
C239 H231 0.951 . S
C239 C234 1.429 . S
C239 C238 1.347 . S
H240 C241 0.951 . S
C241 H240 0.951 . S
C241 C247 1.265 . S
H242 C247 0.950 . S
H243 C251 0.949 . S
H244 C252 0.950 . S
H245 C253 0.951 . S
H246 C254 0.951 . S
C247 C241 1.265 . S
C247 H242 0.950 . S
C247 C248 1.478 . S
C248 C247 1.478 . S
C248 C249 1.397 . S
C248 C265 1.394 . S
C249 C248 1.397 . S
C249 C250 1.438 . S
C249 C254 1.429 . S
C250 C249 1.438 . S
C250 C251 1.428 . S
C250 C263 1.394 . S
C251 H243 0.949 . S
C251 C250 1.428 . S
C251 C252 1.345 . S
C252 H244 0.950 . S
C252 C251 1.345 . S
C252 C253 1.424 . S
C253 H245 0.951 . S
C253 C252 1.424 . S
C253 C254 1.347 . S
C254 H246 0.951 . S
C254 C249 1.429 . S
C254 C253 1.347 . S
H255 C256 0.951 . S
C256 H255 0.951 . S
C256 C262 1.265 . S
H257 C262 0.950 . S
H258 C266 0.949 . S
H259 C267 0.950 . S
H260 C268 0.951 . S
H261 C269 0.951 . S
C262 C256 1.265 . S
C262 H257 0.950 . S
C262 C263 1.478 . S
C263 C250 1.394 . S
C263 C262 1.478 . S
C263 C264 1.397 . S
C264 C263 1.397 . S
C264 C265 1.438 . S
C264 C269 1.429 . S
C265 C248 1.394 . S
C265 C264 1.438 . S
C265 C266 1.428 . S
C266 H258 0.949 . S
C266 C265 1.428 . S
C266 C267 1.345 . S
C267 H259 0.950 . S
C267 C266 1.345 . S
C267 C268 1.424 . S
C268 H260 0.951 . S
C268 C267 1.424 . S
C268 C269 1.347 . S
C269 H261 0.951 . S
C269 C264 1.429 . S
C269 C268 1.347 . S
H270 C271 0.951 . S
C271 H270 0.951 . S
C271 C277 1.265 . S
H272 C277 0.950 . S
H273 C281 0.949 . S
H274 C282 0.950 . S
H275 C283 0.951 . S
H276 C284 0.951 . S
C277 C271 1.265 . S
C277 H272 0.950 . S
C277 C278 1.478 . S
C278 C277 1.478 . S
C278 C279 1.397 . S
C278 C295 1.394 . S
C279 C278 1.397 . S
C279 C280 1.438 . S
C279 C284 1.429 . S
C280 C279 1.438 . S
C280 C281 1.428 . S
C280 C293 1.394 . S
C281 H273 0.949 . S
C281 C280 1.428 . S
C281 C282 1.345 . S
C282 H274 0.950 . S
C282 C281 1.345 . S
C282 C283 1.424 . S
C283 H275 0.951 . S
C283 C282 1.424 . S
C283 C284 1.347 . S
C284 H276 0.951 . S
C284 C279 1.429 . S
C284 C283 1.347 . S
H285 C286 0.951 . S
C286 H285 0.951 . S
C286 C292 1.265 . S
H287 C292 0.950 . S
H288 C296 0.949 . S
H289 C297 0.950 . S
H290 C298 0.951 . S
H291 C299 0.951 . S
C292 C286 1.265 . S
C292 H287 0.950 . S
C292 C293 1.478 . S
C293 C280 1.394 . S
C293 C292 1.478 . S
C293 C294 1.397 . S
C294 C293 1.397 . S
C294 C295 1.438 . S
C294 C299 1.429 . S
C295 C278 1.394 . S
C295 C294 1.438 . S
C295 C296 1.428 . S
C296 H288 0.949 . S
C296 C295 1.428 . S
C296 C297 1.345 . S
C297 H289 0.950 . S
C297 C296 1.345 . S
C297 C298 1.424 . S
C298 H290 0.951 . S
C298 C297 1.424 . S
C298 C299 1.347 . S
C299 H291 0.951 . S
C299 C294 1.429 . S
C299 C298 1.347 . S
H300 C301 0.951 . S
C301 H300 0.951 . S
C301 C307 1.265 . S
H302 C307 0.950 . S
H303 C311 0.949 . S
H304 C312 0.950 . S
H305 C313 0.951 . S
H306 C314 0.951 . S
C307 C301 1.265 . S
C307 H302 0.950 . S
C307 C308 1.478 . S
C308 C307 1.478 . S
C308 C309 1.397 . S
C308 C325 1.394 . S
C309 C308 1.397 . S
C309 C310 1.438 . S
C309 C314 1.429 . S
C310 C309 1.438 . S
C310 C311 1.428 . S
C310 C323 1.394 . S
C311 H303 0.949 . S
C311 C310 1.428 . S
C311 C312 1.345 . S
C312 H304 0.950 . S
C312 C311 1.345 . S
C312 C313 1.424 . S
C313 H305 0.951 . S
C313 C312 1.424 . S
C313 C314 1.347 . S
C314 H306 0.951 . S
C314 C309 1.429 . S
C314 C313 1.347 . S
H315 C316 0.951 . S
C316 H315 0.951 . S
C316 C322 1.265 . S
H317 C322 0.950 . S
H318 C326 0.949 . S
H319 C327 0.950 . S
H320 C328 0.951 . S
H321 C329 0.951 . S
C322 C316 1.265 . S
C322 H317 0.950 . S
C322 C323 1.478 . S
C323 C310 1.394 . S
C323 C322 1.478 . S
C323 C324 1.397 . S
C324 C323 1.397 . S
C324 C325 1.438 . S
C324 C329 1.429 . S
C325 C308 1.394 . S
C325 C324 1.438 . S
C325 C326 1.428 . S
C326 H318 0.949 . S
C326 C325 1.428 . S
C326 C327 1.345 . S
C327 H319 0.950 . S
C327 C326 1.345 . S
C327 C328 1.424 . S
C328 H320 0.951 . S
C328 C327 1.424 . S
C328 C329 1.347 . S
C329 H321 0.951 . S
C329 C324 1.429 . S
C329 C328 1.347 . S
H330 C331 0.951 . S
C331 H330 0.951 . S
C331 C337 1.265 1_565 S
H332 C337 0.950 . S
H333 C341 0.949 . S
H334 C342 0.950 . S
H335 C343 0.951 . S
H336 C344 0.951 . S
C337 C331 1.265 1_545 S
C337 H332 0.950 . S
C337 C338 1.478 . S
C338 C337 1.478 . S
C338 C339 1.397 . S
C338 C355 1.394 1_545 S
C339 C338 1.397 . S
C339 C340 1.438 . S
C339 C344 1.429 . S
C340 C339 1.438 . S
C340 C341 1.428 . S
C340 C353 1.394 . S
C341 H333 0.949 . S
C341 C340 1.428 . S
C341 C342 1.345 . S
C342 H334 0.950 . S
C342 C341 1.345 . S
C342 C343 1.424 . S
C343 H335 0.951 . S
C343 C342 1.424 . S
C343 C344 1.347 . S
C344 H336 0.951 . S
C344 C339 1.429 . S
C344 C343 1.347 . S
H345 C346 0.951 . S
C346 H345 0.951 . S
C346 C352 1.265 . S
H347 C352 0.950 1_565 S
H348 C356 0.949 . S
H349 C357 0.950 . S
H350 C358 0.951 . S
H351 C359 0.951 . S
C352 C346 1.265 . S
C352 H347 0.950 1_545 S
C352 C353 1.478 . S
C353 C340 1.394 . S
C353 C352 1.478 . S
C353 C354 1.397 1_545 S
C354 C353 1.397 1_565 S
C354 C355 1.438 . S
C354 C359 1.429 . S
C355 C338 1.394 1_565 S
C355 C354 1.438 . S
C355 C356 1.428 . S
C356 H348 0.949 . S
C356 C355 1.428 . S
C356 C357 1.345 . S
C357 H349 0.950 . S
C357 C356 1.345 . S
C357 C358 1.424 . S
C358 H350 0.951 . S
C358 C357 1.424 . S
C358 C359 1.347 . S
C359 H351 0.951 . S
C359 C354 1.429 . S
C359 C358 1.347 . S
H360 C361 0.951 . S
C361 H360 0.951 . S
C361 C367 1.265 1_455 S
H362 C367 0.950 . S
H363 C371 0.949 . S
H364 C372 0.950 . S
H365 C373 0.951 . S
H366 C374 0.951 . S
C367 C361 1.265 1_655 S
C367 H362 0.950 . S
C367 C368 1.478 . S
C368 C367 1.478 . S
C368 C369 1.397 1_565 S
C368 C385 1.394 1_655 S
C369 C368 1.397 1_545 S
C369 C370 1.438 . S
C369 C374 1.429 . S
C370 C369 1.438 . S
C370 C371 1.428 . S
C370 C383 1.394 1_655 S
C371 H363 0.949 . S
C371 C370 1.428 . S
C371 C372 1.345 . S
C372 H364 0.950 . S
C372 C371 1.345 . S
C372 C373 1.424 . S
C373 H365 0.951 . S
C373 C372 1.424 . S
C373 C374 1.347 . S
C374 H366 0.951 . S
C374 C369 1.429 . S
C374 C373 1.347 . S
H375 C376 0.951 . S
C376 H375 0.951 . S
C376 C382 1.265 1_655 S
H377 C382 0.950 . S
H378 C386 0.949 . S
H379 C387 0.950 . S
H380 C388 0.951 . S
H381 C389 0.951 . S
C382 C376 1.265 1_455 S
C382 H377 0.950 . S
C382 C383 1.478 . S
C383 C370 1.394 1_455 S
C383 C382 1.478 . S
C383 C384 1.397 1_545 S
C384 C383 1.397 1_565 S
C384 C385 1.438 . S
C384 C389 1.429 . S
C385 C368 1.394 1_455 S
C385 C384 1.438 . S
C385 C386 1.428 . S
C386 H378 0.949 . S
C386 C385 1.428 . S
C386 C387 1.345 . S
C387 H379 0.950 . S
C387 C386 1.345 . S
C387 C388 1.424 . S
C388 H380 0.951 . S
C388 C387 1.424 . S
C388 C389 1.347 . S
C389 H381 0.951 . S
C389 C384 1.429 . S
C389 C388 1.347 . S
H390 C391 0.951 . S
C391 H390 0.951 . S
C391 C397 1.265 . S
H392 C397 0.950 . S
H393 C401 0.949 . S
H394 C402 0.950 . S
H395 C403 0.951 . S
H396 C404 0.951 . S
C397 C391 1.265 . S
C397 H392 0.950 . S
C397 C398 1.478 . S
C398 C397 1.478 . S
C398 C399 1.397 . S
C398 C415 1.394 . S
C399 C398 1.397 . S
C399 C400 1.438 . S
C399 C404 1.429 . S
C400 C399 1.438 . S
C400 C401 1.428 . S
C400 C413 1.394 . S
C401 H393 0.949 . S
C401 C400 1.428 . S
C401 C402 1.345 . S
C402 H394 0.950 . S
C402 C401 1.345 . S
C402 C403 1.424 . S
C403 H395 0.951 . S
C403 C402 1.424 . S
C403 C404 1.347 . S
C404 H396 0.951 . S
C404 C399 1.429 . S
C404 C403 1.347 . S
H405 C406 0.951 . S
C406 H405 0.951 . S
C406 C412 1.265 . S
H407 C412 0.950 . S
H408 C416 0.949 . S
H409 C417 0.950 . S
H410 C418 0.951 . S
H411 C419 0.951 . S
C412 C406 1.265 . S
C412 H407 0.950 . S
C412 C413 1.478 . S
C413 C400 1.394 . S
C413 C412 1.478 . S
C413 C414 1.397 . S
C414 C413 1.397 . S
C414 C415 1.438 . S
C414 C419 1.429 . S
C415 C398 1.394 . S
C415 C414 1.438 . S
C415 C416 1.428 . S
C416 H408 0.949 . S
C416 C415 1.428 . S
C416 C417 1.345 . S
C417 H409 0.950 . S
C417 C416 1.345 . S
C417 C418 1.424 . S
C418 H410 0.951 . S
C418 C417 1.424 . S
C418 C419 1.347 . S
C419 H411 0.951 . S
C419 C414 1.429 . S
C419 C418 1.347 . S
H420 C421 0.951 . S
C421 H420 0.951 . S
C421 C427 1.265 . S
H422 C427 0.950 . S
H423 C431 0.949 . S
H424 C432 0.950 . S
H425 C433 0.951 . S
H426 C434 0.951 . S
C427 C421 1.265 . S
C427 H422 0.950 . S
C427 C428 1.478 . S
C428 C427 1.478 . S
C428 C429 1.397 . S
C428 C445 1.394 . S
C429 C428 1.397 . S
C429 C430 1.438 . S
C429 C434 1.429 . S
C430 C429 1.438 . S
C430 C431 1.428 . S
C430 C443 1.394 . S
C431 H423 0.949 . S
C431 C430 1.428 . S
C431 C432 1.345 . S
C432 H424 0.950 . S
C432 C431 1.345 . S
C432 C433 1.424 . S
C433 H425 0.951 . S
C433 C432 1.424 . S
C433 C434 1.347 . S
C434 H426 0.951 . S
C434 C429 1.429 . S
C434 C433 1.347 . S
H435 C436 0.951 . S
C436 H435 0.951 . S
C436 C442 1.265 . S
H437 C442 0.950 . S
H438 C446 0.949 . S
H439 C447 0.950 . S
H440 C448 0.951 . S
H441 C449 0.951 . S
C442 C436 1.265 . S
C442 H437 0.950 . S
C442 C443 1.478 . S
C443 C430 1.394 . S
C443 C442 1.478 . S
C443 C444 1.397 . S
C444 C443 1.397 . S
C444 C445 1.438 . S
C444 C449 1.429 . S
C445 C428 1.394 . S
C445 C444 1.438 . S
C445 C446 1.428 . S
C446 H438 0.949 . S
C446 C445 1.428 . S
C446 C447 1.345 . S
C447 H439 0.950 . S
C447 C446 1.345 . S
C447 C448 1.424 . S
C448 H440 0.951 . S
C448 C447 1.424 . S
C448 C449 1.347 . S
C449 H441 0.951 . S
C449 C444 1.429 . S
C449 C448 1.347 . S
C106 C84 1.307 . S
C91 C3 1.272 . S
C121 C4 1.494 1_556 S
C136 C70 1.536 . S
C151 C19 1.511 . S
C166 C82 1.540 . S
C181 C7 1.141 . S
C196 C72 1.335 . S
C211 C37 1.141 . S
C226 C60 1.326 . S
C241 C28 1.366 . S
C256 C46 1.478 1_655 S
C286 C58 1.534 . S
C271 C41 1.506 . S
C316 C48 1.325 . S
C301 C25 1.161 . S
C331 C20 1.425 . S
C346 C51 1.490 . S
C361 C16 1.458 . S
C376 C63 1.518 . S
C406 C75 1.482 . S
C391 C40 1.283 . S
C421 C24 1.460 . S
C436 C87 1.522 . S
