# Generated by pormake.
# Topology pyr, (3,6)-cn, num edge types: 1
# Building blocks:
#     Node 0, Type 0, BuildingBlock: KAKCAD_clean_linker_0, # of connection points: 3
#     Node 1, Type 0, BuildingBlock: KAKCAD_clean_linker_0, # of connection points: 3
#     Node 2, Type 0, BuildingBlock: KAKCAD_clean_linker_0, # of connection points: 3
#     Node 3, Type 0, BuildingBlock: KAKCAD_clean_linker_0, # of connection points: 3
#     Node 4, Type 0, BuildingBlock: KAKCAD_clean_linker_0, # of connection points: 3
#     Node 5, Type 0, BuildingBlock: KAKCAD_clean_linker_0, # of connection points: 3
#     Node 6, Type 0, BuildingBlock: KAKCAD_clean_linker_0, # of connection points: 3
#     Node 7, Type 0, BuildingBlock: KAKCAD_clean_linker_0, # of connection points: 3
#     Node 8, Type 1, BuildingBlock: BETDAH_clean_sbu_0, # of connection points: 6
#     Node 9, Type 1, BuildingBlock: BETDAH_clean_sbu_0, # of connection points: 6
#     Node 10, Type 1, BuildingBlock: BETDAH_clean_sbu_0, # of connection points: 6
#     Node 11, Type 1, BuildingBlock: BETDAH_clean_sbu_0, # of connection points: 6
#     Edge 12, Type (0, 1), BuildingBlock: TEMPAE_clean_linker_10, # of connection points: 2
#     Edge 13, Type (0, 1), BuildingBlock: TEMPAE_clean_linker_10, # of connection points: 2
#     Edge 14, Type (0, 1), BuildingBlock: TEMPAE_clean_linker_10, # of connection points: 2
#     Edge 15, Type (0, 1), BuildingBlock: TEMPAE_clean_linker_10, # of connection points: 2
#     Edge 16, Type (0, 1), BuildingBlock: TEMPAE_clean_linker_10, # of connection points: 2
#     Edge 17, Type (0, 1), BuildingBlock: TEMPAE_clean_linker_10, # of connection points: 2
#     Edge 18, Type (0, 1), BuildingBlock: TEMPAE_clean_linker_10, # of connection points: 2
#     Edge 19, Type (0, 1), BuildingBlock: TEMPAE_clean_linker_10, # of connection points: 2
#     Edge 20, Type (0, 1), BuildingBlock: TEMPAE_clean_linker_10, # of connection points: 2
#     Edge 21, Type (0, 1), BuildingBlock: TEMPAE_clean_linker_10, # of connection points: 2
#     Edge 22, Type (0, 1), BuildingBlock: TEMPAE_clean_linker_10, # of connection points: 2
#     Edge 23, Type (0, 1), BuildingBlock: TEMPAE_clean_linker_10, # of connection points: 2
#     Edge 24, Type (0, 1), BuildingBlock: TEMPAE_clean_linker_10, # of connection points: 2
#     Edge 25, Type (0, 1), BuildingBlock: TEMPAE_clean_linker_10, # of connection points: 2
#     Edge 26, Type (0, 1), BuildingBlock: TEMPAE_clean_linker_10, # of connection points: 2
#     Edge 27, Type (0, 1), BuildingBlock: TEMPAE_clean_linker_10, # of connection points: 2
#     Edge 28, Type (0, 1), BuildingBlock: TEMPAE_clean_linker_10, # of connection points: 2
#     Edge 29, Type (0, 1), BuildingBlock: TEMPAE_clean_linker_10, # of connection points: 2
#     Edge 30, Type (0, 1), BuildingBlock: TEMPAE_clean_linker_10, # of connection points: 2
#     Edge 31, Type (0, 1), BuildingBlock: TEMPAE_clean_linker_10, # of connection points: 2
#     Edge 32, Type (0, 1), BuildingBlock: TEMPAE_clean_linker_10, # of connection points: 2
#     Edge 33, Type (0, 1), BuildingBlock: TEMPAE_clean_linker_10, # of connection points: 2
#     Edge 34, Type (0, 1), BuildingBlock: TEMPAE_clean_linker_10, # of connection points: 2
#     Edge 35, Type (0, 1), BuildingBlock: TEMPAE_clean_linker_10, # of connection points: 2
# Relax obj value: 0.092
# Max RMSD: 0.123
# Mean RMSD: 0.058
data_MOF--net-pyr--node1-BETDAH_clean_sbu_0--node2-KAKCAD_clean_linker_0--edge1-TEMPAE_clean_linker_10
_symmetry_space_group_name_H-M    P1
_symmetry_Int_Tables_number       1
_symmetry_cell_setting            triclinic
loop_
_symmetry_equiv_pos_as_xyz
'x, y, z'
_cell_length_a     46.694283
_cell_length_b     50.144146
_cell_length_c     45.79478
_cell_angle_alpha  91.527668
_cell_angle_beta   88.868261
_cell_angle_gamma 99.868862
loop_
_atom_site_label
_atom_site_type_symbol
_atom_site_fract_x
_atom_site_fract_y
_atom_site_fract_z
_atom_type_partial_charge
C0 C 0.25291 0.23832 0.28936 0.0
C1 C 0.26731 0.22758 0.31169 0.0
C2 C 0.26832 0.24998 0.26524 0.0
C3 C 0.29865 0.25151 0.26293 0.0
C4 C 0.31322 0.24145 0.28573 0.0
C5 C 0.29767 0.22946 0.30982 0.0
C6 C 0.31439 0.26208 0.23593 0.0
C7 C 0.30555 0.28331 0.22121 0.0
C8 C 0.31637 0.29042 0.19319 0.0
C9 C 0.33866 0.27789 0.18094 0.0
C10 C 0.34864 0.25693 0.19572 0.0
C11 C 0.33593 0.24905 0.22305 0.0
C12 C 0.37005 0.24125 0.18185 0.0
C13 C 0.37072 0.23643 0.15145 0.0
C14 C 0.38851 0.22907 0.19924 0.0
C15 C 0.40528 0.21099 0.18699 0.0
C16 C 0.40503 0.20522 0.15674 0.0
C17 C 0.30127 0.30829 0.1759 0.0
C18 C 0.27073 0.30351 0.17586 0.0
C19 C 0.31642 0.33016 0.16016 0.0
C20 C 0.3011 0.34766 0.14585 0.0
C21 C 0.27053 0.34345 0.14721 0.0
C22 C 0.2556 0.32086 0.1618 0.0
C23 C 0.38828 0.21903 0.13905 0.0
H24 H 0.22946 0.2366 0.28986 0.0
H25 H 0.25618 0.2568 0.24784 0.0
H26 H 0.33659 0.24254 0.28479 0.0
H27 H 0.30928 0.22136 0.32681 0.0
H28 H 0.28903 0.29363 0.23102 0.0
H29 H 0.34145 0.23159 0.23361 0.0
H30 H 0.34724 0.28375 0.15949 0.0
H31 H 0.35686 0.24517 0.13713 0.0
H32 H 0.38944 0.23283 0.22261 0.0
H33 H 0.41754 0.20083 0.20163 0.0
H34 H 0.25841 0.28635 0.18701 0.0
H35 H 0.33996 0.33416 0.15969 0.0
H36 H 0.38811 0.216 0.11557 0.0
H37 H 0.23205 0.31666 0.1625 0.0
H38 H 0.31308 0.36486 0.13452 0.0
C39 C 0.33406 0.89807 0.69377 0.0
C40 C 0.36144 0.91472 0.6954 0.0
C41 C 0.32287 0.88823 0.6669 0.0
C42 C 0.33877 0.89473 0.64095 0.0
C43 C 0.36655 0.91071 0.6425 0.0
C44 C 0.37779 0.92069 0.66955 0.0
C45 C 0.32583 0.88473 0.61261 0.0
C46 C 0.2966 0.88595 0.60759 0.0
C47 C 0.28225 0.87316 0.58299 0.0
C48 C 0.29823 0.86007 0.56247 0.0
C49 C 0.32796 0.85985 0.56644 0.0
C50 C 0.34164 0.87223 0.5916 0.0
C51 C 0.34416 0.84445 0.54589 0.0
C52 C 0.33225 0.81779 0.53759 0.0
C53 C 0.37249 0.85531 0.53653 0.0
C54 C 0.38925 0.8392 0.5207 0.0
C55 C 0.3781 0.81184 0.51431 0.0
C56 C 0.25074 0.87373 0.57909 0.0
C57 C 0.23224 0.87475 0.60358 0.0
C58 C 0.23915 0.87483 0.55113 0.0
C59 C 0.21047 0.8787 0.54791 0.0
C60 C 0.19298 0.88265 0.57255 0.0
C61 C 0.20402 0.8797 0.60041 0.0
C62 C 0.34905 0.80163 0.52207 0.0
H63 H 0.32127 0.89251 0.71335 0.0
H64 H 0.30171 0.87538 0.66644 0.0
H65 H 0.37924 0.91599 0.6228 0.0
H66 H 0.39894 0.93353 0.67017 0.0
H67 H 0.28507 0.89697 0.62322 0.0
H68 H 0.36412 0.87078 0.59562 0.0
H69 H 0.28757 0.84966 0.54358 0.0
H70 H 0.31056 0.80881 0.54474 0.0
H71 H 0.38199 0.87598 0.54231 0.0
H72 H 0.41138 0.84782 0.51466 0.0
H73 H 0.23979 0.87272 0.62547 0.0
H74 H 0.25246 0.87393 0.53164 0.0
H75 H 0.33981 0.78056 0.51808 0.0
H76 H 0.1916 0.88259 0.62008 0.0
H77 H 0.20252 0.87969 0.526 0.0
C78 C 0.74279 0.41529 0.89552 0.0
C79 C 0.76601 0.40161 0.90142 0.0
C80 C 0.71727 0.40186 0.88177 0.0
C81 C 0.71372 0.37407 0.87397 0.0
C82 C 0.73689 0.36039 0.88 0.0
C83 C 0.76261 0.37394 0.89318 0.0
C84 C 0.68592 0.35924 0.8602 0.0
C85 C 0.67268 0.37051 0.83703 0.0
C86 C 0.64676 0.35687 0.82372 0.0
C87 C 0.63425 0.33089 0.83465 0.0
C88 C 0.64698 0.31879 0.858 0.0
C89 C 0.67272 0.3336 0.87032 0.0
C90 C 0.63389 0.29096 0.87012 0.0
C91 C 0.60361 0.28113 0.8709 0.0
C92 C 0.65178 0.27407 0.88222 0.0
C93 C 0.64009 0.24926 0.89528 0.0
C94 C 0.60988 0.23969 0.89661 0.0
C95 C 0.63341 0.36997 0.79838 0.0
C96 C 0.63678 0.39848 0.79614 0.0
C97 C 0.61778 0.35452 0.77569 0.0
C98 C 0.60658 0.36694 0.75187 0.0
C99 C 0.61059 0.39544 0.74944 0.0
C100 C 0.62583 0.41084 0.77229 0.0
C101 C 0.59189 0.25604 0.88375 0.0
H102 H 0.74446 0.43658 0.90127 0.0
H103 H 0.70003 0.41317 0.87773 0.0
H104 H 0.73526 0.3391 0.87427 0.0
H105 H 0.77973 0.36254 0.89741 0.0
H106 H 0.68333 0.38978 0.82881 0.0
H107 H 0.68237 0.32553 0.88871 0.0
H108 H 0.61456 0.32003 0.82497 0.0
H109 H 0.5887 0.29314 0.86226 0.0
H110 H 0.67519 0.27986 0.88154 0.0
H111 H 0.655 0.23734 0.90412 0.0
H112 H 0.64773 0.4116 0.81309 0.0
H113 H 0.61468 0.33264 0.77582 0.0
H114 H 0.56852 0.24979 0.88426 0.0
H115 H 0.62905 0.43273 0.77207 0.0
H116 H 0.59529 0.35403 0.73493 0.0
C117 C 0.8673 0.6284 0.24988 0.0
C118 C 0.89763 0.63012 0.24599 0.0
C119 C 0.85534 0.64067 0.27428 0.0
C120 C 0.87316 0.65537 0.29586 0.0
C121 C 0.90352 0.65741 0.29182 0.0
C122 C 0.91549 0.64496 0.26749 0.0
C123 C 0.86012 0.66786 0.32262 0.0
C124 C 0.83422 0.65428 0.33606 0.0
C125 C 0.82214 0.66498 0.36142 0.0
C126 C 0.83606 0.69007 0.37314 0.0
C127 C 0.86135 0.70491 0.36001 0.0
C128 C 0.87336 0.69325 0.33495 0.0
C129 C 0.87458 0.73263 0.37254 0.0
C130 C 0.85677 0.75018 0.38498 0.0
C131 C 0.90491 0.7418 0.37285 0.0
C132 C 0.91685 0.76725 0.38548 0.0
C133 C 0.89896 0.78463 0.39822 0.0
C134 C 0.79493 0.65009 0.37594 0.0
C135 C 0.76941 0.64121 0.36 0.0
C136 C 0.79397 0.6454 0.40619 0.0
C137 C 0.7684 0.63218 0.42003 0.0
C138 C 0.74268 0.6238 0.40423 0.0
C139 C 0.74359 0.62858 0.37398 0.0
C140 C 0.86866 0.7755 0.39759 0.0
H141 H 0.85256 0.61707 0.23425 0.0
H142 H 0.83193 0.63871 0.27606 0.0
H143 H 0.91819 0.66825 0.30781 0.0
H144 H 0.93891 0.64719 0.26545 0.0
H145 H 0.82384 0.63478 0.32738 0.0
H146 H 0.89256 0.70436 0.32444 0.0
H147 H 0.82687 0.69812 0.39268 0.0
H148 H 0.83334 0.74448 0.38491 0.0
H149 H 0.91959 0.72912 0.36377 0.0
H150 H 0.94023 0.77334 0.38499 0.0
H151 H 0.76922 0.64458 0.33674 0.0
H152 H 0.81314 0.65187 0.41921 0.0
H153 H 0.85386 0.78775 0.40731 0.0
H154 H 0.72433 0.62234 0.36105 0.0
H155 H 0.76858 0.62902 0.44332 0.0
C156 C 0.73583 0.76898 0.72019 0.0
C157 C 0.7422 0.79677 0.71434 0.0
C158 C 0.71903 0.75987 0.74479 0.0
C159 C 0.70852 0.77843 0.76409 0.0
C160 C 0.7139 0.80604 0.75735 0.0
C161 C 0.7304 0.81505 0.73281 0.0
C162 C 0.69505 0.76997 0.79284 0.0
C163 C 0.70675 0.75162 0.80971 0.0
C164 C 0.69852 0.74776 0.83918 0.0
C165 C 0.67819 0.76252 0.85187 0.0
C166 C 0.666 0.78076 0.83514 0.0
C167 C 0.67376 0.78347 0.80545 0.0
C168 C 0.648 0.7995 0.84897 0.0
C169 C 0.62541 0.79042 0.86892 0.0
C170 C 0.6538 0.82711 0.8422 0.0
C171 C 0.6372 0.84516 0.85464 0.0
C172 C 0.61431 0.83616 0.87425 0.0
C173 C 0.71442 0.73107 0.85713 0.0
C174 C 0.7195 0.70571 0.8465 0.0
C175 C 0.72775 0.74183 0.88311 0.0
C176 C 0.74709 0.72823 0.89721 0.0
C177 C 0.75331 0.70353 0.88574 0.0
C178 C 0.73865 0.69201 0.86073 0.0
C179 C 0.60865 0.80859 0.88142 0.0
H180 H 0.74451 0.75442 0.70623 0.0
H181 H 0.71504 0.73843 0.74918 0.0
H182 H 0.70689 0.82108 0.77196 0.0
H183 H 0.73543 0.83666 0.7294 0.0
H184 H 0.72408 0.74192 0.80063 0.0
H185 H 0.6642 0.79732 0.79244 0.0
H186 H 0.67287 0.7607 0.87495 0.0
H187 H 0.62045 0.76926 0.87453 0.0
H188 H 0.67157 0.83492 0.82752 0.0
H189 H 0.64273 0.86634 0.84926 0.0
H190 H 0.70945 0.69694 0.82654 0.0
H191 H 0.72447 0.76145 0.89165 0.0
H192 H 0.59111 0.80102 0.89643 0.0
H193 H 0.74309 0.67307 0.85131 0.0
H194 H 0.75785 0.73743 0.91665 0.0
C195 C 0.72027 0.18722 0.3065 0.0
C196 C 0.7067 0.20623 0.29255 0.0
C197 C 0.73777 0.1948 0.33057 0.0
C198 C 0.7425 0.22169 0.3412 0.0
C199 C 0.72911 0.24087 0.32722 0.0
C200 C 0.71142 0.23322 0.30302 0.0
C201 C 0.76048 0.22903 0.36751 0.0
C202 C 0.78547 0.21755 0.37147 0.0
C203 C 0.80008 0.22063 0.39816 0.0
C204 C 0.79026 0.23655 0.42067 0.0
C205 C 0.76603 0.24905 0.41661 0.0
C206 C 0.75125 0.24524 0.38999 0.0
C207 C 0.75453 0.26452 0.44069 0.0
C208 C 0.74814 0.25302 0.46822 0.0
C209 C 0.7474 0.28995 0.43535 0.0
C210 C 0.73276 0.30306 0.45656 0.0
C211 C 0.72477 0.29095 0.48354 0.0
C212 C 0.8238 0.20517 0.40332 0.0
C213 C 0.82116 0.17811 0.39334 0.0
C214 C 0.84837 0.21666 0.41942 0.0
C215 C 0.86939 0.20111 0.42614 0.0
C216 C 0.86625 0.17386 0.41677 0.0
C217 C 0.84219 0.16267 0.39991 0.0
C218 C 0.73319 0.26607 0.48946 0.0
H219 H 0.71757 0.16638 0.29866 0.0
H220 H 0.74727 0.17938 0.34111 0.0
H221 H 0.73243 0.26178 0.33489 0.0
H222 H 0.70122 0.2483 0.29272 0.0
H223 H 0.79314 0.20555 0.3539 0.0
H224 H 0.73156 0.25364 0.38749 0.0
H225 H 0.8009 0.23865 0.44163 0.0
H226 H 0.75332 0.2333 0.47275 0.0
H227 H 0.75222 0.29923 0.41432 0.0
H228 H 0.72616 0.32198 0.45107 0.0
H229 H 0.80222 0.16845 0.38141 0.0
H230 H 0.85117 0.23754 0.4271 0.0
H231 H 0.7273 0.2563 0.51005 0.0
H232 H 0.8389 0.14158 0.3929 0.0
H233 H 0.88787 0.21025 0.43903 0.0
C234 C 0.25954 0.63132 0.17909 0.0
C235 C 0.25531 0.63361 0.14882 0.0
C236 C 0.28519 0.64439 0.19288 0.0
C237 C 0.30786 0.66035 0.17706 0.0
C238 C 0.30379 0.66233 0.14673 0.0
C239 C 0.27814 0.64936 0.13298 0.0
C240 C 0.33509 0.67539 0.19208 0.0
C241 C 0.34729 0.66434 0.21616 0.0
C242 C 0.37214 0.67833 0.23109 0.0
C243 C 0.3851 0.70429 0.22037 0.0
C244 C 0.37373 0.71605 0.19597 0.0
C245 C 0.3488 0.70106 0.18237 0.0
C246 C 0.38728 0.74389 0.18423 0.0
C247 C 0.41757 0.75363 0.18448 0.0
C248 C 0.36991 0.76078 0.17129 0.0
C249 C 0.38214 0.78549 0.15833 0.0
C250 C 0.41239 0.79493 0.15794 0.0
C251 C 0.38406 0.66561 0.25768 0.0
C252 C 0.36611 0.64611 0.27483 0.0
C253 C 0.41344 0.67225 0.26631 0.0
C254 C 0.42418 0.65997 0.29051 0.0
C255 C 0.40627 0.64007 0.30728 0.0
C256 C 0.37692 0.63353 0.29859 0.0
C257 C 0.42983 0.77863 0.17172 0.0
H258 H 0.24305 0.6192 0.19234 0.0
H259 H 0.28692 0.64232 0.21622 0.0
H260 H 0.32056 0.67389 0.13331 0.0
H261 H 0.27611 0.65216 0.10981 0.0
H262 H 0.33763 0.6442 0.2227 0.0
H263 H 0.33984 0.70951 0.16385 0.0
H264 H 0.40359 0.71579 0.2315 0.0
H265 H 0.43206 0.7416 0.19386 0.0
H266 H 0.34649 0.75505 0.17119 0.0
H267 H 0.36762 0.7974 0.14879 0.0
H268 H 0.34323 0.6404 0.27024 0.0
H269 H 0.42856 0.68681 0.25418 0.0
H270 H 0.45321 0.7848 0.17197 0.0
H271 H 0.36188 0.61825 0.30984 0.0
H272 H 0.44674 0.66647 0.29603 0.0
C273 C 0.11717 0.27564 0.63913 0.0
C274 C 0.10894 0.25253 0.65624 0.0
C275 C 0.12911 0.3009 0.65191 0.0
C276 C 0.13283 0.30421 0.68237 0.0
C277 C 0.12396 0.28129 0.69962 0.0
C278 C 0.11249 0.25584 0.68676 0.0
C279 C 0.14746 0.331 0.69565 0.0
C280 C 0.1734 0.34483 0.68286 0.0
C281 C 0.18855 0.36944 0.69487 0.0
C282 C 0.1765 0.38053 0.72016 0.0
C283 C 0.15013 0.36769 0.73335 0.0
C284 C 0.13604 0.34272 0.7209 0.0
C285 C 0.13738 0.38062 0.75993 0.0
C286 C 0.15522 0.39313 0.78267 0.0
C287 C 0.10735 0.38126 0.76259 0.0
C288 C 0.09573 0.3943 0.78671 0.0
C289 C 0.11356 0.40698 0.8095 0.0
C290 C 0.21685 0.3833 0.68085 0.0
C291 C 0.23603 0.36812 0.66652 0.0
C292 C 0.22499 0.41176 0.68118 0.0
C293 C 0.25105 0.42443 0.66764 0.0
C294 C 0.27 0.40922 0.65295 0.0
C295 C 0.26184 0.38077 0.65272 0.0
C296 C 0.14358 0.40584 0.80696 0.0
H297 H 0.11503 0.27409 0.61561 0.0
H298 H 0.13551 0.31797 0.6378 0.0
H299 H 0.12662 0.28284 0.72308 0.0
H300 H 0.10627 0.23871 0.70081 0.0
H301 H 0.18187 0.33614 0.66332 0.0
H302 H 0.1161 0.33237 0.73083 0.0
H303 H 0.18765 0.39935 0.72969 0.0
H304 H 0.17836 0.39284 0.78191 0.0
H305 H 0.09278 0.37226 0.74555 0.0
H306 H 0.07267 0.39486 0.78699 0.0
H307 H 0.23132 0.34622 0.66601 0.0
H308 H 0.21104 0.42448 0.69154 0.0
H309 H 0.15834 0.41454 0.82395 0.0
H310 H 0.27518 0.36799 0.64146 0.0
H311 H 0.25633 0.44629 0.66895 0.0
Ho312 Ho 0.02683 0.02519 0.5031 0.0
Ho313 Ho 0.98443 1.01071 0.5523 0.0
C314 C 0.03113 0.06848 0.55618 0.0
C315 C 0.05351 0.03681 0.45389 0.0
C316 C 0.07508 0.05885 0.44238 0.0
C317 C 0.08267 0.08338 0.45808 0.0
C318 C 0.10409 0.10378 0.44707 0.0
C319 C 0.11816 0.09986 0.42023 0.0
C320 C 0.11041 0.07515 0.40473 0.0
C321 C 0.08904 0.05486 0.41572 0.0
C322 C 0.04645 0.99844 0.54672 0.0
C323 C 0.97999 0.96777 0.49909 0.0
C324 C 0.95834 0.99698 0.60114 0.0
C325 C 0.94031 0.97205 0.61143 0.0
C326 C 0.94292 0.94675 0.59876 0.0
C327 C 0.92406 0.92342 0.60732 0.0
C328 C 0.90219 0.92512 0.62853 0.0
C329 C 0.89986 0.95059 0.64116 0.0
C330 C 0.9188 0.9738 0.63272 0.0
C331 C 0.96467 0.03686 0.50845 0.0
O332 O 0.03858 0.0646 0.52852 0.0
O333 O 1.01253 0.0497 0.57009 0.0
O334 O 0.06292 0.02231 0.47369 0.0
O335 O 0.02781 0.0426 0.46034 0.0
O336 O 0.06188 1.0188 0.53363 0.0
O337 O 0.02158 0.99335 0.53574 0.0
O338 O 0.97409 0.97102 0.52722 0.0
O339 O 0.99721 0.98725 0.48481 0.0
O340 O 0.94676 1.00917 0.5807 0.0
O341 O 0.98585 0.99603 0.5961 0.0
O342 O 0.94867 1.0175 0.52258 0.0
O343 O 0.98952 0.04209 0.51935 0.0
H344 H 0.07213 0.08669 0.47883 0.0
H345 H 0.10944 0.12266 0.45938 0.0
H346 H 0.12118 0.07132 0.38426 0.0
H347 H 0.08358 0.03591 0.40351 0.0
H348 H 0.95927 0.94507 0.58202 0.0
H349 H 0.92657 0.90413 0.59732 0.0
H350 H 0.88289 0.95274 0.65708 0.0
H351 H 0.91625 0.99324 0.64238 0.0
Ho352 Ho 0.53997 1.01915 0.03934 0.0
Ho353 Ho 0.48531 1.01435 1.01516 0.0
C354 C 0.49362 0.05093 0.06967 0.0
C355 C 0.58882 0.03437 0.06565 0.0
C356 C 0.60184 0.05833 0.08276 0.0
C357 C 0.59289 0.08343 0.07956 0.0
C358 C 0.60416 0.10552 0.09763 0.0
C359 C 0.62442 0.10273 0.11919 0.0
C360 C 0.63342 0.07753 0.12197 0.0
C361 C 0.62227 0.05559 0.10387 0.0
C362 C 0.50497 0.97147 0.05488 0.0
C363 C 0.53359 0.98419 0.98225 0.0
C364 C 0.43599 0.99849 0.98994 0.0
C365 C 0.42833 0.9886 0.95999 0.0
C366 C 0.43788 0.96546 0.94805 0.0
C367 C 0.43249 0.95768 0.91891 0.0
C368 C 0.41752 0.97291 0.90114 0.0
C369 C 0.40749 0.99573 0.91325 0.0
C370 C 0.41278 1.00344 0.94243 0.0
C371 C 0.51985 0.06185 0.99856 0.0
O372 O 0.52089 0.05312 0.06099 0.0
O373 O 0.47424 0.03153 0.05848 0.0
O374 O 0.56623 1.01965 0.07776 0.0
O375 O 0.58528 0.03782 0.03791 0.0
O376 O 0.53162 0.97389 0.04565 0.0
O377 O 0.49752 0.99474 0.05493 0.0
O378 O 0.50577 0.98544 0.98589 0.0
O379 O 0.55304 0.99875 0.99901 0.0
O380 O 0.44822 0.02381 0.99238 0.0
O381 O 0.4485 0.98289 1.00605 0.0
O382 O 0.49288 0.05919 1.00673 0.0
O383 O 0.52771 0.03875 0.99935 0.0
H384 H 0.57693 0.08585 0.06342 0.0
H385 H 0.59691 0.12467 0.09484 0.0
H386 H 0.64845 0.07446 0.13878 0.0
H387 H 0.62912 0.03626 0.10682 0.0
H388 H 0.44994 0.95358 0.96102 0.0
H389 H 0.44061 0.94009 0.9101 0.0
H390 H 0.3955 1.00759 0.90014 0.0
H391 H 0.40515 1.02131 0.95117 0.0
Ho392 Ho 0.50703 0.49341 0.51047 0.0
Ho393 Ho 0.50622 0.53949 0.54748 0.0
C394 C 0.53132 0.49211 0.57757 0.0
C395 C 0.52143 0.45221 0.48238 0.0
C396 C 0.53723 0.43086 0.49112 0.0
C397 C 0.56067 0.4368 0.51032 0.0
C398 C 0.57562 0.41649 0.51855 0.0
C399 C 0.56752 0.38992 0.50759 0.0
C400 C 0.54364 0.38387 0.48887 0.0
C401 C 0.52854 0.40422 0.48078 0.0
C402 C 0.45524 0.49096 0.53974 0.0
C403 C 0.48265 0.54143 0.47985 0.0
C404 C 0.4897 0.57994 0.57479 0.0
C405 C 0.48112 0.60495 0.5643 0.0
C406 C 0.45166 0.60749 0.56514 0.0
C407 C 0.44265 0.62993 0.55333 0.0
C408 C 0.46296 0.65063 0.54085 0.0
C409 C 0.49251 0.64821 0.54016 0.0
C410 C 0.50152 0.62555 0.55172 0.0
C411 C 0.55806 0.54267 0.51817 0.0
O412 O 0.53257 0.48306 0.55012 0.0
O413 O 0.5186 0.51333 0.58318 0.0
O414 O 0.49602 0.4518 0.49484 0.0
O415 O 0.5366 0.47662 0.48135 0.0
O416 O 0.45805 0.48491 0.51224 0.0
O417 O 0.48028 0.49846 0.55038 0.0
O418 O 0.48465 0.55249 0.50659 0.0
O419 O 0.4917 0.5181 0.47489 0.0
O420 O 0.51703 0.5775 0.57159 0.0
O421 O 0.47202 0.5576 0.56797 0.0
O422 O 0.55504 0.54962 0.5454 0.0
O423 O 0.53308 0.53448 0.50756 0.0
H424 H 0.56785 0.45723 0.51857 0.0
H425 H 0.5943 0.42184 0.5325 0.0
H426 H 0.537 0.36351 0.48013 0.0
H427 H 0.51033 0.39924 0.46616 0.0
H428 H 0.43546 0.59184 0.57453 0.0
H429 H 0.41966 0.63095 0.5538 0.0
H430 H 0.50874 0.66398 0.53107 0.0
H431 H 0.52441 0.62415 0.55061 0.0
Ho432 Ho 1.01006 0.4937 0.04273 0.0
Ho433 Ho 1.00475 0.54826 1.0144 0.0
C434 C 0.06392 0.54557 0.04948 0.0
C435 C 0.02717 0.44996 0.0584 0.0
C436 C 0.05551 0.44162 0.0619 0.0
C437 C 0.081 0.45674 0.05005 0.0
C438 C 0.10791 0.44882 0.05421 0.0
C439 C 0.10968 0.42557 0.07014 0.0
C440 C 0.08398 0.41053 0.08186 0.0
C441 C 0.05717 0.4185 0.07776 0.0
C442 C 0.97931 0.52613 0.07493 0.0
C443 C 0.95372 0.49494 1.00285 0.0
C444 C 0.98711 0.59391 1.00896 0.0
C445 C 0.96593 0.6052 0.99196 0.0
C446 C 0.95888 0.63024 1.00083 0.0
C447 C 0.93594 0.63987 0.98792 0.0
C448 C 0.91964 0.62459 0.96587 0.0
C449 C 0.92742 0.59987 0.95626 0.0
C450 C 0.95033 0.59013 0.96938 0.0
C451 C 0.02825 0.51604 0.97403 0.0
O452 O 0.05475 0.51903 0.05146 0.0
O453 O 0.04773 0.56146 0.03724 0.0
O454 O 0.02109 0.46853 0.07697 0.0
O455 O 0.02015 0.45421 0.0316 0.0
O456 O 0.97302 0.49984 0.07336 0.0
O457 O 1.00222 0.53362 0.05978 0.0
O458 O 0.96181 0.52168 1.00175 0.0
O459 O 0.96972 0.47951 1.01605 0.0
O460 O 1.01009 0.58786 0.99507 0.0
O461 O 0.9756 0.57541 0.02737 0.0
O462 O 0.0231 0.54017 0.96897 0.0
O463 O 0.02046 0.51114 1.00023 0.0
H464 H 0.08009 0.47467 0.03766 0.0
H465 H 0.12727 0.46073 0.0448 0.0
H466 H 0.08464 0.39283 0.09472 0.0
H467 H 0.03772 0.40672 0.08719 0.0
H468 H 0.97054 0.64199 1.01842 0.0
H469 H 0.93065 0.65912 0.9955 0.0
H470 H 0.91511 0.58762 0.93942 0.0
H471 H 0.95526 0.57054 0.96259 0.0
C472 C 0.2267 0.22243 0.34862 0.0
C473 C 0.25 0.21231 0.33519 0.0
C474 C 0.20668 0.2061 0.3666 0.0
C475 C 0.21002 0.17899 0.37104 0.0
C476 C 0.2347 0.16933 0.35929 0.0
C477 C 0.25448 0.18617 0.34152 0.0
C478 C 0.18087 0.21727 0.37908 0.0
C479 C 0.23903 0.14054 0.36353 0.0
C480 C 0.1625 0.13568 0.42629 0.0
C481 C 0.14094 0.12127 0.40824 0.0
C482 C 0.18496 0.15493 0.41467 0.0
C483 C 0.18585 0.15974 0.38432 0.0
C484 C 0.16381 0.14566 0.36615 0.0
C485 C 0.14159 0.1267 0.37835 0.0
C486 C 0.20802 0.16971 0.43469 0.0
C487 C 0.1639 0.1503 0.33367 0.0
H488 H 0.22344 0.2428 0.34405 0.0
H489 H 0.27236 0.17821 0.33103 0.0
H490 H 0.16105 0.20812 0.36707 0.0
H491 H 0.17717 0.21195 0.40237 0.0
H492 H 0.18371 0.23962 0.37732 0.0
H493 H 0.26104 0.13727 0.3563 0.0
H494 H 0.23576 0.13506 0.38681 0.0
H495 H 0.22267 0.12655 0.35073 0.0
H496 H 0.16222 0.13141 0.44938 0.0
H497 H 0.12469 0.11601 0.3644 0.0
H498 H 0.21006 0.1919 0.43217 0.0
H499 H 0.2294 0.16416 0.42865 0.0
H500 H 0.20321 0.16489 0.458 0.0
H501 H 0.16358 0.17196 0.3296 0.0
H502 H 0.14498 0.13788 0.32268 0.0
H503 H 0.18411 0.14528 0.32345 0.0
C504 C 0.4012 0.92549 0.73214 0.0
C505 C 0.37242 0.92581 0.72418 0.0
C506 C 0.41093 0.93412 0.76022 0.0
C507 C 0.39136 0.94316 0.78069 0.0
C508 C 0.36256 0.94427 0.77245 0.0
C509 C 0.3535 0.9357 0.74427 0.0
C510 C 0.44187 0.93286 0.76824 0.0
C511 C 0.34106 0.95386 0.79364 0.0
C512 C 0.40215 0.938 0.86199 0.0
C513 C 0.41236 0.96506 0.87004 0.0
C514 C 0.39603 0.93046 0.83278 0.0
C515 C 0.40041 0.95047 0.81115 0.0
C516 C 0.41152 0.9777 0.81902 0.0
C517 C 0.41727 0.9847 0.84843 0.0
C518 C 0.38397 0.90125 0.82523 0.0
C519 C 0.4167 0.99952 0.79649 0.0
H520 H 0.41584 0.91772 0.71674 0.0
H521 H 0.3314 0.9365 0.73802 0.0
H522 H 0.45262 0.95274 0.77724 0.0
H523 H 0.44196 0.9178 0.78554 0.0
H524 H 0.45488 0.92712 0.74924 0.0
H525 H 0.31971 0.9542 0.7835 0.0
H526 H 0.33754 0.94034 0.81265 0.0
H527 H 0.34981 0.97451 0.80212 0.0
H528 H 0.39815 0.92283 0.87869 0.0
H529 H 0.42562 1.00557 0.85457 0.0
H530 H 0.39728 0.89361 0.80759 0.0
H531 H 0.36156 0.89964 0.81693 0.0
H532 H 0.38337 0.88795 0.84433 0.0
H533 H 0.43053 0.99357 0.77831 0.0
H534 H 0.42732 1.01933 0.80588 0.0
H535 H 0.39569 1.0021 0.78701 0.0
C536 C 0.5725 0.39843 0.71016 0.0
C537 C 0.59917 0.40911 0.72347 0.0
C538 C 0.56149 0.41135 0.68648 0.0
C539 C 0.57738 0.4357 0.67498 0.0
C540 C 0.60449 0.44637 0.68801 0.0
C541 C 0.61484 0.43322 0.71184 0.0
C542 C 0.53249 0.39898 0.67391 0.0
C543 C 0.62283 0.47179 0.67659 0.0
C544 C 0.56029 0.45731 0.59698 0.0
C545 C 0.54347 0.47781 0.60239 0.0
C546 C 0.57153 0.44376 0.62001 0.0
C547 C 0.56561 0.45017 0.64978 0.0
C548 C 0.54849 0.47073 0.65535 0.0
C549 C 0.53793 0.48424 0.63192 0.0
C550 C 0.58969 0.42236 0.61232 0.0
C551 C 0.54108 0.47843 0.68631 0.0
H552 H 0.55973 0.38011 0.71866 0.0
H553 H 0.63565 0.44177 0.72113 0.0
H554 H 0.51733 0.41376 0.67569 0.0
H555 H 0.53513 0.39408 0.65035 0.0
H556 H 0.5225 0.38022 0.68516 0.0
H557 H 0.64362 0.47738 0.68842 0.0
H558 H 0.62778 0.46899 0.65301 0.0
H559 H 0.61062 0.48888 0.67868 0.0
H560 H 0.56491 0.45185 0.57457 0.0
H561 H 0.52494 0.49978 0.63684 0.0
H562 H 0.57714 0.40211 0.61731 0.0
H563 H 0.60968 0.42533 0.62558 0.0
H564 H 0.59609 0.42248 0.58884 0.0
H565 H 0.52956 0.46035 0.69771 0.0
H566 H 0.52719 0.49434 0.68728 0.0
H567 H 0.56131 0.48593 0.69845 0.0
C568 C 0.93513 0.60397 0.22276 0.0
C569 C 0.91041 0.61633 0.21995 0.0
C570 C 0.94675 0.59041 0.19889 0.0
C571 C 0.93371 0.58902 0.17098 0.0
C572 C 0.90906 0.60179 0.16784 0.0
C573 C 0.89777 0.61508 0.19212 0.0
C574 C 0.97281 0.57706 0.20374 0.0
C575 C 0.89437 0.60128 0.13873 0.0
C576 C 0.97794 0.57065 0.10302 0.0
C577 C 0.96708 0.54293 0.09845 0.0
C578 C 0.96719 0.5859 0.12611 0.0
C579 C 0.94506 0.57331 0.14554 0.0
C580 C 0.93392 0.54539 0.14076 0.0
C581 C 0.94488 0.53073 0.11745 0.0
C582 C 0.97975 0.61553 0.12986 0.0
C583 C 0.91051 0.53077 0.16059 0.0
H584 H 0.94512 0.60429 0.24394 0.0
H585 H 0.87904 0.62476 0.18914 0.0
H586 H 0.96695 0.55492 0.19954 0.0
H587 H 0.99057 0.58485 0.18814 0.0
H588 H 0.98114 0.58057 0.22632 0.0
H589 H 0.87617 0.61294 0.13937 0.0
H590 H 0.91037 0.60978 0.12174 0.0
H591 H 0.88575 0.58006 0.13196 0.0
H592 H 0.99508 0.58042 0.08868 0.0
H593 H 0.93621 0.50939 0.11436 0.0
H594 H 0.9903 0.61926 0.15143 0.0
H595 H 0.96212 0.62781 0.1295 0.0
H596 H 0.99604 0.62267 0.11254 0.0
H597 H 0.91833 0.53187 0.18338 0.0
H598 H 0.90391 0.50914 0.15402 0.0
H599 H 0.89106 0.54074 0.16046 0.0
C600 C 0.4096 0.16802 0.11968 0.0
C601 C 0.42074 0.18384 0.14404 0.0
C602 C 0.42326 0.14711 0.10824 0.0
C603 C 0.44801 0.14093 0.12216 0.0
C604 C 0.45943 0.1566 0.14672 0.0
C605 C 0.44607 0.17819 0.15696 0.0
C606 C 0.41095 0.13144 0.08137 0.0
C607 C 0.48541 0.1502 0.16257 0.0
C608 C 0.46123 0.06923 0.1063 0.0
C609 C 0.48399 0.07369 0.08575 0.0
C610 C 0.45037 0.09111 0.11959 0.0
C611 C 0.46168 0.11787 0.11099 0.0
C612 C 0.48487 0.12239 0.09035 0.0
C613 C 0.49616 0.10024 0.07845 0.0
C614 C 0.42638 0.08556 0.14232 0.0
C615 C 0.49672 0.15041 0.07961 0.0
H616 H 0.38976 0.17148 0.10974 0.0
H617 H 0.4555 0.19049 0.17527 0.0
H618 H 0.42833 0.13097 0.06457 0.0
H619 H 0.40229 0.11019 0.08703 0.0
H620 H 0.39317 0.14029 0.07168 0.0
H621 H 0.49109 0.16379 0.18191 0.0
H622 H 0.48087 0.12895 0.16992 0.0
H623 H 0.50457 0.15205 0.14762 0.0
H624 H 0.45191 0.04865 0.11189 0.0
H625 H 0.51352 0.10362 0.0622 0.0
H626 H 0.40595 0.09043 0.1336 0.0
H627 H 0.43192 0.09867 0.16202 0.0
H628 H 0.42234 0.06406 0.14892 0.0
H629 H 0.47931 0.15857 0.06844 0.0
H630 H 0.51534 0.1505 0.06409 0.0
H631 H 0.50388 0.16436 0.09824 0.0
C632 C 0.14286 0.88805 0.5909 0.0
C633 C 0.16505 0.89295 0.56949 0.0
C634 C 0.11921 0.90199 0.59114 0.0
C635 C 0.11712 0.92041 0.56878 0.0
C636 C 0.13794 0.92363 0.54573 0.0
C637 C 0.16188 0.91035 0.54668 0.0
C638 C 0.09766 0.89834 0.61632 0.0
C639 C 0.13593 0.94241 0.52085 0.0
C640 C 0.05077 0.95011 0.55119 0.0
C641 C 0.06036 0.97732 0.55916 0.0
C642 C 0.06807 0.93051 0.55624 0.0
C643 C 0.09499 0.93836 0.57035 0.0
C644 C 0.10299 0.96521 0.58141 0.0
C645 C 0.08578 0.98457 0.57515 0.0
C646 C 0.05896 0.90227 0.54363 0.0
C647 C 0.131 0.97408 0.59759 0.0
H648 H 0.14439 0.87406 0.60818 0.0
H649 H 0.17881 0.91488 0.53018 0.0
H650 H 0.1018 0.91646 0.63108 0.0
H651 H 0.07506 0.89652 0.60852 0.0
H652 H 0.09944 0.88023 0.62917 0.0
H653 H 0.15158 0.93987 0.50282 0.0
H654 H 0.11366 0.93878 0.51188 0.0
H655 H 0.14059 0.96373 0.52897 0.0
H656 H 0.03103 0.94452 0.53875 0.0
H657 H 0.09293 1.00562 0.58151 0.0
H658 H 0.06393 0.8868 0.5587 0.0
H659 H 0.07131 0.90017 0.52298 0.0
H660 H 0.03539 0.89799 0.53872 0.0
H661 H 0.13422 0.95876 0.61371 0.0
H662 H 0.13142 0.99389 0.60918 0.0
H663 H 0.14958 0.97608 0.58185 0.0
C664 C 0.82121 0.41218 0.906 0.0
C665 C 0.79349 0.41596 0.91616 0.0
C666 C 0.84705 0.42537 0.91957 0.0
C667 C 0.84562 0.44251 0.94461 0.0
C668 C 0.81768 0.44626 0.9551 0.0
C669 C 0.79221 0.43331 0.94068 0.0
C670 C 0.87603 0.42104 0.90692 0.0
C671 C 0.81463 0.46369 0.98195 0.0
C672 C 0.91209 0.45539 0.99538 0.0
C673 C 0.92576 0.48174 0.98833 0.0
C674 C 0.88603 0.44271 0.98181 0.0
C675 C 0.87322 0.45621 0.9599 0.0
C676 C 0.88704 0.48276 0.95256 0.0
C677 C 0.91272 0.49521 0.96696 0.0
C678 C 0.8721 0.41476 0.99109 0.0
C679 C 0.87491 0.49798 0.92906 0.0
H680 H 0.82276 0.39915 0.88697 0.0
H681 H 0.77111 0.43631 0.94909 0.0
H682 H 0.88949 0.44083 0.90161 0.0
H683 H 0.88802 0.4115 0.92326 0.0
H684 H 0.8737 0.408 0.88683 0.0
H685 H 0.79155 0.46438 0.98772 0.0
H686 H 0.82497 0.45583 1.00078 0.0
H687 H 0.8261 0.48465 0.97843 0.0
H688 H 0.92161 0.44466 1.01187 0.0
H689 H 0.92293 0.51544 0.961 0.0
H690 H 0.87146 0.40028 0.97228 0.0
H691 H 0.8493 0.41487 0.99832 0.0
H692 H 0.88393 0.4073 1.00915 0.0
H693 H 0.87397 0.48617 0.90815 0.0
H694 H 0.88816 0.51829 0.92559 0.0
H695 H 0.85236 0.50053 0.93491 0.0
C696 C 0.71509 0.58878 0.43819 0.0
C697 C 0.71507 0.61049 0.41937 0.0
C698 C 0.68949 0.57643 0.45293 0.0
C699 C 0.66303 0.58637 0.44967 0.0
C700 C 0.66291 0.60832 0.43069 0.0
C701 C 0.68866 0.61979 0.41556 0.0
C702 C 0.69081 0.55272 0.47217 0.0
C703 C 0.6357 0.62026 0.42696 0.0
C704 C 0.58927 0.54355 0.4719 0.0
C705 C 0.58494 0.55319 0.50046 0.0
C706 C 0.61462 0.55374 0.45533 0.0
C707 C 0.63598 0.57472 0.46712 0.0
C708 C 0.63143 0.58467 0.49585 0.0
C709 C 0.6064 0.57359 0.51217 0.0
C710 C 0.61864 0.54186 0.42523 0.0
C711 C 0.6529 0.6074 0.50932 0.0
H712 H 0.73521 0.58122 0.44116 0.0
H713 H 0.68833 0.63666 0.40134 0.0
H714 H 0.68648 0.55828 0.49524 0.0
H715 H 0.67373 0.5354 0.46589 0.0
H716 H 0.7123 0.54605 0.47079 0.0
H717 H 0.63894 0.63708 0.41128 0.0
H718 H 0.61777 0.60441 0.41914 0.0
H719 H 0.62868 0.62804 0.44837 0.0
H720 H 0.57297 0.52779 0.46259 0.0
H721 H 0.60336 0.58142 0.5341 0.0
H722 H 0.63961 0.53426 0.42385 0.0
H723 H 0.61959 0.55775 0.40869 0.0
H724 H 0.6008 0.52497 0.41956 0.0
H725 H 0.67443 0.6011 0.51108 0.0
H726 H 0.64583 0.61358 0.53141 0.0
H727 H 0.65583 0.62527 0.4951 0.0
C728 C 0.25758 0.36975 0.10487 0.0
C729 C 0.25349 0.36238 0.13416 0.0
C730 C 0.23797 0.38375 0.09133 0.0
C731 C 0.21384 0.39031 0.10752 0.0
C732 C 0.21094 0.38458 0.13764 0.0
C733 C 0.23086 0.3708 0.15057 0.0
C734 C 0.24207 0.38998 0.05932 0.0
C735 C 0.18565 0.39129 0.15581 0.0
C736 C 0.16233 0.43625 0.08383 0.0
C737 C 0.13812 0.41717 0.07539 0.0
C738 C 0.18814 0.42799 0.09242 0.0
C739 C 0.18959 0.40003 0.09275 0.0
C740 C 0.16585 0.38085 0.08248 0.0
C741 C 0.14049 0.38967 0.07383 0.0
C742 C 0.21313 0.44907 0.1028 0.0
C743 C 0.16648 0.35083 0.08239 0.0
H744 H 0.27511 0.3633 0.09217 0.0
H745 H 0.22802 0.36555 0.17339 0.0
H746 H 0.22607 0.37566 0.04647 0.0
H747 H 0.23814 0.41074 0.05515 0.0
H748 H 0.26424 0.38807 0.05127 0.0
H749 H 0.18789 0.38749 0.17938 0.0
H750 H 0.1836 0.41282 0.15338 0.0
H751 H 0.16516 0.37876 0.14805 0.0
H752 H 0.16067 0.45755 0.08512 0.0
H753 H 0.1221 0.37489 0.06664 0.0
H754 H 0.23409 0.44462 0.09382 0.0
H755 H 0.21421 0.44874 0.12696 0.0
H756 H 0.21065 0.46978 0.09645 0.0
H757 H 0.18653 0.34642 0.07129 0.0
H758 H 0.14736 0.3388 0.07134 0.0
H759 H 0.16672 0.34399 0.10522 0.0
C760 C 0.57353 0.19507 0.90014 0.0
C761 C 0.59751 0.21307 0.91148 0.0
C762 C 0.56217 0.17015 0.91369 0.0
C763 C 0.57451 0.16263 0.93977 0.0
C764 C 0.59862 0.18075 0.9514 0.0
C765 C 0.60979 0.20533 0.9372 0.0
C766 C 0.53678 0.15177 0.89995 0.0
C767 C 0.61241 0.17439 0.97932 0.0
C768 C 0.52576 0.11211 0.98996 0.0
C769 C 0.53562 0.0874 0.98438 0.0
C770 C 0.53843 0.13643 0.9762 0.0
C771 C 0.5615 0.13656 0.95547 0.0
C772 C 0.57178 0.11167 0.94987 0.0
C773 C 0.55901 0.08763 0.96448 0.0
C774 C 0.52683 0.16208 0.98383 0.0
C775 C 0.59599 0.11031 0.92792 0.0
H776 H 0.56379 0.20024 0.88025 0.0
H777 H 0.62798 0.21886 0.94673 0.0
H778 H 0.54234 0.13135 0.89572 0.0
H779 H 0.51782 0.14935 0.91522 0.0
H780 H 0.53032 0.15966 0.87908 0.0
H781 H 0.63122 0.19012 0.98548 0.0
H782 H 0.59609 0.17265 0.99742 0.0
H783 H 0.6199 0.15459 0.97698 0.0
H784 H 0.50785 0.11249 1.00531 0.0
H785 H 0.56687 0.06884 0.95971 0.0
H786 H 0.51734 0.16944 0.9642 0.0
H787 H 0.5448 0.17819 0.99109 0.0
H788 H 0.5099 0.15911 1.00139 0.0
H789 H 0.58945 0.11625 0.90618 0.0
H790 H 0.60175 0.08974 0.9259 0.0
H791 H 0.61564 0.12489 0.93429 0.0
C792 C 0.89689 0.83422 0.41108 0.0
C793 C 0.91157 0.81192 0.41223 0.0
C794 C 0.90784 0.85952 0.4247 0.0
C795 C 0.93445 0.86323 0.43998 0.0
C796 C 0.9496 0.841 0.44099 0.0
C797 C 0.93807 0.81584 0.42728 0.0
C798 C 0.89075 0.88236 0.42282 0.0
C799 C 0.978 0.8437 0.45686 0.0
C800 C 0.97547 0.936 0.45439 0.0
C801 C 0.96806 0.94123 0.48369 0.0
C802 C 0.96488 0.91092 0.44006 0.0
C803 C 0.94619 0.89018 0.4551 0.0
C804 C 0.93857 0.89538 0.48465 0.0
C805 C 0.94955 0.92058 0.49847 0.0
C806 C 0.97384 0.90658 0.40869 0.0
C807 C 0.91872 0.87425 0.50179 0.0
H808 H 0.87676 0.83206 0.39921 0.0
H809 H 0.94969 0.79903 0.42891 0.0
H810 H 0.88491 0.88908 0.4451 0.0
H811 H 0.90425 0.89998 0.4123 0.0
H812 H 0.87048 0.87643 0.4102 0.0
H813 H 0.98761 0.82492 0.45515 0.0
H814 H 0.99385 0.86065 0.44787 0.0
H815 H 0.97458 0.84859 0.48031 0.0
H816 H 0.98977 0.95152 0.44257 0.0
H817 H 0.94354 0.92405 0.52105 0.0
H818 H 0.95431 0.90212 0.39482 0.0
H819 H 0.98506 0.8888 0.40684 0.0
H820 H 0.98854 0.92448 0.39996 0.0
H821 H 0.89752 0.86885 0.49071 0.0
H822 H 0.91475 0.88125 0.5245 0.0
H823 H 0.9283 0.85552 0.50264 0.0
C824 C 0.42498 0.79449 0.51706 0.0
C825 C 0.39757 0.79273 0.5044 0.0
C826 C 0.43982 0.77247 0.51561 0.0
C827 C 0.42668 0.7481 0.50157 0.0
C828 C 0.40111 0.74751 0.48535 0.0
C829 C 0.3869 0.76999 0.4868 0.0
C830 C 0.46762 0.77419 0.53236 0.0
C831 C 0.38679 0.72209 0.4695 0.0
C832 C 0.46528 0.68729 0.50396 0.0
C833 C 0.45331 0.6751 0.52972 0.0
C834 C 0.45646 0.71079 0.49389 0.0
C835 C 0.43531 0.7223 0.51007 0.0
C836 C 0.42285 0.70979 0.53579 0.0
C837 C 0.43215 0.68652 0.54536 0.0
C838 C 0.47038 0.7236 0.46648 0.0
C839 C 0.40004 0.72128 0.55367 0.0
H840 H 0.43363 0.81196 0.53059 0.0
H841 H 0.36621 0.76886 0.47608 0.0
H842 H 0.46274 0.76407 0.55359 0.0
H843 H 0.48336 0.76367 0.5202 0.0
H844 H 0.47795 0.79552 0.53684 0.0
H845 H 0.37113 0.72648 0.45308 0.0
H846 H 0.40321 0.71162 0.4584 0.0
H847 H 0.37476 0.70799 0.48557 0.0
H848 H 0.48152 0.67845 0.49164 0.0
H849 H 0.42321 0.67757 0.56557 0.0
H850 H 0.48697 0.74136 0.47259 0.0
H851 H 0.45412 0.73094 0.45281 0.0
H852 H 0.48126 0.70927 0.4532 0.0
H853 H 0.40937 0.74168 0.56247 0.0
H854 H 0.39158 0.70831 0.57229 0.0
H855 H 0.38148 0.72356 0.53972 0.0
C856 C 0.75975 0.83 0.67551 0.0
C857 C 0.76384 0.80755 0.69156 0.0
C858 C 0.78296 0.84535 0.66037 0.0
C859 C 0.81076 0.83774 0.66088 0.0
C860 C 0.81414 0.81324 0.67397 0.0
C861 C 0.79063 0.79848 0.6894 0.0
C862 C 0.77835 0.87125 0.64652 0.0
C863 C 0.84322 0.80398 0.67412 0.0
C864 C 0.86915 0.8814 0.61595 0.0
C865 C 0.8812 0.90073 0.63704 0.0
C866 C 0.84718 0.85977 0.62354 0.0
C867 C 0.83674 0.8578 0.65275 0.0
C868 C 0.84971 0.87657 0.67431 0.0
C869 C 0.87195 0.89759 0.66623 0.0
C870 C 0.83436 0.8398 0.60009 0.0
C871 C 0.83926 0.87519 0.70578 0.0
H872 H 0.73886 0.83668 0.67653 0.0
H873 H 0.79399 0.7811 0.70165 0.0
H874 H 0.78883 0.88881 0.66003 0.0
H875 H 0.78858 0.87313 0.62445 0.0
H876 H 0.75492 0.87244 0.64466 0.0
H877 H 0.84093 0.7822 0.67937 0.0
H878 H 0.85455 0.80734 0.65267 0.0
H879 H 0.85717 0.8159 0.69086 0.0
H880 H 0.87608 0.8837 0.59329 0.0
H881 H 0.8817 0.91201 0.68277 0.0
H882 H 0.81286 0.84425 0.59388 0.0
H883 H 0.83092 0.81881 0.60818 0.0
H884 H 0.84847 0.84087 0.58019 0.0
H885 H 0.81618 0.87792 0.70711 0.0
H886 H 0.85222 0.89093 0.71995 0.0
H887 H 0.84043 0.85503 0.7146 0.0
C888 C 0.67009 0.1723 0.26648 0.0
C889 C 0.68844 0.19755 0.26673 0.0
C890 C 0.65697 0.16117 0.24071 0.0
C891 C 0.66181 0.17594 0.21465 0.0
C892 C 0.67792 0.20256 0.21537 0.0
C893 C 0.69132 0.21302 0.24143 0.0
C894 C 0.63988 0.13271 0.24096 0.0
C895 C 0.68269 0.21926 0.18823 0.0
C896 C 0.66415 0.12931 0.14901 0.0
C897 C 0.63521 0.12533 0.13991 0.0
C898 C 0.67354 0.14709 0.17228 0.0
C899 C 0.65367 0.16176 0.18638 0.0
C900 C 0.62517 0.15974 0.17561 0.0
C901 C 0.61615 0.1413 0.15262 0.0
C902 C 0.70416 0.14861 0.18311 0.0
C903 C 0.60362 0.17565 0.18951 0.0
H904 H 0.66707 0.16062 0.28623 0.0
H905 H 0.70534 0.23263 0.24149 0.0
H906 H 0.61847 0.13194 0.23065 0.0
H907 H 0.65183 0.11899 0.22803 0.0
H908 H 0.63624 0.12485 0.26342 0.0
H909 H 0.69013 0.24106 0.19358 0.0
H910 H 0.69951 0.21205 0.17412 0.0
H911 H 0.66245 0.21706 0.17543 0.0
H912 H 0.67921 0.11761 0.1387 0.0
H913 H 0.59373 0.13839 0.14573 0.0
H914 H 0.70344 0.13992 0.20521 0.0
H915 H 0.71519 0.16998 0.18501 0.0
H916 H 0.71744 0.13736 0.16849 0.0
H917 H 0.59483 0.16589 0.21002 0.0
H918 H 0.5851 0.1765 0.1749 0.0
H919 H 0.61424 0.19662 0.19523 0.0
C920 C 0.39911 0.61409 0.35577 0.0
C921 C 0.41783 0.62621 0.33333 0.0
C922 C 0.40922 0.60048 0.37939 0.0
C923 C 0.43923 0.59913 0.38192 0.0
C924 C 0.45842 0.61175 0.3599 0.0
C925 C 0.44764 0.62465 0.33606 0.0
C926 C 0.38749 0.58727 0.40171 0.0
C927 C 0.49063 0.61159 0.36143 0.0
C928 C 0.468 0.58354 0.45781 0.0
C929 C 0.47117 0.5561 0.45494 0.0
C930 C 0.45806 0.59769 0.4345 0.0
C931 C 0.45036 0.5843 0.40723 0.0
C932 C 0.45317 0.55651 0.40436 0.0
C933 C 0.46369 0.543 0.42784 0.0
C934 C 0.45621 0.62726 0.43904 0.0
C935 C 0.4448 0.54082 0.37637 0.0
H936 H 0.37622 0.61528 0.35528 0.0
H937 H 0.46288 0.63319 0.31932 0.0
H938 H 0.38885 0.56545 0.40301 0.0
H939 H 0.39266 0.59657 0.42363 0.0
H940 H 0.36481 0.58918 0.39647 0.0
H941 H 0.50309 0.62346 0.34379 0.0
H942 H 0.49898 0.62009 0.38285 0.0
H943 H 0.49478 0.59047 0.35969 0.0
H944 H 0.47375 0.59425 0.47831 0.0
H945 H 0.46579 0.5219 0.42497 0.0
H946 H 0.43381 0.6307 0.43495 0.0
H947 H 0.47084 0.63947 0.42315 0.0
H948 H 0.46235 0.63475 0.46148 0.0
H949 H 0.42183 0.54166 0.3713 0.0
H950 H 0.44739 0.51927 0.37758 0.0
H951 H 0.4584 0.55014 0.35797 0.0
C952 C 0.11792 0.4437 0.85014 0.0
C953 C 0.1011 0.42148 0.8354 0.0
C954 C 0.10657 0.45759 0.87391 0.0
C955 C 0.07727 0.44975 0.88346 0.0
C956 C 0.06018 0.42732 0.86892 0.0
C957 C 0.07221 0.41349 0.8455 0.0
C958 C 0.12596 0.48113 0.88855 0.0
C959 C 0.02882 0.41815 0.87778 0.0
C960 C 0.05195 0.47519 0.95894 0.0
C961 C 0.0401 0.49802 0.95154 0.0
C962 C 0.0641 0.45936 0.93727 0.0
C963 C 0.06409 0.46606 0.90721 0.0
C964 C 0.05167 0.48886 0.89978 0.0
C965 C 0.04022 0.50451 0.92183 0.0
C966 C 0.07741 0.43566 0.94664 0.0
C967 C 0.05051 0.49688 0.86834 0.0
H968 H 0.14 0.45082 0.84278 0.0
H969 H 0.05877 0.3962 0.8352 0.0
H970 H 0.11765 0.50014 0.88462 0.0
H971 H 0.12572 0.47843 0.91253 0.0
H972 H 0.14879 0.48347 0.88037 0.0
H973 H 0.01846 0.40005 0.86498 0.0
H974 H 0.02724 0.41332 0.90132 0.0
H975 H 0.01632 0.43476 0.87464 0.0
H976 H 0.05233 0.47003 0.98173 0.0
H977 H 0.03113 0.52201 0.91566 0.0
H978 H 0.10063 0.43855 0.93977 0.0
H979 H 0.06636 0.41677 0.93572 0.0
H980 H 0.07591 0.43302 0.97067 0.0
H981 H 0.07288 0.50207 0.85915 0.0
H982 H 0.0393 0.5145 0.86591 0.0
H983 H 0.03901 0.47961 0.8551 0.0
C984 C 0.59044 0.8554 0.91767 0.0
C985 C 0.59729 0.85596 0.88771 0.0
C986 C 0.57737 0.87585 0.93119 0.0
C987 C 0.57114 0.89741 0.91438 0.0
C988 C 0.57674 0.89741 0.88392 0.0
C989 C 0.58964 0.87664 0.87094 0.0
C990 C 0.57148 0.87503 0.96372 0.0
C991 C 0.5703 0.91996 0.86523 0.0
C992 C 0.52229 0.94297 0.94962 0.0
C993 C 0.54282 0.96389 0.96168 0.0
C994 C 0.53109 0.9215 0.93343 0.0
C995 C 0.56112 0.92105 0.92913 0.0
C996 C 0.58187 0.94276 0.94008 0.0
C997 C 0.57248 0.96387 0.95626 0.0
C998 C 0.50829 0.89876 0.92206 0.0
C999 C 0.6141 0.94325 0.9356 0.0
H1000 H 0.59643 0.83963 0.93082 0.0
H1001 H 0.59432 0.8769 0.84767 0.0
H1002 H 0.58593 0.89203 0.97476 0.0
H1003 H 0.54874 0.87762 0.96861 0.0
H1004 H 0.57517 0.85575 0.97318 0.0
H1005 H 0.57354 0.91575 0.84156 0.0
H1006 H 0.5476 0.92321 0.869 0.0
H1007 H 0.5848 0.93912 0.87139 0.0
H1008 H 0.49935 0.94274 0.95378 0.0
H1009 H 0.58849 0.98003 0.96532 0.0
H1010 H 0.50933 0.88009 0.93418 0.0
H1011 H 0.51246 0.89431 0.89866 0.0
H1012 H 0.48598 0.90351 0.92456 0.0
H1013 H 0.62066 0.92601 0.94693 0.0
H1014 H 0.62732 0.96233 0.94406 0.0
H1015 H 0.61926 0.94084 0.91203 0.0
C1016 C 0.89348 0.15646 0.45626 0.0
C1017 C 0.88634 0.15625 0.42668 0.0
C1018 C 0.90885 0.13725 0.46697 0.0
C1019 C 0.91734 0.11747 0.44757 0.0
C1020 C 0.9116 0.11806 0.41741 0.0
C1021 C 0.89603 0.13744 0.40731 0.0
C1022 C 0.9146 0.13724 0.49932 0.0
C1023 C 0.92074 0.09752 0.39606 0.0
C1024 C 0.97161 0.07826 0.47865 0.0
C1025 C 0.95312 0.05553 0.48944 0.0
C1026 C 0.96046 0.09804 0.46353 0.0
C1027 C 0.93012 0.09502 0.45944 0.0
C1028 C 0.91155 0.07141 0.46904 0.0
C1029 C 0.92334 0.05184 0.48387 0.0
C1030 C 0.98095 0.12277 0.45328 0.0
C1031 C 0.87906 0.06749 0.46502 0.0
H1032 H 0.88574 0.17077 0.47134 0.0
H1033 H 0.89079 0.13747 0.38435 0.0
H1034 H 0.90214 0.11859 0.50894 0.0
H1035 H 0.93797 0.13713 0.50309 0.0
H1036 H 0.9083 0.15506 0.51109 0.0
H1037 H 0.91751 0.10259 0.37302 0.0
H1038 H 0.94395 0.09609 0.39897 0.0
H1039 H 0.90783 0.07725 0.40031 0.0
H1040 H 0.99472 0.08106 0.48286 0.0
H1041 H 0.90908 0.03418 0.49209 0.0
H1042 H 0.97769 0.14061 0.46699 0.0
H1043 H 0.97635 0.12716 0.4304 0.0
H1044 H 1.00409 0.12033 0.45466 0.0
H1045 H 0.86994 0.08308 0.47812 0.0
H1046 H 0.86796 0.04717 0.47187 0.0
H1047 H 0.874 0.07009 0.44181 0.0
C1048 C 0.20028 0.61648 0.14875 0.0
C1049 C 0.22741 0.61993 0.13393 0.0
C1050 C 0.17416 0.6041 0.13506 0.0
C1051 C 0.17451 0.59483 0.10548 0.0
C1052 C 0.20172 0.59815 0.09038 0.0
C1053 C 0.22755 0.61042 0.10465 0.0
C1054 C 0.14599 0.60112 0.15234 0.0
C1055 C 0.20358 0.58874 0.05894 0.0
C1056 C 0.11004 0.54206 0.0771 0.0
C1057 C 0.09284 0.55803 0.06275 0.0
C1058 C 0.13646 0.55359 0.09077 0.0
C1059 C 0.14649 0.58201 0.09033 0.0
C1060 C 0.12943 0.59818 0.07556 0.0
C1061 C 0.10306 0.58614 0.06213 0.0
C1062 C 0.15352 0.53526 0.10607 0.0
C1063 C 0.13897 0.62843 0.0741 0.0
H1064 H 0.19924 0.62392 0.17109 0.0
H1065 H 0.24802 0.61226 0.09273 0.0
H1066 H 0.13074 0.61247 0.14182 0.0
H1067 H 0.1355 0.57952 0.15251 0.0
H1068 H 0.1492 0.60865 0.17528 0.0
H1069 H 0.22617 0.59278 0.05004 0.0
H1070 H 0.19524 0.56669 0.05696 0.0
H1071 H 0.18969 0.5991 0.04527 0.0
H1072 H 0.10272 0.52038 0.07796 0.0
H1073 H 0.09029 0.59892 0.05127 0.0
H1074 H 0.15501 0.54089 0.12965 0.0
H1075 H 0.17604 0.53783 0.0971 0.0
H1076 H 0.14348 0.51357 0.10379 0.0
H1077 H 0.14038 0.63751 0.09649 0.0
H1078 H 0.12383 0.63825 0.06134 0.0
H1079 H 0.16098 0.63308 0.06397 0.0
C1080 C 0.32247 0.40992 0.63549 0.0
C1081 C 0.29785 0.42274 0.63781 0.0
C1082 C 0.34812 0.4217 0.62046 0.0
C1083 C 0.34996 0.44739 0.6076 0.0
C1084 C 0.32559 0.46081 0.61043 0.0
C1085 C 0.29999 0.44835 0.62514 0.0
C1086 C 0.37321 0.40634 0.61795 0.0
C1087 C 0.32639 0.48829 0.5975 0.0
C1088 C 0.4262 0.48633 0.58744 0.0
C1089 C 0.42806 0.48105 0.55722 0.0
C1090 C 0.4009 0.47602 0.60397 0.0
C1091 C 0.37681 0.45959 0.59021 0.0
C1092 C 0.37862 0.45438 0.55967 0.0
C1093 C 0.40392 0.46527 0.54366 0.0
C1094 C 0.40002 0.48261 0.63627 0.0
C1095 C 0.35394 0.43679 0.54389 0.0
H1096 H 0.32188 0.39054 0.64555 0.0
H1097 H 0.28138 0.45861 0.62612 0.0
H1098 H 0.37812 0.40238 0.59458 0.0
H1099 H 0.39301 0.41867 0.6274 0.0
H1100 H 0.36864 0.38669 0.62923 0.0
H1101 H 0.30662 0.497 0.60321 0.0
H1102 H 0.34575 0.50252 0.60529 0.0
H1103 H 0.32832 0.48672 0.57336 0.0
H1104 H 0.4446 0.4985 0.59821 0.0
H1105 H 0.40498 0.46094 0.52038 0.0
H1106 H 0.39782 0.46371 0.64879 0.0
H1107 H 0.38074 0.4921 0.64172 0.0
H1108 H 0.41985 0.49651 0.64356 0.0
H1109 H 0.34973 0.41634 0.5534 0.0
H1110 H 0.35857 0.43463 0.52013 0.0
H1111 H 0.33374 0.44548 0.54674 0.0
C1112 C 0.80357 0.70675 0.90489 0.0
C1113 C 0.7766 0.69086 0.89843 0.0
C1114 C 0.82644 0.69509 0.91549 0.0
C1115 C 0.82218 0.66685 0.91998 0.0
C1116 C 0.79492 0.6507 0.91374 0.0
C1117 C 0.77249 0.66289 0.90287 0.0
C1118 C 0.85525 0.71297 0.92163 0.0
C1119 C 0.78946 0.62058 0.9186 0.0
C1120 C 0.88993 0.63444 0.92367 0.0
C1121 C 0.89398 0.63411 0.95389 0.0
C1122 C 0.86636 0.64465 0.91227 0.0
C1123 C 0.84623 0.65441 0.93161 0.0
C1124 C 0.8498 0.65337 0.96215 0.0
C1125 C 0.87369 0.64336 0.97291 0.0
C1126 C 0.86343 0.64566 0.87957 0.0
C1127 C 0.82863 0.66326 0.98349 0.0
H1128 H 0.80702 0.7283 0.901 0.0
H1129 H 0.75162 0.65057 0.89801 0.0
H1130 H 0.86078 0.71176 0.94495 0.0
H1131 H 0.87275 0.70582 0.90842 0.0
H1132 H 0.85512 0.73451 0.91662 0.0
H1133 H 0.76701 0.61091 0.9128 0.0
H1134 H 0.80506 0.6108 0.9053 0.0
H1135 H 0.79308 0.6166 0.94184 0.0
H1136 H 0.90566 0.62741 0.90894 0.0
H1137 H 0.87651 0.64271 0.9963 0.0
H1138 H 0.86532 0.66701 0.87292 0.0
H1139 H 0.84166 0.63498 0.87288 0.0
H1140 H 0.88027 0.63635 0.86754 0.0
H1141 H 0.82913 0.68526 0.98086 0.0
H1142 H 0.83365 0.65974 1.00654 0.0
H1143 H 0.80616 0.65289 0.97892 0.0
C1144 C 0.41394 0.82889 0.11676 0.0
C1145 C 0.42536 0.82137 0.14304 0.0
C1146 C 0.42565 0.85331 0.10251 0.0
C1147 C 0.44942 0.87148 0.11466 0.0
C1148 C 0.4609 0.86418 0.14131 0.0
C1149 C 0.44903 0.83942 0.1549 0.0
C1150 C 0.41275 0.85944 0.07402 0.0
C1151 C 0.48589 0.88265 0.15559 0.0
C1152 C 0.4994 0.92138 0.0648 0.0
C1153 C 0.48934 0.9461 0.06953 0.0
C1154 C 0.48654 0.89728 0.07887 0.0
C1155 C 0.46295 0.89738 0.09894 0.0
C1156 C 0.45254 0.9223 0.10376 0.0
C1157 C 0.46558 0.94612 0.08894 0.0
C1158 C 0.49839 0.87158 0.07222 0.0
C1159 C 0.42778 0.9239 0.125 0.0
H1160 H 0.39603 0.81531 0.10683 0.0
H1161 H 0.45809 0.83441 0.17523 0.0
H1162 H 0.40528 0.87927 0.07579 0.0
H1163 H 0.4296 0.86098 0.05644 0.0
H1164 H 0.3941 0.84369 0.06749 0.0
H1165 H 0.49171 0.87491 0.1768 0.0
H1166 H 0.50528 0.88495 0.1409 0.0
H1167 H 0.48025 0.9031 0.15935 0.0
H1168 H 0.5176 0.92082 0.04985 0.0
H1169 H 0.45754 0.96492 0.09306 0.0
H1170 H 0.48072 0.85545 0.06436 0.0
H1171 H 0.50695 0.86431 0.09241 0.0
H1172 H 0.51608 0.87442 0.05543 0.0
H1173 H 0.40825 0.90938 0.11821 0.0
H1174 H 0.42212 0.94453 0.1266 0.0
H1175 H 0.43367 0.91804 0.14701 0.0
C1176 C 0.10669 0.20147 0.65083 0.0
C1177 C 0.09714 0.22519 0.64222 0.0
C1178 C 0.09652 0.17594 0.63724 0.0
C1179 C 0.07569 0.17353 0.61468 0.0
C1180 C 0.06567 0.19735 0.6062 0.0
C1181 C 0.07664 0.2227 0.61975 0.0
C1182 C 0.10845 0.1515 0.64681 0.0
C1183 C 0.04313 0.19606 0.58281 0.0
C1184 C 0.06695 0.11273 0.56006 0.0
C1185 C 0.04294 0.09503 0.57159 0.0
C1186 C 0.07798 0.1379 0.57395 0.0
C1187 C 0.06452 0.14627 0.59992 0.0
C1188 C 0.04018 0.12855 0.61157 0.0
C1189 C 0.02995 0.10325 0.59754 0.0
C1190 C 0.10422 0.15556 0.56078 0.0
C1191 C 0.02459 0.13651 0.63875 0.0
H1192 H 0.12273 0.20295 0.66784 0.0
H1193 H 0.06876 0.24065 0.61297 0.0
H1194 H 0.09052 0.1359 0.65494 0.0
H1195 H 0.11878 0.14236 0.62789 0.0
H1196 H 0.12476 0.15659 0.66431 0.0
H1197 H 0.03688 0.2161 0.57917 0.0
H1198 H 0.05158 0.18855 0.56191 0.0
H1199 H 0.02336 0.18154 0.58894 0.0
H1200 H 0.07738 0.10682 0.54014 0.0
H1201 H 1.0113 0.09007 0.60671 0.0
H1202 H 0.12171 0.16002 0.57715 0.0
H1203 H 0.09851 0.1752 0.55457 0.0
H1204 H 0.11284 0.14596 0.54111 0.0
H1205 H 0.03984 0.14007 0.65727 0.0
H1206 H 1.00583 0.1208 0.64498 0.0
H1207 H 0.01659 0.15577 0.63527 0.0
C1208 C 0.70752 0.33089 0.50694 0.0
C1209 C 0.70433 0.30273 0.50311 0.0
C1210 C 0.684 0.34303 0.51633 0.0
C1211 C 0.6569 0.32648 0.52235 0.0
C1212 C 0.65498 0.29805 0.52302 0.0
C1213 C 0.67875 0.2864 0.51309 0.0
C1214 C 0.6872 0.37349 0.51604 0.0
C1215 C 0.62685 0.27984 0.53084 0.0
C1216 C 0.59696 0.36672 0.54085 0.0
C1217 C 0.58623 0.36962 0.51291 0.0
C1218 C 0.61861 0.35094 0.54493 0.0
C1219 C 0.63006 0.33839 0.52036 0.0
C1220 C 0.61792 0.33992 0.49244 0.0
C1221 C 0.59604 0.3554 0.48913 0.0
C1222 C 0.63019 0.34915 0.5752 0.0
C1223 C 0.62945 0.32683 0.46556 0.0
H1224 H 0.72763 0.34351 0.50007 0.0
H1225 H 0.67622 0.26457 0.51056 0.0
H1226 H 0.67605 0.37947 0.49668 0.0
H1227 H 0.67685 0.38122 0.53578 0.0
H1228 H 0.71036 0.38342 0.515 0.0
H1229 H 0.63064 0.25959 0.53742 0.0
H1230 H 0.61524 0.28897 0.54886 0.0
H1231 H 0.6125 0.27704 0.51158 0.0
H1232 H 0.58905 0.37744 0.55935 0.0
H1233 H 0.58794 0.35779 0.46749 0.0
H1234 H 0.64909 0.36557 0.57859 0.0
H1235 H 0.6375 0.32952 0.57835 0.0
H1236 H 0.61351 0.35178 0.59219 0.0
H1237 H 0.65244 0.33617 0.4614 0.0
H1238 H 0.61677 0.32906 0.44576 0.0
H1239 H 0.62889 0.30494 0.46897 0.0
loop_
_geom_bond_atom_site_label_1
_geom_bond_atom_site_label_2
_geom_bond_distance
_geom_bond_site_symmetry_2
_ccdc_geom_bond_type
C0 C1 1.386 . S
C0 C2 1.397 . S
C0 H24 0.931 . S
C1 C0 1.386 . S
C1 C5 1.397 . S
C2 C0 1.397 . S
C2 C3 1.384 . S
C2 H25 0.930 . S
C3 C2 1.384 . S
C3 C4 1.377 . S
C3 C6 1.481 . S
C4 C3 1.377 . S
C4 C5 1.389 . S
C4 H26 0.929 . S
C5 C1 1.397 . S
C5 C4 1.389 . S
C5 H27 0.931 . S
C6 C3 1.481 . S
C6 C7 1.387 . S
C6 C11 1.390 . S
C7 C6 1.387 . S
C7 C8 1.401 . S
C7 H28 0.930 . S
C8 C7 1.401 . S
C8 C9 1.376 . S
C8 C17 1.511 . S
C9 C8 1.376 . S
C9 C10 1.392 . S
C9 H30 0.931 . S
C10 C9 1.392 . S
C10 C11 1.361 . S
C10 C12 1.500 . S
C11 C6 1.390 . S
C11 C10 1.361 . S
C11 H29 0.931 . S
C12 C10 1.500 . S
C12 C13 1.371 . S
C12 C14 1.365 . S
C13 C12 1.371 . S
C13 C23 1.386 . S
C13 H31 0.931 . S
C14 C12 1.365 . S
C14 C15 1.409 . S
C14 H32 0.929 . S
C15 C14 1.409 . S
C15 C16 1.380 . S
C15 H33 0.930 . S
C16 C15 1.380 . S
C16 C23 1.357 . S
C17 C8 1.511 . S
C17 C18 1.341 . S
C17 C19 1.371 . S
C18 C17 1.341 . S
C18 C22 1.394 . S
C18 H34 0.930 . S
C19 C17 1.371 . S
C19 C20 1.392 . S
C19 H35 0.931 . S
C20 C19 1.392 . S
C20 C21 1.331 . S
C20 H38 0.932 . S
C21 C20 1.331 . S
C21 C22 1.336 . S
C22 C18 1.394 . S
C22 C21 1.336 . S
C22 H37 0.929 . S
C23 C13 1.386 . S
C23 C16 1.357 . S
C23 H36 0.928 . S
H24 C0 0.931 . S
H25 C2 0.930 . S
H26 C4 0.929 . S
H27 C5 0.931 . S
H28 C7 0.930 . S
H29 C11 0.931 . S
H30 C9 0.931 . S
H31 C13 0.931 . S
H32 C14 0.929 . S
H33 C15 0.930 . S
H34 C18 0.930 . S
H35 C19 0.931 . S
H36 C23 0.928 . S
H37 C22 0.929 . S
H38 C20 0.932 . S
C39 C40 1.386 . S
C39 C41 1.397 . S
C39 H63 0.931 . S
C40 C39 1.386 . S
C40 C44 1.397 . S
C41 C39 1.397 . S
C41 C42 1.384 . S
C41 H64 0.930 . S
C42 C41 1.384 . S
C42 C43 1.377 . S
C42 C45 1.481 . S
C43 C42 1.377 . S
C43 C44 1.389 . S
C43 H65 0.929 . S
C44 C40 1.397 . S
C44 C43 1.389 . S
C44 H66 0.931 . S
C45 C42 1.481 . S
C45 C46 1.387 . S
C45 C50 1.390 . S
C46 C45 1.387 . S
C46 C47 1.401 . S
C46 H67 0.930 . S
C47 C46 1.401 . S
C47 C48 1.376 . S
C47 C56 1.511 . S
C48 C47 1.376 . S
C48 C49 1.392 . S
C48 H69 0.931 . S
C49 C48 1.392 . S
C49 C50 1.361 . S
C49 C51 1.500 . S
C50 C45 1.390 . S
C50 C49 1.361 . S
C50 H68 0.931 . S
C51 C49 1.500 . S
C51 C52 1.371 . S
C51 C53 1.365 . S
C52 C51 1.371 . S
C52 C62 1.386 . S
C52 H70 0.931 . S
C53 C51 1.365 . S
C53 C54 1.409 . S
C53 H71 0.929 . S
C54 C53 1.409 . S
C54 C55 1.380 . S
C54 H72 0.930 . S
C55 C54 1.380 . S
C55 C62 1.357 . S
C56 C47 1.511 . S
C56 C57 1.341 . S
C56 C58 1.371 . S
C57 C56 1.341 . S
C57 C61 1.394 . S
C57 H73 0.930 . S
C58 C56 1.371 . S
C58 C59 1.392 . S
C58 H74 0.931 . S
C59 C58 1.392 . S
C59 C60 1.331 . S
C59 H77 0.932 . S
C60 C59 1.331 . S
C60 C61 1.336 . S
C61 C57 1.394 . S
C61 C60 1.336 . S
C61 H76 0.929 . S
C62 C52 1.386 . S
C62 C55 1.357 . S
C62 H75 0.928 . S
H63 C39 0.931 . S
H64 C41 0.930 . S
H65 C43 0.929 . S
H66 C44 0.931 . S
H67 C46 0.930 . S
H68 C50 0.931 . S
H69 C48 0.931 . S
H70 C52 0.931 . S
H71 C53 0.929 . S
H72 C54 0.930 . S
H73 C57 0.930 . S
H74 C58 0.931 . S
H75 C62 0.928 . S
H76 C61 0.929 . S
H77 C59 0.932 . S
C78 C79 1.386 . S
C78 C80 1.397 . S
C78 H102 0.931 . S
C79 C78 1.386 . S
C79 C83 1.397 . S
C80 C78 1.397 . S
C80 C81 1.384 . S
C80 H103 0.930 . S
C81 C80 1.384 . S
C81 C82 1.377 . S
C81 C84 1.481 . S
C82 C81 1.377 . S
C82 C83 1.389 . S
C82 H104 0.929 . S
C83 C79 1.397 . S
C83 C82 1.389 . S
C83 H105 0.931 . S
C84 C81 1.481 . S
C84 C85 1.387 . S
C84 C89 1.390 . S
C85 C84 1.387 . S
C85 C86 1.401 . S
C85 H106 0.930 . S
C86 C85 1.401 . S
C86 C87 1.376 . S
C86 C95 1.511 . S
C87 C86 1.376 . S
C87 C88 1.392 . S
C87 H108 0.931 . S
C88 C87 1.392 . S
C88 C89 1.361 . S
C88 C90 1.500 . S
C89 C84 1.390 . S
C89 C88 1.361 . S
C89 H107 0.931 . S
C90 C88 1.500 . S
C90 C91 1.371 . S
C90 C92 1.365 . S
C91 C90 1.371 . S
C91 C101 1.386 . S
C91 H109 0.931 . S
C92 C90 1.365 . S
C92 C93 1.409 . S
C92 H110 0.929 . S
C93 C92 1.409 . S
C93 C94 1.380 . S
C93 H111 0.930 . S
C94 C93 1.380 . S
C94 C101 1.357 . S
C95 C86 1.511 . S
C95 C96 1.341 . S
C95 C97 1.371 . S
C96 C95 1.341 . S
C96 C100 1.394 . S
C96 H112 0.930 . S
C97 C95 1.371 . S
C97 C98 1.392 . S
C97 H113 0.931 . S
C98 C97 1.392 . S
C98 C99 1.331 . S
C98 H116 0.932 . S
C99 C98 1.331 . S
C99 C100 1.336 . S
C100 C96 1.394 . S
C100 C99 1.336 . S
C100 H115 0.929 . S
C101 C91 1.386 . S
C101 C94 1.357 . S
C101 H114 0.928 . S
H102 C78 0.931 . S
H103 C80 0.930 . S
H104 C82 0.929 . S
H105 C83 0.931 . S
H106 C85 0.930 . S
H107 C89 0.931 . S
H108 C87 0.931 . S
H109 C91 0.931 . S
H110 C92 0.929 . S
H111 C93 0.930 . S
H112 C96 0.930 . S
H113 C97 0.931 . S
H114 C101 0.928 . S
H115 C100 0.929 . S
H116 C98 0.932 . S
C117 C118 1.386 . S
C117 C119 1.397 . S
C117 H141 0.931 . S
C118 C117 1.386 . S
C118 C122 1.397 . S
C119 C117 1.397 . S
C119 C120 1.384 . S
C119 H142 0.930 . S
C120 C119 1.384 . S
C120 C121 1.377 . S
C120 C123 1.481 . S
C121 C120 1.377 . S
C121 C122 1.389 . S
C121 H143 0.929 . S
C122 C118 1.397 . S
C122 C121 1.389 . S
C122 H144 0.931 . S
C123 C120 1.481 . S
C123 C124 1.387 . S
C123 C128 1.390 . S
C124 C123 1.387 . S
C124 C125 1.401 . S
C124 H145 0.930 . S
C125 C124 1.401 . S
C125 C126 1.376 . S
C125 C134 1.511 . S
C126 C125 1.376 . S
C126 C127 1.392 . S
C126 H147 0.931 . S
C127 C126 1.392 . S
C127 C128 1.361 . S
C127 C129 1.500 . S
C128 C123 1.390 . S
C128 C127 1.361 . S
C128 H146 0.931 . S
C129 C127 1.500 . S
C129 C130 1.371 . S
C129 C131 1.365 . S
C130 C129 1.371 . S
C130 C140 1.386 . S
C130 H148 0.931 . S
C131 C129 1.365 . S
C131 C132 1.409 . S
C131 H149 0.929 . S
C132 C131 1.409 . S
C132 C133 1.380 . S
C132 H150 0.930 . S
C133 C132 1.380 . S
C133 C140 1.357 . S
C134 C125 1.511 . S
C134 C135 1.341 . S
C134 C136 1.371 . S
C135 C134 1.341 . S
C135 C139 1.394 . S
C135 H151 0.930 . S
C136 C134 1.371 . S
C136 C137 1.392 . S
C136 H152 0.931 . S
C137 C136 1.392 . S
C137 C138 1.331 . S
C137 H155 0.932 . S
C138 C137 1.331 . S
C138 C139 1.336 . S
C139 C135 1.394 . S
C139 C138 1.336 . S
C139 H154 0.929 . S
C140 C130 1.386 . S
C140 C133 1.357 . S
C140 H153 0.928 . S
H141 C117 0.931 . S
H142 C119 0.930 . S
H143 C121 0.929 . S
H144 C122 0.931 . S
H145 C124 0.930 . S
H146 C128 0.931 . S
H147 C126 0.931 . S
H148 C130 0.931 . S
H149 C131 0.929 . S
H150 C132 0.930 . S
H151 C135 0.930 . S
H152 C136 0.931 . S
H153 C140 0.928 . S
H154 C139 0.929 . S
H155 C137 0.932 . S
C156 C157 1.386 . S
C156 C158 1.397 . S
C156 H180 0.931 . S
C157 C156 1.386 . S
C157 C161 1.397 . S
C158 C156 1.397 . S
C158 C159 1.384 . S
C158 H181 0.930 . S
C159 C158 1.384 . S
C159 C160 1.377 . S
C159 C162 1.481 . S
C160 C159 1.377 . S
C160 C161 1.389 . S
C160 H182 0.929 . S
C161 C157 1.397 . S
C161 C160 1.389 . S
C161 H183 0.931 . S
C162 C159 1.481 . S
C162 C163 1.387 . S
C162 C167 1.390 . S
C163 C162 1.387 . S
C163 C164 1.401 . S
C163 H184 0.930 . S
C164 C163 1.401 . S
C164 C165 1.376 . S
C164 C173 1.511 . S
C165 C164 1.376 . S
C165 C166 1.392 . S
C165 H186 0.931 . S
C166 C165 1.392 . S
C166 C167 1.361 . S
C166 C168 1.500 . S
C167 C162 1.390 . S
C167 C166 1.361 . S
C167 H185 0.931 . S
C168 C166 1.500 . S
C168 C169 1.371 . S
C168 C170 1.365 . S
C169 C168 1.371 . S
C169 C179 1.386 . S
C169 H187 0.931 . S
C170 C168 1.365 . S
C170 C171 1.409 . S
C170 H188 0.929 . S
C171 C170 1.409 . S
C171 C172 1.380 . S
C171 H189 0.930 . S
C172 C171 1.380 . S
C172 C179 1.357 . S
C173 C164 1.511 . S
C173 C174 1.341 . S
C173 C175 1.371 . S
C174 C173 1.341 . S
C174 C178 1.394 . S
C174 H190 0.930 . S
C175 C173 1.371 . S
C175 C176 1.392 . S
C175 H191 0.931 . S
C176 C175 1.392 . S
C176 C177 1.331 . S
C176 H194 0.932 . S
C177 C176 1.331 . S
C177 C178 1.336 . S
C178 C174 1.394 . S
C178 C177 1.336 . S
C178 H193 0.929 . S
C179 C169 1.386 . S
C179 C172 1.357 . S
C179 H192 0.928 . S
H180 C156 0.931 . S
H181 C158 0.930 . S
H182 C160 0.929 . S
H183 C161 0.931 . S
H184 C163 0.930 . S
H185 C167 0.931 . S
H186 C165 0.931 . S
H187 C169 0.931 . S
H188 C170 0.929 . S
H189 C171 0.930 . S
H190 C174 0.930 . S
H191 C175 0.931 . S
H192 C179 0.928 . S
H193 C178 0.929 . S
H194 C176 0.932 . S
C195 C196 1.386 . S
C195 C197 1.397 . S
C195 H219 0.931 . S
C196 C195 1.386 . S
C196 C200 1.397 . S
C197 C195 1.397 . S
C197 C198 1.384 . S
C197 H220 0.930 . S
C198 C197 1.384 . S
C198 C199 1.377 . S
C198 C201 1.481 . S
C199 C198 1.377 . S
C199 C200 1.389 . S
C199 H221 0.929 . S
C200 C196 1.397 . S
C200 C199 1.389 . S
C200 H222 0.931 . S
C201 C198 1.481 . S
C201 C202 1.387 . S
C201 C206 1.390 . S
C202 C201 1.387 . S
C202 C203 1.401 . S
C202 H223 0.930 . S
C203 C202 1.401 . S
C203 C204 1.376 . S
C203 C212 1.511 . S
C204 C203 1.376 . S
C204 C205 1.392 . S
C204 H225 0.931 . S
C205 C204 1.392 . S
C205 C206 1.361 . S
C205 C207 1.500 . S
C206 C201 1.390 . S
C206 C205 1.361 . S
C206 H224 0.931 . S
C207 C205 1.500 . S
C207 C208 1.371 . S
C207 C209 1.365 . S
C208 C207 1.371 . S
C208 C218 1.386 . S
C208 H226 0.931 . S
C209 C207 1.365 . S
C209 C210 1.409 . S
C209 H227 0.929 . S
C210 C209 1.409 . S
C210 C211 1.380 . S
C210 H228 0.930 . S
C211 C210 1.380 . S
C211 C218 1.357 . S
C212 C203 1.511 . S
C212 C213 1.341 . S
C212 C214 1.371 . S
C213 C212 1.341 . S
C213 C217 1.394 . S
C213 H229 0.930 . S
C214 C212 1.371 . S
C214 C215 1.392 . S
C214 H230 0.931 . S
C215 C214 1.392 . S
C215 C216 1.331 . S
C215 H233 0.932 . S
C216 C215 1.331 . S
C216 C217 1.336 . S
C217 C213 1.394 . S
C217 C216 1.336 . S
C217 H232 0.929 . S
C218 C208 1.386 . S
C218 C211 1.357 . S
C218 H231 0.928 . S
H219 C195 0.931 . S
H220 C197 0.930 . S
H221 C199 0.929 . S
H222 C200 0.931 . S
H223 C202 0.930 . S
H224 C206 0.931 . S
H225 C204 0.931 . S
H226 C208 0.931 . S
H227 C209 0.929 . S
H228 C210 0.930 . S
H229 C213 0.930 . S
H230 C214 0.931 . S
H231 C218 0.928 . S
H232 C217 0.929 . S
H233 C215 0.932 . S
C234 C235 1.386 . S
C234 C236 1.397 . S
C234 H258 0.931 . S
C235 C234 1.386 . S
C235 C239 1.397 . S
C236 C234 1.397 . S
C236 C237 1.384 . S
C236 H259 0.930 . S
C237 C236 1.384 . S
C237 C238 1.377 . S
C237 C240 1.481 . S
C238 C237 1.377 . S
C238 C239 1.389 . S
C238 H260 0.929 . S
C239 C235 1.397 . S
C239 C238 1.389 . S
C239 H261 0.931 . S
C240 C237 1.481 . S
C240 C241 1.387 . S
C240 C245 1.390 . S
C241 C240 1.387 . S
C241 C242 1.401 . S
C241 H262 0.930 . S
C242 C241 1.401 . S
C242 C243 1.376 . S
C242 C251 1.511 . S
C243 C242 1.376 . S
C243 C244 1.392 . S
C243 H264 0.931 . S
C244 C243 1.392 . S
C244 C245 1.361 . S
C244 C246 1.500 . S
C245 C240 1.390 . S
C245 C244 1.361 . S
C245 H263 0.931 . S
C246 C244 1.500 . S
C246 C247 1.371 . S
C246 C248 1.365 . S
C247 C246 1.371 . S
C247 C257 1.386 . S
C247 H265 0.931 . S
C248 C246 1.365 . S
C248 C249 1.409 . S
C248 H266 0.929 . S
C249 C248 1.409 . S
C249 C250 1.380 . S
C249 H267 0.930 . S
C250 C249 1.380 . S
C250 C257 1.357 . S
C251 C242 1.511 . S
C251 C252 1.341 . S
C251 C253 1.371 . S
C252 C251 1.341 . S
C252 C256 1.394 . S
C252 H268 0.930 . S
C253 C251 1.371 . S
C253 C254 1.392 . S
C253 H269 0.931 . S
C254 C253 1.392 . S
C254 C255 1.331 . S
C254 H272 0.932 . S
C255 C254 1.331 . S
C255 C256 1.336 . S
C256 C252 1.394 . S
C256 C255 1.336 . S
C256 H271 0.929 . S
C257 C247 1.386 . S
C257 C250 1.357 . S
C257 H270 0.928 . S
H258 C234 0.931 . S
H259 C236 0.930 . S
H260 C238 0.929 . S
H261 C239 0.931 . S
H262 C241 0.930 . S
H263 C245 0.931 . S
H264 C243 0.931 . S
H265 C247 0.931 . S
H266 C248 0.929 . S
H267 C249 0.930 . S
H268 C252 0.930 . S
H269 C253 0.931 . S
H270 C257 0.928 . S
H271 C256 0.929 . S
H272 C254 0.932 . S
C273 C274 1.386 . S
C273 C275 1.397 . S
C273 H297 0.931 . S
C274 C273 1.386 . S
C274 C278 1.397 . S
C275 C273 1.397 . S
C275 C276 1.384 . S
C275 H298 0.930 . S
C276 C275 1.384 . S
C276 C277 1.377 . S
C276 C279 1.481 . S
C277 C276 1.377 . S
C277 C278 1.389 . S
C277 H299 0.929 . S
C278 C274 1.397 . S
C278 C277 1.389 . S
C278 H300 0.931 . S
C279 C276 1.481 . S
C279 C280 1.387 . S
C279 C284 1.390 . S
C280 C279 1.387 . S
C280 C281 1.401 . S
C280 H301 0.930 . S
C281 C280 1.401 . S
C281 C282 1.376 . S
C281 C290 1.511 . S
C282 C281 1.376 . S
C282 C283 1.392 . S
C282 H303 0.931 . S
C283 C282 1.392 . S
C283 C284 1.361 . S
C283 C285 1.500 . S
C284 C279 1.390 . S
C284 C283 1.361 . S
C284 H302 0.931 . S
C285 C283 1.500 . S
C285 C286 1.371 . S
C285 C287 1.365 . S
C286 C285 1.371 . S
C286 C296 1.386 . S
C286 H304 0.931 . S
C287 C285 1.365 . S
C287 C288 1.409 . S
C287 H305 0.929 . S
C288 C287 1.409 . S
C288 C289 1.380 . S
C288 H306 0.930 . S
C289 C288 1.380 . S
C289 C296 1.357 . S
C290 C281 1.511 . S
C290 C291 1.341 . S
C290 C292 1.371 . S
C291 C290 1.341 . S
C291 C295 1.394 . S
C291 H307 0.930 . S
C292 C290 1.371 . S
C292 C293 1.392 . S
C292 H308 0.931 . S
C293 C292 1.392 . S
C293 C294 1.331 . S
C293 H311 0.932 . S
C294 C293 1.331 . S
C294 C295 1.336 . S
C295 C291 1.394 . S
C295 C294 1.336 . S
C295 H310 0.929 . S
C296 C286 1.386 . S
C296 C289 1.357 . S
C296 H309 0.928 . S
H297 C273 0.931 . S
H298 C275 0.930 . S
H299 C277 0.929 . S
H300 C278 0.931 . S
H301 C280 0.930 . S
H302 C284 0.931 . S
H303 C282 0.931 . S
H304 C286 0.931 . S
H305 C287 0.929 . S
H306 C288 0.930 . S
H307 C291 0.930 . S
H308 C292 0.931 . S
H309 C296 0.928 . S
H310 C295 0.929 . S
H311 C293 0.932 . S
Ho312 C315 2.811 . S
Ho312 O332 2.322 . S
Ho312 O334 2.378 . S
Ho312 O335 2.524 . S
Ho312 O336 2.381 1_545 S
Ho312 O337 2.669 1_545 S
Ho312 O339 2.346 1_445 S
Ho312 O343 2.305 1_455 S
Ho313 C324 2.811 . S
Ho313 O333 2.346 1_665 S
Ho313 O337 2.305 1_655 S
Ho313 O338 2.322 . S
Ho313 O340 2.378 . S
Ho313 O341 2.524 . S
Ho313 O342 2.381 1_565 S
Ho313 O343 2.669 1_565 S
C314 O332 1.259 . S
C314 O333 1.268 . S
C315 Ho312 2.811 . S
C315 C316 1.488 . S
C315 O334 1.215 . S
C315 O335 1.289 . S
C316 C315 1.488 . S
C316 C317 1.348 . S
C316 C321 1.413 . S
C317 C316 1.348 . S
C317 C318 1.442 . S
C317 H344 0.930 . S
C318 C317 1.442 . S
C318 C319 1.381 . S
C318 H345 0.931 . S
C319 C318 1.381 . S
C319 C320 1.321 . S
C320 C319 1.321 . S
C320 C321 1.403 . S
C320 H346 0.934 . S
C321 C316 1.413 . S
C321 C320 1.403 . S
C321 H347 0.930 . S
C322 O336 1.275 . S
C322 O337 1.256 . S
C323 O338 1.259 . S
C323 O339 1.268 . S
C324 Ho313 2.811 . S
C324 C325 1.488 . S
C324 O340 1.215 . S
C324 O341 1.289 . S
C325 C324 1.488 . S
C325 C326 1.348 . S
C325 C330 1.413 . S
C326 C325 1.348 . S
C326 C327 1.442 . S
C326 H348 0.930 . S
C327 C326 1.442 . S
C327 C328 1.381 . S
C327 H349 0.931 . S
C328 C327 1.381 . S
C328 C329 1.321 . S
C329 C328 1.321 . S
C329 C330 1.403 . S
C329 H350 0.934 . S
C330 C325 1.413 . S
C330 C329 1.403 . S
C330 H351 0.930 . S
C331 O342 1.275 . S
C331 O343 1.256 . S
O332 Ho312 2.322 . S
O332 C314 1.259 . S
O333 Ho313 2.346 1_445 S
O333 C314 1.268 . S
O334 Ho312 2.378 . S
O334 C315 1.215 . S
O335 Ho312 2.524 . S
O335 C315 1.289 . S
O336 Ho312 2.381 1_565 S
O336 C322 1.275 . S
O337 Ho312 2.669 1_565 S
O337 Ho313 2.305 1_455 S
O337 C322 1.256 . S
O338 Ho313 2.322 . S
O338 C323 1.259 . S
O339 Ho312 2.346 1_665 S
O339 C323 1.268 . S
O340 Ho313 2.378 . S
O340 C324 1.215 . S
O341 Ho313 2.524 . S
O341 C324 1.289 . S
O342 Ho313 2.381 1_545 S
O342 C331 1.275 . S
O343 Ho312 2.305 1_655 S
O343 Ho313 2.669 1_545 S
O343 C331 1.256 . S
H344 C317 0.930 . S
H345 C318 0.931 . S
H346 C320 0.934 . S
H347 C321 0.930 . S
H348 C326 0.930 . S
H349 C327 0.931 . S
H350 C329 0.934 . S
H351 C330 0.930 . S
Ho352 C355 2.813 1_565 S
Ho352 O372 2.324 1_565 S
Ho352 O374 2.378 1_565 S
Ho352 O375 2.527 1_565 S
Ho352 O376 2.378 . S
Ho352 O377 2.668 . S
Ho352 O379 2.344 1_554 S
Ho352 O383 2.307 1_564 S
Ho353 C364 2.811 1_545 S
Ho353 O373 2.346 1_556 S
Ho353 O377 2.305 1_546 S
Ho353 O378 2.322 1_545 S
Ho353 O380 2.378 1_545 S
Ho353 O381 2.524 1_545 S
Ho353 O382 2.381 . S
Ho353 O383 2.669 . S
C354 O372 1.259 . S
C354 O373 1.268 . S
C355 Ho352 2.813 1_545 S
C355 C356 1.488 . S
C355 O374 1.215 . S
C355 O375 1.289 . S
C356 C355 1.488 . S
C356 C357 1.348 . S
C356 C361 1.413 . S
C357 C356 1.348 . S
C357 C358 1.442 . S
C357 H384 0.930 . S
C358 C357 1.442 . S
C358 C359 1.381 . S
C358 H385 0.931 . S
C359 C358 1.381 . S
C359 C360 1.321 . S
C360 C359 1.321 . S
C360 C361 1.403 . S
C360 H386 0.934 . S
C361 C356 1.413 . S
C361 C360 1.403 . S
C361 H387 0.930 . S
C362 O376 1.275 . S
C362 O377 1.256 . S
C363 O378 1.259 . S
C363 O379 1.268 . S
C364 Ho353 2.811 1_565 S
C364 C365 1.488 . S
C364 O380 1.215 . S
C364 O381 1.289 . S
C365 C364 1.488 . S
C365 C366 1.348 . S
C365 C370 1.413 . S
C366 C365 1.348 . S
C366 C367 1.442 . S
C366 H388 0.930 . S
C367 C366 1.442 . S
C367 C368 1.381 . S
C367 H389 0.931 . S
C368 C367 1.381 . S
C368 C369 1.321 . S
C369 C368 1.321 . S
C369 C370 1.403 . S
C369 H390 0.934 . S
C370 C365 1.413 . S
C370 C369 1.403 . S
C370 H391 0.930 . S
C371 O382 1.275 . S
C371 O383 1.256 . S
O372 Ho352 2.324 1_545 S
O372 C354 1.259 . S
O373 Ho353 2.346 1_554 S
O373 C354 1.268 . S
O374 Ho352 2.378 1_545 S
O374 C355 1.215 . S
O375 Ho352 2.527 1_545 S
O375 C355 1.289 . S
O376 Ho352 2.378 . S
O376 C362 1.275 . S
O377 Ho352 2.668 . S
O377 Ho353 2.305 1_564 S
O377 C362 1.256 . S
O378 Ho353 2.322 1_565 S
O378 C363 1.259 . S
O379 Ho352 2.344 1_556 S
O379 C363 1.268 . S
O380 Ho353 2.378 1_565 S
O380 C364 1.215 . S
O381 Ho353 2.524 1_565 S
O381 C364 1.289 . S
O382 Ho353 2.381 . S
O382 C371 1.275 . S
O383 Ho352 2.307 1_546 S
O383 Ho353 2.669 . S
O383 C371 1.256 . S
H384 C357 0.930 . S
H385 C358 0.931 . S
H386 C360 0.934 . S
H387 C361 0.930 . S
H388 C366 0.930 . S
H389 C367 0.931 . S
H390 C369 0.934 . S
H391 C370 0.930 . S
Ho392 C395 2.811 . S
Ho392 O412 2.322 . S
Ho392 O414 2.378 . S
Ho392 O415 2.524 . S
Ho392 O416 2.381 . S
Ho392 O417 2.669 . S
Ho392 O419 2.346 . S
Ho392 O423 2.305 . S
Ho393 C404 2.811 . S
Ho393 O413 2.346 . S
Ho393 O417 2.305 . S
Ho393 O418 2.322 . S
Ho393 O420 2.378 . S
Ho393 O421 2.524 . S
Ho393 O422 2.381 . S
Ho393 O423 2.669 . S
C394 O412 1.259 . S
C394 O413 1.268 . S
C395 Ho392 2.811 . S
C395 C396 1.488 . S
C395 O414 1.215 . S
C395 O415 1.289 . S
C396 C395 1.488 . S
C396 C397 1.348 . S
C396 C401 1.413 . S
C397 C396 1.348 . S
C397 C398 1.442 . S
C397 H424 0.930 . S
C398 C397 1.442 . S
C398 C399 1.381 . S
C398 H425 0.931 . S
C399 C398 1.381 . S
C399 C400 1.321 . S
C400 C399 1.321 . S
C400 C401 1.403 . S
C400 H426 0.934 . S
C401 C396 1.413 . S
C401 C400 1.403 . S
C401 H427 0.930 . S
C402 O416 1.275 . S
C402 O417 1.256 . S
C403 O418 1.259 . S
C403 O419 1.268 . S
C404 Ho393 2.811 . S
C404 C405 1.488 . S
C404 O420 1.215 . S
C404 O421 1.289 . S
C405 C404 1.488 . S
C405 C406 1.348 . S
C405 C410 1.413 . S
C406 C405 1.348 . S
C406 C407 1.442 . S
C406 H428 0.930 . S
C407 C406 1.442 . S
C407 C408 1.381 . S
C407 H429 0.931 . S
C408 C407 1.381 . S
C408 C409 1.321 . S
C409 C408 1.321 . S
C409 C410 1.403 . S
C409 H430 0.934 . S
C410 C405 1.413 . S
C410 C409 1.403 . S
C410 H431 0.930 . S
C411 O422 1.275 . S
C411 O423 1.256 . S
O412 Ho392 2.322 . S
O412 C394 1.259 . S
O413 Ho393 2.346 . S
O413 C394 1.268 . S
O414 Ho392 2.378 . S
O414 C395 1.215 . S
O415 Ho392 2.524 . S
O415 C395 1.289 . S
O416 Ho392 2.381 . S
O416 C402 1.275 . S
O417 Ho392 2.669 . S
O417 Ho393 2.305 . S
O417 C402 1.256 . S
O418 Ho393 2.322 . S
O418 C403 1.259 . S
O419 Ho392 2.346 . S
O419 C403 1.268 . S
O420 Ho393 2.378 . S
O420 C404 1.215 . S
O421 Ho393 2.524 . S
O421 C404 1.289 . S
O422 Ho393 2.381 . S
O422 C411 1.275 . S
O423 Ho392 2.305 . S
O423 Ho393 2.669 . S
O423 C411 1.256 . S
H424 C397 0.930 . S
H425 C398 0.931 . S
H426 C400 0.934 . S
H427 C401 0.930 . S
H428 C406 0.930 . S
H429 C407 0.931 . S
H430 C409 0.934 . S
H431 C410 0.930 . S
Ho432 C435 2.811 . S
Ho432 O452 2.322 . S
Ho432 O454 2.378 . S
Ho432 O455 2.524 . S
Ho432 O456 2.381 1_455 S
Ho432 O457 2.669 1_455 S
Ho432 O459 2.346 1_454 S
Ho432 O463 2.305 1_554 S
Ho433 C444 2.811 . S
Ho433 O453 2.346 1_656 S
Ho433 O457 2.305 1_556 S
Ho433 O458 2.322 . S
Ho433 O460 2.378 . S
Ho433 O461 2.524 . S
Ho433 O462 2.381 1_655 S
Ho433 O463 2.669 1_655 S
C434 O452 1.259 . S
C434 O453 1.268 . S
C435 Ho432 2.811 . S
C435 C436 1.488 . S
C435 O454 1.215 . S
C435 O455 1.289 . S
C436 C435 1.488 . S
C436 C437 1.348 . S
C436 C441 1.413 . S
C437 C436 1.348 . S
C437 C438 1.442 . S
C437 H464 0.930 . S
C438 C437 1.442 . S
C438 C439 1.381 . S
C438 H465 0.931 . S
C439 C438 1.381 . S
C439 C440 1.321 . S
C440 C439 1.321 . S
C440 C441 1.403 . S
C440 H466 0.934 . S
C441 C436 1.413 . S
C441 C440 1.403 . S
C441 H467 0.930 . S
C442 O456 1.275 . S
C442 O457 1.256 . S
C443 O458 1.259 . S
C443 O459 1.268 . S
C444 Ho433 2.811 . S
C444 C445 1.488 . S
C444 O460 1.215 . S
C444 O461 1.289 . S
C445 C444 1.488 . S
C445 C446 1.348 . S
C445 C450 1.413 . S
C446 C445 1.348 . S
C446 C447 1.442 . S
C446 H468 0.930 . S
C447 C446 1.442 . S
C447 C448 1.381 . S
C447 H469 0.931 . S
C448 C447 1.381 . S
C448 C449 1.321 . S
C449 C448 1.321 . S
C449 C450 1.403 . S
C449 H470 0.934 . S
C450 C445 1.413 . S
C450 C449 1.403 . S
C450 H471 0.930 . S
C451 O462 1.275 . S
C451 O463 1.256 . S
O452 Ho432 2.322 . S
O452 C434 1.259 . S
O453 Ho433 2.346 1_454 S
O453 C434 1.268 . S
O454 Ho432 2.378 . S
O454 C435 1.215 . S
O455 Ho432 2.524 . S
O455 C435 1.289 . S
O456 Ho432 2.381 1_655 S
O456 C442 1.275 . S
O457 Ho432 2.669 1_655 S
O457 Ho433 2.305 1_554 S
O457 C442 1.256 . S
O458 Ho433 2.322 . S
O458 C443 1.259 . S
O459 Ho432 2.346 1_656 S
O459 C443 1.268 . S
O460 Ho433 2.378 . S
O460 C444 1.215 . S
O461 Ho433 2.524 . S
O461 C444 1.289 . S
O462 Ho433 2.381 1_455 S
O462 C451 1.275 . S
O463 Ho432 2.305 1_556 S
O463 Ho433 2.669 1_455 S
O463 C451 1.256 . S
H464 C437 0.930 . S
H465 C438 0.931 . S
H466 C440 0.934 . S
H467 C441 0.930 . S
H468 C446 0.930 . S
H469 C447 0.931 . S
H470 C449 0.934 . S
H471 C450 0.930 . S
C472 C473 1.391 . S
C472 C474 1.394 . S
C472 H488 0.931 . S
C473 C472 1.391 . S
C473 C477 1.376 . S
C474 C472 1.394 . S
C474 C475 1.369 . S
C474 C478 1.531 . S
C475 C474 1.369 . S
C475 C476 1.410 . S
C475 C483 1.503 . S
C476 C475 1.410 . S
C476 C477 1.392 . S
C476 C479 1.511 . S
C477 C473 1.376 . S
C477 C476 1.392 . S
C477 H489 0.929 . S
C478 C474 1.531 . S
C478 H490 0.960 . S
C478 H491 0.962 . S
C478 H492 0.960 . S
C479 C476 1.511 . S
C479 H493 0.961 . S
C479 H494 0.961 . S
C479 H495 0.961 . S
C480 C481 1.370 . S
C480 C482 1.363 . S
C480 H496 0.931 . S
C481 C480 1.370 . S
C481 C485 1.408 . S
C482 C480 1.363 . S
C482 C483 1.370 . S
C482 C486 1.524 . S
C483 C475 1.503 . S
C483 C482 1.370 . S
C483 C484 1.403 . S
C484 C483 1.403 . S
C484 C485 1.404 . S
C484 C487 1.539 . S
C485 C481 1.408 . S
C485 C484 1.404 . S
C485 H497 0.930 . S
C486 C482 1.524 . S
C486 H498 0.956 . S
C486 H499 0.961 . S
C486 H500 0.961 . S
C487 C484 1.539 . S
C487 H501 0.958 . S
C487 H502 0.961 . S
C487 H503 0.960 . S
H488 C472 0.931 . S
H489 C477 0.929 . S
H490 C478 0.960 . S
H491 C478 0.962 . S
H492 C478 0.960 . S
H493 C479 0.961 . S
H494 C479 0.961 . S
H495 C479 0.961 . S
H496 C480 0.931 . S
H497 C485 0.930 . S
H498 C486 0.956 . S
H499 C486 0.961 . S
H500 C486 0.961 . S
H501 C487 0.958 . S
H502 C487 0.961 . S
H503 C487 0.960 . S
C504 C505 1.391 . S
C504 C506 1.394 . S
C504 H520 0.931 . S
C505 C504 1.391 . S
C505 C509 1.376 . S
C506 C504 1.394 . S
C506 C507 1.369 . S
C506 C510 1.531 . S
C507 C506 1.369 . S
C507 C508 1.410 . S
C507 C515 1.503 . S
C508 C507 1.410 . S
C508 C509 1.392 . S
C508 C511 1.511 . S
C509 C505 1.376 . S
C509 C508 1.392 . S
C509 H521 0.929 . S
C510 C506 1.531 . S
C510 H522 0.960 . S
C510 H523 0.962 . S
C510 H524 0.960 . S
C511 C508 1.511 . S
C511 H525 0.961 . S
C511 H526 0.961 . S
C511 H527 0.961 . S
C512 C513 1.370 . S
C512 C514 1.363 . S
C512 H528 0.931 . S
C513 C512 1.370 . S
C513 C517 1.408 . S
C514 C512 1.363 . S
C514 C515 1.370 . S
C514 C518 1.524 . S
C515 C507 1.503 . S
C515 C514 1.370 . S
C515 C516 1.403 . S
C516 C515 1.403 . S
C516 C517 1.404 . S
C516 C519 1.539 . S
C517 C513 1.408 . S
C517 C516 1.404 . S
C517 H529 0.930 . S
C518 C514 1.524 . S
C518 H530 0.956 . S
C518 H531 0.961 . S
C518 H532 0.961 . S
C519 C516 1.539 . S
C519 H533 0.958 . S
C519 H534 0.961 . S
C519 H535 0.960 . S
H520 C504 0.931 . S
H521 C509 0.929 . S
H522 C510 0.960 . S
H523 C510 0.962 . S
H524 C510 0.960 . S
H525 C511 0.961 . S
H526 C511 0.961 . S
H527 C511 0.961 . S
H528 C512 0.931 . S
H529 C517 0.930 . S
H530 C518 0.956 . S
H531 C518 0.961 . S
H532 C518 0.961 . S
H533 C519 0.958 . S
H534 C519 0.961 . S
H535 C519 0.960 . S
C536 C537 1.391 . S
C536 C538 1.394 . S
C536 H552 0.931 . S
C537 C536 1.391 . S
C537 C541 1.376 . S
C538 C536 1.394 . S
C538 C539 1.369 . S
C538 C542 1.531 . S
C539 C538 1.369 . S
C539 C540 1.410 . S
C539 C547 1.503 . S
C540 C539 1.410 . S
C540 C541 1.392 . S
C540 C543 1.511 . S
C541 C537 1.376 . S
C541 C540 1.392 . S
C541 H553 0.929 . S
C542 C538 1.531 . S
C542 H554 0.960 . S
C542 H555 0.962 . S
C542 H556 0.960 . S
C543 C540 1.511 . S
C543 H557 0.961 . S
C543 H558 0.961 . S
C543 H559 0.961 . S
C544 C545 1.370 . S
C544 C546 1.363 . S
C544 H560 0.931 . S
C545 C544 1.370 . S
C545 C549 1.408 . S
C546 C544 1.363 . S
C546 C547 1.370 . S
C546 C550 1.524 . S
C547 C539 1.503 . S
C547 C546 1.370 . S
C547 C548 1.403 . S
C548 C547 1.403 . S
C548 C549 1.404 . S
C548 C551 1.539 . S
C549 C545 1.408 . S
C549 C548 1.404 . S
C549 H561 0.930 . S
C550 C546 1.524 . S
C550 H562 0.956 . S
C550 H563 0.961 . S
C550 H564 0.961 . S
C551 C548 1.539 . S
C551 H565 0.958 . S
C551 H566 0.961 . S
C551 H567 0.960 . S
H552 C536 0.931 . S
H553 C541 0.929 . S
H554 C542 0.960 . S
H555 C542 0.962 . S
H556 C542 0.960 . S
H557 C543 0.961 . S
H558 C543 0.961 . S
H559 C543 0.961 . S
H560 C544 0.931 . S
H561 C549 0.930 . S
H562 C550 0.956 . S
H563 C550 0.961 . S
H564 C550 0.961 . S
H565 C551 0.958 . S
H566 C551 0.961 . S
H567 C551 0.960 . S
C568 C569 1.391 . S
C568 C570 1.394 . S
C568 H584 0.931 . S
C569 C568 1.391 . S
C569 C573 1.376 . S
C570 C568 1.394 . S
C570 C571 1.369 . S
C570 C574 1.531 . S
C571 C570 1.369 . S
C571 C572 1.410 . S
C571 C579 1.503 . S
C572 C571 1.410 . S
C572 C573 1.392 . S
C572 C575 1.511 . S
C573 C569 1.376 . S
C573 C572 1.392 . S
C573 H585 0.929 . S
C574 C570 1.531 . S
C574 H586 0.960 . S
C574 H587 0.962 . S
C574 H588 0.960 . S
C575 C572 1.511 . S
C575 H589 0.961 . S
C575 H590 0.961 . S
C575 H591 0.961 . S
C576 C577 1.370 . S
C576 C578 1.363 . S
C576 H592 0.931 . S
C577 C576 1.370 . S
C577 C581 1.408 . S
C578 C576 1.363 . S
C578 C579 1.370 . S
C578 C582 1.524 . S
C579 C571 1.503 . S
C579 C578 1.370 . S
C579 C580 1.403 . S
C580 C579 1.403 . S
C580 C581 1.404 . S
C580 C583 1.539 . S
C581 C577 1.408 . S
C581 C580 1.404 . S
C581 H593 0.930 . S
C582 C578 1.524 . S
C582 H594 0.956 . S
C582 H595 0.961 . S
C582 H596 0.961 . S
C583 C580 1.539 . S
C583 H597 0.958 . S
C583 H598 0.961 . S
C583 H599 0.960 . S
H584 C568 0.931 . S
H585 C573 0.929 . S
H586 C574 0.960 . S
H587 C574 0.962 . S
H588 C574 0.960 . S
H589 C575 0.961 . S
H590 C575 0.961 . S
H591 C575 0.961 . S
H592 C576 0.931 . S
H593 C581 0.930 . S
H594 C582 0.956 . S
H595 C582 0.961 . S
H596 C582 0.961 . S
H597 C583 0.958 . S
H598 C583 0.961 . S
H599 C583 0.960 . S
C600 C601 1.391 . S
C600 C602 1.394 . S
C600 H616 0.931 . S
C601 C600 1.391 . S
C601 C605 1.376 . S
C602 C600 1.394 . S
C602 C603 1.369 . S
C602 C606 1.531 . S
C603 C602 1.369 . S
C603 C604 1.410 . S
C603 C611 1.503 . S
C604 C603 1.410 . S
C604 C605 1.392 . S
C604 C607 1.511 . S
C605 C601 1.376 . S
C605 C604 1.392 . S
C605 H617 0.929 . S
C606 C602 1.531 . S
C606 H618 0.960 . S
C606 H619 0.962 . S
C606 H620 0.960 . S
C607 C604 1.511 . S
C607 H621 0.961 . S
C607 H622 0.961 . S
C607 H623 0.961 . S
C608 C609 1.370 . S
C608 C610 1.363 . S
C608 H624 0.931 . S
C609 C608 1.370 . S
C609 C613 1.408 . S
C610 C608 1.363 . S
C610 C611 1.370 . S
C610 C614 1.524 . S
C611 C603 1.503 . S
C611 C610 1.370 . S
C611 C612 1.403 . S
C612 C611 1.403 . S
C612 C613 1.404 . S
C612 C615 1.539 . S
C613 C609 1.408 . S
C613 C612 1.404 . S
C613 H625 0.930 . S
C614 C610 1.524 . S
C614 H626 0.956 . S
C614 H627 0.961 . S
C614 H628 0.961 . S
C615 C612 1.539 . S
C615 H629 0.958 . S
C615 H630 0.961 . S
C615 H631 0.960 . S
H616 C600 0.931 . S
H617 C605 0.929 . S
H618 C606 0.960 . S
H619 C606 0.962 . S
H620 C606 0.960 . S
H621 C607 0.961 . S
H622 C607 0.961 . S
H623 C607 0.961 . S
H624 C608 0.931 . S
H625 C613 0.930 . S
H626 C614 0.956 . S
H627 C614 0.961 . S
H628 C614 0.961 . S
H629 C615 0.958 . S
H630 C615 0.961 . S
H631 C615 0.960 . S
C632 C633 1.391 . S
C632 C634 1.394 . S
C632 H648 0.931 . S
C633 C632 1.391 . S
C633 C637 1.376 . S
C634 C632 1.394 . S
C634 C635 1.369 . S
C634 C638 1.531 . S
C635 C634 1.369 . S
C635 C636 1.410 . S
C635 C643 1.503 . S
C636 C635 1.410 . S
C636 C637 1.392 . S
C636 C639 1.511 . S
C637 C633 1.376 . S
C637 C636 1.392 . S
C637 H649 0.929 . S
C638 C634 1.531 . S
C638 H650 0.960 . S
C638 H651 0.962 . S
C638 H652 0.960 . S
C639 C636 1.511 . S
C639 H653 0.961 . S
C639 H654 0.961 . S
C639 H655 0.961 . S
C640 C641 1.370 . S
C640 C642 1.363 . S
C640 H656 0.931 . S
C641 C640 1.370 . S
C641 C645 1.408 . S
C642 C640 1.363 . S
C642 C643 1.370 . S
C642 C646 1.524 . S
C643 C635 1.503 . S
C643 C642 1.370 . S
C643 C644 1.403 . S
C644 C643 1.403 . S
C644 C645 1.404 . S
C644 C647 1.539 . S
C645 C641 1.408 . S
C645 C644 1.404 . S
C645 H657 0.930 . S
C646 C642 1.524 . S
C646 H658 0.956 . S
C646 H659 0.961 . S
C646 H660 0.961 . S
C647 C644 1.539 . S
C647 H661 0.958 . S
C647 H662 0.961 . S
C647 H663 0.960 . S
H648 C632 0.931 . S
H649 C637 0.929 . S
H650 C638 0.960 . S
H651 C638 0.962 . S
H652 C638 0.960 . S
H653 C639 0.961 . S
H654 C639 0.961 . S
H655 C639 0.961 . S
H656 C640 0.931 . S
H657 C645 0.930 . S
H658 C646 0.956 . S
H659 C646 0.961 . S
H660 C646 0.961 . S
H661 C647 0.958 . S
H662 C647 0.961 . S
H663 C647 0.960 . S
C664 C665 1.391 . S
C664 C666 1.394 . S
C664 H680 0.931 . S
C665 C664 1.391 . S
C665 C669 1.376 . S
C666 C664 1.394 . S
C666 C667 1.369 . S
C666 C670 1.531 . S
C667 C666 1.369 . S
C667 C668 1.410 . S
C667 C675 1.503 . S
C668 C667 1.410 . S
C668 C669 1.392 . S
C668 C671 1.511 . S
C669 C665 1.376 . S
C669 C668 1.392 . S
C669 H681 0.929 . S
C670 C666 1.531 . S
C670 H682 0.960 . S
C670 H683 0.962 . S
C670 H684 0.960 . S
C671 C668 1.511 . S
C671 H685 0.961 . S
C671 H686 0.961 . S
C671 H687 0.961 . S
C672 C673 1.370 . S
C672 C674 1.363 . S
C672 H688 0.931 . S
C673 C672 1.370 . S
C673 C677 1.408 . S
C674 C672 1.363 . S
C674 C675 1.370 . S
C674 C678 1.524 . S
C675 C667 1.503 . S
C675 C674 1.370 . S
C675 C676 1.403 . S
C676 C675 1.403 . S
C676 C677 1.404 . S
C676 C679 1.539 . S
C677 C673 1.408 . S
C677 C676 1.404 . S
C677 H689 0.930 . S
C678 C674 1.524 . S
C678 H690 0.956 . S
C678 H691 0.961 . S
C678 H692 0.961 . S
C679 C676 1.539 . S
C679 H693 0.958 . S
C679 H694 0.961 . S
C679 H695 0.960 . S
H680 C664 0.931 . S
H681 C669 0.929 . S
H682 C670 0.960 . S
H683 C670 0.962 . S
H684 C670 0.960 . S
H685 C671 0.961 . S
H686 C671 0.961 . S
H687 C671 0.961 . S
H688 C672 0.931 . S
H689 C677 0.930 . S
H690 C678 0.956 . S
H691 C678 0.961 . S
H692 C678 0.961 . S
H693 C679 0.958 . S
H694 C679 0.961 . S
H695 C679 0.960 . S
C696 C697 1.391 . S
C696 C698 1.394 . S
C696 H712 0.931 . S
C697 C696 1.391 . S
C697 C701 1.376 . S
C698 C696 1.394 . S
C698 C699 1.369 . S
C698 C702 1.531 . S
C699 C698 1.369 . S
C699 C700 1.410 . S
C699 C707 1.503 . S
C700 C699 1.410 . S
C700 C701 1.392 . S
C700 C703 1.511 . S
C701 C697 1.376 . S
C701 C700 1.392 . S
C701 H713 0.929 . S
C702 C698 1.531 . S
C702 H714 0.960 . S
C702 H715 0.962 . S
C702 H716 0.960 . S
C703 C700 1.511 . S
C703 H717 0.961 . S
C703 H718 0.961 . S
C703 H719 0.961 . S
C704 C705 1.370 . S
C704 C706 1.363 . S
C704 H720 0.931 . S
C705 C704 1.370 . S
C705 C709 1.408 . S
C706 C704 1.363 . S
C706 C707 1.370 . S
C706 C710 1.524 . S
C707 C699 1.503 . S
C707 C706 1.370 . S
C707 C708 1.403 . S
C708 C707 1.403 . S
C708 C709 1.404 . S
C708 C711 1.539 . S
C709 C705 1.408 . S
C709 C708 1.404 . S
C709 H721 0.930 . S
C710 C706 1.524 . S
C710 H722 0.956 . S
C710 H723 0.961 . S
C710 H724 0.961 . S
C711 C708 1.539 . S
C711 H725 0.958 . S
C711 H726 0.961 . S
C711 H727 0.960 . S
H712 C696 0.931 . S
H713 C701 0.929 . S
H714 C702 0.960 . S
H715 C702 0.962 . S
H716 C702 0.960 . S
H717 C703 0.961 . S
H718 C703 0.961 . S
H719 C703 0.961 . S
H720 C704 0.931 . S
H721 C709 0.930 . S
H722 C710 0.956 . S
H723 C710 0.961 . S
H724 C710 0.961 . S
H725 C711 0.958 . S
H726 C711 0.961 . S
H727 C711 0.960 . S
C728 C729 1.391 . S
C728 C730 1.394 . S
C728 H744 0.931 . S
C729 C728 1.391 . S
C729 C733 1.376 . S
C730 C728 1.394 . S
C730 C731 1.369 . S
C730 C734 1.531 . S
C731 C730 1.369 . S
C731 C732 1.410 . S
C731 C739 1.503 . S
C732 C731 1.410 . S
C732 C733 1.392 . S
C732 C735 1.511 . S
C733 C729 1.376 . S
C733 C732 1.392 . S
C733 H745 0.929 . S
C734 C730 1.531 . S
C734 H746 0.960 . S
C734 H747 0.962 . S
C734 H748 0.960 . S
C735 C732 1.511 . S
C735 H749 0.961 . S
C735 H750 0.961 . S
C735 H751 0.961 . S
C736 C737 1.370 . S
C736 C738 1.363 . S
C736 H752 0.931 . S
C737 C736 1.370 . S
C737 C741 1.408 . S
C738 C736 1.363 . S
C738 C739 1.370 . S
C738 C742 1.524 . S
C739 C731 1.503 . S
C739 C738 1.370 . S
C739 C740 1.403 . S
C740 C739 1.403 . S
C740 C741 1.404 . S
C740 C743 1.539 . S
C741 C737 1.408 . S
C741 C740 1.404 . S
C741 H753 0.930 . S
C742 C738 1.524 . S
C742 H754 0.956 . S
C742 H755 0.961 . S
C742 H756 0.961 . S
C743 C740 1.539 . S
C743 H757 0.958 . S
C743 H758 0.961 . S
C743 H759 0.960 . S
H744 C728 0.931 . S
H745 C733 0.929 . S
H746 C734 0.960 . S
H747 C734 0.962 . S
H748 C734 0.960 . S
H749 C735 0.961 . S
H750 C735 0.961 . S
H751 C735 0.961 . S
H752 C736 0.931 . S
H753 C741 0.930 . S
H754 C742 0.956 . S
H755 C742 0.961 . S
H756 C742 0.961 . S
H757 C743 0.958 . S
H758 C743 0.961 . S
H759 C743 0.960 . S
C760 C761 1.391 . S
C760 C762 1.394 . S
C760 H776 0.931 . S
C761 C760 1.391 . S
C761 C765 1.376 . S
C762 C760 1.394 . S
C762 C763 1.369 . S
C762 C766 1.531 . S
C763 C762 1.369 . S
C763 C764 1.410 . S
C763 C771 1.503 . S
C764 C763 1.410 . S
C764 C765 1.392 . S
C764 C767 1.511 . S
C765 C761 1.376 . S
C765 C764 1.392 . S
C765 H777 0.929 . S
C766 C762 1.531 . S
C766 H778 0.960 . S
C766 H779 0.962 . S
C766 H780 0.960 . S
C767 C764 1.511 . S
C767 H781 0.961 . S
C767 H782 0.961 . S
C767 H783 0.961 . S
C768 C769 1.370 . S
C768 C770 1.363 . S
C768 H784 0.931 . S
C769 C768 1.370 . S
C769 C773 1.408 . S
C770 C768 1.363 . S
C770 C771 1.370 . S
C770 C774 1.524 . S
C771 C763 1.503 . S
C771 C770 1.370 . S
C771 C772 1.403 . S
C772 C771 1.403 . S
C772 C773 1.404 . S
C772 C775 1.539 . S
C773 C769 1.408 . S
C773 C772 1.404 . S
C773 H785 0.930 . S
C774 C770 1.524 . S
C774 H786 0.956 . S
C774 H787 0.961 . S
C774 H788 0.961 . S
C775 C772 1.539 . S
C775 H789 0.958 . S
C775 H790 0.961 . S
C775 H791 0.960 . S
H776 C760 0.931 . S
H777 C765 0.929 . S
H778 C766 0.960 . S
H779 C766 0.962 . S
H780 C766 0.960 . S
H781 C767 0.961 . S
H782 C767 0.961 . S
H783 C767 0.961 . S
H784 C768 0.931 . S
H785 C773 0.930 . S
H786 C774 0.956 . S
H787 C774 0.961 . S
H788 C774 0.961 . S
H789 C775 0.958 . S
H790 C775 0.961 . S
H791 C775 0.960 . S
C792 C793 1.391 . S
C792 C794 1.394 . S
C792 H808 0.931 . S
C793 C792 1.391 . S
C793 C797 1.376 . S
C794 C792 1.394 . S
C794 C795 1.369 . S
C794 C798 1.531 . S
C795 C794 1.369 . S
C795 C796 1.410 . S
C795 C803 1.503 . S
C796 C795 1.410 . S
C796 C797 1.392 . S
C796 C799 1.511 . S
C797 C793 1.376 . S
C797 C796 1.392 . S
C797 H809 0.929 . S
C798 C794 1.531 . S
C798 H810 0.960 . S
C798 H811 0.962 . S
C798 H812 0.960 . S
C799 C796 1.511 . S
C799 H813 0.961 . S
C799 H814 0.961 . S
C799 H815 0.961 . S
C800 C801 1.370 . S
C800 C802 1.363 . S
C800 H816 0.931 . S
C801 C800 1.370 . S
C801 C805 1.408 . S
C802 C800 1.363 . S
C802 C803 1.370 . S
C802 C806 1.524 . S
C803 C795 1.503 . S
C803 C802 1.370 . S
C803 C804 1.403 . S
C804 C803 1.403 . S
C804 C805 1.404 . S
C804 C807 1.539 . S
C805 C801 1.408 . S
C805 C804 1.404 . S
C805 H817 0.930 . S
C806 C802 1.524 . S
C806 H818 0.956 . S
C806 H819 0.961 . S
C806 H820 0.961 . S
C807 C804 1.539 . S
C807 H821 0.958 . S
C807 H822 0.961 . S
C807 H823 0.960 . S
H808 C792 0.931 . S
H809 C797 0.929 . S
H810 C798 0.960 . S
H811 C798 0.962 . S
H812 C798 0.960 . S
H813 C799 0.961 . S
H814 C799 0.961 . S
H815 C799 0.961 . S
H816 C800 0.931 . S
H817 C805 0.930 . S
H818 C806 0.956 . S
H819 C806 0.961 . S
H820 C806 0.961 . S
H821 C807 0.958 . S
H822 C807 0.961 . S
H823 C807 0.960 . S
C824 C825 1.391 . S
C824 C826 1.394 . S
C824 H840 0.931 . S
C825 C824 1.391 . S
C825 C829 1.376 . S
C826 C824 1.394 . S
C826 C827 1.369 . S
C826 C830 1.531 . S
C827 C826 1.369 . S
C827 C828 1.410 . S
C827 C835 1.503 . S
C828 C827 1.410 . S
C828 C829 1.392 . S
C828 C831 1.511 . S
C829 C825 1.376 . S
C829 C828 1.392 . S
C829 H841 0.929 . S
C830 C826 1.531 . S
C830 H842 0.960 . S
C830 H843 0.962 . S
C830 H844 0.960 . S
C831 C828 1.511 . S
C831 H845 0.961 . S
C831 H846 0.961 . S
C831 H847 0.961 . S
C832 C833 1.370 . S
C832 C834 1.363 . S
C832 H848 0.931 . S
C833 C832 1.370 . S
C833 C837 1.408 . S
C834 C832 1.363 . S
C834 C835 1.370 . S
C834 C838 1.524 . S
C835 C827 1.503 . S
C835 C834 1.370 . S
C835 C836 1.403 . S
C836 C835 1.403 . S
C836 C837 1.404 . S
C836 C839 1.539 . S
C837 C833 1.408 . S
C837 C836 1.404 . S
C837 H849 0.930 . S
C838 C834 1.524 . S
C838 H850 0.956 . S
C838 H851 0.961 . S
C838 H852 0.961 . S
C839 C836 1.539 . S
C839 H853 0.958 . S
C839 H854 0.961 . S
C839 H855 0.960 . S
H840 C824 0.931 . S
H841 C829 0.929 . S
H842 C830 0.960 . S
H843 C830 0.962 . S
H844 C830 0.960 . S
H845 C831 0.961 . S
H846 C831 0.961 . S
H847 C831 0.961 . S
H848 C832 0.931 . S
H849 C837 0.930 . S
H850 C838 0.956 . S
H851 C838 0.961 . S
H852 C838 0.961 . S
H853 C839 0.958 . S
H854 C839 0.961 . S
H855 C839 0.960 . S
C856 C857 1.391 . S
C856 C858 1.394 . S
C856 H872 0.931 . S
C857 C856 1.391 . S
C857 C861 1.376 . S
C858 C856 1.394 . S
C858 C859 1.369 . S
C858 C862 1.531 . S
C859 C858 1.369 . S
C859 C860 1.410 . S
C859 C867 1.503 . S
C860 C859 1.410 . S
C860 C861 1.392 . S
C860 C863 1.511 . S
C861 C857 1.376 . S
C861 C860 1.392 . S
C861 H873 0.929 . S
C862 C858 1.531 . S
C862 H874 0.960 . S
C862 H875 0.962 . S
C862 H876 0.960 . S
C863 C860 1.511 . S
C863 H877 0.961 . S
C863 H878 0.961 . S
C863 H879 0.961 . S
C864 C865 1.370 . S
C864 C866 1.363 . S
C864 H880 0.931 . S
C865 C864 1.370 . S
C865 C869 1.408 . S
C866 C864 1.363 . S
C866 C867 1.370 . S
C866 C870 1.524 . S
C867 C859 1.503 . S
C867 C866 1.370 . S
C867 C868 1.403 . S
C868 C867 1.403 . S
C868 C869 1.404 . S
C868 C871 1.539 . S
C869 C865 1.408 . S
C869 C868 1.404 . S
C869 H881 0.930 . S
C870 C866 1.524 . S
C870 H882 0.956 . S
C870 H883 0.961 . S
C870 H884 0.961 . S
C871 C868 1.539 . S
C871 H885 0.958 . S
C871 H886 0.961 . S
C871 H887 0.960 . S
H872 C856 0.931 . S
H873 C861 0.929 . S
H874 C862 0.960 . S
H875 C862 0.962 . S
H876 C862 0.960 . S
H877 C863 0.961 . S
H878 C863 0.961 . S
H879 C863 0.961 . S
H880 C864 0.931 . S
H881 C869 0.930 . S
H882 C870 0.956 . S
H883 C870 0.961 . S
H884 C870 0.961 . S
H885 C871 0.958 . S
H886 C871 0.961 . S
H887 C871 0.960 . S
C888 C889 1.391 . S
C888 C890 1.394 . S
C888 H904 0.931 . S
C889 C888 1.391 . S
C889 C893 1.376 . S
C890 C888 1.394 . S
C890 C891 1.369 . S
C890 C894 1.531 . S
C891 C890 1.369 . S
C891 C892 1.410 . S
C891 C899 1.503 . S
C892 C891 1.410 . S
C892 C893 1.392 . S
C892 C895 1.511 . S
C893 C889 1.376 . S
C893 C892 1.392 . S
C893 H905 0.929 . S
C894 C890 1.531 . S
C894 H906 0.960 . S
C894 H907 0.962 . S
C894 H908 0.960 . S
C895 C892 1.511 . S
C895 H909 0.961 . S
C895 H910 0.961 . S
C895 H911 0.961 . S
C896 C897 1.370 . S
C896 C898 1.363 . S
C896 H912 0.931 . S
C897 C896 1.370 . S
C897 C901 1.408 . S
C898 C896 1.363 . S
C898 C899 1.370 . S
C898 C902 1.524 . S
C899 C891 1.503 . S
C899 C898 1.370 . S
C899 C900 1.403 . S
C900 C899 1.403 . S
C900 C901 1.404 . S
C900 C903 1.539 . S
C901 C897 1.408 . S
C901 C900 1.404 . S
C901 H913 0.930 . S
C902 C898 1.524 . S
C902 H914 0.956 . S
C902 H915 0.961 . S
C902 H916 0.961 . S
C903 C900 1.539 . S
C903 H917 0.958 . S
C903 H918 0.961 . S
C903 H919 0.960 . S
H904 C888 0.931 . S
H905 C893 0.929 . S
H906 C894 0.960 . S
H907 C894 0.962 . S
H908 C894 0.960 . S
H909 C895 0.961 . S
H910 C895 0.961 . S
H911 C895 0.961 . S
H912 C896 0.931 . S
H913 C901 0.930 . S
H914 C902 0.956 . S
H915 C902 0.961 . S
H916 C902 0.961 . S
H917 C903 0.958 . S
H918 C903 0.961 . S
H919 C903 0.960 . S
C920 C921 1.391 . S
C920 C922 1.394 . S
C920 H936 0.931 . S
C921 C920 1.391 . S
C921 C925 1.376 . S
C922 C920 1.394 . S
C922 C923 1.369 . S
C922 C926 1.531 . S
C923 C922 1.369 . S
C923 C924 1.410 . S
C923 C931 1.503 . S
C924 C923 1.410 . S
C924 C925 1.392 . S
C924 C927 1.511 . S
C925 C921 1.376 . S
C925 C924 1.392 . S
C925 H937 0.929 . S
C926 C922 1.531 . S
C926 H938 0.960 . S
C926 H939 0.962 . S
C926 H940 0.960 . S
C927 C924 1.511 . S
C927 H941 0.961 . S
C927 H942 0.961 . S
C927 H943 0.961 . S
C928 C929 1.370 . S
C928 C930 1.363 . S
C928 H944 0.931 . S
C929 C928 1.370 . S
C929 C933 1.408 . S
C930 C928 1.363 . S
C930 C931 1.370 . S
C930 C934 1.524 . S
C931 C923 1.503 . S
C931 C930 1.370 . S
C931 C932 1.403 . S
C932 C931 1.403 . S
C932 C933 1.404 . S
C932 C935 1.539 . S
C933 C929 1.408 . S
C933 C932 1.404 . S
C933 H945 0.930 . S
C934 C930 1.524 . S
C934 H946 0.956 . S
C934 H947 0.961 . S
C934 H948 0.961 . S
C935 C932 1.539 . S
C935 H949 0.958 . S
C935 H950 0.961 . S
C935 H951 0.960 . S
H936 C920 0.931 . S
H937 C925 0.929 . S
H938 C926 0.960 . S
H939 C926 0.962 . S
H940 C926 0.960 . S
H941 C927 0.961 . S
H942 C927 0.961 . S
H943 C927 0.961 . S
H944 C928 0.931 . S
H945 C933 0.930 . S
H946 C934 0.956 . S
H947 C934 0.961 . S
H948 C934 0.961 . S
H949 C935 0.958 . S
H950 C935 0.961 . S
H951 C935 0.960 . S
C952 C953 1.391 . S
C952 C954 1.394 . S
C952 H968 0.931 . S
C953 C952 1.391 . S
C953 C957 1.376 . S
C954 C952 1.394 . S
C954 C955 1.369 . S
C954 C958 1.531 . S
C955 C954 1.369 . S
C955 C956 1.410 . S
C955 C963 1.503 . S
C956 C955 1.410 . S
C956 C957 1.392 . S
C956 C959 1.511 . S
C957 C953 1.376 . S
C957 C956 1.392 . S
C957 H969 0.929 . S
C958 C954 1.531 . S
C958 H970 0.960 . S
C958 H971 0.962 . S
C958 H972 0.960 . S
C959 C956 1.511 . S
C959 H973 0.961 . S
C959 H974 0.961 . S
C959 H975 0.961 . S
C960 C961 1.370 . S
C960 C962 1.363 . S
C960 H976 0.931 . S
C961 C960 1.370 . S
C961 C965 1.408 . S
C962 C960 1.363 . S
C962 C963 1.370 . S
C962 C966 1.524 . S
C963 C955 1.503 . S
C963 C962 1.370 . S
C963 C964 1.403 . S
C964 C963 1.403 . S
C964 C965 1.404 . S
C964 C967 1.539 . S
C965 C961 1.408 . S
C965 C964 1.404 . S
C965 H977 0.930 . S
C966 C962 1.524 . S
C966 H978 0.956 . S
C966 H979 0.961 . S
C966 H980 0.961 . S
C967 C964 1.539 . S
C967 H981 0.958 . S
C967 H982 0.961 1_455 S
C967 H983 0.960 . S
H968 C952 0.931 . S
H969 C957 0.929 . S
H970 C958 0.960 . S
H971 C958 0.962 . S
H972 C958 0.960 . S
H973 C959 0.961 . S
H974 C959 0.961 . S
H975 C959 0.961 . S
H976 C960 0.931 . S
H977 C965 0.930 . S
H978 C966 0.956 . S
H979 C966 0.961 . S
H980 C966 0.961 . S
H981 C967 0.958 . S
H982 C967 0.961 1_655 S
H983 C967 0.960 . S
C984 C985 1.391 . S
C984 C986 1.394 . S
C984 H1000 0.931 . S
C985 C984 1.391 . S
C985 C989 1.376 . S
C986 C984 1.394 . S
C986 C987 1.369 . S
C986 C990 1.531 . S
C987 C986 1.369 . S
C987 C988 1.410 . S
C987 C995 1.503 . S
C988 C987 1.410 . S
C988 C989 1.392 . S
C988 C991 1.511 . S
C989 C985 1.376 . S
C989 C988 1.392 . S
C989 H1001 0.929 . S
C990 C986 1.531 . S
C990 H1002 0.960 . S
C990 H1003 0.962 . S
C990 H1004 0.960 . S
C991 C988 1.511 . S
C991 H1005 0.961 . S
C991 H1006 0.961 . S
C991 H1007 0.961 . S
C992 C993 1.370 . S
C992 C994 1.363 . S
C992 H1008 0.931 . S
C993 C992 1.370 . S
C993 C997 1.408 . S
C994 C992 1.363 . S
C994 C995 1.370 . S
C994 C998 1.524 . S
C995 C987 1.503 . S
C995 C994 1.370 . S
C995 C996 1.403 . S
C996 C995 1.403 . S
C996 C997 1.404 . S
C996 C999 1.539 . S
C997 C993 1.408 . S
C997 C996 1.404 . S
C997 H1009 0.930 . S
C998 C994 1.524 . S
C998 H1010 0.956 . S
C998 H1011 0.961 . S
C998 H1012 0.961 . S
C999 C996 1.539 . S
C999 H1013 0.958 . S
C999 H1014 0.961 . S
C999 H1015 0.960 . S
H1000 C984 0.931 . S
H1001 C989 0.929 . S
H1002 C990 0.960 . S
H1003 C990 0.962 . S
H1004 C990 0.960 . S
H1005 C991 0.961 . S
H1006 C991 0.961 . S
H1007 C991 0.961 . S
H1008 C992 0.931 . S
H1009 C997 0.930 . S
H1010 C998 0.956 . S
H1011 C998 0.961 . S
H1012 C998 0.961 . S
H1013 C999 0.958 . S
H1014 C999 0.961 . S
H1015 C999 0.960 . S
C1016 C1017 1.391 . S
C1016 C1018 1.394 . S
C1016 H1032 0.931 . S
C1017 C1016 1.391 . S
C1017 C1021 1.376 . S
C1018 C1016 1.394 . S
C1018 C1019 1.369 . S
C1018 C1022 1.531 . S
C1019 C1018 1.369 . S
C1019 C1020 1.410 . S
C1019 C1027 1.503 . S
C1020 C1019 1.410 . S
C1020 C1021 1.392 . S
C1020 C1023 1.511 . S
C1021 C1017 1.376 . S
C1021 C1020 1.392 . S
C1021 H1033 0.929 . S
C1022 C1018 1.531 . S
C1022 H1034 0.960 . S
C1022 H1035 0.962 . S
C1022 H1036 0.960 . S
C1023 C1020 1.511 . S
C1023 H1037 0.961 . S
C1023 H1038 0.961 . S
C1023 H1039 0.961 . S
C1024 C1025 1.370 . S
C1024 C1026 1.363 . S
C1024 H1040 0.931 . S
C1025 C1024 1.370 . S
C1025 C1029 1.408 . S
C1026 C1024 1.363 . S
C1026 C1027 1.370 . S
C1026 C1030 1.524 . S
C1027 C1019 1.503 . S
C1027 C1026 1.370 . S
C1027 C1028 1.403 . S
C1028 C1027 1.403 . S
C1028 C1029 1.404 . S
C1028 C1031 1.539 . S
C1029 C1025 1.408 . S
C1029 C1028 1.404 . S
C1029 H1041 0.930 . S
C1030 C1026 1.524 . S
C1030 H1042 0.956 . S
C1030 H1043 0.961 . S
C1030 H1044 0.961 . S
C1031 C1028 1.539 . S
C1031 H1045 0.958 . S
C1031 H1046 0.961 . S
C1031 H1047 0.960 . S
H1032 C1016 0.931 . S
H1033 C1021 0.929 . S
H1034 C1022 0.960 . S
H1035 C1022 0.962 . S
H1036 C1022 0.960 . S
H1037 C1023 0.961 . S
H1038 C1023 0.961 . S
H1039 C1023 0.961 . S
H1040 C1024 0.931 . S
H1041 C1029 0.930 . S
H1042 C1030 0.956 . S
H1043 C1030 0.961 . S
H1044 C1030 0.961 . S
H1045 C1031 0.958 . S
H1046 C1031 0.961 . S
H1047 C1031 0.960 . S
C1048 C1049 1.391 . S
C1048 C1050 1.394 . S
C1048 H1064 0.931 . S
C1049 C1048 1.391 . S
C1049 C1053 1.376 . S
C1050 C1048 1.394 . S
C1050 C1051 1.369 . S
C1050 C1054 1.531 . S
C1051 C1050 1.369 . S
C1051 C1052 1.410 . S
C1051 C1059 1.503 . S
C1052 C1051 1.410 . S
C1052 C1053 1.392 . S
C1052 C1055 1.511 . S
C1053 C1049 1.376 . S
C1053 C1052 1.392 . S
C1053 H1065 0.929 . S
C1054 C1050 1.531 . S
C1054 H1066 0.960 . S
C1054 H1067 0.962 . S
C1054 H1068 0.960 . S
C1055 C1052 1.511 . S
C1055 H1069 0.961 . S
C1055 H1070 0.961 . S
C1055 H1071 0.961 . S
C1056 C1057 1.370 . S
C1056 C1058 1.363 . S
C1056 H1072 0.931 . S
C1057 C1056 1.370 . S
C1057 C1061 1.408 . S
C1058 C1056 1.363 . S
C1058 C1059 1.370 . S
C1058 C1062 1.524 . S
C1059 C1051 1.503 . S
C1059 C1058 1.370 . S
C1059 C1060 1.403 . S
C1060 C1059 1.403 . S
C1060 C1061 1.404 . S
C1060 C1063 1.539 . S
C1061 C1057 1.408 . S
C1061 C1060 1.404 . S
C1061 H1073 0.930 . S
C1062 C1058 1.524 . S
C1062 H1074 0.956 . S
C1062 H1075 0.961 . S
C1062 H1076 0.961 . S
C1063 C1060 1.539 . S
C1063 H1077 0.958 . S
C1063 H1078 0.961 1_554 S
C1063 H1079 0.960 . S
H1064 C1048 0.931 . S
H1065 C1053 0.929 . S
H1066 C1054 0.960 . S
H1067 C1054 0.962 . S
H1068 C1054 0.960 . S
H1069 C1055 0.961 . S
H1070 C1055 0.961 . S
H1071 C1055 0.961 . S
H1072 C1056 0.931 . S
H1073 C1061 0.930 . S
H1074 C1062 0.956 . S
H1075 C1062 0.961 . S
H1076 C1062 0.961 . S
H1077 C1063 0.958 . S
H1078 C1063 0.961 1_556 S
H1079 C1063 0.960 . S
C1080 C1081 1.391 . S
C1080 C1082 1.394 . S
C1080 H1096 0.931 . S
C1081 C1080 1.391 . S
C1081 C1085 1.376 . S
C1082 C1080 1.394 . S
C1082 C1083 1.369 . S
C1082 C1086 1.531 . S
C1083 C1082 1.369 . S
C1083 C1084 1.410 . S
C1083 C1091 1.503 . S
C1084 C1083 1.410 . S
C1084 C1085 1.392 . S
C1084 C1087 1.511 . S
C1085 C1081 1.376 . S
C1085 C1084 1.392 . S
C1085 H1097 0.929 . S
C1086 C1082 1.531 . S
C1086 H1098 0.960 . S
C1086 H1099 0.962 . S
C1086 H1100 0.960 . S
C1087 C1084 1.511 . S
C1087 H1101 0.961 . S
C1087 H1102 0.961 . S
C1087 H1103 0.961 . S
C1088 C1089 1.370 . S
C1088 C1090 1.363 . S
C1088 H1104 0.931 . S
C1089 C1088 1.370 . S
C1089 C1093 1.408 . S
C1090 C1088 1.363 . S
C1090 C1091 1.370 . S
C1090 C1094 1.524 . S
C1091 C1083 1.503 . S
C1091 C1090 1.370 . S
C1091 C1092 1.403 . S
C1092 C1091 1.403 . S
C1092 C1093 1.404 . S
C1092 C1095 1.539 . S
C1093 C1089 1.408 . S
C1093 C1092 1.404 . S
C1093 H1105 0.930 . S
C1094 C1090 1.524 . S
C1094 H1106 0.956 . S
C1094 H1107 0.961 . S
C1094 H1108 0.961 . S
C1095 C1092 1.539 . S
C1095 H1109 0.958 . S
C1095 H1110 0.961 . S
C1095 H1111 0.960 . S
H1096 C1080 0.931 . S
H1097 C1085 0.929 . S
H1098 C1086 0.960 . S
H1099 C1086 0.962 . S
H1100 C1086 0.960 . S
H1101 C1087 0.961 . S
H1102 C1087 0.961 . S
H1103 C1087 0.961 . S
H1104 C1088 0.931 . S
H1105 C1093 0.930 . S
H1106 C1094 0.956 . S
H1107 C1094 0.961 . S
H1108 C1094 0.961 . S
H1109 C1095 0.958 . S
H1110 C1095 0.961 . S
H1111 C1095 0.960 . S
C1112 C1113 1.391 . S
C1112 C1114 1.394 . S
C1112 H1128 0.931 . S
C1113 C1112 1.391 . S
C1113 C1117 1.376 . S
C1114 C1112 1.394 . S
C1114 C1115 1.369 . S
C1114 C1118 1.531 . S
C1115 C1114 1.369 . S
C1115 C1116 1.410 . S
C1115 C1123 1.503 . S
C1116 C1115 1.410 . S
C1116 C1117 1.392 . S
C1116 C1119 1.511 . S
C1117 C1113 1.376 . S
C1117 C1116 1.392 . S
C1117 H1129 0.929 . S
C1118 C1114 1.531 . S
C1118 H1130 0.960 . S
C1118 H1131 0.962 . S
C1118 H1132 0.960 . S
C1119 C1116 1.511 . S
C1119 H1133 0.961 . S
C1119 H1134 0.961 . S
C1119 H1135 0.961 . S
C1120 C1121 1.370 . S
C1120 C1122 1.363 . S
C1120 H1136 0.931 . S
C1121 C1120 1.370 . S
C1121 C1125 1.408 . S
C1122 C1120 1.363 . S
C1122 C1123 1.370 . S
C1122 C1126 1.524 . S
C1123 C1115 1.503 . S
C1123 C1122 1.370 . S
C1123 C1124 1.403 . S
C1124 C1123 1.403 . S
C1124 C1125 1.404 . S
C1124 C1127 1.539 . S
C1125 C1121 1.408 . S
C1125 C1124 1.404 . S
C1125 H1137 0.930 . S
C1126 C1122 1.524 . S
C1126 H1138 0.956 . S
C1126 H1139 0.961 . S
C1126 H1140 0.961 . S
C1127 C1124 1.539 . S
C1127 H1141 0.958 . S
C1127 H1142 0.961 . S
C1127 H1143 0.960 . S
H1128 C1112 0.931 . S
H1129 C1117 0.929 . S
H1130 C1118 0.960 . S
H1131 C1118 0.962 . S
H1132 C1118 0.960 . S
H1133 C1119 0.961 . S
H1134 C1119 0.961 . S
H1135 C1119 0.961 . S
H1136 C1120 0.931 . S
H1137 C1125 0.930 . S
H1138 C1126 0.956 . S
H1139 C1126 0.961 . S
H1140 C1126 0.961 . S
H1141 C1127 0.958 . S
H1142 C1127 0.961 . S
H1143 C1127 0.960 . S
C1144 C1145 1.391 . S
C1144 C1146 1.394 . S
C1144 H1160 0.931 . S
C1145 C1144 1.391 . S
C1145 C1149 1.376 . S
C1146 C1144 1.394 . S
C1146 C1147 1.369 . S
C1146 C1150 1.531 . S
C1147 C1146 1.369 . S
C1147 C1148 1.410 . S
C1147 C1155 1.503 . S
C1148 C1147 1.410 . S
C1148 C1149 1.392 . S
C1148 C1151 1.511 . S
C1149 C1145 1.376 . S
C1149 C1148 1.392 . S
C1149 H1161 0.929 . S
C1150 C1146 1.531 . S
C1150 H1162 0.960 . S
C1150 H1163 0.962 . S
C1150 H1164 0.960 . S
C1151 C1148 1.511 . S
C1151 H1165 0.961 . S
C1151 H1166 0.961 . S
C1151 H1167 0.961 . S
C1152 C1153 1.370 . S
C1152 C1154 1.363 . S
C1152 H1168 0.931 . S
C1153 C1152 1.370 . S
C1153 C1157 1.408 . S
C1154 C1152 1.363 . S
C1154 C1155 1.370 . S
C1154 C1158 1.524 . S
C1155 C1147 1.503 . S
C1155 C1154 1.370 . S
C1155 C1156 1.403 . S
C1156 C1155 1.403 . S
C1156 C1157 1.404 . S
C1156 C1159 1.539 . S
C1157 C1153 1.408 . S
C1157 C1156 1.404 . S
C1157 H1169 0.930 . S
C1158 C1154 1.524 . S
C1158 H1170 0.956 . S
C1158 H1171 0.961 . S
C1158 H1172 0.961 . S
C1159 C1156 1.539 . S
C1159 H1173 0.958 . S
C1159 H1174 0.961 . S
C1159 H1175 0.960 . S
H1160 C1144 0.931 . S
H1161 C1149 0.929 . S
H1162 C1150 0.960 . S
H1163 C1150 0.962 . S
H1164 C1150 0.960 . S
H1165 C1151 0.961 . S
H1166 C1151 0.961 . S
H1167 C1151 0.961 . S
H1168 C1152 0.931 . S
H1169 C1157 0.930 . S
H1170 C1158 0.956 . S
H1171 C1158 0.961 . S
H1172 C1158 0.961 . S
H1173 C1159 0.958 . S
H1174 C1159 0.961 . S
H1175 C1159 0.960 . S
C1176 C1177 1.391 . S
C1176 C1178 1.394 . S
C1176 H1192 0.931 . S
C1177 C1176 1.391 . S
C1177 C1181 1.376 . S
C1178 C1176 1.394 . S
C1178 C1179 1.369 . S
C1178 C1182 1.531 . S
C1179 C1178 1.369 . S
C1179 C1180 1.410 . S
C1179 C1187 1.503 . S
C1180 C1179 1.410 . S
C1180 C1181 1.392 . S
C1180 C1183 1.511 . S
C1181 C1177 1.376 . S
C1181 C1180 1.392 . S
C1181 H1193 0.929 . S
C1182 C1178 1.531 . S
C1182 H1194 0.960 . S
C1182 H1195 0.962 . S
C1182 H1196 0.960 . S
C1183 C1180 1.511 . S
C1183 H1197 0.961 . S
C1183 H1198 0.961 . S
C1183 H1199 0.961 . S
C1184 C1185 1.370 . S
C1184 C1186 1.363 . S
C1184 H1200 0.931 . S
C1185 C1184 1.370 . S
C1185 C1189 1.408 . S
C1186 C1184 1.363 . S
C1186 C1187 1.370 . S
C1186 C1190 1.524 . S
C1187 C1179 1.503 . S
C1187 C1186 1.370 . S
C1187 C1188 1.403 . S
C1188 C1187 1.403 . S
C1188 C1189 1.404 . S
C1188 C1191 1.539 . S
C1189 C1185 1.408 . S
C1189 C1188 1.404 . S
C1189 H1201 0.930 . S
C1190 C1186 1.524 . S
C1190 H1202 0.956 . S
C1190 H1203 0.961 . S
C1190 H1204 0.961 . S
C1191 C1188 1.539 . S
C1191 H1205 0.970 . S
C1191 H1206 0.961 1_455 S
C1191 H1207 0.960 . S
H1192 C1176 0.931 . S
H1193 C1181 0.929 . S
H1194 C1182 0.960 . S
H1195 C1182 0.962 . S
H1196 C1182 0.960 . S
H1197 C1183 0.961 . S
H1198 C1183 0.961 . S
H1199 C1183 0.961 . S
H1200 C1184 0.931 . S
H1201 C1189 0.930 . S
H1202 C1190 0.956 . S
H1203 C1190 0.961 . S
H1204 C1190 0.961 . S
H1205 C1191 0.970 . S
H1206 C1191 0.961 1_655 S
H1207 C1191 0.960 . S
C1208 C1209 1.391 . S
C1208 C1210 1.394 . S
C1208 H1224 0.931 . S
C1209 C1208 1.391 . S
C1209 C1213 1.376 . S
C1210 C1208 1.394 . S
C1210 C1211 1.369 . S
C1210 C1214 1.531 . S
C1211 C1210 1.369 . S
C1211 C1212 1.410 . S
C1211 C1219 1.503 . S
C1212 C1211 1.410 . S
C1212 C1213 1.392 . S
C1212 C1215 1.511 . S
C1213 C1209 1.376 . S
C1213 C1212 1.392 . S
C1213 H1225 0.929 . S
C1214 C1210 1.531 . S
C1214 H1226 0.960 . S
C1214 H1227 0.962 . S
C1214 H1228 0.960 . S
C1215 C1212 1.511 . S
C1215 H1229 0.961 . S
C1215 H1230 0.961 . S
C1215 H1231 0.961 . S
C1216 C1217 1.370 . S
C1216 C1218 1.363 . S
C1216 H1232 0.931 . S
C1217 C1216 1.370 . S
C1217 C1221 1.408 . S
C1218 C1216 1.363 . S
C1218 C1219 1.370 . S
C1218 C1222 1.524 . S
C1219 C1211 1.503 . S
C1219 C1218 1.370 . S
C1219 C1220 1.403 . S
C1220 C1219 1.403 . S
C1220 C1221 1.404 . S
C1220 C1223 1.539 . S
C1221 C1217 1.408 . S
C1221 C1220 1.404 . S
C1221 H1233 0.930 . S
C1222 C1218 1.524 . S
C1222 H1234 0.956 . S
C1222 H1235 0.961 . S
C1222 H1236 0.961 . S
C1223 C1220 1.539 . S
C1223 H1237 0.958 . S
C1223 H1238 0.961 . S
C1223 H1239 0.960 . S
H1224 C1208 0.931 . S
H1225 C1213 0.929 . S
H1226 C1214 0.960 . S
H1227 C1214 0.962 . S
H1228 C1214 0.960 . S
H1229 C1215 0.961 . S
H1230 C1215 0.961 . S
H1231 C1215 0.961 . S
H1232 C1216 0.931 . S
H1233 C1221 0.930 . S
H1234 C1222 0.956 . S
H1235 C1222 0.961 . S
H1236 C1222 0.961 . S
H1237 C1223 0.958 . S
H1238 C1223 0.961 . S
H1239 C1223 0.960 . S
C473 C1 1.201 . S
C481 C319 1.300 . S
C505 C40 1.001 . S
C513 C368 0.968 . S
C545 C394 2.459 . S
C537 C99 2.503 . S
C569 C118 2.368 . S
C577 C442 2.320 . S
C609 C354 2.518 . S
C601 C16 2.395 . S
C641 C322 0.881 . S
C633 C60 0.848 . S
C673 C443 1.909 . S
C665 C79 1.940 . S
C705 C411 1.563 . S
C697 C138 1.582 . S
C729 C21 1.650 . S
C737 C439 1.764 . S
C769 C371 2.345 . S
C761 C94 2.409 . S
C793 C133 2.321 . S
C801 C323 2.320 . S
C825 C55 0.873 . S
C833 C408 0.839 . S
C865 C328 1.307 . S
C857 C157 1.214 . S
C889 C196 0.957 . S
C897 C359 0.993 . S
C921 C255 2.500 . S
C929 C403 2.460 . S
C953 C289 2.369 . S
C961 C451 2.312 . S
C985 C172 2.360 . S
C993 C363 2.517 . S
C1025 C331 0.889 . S
C1017 C216 0.854 . S
C1057 C434 1.908 . S
C1049 C235 1.942 . S
C1089 C402 1.565 . S
C1081 C294 1.588 . S
C1113 C177 1.718 . S
C1121 C448 1.757 . S
C1153 C362 2.338 . S
C1145 C250 2.414 . S
C1185 C314 2.322 . S
C1177 C274 2.328 . S
C1209 C211 0.805 . S
C1217 C399 0.851 . S
