# Generated by pormake.
# Topology ctn, (3,4)-cn, num edge types: 1
# Building blocks:
#     Node 0, Type 0, BuildingBlock: MIDCAF_clean_linker_0, # of connection points: 3
#     Node 1, Type 0, BuildingBlock: MIDCAF_clean_linker_0, # of connection points: 3
#     Node 2, Type 0, BuildingBlock: MIDCAF_clean_linker_0, # of connection points: 3
#     Node 3, Type 0, BuildingBlock: MIDCAF_clean_linker_0, # of connection points: 3
#     Node 4, Type 0, BuildingBlock: MIDCAF_clean_linker_0, # of connection points: 3
#     Node 5, Type 0, BuildingBlock: MIDCAF_clean_linker_0, # of connection points: 3
#     Node 6, Type 0, BuildingBlock: MIDCAF_clean_linker_0, # of connection points: 3
#     Node 7, Type 0, BuildingBlock: MIDCAF_clean_linker_0, # of connection points: 3
#     Node 8, Type 0, BuildingBlock: MIDCAF_clean_linker_0, # of connection points: 3
#     Node 9, Type 0, BuildingBlock: MIDCAF_clean_linker_0, # of connection points: 3
#     Node 10, Type 0, BuildingBlock: MIDCAF_clean_linker_0, # of connection points: 3
#     Node 11, Type 0, BuildingBlock: MIDCAF_clean_linker_0, # of connection points: 3
#     Node 12, Type 0, BuildingBlock: MIDCAF_clean_linker_0, # of connection points: 3
#     Node 13, Type 0, BuildingBlock: MIDCAF_clean_linker_0, # of connection points: 3
#     Node 14, Type 0, BuildingBlock: MIDCAF_clean_linker_0, # of connection points: 3
#     Node 15, Type 0, BuildingBlock: MIDCAF_clean_linker_0, # of connection points: 3
#     Node 16, Type 1, BuildingBlock: KUFVIS_clean_sbu_0, # of connection points: 4
#     Node 17, Type 1, BuildingBlock: KUFVIS_clean_sbu_0, # of connection points: 4
#     Node 18, Type 1, BuildingBlock: KUFVIS_clean_sbu_0, # of connection points: 4
#     Node 19, Type 1, BuildingBlock: KUFVIS_clean_sbu_0, # of connection points: 4
#     Node 20, Type 1, BuildingBlock: KUFVIS_clean_sbu_0, # of connection points: 4
#     Node 21, Type 1, BuildingBlock: KUFVIS_clean_sbu_0, # of connection points: 4
#     Node 22, Type 1, BuildingBlock: KUFVIS_clean_sbu_0, # of connection points: 4
#     Node 23, Type 1, BuildingBlock: KUFVIS_clean_sbu_0, # of connection points: 4
#     Node 24, Type 1, BuildingBlock: KUFVIS_clean_sbu_0, # of connection points: 4
#     Node 25, Type 1, BuildingBlock: KUFVIS_clean_sbu_0, # of connection points: 4
#     Node 26, Type 1, BuildingBlock: KUFVIS_clean_sbu_0, # of connection points: 4
#     Node 27, Type 1, BuildingBlock: KUFVIS_clean_sbu_0, # of connection points: 4
#     Edge 28, Type (0, 1), BuildingBlock: ZUJKAS_clean_linker_0, # of connection points: 2
#     Edge 29, Type (0, 1), BuildingBlock: ZUJKAS_clean_linker_0, # of connection points: 2
#     Edge 30, Type (0, 1), BuildingBlock: ZUJKAS_clean_linker_0, # of connection points: 2
#     Edge 31, Type (0, 1), BuildingBlock: ZUJKAS_clean_linker_0, # of connection points: 2
#     Edge 32, Type (0, 1), BuildingBlock: ZUJKAS_clean_linker_0, # of connection points: 2
#     Edge 33, Type (0, 1), BuildingBlock: ZUJKAS_clean_linker_0, # of connection points: 2
#     Edge 34, Type (0, 1), BuildingBlock: ZUJKAS_clean_linker_0, # of connection points: 2
#     Edge 35, Type (0, 1), BuildingBlock: ZUJKAS_clean_linker_0, # of connection points: 2
#     Edge 36, Type (0, 1), BuildingBlock: ZUJKAS_clean_linker_0, # of connection points: 2
#     Edge 37, Type (0, 1), BuildingBlock: ZUJKAS_clean_linker_0, # of connection points: 2
#     Edge 38, Type (0, 1), BuildingBlock: ZUJKAS_clean_linker_0, # of connection points: 2
#     Edge 39, Type (0, 1), BuildingBlock: ZUJKAS_clean_linker_0, # of connection points: 2
#     Edge 40, Type (0, 1), BuildingBlock: ZUJKAS_clean_linker_0, # of connection points: 2
#     Edge 41, Type (0, 1), BuildingBlock: ZUJKAS_clean_linker_0, # of connection points: 2
#     Edge 42, Type (0, 1), BuildingBlock: ZUJKAS_clean_linker_0, # of connection points: 2
#     Edge 43, Type (0, 1), BuildingBlock: ZUJKAS_clean_linker_0, # of connection points: 2
#     Edge 44, Type (0, 1), BuildingBlock: ZUJKAS_clean_linker_0, # of connection points: 2
#     Edge 45, Type (0, 1), BuildingBlock: ZUJKAS_clean_linker_0, # of connection points: 2
#     Edge 46, Type (0, 1), BuildingBlock: ZUJKAS_clean_linker_0, # of connection points: 2
#     Edge 47, Type (0, 1), BuildingBlock: ZUJKAS_clean_linker_0, # of connection points: 2
#     Edge 48, Type (0, 1), BuildingBlock: ZUJKAS_clean_linker_0, # of connection points: 2
#     Edge 49, Type (0, 1), BuildingBlock: ZUJKAS_clean_linker_0, # of connection points: 2
#     Edge 50, Type (0, 1), BuildingBlock: ZUJKAS_clean_linker_0, # of connection points: 2
#     Edge 51, Type (0, 1), BuildingBlock: ZUJKAS_clean_linker_0, # of connection points: 2
#     Edge 52, Type (0, 1), BuildingBlock: ZUJKAS_clean_linker_0, # of connection points: 2
#     Edge 53, Type (0, 1), BuildingBlock: ZUJKAS_clean_linker_0, # of connection points: 2
#     Edge 54, Type (0, 1), BuildingBlock: ZUJKAS_clean_linker_0, # of connection points: 2
#     Edge 55, Type (0, 1), BuildingBlock: ZUJKAS_clean_linker_0, # of connection points: 2
#     Edge 56, Type (0, 1), BuildingBlock: ZUJKAS_clean_linker_0, # of connection points: 2
#     Edge 57, Type (0, 1), BuildingBlock: ZUJKAS_clean_linker_0, # of connection points: 2
#     Edge 58, Type (0, 1), BuildingBlock: ZUJKAS_clean_linker_0, # of connection points: 2
#     Edge 59, Type (0, 1), BuildingBlock: ZUJKAS_clean_linker_0, # of connection points: 2
#     Edge 60, Type (0, 1), BuildingBlock: ZUJKAS_clean_linker_0, # of connection points: 2
#     Edge 61, Type (0, 1), BuildingBlock: ZUJKAS_clean_linker_0, # of connection points: 2
#     Edge 62, Type (0, 1), BuildingBlock: ZUJKAS_clean_linker_0, # of connection points: 2
#     Edge 63, Type (0, 1), BuildingBlock: ZUJKAS_clean_linker_0, # of connection points: 2
#     Edge 64, Type (0, 1), BuildingBlock: ZUJKAS_clean_linker_0, # of connection points: 2
#     Edge 65, Type (0, 1), BuildingBlock: ZUJKAS_clean_linker_0, # of connection points: 2
#     Edge 66, Type (0, 1), BuildingBlock: ZUJKAS_clean_linker_0, # of connection points: 2
#     Edge 67, Type (0, 1), BuildingBlock: ZUJKAS_clean_linker_0, # of connection points: 2
#     Edge 68, Type (0, 1), BuildingBlock: ZUJKAS_clean_linker_0, # of connection points: 2
#     Edge 69, Type (0, 1), BuildingBlock: ZUJKAS_clean_linker_0, # of connection points: 2
#     Edge 70, Type (0, 1), BuildingBlock: ZUJKAS_clean_linker_0, # of connection points: 2
#     Edge 71, Type (0, 1), BuildingBlock: ZUJKAS_clean_linker_0, # of connection points: 2
#     Edge 72, Type (0, 1), BuildingBlock: ZUJKAS_clean_linker_0, # of connection points: 2
#     Edge 73, Type (0, 1), BuildingBlock: ZUJKAS_clean_linker_0, # of connection points: 2
#     Edge 74, Type (0, 1), BuildingBlock: ZUJKAS_clean_linker_0, # of connection points: 2
#     Edge 75, Type (0, 1), BuildingBlock: ZUJKAS_clean_linker_0, # of connection points: 2
# Relax obj value: 0.012
# Max RMSD: 0.063
# Mean RMSD: 0.028
data_MOF--net-ctn--node1-KUFVIS_clean_sbu_0--node2-MIDCAF_clean_linker_0--edge1-ZUJKAS_clean_linker_0
_symmetry_space_group_name_H-M    P1
_symmetry_Int_Tables_number       1
_symmetry_cell_setting            triclinic
loop_
_symmetry_equiv_pos_as_xyz
'x, y, z'
_cell_length_a     83.064011
_cell_length_b     82.894595
_cell_length_c     83.276251
_cell_angle_alpha  90.911797
_cell_angle_beta   90.254747
_cell_angle_gamma 91.48095
loop_
_atom_site_label
_atom_site_type_symbol
_atom_site_fract_x
_atom_site_fract_y
_atom_site_fract_z
_atom_type_partial_charge
C0 C 0.00295 0.04653 0.09062 0.0
C1 C 0.0067 0.03425 0.10138 0.0
C2 C 0.02057 0.02525 0.09857 0.0
C3 C 0.03033 0.02834 0.08527 0.0
H4 H 0.06821 0.01009 0.06049 0.0
H5 H 0.09062 0.9926 0.05473 0.0
H6 H 0.10177 0.02005 0.01237 0.0
H7 H 0.07955 0.03776 0.01823 0.0
H8 H 0.0531 0.0633 0.00622 0.0
H9 H 0.04755 0.0859 0.98873 0.0
H10 H 0.02006 0.10822 0.02649 0.0
H11 H 0.02546 0.08561 0.044 0.0
H12 H 0.00938 0.05912 0.06926 0.0
H13 H 0.99226 0.05356 0.09228 0.0
H14 H 0.02399 0.01588 0.10673 0.0
H15 H 0.04088 0.02112 0.08353 0.0
N16 N 0.04914 0.03373 0.05664 0.0
N17 N 0.05529 0.04881 0.03379 0.0
N18 N 0.03384 0.05618 0.05038 0.0
C19 C 0.05847 0.03624 0.0435 0.0
C20 C 0.04303 0.05886 0.03716 0.0
C21 C 0.03679 0.04361 0.06017 0.0
C22 C 0.07202 0.02541 0.03985 0.0
C23 C 0.07541 0.01244 0.04993 0.0
C24 C 0.08823 0.00232 0.04658 0.0
C25 C 0.09802 0.00491 0.03309 0.0
C26 C 0.09462 0.01784 0.02299 0.0
C27 C 0.08179 0.02795 0.02632 0.0
C28 C 0.03972 0.07261 0.02653 0.0
C29 C 0.04589 0.07302 0.01083 0.0
C30 C 0.04265 0.08592 1.00077 0.0
C31 C 0.03339 0.09881 0.00626 0.0
C32 C 0.02734 0.0985 0.02199 0.0
C33 C 0.03036 0.08549 0.03197 0.0
C34 C 0.02653 0.04055 0.07445 0.0
C35 C 0.01275 0.04966 0.07734 0.0
C36 C 0.28768 0.64405 0.20678 0.0
C37 C 0.27337 0.64283 0.19771 0.0
C38 C 0.27082 0.65414 0.18561 0.0
C39 C 0.28217 0.66654 0.18284 0.0
H40 H 0.29054 0.7064 0.1553 0.0
H41 H 0.28547 0.72654 0.1351 0.0
H42 H 0.3302 0.75138 0.14778 0.0
H43 H 0.33516 0.73145 0.16825 0.0
H44 H 0.35425 0.72083 0.19907 0.0
H45 H 0.37621 0.72491 0.21832 0.0
H46 H 0.36285 0.68008 0.24103 0.0
H47 H 0.34107 0.6758 0.2217 0.0
H48 H 0.30983 0.65702 0.21136 0.0
H49 H 0.29015 0.63539 0.21602 0.0
H50 H 0.25985 0.65366 0.17852 0.0
H51 H 0.27967 0.67516 0.17358 0.0
N52 N 0.30568 0.69249 0.17806 0.0
N53 N 0.32921 0.70677 0.18598 0.0
N54 N 0.32121 0.68331 0.19946 0.0
C55 C 0.31618 0.70515 0.17608 0.0
C56 C 0.33183 0.69589 0.19769 0.0
C57 C 0.30811 0.68149 0.18971 0.0
C58 C 0.31327 0.71726 0.16348 0.0
C59 C 0.29934 0.71612 0.1538 0.0
C60 C 0.29646 0.72765 0.14212 0.0
C61 C 0.30743 0.74059 0.13978 0.0
C62 C 0.32139 0.74169 0.14939 0.0
C63 C 0.32427 0.73018 0.16109 0.0
C64 C 0.34577 0.69802 0.20885 0.0
C65 C 0.35603 0.71176 0.20808 0.0
C66 C 0.3686 0.71415 0.21917 0.0
C67 C 0.37126 0.70285 0.23125 0.0
C68 C 0.36126 0.68893 0.23177 0.0
C69 C 0.34867 0.68655 0.22073 0.0
C70 C 0.29635 0.66794 0.19212 0.0
C71 C 0.29902 0.65644 0.20403 0.0
C72 C 0.98835 0.42276 0.01156 0.0
C73 C 0.97941 0.41973 0.99742 0.0
C74 C 0.96701 0.43024 0.9935 0.0
C75 C 0.96357 0.44341 0.00353 0.0
H76 H 0.92888 0.47797 0.01331 0.0
H77 H 0.90641 0.49535 0.0078 0.0
H78 H 0.92512 0.53025 0.04267 0.0
H79 H 0.94725 0.51262 0.0486 0.0
H80 H 0.97346 0.50065 0.07422 0.0
H81 H 0.99061 0.50545 0.09777 0.0
H82 H 0.01737 0.46299 0.0857 0.0
H83 H 1.00054 0.45832 0.06208 0.0
H84 H 0.99217 0.43783 0.03232 0.0
H85 H 0.99811 0.41503 0.01484 0.0
H86 H 0.95977 0.42814 0.98278 0.0
H87 H 0.95389 0.4512 1.00016 0.0
N88 N 0.9566 0.47027 0.02521 0.0
N89 N 0.96293 0.48594 0.04825 0.0
N90 N 0.97822 0.46342 0.04171 0.0
C91 C 0.95349 0.48309 0.03504 0.0
C92 C 0.97532 0.47613 0.05169 0.0
C93 C 0.96899 0.46039 0.02846 0.0
C94 C 0.9399 0.49384 0.03144 0.0
C95 C 0.92822 0.48936 0.01981 0.0
C96 C 0.91534 0.4994 0.01657 0.0
C97 C 0.91386 0.51427 0.02477 0.0
C98 C 0.92564 0.51878 0.03631 0.0
C99 C 0.93843 0.50868 0.03965 0.0
C100 C 0.98559 0.47911 0.06616 0.0
C101 C 0.983 0.49233 0.07656 0.0
C102 C 0.99278 0.49504 0.09014 0.0
C103 C 0.0054 0.48463 0.09362 0.0
C104 C 0.00793 0.4714 0.08326 0.0
C105 C 0.99818 0.46868 0.06972 0.0
C106 C 0.97251 0.44643 0.01771 0.0
C107 C 0.98496 0.43593 0.02155 0.0
C108 C 0.71235 0.78449 0.14591 0.0
C109 C 0.70241 0.77064 0.1438 0.0
C110 C 0.68977 0.76792 0.15468 0.0
C111 C 0.68712 0.77882 0.16736 0.0
H112 H 0.65642 0.7884 0.20531 0.0
H113 H 0.63469 0.78403 0.22443 0.0
H114 H 0.65139 0.82581 0.252 0.0
H115 H 0.67286 0.83043 0.23276 0.0
H116 H 0.70105 0.85236 0.21999 0.0
H117 H 0.72011 0.87482 0.22431 0.0
H118 H 0.74893 0.85754 0.18488 0.0
H119 H 0.72972 0.8353 0.18027 0.0
H120 H 0.71773 0.80585 0.15979 0.0
H121 H 0.72234 0.78685 0.13789 0.0
H122 H 0.68178 0.75746 0.1533 0.0
H123 H 0.67724 0.77635 0.17548 0.0
N124 N 0.68211 0.80192 0.19344 0.0
N125 N 0.69009 0.82541 0.20777 0.0
N126 N 0.70458 0.81728 0.18512 0.0
C127 C 0.67983 0.81246 0.20588 0.0
C128 C 0.70249 0.82792 0.19745 0.0
C129 C 0.69447 0.80426 0.18299 0.0
C130 C 0.66646 0.80978 0.21743 0.0
C131 C 0.65547 0.7967 0.21542 0.0
C132 C 0.64303 0.79412 0.22645 0.0
C133 C 0.64127 0.80456 0.23978 0.0
C134 C 0.65222 0.81766 0.24176 0.0
C135 C 0.66463 0.82025 0.23073 0.0
C136 C 0.71383 0.84192 0.19981 0.0
C137 C 0.7114 0.85336 0.21217 0.0
C138 C 0.72239 0.86622 0.21471 0.0
C139 C 0.7361 0.86798 0.20498 0.0
C140 C 0.7384 0.8567 0.19247 0.0
C141 C 0.7274 0.84385 0.1899 0.0
C142 C 0.69709 0.79268 0.16948 0.0
C143 C 0.70974 0.79536 0.15857 0.0
C144 C 0.03717 0.92408 0.51866 0.0
C145 C 0.02584 0.91197 0.51397 0.0
C146 C 0.01775 0.91351 0.49921 0.0
C147 C 0.02093 0.92677 0.4894 0.0
H148 H 0.00302 0.95126 0.4504 0.0
H149 H 0.98566 0.95703 0.42766 0.0
H150 H 0.01477 0.99954 0.41757 0.0
H151 H 0.03202 0.99398 0.44042 0.0
H152 H 0.06341 1.00138 0.45998 0.0
H153 H 0.08724 0.01835 0.46503 0.0
H154 H 0.09851 0.99025 0.50666 0.0
H155 H 0.07479 0.97299 0.50146 0.0
H156 H 0.04925 0.9463 0.51285 0.0
H157 H 0.04342 0.92351 0.53006 0.0
H158 H 0.00912 0.90433 0.49507 0.0
H159 H 0.01454 0.92747 0.47807 0.0
N160 N 0.02635 0.95587 0.47079 0.0
N161 N 0.04279 0.97825 0.4644 0.0
N162 N 0.04911 0.9625 0.48657 0.0
C163 C 0.02962 0.96865 0.46118 0.0
C164 C 0.05263 0.97527 0.47704 0.0
C165 C 0.03601 0.95273 0.48354 0.0
C166 C 0.01898 0.97213 0.44731 0.0
C167 C 0.00574 0.96186 0.44337 0.0
C168 C 0.99581 0.96512 0.43026 0.0
C169 C 0.99883 0.97874 0.42076 0.0
C170 C 0.01199 0.98905 0.42473 0.0
C171 C 0.02195 0.98578 0.43781 0.0
C172 C 0.0671 0.98577 0.4803 0.0
C173 C 0.07091 0.99877 0.47024 0.0
C174 C 0.08456 0.0086 0.47319 0.0
C175 C 0.09477 0.00572 0.48629 0.0
C176 C 0.091 0.99271 0.49636 0.0
C177 C 0.07732 0.98287 0.49342 0.0
C178 C 0.03239 0.93876 0.49403 0.0
C179 C 0.04045 0.93724 0.5088 0.0
C180 C 0.21595 0.72529 0.86338 0.0
C181 C 0.20289 0.73489 0.86777 0.0
C182 C 0.18826 0.73272 0.85933 0.0
C183 C 0.18689 0.72169 0.84651 0.0
H184 H 0.16552 0.71891 0.80168 0.0
H185 H 0.14477 0.72351 0.7817 0.0
H186 H 0.15609 0.67874 0.75763 0.0
H187 H 0.17692 0.67399 0.7777 0.0
H188 H 0.20933 0.6566 0.78819 0.0
H189 H 0.22901 0.63568 0.78416 0.0
H190 H 0.25474 0.65246 0.82667 0.0
H191 H 0.23491 0.67316 0.83095 0.0
H192 H 0.2249 0.70714 0.84742 0.0
H193 H 0.22747 0.72675 0.86943 0.0
H194 H 0.17783 0.73961 0.86256 0.0
H195 H 0.1755 0.72053 0.84017 0.0
N196 N 0.18691 0.7032 0.81672 0.0
N197 N 0.19655 0.68156 0.80141 0.0
N198 N 0.20958 0.68948 0.82545 0.0
C199 C 0.18572 0.69343 0.8035 0.0
C200 C 0.20853 0.67949 0.81235 0.0
C201 C 0.19876 0.70131 0.82776 0.0
C202 C 0.17294 0.69606 0.79134 0.0
C203 C 0.16362 0.70999 0.79217 0.0
C204 C 0.15178 0.71271 0.78064 0.0
C205 C 0.14884 0.70153 0.76805 0.0
C206 C 0.15802 0.68753 0.76726 0.0
C207 C 0.17 0.68486 0.77873 0.0
C208 C 0.22048 0.66664 0.8099 0.0
C209 C 0.21916 0.65585 0.79672 0.0
C210 C 0.23051 0.64388 0.79434 0.0
C211 C 0.2435 0.64239 0.80506 0.0
C212 C 0.24478 0.65312 0.81829 0.0
C213 C 0.23342 0.66507 0.82068 0.0
C214 C 0.20005 0.71237 0.84191 0.0
C215 C 0.21451 0.71409 0.85067 0.0
C216 C 0.99503 0.59152 0.49141 0.0
C217 C 0.984 0.59637 0.50318 0.0
C218 C 0.97026 0.58655 0.5059 0.0
C219 C 0.96762 0.57221 0.49713 0.0
H220 H 0.93569 0.53431 0.49205 0.0
H221 H 0.91242 0.51716 0.49814 0.0
H222 H 0.9301 0.48018 0.46611 0.0
H223 H 0.95318 0.49753 0.45963 0.0
H224 H 0.981 0.50758 0.43487 0.0
H225 H 0.99816 0.50142 0.41202 0.0
H226 H 0.02732 0.5442 0.42259 0.0
H227 H 0.01008 0.55056 0.44519 0.0
H228 H 1.00112 0.57384 0.47359 0.0
H229 H 0.00567 0.59888 0.48895 0.0
H230 H 0.96164 0.58979 0.51505 0.0
H231 H 0.95692 0.56497 0.49965 0.0
N232 N 0.9631 0.54207 0.47966 0.0
N233 N 0.97049 0.52403 0.45917 0.0
N234 N 0.9858 0.54782 0.46395 0.0
C235 C 0.96036 0.52804 0.4713 0.0
C236 C 0.98324 0.53386 0.4554 0.0
C237 C 0.9758 0.55202 0.47611 0.0
C238 C 0.94634 0.51737 0.47529 0.0
C239 C 0.93467 0.52252 0.4863 0.0
C240 C 0.92133 0.51261 0.48989 0.0
C241 C 0.91933 0.49725 0.48264 0.0
C242 C 0.93109 0.49203 0.47175 0.0
C243 C 0.9444 0.50197 0.46809 0.0
C244 C 0.99405 0.52964 0.44187 0.0
C245 C 0.99109 0.51567 0.43237 0.0
C246 C 1.00099 0.51207 0.4193 0.0
C247 C 0.01406 0.52236 0.4154 0.0
C248 C 0.01718 0.53616 0.42507 0.0
C249 C 0.00732 0.53976 0.43812 0.0
C250 C 0.97864 0.56732 0.48535 0.0
C251 C 0.99237 0.57719 0.48257 0.0
C252 C 0.86695 0.80564 0.7844 0.0
C253 C 0.868 0.81548 0.77083 0.0
C254 C 0.85685 0.82781 0.76908 0.0
C255 C 0.84472 0.83002 0.78047 0.0
H256 H 0.80562 0.8575 0.79081 0.0
H257 H 0.7849 0.87706 0.78609 0.0
H258 H 0.75794 0.8587 0.82641 0.0
H259 H 0.77887 0.83933 0.83142 0.0
H260 H 0.79627 0.81437 0.85485 0.0
H261 H 0.79402 0.79562 0.877 0.0
H262 H 0.83219 0.76754 0.85657 0.0
H263 H 0.83479 0.7865 0.83473 0.0
H264 H 0.8544 0.79992 0.80599 0.0
H265 H 0.87549 0.79619 0.78624 0.0
H266 H 0.85724 0.83551 0.75869 0.0
H267 H 0.8362 0.83949 0.77859 0.0
N268 N 0.81888 0.83311 0.80361 0.0
N269 N 0.80562 0.82456 0.82693 0.0
N270 N 0.8291 0.81188 0.81848 0.0
C271 C 0.80653 0.83459 0.81416 0.0
C272 C 0.81688 0.81317 0.82919 0.0
C273 C 0.83024 0.8218 0.80569 0.0
C274 C 0.79396 0.84675 0.8115 0.0
C275 C 0.79531 0.85761 0.79872 0.0
C276 C 0.78334 0.8688 0.79593 0.0
C277 C 0.76967 0.86943 0.8058 0.0
C278 C 0.76838 0.85869 0.81867 0.0
C279 C 0.78038 0.8475 0.82149 0.0
C280 C 0.81568 0.80197 0.84293 0.0
C281 C 0.80423 0.80424 0.8551 0.0
C282 C 0.80289 0.79342 0.86779 0.0
C283 C 0.81289 0.78 0.86859 0.0
C284 C 0.82445 0.77785 0.85651 0.0
C285 C 0.82586 0.78871 0.84389 0.0
C286 C 0.84348 0.81996 0.79389 0.0
C287 C 0.85487 0.80786 0.79578 0.0
C288 C 0.36545 0.30029 0.28267 0.0
C289 C 0.367 0.31053 0.26945 0.0
C290 C 0.35641 0.3234 0.26806 0.0
C291 C 0.34427 0.3257 0.27941 0.0
H292 H 0.30428 0.35242 0.2885 0.0
H293 H 0.28358 0.37198 0.28363 0.0
H294 H 0.25666 0.35407 0.32417 0.0
H295 H 0.27753 0.33468 0.32931 0.0
H296 H 0.29031 0.30518 0.34859 0.0
H297 H 0.28722 0.28575 0.37006 0.0
H298 H 0.33326 0.26588 0.35804 0.0
H299 H 0.33651 0.28541 0.33668 0.0
H300 H 0.35248 0.29435 0.30396 0.0
H301 H 0.37357 0.29041 0.28422 0.0
H302 H 0.35721 0.33143 0.25794 0.0
H303 H 0.33615 0.33556 0.2778 0.0
N304 N 0.31777 0.32838 0.30184 0.0
N305 N 0.30397 0.31958 0.32475 0.0
N306 N 0.32771 0.30707 0.31681 0.0
C307 C 0.30517 0.32974 0.31211 0.0
C308 C 0.31522 0.30823 0.32722 0.0
C309 C 0.3291 0.31708 0.3041 0.0
C310 C 0.29263 0.34189 0.3093 0.0
C311 C 0.29399 0.35263 0.29643 0.0
C312 C 0.28204 0.36381 0.29355 0.0
C313 C 0.26839 0.36457 0.30345 0.0
C314 C 0.26708 0.35395 0.31641 0.0
C315 C 0.27905 0.34275 0.3193 0.0
C316 C 0.31363 0.29686 0.34079 0.0
C317 C 0.29984 0.29676 0.35054 0.0
C318 C 0.29802 0.28555 0.36282 0.0
C319 C 0.30996 0.27421 0.36572 0.0
C320 C 0.3239 0.27454 0.35623 0.0
C321 C 0.3257 0.2857 0.34389 0.0
C322 C 0.34248 0.31523 0.29247 0.0
C323 C 0.35338 0.30262 0.29405 0.0
C324 C 0.491 0.92408 0.50969 0.0
C325 C 0.48199 0.92096 0.49561 0.0
C326 C 0.46935 0.93126 0.49186 0.0
C327 C 0.46567 0.94422 0.50208 0.0
H328 H 0.43672 0.98451 0.50672 0.0
H329 H 0.4144 0.00204 0.50104 0.0
H330 H 0.41737 0.02147 0.54946 0.0
H331 H 0.44 0.00436 0.55497 0.0
H332 H 0.47013 0.99621 0.57688 0.0
H333 H 0.48621 1.00026 0.60124 0.0
H334 H 0.51944 0.96459 0.58433 0.0
H335 H 0.50322 0.96022 0.56024 0.0
H336 H 0.49457 0.93895 0.53064 0.0
H337 H 0.50096 0.91654 0.51282 0.0
H338 H 0.46206 0.92911 0.48119 0.0
H339 H 0.45574 0.95178 0.4989 0.0
N340 N 0.45792 0.97036 0.52433 0.0
N341 N 0.4629 0.98478 0.54842 0.0
N342 N 0.47922 0.96325 0.54113 0.0
C343 C 0.45403 0.98245 0.53476 0.0
C344 C 0.47555 0.97525 0.55168 0.0
C345 C 0.47049 0.96067 0.52746 0.0
C346 C 0.44024 0.993 0.53131 0.0
C347 C 0.43263 0.99252 0.51617 0.0
C348 C 0.41973 0.00254 0.51293 0.0
C349 C 0.41401 0.01323 0.52477 0.0
C350 C 0.42159 0.01363 0.53993 0.0
C351 C 0.43455 0.00371 0.54313 0.0
C352 C 0.48532 0.97786 0.56655 0.0
C353 C 0.48085 0.9892 0.57835 0.0
C354 C 0.49013 0.99159 0.5923 0.0
C355 C 0.50414 0.98275 0.59479 0.0
C356 C 0.5086 0.97143 0.58297 0.0
C357 C 0.49931 0.969 0.56907 0.0
C358 C 0.47458 0.94722 0.51628 0.0
C359 C 0.48736 0.93703 0.51987 0.0
C360 C 0.21106 0.28515 0.64612 0.0
C361 C 0.2016 0.27091 0.64449 0.0
C362 C 0.18921 0.26802 0.65562 0.0
C363 C 0.18637 0.27909 0.6681 0.0
H364 H 0.15609 0.28822 0.70644 0.0
H365 H 0.13483 0.28346 0.726 0.0
H366 H 0.15043 0.32633 0.75248 0.0
H367 H 0.17144 0.33131 0.73283 0.0
H368 H 0.20113 0.35171 0.72164 0.0
H369 H 0.2203 0.37411 0.72595 0.0
H370 H 0.24546 0.36042 0.68275 0.0
H371 H 0.22619 0.33818 0.67825 0.0
H372 H 0.21589 0.30697 0.65947 0.0
H373 H 0.22084 0.28767 0.6379 0.0
H374 H 0.18158 0.25725 0.6546 0.0
H375 H 0.17673 0.27644 0.67644 0.0
N376 N 0.18101 0.30247 0.69382 0.0
N377 N 0.18873 0.32617 0.70792 0.0
N378 N 0.20305 0.31822 0.68508 0.0
C379 C 0.17869 0.31303 0.70623 0.0
C380 C 0.20093 0.32888 0.6974 0.0
C381 C 0.19317 0.30499 0.68317 0.0
C382 C 0.16555 0.31015 0.718 0.0
C383 C 0.15499 0.29667 0.7164 0.0
C384 C 0.14283 0.29388 0.72768 0.0
C385 C 0.14091 0.3045 0.74084 0.0
C386 C 0.1514 0.31802 0.74239 0.0
C387 C 0.16355 0.32082 0.73112 0.0
C388 C 0.21213 0.34302 0.69964 0.0
C389 C 0.21067 0.3535 0.71298 0.0
C390 C 0.22171 0.36633 0.7155 0.0
C391 C 0.23445 0.36902 0.70473 0.0
C392 C 0.23568 0.3588 0.69119 0.0
C393 C 0.22467 0.34595 0.68868 0.0
C394 C 0.1959 0.29331 0.66977 0.0
C395 C 0.20826 0.29619 0.65859 0.0
C396 C 0.78905 0.14166 0.70824 0.0
C397 C 0.77509 0.14001 0.69871 0.0
C398 C 0.77292 0.15081 0.68607 0.0
C399 C 0.78426 0.16323 0.6833 0.0
H400 H 0.79252 0.2037 0.65588 0.0
H401 H 0.7869 0.22473 0.63672 0.0
H402 H 0.8286 0.25225 0.65377 0.0
H403 H 0.83446 0.23112 0.67268 0.0
H404 H 0.8561 0.21785 0.69977 0.0
H405 H 0.87825 0.22186 0.71879 0.0
H406 H 0.86476 0.17725 0.74186 0.0
H407 H 0.84278 0.17303 0.72272 0.0
H408 H 0.81091 0.15499 0.71319 0.0
H409 H 0.79119 0.13341 0.71793 0.0
H410 H 0.76222 0.14996 0.6786 0.0
H411 H 0.78203 0.17149 0.67364 0.0
N412 N 0.80693 0.19015 0.67954 0.0
N413 N 0.83045 0.20442 0.68752 0.0
N414 N 0.82297 0.18043 0.70033 0.0
C415 C 0.81727 0.203 0.67783 0.0
C416 C 0.83343 0.19317 0.69878 0.0
C417 C 0.80971 0.17878 0.69076 0.0
C418 C 0.81395 0.21565 0.66589 0.0
C419 C 0.80054 0.2142 0.65554 0.0
C420 C 0.79724 0.22632 0.64459 0.0
C421 C 0.80726 0.24022 0.64372 0.0
C422 C 0.82074 0.24162 0.65397 0.0
C423 C 0.82405 0.2295 0.66489 0.0
C424 C 0.84753 0.19516 0.70974 0.0
C425 C 0.8579 0.2088 0.7088 0.0
C426 C 0.87058 0.21116 0.71975 0.0
C427 C 0.87323 0.19992 0.73189 0.0
C428 C 0.86317 0.18605 0.73255 0.0
C429 C 0.85047 0.1837 0.72162 0.0
C430 C 0.79807 0.1651 0.69308 0.0
C431 C 0.8004 0.15402 0.70545 0.0
C432 C 0.50174 0.54581 0.58766 0.0
C433 C 0.50572 0.53388 0.59872 0.0
C434 C 0.51987 0.52523 0.59625 0.0
C435 C 0.52971 0.52833 0.58303 0.0
H436 H 0.56855 0.51098 0.55929 0.0
H437 H 0.59117 0.49367 0.55394 0.0
H438 H 0.60222 0.52049 0.51116 0.0
H439 H 0.57977 0.53806 0.51663 0.0
H440 H 0.55735 0.56654 0.5065 0.0
H441 H 0.55158 0.58885 0.48889 0.0
H442 H 0.51459 0.60457 0.52145 0.0
H443 H 0.52003 0.58207 0.53886 0.0
H444 H 0.50811 0.55817 0.56615 0.0
H445 H 0.49084 0.55257 0.58905 0.0
H446 H 0.52347 0.51614 0.60465 0.0
H447 H 0.54051 0.52141 0.58158 0.0
N448 N 0.54886 0.53387 0.55464 0.0
N449 N 0.5552 0.54904 0.5319 0.0
N450 N 0.53311 0.55583 0.54787 0.0
C451 C 0.55845 0.53657 0.54172 0.0
C452 C 0.54257 0.55875 0.53489 0.0
C453 C 0.53616 0.54341 0.55781 0.0
C454 C 0.57227 0.52598 0.53841 0.0
C455 C 0.57578 0.51324 0.54873 0.0
C456 C 0.58872 0.50322 0.54562 0.0
C457 C 0.59852 0.50565 0.53211 0.0
C458 C 0.59506 0.5184 0.52179 0.0
C459 C 0.5821 0.52843 0.5249 0.0
C460 C 0.53915 0.57242 0.52414 0.0
C461 C 0.54797 0.57473 0.50993 0.0
C462 C 0.54472 0.58761 0.49984 0.0
C463 C 0.53261 0.59855 0.50372 0.0
C464 C 0.52383 0.59626 0.51794 0.0
C465 C 0.52703 0.58336 0.52799 0.0
C466 C 0.52572 0.54023 0.57193 0.0
C467 C 0.51163 0.54897 0.57445 0.0
C468 C 0.5379 0.4271 0.01695 0.0
C469 C 0.52499 0.41633 0.01337 0.0
C470 C 0.5158 0.41877 0.99944 0.0
C471 C 0.51947 0.43165 0.9893 0.0
H472 H 0.50058 0.45911 0.95243 0.0
H473 H 0.48298 0.46576 0.93016 0.0
H474 H 0.51939 0.49906 0.91248 0.0
H475 H 0.53679 0.49279 0.93493 0.0
H476 H 0.56782 0.50026 0.95502 0.0
H477 H 0.59263 0.51597 0.95925 0.0
H478 H 0.60157 0.49029 0.00298 0.0
H479 H 0.57657 0.47463 0.99892 0.0
H480 H 0.55177 0.44785 0.0099 0.0
H481 H 0.54534 0.42546 0.02748 0.0
H482 H 0.50568 0.41076 0.99643 0.0
H483 H 0.51215 0.43311 0.97866 0.0
N484 N 0.52694 0.45932 0.96933 0.0
N485 N 0.5449 0.48005 0.96165 0.0
N486 N 0.55066 0.46453 0.98413 0.0
C487 C 0.53091 0.47148 0.95919 0.0
C488 C 0.55485 0.47668 0.97409 0.0
C489 C 0.53676 0.45576 0.98184 0.0
C490 C 0.52015 0.4754 0.94555 0.0
C491 C 0.50485 0.46787 0.94382 0.0
C492 C 0.49477 0.47163 0.93097 0.0
C493 C 0.49973 0.48297 0.91948 0.0
C494 C 0.51503 0.49048 0.92122 0.0
C495 C 0.52508 0.48678 0.93409 0.0
C496 C 0.57012 0.48614 0.97663 0.0
C497 C 0.57504 0.4979 0.96555 0.0
C498 C 0.58936 0.50685 0.96791 0.0
C499 C 0.59914 0.50433 0.98142 0.0
C500 C 0.59425 0.49261 0.99251 0.0
C501 C 0.57994 0.48358 0.99013 0.0
C502 C 0.53251 0.44232 0.99279 0.0
C503 C 0.54164 0.4399 0.00678 0.0
C504 C 0.71701 0.22717 0.36362 0.0
C505 C 0.70633 0.23993 0.36561 0.0
C506 C 0.69376 0.24145 0.35443 0.0
C507 C 0.692 0.23059 0.34149 0.0
H508 H 0.66326 0.21979 0.30312 0.0
H509 H 0.64187 0.22373 0.2837 0.0
H510 H 0.66014 0.18522 0.25398 0.0
H511 H 0.6818 0.18136 0.27333 0.0
H512 H 0.71147 0.16129 0.28634 0.0
H513 H 0.73109 0.14019 0.28273 0.0
H514 H 0.75633 0.15714 0.32547 0.0
H515 H 0.73661 0.17799 0.32931 0.0
H516 H 0.72376 0.20666 0.34955 0.0
H517 H 0.7267 0.2255 0.37214 0.0
H518 H 0.68543 0.25125 0.3555 0.0
H519 H 0.68224 0.23226 0.33306 0.0
N520 N 0.68906 0.20823 0.31459 0.0
N521 N 0.69835 0.18618 0.29961 0.0
N522 N 0.7118 0.19462 0.32324 0.0
C523 C 0.68755 0.19811 0.30164 0.0
C524 C 0.71052 0.18435 0.31038 0.0
C525 C 0.70113 0.2066 0.32544 0.0
C526 C 0.67433 0.20025 0.28984 0.0
C527 C 0.66277 0.21211 0.29248 0.0
C528 C 0.65041 0.21433 0.28137 0.0
C529 C 0.64926 0.20478 0.2673 0.0
C530 C 0.66078 0.1929 0.26463 0.0
C531 C 0.67315 0.19063 0.27578 0.0
C532 C 0.7224 0.1714 0.30812 0.0
C533 C 0.72118 0.16052 0.295 0.0
C534 C 0.73249 0.14846 0.29287 0.0
C535 C 0.74531 0.14696 0.3038 0.0
C536 C 0.74649 0.15779 0.31694 0.0
C537 C 0.7352 0.16984 0.31908 0.0
C538 C 0.70278 0.21791 0.3394 0.0
C539 C 0.71526 0.2163 0.35069 0.0
C540 C 0.49917 0.08765 0.99684 0.0
C541 C 0.49063 0.09074 0.01104 0.0
C542 C 0.47894 0.07936 0.01605 0.0
C543 C 0.47582 0.06525 0.00707 0.0
H544 H 0.44247 0.02872 0.00211 0.0
H545 H 0.41916 0.01182 0.00885 0.0
H546 H 0.43145 0.97799 0.97118 0.0
H547 H 0.45493 0.99474 0.9645 0.0
H548 H 0.48228 0.00476 0.93964 0.0
H549 H 0.49885 0.9983 0.91643 0.0
H550 H 0.53109 0.0384 0.92849 0.0
H551 H 0.51472 0.04481 0.95178 0.0
H552 H 0.50293 0.07147 0.97699 0.0
H553 H 0.50833 0.09613 0.99273 0.0
H554 H 0.472 0.08148 0.02683 0.0
H555 H 0.46667 0.05682 0.01131 0.0
N556 N 0.46817 0.0373 0.98713 0.0
N557 N 0.47414 0.01983 0.96569 0.0
N558 N 0.49017 0.04315 0.9705 0.0
C559 C 0.4647 0.02363 0.97843 0.0
C560 C 0.48692 0.02951 0.96165 0.0
C561 C 0.48086 0.04713 0.98328 0.0
C562 C 0.45063 0.01315 0.98271 0.0
C563 C 0.44029 0.01766 0.99526 0.0
C564 C 0.42684 0.00801 0.9991 0.0
C565 C 0.42343 0.99357 0.99055 0.0
C566 C 0.43385 0.98895 0.97813 0.0
C567 C 0.44727 0.99863 0.97424 0.0
C568 C 0.49711 0.02534 0.94763 0.0
C569 C 0.49293 0.01219 0.93741 0.0
C570 C 0.50239 0.0085 0.92404 0.0
C571 C 0.5163 0.01781 0.92062 0.0
C572 C 0.52057 0.03085 0.93091 0.0
C573 C 0.51109 0.03459 0.94422 0.0
C574 C 0.48436 0.0621 0.99285 0.0
C575 C 0.49612 0.07346 0.98787 0.0
Mn576 Mn 0.25267 0.87486 0.00402 0.0
Mn577 Mn 0.25266 0.89233 0.96768 0.0
C578 C 0.24005 0.8619 0.9823 0.0
C579 C 0.26415 0.85861 0.02341 0.0
C580 C 0.23051 0.9023 0.99463 0.0
O581 O 0.27077 0.89186 0.00635 0.0
O582 O 0.26972 0.90234 0.98162 0.0
C583 C 0.28443 0.88147 0.95642 0.0
N584 N 0.26823 0.88243 0.95419 0.0
C585 C 0.26987 0.8702 0.92789 0.0
C586 C 0.28658 0.86911 0.92986 0.0
C587 C 0.29387 0.87467 0.94424 0.0
C588 C 0.26105 0.87685 0.94054 0.0
H589 H 0.2901 0.88592 0.96736 0.0
C590 C 0.27586 0.90165 0.99572 0.0
O591 O 0.25399 0.86966 0.02721 0.0
O592 O 0.26795 0.85726 0.00835 0.0
N593 N 0.237 0.88384 0.95271 0.0
C594 C 0.22067 0.88501 0.95307 0.0
C595 C 0.21149 0.87961 0.93975 0.0
C596 C 0.21921 0.87342 0.92609 0.0
C597 C 0.23604 0.87242 0.92598 0.0
C598 C 0.24452 0.87773 0.9397 0.0
H599 H 0.21472 0.89008 0.96342 0.0
O600 O 0.23602 0.85844 0.9969 0.0
O601 O 0.25145 0.87283 0.98077 0.0
O602 O 0.23566 0.89236 0.00487 0.0
O603 O 0.23604 0.90326 0.9804 0.0
C604 C 0.24474 0.86638 0.9128 0.0
C605 C 0.26161 0.86504 0.91384 0.0
H606 H 0.29392 0.86402 0.92044 0.0
H607 H 0.30675 0.87386 0.94587 0.0
H608 H 0.19851 0.88041 0.93993 0.0
H609 H 0.21209 0.86943 0.91578 0.0
H610 H 0.23855 0.86249 0.90188 0.0
H611 H 0.26811 0.86005 0.90375 0.0
Mn612 Mn 0.13728 0.50372 0.2519 0.0
Mn613 Mn 0.12372 0.54178 0.25178 0.0
C614 C 0.15201 0.52402 0.23939 0.0
C615 C 0.15194 0.48331 0.26373 0.0
C616 C 0.11027 0.51507 0.22987 0.0
O617 O 0.12043 0.50335 0.26969 0.0
O618 O 0.11321 0.52933 0.26921 0.0
C619 C 0.13729 0.55318 0.28301 0.0
N620 N 0.13583 0.55487 0.26683 0.0
C621 C 0.15196 0.5794 0.26756 0.0
C622 C 0.15358 0.57797 0.28424 0.0
C623 C 0.14628 0.56476 0.29198 0.0
C624 C 0.14295 0.56743 0.25924 0.0
H625 H 0.13162 0.5431 0.28902 0.0
C626 C 0.11236 0.51515 0.27511 0.0
O627 O 0.14041 0.48003 0.25352 0.0
O628 O 0.15458 0.49842 0.26743 0.0
N629 N 0.133 0.55532 0.23569 0.0
C630 C 0.13092 0.5545 0.21946 0.0
C631 C 0.1379 0.56656 0.20987 0.0
C632 C 0.14668 0.57947 0.21709 0.0
C633 C 0.14846 0.58016 0.23384 0.0
C634 C 0.14136 0.56773 0.24276 0.0
H635 H 0.12405 0.54469 0.21386 0.0
O636 O 0.15404 0.50901 0.23547 0.0
O637 O 0.14151 0.52672 0.25058 0.0
O638 O 0.11953 0.50407 0.23469 0.0
O639 O 0.11072 0.52944 0.23565 0.0
C640 C 0.15706 0.59266 0.24203 0.0
C641 C 0.15896 0.5922 0.25886 0.0
H642 H 0.16046 0.5869 0.29121 0.0
H643 H 0.14751 0.56355 0.30485 0.0
H644 H 0.13646 0.56594 0.19695 0.0
H645 H 0.15204 0.58875 0.20966 0.0
H646 H 0.16243 0.6026 0.23547 0.0
H647 H 0.16587 0.60172 0.26497 0.0
Mn648 Mn 0.7558 0.63285 0.99975 0.0
Mn649 Mn 0.72464 0.64893 0.97992 0.0
C650 C 0.73095 0.61917 0.99863 0.0
C651 C 0.77906 0.61753 1.00044 0.0
C652 C 0.73564 0.66038 0.01308 0.0
O653 O 0.76689 0.65025 0.98617 0.0
O654 O 0.7453 0.65849 0.97243 0.0
C655 C 0.7314 0.63591 0.9474 0.0
N656 N 0.72108 0.63791 0.95988 0.0
C657 C 0.69907 0.6259 0.94469 0.0
C658 C 0.70942 0.62378 0.93161 0.0
C659 C 0.7257 0.62868 0.93303 0.0
C660 C 0.70553 0.63283 0.95881 0.0
H661 H 0.74386 0.63988 0.94839 0.0
C662 C 0.76042 0.65881 0.9754 0.0
O663 O 0.77629 0.62859 0.0112 0.0
O664 O 0.76844 0.61555 0.98903 0.0
N665 N 0.7037 0.64093 0.98561 0.0
C666 C 0.69555 0.6431 0.99961 0.0
C667 C 0.67917 0.63859 1.00034 0.0
C668 C 0.67126 0.63231 0.98657 0.0
C669 C 0.67991 0.6302 0.9723 0.0
C670 C 0.69627 0.63463 0.97238 0.0
H671 H 0.70147 0.64838 0.01007 0.0
O672 O 0.74143 0.61606 0.00969 0.0
O673 O 0.73542 0.62996 0.98826 0.0
O674 O 0.74677 0.65022 0.0147 0.0
O675 O 0.72695 0.66111 1.00045 0.0
C676 C 0.67294 0.62397 0.95795 0.0
C677 C 0.68257 0.62155 0.94425 0.0
H678 H 0.70502 0.6184 0.92044 0.0
H679 H 0.73379 0.62705 0.92301 0.0
H680 H 0.67258 0.64023 0.0114 0.0
H681 H 0.65855 0.62909 0.98712 0.0
H682 H 0.66023 0.62074 0.95741 0.0
H683 H 0.67714 0.61638 0.93342 0.0
Mn684 Mn 0.87607 0.00567 0.25741 0.0
Mn685 Mn 0.88935 0.96764 0.25386 0.0
C686 C 0.86084 0.986 0.2437 0.0
C687 C 0.86172 0.02574 0.27061 0.0
C688 C 0.90252 0.99537 0.23413 0.0
O689 O 0.89321 0.00498 0.27508 0.0
O690 O 0.90036 0.97905 0.27215 0.0
C691 C 0.87652 0.95451 0.28424 0.0
N692 N 0.87751 0.95379 0.26792 0.0
C693 C 0.86099 0.92952 0.26673 0.0
C694 C 0.85984 0.92996 0.28353 0.0
C695 C 0.86759 0.94255 0.29231 0.0
C696 C 0.86997 0.94182 0.25935 0.0
H697 H 0.88251 0.96412 0.29104 0.0
C698 C 0.90135 0.99285 0.27932 0.0
O699 O 0.87326 0.02925 0.26069 0.0
O700 O 0.85899 0.01056 0.2734 0.0
N701 N 0.87947 0.95518 0.23678 0.0
C702 C 0.881 0.95702 0.22062 0.0
C703 C 0.87352 0.94571 0.2101 0.0
C704 C 0.86475 0.93251 0.2163 0.0
C705 C 0.86348 0.93079 0.23297 0.0
C706 C 0.87109 0.94251 0.24286 0.0
H707 H 0.88782 0.96707 0.2158 0.0
O708 O 0.85892 1.00116 0.24081 0.0
O709 O 0.87165 0.98281 0.25442 0.0
O710 O 0.89347 0.00608 0.24008 0.0
O711 O 0.90209 0.9807 0.23858 0.0
C712 C 0.85488 0.91798 0.24016 0.0
C713 C 0.8535 0.91742 0.25702 0.0
H714 H 0.853 0.92074 0.2898 0.0
H715 H 0.86672 0.943 0.30527 0.0
H716 H 0.87455 0.94713 0.19725 0.0
H717 H 0.85899 0.92381 0.20815 0.0
H718 H 0.84906 0.90861 0.23281 0.0
H719 H 0.84656 0.90767 0.26239 0.0
Mn720 Mn 0.25503 0.13079 0.50229 0.0
Mn721 Mn 0.22213 0.14499 0.48379 0.0
C722 C 0.2307 0.11626 0.50289 0.0
C723 C 0.27878 0.11621 0.50201 0.0
C724 C 0.23469 0.15811 0.51583 0.0
O725 O 0.2646 0.14797 0.48743 0.0
O726 O 0.24193 0.15502 0.47472 0.0
C727 C 0.22719 0.13134 0.4512 0.0
N728 N 0.21779 0.13296 0.46445 0.0
C729 C 0.1955 0.11907 0.4513 0.0
C730 C 0.20493 0.11726 0.4375 0.0
C731 C 0.2209 0.12328 0.43751 0.0
C732 C 0.2026 0.12674 0.46476 0.0
H733 H 0.23935 0.13629 0.45105 0.0
C734 C 0.25721 0.15594 0.47679 0.0
O735 O 0.2764 0.1276 0.51254 0.0
O736 O 0.2675 0.11351 0.49139 0.0
N737 N 0.20195 0.13636 0.49115 0.0
C738 C 0.1944 0.1393 0.50535 0.0
C739 C 0.17846 0.13368 0.50746 0.0
C740 C 0.17028 0.12563 0.49477 0.0
C741 C 0.17814 0.1232 0.4801 0.0
C742 C 0.19418 0.12862 0.47886 0.0
H743 H 0.20047 0.14587 0.515 0.0
O744 O 0.24182 0.11383 0.51351 0.0
O745 O 0.23422 0.12689 0.49208 0.0
O746 O 0.24626 0.1484 0.51718 0.0
O747 O 0.22527 0.15806 0.50367 0.0
C748 C 0.17056 0.11597 0.46653 0.0
C749 C 0.17926 0.11385 0.45216 0.0
H750 H 0.20002 0.11132 0.42681 0.0
H751 H 0.22826 0.12194 0.4269 0.0
H752 H 0.17242 0.13578 0.51876 0.0
H753 H 0.1579 0.12155 0.49636 0.0
H754 H 0.15811 0.11181 0.46707 0.0
H755 H 0.17337 0.10807 0.44188 0.0
Mn756 Mn 0.37671 0.50334 0.75606 0.0
Mn757 Mn 0.39349 0.46671 0.7544 0.0
C758 C 0.36339 0.48187 0.74309 0.0
C759 C 0.36077 0.52282 0.76823 0.0
C760 C 0.4038 0.49412 0.7329 0.0
O761 O 0.39366 0.50517 0.77386 0.0
O762 O 0.40399 0.48041 0.77144 0.0
C763 C 0.38281 0.45502 0.78614 0.0
N764 N 0.38356 0.453 0.7699 0.0
C765 C 0.37073 0.42672 0.77124 0.0
C766 C 0.36986 0.42848 0.78799 0.0
C767 C 0.37583 0.44274 0.79546 0.0
C768 C 0.37759 0.43946 0.76257 0.0
H769 H 0.38755 0.46588 0.79194 0.0
C770 C 0.40347 0.49441 0.77812 0.0
O771 O 0.37201 0.52668 0.75812 0.0
O772 O 0.35911 0.50765 0.77168 0.0
N773 N 0.38457 0.45196 0.73867 0.0
C774 C 0.38556 0.45255 0.72237 0.0
C775 C 0.37976 0.43937 0.71304 0.0
C776 C 0.37335 0.42561 0.72058 0.0
C777 C 0.37251 0.42527 0.73739 0.0
C778 C 0.37827 0.43885 0.74604 0.0
H779 H 0.39077 0.46297 0.71653 0.0
O780 O 0.36027 0.49666 0.73954 0.0
O781 O 0.37424 0.48001 0.75418 0.0
O782 O 0.39425 0.50441 0.73881 0.0
O783 O 0.40442 0.47963 0.73778 0.0
C784 C 0.36621 0.412 0.74591 0.0
C785 C 0.36511 0.41281 0.7628 0.0
H786 H 0.36461 0.41897 0.79522 0.0
H787 H 0.37518 0.4442 0.80837 0.0
H788 H 0.38042 0.43973 0.70007 0.0
H789 H 0.36904 0.41541 0.71334 0.0
H790 H 0.36197 0.40119 0.73958 0.0
H791 H 0.35992 0.40266 0.76918 0.0
Mn792 Mn 0.75272 0.37419 0.50864 0.0
Mn793 Mn 0.75054 0.38725 0.47052 0.0
C794 C 0.73935 0.35872 0.48916 0.0
C795 C 0.76561 0.35999 0.52876 0.0
C796 C 0.73012 0.40052 0.49755 0.0
O797 O 0.77054 0.39157 0.50799 0.0
O798 O 0.76875 0.39852 0.48197 0.0
C799 C 0.78108 0.37422 0.45832 0.0
N800 N 0.76477 0.37517 0.45727 0.0
C801 C 0.76384 0.35734 0.43418 0.0
C802 C 0.78065 0.35624 0.43495 0.0
C803 C 0.78929 0.36469 0.4471 0.0
C804 C 0.75633 0.36706 0.44566 0.0
H805 H 0.78777 0.38064 0.46767 0.0
C806 C 0.77534 0.3997 0.49591 0.0
O807 O 0.75559 0.3713 0.5322 0.0
O808 O 0.76859 0.35741 0.51368 0.0
N809 N 0.73356 0.37715 0.45806 0.0
C810 C 0.71735 0.37887 0.45946 0.0
C811 C 0.70694 0.37094 0.4484 0.0
C812 C 0.71329 0.36142 0.43598 0.0
C813 C 0.73001 0.35989 0.43474 0.0
C814 C 0.7398 0.3682 0.44601 0.0
H815 H 0.71239 0.3862 0.46897 0.0
O816 O 0.73606 0.35677 0.50423 0.0
O817 O 0.75027 0.36969 0.48599 0.0
O818 O 0.73545 0.39143 0.50849 0.0
O819 O 0.73516 0.40009 0.48308 0.0
C820 C 0.73734 0.35026 0.42289 0.0
C821 C 0.75424 0.34895 0.42264 0.0
H822 H 0.78702 0.34885 0.42636 0.0
H823 H 0.80225 0.36384 0.44782 0.0
H824 H 0.69404 0.37216 0.44946 0.0
H825 H 0.70521 0.35528 0.42752 0.0
H826 H 0.73008 0.34365 0.41404 0.0
H827 H 0.75971 0.34133 0.41362 0.0
Mn828 Mn 0.63549 0.00585 0.75355 0.0
Mn829 Mn 0.61888 0.04259 0.75393 0.0
C830 C 0.6486 0.02745 0.74134 0.0
C831 C 0.65156 0.98627 0.76493 0.0
C832 C 0.60795 0.01562 0.7312 0.0
O833 O 0.61881 0.00375 0.77136 0.0
O834 O 0.60875 0.02866 0.77043 0.0
C835 C 0.63051 0.0536 0.78604 0.0
N836 N 0.62931 0.05595 0.76994 0.0
C837 C 0.64228 0.08215 0.7724 0.0
C838 C 0.64361 0.08005 0.78902 0.0
C839 C 0.6378 0.06566 0.79586 0.0
C840 C 0.63514 0.0696 0.7632 0.0
H841 H 0.62588 0.04264 0.79136 0.0
C842 C 0.60921 0.0145 0.77633 0.0
O843 O 0.64027 0.98246 0.75463 0.0
O844 O 0.65326 1.00142 0.76892 0.0
N845 N 0.6274 0.05762 0.73881 0.0
C846 C 0.62581 0.05743 0.72252 0.0
C847 C 0.63126 0.07083 0.71378 0.0
C848 C 0.63795 0.0844 0.72191 0.0
C849 C 0.63941 0.08434 0.7387 0.0
C850 C 0.63396 0.07056 0.74673 0.0
H851 H 0.62035 0.04716 0.71625 0.0
O852 O 0.65168 0.0127 0.73719 0.0
O853 O 0.63801 0.0292 0.75266 0.0
O854 O 0.61762 0.00514 0.73637 0.0
O855 O 0.6075 0.02998 0.7369 0.0
C856 C 0.64601 0.09741 0.74779 0.0
C857 C 0.64766 0.09623 0.76459 0.0
H858 H 0.64909 0.08939 0.79665 0.0
H859 H 0.6388 0.06393 0.80867 0.0
H860 H 0.63011 0.07079 0.70083 0.0
H861 H 0.64197 0.09479 0.71514 0.0
H862 H 0.65005 0.10836 0.74195 0.0
H863 H 0.65305 0.10624 0.7714 0.0
Mn864 Mn 0.002 0.25297 0.87572 0.0
Mn865 Mn 0.9649 0.25006 0.89195 0.0
C866 C 0.98137 0.23889 0.86225 0.0
C867 C 0.02152 0.2656 0.85978 0.0
C868 C 0.99256 0.22978 0.90274 0.0
O869 O 0.0027 0.27126 0.89243 0.0
O870 O 0.97776 0.26783 0.90249 0.0
C871 C 0.95265 0.28136 0.88117 0.0
N872 N 0.95109 0.26499 0.88189 0.0
C873 C 0.92515 0.2652 0.86896 0.0
C874 C 0.92644 0.28206 0.86811 0.0
C875 C 0.94031 0.29016 0.87415 0.0
C876 C 0.93794 0.25706 0.87587 0.0
H877 H 0.9632 0.28765 0.88597 0.0
C878 C 0.99149 0.27521 0.90206 0.0
O879 O 0.02538 0.25589 0.87116 0.0
O880 O 0.00631 0.26843 0.85802 0.0
N881 N 0.95091 0.23363 0.88291 0.0
C882 C 0.95198 0.21729 0.88379 0.0
C883 C 0.93927 0.20736 0.87789 0.0
C884 C 0.92547 0.21434 0.87146 0.0
C885 C 0.92464 0.23119 0.87069 0.0
C886 C 0.93778 0.24045 0.87654 0.0
H887 H 0.96245 0.21189 0.88897 0.0
O888 O 0.99634 0.23579 0.85941 0.0
O889 O 0.97885 0.25012 0.87297 0.0
O890 O 0.00304 0.23608 0.89345 0.0
O891 O 0.97789 0.23398 0.903 0.0
C892 C 0.91132 0.23917 0.86435 0.0
C893 C 0.91165 0.25614 0.86328 0.0
H894 H 0.91689 0.2889 0.86283 0.0
H895 H 0.94141 0.30318 0.87352 0.0
H896 H 0.94002 0.19437 0.87847 0.0
H897 H 0.91562 0.20664 0.86707 0.0
H898 H 0.90083 0.23235 0.86003 0.0
H899 H 0.90147 0.2621 0.85806 0.0
Mn900 Mn 0.50194 0.75374 0.37412 0.0
Mn901 Mn 0.46515 0.75116 0.39105 0.0
C902 C 0.48092 0.74002 0.36091 0.0
C903 C 0.52132 0.76638 0.35804 0.0
C904 C 0.49282 0.73053 0.40121 0.0
O905 O 0.50314 0.77186 0.39101 0.0
O906 O 0.47826 0.76888 0.40133 0.0
C907 C 0.4528 0.78249 0.38049 0.0
N908 N 0.4512 0.76612 0.38123 0.0
C909 C 0.42508 0.7664 0.36867 0.0
C910 C 0.42641 0.78326 0.36781 0.0
C911 C 0.44038 0.79133 0.37366 0.0
C912 C 0.43795 0.75822 0.3754 0.0
H913 H 0.46342 0.78875 0.38514 0.0
C914 C 0.4921 0.77603 0.40075 0.0
O915 O 0.52526 0.75646 0.3692 0.0
O916 O 0.50612 0.76937 0.35654 0.0
N917 N 0.45095 0.73476 0.38225 0.0
C918 C 0.452 0.71842 0.38312 0.0
C919 C 0.4392 0.70852 0.37735 0.0
C920 C 0.42535 0.71553 0.37106 0.0
C921 C 0.42454 0.73239 0.37035 0.0
C922 C 0.43776 0.74161 0.37606 0.0
H923 H 0.46249 0.71299 0.38822 0.0
O924 O 0.49579 0.73681 0.35772 0.0
O925 O 0.47873 0.75116 0.3718 0.0
O926 O 0.50311 0.73661 0.39158 0.0
O927 O 0.47827 0.73505 0.40192 0.0
C928 C 0.41115 0.7404 0.36421 0.0
C929 C 0.4115 0.75738 0.36316 0.0
H930 H 0.4168 0.79013 0.36267 0.0
H931 H 0.4415 0.80434 0.37302 0.0
H932 H 0.43993 0.69553 0.37792 0.0
H933 H 0.41545 0.70786 0.36676 0.0
H934 H 0.40059 0.73361 0.36002 0.0
H935 H 0.40126 0.76336 0.35808 0.0
Mn936 Mn 0.0042 0.75127 0.6317 0.0
Mn937 Mn 0.98518 0.7192 0.64836 0.0
C938 C 0.00334 0.72641 0.6183 0.0
C939 C 0.00442 0.77456 0.61622 0.0
C940 C 0.01843 0.73117 0.6587 0.0
O941 O 0.9904 0.76189 0.64896 0.0
O942 O 0.97809 0.73958 0.65849 0.0
C943 C 0.9521 0.72564 0.6372 0.0
N944 N 0.9647 0.71551 0.6383 0.0
C945 C 0.94908 0.69354 0.62648 0.0
C946 C 0.93591 0.7037 0.62523 0.0
C947 C 0.93747 0.71986 0.63049 0.0
C948 C 0.96345 0.70008 0.63292 0.0
H949 H 0.95319 0.73798 0.64149 0.0
C950 C 0.98043 0.7549 0.65836 0.0
O951 O 0.01531 0.77221 0.62709 0.0
O952 O 0.99318 0.76347 0.6145 0.0
N953 N 0.99052 0.69848 0.63988 0.0
C954 C 0.00457 0.6905 0.64133 0.0
C955 C 0.00511 0.67422 0.6365 0.0
C956 C 0.99113 0.66625 0.63061 0.0
C957 C 0.97681 0.67473 0.62921 0.0
C958 C 0.97706 0.69099 0.63397 0.0
H959 H 0.01522 0.69646 0.64628 0.0
O960 O 0.01433 0.73725 0.61502 0.0
O961 O 0.99295 0.73047 0.62919 0.0
O962 O 0.01942 0.74286 0.64894 0.0
O963 O 0.00616 0.72165 0.65946 0.0
C964 C 0.96225 0.66769 0.62337 0.0
C965 C 0.94848 0.67714 0.62175 0.0
H966 H 0.92454 0.69923 0.62026 0.0
H967 H 0.92737 0.72779 0.62957 0.0
H968 H 0.01621 0.66776 0.63758 0.0
H969 H 0.99154 0.65362 0.62712 0.0
H970 H 0.96159 0.65505 0.61987 0.0
H971 H 0.93747 0.67166 0.61693 0.0
Mn972 Mn 0.5065 0.2546 0.12918 0.0
Mn973 Mn 0.48851 0.22042 0.14263 0.0
C974 C 0.50746 0.23093 0.11406 0.0
C975 C 0.50578 0.2789 0.1154 0.0
C976 C 0.52051 0.23362 0.15552 0.0
O977 O 0.49152 0.26294 0.14668 0.0
O978 O 0.47922 0.23952 0.15348 0.0
C979 C 0.45582 0.22514 0.12949 0.0
N980 N 0.46915 0.216 0.13072 0.0
C981 C 0.45683 0.19468 0.11462 0.0
C982 C 0.44294 0.20383 0.11322 0.0
C983 C 0.44248 0.21916 0.12062 0.0
C984 C 0.46982 0.20135 0.12344 0.0
H985 H 0.45537 0.23688 0.13526 0.0
C986 C 0.48109 0.25488 0.15471 0.0
O987 O 0.51646 0.27646 0.12646 0.0
O988 O 0.49525 0.26733 0.11259 0.0
N989 N 0.49612 0.2009 0.13314 0.0
C990 C 0.51056 0.19378 0.13531 0.0
C991 C 0.51311 0.17849 0.12842 0.0
C992 C 0.5007 0.17054 0.11967 0.0
C993 C 0.48584 0.17797 0.11786 0.0
C994 C 0.48405 0.19328 0.12486 0.0
H995 H 0.52008 0.19973 0.14222 0.0
O996 O 0.51796 0.24253 0.11183 0.0
O997 O 0.49659 0.23359 0.12489 0.0
O998 O 0.52158 0.24567 0.14621 0.0
O999 O 0.5085 0.22368 0.15539 0.0
C1000 C 0.47272 0.17077 0.10943 0.0
C1001 C 0.45829 0.17919 0.10763 0.0
H1002 H 0.43259 0.19922 0.10647 0.0
H1003 H 0.43181 0.22631 0.11956 0.0
H1004 H 0.52459 0.17281 0.12993 0.0
H1005 H 0.50269 0.15873 0.1144 0.0
H1006 H 0.47367 0.15884 0.10408 0.0
H1007 H 0.4484 0.17364 0.10086 0.0
H1008 H 0.22024 0.73392 0.89601 0.0
H1009 H 0.22478 0.75574 0.91572 0.0
H1010 H 0.19375 0.78626 0.88864 0.0
H1011 H 0.18992 0.76496 0.86842 0.0
H1012 H 0.22113 0.80146 0.89589 0.0
H1013 H 0.19706 0.77348 0.95106 0.0
H1014 H 0.21222 0.76169 0.94152 0.0
H1015 H 0.19344 0.76482 0.93131 0.0
C1016 C 0.21439 0.74528 0.89421 0.0
C1017 C 0.20471 0.74762 0.88056 0.0
C1018 C 0.2168 0.75767 0.90566 0.0
C1019 C 0.20939 0.77257 0.90383 0.0
C1020 C 0.19949 0.77483 0.89039 0.0
H1021 H 0.20976 0.85004 0.97631 0.0
H1022 H 0.20162 0.82904 0.95653 0.0
C1023 C 0.19721 0.76254 0.87889 0.0
C1024 C 0.21295 0.78628 0.91511 0.0
H1025 H 0.21257 0.79799 0.95464 0.0
C1026 C 0.21916 0.8007 0.90873 0.0
C1027 C 0.2102 0.78539 0.93184 0.0
C1028 C 0.20271 0.77057 0.93934 0.0
C1029 C 0.22289 0.81415 0.91858 0.0
C1030 C 0.22079 0.8131 0.93537 0.0
C1031 C 0.21432 0.79877 0.94177 0.0
C1032 C 0.22545 0.82666 0.9465 0.0
C1033 C 0.2286 0.82952 0.91087 0.0
C1034 C 0.24151 0.83237 0.94739 0.0
C1035 C 0.24611 0.8444 0.95858 0.0
C1036 C 0.23472 0.85102 0.96901 0.0
C1037 C 0.21867 0.84535 0.96813 0.0
C1038 C 0.21405 0.83333 0.95691 0.0
H1039 H 0.22596 0.82954 0.89778 0.0
H1040 H 0.22269 0.83996 0.9166 0.0
H1041 H 0.24182 0.831 0.9125 0.0
H1042 H 0.25063 0.82711 0.93983 0.0
H1043 H 0.25869 0.84805 0.95951 0.0
H1044 H 0.02575 0.54393 0.39359 0.0
H1045 H 0.04291 0.53868 0.37047 0.0
H1046 H 0.04254 0.48803 0.3815 0.0
H1047 H 0.0254 0.4932 0.40484 0.0
H1048 H 0.07368 0.52494 0.37084 0.0
H1049 H 0.03004 0.48849 0.33342 0.0
H1050 H 0.02378 0.5008 0.35024 0.0
H1051 H 0.03321 0.48191 0.35364 0.0
C1052 C 0.02938 0.53167 0.39119 0.0
C1053 C 0.02424 0.51899 0.40112 0.0
C1054 C 0.03912 0.52868 0.37791 0.0
C1055 C 0.04388 0.51295 0.37418 0.0
C1056 C 0.03876 0.50022 0.384 0.0
H1057 H 0.10653 0.48739 0.29233 0.0
H1058 H 0.09049 0.48469 0.31693 0.0
C1059 C 0.02898 0.5032 0.39733 0.0
C1060 C 0.0546 0.51018 0.36027 0.0
H1061 H 0.05573 0.49362 0.32243 0.0
C1062 C 0.06981 0.51796 0.36033 0.0
C1063 C 0.04958 0.50096 0.3466 0.0
C1064 C 0.03323 0.49262 0.34581 0.0
C1065 C 0.07993 0.51719 0.34692 0.0
C1066 C 0.07462 0.50859 0.33301 0.0
C1067 C 0.05973 0.5002 0.33315 0.0
C1068 C 0.08367 0.50968 0.31776 0.0
C1069 C 0.0961 0.52589 0.34759 0.0
C1070 C 0.08479 0.52451 0.30997 0.0
C1071 C 0.09381 0.52609 0.29599 0.0
C1072 C 0.10196 0.51285 0.28942 0.0
C1073 C 0.10047 0.49784 0.29705 0.0
C1074 C 0.09132 0.49626 0.31109 0.0
H1075 H 0.10014 0.52827 0.36016 0.0
H1076 H 0.10538 0.51881 0.34126 0.0
H1077 H 0.09518 0.53767 0.34154 0.0
H1078 H 0.07879 0.53495 0.31482 0.0
H1079 H 0.09457 0.53784 0.2905 0.0
H1080 H 0.83647 0.76384 0.88463 0.0
H1081 H 0.83291 0.74302 0.90495 0.0
H1082 H 0.78148 0.74833 0.90272 0.0
H1083 H 0.78482 0.76878 0.88214 0.0
H1084 H 0.7964 0.74734 0.93535 0.0
H1085 H 0.81271 0.69669 0.8942 0.0
H1086 H 0.82609 0.71411 0.89549 0.0
H1087 H 0.80648 0.7159 0.88673 0.0
C1088 C 0.82438 0.76052 0.88837 0.0
C1089 C 0.81092 0.76799 0.88165 0.0
C1090 C 0.82239 0.74868 0.90005 0.0
C1091 C 0.80693 0.7441 0.90525 0.0
C1092 C 0.79352 0.75175 0.89889 0.0
H1093 H 0.75345 0.66976 0.94573 0.0
H1094 H 0.76823 0.68979 0.93021 0.0
C1095 C 0.79548 0.76352 0.88717 0.0
C1096 C 0.80449 0.73098 0.91695 0.0
H1097 H 0.80332 0.68991 0.91983 0.0
C1098 C 0.79822 0.73479 0.93212 0.0
C1099 C 0.80684 0.71465 0.91263 0.0
C1100 C 0.81333 0.70995 0.89637 0.0
C1101 C 0.79362 0.72262 0.94286 0.0
C1102 C 0.79533 0.70627 0.93826 0.0
C1103 C 0.80222 0.70248 0.92336 0.0
C1104 C 0.78756 0.69311 0.94749 0.0
C1105 C 0.78605 0.72723 0.95866 0.0
C1106 C 0.79374 0.68808 0.96227 0.0
C1107 C 0.78532 0.67641 0.97124 0.0
C1108 C 0.77052 0.66984 0.96558 0.0
C1109 C 0.76472 0.67465 0.95054 0.0
C1110 C 0.77318 0.68608 0.94159 0.0
H1111 H 0.78504 0.7405 0.96019 0.0
H1112 H 0.77384 0.72154 0.95951 0.0
H1113 H 0.79339 0.72265 0.96869 0.0
H1114 H 0.80489 0.69337 0.96698 0.0
H1115 H 0.79008 0.67297 0.98278 0.0
H1116 H 0.98751 0.0079 0.41111 0.0
H1117 H 0.97025 0.01318 0.38793 0.0
H1118 H 0.96943 0.96252 0.37531 0.0
H1119 H 0.98665 0.95715 0.39837 0.0
H1120 H 0.97514 0.00754 0.35539 0.0
H1121 H 0.92177 0.97259 0.3763 0.0
H1122 H 0.93844 0.97813 0.38941 0.0
H1123 H 0.93965 0.96091 0.37607 0.0
C1124 C 0.9837 0.99789 0.40336 0.0
C1125 C 0.98836 0.98207 0.40668 0.0
C1126 C 0.97379 1.00093 0.39016 0.0
C1127 C 0.9683 0.98821 0.38006 0.0
C1128 C 0.97316 0.97247 0.38318 0.0
H1129 H 0.91961 0.96932 0.29218 0.0
H1130 H 0.93552 0.9705 0.31674 0.0
C1131 C 0.98302 0.96941 0.39638 0.0
C1132 C 0.95773 0.99133 0.36607 0.0
H1133 H 0.92211 0.97933 0.34842 0.0
C1134 C 0.96343 0.00158 0.35395 0.0
C1135 C 0.94239 0.98366 0.36428 0.0
C1136 C 0.93511 0.97334 0.37728 0.0
C1137 C 0.95457 0.00366 0.33973 0.0
C1138 C 0.93962 0.99536 0.33766 0.0
C1139 C 0.93364 0.98562 0.35002 0.0
C1140 C 0.93058 0.99544 0.32227 0.0
C1141 C 0.96152 0.01412 0.32669 0.0
C1142 C 0.92258 0.00917 0.31715 0.0
C1143 C 0.91333 0.00858 0.30299 0.0
C1144 C 0.91197 0.99421 0.29375 0.0
C1145 C 0.92032 0.98062 0.29888 0.0
C1146 C 0.92944 0.98123 0.31298 0.0
H1147 H 0.97403 0.01838 0.32947 0.0
H1148 H 0.96148 0.00735 0.31507 0.0
H1149 H 0.95392 0.02482 0.32519 0.0
H1150 H 0.92321 0.02022 0.32426 0.0
H1151 H 0.90705 0.01925 0.29945 0.0
H1152 H 0.20877 0.27723 0.61308 0.0
H1153 H 0.21442 0.25788 0.5915 0.0
H1154 H 0.20735 0.21861 0.62427 0.0
H1155 H 0.20173 0.23789 0.64597 0.0
H1156 H 0.23846 0.23532 0.58958 0.0
H1157 H 0.17793 0.20542 0.58658 0.0
H1158 H 0.18168 0.22434 0.59713 0.0
H1159 H 0.18698 0.20567 0.60621 0.0
C1160 C 0.20847 0.26448 0.61573 0.0
C1161 C 0.20474 0.25912 0.63126 0.0
C1162 C 0.21165 0.25343 0.60336 0.0
C1163 C 0.21111 0.23679 0.60621 0.0
C1164 C 0.2075 0.23138 0.62171 0.0
H1165 H 0.2514 0.16218 0.54425 0.0
H1166 H 0.24601 0.1812 0.56621 0.0
C1167 C 0.20428 0.24242 0.63409 0.0
C1168 C 0.21463 0.22515 0.59303 0.0
H1169 H 0.1985 0.19347 0.57111 0.0
C1170 C 0.22972 0.22618 0.58552 0.0
C1171 C 0.20315 0.21335 0.58763 0.0
C1172 C 0.18647 0.21217 0.59468 0.0
C1173 C 0.23371 0.21562 0.57286 0.0
C1174 C 0.22237 0.20356 0.56774 0.0
C1175 C 0.20723 0.20263 0.57515 0.0
C1176 C 0.22579 0.19204 0.55442 0.0
C1177 C 0.24987 0.21771 0.56486 0.0
C1178 C 0.21602 0.19157 0.54063 0.0
C1179 C 0.21899 0.18065 0.5281 0.0
C1180 C 0.23178 0.16988 0.52909 0.0
C1181 C 0.24151 0.17034 0.54299 0.0
C1182 C 0.23851 0.18128 0.55554 0.0
H1183 H 0.25538 0.22985 0.56739 0.0
H1184 H 0.25816 0.20857 0.56948 0.0
H1185 H 0.24878 0.21595 0.55165 0.0
H1186 H 0.2061 0.19972 0.53954 0.0
H1187 H 0.21118 0.18064 0.51765 0.0
H1188 H 0.4896 0.55542 0.61779 0.0
H1189 H 0.47238 0.54954 0.64087 0.0
H1190 H 0.48081 0.49874 0.63465 0.0
H1191 H 0.49776 0.50442 0.6114 0.0
H1192 H 0.444 0.52874 0.64203 0.0
H1193 H 0.49274 0.50858 0.68232 0.0
H1194 H 0.4967 0.52013 0.66449 0.0
H1195 H 0.49206 0.49888 0.66287 0.0
C1196 C 0.48769 0.54297 0.62123 0.0
C1197 C 0.49516 0.5304 0.61275 0.0
C1198 C 0.47792 0.53966 0.63448 0.0
C1199 C 0.47553 0.52374 0.63961 0.0
C1200 C 0.48278 0.51115 0.63109 0.0
H1201 H 0.42322 0.47496 0.71466 0.0
H1202 H 0.44023 0.48286 0.69215 0.0
C1203 C 0.4925 0.51443 0.61782 0.0
C1204 C 0.46525 0.52022 0.65371 0.0
H1205 H 0.46592 0.50426 0.69125 0.0
C1206 C 0.44878 0.52349 0.65285 0.0
C1207 C 0.47154 0.51336 0.66777 0.0
C1208 C 0.48925 0.51014 0.66955 0.0
C1209 C 0.43832 0.51964 0.66553 0.0
C1210 C 0.4446 0.51267 0.67958 0.0
C1211 C 0.46112 0.50959 0.68048 0.0
C1212 C 0.4342 0.50808 0.69333 0.0
C1213 C 0.42058 0.52259 0.66355 0.0
C1214 C 0.42528 0.51968 0.70164 0.0
C1215 C 0.41545 0.5152 0.71451 0.0
C1216 C 0.41447 0.49904 0.71946 0.0
C1217 C 0.42365 0.48752 0.71124 0.0
C1218 C 0.43341 0.492 0.69834 0.0
H1219 H 0.41719 0.52397 0.65073 0.0
H1220 H 0.41319 0.51255 0.66861 0.0
H1221 H 0.41755 0.53389 0.67005 0.0
H1222 H 0.42599 0.53223 0.69822 0.0
H1223 H 0.40866 0.52442 0.72061 0.0
H1224 H 0.82847 0.25787 0.6254 0.0
H1225 H 0.82239 0.27939 0.60673 0.0
H1226 H 0.77181 0.27353 0.61718 0.0
H1227 H 0.77777 0.25214 0.63603 0.0
H1228 H 0.77874 0.27454 0.58428 0.0
H1229 H 0.8086 0.32569 0.61758 0.0
H1230 H 0.82112 0.30865 0.61405 0.0
H1231 H 0.80382 0.3066 0.6268 0.0
C1232 C 0.81607 0.26129 0.6239 0.0
C1233 C 0.80361 0.25328 0.63227 0.0
C1234 C 0.81262 0.27361 0.61322 0.0
C1235 C 0.79668 0.27821 0.61074 0.0
C1236 C 0.78421 0.27019 0.61896 0.0
H1237 H 0.75997 0.36115 0.56114 0.0
H1238 H 0.76824 0.34165 0.58119 0.0
C1239 C 0.78764 0.25789 0.62966 0.0
C1240 C 0.79291 0.29101 0.59915 0.0
H1241 H 0.79927 0.33099 0.59121 0.0
C1242 C 0.78321 0.28689 0.5858 0.0
C1243 C 0.79862 0.30714 0.60127 0.0
C1244 C 0.8085 0.31238 0.61576 0.0
C1245 C 0.77923 0.29841 0.57437 0.0
C1246 C 0.7853 0.31445 0.57624 0.0
C1247 C 0.79479 0.31865 0.58973 0.0
C1248 C 0.7816 0.32703 0.56442 0.0
C1249 C 0.76835 0.29339 0.56052 0.0
C1250 C 0.78682 0.32555 0.54848 0.0
C1251 C 0.78214 0.33666 0.53701 0.0
C1252 C 0.77219 0.3495 0.5413 0.0
C1253 C 0.76761 0.35138 0.55744 0.0
C1254 C 0.77231 0.34025 0.56892 0.0
H1255 H 0.76174 0.28184 0.56284 0.0
H1256 H 0.75945 0.30283 0.55806 0.0
H1257 H 0.77572 0.2917 0.54956 0.0
H1258 H 0.79423 0.31559 0.54484 0.0
H1259 H 0.78595 0.33491 0.5247 0.0
H1260 H 0.51943 0.96008 0.61262 0.0
H1261 H 0.53653 0.96456 0.63635 0.0
H1262 H 0.52858 0.01567 0.63429 0.0
H1263 H 0.51173 0.01138 0.61037 0.0
H1264 H 0.56507 0.9847 0.63887 0.0
H1265 H 0.51754 0.0039 0.68122 0.0
H1266 H 0.51302 0.99331 0.66255 0.0
H1267 H 0.51806 0.01452 0.66258 0.0
C1268 C 0.52137 0.9723 0.61714 0.0
C1269 C 0.51416 0.98537 0.60955 0.0
C1270 C 0.53108 0.97481 0.63076 0.0
C1271 C 0.53365 0.99041 0.63719 0.0
C1272 C 0.52649 0.00349 0.6297 0.0
H1273 H 0.58824 0.03542 0.71455 0.0
H1274 H 0.57054 0.02839 0.69195 0.0
C1275 C 0.51683 1.001 0.61604 0.0
C1276 C 0.54423 0.9931 0.65143 0.0
H1277 H 0.54461 0.00738 0.69012 0.0
C1278 C 0.56061 0.98954 0.65013 0.0
C1279 C 0.53835 0.99942 0.66607 0.0
C1280 C 0.52075 0.0029 0.66831 0.0
C1281 C 0.57139 0.99262 0.66294 0.0
C1282 C 0.56553 0.9991 0.67756 0.0
C1283 C 0.54909 0.00242 0.67891 0.0
C1284 C 0.57633 0.00309 0.69142 0.0
C1285 C 0.58902 0.98945 0.6605 0.0
C1286 C 0.58537 0.99116 0.6988 0.0
C1287 C 0.59562 0.99516 0.71174 0.0
C1288 C 0.5969 0.01115 0.71767 0.0
C1289 C 0.58759 0.02298 0.71037 0.0
C1290 C 0.57743 0.01899 0.69742 0.0
H1291 H 0.5921 0.98845 0.64756 0.0
H1292 H 0.59668 0.99919 0.6661 0.0
H1293 H 0.592 0.9779 0.66622 0.0
H1294 H 0.58444 0.97874 0.69461 0.0
H1295 H 0.6025 0.9857 0.71712 0.0
H1296 H 0.8807 0.22846 0.74735 0.0
H1297 H 0.90007 0.23334 0.76915 0.0
H1298 H 0.91324 0.18338 0.76702 0.0
H1299 H 0.8941 0.17844 0.74488 0.0
H1300 H 0.89828 0.21669 0.79881 0.0
H1301 H 0.95721 0.20863 0.76864 0.0
H1302 H 0.93899 0.21269 0.75765 0.0
H1303 H 0.94217 0.19291 0.76532 0.0
C1304 C 0.88796 0.21857 0.75125 0.0
C1305 C 0.88587 0.20306 0.74435 0.0
C1306 C 0.89897 0.22137 0.76377 0.0
C1307 C 0.90819 0.20876 0.76958 0.0
C1308 C 0.90641 0.19333 0.76254 0.0
H1309 H 0.97747 0.20866 0.84931 0.0
H1310 H 0.95894 0.20002 0.82753 0.0
C1311 C 0.89535 0.1905 0.75001 0.0
C1312 C 0.91864 0.21159 0.78386 0.0
H1313 H 0.95776 0.21312 0.79675 0.0
C1314 C 0.91129 0.21592 0.79836 0.0
C1315 C 0.93557 0.21035 0.78327 0.0
C1316 C 0.94404 0.206 0.76788 0.0
C1317 C 0.92041 0.21918 0.81229 0.0
C1318 C 0.93738 0.21842 0.81167 0.0
C1319 C 0.94474 0.21373 0.79723 0.0
C1320 C 0.94772 0.22319 0.82566 0.0
C1321 C 0.91177 0.22315 0.82761 0.0
C1322 C 0.94755 0.23904 0.83184 0.0
C1323 C 0.95807 0.24394 0.84423 0.0
C1324 C 0.96884 0.23304 0.8508 0.0
C1325 C 0.96901 0.21717 0.84466 0.0
C1326 C 0.9585 0.21226 0.83222 0.0
H1327 H 0.89887 0.21926 0.82713 0.0
H1328 H 0.91759 0.2172 0.83787 0.0
H1329 H 0.91236 0.2364 0.82971 0.0
H1330 H 0.93967 0.24782 0.82669 0.0
H1331 H 0.95823 0.25644 0.84822 0.0
H1332 H 0.4892 0.89041 0.50474 0.0
H1333 H 0.49435 0.86697 0.48756 0.0
H1334 H 0.48785 0.89584 0.44552 0.0
H1335 H 0.48266 0.9194 0.46266 0.0
H1336 H 0.47076 0.86771 0.44364 0.0
H1337 H 0.53348 0.8553 0.46133 0.0
H1338 H 0.52028 0.85653 0.47828 0.0
H1339 H 0.52398 0.87409 0.46626 0.0
C1340 C 0.48914 0.89186 0.49184 0.0
C1341 C 0.48557 0.90682 0.48509 0.0
C1342 C 0.49214 0.87845 0.48203 0.0
C1343 C 0.49181 0.8797 0.46524 0.0
C1344 C 0.48829 0.89461 0.45844 0.0
H1345 H 0.51535 0.80022 0.39844 0.0
H1346 H 0.5166 0.82592 0.41358 0.0
C1347 C 0.48523 0.90804 0.46826 0.0
C1348 C 0.49396 0.86518 0.45484 0.0
H1349 H 0.51893 0.83377 0.44749 0.0
C1350 C 0.48138 0.86041 0.44436 0.0
C1351 C 0.50792 0.85575 0.45559 0.0
C1352 C 0.52225 0.86076 0.46585 0.0
C1353 C 0.48208 0.84615 0.43512 0.0
C1354 C 0.49559 0.83621 0.43661 0.0
C1355 C 0.50849 0.8413 0.44654 0.0
C1356 C 0.49603 0.82017 0.42848 0.0
C1357 C 0.46826 0.84178 0.42391 0.0
C1358 C 0.48448 0.80824 0.43229 0.0
C1359 C 0.48373 0.79365 0.42372 0.0
C1360 C 0.4946 0.79057 0.41119 0.0
C1361 C 0.50679 0.80219 0.408 0.0
C1362 C 0.50749 0.81689 0.4166 0.0
H1363 H 0.46125 0.85253 0.42077 0.0
H1364 H 0.47262 0.83604 0.41266 0.0
H1365 H 0.45998 0.83306 0.42989 0.0
H1366 H 0.47575 0.81039 0.44166 0.0
H1367 H 0.4743 0.78493 0.42668 0.0
H1368 H 0.12151 0.32643 0.75571 0.0
H1369 H 0.1011 0.32133 0.77623 0.0
H1370 H 0.11088 0.27052 0.77404 0.0
H1371 H 0.13143 0.27551 0.75364 0.0
H1372 H 0.07789 0.27731 0.77341 0.0
H1373 H 0.10961 0.31009 0.82345 0.0
H1374 H 0.10693 0.32162 0.8056 0.0
H1375 H 0.1196 0.30439 0.80508 0.0
C1376 C 0.11945 0.31419 0.7597 0.0
C1377 C 0.12819 0.30139 0.75306 0.0
C1378 C 0.10776 0.3113 0.77143 0.0
C1379 C 0.10463 0.29558 0.77683 0.0
C1380 C 0.11314 0.28275 0.77007 0.0
H1381 H 0.05402 0.26137 0.86055 0.0
H1382 H 0.07384 0.2696 0.84043 0.0
C1383 C 0.12482 0.28562 0.75834 0.0
C1384 C 0.09235 0.29242 0.78936 0.0
H1385 H 0.08313 0.30029 0.82862 0.0
C1386 C 0.07901 0.28235 0.78547 0.0
C1387 C 0.09393 0.29889 0.80513 0.0
C1388 C 0.10834 0.30924 0.81018 0.0
C1389 C 0.06717 0.27862 0.79691 0.0
C1390 C 0.0686 0.28531 0.81261 0.0
C1391 C 0.08198 0.29532 0.81653 0.0
C1392 C 0.05668 0.28145 0.82531 0.0
C1393 C 0.05343 0.26721 0.79222 0.0
C1394 C 0.04053 0.28577 0.8237 0.0
C1395 C 0.02916 0.2811 0.8352 0.0
C1396 C 0.03376 0.27205 0.84853 0.0
C1397 C 0.05007 0.26829 0.85041 0.0
C1398 C 0.06142 0.27298 0.83892 0.0
H1399 H 0.056 0.26036 0.78098 0.0
H1400 H 0.05087 0.25848 0.80192 0.0
H1401 H 0.04243 0.27422 0.79021 0.0
H1402 H 0.03668 0.29256 0.81343 0.0
H1403 H 0.01671 0.28424 0.83342 0.0
H1404 H 0.55413 0.61771 0.48721 0.0
H1405 H 0.54829 0.64039 0.46982 0.0
H1406 H 0.49752 0.63337 0.47868 0.0
H1407 H 0.50318 0.61051 0.49581 0.0
H1408 H 0.52795 0.64068 0.44166 0.0
H1409 H 0.50673 0.68163 0.4901 0.0
H1410 H 0.51834 0.664 0.49411 0.0
H1411 H 0.4972 0.66191 0.48962 0.0
C1412 C 0.54171 0.62088 0.48536 0.0
C1413 C 0.52913 0.6123 0.49301 0.0
C1414 C 0.5384 0.63391 0.47548 0.0
C1415 C 0.5225 0.63871 0.47316 0.0
C1416 C 0.50991 0.63007 0.48058 0.0
H1417 H 0.47371 0.71208 0.42083 0.0
H1418 H 0.48167 0.68995 0.43786 0.0
C1419 C 0.51318 0.61702 0.4904 0.0
C1420 C 0.519 0.65261 0.46282 0.0
H1421 H 0.5027 0.69001 0.46331 0.0
C1422 C 0.52253 0.65153 0.44638 0.0
C1423 C 0.51193 0.66672 0.46903 0.0
C1424 C 0.50843 0.66877 0.4867 0.0
C1425 C 0.51873 0.664 0.43587 0.0
C1426 C 0.51152 0.67807 0.44207 0.0
C1427 C 0.50819 0.67921 0.45856 0.0
C1428 C 0.50691 0.69159 0.43162 0.0
C1429 C 0.52196 0.66174 0.41817 0.0
C1430 C 0.51849 0.70004 0.42256 0.0
C1431 C 0.51397 0.71271 0.41272 0.0
C1432 C 0.49779 0.7173 0.41186 0.0
C1433 C 0.48628 0.70894 0.42117 0.0
C1434 C 0.49081 0.69625 0.43093 0.0
H1435 H 0.52356 0.64884 0.41488 0.0
H1436 H 0.51199 0.66647 0.41083 0.0
H1437 H 0.5332 0.66848 0.41504 0.0
H1438 H 0.53105 0.6969 0.42318 0.0
H1439 H 0.52318 0.71892 0.40583 0.0
H1440 H 0.87712 0.7864 0.75857 0.0
H1441 H 0.89733 0.7812 0.73808 0.0
H1442 H 0.90673 0.83233 0.73373 0.0
H1443 H 0.88665 0.83768 0.75458 0.0
H1444 H 0.8973 0.79328 0.7057 0.0
H1445 H 0.95208 0.81264 0.7406 0.0
H1446 H 0.93319 0.80775 0.75026 0.0
H1447 H 0.93563 0.82634 0.73972 0.0
C1448 C 0.88361 0.79656 0.75344 0.0
C1449 C 0.88035 0.81246 0.75831 0.0
C1450 C 0.89509 0.79356 0.74164 0.0
C1451 C 0.90363 0.80637 0.7345 0.0
C1452 C 0.9004 0.82228 0.73924 0.0
H1453 H 0.97908 0.78815 0.66148 0.0
H1454 H 0.96084 0.80354 0.67881 0.0
C1455 C 0.88884 0.82531 0.75104 0.0
C1456 C 0.9156 0.8028 0.72188 0.0
H1457 H 0.95607 0.80092 0.71506 0.0
C1458 C 0.91014 0.79519 0.70764 0.0
C1459 C 0.93234 0.80542 0.72438 0.0
C1460 C 0.93878 0.81341 0.73958 0.0
C1461 C 0.92098 0.78948 0.69614 0.0
C1462 C 0.93771 0.79122 0.69908 0.0
C1463 C 0.94322 0.79964 0.71287 0.0
C1464 C 0.9494 0.7824 0.6891 0.0
C1465 C 0.91446 0.7811 0.68118 0.0
C1466 C 0.94922 0.76553 0.6895 0.0
C1467 C 0.95954 0.75677 0.67978 0.0
C1468 C 0.97038 0.76467 0.66937 0.0
C1469 C 0.97088 0.78167 0.66931 0.0
C1470 C 0.96048 0.79048 0.67917 0.0
H1471 H 0.90191 0.78461 0.67856 0.0
H1472 H 0.9221 0.7839 0.67063 0.0
H1473 H 0.91442 0.76785 0.68292 0.0
H1474 H 0.94092 0.75908 0.69726 0.0
H1475 H 0.95881 0.74372 0.68031 0.0
H1476 H 0.99691 0.89609 0.51945 0.0
H1477 H 0.99179 0.87285 0.53666 0.0
H1478 H 0.04202 0.8727 0.54974 0.0
H1479 H 0.04743 0.89551 0.53218 0.0
H1480 H 0.00985 0.84078 0.53527 0.0
H1481 H 0.01442 0.8751 0.59314 0.0
H1482 H 0.00955 0.88457 0.57439 0.0
H1483 H 0.02987 0.87903 0.57851 0.0
C1484 C 0.00693 0.89102 0.52581 0.0
C1485 C 0.0226 0.89779 0.52442 0.0
C1486 C 0.00394 0.8778 0.53572 0.0
C1487 C 0.0165 0.8712 0.54456 0.0
C1488 C 0.03214 0.87778 0.54316 0.0
H1489 H 0.02863 0.79734 0.61474 0.0
H1490 H 0.03057 0.82053 0.59707 0.0
C1491 C 0.03517 0.8909 0.53317 0.0
C1492 C 0.01338 0.85732 0.5552 0.0
H1493 H 0.01241 0.84669 0.59461 0.0
C1494 C 0.01027 0.84203 0.54825 0.0
C1495 C 0.01403 0.85905 0.57209 0.0
C1496 C 0.01704 0.87532 0.58007 0.0
C1497 C 0.00828 0.82827 0.55778 0.0
C1498 C 0.00899 0.82997 0.57474 0.0
C1499 C 0.01184 0.84537 0.58164 0.0
C1500 C 0.00747 0.81589 0.58555 0.0
C1501 C 0.00609 0.812 0.54957 0.0
C1502 C 0.99371 0.80566 0.58516 0.0
C1503 C 0.99263 0.79226 0.59518 0.0
C1504 C 0.00518 0.78899 0.60595 0.0
C1505 C 0.01874 0.7995 0.60658 0.0
C1506 C 0.01987 0.81278 0.59648 0.0
H1507 H 0.01017 0.81226 0.53688 0.0
H1508 H 0.01283 0.80262 0.55595 0.0
H1509 H 0.99312 0.80843 0.54955 0.0
H1510 H 0.98379 0.80803 0.57714 0.0
H1511 H 0.98197 0.78447 0.5945 0.0
H1512 H 0.12595 0.68015 0.75613 0.0
H1513 H 0.10442 0.68543 0.73681 0.0
H1514 H 0.12132 0.73485 0.73342 0.0
H1515 H 0.14295 0.72967 0.75262 0.0
H1516 H 0.08029 0.71114 0.74112 0.0
H1517 H 0.11703 0.7172 0.68572 0.0
H1518 H 0.12397 0.70662 0.70315 0.0
H1519 H 0.12407 0.72827 0.70327 0.0
C1520 C 0.1252 0.69209 0.75111 0.0
C1521 C 0.13614 0.7045 0.75589 0.0
C1522 C 0.11286 0.69509 0.74016 0.0
C1523 C 0.11139 0.71048 0.73362 0.0
C1524 C 0.12237 0.72285 0.73822 0.0
H1525 H 0.04477 0.75106 0.66495 0.0
H1526 H 0.06713 0.74634 0.68339 0.0
C1527 C 0.13463 0.7199 0.74927 0.0
C1528 C 0.09796 0.71379 0.72249 0.0
H1529 H 0.08938 0.72283 0.68357 0.0
C1530 C 0.08223 0.71364 0.72852 0.0
C1531 C 0.10062 0.71722 0.70613 0.0
C1532 C 0.11731 0.71726 0.69906 0.0
C1533 C 0.06903 0.71701 0.71864 0.0
C1534 C 0.07161 0.72014 0.70217 0.0
C1535 C 0.0874 0.72039 0.69617 0.0
C1536 C 0.05807 0.72296 0.69092 0.0
C1537 C 0.0525 0.71754 0.72606 0.0
C1538 C 0.04568 0.71128 0.68882 0.0
C1539 C 0.03283 0.71399 0.67841 0.0
C1540 C 0.0322 0.72835 0.66966 0.0
C1541 C 0.04483 0.73989 0.67151 0.0
C1542 C 0.05764 0.73721 0.68204 0.0
H1543 H 0.05321 0.71982 0.73924 0.0
H1544 H 0.04519 0.72706 0.7206 0.0
H1545 H 0.04618 0.70572 0.72405 0.0
H1546 H 0.04598 0.7 0.69518 0.0
H1547 H 0.02345 0.70473 0.67715 0.0
H1548 H 0.9621 0.619 0.51174 0.0
H1549 H 0.9662 0.64227 0.52984 0.0
H1550 H 0.01636 0.63103 0.53478 0.0
H1551 H 0.01234 0.60767 0.51672 0.0
H1552 H 0.9763 0.63923 0.56131 0.0
H1553 H 0.01817 0.68013 0.52856 0.0
H1554 H 0.00668 0.66403 0.51865 0.0
H1555 H 0.02452 0.65963 0.52987 0.0
C1556 C 0.97404 0.62154 0.51658 0.0
C1557 C 0.98687 0.61141 0.51287 0.0
C1558 C 0.97638 0.63491 0.52683 0.0
C1559 C 0.99162 0.6385 0.53352 0.0
C1560 C 0.00458 0.62872 0.52947 0.0
H1561 H 0.02649 0.7064 0.60748 0.0
H1562 H 0.02351 0.68457 0.58731 0.0
C1563 C 0.00225 0.61533 0.51918 0.0
C1564 C 0.99343 0.65132 0.54608 0.0
H1565 H 0.01347 0.68662 0.55605 0.0
C1566 C 0.98432 0.64968 0.5601 0.0
C1567 C 0.00408 0.6648 0.54455 0.0
C1568 C 0.01384 0.66739 0.52955 0.0
C1569 C 0.98569 0.66099 0.57274 0.0
C1570 C 0.99622 0.67457 0.57129 0.0
C1571 C 0.00539 0.67622 0.55722 0.0
C1572 C 0.99783 0.68719 0.58418 0.0
C1573 C 0.97637 0.65787 0.58785 0.0
C1574 C 0.98441 0.69592 0.5892 0.0
C1575 C 0.98609 0.70825 0.60082 0.0
C1576 C 1.00121 0.71207 0.60767 0.0
C1577 C 0.01465 0.70344 0.60261 0.0
C1578 C 0.01296 0.69104 0.59104 0.0
H1579 H 0.9718 0.64518 0.58849 0.0
H1580 H 0.98419 0.66048 0.5984 0.0
H1581 H 0.96588 0.66587 0.58835 0.0
H1582 H 0.9727 0.69356 0.58377 0.0
H1583 H 0.97568 0.71518 0.60402 0.0
H1584 H 0.75262 0.88651 0.18315 0.0
H1585 H 0.77379 0.90701 0.18864 0.0
H1586 H 0.76787 0.90017 0.2395 0.0
H1587 H 0.74716 0.87932 0.23417 0.0
H1588 H 0.77331 0.93617 0.20681 0.0
H1589 H 0.81593 0.89304 0.2326 0.0
H1590 H 0.79828 0.88651 0.22131 0.0
H1591 H 0.79654 0.89264 0.24203 0.0
C1592 C 0.7559 0.88928 0.19551 0.0
C1593 C 0.74826 0.88116 0.20822 0.0
C1594 C 0.76792 0.90108 0.19861 0.0
C1595 C 0.77257 0.90491 0.21446 0.0
C1596 C 0.76465 0.89719 0.22717 0.0
H1597 H 0.84384 0.96582 0.26271 0.0
H1598 H 0.82222 0.94667 0.25484 0.0
C1599 C 0.75267 0.88539 0.22409 0.0
C1600 C 0.78588 0.91678 0.21777 0.0
H1601 H 0.82251 0.92088 0.2361 0.0
C1602 C 0.7842 0.93283 0.21303 0.0
C1603 C 0.80004 0.91237 0.2259 0.0
C1604 C 0.80292 0.89518 0.23063 0.0
C1605 C 0.79612 0.94472 0.21666 0.0
C1606 C 0.81023 0.94032 0.22496 0.0
C1607 C 0.81187 0.92423 0.22957 0.0
C1608 C 0.82325 0.95219 0.22953 0.0
C1609 C 0.79316 0.96195 0.21213 0.0
C1610 C 0.83118 0.9616 0.21792 0.0
C1611 C 0.84349 0.97264 0.22246 0.0
C1612 C 0.84842 0.974 0.23856 0.0
C1613 C 0.84051 0.96463 0.25014 0.0
C1614 C 0.82811 0.95378 0.24566 0.0
H1615 H 0.78015 0.96403 0.21012 0.0
H1616 H 0.79769 0.97053 0.22159 0.0
H1617 H 0.79958 0.96466 0.2008 0.0
H1618 H 0.82795 0.96033 0.20535 0.0
H1619 H 0.84935 0.97991 0.21338 0.0
H1620 H 0.75912 0.12819 0.32667 0.0
H1621 H 0.77947 0.10769 0.3228 0.0
H1622 H 0.77931 0.11628 0.27188 0.0
H1623 H 0.75909 0.13692 0.27563 0.0
H1624 H 0.77749 0.0835 0.27969 0.0
H1625 H 0.82743 0.11558 0.31254 0.0
H1626 H 0.80905 0.11328 0.32366 0.0
H1627 H 0.80952 0.12559 0.3061 0.0
C1628 C 0.76353 0.12586 0.31466 0.0
C1629 C 0.7575 0.13427 0.30146 0.0
C1630 C 0.77517 0.11413 0.31248 0.0
C1631 C 0.78107 0.11063 0.29709 0.0
C1632 C 0.77495 0.11883 0.28387 0.0
H1633 H 0.8642 0.05829 0.26607 0.0
H1634 H 0.84472 0.07865 0.2737 0.0
C1635 C 0.76332 0.13057 0.28603 0.0
C1636 C 0.79338 0.09817 0.29466 0.0
H1637 H 0.83216 0.08878 0.30379 0.0
C1638 C 0.78944 0.08463 0.28497 0.0
C1639 C 0.809 0.09977 0.30145 0.0
C1640 C 0.81412 0.11439 0.31141 0.0
C1641 C 0.80066 0.07259 0.28193 0.0
C1642 C 0.81619 0.07403 0.28896 0.0
C1643 C 0.82018 0.08762 0.29858 0.0
C1644 C 0.82866 0.0619 0.28578 0.0
C1645 C 0.79595 0.05863 0.27089 0.0
C1646 C 0.82635 0.04583 0.29051 0.0
C1647 C 0.83748 0.03416 0.28618 0.0
C1648 C 0.85113 0.03837 0.27708 0.0
C1649 C 0.85379 0.05463 0.27304 0.0
C1650 C 0.84267 0.06629 0.27739 0.0
H1651 H 0.785 0.06114 0.26372 0.0
H1652 H 0.80589 0.0558 0.26252 0.0
H1653 H 0.79336 0.04777 0.27816 0.0
H1654 H 0.81576 0.04225 0.29725 0.0
H1655 H 0.83511 0.02175 0.28953 0.0
H1656 H 0.39303 0.00383 0.9969 0.0
H1657 H 0.3688 0.98734 0.00176 0.0
H1658 H 0.39647 0.94418 0.99744 0.0
H1659 H 0.42079 0.96063 0.9925 0.0
H1660 H 0.36967 0.94249 0.97913 0.0
H1661 H 0.35348 0.96248 0.04056 0.0
H1662 H 0.35617 0.97905 0.02716 0.0
H1663 H 0.37302 0.96674 0.03196 0.0
C1664 C 0.39403 0.99084 0.99728 0.0
C1665 C 0.40886 0.98355 0.99432 0.0
C1666 C 0.38016 0.98142 1.00013 0.0
C1667 C 0.38085 0.96452 1.00025 0.0
C1668 C 0.39567 0.9572 0.99749 0.0
H1669 H 0.29826 0.89903 0.02 0.0
H1670 H 0.32412 0.91395 0.02264 0.0
C1671 C 0.40954 0.96661 0.99458 0.0
C1672 C 0.36589 0.95449 0.00189 0.0
H1673 H 0.33259 0.94854 0.02528 0.0
C1674 C 0.36169 0.94368 0.98933 0.0
C1675 C 0.35554 0.95588 0.01528 0.0
C1676 C 0.35985 0.96654 0.02958 0.0
C1677 C 0.34713 0.93474 0.98947 0.0
C1678 C 0.33634 0.93685 0.00239 0.0
C1679 C 0.34081 0.94711 0.0153 0.0
C1680 C 0.32009 0.92905 0.00213 0.0
C1681 C 0.34333 0.9232 0.97569 0.0
C1682 C 0.30908 0.93306 0.99014 0.0
C1683 C 0.29441 0.92463 0.98859 0.0
C1684 C 0.29035 0.91202 0.99908 0.0
C1685 C 0.30101 0.90866 0.01172 0.0
C1686 C 0.31579 0.91713 0.01322 0.0
H1687 H 0.3544 0.91973 0.96917 0.0
H1688 H 0.33709 0.91207 0.97997 0.0
H1689 H 0.33526 0.9291 0.96704 0.0
H1690 H 0.31205 0.94245 0.98166 0.0
H1691 H 0.28643 0.92771 0.97885 0.0
H1692 H 0.25157 0.38276 0.32518 0.0
H1693 H 0.23071 0.40226 0.31963 0.0
H1694 H 0.23539 0.39271 0.26885 0.0
H1695 H 0.25611 0.37308 0.27427 0.0
H1696 H 0.2359 0.42555 0.27696 0.0
H1697 H 0.18391 0.3934 0.30488 0.0
H1698 H 0.20123 0.39626 0.31772 0.0
H1699 H 0.20247 0.38356 0.30011 0.0
C1700 C 0.24801 0.38463 0.31284 0.0
C1701 C 0.25554 0.37632 0.30017 0.0
C1702 C 0.23607 0.39578 0.30969 0.0
C1703 C 0.23135 0.39879 0.29384 0.0
C1704 C 0.23884 0.39055 0.28118 0.0
H1705 H 0.15003 0.45084 0.25718 0.0
H1706 H 0.16905 0.43035 0.26528 0.0
C1707 C 0.25075 0.3794 0.2843 0.0
C1708 C 0.21905 0.41095 0.29035 0.0
H1709 H 0.17958 0.42007 0.29614 0.0
C1710 C 0.22358 0.42435 0.28115 0.0
C1711 C 0.20296 0.40928 0.29569 0.0
C1712 C 0.19725 0.39479 0.30503 0.0
C1713 C 0.2125 0.4362 0.27728 0.0
C1714 C 0.1965 0.43473 0.28293 0.0
C1715 C 0.1919 0.42124 0.29197 0.0
C1716 C 0.18431 0.44692 0.27917 0.0
C1717 C 0.21794 0.45005 0.26689 0.0
C1718 C 0.18634 0.46293 0.28468 0.0
C1719 C 0.1755 0.47466 0.28009 0.0
C1720 C 0.16239 0.47058 0.26994 0.0
C1721 C 0.16003 0.45439 0.26497 0.0
C1722 C 0.17087 0.44266 0.26959 0.0
H1723 H 0.22933 0.44745 0.26052 0.0
H1724 H 0.20857 0.4528 0.25785 0.0
H1725 H 0.22005 0.46098 0.27455 0.0
H1726 H 0.19648 0.46641 0.29231 0.0
H1727 H 0.17763 0.487 0.28419 0.0
H1728 H 0.12501 0.99674 0.49554 0.0
H1729 H 0.1491 0.01409 0.49932 0.0
H1730 H 0.12162 0.05573 0.48748 0.0
H1731 H 0.09749 0.03856 0.48386 0.0
H1732 H 0.1505 0.05252 0.47001 0.0
H1733 H 0.16076 0.04711 0.53567 0.0
H1734 H 0.15848 0.02849 0.52441 0.0
H1735 H 0.14174 0.04165 0.5262 0.0
C1736 C 0.12402 0.00962 0.49401 0.0
C1737 C 0.10931 0.01625 0.48934 0.0
C1738 C 0.13781 0.01952 0.49618 0.0
C1739 C 0.13711 0.03621 0.49382 0.0
C1740 C 0.12242 0.04287 0.48937 0.0
H1741 H 0.20552 0.11126 0.52322 0.0
H1742 H 0.18322 0.09154 0.51998 0.0
C1743 C 0.10866 0.03302 0.48721 0.0
C1744 C 0.1518 0.04673 0.49502 0.0
H1745 H 0.18014 0.06213 0.52119 0.0
C1746 C 0.15699 0.05472 0.48121 0.0
C1747 C 0.16027 0.04942 0.5096 0.0
C1748 C 0.15503 0.04133 0.52488 0.0
C1749 C 0.17017 0.06565 0.48157 0.0
C1750 C 0.17866 0.06862 0.49624 0.0
C1751 C 0.17364 0.06019 0.50998 0.0
C1752 C 0.19222 0.08084 0.49792 0.0
C1753 C 0.17437 0.07393 0.46611 0.0
C1754 C 0.2049 0.08154 0.48677 0.0
C1755 C 0.21693 0.09364 0.48801 0.0
C1756 C 0.21714 0.1046 0.50101 0.0
C1757 C 0.20526 0.10322 0.51282 0.0
C1758 C 0.19266 0.09179 0.51105 0.0
H1759 H 0.16349 0.07568 0.45859 0.0
H1760 H 0.18031 0.08579 0.46828 0.0
H1761 H 0.18266 0.06626 0.45911 0.0
H1762 H 0.20551 0.07281 0.47701 0.0
H1763 H 0.22637 0.09412 0.47908 0.0
H1764 H 0.76361 0.13153 0.72816 0.0
H1765 H 0.74218 0.11183 0.73425 0.0
H1766 H 0.73627 0.10087 0.68375 0.0
H1767 H 0.75796 0.12039 0.67755 0.0
H1768 H 0.70997 0.11354 0.72202 0.0
H1769 H 0.73856 0.05581 0.70513 0.0
H1770 H 0.75013 0.07418 0.70928 0.0
H1771 H 0.73961 0.07154 0.69051 0.0
C1772 C 0.75797 0.12472 0.71836 0.0
C1773 C 0.76253 0.1275 0.70237 0.0
C1774 C 0.74568 0.11353 0.72186 0.0
C1775 C 0.73778 0.10477 0.70947 0.0
C1776 C 0.74239 0.10733 0.6935 0.0
H1777 H 0.65895 0.03305 0.71097 0.0
H1778 H 0.67974 0.05273 0.70257 0.0
C1779 C 0.75466 0.1186 0.68997 0.0
C1780 C 0.72398 0.09382 0.71328 0.0
H1781 H 0.71115 0.05434 0.71265 0.0
C1782 C 0.71023 0.10058 0.72002 0.0
C1783 C 0.72432 0.07697 0.71047 0.0
C1784 C 0.73897 0.0691 0.70355 0.0
C1785 C 0.69674 0.09096 0.72399 0.0
C1786 C 0.6971 0.07405 0.72151 0.0
C1787 C 0.71084 0.0673 0.71458 0.0
C1788 C 0.68353 0.06311 0.72634 0.0
C1789 C 0.68202 0.09907 0.73031 0.0
C1790 C 0.67867 0.06243 0.74247 0.0
C1791 C 0.66674 0.05129 0.74722 0.0
C1792 C 0.65939 0.04069 0.73594 0.0
C1793 C 0.66422 0.04136 0.71982 0.0
C1794 C 0.67611 0.05254 0.71505 0.0
H1795 H 0.68223 0.11221 0.72786 0.0
H1796 H 0.67108 0.09349 0.7247 0.0
H1797 H 0.68134 0.09754 0.7435 0.0
H1798 H 0.68453 0.07008 0.75152 0.0
H1799 H 0.66372 0.05053 0.75983 0.0
H1800 H 0.40987 0.04454 0.535 0.0
H1801 H 0.38691 0.06164 0.53015 0.0
H1802 H 0.36434 0.02378 0.50121 0.0
H1803 H 0.38684 0.00626 0.50669 0.0
H1804 H 0.37484 0.07328 0.50263 0.0
H1805 H 0.32842 0.03439 0.53159 0.0
H1806 H 0.34969 0.03108 0.5338 0.0
H1807 H 0.33914 0.02422 0.51593 0.0
C1808 C 0.39992 0.03971 0.52782 0.0
C1809 C 0.40021 0.0239 0.52138 0.0
C1810 C 0.38685 0.04959 0.52493 0.0
C1811 C 0.37374 0.04393 0.51554 0.0
C1812 C 0.37412 0.02831 0.50879 0.0
H1813 H 0.28491 0.08868 0.48474 0.0
H1814 H 0.30831 0.0714 0.48711 0.0
C1815 C 0.38714 0.01837 0.51176 0.0
C1816 C 0.35981 0.05448 0.51269 0.0
H1817 H 0.31902 0.05678 0.51717 0.0
C1818 C 0.36265 0.06968 0.50585 0.0
C1819 C 0.34387 0.04981 0.51691 0.0
C1820 C 0.34007 0.03406 0.52511 0.0
C1821 C 0.35 0.08023 0.50301 0.0
C1822 C 0.33411 0.07552 0.50719 0.0
C1823 C 0.33122 0.06031 0.51389 0.0
C1824 C 0.32036 0.08641 0.50517 0.0
C1825 C 0.35369 0.0963 0.49542 0.0
C1826 C 0.3194 0.10055 0.51456 0.0
C1827 C 0.30602 0.11039 0.51332 0.0
C1828 C 0.29337 0.10628 0.50261 0.0
C1829 C 0.29449 0.09222 0.49304 0.0
C1830 C 0.30782 0.08232 0.4944 0.0
H1831 H 0.36579 0.09669 0.48978 0.0
H1832 H 0.34451 0.09898 0.48617 0.0
H1833 H 0.35338 0.10596 0.50479 0.0
H1834 H 0.32885 0.10382 0.52311 0.0
H1835 H 0.30552 0.12111 0.52089 0.0
H1836 H 0.62871 0.51413 0.52141 0.0
H1837 H 0.65111 0.49636 0.5156 0.0
H1838 H 0.62211 0.45524 0.53001 0.0
H1839 H 0.5995 0.47282 0.53535 0.0
H1840 H 0.66727 0.4758 0.5361 0.0
H1841 H 0.63813 0.4416 0.48552 0.0
H1842 H 0.63039 0.4603 0.4933 0.0
H1843 H 0.62658 0.44176 0.5037 0.0
C1844 C 0.62702 0.50128 0.52316 0.0
C1845 C 0.61225 0.4949 0.52876 0.0
C1846 C 0.63988 0.49116 0.51995 0.0
C1847 C 0.63821 0.47446 0.52218 0.0
C1848 C 0.62358 0.46806 0.52795 0.0
H1849 H 0.71535 0.40518 0.52669 0.0
H1850 H 0.69337 0.42329 0.53295 0.0
C1851 C 0.61072 0.47817 0.53117 0.0
C1852 C 0.65184 0.46375 0.5186 0.0
H1853 H 0.66295 0.43185 0.49506 0.0
C1854 C 0.66636 0.4662 0.52711 0.0
C1855 C 0.65067 0.45136 0.50674 0.0
C1856 C 0.63567 0.44865 0.49666 0.0
C1857 C 0.67967 0.45646 0.52421 0.0
C1858 C 0.67835 0.44379 0.51266 0.0
C1859 C 0.66389 0.44147 0.50402 0.0
C1860 C 0.69191 0.43301 0.50904 0.0
C1861 C 0.69513 0.46002 0.53333 0.0
C1862 C 0.69821 0.43223 0.49345 0.0
C1863 C 0.7107 0.42184 0.4898 0.0
C1864 C 0.71715 0.41189 0.50165 0.0
C1865 C 0.71078 0.4127 0.51728 0.0
C1866 C 0.69826 0.42312 0.52091 0.0
H1867 H 0.69547 0.47241 0.53862 0.0
H1868 H 0.69615 0.45136 0.54329 0.0
H1869 H 0.70574 0.45865 0.52541 0.0
H1870 H 0.69344 0.43971 0.48409 0.0
H1871 H 0.71521 0.42153 0.47761 0.0
H1872 H 0.68302 0.25308 0.38462 0.0
H1873 H 0.68668 0.27277 0.40666 0.0
H1874 H 0.73804 0.27305 0.39934 0.0
H1875 H 0.73451 0.25351 0.37723 0.0
H1876 H 0.7288 0.26993 0.43166 0.0
H1877 H 0.69855 0.32104 0.40265 0.0
H1878 H 0.68683 0.30254 0.40344 0.0
H1879 H 0.70478 0.30343 0.3915 0.0
C1880 C 0.69508 0.25746 0.38759 0.0
C1881 C 0.70847 0.25175 0.37913 0.0
C1882 C 0.69714 0.26871 0.40018 0.0
C1883 C 0.71261 0.27451 0.40448 0.0
C1884 C 0.72599 0.26873 0.39618 0.0
H1885 H 0.75897 0.34148 0.47021 0.0
H1886 H 0.75142 0.32036 0.45055 0.0
C1887 C 0.72396 0.2575 0.38361 0.0
C1888 C 0.71496 0.28641 0.41781 0.0
H1889 H 0.70737 0.32515 0.42941 0.0
C1890 C 0.72411 0.28201 0.43118 0.0
C1891 C 0.70873 0.30211 0.41719 0.0
C1892 C 0.69928 0.30767 0.40289 0.0
C1893 C 0.72731 0.29294 0.44391 0.0
C1894 C 0.72142 0.30877 0.4431 0.0
C1895 C 0.7119 0.31303 0.42995 0.0
C1896 C 0.72585 0.32134 0.45528 0.0
C1897 C 0.73692 0.28742 0.45813 0.0
C1898 C 0.71395 0.3291 0.46427 0.0
C1899 C 0.71827 0.34129 0.47543 0.0
C1900 C 0.73447 0.34616 0.47734 0.0
C1901 C 0.74635 0.33819 0.46858 0.0
C1902 C 0.74207 0.326 0.45753 0.0
H1903 H 0.7363 0.27407 0.45921 0.0
H1904 H 0.74975 0.29111 0.45655 0.0
H1905 H 0.73258 0.29295 0.46949 0.0
H1906 H 0.70136 0.32569 0.46268 0.0
H1907 H 0.70898 0.34712 0.48233 0.0
H1908 H 0.54917 0.01759 0.91829 0.0
H1909 H 0.5653 0.01373 0.89407 0.0
H1910 H 0.52191 0.00618 0.86604 0.0
H1911 H 0.50569 0.00999 0.89022 0.0
H1912 H 0.54661 0.98478 0.85771 0.0
H1913 H 0.56865 0.04864 0.85989 0.0
H1914 H 0.57251 0.03753 0.87778 0.0
H1915 H 0.55211 0.04141 0.87201 0.0
C1916 C 0.54306 0.01511 0.90697 0.0
C1917 C 0.52614 0.01427 0.90615 0.0
C1918 C 0.55229 0.01288 0.89315 0.0
C1919 C 0.5448 0.00992 0.87822 0.0
C1920 C 0.52794 0.00847 0.87745 0.0
H1921 H 0.58248 0.03069 0.78513 0.0
H1922 H 0.56675 0.02768 0.80953 0.0
C1923 C 0.51869 0.01062 0.89128 0.0
C1924 C 0.55445 0.00919 0.86328 0.0
H1925 H 0.57944 0.03189 0.83973 0.0
C1926 C 0.55384 0.99504 0.85376 0.0
C1927 C 0.56371 0.02268 0.85809 0.0
C1928 C 0.56422 0.03849 0.86737 0.0
C1929 C 0.56226 0.99403 0.83917 0.0
C1930 C 0.57164 0.00747 0.8341 0.0
C1931 C 0.57231 0.02156 0.84368 0.0
C1932 C 0.58022 0.0077 0.81849 0.0
C1933 C 0.56068 0.9788 0.82908 0.0
C1934 C 0.59287 0.99722 0.8152 0.0
C1935 C 0.6019 0.99884 0.8011 0.0
C1936 C 0.59855 0.01111 0.79018 0.0
C1937 C 0.58551 0.02119 0.79331 0.0
C1938 C 0.57647 0.01949 0.80728 0.0
H1939 H 0.55033 0.97103 0.83288 0.0
H1940 H 0.55915 0.98167 0.81619 0.0
H1941 H 0.57181 0.9718 0.83032 0.0
H1942 H 0.59614 0.9882 0.82381 0.0
H1943 H 0.61193 0.99096 0.7991 0.0
H1944 H 0.28261 0.25647 0.37191 0.0
H1945 H 0.27869 0.23556 0.39199 0.0
H1946 H 0.328 0.24231 0.40754 0.0
H1947 H 0.33199 0.26351 0.38757 0.0
H1948 H 0.29792 0.20626 0.3945 0.0
H1949 H 0.30003 0.24543 0.44956 0.0
H1950 H 0.29571 0.25339 0.42999 0.0
H1951 H 0.31582 0.24786 0.43497 0.0
C1952 C 0.29257 0.25368 0.37973 0.0
C1953 C 0.30759 0.26173 0.3782 0.0
C1954 C 0.29034 0.24165 0.39112 0.0
C1955 C 0.30302 0.23748 0.40131 0.0
C1956 C 0.31803 0.24547 0.39988 0.0
H1957 H 0.28887 0.16694 0.47936 0.0
H1958 H 0.30314 0.18564 0.46129 0.0
C1959 C 0.32031 0.25748 0.3884 0.0
C1960 C 0.3004 0.22449 0.41311 0.0
H1961 H 0.29371 0.21789 0.45294 0.0
C1962 C 0.29723 0.20875 0.4073 0.0
C1963 C 0.29969 0.22774 0.42981 0.0
C1964 C 0.30291 0.24451 0.43657 0.0
C1965 C 0.29271 0.19629 0.4177 0.0
C1966 C 0.29098 0.19975 0.43428 0.0
C1967 C 0.29504 0.21528 0.44022 0.0
C1968 C 0.28292 0.18808 0.44512 0.0
C1969 C 0.28937 0.17961 0.41077 0.0
C1970 C 0.26685 0.18345 0.44209 0.0
C1971 C 0.25872 0.17293 0.45231 0.0
C1972 C 0.26642 0.16678 0.46592 0.0
C1973 C 0.2826 0.17139 0.46896 0.0
C1974 C 0.29076 0.18208 0.45868 0.0
H1975 H 0.29609 0.17767 0.39941 0.0
H1976 H 0.29268 0.17015 0.4194 0.0
H1977 H 0.27633 0.17816 0.40801 0.0
H1978 H 0.26048 0.18816 0.43188 0.0
H1979 H 0.24629 0.16969 0.4495 0.0
H1980 H 0.49519 0.51243 0.9057 0.0
H1981 H 0.47844 0.51841 0.88238 0.0
H1982 H 0.46339 0.46833 0.87863 0.0
H1983 H 0.48032 0.46215 0.90168 0.0
H1984 H 0.48058 0.50485 0.85097 0.0
H1985 H 0.42062 0.49272 0.87785 0.0
H1986 H 0.43862 0.49602 0.88983 0.0
H1987 H 0.43448 0.47667 0.88042 0.0
C1988 C 0.48838 0.50266 0.89989 0.0
C1989 C 0.48911 0.48679 0.90563 0.0
C1990 C 0.47874 0.50613 0.88662 0.0
C1991 C 0.4695 0.49387 0.87893 0.0
C1992 C 0.47015 0.47805 0.88461 0.0
H1993 H 0.43073 0.47856 0.78571 0.0
H1994 H 0.44696 0.48136 0.81008 0.0
C1995 C 0.47983 0.47454 0.89782 0.0
C1996 C 0.45972 0.49738 0.8645 0.0
H1997 H 0.42153 0.4942 0.84919 0.0
C1998 C 0.46764 0.50273 0.85063 0.0
C1999 C 0.44282 0.49484 0.86414 0.0
C2000 C 0.43358 0.48989 0.8789 0.0
C2001 C 0.4592 0.5048 0.83618 0.0
C2002 C 0.44245 0.50133 0.83558 0.0
C2003 C 0.4344 0.49678 0.84966 0.0
C2004 C 0.43333 0.50091 0.82022 0.0
C2005 C 0.46832 0.51043 0.8216 0.0
C2006 C 0.42023 0.51098 0.8178 0.0
C2007 C 0.41088 0.50946 0.80376 0.0
C2008 C 0.41434 0.49761 0.79207 0.0
C2009 C 0.42769 0.4878 0.79445 0.0
C2010 C 0.43707 0.48944 0.80835 0.0
H2011 H 0.47972 0.51694 0.82501 0.0
H2012 H 0.47142 0.4998 0.81408 0.0
H2013 H 0.46091 0.51849 0.81422 0.0
H2014 H 0.41709 0.51984 0.82689 0.0
H2015 H 0.40062 0.51711 0.80236 0.0
H2016 H 0.71025 0.77758 0.1127 0.0
H2017 H 0.71565 0.75862 0.0907 0.0
H2018 H 0.70665 0.71867 0.12225 0.0
H2019 H 0.70129 0.73756 0.14436 0.0
H2020 H 0.73905 0.7354 0.0888 0.0
H2021 H 0.67779 0.70738 0.08352 0.0
H2022 H 0.68182 0.72593 0.09463 0.0
H2023 H 0.68633 0.70687 0.10335 0.0
C2024 C 0.70947 0.76476 0.11499 0.0
C2025 C 0.7053 0.75909 0.1303 0.0
C2026 C 0.7125 0.75394 0.10238 0.0
C2027 C 0.71136 0.73724 0.10477 0.0
C2028 C 0.70726 0.73151 0.12004 0.0
H2029 H 0.7512 0.66307 0.04223 0.0
H2030 H 0.74551 0.68162 0.06448 0.0
C2031 C 0.7042 0.74233 0.13266 0.0
C2032 C 0.71486 0.72585 0.09137 0.0
H2033 H 0.69839 0.69525 0.06821 0.0
C2034 C 0.73016 0.72663 0.08428 0.0
C2035 C 0.70318 0.71455 0.08537 0.0
C2036 C 0.68631 0.71368 0.09199 0.0
C2037 C 0.73416 0.71629 0.07145 0.0
C2038 C 0.72262 0.7047 0.06573 0.0
C2039 C 0.70726 0.70404 0.07271 0.0
C2040 C 0.72611 0.69339 0.05227 0.0
C2041 C 0.75059 0.7181 0.06393 0.0
C2042 C 0.71685 0.69359 0.03815 0.0
C2043 C 0.71999 0.68294 0.02543 0.0
C2044 C 0.73244 0.67178 0.02658 0.0
C2045 C 0.7416 0.67154 0.04084 0.0
C2046 C 0.73843 0.6822 0.05356 0.0
H2047 H 0.75638 0.73001 0.0669 0.0
H2048 H 0.75847 0.70859 0.06853 0.0
H2049 H 0.74982 0.71671 0.05066 0.0
H2050 H 0.70723 0.70207 0.03693 0.0
H2051 H 0.71262 0.68345 0.0147 0.0
H2052 H 0.99136 0.05579 0.12109 0.0
H2053 H 0.97401 0.04985 0.14406 0.0
H2054 H 0.98091 0.99893 0.13654 0.0
H2055 H 0.998 0.00469 0.11341 0.0
H2056 H 0.9451 0.03011 0.1446 0.0
H2057 H 0.99271 0.00685 0.18443 0.0
H2058 H 0.99723 0.0187 0.16693 0.0
H2059 H 0.99173 0.99768 0.16474 0.0
C2060 C 0.9891 0.04332 0.12423 0.0
C2061 C 0.99617 0.03073 0.11542 0.0
C2062 C 0.97925 0.03995 0.13742 0.0
C2063 C 0.97638 0.02397 0.14214 0.0
C2064 C 0.98325 0.01137 0.1333 0.0
H2065 H 0.92129 0.9756 0.21579 0.0
H2066 H 0.93896 0.98313 0.19363 0.0
C2067 C 0.99305 0.01471 0.1201 0.0
C2068 C 0.9659 0.0204 0.15609 0.0
H2069 H 0.96571 0.00338 0.19316 0.0
C2070 C 0.9496 0.02436 0.15528 0.0
C2071 C 0.97182 0.01288 0.16996 0.0
C2072 C 0.98936 0.00888 0.1717 0.0
C2073 C 0.93894 0.02061 0.16781 0.0
C2074 C 0.94485 0.01301 0.18168 0.0
C2075 C 0.9612 0.00919 0.18253 0.0
C2076 C 0.93421 0.00864 0.19533 0.0
C2077 C 0.92136 0.02435 0.16586 0.0
C2078 C 0.92586 0.02051 0.20384 0.0
C2079 C 0.91567 0.01625 0.21651 0.0
C2080 C 0.91376 1.00002 0.22104 0.0
C2081 C 0.92244 0.98821 0.21268 0.0
C2082 C 0.93256 0.99249 0.19998 0.0
H2083 H 0.91809 0.02615 0.15307 0.0
H2084 H 0.91354 0.01452 0.1707 0.0
H2085 H 0.9188 0.03565 0.17259 0.0
H2086 H 0.92724 0.0331 0.20071 0.0
H2087 H 0.90929 0.0257 0.22273 0.0
H2088 H 0.29502 0.73584 0.10946 0.0
H2089 H 0.28906 0.75626 0.08955 0.0
H2090 H 0.30663 0.79368 0.12215 0.0
H2091 H 0.31245 0.77338 0.14222 0.0
H2092 H 0.26828 0.78219 0.09297 0.0
H2093 H 0.33078 0.80348 0.08019 0.0
H2094 H 0.32631 0.78476 0.09026 0.0
H2095 H 0.32554 0.80364 0.1011 0.0
C2096 C 0.29757 0.74842 0.11244 0.0
C2097 C 0.30423 0.75296 0.12746 0.0
C2098 C 0.29424 0.76006 0.101 0.0
C2099 C 0.2976 0.77645 0.10428 0.0
C2100 C 0.30426 0.78105 0.11923 0.0
H2101 H 0.25716 0.85795 0.05542 0.0
H2102 H 0.26577 0.83829 0.07508 0.0
C2103 C 0.30759 0.76943 0.13069 0.0
C2104 C 0.29351 0.78877 0.09231 0.0
H2105 H 0.30967 0.81864 0.06906 0.0
C2106 C 0.27733 0.79014 0.08771 0.0
C2107 C 0.30536 0.79901 0.08535 0.0
C2108 C 0.323 0.79761 0.08933 0.0
C2109 C 0.27264 0.80163 0.07653 0.0
C2110 C 0.28442 0.81217 0.06991 0.0
C2111 C 0.30064 0.81064 0.07429 0.0
C2112 C 0.28009 0.8247 0.05826 0.0
C2113 C 0.25513 0.80224 0.07171 0.0
C2114 C 0.28573 0.82389 0.04241 0.0
C2115 C 0.28087 0.83515 0.03114 0.0
C2116 C 0.27036 0.84747 0.03556 0.0
C2117 C 0.26519 0.84857 0.0516 0.0
C2118 C 0.27004 0.8373 0.06284 0.0
H2119 H 0.24836 0.79102 0.07492 0.0
H2120 H 0.24951 0.81252 0.07806 0.0
H2121 H 0.25388 0.8041 0.05859 0.0
H2122 H 0.29357 0.8143 0.03867 0.0
H2123 H 0.2851 0.834 0.0189 0.0
H2124 H 0.0381 0.48159 0.09567 0.0
H2125 H 0.0554 0.48576 0.11927 0.0
H2126 H 0.01421 0.49902 0.1474 0.0
H2127 H 0.9967 0.49437 0.12397 0.0
H2128 H 0.06078 0.51358 0.13734 0.0
H2129 H 0.03502 0.46476 0.17498 0.0
H2130 H 0.03099 0.46595 0.15371 0.0
H2131 H 0.02045 0.47855 0.1677 0.0
C2132 C 0.03266 0.48518 0.10693 0.0
C2133 C 0.01597 0.48753 0.10794 0.0
C2134 C 0.0426 0.48766 0.12038 0.0
C2135 C 0.03607 0.49246 0.13516 0.0
C2136 C 0.01946 0.49502 0.1362 0.0
H2137 H 0.08895 0.5353 0.21585 0.0
H2138 H 0.07096 0.5295 0.19315 0.0
C2139 C 0.0095 0.49254 0.12273 0.0
C2140 C 0.04677 0.49522 0.14933 0.0
H2141 H 0.05378 0.48302 0.18769 0.0
C2142 C 0.05928 0.50688 0.14834 0.0
C2143 C 0.04492 0.48631 0.16359 0.0
C2144 C 0.03222 0.47308 0.16508 0.0
C2145 C 0.06982 0.51005 0.1613 0.0
C2146 C 0.06764 0.50151 0.17574 0.0
C2147 C 0.05533 0.48965 0.17665 0.0
C2148 C 0.07809 0.50475 0.19001 0.0
C2149 C 0.08335 0.52235 0.15932 0.0
C2150 C 0.08771 0.49258 0.19614 0.0
C2151 C 0.098 0.49581 0.20923 0.0
C2152 C 0.09878 0.51127 0.21651 0.0
C2153 C 0.08877 0.52328 0.21055 0.0
C2154 C 0.07852 0.52003 0.19748 0.0
H2155 H 0.08591 0.52464 0.14646 0.0
H2156 H 0.07992 0.53393 0.16505 0.0
H2157 H 0.09456 0.51833 0.16519 0.0
H2158 H 0.08748 0.48067 0.19059 0.0
H2159 H 0.10547 0.48625 0.2135 0.0
H2160 H 0.37862 0.73125 0.24705 0.0
H2161 H 0.39806 0.73595 0.26885 0.0
H2162 H 0.41141 0.68607 0.26608 0.0
H2163 H 0.39221 0.68132 0.24397 0.0
H2164 H 0.39673 0.71912 0.2984 0.0
H2165 H 0.45527 0.71134 0.26741 0.0
H2166 H 0.43688 0.71537 0.25669 0.0
H2167 H 0.44028 0.69556 0.26418 0.0
C2168 C 0.38593 0.72135 0.25082 0.0
C2169 C 0.38388 0.70591 0.24374 0.0
C2170 C 0.39697 0.72404 0.26334 0.0
C2171 C 0.40628 0.71141 0.26896 0.0
C2172 C 0.40451 0.69605 0.26175 0.0
H2173 H 0.47642 0.70992 0.34782 0.0
H2174 H 0.45748 0.70169 0.32625 0.0
C2175 C 0.39342 0.69332 0.24924 0.0
C2176 C 0.41689 0.71411 0.28315 0.0
H2177 H 0.45616 0.71532 0.2956 0.0
C2178 C 0.40973 0.71831 0.29779 0.0
C2179 C 0.43381 0.71283 0.28234 0.0
C2180 C 0.4421 0.70864 0.26681 0.0
C2181 C 0.41903 0.72135 0.31165 0.0
C2182 C 0.43598 0.72051 0.31082 0.0
C2183 C 0.44315 0.71598 0.29623 0.0
C2184 C 0.44651 0.72501 0.32475 0.0
C2185 C 0.4106 0.72516 0.32714 0.0
C2186 C 0.4466 0.74082 0.33109 0.0
C2187 C 0.45737 0.74549 0.34335 0.0
C2188 C 0.46811 0.7344 0.34966 0.0
C2189 C 0.46799 0.71857 0.34339 0.0
C2190 C 0.45724 0.7139 0.33106 0.0
H2191 H 0.39766 0.72143 0.32673 0.0
H2192 H 0.41646 0.71897 0.33723 0.0
H2193 H 0.41138 0.73837 0.32945 0.0
H2194 H 0.43876 0.74973 0.32613 0.0
H2195 H 0.45775 0.75796 0.34744 0.0
H2196 H 0.98606 0.38903 0.0066 0.0
H2197 H 0.9914 0.36563 0.98944 0.0
H2198 H 0.98595 0.39472 0.94738 0.0
H2199 H 0.98057 0.41824 0.96451 0.0
H2200 H 0.96886 0.3666 0.94499 0.0
H2201 H 0.03116 0.35412 0.96407 0.0
H2202 H 0.01755 0.35525 0.98069 0.0
H2203 H 0.02155 0.37287 0.96886 0.0
C2204 C 0.98624 0.39053 0.99371 0.0
C2205 C 0.98293 0.40554 0.98694 0.0
C2206 C 0.98936 0.37714 0.9839 0.0
C2207 C 0.9894 0.37847 0.96712 0.0
C2208 C 0.9861 0.39343 0.96031 0.0
H2209 H 0.01463 0.29958 0.90032 0.0
H2210 H 0.01543 0.32519 0.91563 0.0
C2211 C 0.98292 0.40684 0.97011 0.0
C2212 C 0.99179 0.36401 0.95671 0.0
H2213 H 0.01699 0.33271 0.94969 0.0
C2214 C 0.97948 0.35931 0.9459 0.0
C2215 C 0.00575 0.3546 0.9577 0.0
C2216 C 0.01983 0.35955 0.96834 0.0
C2217 C 0.98041 0.34513 0.93657 0.0
C2218 C 0.99391 0.33521 0.93829 0.0
C2219 C 0.00656 0.34023 0.94856 0.0
C2220 C 0.99457 0.31924 0.93005 0.0
C2221 C 0.96687 0.34082 0.92501 0.0
C2222 C 0.98299 0.30724 0.93354 0.0
C2223 C 0.98249 0.29269 0.92489 0.0
C2224 C 0.99366 0.28974 0.91258 0.0
C2225 C 0.00585 0.30145 0.9097 0.0
C2226 C 0.0063 0.3161 0.91839 0.0
H2227 H 0.9599 0.35158 0.92181 0.0
H2228 H 0.97152 0.33521 0.91381 0.0
H2229 H 0.95848 0.33201 0.93071 0.0
H2230 H 0.97405 0.30928 0.94274 0.0
H2231 H 0.97305 0.28391 0.92761 0.0
H2232 H 0.63041 0.77569 0.25183 0.0
H2233 H 0.60922 0.77111 0.27166 0.0
H2234 H 0.60157 0.82229 0.27486 0.0
H2235 H 0.6226 0.827 0.25486 0.0
H2236 H 0.60413 0.80745 0.30488 0.0
H2237 H 0.56033 0.77448 0.26509 0.0
H2238 H 0.58015 0.76632 0.26494 0.0
H2239 H 0.57713 0.78623 0.25742 0.0
C2240 C 0.62407 0.78597 0.25655 0.0
C2241 C 0.62819 0.80171 0.25168 0.0
C2242 C 0.61197 0.78332 0.26791 0.0
C2243 C 0.60368 0.79634 0.27458 0.0
C2244 C 0.6078 0.81207 0.26983 0.0
H2245 H 0.51631 0.78524 0.33188 0.0
H2246 H 0.53621 0.7941 0.31204 0.0
C2247 C 0.61988 0.81474 0.25846 0.0
C2248 C 0.59103 0.79356 0.28683 0.0
H2249 H 0.55499 0.77396 0.29315 0.0
C2250 C 0.59333 0.80022 0.30231 0.0
C2251 C 0.57685 0.78431 0.28338 0.0
C2252 C 0.57333 0.77754 0.26677 0.0
C2253 C 0.58206 0.79747 0.31456 0.0
C2254 C 0.56821 0.78765 0.31128 0.0
C2255 C 0.56568 0.78139 0.29568 0.0
C2256 C 0.5564 0.78333 0.32393 0.0
C2257 C 0.58502 0.80516 0.33088 0.0
C2258 C 0.56115 0.77439 0.33723 0.0
C2259 C 0.54982 0.76932 0.34858 0.0
C2260 C 0.53349 0.77303 0.34681 0.0
C2261 C 0.5288 0.78224 0.33363 0.0
C2262 C 0.54015 0.78728 0.32226 0.0
H2263 H 0.59351 0.8157 0.33023 0.0
H2264 H 0.57359 0.80915 0.33634 0.0
H2265 H 0.59041 0.79619 0.33892 0.0
H2266 H 0.57356 0.77094 0.33861 0.0
H2267 H 0.55382 0.76217 0.35854 0.0
H2268 H 0.03643 0.13107 0.01324 0.0
H2269 H 0.03049 0.15363 0.99573 0.0
H2270 H 0.01629 0.12001 0.95786 0.0
H2271 H 0.02272 0.09744 0.97518 0.0
H2272 H 0.03388 0.144 0.94607 0.0
H2273 H 0.98693 0.16987 0.98506 0.0
H2274 H 0.00595 0.1686 0.99516 0.0
H2275 H 0.99533 0.15042 0.98866 0.0
C2276 C 0.03197 0.12852 1.0012 0.0
C2277 C 0.02993 0.11251 0.9956 0.0
C2278 C 0.02851 0.14141 0.99122 0.0
C2279 C 0.02258 0.13855 0.97557 0.0
C2280 C 0.02077 0.12255 0.9699 0.0
H2281 H 0.973 0.20804 0.91815 0.0
H2282 H 0.98087 0.18597 0.93526 0.0
C2283 C 0.02446 0.10966 0.97979 0.0
C2284 C 0.0184 0.15218 0.96505 0.0
H2285 H 0.99559 0.1858 0.9631 0.0
C2286 C 0.02546 0.15311 0.94978 0.0
C2287 C 0.00723 0.16396 0.96975 0.0
C2288 C 0.99829 0.1631 0.98548 0.0
C2289 C 0.02173 0.16549 0.93914 0.0
C2290 C 0.01103 0.17761 0.9441 0.0
C2291 C 0.00393 0.17664 0.95934 0.0
C2292 C 0.00649 0.19107 0.93348 0.0
C2293 C 0.02895 0.16513 0.92254 0.0
C2294 C 0.01824 0.20145 0.92685 0.0
C2295 C 0.01377 0.21399 0.91681 0.0
C2296 C 0.99743 0.21662 0.91348 0.0
C2297 C 0.98569 0.20641 0.92044 0.0
C2298 C 0.99018 0.19376 0.93026 0.0
H2299 H 0.03281 0.15283 0.91908 0.0
H2300 H 0.02025 0.16923 0.9134 0.0
H2301 H 0.03975 0.17329 0.92234 0.0
H2302 H 0.03087 0.19995 0.92951 0.0
H2303 H 0.02311 0.22173 0.9118 0.0
H2304 H 0.38695 0.33241 0.25433 0.0
H2305 H 0.40679 0.3269 0.23327 0.0
H2306 H 0.3946 0.27611 0.23531 0.0
H2307 H 0.37468 0.28149 0.25606 0.0
H2308 H 0.43399 0.30542 0.23469 0.0
H2309 H 0.38989 0.28742 0.18715 0.0
H2310 H 0.38441 0.29885 0.20486 0.0
H2311 H 0.38658 0.27736 0.20583 0.0
C2312 C 0.38843 0.32009 0.25019 0.0
C2313 C 0.37923 0.30738 0.25686 0.0
C2314 C 0.39981 0.31697 0.23824 0.0
C2315 C 0.402 0.30113 0.23262 0.0
C2316 C 0.39294 0.28844 0.23934 0.0
H2317 H 0.45722 0.24168 0.17312 0.0
H2318 H 0.43896 0.25535 0.19116 0.0
C2319 C 0.38167 0.29153 0.25131 0.0
C2320 C 0.41388 0.29762 0.21988 0.0
H2321 H 0.4171 0.27964 0.18293 0.0
C2322 C 0.43035 0.30005 0.22324 0.0
C2323 C 0.40904 0.29071 0.20494 0.0
C2324 C 0.39151 0.28856 0.20037 0.0
C2325 C 0.44215 0.2948 0.21242 0.0
C2326 C 0.43728 0.28714 0.19782 0.0
C2327 C 0.4208 0.28546 0.19416 0.0
C2328 C 0.4489 0.27927 0.18694 0.0
C2329 C 0.45968 0.29666 0.21703 0.0
C2330 C 0.46061 0.2882 0.17851 0.0
C2331 C 0.47122 0.28038 0.16808 0.0
C2332 C 0.47024 0.26349 0.16591 0.0
C2333 C 0.45844 0.25468 0.17444 0.0
C2334 C 0.44792 0.26248 0.18478 0.0
H2335 H 0.46133 0.30065 0.22974 0.0
H2336 H 0.46589 0.28508 0.21518 0.0
H2337 H 0.4656 0.30578 0.20925 0.0
H2338 H 0.46142 0.30121 0.17985 0.0
H2339 H 0.48009 0.28755 0.16167 0.0
H2340 H 0.52421 0.41624 0.04624 0.0
H2341 H 0.51967 0.39307 0.06371 0.0
H2342 H 0.5129 0.36198 0.02212 0.0
H2343 H 0.51765 0.38503 0.00454 0.0
H2344 H 0.49199 0.37038 0.06474 0.0
H2345 H 0.54968 0.34152 0.04902 0.0
H2346 H 0.54603 0.3625 0.04519 0.0
H2347 H 0.5372 0.34702 0.03238 0.0
C2348 C 0.52181 0.40446 0.04081 0.0
C2349 C 0.52139 0.40245 0.024 0.0
C2350 C 0.51911 0.39127 0.05081 0.0
C2351 C 0.51611 0.37581 0.04419 0.0
C2352 C 0.51535 0.3738 0.02744 0.0
H2353 H 0.48467 0.28768 0.09194 0.0
H2354 H 0.48646 0.3116 0.07505 0.0
C2355 C 0.51795 0.387 0.01743 0.0
C2356 C 0.51412 0.36175 0.05484 0.0
H2357 H 0.53198 0.32696 0.06593 0.0
C2358 C 0.5007 0.36086 0.06501 0.0
C2359 C 0.52561 0.34947 0.05526 0.0
C2360 C 0.54053 0.35014 0.04499 0.0
C2361 C 0.49838 0.34787 0.07548 0.0
C2362 C 0.50975 0.33547 0.07571 0.0
C2363 C 0.52324 0.33646 0.06565 0.0
C2364 C 0.50807 0.32146 0.08648 0.0
C2365 C 0.48396 0.34764 0.08642 0.0
C2366 C 0.51966 0.31904 0.09845 0.0
C2367 C 0.51866 0.30542 0.10812 0.0
C2368 C 0.50613 0.29385 0.10589 0.0
C2369 C 0.49443 0.29639 0.094 0.0
C2370 C 0.4954 0.31008 0.08438 0.0
H2371 H 0.47826 0.35961 0.08721 0.0
H2372 H 0.47486 0.33872 0.08171 0.0
H2373 H 0.48743 0.34395 0.0987 0.0
H2374 H 0.52956 0.32766 0.10023 0.0
H2375 H 0.5279 0.30382 0.11713 0.0
H2376 H 0.65138 0.20513 0.23446 0.0
H2377 H 0.62991 0.21025 0.21508 0.0
H2378 H 0.59611 0.21532 0.25387 0.0
H2379 H 0.61746 0.21019 0.2733 0.0
H2380 H 0.60095 0.19385 0.20928 0.0
H2381 H 0.5905 0.2569 0.22907 0.0
H2382 H 0.60801 0.24603 0.23512 0.0
H2383 H 0.58904 0.2426 0.245 0.0
C2384 C 0.63935 0.20722 0.23886 0.0
C2385 C 0.63616 0.20737 0.25544 0.0
C2386 C 0.62711 0.21022 0.22778 0.0
C2387 C 0.61148 0.21347 0.23305 0.0
C2388 C 0.60817 0.21325 0.24956 0.0
H2389 H 0.52302 0.20935 0.17732 0.0
H2390 H 0.5453 0.20455 0.1957 0.0
C2391 C 0.62039 0.2103 0.26064 0.0
C2392 C 0.59858 0.21686 0.22129 0.0
H2393 H 0.57127 0.24503 0.21088 0.0
C2394 C 0.5945 0.20506 0.20958 0.0
C2395 C 0.59034 0.23159 0.22154 0.0
C2396 C 0.59477 0.24508 0.23325 0.0
C2397 C 0.58216 0.20746 0.19834 0.0
C2398 C 0.57349 0.22193 0.19902 0.0
C2399 C 0.57781 0.23387 0.21049 0.0
C2400 C 0.5599 0.22493 0.18791 0.0
C2401 C 0.57867 0.19456 0.18572 0.0
C2402 C 0.56049 0.23827 0.17774 0.0
C2403 C 0.54769 0.24115 0.16728 0.0
C2404 C 0.53398 0.23079 0.16685 0.0
C2405 C 0.53338 0.21756 0.17724 0.0
C2406 C 0.54617 0.21471 0.1877 0.0
H2407 H 0.58904 0.18651 0.18406 0.0
H2408 H 0.56817 0.18703 0.18953 0.0
H2409 H 0.57571 0.19997 0.17399 0.0
H2410 H 0.57093 0.24637 0.17779 0.0
H2411 H 0.5486 0.25148 0.1595 0.0
H2412 H 0.49353 0.09403 0.04364 0.0
H2413 H 0.49701 0.11898 0.05947 0.0
H2414 H 0.49813 0.14653 0.01599 0.0
H2415 H 0.49472 0.12157 1.00002 0.0
H2416 H 0.52117 0.15721 0.03815 0.0
H2417 H 0.4612 0.15104 0.06654 0.0
H2418 H 0.47334 0.1337 0.0693 0.0
H2419 H 0.46696 0.13893 0.04941 0.0
C2420 C 0.49446 0.10541 0.03744 0.0
C2421 C 0.49368 0.10584 0.02058 0.0
C2422 C 0.49644 0.11965 0.04651 0.0
C2423 C 0.49751 0.13463 0.03892 0.0
C2424 C 0.49726 0.1351 0.02208 0.0
H2425 H 0.48177 0.22242 0.09546 0.0
H2426 H 0.47971 0.20054 0.07542 0.0
C2427 C 0.49536 0.12082 0.01298 0.0
C2428 C 0.49858 0.14979 0.04863 0.0
H2429 H 0.47907 0.17096 0.07762 0.0
C2430 C 0.51201 0.16024 0.04685 0.0
C2431 C 0.48637 0.15399 0.05958 0.0
C2432 C 0.47107 0.14393 0.06122 0.0
C2433 C 0.51385 0.17445 0.05621 0.0
C2434 C 0.50215 0.17807 0.068 0.0
C2435 C 0.48837 0.16797 0.06914 0.0
C2436 C 0.50388 0.19208 0.07942 0.0
C2437 C 0.52809 0.18557 0.05298 0.0
C2438 C 0.51811 0.19476 0.08842 0.0
C2439 C 0.5194 0.20756 0.09955 0.0
C2440 C 0.5062 0.21735 0.1025 0.0
C2441 C 0.49198 0.21474 0.09359 0.0
C2442 C 0.49084 0.20227 0.08212 0.0
H2443 H 0.53208 0.18443 0.0403 0.0
H2444 H 0.52526 0.19838 0.05547 0.0
H2445 H 0.53834 0.18221 0.06072 0.0
H2446 H 0.52815 0.1868 0.08708 0.0
H2447 H 0.53051 0.20949 0.10625 0.0
H2448 H 0.2487 0.37717 0.73347 0.0
H2449 H 0.2703 0.39717 0.73863 0.0
H2450 H 0.27041 0.40969 0.68858 0.0
H2451 H 0.2485 0.38991 0.68335 0.0
H2452 H 0.30083 0.39614 0.72334 0.0
H2453 H 0.27054 0.45405 0.71254 0.0
H2454 H 0.25948 0.43551 0.71655 0.0
H2455 H 0.26811 0.43875 0.69711 0.0
C2456 C 0.25306 0.38441 0.72361 0.0
C2457 C 0.24685 0.38195 0.70799 0.0
C2458 C 0.26547 0.39578 0.72657 0.0
C2459 C 0.27184 0.40502 0.71403 0.0
C2460 C 0.26549 0.40285 0.69848 0.0
H2461 H 0.35104 0.47669 0.71307 0.0
H2462 H 0.32958 0.45722 0.705 0.0
C2463 C 0.2531 0.39143 0.69548 0.0
C2464 C 0.28595 0.41596 0.71708 0.0
H2465 H 0.29861 0.45551 0.71755 0.0
C2466 C 0.30034 0.40913 0.72211 0.0
C2467 C 0.28531 0.43286 0.71526 0.0
C2468 C 0.27002 0.44082 0.71018 0.0
C2469 C 0.31414 0.41873 0.7254 0.0
C2470 C 0.31348 0.43568 0.72397 0.0
C2471 C 0.29913 0.44251 0.71867 0.0
C2472 C 0.32736 0.44655 0.72847 0.0
C2473 C 0.32942 0.4106 0.73001 0.0
C2474 C 0.33329 0.44699 0.7443 0.0
C2475 C 0.34553 0.45804 0.74887 0.0
C2476 C 0.3522 0.46875 0.73767 0.0
C2477 C 0.34633 0.46829 0.72183 0.0
C2478 C 0.33405 0.45724 0.71724 0.0
H2479 H 0.32907 0.39755 0.72675 0.0
H2480 H 0.33984 0.41645 0.72395 0.0
H2481 H 0.3312 0.41175 0.74319 0.0
H2482 H 0.32803 0.4392 0.7533 0.0
H2483 H 0.34933 0.45865 0.76133 0.0
H2484 H 0.25795 0.62356 0.8275 0.0
H2485 H 0.27825 0.6031 0.82301 0.0
H2486 H 0.27691 0.61206 0.77218 0.0
H2487 H 0.25677 0.63266 0.77655 0.0
H2488 H 0.27519 0.57907 0.77996 0.0
H2489 H 0.32599 0.61124 0.81143 0.0
H2490 H 0.30786 0.60891 0.82296 0.0
H2491 H 0.30793 0.62125 0.80543 0.0
C2492 C 0.2621 0.62132 0.81538 0.0
C2493 C 0.25574 0.62981 0.80239 0.0
C2494 C 0.2737 0.60961 0.81284 0.0
C2495 C 0.27923 0.6062 0.79729 0.0
C2496 C 0.27281 0.61452 0.78429 0.0
H2497 H 0.36185 0.5553 0.7632 0.0
H2498 H 0.34204 0.5751 0.77138 0.0
C2499 C 0.26124 0.62623 0.7868 0.0
C2500 C 0.29149 0.59378 0.79446 0.0
H2501 H 0.33064 0.58465 0.80211 0.0
C2502 C 0.2873 0.58025 0.78484 0.0
C2503 C 0.30732 0.59545 0.80072 0.0
C2504 C 0.31266 0.61005 0.81061 0.0
C2505 C 0.29851 0.56832 0.78131 0.0
C2506 C 0.31428 0.56987 0.78774 0.0
C2507 C 0.31849 0.58342 0.79734 0.0
C2508 C 0.3268 0.55796 0.78392 0.0
C2509 C 0.29352 0.55438 0.77036 0.0
C2510 C 0.32501 0.54183 0.78862 0.0
C2511 C 0.33633 0.53046 0.78398 0.0
C2512 C 0.34965 0.53505 0.77457 0.0
C2513 C 0.3517 0.55135 0.7704 0.0
C2514 C 0.3404 0.5627 0.77507 0.0
H2515 H 0.28222 0.55676 0.76372 0.0
H2516 H 0.30313 0.55179 0.76153 0.0
H2517 H 0.29146 0.54342 0.77763 0.0
H2518 H 0.31473 0.53799 0.79569 0.0
H2519 H 0.33444 0.51801 0.78743 0.0
H2520 H 0.90171 0.47787 0.46172 0.0
H2521 H 0.87772 0.46131 0.46744 0.0
H2522 H 0.87987 0.47676 0.51708 0.0
H2523 H 0.90416 0.49308 0.51161 0.0
H2524 H 0.87384 0.43583 0.49161 0.0
H2525 H 0.83347 0.48779 0.50062 0.0
H2526 H 0.85243 0.48969 0.4902 0.0
H2527 H 0.85216 0.48822 0.51166 0.0
C2528 C 0.89726 0.4776 0.47392 0.0
C2529 C 0.9049 0.48687 0.48619 0.0
C2530 C 0.88348 0.46819 0.47714 0.0
C2531 C 0.87697 0.46794 0.49264 0.0
C2532 C 0.88461 0.47697 0.50498 0.0
H2533 H 0.79802 0.40085 0.52016 0.0
H2534 H 0.82283 0.41759 0.52144 0.0
C2535 C 0.89846 0.48634 0.50181 0.0
C2536 C 0.86205 0.45832 0.49573 0.0
H2537 H 0.82185 0.46174 0.50311 0.0
C2538 C 0.86249 0.44145 0.4943 0.0
C2539 C 0.84729 0.46575 0.49914 0.0
C2540 C 0.84615 0.48386 0.50042 0.0
C2541 C 0.84846 0.4318 0.49594 0.0
C2542 C 0.83366 0.43924 0.49913 0.0
C2543 C 0.83327 0.4561 0.50081 0.0
C2544 C 0.81826 0.42984 0.4992 0.0
C2545 C 0.8494 0.41376 0.49364 0.0
C2546 C 0.80736 0.43148 0.48648 0.0
C2547 C 0.79327 0.42196 0.48568 0.0
C2548 C 0.78969 0.41066 0.49767 0.0
C2549 C 0.80038 0.40943 0.51073 0.0
C2550 C 0.8146 0.41892 0.51145 0.0
H2551 H 0.86139 0.41009 0.48923 0.0
H2552 H 0.84708 0.40778 0.50526 0.0
H2553 H 0.84004 0.40931 0.48497 0.0
H2554 H 0.80996 0.43987 0.47693 0.0
H2555 H 0.78529 0.42333 0.4755 0.0
H2556 H 0.75245 0.88719 0.82761 0.0
H2557 H 0.73155 0.90667 0.82209 0.0
H2558 H 0.73699 0.898 0.77125 0.0
H2559 H 0.75767 0.87833 0.77662 0.0
H2560 H 0.73738 0.93112 0.78057 0.0
H2561 H 0.68493 0.89729 0.80581 0.0
H2562 H 0.70212 0.89971 0.8189 0.0
H2563 H 0.7036 0.88776 0.80081 0.0
C2564 C 0.74905 0.88924 0.81526 0.0
C2565 C 0.75678 0.88116 0.80256 0.0
C2566 C 0.73711 0.9004 0.81213 0.0
C2567 C 0.73261 0.90367 0.79627 0.0
C2568 C 0.74028 0.89566 0.78358 0.0
H2569 H 0.65139 0.95394 0.75785 0.0
H2570 H 0.67094 0.93415 0.76634 0.0
C2571 C 0.75218 0.88448 0.78669 0.0
C2572 C 0.72028 0.91579 0.79279 0.0
H2573 H 0.68038 0.92386 0.79714 0.0
C2574 C 0.72492 0.92957 0.78421 0.0
C2575 C 0.70401 0.91363 0.79744 0.0
C2576 C 0.69826 0.89875 0.80614 0.0
C2577 C 0.71375 0.94129 0.78019 0.0
C2578 C 0.69752 0.93928 0.78506 0.0
C2579 C 0.69285 0.92545 0.79356 0.0
C2580 C 0.68514 0.95113 0.78086 0.0
C2581 C 0.71933 0.95554 0.77042 0.0
C2582 C 0.6864 0.96716 0.78652 0.0
C2583 C 0.67526 0.97851 0.78167 0.0
C2584 C 0.66259 0.97401 0.77113 0.0
C2585 C 0.66103 0.95781 0.76594 0.0
C2586 C 0.67218 0.94648 0.77079 0.0
H2587 H 0.73109 0.95341 0.76455 0.0
H2588 H 0.71034 0.9583 0.76102 0.0
H2589 H 0.7208 0.96631 0.77844 0.0
H2590 H 0.69614 0.97094 0.79453 0.0
H2591 H 0.67674 0.99086 0.78596 0.0
H2592 H 0.62179 0.51277 0.95912 0.0
H2593 H 0.64524 0.5309 0.96279 0.0
H2594 H 0.634 0.53642 0.01305 0.0
H2595 H 0.61047 0.51831 0.00946 0.0
H2596 H 0.64299 0.56256 0.97283 0.0
H2597 H 0.68273 0.52975 0.01412 0.0
H2598 H 0.66645 0.51986 0.00302 0.0
H2599 H 0.66232 0.53149 0.02085 0.0
C2600 C 0.62436 0.51776 0.97098 0.0
C2601 C 0.61419 0.51417 0.98398 0.0
C2602 C 0.63783 0.52802 0.97308 0.0
C2603 C 0.64149 0.53487 0.98823 0.0
C2604 C 0.63164 0.53099 1.00134 0.0
H2605 H 0.71022 0.60923 0.02183 0.0
H2606 H 0.68805 0.58916 0.01916 0.0
C2607 C 0.61815 0.52067 0.99925 0.0
C2608 C 0.65455 0.54737 0.98984 0.0
H2609 H 0.68981 0.55727 0.00935 0.0
C2610 C 0.6533 0.56134 0.98071 0.0
C2611 C 0.66788 0.54584 1.00029 0.0
C2612 C 0.67006 0.53087 0.01005 0.0
C2613 C 0.66487 0.57391 0.98186 0.0
C2614 C 0.67829 0.57244 0.99221 0.0
C2615 C 0.67954 0.55844 0.00141 0.0
C2616 C 0.69115 0.58528 0.99361 0.0
C2617 C 0.66223 0.58896 0.97251 0.0
C2618 C 0.70026 0.58983 0.98015 0.0
C2619 C 0.7128 0.60137 0.98166 0.0
C2620 C 0.71644 0.60863 0.99663 0.0
C2621 C 0.70741 0.60404 0.0101 0.0
C2622 C 0.69482 0.59253 0.00859 0.0
H2623 H 0.64969 0.58964 0.96793 0.0
H2624 H 0.66484 0.59966 0.98029 0.0
H2625 H 0.67047 0.58925 0.96208 0.0
H2626 H 0.69801 0.58409 0.96856 0.0
H2627 H 0.72004 0.60419 0.97124 0.0
H2628 H 0.25521 0.62453 0.17625 0.0
H2629 H 0.23416 0.60426 0.18223 0.0
H2630 H 0.24279 0.61173 0.23293 0.0
H2631 H 0.26343 0.6323 0.22711 0.0
H2632 H 0.23618 0.57531 0.19994 0.0
H2633 H 0.19419 0.61814 0.22823 0.0
H2634 H 0.21106 0.62476 0.2162 0.0
H2635 H 0.2141 0.61905 0.23671 0.0
C2636 C 0.25252 0.62196 0.18867 0.0
C2637 C 0.26096 0.6301 0.2012 0.0
C2638 C 0.24058 0.6103 0.19206 0.0
C2639 C 0.23677 0.60667 0.20802 0.0
C2640 C 0.24536 0.61454 0.22053 0.0
H2641 H 0.16972 0.54461 0.25826 0.0
H2642 H 0.19036 0.56433 0.24988 0.0
C2643 C 0.25729 0.62617 0.21717 0.0
C2644 C 0.22381 0.59467 0.21168 0.0
H2645 H 0.18818 0.59024 0.23139 0.0
C2646 C 0.22556 0.57856 0.20665 0.0
C2647 C 0.21001 0.59897 0.22047 0.0
C2648 C 0.20711 0.61619 0.2256 0.0
C2649 C 0.21407 0.56653 0.21063 0.0
C2650 C 0.20033 0.57083 0.21959 0.0
C2651 C 0.19859 0.58697 0.22444 0.0
C2652 C 0.1878 0.55878 0.22448 0.0
C2653 C 0.2171 0.54928 0.20574 0.0
C2654 C 0.17934 0.54923 0.213 0.0
C2655 C 0.16758 0.53793 0.21781 0.0
C2656 C 0.16373 0.53642 0.23411 0.0
C2657 C 0.17218 0.54594 0.24558 0.0
C2658 C 0.18402 0.5571 0.2408 0.0
H2659 H 0.23002 0.54741 0.20303 0.0
H2660 H 0.21333 0.54082 0.21531 0.0
H2661 H 0.21004 0.54619 0.19472 0.0
H2662 H 0.18177 0.55055 0.20032 0.0
H2663 H 0.16132 0.53054 0.20881 0.0
H2664 H 0.89918 0.5198 0.99573 0.0
H2665 H 0.8765 0.53725 0.99037 0.0
H2666 H 0.87488 0.55086 0.04047 0.0
H2667 H 0.89713 0.53304 0.04612 0.0
H2668 H 0.84393 0.53615 0.00775 0.0
H2669 H 0.87872 0.59425 0.01328 0.0
H2670 H 0.88814 0.57536 0.00855 0.0
H2671 H 0.88178 0.57963 0.02869 0.0
C2672 C 0.89391 0.52633 0.00568 0.0
C2673 C 0.90009 0.52498 0.02138 0.0
C2674 C 0.88101 0.53638 0.00255 0.0
C2675 C 0.87414 0.54543 0.015 0.0
C2676 C 0.88017 0.54411 0.03066 0.0
H2677 H 0.80074 0.6165 0.02509 0.0
H2678 H 0.82358 0.59875 0.02773 0.0
C2679 C 0.89297 0.53397 0.03384 0.0
C2680 C 0.86054 0.55615 0.01171 0.0
H2681 H 0.8505 0.59579 0.01051 0.0
C2682 C 0.84533 0.5492 0.00823 0.0
C2683 C 0.86246 0.57313 0.01244 0.0
C2684 C 0.87865 0.58114 0.01584 0.0
C2685 C 0.83182 0.5588 0.00592 0.0
C2686 C 0.83371 0.57585 0.00665 0.0
C2687 C 0.84903 0.58276 0.00992 0.0
C2688 C 0.81987 0.58674 0.00469 0.0
C2689 C 0.81558 0.55056 0.00333 0.0
C2690 C 0.81028 0.58614 0.99073 0.0
C2691 C 0.79708 0.59621 0.98925 0.0
C2692 C 0.79337 0.60725 0.00159 0.0
C2693 C 0.80325 0.60813 0.01535 0.0
C2694 C 0.81633 0.59798 0.01688 0.0
H2695 H 0.81547 0.53789 0.0075 0.0
H2696 H 0.80598 0.55712 0.00974 0.0
H2697 H 0.81266 0.55032 0.99032 0.0
H2698 H 0.81301 0.57789 0.98097 0.0
H2699 H 0.78978 0.59532 0.97844 0.0
H2700 H 0.12824 0.01354 0.02268 0.0
H2701 H 0.1506 0.99585 0.01651 0.0
H2702 H 0.12147 0.95446 0.0299 0.0
H2703 H 0.09888 0.97199 0.03564 0.0
H2704 H 0.16658 0.97457 0.03669 0.0
H2705 H 0.13755 0.94214 0.9849 0.0
H2706 H 0.12994 0.96069 0.99315 0.0
H2707 H 0.12597 0.94192 0.00306 0.0
C2708 C 0.12651 1.00066 0.02414 0.0
C2709 C 0.11172 0.99418 0.02956 0.0
C2710 C 0.13935 0.99058 0.02072 0.0
C2711 C 0.13763 0.97383 0.02256 0.0
C2712 C 0.12297 0.96733 0.02816 0.0
H2713 H 0.21532 0.90476 0.02382 0.0
H2714 H 0.19298 0.92208 0.031 0.0
C2715 C 0.11013 0.97739 0.0316 0.0
C2716 C 0.15124 0.9632 0.01869 0.0
H2717 H 0.16253 0.93236 0.99386 0.0
C2718 C 0.16571 0.96534 0.02733 0.0
C2719 C 0.15012 0.95128 0.00636 0.0
C2720 C 0.13512 0.94891 0.99621 0.0
C2721 C 0.17908 0.95578 0.02404 0.0
C2722 C 0.17784 0.94364 0.01193 0.0
C2723 C 0.1634 0.94159 0.00322 0.0
C2724 C 0.19154 0.93324 0.00774 0.0
C2725 C 0.19451 0.959 0.03331 0.0
C2726 C 0.19796 0.93354 0.9922 0.0
C2727 C 0.21068 0.92362 0.98802 0.0
C2728 C 0.21721 0.91308 0.99928 0.0
C2729 C 0.21068 0.91277 0.01485 0.0
C2730 C 0.19795 0.92273 0.01902 0.0
H2731 H 0.19469 0.97106 0.03934 0.0
H2732 H 0.19569 0.94975 0.04269 0.0
H2733 H 0.20511 0.95827 0.02528 0.0
H2734 H 0.19314 0.94151 0.98329 0.0
H2735 H 0.2153 0.92417 0.97589 0.0
loop_
_geom_bond_atom_site_label_1
_geom_bond_atom_site_label_2
_geom_bond_distance
_geom_bond_site_symmetry_2
_ccdc_geom_bond_type
C0 C1 1.384 . S
C0 H13 0.947 . S
C0 C35 1.382 1_655 S
C1 C0 1.384 . S
C1 C2 1.378 1_655 S
C2 C1 1.378 1_455 S
C2 C3 1.378 . S
C2 H14 0.952 . S
C3 C2 1.378 . S
C3 H15 0.950 . S
C3 C34 1.383 . S
H4 C23 0.956 . S
H5 C24 0.946 . S
H6 C26 0.953 . S
H7 C27 0.945 . S
H8 C29 0.948 1_556 S
H9 C30 0.949 . S
H10 C32 0.950 . S
H11 C33 0.948 . S
H12 C35 0.943 1_655 S
H13 C0 0.947 . S
H14 C2 0.952 . S
H15 C3 0.950 . S
N16 C19 1.382 . S
N16 C21 1.363 . S
N17 C19 1.371 . S
N17 C20 1.372 . S
N18 C20 1.361 . S
N18 C21 1.377 . S
C19 N16 1.382 . S
C19 N17 1.371 . S
C19 C22 1.480 . S
C20 N17 1.372 . S
C20 N18 1.361 . S
C20 C28 1.457 . S
C21 N16 1.363 . S
C21 N18 1.377 . S
C21 C34 1.479 . S
C22 C19 1.480 . S
C22 C23 1.383 . S
C22 C27 1.385 . S
C23 H4 0.956 . S
C23 C22 1.383 . S
C23 C24 1.388 1_545 S
C24 H5 0.946 . S
C24 C23 1.388 1_565 S
C24 C25 1.384 . S
C25 C24 1.384 . S
C25 C26 1.377 1_565 S
C26 H6 0.953 . S
C26 C25 1.377 1_545 S
C26 C27 1.369 . S
C27 H7 0.945 . S
C27 C22 1.385 . S
C27 C26 1.369 . S
C28 C20 1.457 . S
C28 C29 1.392 . S
C28 C33 1.364 . S
C29 H8 0.948 1_554 S
C29 C28 1.392 . S
C29 C30 1.373 1_554 S
C30 H9 0.949 . S
C30 C29 1.373 1_556 S
C30 C31 1.387 . S
C31 C30 1.387 . S
C31 C32 1.372 1_556 S
C32 H10 0.950 . S
C32 C31 1.372 1_554 S
C32 C33 1.379 . S
C33 H11 0.948 . S
C33 C28 1.364 . S
C33 C32 1.379 . S
C34 C3 1.383 . S
C34 C21 1.479 . S
C34 C35 1.398 . S
C35 C0 1.382 1_455 S
C35 H12 0.943 1_455 S
C35 C34 1.398 . S
C36 C37 1.384 . S
C36 H49 0.947 . S
C36 C71 1.382 . S
C37 C36 1.384 . S
C37 C38 1.378 . S
C38 C37 1.378 . S
C38 C39 1.378 . S
C38 H50 0.952 . S
C39 C38 1.378 . S
C39 H51 0.950 . S
C39 C70 1.383 . S
H40 C59 0.947 . S
H41 C60 0.946 . S
H42 C62 0.953 . S
H43 C63 0.945 . S
H44 C65 0.952 . S
H45 C66 0.949 . S
H46 C68 0.950 . S
H47 C69 0.948 . S
H48 C71 0.951 . S
H49 C36 0.947 . S
H50 C38 0.952 . S
H51 C39 0.950 . S
N52 C55 1.382 . S
N52 C57 1.363 . S
N53 C55 1.371 . S
N53 C56 1.372 . S
N54 C56 1.361 . S
N54 C57 1.377 . S
C55 N52 1.382 . S
C55 N53 1.371 . S
C55 C58 1.480 . S
C56 N53 1.372 . S
C56 N54 1.361 . S
C56 C64 1.457 . S
C57 N52 1.363 . S
C57 N54 1.377 . S
C57 C70 1.479 . S
C58 C55 1.480 . S
C58 C59 1.383 . S
C58 C63 1.385 . S
C59 H40 0.947 . S
C59 C58 1.383 . S
C59 C60 1.388 . S
C60 H41 0.946 . S
C60 C59 1.388 . S
C60 C61 1.384 . S
C61 C60 1.384 . S
C61 C62 1.377 . S
C62 H42 0.953 . S
C62 C61 1.377 . S
C62 C63 1.369 . S
C63 H43 0.945 . S
C63 C58 1.385 . S
C63 C62 1.369 . S
C64 C56 1.457 . S
C64 C65 1.372 . S
C64 C69 1.364 . S
C65 H44 0.952 . S
C65 C64 1.372 . S
C65 C66 1.389 . S
C66 H45 0.949 . S
C66 C65 1.389 . S
C66 C67 1.387 . S
C67 C66 1.387 . S
C67 C68 1.372 . S
C68 H46 0.950 . S
C68 C67 1.372 . S
C68 C69 1.379 . S
C69 H47 0.948 . S
C69 C64 1.364 . S
C69 C68 1.379 . S
C70 C39 1.383 . S
C70 C57 1.479 . S
C70 C71 1.398 . S
C71 C36 1.382 . S
C71 H48 0.951 . S
C71 C70 1.398 . S
C72 C73 1.384 1_554 S
C72 H85 0.947 . S
C72 C107 1.382 . S
C73 C72 1.384 1_556 S
C73 C74 1.378 . S
C74 C73 1.378 . S
C74 C75 1.378 . S
C74 H86 0.952 . S
C75 C74 1.378 . S
C75 H87 0.950 . S
C75 C106 1.383 1_556 S
H76 C95 0.947 . S
H77 C96 0.946 . S
H78 C98 0.953 . S
H79 C99 0.945 . S
H80 C101 0.952 . S
H81 C102 0.949 . S
H82 C104 0.950 . S
H83 C105 0.948 . S
H84 C107 0.951 . S
H85 C72 0.947 . S
H86 C74 0.952 . S
H87 C75 0.950 . S
N88 C91 1.382 . S
N88 C93 1.363 . S
N89 C91 1.371 . S
N89 C92 1.372 . S
N90 C92 1.361 . S
N90 C93 1.377 . S
C91 N88 1.382 . S
C91 N89 1.371 . S
C91 C94 1.480 . S
C92 N89 1.372 . S
C92 N90 1.361 . S
C92 C100 1.457 . S
C93 N88 1.363 . S
C93 N90 1.377 . S
C93 C106 1.479 . S
C94 C91 1.480 . S
C94 C95 1.383 . S
C94 C99 1.385 . S
C95 H76 0.947 . S
C95 C94 1.383 . S
C95 C96 1.388 . S
C96 H77 0.946 . S
C96 C95 1.388 . S
C96 C97 1.384 . S
C97 C96 1.384 . S
C97 C98 1.377 . S
C98 H78 0.953 . S
C98 C97 1.377 . S
C98 C99 1.369 . S
C99 H79 0.945 . S
C99 C94 1.385 . S
C99 C98 1.369 . S
C100 C92 1.457 . S
C100 C101 1.372 . S
C100 C105 1.364 1_655 S
C101 H80 0.952 . S
C101 C100 1.372 . S
C101 C102 1.389 . S
C102 H81 0.949 . S
C102 C101 1.389 . S
C102 C103 1.387 1_655 S
C103 C102 1.387 1_455 S
C103 C104 1.372 . S
C104 H82 0.950 . S
C104 C103 1.372 . S
C104 C105 1.379 . S
C105 H83 0.948 . S
C105 C100 1.364 1_455 S
C105 C104 1.379 . S
C106 C75 1.383 1_554 S
C106 C93 1.479 . S
C106 C107 1.398 . S
C107 C72 1.382 . S
C107 H84 0.951 . S
C107 C106 1.398 . S
C108 C109 1.384 . S
C108 H121 0.947 . S
C108 C143 1.382 . S
C109 C108 1.384 . S
C109 C110 1.378 . S
C110 C109 1.378 . S
C110 C111 1.378 . S
C110 H122 0.952 . S
C111 C110 1.378 . S
C111 H123 0.950 . S
C111 C142 1.383 . S
H112 C131 0.947 . S
H113 C132 0.946 . S
H114 C134 0.953 . S
H115 C135 0.945 . S
H116 C137 0.952 . S
H117 C138 0.949 . S
H118 C140 0.950 . S
H119 C141 0.948 . S
H120 C143 0.951 . S
H121 C108 0.947 . S
H122 C110 0.952 . S
H123 C111 0.950 . S
N124 C127 1.382 . S
N124 C129 1.363 . S
N125 C127 1.371 . S
N125 C128 1.372 . S
N126 C128 1.361 . S
N126 C129 1.377 . S
C127 N124 1.382 . S
C127 N125 1.371 . S
C127 C130 1.480 . S
C128 N125 1.372 . S
C128 N126 1.361 . S
C128 C136 1.457 . S
C129 N124 1.363 . S
C129 N126 1.377 . S
C129 C142 1.479 . S
C130 C127 1.480 . S
C130 C131 1.383 . S
C130 C135 1.385 . S
C131 H112 0.947 . S
C131 C130 1.383 . S
C131 C132 1.388 . S
C132 H113 0.946 . S
C132 C131 1.388 . S
C132 C133 1.384 . S
C133 C132 1.384 . S
C133 C134 1.377 . S
C134 H114 0.953 . S
C134 C133 1.377 . S
C134 C135 1.369 . S
C135 H115 0.945 . S
C135 C130 1.385 . S
C135 C134 1.369 . S
C136 C128 1.457 . S
C136 C137 1.372 . S
C136 C141 1.364 . S
C137 H116 0.952 . S
C137 C136 1.372 . S
C137 C138 1.389 . S
C138 H117 0.949 . S
C138 C137 1.389 . S
C138 C139 1.387 . S
C139 C138 1.387 . S
C139 C140 1.372 . S
C140 H118 0.950 . S
C140 C139 1.372 . S
C140 C141 1.379 . S
C141 H119 0.948 . S
C141 C136 1.364 . S
C141 C140 1.379 . S
C142 C111 1.383 . S
C142 C129 1.479 . S
C142 C143 1.398 . S
C143 C108 1.382 . S
C143 H120 0.951 . S
C143 C142 1.398 . S
C144 C145 1.384 . S
C144 H157 0.947 . S
C144 C179 1.382 . S
C145 C144 1.384 . S
C145 C146 1.378 . S
C146 C145 1.378 . S
C146 C147 1.378 . S
C146 H158 0.952 . S
C147 C146 1.378 . S
C147 H159 0.950 . S
C147 C178 1.383 . S
H148 C167 0.947 . S
H149 C168 0.946 . S
H150 C170 0.966 . S
H151 C171 0.945 . S
H152 C173 0.952 . S
H153 C174 0.949 . S
H154 C176 0.963 . S
H155 C177 0.948 . S
H156 C179 0.951 . S
H157 C144 0.947 . S
H158 C146 0.952 . S
H159 C147 0.950 . S
N160 C163 1.382 . S
N160 C165 1.363 . S
N161 C163 1.371 . S
N161 C164 1.372 . S
N162 C164 1.361 . S
N162 C165 1.377 . S
C163 N160 1.382 . S
C163 N161 1.371 . S
C163 C166 1.480 . S
C164 N161 1.372 . S
C164 N162 1.361 . S
C164 C172 1.457 . S
C165 N160 1.363 . S
C165 N162 1.377 . S
C165 C178 1.479 . S
C166 C163 1.480 . S
C166 C167 1.383 . S
C166 C171 1.385 . S
C167 H148 0.947 . S
C167 C166 1.383 . S
C167 C168 1.388 1_455 S
C168 H149 0.946 . S
C168 C167 1.388 1_655 S
C168 C169 1.384 . S
C169 C168 1.384 . S
C169 C170 1.377 1_655 S
C170 H150 0.966 . S
C170 C169 1.377 1_455 S
C170 C171 1.369 . S
C171 H151 0.945 . S
C171 C166 1.385 . S
C171 C170 1.369 . S
C172 C164 1.457 . S
C172 C173 1.372 1_565 S
C172 C177 1.364 . S
C173 H152 0.952 . S
C173 C172 1.372 1_545 S
C173 C174 1.389 . S
C174 H153 0.949 . S
C174 C173 1.389 . S
C174 C175 1.387 . S
C175 C174 1.387 . S
C175 C176 1.326 1_545 S
C176 H154 0.963 . S
C176 C175 1.326 1_565 S
C176 C177 1.414 . S
C177 H155 0.948 . S
C177 C172 1.364 . S
C177 C176 1.414 . S
C178 C147 1.383 . S
C178 C165 1.479 . S
C178 C179 1.398 . S
C179 C144 1.382 . S
C179 H156 0.951 . S
C179 C178 1.398 . S
C180 C181 1.384 . S
C180 H193 0.947 . S
C180 C215 1.382 . S
C181 C180 1.384 . S
C181 C182 1.378 . S
C182 C181 1.378 . S
C182 C183 1.378 . S
C182 H194 0.952 . S
C183 C182 1.378 . S
C183 H195 0.950 . S
C183 C214 1.383 . S
H184 C203 0.947 . S
H185 C204 0.946 . S
H186 C206 0.953 . S
H187 C207 0.945 . S
H188 C209 0.952 . S
H189 C210 0.949 . S
H190 C212 0.950 . S
H191 C213 0.948 . S
H192 C215 0.951 . S
H193 C180 0.947 . S
H194 C182 0.952 . S
H195 C183 0.950 . S
N196 C199 1.382 . S
N196 C201 1.363 . S
N197 C199 1.371 . S
N197 C200 1.372 . S
N198 C200 1.361 . S
N198 C201 1.377 . S
C199 N196 1.382 . S
C199 N197 1.371 . S
C199 C202 1.480 . S
C200 N197 1.372 . S
C200 N198 1.361 . S
C200 C208 1.457 . S
C201 N196 1.363 . S
C201 N198 1.377 . S
C201 C214 1.479 . S
C202 C199 1.480 . S
C202 C203 1.383 . S
C202 C207 1.385 . S
C203 H184 0.947 . S
C203 C202 1.383 . S
C203 C204 1.388 . S
C204 H185 0.946 . S
C204 C203 1.388 . S
C204 C205 1.384 . S
C205 C204 1.384 . S
C205 C206 1.377 . S
C206 H186 0.953 . S
C206 C205 1.377 . S
C206 C207 1.369 . S
C207 H187 0.945 . S
C207 C202 1.385 . S
C207 C206 1.369 . S
C208 C200 1.457 . S
C208 C209 1.372 . S
C208 C213 1.364 . S
C209 H188 0.952 . S
C209 C208 1.372 . S
C209 C210 1.389 . S
C210 H189 0.949 . S
C210 C209 1.389 . S
C210 C211 1.387 . S
C211 C210 1.387 . S
C211 C212 1.372 . S
C212 H190 0.950 . S
C212 C211 1.372 . S
C212 C213 1.379 . S
C213 H191 0.948 . S
C213 C208 1.364 . S
C213 C212 1.379 . S
C214 C183 1.383 . S
C214 C201 1.479 . S
C214 C215 1.398 . S
C215 C180 1.382 . S
C215 H192 0.951 . S
C215 C214 1.398 . S
C216 C217 1.384 . S
C216 H229 0.916 1_655 S
C216 C251 1.382 . S
C217 C216 1.384 . S
C217 C218 1.378 . S
C218 C217 1.378 . S
C218 C219 1.378 . S
C218 H230 0.952 . S
C219 C218 1.378 . S
C219 H231 0.950 . S
C219 C250 1.383 . S
H220 C239 0.947 . S
H221 C240 0.946 . S
H222 C242 0.953 . S
H223 C243 0.945 . S
H224 C245 0.952 . S
H225 C246 0.949 1_655 S
H226 C248 0.950 . S
H227 C249 0.948 . S
H228 C251 0.951 . S
H229 C216 0.916 1_455 S
H230 C218 0.952 . S
H231 C219 0.950 . S
N232 C235 1.382 . S
N232 C237 1.363 . S
N233 C235 1.371 . S
N233 C236 1.372 . S
N234 C236 1.361 . S
N234 C237 1.377 . S
C235 N232 1.382 . S
C235 N233 1.371 . S
C235 C238 1.480 . S
C236 N233 1.372 . S
C236 N234 1.361 . S
C236 C244 1.457 . S
C237 N232 1.363 . S
C237 N234 1.377 . S
C237 C250 1.479 . S
C238 C235 1.480 . S
C238 C239 1.383 . S
C238 C243 1.385 . S
C239 H220 0.947 . S
C239 C238 1.383 . S
C239 C240 1.388 . S
C240 H221 0.946 . S
C240 C239 1.388 . S
C240 C241 1.384 . S
C241 C240 1.384 . S
C241 C242 1.377 . S
C242 H222 0.953 . S
C242 C241 1.377 . S
C242 C243 1.369 . S
C243 H223 0.945 . S
C243 C238 1.385 . S
C243 C242 1.369 . S
C244 C236 1.457 . S
C244 C245 1.372 . S
C244 C249 1.364 1_655 S
C245 H224 0.952 . S
C245 C244 1.372 . S
C245 C246 1.389 1_655 S
C246 H225 0.949 1_455 S
C246 C245 1.389 1_455 S
C246 C247 1.386 . S
C247 C246 1.386 . S
C247 C248 1.372 . S
C248 H226 0.950 . S
C248 C247 1.372 . S
C248 C249 1.379 . S
C249 H227 0.948 . S
C249 C244 1.364 1_455 S
C249 C248 1.379 . S
C250 C219 1.383 . S
C250 C237 1.479 . S
C250 C251 1.398 . S
C251 C216 1.382 . S
C251 H228 0.951 . S
C251 C250 1.398 . S
C252 C253 1.384 . S
C252 H265 0.947 . S
C252 C287 1.382 . S
C253 C252 1.384 . S
C253 C254 1.378 . S
C254 C253 1.378 . S
C254 C255 1.378 . S
C254 H266 0.952 . S
C255 C254 1.378 . S
C255 H267 0.950 . S
C255 C286 1.383 . S
H256 C275 0.947 . S
H257 C276 0.946 . S
H258 C278 0.953 . S
H259 C279 0.945 . S
H260 C281 0.952 . S
H261 C282 0.949 . S
H262 C284 0.950 . S
H263 C285 0.948 . S
H264 C287 0.951 . S
H265 C252 0.947 . S
H266 C254 0.952 . S
H267 C255 0.950 . S
N268 C271 1.382 . S
N268 C273 1.363 . S
N269 C271 1.371 . S
N269 C272 1.372 . S
N270 C272 1.361 . S
N270 C273 1.377 . S
C271 N268 1.382 . S
C271 N269 1.371 . S
C271 C274 1.480 . S
C272 N269 1.372 . S
C272 N270 1.361 . S
C272 C280 1.457 . S
C273 N268 1.363 . S
C273 N270 1.377 . S
C273 C286 1.479 . S
C274 C271 1.480 . S
C274 C275 1.383 . S
C274 C279 1.385 . S
C275 H256 0.947 . S
C275 C274 1.383 . S
C275 C276 1.388 . S
C276 H257 0.946 . S
C276 C275 1.388 . S
C276 C277 1.384 . S
C277 C276 1.384 . S
C277 C278 1.377 . S
C278 H258 0.953 . S
C278 C277 1.377 . S
C278 C279 1.369 . S
C279 H259 0.945 . S
C279 C274 1.385 . S
C279 C278 1.369 . S
C280 C272 1.457 . S
C280 C281 1.372 . S
C280 C285 1.364 . S
C281 H260 0.952 . S
C281 C280 1.372 . S
C281 C282 1.389 . S
C282 H261 0.949 . S
C282 C281 1.389 . S
C282 C283 1.387 . S
C283 C282 1.387 . S
C283 C284 1.372 . S
C284 H262 0.950 . S
C284 C283 1.372 . S
C284 C285 1.379 . S
C285 H263 0.948 . S
C285 C280 1.364 . S
C285 C284 1.379 . S
C286 C255 1.383 . S
C286 C273 1.479 . S
C286 C287 1.398 . S
C287 C252 1.382 . S
C287 H264 0.951 . S
C287 C286 1.398 . S
C288 C289 1.384 . S
C288 H301 0.947 . S
C288 C323 1.382 . S
C289 C288 1.384 . S
C289 C290 1.378 . S
C290 C289 1.378 . S
C290 C291 1.378 . S
C290 H302 0.952 . S
C291 C290 1.378 . S
C291 H303 0.950 . S
C291 C322 1.383 . S
H292 C311 0.947 . S
H293 C312 0.946 . S
H294 C314 0.953 . S
H295 C315 0.945 . S
H296 C317 0.952 . S
H297 C318 0.949 . S
H298 C320 0.950 . S
H299 C321 0.948 . S
H300 C323 0.951 . S
H301 C288 0.947 . S
H302 C290 0.952 . S
H303 C291 0.950 . S
N304 C307 1.382 . S
N304 C309 1.363 . S
N305 C307 1.371 . S
N305 C308 1.372 . S
N306 C308 1.361 . S
N306 C309 1.377 . S
C307 N304 1.382 . S
C307 N305 1.371 . S
C307 C310 1.480 . S
C308 N305 1.372 . S
C308 N306 1.361 . S
C308 C316 1.457 . S
C309 N304 1.363 . S
C309 N306 1.377 . S
C309 C322 1.479 . S
C310 C307 1.480 . S
C310 C311 1.383 . S
C310 C315 1.385 . S
C311 H292 0.947 . S
C311 C310 1.383 . S
C311 C312 1.388 . S
C312 H293 0.946 . S
C312 C311 1.388 . S
C312 C313 1.384 . S
C313 C312 1.384 . S
C313 C314 1.377 . S
C314 H294 0.953 . S
C314 C313 1.377 . S
C314 C315 1.369 . S
C315 H295 0.945 . S
C315 C310 1.385 . S
C315 C314 1.369 . S
C316 C308 1.457 . S
C316 C317 1.372 . S
C316 C321 1.364 . S
C317 H296 0.952 . S
C317 C316 1.372 . S
C317 C318 1.389 . S
C318 H297 0.949 . S
C318 C317 1.389 . S
C318 C319 1.387 . S
C319 C318 1.387 . S
C319 C320 1.372 . S
C320 H298 0.950 . S
C320 C319 1.372 . S
C320 C321 1.379 . S
C321 H299 0.948 . S
C321 C316 1.364 . S
C321 C320 1.379 . S
C322 C291 1.383 . S
C322 C309 1.479 . S
C322 C323 1.398 . S
C323 C288 1.382 . S
C323 H300 0.951 . S
C323 C322 1.398 . S
C324 C325 1.384 . S
C324 H337 0.947 . S
C324 C359 1.382 . S
C325 C324 1.384 . S
C325 C326 1.378 . S
C326 C325 1.378 . S
C326 C327 1.378 . S
C326 H338 0.952 . S
C327 C326 1.378 . S
C327 H339 0.950 . S
C327 C358 1.383 . S
H328 C347 0.947 . S
H329 C348 0.946 . S
H330 C350 0.953 . S
H331 C351 0.945 . S
H332 C353 0.952 . S
H333 C354 0.949 . S
H334 C356 0.950 . S
H335 C357 0.948 . S
H336 C359 0.951 . S
H337 C324 0.947 . S
H338 C326 0.952 . S
H339 C327 0.950 . S
N340 C343 1.382 . S
N340 C345 1.363 . S
N341 C343 1.371 . S
N341 C344 1.372 . S
N342 C344 1.361 . S
N342 C345 1.377 . S
C343 N340 1.382 . S
C343 N341 1.371 . S
C343 C346 1.480 . S
C344 N341 1.372 . S
C344 N342 1.361 . S
C344 C352 1.457 . S
C345 N340 1.363 . S
C345 N342 1.377 . S
C345 C358 1.479 . S
C346 C343 1.480 . S
C346 C347 1.383 . S
C346 C351 1.385 1_565 S
C347 H328 0.947 . S
C347 C346 1.383 . S
C347 C348 1.388 . S
C348 H329 0.946 . S
C348 C347 1.388 . S
C348 C349 1.384 1_565 S
C349 C348 1.384 1_545 S
C349 C350 1.377 . S
C350 H330 0.953 . S
C350 C349 1.377 . S
C350 C351 1.369 . S
C351 H331 0.945 . S
C351 C346 1.385 1_545 S
C351 C350 1.369 . S
C352 C344 1.457 . S
C352 C353 1.372 . S
C352 C357 1.364 . S
C353 H332 0.952 . S
C353 C352 1.372 . S
C353 C354 1.389 . S
C354 H333 0.949 . S
C354 C353 1.389 . S
C354 C355 1.387 . S
C355 C354 1.387 . S
C355 C356 1.372 . S
C356 H334 0.950 . S
C356 C355 1.372 . S
C356 C357 1.379 . S
C357 H335 0.948 . S
C357 C352 1.364 . S
C357 C356 1.379 . S
C358 C327 1.383 . S
C358 C345 1.479 . S
C358 C359 1.398 . S
C359 C324 1.382 . S
C359 H336 0.951 . S
C359 C358 1.398 . S
C360 C361 1.384 . S
C360 H373 0.947 . S
C360 C395 1.382 . S
C361 C360 1.384 . S
C361 C362 1.378 . S
C362 C361 1.378 . S
C362 C363 1.378 . S
C362 H374 0.952 . S
C363 C362 1.378 . S
C363 H375 0.950 . S
C363 C394 1.383 . S
H364 C383 0.947 . S
H365 C384 0.946 . S
H366 C386 0.953 . S
H367 C387 0.945 . S
H368 C389 0.952 . S
H369 C390 0.949 . S
H370 C392 0.950 . S
H371 C393 0.948 . S
H372 C395 0.951 . S
H373 C360 0.947 . S
H374 C362 0.952 . S
H375 C363 0.950 . S
N376 C379 1.382 . S
N376 C381 1.363 . S
N377 C379 1.371 . S
N377 C380 1.372 . S
N378 C380 1.361 . S
N378 C381 1.377 . S
C379 N376 1.382 . S
C379 N377 1.371 . S
C379 C382 1.480 . S
C380 N377 1.372 . S
C380 N378 1.361 . S
C380 C388 1.457 . S
C381 N376 1.363 . S
C381 N378 1.377 . S
C381 C394 1.479 . S
C382 C379 1.480 . S
C382 C383 1.383 . S
C382 C387 1.385 . S
C383 H364 0.947 . S
C383 C382 1.383 . S
C383 C384 1.388 . S
C384 H365 0.946 . S
C384 C383 1.388 . S
C384 C385 1.384 . S
C385 C384 1.384 . S
C385 C386 1.377 . S
C386 H366 0.953 . S
C386 C385 1.377 . S
C386 C387 1.369 . S
C387 H367 0.945 . S
C387 C382 1.385 . S
C387 C386 1.369 . S
C388 C380 1.457 . S
C388 C389 1.372 . S
C388 C393 1.364 . S
C389 H368 0.952 . S
C389 C388 1.372 . S
C389 C390 1.389 . S
C390 H369 0.949 . S
C390 C389 1.389 . S
C390 C391 1.387 . S
C391 C390 1.387 . S
C391 C392 1.372 . S
C392 H370 0.950 . S
C392 C391 1.372 . S
C392 C393 1.379 . S
C393 H371 0.948 . S
C393 C388 1.364 . S
C393 C392 1.379 . S
C394 C363 1.383 . S
C394 C381 1.479 . S
C394 C395 1.398 . S
C395 C360 1.382 . S
C395 H372 0.951 . S
C395 C394 1.398 . S
C396 C397 1.384 . S
C396 H409 0.947 . S
C396 C431 1.382 . S
C397 C396 1.384 . S
C397 C398 1.378 . S
C398 C397 1.378 . S
C398 C399 1.378 . S
C398 H410 0.952 . S
C399 C398 1.378 . S
C399 H411 0.950 . S
C399 C430 1.383 . S
H400 C419 0.947 . S
H401 C420 0.946 . S
H402 C422 0.953 . S
H403 C423 0.945 . S
H404 C425 0.952 . S
H405 C426 0.949 . S
H406 C428 0.950 . S
H407 C429 0.948 . S
H408 C431 0.951 . S
H409 C396 0.947 . S
H410 C398 0.952 . S
H411 C399 0.950 . S
N412 C415 1.382 . S
N412 C417 1.363 . S
N413 C415 1.371 . S
N413 C416 1.372 . S
N414 C416 1.361 . S
N414 C417 1.377 . S
C415 N412 1.382 . S
C415 N413 1.371 . S
C415 C418 1.480 . S
C416 N413 1.372 . S
C416 N414 1.361 . S
C416 C424 1.457 . S
C417 N412 1.363 . S
C417 N414 1.377 . S
C417 C430 1.479 . S
C418 C415 1.480 . S
C418 C419 1.383 . S
C418 C423 1.385 . S
C419 H400 0.947 . S
C419 C418 1.383 . S
C419 C420 1.388 . S
C420 H401 0.946 . S
C420 C419 1.388 . S
C420 C421 1.384 . S
C421 C420 1.384 . S
C421 C422 1.377 . S
C422 H402 0.953 . S
C422 C421 1.377 . S
C422 C423 1.369 . S
C423 H403 0.945 . S
C423 C418 1.385 . S
C423 C422 1.369 . S
C424 C416 1.457 . S
C424 C425 1.372 . S
C424 C429 1.364 . S
C425 H404 0.952 . S
C425 C424 1.372 . S
C425 C426 1.389 . S
C426 H405 0.949 . S
C426 C425 1.389 . S
C426 C427 1.387 . S
C427 C426 1.387 . S
C427 C428 1.372 . S
C428 H406 0.950 . S
C428 C427 1.372 . S
C428 C429 1.379 . S
C429 H407 0.948 . S
C429 C424 1.364 . S
C429 C428 1.379 . S
C430 C399 1.383 . S
C430 C417 1.479 . S
C430 C431 1.398 . S
C431 C396 1.382 . S
C431 H408 0.951 . S
C431 C430 1.398 . S
C432 C433 1.384 . S
C432 H445 0.947 . S
C432 C467 1.382 . S
C433 C432 1.384 . S
C433 C434 1.378 . S
C434 C433 1.378 . S
C434 C435 1.378 . S
C434 H446 0.952 . S
C435 C434 1.378 . S
C435 H447 0.950 . S
C435 C466 1.383 . S
H436 C455 0.947 . S
H437 C456 0.946 . S
H438 C458 0.953 . S
H439 C459 0.945 . S
H440 C461 0.952 . S
H441 C462 0.949 . S
H442 C464 0.950 . S
H443 C465 0.948 . S
H444 C467 0.951 . S
H445 C432 0.947 . S
H446 C434 0.952 . S
H447 C435 0.950 . S
N448 C451 1.382 . S
N448 C453 1.363 . S
N449 C451 1.371 . S
N449 C452 1.372 . S
N450 C452 1.361 . S
N450 C453 1.377 . S
C451 N448 1.382 . S
C451 N449 1.371 . S
C451 C454 1.480 . S
C452 N449 1.372 . S
C452 N450 1.361 . S
C452 C460 1.457 . S
C453 N448 1.363 . S
C453 N450 1.377 . S
C453 C466 1.479 . S
C454 C451 1.480 . S
C454 C455 1.383 . S
C454 C459 1.385 . S
C455 H436 0.947 . S
C455 C454 1.383 . S
C455 C456 1.388 . S
C456 H437 0.946 . S
C456 C455 1.388 . S
C456 C457 1.384 . S
C457 C456 1.384 . S
C457 C458 1.377 . S
C458 H438 0.953 . S
C458 C457 1.377 . S
C458 C459 1.369 . S
C459 H439 0.945 . S
C459 C454 1.385 . S
C459 C458 1.369 . S
C460 C452 1.457 . S
C460 C461 1.372 . S
C460 C465 1.364 . S
C461 H440 0.952 . S
C461 C460 1.372 . S
C461 C462 1.389 . S
C462 H441 0.949 . S
C462 C461 1.389 . S
C462 C463 1.387 . S
C463 C462 1.387 . S
C463 C464 1.372 . S
C464 H442 0.950 . S
C464 C463 1.372 . S
C464 C465 1.379 . S
C465 H443 0.948 . S
C465 C460 1.364 . S
C465 C464 1.379 . S
C466 C435 1.383 . S
C466 C453 1.479 . S
C466 C467 1.398 . S
C467 C432 1.382 . S
C467 H444 0.951 . S
C467 C466 1.398 . S
C468 C469 1.384 . S
C468 H481 0.947 . S
C468 C503 1.343 1_554 S
C469 C468 1.384 . S
C469 C470 1.378 1_554 S
C470 C469 1.378 1_556 S
C470 C471 1.378 . S
C470 H482 0.952 . S
C471 C470 1.378 . S
C471 H483 0.950 . S
C471 C502 1.383 . S
H472 C491 0.947 . S
H473 C492 0.946 . S
H474 C494 0.953 . S
H475 C495 0.945 . S
H476 C497 0.952 . S
H477 C498 0.949 . S
H478 C500 0.950 . S
H479 C501 0.948 . S
H480 C503 0.942 1_554 S
H481 C468 0.947 . S
H482 C470 0.952 . S
H483 C471 0.950 . S
N484 C487 1.382 . S
N484 C489 1.363 . S
N485 C487 1.371 . S
N485 C488 1.372 . S
N486 C488 1.361 . S
N486 C489 1.377 . S
C487 N484 1.382 . S
C487 N485 1.371 . S
C487 C490 1.480 . S
C488 N485 1.372 . S
C488 N486 1.361 . S
C488 C496 1.457 . S
C489 N484 1.363 . S
C489 N486 1.377 . S
C489 C502 1.479 . S
C490 C487 1.480 . S
C490 C491 1.383 . S
C490 C495 1.385 . S
C491 H472 0.947 . S
C491 C490 1.383 . S
C491 C492 1.388 . S
C492 H473 0.946 . S
C492 C491 1.388 . S
C492 C493 1.384 . S
C493 C492 1.384 . S
C493 C494 1.377 . S
C494 H474 0.953 . S
C494 C493 1.377 . S
C494 C495 1.369 . S
C495 H475 0.945 . S
C495 C490 1.385 . S
C495 C494 1.369 . S
C496 C488 1.457 . S
C496 C497 1.372 . S
C496 C501 1.364 . S
C497 H476 0.952 . S
C497 C496 1.372 . S
C497 C498 1.389 . S
C498 H477 0.949 . S
C498 C497 1.389 . S
C498 C499 1.387 . S
C499 C498 1.387 . S
C499 C500 1.372 . S
C500 H478 0.950 . S
C500 C499 1.372 . S
C500 C501 1.379 . S
C501 H479 0.948 . S
C501 C496 1.364 . S
C501 C500 1.379 . S
C502 C471 1.383 . S
C502 C489 1.479 . S
C502 C503 1.448 . S
C503 C468 1.343 1_556 S
C503 H480 0.942 1_556 S
C503 C502 1.448 . S
C504 C505 1.384 . S
C504 H517 0.947 . S
C504 C539 1.382 . S
C505 C504 1.384 . S
C505 C506 1.378 . S
C506 C505 1.378 . S
C506 C507 1.378 . S
C506 H518 0.952 . S
C507 C506 1.378 . S
C507 H519 0.950 . S
C507 C538 1.383 . S
H508 C527 0.947 . S
H509 C528 0.946 . S
H510 C530 0.953 . S
H511 C531 0.945 . S
H512 C533 0.952 . S
H513 C534 0.949 . S
H514 C536 0.950 . S
H515 C537 0.948 . S
H516 C539 0.951 . S
H517 C504 0.947 . S
H518 C506 0.952 . S
H519 C507 0.950 . S
N520 C523 1.382 . S
N520 C525 1.363 . S
N521 C523 1.371 . S
N521 C524 1.372 . S
N522 C524 1.361 . S
N522 C525 1.377 . S
C523 N520 1.382 . S
C523 N521 1.371 . S
C523 C526 1.480 . S
C524 N521 1.372 . S
C524 N522 1.361 . S
C524 C532 1.457 . S
C525 N520 1.363 . S
C525 N522 1.377 . S
C525 C538 1.479 . S
C526 C523 1.480 . S
C526 C527 1.383 . S
C526 C531 1.385 . S
C527 H508 0.947 . S
C527 C526 1.383 . S
C527 C528 1.388 . S
C528 H509 0.946 . S
C528 C527 1.388 . S
C528 C529 1.384 . S
C529 C528 1.384 . S
C529 C530 1.377 . S
C530 H510 0.953 . S
C530 C529 1.377 . S
C530 C531 1.369 . S
C531 H511 0.945 . S
C531 C526 1.385 . S
C531 C530 1.369 . S
C532 C524 1.457 . S
C532 C533 1.372 . S
C532 C537 1.364 . S
C533 H512 0.952 . S
C533 C532 1.372 . S
C533 C534 1.389 . S
C534 H513 0.949 . S
C534 C533 1.389 . S
C534 C535 1.387 . S
C535 C534 1.387 . S
C535 C536 1.372 . S
C536 H514 0.950 . S
C536 C535 1.372 . S
C536 C537 1.379 . S
C537 H515 0.948 . S
C537 C532 1.364 . S
C537 C536 1.379 . S
C538 C507 1.383 . S
C538 C525 1.479 . S
C538 C539 1.398 . S
C539 C504 1.382 . S
C539 H516 0.951 . S
C539 C538 1.398 . S
C540 C541 1.394 . S
C540 H553 0.944 1_554 S
C540 C575 1.374 1_554 S
C541 C540 1.394 . S
C541 C542 1.378 . S
C542 C541 1.378 . S
C542 C543 1.378 . S
C542 H554 0.952 . S
C543 C542 1.378 . S
C543 H555 0.950 . S
C543 C574 1.383 1_554 S
H544 C563 0.947 . S
H545 C564 0.946 . S
H546 C566 0.953 . S
H547 C567 0.939 1_565 S
H548 C569 0.952 . S
H549 C570 0.949 . S
H550 C572 0.950 . S
H551 C573 0.948 . S
H552 C575 0.951 . S
H553 C540 0.944 1_556 S
H554 C542 0.952 . S
H555 C543 0.950 . S
N556 C559 1.382 . S
N556 C561 1.363 . S
N557 C559 1.371 . S
N557 C560 1.372 . S
N558 C560 1.361 . S
N558 C561 1.377 . S
C559 N556 1.382 . S
C559 N557 1.371 . S
C559 C562 1.480 . S
C560 N557 1.372 . S
C560 N558 1.361 . S
C560 C568 1.457 . S
C561 N556 1.363 . S
C561 N558 1.377 . S
C561 C574 1.479 . S
C562 C559 1.480 . S
C562 C563 1.383 . S
C562 C567 1.406 . S
C563 H544 0.947 . S
C563 C562 1.383 . S
C563 C564 1.388 . S
C564 H545 0.946 . S
C564 C563 1.388 . S
C564 C565 1.384 1_545 S
C565 C564 1.384 1_565 S
C565 C566 1.377 . S
C566 H546 0.953 . S
C566 C565 1.377 . S
C566 C567 1.355 1_565 S
C567 H547 0.939 1_545 S
C567 C562 1.406 . S
C567 C566 1.355 1_545 S
C568 C560 1.457 . S
C568 C569 1.372 . S
C568 C573 1.364 . S
C569 H548 0.952 . S
C569 C568 1.372 . S
C569 C570 1.389 . S
C570 H549 0.949 . S
C570 C569 1.389 . S
C570 C571 1.387 . S
C571 C570 1.387 . S
C571 C572 1.372 . S
C572 H550 0.950 . S
C572 C571 1.372 . S
C572 C573 1.379 . S
C573 H551 0.948 . S
C573 C568 1.364 . S
C573 C572 1.379 . S
C574 C543 1.383 1_556 S
C574 C561 1.479 . S
C574 C575 1.398 . S
C575 C540 1.374 1_556 S
C575 H552 0.951 . S
C575 C574 1.398 . S
Mn576 O581 2.095 . S
Mn576 O591 2.162 . S
Mn576 O592 2.297 . S
Mn576 O600 2.385 . S
Mn576 O601 2.209 1_554 S
Mn576 O602 2.094 . S
Mn577 O582 2.121 . S
Mn577 N584 2.257 . S
Mn577 N593 2.282 . S
Mn577 O601 2.215 . S
Mn577 O603 2.117 . S
C578 O600 1.234 1_556 S
C578 O601 1.283 . S
C579 O591 1.281 . S
C579 O592 1.236 . S
C580 O602 1.240 . S
C580 O603 1.264 1_554 S
O581 Mn576 2.095 . S
O581 C590 1.250 . S
O582 Mn577 2.121 . S
O582 C590 1.258 1_556 S
C583 N584 1.326 . S
C583 C587 1.460 . S
C583 H589 0.929 . S
N584 Mn577 2.257 . S
N584 C583 1.326 . S
N584 C588 1.362 . S
C585 C586 1.258 . S
C585 C588 1.431 . S
C585 C605 1.449 . S
C586 C585 1.258 . S
C586 C587 1.477 . S
C586 H606 0.931 . S
C587 C583 1.460 . S
C587 C586 1.477 . S
C587 H607 0.930 . S
C588 N584 1.362 . S
C588 C585 1.431 . S
C588 C598 1.476 . S
H589 C583 0.929 . S
C590 O581 1.250 . S
C590 O582 1.258 1_554 S
O591 Mn576 2.162 . S
O591 C579 1.281 . S
O592 Mn576 2.297 . S
O592 C579 1.236 . S
N593 Mn577 2.282 . S
N593 C594 1.328 . S
N593 C598 1.318 . S
C594 N593 1.328 . S
C594 C595 1.457 . S
C594 H599 0.929 . S
C595 C594 1.457 . S
C595 C596 1.291 . S
C595 H608 0.931 . S
C596 C595 1.291 . S
C596 C597 1.373 . S
C596 H609 0.929 . S
C597 C596 1.373 . S
C597 C598 1.396 . S
C597 C604 1.403 . S
C598 C588 1.476 . S
C598 N593 1.318 . S
C598 C597 1.396 . S
H599 C594 0.929 . S
O600 Mn576 2.385 . S
O600 C578 1.234 1_554 S
O601 Mn576 2.209 1_556 S
O601 Mn577 2.215 . S
O601 C578 1.283 . S
O602 Mn576 2.094 . S
O602 C580 1.240 . S
O603 Mn577 2.117 . S
O603 C580 1.264 1_556 S
C604 C597 1.403 . S
C604 C605 1.399 . S
C604 H610 0.929 . S
C605 C585 1.449 . S
C605 C604 1.399 . S
C605 H611 0.930 . S
H606 C586 0.931 . S
H607 C587 0.930 . S
H608 C595 0.931 . S
H609 C596 0.929 . S
H610 C604 0.929 . S
H611 C605 0.930 . S
Mn612 O617 2.095 . S
Mn612 O627 2.162 . S
Mn612 O628 2.297 . S
Mn612 O636 2.385 . S
Mn612 O637 2.209 . S
Mn612 O638 2.094 . S
Mn613 O618 2.121 . S
Mn613 N620 2.257 . S
Mn613 N629 2.282 . S
Mn613 O637 2.215 . S
Mn613 O639 2.117 . S
C614 O636 1.234 . S
C614 O637 1.283 . S
C615 O627 1.281 . S
C615 O628 1.236 . S
C616 O638 1.240 . S
C616 O639 1.264 . S
O617 Mn612 2.095 . S
O617 C626 1.250 . S
O618 Mn613 2.121 . S
O618 C626 1.258 . S
C619 N620 1.326 . S
C619 C623 1.460 . S
C619 H625 0.929 . S
N620 Mn613 2.257 . S
N620 C619 1.326 . S
N620 C624 1.362 . S
C621 C622 1.258 . S
C621 C624 1.431 . S
C621 C641 1.449 . S
C622 C621 1.258 . S
C622 C623 1.477 . S
C622 H642 0.931 . S
C623 C619 1.460 . S
C623 C622 1.477 . S
C623 H643 0.930 . S
C624 N620 1.362 . S
C624 C621 1.431 . S
C624 C634 1.476 . S
H625 C619 0.929 . S
C626 O617 1.250 . S
C626 O618 1.258 . S
O627 Mn612 2.162 . S
O627 C615 1.281 . S
O628 Mn612 2.297 . S
O628 C615 1.236 . S
N629 Mn613 2.282 . S
N629 C630 1.328 . S
N629 C634 1.318 . S
C630 N629 1.328 . S
C630 C631 1.457 . S
C630 H635 0.929 . S
C631 C630 1.457 . S
C631 C632 1.291 . S
C631 H644 0.931 . S
C632 C631 1.291 . S
C632 C633 1.373 . S
C632 H645 0.929 . S
C633 C632 1.373 . S
C633 C634 1.396 . S
C633 C640 1.403 . S
C634 C624 1.476 . S
C634 N629 1.318 . S
C634 C633 1.396 . S
H635 C630 0.929 . S
O636 Mn612 2.385 . S
O636 C614 1.234 . S
O637 Mn612 2.209 . S
O637 Mn613 2.215 . S
O637 C614 1.283 . S
O638 Mn612 2.094 . S
O638 C616 1.240 . S
O639 Mn613 2.117 . S
O639 C616 1.264 . S
C640 C633 1.403 . S
C640 C641 1.399 . S
C640 H646 0.929 . S
C641 C621 1.449 . S
C641 C640 1.399 . S
C641 H647 0.930 . S
H642 C622 0.931 . S
H643 C623 0.930 . S
H644 C631 0.931 . S
H645 C632 0.929 . S
H646 C640 0.929 . S
H647 C641 0.930 . S
Mn648 O653 2.095 1_554 S
Mn648 O663 2.162 . S
Mn648 O664 2.297 1_554 S
Mn648 O672 2.385 . S
Mn648 O673 2.209 1_554 S
Mn648 O674 2.094 . S
Mn649 O654 2.121 . S
Mn649 N656 2.257 . S
Mn649 N665 2.282 . S
Mn649 O673 2.215 . S
Mn649 O675 2.117 1_556 S
C650 O672 1.252 . S
C650 O673 1.271 1_554 S
C651 O663 1.281 . S
C651 O664 1.236 1_554 S
C652 O674 1.240 . S
C652 O675 1.264 . S
O653 Mn648 2.095 1_556 S
O653 C662 1.250 . S
O654 Mn649 2.121 . S
O654 C662 1.258 . S
C655 N656 1.326 . S
C655 C659 1.460 . S
C655 H661 0.929 . S
N656 Mn649 2.257 . S
N656 C655 1.326 . S
N656 C660 1.362 . S
C657 C658 1.258 . S
C657 C660 1.431 . S
C657 C677 1.449 . S
C658 C657 1.258 . S
C658 C659 1.477 . S
C658 H678 0.931 . S
C659 C655 1.460 . S
C659 C658 1.477 . S
C659 H679 0.930 . S
C660 N656 1.362 . S
C660 C657 1.431 . S
C660 C670 1.476 . S
H661 C655 0.929 . S
C662 O653 1.250 . S
C662 O654 1.258 . S
O663 Mn648 2.162 . S
O663 C651 1.281 . S
O664 Mn648 2.297 1_556 S
O664 C651 1.236 1_556 S
N665 Mn649 2.282 . S
N665 C666 1.328 1_556 S
N665 C670 1.318 . S
C666 N665 1.328 1_554 S
C666 C667 1.457 . S
C666 H671 0.929 . S
C667 C666 1.457 . S
C667 C668 1.291 . S
C667 H680 0.931 . S
C668 C667 1.291 . S
C668 C669 1.373 1_554 S
C668 H681 0.929 . S
C669 C668 1.373 1_556 S
C669 C670 1.396 . S
C669 C676 1.403 . S
C670 C660 1.476 . S
C670 N665 1.318 . S
C670 C669 1.396 . S
H671 C666 0.929 . S
O672 Mn648 2.385 . S
O672 C650 1.252 . S
O673 Mn648 2.209 1_556 S
O673 Mn649 2.215 . S
O673 C650 1.271 1_556 S
O674 Mn648 2.094 . S
O674 C652 1.240 . S
O675 Mn649 2.117 1_554 S
O675 C652 1.264 . S
C676 C669 1.403 . S
C676 C677 1.399 . S
C676 H682 0.929 . S
C677 C657 1.449 . S
C677 C676 1.399 . S
C677 H683 0.930 . S
H678 C658 0.931 . S
H679 C659 0.930 . S
H680 C667 0.931 . S
H681 C668 0.929 . S
H682 C676 0.929 . S
H683 C677 0.930 . S
Mn684 O689 2.095 . S
Mn684 O699 2.162 . S
Mn684 O700 2.297 . S
Mn684 O708 2.385 . S
Mn684 O709 2.209 1_545 S
Mn684 O710 2.094 . S
Mn685 O690 2.121 . S
Mn685 N692 2.257 . S
Mn685 N701 2.282 . S
Mn685 O709 2.215 . S
Mn685 O711 2.117 . S
C686 O708 1.234 1_565 S
C686 O709 1.283 . S
C687 O699 1.281 . S
C687 O700 1.236 . S
C688 O710 1.240 . S
C688 O711 1.264 1_545 S
O689 Mn684 2.095 . S
O689 C698 1.250 . S
O690 Mn685 2.121 . S
O690 C698 1.258 1_565 S
C691 N692 1.326 . S
C691 C695 1.460 . S
C691 H697 0.929 . S
N692 Mn685 2.257 . S
N692 C691 1.326 . S
N692 C696 1.362 . S
C693 C694 1.258 . S
C693 C696 1.431 . S
C693 C713 1.449 . S
C694 C693 1.258 . S
C694 C695 1.477 . S
C694 H714 0.931 . S
C695 C691 1.460 . S
C695 C694 1.477 . S
C695 H715 0.930 . S
C696 N692 1.362 . S
C696 C693 1.431 . S
C696 C706 1.476 . S
H697 C691 0.929 . S
C698 O689 1.250 . S
C698 O690 1.258 1_545 S
O699 Mn684 2.162 . S
O699 C687 1.281 . S
O700 Mn684 2.297 . S
O700 C687 1.236 . S
N701 Mn685 2.282 . S
N701 C702 1.328 . S
N701 C706 1.318 . S
C702 N701 1.328 . S
C702 C703 1.457 . S
C702 H707 0.929 . S
C703 C702 1.457 . S
C703 C704 1.291 . S
C703 H716 0.931 . S
C704 C703 1.291 . S
C704 C705 1.373 . S
C704 H717 0.929 . S
C705 C704 1.373 . S
C705 C706 1.396 . S
C705 C712 1.403 . S
C706 C696 1.476 . S
C706 N701 1.318 . S
C706 C705 1.396 . S
H707 C702 0.929 . S
O708 Mn684 2.385 . S
O708 C686 1.234 1_545 S
O709 Mn684 2.209 1_565 S
O709 Mn685 2.215 . S
O709 C686 1.283 . S
O710 Mn684 2.094 . S
O710 C688 1.240 . S
O711 Mn685 2.117 . S
O711 C688 1.264 1_565 S
C712 C705 1.403 . S
C712 C713 1.399 . S
C712 H718 0.929 . S
C713 C693 1.449 . S
C713 C712 1.399 . S
C713 H719 0.930 . S
H714 C694 0.931 . S
H715 C695 0.930 . S
H716 C703 0.931 . S
H717 C704 0.929 . S
H718 C712 0.929 . S
H719 C713 0.930 . S
Mn720 O725 2.095 . S
Mn720 O735 2.162 . S
Mn720 O736 2.297 . S
Mn720 O744 2.385 . S
Mn720 O745 2.209 . S
Mn720 O746 2.094 . S
Mn721 O726 2.121 . S
Mn721 N728 2.257 . S
Mn721 N737 2.282 . S
Mn721 O745 2.215 . S
Mn721 O747 2.117 . S
C722 O744 1.234 . S
C722 O745 1.283 . S
C723 O735 1.281 . S
C723 O736 1.236 . S
C724 O746 1.240 . S
C724 O747 1.264 . S
O725 Mn720 2.095 . S
O725 C734 1.250 . S
O726 Mn721 2.121 . S
O726 C734 1.258 . S
C727 N728 1.326 . S
C727 C731 1.460 . S
C727 H733 0.929 . S
N728 Mn721 2.257 . S
N728 C727 1.326 . S
N728 C732 1.362 . S
C729 C730 1.258 . S
C729 C732 1.431 . S
C729 C749 1.449 . S
C730 C729 1.258 . S
C730 C731 1.477 . S
C730 H750 0.931 . S
C731 C727 1.460 . S
C731 C730 1.477 . S
C731 H751 0.930 . S
C732 N728 1.362 . S
C732 C729 1.431 . S
C732 C742 1.476 . S
H733 C727 0.929 . S
C734 O725 1.250 . S
C734 O726 1.258 . S
O735 Mn720 2.162 . S
O735 C723 1.281 . S
O736 Mn720 2.297 . S
O736 C723 1.236 . S
N737 Mn721 2.282 . S
N737 C738 1.328 . S
N737 C742 1.318 . S
C738 N737 1.328 . S
C738 C739 1.457 . S
C738 H743 0.929 . S
C739 C738 1.457 . S
C739 C740 1.291 . S
C739 H752 0.931 . S
C740 C739 1.291 . S
C740 C741 1.373 . S
C740 H753 0.929 . S
C741 C740 1.373 . S
C741 C742 1.396 . S
C741 C748 1.403 . S
C742 C732 1.476 . S
C742 N737 1.318 . S
C742 C741 1.396 . S
H743 C738 0.929 . S
O744 Mn720 2.385 . S
O744 C722 1.234 . S
O745 Mn720 2.209 . S
O745 Mn721 2.215 . S
O745 C722 1.283 . S
O746 Mn720 2.094 . S
O746 C724 1.240 . S
O747 Mn721 2.117 . S
O747 C724 1.264 . S
C748 C741 1.403 . S
C748 C749 1.399 . S
C748 H754 0.929 . S
C749 C729 1.449 . S
C749 C748 1.399 . S
C749 H755 0.930 . S
H750 C730 0.931 . S
H751 C731 0.930 . S
H752 C739 0.931 . S
H753 C740 0.929 . S
H754 C748 0.929 . S
H755 C749 0.930 . S
Mn756 O761 2.095 . S
Mn756 O771 2.162 . S
Mn756 O772 2.297 . S
Mn756 O780 2.385 . S
Mn756 O781 2.209 . S
Mn756 O782 2.094 . S
Mn757 O762 2.121 . S
Mn757 N764 2.257 . S
Mn757 N773 2.282 . S
Mn757 O781 2.215 . S
Mn757 O783 2.117 . S
C758 O780 1.234 . S
C758 O781 1.283 . S
C759 O771 1.281 . S
C759 O772 1.236 . S
C760 O782 1.240 . S
C760 O783 1.264 . S
O761 Mn756 2.095 . S
O761 C770 1.250 . S
O762 Mn757 2.121 . S
O762 C770 1.258 . S
C763 N764 1.326 . S
C763 C767 1.460 . S
C763 H769 0.929 . S
N764 Mn757 2.257 . S
N764 C763 1.326 . S
N764 C768 1.362 . S
C765 C766 1.258 . S
C765 C768 1.431 . S
C765 C785 1.449 . S
C766 C765 1.258 . S
C766 C767 1.477 . S
C766 H786 0.931 . S
C767 C763 1.460 . S
C767 C766 1.477 . S
C767 H787 0.930 . S
C768 N764 1.362 . S
C768 C765 1.431 . S
C768 C778 1.476 . S
H769 C763 0.929 . S
C770 O761 1.250 . S
C770 O762 1.258 . S
O771 Mn756 2.162 . S
O771 C759 1.281 . S
O772 Mn756 2.297 . S
O772 C759 1.236 . S
N773 Mn757 2.282 . S
N773 C774 1.328 . S
N773 C778 1.318 . S
C774 N773 1.328 . S
C774 C775 1.457 . S
C774 H779 0.929 . S
C775 C774 1.457 . S
C775 C776 1.291 . S
C775 H788 0.931 . S
C776 C775 1.291 . S
C776 C777 1.373 . S
C776 H789 0.929 . S
C777 C776 1.373 . S
C777 C778 1.396 . S
C777 C784 1.403 . S
C778 C768 1.476 . S
C778 N773 1.318 . S
C778 C777 1.396 . S
H779 C774 0.929 . S
O780 Mn756 2.385 . S
O780 C758 1.234 . S
O781 Mn756 2.209 . S
O781 Mn757 2.215 . S
O781 C758 1.283 . S
O782 Mn756 2.094 . S
O782 C760 1.240 . S
O783 Mn757 2.117 . S
O783 C760 1.264 . S
C784 C777 1.403 . S
C784 C785 1.399 . S
C784 H790 0.929 . S
C785 C765 1.449 . S
C785 C784 1.399 . S
C785 H791 0.930 . S
H786 C766 0.931 . S
H787 C767 0.930 . S
H788 C775 0.931 . S
H789 C776 0.929 . S
H790 C784 0.929 . S
H791 C785 0.930 . S
Mn792 O797 2.095 . S
Mn792 O807 2.162 . S
Mn792 O808 2.297 . S
Mn792 O816 2.385 . S
Mn792 O817 2.209 . S
Mn792 O818 2.094 . S
Mn793 O798 2.121 . S
Mn793 N800 2.257 . S
Mn793 N809 2.282 . S
Mn793 O817 2.215 . S
Mn793 O819 2.117 . S
C794 O816 1.234 . S
C794 O817 1.283 . S
C795 O807 1.281 . S
C795 O808 1.236 . S
C796 O818 1.240 . S
C796 O819 1.264 . S
O797 Mn792 2.095 . S
O797 C806 1.250 . S
O798 Mn793 2.121 . S
O798 C806 1.258 . S
C799 N800 1.326 . S
C799 C803 1.460 . S
C799 H805 0.929 . S
N800 Mn793 2.257 . S
N800 C799 1.326 . S
N800 C804 1.362 . S
C801 C802 1.258 . S
C801 C804 1.431 . S
C801 C821 1.449 . S
C802 C801 1.258 . S
C802 C803 1.477 . S
C802 H822 0.931 . S
C803 C799 1.460 . S
C803 C802 1.477 . S
C803 H823 0.930 . S
C804 N800 1.362 . S
C804 C801 1.431 . S
C804 C814 1.476 . S
H805 C799 0.929 . S
C806 O797 1.250 . S
C806 O798 1.258 . S
O807 Mn792 2.162 . S
O807 C795 1.281 . S
O808 Mn792 2.297 . S
O808 C795 1.236 . S
N809 Mn793 2.282 . S
N809 C810 1.328 . S
N809 C814 1.318 . S
C810 N809 1.328 . S
C810 C811 1.457 . S
C810 H815 0.929 . S
C811 C810 1.457 . S
C811 C812 1.291 . S
C811 H824 0.931 . S
C812 C811 1.291 . S
C812 C813 1.373 . S
C812 H825 0.929 . S
C813 C812 1.373 . S
C813 C814 1.396 . S
C813 C820 1.403 . S
C814 C804 1.476 . S
C814 N809 1.318 . S
C814 C813 1.396 . S
H815 C810 0.929 . S
O816 Mn792 2.385 . S
O816 C794 1.234 . S
O817 Mn792 2.209 . S
O817 Mn793 2.215 . S
O817 C794 1.283 . S
O818 Mn792 2.094 . S
O818 C796 1.240 . S
O819 Mn793 2.117 . S
O819 C796 1.264 . S
C820 C813 1.403 . S
C820 C821 1.399 . S
C820 H826 0.929 . S
C821 C801 1.449 . S
C821 C820 1.399 . S
C821 H827 0.930 . S
H822 C802 0.931 . S
H823 C803 0.930 . S
H824 C811 0.931 . S
H825 C812 0.929 . S
H826 C820 0.929 . S
H827 C821 0.930 . S
Mn828 O833 2.095 . S
Mn828 O843 2.162 . S
Mn828 O844 2.297 . S
Mn828 O852 2.385 1_565 S
Mn828 O853 2.209 1_565 S
Mn828 O854 2.094 . S
Mn829 O834 2.121 . S
Mn829 N836 2.257 . S
Mn829 N845 2.282 . S
Mn829 O853 2.215 . S
Mn829 O855 2.117 . S
C830 O852 1.234 . S
C830 O853 1.283 . S
C831 O843 1.281 . S
C831 O844 1.236 . S
C832 O854 1.219 1_545 S
C832 O855 1.292 . S
O833 Mn828 2.095 . S
O833 C842 1.250 1_565 S
O834 Mn829 2.121 . S
O834 C842 1.258 . S
C835 N836 1.326 . S
C835 C839 1.460 . S
C835 H841 0.929 . S
N836 Mn829 2.257 . S
N836 C835 1.326 . S
N836 C840 1.362 . S
C837 C838 1.258 . S
C837 C840 1.431 . S
C837 C857 1.449 . S
C838 C837 1.258 . S
C838 C839 1.477 . S
C838 H858 0.931 . S
C839 C835 1.460 . S
C839 C838 1.477 . S
C839 H859 0.930 . S
C840 N836 1.362 . S
C840 C837 1.431 . S
C840 C850 1.476 . S
H841 C835 0.929 . S
C842 O833 1.250 1_545 S
C842 O834 1.258 . S
O843 Mn828 2.162 . S
O843 C831 1.281 . S
O844 Mn828 2.297 . S
O844 C831 1.236 . S
N845 Mn829 2.282 . S
N845 C846 1.328 . S
N845 C850 1.318 . S
C846 N845 1.328 . S
C846 C847 1.457 . S
C846 H851 0.929 . S
C847 C846 1.457 . S
C847 C848 1.291 . S
C847 H860 0.931 . S
C848 C847 1.291 . S
C848 C849 1.373 . S
C848 H861 0.929 . S
C849 C848 1.373 . S
C849 C850 1.396 . S
C849 C856 1.403 . S
C850 C840 1.476 . S
C850 N845 1.318 . S
C850 C849 1.396 . S
H851 C846 0.929 . S
O852 Mn828 2.385 1_545 S
O852 C830 1.234 . S
O853 Mn828 2.209 1_545 S
O853 Mn829 2.215 . S
O853 C830 1.283 . S
O854 Mn828 2.094 . S
O854 C832 1.219 1_565 S
O855 Mn829 2.117 . S
O855 C832 1.292 . S
C856 C849 1.403 . S
C856 C857 1.399 . S
C856 H862 0.929 . S
C857 C837 1.449 . S
C857 C856 1.399 . S
C857 H863 0.930 . S
H858 C838 0.931 . S
H859 C839 0.930 . S
H860 C847 0.931 . S
H861 C848 0.929 . S
H862 C856 0.929 . S
H863 C857 0.930 . S
Mn864 O869 2.095 . S
Mn864 O879 2.162 . S
Mn864 O880 2.297 . S
Mn864 O888 2.385 1_455 S
Mn864 O889 2.209 1_455 S
Mn864 O890 2.094 . S
Mn865 O870 2.121 . S
Mn865 N872 2.257 . S
Mn865 N881 2.282 . S
Mn865 O889 2.215 . S
Mn865 O891 2.117 . S
C866 O888 1.234 . S
C866 O889 1.283 . S
C867 O879 1.281 . S
C867 O880 1.236 . S
C868 O890 1.240 . S
C868 O891 1.264 1_455 S
O869 Mn864 2.095 . S
O869 C878 1.250 1_455 S
O870 Mn865 2.121 . S
O870 C878 1.258 . S
C871 N872 1.326 . S
C871 C875 1.460 . S
C871 H877 0.929 . S
N872 Mn865 2.257 . S
N872 C871 1.326 . S
N872 C876 1.362 . S
C873 C874 1.258 . S
C873 C876 1.431 . S
C873 C893 1.449 . S
C874 C873 1.258 . S
C874 C875 1.477 . S
C874 H894 0.931 . S
C875 C871 1.460 . S
C875 C874 1.477 . S
C875 H895 0.930 . S
C876 N872 1.362 . S
C876 C873 1.431 . S
C876 C886 1.476 . S
H877 C871 0.929 . S
C878 O869 1.250 1_655 S
C878 O870 1.258 . S
O879 Mn864 2.162 . S
O879 C867 1.281 . S
O880 Mn864 2.297 . S
O880 C867 1.236 . S
N881 Mn865 2.282 . S
N881 C882 1.328 . S
N881 C886 1.318 . S
C882 N881 1.328 . S
C882 C883 1.457 . S
C882 H887 0.929 . S
C883 C882 1.457 . S
C883 C884 1.291 . S
C883 H896 0.931 . S
C884 C883 1.291 . S
C884 C885 1.373 . S
C884 H897 0.929 . S
C885 C884 1.373 . S
C885 C886 1.396 . S
C885 C892 1.403 . S
C886 C876 1.476 . S
C886 N881 1.318 . S
C886 C885 1.396 . S
H887 C882 0.929 . S
O888 Mn864 2.385 1_655 S
O888 C866 1.234 . S
O889 Mn864 2.209 1_655 S
O889 Mn865 2.215 . S
O889 C866 1.283 . S
O890 Mn864 2.094 . S
O890 C868 1.240 . S
O891 Mn865 2.117 . S
O891 C868 1.264 1_655 S
C892 C885 1.403 . S
C892 C893 1.399 . S
C892 H898 0.929 . S
C893 C873 1.449 . S
C893 C892 1.399 . S
C893 H899 0.930 . S
H894 C874 0.931 . S
H895 C875 0.930 . S
H896 C883 0.931 . S
H897 C884 0.929 . S
H898 C892 0.929 . S
H899 C893 0.930 . S
Mn900 O905 2.095 . S
Mn900 O915 2.162 . S
Mn900 O916 2.297 . S
Mn900 O924 2.385 . S
Mn900 O925 2.209 . S
Mn900 O926 2.094 . S
Mn901 O906 2.121 . S
Mn901 N908 2.257 . S
Mn901 N917 2.282 . S
Mn901 O925 2.215 . S
Mn901 O927 2.117 . S
C902 O924 1.234 . S
C902 O925 1.283 . S
C903 O915 1.281 . S
C903 O916 1.236 . S
C904 O926 1.240 . S
C904 O927 1.264 . S
O905 Mn900 2.095 . S
O905 C914 1.250 . S
O906 Mn901 2.121 . S
O906 C914 1.258 . S
C907 N908 1.326 . S
C907 C911 1.460 . S
C907 H913 0.929 . S
N908 Mn901 2.257 . S
N908 C907 1.326 . S
N908 C912 1.362 . S
C909 C910 1.258 . S
C909 C912 1.431 . S
C909 C929 1.449 . S
C910 C909 1.258 . S
C910 C911 1.477 . S
C910 H930 0.931 . S
C911 C907 1.460 . S
C911 C910 1.477 . S
C911 H931 0.930 . S
C912 N908 1.362 . S
C912 C909 1.431 . S
C912 C922 1.476 . S
H913 C907 0.929 . S
C914 O905 1.250 . S
C914 O906 1.258 . S
O915 Mn900 2.162 . S
O915 C903 1.281 . S
O916 Mn900 2.297 . S
O916 C903 1.236 . S
N917 Mn901 2.282 . S
N917 C918 1.328 . S
N917 C922 1.318 . S
C918 N917 1.328 . S
C918 C919 1.457 . S
C918 H923 0.929 . S
C919 C918 1.457 . S
C919 C920 1.291 . S
C919 H932 0.931 . S
C920 C919 1.291 . S
C920 C921 1.373 . S
C920 H933 0.929 . S
C921 C920 1.373 . S
C921 C922 1.396 . S
C921 C928 1.403 . S
C922 C912 1.476 . S
C922 N917 1.318 . S
C922 C921 1.396 . S
H923 C918 0.929 . S
O924 Mn900 2.385 . S
O924 C902 1.234 . S
O925 Mn900 2.209 . S
O925 Mn901 2.215 . S
O925 C902 1.283 . S
O926 Mn900 2.094 . S
O926 C904 1.240 . S
O927 Mn901 2.117 . S
O927 C904 1.264 . S
C928 C921 1.403 . S
C928 C929 1.399 . S
C928 H934 0.929 . S
C929 C909 1.449 . S
C929 C928 1.399 . S
C929 H935 0.930 . S
H930 C910 0.931 . S
H931 C911 0.930 . S
H932 C919 0.931 . S
H933 C920 0.929 . S
H934 C928 0.929 . S
H935 C929 0.930 . S
Mn936 O941 2.095 1_455 S
Mn936 O951 2.162 . S
Mn936 O952 2.297 1_455 S
Mn936 O960 2.385 . S
Mn936 O961 2.209 1_455 S
Mn936 O962 2.094 . S
Mn937 O942 2.121 . S
Mn937 N944 2.257 . S
Mn937 N953 2.282 1_655 S
Mn937 O961 2.215 . S
Mn937 O963 2.117 1_655 S
C938 O960 1.234 . S
C938 O961 1.283 1_455 S
C939 O951 1.281 . S
C939 O952 1.236 1_455 S
C940 O962 1.240 . S
C940 O963 1.264 . S
O941 Mn936 2.095 1_655 S
O941 C950 1.250 . S
O942 Mn937 2.121 . S
O942 C950 1.258 . S
C943 N944 1.326 . S
C943 C947 1.460 . S
C943 H949 0.929 . S
N944 Mn937 2.257 . S
N944 C943 1.326 . S
N944 C948 1.362 . S
C945 C946 1.258 . S
C945 C948 1.431 . S
C945 C965 1.449 . S
C946 C945 1.258 . S
C946 C947 1.477 . S
C946 H966 0.931 . S
C947 C943 1.460 . S
C947 C946 1.477 . S
C947 H967 0.930 . S
C948 N944 1.362 . S
C948 C945 1.431 . S
C948 C958 1.476 . S
H949 C943 0.929 . S
C950 O941 1.250 . S
C950 O942 1.258 . S
O951 Mn936 2.162 . S
O951 C939 1.281 . S
O952 Mn936 2.297 1_655 S
O952 C939 1.236 1_655 S
N953 Mn937 2.282 1_455 S
N953 C954 1.328 . S
N953 C958 1.318 1_455 S
C954 N953 1.328 . S
C954 C955 1.457 . S
C954 H959 0.929 . S
C955 C954 1.457 . S
C955 C956 1.291 . S
C955 H968 0.931 . S
C956 C955 1.291 . S
C956 C957 1.373 1_455 S
C956 H969 0.929 . S
C957 C956 1.373 1_655 S
C957 C958 1.396 . S
C957 C964 1.403 . S
C958 C948 1.476 . S
C958 N953 1.318 1_655 S
C958 C957 1.396 . S
H959 C954 0.929 . S
O960 Mn936 2.385 . S
O960 C938 1.234 . S
O961 Mn936 2.209 1_655 S
O961 Mn937 2.215 . S
O961 C938 1.283 1_655 S
O962 Mn936 2.094 . S
O962 C940 1.240 . S
O963 Mn937 2.117 1_455 S
O963 C940 1.264 . S
C964 C957 1.403 . S
C964 C965 1.399 . S
C964 H970 0.929 . S
C965 C945 1.449 . S
C965 C964 1.399 . S
C965 H971 0.930 . S
H966 C946 0.931 . S
H967 C947 0.930 . S
H968 C955 0.931 . S
H969 C956 0.929 . S
H970 C964 0.929 . S
H971 C965 0.930 . S
Mn972 O977 2.095 . S
Mn972 O987 2.162 . S
Mn972 O988 2.297 . S
Mn972 O996 2.385 . S
Mn972 O997 2.209 . S
Mn972 O998 2.094 . S
Mn973 O978 2.121 . S
Mn973 N980 2.257 . S
Mn973 N989 2.282 . S
Mn973 O997 2.215 . S
Mn973 O999 2.117 . S
C974 O996 1.234 . S
C974 O997 1.283 . S
C975 O987 1.281 . S
C975 O988 1.236 . S
C976 O998 1.240 . S
C976 O999 1.264 . S
O977 Mn972 2.095 . S
O977 C986 1.250 . S
O978 Mn973 2.121 . S
O978 C986 1.258 . S
C979 N980 1.326 . S
C979 C983 1.460 . S
C979 H985 0.929 . S
N980 Mn973 2.257 . S
N980 C979 1.326 . S
N980 C984 1.362 . S
C981 C982 1.258 . S
C981 C984 1.431 . S
C981 C1001 1.449 . S
C982 C981 1.258 . S
C982 C983 1.477 . S
C982 H1002 0.931 . S
C983 C979 1.460 . S
C983 C982 1.477 . S
C983 H1003 0.930 . S
C984 N980 1.362 . S
C984 C981 1.431 . S
C984 C994 1.476 . S
H985 C979 0.929 . S
C986 O977 1.250 . S
C986 O978 1.258 . S
O987 Mn972 2.162 . S
O987 C975 1.281 . S
O988 Mn972 2.297 . S
O988 C975 1.236 . S
N989 Mn973 2.282 . S
N989 C990 1.328 . S
N989 C994 1.318 . S
C990 N989 1.328 . S
C990 C991 1.457 . S
C990 H995 0.929 . S
C991 C990 1.457 . S
C991 C992 1.291 . S
C991 H1004 0.931 . S
C992 C991 1.291 . S
C992 C993 1.373 . S
C992 H1005 0.929 . S
C993 C992 1.373 . S
C993 C994 1.396 . S
C993 C1000 1.403 . S
C994 C984 1.476 . S
C994 N989 1.318 . S
C994 C993 1.396 . S
H995 C990 0.929 . S
O996 Mn972 2.385 . S
O996 C974 1.234 . S
O997 Mn972 2.209 . S
O997 Mn973 2.215 . S
O997 C974 1.283 . S
O998 Mn972 2.094 . S
O998 C976 1.240 . S
O999 Mn973 2.117 . S
O999 C976 1.264 . S
C1000 C993 1.403 . S
C1000 C1001 1.399 . S
C1000 H1006 0.929 . S
C1001 C981 1.449 . S
C1001 C1000 1.399 . S
C1001 H1007 0.930 . S
H1002 C982 0.931 . S
H1003 C983 0.930 . S
H1004 C991 0.931 . S
H1005 C992 0.929 . S
H1006 C1000 0.929 . S
H1007 C1001 0.930 . S
H1008 C1016 0.929 . S
H1009 C1018 0.930 . S
H1010 C1020 0.930 . S
H1011 C1023 0.929 . S
H1012 C1026 0.930 . S
H1013 C1028 0.960 . S
H1014 C1028 0.960 . S
H1015 C1028 0.960 . S
C1016 H1008 0.929 . S
C1016 C1017 1.377 . S
C1016 C1018 1.384 . S
C1017 C1016 1.377 . S
C1017 C1023 1.390 . S
C1018 H1009 0.930 . S
C1018 C1016 1.384 . S
C1018 C1019 1.372 . S
C1019 C1018 1.372 . S
C1019 C1020 1.400 . S
C1019 C1024 1.490 . S
C1020 H1010 0.930 . S
C1020 C1019 1.400 . S
C1020 C1023 1.386 . S
H1021 C1037 0.930 . S
H1022 C1038 0.931 . S
C1023 H1011 0.929 . S
C1023 C1017 1.390 . S
C1023 C1020 1.386 . S
C1024 C1019 1.490 . S
C1024 C1026 1.395 . S
C1024 C1027 1.403 . S
H1025 C1031 0.930 . S
C1026 H1012 0.930 . S
C1026 C1024 1.395 . S
C1026 C1029 1.403 . S
C1027 C1024 1.403 . S
C1027 C1028 1.524 . S
C1027 C1031 1.400 . S
C1028 H1013 0.960 . S
C1028 H1014 0.960 . S
C1028 H1015 0.960 . S
C1028 C1027 1.524 . S
C1029 C1026 1.403 . S
C1029 C1030 1.392 . S
C1029 C1033 1.495 . S
C1030 C1029 1.392 . S
C1030 C1031 1.385 . S
C1030 C1032 1.478 . S
C1031 H1025 0.930 . S
C1031 C1027 1.400 . S
C1031 C1030 1.385 . S
C1032 C1030 1.478 . S
C1032 C1034 1.381 . S
C1032 C1038 1.383 . S
C1033 C1029 1.495 . S
C1033 H1039 0.959 . S
C1033 H1040 0.961 . S
C1033 H1041 0.960 . S
C1034 C1032 1.381 . S
C1034 C1035 1.394 . S
C1034 H1042 0.930 . S
C1035 C1034 1.394 . S
C1035 C1036 1.383 . S
C1035 H1043 0.929 . S
C1036 C1035 1.383 . S
C1036 C1037 1.377 . S
C1037 H1021 0.930 . S
C1037 C1036 1.377 . S
C1037 C1038 1.379 . S
C1038 H1022 0.931 . S
C1038 C1032 1.383 . S
C1038 C1037 1.379 . S
H1039 C1033 0.959 . S
H1040 C1033 0.961 . S
H1041 C1033 0.960 . S
H1042 C1034 0.930 . S
H1043 C1035 0.929 . S
H1044 C1052 0.929 . S
H1045 C1054 0.930 . S
H1046 C1056 0.930 . S
H1047 C1059 0.929 . S
H1048 C1062 0.930 . S
H1049 C1064 0.960 . S
H1050 C1064 0.960 . S
H1051 C1064 0.960 . S
C1052 H1044 0.929 . S
C1052 C1053 1.377 . S
C1052 C1054 1.384 . S
C1053 C1052 1.377 . S
C1053 C1059 1.390 . S
C1054 H1045 0.930 . S
C1054 C1052 1.384 . S
C1054 C1055 1.372 . S
C1055 C1054 1.372 . S
C1055 C1056 1.400 . S
C1055 C1060 1.490 . S
C1056 H1046 0.930 . S
C1056 C1055 1.400 . S
C1056 C1059 1.386 . S
H1057 C1073 0.930 . S
H1058 C1074 0.931 . S
C1059 H1047 0.929 . S
C1059 C1053 1.390 . S
C1059 C1056 1.386 . S
C1060 C1055 1.490 . S
C1060 C1062 1.395 . S
C1060 C1063 1.403 . S
H1061 C1067 0.930 . S
C1062 H1048 0.930 . S
C1062 C1060 1.395 . S
C1062 C1065 1.403 . S
C1063 C1060 1.403 . S
C1063 C1064 1.524 . S
C1063 C1067 1.400 . S
C1064 H1049 0.960 . S
C1064 H1050 0.960 . S
C1064 H1051 0.960 . S
C1064 C1063 1.524 . S
C1065 C1062 1.403 . S
C1065 C1066 1.392 . S
C1065 C1069 1.495 . S
C1066 C1065 1.392 . S
C1066 C1067 1.385 . S
C1066 C1068 1.478 . S
C1067 H1061 0.930 . S
C1067 C1063 1.400 . S
C1067 C1066 1.385 . S
C1068 C1066 1.478 . S
C1068 C1070 1.381 . S
C1068 C1074 1.383 . S
C1069 C1065 1.495 . S
C1069 H1075 0.959 . S
C1069 H1076 0.961 . S
C1069 H1077 0.960 . S
C1070 C1068 1.381 . S
C1070 C1071 1.394 . S
C1070 H1078 0.930 . S
C1071 C1070 1.394 . S
C1071 C1072 1.383 . S
C1071 H1079 0.929 . S
C1072 C1071 1.383 . S
C1072 C1073 1.377 . S
C1073 H1057 0.930 . S
C1073 C1072 1.377 . S
C1073 C1074 1.379 . S
C1074 H1058 0.931 . S
C1074 C1068 1.383 . S
C1074 C1073 1.379 . S
H1075 C1069 0.959 . S
H1076 C1069 0.961 . S
H1077 C1069 0.960 . S
H1078 C1070 0.930 . S
H1079 C1071 0.929 . S
H1080 C1088 0.929 . S
H1081 C1090 0.930 . S
H1082 C1092 0.930 . S
H1083 C1095 0.929 . S
H1084 C1098 0.930 . S
H1085 C1100 0.960 . S
H1086 C1100 0.960 . S
H1087 C1100 0.960 . S
C1088 H1080 0.929 . S
C1088 C1089 1.377 . S
C1088 C1090 1.384 . S
C1089 C1088 1.377 . S
C1089 C1095 1.390 . S
C1090 H1081 0.930 . S
C1090 C1088 1.384 . S
C1090 C1091 1.372 . S
C1091 C1090 1.372 . S
C1091 C1092 1.400 . S
C1091 C1096 1.490 . S
C1092 H1082 0.930 . S
C1092 C1091 1.400 . S
C1092 C1095 1.386 . S
H1093 C1109 0.930 . S
H1094 C1110 0.931 . S
C1095 H1083 0.929 . S
C1095 C1089 1.390 . S
C1095 C1092 1.386 . S
C1096 C1091 1.490 . S
C1096 C1098 1.395 . S
C1096 C1099 1.403 . S
H1097 C1103 0.930 . S
C1098 H1084 0.930 . S
C1098 C1096 1.395 . S
C1098 C1101 1.403 . S
C1099 C1096 1.403 . S
C1099 C1100 1.524 . S
C1099 C1103 1.400 . S
C1100 H1085 0.960 . S
C1100 H1086 0.960 . S
C1100 H1087 0.960 . S
C1100 C1099 1.524 . S
C1101 C1098 1.403 . S
C1101 C1102 1.392 . S
C1101 C1105 1.495 . S
C1102 C1101 1.392 . S
C1102 C1103 1.385 . S
C1102 C1104 1.478 . S
C1103 H1097 0.930 . S
C1103 C1099 1.400 . S
C1103 C1102 1.385 . S
C1104 C1102 1.478 . S
C1104 C1106 1.381 . S
C1104 C1110 1.383 . S
C1105 C1101 1.495 . S
C1105 H1111 0.959 . S
C1105 H1112 0.961 . S
C1105 H1113 0.960 . S
C1106 C1104 1.381 . S
C1106 C1107 1.394 . S
C1106 H1114 0.930 . S
C1107 C1106 1.394 . S
C1107 C1108 1.383 . S
C1107 H1115 0.929 . S
C1108 C1107 1.383 . S
C1108 C1109 1.377 . S
C1109 H1093 0.930 . S
C1109 C1108 1.377 . S
C1109 C1110 1.379 . S
C1110 H1094 0.931 . S
C1110 C1104 1.383 . S
C1110 C1109 1.379 . S
H1111 C1105 0.959 . S
H1112 C1105 0.961 . S
H1113 C1105 0.960 . S
H1114 C1106 0.930 . S
H1115 C1107 0.929 . S
H1116 C1124 0.929 1_545 S
H1117 C1126 0.930 . S
H1118 C1128 0.930 . S
H1119 C1131 0.929 . S
H1120 C1134 0.930 . S
H1121 C1136 0.960 . S
H1122 C1136 0.960 . S
H1123 C1136 0.960 . S
C1124 H1116 0.929 1_565 S
C1124 C1125 1.377 . S
C1124 C1126 1.384 1_565 S
C1125 C1124 1.377 . S
C1125 C1131 1.390 . S
C1126 H1117 0.930 . S
C1126 C1124 1.384 1_545 S
C1126 C1127 1.372 1_545 S
C1127 C1126 1.372 1_565 S
C1127 C1128 1.400 . S
C1127 C1132 1.490 . S
C1128 H1118 0.930 . S
C1128 C1127 1.400 . S
C1128 C1131 1.386 . S
H1129 C1145 0.930 . S
H1130 C1146 0.931 . S
C1131 H1119 0.929 . S
C1131 C1125 1.390 . S
C1131 C1128 1.386 . S
C1132 C1127 1.490 . S
C1132 C1134 1.395 1_565 S
C1132 C1135 1.403 . S
H1133 C1139 0.930 . S
C1134 H1120 0.930 . S
C1134 C1132 1.395 1_545 S
C1134 C1137 1.403 . S
C1135 C1132 1.403 . S
C1135 C1136 1.524 . S
C1135 C1139 1.400 . S
C1136 H1121 0.960 . S
C1136 H1122 0.960 . S
C1136 H1123 0.960 . S
C1136 C1135 1.524 . S
C1137 C1134 1.403 . S
C1137 C1138 1.372 1_545 S
C1137 C1141 1.495 . S
C1138 C1137 1.372 1_565 S
C1138 C1139 1.413 . S
C1138 C1140 1.473 1_565 S
C1139 H1133 0.930 . S
C1139 C1135 1.400 . S
C1139 C1138 1.413 . S
C1140 C1138 1.473 1_545 S
C1140 C1142 1.381 . S
C1140 C1146 1.383 1_545 S
C1141 C1137 1.495 . S
C1141 H1147 0.959 . S
C1141 H1148 0.961 . S
C1141 H1149 0.960 . S
C1142 C1140 1.381 . S
C1142 C1143 1.394 . S
C1142 H1150 0.930 . S
C1143 C1142 1.394 . S
C1143 C1144 1.383 . S
C1143 H1151 0.929 . S
C1144 C1143 1.383 . S
C1144 C1145 1.377 1_545 S
C1145 H1129 0.930 . S
C1145 C1144 1.377 1_565 S
C1145 C1146 1.379 . S
C1146 H1130 0.931 . S
C1146 C1140 1.383 1_565 S
C1146 C1145 1.379 . S
H1147 C1141 0.959 . S
H1148 C1141 0.961 . S
H1149 C1141 0.960 . S
H1150 C1142 0.930 . S
H1151 C1143 0.929 . S
H1152 C1160 0.929 . S
H1153 C1162 0.930 . S
H1154 C1164 0.930 . S
H1155 C1167 0.929 . S
H1156 C1170 0.930 . S
H1157 C1172 0.960 . S
H1158 C1172 0.960 . S
H1159 C1172 0.960 . S
C1160 H1152 0.929 . S
C1160 C1161 1.377 . S
C1160 C1162 1.384 . S
C1161 C1160 1.377 . S
C1161 C1167 1.390 . S
C1162 H1153 0.930 . S
C1162 C1160 1.384 . S
C1162 C1163 1.372 . S
C1163 C1162 1.372 . S
C1163 C1164 1.400 . S
C1163 C1168 1.490 . S
C1164 H1154 0.930 . S
C1164 C1163 1.400 . S
C1164 C1167 1.386 . S
H1165 C1181 0.930 . S
H1166 C1182 0.931 . S
C1167 H1155 0.929 . S
C1167 C1161 1.390 . S
C1167 C1164 1.386 . S
C1168 C1163 1.490 . S
C1168 C1170 1.395 . S
C1168 C1171 1.403 . S
H1169 C1175 0.930 . S
C1170 H1156 0.930 . S
C1170 C1168 1.395 . S
C1170 C1173 1.403 . S
C1171 C1168 1.403 . S
C1171 C1172 1.524 . S
C1171 C1175 1.400 . S
C1172 H1157 0.960 . S
C1172 H1158 0.960 . S
C1172 H1159 0.960 . S
C1172 C1171 1.524 . S
C1173 C1170 1.403 . S
C1173 C1174 1.392 . S
C1173 C1177 1.495 . S
C1174 C1173 1.392 . S
C1174 C1175 1.385 . S
C1174 C1176 1.478 . S
C1175 H1169 0.930 . S
C1175 C1171 1.400 . S
C1175 C1174 1.385 . S
C1176 C1174 1.478 . S
C1176 C1178 1.381 . S
C1176 C1182 1.383 . S
C1177 C1173 1.495 . S
C1177 H1183 0.959 . S
C1177 H1184 0.961 . S
C1177 H1185 0.960 . S
C1178 C1176 1.381 . S
C1178 C1179 1.394 . S
C1178 H1186 0.930 . S
C1179 C1178 1.394 . S
C1179 C1180 1.383 . S
C1179 H1187 0.929 . S
C1180 C1179 1.383 . S
C1180 C1181 1.377 . S
C1181 H1165 0.930 . S
C1181 C1180 1.377 . S
C1181 C1182 1.379 . S
C1182 H1166 0.931 . S
C1182 C1176 1.383 . S
C1182 C1181 1.379 . S
H1183 C1177 0.959 . S
H1184 C1177 0.961 . S
H1185 C1177 0.960 . S
H1186 C1178 0.930 . S
H1187 C1179 0.929 . S
H1188 C1196 0.929 . S
H1189 C1198 0.930 . S
H1190 C1200 0.930 . S
H1191 C1203 0.929 . S
H1192 C1206 0.930 . S
H1193 C1208 0.960 . S
H1194 C1208 0.960 . S
H1195 C1208 0.960 . S
C1196 H1188 0.929 . S
C1196 C1197 1.377 . S
C1196 C1198 1.384 . S
C1197 C1196 1.377 . S
C1197 C1203 1.390 . S
C1198 H1189 0.930 . S
C1198 C1196 1.384 . S
C1198 C1199 1.372 . S
C1199 C1198 1.372 . S
C1199 C1200 1.400 . S
C1199 C1204 1.490 . S
C1200 H1190 0.930 . S
C1200 C1199 1.400 . S
C1200 C1203 1.386 . S
H1201 C1217 0.930 . S
H1202 C1218 0.931 . S
C1203 H1191 0.929 . S
C1203 C1197 1.390 . S
C1203 C1200 1.386 . S
C1204 C1199 1.490 . S
C1204 C1206 1.395 . S
C1204 C1207 1.403 . S
H1205 C1211 0.930 . S
C1206 H1192 0.930 . S
C1206 C1204 1.395 . S
C1206 C1209 1.403 . S
C1207 C1204 1.403 . S
C1207 C1208 1.524 . S
C1207 C1211 1.400 . S
C1208 H1193 0.960 . S
C1208 H1194 0.960 . S
C1208 H1195 0.960 . S
C1208 C1207 1.524 . S
C1209 C1206 1.403 . S
C1209 C1210 1.392 . S
C1209 C1213 1.495 . S
C1210 C1209 1.392 . S
C1210 C1211 1.385 . S
C1210 C1212 1.478 . S
C1211 H1205 0.930 . S
C1211 C1207 1.400 . S
C1211 C1210 1.385 . S
C1212 C1210 1.478 . S
C1212 C1214 1.381 . S
C1212 C1218 1.383 . S
C1213 C1209 1.495 . S
C1213 H1219 0.959 . S
C1213 H1220 0.961 . S
C1213 H1221 0.960 . S
C1214 C1212 1.381 . S
C1214 C1215 1.394 . S
C1214 H1222 0.930 . S
C1215 C1214 1.394 . S
C1215 C1216 1.383 . S
C1215 H1223 0.929 . S
C1216 C1215 1.383 . S
C1216 C1217 1.377 . S
C1217 H1201 0.930 . S
C1217 C1216 1.377 . S
C1217 C1218 1.379 . S
C1218 H1202 0.931 . S
C1218 C1212 1.383 . S
C1218 C1217 1.379 . S
H1219 C1213 0.959 . S
H1220 C1213 0.961 . S
H1221 C1213 0.960 . S
H1222 C1214 0.930 . S
H1223 C1215 0.929 . S
H1224 C1232 0.929 . S
H1225 C1234 0.930 . S
H1226 C1236 0.930 . S
H1227 C1239 0.929 . S
H1228 C1242 0.930 . S
H1229 C1244 0.960 . S
H1230 C1244 0.960 . S
H1231 C1244 0.960 . S
C1232 H1224 0.929 . S
C1232 C1233 1.377 . S
C1232 C1234 1.384 . S
C1233 C1232 1.377 . S
C1233 C1239 1.390 . S
C1234 H1225 0.930 . S
C1234 C1232 1.384 . S
C1234 C1235 1.372 . S
C1235 C1234 1.372 . S
C1235 C1236 1.400 . S
C1235 C1240 1.490 . S
C1236 H1226 0.930 . S
C1236 C1235 1.400 . S
C1236 C1239 1.386 . S
H1237 C1253 0.930 . S
H1238 C1254 0.931 . S
C1239 H1227 0.929 . S
C1239 C1233 1.390 . S
C1239 C1236 1.386 . S
C1240 C1235 1.490 . S
C1240 C1242 1.395 . S
C1240 C1243 1.403 . S
H1241 C1247 0.930 . S
C1242 H1228 0.930 . S
C1242 C1240 1.395 . S
C1242 C1245 1.403 . S
C1243 C1240 1.403 . S
C1243 C1244 1.524 . S
C1243 C1247 1.400 . S
C1244 H1229 0.960 . S
C1244 H1230 0.960 . S
C1244 H1231 0.960 . S
C1244 C1243 1.524 . S
C1245 C1242 1.403 . S
C1245 C1246 1.392 . S
C1245 C1249 1.495 . S
C1246 C1245 1.392 . S
C1246 C1247 1.385 . S
C1246 C1248 1.478 . S
C1247 H1241 0.930 . S
C1247 C1243 1.400 . S
C1247 C1246 1.385 . S
C1248 C1246 1.478 . S
C1248 C1250 1.381 . S
C1248 C1254 1.383 . S
C1249 C1245 1.495 . S
C1249 H1255 0.959 . S
C1249 H1256 0.961 . S
C1249 H1257 0.960 . S
C1250 C1248 1.381 . S
C1250 C1251 1.394 . S
C1250 H1258 0.930 . S
C1251 C1250 1.394 . S
C1251 C1252 1.383 . S
C1251 H1259 0.929 . S
C1252 C1251 1.383 . S
C1252 C1253 1.377 . S
C1253 H1237 0.930 . S
C1253 C1252 1.377 . S
C1253 C1254 1.379 . S
C1254 H1238 0.931 . S
C1254 C1248 1.383 . S
C1254 C1253 1.379 . S
H1255 C1249 0.959 . S
H1256 C1249 0.961 . S
H1257 C1249 0.960 . S
H1258 C1250 0.930 . S
H1259 C1251 0.929 . S
H1260 C1268 0.929 . S
H1261 C1270 0.930 . S
H1262 C1272 0.930 1_545 S
H1263 C1275 0.929 . S
H1264 C1278 0.930 . S
H1265 C1280 0.960 . S
H1266 C1280 0.960 . S
H1267 C1280 0.960 . S
C1268 H1260 0.929 . S
C1268 C1269 1.377 . S
C1268 C1270 1.384 . S
C1269 C1268 1.377 . S
C1269 C1275 1.390 . S
C1270 H1261 0.930 . S
C1270 C1268 1.384 . S
C1270 C1271 1.372 . S
C1271 C1270 1.372 . S
C1271 C1272 1.400 . S
C1271 C1276 1.490 . S
C1272 H1262 0.930 1_565 S
C1272 C1271 1.400 . S
C1272 C1275 1.386 . S
H1273 C1289 0.930 . S
H1274 C1290 0.948 . S
C1275 H1263 0.929 . S
C1275 C1269 1.390 . S
C1275 C1272 1.386 . S
C1276 C1271 1.490 . S
C1276 C1278 1.395 . S
C1276 C1279 1.375 1_565 S
H1277 C1283 0.991 . S
C1278 H1264 0.930 . S
C1278 C1276 1.395 . S
C1278 C1281 1.403 . S
C1279 C1276 1.375 1_545 S
C1279 C1280 1.551 . S
C1279 C1283 1.401 . S
C1280 H1265 0.960 . S
C1280 H1266 0.960 . S
C1280 H1267 0.960 . S
C1280 C1279 1.551 . S
C1281 C1278 1.403 . S
C1281 C1282 1.392 . S
C1281 C1285 1.495 . S
C1282 C1281 1.392 . S
C1282 C1283 1.328 1_565 S
C1282 C1284 1.478 . S
C1283 H1277 0.991 . S
C1283 C1279 1.401 . S
C1283 C1282 1.328 1_545 S
C1284 C1282 1.478 . S
C1284 C1286 1.381 . S
C1284 C1290 1.362 1_565 S
C1285 C1281 1.495 . S
C1285 H1291 0.959 . S
C1285 H1292 0.961 . S
C1285 H1293 0.960 . S
C1286 C1284 1.381 . S
C1286 C1287 1.394 . S
C1286 H1294 0.930 . S
C1287 C1286 1.394 . S
C1287 C1288 1.383 . S
C1287 H1295 0.929 . S
C1288 C1287 1.383 . S
C1288 C1289 1.377 1_565 S
C1289 H1273 0.930 . S
C1289 C1288 1.377 1_545 S
C1289 C1290 1.385 . S
C1290 H1274 0.948 . S
C1290 C1284 1.362 1_545 S
C1290 C1289 1.385 . S
H1291 C1285 0.959 . S
H1292 C1285 0.961 . S
H1293 C1285 0.960 . S
H1294 C1286 0.930 . S
H1295 C1287 0.929 . S
H1296 C1304 0.929 . S
H1297 C1306 0.930 . S
H1298 C1308 0.930 . S
H1299 C1311 0.929 . S
H1300 C1314 0.930 . S
H1301 C1316 0.960 . S
H1302 C1316 0.960 . S
H1303 C1316 0.960 . S
C1304 H1296 0.929 . S
C1304 C1305 1.377 . S
C1304 C1306 1.384 . S
C1305 C1304 1.377 . S
C1305 C1311 1.390 . S
C1306 H1297 0.930 . S
C1306 C1304 1.384 . S
C1306 C1307 1.372 . S
C1307 C1306 1.372 . S
C1307 C1308 1.400 . S
C1307 C1312 1.490 . S
C1308 H1298 0.930 . S
C1308 C1307 1.400 . S
C1308 C1311 1.386 . S
H1309 C1325 0.930 . S
H1310 C1326 0.931 . S
C1311 H1299 0.929 . S
C1311 C1305 1.390 . S
C1311 C1308 1.386 . S
C1312 C1307 1.490 . S
C1312 C1314 1.395 . S
C1312 C1315 1.403 . S
H1313 C1319 0.930 . S
C1314 H1300 0.930 . S
C1314 C1312 1.395 . S
C1314 C1317 1.403 . S
C1315 C1312 1.403 . S
C1315 C1316 1.524 . S
C1315 C1319 1.400 . S
C1316 H1301 0.960 . S
C1316 H1302 0.960 . S
C1316 H1303 0.960 . S
C1316 C1315 1.524 . S
C1317 C1314 1.403 . S
C1317 C1318 1.392 . S
C1317 C1321 1.495 . S
C1318 C1317 1.392 . S
C1318 C1319 1.385 . S
C1318 C1320 1.478 . S
C1319 H1313 0.930 . S
C1319 C1315 1.400 . S
C1319 C1318 1.385 . S
C1320 C1318 1.478 . S
C1320 C1322 1.381 . S
C1320 C1326 1.383 . S
C1321 C1317 1.495 . S
C1321 H1327 0.959 . S
C1321 H1328 0.961 . S
C1321 H1329 0.960 . S
C1322 C1320 1.381 . S
C1322 C1323 1.394 . S
C1322 H1330 0.930 . S
C1323 C1322 1.394 . S
C1323 C1324 1.383 . S
C1323 H1331 0.929 . S
C1324 C1323 1.383 . S
C1324 C1325 1.377 . S
C1325 H1309 0.930 . S
C1325 C1324 1.377 . S
C1325 C1326 1.379 . S
C1326 H1310 0.931 . S
C1326 C1320 1.383 . S
C1326 C1325 1.379 . S
H1327 C1321 0.959 . S
H1328 C1321 0.961 . S
H1329 C1321 0.960 . S
H1330 C1322 0.930 . S
H1331 C1323 0.929 . S
H1332 C1340 0.929 . S
H1333 C1342 0.930 . S
H1334 C1344 0.930 . S
H1335 C1347 0.929 . S
H1336 C1350 0.930 . S
H1337 C1352 0.960 . S
H1338 C1352 0.960 . S
H1339 C1352 0.960 . S
C1340 H1332 0.929 . S
C1340 C1341 1.377 . S
C1340 C1342 1.384 . S
C1341 C1340 1.377 . S
C1341 C1347 1.390 . S
C1342 H1333 0.930 . S
C1342 C1340 1.384 . S
C1342 C1343 1.372 . S
C1343 C1342 1.372 . S
C1343 C1344 1.400 . S
C1343 C1348 1.490 . S
C1344 H1334 0.930 . S
C1344 C1343 1.400 . S
C1344 C1347 1.386 . S
H1345 C1361 0.930 . S
H1346 C1362 0.931 . S
C1347 H1335 0.929 . S
C1347 C1341 1.390 . S
C1347 C1344 1.386 . S
C1348 C1343 1.490 . S
C1348 C1350 1.395 . S
C1348 C1351 1.403 . S
H1349 C1355 0.930 . S
C1350 H1336 0.930 . S
C1350 C1348 1.395 . S
C1350 C1353 1.403 . S
C1351 C1348 1.403 . S
C1351 C1352 1.524 . S
C1351 C1355 1.400 . S
C1352 H1337 0.960 . S
C1352 H1338 0.960 . S
C1352 H1339 0.960 . S
C1352 C1351 1.524 . S
C1353 C1350 1.403 . S
C1353 C1354 1.392 . S
C1353 C1357 1.495 . S
C1354 C1353 1.392 . S
C1354 C1355 1.385 . S
C1354 C1356 1.478 . S
C1355 H1349 0.930 . S
C1355 C1351 1.400 . S
C1355 C1354 1.385 . S
C1356 C1354 1.478 . S
C1356 C1358 1.381 . S
C1356 C1362 1.383 . S
C1357 C1353 1.495 . S
C1357 H1363 0.959 . S
C1357 H1364 0.961 . S
C1357 H1365 0.960 . S
C1358 C1356 1.381 . S
C1358 C1359 1.394 . S
C1358 H1366 0.930 . S
C1359 C1358 1.394 . S
C1359 C1360 1.383 . S
C1359 H1367 0.929 . S
C1360 C1359 1.383 . S
C1360 C1361 1.377 . S
C1361 H1345 0.930 . S
C1361 C1360 1.377 . S
C1361 C1362 1.379 . S
C1362 H1346 0.931 . S
C1362 C1356 1.383 . S
C1362 C1361 1.379 . S
H1363 C1357 0.959 . S
H1364 C1357 0.961 . S
H1365 C1357 0.960 . S
H1366 C1358 0.930 . S
H1367 C1359 0.929 . S
H1368 C1376 0.929 . S
H1369 C1378 0.930 . S
H1370 C1380 0.930 . S
H1371 C1383 0.929 . S
H1372 C1386 0.930 . S
H1373 C1388 0.960 . S
H1374 C1388 0.960 . S
H1375 C1388 0.960 . S
C1376 H1368 0.929 . S
C1376 C1377 1.377 . S
C1376 C1378 1.384 . S
C1377 C1376 1.377 . S
C1377 C1383 1.390 . S
C1378 H1369 0.930 . S
C1378 C1376 1.384 . S
C1378 C1379 1.372 . S
C1379 C1378 1.372 . S
C1379 C1380 1.400 . S
C1379 C1384 1.490 . S
C1380 H1370 0.930 . S
C1380 C1379 1.400 . S
C1380 C1383 1.386 . S
H1381 C1397 0.930 . S
H1382 C1398 0.931 . S
C1383 H1371 0.929 . S
C1383 C1377 1.390 . S
C1383 C1380 1.386 . S
C1384 C1379 1.490 . S
C1384 C1386 1.395 . S
C1384 C1387 1.403 . S
H1385 C1391 0.930 . S
C1386 H1372 0.930 . S
C1386 C1384 1.395 . S
C1386 C1389 1.403 . S
C1387 C1384 1.403 . S
C1387 C1388 1.524 . S
C1387 C1391 1.400 . S
C1388 H1373 0.960 . S
C1388 H1374 0.960 . S
C1388 H1375 0.960 . S
C1388 C1387 1.524 . S
C1389 C1386 1.403 . S
C1389 C1390 1.392 . S
C1389 C1393 1.495 . S
C1390 C1389 1.392 . S
C1390 C1391 1.385 . S
C1390 C1392 1.478 . S
C1391 H1385 0.930 . S
C1391 C1387 1.400 . S
C1391 C1390 1.385 . S
C1392 C1390 1.478 . S
C1392 C1394 1.381 . S
C1392 C1398 1.383 . S
C1393 C1389 1.495 . S
C1393 H1399 0.959 . S
C1393 H1400 0.961 . S
C1393 H1401 0.960 . S
C1394 C1392 1.381 . S
C1394 C1395 1.394 . S
C1394 H1402 0.930 . S
C1395 C1394 1.394 . S
C1395 C1396 1.383 . S
C1395 H1403 0.929 . S
C1396 C1395 1.383 . S
C1396 C1397 1.377 . S
C1397 H1381 0.930 . S
C1397 C1396 1.377 . S
C1397 C1398 1.379 . S
C1398 H1382 0.931 . S
C1398 C1392 1.383 . S
C1398 C1397 1.379 . S
H1399 C1393 0.959 . S
H1400 C1393 0.961 . S
H1401 C1393 0.960 . S
H1402 C1394 0.930 . S
H1403 C1395 0.929 . S
H1404 C1412 0.929 . S
H1405 C1414 0.930 . S
H1406 C1416 0.930 . S
H1407 C1419 0.929 . S
H1408 C1422 0.930 . S
H1409 C1424 0.960 . S
H1410 C1424 0.960 . S
H1411 C1424 0.960 . S
C1412 H1404 0.929 . S
C1412 C1413 1.377 . S
C1412 C1414 1.384 . S
C1413 C1412 1.377 . S
C1413 C1419 1.390 . S
C1414 H1405 0.930 . S
C1414 C1412 1.384 . S
C1414 C1415 1.372 . S
C1415 C1414 1.372 . S
C1415 C1416 1.400 . S
C1415 C1420 1.490 . S
C1416 H1406 0.930 . S
C1416 C1415 1.400 . S
C1416 C1419 1.386 . S
H1417 C1433 0.930 . S
H1418 C1434 0.931 . S
C1419 H1407 0.929 . S
C1419 C1413 1.390 . S
C1419 C1416 1.386 . S
C1420 C1415 1.490 . S
C1420 C1422 1.395 . S
C1420 C1423 1.403 . S
H1421 C1427 0.930 . S
C1422 H1408 0.930 . S
C1422 C1420 1.395 . S
C1422 C1425 1.403 . S
C1423 C1420 1.403 . S
C1423 C1424 1.524 . S
C1423 C1427 1.400 . S
C1424 H1409 0.960 . S
C1424 H1410 0.960 . S
C1424 H1411 0.960 . S
C1424 C1423 1.524 . S
C1425 C1422 1.403 . S
C1425 C1426 1.392 . S
C1425 C1429 1.495 . S
C1426 C1425 1.392 . S
C1426 C1427 1.385 . S
C1426 C1428 1.478 . S
C1427 H1421 0.930 . S
C1427 C1423 1.400 . S
C1427 C1426 1.385 . S
C1428 C1426 1.478 . S
C1428 C1430 1.381 . S
C1428 C1434 1.383 . S
C1429 C1425 1.495 . S
C1429 H1435 0.959 . S
C1429 H1436 0.961 . S
C1429 H1437 0.960 . S
C1430 C1428 1.381 . S
C1430 C1431 1.394 . S
C1430 H1438 0.930 . S
C1431 C1430 1.394 . S
C1431 C1432 1.383 . S
C1431 H1439 0.929 . S
C1432 C1431 1.383 . S
C1432 C1433 1.377 . S
C1433 H1417 0.930 . S
C1433 C1432 1.377 . S
C1433 C1434 1.379 . S
C1434 H1418 0.931 . S
C1434 C1428 1.383 . S
C1434 C1433 1.379 . S
H1435 C1429 0.959 . S
H1436 C1429 0.961 . S
H1437 C1429 0.960 . S
H1438 C1430 0.930 . S
H1439 C1431 0.929 . S
H1440 C1448 0.929 . S
H1441 C1450 0.930 . S
H1442 C1452 0.930 . S
H1443 C1455 0.929 . S
H1444 C1458 0.930 . S
H1445 C1460 0.960 . S
H1446 C1460 0.960 . S
H1447 C1460 0.960 . S
C1448 H1440 0.929 . S
C1448 C1449 1.377 . S
C1448 C1450 1.384 . S
C1449 C1448 1.377 . S
C1449 C1455 1.390 . S
C1450 H1441 0.930 . S
C1450 C1448 1.384 . S
C1450 C1451 1.372 . S
C1451 C1450 1.372 . S
C1451 C1452 1.400 . S
C1451 C1456 1.490 . S
C1452 H1442 0.930 . S
C1452 C1451 1.400 . S
C1452 C1455 1.386 . S
H1453 C1469 0.930 . S
H1454 C1470 0.931 . S
C1455 H1443 0.929 . S
C1455 C1449 1.390 . S
C1455 C1452 1.386 . S
C1456 C1451 1.490 . S
C1456 C1458 1.395 . S
C1456 C1459 1.403 . S
H1457 C1463 0.930 . S
C1458 H1444 0.930 . S
C1458 C1456 1.395 . S
C1458 C1461 1.403 . S
C1459 C1456 1.403 . S
C1459 C1460 1.524 . S
C1459 C1463 1.400 . S
C1460 H1445 0.960 . S
C1460 H1446 0.960 . S
C1460 H1447 0.960 . S
C1460 C1459 1.524 . S
C1461 C1458 1.403 . S
C1461 C1462 1.392 . S
C1461 C1465 1.495 . S
C1462 C1461 1.392 . S
C1462 C1463 1.385 . S
C1462 C1464 1.478 . S
C1463 H1457 0.930 . S
C1463 C1459 1.400 . S
C1463 C1462 1.385 . S
C1464 C1462 1.478 . S
C1464 C1466 1.381 . S
C1464 C1470 1.383 . S
C1465 C1461 1.495 . S
C1465 H1471 0.959 . S
C1465 H1472 0.961 . S
C1465 H1473 0.960 . S
C1466 C1464 1.381 . S
C1466 C1467 1.394 . S
C1466 H1474 0.930 . S
C1467 C1466 1.394 . S
C1467 C1468 1.383 . S
C1467 H1475 0.929 . S
C1468 C1467 1.383 . S
C1468 C1469 1.377 . S
C1469 H1453 0.930 . S
C1469 C1468 1.377 . S
C1469 C1470 1.379 . S
C1470 H1454 0.931 . S
C1470 C1464 1.383 . S
C1470 C1469 1.379 . S
H1471 C1465 0.959 . S
H1472 C1465 0.961 . S
H1473 C1465 0.960 . S
H1474 C1466 0.930 . S
H1475 C1467 0.929 . S
H1476 C1484 0.929 . S
H1477 C1486 0.918 1_655 S
H1478 C1488 0.930 . S
H1479 C1491 0.929 . S
H1480 C1494 0.935 . S
H1481 C1496 0.960 . S
H1482 C1496 0.960 . S
H1483 C1496 0.960 . S
C1484 H1476 0.929 . S
C1484 C1485 1.377 . S
C1484 C1486 1.384 . S
C1485 C1484 1.377 . S
C1485 C1491 1.390 . S
C1486 H1477 0.918 1_455 S
C1486 C1484 1.384 . S
C1486 C1487 1.372 . S
C1487 C1486 1.372 . S
C1487 C1488 1.400 . S
C1487 C1492 1.490 . S
C1488 H1478 0.930 . S
C1488 C1487 1.400 . S
C1488 C1491 1.386 . S
H1489 C1505 0.930 . S
H1490 C1506 0.931 . S
C1491 H1479 0.929 . S
C1491 C1485 1.390 . S
C1491 C1488 1.386 . S
C1492 C1487 1.490 . S
C1492 C1494 1.395 . S
C1492 C1495 1.403 . S
H1493 C1499 0.930 . S
C1494 H1480 0.935 . S
C1494 C1492 1.395 . S
C1494 C1497 1.403 . S
C1495 C1492 1.403 . S
C1495 C1496 1.524 . S
C1495 C1499 1.400 . S
C1496 H1481 0.960 . S
C1496 H1482 0.960 . S
C1496 H1483 0.960 . S
C1496 C1495 1.524 . S
C1497 C1494 1.403 . S
C1497 C1498 1.392 . S
C1497 C1501 1.495 1_455 S
C1498 C1497 1.392 . S
C1498 C1499 1.385 . S
C1498 C1500 1.478 . S
C1499 H1493 0.930 . S
C1499 C1495 1.400 . S
C1499 C1498 1.385 . S
C1500 C1498 1.478 . S
C1500 C1502 1.381 1_455 S
C1500 C1506 1.383 . S
C1501 C1497 1.495 1_655 S
C1501 H1507 0.959 . S
C1501 H1508 0.961 . S
C1501 H1509 0.960 . S
C1502 C1500 1.381 1_655 S
C1502 C1503 1.394 . S
C1502 H1510 0.930 . S
C1503 C1502 1.394 . S
C1503 C1504 1.383 1_655 S
C1503 H1511 0.929 . S
C1504 C1503 1.383 1_455 S
C1504 C1505 1.377 . S
C1505 H1489 0.930 . S
C1505 C1504 1.377 . S
C1505 C1506 1.379 . S
C1506 H1490 0.931 . S
C1506 C1500 1.383 . S
C1506 C1505 1.379 . S
H1507 C1501 0.959 . S
H1508 C1501 0.961 . S
H1509 C1501 0.960 . S
H1510 C1502 0.930 . S
H1511 C1503 0.929 . S
H1512 C1520 0.929 . S
H1513 C1522 0.930 . S
H1514 C1524 0.930 . S
H1515 C1527 0.929 . S
H1516 C1530 0.930 . S
H1517 C1532 0.960 . S
H1518 C1532 0.960 . S
H1519 C1532 0.960 . S
C1520 H1512 0.929 . S
C1520 C1521 1.377 . S
C1520 C1522 1.384 . S
C1521 C1520 1.377 . S
C1521 C1527 1.390 . S
C1522 H1513 0.930 . S
C1522 C1520 1.384 . S
C1522 C1523 1.372 . S
C1523 C1522 1.372 . S
C1523 C1524 1.400 . S
C1523 C1528 1.490 . S
C1524 H1514 0.930 . S
C1524 C1523 1.400 . S
C1524 C1527 1.386 . S
H1525 C1541 0.930 . S
H1526 C1542 0.931 . S
C1527 H1515 0.929 . S
C1527 C1521 1.390 . S
C1527 C1524 1.386 . S
C1528 C1523 1.490 . S
C1528 C1530 1.395 . S
C1528 C1531 1.403 . S
H1529 C1535 0.930 . S
C1530 H1516 0.930 . S
C1530 C1528 1.395 . S
C1530 C1533 1.403 . S
C1531 C1528 1.403 . S
C1531 C1532 1.524 . S
C1531 C1535 1.400 . S
C1532 H1517 0.960 . S
C1532 H1518 0.960 . S
C1532 H1519 0.960 . S
C1532 C1531 1.524 . S
C1533 C1530 1.403 . S
C1533 C1534 1.392 . S
C1533 C1537 1.495 . S
C1534 C1533 1.392 . S
C1534 C1535 1.385 . S
C1534 C1536 1.478 . S
C1535 H1529 0.930 . S
C1535 C1531 1.400 . S
C1535 C1534 1.385 . S
C1536 C1534 1.478 . S
C1536 C1538 1.381 . S
C1536 C1542 1.383 . S
C1537 C1533 1.495 . S
C1537 H1543 0.959 . S
C1537 H1544 0.961 . S
C1537 H1545 0.960 . S
C1538 C1536 1.381 . S
C1538 C1539 1.394 . S
C1538 H1546 0.930 . S
C1539 C1538 1.394 . S
C1539 C1540 1.383 . S
C1539 H1547 0.929 . S
C1540 C1539 1.383 . S
C1540 C1541 1.377 . S
C1541 H1525 0.930 . S
C1541 C1540 1.377 . S
C1541 C1542 1.379 . S
C1542 H1526 0.931 . S
C1542 C1536 1.383 . S
C1542 C1541 1.379 . S
H1543 C1537 0.959 . S
H1544 C1537 0.961 . S
H1545 C1537 0.960 . S
H1546 C1538 0.930 . S
H1547 C1539 0.929 . S
H1548 C1556 0.929 . S
H1549 C1558 0.930 . S
H1550 C1560 0.931 1_455 S
H1551 C1563 0.929 1_455 S
H1552 C1566 0.930 . S
H1553 C1568 0.960 . S
H1554 C1568 0.960 . S
H1555 C1568 0.960 . S
C1556 H1548 0.929 . S
C1556 C1557 1.377 . S
C1556 C1558 1.384 . S
C1557 C1556 1.377 . S
C1557 C1563 1.390 . S
C1558 H1549 0.930 . S
C1558 C1556 1.384 . S
C1558 C1559 1.372 . S
C1559 C1558 1.372 . S
C1559 C1560 1.399 . S
C1559 C1564 1.490 . S
C1560 H1550 0.931 1_655 S
C1560 C1559 1.399 . S
C1560 C1563 1.386 . S
H1561 C1577 0.930 . S
H1562 C1578 0.931 . S
C1563 H1551 0.929 1_655 S
C1563 C1557 1.390 . S
C1563 C1560 1.386 . S
C1564 C1559 1.490 . S
C1564 C1566 1.395 . S
C1564 C1567 1.403 1_655 S
H1565 C1571 0.930 . S
C1566 H1552 0.930 . S
C1566 C1564 1.395 . S
C1566 C1569 1.403 . S
C1567 C1564 1.403 1_455 S
C1567 C1568 1.524 . S
C1567 C1571 1.400 . S
C1568 H1553 0.960 . S
C1568 H1554 0.960 . S
C1568 H1555 0.960 . S
C1568 C1567 1.524 . S
C1569 C1566 1.403 . S
C1569 C1570 1.392 . S
C1569 C1573 1.495 . S
C1570 C1569 1.392 . S
C1570 C1571 1.385 1_655 S
C1570 C1572 1.478 . S
C1571 H1565 0.930 . S
C1571 C1567 1.400 . S
C1571 C1570 1.385 1_455 S
C1572 C1570 1.478 . S
C1572 C1574 1.381 . S
C1572 C1578 1.383 1_655 S
C1573 C1569 1.495 . S
C1573 H1579 0.959 . S
C1573 H1580 0.961 . S
C1573 H1581 0.960 . S
C1574 C1572 1.381 . S
C1574 C1575 1.394 . S
C1574 H1582 0.930 . S
C1575 C1574 1.394 . S
C1575 C1576 1.338 1_655 S
C1575 H1583 0.929 . S
C1576 C1575 1.338 1_455 S
C1576 C1577 1.414 . S
C1577 H1561 0.930 . S
C1577 C1576 1.414 . S
C1577 C1578 1.379 . S
C1578 H1562 0.931 . S
C1578 C1572 1.383 1_455 S
C1578 C1577 1.379 . S
H1579 C1573 0.959 . S
H1580 C1573 0.961 . S
H1581 C1573 0.960 . S
H1582 C1574 0.930 . S
H1583 C1575 0.929 . S
H1584 C1592 0.929 . S
H1585 C1594 0.930 . S
H1586 C1596 0.930 . S
H1587 C1599 0.929 . S
H1588 C1602 0.930 . S
H1589 C1604 0.960 . S
H1590 C1604 0.960 . S
H1591 C1604 0.960 . S
C1592 H1584 0.929 . S
C1592 C1593 1.377 . S
C1592 C1594 1.384 . S
C1593 C1592 1.377 . S
C1593 C1599 1.390 . S
C1594 H1585 0.930 . S
C1594 C1592 1.384 . S
C1594 C1595 1.372 . S
C1595 C1594 1.372 . S
C1595 C1596 1.400 . S
C1595 C1600 1.490 . S
C1596 H1586 0.930 . S
C1596 C1595 1.400 . S
C1596 C1599 1.386 . S
H1597 C1613 0.930 . S
H1598 C1614 0.931 . S
C1599 H1587 0.929 . S
C1599 C1593 1.390 . S
C1599 C1596 1.386 . S
C1600 C1595 1.490 . S
C1600 C1602 1.395 . S
C1600 C1603 1.403 . S
H1601 C1607 0.930 . S
C1602 H1588 0.930 . S
C1602 C1600 1.395 . S
C1602 C1605 1.403 . S
C1603 C1600 1.403 . S
C1603 C1604 1.524 . S
C1603 C1607 1.400 . S
C1604 H1589 0.960 . S
C1604 H1590 0.960 . S
C1604 H1591 0.960 . S
C1604 C1603 1.524 . S
C1605 C1602 1.403 . S
C1605 C1606 1.392 . S
C1605 C1609 1.495 . S
C1606 C1605 1.392 . S
C1606 C1607 1.385 . S
C1606 C1608 1.478 . S
C1607 H1601 0.930 . S
C1607 C1603 1.400 . S
C1607 C1606 1.385 . S
C1608 C1606 1.478 . S
C1608 C1610 1.381 . S
C1608 C1614 1.383 . S
C1609 C1605 1.495 . S
C1609 H1615 0.959 . S
C1609 H1616 0.961 . S
C1609 H1617 0.960 . S
C1610 C1608 1.381 . S
C1610 C1611 1.394 . S
C1610 H1618 0.930 . S
C1611 C1610 1.394 . S
C1611 C1612 1.383 . S
C1611 H1619 0.929 . S
C1612 C1611 1.383 . S
C1612 C1613 1.377 . S
C1613 H1597 0.930 . S
C1613 C1612 1.377 . S
C1613 C1614 1.379 . S
C1614 H1598 0.931 . S
C1614 C1608 1.383 . S
C1614 C1613 1.379 . S
H1615 C1609 0.959 . S
H1616 C1609 0.961 . S
H1617 C1609 0.960 . S
H1618 C1610 0.930 . S
H1619 C1611 0.929 . S
H1620 C1628 0.929 . S
H1621 C1630 0.930 . S
H1622 C1632 0.930 . S
H1623 C1635 0.929 . S
H1624 C1638 0.930 . S
H1625 C1640 0.960 . S
H1626 C1640 0.960 . S
H1627 C1640 0.960 . S
C1628 H1620 0.929 . S
C1628 C1629 1.377 . S
C1628 C1630 1.384 . S
C1629 C1628 1.377 . S
C1629 C1635 1.390 . S
C1630 H1621 0.930 . S
C1630 C1628 1.384 . S
C1630 C1631 1.372 . S
C1631 C1630 1.372 . S
C1631 C1632 1.400 . S
C1631 C1636 1.490 . S
C1632 H1622 0.930 . S
C1632 C1631 1.400 . S
C1632 C1635 1.386 . S
H1633 C1649 0.930 . S
H1634 C1650 0.931 . S
C1635 H1623 0.929 . S
C1635 C1629 1.390 . S
C1635 C1632 1.386 . S
C1636 C1631 1.490 . S
C1636 C1638 1.395 . S
C1636 C1639 1.403 . S
H1637 C1643 0.930 . S
C1638 H1624 0.930 . S
C1638 C1636 1.395 . S
C1638 C1641 1.403 . S
C1639 C1636 1.403 . S
C1639 C1640 1.524 . S
C1639 C1643 1.400 . S
C1640 H1625 0.960 . S
C1640 H1626 0.960 . S
C1640 H1627 0.960 . S
C1640 C1639 1.524 . S
C1641 C1638 1.403 . S
C1641 C1642 1.392 . S
C1641 C1645 1.495 . S
C1642 C1641 1.392 . S
C1642 C1643 1.385 . S
C1642 C1644 1.478 . S
C1643 H1637 0.930 . S
C1643 C1639 1.400 . S
C1643 C1642 1.385 . S
C1644 C1642 1.478 . S
C1644 C1646 1.381 . S
C1644 C1650 1.383 . S
C1645 C1641 1.495 . S
C1645 H1651 0.959 . S
C1645 H1652 0.961 . S
C1645 H1653 0.960 . S
C1646 C1644 1.381 . S
C1646 C1647 1.394 . S
C1646 H1654 0.930 . S
C1647 C1646 1.394 . S
C1647 C1648 1.383 . S
C1647 H1655 0.929 . S
C1648 C1647 1.383 . S
C1648 C1649 1.377 . S
C1649 H1633 0.930 . S
C1649 C1648 1.377 . S
C1649 C1650 1.379 . S
C1650 H1634 0.931 . S
C1650 C1644 1.383 . S
C1650 C1649 1.379 . S
H1651 C1645 0.959 . S
H1652 C1645 0.961 . S
H1653 C1645 0.960 . S
H1654 C1646 0.930 . S
H1655 C1647 0.929 . S
H1656 C1664 0.929 1_545 S
H1657 C1666 0.930 . S
H1658 C1668 0.930 . S
H1659 C1671 0.929 . S
H1660 C1674 0.930 . S
H1661 C1676 0.960 . S
H1662 C1676 0.960 . S
H1663 C1676 0.960 . S
C1664 H1656 0.929 1_565 S
C1664 C1665 1.377 . S
C1664 C1666 1.384 . S
C1665 C1664 1.377 . S
C1665 C1671 1.390 . S
C1666 H1657 0.930 . S
C1666 C1664 1.384 . S
C1666 C1667 1.372 . S
C1667 C1666 1.372 . S
C1667 C1668 1.400 . S
C1667 C1672 1.490 . S
C1668 H1658 0.930 . S
C1668 C1667 1.400 . S
C1668 C1671 1.386 . S
H1669 C1685 0.930 . S
H1670 C1686 0.931 . S
C1671 H1659 0.929 . S
C1671 C1665 1.390 . S
C1671 C1668 1.386 . S
C1672 C1667 1.490 . S
C1672 C1674 1.395 . S
C1672 C1675 1.403 1_556 S
H1673 C1679 0.930 . S
C1674 H1660 0.930 . S
C1674 C1672 1.395 . S
C1674 C1677 1.403 . S
C1675 C1672 1.403 1_554 S
C1675 C1676 1.524 . S
C1675 C1679 1.400 . S
C1676 H1661 0.960 . S
C1676 H1662 0.960 . S
C1676 H1663 0.960 . S
C1676 C1675 1.524 . S
C1677 C1674 1.403 . S
C1677 C1678 1.392 . S
C1677 C1681 1.495 . S
C1678 C1677 1.392 . S
C1678 C1679 1.385 1_556 S
C1678 C1680 1.478 . S
C1679 H1673 0.930 . S
C1679 C1675 1.400 . S
C1679 C1678 1.385 1_554 S
C1680 C1678 1.478 . S
C1680 C1682 1.381 1_556 S
C1680 C1686 1.383 . S
C1681 C1677 1.495 . S
C1681 H1687 0.959 . S
C1681 H1688 0.961 . S
C1681 H1689 0.960 . S
C1682 C1680 1.381 1_554 S
C1682 C1683 1.394 . S
C1682 H1690 0.930 . S
C1683 C1682 1.394 . S
C1683 C1684 1.383 . S
C1683 H1691 0.929 . S
C1684 C1683 1.383 . S
C1684 C1685 1.377 1_554 S
C1685 H1669 0.930 . S
C1685 C1684 1.377 1_556 S
C1685 C1686 1.379 . S
C1686 H1670 0.931 . S
C1686 C1680 1.383 . S
C1686 C1685 1.379 . S
H1687 C1681 0.959 . S
H1688 C1681 0.961 . S
H1689 C1681 0.960 . S
H1690 C1682 0.930 . S
H1691 C1683 0.929 . S
H1692 C1700 0.929 . S
H1693 C1702 0.930 . S
H1694 C1704 0.930 . S
H1695 C1707 0.929 . S
H1696 C1710 0.930 . S
H1697 C1712 0.960 . S
H1698 C1712 0.960 . S
H1699 C1712 0.960 . S
C1700 H1692 0.929 . S
C1700 C1701 1.377 . S
C1700 C1702 1.384 . S
C1701 C1700 1.377 . S
C1701 C1707 1.390 . S
C1702 H1693 0.930 . S
C1702 C1700 1.384 . S
C1702 C1703 1.372 . S
C1703 C1702 1.372 . S
C1703 C1704 1.400 . S
C1703 C1708 1.490 . S
C1704 H1694 0.930 . S
C1704 C1703 1.400 . S
C1704 C1707 1.386 . S
H1705 C1721 0.930 . S
H1706 C1722 0.931 . S
C1707 H1695 0.929 . S
C1707 C1701 1.390 . S
C1707 C1704 1.386 . S
C1708 C1703 1.490 . S
C1708 C1710 1.395 . S
C1708 C1711 1.403 . S
H1709 C1715 0.930 . S
C1710 H1696 0.930 . S
C1710 C1708 1.395 . S
C1710 C1713 1.403 . S
C1711 C1708 1.403 . S
C1711 C1712 1.524 . S
C1711 C1715 1.400 . S
C1712 H1697 0.960 . S
C1712 H1698 0.960 . S
C1712 H1699 0.960 . S
C1712 C1711 1.524 . S
C1713 C1710 1.403 . S
C1713 C1714 1.392 . S
C1713 C1717 1.495 . S
C1714 C1713 1.392 . S
C1714 C1715 1.385 . S
C1714 C1716 1.478 . S
C1715 H1709 0.930 . S
C1715 C1711 1.400 . S
C1715 C1714 1.385 . S
C1716 C1714 1.478 . S
C1716 C1718 1.381 . S
C1716 C1722 1.383 . S
C1717 C1713 1.495 . S
C1717 H1723 0.959 . S
C1717 H1724 0.961 . S
C1717 H1725 0.960 . S
C1718 C1716 1.381 . S
C1718 C1719 1.394 . S
C1718 H1726 0.930 . S
C1719 C1718 1.394 . S
C1719 C1720 1.383 . S
C1719 H1727 0.929 . S
C1720 C1719 1.383 . S
C1720 C1721 1.377 . S
C1721 H1705 0.930 . S
C1721 C1720 1.377 . S
C1721 C1722 1.379 . S
C1722 H1706 0.931 . S
C1722 C1716 1.383 . S
C1722 C1721 1.379 . S
H1723 C1717 0.959 . S
H1724 C1717 0.961 . S
H1725 C1717 0.960 . S
H1726 C1718 0.930 . S
H1727 C1719 0.929 . S
H1728 C1736 0.929 . S
H1729 C1738 0.930 . S
H1730 C1740 0.930 . S
H1731 C1743 0.929 . S
H1732 C1746 0.930 . S
H1733 C1748 0.960 . S
H1734 C1748 0.960 . S
H1735 C1748 0.960 . S
C1736 H1728 0.929 . S
C1736 C1737 1.377 . S
C1736 C1738 1.384 . S
C1737 C1736 1.377 . S
C1737 C1743 1.390 . S
C1738 H1729 0.930 . S
C1738 C1736 1.384 . S
C1738 C1739 1.372 . S
C1739 C1738 1.372 . S
C1739 C1740 1.400 . S
C1739 C1744 1.490 . S
C1740 H1730 0.930 . S
C1740 C1739 1.400 . S
C1740 C1743 1.386 . S
H1741 C1757 0.930 . S
H1742 C1758 0.931 . S
C1743 H1731 0.929 . S
C1743 C1737 1.390 . S
C1743 C1740 1.386 . S
C1744 C1739 1.490 . S
C1744 C1746 1.395 . S
C1744 C1747 1.403 . S
H1745 C1751 0.930 . S
C1746 H1732 0.930 . S
C1746 C1744 1.395 . S
C1746 C1749 1.403 . S
C1747 C1744 1.403 . S
C1747 C1748 1.524 . S
C1747 C1751 1.400 . S
C1748 H1733 0.960 . S
C1748 H1734 0.960 . S
C1748 H1735 0.960 . S
C1748 C1747 1.524 . S
C1749 C1746 1.403 . S
C1749 C1750 1.392 . S
C1749 C1753 1.495 . S
C1750 C1749 1.392 . S
C1750 C1751 1.385 . S
C1750 C1752 1.478 . S
C1751 H1745 0.930 . S
C1751 C1747 1.400 . S
C1751 C1750 1.385 . S
C1752 C1750 1.478 . S
C1752 C1754 1.381 . S
C1752 C1758 1.383 . S
C1753 C1749 1.495 . S
C1753 H1759 0.959 . S
C1753 H1760 0.961 . S
C1753 H1761 0.960 . S
C1754 C1752 1.381 . S
C1754 C1755 1.394 . S
C1754 H1762 0.930 . S
C1755 C1754 1.394 . S
C1755 C1756 1.383 . S
C1755 H1763 0.929 . S
C1756 C1755 1.383 . S
C1756 C1757 1.377 . S
C1757 H1741 0.930 . S
C1757 C1756 1.377 . S
C1757 C1758 1.379 . S
C1758 H1742 0.931 . S
C1758 C1752 1.383 . S
C1758 C1757 1.379 . S
H1759 C1753 0.959 . S
H1760 C1753 0.961 . S
H1761 C1753 0.960 . S
H1762 C1754 0.930 . S
H1763 C1755 0.929 . S
H1764 C1772 0.929 . S
H1765 C1774 0.930 . S
H1766 C1776 0.930 . S
H1767 C1779 0.929 . S
H1768 C1782 0.930 . S
H1769 C1784 0.960 . S
H1770 C1784 0.960 . S
H1771 C1784 0.960 . S
C1772 H1764 0.929 . S
C1772 C1773 1.377 . S
C1772 C1774 1.384 . S
C1773 C1772 1.377 . S
C1773 C1779 1.390 . S
C1774 H1765 0.930 . S
C1774 C1772 1.384 . S
C1774 C1775 1.372 . S
C1775 C1774 1.372 . S
C1775 C1776 1.400 . S
C1775 C1780 1.490 . S
C1776 H1766 0.930 . S
C1776 C1775 1.400 . S
C1776 C1779 1.386 . S
H1777 C1793 0.930 . S
H1778 C1794 0.931 . S
C1779 H1767 0.929 . S
C1779 C1773 1.390 . S
C1779 C1776 1.386 . S
C1780 C1775 1.490 . S
C1780 C1782 1.395 . S
C1780 C1783 1.403 . S
H1781 C1787 0.930 . S
C1782 H1768 0.930 . S
C1782 C1780 1.395 . S
C1782 C1785 1.403 . S
C1783 C1780 1.403 . S
C1783 C1784 1.524 . S
C1783 C1787 1.400 . S
C1784 H1769 0.960 . S
C1784 H1770 0.960 . S
C1784 H1771 0.960 . S
C1784 C1783 1.524 . S
C1785 C1782 1.403 . S
C1785 C1786 1.392 . S
C1785 C1789 1.495 . S
C1786 C1785 1.392 . S
C1786 C1787 1.385 . S
C1786 C1788 1.478 . S
C1787 H1781 0.930 . S
C1787 C1783 1.400 . S
C1787 C1786 1.385 . S
C1788 C1786 1.478 . S
C1788 C1790 1.381 . S
C1788 C1794 1.383 . S
C1789 C1785 1.495 . S
C1789 H1795 0.959 . S
C1789 H1796 0.961 . S
C1789 H1797 0.960 . S
C1790 C1788 1.381 . S
C1790 C1791 1.394 . S
C1790 H1798 0.930 . S
C1791 C1790 1.394 . S
C1791 C1792 1.383 . S
C1791 H1799 0.929 . S
C1792 C1791 1.383 . S
C1792 C1793 1.377 . S
C1793 H1777 0.930 . S
C1793 C1792 1.377 . S
C1793 C1794 1.379 . S
C1794 H1778 0.931 . S
C1794 C1788 1.383 . S
C1794 C1793 1.379 . S
H1795 C1789 0.959 . S
H1796 C1789 0.961 . S
H1797 C1789 0.960 . S
H1798 C1790 0.930 . S
H1799 C1791 0.929 . S
H1800 C1808 0.929 . S
H1801 C1810 0.930 . S
H1802 C1812 0.930 . S
H1803 C1815 0.929 . S
H1804 C1818 0.930 . S
H1805 C1820 0.960 . S
H1806 C1820 0.960 . S
H1807 C1820 0.960 . S
C1808 H1800 0.929 . S
C1808 C1809 1.377 . S
C1808 C1810 1.384 . S
C1809 C1808 1.377 . S
C1809 C1815 1.390 . S
C1810 H1801 0.930 . S
C1810 C1808 1.384 . S
C1810 C1811 1.372 . S
C1811 C1810 1.372 . S
C1811 C1812 1.400 . S
C1811 C1816 1.490 . S
C1812 H1802 0.930 . S
C1812 C1811 1.400 . S
C1812 C1815 1.386 . S
H1813 C1829 0.930 . S
H1814 C1830 0.931 . S
C1815 H1803 0.929 . S
C1815 C1809 1.390 . S
C1815 C1812 1.386 . S
C1816 C1811 1.490 . S
C1816 C1818 1.395 . S
C1816 C1819 1.403 . S
H1817 C1823 0.930 . S
C1818 H1804 0.930 . S
C1818 C1816 1.395 . S
C1818 C1821 1.403 . S
C1819 C1816 1.403 . S
C1819 C1820 1.524 . S
C1819 C1823 1.400 . S
C1820 H1805 0.960 . S
C1820 H1806 0.960 . S
C1820 H1807 0.960 . S
C1820 C1819 1.524 . S
C1821 C1818 1.403 . S
C1821 C1822 1.392 . S
C1821 C1825 1.495 . S
C1822 C1821 1.392 . S
C1822 C1823 1.385 . S
C1822 C1824 1.478 . S
C1823 H1817 0.930 . S
C1823 C1819 1.400 . S
C1823 C1822 1.385 . S
C1824 C1822 1.478 . S
C1824 C1826 1.381 . S
C1824 C1830 1.383 . S
C1825 C1821 1.495 . S
C1825 H1831 0.959 . S
C1825 H1832 0.961 . S
C1825 H1833 0.960 . S
C1826 C1824 1.381 . S
C1826 C1827 1.394 . S
C1826 H1834 0.930 . S
C1827 C1826 1.394 . S
C1827 C1828 1.383 . S
C1827 H1835 0.929 . S
C1828 C1827 1.383 . S
C1828 C1829 1.377 . S
C1829 H1813 0.930 . S
C1829 C1828 1.377 . S
C1829 C1830 1.379 . S
C1830 H1814 0.931 . S
C1830 C1824 1.383 . S
C1830 C1829 1.379 . S
H1831 C1825 0.959 . S
H1832 C1825 0.961 . S
H1833 C1825 0.960 . S
H1834 C1826 0.930 . S
H1835 C1827 0.929 . S
H1836 C1844 0.929 . S
H1837 C1846 0.930 . S
H1838 C1848 0.930 . S
H1839 C1851 0.929 . S
H1840 C1854 0.930 . S
H1841 C1856 0.960 . S
H1842 C1856 0.960 . S
H1843 C1856 0.960 . S
C1844 H1836 0.929 . S
C1844 C1845 1.377 . S
C1844 C1846 1.384 . S
C1845 C1844 1.377 . S
C1845 C1851 1.390 . S
C1846 H1837 0.930 . S
C1846 C1844 1.384 . S
C1846 C1847 1.372 . S
C1847 C1846 1.372 . S
C1847 C1848 1.400 . S
C1847 C1852 1.490 . S
C1848 H1838 0.930 . S
C1848 C1847 1.400 . S
C1848 C1851 1.386 . S
H1849 C1865 0.930 . S
H1850 C1866 0.931 . S
C1851 H1839 0.929 . S
C1851 C1845 1.390 . S
C1851 C1848 1.386 . S
C1852 C1847 1.490 . S
C1852 C1854 1.395 . S
C1852 C1855 1.403 . S
H1853 C1859 0.930 . S
C1854 H1840 0.930 . S
C1854 C1852 1.395 . S
C1854 C1857 1.403 . S
C1855 C1852 1.403 . S
C1855 C1856 1.524 . S
C1855 C1859 1.400 . S
C1856 H1841 0.960 . S
C1856 H1842 0.960 . S
C1856 H1843 0.960 . S
C1856 C1855 1.524 . S
C1857 C1854 1.403 . S
C1857 C1858 1.392 . S
C1857 C1861 1.495 . S
C1858 C1857 1.392 . S
C1858 C1859 1.385 . S
C1858 C1860 1.478 . S
C1859 H1853 0.930 . S
C1859 C1855 1.400 . S
C1859 C1858 1.385 . S
C1860 C1858 1.478 . S
C1860 C1862 1.381 . S
C1860 C1866 1.383 . S
C1861 C1857 1.495 . S
C1861 H1867 0.959 . S
C1861 H1868 0.961 . S
C1861 H1869 0.960 . S
C1862 C1860 1.381 . S
C1862 C1863 1.394 . S
C1862 H1870 0.930 . S
C1863 C1862 1.394 . S
C1863 C1864 1.383 . S
C1863 H1871 0.929 . S
C1864 C1863 1.383 . S
C1864 C1865 1.377 . S
C1865 H1849 0.930 . S
C1865 C1864 1.377 . S
C1865 C1866 1.379 . S
C1866 H1850 0.931 . S
C1866 C1860 1.383 . S
C1866 C1865 1.379 . S
H1867 C1861 0.959 . S
H1868 C1861 0.961 . S
H1869 C1861 0.960 . S
H1870 C1862 0.930 . S
H1871 C1863 0.929 . S
H1872 C1880 0.929 . S
H1873 C1882 0.930 . S
H1874 C1884 0.930 . S
H1875 C1887 0.929 . S
H1876 C1890 0.930 . S
H1877 C1892 0.960 . S
H1878 C1892 0.960 . S
H1879 C1892 0.960 . S
C1880 H1872 0.929 . S
C1880 C1881 1.377 . S
C1880 C1882 1.384 . S
C1881 C1880 1.377 . S
C1881 C1887 1.390 . S
C1882 H1873 0.930 . S
C1882 C1880 1.384 . S
C1882 C1883 1.372 . S
C1883 C1882 1.372 . S
C1883 C1884 1.400 . S
C1883 C1888 1.490 . S
C1884 H1874 0.930 . S
C1884 C1883 1.400 . S
C1884 C1887 1.386 . S
H1885 C1901 0.930 . S
H1886 C1902 0.931 . S
C1887 H1875 0.929 . S
C1887 C1881 1.390 . S
C1887 C1884 1.386 . S
C1888 C1883 1.490 . S
C1888 C1890 1.395 . S
C1888 C1891 1.403 . S
H1889 C1895 0.930 . S
C1890 H1876 0.930 . S
C1890 C1888 1.395 . S
C1890 C1893 1.403 . S
C1891 C1888 1.403 . S
C1891 C1892 1.524 . S
C1891 C1895 1.400 . S
C1892 H1877 0.960 . S
C1892 H1878 0.960 . S
C1892 H1879 0.960 . S
C1892 C1891 1.524 . S
C1893 C1890 1.403 . S
C1893 C1894 1.392 . S
C1893 C1897 1.495 . S
C1894 C1893 1.392 . S
C1894 C1895 1.385 . S
C1894 C1896 1.478 . S
C1895 H1889 0.930 . S
C1895 C1891 1.400 . S
C1895 C1894 1.385 . S
C1896 C1894 1.478 . S
C1896 C1898 1.381 . S
C1896 C1902 1.383 . S
C1897 C1893 1.495 . S
C1897 H1903 0.959 . S
C1897 H1904 0.961 . S
C1897 H1905 0.960 . S
C1898 C1896 1.381 . S
C1898 C1899 1.394 . S
C1898 H1906 0.930 . S
C1899 C1898 1.394 . S
C1899 C1900 1.383 . S
C1899 H1907 0.929 . S
C1900 C1899 1.383 . S
C1900 C1901 1.377 . S
C1901 H1885 0.930 . S
C1901 C1900 1.377 . S
C1901 C1902 1.379 . S
C1902 H1886 0.931 . S
C1902 C1896 1.383 . S
C1902 C1901 1.379 . S
H1903 C1897 0.959 . S
H1904 C1897 0.961 . S
H1905 C1897 0.960 . S
H1906 C1898 0.930 . S
H1907 C1899 0.929 . S
H1908 C1916 0.929 . S
H1909 C1918 0.930 . S
H1910 C1920 0.930 . S
H1911 C1923 0.929 . S
H1912 C1926 0.930 1_565 S
H1913 C1928 0.960 . S
H1914 C1928 0.960 . S
H1915 C1928 0.960 . S
C1916 H1908 0.929 . S
C1916 C1917 1.377 . S
C1916 C1918 1.384 . S
C1917 C1916 1.377 . S
C1917 C1923 1.390 . S
C1918 H1909 0.930 . S
C1918 C1916 1.384 . S
C1918 C1919 1.372 . S
C1919 C1918 1.372 . S
C1919 C1920 1.400 . S
C1919 C1924 1.490 . S
C1920 H1910 0.930 . S
C1920 C1919 1.400 . S
C1920 C1923 1.386 . S
H1921 C1937 0.930 . S
H1922 C1938 0.931 . S
C1923 H1911 0.929 . S
C1923 C1917 1.390 . S
C1923 C1920 1.386 . S
C1924 C1919 1.490 . S
C1924 C1926 1.395 . S
C1924 C1927 1.403 . S
H1925 C1931 0.930 . S
C1926 H1912 0.930 1_545 S
C1926 C1924 1.395 . S
C1926 C1929 1.401 1_545 S
C1927 C1924 1.403 . S
C1927 C1928 1.524 . S
C1927 C1931 1.400 . S
C1928 H1913 0.960 . S
C1928 H1914 0.960 . S
C1928 H1915 0.960 . S
C1928 C1927 1.524 . S
C1929 C1926 1.401 1_565 S
C1929 C1930 1.386 1_565 S
C1929 C1933 1.504 . S
C1930 C1929 1.386 1_545 S
C1930 C1931 1.385 . S
C1930 C1932 1.478 . S
C1931 H1925 0.930 . S
C1931 C1927 1.400 . S
C1931 C1930 1.385 . S
C1932 C1930 1.478 . S
C1932 C1934 1.381 . S
C1932 C1938 1.383 . S
C1933 C1929 1.504 . S
C1933 H1939 0.959 . S
C1933 H1940 0.961 . S
C1933 H1941 0.960 . S
C1934 C1932 1.381 . S
C1934 C1935 1.394 . S
C1934 H1942 0.930 . S
C1935 C1934 1.394 . S
C1935 C1936 1.383 . S
C1935 H1943 0.929 . S
C1936 C1935 1.383 . S
C1936 C1937 1.377 . S
C1937 H1921 0.930 . S
C1937 C1936 1.377 . S
C1937 C1938 1.379 . S
C1938 H1922 0.931 . S
C1938 C1932 1.383 . S
C1938 C1937 1.379 . S
H1939 C1933 0.959 . S
H1940 C1933 0.961 . S
H1941 C1933 0.960 . S
H1942 C1934 0.930 . S
H1943 C1935 0.929 . S
H1944 C1952 0.929 . S
H1945 C1954 0.930 . S
H1946 C1956 0.930 . S
H1947 C1959 0.929 . S
H1948 C1962 0.930 . S
H1949 C1964 0.960 . S
H1950 C1964 0.960 . S
H1951 C1964 0.960 . S
C1952 H1944 0.929 . S
C1952 C1953 1.377 . S
C1952 C1954 1.384 . S
C1953 C1952 1.377 . S
C1953 C1959 1.390 . S
C1954 H1945 0.930 . S
C1954 C1952 1.384 . S
C1954 C1955 1.372 . S
C1955 C1954 1.372 . S
C1955 C1956 1.400 . S
C1955 C1960 1.490 . S
C1956 H1946 0.930 . S
C1956 C1955 1.400 . S
C1956 C1959 1.386 . S
H1957 C1973 0.930 . S
H1958 C1974 0.931 . S
C1959 H1947 0.929 . S
C1959 C1953 1.390 . S
C1959 C1956 1.386 . S
C1960 C1955 1.490 . S
C1960 C1962 1.395 . S
C1960 C1963 1.403 . S
H1961 C1967 0.930 . S
C1962 H1948 0.930 . S
C1962 C1960 1.395 . S
C1962 C1965 1.403 . S
C1963 C1960 1.403 . S
C1963 C1964 1.524 . S
C1963 C1967 1.400 . S
C1964 H1949 0.960 . S
C1964 H1950 0.960 . S
C1964 H1951 0.960 . S
C1964 C1963 1.524 . S
C1965 C1962 1.403 . S
C1965 C1966 1.392 . S
C1965 C1969 1.495 . S
C1966 C1965 1.392 . S
C1966 C1967 1.385 . S
C1966 C1968 1.478 . S
C1967 H1961 0.930 . S
C1967 C1963 1.400 . S
C1967 C1966 1.385 . S
C1968 C1966 1.478 . S
C1968 C1970 1.381 . S
C1968 C1974 1.383 . S
C1969 C1965 1.495 . S
C1969 H1975 0.959 . S
C1969 H1976 0.961 . S
C1969 H1977 0.960 . S
C1970 C1968 1.381 . S
C1970 C1971 1.394 . S
C1970 H1978 0.930 . S
C1971 C1970 1.394 . S
C1971 C1972 1.383 . S
C1971 H1979 0.929 . S
C1972 C1971 1.383 . S
C1972 C1973 1.377 . S
C1973 H1957 0.930 . S
C1973 C1972 1.377 . S
C1973 C1974 1.379 . S
C1974 H1958 0.931 . S
C1974 C1968 1.383 . S
C1974 C1973 1.379 . S
H1975 C1969 0.959 . S
H1976 C1969 0.961 . S
H1977 C1969 0.960 . S
H1978 C1970 0.930 . S
H1979 C1971 0.929 . S
H1980 C1988 0.929 . S
H1981 C1990 0.930 . S
H1982 C1992 0.930 . S
H1983 C1995 0.929 . S
H1984 C1998 0.930 . S
H1985 C2000 0.960 . S
H1986 C2000 0.960 . S
H1987 C2000 0.960 . S
C1988 H1980 0.929 . S
C1988 C1989 1.377 . S
C1988 C1990 1.384 . S
C1989 C1988 1.377 . S
C1989 C1995 1.390 . S
C1990 H1981 0.930 . S
C1990 C1988 1.384 . S
C1990 C1991 1.372 . S
C1991 C1990 1.372 . S
C1991 C1992 1.400 . S
C1991 C1996 1.490 . S
C1992 H1982 0.930 . S
C1992 C1991 1.400 . S
C1992 C1995 1.386 . S
H1993 C2009 0.930 . S
H1994 C2010 0.931 . S
C1995 H1983 0.929 . S
C1995 C1989 1.390 . S
C1995 C1992 1.386 . S
C1996 C1991 1.490 . S
C1996 C1998 1.395 . S
C1996 C1999 1.403 . S
H1997 C2003 0.930 . S
C1998 H1984 0.930 . S
C1998 C1996 1.395 . S
C1998 C2001 1.403 . S
C1999 C1996 1.403 . S
C1999 C2000 1.524 . S
C1999 C2003 1.400 . S
C2000 H1985 0.960 . S
C2000 H1986 0.960 . S
C2000 H1987 0.960 . S
C2000 C1999 1.524 . S
C2001 C1998 1.403 . S
C2001 C2002 1.392 . S
C2001 C2005 1.495 . S
C2002 C2001 1.392 . S
C2002 C2003 1.385 . S
C2002 C2004 1.478 . S
C2003 H1997 0.930 . S
C2003 C1999 1.400 . S
C2003 C2002 1.385 . S
C2004 C2002 1.478 . S
C2004 C2006 1.381 . S
C2004 C2010 1.383 . S
C2005 C2001 1.495 . S
C2005 H2011 0.959 . S
C2005 H2012 0.961 . S
C2005 H2013 0.960 . S
C2006 C2004 1.381 . S
C2006 C2007 1.394 . S
C2006 H2014 0.930 . S
C2007 C2006 1.394 . S
C2007 C2008 1.383 . S
C2007 H2015 0.929 . S
C2008 C2007 1.383 . S
C2008 C2009 1.377 . S
C2009 H1993 0.930 . S
C2009 C2008 1.377 . S
C2009 C2010 1.379 . S
C2010 H1994 0.931 . S
C2010 C2004 1.383 . S
C2010 C2009 1.379 . S
H2011 C2005 0.959 . S
H2012 C2005 0.961 . S
H2013 C2005 0.960 . S
H2014 C2006 0.930 . S
H2015 C2007 0.929 . S
H2016 C2024 0.929 . S
H2017 C2026 0.930 . S
H2018 C2028 0.930 . S
H2019 C2031 0.929 . S
H2020 C2034 0.930 . S
H2021 C2036 0.960 . S
H2022 C2036 0.960 . S
H2023 C2036 0.960 . S
C2024 H2016 0.929 . S
C2024 C2025 1.377 . S
C2024 C2026 1.384 . S
C2025 C2024 1.377 . S
C2025 C2031 1.390 . S
C2026 H2017 0.930 . S
C2026 C2024 1.384 . S
C2026 C2027 1.372 . S
C2027 C2026 1.372 . S
C2027 C2028 1.400 . S
C2027 C2032 1.490 . S
C2028 H2018 0.930 . S
C2028 C2027 1.400 . S
C2028 C2031 1.386 . S
H2029 C2045 0.930 . S
H2030 C2046 0.931 . S
C2031 H2019 0.929 . S
C2031 C2025 1.390 . S
C2031 C2028 1.386 . S
C2032 C2027 1.490 . S
C2032 C2034 1.395 . S
C2032 C2035 1.403 . S
H2033 C2039 0.930 . S
C2034 H2020 0.930 . S
C2034 C2032 1.395 . S
C2034 C2037 1.403 . S
C2035 C2032 1.403 . S
C2035 C2036 1.524 . S
C2035 C2039 1.400 . S
C2036 H2021 0.960 . S
C2036 H2022 0.960 . S
C2036 H2023 0.960 . S
C2036 C2035 1.524 . S
C2037 C2034 1.403 . S
C2037 C2038 1.392 . S
C2037 C2041 1.495 . S
C2038 C2037 1.392 . S
C2038 C2039 1.385 . S
C2038 C2040 1.478 . S
C2039 H2033 0.930 . S
C2039 C2035 1.400 . S
C2039 C2038 1.385 . S
C2040 C2038 1.478 . S
C2040 C2042 1.381 . S
C2040 C2046 1.383 . S
C2041 C2037 1.495 . S
C2041 H2047 0.959 . S
C2041 H2048 0.961 . S
C2041 H2049 0.960 . S
C2042 C2040 1.381 . S
C2042 C2043 1.394 . S
C2042 H2050 0.930 . S
C2043 C2042 1.394 . S
C2043 C2044 1.383 . S
C2043 H2051 0.929 . S
C2044 C2043 1.383 . S
C2044 C2045 1.377 . S
C2045 H2029 0.930 . S
C2045 C2044 1.377 . S
C2045 C2046 1.379 . S
C2046 H2030 0.931 . S
C2046 C2040 1.383 . S
C2046 C2045 1.379 . S
H2047 C2041 0.959 . S
H2048 C2041 0.961 . S
H2049 C2041 0.960 . S
H2050 C2042 0.930 . S
H2051 C2043 0.929 . S
H2052 C2060 0.929 . S
H2053 C2062 0.930 . S
H2054 C2064 0.913 1_565 S
H2055 C2067 0.929 . S
H2056 C2070 0.930 . S
H2057 C2072 0.960 . S
H2058 C2072 0.960 . S
H2059 C2072 0.960 . S
C2060 H2052 0.929 . S
C2060 C2061 1.377 . S
C2060 C2062 1.384 . S
C2061 C2060 1.377 . S
C2061 C2067 1.390 . S
C2062 H2053 0.930 . S
C2062 C2060 1.384 . S
C2062 C2063 1.372 . S
C2063 C2062 1.372 . S
C2063 C2064 1.400 . S
C2063 C2068 1.490 . S
C2064 H2054 0.913 1_545 S
C2064 C2063 1.400 . S
C2064 C2067 1.386 . S
H2065 C2081 0.930 . S
H2066 C2082 0.902 1_565 S
C2067 H2055 0.929 . S
C2067 C2061 1.390 . S
C2067 C2064 1.386 . S
C2068 C2063 1.490 . S
C2068 C2070 1.395 . S
C2068 C2071 1.403 . S
H2069 C2075 0.930 . S
C2070 H2056 0.930 . S
C2070 C2068 1.395 . S
C2070 C2073 1.403 . S
C2071 C2068 1.403 . S
C2071 C2072 1.524 . S
C2071 C2075 1.400 . S
C2072 H2057 0.960 . S
C2072 H2058 0.960 . S
C2072 H2059 0.960 . S
C2072 C2071 1.524 . S
C2073 C2070 1.403 . S
C2073 C2074 1.392 . S
C2073 C2077 1.495 . S
C2074 C2073 1.392 . S
C2074 C2075 1.385 . S
C2074 C2076 1.478 . S
C2075 H2069 0.930 . S
C2075 C2071 1.400 . S
C2075 C2074 1.385 . S
C2076 C2074 1.478 . S
C2076 C2078 1.381 . S
C2076 C2082 1.415 . S
C2077 C2073 1.495 . S
C2077 H2083 0.959 . S
C2077 H2084 0.961 . S
C2077 H2085 0.960 . S
C2078 C2076 1.381 . S
C2078 C2079 1.394 . S
C2078 H2086 0.930 . S
C2079 C2078 1.394 . S
C2079 C2080 1.383 . S
C2079 H2087 0.929 . S
C2080 C2079 1.383 . S
C2080 C2081 1.377 1_545 S
C2081 H2065 0.930 . S
C2081 C2080 1.377 1_565 S
C2081 C2082 1.376 1_565 S
C2082 H2066 0.902 1_545 S
C2082 C2076 1.415 . S
C2082 C2081 1.376 1_545 S
H2083 C2077 0.959 . S
H2084 C2077 0.961 . S
H2085 C2077 0.960 . S
H2086 C2078 0.930 . S
H2087 C2079 0.929 . S
H2088 C2096 0.929 . S
H2089 C2098 0.930 . S
H2090 C2100 0.930 . S
H2091 C2103 0.929 . S
H2092 C2106 0.930 . S
H2093 C2108 0.960 . S
H2094 C2108 0.960 . S
H2095 C2108 0.960 . S
C2096 H2088 0.929 . S
C2096 C2097 1.377 . S
C2096 C2098 1.384 . S
C2097 C2096 1.377 . S
C2097 C2103 1.390 . S
C2098 H2089 0.930 . S
C2098 C2096 1.384 . S
C2098 C2099 1.372 . S
C2099 C2098 1.372 . S
C2099 C2100 1.400 . S
C2099 C2104 1.490 . S
C2100 H2090 0.930 . S
C2100 C2099 1.400 . S
C2100 C2103 1.386 . S
H2101 C2117 0.930 . S
H2102 C2118 0.931 . S
C2103 H2091 0.929 . S
C2103 C2097 1.390 . S
C2103 C2100 1.386 . S
C2104 C2099 1.490 . S
C2104 C2106 1.395 . S
C2104 C2107 1.403 . S
H2105 C2111 0.930 . S
C2106 H2092 0.930 . S
C2106 C2104 1.395 . S
C2106 C2109 1.403 . S
C2107 C2104 1.403 . S
C2107 C2108 1.524 . S
C2107 C2111 1.400 . S
C2108 H2093 0.960 . S
C2108 H2094 0.960 . S
C2108 H2095 0.960 . S
C2108 C2107 1.524 . S
C2109 C2106 1.403 . S
C2109 C2110 1.392 . S
C2109 C2113 1.495 . S
C2110 C2109 1.392 . S
C2110 C2111 1.385 . S
C2110 C2112 1.478 . S
C2111 H2105 0.930 . S
C2111 C2107 1.400 . S
C2111 C2110 1.385 . S
C2112 C2110 1.478 . S
C2112 C2114 1.381 . S
C2112 C2118 1.383 . S
C2113 C2109 1.495 . S
C2113 H2119 0.959 . S
C2113 H2120 0.961 . S
C2113 H2121 0.960 . S
C2114 C2112 1.381 . S
C2114 C2115 1.394 . S
C2114 H2122 0.930 . S
C2115 C2114 1.394 . S
C2115 C2116 1.383 . S
C2115 H2123 0.929 . S
C2116 C2115 1.383 . S
C2116 C2117 1.377 . S
C2117 H2101 0.930 . S
C2117 C2116 1.377 . S
C2117 C2118 1.379 . S
C2118 H2102 0.931 . S
C2118 C2112 1.383 . S
C2118 C2117 1.379 . S
H2119 C2113 0.959 . S
H2120 C2113 0.961 . S
H2121 C2113 0.960 . S
H2122 C2114 0.930 . S
H2123 C2115 0.929 . S
H2124 C2132 0.929 . S
H2125 C2134 0.930 . S
H2126 C2136 0.930 . S
H2127 C2139 0.929 . S
H2128 C2142 0.930 . S
H2129 C2144 0.960 . S
H2130 C2144 0.960 . S
H2131 C2144 0.960 . S
C2132 H2124 0.929 . S
C2132 C2133 1.377 . S
C2132 C2134 1.384 . S
C2133 C2132 1.377 . S
C2133 C2139 1.390 . S
C2134 H2125 0.930 . S
C2134 C2132 1.384 . S
C2134 C2135 1.372 . S
C2135 C2134 1.372 . S
C2135 C2136 1.400 . S
C2135 C2140 1.490 . S
C2136 H2126 0.930 . S
C2136 C2135 1.400 . S
C2136 C2139 1.386 . S
H2137 C2153 0.930 . S
H2138 C2154 0.931 . S
C2139 H2127 0.929 . S
C2139 C2133 1.390 . S
C2139 C2136 1.386 . S
C2140 C2135 1.490 . S
C2140 C2142 1.395 . S
C2140 C2143 1.403 . S
H2141 C2147 0.930 . S
C2142 H2128 0.930 . S
C2142 C2140 1.395 . S
C2142 C2145 1.403 . S
C2143 C2140 1.403 . S
C2143 C2144 1.524 . S
C2143 C2147 1.400 . S
C2144 H2129 0.960 . S
C2144 H2130 0.960 . S
C2144 H2131 0.960 . S
C2144 C2143 1.524 . S
C2145 C2142 1.403 . S
C2145 C2146 1.392 . S
C2145 C2149 1.495 . S
C2146 C2145 1.392 . S
C2146 C2147 1.385 . S
C2146 C2148 1.478 . S
C2147 H2141 0.930 . S
C2147 C2143 1.400 . S
C2147 C2146 1.385 . S
C2148 C2146 1.478 . S
C2148 C2150 1.381 . S
C2148 C2154 1.383 . S
C2149 C2145 1.495 . S
C2149 H2155 0.959 . S
C2149 H2156 0.961 . S
C2149 H2157 0.960 . S
C2150 C2148 1.381 . S
C2150 C2151 1.394 . S
C2150 H2158 0.930 . S
C2151 C2150 1.394 . S
C2151 C2152 1.383 . S
C2151 H2159 0.929 . S
C2152 C2151 1.383 . S
C2152 C2153 1.377 . S
C2153 H2137 0.930 . S
C2153 C2152 1.377 . S
C2153 C2154 1.379 . S
C2154 H2138 0.931 . S
C2154 C2148 1.383 . S
C2154 C2153 1.379 . S
H2155 C2149 0.959 . S
H2156 C2149 0.961 . S
H2157 C2149 0.960 . S
H2158 C2150 0.930 . S
H2159 C2151 0.929 . S
H2160 C2168 0.929 . S
H2161 C2170 0.930 . S
H2162 C2172 0.930 . S
H2163 C2175 0.929 . S
H2164 C2178 0.930 . S
H2165 C2180 0.960 . S
H2166 C2180 0.960 . S
H2167 C2180 0.960 . S
C2168 H2160 0.929 . S
C2168 C2169 1.377 . S
C2168 C2170 1.384 . S
C2169 C2168 1.377 . S
C2169 C2175 1.390 . S
C2170 H2161 0.930 . S
C2170 C2168 1.384 . S
C2170 C2171 1.372 . S
C2171 C2170 1.372 . S
C2171 C2172 1.400 . S
C2171 C2176 1.490 . S
C2172 H2162 0.930 . S
C2172 C2171 1.400 . S
C2172 C2175 1.386 . S
H2173 C2189 0.930 . S
H2174 C2190 0.931 . S
C2175 H2163 0.929 . S
C2175 C2169 1.390 . S
C2175 C2172 1.386 . S
C2176 C2171 1.490 . S
C2176 C2178 1.395 . S
C2176 C2179 1.403 . S
H2177 C2183 0.930 . S
C2178 H2164 0.930 . S
C2178 C2176 1.395 . S
C2178 C2181 1.403 . S
C2179 C2176 1.403 . S
C2179 C2180 1.524 . S
C2179 C2183 1.400 . S
C2180 H2165 0.960 . S
C2180 H2166 0.960 . S
C2180 H2167 0.960 . S
C2180 C2179 1.524 . S
C2181 C2178 1.403 . S
C2181 C2182 1.392 . S
C2181 C2185 1.495 . S
C2182 C2181 1.392 . S
C2182 C2183 1.385 . S
C2182 C2184 1.478 . S
C2183 H2177 0.930 . S
C2183 C2179 1.400 . S
C2183 C2182 1.385 . S
C2184 C2182 1.478 . S
C2184 C2186 1.381 . S
C2184 C2190 1.383 . S
C2185 C2181 1.495 . S
C2185 H2191 0.959 . S
C2185 H2192 0.961 . S
C2185 H2193 0.960 . S
C2186 C2184 1.381 . S
C2186 C2187 1.394 . S
C2186 H2194 0.930 . S
C2187 C2186 1.394 . S
C2187 C2188 1.383 . S
C2187 H2195 0.929 . S
C2188 C2187 1.383 . S
C2188 C2189 1.377 . S
C2189 H2173 0.930 . S
C2189 C2188 1.377 . S
C2189 C2190 1.379 . S
C2190 H2174 0.931 . S
C2190 C2184 1.383 . S
C2190 C2189 1.379 . S
H2191 C2185 0.959 . S
H2192 C2185 0.961 . S
H2193 C2185 0.960 . S
H2194 C2186 0.930 . S
H2195 C2187 0.929 . S
H2196 C2204 0.929 . S
H2197 C2206 0.930 . S
H2198 C2208 0.930 . S
H2199 C2211 0.929 . S
H2200 C2214 0.930 . S
H2201 C2216 0.960 . S
H2202 C2216 0.960 . S
H2203 C2216 0.960 . S
C2204 H2196 0.929 . S
C2204 C2205 1.377 . S
C2204 C2206 1.384 . S
C2205 C2204 1.377 . S
C2205 C2211 1.390 . S
C2206 H2197 0.930 . S
C2206 C2204 1.384 . S
C2206 C2207 1.372 . S
C2207 C2206 1.372 . S
C2207 C2208 1.400 . S
C2207 C2212 1.490 . S
C2208 H2198 0.930 . S
C2208 C2207 1.400 . S
C2208 C2211 1.386 . S
H2209 C2225 0.935 . S
H2210 C2226 0.931 . S
C2211 H2199 0.929 . S
C2211 C2205 1.390 . S
C2211 C2208 1.386 . S
C2212 C2207 1.490 . S
C2212 C2214 1.395 . S
C2212 C2215 1.403 1_655 S
H2213 C2219 0.930 . S
C2214 H2200 0.930 . S
C2214 C2212 1.395 . S
C2214 C2217 1.403 . S
C2215 C2212 1.403 1_455 S
C2215 C2216 1.524 . S
C2215 C2219 1.400 . S
C2216 H2201 0.960 . S
C2216 H2202 0.960 . S
C2216 H2203 0.960 . S
C2216 C2215 1.524 . S
C2217 C2214 1.403 . S
C2217 C2218 1.392 . S
C2217 C2221 1.495 . S
C2218 C2217 1.392 . S
C2218 C2219 1.385 1_655 S
C2218 C2220 1.478 . S
C2219 H2213 0.930 . S
C2219 C2215 1.400 . S
C2219 C2218 1.385 1_455 S
C2220 C2218 1.478 . S
C2220 C2222 1.381 . S
C2220 C2226 1.383 . S
C2221 C2217 1.495 . S
C2221 H2227 0.959 . S
C2221 H2228 0.961 . S
C2221 H2229 0.960 . S
C2222 C2220 1.381 . S
C2222 C2223 1.394 . S
C2222 H2230 0.930 . S
C2223 C2222 1.394 . S
C2223 C2224 1.383 . S
C2223 H2231 0.929 . S
C2224 C2223 1.383 . S
C2224 C2225 1.377 . S
C2225 H2209 0.935 . S
C2225 C2224 1.377 . S
C2225 C2226 1.379 . S
C2226 H2210 0.931 . S
C2226 C2220 1.383 . S
C2226 C2225 1.379 . S
H2227 C2221 0.959 . S
H2228 C2221 0.961 . S
H2229 C2221 0.960 . S
H2230 C2222 0.930 . S
H2231 C2223 0.929 . S
H2232 C2240 0.929 . S
H2233 C2242 0.930 . S
H2234 C2244 0.930 . S
H2235 C2247 0.929 . S
H2236 C2250 0.930 . S
H2237 C2252 0.960 . S
H2238 C2252 0.960 . S
H2239 C2252 0.960 . S
C2240 H2232 0.929 . S
C2240 C2241 1.377 . S
C2240 C2242 1.384 . S
C2241 C2240 1.377 . S
C2241 C2247 1.390 . S
C2242 H2233 0.930 . S
C2242 C2240 1.384 . S
C2242 C2243 1.372 . S
C2243 C2242 1.372 . S
C2243 C2244 1.400 . S
C2243 C2248 1.490 . S
C2244 H2234 0.930 . S
C2244 C2243 1.400 . S
C2244 C2247 1.386 . S
H2245 C2261 0.930 . S
H2246 C2262 0.931 . S
C2247 H2235 0.929 . S
C2247 C2241 1.390 . S
C2247 C2244 1.386 . S
C2248 C2243 1.490 . S
C2248 C2250 1.395 . S
C2248 C2251 1.403 . S
H2249 C2255 0.930 . S
C2250 H2236 0.930 . S
C2250 C2248 1.395 . S
C2250 C2253 1.403 . S
C2251 C2248 1.403 . S
C2251 C2252 1.524 . S
C2251 C2255 1.400 . S
C2252 H2237 0.960 . S
C2252 H2238 0.960 . S
C2252 H2239 0.960 . S
C2252 C2251 1.524 . S
C2253 C2250 1.403 . S
C2253 C2254 1.392 . S
C2253 C2257 1.495 . S
C2254 C2253 1.392 . S
C2254 C2255 1.385 . S
C2254 C2256 1.478 . S
C2255 H2249 0.930 . S
C2255 C2251 1.400 . S
C2255 C2254 1.385 . S
C2256 C2254 1.478 . S
C2256 C2258 1.381 . S
C2256 C2262 1.383 . S
C2257 C2253 1.495 . S
C2257 H2263 0.959 . S
C2257 H2264 0.961 . S
C2257 H2265 0.960 . S
C2258 C2256 1.381 . S
C2258 C2259 1.394 . S
C2258 H2266 0.930 . S
C2259 C2258 1.394 . S
C2259 C2260 1.383 . S
C2259 H2267 0.929 . S
C2260 C2259 1.383 . S
C2260 C2261 1.377 . S
C2261 H2245 0.930 . S
C2261 C2260 1.377 . S
C2261 C2262 1.379 . S
C2262 H2246 0.931 . S
C2262 C2256 1.383 . S
C2262 C2261 1.379 . S
H2263 C2257 0.959 . S
H2264 C2257 0.961 . S
H2265 C2257 0.960 . S
H2266 C2258 0.930 . S
H2267 C2259 0.929 . S
H2268 C2276 0.929 . S
H2269 C2278 0.930 . S
H2270 C2280 0.930 . S
H2271 C2283 0.929 . S
H2272 C2286 0.930 . S
H2273 C2288 0.960 . S
H2274 C2288 0.960 . S
H2275 C2288 0.960 . S
C2276 H2268 0.929 . S
C2276 C2277 1.377 . S
C2276 C2278 1.384 . S
C2277 C2276 1.377 . S
C2277 C2283 1.390 . S
C2278 H2269 0.930 . S
C2278 C2276 1.384 . S
C2278 C2279 1.372 . S
C2279 C2278 1.372 . S
C2279 C2280 1.400 . S
C2279 C2284 1.490 . S
C2280 H2270 0.930 . S
C2280 C2279 1.400 . S
C2280 C2283 1.386 . S
H2281 C2297 0.930 1_655 S
H2282 C2298 0.931 . S
C2283 H2271 0.929 . S
C2283 C2277 1.390 . S
C2283 C2280 1.386 . S
C2284 C2279 1.490 . S
C2284 C2286 1.395 . S
C2284 C2287 1.403 . S
H2285 C2291 0.930 1_655 S
C2286 H2272 0.930 . S
C2286 C2284 1.395 . S
C2286 C2289 1.403 . S
C2287 C2284 1.403 . S
C2287 C2288 1.524 1_455 S
C2287 C2291 1.400 . S
C2288 H2273 0.960 . S
C2288 H2274 0.960 . S
C2288 H2275 0.960 . S
C2288 C2287 1.524 1_655 S
C2289 C2286 1.403 . S
C2289 C2290 1.392 . S
C2289 C2293 1.495 . S
C2290 C2289 1.392 . S
C2290 C2291 1.385 . S
C2290 C2292 1.478 . S
C2291 H2285 0.930 1_455 S
C2291 C2287 1.400 . S
C2291 C2290 1.385 . S
C2292 C2290 1.478 . S
C2292 C2294 1.381 . S
C2292 C2298 1.383 . S
C2293 C2289 1.495 . S
C2293 H2299 0.959 . S
C2293 H2300 0.961 . S
C2293 H2301 0.960 . S
C2294 C2292 1.381 . S
C2294 C2295 1.394 . S
C2294 H2302 0.930 . S
C2295 C2294 1.394 . S
C2295 C2296 1.383 . S
C2295 H2303 0.929 . S
C2296 C2295 1.383 . S
C2296 C2297 1.377 . S
C2297 H2281 0.930 1_455 S
C2297 C2296 1.377 . S
C2297 C2298 1.379 . S
C2298 H2282 0.931 . S
C2298 C2292 1.383 . S
C2298 C2297 1.379 . S
H2299 C2293 0.959 . S
H2300 C2293 0.961 . S
H2301 C2293 0.960 . S
H2302 C2294 0.930 . S
H2303 C2295 0.929 . S
H2304 C2312 0.929 . S
H2305 C2314 0.930 . S
H2306 C2316 0.930 . S
H2307 C2319 0.929 . S
H2308 C2322 0.930 . S
H2309 C2324 0.960 . S
H2310 C2324 0.960 . S
H2311 C2324 0.960 . S
C2312 H2304 0.929 . S
C2312 C2313 1.377 . S
C2312 C2314 1.384 . S
C2313 C2312 1.377 . S
C2313 C2319 1.390 . S
C2314 H2305 0.930 . S
C2314 C2312 1.384 . S
C2314 C2315 1.372 . S
C2315 C2314 1.372 . S
C2315 C2316 1.400 . S
C2315 C2320 1.490 . S
C2316 H2306 0.930 . S
C2316 C2315 1.400 . S
C2316 C2319 1.386 . S
H2317 C2333 0.930 . S
H2318 C2334 0.931 . S
C2319 H2307 0.929 . S
C2319 C2313 1.390 . S
C2319 C2316 1.386 . S
C2320 C2315 1.490 . S
C2320 C2322 1.395 . S
C2320 C2323 1.403 . S
H2321 C2327 0.930 . S
C2322 H2308 0.930 . S
C2322 C2320 1.395 . S
C2322 C2325 1.403 . S
C2323 C2320 1.403 . S
C2323 C2324 1.524 . S
C2323 C2327 1.400 . S
C2324 H2309 0.960 . S
C2324 H2310 0.960 . S
C2324 H2311 0.960 . S
C2324 C2323 1.524 . S
C2325 C2322 1.403 . S
C2325 C2326 1.392 . S
C2325 C2329 1.495 . S
C2326 C2325 1.392 . S
C2326 C2327 1.385 . S
C2326 C2328 1.478 . S
C2327 H2321 0.930 . S
C2327 C2323 1.400 . S
C2327 C2326 1.385 . S
C2328 C2326 1.478 . S
C2328 C2330 1.381 . S
C2328 C2334 1.383 . S
C2329 C2325 1.495 . S
C2329 H2335 0.959 . S
C2329 H2336 0.961 . S
C2329 H2337 0.960 . S
C2330 C2328 1.381 . S
C2330 C2331 1.394 . S
C2330 H2338 0.930 . S
C2331 C2330 1.394 . S
C2331 C2332 1.383 . S
C2331 H2339 0.929 . S
C2332 C2331 1.383 . S
C2332 C2333 1.377 . S
C2333 H2317 0.930 . S
C2333 C2332 1.377 . S
C2333 C2334 1.379 . S
C2334 H2318 0.931 . S
C2334 C2328 1.383 . S
C2334 C2333 1.379 . S
H2335 C2329 0.959 . S
H2336 C2329 0.961 . S
H2337 C2329 0.960 . S
H2338 C2330 0.930 . S
H2339 C2331 0.929 . S
H2340 C2348 0.929 . S
H2341 C2350 0.930 . S
H2342 C2352 0.930 . S
H2343 C2355 0.929 . S
H2344 C2358 0.930 . S
H2345 C2360 0.960 . S
H2346 C2360 0.960 . S
H2347 C2360 0.960 . S
C2348 H2340 0.929 . S
C2348 C2349 1.377 . S
C2348 C2350 1.384 . S
C2349 C2348 1.377 . S
C2349 C2355 1.390 . S
C2350 H2341 0.930 . S
C2350 C2348 1.384 . S
C2350 C2351 1.372 . S
C2351 C2350 1.372 . S
C2351 C2352 1.400 . S
C2351 C2356 1.490 . S
C2352 H2342 0.930 . S
C2352 C2351 1.400 . S
C2352 C2355 1.386 . S
H2353 C2369 0.930 . S
H2354 C2370 0.931 . S
C2355 H2343 0.929 . S
C2355 C2349 1.390 . S
C2355 C2352 1.386 . S
C2356 C2351 1.490 . S
C2356 C2358 1.395 . S
C2356 C2359 1.403 . S
H2357 C2363 0.930 . S
C2358 H2344 0.930 . S
C2358 C2356 1.395 . S
C2358 C2361 1.403 . S
C2359 C2356 1.403 . S
C2359 C2360 1.524 . S
C2359 C2363 1.400 . S
C2360 H2345 0.960 . S
C2360 H2346 0.960 . S
C2360 H2347 0.960 . S
C2360 C2359 1.524 . S
C2361 C2358 1.403 . S
C2361 C2362 1.392 . S
C2361 C2365 1.495 . S
C2362 C2361 1.392 . S
C2362 C2363 1.385 . S
C2362 C2364 1.478 . S
C2363 H2357 0.930 . S
C2363 C2359 1.400 . S
C2363 C2362 1.385 . S
C2364 C2362 1.478 . S
C2364 C2366 1.381 . S
C2364 C2370 1.383 . S
C2365 C2361 1.495 . S
C2365 H2371 0.959 . S
C2365 H2372 0.961 . S
C2365 H2373 0.960 . S
C2366 C2364 1.381 . S
C2366 C2367 1.394 . S
C2366 H2374 0.930 . S
C2367 C2366 1.394 . S
C2367 C2368 1.383 . S
C2367 H2375 0.929 . S
C2368 C2367 1.383 . S
C2368 C2369 1.377 . S
C2369 H2353 0.930 . S
C2369 C2368 1.377 . S
C2369 C2370 1.379 . S
C2370 H2354 0.931 . S
C2370 C2364 1.383 . S
C2370 C2369 1.379 . S
H2371 C2365 0.959 . S
H2372 C2365 0.961 . S
H2373 C2365 0.960 . S
H2374 C2366 0.930 . S
H2375 C2367 0.929 . S
H2376 C2384 0.929 . S
H2377 C2386 0.930 . S
H2378 C2388 0.930 . S
H2379 C2391 0.929 . S
H2380 C2394 0.930 . S
H2381 C2396 0.960 . S
H2382 C2396 0.960 . S
H2383 C2396 0.960 . S
C2384 H2376 0.929 . S
C2384 C2385 1.377 . S
C2384 C2386 1.384 . S
C2385 C2384 1.377 . S
C2385 C2391 1.390 . S
C2386 H2377 0.930 . S
C2386 C2384 1.384 . S
C2386 C2387 1.372 . S
C2387 C2386 1.372 . S
C2387 C2388 1.400 . S
C2387 C2392 1.490 . S
C2388 H2378 0.930 . S
C2388 C2387 1.400 . S
C2388 C2391 1.386 . S
H2389 C2405 0.930 . S
H2390 C2406 0.931 . S
C2391 H2379 0.929 . S
C2391 C2385 1.390 . S
C2391 C2388 1.386 . S
C2392 C2387 1.490 . S
C2392 C2394 1.395 . S
C2392 C2395 1.403 . S
H2393 C2399 0.930 . S
C2394 H2380 0.930 . S
C2394 C2392 1.395 . S
C2394 C2397 1.403 . S
C2395 C2392 1.403 . S
C2395 C2396 1.524 . S
C2395 C2399 1.400 . S
C2396 H2381 0.960 . S
C2396 H2382 0.960 . S
C2396 H2383 0.960 . S
C2396 C2395 1.524 . S
C2397 C2394 1.403 . S
C2397 C2398 1.392 . S
C2397 C2401 1.495 . S
C2398 C2397 1.392 . S
C2398 C2399 1.385 . S
C2398 C2400 1.478 . S
C2399 H2393 0.930 . S
C2399 C2395 1.400 . S
C2399 C2398 1.385 . S
C2400 C2398 1.478 . S
C2400 C2402 1.381 . S
C2400 C2406 1.383 . S
C2401 C2397 1.495 . S
C2401 H2407 0.959 . S
C2401 H2408 0.961 . S
C2401 H2409 0.960 . S
C2402 C2400 1.381 . S
C2402 C2403 1.394 . S
C2402 H2410 0.930 . S
C2403 C2402 1.394 . S
C2403 C2404 1.383 . S
C2403 H2411 0.929 . S
C2404 C2403 1.383 . S
C2404 C2405 1.377 . S
C2405 H2389 0.930 . S
C2405 C2404 1.377 . S
C2405 C2406 1.379 . S
C2406 H2390 0.931 . S
C2406 C2400 1.383 . S
C2406 C2405 1.379 . S
H2407 C2401 0.959 . S
H2408 C2401 0.961 . S
H2409 C2401 0.960 . S
H2410 C2402 0.930 . S
H2411 C2403 0.929 . S
H2412 C2420 0.929 . S
H2413 C2422 0.930 . S
H2414 C2424 0.930 . S
H2415 C2427 0.929 . S
H2416 C2430 0.930 . S
H2417 C2432 0.960 . S
H2418 C2432 0.960 . S
H2419 C2432 0.960 . S
C2420 H2412 0.929 . S
C2420 C2421 1.377 . S
C2420 C2422 1.384 . S
C2421 C2420 1.377 . S
C2421 C2427 1.390 . S
C2422 H2413 0.930 . S
C2422 C2420 1.384 . S
C2422 C2423 1.372 . S
C2423 C2422 1.372 . S
C2423 C2424 1.400 . S
C2423 C2428 1.490 . S
C2424 H2414 0.930 . S
C2424 C2423 1.400 . S
C2424 C2427 1.386 . S
H2425 C2441 0.930 . S
H2426 C2442 0.931 . S
C2427 H2415 0.929 . S
C2427 C2421 1.390 . S
C2427 C2424 1.386 . S
C2428 C2423 1.490 . S
C2428 C2430 1.395 . S
C2428 C2431 1.403 . S
H2429 C2435 0.930 . S
C2430 H2416 0.930 . S
C2430 C2428 1.395 . S
C2430 C2433 1.403 . S
C2431 C2428 1.403 . S
C2431 C2432 1.524 . S
C2431 C2435 1.400 . S
C2432 H2417 0.960 . S
C2432 H2418 0.960 . S
C2432 H2419 0.960 . S
C2432 C2431 1.524 . S
C2433 C2430 1.403 . S
C2433 C2434 1.392 . S
C2433 C2437 1.495 . S
C2434 C2433 1.392 . S
C2434 C2435 1.385 . S
C2434 C2436 1.478 . S
C2435 H2429 0.930 . S
C2435 C2431 1.400 . S
C2435 C2434 1.385 . S
C2436 C2434 1.478 . S
C2436 C2438 1.381 . S
C2436 C2442 1.383 . S
C2437 C2433 1.495 . S
C2437 H2443 0.959 . S
C2437 H2444 0.961 . S
C2437 H2445 0.960 . S
C2438 C2436 1.381 . S
C2438 C2439 1.394 . S
C2438 H2446 0.930 . S
C2439 C2438 1.394 . S
C2439 C2440 1.383 . S
C2439 H2447 0.929 . S
C2440 C2439 1.383 . S
C2440 C2441 1.377 . S
C2441 H2425 0.930 . S
C2441 C2440 1.377 . S
C2441 C2442 1.379 . S
C2442 H2426 0.931 . S
C2442 C2436 1.383 . S
C2442 C2441 1.379 . S
H2443 C2437 0.959 . S
H2444 C2437 0.961 . S
H2445 C2437 0.960 . S
H2446 C2438 0.930 . S
H2447 C2439 0.929 . S
H2448 C2456 0.929 . S
H2449 C2458 0.930 . S
H2450 C2460 0.930 . S
H2451 C2463 0.929 . S
H2452 C2466 0.930 . S
H2453 C2468 0.960 . S
H2454 C2468 0.960 . S
H2455 C2468 0.960 . S
C2456 H2448 0.929 . S
C2456 C2457 1.377 . S
C2456 C2458 1.384 . S
C2457 C2456 1.377 . S
C2457 C2463 1.390 . S
C2458 H2449 0.930 . S
C2458 C2456 1.384 . S
C2458 C2459 1.372 . S
C2459 C2458 1.372 . S
C2459 C2460 1.400 . S
C2459 C2464 1.490 . S
C2460 H2450 0.930 . S
C2460 C2459 1.400 . S
C2460 C2463 1.386 . S
H2461 C2477 0.930 . S
H2462 C2478 0.931 . S
C2463 H2451 0.929 . S
C2463 C2457 1.390 . S
C2463 C2460 1.386 . S
C2464 C2459 1.490 . S
C2464 C2466 1.395 . S
C2464 C2467 1.403 . S
H2465 C2471 0.930 . S
C2466 H2452 0.930 . S
C2466 C2464 1.395 . S
C2466 C2469 1.403 . S
C2467 C2464 1.403 . S
C2467 C2468 1.524 . S
C2467 C2471 1.400 . S
C2468 H2453 0.960 . S
C2468 H2454 0.960 . S
C2468 H2455 0.960 . S
C2468 C2467 1.524 . S
C2469 C2466 1.403 . S
C2469 C2470 1.392 . S
C2469 C2473 1.495 . S
C2470 C2469 1.392 . S
C2470 C2471 1.385 . S
C2470 C2472 1.478 . S
C2471 H2465 0.930 . S
C2471 C2467 1.400 . S
C2471 C2470 1.385 . S
C2472 C2470 1.478 . S
C2472 C2474 1.381 . S
C2472 C2478 1.383 . S
C2473 C2469 1.495 . S
C2473 H2479 0.959 . S
C2473 H2480 0.961 . S
C2473 H2481 0.960 . S
C2474 C2472 1.381 . S
C2474 C2475 1.394 . S
C2474 H2482 0.930 . S
C2475 C2474 1.394 . S
C2475 C2476 1.383 . S
C2475 H2483 0.929 . S
C2476 C2475 1.383 . S
C2476 C2477 1.377 . S
C2477 H2461 0.930 . S
C2477 C2476 1.377 . S
C2477 C2478 1.379 . S
C2478 H2462 0.931 . S
C2478 C2472 1.383 . S
C2478 C2477 1.379 . S
H2479 C2473 0.959 . S
H2480 C2473 0.961 . S
H2481 C2473 0.960 . S
H2482 C2474 0.930 . S
H2483 C2475 0.929 . S
H2484 C2492 0.929 . S
H2485 C2494 0.930 . S
H2486 C2496 0.930 . S
H2487 C2499 0.929 . S
H2488 C2502 0.930 . S
H2489 C2504 0.960 . S
H2490 C2504 0.960 . S
H2491 C2504 0.960 . S
C2492 H2484 0.929 . S
C2492 C2493 1.377 . S
C2492 C2494 1.384 . S
C2493 C2492 1.377 . S
C2493 C2499 1.390 . S
C2494 H2485 0.930 . S
C2494 C2492 1.384 . S
C2494 C2495 1.372 . S
C2495 C2494 1.372 . S
C2495 C2496 1.400 . S
C2495 C2500 1.490 . S
C2496 H2486 0.930 . S
C2496 C2495 1.400 . S
C2496 C2499 1.386 . S
H2497 C2513 0.930 . S
H2498 C2514 0.931 . S
C2499 H2487 0.929 . S
C2499 C2493 1.390 . S
C2499 C2496 1.386 . S
C2500 C2495 1.490 . S
C2500 C2502 1.395 . S
C2500 C2503 1.403 . S
H2501 C2507 0.930 . S
C2502 H2488 0.930 . S
C2502 C2500 1.395 . S
C2502 C2505 1.403 . S
C2503 C2500 1.403 . S
C2503 C2504 1.524 . S
C2503 C2507 1.400 . S
C2504 H2489 0.960 . S
C2504 H2490 0.960 . S
C2504 H2491 0.960 . S
C2504 C2503 1.524 . S
C2505 C2502 1.403 . S
C2505 C2506 1.392 . S
C2505 C2509 1.495 . S
C2506 C2505 1.392 . S
C2506 C2507 1.385 . S
C2506 C2508 1.478 . S
C2507 H2501 0.930 . S
C2507 C2503 1.400 . S
C2507 C2506 1.385 . S
C2508 C2506 1.478 . S
C2508 C2510 1.381 . S
C2508 C2514 1.383 . S
C2509 C2505 1.495 . S
C2509 H2515 0.959 . S
C2509 H2516 0.961 . S
C2509 H2517 0.960 . S
C2510 C2508 1.381 . S
C2510 C2511 1.394 . S
C2510 H2518 0.930 . S
C2511 C2510 1.394 . S
C2511 C2512 1.383 . S
C2511 H2519 0.929 . S
C2512 C2511 1.383 . S
C2512 C2513 1.377 . S
C2513 H2497 0.930 . S
C2513 C2512 1.377 . S
C2513 C2514 1.379 . S
C2514 H2498 0.931 . S
C2514 C2508 1.383 . S
C2514 C2513 1.379 . S
H2515 C2509 0.959 . S
H2516 C2509 0.961 . S
H2517 C2509 0.960 . S
H2518 C2510 0.930 . S
H2519 C2511 0.929 . S
H2520 C2528 0.929 . S
H2521 C2530 0.930 . S
H2522 C2532 0.930 . S
H2523 C2535 0.929 . S
H2524 C2538 0.930 . S
H2525 C2540 0.960 . S
H2526 C2540 0.960 . S
H2527 C2540 0.960 . S
C2528 H2520 0.929 . S
C2528 C2529 1.377 . S
C2528 C2530 1.384 . S
C2529 C2528 1.377 . S
C2529 C2535 1.390 . S
C2530 H2521 0.930 . S
C2530 C2528 1.384 . S
C2530 C2531 1.372 . S
C2531 C2530 1.372 . S
C2531 C2532 1.400 . S
C2531 C2536 1.490 . S
C2532 H2522 0.930 . S
C2532 C2531 1.400 . S
C2532 C2535 1.386 . S
H2533 C2549 0.930 . S
H2534 C2550 0.931 . S
C2535 H2523 0.929 . S
C2535 C2529 1.390 . S
C2535 C2532 1.386 . S
C2536 C2531 1.490 . S
C2536 C2538 1.395 . S
C2536 C2539 1.403 . S
H2537 C2543 0.930 . S
C2538 H2524 0.930 . S
C2538 C2536 1.395 . S
C2538 C2541 1.403 . S
C2539 C2536 1.403 . S
C2539 C2540 1.524 . S
C2539 C2543 1.400 . S
C2540 H2525 0.960 . S
C2540 H2526 0.960 . S
C2540 H2527 0.960 . S
C2540 C2539 1.524 . S
C2541 C2538 1.403 . S
C2541 C2542 1.392 . S
C2541 C2545 1.495 . S
C2542 C2541 1.392 . S
C2542 C2543 1.385 . S
C2542 C2544 1.478 . S
C2543 H2537 0.930 . S
C2543 C2539 1.400 . S
C2543 C2542 1.385 . S
C2544 C2542 1.478 . S
C2544 C2546 1.381 . S
C2544 C2550 1.383 . S
C2545 C2541 1.495 . S
C2545 H2551 0.959 . S
C2545 H2552 0.961 . S
C2545 H2553 0.960 . S
C2546 C2544 1.381 . S
C2546 C2547 1.394 . S
C2546 H2554 0.930 . S
C2547 C2546 1.394 . S
C2547 C2548 1.383 . S
C2547 H2555 0.929 . S
C2548 C2547 1.383 . S
C2548 C2549 1.377 . S
C2549 H2533 0.930 . S
C2549 C2548 1.377 . S
C2549 C2550 1.379 . S
C2550 H2534 0.931 . S
C2550 C2544 1.383 . S
C2550 C2549 1.379 . S
H2551 C2545 0.959 . S
H2552 C2545 0.961 . S
H2553 C2545 0.960 . S
H2554 C2546 0.930 . S
H2555 C2547 0.929 . S
H2556 C2564 0.929 . S
H2557 C2566 0.930 . S
H2558 C2568 0.930 . S
H2559 C2571 0.929 . S
H2560 C2574 0.930 . S
H2561 C2576 0.960 . S
H2562 C2576 0.960 . S
H2563 C2576 0.960 . S
C2564 H2556 0.929 . S
C2564 C2565 1.377 . S
C2564 C2566 1.384 . S
C2565 C2564 1.377 . S
C2565 C2571 1.390 . S
C2566 H2557 0.930 . S
C2566 C2564 1.384 . S
C2566 C2567 1.372 . S
C2567 C2566 1.372 . S
C2567 C2568 1.400 . S
C2567 C2572 1.490 . S
C2568 H2558 0.930 . S
C2568 C2567 1.400 . S
C2568 C2571 1.386 . S
H2569 C2585 0.930 . S
H2570 C2586 0.931 . S
C2571 H2559 0.929 . S
C2571 C2565 1.390 . S
C2571 C2568 1.386 . S
C2572 C2567 1.490 . S
C2572 C2574 1.395 . S
C2572 C2575 1.403 . S
H2573 C2579 0.930 . S
C2574 H2560 0.930 . S
C2574 C2572 1.395 . S
C2574 C2577 1.403 . S
C2575 C2572 1.403 . S
C2575 C2576 1.524 . S
C2575 C2579 1.400 . S
C2576 H2561 0.960 . S
C2576 H2562 0.960 . S
C2576 H2563 0.960 . S
C2576 C2575 1.524 . S
C2577 C2574 1.403 . S
C2577 C2578 1.392 . S
C2577 C2581 1.495 . S
C2578 C2577 1.392 . S
C2578 C2579 1.385 . S
C2578 C2580 1.478 . S
C2579 H2573 0.930 . S
C2579 C2575 1.400 . S
C2579 C2578 1.385 . S
C2580 C2578 1.478 . S
C2580 C2582 1.381 . S
C2580 C2586 1.383 . S
C2581 C2577 1.495 . S
C2581 H2587 0.959 . S
C2581 H2588 0.961 . S
C2581 H2589 0.960 . S
C2582 C2580 1.381 . S
C2582 C2583 1.394 . S
C2582 H2590 0.930 . S
C2583 C2582 1.394 . S
C2583 C2584 1.383 . S
C2583 H2591 0.929 . S
C2584 C2583 1.383 . S
C2584 C2585 1.377 . S
C2585 H2569 0.930 . S
C2585 C2584 1.377 . S
C2585 C2586 1.379 . S
C2586 H2570 0.931 . S
C2586 C2580 1.383 . S
C2586 C2585 1.379 . S
H2587 C2581 0.959 . S
H2588 C2581 0.961 . S
H2589 C2581 0.960 . S
H2590 C2582 0.930 . S
H2591 C2583 0.929 . S
H2592 C2600 0.929 . S
H2593 C2602 0.930 . S
H2594 C2604 0.930 1_554 S
H2595 C2607 0.928 . S
H2596 C2610 0.930 . S
H2597 C2612 0.960 . S
H2598 C2612 0.960 . S
H2599 C2612 0.960 . S
C2600 H2592 0.929 . S
C2600 C2601 1.377 . S
C2600 C2602 1.384 . S
C2601 C2600 1.377 . S
C2601 C2607 1.390 . S
C2602 H2593 0.930 . S
C2602 C2600 1.384 . S
C2602 C2603 1.372 . S
C2603 C2602 1.372 . S
C2603 C2604 1.400 . S
C2603 C2608 1.490 . S
C2604 H2594 0.930 1_556 S
C2604 C2603 1.400 . S
C2604 C2607 1.386 . S
H2605 C2621 0.930 . S
H2606 C2622 0.931 . S
C2607 H2595 0.928 . S
C2607 C2601 1.390 . S
C2607 C2604 1.386 . S
C2608 C2603 1.490 . S
C2608 C2610 1.395 . S
C2608 C2611 1.403 . S
H2609 C2615 0.930 . S
C2610 H2596 0.930 . S
C2610 C2608 1.395 . S
C2610 C2613 1.403 . S
C2611 C2608 1.403 . S
C2611 C2612 1.524 . S
C2611 C2615 1.400 . S
C2612 H2597 0.960 . S
C2612 H2598 0.960 . S
C2612 H2599 0.960 . S
C2612 C2611 1.524 . S
C2613 C2610 1.403 . S
C2613 C2614 1.392 . S
C2613 C2617 1.495 . S
C2614 C2613 1.392 . S
C2614 C2615 1.385 . S
C2614 C2616 1.478 . S
C2615 H2609 0.930 . S
C2615 C2611 1.400 . S
C2615 C2614 1.385 . S
C2616 C2614 1.478 . S
C2616 C2618 1.381 . S
C2616 C2622 1.383 1_556 S
C2617 C2613 1.495 . S
C2617 H2623 0.959 . S
C2617 H2624 0.961 . S
C2617 H2625 0.960 . S
C2618 C2616 1.381 . S
C2618 C2619 1.394 . S
C2618 H2626 0.930 . S
C2619 C2618 1.394 . S
C2619 C2620 1.383 . S
C2619 H2627 0.929 . S
C2620 C2619 1.383 . S
C2620 C2621 1.377 1_556 S
C2621 H2605 0.930 . S
C2621 C2620 1.377 1_554 S
C2621 C2622 1.379 . S
C2622 H2606 0.931 . S
C2622 C2616 1.383 1_554 S
C2622 C2621 1.379 . S
H2623 C2617 0.959 . S
H2624 C2617 0.961 . S
H2625 C2617 0.960 . S
H2626 C2618 0.930 . S
H2627 C2619 0.929 . S
H2628 C2636 0.929 . S
H2629 C2638 0.930 . S
H2630 C2640 0.930 . S
H2631 C2643 0.929 . S
H2632 C2646 0.930 . S
H2633 C2648 0.960 . S
H2634 C2648 0.960 . S
H2635 C2648 0.960 . S
C2636 H2628 0.929 . S
C2636 C2637 1.377 . S
C2636 C2638 1.384 . S
C2637 C2636 1.377 . S
C2637 C2643 1.390 . S
C2638 H2629 0.930 . S
C2638 C2636 1.384 . S
C2638 C2639 1.372 . S
C2639 C2638 1.372 . S
C2639 C2640 1.400 . S
C2639 C2644 1.490 . S
C2640 H2630 0.930 . S
C2640 C2639 1.400 . S
C2640 C2643 1.386 . S
H2641 C2657 0.930 . S
H2642 C2658 0.931 . S
C2643 H2631 0.929 . S
C2643 C2637 1.390 . S
C2643 C2640 1.386 . S
C2644 C2639 1.490 . S
C2644 C2646 1.395 . S
C2644 C2647 1.403 . S
H2645 C2651 0.930 . S
C2646 H2632 0.930 . S
C2646 C2644 1.395 . S
C2646 C2649 1.403 . S
C2647 C2644 1.403 . S
C2647 C2648 1.524 . S
C2647 C2651 1.400 . S
C2648 H2633 0.960 . S
C2648 H2634 0.960 . S
C2648 H2635 0.960 . S
C2648 C2647 1.524 . S
C2649 C2646 1.403 . S
C2649 C2650 1.392 . S
C2649 C2653 1.495 . S
C2650 C2649 1.392 . S
C2650 C2651 1.385 . S
C2650 C2652 1.478 . S
C2651 H2645 0.930 . S
C2651 C2647 1.400 . S
C2651 C2650 1.385 . S
C2652 C2650 1.478 . S
C2652 C2654 1.381 . S
C2652 C2658 1.383 . S
C2653 C2649 1.495 . S
C2653 H2659 0.959 . S
C2653 H2660 0.961 . S
C2653 H2661 0.960 . S
C2654 C2652 1.381 . S
C2654 C2655 1.394 . S
C2654 H2662 0.930 . S
C2655 C2654 1.394 . S
C2655 C2656 1.383 . S
C2655 H2663 0.929 . S
C2656 C2655 1.383 . S
C2656 C2657 1.377 . S
C2657 H2641 0.930 . S
C2657 C2656 1.377 . S
C2657 C2658 1.379 . S
C2658 H2642 0.931 . S
C2658 C2652 1.383 . S
C2658 C2657 1.379 . S
H2659 C2653 0.959 . S
H2660 C2653 0.961 . S
H2661 C2653 0.960 . S
H2662 C2654 0.930 . S
H2663 C2655 0.929 . S
H2664 C2672 0.963 . S
H2665 C2674 0.930 1_556 S
H2666 C2676 0.930 . S
H2667 C2679 0.929 . S
H2668 C2682 0.930 . S
H2669 C2684 0.960 . S
H2670 C2684 0.960 . S
H2671 C2684 0.960 . S
C2672 H2664 0.963 . S
C2672 C2673 1.377 . S
C2672 C2674 1.384 . S
C2673 C2672 1.377 . S
C2673 C2679 1.390 . S
C2674 H2665 0.930 1_554 S
C2674 C2672 1.384 . S
C2674 C2675 1.372 . S
C2675 C2674 1.372 . S
C2675 C2676 1.400 . S
C2675 C2680 1.490 . S
C2676 H2666 0.930 . S
C2676 C2675 1.400 . S
C2676 C2679 1.386 . S
H2677 C2693 0.930 . S
H2678 C2694 0.931 . S
C2679 H2667 0.929 . S
C2679 C2673 1.390 . S
C2679 C2676 1.386 . S
C2680 C2675 1.490 . S
C2680 C2682 1.395 . S
C2680 C2683 1.403 . S
H2681 C2687 0.930 . S
C2682 H2668 0.930 . S
C2682 C2680 1.395 . S
C2682 C2685 1.403 . S
C2683 C2680 1.403 . S
C2683 C2684 1.524 . S
C2683 C2687 1.400 . S
C2684 H2669 0.960 . S
C2684 H2670 0.960 . S
C2684 H2671 0.960 . S
C2684 C2683 1.524 . S
C2685 C2682 1.403 . S
C2685 C2686 1.392 . S
C2685 C2689 1.495 . S
C2686 C2685 1.392 . S
C2686 C2687 1.385 . S
C2686 C2688 1.478 . S
C2687 H2681 0.930 . S
C2687 C2683 1.400 . S
C2687 C2686 1.385 . S
C2688 C2686 1.478 . S
C2688 C2690 1.381 1_554 S
C2688 C2694 1.383 . S
C2689 C2685 1.495 . S
C2689 H2695 0.959 . S
C2689 H2696 0.961 . S
C2689 H2697 1.014 . S
C2690 C2688 1.381 1_556 S
C2690 C2691 1.394 . S
C2690 H2698 0.930 . S
C2691 C2690 1.394 . S
C2691 C2692 1.383 1_556 S
C2691 H2699 0.929 . S
C2692 C2691 1.383 1_554 S
C2692 C2693 1.377 . S
C2693 H2677 0.930 . S
C2693 C2692 1.377 . S
C2693 C2694 1.379 . S
C2694 H2678 0.931 . S
C2694 C2688 1.383 . S
C2694 C2693 1.379 . S
H2695 C2689 0.959 . S
H2696 C2689 0.961 . S
H2697 C2689 1.014 . S
H2698 C2690 0.930 . S
H2699 C2691 0.929 . S
H2700 C2708 0.929 . S
H2701 C2710 0.930 . S
H2702 C2712 0.930 . S
H2703 C2715 0.929 . S
H2704 C2718 0.930 . S
H2705 C2720 0.934 1_556 S
H2706 C2720 0.909 1_556 S
H2707 C2720 1.008 . S
C2708 H2700 0.929 . S
C2708 C2709 1.377 . S
C2708 C2710 1.384 . S
C2709 C2708 1.377 . S
C2709 C2715 1.390 . S
C2710 H2701 0.930 . S
C2710 C2708 1.384 . S
C2710 C2711 1.372 . S
C2711 C2710 1.372 . S
C2711 C2712 1.400 . S
C2711 C2716 1.490 . S
C2712 H2702 0.930 . S
C2712 C2711 1.400 . S
C2712 C2715 1.386 . S
H2713 C2729 0.930 . S
H2714 C2730 0.931 . S
C2715 H2703 0.929 . S
C2715 C2709 1.390 . S
C2715 C2712 1.386 . S
C2716 C2711 1.490 . S
C2716 C2718 1.395 . S
C2716 C2719 1.403 . S
H2717 C2723 0.930 . S
C2718 H2704 0.930 . S
C2718 C2716 1.395 . S
C2718 C2721 1.403 . S
C2719 C2716 1.403 . S
C2719 C2720 1.560 . S
C2719 C2723 1.400 . S
C2720 H2705 0.934 1_554 S
C2720 H2706 0.909 1_554 S
C2720 H2707 1.008 . S
C2720 C2719 1.560 . S
C2721 C2718 1.403 . S
C2721 C2722 1.392 . S
C2721 C2725 1.495 . S
C2722 C2721 1.392 . S
C2722 C2723 1.385 . S
C2722 C2724 1.478 . S
C2723 H2717 0.930 . S
C2723 C2719 1.400 . S
C2723 C2722 1.385 . S
C2724 C2722 1.478 . S
C2724 C2726 1.381 . S
C2724 C2730 1.383 . S
C2725 C2721 1.495 . S
C2725 H2731 0.959 . S
C2725 H2732 0.961 . S
C2725 H2733 0.960 . S
C2726 C2724 1.381 . S
C2726 C2727 1.394 . S
C2726 H2734 0.930 . S
C2727 C2726 1.394 . S
C2727 C2728 1.383 . S
C2727 H2735 0.899 1_554 S
C2728 C2727 1.383 . S
C2728 C2729 1.377 . S
C2729 H2713 0.930 . S
C2729 C2728 1.377 . S
C2729 C2730 1.379 . S
C2730 H2714 0.931 . S
C2730 C2724 1.383 . S
C2730 C2729 1.379 . S
H2731 C2725 0.959 . S
H2732 C2725 0.961 . S
H2733 C2725 0.960 . S
H2734 C2726 0.930 . S
H2735 C2727 0.899 1_556 S
C1036 C578 1.422 . S
C1017 C181 1.423 . S
C1072 C626 1.669 . S
C1053 C247 1.712 . S
C1089 C283 1.412 . S
C1108 C662 1.318 . S
C1144 C698 1.607 . S
C1125 C169 1.650 . S
C1180 C724 1.448 . S
C1161 C361 1.455 . S
C1216 C760 1.597 . S
C1197 C433 1.600 . S
C1233 C421 1.475 . S
C1252 C795 1.476 . S
C1288 C832 1.639 1_565 S
C1269 C355 1.648 . S
C1305 C427 1.437 . S
C1324 C866 1.431 . S
C1360 C914 1.556 . S
C1341 C325 1.630 . S
C1377 C385 1.425 . S
C1396 C867 1.423 . S
C1432 C904 1.640 . S
C1413 C463 1.634 . S
C1449 C253 1.456 . S
C1468 C950 1.384 . S
C1485 C145 1.656 . S
C1504 C939 1.658 . S
C1521 C205 1.461 . S
C1540 C940 1.439 . S
C1557 C217 1.675 . S
C1576 C938 1.689 . S
C1593 C139 1.449 . S
C1612 C686 1.415 . S
C1629 C535 1.415 . S
C1648 C687 1.411 . S
C1684 C590 1.584 . S
C1665 C565 1.662 . S
C1720 C615 1.445 . S
C1701 C313 1.444 . S
C1737 C175 1.666 . S
C1756 C722 1.673 . S
C1792 C830 1.458 . S
C1773 C397 1.456 . S
C1828 C723 1.611 . S
C1809 C349 1.623 . S
C1864 C796 1.655 . S
C1845 C457 1.644 . S
C1900 C794 1.398 . S
C1881 C505 1.422 . S
C1917 C571 1.711 . S
C1936 C842 1.678 . S
C1953 C319 1.413 . S
C1972 C734 1.359 . S
C2008 C770 1.586 . S
C1989 C493 1.649 . S
C2025 C109 1.455 . S
C2044 C652 1.455 . S
C2080 C688 1.599 . S
C2061 C1 1.600 . S
C2116 C579 1.473 . S
C2097 C61 1.478 . S
C2152 C616 1.634 . S
C2133 C103 1.646 . S
C2169 C67 1.437 . S
C2188 C902 1.435 . S
C2205 C73 1.631 . S
C2224 C878 1.555 . S
C2241 C133 1.427 . S
C2260 C903 1.427 . S
C2277 C31 1.635 . S
C2296 C868 1.645 . S
C2332 C986 1.386 . S
C2313 C289 1.453 . S
C2368 C975 1.655 . S
C2349 C469 1.655 . S
C2404 C976 1.454 . S
C2385 C529 1.463 . S
C2421 C541 1.673 . S
C2440 C974 1.657 . S
C2457 C391 1.451 . S
C2476 C758 1.444 . S
C2512 C759 1.412 . S
C2493 C211 1.415 . S
C2548 C806 1.622 . S
C2529 C241 1.662 . S
C2584 C831 1.445 . S
C2565 C277 1.450 . S
C2601 C499 1.667 . S
C2620 C650 1.661 1_556 S
C2656 C614 1.428 . S
C2637 C37 1.459 . S
C2673 C97 1.622 . S
C2692 C651 1.622 . S
C2728 C580 1.654 . S
C2709 C25 1.644 . S
