# Generated by pormake.
# Topology tsx, (6,3)-cn, num edge types: 1
# Building blocks:
#     Node 0, Type 0, BuildingBlock: LEVNOQ01_clean_sbu_1, # of connection points: 6
#     Node 1, Type 0, BuildingBlock: LEVNOQ01_clean_sbu_1, # of connection points: 6
#     Node 2, Type 1, BuildingBlock: VETTIZ_charged_linker_0, # of connection points: 3
#     Node 3, Type 1, BuildingBlock: VETTIZ_charged_linker_0, # of connection points: 3
#     Node 4, Type 1, BuildingBlock: VETTIZ_charged_linker_0, # of connection points: 3
#     Node 5, Type 1, BuildingBlock: VETTIZ_charged_linker_0, # of connection points: 3
#     Edge 6, Type (0, 1), BuildingBlock: ZUJKAS_clean_linker_0, # of connection points: 2
#     Edge 7, Type (0, 1), BuildingBlock: ZUJKAS_clean_linker_0, # of connection points: 2
#     Edge 8, Type (0, 1), BuildingBlock: ZUJKAS_clean_linker_0, # of connection points: 2
#     Edge 9, Type (0, 1), BuildingBlock: ZUJKAS_clean_linker_0, # of connection points: 2
#     Edge 10, Type (0, 1), BuildingBlock: ZUJKAS_clean_linker_0, # of connection points: 2
#     Edge 11, Type (0, 1), BuildingBlock: ZUJKAS_clean_linker_0, # of connection points: 2
#     Edge 12, Type (0, 1), BuildingBlock: ZUJKAS_clean_linker_0, # of connection points: 2
#     Edge 13, Type (0, 1), BuildingBlock: ZUJKAS_clean_linker_0, # of connection points: 2
#     Edge 14, Type (0, 1), BuildingBlock: ZUJKAS_clean_linker_0, # of connection points: 2
#     Edge 15, Type (0, 1), BuildingBlock: ZUJKAS_clean_linker_0, # of connection points: 2
#     Edge 16, Type (0, 1), BuildingBlock: ZUJKAS_clean_linker_0, # of connection points: 2
#     Edge 17, Type (0, 1), BuildingBlock: ZUJKAS_clean_linker_0, # of connection points: 2
# Relax obj value: 0.135
# Max RMSD: 0.160
# Mean RMSD: 0.124
data_MOF--net-tsx--node1-LEVNOQ01_clean_sbu_1--node2-VETTIZ_charged_linker_0--edge1-ZUJKAS_clean_linker_0
_symmetry_space_group_name_H-M    P1
_symmetry_Int_Tables_number       1
_symmetry_cell_setting            triclinic
loop_
_symmetry_equiv_pos_as_xyz
'x, y, z'
_cell_length_a     27.608216
_cell_length_b     33.421969
_cell_length_c     55.950638
_cell_angle_alpha  97.376567
_cell_angle_beta   90.059765
_cell_angle_gamma 90.761144
loop_
_atom_site_label
_atom_site_type_symbol
_atom_site_fract_x
_atom_site_fract_y
_atom_site_fract_z
_atom_type_partial_charge
O0 O 0.12009 0.01462 0.0524 0.0
Mg1 Mg 0.14385 0.03079 0.01916 0.0
O2 O 0.04402 0.02203 0.04224 0.0
Mg3 Mg 0.05428 0.02749 0.00132 0.0
O4 O 0.11393 0.08033 0.00746 0.0
O5 O 0.18667 0.07961 0.02562 0.0
O6 O 0.06613 0.03326 0.9603 0.0
O7 O 0.00179 0.0824 0.00642 0.0
Mg8 Mg 0.95921 0.00835 0.97045 0.0
O9 O 0.99366 0.97925 0.99513 0.0
O10 O 0.00155 0.00889 0.93946 0.0
O11 O 0.93245 0.06319 0.98794 0.0
O12 O 0.92604 0.95554 0.97607 0.0
C13 C 0.14562 0.96027 0.99063 0.0
C14 C 0.07565 0.01564 0.05788 0.0
C15 C 0.15408 0.09861 0.0152 0.0
C16 C 0.04433 0.02306 0.94027 0.0
C17 C 0.9579 0.08916 0.0011 0.0
C18 C 0.95961 0.95204 0.9917 0.0
O19 O 0.17673 0.98826 0.99399 0.0
O20 O 0.10147 0.96825 0.99552 0.0
O21 O 0.63716 0.54712 0.56024 0.0
Mg22 Mg 0.67157 0.54547 0.52621 0.0
O23 O 0.56426 0.53122 0.54482 0.0
Mg24 Mg 0.56563 0.53205 0.5033 0.0
O25 O 0.63049 0.57585 0.50447 0.0
O26 O 0.70508 0.59588 0.51589 0.0
O27 O 0.56716 0.53218 0.46203 0.0
O28 O 0.52363 0.59533 0.50928 0.0
Mg29 Mg 0.47669 0.53572 0.49296 0.0
O30 O 0.50186 0.4824 0.50184 0.0
O31 O 0.49437 0.55667 0.45958 0.0
O32 O 0.45342 0.57698 0.52202 0.0
O33 O 0.42849 0.49044 0.48555 0.0
C34 C 0.65681 0.46306 0.49918 0.0
C35 C 0.59279 0.53821 0.5629 0.0
C36 C 0.66575 0.60181 0.50446 0.0
C37 C 0.5347 0.54722 0.4499 0.0
C38 C 0.48339 0.60481 0.51957 0.0
C39 C 0.45936 0.46813 0.49471 0.0
O40 O 0.68847 0.48836 0.50825 0.0
O41 O 0.61244 0.47297 0.49747 0.0
C42 C 0.12167 0.91213 0.46136 0.0
C43 C 0.15498 0.88428 0.44992 0.0
C44 C 0.15922 0.88027 0.42462 0.0
C45 C 0.099 0.93148 0.42248 0.0
C46 C 0.09398 0.93538 0.44727 0.0
C47 C 0.05674 0.96662 0.45606 0.0
H48 H 0.9218 0.12461 0.43066 0.0
C49 C 0.06776 0.96122 0.41303 0.0
C50 C 0.04315 0.98243 0.4326 0.0
H51 H 0.92305 0.07324 0.49732 0.0
H52 H 0.97901 0.02122 0.48007 0.0
H53 H 0.03361 0.11252 0.41507 0.0
H54 H 0.90275 0.04301 0.4007 0.0
H55 H 0.93712 0.0328 0.37441 0.0
H56 H 0.91833 0.08381 0.38415 0.0
H57 H 0.98607 0.126 0.39583 0.0
H58 H 0.03448 0.09332 0.3843 0.0
C59 C 0.0813 -0.00047 0.47416 0.0
C60 C 0.01344 0.9451 0.46683 0.0
C61 C 0.0644 0.9715 0.3229 0.0
C62 C 0.04289 -0.0007 0.30946 0.0
C63 C 0.01791 0.03234 0.32146 0.0
C64 C 0.01305 0.03713 0.34653 0.0
C65 C 0.03376 0.00874 0.35981 0.0
C66 C 0.05989 0.97714 0.34809 0.0
C67 C 0.08209 0.95175 0.36552 0.0
C68 C 0.06209 0.97183 0.38939 0.0
C69 C 0.03376 0.00495 0.3858 0.0
C70 C 0.13806 0.95622 0.36408 0.0
C71 C 0.06274 0.90794 0.35937 0.0
C72 C 0.93475 0.10247 0.44163 0.0
C73 C 0.92013 0.10358 0.46564 0.0
C74 C 0.9356 0.07328 0.47906 0.0
C75 C 0.96755 0.04324 0.46896 0.0
C76 C 0.98266 0.04301 0.4449 0.0
C77 C 0.96488 0.07168 0.43155 0.0
C78 C 0.97907 0.06421 0.40556 0.0
C79 C 0.00956 0.02693 0.40548 0.0
C80 C 0.01285 0.01509 0.42865 0.0
C81 C 0.00966 0.1009 0.39964 0.0
C82 C 0.93217 0.05575 0.39025 0.0
H83 H 0.13667 0.89897 0.3918 0.0
H84 H 0.11717 0.91558 0.48073 0.0
H85 H 0.00899 0.9135 0.45798 0.0
H86 H 0.97849 0.95952 0.4639 0.0
H87 H 0.01857 0.94401 0.48644 0.0
H88 H 0.11555 0.01029 0.46652 0.0
H89 H 0.09023 0.98756 0.49124 0.0
H90 H 0.05854 0.02627 0.47859 0.0
H91 H 0.08458 0.94628 0.31401 0.0
H92 H 0.00128 0.05408 0.31133 0.0
H93 H 0.99308 0.06268 0.35455 0.0
H94 H 0.1491 0.9844 0.35677 0.0
H95 H 0.15405 0.93059 0.35223 0.0
H96 H 0.1556 0.95879 0.38203 0.0
H97 H 0.02322 0.90775 0.35543 0.0
H98 H 0.06684 0.88978 0.37437 0.0
H99 H 0.08119 0.89234 0.34323 0.0
H100 H 0.18498 0.85962 0.41534 0.0
C101 C 0.13145 0.90352 0.41092 0.0
C102 C 0.09146 0.15641 0.54717 0.0
C103 C 0.12428 0.1846 0.55926 0.0
C104 C 0.12227 0.19325 0.58449 0.0
C105 C 0.05954 0.14255 0.58577 0.0
C106 C 0.05943 0.13557 0.56086 0.0
C107 C 0.02428 0.10227 0.5515 0.0
H108 H 0.86233 0.95858 0.57604 0.0
C109 C 0.02613 0.11333 0.59486 0.0
C110 C 0.00509 0.08958 0.57494 0.0
H111 H 0.90522 0.98839 0.50606 0.0
H112 H 0.96134 0.0392 0.52526 0.0
H113 H 0.97012 0.96213 0.59739 0.0
H114 H 0.8548 0.04817 0.60274 0.0
H115 H 0.88155 0.05053 0.63143 0.0
H116 H 0.85336 0.00407 0.61797 0.0
H117 H 0.91821 0.95765 0.61617 0.0
H118 H 0.97106 0.98682 0.62701 0.0
C119 C 0.05289 0.06819 0.53653 0.0
C120 C 0.98409 0.12075 0.53722 0.0
C121 C 0.02129 0.10432 0.68465 0.0
C122 C 0.99795 0.07762 0.69848 0.0
C123 C 0.96443 0.04905 0.68712 0.0
C124 C 0.95576 0.0461 0.66227 0.0
C125 C 0.98093 0.07192 0.64852 0.0
C126 C 0.01238 0.10086 0.65984 0.0
C127 C 0.03692 0.12499 0.64236 0.0
C128 C 0.01576 0.10524 0.61862 0.0
C129 C 0.98302 0.07425 0.62233 0.0
C130 C 0.09232 0.11839 0.64402 0.0
C131 C 0.02104 0.16952 0.64825 0.0
C132 C 0.88306 0.97652 0.56477 0.0
C133 C 0.87852 0.97001 0.53953 0.0
C134 C 0.90774 0.99297 0.52555 0.0
C135 C 0.93991 0.02264 0.53666 0.0
C136 C 0.94296 0.02941 0.56192 0.0
C137 C 0.9152 0.00615 0.5755 0.0
C138 C 0.92433 0.01632 0.60207 0.0
C139 C 0.96066 0.05075 0.60229 0.0
C140 C 0.97171 0.05824 0.57872 0.0
C141 C 0.94679 0.9789 0.61137 0.0
C142 C 0.87612 0.03029 0.6144 0.0
H143 H 0.09089 0.18009 0.61699 0.0
H144 H 0.09233 0.14945 0.52773 0.0
H145 H 0.97442 0.1513 0.54609 0.0
H146 H 0.94995 0.10307 0.53645 0.0
H147 H 0.9961 0.12386 0.51859 0.0
H148 H 0.08951 0.0652 0.54438 0.0
H149 H 0.05781 0.07455 0.51767 0.0
H150 H 0.03576 0.03813 0.53634 0.0
H151 H 0.0476 0.12633 0.69272 0.0
H152 H 0.94523 0.02862 0.69745 0.0
H153 H 0.93035 0.02339 0.65467 0.0
H154 H 0.10011 0.08711 0.64758 0.0
H155 H 0.10888 0.13942 0.65887 0.0
H156 H 0.11173 0.12155 0.62713 0.0
H157 H 0.98374 0.17147 0.6558 0.0
H158 H 0.01914 0.18528 0.63206 0.0
H159 H 0.04559 0.18665 0.66172 0.0
H160 H 0.14682 0.21539 0.594 0.0
C161 C 0.08986 0.17265 0.59779 0.0
C162 C 0.62224 0.4205 0.96427 0.0
C163 C 0.65782 0.39425 0.95369 0.0
C164 C 0.66134 0.38706 0.9284 0.0
C165 C 0.59695 0.43401 0.92449 0.0
C166 C 0.59252 0.44042 0.94933 0.0
C167 C 0.55494 0.4716 0.95735 0.0
H168 H 0.41214 0.6209 0.92797 0.0
C169 C 0.56374 0.46128 0.91409 0.0
C170 C 0.53921 0.4837 0.93323 0.0
H171 H 0.42687 0.58081 -0.00224 0.0
H172 H 0.47987 0.52683 0.98077 0.0
H173 H 0.52225 0.60912 0.91009 0.0
H174 H 0.3931 0.53592 0.90153 0.0
H175 H 0.42559 0.52314 0.87481 0.0
H176 H 0.4054 0.57432 0.88267 0.0
H177 H 0.47197 0.61935 0.89154 0.0
H178 H 0.52039 0.58689 0.87987 0.0
C179 C 0.5801 0.50686 0.97356 0.0
C180 C 0.5132 0.45105 0.96996 0.0
C181 C 0.55913 0.46437 0.82314 0.0
C182 C 0.5356 0.48998 0.80895 0.0
C183 C 0.5064 0.5211 0.82003 0.0
C184 C 0.50027 0.52672 0.845 0.0
C185 C 0.52395 0.50112 0.85914 0.0
C186 C 0.55305 0.47072 0.84827 0.0
C187 C 0.57726 0.44809 0.86653 0.0
C188 C 0.55617 0.46895 0.88995 0.0
C189 C 0.5251 0.49985 0.88538 0.0
C190 C 0.63284 0.455 0.86492 0.0
C191 C 0.5609 0.40331 0.86163 0.0
C192 C 0.42739 0.60088 0.93969 0.0
C193 C 0.4172 0.60581 0.96442 0.0
C194 C 0.43565 0.57798 0.97884 0.0
C195 C 0.46613 0.54684 0.96892 0.0
C196 C 0.47738 0.54325 0.94422 0.0
C197 C 0.45684 0.56937 0.92999 0.0
C198 C 0.46883 0.55915 0.90383 0.0
C199 C 0.50104 0.52308 0.90465 0.0
C200 C 0.50695 0.5144 0.92838 0.0
C201 C 0.49707 0.59544 0.89567 0.0
C202 C 0.42098 0.54776 0.88981 0.0
H203 H 0.63565 0.39997 0.89467 0.0
H204 H 0.61877 0.42636 0.98368 0.0
H205 H 0.50971 0.41845 0.96293 0.0
H206 H 0.47744 0.46381 0.96659 0.0
H207 H 0.51938 0.45333 0.98972 0.0
H208 H 0.61442 0.51581 0.96516 0.0
H209 H 0.5891 0.49798 0.9915 0.0
H210 H 0.55809 0.53429 0.97642 0.0
H211 H 0.58245 0.44066 0.81494 0.0
H212 H 0.48833 0.54118 0.80925 0.0
H213 H 0.47764 0.55107 0.85231 0.0
H214 H 0.64176 0.48331 0.85725 0.0
H215 H 0.65026 0.42982 0.8533 0.0
H216 H 0.65064 0.45896 0.88281 0.0
H217 H 0.52135 0.40094 0.85778 0.0
H218 H 0.56661 0.38674 0.87722 0.0
H219 H 0.58008 0.38746 0.84579 0.0
H220 H 0.6879 0.36628 0.91991 0.0
C221 C 0.63097 0.40659 0.91377 0.0
C222 C 0.583 0.66694 0.05138 0.0
C223 C 0.61134 0.69787 0.06422 0.0
C224 C 0.60819 0.70453 0.08955 0.0
C225 C 0.55236 0.64829 0.08915 0.0
C226 C 0.55335 0.64279 0.06424 0.0
C227 C 0.52076 0.60832 0.05384 0.0
H228 H 0.37315 0.45212 0.07363 0.0
C229 C 0.52117 0.61666 0.09725 0.0
C230 C 0.50206 0.59321 0.0767 0.0
H231 H 0.41495 0.48797 0.00499 0.0
H232 H 0.46209 0.5441 0.02568 0.0
H233 H 0.4711 0.45861 0.09576 0.0
H234 H 0.35631 0.54455 0.10207 0.0
H235 H 0.38024 0.54246 0.13111 0.0
H236 H 0.35451 0.49751 0.11439 0.0
H237 H 0.42402 0.45694 0.11763 0.0
H238 H 0.47902 0.48608 0.12436 0.0
C239 C 0.55193 0.57655 0.03842 0.0
C240 C 0.47953 0.62578 0.03972 0.0
C241 C 0.51704 0.59937 0.18614 0.0
C242 C 0.49624 0.56955 0.19855 0.0
C243 C 0.4653 0.54008 0.18619 0.0
C244 C 0.45614 0.53962 0.16155 0.0
C245 C 0.47894 0.56848 0.14904 0.0
C246 C 0.50836 0.59798 0.16137 0.0
C247 C 0.5312 0.62497 0.14488 0.0
C248 C 0.51117 0.60636 0.1206 0.0
C249 C 0.48066 0.57339 0.1232 0.0
C250 C 0.58693 0.62053 0.14643 0.0
C251 C 0.51285 0.66851 0.15215 0.0
C252 C 0.39214 0.47224 0.063 0.0
C253 C 0.39067 0.46566 0.03772 0.0
C254 C 0.41548 0.49266 0.02451 0.0
C255 C 0.4427 0.52507 0.03648 0.0
C256 C 0.44457 0.53068 0.06181 0.0
C257 C 0.41916 0.5046 0.07459 0.0
C258 C 0.42653 0.51388 0.1013 0.0
C259 C 0.46012 0.55028 0.10257 0.0
C260 C 0.47064 0.56009 0.07943 0.0
C261 C 0.45113 0.47709 0.11042 0.0
C262 C 0.3769 0.52499 0.11303 0.0
H263 H 0.57889 0.68626 0.12129 0.0
H264 H 0.58431 0.66143 0.03189 0.0
H265 H 0.46789 0.65553 0.04903 0.0
H266 H 0.4465 0.60664 0.0385 0.0
H267 H 0.49143 0.63033 0.02129 0.0
H268 H 0.58856 0.57476 0.04649 0.0
H269 H 0.55677 0.58436 0.01985 0.0
H270 H 0.53675 0.54565 0.03736 0.0
H271 H 0.54122 0.62217 0.19529 0.0
H272 H 0.44862 0.51711 0.19561 0.0
H273 H 0.43248 0.51628 0.15312 0.0
H274 H 0.59662 0.58846 0.14704 0.0
H275 H 0.60174 0.63852 0.16295 0.0
H276 H 0.60638 0.62932 0.13068 0.0
H277 H 0.47692 0.66854 0.16115 0.0
H278 H 0.50688 0.68473 0.13636 0.0
H279 H 0.53833 0.68636 0.16483 0.0
H280 H 0.62999 0.72784 0.09987 0.0
C281 C 0.57882 0.68006 0.10202 0.0
H282 H 0.21247 0.15052 0.04308 0.0
H283 H 0.24012 0.21714 0.03557 0.0
H284 H 0.14756 0.21007 0.97302 0.0
H285 H 0.11899 0.1425 0.98057 0.0
H286 H 0.28187 0.22484 0.98316 0.0
H287 H 0.13584 0.32893 0.01946 0.0
H288 H 0.14584 0.28336 0.03284 0.0
H289 H 0.12232 0.28005 0.00278 0.0
C290 C 0.19737 0.16322 0.02788 0.0
C291 C 0.16402 0.14115 0.01222 0.0
C292 C 0.21316 0.20132 0.02367 0.0
C293 C 0.1961 0.2182 0.00369 0.0
C294 C 0.16098 0.19734 0.98856 0.0
H295 H 0.32353 0.46127 0.00121 0.0
H296 H 0.2743 0.40178 0.98512 0.0
C297 C 0.14468 0.15896 0.99291 0.0
C298 C 0.21903 0.25608 -0.00179 0.0
H299 H 0.21341 0.35777 0.01436 0.0
C300 C 0.26643 0.25407 0.98921 0.0
C301 C 0.19867 0.29395 0.00611 0.0
C302 C 0.14778 0.29712 0.01582 0.0
C303 C 0.29546 0.28887 0.98973 0.0
C304 C 0.27663 0.32644 -0.00026 0.0
C305 C 0.22777 0.32889 0.00671 0.0
C306 C 0.30894 0.36156 0.00705 0.0
C307 C 0.347 0.28474 0.98092 0.0
C308 C 0.34463 0.35844 0.02453 0.0
C309 C 0.37235 0.39201 0.03368 0.0
C310 C 0.3648 0.42956 0.02566 0.0
C311 C 0.33017 0.43255 0.00756 0.0
C312 C 0.30202 0.39876 -0.00154 0.0
H313 H 0.3506 0.25858 0.96665 0.0
H314 H 0.35988 0.31246 0.97374 0.0
H315 H 0.37086 0.27945 -0.00385 0.0
H316 H 0.34995 0.33024 0.03175 0.0
H317 H 0.39903 0.38884 0.04751 0.0
H318 H 0.10091 0.89256 0.00336 0.0
H319 H 0.13853 0.8267 0.00467 0.0
H320 H 0.26552 0.86771 0.96961 0.0
H321 H 0.22881 0.93356 0.96867 0.0
H322 H 0.18143 0.76745 0.96942 0.0
H323 H 0.31614 0.8403 0.03497 0.0
H324 H 0.26112 0.86483 0.02769 0.0
H325 H 0.31288 0.86432 0.00813 0.0
C326 C 0.13638 0.88714 0.99542 0.0
C327 C 0.16234 0.91828 0.98622 0.0
C328 C 0.15786 0.84965 -0.00368 0.0
C329 C 0.20529 0.84296 0.98792 0.0
C330 C 0.22939 0.87281 0.97681 0.0
H331 H 0.42811 0.68399 0.95727 0.0
H332 H 0.3724 0.73914 0.96871 0.0
C333 C 0.20827 0.91025 0.97612 0.0
C334 C 0.23118 0.80587 0.99169 0.0
H335 H 0.33665 0.77482 0.01474 0.0
C336 C 0.21482 0.76871 0.97974 0.0
C337 C 0.27427 0.80771 0.00552 0.0
C338 C 0.2919 0.84638 0.02003 0.0
C339 C 0.24274 0.73385 0.97958 0.0
C340 C 0.28767 0.73646 0.99193 0.0
C341 C 0.30224 0.77302 0.00526 0.0
C342 C 0.32334 0.70376 0.98798 0.0
C343 C 0.22572 0.69518 0.9649 0.0
C344 C 0.31498 0.666 -0.0042 0.0
C345 C 0.34691 0.63427 0.98922 0.0
C346 C 0.38722 0.64008 0.97467 0.0
C347 C 0.39682 0.67858 0.96814 0.0
C348 C 0.3652 0.71011 0.97476 0.0
H349 H 0.19247 0.69939 0.95436 0.0
H350 H 0.25457 0.68308 0.95227 0.0
H351 H 0.21775 0.67228 0.97711 0.0
H352 H 0.28316 0.6608 0.00633 0.0
H353 H 0.33887 0.60485 0.99451 0.0
H354 H 0.96974 0.87348 0.97505 0.0
H355 H 0.92165 0.82027 0.9902 0.0
H356 H 0.88638 0.9019 0.05362 0.0
H357 H 0.93492 0.95513 0.03854 0.0
H358 H 0.89579 0.78845 0.04258 0.0
H359 H 0.76819 0.88469 -0.00136 0.0
H360 H 0.83199 0.88326 0.99166 0.0
H361 H 0.81171 0.90929 0.01981 0.0
C362 C 0.9545 0.87912 0.99299 0.0
C363 C 0.95577 0.91814 0.0057 0.0
C364 C 0.92683 0.84879 0.00156 0.0
C365 C 0.90005 0.85751 0.02279 0.0
C366 C 0.90706 0.89472 0.03722 0.0
H367 H 0.62722 0.77909 0.07168 0.0
H368 H 0.69768 0.81573 0.05891 0.0
C369 C 0.93509 0.925 0.0287 0.0
C370 C 0.85649 0.83294 0.02621 0.0
H371 H 0.73468 0.82997 0.0156 0.0
C372 C 0.86051 0.79731 0.03671 0.0
C373 C 0.81082 0.84463 0.01819 0.0
C374 C 0.80504 0.88242 0.00631 0.0
C375 C 0.81933 0.77354 0.04015 0.0
C376 C 0.77347 0.78549 0.03233 0.0
C377 C 0.76988 0.8208 0.02142 0.0
C378 C 0.72819 0.76385 0.03725 0.0
C379 C 0.82497 0.73669 0.05286 0.0
C380 C 0.72069 0.72307 0.02823 0.0
C381 C 0.68044 0.70197 0.03562 0.0
C382 C 0.64718 0.72154 0.05202 0.0
C383 C 0.65278 0.76314 0.05936 0.0
C384 C 0.69295 0.78409 0.05206 0.0
H385 H 0.86045 0.73665 0.06225 0.0
H386 H 0.79564 0.73481 0.06626 0.0
H387 H 0.82266 0.70925 0.03943 0.0
H388 H 0.74684 0.70722 0.01622 0.0
H389 H 0.67696 0.66992 0.02966 0.0
H390 H 0.86972 0.10171 0.02107 0.0
H391 H 0.82367 0.16413 0.02392 0.0
H392 H 0.94857 0.22668 -1e-05 0.0
H393 H 0.99542 0.16418 -0.00229 0.0
H394 H 0.87298 0.27265 0.03829 0.0
H395 H 0.80276 0.19313 0.95119 0.0
H396 H 0.8048 0.1645 0.97629 0.0
H397 H 0.86022 0.18102 0.96372 0.0
C398 C 0.88785 0.12919 0.01734 0.0
C399 C 0.93583 0.12835 0.00905 0.0
C400 C 0.86163 0.16475 0.01904 0.0
C401 C 0.88273 0.19975 0.01201 0.0
C402 C 0.93193 0.19994 0.00568 0.0
H403 H 0.75575 0.3942 0.95042 0.0
H404 H 0.81193 0.35195 0.96958 0.0
C405 C 0.95858 0.16434 0.00438 0.0
C406 C 0.85103 0.23272 0.00674 0.0
H407 H 0.76703 0.25482 0.96583 0.0
C408 C 0.84982 0.26894 0.02248 0.0
C409 C 0.82114 0.22759 0.986 0.0
C410 C 0.82225 0.18963 0.96817 0.0
C411 C 0.8187 0.30018 0.018 0.0
C412 C 0.78853 0.29464 -0.00257 0.0
C413 C 0.79001 0.25856 0.98172 0.0
C414 C 0.75679 0.3265 0.99074 0.0
C415 C 0.81801 0.33892 0.03502 0.0
C416 C 0.70748 0.32661 -0.0032 0.0
C417 C 0.67527 0.35076 0.98589 0.0
C418 C 0.69211 0.37441 0.96853 0.0
C419 C 0.74194 0.37589 0.9636 0.0
C420 C 0.77405 0.3521 0.97463 0.0
H421 H 0.84272 0.33819 0.05064 0.0
H422 H 0.8289 0.36445 0.02521 0.0
H423 H 0.7806 0.34474 0.04175 0.0
H424 H 0.6936 0.30646 0.00895 0.0
H425 H 0.63697 0.34904 0.98987 0.0
H426 H 0.72563 0.62784 0.47158 0.0
H427 H 0.74212 0.6988 0.46797 0.0
H428 H 0.61724 0.73261 0.51178 0.0
H429 H 0.60012 0.66127 0.51504 0.0
H430 H 0.68879 0.77874 0.46059 0.0
H431 H 0.74988 0.75638 0.55294 0.0
H432 H 0.73711 0.71458 0.52999 0.0
H433 H 0.68825 0.74253 0.54483 0.0
C434 C 0.70008 0.65027 0.47921 0.0
C435 C 0.66181 0.63937 0.49365 0.0
C436 C 0.70956 0.6908 0.47717 0.0
C437 C 0.68131 0.72086 0.4899 0.0
C438 C 0.63935 0.70973 0.50178 0.0
H439 H 0.78623 0.95569 0.5538 0.0
H440 H 0.73304 0.89885 0.53913 0.0
C441 C 0.62945 0.669 0.50354 0.0
C442 C 0.70269 0.76176 0.49576 0.0
H443 H 0.76732 0.81875 0.54006 0.0
C444 C 0.70544 0.78785 0.47803 0.0
C445 C 0.72521 0.77305 0.5184 0.0
C446 C 0.72546 0.74523 0.53766 0.0
C447 C 0.7301 0.82524 0.48251 0.0
C448 C 0.75286 0.83623 0.50509 0.0
C449 C 0.74954 0.81027 0.52282 0.0
C450 C 0.78153 0.87398 0.51091 0.0
C451 C 0.7317 0.85279 0.46321 0.0
C452 C 0.8262 0.87915 0.49963 0.0
C453 C 0.85704 0.91149 0.50815 0.0
C454 C 0.84373 0.93891 0.5282 0.0
C455 C 0.7979 0.93466 0.53861 0.0
C456 C 0.76726 0.90242 0.53013 0.0
H457 H 0.70456 0.84378 0.44878 0.0
H458 H 0.72508 0.88447 0.47109 0.0
H459 H 0.76824 0.85171 0.45492 0.0
H460 H 0.83827 0.85707 0.48505 0.0
H461 H 0.89225 0.91379 0.49987 0.0
H462 H 0.74589 0.43831 0.48421 0.0
H463 H 0.77758 0.37016 0.48103 0.0
H464 H 0.63608 0.32421 0.4968 0.0
H465 H 0.60365 0.39297 0.49982 0.0
H466 H 0.77095 0.32585 0.52259 0.0
H467 H 0.68974 0.24339 0.43879 0.0
H468 H 0.696 0.29772 0.44317 0.0
H469 H 0.65107 0.27355 0.45967 0.0
C470 C 0.72118 0.41364 0.48651 0.0
C471 C 0.67237 0.42098 0.49244 0.0
C472 C 0.73939 0.37474 0.48472 0.0
C473 C 0.70928 0.34227 0.48884 0.0
C474 C 0.6598 0.34892 0.4934 0.0
H475 H 0.82878 0.09718 0.48367 0.0
H476 H 0.77137 0.15263 0.49387 0.0
C477 C 0.64132 0.38811 0.49505 0.0
C478 C 0.73153 0.30264 0.49042 0.0
H479 H 0.74783 0.2093 0.45906 0.0
C480 C 0.7653 0.30009 0.50893 0.0
C481 C 0.72381 0.2691 0.47268 0.0
C482 C 0.68836 0.27075 0.45233 0.0
C483 C 0.79334 0.26557 0.5095 0.0
C484 C 0.78769 0.23292 0.49098 0.0
C485 C 0.75189 0.23443 0.47327 0.0
C486 C 0.82285 0.19964 0.48782 0.0
C487 C 0.83005 0.26482 0.52942 0.0
C488 C 0.87071 0.20795 0.48144 0.0
C489 C 0.90307 0.1766 0.47551 0.0
C490 C 0.88824 0.1364 0.476 0.0
C491 C 0.84102 0.12807 0.48345 0.0
C492 C 0.80828 0.15956 0.48911 0.0
H493 H 0.82068 0.28629 0.54554 0.0
H494 H 0.83291 0.23407 0.53478 0.0
H495 H 0.8661 0.27376 0.52294 0.0
H496 H 0.88245 0.23862 0.48004 0.0
H497 H 0.93928 0.1836 0.46968 0.0
H498 H 0.4153 0.41339 0.46196 0.0
H499 H 0.36878 0.354 0.47034 0.0
H500 H 0.41822 0.37272 0.54412 0.0
H501 H 0.46576 0.43206 0.53562 0.0
H502 H 0.38711 0.27957 0.4941 0.0
H503 H 0.26642 0.39479 0.54286 0.0
H504 H 0.31305 0.40771 0.5225 0.0
H505 H 0.32901 0.3965 0.55199 0.0
C506 C 0.41762 0.40389 0.47972 0.0
C507 C 0.44377 0.42712 0.49819 0.0
C508 C 0.39111 0.37003 0.48448 0.0
C509 C 0.38968 0.35942 0.50788 0.0
C510 C 0.41895 0.38062 0.52594 0.0
H511 H 0.22028 0.17693 0.56563 0.0
H512 H 0.2857 0.21592 0.54981 0.0
C513 C 0.44623 0.41425 0.52107 0.0
C514 C 0.35202 0.33057 0.5139 0.0
H515 H 0.24193 0.32685 0.54124 0.0
C516 C 0.35549 0.28972 0.50454 0.0
C517 C 0.31032 0.34429 0.52697 0.0
C518 C 0.30398 0.38824 0.53656 0.0
C519 C 0.31845 0.26198 0.50832 0.0
C520 C 0.27719 0.27564 0.52177 0.0
C521 C 0.27356 0.31658 0.53084 0.0
C522 C 0.23855 0.2478 0.52804 0.0
C523 C 0.32332 0.21843 0.49767 0.0
C524 C 0.19039 0.25255 0.52081 0.0
C525 C 0.15292 0.2301 0.52978 0.0
C526 C 0.16331 0.20326 0.54635 0.0
C527 C 0.21164 0.19747 0.55279 0.0
C528 C 0.24896 0.21951 0.54368 0.0
H529 H 0.35057 0.21478 0.48298 0.0
H530 H 0.33515 0.20053 0.51196 0.0
H531 H 0.28802 0.20582 0.49048 0.0
H532 H 0.1817 0.27457 0.5089 0.0
H533 H 0.1158 0.2352 0.52478 0.0
H534 H 0.42617 0.64268 0.55476 0.0
H535 H 0.37588 0.70152 0.55138 0.0
H536 H 0.44438 0.71642 0.48376 0.0
H537 H 0.49679 0.65921 0.4879 0.0
H538 H 0.41635 0.78804 0.50627 0.0
H539 H 0.26448 0.67737 0.50583 0.0
H540 H 0.29824 0.68389 0.53347 0.0
H541 H 0.32693 0.66259 0.50593 0.0
C542 C 0.43177 0.6596 0.5397 0.0
C543 C 0.46502 0.64633 0.52151 0.0
C544 C 0.40261 0.69286 0.5376 0.0
C545 C 0.40493 0.71236 0.51683 0.0
C546 C 0.44151 0.70161 0.49983 0.0
H547 H 0.17669 0.80469 0.43909 0.0
H548 H 0.23706 0.76664 0.4581 0.0
C549 C 0.47165 0.669 0.50226 0.0
C550 C 0.36596 0.74017 0.5113 0.0
H551 H 0.24395 0.74396 0.50163 0.0
C552 C 0.37859 0.77858 0.50545 0.0
C553 C 0.31669 0.72748 0.50973 0.0
C554 C 0.30071 0.68548 0.51383 0.0
C555 C 0.34352 0.80433 0.49772 0.0
C556 C 0.29427 0.79175 0.49648 0.0
C557 C 0.28159 0.75377 0.50288 0.0
C558 C 0.25598 0.81527 0.48608 0.0
C559 C 0.35985 0.84384 0.48981 0.0
C560 C 0.24533 0.85504 0.49585 0.0
C561 C 0.21095 0.87718 0.48476 0.0
C562 C 0.18652 0.85977 0.46381 0.0
C563 C 0.19555 0.81929 0.4549 0.0
C564 C 0.22993 0.79739 0.46585 0.0
H565 H 0.39959 0.84485 0.48676 0.0
H566 H 0.34115 0.84914 0.47294 0.0
H567 H 0.35077 0.86888 0.50403 0.0
H568 H 0.26405 0.86915 0.51182 0.0
H569 H 0.20483 0.90831 0.49205 0.0
H570 H 0.99006 0.98653 0.07478 0.0
H571 H 0.97157 0.97704 0.11689 0.0
H572 H 0.11215 0.02606 0.13904 0.0
H573 H 0.13096 0.03514 0.09754 0.0
H574 H 0.06644 0.937 0.15163 0.0
H575 H 0.97346 0.08257 0.17904 0.0
H576 H 0.96639 0.0552 0.14917 0.0
H577 H 0.02233 0.08103 0.15758 0.0
C578 C 0.01672 -0.00454 0.08873 0.0
C579 C 0.06204 0.0113 0.08292 0.0
C580 C 0.00623 0.98993 0.11264 0.0
C581 C 0.04072 0.00076 0.13087 0.0
C582 C 0.08533 0.01731 0.12512 0.0
H583 H 0.08303 0.05078 0.28117 0.0
H584 H 0.07923 0.04612 0.23715 0.0
C585 C 0.09598 0.02239 0.1014 0.0
C586 C 0.03175 0.99467 0.15613 0.0
H587 H 0.99935 0.04625 0.21011 0.0
C588 C 0.05081 0.96033 0.16448 0.0
C589 C 0.01208 0.02558 0.17264 0.0
C590 C 0.99217 0.06327 0.16432 0.0
C591 C 0.05289 0.95697 0.18923 0.0
C592 C 0.03458 0.98859 0.20592 0.0
C593 C 0.01348 0.02208 0.19734 0.0
C594 C 0.03979 0.98917 0.23237 0.0
C595 C 0.07728 0.9208 0.19727 0.0
C596 C 0.01974 0.95833 0.24428 0.0
C597 C 0.02293 0.96058 0.26939 0.0
C598 C 0.04525 0.9941 0.28292 0.0
C599 C 0.06579 0.02463 0.27101 0.0
C600 C 0.06336 0.02205 0.24595 0.0
H601 H 0.09966 0.90457 0.18273 0.0
H602 H 0.10079 0.92984 0.21322 0.0
H603 H 0.04922 0.89939 0.20235 0.0
H604 H 1.00044 0.93316 0.23428 0.0
H605 H 0.00619 0.93706 0.27833 0.0
H606 H 0.08178 0.09408 0.92907 0.0
H607 H 0.08914 0.11212 0.88794 0.0
H608 H 0.06079 0.98814 0.85899 0.0
H609 H 0.05199 0.97038 0.8998 0.0
H610 H 0.13875 0.07853 0.83983 0.0
H611 H 0.93918 0.05818 0.84455 0.0
H612 H 0.97741 0.06387 0.87101 0.0
H613 H 0.97303 0.01609 0.85224 0.0
C614 C 0.07934 0.07049 0.91389 0.0
C615 C 0.06604 0.03095 0.91739 0.0
C616 C 0.08337 0.08082 0.89046 0.0
C617 C 0.07469 0.05151 0.87056 0.0
C618 C 0.06721 0.01116 0.87419 0.0
H619 H 0.01252 0.01275 0.72248 0.0
H620 H 0.03393 0.01283 0.76485 0.0
C621 C 0.06236 0.00102 0.89745 0.0
C622 C 0.0644 0.06343 0.84657 0.0
H623 H 0.97245 0.06252 0.8057 0.0
C624 C 0.10238 0.0757 0.83242 0.0
C625 C 0.01667 0.06026 0.83719 0.0
C626 C 0.97409 0.04926 0.85209 0.0
C627 C 0.09405 0.08256 0.80847 0.0
C628 C 0.04684 0.07686 0.79874 0.0
C629 C 0.00864 0.06655 0.81328 0.0
C630 C 0.03671 0.07783 0.77295 0.0
C631 C 0.13576 0.09414 0.7933 0.0
C632 C 0.0308 0.11447 0.76368 0.0
C633 C 0.01792 0.11457 0.73949 0.0
C634 C 0.01062 0.07798 0.7243 0.0
C635 C 0.01692 0.04141 0.73377 0.0
C636 C 0.02969 0.04138 0.75788 0.0
H637 H 0.1705 0.09691 0.80345 0.0
H638 H 0.13969 0.07119 0.77724 0.0
H639 H 0.12818 0.12341 0.78674 0.0
H640 H 0.03546 0.14286 0.77523 0.0
H641 H 0.01298 0.14322 0.73277 0.0
H642 H 0.51611 0.49216 0.57518 0.0
H643 H 0.49398 0.47803 0.61586 0.0
H644 H 0.60789 0.55856 0.64605 0.0
H645 H 0.63068 0.57234 0.6057 0.0
H646 H 0.57111 0.44838 0.65034 0.0
H647 H 0.47595 0.58943 0.6848 0.0
H648 H 0.47911 0.57049 0.65308 0.0
H649 H 0.53054 0.59588 0.66808 0.0
C650 C 0.53589 0.50732 0.59055 0.0
C651 C 0.57521 0.5333 0.5873 0.0
C652 C 0.52335 0.49906 0.61369 0.0
C653 C 0.54932 0.51735 0.63382 0.0
C654 C 0.58735 0.54435 0.63067 0.0
H655 H 0.58742 0.5395 0.784 0.0
H656 H 0.58791 0.54018 0.74028 0.0
C657 C 0.60035 0.55212 0.60762 0.0
C658 C 0.53925 0.50698 0.65822 0.0
H659 H 0.50474 0.54961 0.71407 0.0
C660 C 0.55573 0.47004 0.66428 0.0
C661 C 0.51922 0.53542 0.67618 0.0
C662 C 0.49977 0.57497 0.67028 0.0
C663 C 0.55559 0.46189 0.68832 0.0
C664 C 0.53782 0.49132 0.70652 0.0
C665 C 0.51881 0.52726 0.70012 0.0
C666 C 0.54176 0.4872 0.7325 0.0
C667 C 0.57695 0.423 0.69422 0.0
C668 C 0.51672 0.45654 0.74255 0.0
C669 C 0.5171 0.45583 0.76754 0.0
C670 C 0.54211 0.48598 0.78266 0.0
C671 C 0.5683 0.51581 0.77255 0.0
C672 C 0.56831 0.51631 0.74767 0.0
H673 H 0.59732 0.40711 0.67879 0.0
H674 H 0.60164 0.4288 0.71 0.0
H675 H 0.54733 0.40265 0.69889 0.0
H676 H 0.49532 0.43422 0.73124 0.0
H677 H 0.49604 0.43299 0.77513 0.0
H678 H 0.6003 0.50864 0.41853 0.0
H679 H 0.60644 0.51229 0.37502 0.0
H680 H 0.49284 0.60018 0.38027 0.0
H681 H 0.48589 0.5964 0.42347 0.0
H682 H 0.50425 0.50318 0.34328 0.0
H683 H 0.62294 0.63839 0.33997 0.0
H684 H 0.62908 0.60571 0.36315 0.0
H685 H 0.5788 0.63917 0.36377 0.0
C686 C 0.57718 0.52917 0.41044 0.0
C687 C 0.54244 0.55209 0.42433 0.0
C688 C 0.58071 0.53116 0.38567 0.0
C689 C 0.55023 0.55664 0.37466 0.0
C690 C 0.5168 0.58054 0.3886 0.0
H691 H 0.48451 0.62794 0.23675 0.0
H692 H 0.50195 0.62298 0.27932 0.0
C693 C 0.51279 0.57821 0.41321 0.0
C694 C 0.54995 0.55617 0.34829 0.0
H695 H 0.58348 0.61148 0.30377 0.0
C696 C 0.52207 0.52643 0.33446 0.0
C697 C 0.57273 0.58695 0.3372 0.0
C698 C 0.60284 0.61944 0.35165 0.0
C699 C 0.51484 0.52745 0.30974 0.0
C700 C 0.53739 0.55849 0.29852 0.0
C701 C 0.56633 0.58769 0.31237 0.0
C702 C 0.52951 0.56217 0.27269 0.0
C703 C 0.48114 0.49646 0.29624 0.0
C704 C 0.54013 0.53003 0.25484 0.0
C705 C 0.52919 0.53254 0.23073 0.0
C706 C 0.50869 0.56765 0.224 0.0
C707 C 0.50012 0.60054 0.24164 0.0
C708 C 0.51019 0.59773 0.26585 0.0
H709 H 0.45691 0.48219 0.30865 0.0
H710 H 0.45835 0.51018 0.28318 0.0
H711 H 0.50286 0.47224 0.28613 0.0
H712 H 0.55644 0.50282 0.25959 0.0
H713 H 0.53692 0.50713 0.21729 0.0
loop_
_geom_bond_atom_site_label_1
_geom_bond_atom_site_label_2
_geom_bond_distance
_geom_bond_site_symmetry_2
_ccdc_geom_bond_type
O0 Mg1 1.990 . S
O0 C14 1.253 . S
Mg1 O0 1.990 . S
Mg1 O4 2.180 . S
Mg1 O5 2.117 . S
Mg1 O19 2.030 1_545 S
O2 Mg3 2.072 . S
O2 C14 1.260 . S
Mg3 O2 2.072 . S
Mg3 O4 2.099 . S
Mg3 O6 2.079 1_554 S
Mg3 O7 2.072 . S
Mg3 O9 2.099 1_444 S
Mg3 O20 2.078 1_544 S
O4 Mg1 2.180 . S
O4 Mg3 2.099 . S
O4 C15 1.279 . S
O5 Mg1 2.117 . S
O5 C15 1.250 . S
O6 Mg3 2.079 1_556 S
O6 C16 1.264 . S
O7 Mg3 2.072 . S
O7 C17 1.260 1_455 S
Mg8 O9 2.180 1_545 S
Mg8 O10 2.030 . S
Mg8 O11 1.990 . S
Mg8 O12 2.143 1_545 S
O9 Mg3 2.099 1_666 S
O9 Mg8 2.180 1_565 S
O9 C18 1.279 1_556 S
O10 Mg8 2.030 . S
O10 C16 1.248 1_655 S
O11 Mg8 1.990 . S
O11 C17 1.253 1_556 S
O12 Mg8 2.143 1_565 S
O12 C18 1.242 1_556 S
C13 O19 1.248 . S
C13 O20 1.250 1_554 S
C14 O0 1.253 . S
C14 O2 1.260 . S
C15 O4 1.279 . S
C15 O5 1.250 . S
C16 O6 1.264 . S
C16 O10 1.248 1_455 S
C17 O7 1.260 1_655 S
C17 O11 1.253 1_554 S
C18 O9 1.279 1_554 S
C18 O12 1.242 1_554 S
O19 Mg1 2.030 1_565 S
O19 C13 1.248 . S
O20 Mg3 2.078 1_566 S
O20 C13 1.250 1_556 S
O21 Mg22 1.990 . S
O21 C35 1.253 . S
Mg22 O21 1.990 . S
Mg22 O25 2.180 . S
Mg22 O26 2.117 . S
Mg22 O40 2.030 . S
O23 Mg24 2.072 . S
O23 C35 1.260 . S
Mg24 O23 2.072 . S
Mg24 O25 2.099 . S
Mg24 O27 2.079 . S
Mg24 O28 2.072 . S
Mg24 O30 2.099 . S
Mg24 O41 2.079 . S
O25 Mg22 2.180 . S
O25 Mg24 2.099 . S
O25 C36 1.279 . S
O26 Mg22 2.117 . S
O26 C36 1.250 . S
O27 Mg24 2.079 . S
O27 C37 1.264 . S
O28 Mg24 2.072 . S
O28 C38 1.260 . S
Mg29 O30 2.180 . S
Mg29 O31 2.030 . S
Mg29 O32 1.990 . S
Mg29 O33 2.117 . S
O30 Mg24 2.099 . S
O30 Mg29 2.180 . S
O30 C39 1.279 . S
O31 Mg29 2.030 . S
O31 C37 1.248 . S
O32 Mg29 1.990 . S
O32 C38 1.253 . S
O33 Mg29 2.117 . S
O33 C39 1.250 . S
C34 O40 1.248 . S
C34 O41 1.264 . S
C35 O21 1.253 . S
C35 O23 1.260 . S
C36 O25 1.279 . S
C36 O26 1.250 . S
C37 O27 1.264 . S
C37 O31 1.248 . S
C38 O28 1.260 . S
C38 O32 1.253 . S
C39 O30 1.279 . S
C39 O33 1.250 . S
O40 Mg22 2.030 . S
O40 C34 1.248 . S
O41 Mg24 2.079 . S
O41 C34 1.264 . S
C42 C43 1.391 . S
C42 C46 1.391 . S
C42 H84 0.948 . S
C43 C42 1.391 . S
C43 C44 1.391 . S
C44 C43 1.391 . S
C44 H100 0.947 . S
C44 C101 1.392 . S
C45 C46 1.391 . S
C45 C49 1.397 . S
C45 C101 1.419 . S
C46 C42 1.391 . S
C46 C45 1.391 . S
C46 C47 1.399 . S
C47 C46 1.399 . S
C47 C50 1.396 . S
C47 C59 1.453 1_565 S
C47 C60 1.684 . S
H48 C72 0.948 . S
C49 C45 1.397 . S
C49 C50 1.394 . S
C49 C68 1.723 . S
C50 C47 1.396 . S
C50 C49 1.394 . S
C50 C80 1.723 1_565 S
H51 C74 0.947 . S
H52 C75 0.948 . S
H53 C81 0.982 1_455 S
H54 C82 0.979 . S
H55 C82 0.980 . S
H56 C82 0.983 . S
H57 C81 0.979 . S
H58 C81 0.977 . S
C59 C47 1.453 1_545 S
C59 H88 0.982 . S
C59 H89 0.979 1_545 S
C59 H90 0.977 . S
C60 C47 1.684 . S
C60 H85 0.986 . S
C60 H86 0.980 . S
C60 H87 0.983 . S
C61 C62 1.402 . S
C61 C66 1.391 . S
C61 H91 0.948 . S
C62 C61 1.402 . S
C62 C63 1.381 1_565 S
C63 C62 1.381 1_545 S
C63 C64 1.392 . S
C63 H92 0.947 1_455 S
C64 C63 1.392 . S
C64 C65 1.419 . S
C64 H93 0.948 1_455 S
C65 C64 1.419 . S
C65 C66 1.391 1_545 S
C65 C69 1.397 . S
C66 C61 1.391 . S
C66 C65 1.391 1_565 S
C66 C67 1.399 . S
C67 C66 1.399 . S
C67 C68 1.396 . S
C67 C70 1.453 . S
C67 C71 1.684 . S
C68 C49 1.723 . S
C68 C67 1.396 . S
C68 C69 1.394 1_565 S
C69 C65 1.397 . S
C69 C68 1.394 1_545 S
C69 C79 1.723 . S
C70 C67 1.453 . S
C70 H94 0.982 . S
C70 H95 0.979 . S
C70 H96 0.977 . S
C71 C67 1.684 . S
C71 H97 0.979 . S
C71 H98 0.980 . S
C71 H99 0.983 . S
C72 H48 0.948 . S
C72 C73 1.391 . S
C72 C77 1.391 . S
C73 C72 1.391 . S
C73 C74 1.391 . S
C74 H51 0.947 . S
C74 C73 1.391 . S
C74 C75 1.392 . S
C75 H52 0.948 . S
C75 C74 1.392 . S
C75 C76 1.419 . S
C76 C75 1.419 . S
C76 C77 1.391 . S
C76 C80 1.397 1_655 S
C77 C72 1.391 . S
C77 C76 1.391 . S
C77 C78 1.399 . S
C78 C77 1.399 . S
C78 C79 1.396 1_655 S
C78 C81 1.453 . S
C78 C82 1.684 . S
C79 C69 1.723 . S
C79 C78 1.396 1_455 S
C79 C80 1.394 . S
C80 C50 1.723 1_545 S
C80 C76 1.397 1_455 S
C80 C79 1.394 . S
C81 H53 0.982 1_655 S
C81 H57 0.979 . S
C81 H58 0.977 . S
C81 C78 1.453 . S
C82 H54 0.979 . S
C82 H55 0.980 . S
C82 H56 0.983 . S
C82 C78 1.684 . S
H83 C101 0.948 . S
H84 C42 0.948 . S
H85 C60 0.986 . S
H86 C60 0.980 . S
H87 C60 0.983 . S
H88 C59 0.982 . S
H89 C59 0.979 1_565 S
H90 C59 0.977 . S
H91 C61 0.948 . S
H92 C63 0.947 1_655 S
H93 C64 0.948 1_655 S
H94 C70 0.982 . S
H95 C70 0.979 . S
H96 C70 0.977 . S
H97 C71 0.979 . S
H98 C71 0.980 . S
H99 C71 0.983 . S
H100 C44 0.947 . S
C101 C44 1.392 . S
C101 C45 1.419 . S
C101 H83 0.948 . S
C102 C103 1.391 . S
C102 C106 1.391 . S
C102 H144 0.948 . S
C103 C102 1.391 . S
C103 C104 1.391 . S
C104 C103 1.391 . S
C104 H160 0.947 . S
C104 C161 1.392 . S
C105 C106 1.391 . S
C105 C109 1.397 . S
C105 C161 1.419 . S
C106 C102 1.391 . S
C106 C105 1.391 . S
C106 C107 1.399 . S
C107 C106 1.399 . S
C107 C110 1.396 . S
C107 C119 1.453 . S
C107 C120 1.684 1_455 S
H108 C132 0.948 . S
C109 C105 1.397 . S
C109 C110 1.394 . S
C109 C128 1.723 . S
C110 C107 1.396 . S
C110 C109 1.394 . S
C110 C140 1.723 1_455 S
H111 C134 0.947 . S
H112 C135 0.948 . S
H113 C141 0.982 . S
H114 C142 0.979 . S
H115 C142 0.980 . S
H116 C142 0.983 1_565 S
H117 C141 0.979 . S
H118 C141 0.977 . S
C119 C107 1.453 . S
C119 H148 0.982 . S
C119 H149 0.979 . S
C119 H150 0.977 . S
C120 C107 1.684 1_655 S
C120 H145 0.979 . S
C120 H146 0.980 . S
C120 H147 0.983 . S
C121 C122 1.391 1_455 S
C121 C126 1.391 . S
C121 H151 0.948 . S
C122 C121 1.391 1_655 S
C122 C123 1.391 . S
C123 C122 1.391 . S
C123 C124 1.392 . S
C123 H152 0.947 . S
C124 C123 1.392 . S
C124 C125 1.419 . S
C124 H153 0.948 . S
C125 C124 1.419 . S
C125 C126 1.391 1_655 S
C125 C129 1.397 . S
C126 C121 1.391 . S
C126 C125 1.391 1_455 S
C126 C127 1.399 . S
C127 C126 1.399 . S
C127 C128 1.396 . S
C127 C130 1.453 . S
C127 C131 1.684 . S
C128 C109 1.723 . S
C128 C127 1.396 . S
C128 C129 1.394 1_455 S
C129 C125 1.397 . S
C129 C128 1.394 1_655 S
C129 C139 1.723 . S
C130 C127 1.453 . S
C130 H154 0.982 . S
C130 H155 0.979 . S
C130 H156 0.977 . S
C131 C127 1.684 . S
C131 H157 0.979 . S
C131 H158 0.980 . S
C131 H159 0.983 . S
C132 H108 0.948 . S
C132 C133 1.391 . S
C132 C137 1.391 1_565 S
C133 C132 1.391 . S
C133 C134 1.391 . S
C134 H111 0.947 . S
C134 C133 1.391 . S
C134 C135 1.392 1_565 S
C135 H112 0.948 . S
C135 C134 1.392 1_545 S
C135 C136 1.419 . S
C136 C135 1.419 . S
C136 C137 1.391 . S
C136 C140 1.397 . S
C137 C132 1.391 1_545 S
C137 C136 1.391 . S
C137 C138 1.399 . S
C138 C137 1.399 . S
C138 C139 1.396 . S
C138 C141 1.453 1_545 S
C138 C142 1.684 . S
C139 C129 1.723 . S
C139 C138 1.396 . S
C139 C140 1.394 . S
C140 C110 1.723 1_655 S
C140 C136 1.397 . S
C140 C139 1.394 . S
C141 H113 0.982 . S
C141 H117 0.979 . S
C141 H118 0.977 . S
C141 C138 1.453 1_565 S
C142 H114 0.979 . S
C142 H115 0.980 . S
C142 H116 0.983 1_545 S
C142 C138 1.684 . S
H143 C161 0.948 . S
H144 C102 0.948 . S
H145 C120 0.979 . S
H146 C120 0.980 . S
H147 C120 0.983 . S
H148 C119 0.982 . S
H149 C119 0.979 . S
H150 C119 0.977 . S
H151 C121 0.948 . S
H152 C123 0.947 . S
H153 C124 0.948 . S
H154 C130 0.982 . S
H155 C130 0.979 . S
H156 C130 0.977 . S
H157 C131 0.979 . S
H158 C131 0.980 . S
H159 C131 0.983 . S
H160 C104 0.947 . S
C161 C104 1.392 . S
C161 C105 1.419 . S
C161 H143 0.948 . S
C162 C163 1.391 . S
C162 C166 1.391 . S
C162 H204 0.948 . S
C163 C162 1.391 . S
C163 C164 1.391 . S
C164 C163 1.391 . S
C164 H220 0.947 . S
C164 C221 1.392 . S
C165 C166 1.391 . S
C165 C169 1.397 . S
C165 C221 1.419 . S
C166 C162 1.391 . S
C166 C165 1.391 . S
C166 C167 1.399 . S
C167 C166 1.399 . S
C167 C170 1.396 . S
C167 C179 1.453 . S
C167 C180 1.684 . S
H168 C192 0.948 . S
C169 C165 1.397 . S
C169 C170 1.394 . S
C169 C188 1.723 . S
C170 C167 1.396 . S
C170 C169 1.394 . S
C170 C200 1.723 . S
H171 C194 0.947 1_554 S
H172 C195 0.948 . S
H173 C201 0.982 . S
H174 C202 0.979 . S
H175 C202 0.980 . S
H176 C202 0.983 . S
H177 C201 0.979 . S
H178 C201 0.977 . S
C179 C167 1.453 . S
C179 H208 0.982 . S
C179 H209 0.979 . S
C179 H210 0.977 . S
C180 C167 1.684 . S
C180 H205 0.979 . S
C180 H206 0.980 . S
C180 H207 0.983 1_556 S
C181 C182 1.391 . S
C181 C186 1.391 . S
C181 H211 0.948 . S
C182 C181 1.391 . S
C182 C183 1.391 . S
C183 C182 1.391 . S
C183 C184 1.392 . S
C183 H212 0.947 . S
C184 C183 1.392 . S
C184 C185 1.419 . S
C184 H213 0.948 . S
C185 C184 1.419 . S
C185 C186 1.391 . S
C185 C189 1.397 . S
C186 C181 1.391 . S
C186 C185 1.391 . S
C186 C187 1.399 . S
C187 C186 1.399 . S
C187 C188 1.396 . S
C187 C190 1.453 . S
C187 C191 1.684 . S
C188 C169 1.723 . S
C188 C187 1.396 . S
C188 C189 1.394 . S
C189 C185 1.397 . S
C189 C188 1.394 . S
C189 C199 1.723 . S
C190 C187 1.453 . S
C190 H214 0.982 . S
C190 H215 0.979 . S
C190 H216 0.977 . S
C191 C187 1.684 . S
C191 H217 0.979 . S
C191 H218 0.980 . S
C191 H219 0.983 . S
C192 H168 0.948 . S
C192 C193 1.391 . S
C192 C197 1.391 . S
C193 C192 1.391 . S
C193 C194 1.391 . S
C194 H171 0.947 1_556 S
C194 C193 1.391 . S
C194 C195 1.392 . S
C195 H172 0.948 . S
C195 C194 1.392 . S
C195 C196 1.419 . S
C196 C195 1.419 . S
C196 C197 1.391 . S
C196 C200 1.397 . S
C197 C192 1.391 . S
C197 C196 1.391 . S
C197 C198 1.399 . S
C198 C197 1.399 . S
C198 C199 1.396 . S
C198 C201 1.453 . S
C198 C202 1.684 . S
C199 C189 1.723 . S
C199 C198 1.396 . S
C199 C200 1.394 . S
C200 C170 1.723 . S
C200 C196 1.397 . S
C200 C199 1.394 . S
C201 H173 0.982 . S
C201 H177 0.979 . S
C201 H178 0.977 . S
C201 C198 1.453 . S
C202 H174 0.979 . S
C202 H175 0.980 . S
C202 H176 0.983 . S
C202 C198 1.684 . S
H203 C221 0.948 . S
H204 C162 0.948 . S
H205 C180 0.979 . S
H206 C180 0.980 . S
H207 C180 0.983 1_554 S
H208 C179 0.982 . S
H209 C179 0.979 . S
H210 C179 0.977 . S
H211 C181 0.948 . S
H212 C183 0.947 . S
H213 C184 0.948 . S
H214 C190 0.982 . S
H215 C190 0.979 . S
H216 C190 0.977 . S
H217 C191 0.979 . S
H218 C191 0.980 . S
H219 C191 0.983 . S
H220 C164 0.947 . S
C221 C164 1.392 . S
C221 C165 1.419 . S
C221 H203 0.948 . S
C222 C223 1.391 . S
C222 C226 1.391 . S
C222 H264 0.948 . S
C223 C222 1.391 . S
C223 C224 1.391 . S
C224 C223 1.391 . S
C224 H280 0.947 . S
C224 C281 1.392 . S
C225 C226 1.391 . S
C225 C229 1.397 . S
C225 C281 1.419 . S
C226 C222 1.391 . S
C226 C225 1.391 . S
C226 C227 1.399 . S
C227 C226 1.399 . S
C227 C230 1.396 . S
C227 C239 1.453 . S
C227 C240 1.684 . S
H228 C252 0.948 . S
C229 C225 1.397 . S
C229 C230 1.394 . S
C229 C248 1.723 . S
C230 C227 1.396 . S
C230 C229 1.394 . S
C230 C260 1.723 . S
H231 C254 0.947 . S
H232 C255 0.948 . S
H233 C261 0.982 . S
H234 C262 0.979 . S
H235 C262 0.980 . S
H236 C262 0.983 . S
H237 C261 0.979 . S
H238 C261 0.977 . S
C239 C227 1.453 . S
C239 H268 0.982 . S
C239 H269 0.979 . S
C239 H270 0.977 . S
C240 C227 1.684 . S
C240 H265 0.979 . S
C240 H266 0.980 . S
C240 H267 0.983 . S
C241 C242 1.391 . S
C241 C246 1.391 . S
C241 H271 0.948 . S
C242 C241 1.391 . S
C242 C243 1.391 . S
C243 C242 1.391 . S
C243 C244 1.392 . S
C243 H272 0.947 . S
C244 C243 1.392 . S
C244 C245 1.419 . S
C244 H273 0.948 . S
C245 C244 1.419 . S
C245 C246 1.391 . S
C245 C249 1.397 . S
C246 C241 1.391 . S
C246 C245 1.391 . S
C246 C247 1.399 . S
C247 C246 1.399 . S
C247 C248 1.396 . S
C247 C250 1.453 . S
C247 C251 1.684 . S
C248 C229 1.723 . S
C248 C247 1.396 . S
C248 C249 1.394 . S
C249 C245 1.397 . S
C249 C248 1.394 . S
C249 C259 1.723 . S
C250 C247 1.453 . S
C250 H274 0.982 . S
C250 H275 0.979 . S
C250 H276 0.977 . S
C251 C247 1.684 . S
C251 H277 0.979 . S
C251 H278 0.980 . S
C251 H279 0.983 . S
C252 H228 0.948 . S
C252 C253 1.391 . S
C252 C257 1.391 . S
C253 C252 1.391 . S
C253 C254 1.391 . S
C254 H231 0.947 . S
C254 C253 1.391 . S
C254 C255 1.392 . S
C255 H232 0.948 . S
C255 C254 1.392 . S
C255 C256 1.419 . S
C256 C255 1.419 . S
C256 C257 1.391 . S
C256 C260 1.397 . S
C257 C252 1.391 . S
C257 C256 1.391 . S
C257 C258 1.399 . S
C258 C257 1.399 . S
C258 C259 1.396 . S
C258 C261 1.453 . S
C258 C262 1.684 . S
C259 C249 1.723 . S
C259 C258 1.396 . S
C259 C260 1.394 . S
C260 C230 1.723 . S
C260 C256 1.397 . S
C260 C259 1.394 . S
C261 H233 0.982 . S
C261 H237 0.979 . S
C261 H238 0.977 . S
C261 C258 1.453 . S
C262 H234 0.979 . S
C262 H235 0.980 . S
C262 H236 0.983 . S
C262 C258 1.684 . S
H263 C281 0.948 . S
H264 C222 0.948 . S
H265 C240 0.979 . S
H266 C240 0.980 . S
H267 C240 0.983 . S
H268 C239 0.982 . S
H269 C239 0.979 . S
H270 C239 0.977 . S
H271 C241 0.948 . S
H272 C243 0.947 . S
H273 C244 0.948 . S
H274 C250 0.982 . S
H275 C250 0.979 . S
H276 C250 0.977 . S
H277 C251 0.979 . S
H278 C251 0.980 . S
H279 C251 0.983 . S
H280 C224 0.947 . S
C281 C224 1.392 . S
C281 C225 1.419 . S
C281 H263 0.948 . S
H282 C290 0.929 . S
H283 C292 0.930 . S
H284 C294 0.923 1_556 S
H285 C297 0.929 . S
H286 C300 0.930 . S
H287 C302 0.960 . S
H288 C302 0.960 . S
H289 C302 0.960 . S
C290 H282 0.929 . S
C290 C291 1.377 . S
C290 C292 1.384 . S
C291 C290 1.377 . S
C291 C297 1.390 1_554 S
C292 H283 0.930 . S
C292 C290 1.384 . S
C292 C293 1.372 . S
C293 C292 1.372 . S
C293 C294 1.407 . S
C293 C298 1.490 . S
C294 H284 0.923 1_554 S
C294 C293 1.407 . S
C294 C297 1.385 1_554 S
H295 C311 0.930 . S
H296 C312 0.954 . S
C297 H285 0.929 . S
C297 C291 1.390 1_556 S
C297 C294 1.385 1_556 S
C298 C293 1.490 . S
C298 C300 1.395 . S
C298 C301 1.403 . S
H299 C305 0.930 . S
C300 H286 0.930 . S
C300 C298 1.395 . S
C300 C303 1.403 . S
C301 C298 1.403 . S
C301 C302 1.524 . S
C301 C305 1.400 . S
C302 H287 0.960 . S
C302 H288 0.960 . S
C302 H289 0.960 . S
C302 C301 1.524 . S
C303 C300 1.403 . S
C303 C304 1.392 . S
C303 C307 1.495 . S
C304 C303 1.392 . S
C304 C305 1.385 . S
C304 C306 1.478 . S
C305 H299 0.930 . S
C305 C301 1.400 . S
C305 C304 1.385 . S
C306 C304 1.478 . S
C306 C308 1.381 . S
C306 C312 1.383 . S
C307 C303 1.495 . S
C307 H313 0.959 . S
C307 H314 0.961 . S
C307 H315 0.960 . S
C308 C306 1.381 . S
C308 C309 1.394 . S
C308 H316 0.930 . S
C309 C308 1.394 . S
C309 C310 1.383 . S
C309 H317 0.929 . S
C310 C309 1.383 . S
C310 C311 1.377 . S
C311 H295 0.930 . S
C311 C310 1.377 . S
C311 C312 1.379 . S
C312 H296 0.954 . S
C312 C306 1.383 . S
C312 C311 1.379 . S
H313 C307 0.959 . S
H314 C307 0.961 . S
H315 C307 0.960 . S
H316 C308 0.930 . S
H317 C309 0.929 . S
H318 C326 0.929 . S
H319 C328 0.930 . S
H320 C330 0.930 . S
H321 C333 0.929 . S
H322 C336 0.930 . S
H323 C338 0.960 . S
H324 C338 0.960 . S
H325 C338 0.960 . S
C326 H318 0.929 . S
C326 C327 1.377 . S
C326 C328 1.384 . S
C327 C326 1.377 . S
C327 C333 1.390 1_554 S
C328 H319 0.930 . S
C328 C326 1.384 . S
C328 C329 1.380 . S
C329 C328 1.380 . S
C329 C330 1.392 1_554 S
C329 C334 1.489 1_554 S
C330 H320 0.930 . S
C330 C329 1.392 1_556 S
C330 C333 1.386 . S
H331 C347 0.930 . S
H332 C348 0.931 . S
C333 H321 0.929 . S
C333 C327 1.390 1_556 S
C333 C330 1.386 . S
C334 C329 1.489 1_556 S
C334 C336 1.395 . S
C334 C337 1.403 1_556 S
H335 C341 0.921 1_554 S
C336 H322 0.930 . S
C336 C334 1.395 . S
C336 C339 1.403 . S
C337 C334 1.403 1_554 S
C337 C338 1.524 . S
C337 C341 1.397 1_554 S
C338 H323 0.960 . S
C338 H324 0.960 . S
C338 H325 0.960 . S
C338 C337 1.524 . S
C339 C336 1.403 . S
C339 C340 1.392 . S
C339 C343 1.495 . S
C340 C339 1.392 . S
C340 C341 1.398 . S
C340 C342 1.478 . S
C341 H335 0.921 1_556 S
C341 C337 1.397 1_556 S
C341 C340 1.398 . S
C342 C340 1.478 . S
C342 C344 1.381 . S
C342 C348 1.383 . S
C343 C339 1.495 . S
C343 H349 0.959 . S
C343 H350 0.961 . S
C343 H351 0.960 . S
C344 C342 1.381 . S
C344 C345 1.394 . S
C344 H352 0.930 1_556 S
C345 C344 1.394 . S
C345 C346 1.383 . S
C345 H353 0.929 1_556 S
C346 C345 1.383 . S
C346 C347 1.377 . S
C347 H331 0.930 . S
C347 C346 1.377 . S
C347 C348 1.379 . S
C348 H332 0.931 . S
C348 C342 1.383 . S
C348 C347 1.379 . S
H349 C343 0.959 . S
H350 C343 0.961 . S
H351 C343 0.960 . S
H352 C344 0.930 1_554 S
H353 C345 0.929 1_554 S
H354 C362 0.929 1_556 S
H355 C364 0.930 1_556 S
H356 C366 0.930 . S
H357 C369 0.929 . S
H358 C372 0.930 . S
H359 C374 0.960 . S
H360 C374 0.960 1_556 S
H361 C374 0.960 . S
C362 H354 0.929 1_554 S
C362 C363 1.377 . S
C362 C364 1.384 . S
C363 C362 1.377 . S
C363 C369 1.390 . S
C364 H355 0.930 1_554 S
C364 C362 1.384 . S
C364 C365 1.372 . S
C365 C364 1.372 . S
C365 C366 1.400 . S
C365 C370 1.490 . S
C366 H356 0.930 . S
C366 C365 1.400 . S
C366 C369 1.386 . S
H367 C383 0.930 . S
H368 C384 0.931 . S
C369 H357 0.929 . S
C369 C363 1.390 . S
C369 C366 1.386 . S
C370 C365 1.490 . S
C370 C372 1.395 . S
C370 C373 1.403 . S
H371 C377 0.930 . S
C372 H358 0.930 . S
C372 C370 1.395 . S
C372 C375 1.403 . S
C373 C370 1.403 . S
C373 C374 1.524 . S
C373 C377 1.400 . S
C374 H359 0.960 . S
C374 H360 0.960 1_554 S
C374 H361 0.960 . S
C374 C373 1.524 . S
C375 C372 1.403 . S
C375 C376 1.392 . S
C375 C379 1.495 . S
C376 C375 1.392 . S
C376 C377 1.385 . S
C376 C378 1.478 . S
C377 H371 0.930 . S
C377 C373 1.400 . S
C377 C376 1.385 . S
C378 C376 1.478 . S
C378 C380 1.381 . S
C378 C384 1.383 . S
C379 C375 1.495 . S
C379 H385 0.959 . S
C379 H386 0.961 . S
C379 H387 0.960 . S
C380 C378 1.381 . S
C380 C381 1.394 . S
C380 H388 0.930 . S
C381 C380 1.394 . S
C381 C382 1.383 . S
C381 H389 0.929 . S
C382 C381 1.383 . S
C382 C383 1.377 . S
C383 H367 0.930 . S
C383 C382 1.377 . S
C383 C384 1.379 . S
C384 H368 0.931 . S
C384 C378 1.383 . S
C384 C383 1.379 . S
H385 C379 0.959 . S
H386 C379 0.961 . S
H387 C379 0.960 . S
H388 C380 0.930 . S
H389 C381 0.929 . S
H390 C398 0.929 . S
H391 C400 0.930 . S
H392 C402 0.930 . S
H393 C405 0.929 . S
H394 C408 0.930 . S
H395 C410 0.960 . S
H396 C410 0.960 . S
H397 C410 0.960 . S
C398 H390 0.929 . S
C398 C399 1.377 . S
C398 C400 1.384 . S
C399 C398 1.377 . S
C399 C405 1.390 1_554 S
C400 H391 0.930 . S
C400 C398 1.384 . S
C400 C401 1.372 1_554 S
C401 C400 1.372 1_556 S
C401 C402 1.400 . S
C401 C406 1.490 . S
C402 H392 0.930 . S
C402 C401 1.400 . S
C402 C405 1.386 . S
H403 C419 0.930 . S
H404 C420 0.931 . S
C405 H393 0.929 . S
C405 C399 1.390 1_556 S
C405 C402 1.386 . S
C406 C401 1.490 . S
C406 C408 1.395 1_556 S
C406 C409 1.403 . S
H407 C413 0.930 . S
C408 H394 0.930 . S
C408 C406 1.395 1_554 S
C408 C411 1.403 . S
C409 C406 1.403 . S
C409 C410 1.524 . S
C409 C413 1.400 . S
C410 H395 0.960 . S
C410 H396 0.960 . S
C410 H397 0.960 . S
C410 C409 1.524 . S
C411 C408 1.403 . S
C411 C412 1.392 1_554 S
C411 C415 1.495 . S
C412 C411 1.392 1_556 S
C412 C413 1.385 . S
C412 C414 1.478 . S
C413 H407 0.930 . S
C413 C409 1.400 . S
C413 C412 1.385 . S
C414 C412 1.478 . S
C414 C416 1.381 . S
C414 C420 1.383 . S
C415 C411 1.495 . S
C415 H421 0.959 . S
C415 H422 0.961 . S
C415 H423 0.960 . S
C416 C414 1.381 . S
C416 C417 1.394 . S
C416 H424 0.930 1_556 S
C417 C416 1.394 . S
C417 C418 1.383 . S
C417 H425 0.929 1_556 S
C418 C417 1.383 . S
C418 C419 1.377 . S
C419 H403 0.930 . S
C419 C418 1.377 . S
C419 C420 1.379 . S
C420 H404 0.931 . S
C420 C414 1.383 . S
C420 C419 1.379 . S
H421 C415 0.959 . S
H422 C415 0.961 . S
H423 C415 0.960 . S
H424 C416 0.930 1_554 S
H425 C417 0.929 1_554 S
H426 C434 0.929 . S
H427 C436 0.930 . S
H428 C438 0.930 . S
H429 C441 0.929 . S
H430 C444 0.930 . S
H431 C446 0.960 . S
H432 C446 0.960 . S
H433 C446 0.960 . S
C434 H426 0.929 . S
C434 C435 1.377 . S
C434 C436 1.384 . S
C435 C434 1.377 . S
C435 C441 1.390 . S
C436 H427 0.930 . S
C436 C434 1.384 . S
C436 C437 1.372 . S
C437 C436 1.372 . S
C437 C438 1.400 . S
C437 C442 1.490 . S
C438 H428 0.930 . S
C438 C437 1.400 . S
C438 C441 1.386 . S
H439 C455 0.930 . S
H440 C456 0.931 . S
C441 H429 0.929 . S
C441 C435 1.390 . S
C441 C438 1.386 . S
C442 C437 1.490 . S
C442 C444 1.395 . S
C442 C445 1.403 . S
H443 C449 0.930 . S
C444 H430 0.930 . S
C444 C442 1.395 . S
C444 C447 1.403 . S
C445 C442 1.403 . S
C445 C446 1.524 . S
C445 C449 1.400 . S
C446 H431 0.960 . S
C446 H432 0.960 . S
C446 H433 0.960 . S
C446 C445 1.524 . S
C447 C444 1.403 . S
C447 C448 1.392 . S
C447 C451 1.495 . S
C448 C447 1.392 . S
C448 C449 1.385 . S
C448 C450 1.478 . S
C449 H443 0.930 . S
C449 C445 1.400 . S
C449 C448 1.385 . S
C450 C448 1.478 . S
C450 C452 1.381 . S
C450 C456 1.383 . S
C451 C447 1.495 . S
C451 H457 0.959 . S
C451 H458 0.961 . S
C451 H459 0.960 . S
C452 C450 1.381 . S
C452 C453 1.394 . S
C452 H460 0.930 . S
C453 C452 1.394 . S
C453 C454 1.383 . S
C453 H461 0.929 . S
C454 C453 1.383 . S
C454 C455 1.377 . S
C455 H439 0.930 . S
C455 C454 1.377 . S
C455 C456 1.379 . S
C456 H440 0.931 . S
C456 C450 1.383 . S
C456 C455 1.379 . S
H457 C451 0.959 . S
H458 C451 0.961 . S
H459 C451 0.960 . S
H460 C452 0.930 . S
H461 C453 0.929 . S
H462 C470 0.929 . S
H463 C472 0.930 . S
H464 C474 0.930 . S
H465 C477 0.929 . S
H466 C480 0.930 . S
H467 C482 0.960 . S
H468 C482 0.960 . S
H469 C482 0.960 . S
C470 H462 0.929 . S
C470 C471 1.377 . S
C470 C472 1.384 . S
C471 C470 1.377 . S
C471 C477 1.390 . S
C472 H463 0.930 . S
C472 C470 1.384 . S
C472 C473 1.372 . S
C473 C472 1.372 . S
C473 C474 1.400 . S
C473 C478 1.490 . S
C474 H464 0.930 . S
C474 C473 1.400 . S
C474 C477 1.386 . S
H475 C491 0.930 . S
H476 C492 0.931 . S
C477 H465 0.929 . S
C477 C471 1.390 . S
C477 C474 1.386 . S
C478 C473 1.490 . S
C478 C480 1.395 . S
C478 C481 1.403 . S
H479 C485 0.930 . S
C480 H466 0.930 . S
C480 C478 1.395 . S
C480 C483 1.403 . S
C481 C478 1.403 . S
C481 C482 1.524 . S
C481 C485 1.400 . S
C482 H467 0.960 . S
C482 H468 0.960 . S
C482 H469 0.960 . S
C482 C481 1.524 . S
C483 C480 1.403 . S
C483 C484 1.392 . S
C483 C487 1.495 . S
C484 C483 1.392 . S
C484 C485 1.385 . S
C484 C486 1.478 . S
C485 H479 0.930 . S
C485 C481 1.400 . S
C485 C484 1.385 . S
C486 C484 1.478 . S
C486 C488 1.381 . S
C486 C492 1.383 . S
C487 C483 1.495 . S
C487 H493 0.959 . S
C487 H494 0.961 . S
C487 H495 0.960 . S
C488 C486 1.381 . S
C488 C489 1.394 . S
C488 H496 0.930 . S
C489 C488 1.394 . S
C489 C490 1.383 . S
C489 H497 0.929 . S
C490 C489 1.383 . S
C490 C491 1.377 . S
C491 H475 0.930 . S
C491 C490 1.377 . S
C491 C492 1.379 . S
C492 H476 0.931 . S
C492 C486 1.383 . S
C492 C491 1.379 . S
H493 C487 0.959 . S
H494 C487 0.961 . S
H495 C487 0.960 . S
H496 C488 0.930 . S
H497 C489 0.929 . S
H498 C506 0.929 . S
H499 C508 0.930 . S
H500 C510 0.930 . S
H501 C513 0.929 . S
H502 C516 0.930 . S
H503 C518 0.960 . S
H504 C518 0.960 . S
H505 C518 0.960 . S
C506 H498 0.929 . S
C506 C507 1.377 . S
C506 C508 1.384 . S
C507 C506 1.377 . S
C507 C513 1.390 . S
C508 H499 0.930 . S
C508 C506 1.384 . S
C508 C509 1.372 . S
C509 C508 1.372 . S
C509 C510 1.400 . S
C509 C514 1.490 . S
C510 H500 0.930 . S
C510 C509 1.400 . S
C510 C513 1.386 . S
H511 C527 0.930 . S
H512 C528 0.931 . S
C513 H501 0.929 . S
C513 C507 1.390 . S
C513 C510 1.386 . S
C514 C509 1.490 . S
C514 C516 1.395 . S
C514 C517 1.403 . S
H515 C521 0.930 . S
C516 H502 0.930 . S
C516 C514 1.395 . S
C516 C519 1.403 . S
C517 C514 1.403 . S
C517 C518 1.524 . S
C517 C521 1.400 . S
C518 H503 0.960 . S
C518 H504 0.960 . S
C518 H505 0.960 . S
C518 C517 1.524 . S
C519 C516 1.403 . S
C519 C520 1.392 . S
C519 C523 1.495 . S
C520 C519 1.392 . S
C520 C521 1.385 . S
C520 C522 1.478 . S
C521 H515 0.930 . S
C521 C517 1.400 . S
C521 C520 1.385 . S
C522 C520 1.478 . S
C522 C524 1.381 . S
C522 C528 1.383 . S
C523 C519 1.495 . S
C523 H529 0.959 . S
C523 H530 0.961 . S
C523 H531 0.960 . S
C524 C522 1.381 . S
C524 C525 1.394 . S
C524 H532 0.930 . S
C525 C524 1.394 . S
C525 C526 1.383 . S
C525 H533 0.929 . S
C526 C525 1.383 . S
C526 C527 1.377 . S
C527 H511 0.930 . S
C527 C526 1.377 . S
C527 C528 1.379 . S
C528 H512 0.931 . S
C528 C522 1.383 . S
C528 C527 1.379 . S
H529 C523 0.959 . S
H530 C523 0.961 . S
H531 C523 0.960 . S
H532 C524 0.930 . S
H533 C525 0.929 . S
H534 C542 0.929 . S
H535 C544 0.930 . S
H536 C546 0.930 . S
H537 C549 0.929 . S
H538 C552 0.930 . S
H539 C554 0.960 . S
H540 C554 0.960 . S
H541 C554 0.960 . S
C542 H534 0.929 . S
C542 C543 1.377 . S
C542 C544 1.384 . S
C543 C542 1.377 . S
C543 C549 1.390 . S
C544 H535 0.930 . S
C544 C542 1.384 . S
C544 C545 1.372 . S
C545 C544 1.372 . S
C545 C546 1.400 . S
C545 C550 1.490 . S
C546 H536 0.930 . S
C546 C545 1.400 . S
C546 C549 1.386 . S
H547 C563 0.930 . S
H548 C564 0.931 . S
C549 H537 0.929 . S
C549 C543 1.390 . S
C549 C546 1.386 . S
C550 C545 1.490 . S
C550 C552 1.395 . S
C550 C553 1.403 . S
H551 C557 0.930 . S
C552 H538 0.930 . S
C552 C550 1.395 . S
C552 C555 1.403 . S
C553 C550 1.403 . S
C553 C554 1.524 . S
C553 C557 1.400 . S
C554 H539 0.960 . S
C554 H540 0.960 . S
C554 H541 0.960 . S
C554 C553 1.524 . S
C555 C552 1.403 . S
C555 C556 1.392 . S
C555 C559 1.495 . S
C556 C555 1.392 . S
C556 C557 1.385 . S
C556 C558 1.478 . S
C557 H551 0.930 . S
C557 C553 1.400 . S
C557 C556 1.385 . S
C558 C556 1.478 . S
C558 C560 1.381 . S
C558 C564 1.383 . S
C559 C555 1.495 . S
C559 H565 0.959 . S
C559 H566 0.961 . S
C559 H567 0.960 . S
C560 C558 1.381 . S
C560 C561 1.394 . S
C560 H568 0.930 . S
C561 C560 1.394 . S
C561 C562 1.383 . S
C561 H569 0.929 . S
C562 C561 1.383 . S
C562 C563 1.377 . S
C563 H547 0.930 . S
C563 C562 1.377 . S
C563 C564 1.379 . S
C564 H548 0.931 . S
C564 C558 1.383 . S
C564 C563 1.379 . S
H565 C559 0.959 . S
H566 C559 0.961 . S
H567 C559 0.960 . S
H568 C560 0.930 . S
H569 C561 0.929 . S
H570 C578 0.929 . S
H571 C580 0.930 . S
H572 C582 0.930 . S
H573 C585 0.929 . S
H574 C588 0.930 . S
H575 C590 0.960 . S
H576 C590 0.960 1_655 S
H577 C590 0.960 . S
C578 H570 0.929 . S
C578 C579 1.377 1_565 S
C578 C580 1.384 . S
C579 C578 1.377 1_545 S
C579 C585 1.390 . S
C580 H571 0.930 . S
C580 C578 1.384 . S
C580 C581 1.372 1_565 S
C581 C580 1.372 1_545 S
C581 C582 1.400 . S
C581 C586 1.490 . S
C582 H572 0.930 . S
C582 C581 1.400 . S
C582 C585 1.386 . S
H583 C599 0.930 . S
H584 C600 0.931 . S
C585 H573 0.929 . S
C585 C579 1.390 . S
C585 C582 1.386 . S
C586 C581 1.490 . S
C586 C588 1.395 1_545 S
C586 C589 1.403 . S
H587 C593 0.930 . S
C588 H574 0.930 . S
C588 C586 1.395 1_565 S
C588 C591 1.403 . S
C589 C586 1.403 . S
C589 C590 1.524 . S
C589 C593 1.400 . S
C590 H575 0.960 . S
C590 H576 0.960 1_455 S
C590 H577 0.960 . S
C590 C589 1.524 . S
C591 C588 1.403 . S
C591 C592 1.392 . S
C591 C595 1.495 . S
C592 C591 1.392 . S
C592 C593 1.385 1_565 S
C592 C594 1.478 . S
C593 H587 0.930 . S
C593 C589 1.400 . S
C593 C592 1.385 1_545 S
C594 C592 1.478 . S
C594 C596 1.381 . S
C594 C600 1.383 1_565 S
C595 C591 1.495 . S
C595 H601 0.959 . S
C595 H602 0.961 . S
C595 H603 0.960 . S
C596 C594 1.381 . S
C596 C597 1.394 . S
C596 H604 0.930 . S
C597 C596 1.394 . S
C597 C598 1.383 . S
C597 H605 0.929 . S
C598 C597 1.383 . S
C598 C599 1.377 1_565 S
C599 H583 0.930 . S
C599 C598 1.377 1_545 S
C599 C600 1.379 . S
C600 H584 0.931 . S
C600 C594 1.383 1_545 S
C600 C599 1.379 . S
H601 C595 0.959 . S
H602 C595 0.961 . S
H603 C595 0.960 . S
H604 C596 0.930 . S
H605 C597 0.929 . S
H606 C614 0.929 . S
H607 C616 0.930 . S
H608 C618 0.930 1_565 S
H609 C621 0.929 1_565 S
H610 C624 0.930 . S
H611 C626 0.960 . S
H612 C626 0.960 . S
H613 C626 0.960 . S
C614 H606 0.929 . S
C614 C615 1.377 . S
C614 C616 1.384 . S
C615 C614 1.377 . S
C615 C621 1.390 . S
C616 H607 0.930 . S
C616 C614 1.384 . S
C616 C617 1.372 . S
C617 C616 1.372 . S
C617 C618 1.400 . S
C617 C622 1.490 . S
C618 H608 0.930 1_545 S
C618 C617 1.400 . S
C618 C621 1.386 . S
H619 C635 0.930 . S
H620 C636 0.931 . S
C621 H609 0.929 1_545 S
C621 C615 1.390 . S
C621 C618 1.386 . S
C622 C617 1.490 . S
C622 C624 1.395 . S
C622 C625 1.403 1_455 S
H623 C629 0.930 . S
C624 H610 0.930 . S
C624 C622 1.395 . S
C624 C627 1.403 . S
C625 C622 1.403 1_655 S
C625 C626 1.524 . S
C625 C629 1.400 . S
C626 H611 0.960 . S
C626 H612 0.960 . S
C626 H613 0.960 . S
C626 C625 1.524 . S
C627 C624 1.403 . S
C627 C628 1.392 . S
C627 C631 1.495 . S
C628 C627 1.392 . S
C628 C629 1.385 1_455 S
C628 C630 1.478 . S
C629 H623 0.930 . S
C629 C625 1.400 . S
C629 C628 1.385 1_655 S
C630 C628 1.478 . S
C630 C632 1.381 . S
C630 C636 1.383 . S
C631 C627 1.495 . S
C631 H637 0.959 . S
C631 H638 0.961 . S
C631 H639 0.960 . S
C632 C630 1.381 . S
C632 C633 1.394 . S
C632 H640 0.930 . S
C633 C632 1.394 . S
C633 C634 1.383 . S
C633 H641 0.929 . S
C634 C633 1.383 . S
C634 C635 1.377 . S
C635 H619 0.930 . S
C635 C634 1.377 . S
C635 C636 1.379 . S
C636 H620 0.931 . S
C636 C630 1.383 . S
C636 C635 1.379 . S
H637 C631 0.959 . S
H638 C631 0.961 . S
H639 C631 0.960 . S
H640 C632 0.930 . S
H641 C633 0.929 . S
H642 C650 0.929 . S
H643 C652 0.930 . S
H644 C654 0.930 . S
H645 C657 0.929 . S
H646 C660 0.930 . S
H647 C662 0.960 . S
H648 C662 0.960 . S
H649 C662 0.960 . S
C650 H642 0.929 . S
C650 C651 1.377 . S
C650 C652 1.384 . S
C651 C650 1.377 . S
C651 C657 1.390 . S
C652 H643 0.930 . S
C652 C650 1.384 . S
C652 C653 1.372 . S
C653 C652 1.372 . S
C653 C654 1.400 . S
C653 C658 1.490 . S
C654 H644 0.930 . S
C654 C653 1.400 . S
C654 C657 1.386 . S
H655 C671 0.930 . S
H656 C672 0.931 . S
C657 H645 0.929 . S
C657 C651 1.390 . S
C657 C654 1.386 . S
C658 C653 1.490 . S
C658 C660 1.395 . S
C658 C661 1.403 . S
H659 C665 0.930 . S
C660 H646 0.930 . S
C660 C658 1.395 . S
C660 C663 1.403 . S
C661 C658 1.403 . S
C661 C662 1.524 . S
C661 C665 1.400 . S
C662 H647 0.960 . S
C662 H648 0.960 . S
C662 H649 0.960 . S
C662 C661 1.524 . S
C663 C660 1.403 . S
C663 C664 1.392 . S
C663 C667 1.495 . S
C664 C663 1.392 . S
C664 C665 1.385 . S
C664 C666 1.478 . S
C665 H659 0.930 . S
C665 C661 1.400 . S
C665 C664 1.385 . S
C666 C664 1.478 . S
C666 C668 1.381 . S
C666 C672 1.383 . S
C667 C663 1.495 . S
C667 H673 0.959 . S
C667 H674 0.961 . S
C667 H675 0.960 . S
C668 C666 1.381 . S
C668 C669 1.394 . S
C668 H676 0.930 . S
C669 C668 1.394 . S
C669 C670 1.383 . S
C669 H677 0.929 . S
C670 C669 1.383 . S
C670 C671 1.377 . S
C671 H655 0.930 . S
C671 C670 1.377 . S
C671 C672 1.379 . S
C672 H656 0.931 . S
C672 C666 1.383 . S
C672 C671 1.379 . S
H673 C667 0.959 . S
H674 C667 0.961 . S
H675 C667 0.960 . S
H676 C668 0.930 . S
H677 C669 0.929 . S
H678 C686 0.929 . S
H679 C688 0.930 . S
H680 C690 0.930 . S
H681 C693 0.929 . S
H682 C696 0.930 . S
H683 C698 0.960 . S
H684 C698 0.960 . S
H685 C698 0.960 . S
C686 H678 0.929 . S
C686 C687 1.377 . S
C686 C688 1.384 . S
C687 C686 1.377 . S
C687 C693 1.390 . S
C688 H679 0.930 . S
C688 C686 1.384 . S
C688 C689 1.372 . S
C689 C688 1.372 . S
C689 C690 1.400 . S
C689 C694 1.490 . S
C690 H680 0.930 . S
C690 C689 1.400 . S
C690 C693 1.386 . S
H691 C707 0.930 . S
H692 C708 0.931 . S
C693 H681 0.929 . S
C693 C687 1.390 . S
C693 C690 1.386 . S
C694 C689 1.490 . S
C694 C696 1.395 . S
C694 C697 1.403 . S
H695 C701 0.930 . S
C696 H682 0.930 . S
C696 C694 1.395 . S
C696 C699 1.403 . S
C697 C694 1.403 . S
C697 C698 1.524 . S
C697 C701 1.400 . S
C698 H683 0.960 . S
C698 H684 0.960 . S
C698 H685 0.960 . S
C698 C697 1.524 . S
C699 C696 1.403 . S
C699 C700 1.392 . S
C699 C703 1.495 . S
C700 C699 1.392 . S
C700 C701 1.385 . S
C700 C702 1.478 . S
C701 H695 0.930 . S
C701 C697 1.400 . S
C701 C700 1.385 . S
C702 C700 1.478 . S
C702 C704 1.381 . S
C702 C708 1.383 . S
C703 C699 1.495 . S
C703 H709 0.959 . S
C703 H710 0.961 . S
C703 H711 0.960 . S
C704 C702 1.381 . S
C704 C705 1.394 . S
C704 H712 0.930 . S
C705 C704 1.394 . S
C705 C706 1.383 . S
C705 H713 0.929 . S
C706 C705 1.383 . S
C706 C707 1.377 . S
C707 H691 0.930 . S
C707 C706 1.377 . S
C707 C708 1.379 . S
C708 H692 0.931 . S
C708 C702 1.383 . S
C708 C707 1.379 . S
H709 C703 0.959 . S
H710 C703 0.961 . S
H711 C703 0.960 . S
H712 C704 0.930 . S
H713 C705 0.929 . S
C310 C253 1.427 . S
C291 C15 1.239 . S
C327 C13 1.461 . S
C346 C193 1.471 . S
C363 C18 1.260 . S
C382 C223 1.374 . S
C399 C17 1.265 . S
C418 C163 1.296 . S
C435 C36 1.240 . S
C454 C133 1.430 . S
C471 C34 1.462 . S
C490 C73 1.488 . S
C526 C103 1.409 . S
C507 C39 1.256 . S
C562 C43 1.268 . S
C543 C38 1.272 . S
C579 C14 1.519 . S
C598 C62 1.545 . S
C615 C16 1.361 . S
C634 C122 1.406 1_455 S
C670 C182 1.544 . S
C651 C35 1.519 . S
C687 C37 1.371 . S
C706 C242 1.367 . S
