# Generated by pormake.
# Topology pts, (4,4)-cn, num edge types: 1
# Building blocks:
#     Node 0, Type 0, BuildingBlock: MUDLON_clean_linker_0, # of connection points: 4
#     Node 1, Type 0, BuildingBlock: MUDLON_clean_linker_0, # of connection points: 4
#     Node 2, Type 1, BuildingBlock: QUQFOY_clean_sbu_1, # of connection points: 4
#     Node 3, Type 1, BuildingBlock: QUQFOY_clean_sbu_1, # of connection points: 4
#     Edge 4, Type (0, 1), BuildingBlock: MIFKUJ_clean_linker_0, # of connection points: 2
#     Edge 5, Type (0, 1), BuildingBlock: MIFKUJ_clean_linker_0, # of connection points: 2
#     Edge 6, Type (0, 1), BuildingBlock: MIFKUJ_clean_linker_0, # of connection points: 2
#     Edge 7, Type (0, 1), BuildingBlock: MIFKUJ_clean_linker_0, # of connection points: 2
#     Edge 8, Type (0, 1), BuildingBlock: MIFKUJ_clean_linker_0, # of connection points: 2
#     Edge 9, Type (0, 1), BuildingBlock: MIFKUJ_clean_linker_0, # of connection points: 2
#     Edge 10, Type (0, 1), BuildingBlock: MIFKUJ_clean_linker_0, # of connection points: 2
#     Edge 11, Type (0, 1), BuildingBlock: MIFKUJ_clean_linker_0, # of connection points: 2
# Relax obj value: 0.108
# Max RMSD: 0.274
# Mean RMSD: 0.181
data_MOF--net-pts--node1-QUQFOY_clean_sbu_1--node2-MUDLON_clean_linker_0--edge1-MIFKUJ_clean_linker_0
_symmetry_space_group_name_H-M    P1
_symmetry_Int_Tables_number       1
_symmetry_cell_setting            triclinic
loop_
_symmetry_equiv_pos_as_xyz
'x, y, z'
_cell_length_a     39.569633
_cell_length_b     43.228757
_cell_length_c     57.428712
_cell_angle_alpha  89.987454
_cell_angle_beta   90.017859
_cell_angle_gamma 90.095517
loop_
_atom_site_label
_atom_site_type_symbol
_atom_site_fract_x
_atom_site_fract_y
_atom_site_fract_z
_atom_type_partial_charge
H0 H 0.63487 0.01753 0.02634 0.0
N1 N 0.61402 0.9594 0.01388 0.0
H2 H 0.67071 0.03096 0.05939 0.0
H3 H 0.637 0.92167 0.04674 0.0
H4 H 0.67416 0.9345 0.07935 0.0
H5 H 0.656 0.91862 0.99504 0.0
H6 H 0.69324 0.92604 0.9614 0.0
H7 H 0.61664 0.01076 0.98591 0.0
H8 H 0.65378 0.01835 0.95225 0.0
H9 H 0.57694 0.99653 0.04438 0.0
H10 H 0.56958 0.94259 0.98109 0.0
H11 H 0.51836 0.01074 0.04075 0.0
H12 H 0.51052 0.9577 0.97726 0.0
H13 H 0.33192 0.06286 0.02485 0.0
H14 H 0.29662 0.05486 0.05933 0.0
H15 H 0.3307 0.96005 0.06324 0.0
H16 H 0.365 0.96802 0.02855 0.0
H17 H 0.33204 0.97108 0.99085 0.0
H18 H 0.29748 0.96585 0.95605 0.0
H19 H 0.33533 0.05368 0.93098 0.0
H20 H 0.36836 0.05949 0.96671 0.0
H21 H 0.42209 0.05688 0.01537 0.0
H22 H 0.48174 0.04236 0.01752 0.0
H23 H 0.45603 0.94993 0.99474 0.0
N24 N 0.37022 0.02169 0.00308 0.0
H25 H 0.39674 0.96506 0.99191 0.0
C26 C 0.63306 0.96851 0.03423 0.0
C27 C 0.64309 0.99936 0.03798 0.0
C28 C 0.66379 0.00696 0.05685 0.0
C29 C 0.67553 0.98383 0.07209 0.0
C30 C 0.66516 0.95305 0.06832 0.0
C31 C 0.64406 0.94557 0.04963 0.0
C32 C 0.63354 0.96395 0.99291 0.0
C33 C 0.65522 0.9403 0.9856 0.0
C34 C 0.67654 0.94467 0.96653 0.0
C35 C 0.67645 0.97282 0.95429 0.0
C36 C 0.65416 0.99634 0.96126 0.0
C37 C 0.63304 0.99206 0.98052 0.0
C38 C 0.5789 0.9692 0.01238 0.0
C39 C 0.5634 0.98816 0.02932 0.0
C40 C 0.52942 0.9964 0.02731 0.0
C41 C 0.50978 0.98578 0.00854 0.0
C42 C 0.52484 0.96627 0.99199 0.0
C43 C 0.55879 0.95787 0.99404 0.0
C44 C 0.35122 0.01627 0.02414 0.0
C45 C 0.33186 0.04045 0.03329 0.0
C46 C 0.31189 0.03585 0.05305 0.0
C47 C 0.31089 0.0068 0.06409 0.0
C48 C 0.33062 0.98261 0.05502 0.0
C49 C 0.35054 0.98724 0.03523 0.0
C50 C 0.35225 0.01615 0.98163 0.0
C51 C 0.33292 0.98925 0.97793 0.0
C52 C 0.31339 0.98611 0.95778 0.0
C53 C 0.31322 0.00951 0.94072 0.0
C54 C 0.3341 0.03555 0.94396 0.0
C55 C 0.35322 0.03885 0.96426 0.0
C56 C 0.40507 0.01218 0.00354 0.0
C57 C 0.4295 0.03357 0.01074 0.0
C58 C 0.46347 0.02513 0.01212 0.0
C59 C 0.47369 0.99491 0.00643 0.0
C60 C 0.44912 0.97349 0.99899 0.0
C61 C 0.41513 0.98205 0.9975 0.0
H62 H 0.96622 0.64236 0.51691 0.0
N63 N 0.03178 0.62332 0.51303 0.0
H64 H 0.94426 0.67722 0.54691 0.0
H65 H 0.06165 0.63793 0.55284 0.0
H66 H 0.03996 0.67258 0.58298 0.0
H67 H 0.07638 0.66683 0.50246 0.0
H68 H 0.0729 0.70474 0.47106 0.0
H69 H 0.98645 0.62196 0.47688 0.0
H70 H 0.98347 0.65884 0.44483 0.0
H71 H 0.97562 0.58668 0.50777 0.0
H72 H 0.08389 0.58537 0.51492 0.0
H73 H 0.97502 0.53025 0.50394 0.0
H74 H 0.08365 0.52909 0.51256 0.0
H75 H 0.97807 0.36649 0.51815 0.0
H76 H 0.96898 0.3305 0.54993 0.0
H77 H 0.07133 0.34652 0.57372 0.0
H78 H 0.08086 0.3807 0.54045 0.0
H79 H 0.08368 0.35749 0.48337 0.0
H80 H 0.07343 0.32229 0.45066 0.0
H81 H 0.96953 0.35241 0.4478 0.0
H82 H 0.98039 0.38846 0.4801 0.0
H83 H 0.98558 0.42622 0.52241 0.0
H84 H 0.98231 0.48269 0.52384 0.0
H85 H 0.07692 0.48863 0.48636 0.0
N86 N 0.03871 0.3921 0.50543 0.0
H87 H 0.08086 0.43238 0.48644 0.0
C88 C 0.01572 0.63776 0.53267 0.0
C89 C 0.98212 0.6482 0.53159 0.0
C90 C 0.96968 0.66828 0.54866 0.0
C91 C 0.99048 0.67786 0.56718 0.0
C92 C 0.02319 0.66544 0.56906 0.0
C93 C 0.03566 0.64566 0.5519 0.0
C94 C 0.03195 0.64147 0.49199 0.0
C95 C 0.05647 0.66464 0.4896 0.0
C96 C 0.05443 0.68625 0.4716 0.0
C97 C 0.02778 0.68502 0.4554 0.0
C98 C 0.00401 0.66084 0.4572 0.0
C99 C 0.00592 0.63939 0.47541 0.0
C100 C 0.03 0.59017 0.5112 0.0
C101 C 0.99927 0.57422 0.50847 0.0
C102 C 0.99897 0.54187 0.50656 0.0
C103 C 0.02934 0.5249 0.50765 0.0
C104 C 0.05983 0.54119 0.51092 0.0
C105 C 0.06009 0.57338 0.5125 0.0
C106 C 0.03054 0.37574 0.52658 0.0
C107 C 0.99856 0.36235 0.53018 0.0
C108 C 0.99327 0.3419 0.54868 0.0
C109 C 0.01959 0.33494 0.56434 0.0
C110 C 0.05074 0.35039 0.56166 0.0
C111 C 0.05618 0.37032 0.54285 0.0
C112 C 0.0328 0.37523 0.48422 0.0
C113 C 0.05895 0.35698 0.47529 0.0
C114 C 0.05305 0.33696 0.45667 0.0
C115 C 0.02064 0.33455 0.44686 0.0
C116 C 0.99466 0.35372 0.45522 0.0
C117 C 0.00081 0.37425 0.4736 0.0
C118 C 0.03397 0.42513 0.50474 0.0
C119 C 0.00563 0.43971 0.51459 0.0
C120 C 0.00366 0.47211 0.5152 0.0
C121 C 0.02966 0.49045 0.50559 0.0
C122 C 0.05694 0.47548 0.49463 0.0
C123 C 0.05913 0.44329 0.49441 0.0
O124 O 0.94845 0.98609 0.24903 0.0
Cd125 Cd 0.99386 0.97414 0.26424 0.0
Cd126 Cd 0.00329 0.0374 0.26236 0.0
O127 O 0.96016 0.03517 0.24222 0.0
O128 O 0.98701 0.92999 0.27291 0.0
O129 O 0.99927 0.96635 0.29869 0.0
C130 C 0.99303 0.93762 0.29418 0.0
C131 C 0.00506 0.07671 0.29021 0.0
C132 C 0.94066 0.01197 0.24002 0.0
C133 C 0.05596 0.99745 0.23973 0.0
O134 O 0.04812 0.02416 0.24717 0.0
O135 O 0.03671 0.97444 0.24361 0.0
O136 O 0.01005 0.08229 0.26845 0.0
O137 O 0.99924 0.04846 0.29638 0.0
O138 O 0.94313 0.03373 0.77241 0.0
Cd139 Cd 0.98611 0.04039 0.75278 0.0
Cd140 Cd 0.98405 0.97502 0.75016 0.0
O141 O 0.9402 0.98289 0.76876 0.0
O142 O 0.98853 0.08586 0.7476 0.0
O143 O 0.98329 0.05222 0.71883 0.0
C144 C 0.98622 0.0806 0.72558 0.0
C145 C 0.98056 0.93607 0.72193 0.0
C146 C 0.92835 0.00819 0.77651 0.0
C147 C 0.04491 0.00487 0.7729 0.0
O148 O 0.03006 0.97996 0.76704 0.0
O149 O 0.03166 0.03093 0.7684 0.0
O150 O 0.98211 0.92978 0.74381 0.0
O151 O 0.98121 0.96483 0.71585 0.0
H152 H 0.2994 0.04582 0.10082 0.0
H153 H 0.25993 0.03858 0.13304 0.0
H154 H 0.2331 0.94856 0.10633 0.0
H155 H 0.27154 0.95615 0.07352 0.0
H156 H 0.17831 0.98018 0.11689 0.0
H157 H 0.28137 0.95652 0.15589 0.0
H158 H 0.34031 0.96436 0.16854 0.0
H159 H 0.31168 0.04741 0.20441 0.0
H160 H 0.25262 0.04033 0.1917 0.0
H161 H 0.07573 0.94638 0.21497 0.0
H162 H 0.12321 0.94245 0.18784 0.0
H163 H 0.1527 0.03602 0.20425 0.0
H164 H 0.1055 0.04017 0.23143 0.0
H165 H 0.20768 0.99689 0.19996 0.0
H166 H 0.10619 0.02275 0.15723 0.0
H167 H 0.04729 0.01487 0.14445 0.0
H168 H 0.07386 0.9266 0.11553 0.0
H169 H 0.13286 0.93379 0.12844 0.0
C170 C 0.28506 0.0245 0.10177 0.0
C171 C 0.28859 1.0016 0.08455 0.0
C172 C 0.26279 0.02023 0.12037 0.0
C173 C 0.24383 0.99286 0.12227 0.0
C174 C 0.2476 0.96979 0.10528 0.0
C175 C 0.26979 0.97408 0.08663 0.0
C176 C 0.21864 0.98915 0.14122 0.0
C177 C 0.18491 0.98319 0.13509 0.0
C178 C 0.22709 0.99367 0.16495 0.0
C179 C 0.26259 0.99801 0.17268 0.0
C180 C 0.28767 0.97659 0.16633 0.0
C181 C 0.3211 0.98087 0.17354 0.0
C182 C 0.32974 0.0064 0.18723 0.0
C183 C 0.30495 0.02766 0.19379 0.0
C184 C 0.27148 0.0235 0.18661 0.0
C185 C 0.09256 0.96599 0.21305 0.0
C186 C 0.08661 0.99371 0.22521 0.0
C187 C 0.11963 0.96371 0.1975 0.0
C188 C 0.1412 0.98907 0.19386 0.0
C189 C 0.13631 0.0162 0.20679 0.0
C190 C 0.1092 0.01856 0.22225 0.0
C191 C 0.16752 0.9882 0.17553 0.0
C192 C 0.20133 0.99341 0.18177 0.0
C193 C 0.15923 0.98292 0.15189 0.0
C194 C 0.12382 0.97864 0.14404 0.0
C195 C 0.0994 1.00155 0.14832 0.0
C196 C 0.06602 0.99723 0.14102 0.0
C197 C 0.05681 0.97021 0.12925 0.0
C198 C 0.08101 0.94749 0.12469 0.0
C199 C 0.11442 0.95168 0.13199 0.0
H200 H 0.03096 0.96692 0.1236 0.0
H201 H 0.35564 0.00967 0.1928 0.0
H202 H 0.96203 0.31891 0.58877 0.0
H203 H 0.95441 0.27549 0.61528 0.0
H204 H 0.06005 0.25257 0.60854 0.0
H205 H 0.06722 0.29402 0.58042 0.0
H206 H 0.02749 0.20267 0.60735 0.0
H207 H 0.02388 0.29033 0.65835 0.0
H208 H 0.00405 0.34084 0.67285 0.0
H209 H 0.90413 0.30385 0.68185 0.0
H210 H 0.92328 0.2532 0.66712 0.0
H211 H 0.00791 0.13925 0.7339 0.0
H212 H 0.01226 0.18201 0.70645 0.0
H213 H 0.97097 0.12414 0.65215 0.0
H214 H 0.96799 0.08066 0.67947 0.0
H215 H 0.97036 0.21424 0.68368 0.0
H216 H 0.00088 0.146 0.59952 0.0
H217 H 0.02867 0.09742 0.58766 0.0
H218 H 0.08906 0.09907 0.64979 0.0
H219 H 0.06194 0.14783 0.66186 0.0
C220 C 0.98363 0.3045 0.59267 0.0
C221 C 0.0153 0.31025 0.58231 0.0
C222 C 0.97931 0.27984 0.60817 0.0
C223 C 0.00673 0.26086 0.61422 0.0
C224 C 0.03844 0.26681 0.6042 0.0
C225 C 0.04262 0.291 0.58835 0.0
C226 C 0.00247 0.23441 0.63059 0.0
C227 C 0.01499 0.20528 0.62404 0.0
C228 C 0.98653 0.23767 0.65254 0.0
C229 C 0.97494 0.26808 0.66141 0.0
C230 C 0.99763 0.29304 0.66326 0.0
C231 C 0.98652 0.32168 0.67155 0.0
C232 C 0.95283 0.32557 0.6782 0.0
C233 C 0.9302 0.30081 0.67665 0.0
C234 C 0.94117 0.27213 0.66835 0.0
C235 C -0.00023 0.13557 0.71611 0.0
C236 C 0.98776 0.10653 0.70881 0.0
C237 C 0.00216 0.16012 0.70042 0.0
C238 C 0.99226 0.15635 0.67712 0.0
C239 C 0.97945 0.12751 0.6699 0.0
C240 C 0.97761 0.1027 0.68554 0.0
C241 C 0.99573 0.18264 0.66054 0.0
C242 C 0.98282 0.21167 0.66697 0.0
C243 C 0.01247 0.17957 0.63887 0.0
C244 C 0.02908 0.15035 0.6317 0.0
C245 C 0.02015 0.13602 0.61061 0.0
C246 C 0.03577 0.10845 0.60386 0.0
C247 C 0.06052 0.09511 0.61801 0.0
C248 C 0.06978 0.10936 0.6389 0.0
C249 C 0.05427 0.13694 0.64571 0.0
H250 H 0.07256 0.07376 0.61276 0.0
H251 H 0.94428 0.34776 0.68462 0.0
H252 H 0.7271 0.02637 0.07153 0.0
H253 H 0.76842 0.03687 0.10195 0.0
H254 H 0.72181 0.96782 0.14573 0.0
H255 H 0.67887 0.95865 0.11599 0.0
H256 H 0.74091 0.01447 0.17147 0.0
H257 H 0.79377 0.95262 0.11259 0.0
H258 H 0.81193 0.93881 0.07287 0.0
H259 H 0.8711 0.022 0.06888 0.0
H260 H 0.85291 0.03652 0.10849 0.0
H261 H 0.88613 0.9731 0.2396 0.0
H262 H 0.83774 0.97446 0.21305 0.0
H263 H 0.87755 0.05689 0.18079 0.0
H264 H 0.92578 0.05605 0.20751 0.0
H265 H 0.86194 0.00692 0.14963 0.0
H266 H 0.81101 0.06542 0.21129 0.0
H267 H 0.79363 0.07568 0.25177 0.0
H268 H 0.73184 0.99393 0.25136 0.0
H269 H 0.74925 0.98292 0.21096 0.0
C270 C 0.72506 0.01386 0.0878 0.0
C271 C 0.69967 0.99145 0.09116 0.0
C272 C 0.74906 0.01963 0.1051 0.0
C273 C 0.74871 0.00266 0.12595 0.0
C274 C 0.72276 0.98106 0.12972 0.0
C275 C 0.69844 0.97557 0.11255 0.0
C276 C 0.77607 0.00658 0.14343 0.0
C277 C 0.76735 0.01253 0.16671 0.0
C278 C 0.81065 0.00452 0.13721 0.0
C279 C 0.82168 0.99582 0.1134 0.0
C280 C 0.81045 0.96809 0.10317 0.0
C281 C 0.82078 0.96011 0.08069 0.0
C282 C 0.84257 0.97956 0.06833 0.0
C283 C 0.85416 0.00699 0.07846 0.0
C284 C 0.84387 0.0151 0.10093 0.0
C285 C 0.88436 0.99176 0.22706 0.0
C286 C 0.90981 0.01442 0.2256 0.0
C287 C 0.85667 0.99255 0.21198 0.0
C288 C 0.85414 0.0158 0.19503 0.0
C289 C 0.87909 0.03881 0.19382 0.0
C290 C 0.90653 0.03833 0.20914 0.0
C291 C 0.82671 0.01472 0.17754 0.0
C292 C 0.83547 0.00915 0.15428 0.0
C293 C 0.79227 0.0166 0.18387 0.0
C294 C 0.7817 0.02319 0.20816 0.0
C295 C 0.79396 0.04946 0.21989 0.0
C296 C 0.78405 0.05545 0.24281 0.0
C297 C 0.76171 0.03543 0.25415 0.0
C298 C 0.74918 0.0094 0.24256 0.0
C299 C 0.75903 0.0033 0.21964 0.0
H300 H 0.75406 0.04011 0.27189 0.0
H301 H 0.85055 0.97334 0.05093 0.0
H302 H 0.95999 0.73225 0.55545 0.0
H303 H 0.95031 0.77714 0.5805 0.0
H304 H 0.9886 0.72625 0.63945 0.0
H305 H 0.99793 0.68107 0.61454 0.0
H306 H 0.93241 0.76336 0.65024 0.0
H307 H 0.04041 0.77234 0.61038 0.0
H308 H 0.0763 0.77375 0.57528 0.0
H309 H 0.02069 0.85183 0.54953 0.0
H310 H 0.98419 0.85061 0.58437 0.0
H311 H 0.98871 0.87446 0.72963 0.0
H312 H 0.98336 0.8323 0.70181 0.0
H313 H 0.96002 0.8977 0.64737 0.0
H314 H 0.96638 0.9404 0.67521 0.0
H315 H 0.00185 0.85579 0.63148 0.0
H316 H 0.8978 0.85153 0.67247 0.0
H317 H 0.85992 0.85042 0.70653 0.0
H318 H 0.9041 0.76475 0.72888 0.0
H319 H 0.94261 0.76556 0.69513 0.0
C320 C 0.96552 0.73033 0.57386 0.0
C321 C 0.97986 0.70317 0.58303 0.0
C322 C 0.96024 0.75609 0.5881 0.0
C323 C 0.96917 0.75512 0.61174 0.0
C324 C 0.98165 0.72748 0.62122 0.0
C325 C 0.98712 0.70177 0.60697 0.0
C326 C 0.96791 0.78345 0.62624 0.0
C327 C 0.94771 0.78353 0.64628 0.0
C328 C 0.98705 0.81011 0.62057 0.0
C329 C 0.00937 0.81119 0.59985 0.0
C330 C 0.03572 0.78969 0.59716 0.0
C331 C 0.05618 0.79047 0.57733 0.0
C332 C 0.05072 0.81282 0.56016 0.0
C333 C 0.02487 0.83451 0.56283 0.0
C334 C 0.0043 0.8338 0.58262 0.0
C335 C 0.9824 0.87997 0.71175 0.0
C336 C 0.9778 0.91079 0.70465 0.0
C337 C 0.97911 0.85576 0.69587 0.0
C338 C 0.97052 0.8617 0.67258 0.0
C339 C 0.96642 0.89252 0.66529 0.0
C340 C 0.97006 0.91689 0.6812 0.0
C341 C 0.96679 0.83562 0.65589 0.0
C342 C 0.98611 0.83589 0.63539 0.0
C343 C 0.94649 0.80942 0.66102 0.0
C344 C 0.92328 0.80874 0.68133 0.0
C345 C 0.89961 0.83256 0.68473 0.0
C346 C 0.878 0.83197 0.70397 0.0
C347 C 0.87964 0.80756 0.71988 0.0
C348 C 0.90286 0.78365 0.71655 0.0
C349 C 0.92456 0.78415 0.69734 0.0
H350 H 0.86289 0.80715 0.73477 0.0
H351 H 0.06657 0.81337 0.5448 0.0
H352 H 0.27849 0.05689 0.92002 0.0
H353 H 0.23723 0.05377 0.88875 0.0
H354 H 0.25118 0.95496 0.88503 0.0
H355 H 0.29435 0.95808 0.91545 0.0
H356 H 0.24279 0.978 0.84247 0.0
H357 H 0.18434 0.98624 0.91488 0.0
H358 H 0.17056 0.00828 0.95331 0.0
H359 H 0.14215 0.09398 0.92102 0.0
H360 H 0.15622 0.07259 0.8824 0.0
H361 H 0.08076 0.95366 0.78676 0.0
H362 H 0.1301 0.95235 0.81252 0.0
H363 H 0.13014 0.05201 0.81569 0.0
H364 H 0.08104 0.05363 0.7901 0.0
H365 H 0.13093 0.02489 0.85885 0.0
H366 H 0.19036 0.01474 0.7858 0.0
H367 H 0.20316 0.99057 0.74794 0.0
H368 H 0.22757 0.90526 0.78231 0.0
H369 H 0.21446 0.92881 0.82038 0.0
C370 C 0.27354 0.03452 0.91225 0.0
C371 C 0.28975 0.00769 0.92045 0.0
C372 C 0.24951 0.03274 0.89452 0.0
C373 C 0.24051 0.00403 0.88491 0.0
C374 C 0.25751 0.97733 0.89234 0.0
C375 C 0.28192 0.97913 0.90993 0.0
C376 C 0.21242 0.00196 0.86783 0.0
C377 C 0.21819 0.98788 0.84615 0.0
C378 C 0.18034 0.015 0.87257 0.0
C379 C 0.17161 0.02789 0.89576 0.0
C380 C 0.17537 0.00985 0.91599 0.0
C381 C 0.16747 0.02222 0.9378 0.0
C382 C 0.15555 0.05253 0.93961 0.0
C383 C 0.15141 0.07051 0.91959 0.0
C384 C 0.15931 0.05827 0.89773 0.0
C385 C 0.09154 0.97532 0.79269 0.0
C386 C 0.07678 0.00375 0.78646 0.0
C387 C 0.11979 0.97451 0.80736 0.0
C388 C 0.13374 0.00209 0.816 0.0
C389 C 0.11969 0.03047 0.80926 0.0
C390 C 0.09162 0.03132 0.79457 0.0
C391 C 0.16152 1.00158 0.83332 0.0
C392 C 0.15554 0.015 0.85516 0.0
C393 C 0.19313 0.98758 0.82879 0.0
C394 C 0.20107 0.97344 0.80592 0.0
C395 C 0.19816 0.99074 0.78527 0.0
C396 C 0.20554 0.97717 0.76377 0.0
C397 C 0.21608 0.94637 0.76271 0.0
C398 C 0.21935 0.9291 0.78315 0.0
C399 C 0.21198 0.94255 0.8047 0.0
H400 H 0.22178 0.93591 0.74605 0.0
H401 H 0.14946 0.06207 0.95652 0.0
H402 H 0.97086 0.29099 0.44747 0.0
H403 H 0.96374 0.2472 0.42069 0.0
H404 H 0.04806 0.27981 0.37989 0.0
H405 H 0.05558 0.32337 0.4068 0.0
H406 H 0.98844 0.25901 0.35355 0.0
H407 H 0.06415 0.22673 0.41576 0.0
H408 H 0.07902 0.21858 0.45701 0.0
H409 H 0.99366 0.15809 0.46523 0.0
H410 H 0.97798 0.16629 0.42408 0.0
H411 H 0.03603 0.13246 0.2856 0.0
H412 H 0.03479 0.17601 0.31251 0.0
H413 H 0.97237 0.1232 0.3597 0.0
H414 H 0.97504 0.07879 0.33317 0.0
H415 H 0.01489 0.15426 0.38384 0.0
H416 H 0.93974 0.18198 0.32278 0.0
H417 H 0.92066 0.19026 0.28239 0.0
H418 H 0.99777 0.25905 0.27268 0.0
H419 H 0.01763 0.25089 0.31293 0.0
C420 C 0.98745 0.28907 0.43254 0.0
C421 C 0.01376 0.31048 0.42914 0.0
C422 C 0.98349 0.26403 0.41738 0.0
C423 C 0.00551 0.26027 0.39845 0.0
C424 C 0.03084 0.28238 0.39443 0.0
C425 C 0.03516 0.30713 0.40979 0.0
C426 C 0.00336 0.23247 0.38348 0.0
C427 C 0.99446 0.2361 0.36004 0.0
C428 C 0.01005 0.20255 0.39228 0.0
C429 C 0.01968 0.1974 0.41693 0.0
C430 C 0.04838 0.21191 0.42642 0.0
C431 C 0.05699 0.20724 0.44977 0.0
C432 C 0.03724 0.1879 0.46375 0.0
C433 C 0.0089 0.17311 0.45439 0.0
C434 C 0.00015 0.17775 0.43106 0.0
C435 C 0.02214 0.13007 0.30175 0.0
C436 C 0.00543 0.10232 0.30723 0.0
C437 C 0.02121 0.1551 0.31707 0.0
C438 C 0.00268 0.1533 0.33788 0.0
C439 C 0.98664 0.12528 0.34368 0.0
C440 C 0.98817 0.09992 0.32853 0.0
C441 C 0.00043 0.18064 0.35356 0.0
C442 C 0.00849 0.17701 0.37723 0.0
C443 C 0.99228 0.21053 0.34504 0.0
C444 C 0.98033 0.21564 0.32083 0.0
C445 C 0.95277 0.19873 0.31199 0.0
C446 C 0.9418 0.20342 0.28912 0.0
C447 C 0.95803 0.22512 0.27496 0.0
C448 C 0.98523 0.24223 0.28366 0.0
C449 C 0.99633 0.23761 0.30651 0.0
H450 H 0.9495 0.22871 0.25726 0.0
H451 H 0.04394 0.18431 0.48182 0.0
H452 H 0.74373 0.95995 0.95364 0.0
H453 H 0.78367 0.96813 0.92183 0.0
H454 H 0.70336 0.00477 0.87912 0.0
H455 H 0.66337 0.99721 0.91122 0.0
H456 H 0.78831 0.94452 0.88095 0.0
H457 H 0.7355 0.05779 0.84094 0.0
H458 H 0.70497 0.10467 0.85343 0.0
H459 H 0.74348 0.09368 0.92285 0.0
H460 H 0.77458 0.04702 0.9107 0.0
H461 H 0.87699 0.96602 0.77638 0.0
H462 H 0.82997 0.96238 0.80388 0.0
H463 H 0.86626 0.04403 0.83931 0.0
H464 H 0.91206 0.04875 0.81101 0.0
H465 H 0.80216 0.0452 0.84056 0.0
H466 H 0.8845 0.96682 0.85796 0.0
H467 H 0.92118 0.9221 0.84954 0.0
H468 H 0.83403 0.86701 0.83298 0.0
H469 H 0.79686 0.91153 0.84104 0.0
C470 C 0.73458 0.96966 0.93744 0.0
C471 C 0.70046 0.9779 0.93486 0.0
C472 C 0.75742 0.97435 0.91927 0.0
C473 C 0.74662 0.98724 0.8981 0.0
C474 C 0.71244 0.99529 0.89542 0.0
C475 C 0.68961 0.99092 0.91373 0.0
C476 C 0.77122 0.99174 0.87886 0.0
C477 C 0.79125 0.96654 0.87209 0.0
C478 C 0.77548 0.02056 0.8675 0.0
C479 C 0.75702 0.0487 0.87495 0.0
C480 C 0.7375 0.06543 0.85885 0.0
C481 C 0.7201 0.09196 0.86587 0.0
C482 C 0.72218 0.10208 0.88894 0.0
C483 C 0.74177 0.08575 0.90501 0.0
C484 C 0.75925 0.05923 0.89807 0.0
C485 C 0.87462 0.98339 0.78988 0.0
C486 C 0.89829 0.00751 0.79171 0.0
C487 C 0.84786 0.98121 0.80566 0.0
C488 C 0.84501 0.00246 0.82408 0.0
C489 C 0.8679 0.02729 0.82532 0.0
C490 C 0.89413 0.02994 0.80917 0.0
C491 C 0.81939 0.99801 0.84274 0.0
C492 C 0.79906 0.02314 0.84932 0.0
C493 C 0.81568 0.96943 0.85457 0.0
C494 C 0.83796 0.94257 0.84988 0.0
C495 C 0.8732 0.94521 0.8524 0.0
C496 C 0.89406 0.9199 0.8477 0.0
C497 C 0.87995 0.89176 0.84067 0.0
C498 C 0.84493 0.88884 0.83839 0.0
C499 C 0.82395 0.91409 0.84304 0.0
H500 H 0.89615 0.8722 0.83704 0.0
H501 H 0.70868 0.12261 0.89434 0.0
H502 H 0.07739 0.71537 0.43078 0.0
H503 H 0.07058 0.75919 0.40418 0.0
H504 H 0.96253 0.75442 0.4126 0.0
H505 H 0.96894 0.71164 0.44006 0.0
H506 H 0.01788 0.7591 0.36038 0.0
H507 H 0.95764 0.80707 0.43125 0.0
H508 H 0.95955 0.81636 0.47367 0.0
H509 H 0.06094 0.85106 0.46754 0.0
H510 H 0.05965 0.84154 0.42512 0.0
H511 H 0.9571 0.88414 0.29539 0.0
H512 H 0.96152 0.8422 0.32368 0.0
H513 H 0.03686 0.89406 0.36165 0.0
H514 H 0.03083 0.93698 0.33404 0.0
H515 H 0.00107 0.8652 0.39134 0.0
H516 H 0.05669 0.83317 0.32151 0.0
H517 H 0.06284 0.82288 0.27948 0.0
H518 H 0.98216 0.75647 0.28266 0.0
H519 H 0.97524 0.76664 0.32466 0.0
C520 C 0.05215 0.72375 0.42717 0.0
C521 C 0.02373 0.70996 0.43771 0.0
C522 C 0.04835 0.74866 0.41186 0.0
C523 C 0.01611 0.76013 0.40674 0.0
C524 C 0.98764 0.746 0.4166 0.0
C525 C 0.99139 0.72129 0.43207 0.0
C526 C 0.01219 0.78699 0.39109 0.0
C527 C 0.01376 0.78229 0.36701 0.0
C528 C 0.00815 0.81721 0.39989 0.0
C529 C 0.00864 0.82338 0.42519 0.0
C530 C 0.98036 0.81651 0.43902 0.0
C531 C 0.98133 0.82183 0.46303 0.0
C532 C 0.01038 0.83423 0.47331 0.0
C533 C 0.03848 0.8414 0.45958 0.0
C534 C 0.03765 0.83605 0.43557 0.0
C535 C 0.97434 0.8867 0.30993 0.0
C536 C 0.99382 0.91365 0.31247 0.0
C537 C 0.97707 0.8626 0.326 0.0
C538 C 0.00031 0.86445 0.34446 0.0
C539 C 0.01891 0.89192 0.3475 0.0
C540 C 0.01548 0.91644 0.33173 0.0
C541 C 0.00565 0.8375 0.36019 0.0
C542 C 0.0048 0.84211 0.38441 0.0
C543 C 0.01102 0.80718 0.35142 0.0
C544 C 0.01527 0.80086 0.32619 0.0
C545 C 0.04013 0.8165 0.31321 0.0
C546 C 0.04377 0.81068 0.2894 0.0
C547 C 0.02285 0.78909 0.2784 0.0
C548 C 0.99832 0.77321 0.2912 0.0
C549 C 0.99456 0.77896 0.31502 0.0
H550 H 0.0257 0.78462 0.25996 0.0
H551 H 0.0111 0.83832 0.4919 0.0
loop_
_geom_bond_atom_site_label_1
_geom_bond_atom_site_label_2
_geom_bond_distance
_geom_bond_site_symmetry_2
_ccdc_geom_bond_type
H0 C27 0.929 . S
N1 C26 1.433 . S
N1 C32 1.435 1_554 S
N1 C38 1.423 . S
H2 C28 0.930 . S
H3 C31 0.931 . S
H4 C30 0.929 . S
H5 C33 0.901 1_554 S
H6 C34 0.932 . S
H7 C37 0.929 . S
H8 C36 0.931 . S
H9 C39 0.929 . S
H10 C43 0.932 1_565 S
H11 C40 0.931 . S
H12 C42 0.929 1_565 S
H13 C45 0.929 . S
H14 C46 0.930 . S
H15 C48 0.929 . S
H16 C49 0.931 . S
H17 C51 0.901 1_554 S
H18 C52 0.932 . S
H19 C54 0.931 . S
H20 C55 0.929 . S
H21 C57 0.929 . S
H22 C58 0.931 . S
H23 C60 0.929 1_565 S
N24 C44 1.433 . S
N24 C50 1.435 1_554 S
N24 C56 1.423 . S
H25 C61 0.932 1_565 S
C26 N1 1.433 . S
C26 C27 1.363 . S
C26 C31 1.370 1_545 S
C27 H0 0.929 . S
C27 C26 1.363 . S
C27 C28 1.385 . S
C28 H2 0.930 . S
C28 C27 1.385 . S
C28 C29 1.357 . S
C29 C28 1.357 . S
C29 C30 1.406 1_545 S
C30 H4 0.929 . S
C30 C29 1.406 1_565 S
C30 C31 1.391 . S
C31 H3 0.931 . S
C31 C26 1.370 1_565 S
C31 C30 1.391 . S
C32 N1 1.435 1_556 S
C32 C33 1.358 1_545 S
C32 C37 1.371 . S
C33 H5 0.901 1_556 S
C33 C32 1.358 1_565 S
C33 C34 1.405 . S
C34 H6 0.932 . S
C34 C33 1.405 . S
C34 C35 1.383 1_565 S
C35 C34 1.383 1_545 S
C35 C36 1.393 . S
C36 H8 0.931 . S
C36 C35 1.393 . S
C36 C37 1.382 . S
C37 H7 0.929 . S
C37 C32 1.371 . S
C37 C36 1.382 . S
C38 N1 1.423 . S
C38 C39 1.362 . S
C38 C43 1.388 1_554 S
C39 H9 0.929 . S
C39 C38 1.362 . S
C39 C40 1.376 . S
C40 H11 0.931 . S
C40 C39 1.376 . S
C40 C41 1.409 . S
C41 C40 1.409 . S
C41 C42 1.335 1_554 S
C41 C59 1.472 . S
C42 H12 0.929 1_545 S
C42 C41 1.335 1_556 S
C42 C43 1.443 . S
C43 H10 0.932 1_545 S
C43 C38 1.388 1_556 S
C43 C42 1.443 . S
C44 N24 1.433 . S
C44 C45 1.363 . S
C44 C49 1.370 1_545 S
C45 H13 0.929 . S
C45 C44 1.363 . S
C45 C46 1.385 . S
C46 H14 0.930 . S
C46 C45 1.385 . S
C46 C47 1.357 . S
C47 C46 1.357 . S
C47 C48 1.406 1_545 S
C48 H15 0.929 . S
C48 C47 1.406 1_565 S
C48 C49 1.391 . S
C49 H16 0.931 . S
C49 C44 1.370 1_565 S
C49 C48 1.391 . S
C50 N24 1.435 1_556 S
C50 C51 1.358 1_545 S
C50 C55 1.371 . S
C51 H17 0.901 1_556 S
C51 C50 1.358 1_565 S
C51 C52 1.405 . S
C52 H18 0.932 . S
C52 C51 1.405 . S
C52 C53 1.383 1_565 S
C53 C52 1.383 1_545 S
C53 C54 1.393 . S
C54 H19 0.931 . S
C54 C53 1.393 . S
C54 C55 1.382 . S
C55 H20 0.929 . S
C55 C50 1.371 . S
C55 C54 1.382 . S
C56 N24 1.423 . S
C56 C57 1.362 . S
C56 C61 1.388 1_554 S
C57 H21 0.929 . S
C57 C56 1.362 . S
C57 C58 1.376 . S
C58 H22 0.931 . S
C58 C57 1.376 . S
C58 C59 1.409 . S
C59 C41 1.472 . S
C59 C58 1.409 . S
C59 C60 1.335 1_554 S
C60 H23 0.929 1_545 S
C60 C59 1.335 1_556 S
C60 C61 1.443 . S
C61 H25 0.932 1_545 S
C61 C56 1.388 1_556 S
C61 C60 1.443 . S
H62 C89 0.929 . S
N63 C88 1.433 . S
N63 C94 1.435 . S
N63 C100 1.423 . S
H64 C90 0.930 . S
H65 C93 0.931 . S
H66 C92 0.929 . S
H67 C95 0.930 . S
H68 C96 0.932 . S
H69 C99 0.929 . S
H70 C98 0.931 . S
H71 C101 0.929 . S
H72 C105 0.932 1_455 S
H73 C102 0.931 . S
H74 C104 0.929 1_455 S
H75 C107 0.929 . S
H76 C108 0.930 . S
H77 C110 0.929 . S
H78 C111 0.931 . S
H79 C113 0.930 . S
H80 C114 0.932 . S
H81 C116 0.931 . S
H82 C117 0.929 . S
H83 C119 0.929 . S
H84 C120 0.931 . S
H85 C122 0.929 1_455 S
N86 C106 1.433 . S
N86 C112 1.435 . S
N86 C118 1.423 . S
H87 C123 0.932 1_455 S
C88 N63 1.433 . S
C88 C89 1.363 . S
C88 C93 1.370 1_655 S
C89 H62 0.929 . S
C89 C88 1.363 . S
C89 C90 1.385 . S
C90 H64 0.930 . S
C90 C89 1.385 . S
C90 C91 1.357 . S
C91 C90 1.357 . S
C91 C92 1.406 1_655 S
C92 H66 0.929 . S
C92 C91 1.406 1_455 S
C92 C93 1.391 . S
C93 H65 0.931 . S
C93 C88 1.370 1_455 S
C93 C92 1.391 . S
C94 N63 1.435 . S
C94 C95 1.358 1_655 S
C94 C99 1.371 . S
C95 H67 0.930 . S
C95 C94 1.358 1_455 S
C95 C96 1.405 . S
C96 H68 0.932 . S
C96 C95 1.405 . S
C96 C97 1.383 1_455 S
C97 C96 1.383 1_655 S
C97 C98 1.393 . S
C98 H70 0.931 . S
C98 C97 1.393 . S
C98 C99 1.382 . S
C99 H69 0.929 . S
C99 C94 1.371 . S
C99 C98 1.382 . S
C100 N63 1.423 . S
C100 C101 1.362 . S
C100 C105 1.388 . S
C101 H71 0.929 . S
C101 C100 1.362 . S
C101 C102 1.376 . S
C102 H73 0.931 . S
C102 C101 1.376 . S
C102 C103 1.396 . S
C103 C102 1.396 . S
C103 C104 1.348 . S
C103 C121 1.472 . S
C104 H74 0.929 1_655 S
C104 C103 1.348 . S
C104 C105 1.443 . S
C105 H72 0.932 1_655 S
C105 C100 1.388 . S
C105 C104 1.443 . S
C106 N86 1.433 . S
C106 C107 1.363 . S
C106 C111 1.370 1_655 S
C107 H75 0.929 . S
C107 C106 1.363 . S
C107 C108 1.385 . S
C108 H76 0.930 . S
C108 C107 1.385 . S
C108 C109 1.357 . S
C109 C108 1.357 . S
C109 C110 1.406 1_655 S
C110 H77 0.929 . S
C110 C109 1.406 1_455 S
C110 C111 1.391 . S
C111 H78 0.931 . S
C111 C106 1.370 1_455 S
C111 C110 1.391 . S
C112 N86 1.435 . S
C112 C113 1.358 1_655 S
C112 C117 1.371 . S
C113 H79 0.930 . S
C113 C112 1.358 1_455 S
C113 C114 1.405 . S
C114 H80 0.932 . S
C114 C113 1.405 . S
C114 C115 1.383 1_455 S
C115 C114 1.383 1_655 S
C115 C116 1.393 . S
C116 H81 0.931 . S
C116 C115 1.393 . S
C116 C117 1.382 . S
C117 H82 0.929 . S
C117 C112 1.371 . S
C117 C116 1.382 . S
C118 N86 1.423 . S
C118 C119 1.362 . S
C118 C123 1.388 . S
C119 H83 0.929 . S
C119 C118 1.362 . S
C119 C120 1.376 . S
C120 H84 0.931 . S
C120 C119 1.376 . S
C120 C121 1.396 . S
C121 C103 1.472 . S
C121 C120 1.396 . S
C121 C122 1.348 . S
C122 H85 0.929 1_655 S
C122 C121 1.348 . S
C122 C123 1.443 . S
C123 H87 0.932 1_655 S
C123 C118 1.388 . S
C123 C122 1.443 . S
O124 Cd125 2.223 1_655 S
O124 C132 1.315 . S
Cd125 O124 2.223 1_455 S
Cd125 O128 2.297 1_455 S
Cd125 O129 2.439 1_455 S
Cd125 O135 2.240 1_565 S
Cd126 O127 2.240 1_545 S
Cd126 O134 2.223 1_655 S
Cd126 O136 2.297 1_655 S
Cd126 O137 2.439 1_655 S
O127 Cd126 2.240 1_565 S
O127 C132 1.279 . S
O128 Cd125 2.297 1_655 S
O128 C130 1.247 . S
O129 Cd125 2.439 1_655 S
O129 C130 1.208 . S
C130 O128 1.247 . S
C130 O129 1.208 . S
C131 O136 1.247 . S
C131 O137 1.208 . S
C132 O124 1.315 . S
C132 O127 1.279 . S
C133 O134 1.315 . S
C133 O135 1.279 . S
O134 Cd126 2.223 1_455 S
O134 C133 1.315 . S
O135 Cd125 2.240 1_545 S
O135 C133 1.279 . S
O136 Cd126 2.297 1_455 S
O136 C131 1.247 . S
O137 Cd126 2.439 1_455 S
O137 C131 1.208 . S
O138 Cd139 2.223 1_655 S
O138 C146 1.315 . S
Cd139 O138 2.223 1_455 S
Cd139 O142 2.297 1_455 S
Cd139 O143 2.439 1_455 S
Cd139 O149 2.240 1_545 S
Cd140 O141 2.240 1_565 S
Cd140 O148 2.223 1_655 S
Cd140 O150 2.297 1_655 S
Cd140 O151 2.439 1_655 S
O141 Cd140 2.240 1_545 S
O141 C146 1.279 . S
O142 Cd139 2.297 1_655 S
O142 C144 1.247 . S
O143 Cd139 2.439 1_655 S
O143 C144 1.208 . S
C144 O142 1.247 . S
C144 O143 1.208 . S
C145 O150 1.247 . S
C145 O151 1.208 . S
C146 O138 1.315 . S
C146 O141 1.279 . S
C147 O148 1.315 . S
C147 O149 1.279 . S
O148 Cd140 2.223 1_455 S
O148 C147 1.315 . S
O149 Cd139 2.240 1_565 S
O149 C147 1.279 . S
O150 Cd140 2.297 1_455 S
O150 C145 1.247 . S
O151 Cd140 2.439 1_455 S
O151 C145 1.208 . S
H152 C170 0.951 . S
H153 C172 0.951 . S
H154 C174 0.950 . S
H155 C175 0.950 . S
H156 C177 0.950 . S
H157 C180 0.950 . S
H158 C181 0.950 . S
H159 C183 0.950 . S
H160 C184 0.950 1_545 S
H161 C185 0.951 1_565 S
H162 C187 0.951 1_565 S
H163 C189 0.950 . S
H164 C190 0.950 . S
H165 C192 0.949 . S
H166 C195 0.950 . S
H167 C196 0.950 . S
H168 C198 0.950 . S
H169 C199 0.950 . S
C170 H152 0.951 . S
C170 C171 1.366 . S
C170 C172 1.388 . S
C171 C170 1.366 . S
C171 C175 1.385 1_545 S
C172 H153 0.951 . S
C172 C170 1.388 . S
C172 C173 1.366 . S
C173 C172 1.366 . S
C173 C174 1.414 1_545 S
C173 C176 1.499 . S
C174 H154 0.950 . S
C174 C173 1.414 1_565 S
C174 C175 1.374 . S
C175 H155 0.950 . S
C175 C171 1.385 1_565 S
C175 C174 1.374 . S
C176 C173 1.499 . S
C176 C177 1.373 . S
C176 C178 1.389 1_545 S
C177 H156 0.950 . S
C177 C176 1.373 . S
C177 C193 1.377 . S
C178 C176 1.389 1_565 S
C178 C179 1.524 . S
C178 C192 1.376 . S
C179 C178 1.524 . S
C179 C180 1.397 . S
C179 C184 1.363 . S
C180 H157 0.950 . S
C180 C179 1.397 . S
C180 C181 1.334 . S
C181 H158 0.950 . S
C181 C180 1.334 . S
C181 C182 1.287 . S
C182 C181 1.287 . S
C182 C183 1.524 . S
C182 H201 0.913 . S
C183 H159 0.950 . S
C183 C182 1.524 . S
C183 C184 1.415 . S
C184 H160 0.950 1_565 S
C184 C179 1.363 . S
C184 C183 1.415 . S
C185 H161 0.951 1_545 S
C185 C186 1.366 . S
C185 C187 1.388 . S
C186 C185 1.366 . S
C186 C190 1.385 . S
C187 H162 0.951 1_545 S
C187 C185 1.388 . S
C187 C188 1.366 . S
C188 C187 1.366 . S
C188 C189 1.414 . S
C188 C191 1.499 . S
C189 H163 0.950 . S
C189 C188 1.414 . S
C189 C190 1.374 . S
C190 H164 0.950 . S
C190 C186 1.385 . S
C190 C189 1.374 . S
C191 C188 1.499 . S
C191 C192 1.375 1_545 S
C191 C193 1.389 . S
C192 H165 0.949 . S
C192 C178 1.376 . S
C192 C191 1.375 1_565 S
C193 C177 1.377 . S
C193 C191 1.389 . S
C193 C194 1.524 . S
C194 C193 1.524 . S
C194 C195 1.397 . S
C194 C199 1.363 . S
C195 H166 0.950 . S
C195 C194 1.397 . S
C195 C196 1.334 . S
C196 H167 0.950 . S
C196 C195 1.334 . S
C196 C197 1.287 . S
C197 C196 1.287 . S
C197 C198 1.524 . S
C197 H200 0.999 . S
C198 H168 0.950 . S
C198 C197 1.524 . S
C198 C199 1.415 . S
C199 H169 0.950 . S
C199 C194 1.363 . S
C199 C198 1.415 . S
H200 C197 0.999 . S
H201 C182 0.913 . S
H202 C220 0.951 . S
H203 C222 0.951 . S
H204 C224 0.950 . S
H205 C225 0.950 . S
H206 C227 0.950 . S
H207 C230 0.950 . S
H208 C231 0.950 . S
H209 C233 0.950 . S
H210 C234 0.950 . S
H211 C235 0.951 . S
H212 C237 0.951 . S
H213 C239 0.950 . S
H214 C240 0.950 . S
H215 C242 0.950 . S
H216 C245 0.950 . S
H217 C246 0.950 . S
H218 C248 0.950 . S
H219 C249 0.950 . S
C220 H202 0.951 . S
C220 C221 1.366 . S
C220 C222 1.388 . S
C221 C220 1.366 . S
C221 C225 1.385 1_655 S
C222 H203 0.951 . S
C222 C220 1.388 . S
C222 C223 1.366 . S
C223 C222 1.366 . S
C223 C224 1.414 1_655 S
C223 C226 1.499 . S
C224 H204 0.950 . S
C224 C223 1.414 1_455 S
C224 C225 1.374 . S
C225 H205 0.950 . S
C225 C221 1.385 1_455 S
C225 C224 1.374 . S
C226 C223 1.499 . S
C226 C227 1.373 1_655 S
C226 C228 1.389 . S
C227 H206 0.950 . S
C227 C226 1.373 1_455 S
C227 C243 1.377 . S
C228 C226 1.389 . S
C228 C229 1.524 . S
C228 C242 1.377 . S
C229 C228 1.524 . S
C229 C230 1.397 . S
C229 C234 1.363 . S
C230 H207 0.950 . S
C230 C229 1.397 . S
C230 C231 1.334 . S
C231 H208 0.950 . S
C231 C230 1.334 . S
C231 C232 1.287 . S
C232 C231 1.287 . S
C232 C233 1.524 . S
C232 H251 0.913 . S
C233 H209 0.950 . S
C233 C232 1.524 . S
C233 C234 1.415 . S
C234 H210 0.950 . S
C234 C229 1.363 . S
C234 C233 1.415 . S
C235 H211 0.951 . S
C235 C236 1.366 1_455 S
C235 C237 1.388 . S
C236 C235 1.366 1_655 S
C236 C240 1.385 . S
C237 H212 0.951 . S
C237 C235 1.388 . S
C237 C238 1.366 1_455 S
C238 C237 1.366 1_655 S
C238 C239 1.414 . S
C238 C241 1.499 . S
C239 H213 0.950 . S
C239 C238 1.414 . S
C239 C240 1.374 . S
C240 H214 0.950 . S
C240 C236 1.385 . S
C240 C239 1.374 . S
C241 C238 1.499 . S
C241 C242 1.373 . S
C241 C243 1.389 1_655 S
C242 H215 0.950 . S
C242 C228 1.377 . S
C242 C241 1.373 . S
C243 C227 1.377 . S
C243 C241 1.389 1_455 S
C243 C244 1.524 . S
C244 C243 1.524 . S
C244 C245 1.397 . S
C244 C249 1.363 . S
C245 H216 0.950 . S
C245 C244 1.397 . S
C245 C246 1.334 . S
C246 H217 0.950 . S
C246 C245 1.334 . S
C246 C247 1.287 . S
C247 C246 1.287 . S
C247 C248 1.524 . S
C247 H250 0.999 . S
C248 H218 0.950 . S
C248 C247 1.524 . S
C248 C249 1.415 . S
C249 H219 0.950 . S
C249 C244 1.363 . S
C249 C248 1.415 . S
H250 C247 0.999 . S
H251 C232 0.913 . S
H252 C270 0.951 . S
H253 C272 0.951 . S
H254 C274 0.950 . S
H255 C275 0.950 . S
H256 C277 0.950 . S
H257 C280 0.950 . S
H258 C281 0.950 . S
H259 C283 0.950 . S
H260 C284 0.950 . S
H261 C285 0.951 . S
H262 C287 0.951 . S
H263 C289 0.955 . S
H264 C290 0.950 . S
H265 C292 0.950 . S
H266 C295 0.950 . S
H267 C296 0.950 . S
H268 C298 0.950 . S
H269 C299 0.950 . S
C270 H252 0.951 . S
C270 C271 1.366 1_545 S
C270 C272 1.388 . S
C271 C270 1.366 1_565 S
C271 C275 1.385 . S
C272 H253 0.951 . S
C272 C270 1.388 . S
C272 C273 1.366 1_545 S
C273 C272 1.366 1_565 S
C273 C274 1.414 . S
C273 C276 1.499 . S
C274 H254 0.950 . S
C274 C273 1.414 . S
C274 C275 1.374 . S
C275 H255 0.950 . S
C275 C271 1.385 . S
C275 C274 1.374 . S
C276 C273 1.499 . S
C276 C277 1.373 1_565 S
C276 C278 1.389 . S
C277 H256 0.950 . S
C277 C276 1.373 1_545 S
C277 C293 1.377 . S
C278 C276 1.389 . S
C278 C279 1.524 . S
C278 C292 1.377 . S
C279 C278 1.524 . S
C279 C280 1.397 . S
C279 C284 1.363 . S
C280 H257 0.950 . S
C280 C279 1.397 . S
C280 C281 1.334 . S
C281 H258 0.950 . S
C281 C280 1.334 . S
C281 C282 1.287 . S
C282 C281 1.287 . S
C282 C283 1.524 . S
C282 H301 0.913 . S
C283 H259 0.950 . S
C283 C282 1.524 . S
C283 C284 1.415 . S
C284 H260 0.950 . S
C284 C279 1.363 . S
C284 C283 1.415 . S
C285 H261 0.951 . S
C285 C286 1.366 . S
C285 C287 1.388 . S
C286 C285 1.366 . S
C286 C290 1.385 . S
C287 H262 0.951 . S
C287 C285 1.388 . S
C287 C288 1.366 . S
C288 C287 1.366 . S
C288 C289 1.414 . S
C288 C291 1.499 . S
C289 H263 0.955 . S
C289 C288 1.414 . S
C289 C290 1.374 . S
C290 H264 0.950 . S
C290 C286 1.385 . S
C290 C289 1.374 . S
C291 C288 1.499 . S
C291 C292 1.373 . S
C291 C293 1.389 1_565 S
C292 H265 0.950 . S
C292 C278 1.377 . S
C292 C291 1.373 . S
C293 C277 1.377 . S
C293 C291 1.389 1_545 S
C293 C294 1.524 . S
C294 C293 1.524 . S
C294 C295 1.397 . S
C294 C299 1.363 . S
C295 H266 0.950 . S
C295 C294 1.397 . S
C295 C296 1.334 . S
C296 H267 0.950 . S
C296 C295 1.334 . S
C296 C297 1.287 . S
C297 C296 1.287 . S
C297 C298 1.524 . S
C297 H300 0.999 . S
C298 H268 0.950 . S
C298 C297 1.524 . S
C298 C299 1.415 . S
C299 H269 0.950 . S
C299 C294 1.363 . S
C299 C298 1.415 . S
H300 C297 0.999 . S
H301 C282 0.913 . S
H302 C320 0.951 1_655 S
H303 C322 0.951 . S
H304 C324 0.950 . S
H305 C325 0.950 . S
H306 C327 0.950 . S
H307 C330 0.950 . S
H308 C331 0.950 . S
H309 C333 0.950 . S
H310 C334 0.950 . S
H311 C335 0.951 . S
H312 C337 0.951 . S
H313 C339 0.950 . S
H314 C340 0.950 . S
H315 C342 0.950 . S
H316 C345 0.950 . S
H317 C346 0.950 . S
H318 C348 0.950 . S
H319 C349 0.950 . S
C320 H302 0.951 1_455 S
C320 C321 1.366 . S
C320 C322 1.388 . S
C321 C320 1.366 . S
C321 C325 1.385 . S
C322 H303 0.951 . S
C322 C320 1.388 . S
C322 C323 1.366 . S
C323 C322 1.366 . S
C323 C324 1.414 . S
C323 C326 1.499 . S
C324 H304 0.950 . S
C324 C323 1.414 . S
C324 C325 1.374 . S
C325 H305 0.950 . S
C325 C321 1.385 . S
C325 C324 1.374 . S
C326 C323 1.499 . S
C326 C327 1.373 1_455 S
C326 C328 1.389 . S
C327 H306 0.950 . S
C327 C326 1.373 1_655 S
C327 C343 1.377 . S
C328 C326 1.389 . S
C328 C329 1.524 . S
C328 C342 1.377 . S
C329 C328 1.524 . S
C329 C330 1.397 . S
C329 C334 1.363 . S
C330 H307 0.950 . S
C330 C329 1.397 . S
C330 C331 1.334 . S
C331 H308 0.950 . S
C331 C330 1.334 . S
C331 C332 1.287 . S
C332 C331 1.287 . S
C332 C333 1.524 . S
C332 H351 0.913 . S
C333 H309 0.950 . S
C333 C332 1.524 . S
C333 C334 1.415 . S
C334 H310 0.950 . S
C334 C329 1.363 . S
C334 C333 1.415 . S
C335 H311 0.951 . S
C335 C336 1.366 . S
C335 C337 1.388 . S
C336 C335 1.366 . S
C336 C340 1.385 . S
C337 H312 0.951 . S
C337 C335 1.388 . S
C337 C338 1.366 . S
C338 C337 1.366 . S
C338 C339 1.414 . S
C338 C341 1.499 . S
C339 H313 0.950 . S
C339 C338 1.414 . S
C339 C340 1.374 . S
C340 H314 0.950 . S
C340 C336 1.385 . S
C340 C339 1.374 . S
C341 C338 1.499 . S
C341 C342 1.373 . S
C341 C343 1.389 1_455 S
C342 H315 0.950 . S
C342 C328 1.377 . S
C342 C341 1.373 . S
C343 C327 1.377 . S
C343 C341 1.389 1_655 S
C343 C344 1.524 . S
C344 C343 1.524 . S
C344 C345 1.397 . S
C344 C349 1.363 . S
C345 H316 0.950 . S
C345 C344 1.397 . S
C345 C346 1.334 . S
C346 H317 0.950 . S
C346 C345 1.334 . S
C346 C347 1.287 . S
C347 C346 1.287 . S
C347 C348 1.524 . S
C347 H350 0.999 . S
C348 H318 0.950 . S
C348 C347 1.524 . S
C348 C349 1.415 . S
C349 H319 0.950 . S
C349 C344 1.363 . S
C349 C348 1.415 . S
H350 C347 0.999 . S
H351 C332 0.913 . S
H352 C370 0.951 . S
H353 C372 0.951 . S
H354 C374 0.950 . S
H355 C375 0.950 . S
H356 C377 0.950 . S
H357 C380 0.950 . S
H358 C381 0.950 . S
H359 C383 0.950 . S
H360 C384 0.950 . S
H361 C385 0.951 . S
H362 C387 0.951 . S
H363 C389 0.950 . S
H364 C390 0.950 . S
H365 C392 0.950 . S
H366 C395 0.950 . S
H367 C396 0.950 . S
H368 C398 0.950 . S
H369 C399 0.950 . S
C370 H352 0.951 . S
C370 C371 1.338 1_545 S
C370 C372 1.388 . S
C371 C370 1.338 1_565 S
C371 C375 1.415 . S
C372 H353 0.951 . S
C372 C370 1.388 . S
C372 C373 1.366 1_545 S
C373 C372 1.366 1_565 S
C373 C374 1.414 . S
C373 C376 1.499 . S
C374 H354 0.950 . S
C374 C373 1.414 . S
C374 C375 1.374 . S
C375 H355 0.950 . S
C375 C371 1.415 . S
C375 C374 1.374 . S
C376 C373 1.499 . S
C376 C377 1.373 . S
C376 C378 1.389 1_565 S
C377 H356 0.950 . S
C377 C376 1.373 . S
C377 C393 1.377 . S
C378 C376 1.389 1_545 S
C378 C379 1.524 . S
C378 C392 1.377 . S
C379 C378 1.524 . S
C379 C380 1.397 . S
C379 C384 1.363 . S
C380 H357 0.950 . S
C380 C379 1.397 . S
C380 C381 1.334 . S
C381 H358 0.950 . S
C381 C380 1.334 . S
C381 C382 1.287 . S
C382 C381 1.287 . S
C382 C383 1.524 . S
C382 H401 0.913 . S
C383 H359 0.950 . S
C383 C382 1.524 . S
C383 C384 1.415 . S
C384 H360 0.950 . S
C384 C379 1.363 . S
C384 C383 1.415 . S
C385 H361 0.951 . S
C385 C386 1.366 . S
C385 C387 1.388 . S
C386 C385 1.366 . S
C386 C390 1.385 1_565 S
C387 H362 0.951 . S
C387 C385 1.388 . S
C387 C388 1.366 . S
C388 C387 1.366 . S
C388 C389 1.414 1_565 S
C388 C391 1.499 . S
C389 H363 0.950 . S
C389 C388 1.414 1_545 S
C389 C390 1.374 . S
C390 H364 0.950 . S
C390 C386 1.385 1_545 S
C390 C389 1.374 . S
C391 C388 1.499 . S
C391 C392 1.373 1_565 S
C391 C393 1.389 . S
C392 H365 0.950 . S
C392 C378 1.377 . S
C392 C391 1.373 1_545 S
C393 C377 1.377 . S
C393 C391 1.389 . S
C393 C394 1.524 . S
C394 C393 1.524 . S
C394 C395 1.397 . S
C394 C399 1.363 . S
C395 H366 0.950 . S
C395 C394 1.397 . S
C395 C396 1.334 . S
C396 H367 0.950 . S
C396 C395 1.334 . S
C396 C397 1.287 . S
C397 C396 1.287 . S
C397 C398 1.524 . S
C397 H400 0.999 . S
C398 H368 0.950 . S
C398 C397 1.524 . S
C398 C399 1.415 . S
C399 H369 0.950 . S
C399 C394 1.363 . S
C399 C398 1.415 . S
H400 C397 0.999 . S
H401 C382 0.913 . S
H402 C420 0.951 . S
H403 C422 0.951 . S
H404 C424 0.950 . S
H405 C425 0.950 . S
H406 C427 0.950 . S
H407 C430 0.950 . S
H408 C431 0.950 . S
H409 C433 0.950 . S
H410 C434 0.950 . S
H411 C435 0.951 . S
H412 C437 0.951 . S
H413 C439 0.950 . S
H414 C440 0.950 . S
H415 C442 0.950 1_655 S
H416 C445 0.950 1_655 S
H417 C446 0.952 1_655 S
H418 C448 0.950 . S
H419 C449 0.950 . S
C420 H402 0.951 . S
C420 C421 1.366 1_655 S
C420 C422 1.388 . S
C421 C420 1.366 1_455 S
C421 C425 1.385 . S
C422 H403 0.951 . S
C422 C420 1.388 . S
C422 C423 1.366 1_655 S
C423 C422 1.366 1_455 S
C423 C424 1.414 . S
C423 C426 1.499 . S
C424 H404 0.950 . S
C424 C423 1.414 . S
C424 C425 1.374 . S
C425 H405 0.950 . S
C425 C421 1.385 . S
C425 C424 1.374 . S
C426 C423 1.499 . S
C426 C427 1.373 . S
C426 C428 1.389 . S
C427 H406 0.950 . S
C427 C426 1.373 . S
C427 C443 1.377 . S
C428 C426 1.389 . S
C428 C429 1.524 1_455 S
C428 C442 1.377 . S
C429 C428 1.524 1_655 S
C429 C430 1.397 1_655 S
C429 C434 1.363 . S
C430 H407 0.950 . S
C430 C429 1.397 1_455 S
C430 C431 1.334 . S
C431 H408 0.950 . S
C431 C430 1.334 . S
C431 C432 1.287 1_455 S
C432 C431 1.287 1_655 S
C432 C433 1.524 . S
C432 H451 0.913 . S
C433 H409 0.950 . S
C433 C432 1.524 . S
C433 C434 1.415 . S
C434 H410 0.950 . S
C434 C429 1.363 . S
C434 C433 1.415 . S
C435 H411 0.951 . S
C435 C436 1.366 . S
C435 C437 1.388 . S
C436 C435 1.366 . S
C436 C440 1.385 1_455 S
C437 H412 0.951 . S
C437 C435 1.388 . S
C437 C438 1.366 . S
C438 C437 1.366 . S
C438 C439 1.414 1_455 S
C438 C441 1.499 . S
C439 H413 0.950 . S
C439 C438 1.414 1_655 S
C439 C440 1.374 . S
C440 H414 0.950 . S
C440 C436 1.385 1_655 S
C440 C439 1.374 . S
C441 C438 1.499 . S
C441 C442 1.373 . S
C441 C443 1.389 . S
C442 H415 0.950 1_455 S
C442 C428 1.377 . S
C442 C441 1.373 . S
C443 C427 1.377 . S
C443 C441 1.389 . S
C443 C444 1.524 . S
C444 C443 1.524 . S
C444 C445 1.397 . S
C444 C449 1.363 . S
C445 H416 0.950 1_455 S
C445 C444 1.397 . S
C445 C446 1.334 . S
C446 H417 0.952 1_455 S
C446 C445 1.334 . S
C446 C447 1.287 . S
C447 C446 1.287 . S
C447 C448 1.524 . S
C447 H450 0.999 . S
C448 H418 0.950 . S
C448 C447 1.524 . S
C448 C449 1.415 . S
C449 H419 0.950 . S
C449 C444 1.363 . S
C449 C448 1.415 . S
H450 C447 0.999 . S
H451 C432 0.913 . S
H452 C470 0.951 . S
H453 C472 0.951 . S
H454 C474 0.950 . S
H455 C475 0.947 1_565 S
H456 C477 0.950 . S
H457 C480 0.950 . S
H458 C481 0.950 . S
H459 C483 0.950 . S
H460 C484 0.950 . S
H461 C485 0.951 . S
H462 C487 0.951 . S
H463 C489 0.950 . S
H464 C490 0.950 . S
H465 C492 0.950 . S
H466 C495 0.950 . S
H467 C496 0.950 . S
H468 C498 0.950 . S
H469 C499 0.950 . S
C470 H452 0.951 . S
C470 C471 1.366 . S
C470 C472 1.388 . S
C471 C470 1.366 . S
C471 C475 1.385 . S
C472 H453 0.951 . S
C472 C470 1.388 . S
C472 C473 1.366 . S
C473 C472 1.366 . S
C473 C474 1.414 . S
C473 C476 1.499 . S
C474 H454 0.950 . S
C474 C473 1.414 . S
C474 C475 1.377 . S
C475 H455 0.947 1_545 S
C475 C471 1.385 . S
C475 C474 1.377 . S
C476 C473 1.499 . S
C476 C477 1.373 1_545 S
C476 C478 1.389 . S
C477 H456 0.950 . S
C477 C476 1.373 1_565 S
C477 C493 1.377 . S
C478 C476 1.389 . S
C478 C479 1.524 . S
C478 C492 1.377 . S
C479 C478 1.524 . S
C479 C480 1.397 . S
C479 C484 1.363 . S
C480 H457 0.950 . S
C480 C479 1.397 . S
C480 C481 1.334 . S
C481 H458 0.950 . S
C481 C480 1.334 . S
C481 C482 1.287 . S
C482 C481 1.287 . S
C482 C483 1.524 . S
C482 H501 0.913 . S
C483 H459 0.950 . S
C483 C482 1.524 . S
C483 C484 1.415 . S
C484 H460 0.950 . S
C484 C479 1.363 . S
C484 C483 1.415 . S
C485 H461 0.951 . S
C485 C486 1.366 . S
C485 C487 1.388 . S
C486 C485 1.366 . S
C486 C490 1.385 . S
C487 H462 0.951 . S
C487 C485 1.388 . S
C487 C488 1.366 . S
C488 C487 1.366 . S
C488 C489 1.414 . S
C488 C491 1.499 . S
C489 H463 0.950 . S
C489 C488 1.414 . S
C489 C490 1.374 . S
C490 H464 0.950 . S
C490 C486 1.385 . S
C490 C489 1.374 . S
C491 C488 1.499 . S
C491 C492 1.373 . S
C491 C493 1.389 1_545 S
C492 H465 0.950 . S
C492 C478 1.377 . S
C492 C491 1.373 . S
C493 C477 1.377 . S
C493 C491 1.389 1_565 S
C493 C494 1.524 . S
C494 C493 1.524 . S
C494 C495 1.397 . S
C494 C499 1.363 . S
C495 H466 0.950 . S
C495 C494 1.397 . S
C495 C496 1.334 . S
C496 H467 0.950 . S
C496 C495 1.334 . S
C496 C497 1.287 . S
C497 C496 1.287 . S
C497 C498 1.524 . S
C497 H500 0.999 . S
C498 H468 0.950 . S
C498 C497 1.524 . S
C498 C499 1.415 . S
C499 H469 0.950 . S
C499 C494 1.363 . S
C499 C498 1.415 . S
H500 C497 0.999 . S
H501 C482 0.913 . S
H502 C520 0.951 . S
H503 C522 0.951 . S
H504 C524 0.950 . S
H505 C525 0.950 . S
H506 C527 0.950 . S
H507 C530 0.950 . S
H508 C531 0.950 1_655 S
H509 C533 0.950 . S
H510 C534 0.950 . S
H511 C535 0.951 . S
H512 C537 0.951 . S
H513 C539 0.950 . S
H514 C540 0.950 . S
H515 C542 0.950 . S
H516 C545 0.950 1_455 S
H517 C546 0.950 . S
H518 C548 0.950 . S
H519 C549 0.950 . S
C520 H502 0.951 . S
C520 C521 1.366 1_455 S
C520 C522 1.388 . S
C521 C520 1.366 1_655 S
C521 C525 1.385 . S
C522 H503 0.951 . S
C522 C520 1.388 . S
C522 C523 1.366 1_455 S
C523 C522 1.366 1_655 S
C523 C524 1.414 . S
C523 C526 1.499 . S
C524 H504 0.950 . S
C524 C523 1.414 . S
C524 C525 1.374 . S
C525 H505 0.950 . S
C525 C521 1.385 . S
C525 C524 1.374 . S
C526 C523 1.499 . S
C526 C527 1.373 . S
C526 C528 1.389 1_655 S
C527 H506 0.950 . S
C527 C526 1.373 . S
C527 C543 1.377 . S
C528 C526 1.389 1_455 S
C528 C529 1.524 . S
C528 C542 1.377 . S
C529 C528 1.524 . S
C529 C530 1.397 1_455 S
C529 C534 1.363 . S
C530 H507 0.950 . S
C530 C529 1.397 1_655 S
C530 C531 1.334 1_655 S
C531 H508 0.950 1_455 S
C531 C530 1.334 1_455 S
C531 C532 1.287 . S
C532 C531 1.287 . S
C532 C533 1.524 . S
C532 H551 0.913 . S
C533 H509 0.950 . S
C533 C532 1.524 . S
C533 C534 1.415 . S
C534 H510 0.950 . S
C534 C529 1.363 . S
C534 C533 1.415 . S
C535 H511 0.951 . S
C535 C536 1.366 . S
C535 C537 1.388 . S
C536 C535 1.366 . S
C536 C540 1.385 1_655 S
C537 H512 0.951 . S
C537 C535 1.388 . S
C537 C538 1.366 . S
C538 C537 1.366 . S
C538 C539 1.414 1_655 S
C538 C541 1.499 . S
C539 H513 0.950 . S
C539 C538 1.414 1_455 S
C539 C540 1.374 . S
C540 H514 0.950 . S
C540 C536 1.385 1_455 S
C540 C539 1.374 . S
C541 C538 1.499 . S
C541 C542 1.373 1_655 S
C541 C543 1.389 . S
C542 H515 0.950 . S
C542 C528 1.377 . S
C542 C541 1.373 1_455 S
C543 C527 1.377 . S
C543 C541 1.389 . S
C543 C544 1.524 . S
C544 C543 1.524 . S
C544 C545 1.397 . S
C544 C549 1.363 . S
C545 H516 0.950 1_655 S
C545 C544 1.397 . S
C545 C546 1.334 . S
C546 H517 0.950 . S
C546 C545 1.334 . S
C546 C547 1.287 . S
C547 C546 1.287 . S
C547 C548 1.524 . S
C547 H550 0.999 . S
C548 H518 0.950 . S
C548 C547 1.524 . S
C548 C549 1.415 . S
C549 H519 0.950 . S
C549 C544 1.363 . S
C549 C548 1.415 . S
H550 C547 0.999 . S
H551 C532 0.913 . S
C186 C133 1.862 . S
C171 C47 1.762 . S
C236 C144 1.795 . S
C221 C109 1.751 . S
C286 C132 1.862 . S
C271 C29 1.776 1_565 S
C336 C145 1.796 . S
C321 C91 1.763 1_455 S
C386 C147 1.565 . S
C371 C53 1.552 1_565 S
C436 C131 1.425 . S
C421 C115 1.466 1_455 S
C486 C146 1.565 . S
C471 C35 1.555 . S
C521 C97 1.462 . S
C536 C130 1.425 . S
