# Generated by pormake.
# Topology ssb, (4,4)-cn, num edge types: 1
# Building blocks:
#     Node 0, Type 0, BuildingBlock: AZAVOO_clean_linker_0, # of connection points: 4
#     Node 1, Type 0, BuildingBlock: AZAVOO_clean_linker_0, # of connection points: 4
#     Node 2, Type 0, BuildingBlock: AZAVOO_clean_linker_0, # of connection points: 4
#     Node 3, Type 0, BuildingBlock: AZAVOO_clean_linker_0, # of connection points: 4
#     Node 4, Type 0, BuildingBlock: AZAVOO_clean_linker_0, # of connection points: 4
#     Node 5, Type 0, BuildingBlock: AZAVOO_clean_linker_0, # of connection points: 4
#     Node 6, Type 0, BuildingBlock: AZAVOO_clean_linker_0, # of connection points: 4
#     Node 7, Type 0, BuildingBlock: AZAVOO_clean_linker_0, # of connection points: 4
#     Node 8, Type 1, BuildingBlock: KOZSID_clean_sbu_0, # of connection points: 4
#     Node 9, Type 1, BuildingBlock: KOZSID_clean_sbu_0, # of connection points: 4
#     Node 10, Type 1, BuildingBlock: KOZSID_clean_sbu_0, # of connection points: 4
#     Node 11, Type 1, BuildingBlock: KOZSID_clean_sbu_0, # of connection points: 4
#     Node 12, Type 1, BuildingBlock: KOZSID_clean_sbu_0, # of connection points: 4
#     Node 13, Type 1, BuildingBlock: KOZSID_clean_sbu_0, # of connection points: 4
#     Node 14, Type 1, BuildingBlock: KOZSID_clean_sbu_0, # of connection points: 4
#     Node 15, Type 1, BuildingBlock: KOZSID_clean_sbu_0, # of connection points: 4
#     Edge 16, Type (0, 1), BuildingBlock: ZUJKAS_clean_linker_0, # of connection points: 2
#     Edge 17, Type (0, 1), BuildingBlock: ZUJKAS_clean_linker_0, # of connection points: 2
#     Edge 18, Type (0, 1), BuildingBlock: ZUJKAS_clean_linker_0, # of connection points: 2
#     Edge 19, Type (0, 1), BuildingBlock: ZUJKAS_clean_linker_0, # of connection points: 2
#     Edge 20, Type (0, 1), BuildingBlock: ZUJKAS_clean_linker_0, # of connection points: 2
#     Edge 21, Type (0, 1), BuildingBlock: ZUJKAS_clean_linker_0, # of connection points: 2
#     Edge 22, Type (0, 1), BuildingBlock: ZUJKAS_clean_linker_0, # of connection points: 2
#     Edge 23, Type (0, 1), BuildingBlock: ZUJKAS_clean_linker_0, # of connection points: 2
#     Edge 24, Type (0, 1), BuildingBlock: ZUJKAS_clean_linker_0, # of connection points: 2
#     Edge 25, Type (0, 1), BuildingBlock: ZUJKAS_clean_linker_0, # of connection points: 2
#     Edge 26, Type (0, 1), BuildingBlock: ZUJKAS_clean_linker_0, # of connection points: 2
#     Edge 27, Type (0, 1), BuildingBlock: ZUJKAS_clean_linker_0, # of connection points: 2
#     Edge 28, Type (0, 1), BuildingBlock: ZUJKAS_clean_linker_0, # of connection points: 2
#     Edge 29, Type (0, 1), BuildingBlock: ZUJKAS_clean_linker_0, # of connection points: 2
#     Edge 30, Type (0, 1), BuildingBlock: ZUJKAS_clean_linker_0, # of connection points: 2
#     Edge 31, Type (0, 1), BuildingBlock: ZUJKAS_clean_linker_0, # of connection points: 2
#     Edge 32, Type (0, 1), BuildingBlock: ZUJKAS_clean_linker_0, # of connection points: 2
#     Edge 33, Type (0, 1), BuildingBlock: ZUJKAS_clean_linker_0, # of connection points: 2
#     Edge 34, Type (0, 1), BuildingBlock: ZUJKAS_clean_linker_0, # of connection points: 2
#     Edge 35, Type (0, 1), BuildingBlock: ZUJKAS_clean_linker_0, # of connection points: 2
#     Edge 36, Type (0, 1), BuildingBlock: ZUJKAS_clean_linker_0, # of connection points: 2
#     Edge 37, Type (0, 1), BuildingBlock: ZUJKAS_clean_linker_0, # of connection points: 2
#     Edge 38, Type (0, 1), BuildingBlock: ZUJKAS_clean_linker_0, # of connection points: 2
#     Edge 39, Type (0, 1), BuildingBlock: ZUJKAS_clean_linker_0, # of connection points: 2
#     Edge 40, Type (0, 1), BuildingBlock: ZUJKAS_clean_linker_0, # of connection points: 2
#     Edge 41, Type (0, 1), BuildingBlock: ZUJKAS_clean_linker_0, # of connection points: 2
#     Edge 42, Type (0, 1), BuildingBlock: ZUJKAS_clean_linker_0, # of connection points: 2
#     Edge 43, Type (0, 1), BuildingBlock: ZUJKAS_clean_linker_0, # of connection points: 2
#     Edge 44, Type (0, 1), BuildingBlock: ZUJKAS_clean_linker_0, # of connection points: 2
#     Edge 45, Type (0, 1), BuildingBlock: ZUJKAS_clean_linker_0, # of connection points: 2
#     Edge 46, Type (0, 1), BuildingBlock: ZUJKAS_clean_linker_0, # of connection points: 2
#     Edge 47, Type (0, 1), BuildingBlock: ZUJKAS_clean_linker_0, # of connection points: 2
# Relax obj value: 0.042
# Max RMSD: 0.287
# Mean RMSD: 0.108
data_MOF--net-ssb--node1-KOZSID_clean_sbu_0--node2-AZAVOO_clean_linker_0--edge1-ZUJKAS_clean_linker_0
_symmetry_space_group_name_H-M    P1
_symmetry_Int_Tables_number       1
_symmetry_cell_setting            triclinic
loop_
_symmetry_equiv_pos_as_xyz
'x, y, z'
_cell_length_a     74.184069
_cell_length_b     76.205882
_cell_length_c     54.552185
_cell_angle_alpha  94.136576
_cell_angle_beta   93.847261
_cell_angle_gamma 90.232505
loop_
_atom_site_label
_atom_site_type_symbol
_atom_site_fract_x
_atom_site_fract_y
_atom_site_fract_z
_atom_type_partial_charge
H0 H 0.17554 0.4728 0.29193 0.0
H1 H 0.30685 0.39492 0.11324 0.0
H2 H 0.2379 0.40396 0.31347 0.0
H3 H 0.21513 0.40313 0.34386 0.0
H4 H 0.19092 0.35699 0.30385 0.0
H5 H 0.21368 0.35799 0.27346 0.0
H6 H 0.24063 0.43197 0.2744 0.0
H7 H 0.21689 0.45311 0.28392 0.0
H8 H 0.17633 0.41357 0.25956 0.0
H9 H 0.20021 0.39264 0.24983 0.0
H10 H 0.27063 0.42791 0.23402 0.0
H11 H 0.26708 0.45265 0.20793 0.0
H12 H 0.21525 0.43169 0.17842 0.0
H13 H 0.21894 0.40698 0.20464 0.0
H14 H 0.29704 0.39594 0.23408 0.0
H15 H 0.31639 0.39917 0.20005 0.0
H16 H 0.27048 0.38806 0.14802 0.0
H17 H 0.25134 0.38464 0.18222 0.0
H18 H 0.29525 0.36768 0.2723 0.0
H19 H 0.32081 0.34993 0.2592 0.0
H20 H 0.28969 0.33268 0.19183 0.0
H21 H 0.2641 0.34991 0.20553 0.0
H22 H 0.26639 0.37119 0.31329 0.0
H23 H 0.27227 0.34604 0.33805 0.0
H24 H 0.25106 0.311 0.27693 0.0
H25 H 0.24574 0.33623 0.25219 0.0
O26 O 0.18471 0.46427 0.28785 0.0
O27 O 0.1644 0.44345 0.27523 0.0
O28 O 0.3227 0.39925 0.15455 0.0
O29 O 0.29951 0.39373 0.12704 0.0
C30 C 0.23923 0.38334 0.27079 0.0
C31 C 0.23657 0.3979 0.25615 0.0
C32 C 0.24763 0.40019 0.2365 0.0
C33 C 0.26118 0.38774 0.23131 0.0
C34 C 0.26365 0.37306 0.24569 0.0
C35 C 0.25277 0.37088 0.26557 0.0
C36 C 0.22737 0.3811 0.29122 0.0
C37 C 0.22784 0.39352 0.31151 0.0
C38 C 0.21479 0.39308 0.32874 0.0
C39 C 0.20115 0.38009 0.32608 0.0
C40 C 0.20133 0.36708 0.30647 0.0
C41 C 0.21432 0.36761 0.28912 0.0
C42 C 0.22212 0.4108 0.26144 0.0
C43 C 0.2266 0.42795 0.271 0.0
C44 C 0.21302 0.43997 0.27648 0.0
C45 C 0.19471 0.43502 0.27254 0.0
C46 C 0.19029 0.41781 0.26284 0.0
C47 C 0.20389 0.40583 0.2573 0.0
C48 C 0.24507 0.4156 0.22124 0.0
C49 C 0.25851 0.42867 0.22192 0.0
C50 C 0.25648 0.44277 0.20692 0.0
C51 C 0.2409 0.44415 0.19098 0.0
C52 C 0.22732 0.43115 0.19065 0.0
C53 C 0.22942 0.417 0.20557 0.0
C54 C 0.27281 0.39004 0.2106 0.0
C55 C 0.29121 0.39417 0.21531 0.0
C56 C 0.30222 0.39603 0.19585 0.0
C57 C 0.29498 0.39387 0.1713 0.0
C58 C 0.27649 0.38982 0.16668 0.0
C59 C 0.26551 0.3879 0.18618 0.0
C60 C 0.2779 0.36013 0.23978 0.0
C61 C 0.29384 0.35967 0.25504 0.0
C62 C 0.30846 0.34967 0.2474 0.0
C63 C 0.30737 0.34004 0.22433 0.0
C64 C 0.29096 0.33977 0.20979 0.0
C65 C 0.27634 0.34969 0.2175 0.0
C66 C 0.25566 0.35557 0.28091 0.0
C67 C 0.26296 0.35807 0.30532 0.0
C68 C 0.26623 0.34365 0.31948 0.0
C69 C 0.26219 0.32638 0.30956 0.0
C70 C 0.25467 0.32401 0.28512 0.0
C71 C 0.25149 0.33843 0.27096 0.0
C72 C 0.18031 0.44778 0.27858 0.0
C73 C 0.30662 0.39579 0.15054 0.0
H74 H 0.65295 0.17638 0.30425 0.0
H75 H 0.80158 0.24226 0.49124 0.0
H76 H 0.72341 0.23846 0.28511 0.0
H77 H 0.70091 0.24119 0.25071 0.0
H78 H 0.68205 0.28948 0.28648 0.0
H79 H 0.70463 0.28661 0.32085 0.0
H80 H 0.72333 0.21103 0.32549 0.0
H81 H 0.69679 0.19215 0.31479 0.0
H82 H 0.66211 0.2358 0.33396 0.0
H83 H 0.68878 0.25447 0.34488 0.0
H84 H 0.75492 0.21258 0.36834 0.0
H85 H 0.74853 0.1886 0.39412 0.0
H86 H 0.7012 0.21604 0.418 0.0
H87 H 0.70781 0.24007 0.39234 0.0
H88 H 0.78567 0.24068 0.36918 0.0
H89 H 0.8061 0.23554 0.40502 0.0
H90 H 0.76479 0.25322 0.45315 0.0
H91 H 0.74458 0.25848 0.41716 0.0
H92 H 0.78432 0.26755 0.32669 0.0
H93 H 0.8127 0.28385 0.33642 0.0
H94 H 0.79188 0.30645 0.40369 0.0
H95 H 0.76336 0.29049 0.39339 0.0
H96 H 0.75329 0.27 0.28649 0.0
H97 H 0.76056 0.29545 0.26375 0.0
H98 H 0.74831 0.33022 0.32652 0.0
H99 H 0.74065 0.30479 0.34873 0.0
O100 O 0.66326 0.18406 0.30869 0.0
O101 O 0.64602 0.20694 0.31868 0.0
O102 O 0.8146 0.23529 0.45121 0.0
O103 O 0.79379 0.24419 0.47675 0.0
C104 C 0.72781 0.25944 0.32747 0.0
C105 C 0.72413 0.24555 0.34226 0.0
C106 C 0.73581 0.24255 0.36302 0.0
C107 C 0.75135 0.25322 0.36882 0.0
C108 C 0.75506 0.26707 0.35399 0.0
C109 C 0.74309 0.27036 0.3336 0.0
C110 C 0.7156 0.26231 0.30546 0.0
C111 C 0.71454 0.24972 0.28536 0.0
C112 C 0.70163 0.25124 0.26583 0.0
C113 C 0.68963 0.26547 0.26601 0.0
C114 C 0.69121 0.27845 0.28575 0.0
C115 C 0.70407 0.27685 0.30537 0.0
C116 C 0.70797 0.2341 0.33596 0.0
C117 C 0.70999 0.21645 0.32747 0.0
C118 C 0.69481 0.20572 0.32132 0.0
C119 C 0.67732 0.21247 0.3235 0.0
C120 C 0.67538 0.23019 0.33205 0.0
C121 C 0.69057 0.24089 0.33826 0.0
C122 C 0.73186 0.22805 0.37858 0.0
C123 C 0.74324 0.21343 0.37925 0.0
C124 C 0.73958 0.1998 0.39396 0.0
C125 C 0.72438 0.20051 0.40804 0.0
C126 C 0.7129 0.2151 0.40714 0.0
C127 C 0.71667 0.22882 0.3926 0.0
C128 C 0.76368 0.24997 0.3906 0.0
C129 C 0.7811 0.24348 0.38749 0.0
C130 C 0.79272 0.24053 0.40798 0.0
C131 C 0.78708 0.24397 0.43197 0.0
C132 C 0.76957 0.25043 0.43496 0.0
C133 C 0.75798 0.25342 0.41445 0.0
C134 C 0.77183 0.27779 0.35938 0.0
C135 C 0.78584 0.2762 0.34337 0.0
C136 C 0.80207 0.28541 0.34905 0.0
C137 C 0.8046 0.29638 0.3709 0.0
C138 C 0.79032 0.29827 0.3866 0.0
C139 C 0.77407 0.28907 0.38087 0.0
C140 C 0.74645 0.28562 0.31918 0.0
C141 C 0.75197 0.28315 0.29512 0.0
C142 C 0.75625 0.29765 0.28229 0.0
C143 C 0.75503 0.31482 0.29339 0.0
C144 C 0.74915 0.31719 0.31736 0.0
C145 C 0.74488 0.3027 0.33012 0.0
C146 C 0.66122 0.20105 0.31684 0.0
C147 C 0.79936 0.24087 0.45381 0.0
H148 H 0.67439 0.87668 0.32567 0.0
H149 H 0.6963 0.69618 0.19633 0.0
H150 H 0.75312 0.82247 0.33539 0.0
H151 H 0.75419 0.84484 0.36994 0.0
H152 H 0.73772 0.80577 0.41775 0.0
H153 H 0.73643 0.78351 0.38287 0.0
H154 H 0.72365 0.82118 0.29362 0.0
H155 H 0.70477 0.84699 0.30132 0.0
H156 H 0.6828 0.82261 0.36214 0.0
H157 H 0.7016 0.79678 0.35402 0.0
H158 H 0.72624 0.7902 0.2524 0.0
H159 H 0.7032 0.8004 0.22266 0.0
H160 H 0.66186 0.78984 0.27195 0.0
H161 H 0.68507 0.77932 0.30148 0.0
H162 H 0.75114 0.75823 0.2532 0.0
H163 H 0.7439 0.73699 0.21807 0.0
H164 H 0.69553 0.72161 0.25143 0.0
H165 H 0.70307 0.74275 0.28659 0.0
H166 H 0.7806 0.75882 0.29177 0.0
H167 H 0.79622 0.73157 0.27941 0.0
H168 H 0.75339 0.70123 0.30645 0.0
H169 H 0.73804 0.72844 0.31884 0.0
H170 H 0.78033 0.79657 0.33164 0.0
H171 H 0.80942 0.79509 0.35506 0.0
H172 H 0.7924 0.74711 0.38469 0.0
H173 H 0.76295 0.74889 0.36145 0.0
O174 O 0.68166 0.8663 0.32286 0.0
O175 O 0.67087 0.85323 0.35404 0.0
O176 O 0.72457 0.71299 0.19371 0.0
O177 O 0.6995 0.70468 0.21001 0.0
C178 C 0.74074 0.78879 0.33488 0.0
C179 C 0.72552 0.79153 0.31865 0.0
C180 C 0.72163 0.77973 0.29782 0.0
C181 C 0.73227 0.76461 0.294 0.0
C182 C 0.74739 0.76171 0.31038 0.0
C183 C 0.75202 0.77416 0.33034 0.0
C184 C 0.74463 0.80141 0.35664 0.0
C185 C 0.75011 0.81869 0.35345 0.0
C186 C 0.75075 0.83143 0.37323 0.0
C187 C 0.74589 0.8271 0.39655 0.0
C188 C 0.7413 0.80954 0.39993 0.0
C189 C 0.74074 0.79679 0.38013 0.0
C190 C 0.71391 0.80711 0.32319 0.0
C191 C 0.71466 0.82141 0.30848 0.0
C192 C 0.7039 0.83615 0.31298 0.0
C193 C 0.69227 0.83686 0.33235 0.0
C194 C 0.6916 0.82248 0.34707 0.0
C195 C 0.70232 0.80772 0.34249 0.0
C196 C 0.70729 0.78403 0.27902 0.0
C197 C 0.71217 0.78983 0.25657 0.0
C198 C 0.69903 0.79581 0.23976 0.0
C199 C 0.68076 0.79609 0.24512 0.0
C200 C 0.67583 0.78969 0.2673 0.0
C201 C 0.68902 0.78373 0.28417 0.0
C202 C 0.7277 0.75192 0.27249 0.0
C203 C 0.73905 0.75019 0.25293 0.0
C204 C 0.73485 0.73809 0.23287 0.0
C205 C 0.71914 0.72757 0.23196 0.0
C206 C 0.70774 0.72948 0.25155 0.0
C207 C 0.71198 0.74156 0.27163 0.0
C208 C 0.75823 0.74557 0.30624 0.0
C209 C 0.77484 0.74628 0.29548 0.0
C210 C 0.78364 0.73072 0.28827 0.0
C211 C 0.776 0.71425 0.29189 0.0
C212 C 0.75974 0.71368 0.30367 0.0
C213 C 0.75092 0.7292 0.31071 0.0
C214 C 0.76948 0.77292 0.34499 0.0
C215 C 0.78277 0.78584 0.34342 0.0
C216 C 0.79936 0.78499 0.3568 0.0
C217 C 0.80309 0.77105 0.37181 0.0
C218 C 0.78985 0.75797 0.37319 0.0
C219 C 0.77308 0.75897 0.35999 0.0
C220 C 0.68093 0.85258 0.33715 0.0
C221 C 0.71463 0.71467 0.21071 0.0
H222 H 0.339 0.95514 0.2744 0.0
H223 H 0.25869 0.81237 0.08678 0.0
H224 H 0.27196 0.89069 0.29443 0.0
H225 H 0.27141 0.91546 0.32551 0.0
H226 H 0.224 0.93554 0.28671 0.0
H227 H 0.22451 0.91052 0.25602 0.0
H228 H 0.3002 0.88815 0.25392 0.0
H229 H 0.32076 0.91316 0.26443 0.0
H230 H 0.27832 0.94866 0.24236 0.0
H231 H 0.25798 0.9235 0.23161 0.0
H232 H 0.29653 0.85571 0.21266 0.0
H233 H 0.32265 0.85893 0.18827 0.0
H234 H 0.29965 0.90621 0.16046 0.0
H235 H 0.2735 0.90286 0.18506 0.0
H236 H 0.26682 0.82862 0.20892 0.0
H237 H 0.26929 0.8082 0.1726 0.0
H238 H 0.25154 0.84914 0.12583 0.0
H239 H 0.24885 0.86933 0.16235 0.0
H240 H 0.24234 0.82995 0.24991 0.0
H241 H 0.22757 0.8018 0.236 0.0
H242 H 0.19943 0.82646 0.17587 0.0
H243 H 0.21434 0.85453 0.1898 0.0
H244 H 0.24396 0.86283 0.29416 0.0
H245 H 0.22087 0.85451 0.32129 0.0
H246 H 0.1793 0.86336 0.26428 0.0
H247 H 0.2025 0.87185 0.23734 0.0
O248 O 0.33069 0.94543 0.2699 0.0
O249 O 0.30838 0.96312 0.2585 0.0
O250 O 0.26678 0.79954 0.12632 0.0
O251 O 0.25789 0.82018 0.10145 0.0
C252 C 0.25085 0.88615 0.25176 0.0
C253 C 0.26505 0.88885 0.2363 0.0
C254 C 0.26745 0.87696 0.21575 0.0
C255 C 0.2554 0.86261 0.21033 0.0
C256 C 0.24129 0.85988 0.22588 0.0
C257 C 0.23908 0.87154 0.24675 0.0
C258 C 0.24835 0.89894 0.27297 0.0
C259 C 0.26121 0.90023 0.29305 0.0
C260 C 0.26095 0.91444 0.31062 0.0
C261 C 0.24782 0.9276 0.30835 0.0
C262 C 0.23422 0.92558 0.28909 0.0
C263 C 0.23448 0.91132 0.27153 0.0
C264 C 0.27763 0.90404 0.24199 0.0
C265 C 0.29543 0.90134 0.25121 0.0
C266 C 0.30711 0.91565 0.25727 0.0
C267 C 0.30118 0.93292 0.25427 0.0
C268 C 0.28333 0.93554 0.24491 0.0
C269 C 0.27168 0.92121 0.23877 0.0
C270 C 0.28311 0.87901 0.20055 0.0
C271 C 0.29708 0.86669 0.20116 0.0
C272 C 0.31195 0.86853 0.18717 0.0
C273 C 0.31318 0.88279 0.17235 0.0
C274 C 0.29916 0.89517 0.17185 0.0
C275 C 0.28421 0.89326 0.18579 0.0
C276 C 0.25754 0.8504 0.18824 0.0
C277 C 0.26341 0.83312 0.19081 0.0
C278 C 0.26485 0.82151 0.17004 0.0
C279 C 0.26057 0.82703 0.14629 0.0
C280 C 0.25491 0.84445 0.14382 0.0
C281 C 0.25341 0.85602 0.16463 0.0
C282 C 0.22948 0.84416 0.22071 0.0
C283 C 0.23256 0.82937 0.2342 0.0
C284 C 0.22418 0.81335 0.22623 0.0
C285 C 0.21245 0.81201 0.20484 0.0
C286 C 0.20827 0.82721 0.19255 0.0
C287 C 0.21681 0.84318 0.20039 0.0
C288 C 0.22491 0.86796 0.26379 0.0
C289 C 0.22985 0.86325 0.28769 0.0
C290 C 0.21665 0.85849 0.30313 0.0
C291 C 0.19828 0.8582 0.29486 0.0
C292 C 0.19336 0.86324 0.27104 0.0
C293 C 0.20656 0.86817 0.25569 0.0
C294 C 0.31357 0.9481 0.26098 0.0
C295 C 0.26196 0.81471 0.12416 0.0
H296 H 0.38489 0.95763 0.74565 0.0
H297 H 0.19643 0.93017 0.62342 0.0
H298 H 0.32773 0.87902 0.74511 0.0
H299 H 0.35243 0.8754 0.77629 0.0
H300 H 0.31774 0.8935 0.8333 0.0
H301 H 0.29308 0.89724 0.80181 0.0
H302 H 0.32529 0.91014 0.70942 0.0
H303 H 0.35241 0.92854 0.71807 0.0
H304 H 0.3323 0.94799 0.78744 0.0
H305 H 0.30517 0.92967 0.7784 0.0
H306 H 0.29177 0.91123 0.67088 0.0
H307 H 0.29507 0.93679 0.64669 0.0
H308 H 0.28551 0.97128 0.71083 0.0
H309 H 0.28183 0.94562 0.73467 0.0
H310 H 0.26254 0.88074 0.67003 0.0
H311 H 0.24022 0.88629 0.63644 0.0
H312 H 0.22286 0.93281 0.67832 0.0
H313 H 0.24508 0.92697 0.7119 0.0
H314 H 0.26616 0.85159 0.70792 0.0
H315 H 0.23986 0.8336 0.69228 0.0
H316 H 0.20458 0.87509 0.71771 0.0
H317 H 0.23092 0.8927 0.73388 0.0
H318 H 0.29865 0.8513 0.74935 0.0
H319 H 0.29375 0.82644 0.77424 0.0
H320 H 0.2475 0.85276 0.80356 0.0
H321 H 0.25291 0.87777 0.77923 0.0
O322 O 0.37401 0.95054 0.74253 0.0
O323 O 0.36308 0.96012 0.778 0.0
O324 O 0.21468 0.90353 0.61575 0.0
O325 O 0.20536 0.92766 0.63643 0.0
C326 C 0.2946 0.89247 0.75203 0.0
C327 C 0.29699 0.9072 0.7381 0.0
C328 C 0.28404 0.91096 0.71907 0.0
C329 C 0.26877 0.89985 0.71388 0.0
C330 C 0.26626 0.88524 0.72803 0.0
C331 C 0.2791 0.88158 0.74729 0.0
C332 C 0.30869 0.88839 0.77127 0.0
C333 C 0.32541 0.88195 0.76437 0.0
C334 C 0.33945 0.87983 0.78219 0.0
C335 C 0.33701 0.88421 0.80722 0.0
C336 C 0.32003 0.89018 0.81413 0.0
C337 C 0.30593 0.8922 0.79625 0.0
C338 C 0.31329 0.91859 0.74328 0.0
C339 C 0.32674 0.91846 0.7264 0.0
C340 C 0.34223 0.92894 0.73143 0.0
C341 C 0.34454 0.93973 0.75347 0.0
C342 C 0.33096 0.93984 0.77031 0.0
C343 C 0.31547 0.92938 0.76522 0.0
C344 C 0.2865 0.92654 0.70452 0.0
C345 C 0.29036 0.92432 0.67967 0.0
C346 C 0.29238 0.93895 0.66594 0.0
C347 C 0.29054 0.95613 0.67679 0.0
C348 C 0.28678 0.95827 0.70179 0.0
C349 C 0.2848 0.94363 0.7155 0.0
C350 C 0.25539 0.90344 0.69338 0.0
C351 C 0.25386 0.89209 0.67192 0.0
C352 C 0.24113 0.89531 0.65276 0.0
C353 C 0.22974 0.91 0.6547 0.0
C354 C 0.2314 0.92139 0.67623 0.0
C355 C 0.24411 0.91811 0.69541 0.0
C356 C 0.2504 0.87346 0.72188 0.0
C357 C 0.25273 0.85658 0.71061 0.0
C358 C 0.23772 0.84641 0.70152 0.0
C359 C 0.22015 0.85299 0.70356 0.0
C360 C 0.2179 0.86956 0.71605 0.0
C361 C 0.23292 0.87969 0.72517 0.0
C362 C 0.27621 0.86643 0.76253 0.0
C363 C 0.28756 0.85175 0.76131 0.0
C364 C 0.28461 0.83746 0.77539 0.0
C365 C 0.27021 0.83753 0.79096 0.0
C366 C 0.25887 0.85231 0.79208 0.0
C367 C 0.26185 0.86659 0.77804 0.0
C368 C 0.36106 0.95077 0.75882 0.0
C369 C 0.21617 0.91347 0.63441 0.0
H370 H 0.22321 0.48988 0.788 0.0
H371 H 0.23214 0.30876 0.64925 0.0
H372 H 0.29985 0.42841 0.7881 0.0
H373 H 0.30295 0.45183 0.82105 0.0
H374 H 0.28085 0.41723 0.8711 0.0
H375 H 0.27743 0.39393 0.83764 0.0
H376 H 0.26543 0.43086 0.74881 0.0
H377 H 0.24913 0.45798 0.75913 0.0
H378 H 0.22961 0.43494 0.82262 0.0
H379 H 0.24576 0.40783 0.81188 0.0
H380 H 0.25897 0.40016 0.70597 0.0
H381 H 0.23115 0.40299 0.67968 0.0
H382 H 0.19968 0.39036 0.74003 0.0
H383 H 0.22754 0.38716 0.7659 0.0
H384 H 0.28752 0.37146 0.70324 0.0
H385 H 0.27845 0.35147 0.66734 0.0
H386 H 0.23504 0.33134 0.70675 0.0
H387 H 0.24439 0.3513 0.74258 0.0
H388 H 0.31743 0.36819 0.73705 0.0
H389 H 0.33187 0.34123 0.72151 0.0
H390 H 0.29523 0.31053 0.76009 0.0
H391 H 0.28045 0.33762 0.77465 0.0
H392 H 0.32802 0.39082 0.7843 0.0
H393 H 0.35312 0.37978 0.81034 0.0
H394 H 0.31513 0.34989 0.84784 0.0
H395 H 0.29032 0.36066 0.82132 0.0
O396 O 0.22936 0.47896 0.78407 0.0
O397 O 0.21976 0.46652 0.81653 0.0
O398 O 0.25864 0.32748 0.6438 0.0
O399 O 0.23605 0.31676 0.66319 0.0
C400 C 0.28262 0.39723 0.78925 0.0
C401 C 0.2673 0.40128 0.77385 0.0
C402 C 0.26201 0.38996 0.75297 0.0
C403 C 0.27223 0.37483 0.74722 0.0
C404 C 0.28743 0.37079 0.76271 0.0
C405 C 0.29243 0.38179 0.78396 0.0
C406 C 0.2884 0.40955 0.81054 0.0
C407 C 0.29622 0.42574 0.80638 0.0
C408 C 0.29802 0.43907 0.82528 0.0
C409 C 0.29203 0.43642 0.84867 0.0
C410 C 0.2854 0.41971 0.8532 0.0
C411 C 0.28361 0.40635 0.83424 0.0
C412 C 0.25682 0.41743 0.77965 0.0
C413 C 0.25752 0.43167 0.76483 0.0
C414 C 0.24825 0.44715 0.77082 0.0
C415 C 0.23811 0.44865 0.79175 0.0
C416 C 0.23731 0.43424 0.80641 0.0
C417 C 0.24654 0.41876 0.80034 0.0
C418 C 0.24523 0.39341 0.73777 0.0
C419 C 0.24604 0.39816 0.7135 0.0
C420 C 0.23015 0.39985 0.6986 0.0
C421 C 0.21323 0.39679 0.70775 0.0
C422 C 0.21252 0.39255 0.73234 0.0
C423 C 0.22838 0.39087 0.74721 0.0
C424 C 0.26663 0.36276 0.72546 0.0
C425 C 0.27611 0.36267 0.70408 0.0
C426 C 0.27087 0.35127 0.68361 0.0
C427 C 0.25601 0.3398 0.68418 0.0
C428 C 0.24654 0.33999 0.70569 0.0
C429 C 0.25182 0.35137 0.72616 0.0
C430 C 0.29786 0.35475 0.75673 0.0
C431 C 0.31278 0.35563 0.74243 0.0
C432 C 0.32107 0.34021 0.73373 0.0
C433 C 0.31461 0.32368 0.73938 0.0
C434 C 0.30031 0.32301 0.75503 0.0
C435 C 0.29194 0.33844 0.7635 0.0
C436 C 0.30743 0.37657 0.80109 0.0
C437 C 0.32519 0.38203 0.79834 0.0
C438 C 0.33946 0.37574 0.81325 0.0
C439 C 0.33614 0.36386 0.83109 0.0
C440 C 0.3182 0.35877 0.83403 0.0
C441 C 0.304 0.36503 0.8191 0.0
C442 C 0.22849 0.4652 0.79827 0.0
C443 C 0.25037 0.32767 0.66247 0.0
H444 H 0.87699 0.35786 0.884 0.0
H445 H 0.81758 0.21786 0.68405 0.0
H446 H 0.81081 0.28758 0.89339 0.0
H447 H 0.80912 0.3106 0.92671 0.0
H448 H 0.76342 0.33308 0.88716 0.0
H449 H 0.76548 0.31012 0.85363 0.0
H450 H 0.84168 0.29007 0.85484 0.0
H451 H 0.86086 0.31551 0.86897 0.0
H452 H 0.81724 0.35024 0.84872 0.0
H453 H 0.79832 0.32469 0.83433 0.0
H454 H 0.84387 0.26549 0.80653 0.0
H455 H 0.86698 0.27648 0.78112 0.0
H456 H 0.83125 0.31843 0.76049 0.0
H457 H 0.80853 0.30753 0.78608 0.0
H458 H 0.81399 0.23156 0.80589 0.0
H459 H 0.82122 0.21235 0.77003 0.0
H460 H 0.804 0.25286 0.72224 0.0
H461 H 0.79662 0.27183 0.75821 0.0
H462 H 0.78074 0.23113 0.84456 0.0
H463 H 0.76567 0.2035 0.82924 0.0
H464 H 0.75041 0.22615 0.76047 0.0
H465 H 0.76458 0.25392 0.77654 0.0
H466 H 0.77557 0.26195 0.887 0.0
H467 H 0.74676 0.26039 0.90641 0.0
H468 H 0.7184 0.27334 0.83835 0.0
H469 H 0.74717 0.2753 0.8194 0.0
O470 O 0.86921 0.34799 0.87817 0.0
O471 O 0.84631 0.36527 0.86764 0.0
O472 O 0.82349 0.20477 0.7239 0.0
O473 O 0.81486 0.22519 0.69855 0.0
C474 C 0.79208 0.2858 0.84886 0.0
C475 C 0.80697 0.29002 0.83547 0.0
C476 C 0.81067 0.27972 0.81391 0.0
C477 C 0.80018 0.26454 0.80646 0.0
C478 C 0.78511 0.26038 0.81965 0.0
C479 C 0.78075 0.27135 0.84044 0.0
C480 C 0.78828 0.2972 0.87112 0.0
C481 C 0.80013 0.2972 0.89227 0.0
C482 C 0.79913 0.31037 0.91128 0.0
C483 C 0.78625 0.32378 0.90947 0.0
C484 C 0.77365 0.32307 0.88892 0.0
C485 C 0.77466 0.30986 0.8699 0.0
C486 C 0.8186 0.30555 0.84375 0.0
C487 C 0.83633 0.3032 0.85342 0.0
C488 C 0.84723 0.31775 0.86151 0.0
C489 C 0.84056 0.33492 0.86005 0.0
C490 C 0.82278 0.33721 0.85017 0.0
C491 C 0.81193 0.32264 0.84201 0.0
C492 C 0.82462 0.28578 0.79816 0.0
C493 C 0.84112 0.27702 0.79645 0.0
C494 C 0.85423 0.2833 0.78192 0.0
C495 C 0.851 0.29843 0.76897 0.0
C496 C 0.83433 0.30698 0.77062 0.0
C497 C 0.82129 0.30072 0.78508 0.0
C498 C 0.80488 0.2531 0.78464 0.0
C499 C 0.81181 0.23625 0.78765 0.0
C500 C 0.81593 0.22532 0.76714 0.0
C501 C 0.81321 0.23108 0.74325 0.0
C502 C 0.80629 0.24802 0.74036 0.0
C503 C 0.80213 0.25891 0.76087 0.0
C504 C 0.77397 0.24447 0.81155 0.0
C505 C 0.77378 0.23021 0.8264 0.0
C506 C 0.76533 0.21436 0.81748 0.0
C507 C 0.75701 0.21244 0.79344 0.0
C508 C 0.7565 0.22711 0.77912 0.0
C509 C 0.76476 0.24298 0.78817 0.0
C510 C 0.76343 0.26878 0.85183 0.0
C511 C 0.7631 0.26433 0.87631 0.0
C512 C 0.74665 0.26336 0.88729 0.0
C513 C 0.73033 0.26687 0.87394 0.0
C514 C 0.73076 0.27083 0.84922 0.0
C515 C 0.74715 0.2718 0.8383 0.0
C516 C 0.85214 0.35034 0.86881 0.0
C517 C 0.81752 0.21951 0.7214 0.0
H518 H 0.91629 0.69471 0.82452 0.0
H519 H 0.74262 0.71134 0.95227 0.0
H520 H 0.85593 0.76849 0.82291 0.0
H521 H 0.87539 0.77216 0.7892 0.0
H522 H 0.83178 0.75422 0.73671 0.0
H523 H 0.81255 0.75014 0.77073 0.0
H524 H 0.85923 0.74006 0.86164 0.0
H525 H 0.88606 0.72288 0.85238 0.0
H526 H 0.85824 0.70085 0.78485 0.0
H527 H 0.83144 0.71796 0.79448 0.0
H528 H 0.83026 0.73942 0.90194 0.0
H529 H 0.83668 0.71541 0.92866 0.0
H530 H 0.82238 0.67758 0.86749 0.0
H531 H 0.81597 0.70168 0.84093 0.0
H532 H 0.79795 0.76604 0.90255 0.0
H533 H 0.78008 0.7591 0.93676 0.0
H534 H 0.76303 0.71005 0.89697 0.0
H535 H 0.78077 0.71727 0.86277 0.0
H536 H 0.79385 0.7945 0.86331 0.0
H537 H 0.76686 0.81011 0.87632 0.0
H538 H 0.7342 0.76423 0.85214 0.0
H539 H 0.76119 0.74879 0.83914 0.0
H540 H 0.82463 0.79532 0.82338 0.0
H541 H 0.81509 0.821 0.80164 0.0
H542 H 0.76604 0.79343 0.77367 0.0
H543 H 0.77616 0.76753 0.79454 0.0
O544 O 0.90552 0.70134 0.82786 0.0
O545 O 0.89065 0.69047 0.7933 0.0
O546 O 0.75885 0.73985 0.95862 0.0
O547 O 0.74978 0.71443 0.939 0.0
C548 C 0.82194 0.75477 0.8199 0.0
C549 C 0.82719 0.74075 0.83436 0.0
C550 C 0.81701 0.73675 0.8542 0.0
C551 C 0.80139 0.7465 0.85938 0.0
C552 C 0.796 0.76039 0.84479 0.0
C553 C 0.80635 0.76459 0.82513 0.0
C554 C 0.83287 0.759 0.79925 0.0
C555 C 0.85054 0.76554 0.80411 0.0
C556 C 0.8616 0.7677 0.78481 0.0
C557 C 0.85516 0.76341 0.76025 0.0
C558 C 0.83722 0.75741 0.75543 0.0
C559 C 0.82616 0.75524 0.77478 0.0
C560 C 0.84342 0.73024 0.82874 0.0
C561 C 0.85895 0.73145 0.84492 0.0
C562 C 0.87426 0.72166 0.83955 0.0
C563 C 0.8743 0.7105 0.81786 0.0
C564 C 0.85867 0.70932 0.80169 0.0
C565 C 0.84336 0.71909 0.80712 0.0
C566 C 0.82257 0.72224 0.8696 0.0
C567 C 0.8287 0.72593 0.89431 0.0
C568 C 0.8323 0.71224 0.9095 0.0
C569 C 0.82994 0.69465 0.90015 0.0
C570 C 0.8245 0.69101 0.87511 0.0
C571 C 0.82079 0.70472 0.85996 0.0
C572 C 0.79064 0.74216 0.88021 0.0
C573 C 0.7903 0.75383 0.90125 0.0
C574 C 0.78011 0.74982 0.92077 0.0
C575 C 0.77012 0.734 0.9196 0.0
C576 C 0.77056 0.72232 0.89848 0.0
C577 C 0.78071 0.72639 0.87895 0.0
C578 C 0.77948 0.77049 0.85039 0.0
C579 C 0.78081 0.78795 0.86048 0.0
C580 C 0.7654 0.79683 0.86787 0.0
C581 C 0.74844 0.78833 0.86544 0.0
C582 C 0.74711 0.77103 0.85459 0.0
C583 C 0.76248 0.76222 0.84706 0.0
C584 C 0.80108 0.77961 0.81052 0.0
C585 C 0.81198 0.79476 0.81221 0.0
C586 C 0.80639 0.80947 0.80002 0.0
C587 C 0.78971 0.80933 0.78611 0.0
C588 C 0.77903 0.79393 0.78402 0.0
C589 C 0.78471 0.77917 0.79605 0.0
C590 C 0.8906 0.70014 0.81218 0.0
C591 C 0.75928 0.72967 0.94029 0.0
C592 C 0.03174 0.39784 0.56097 0.0
C593 C 0.03435 0.4149 0.57136 0.0
C594 C 0.01875 0.42382 0.56584 0.0
C595 C 0.00754 0.41175 0.55244 0.0
N596 N 0.01516 0.39583 0.5492 0.0
Co597 Co 0.00398 0.37467 0.53088 0.0
N598 N 0.98579 0.38907 0.51325 0.0
C599 C 0.98156 0.40588 0.51974 0.0
C600 C 0.96834 0.41243 0.50422 0.0
C601 C 0.96376 0.39884 0.48711 0.0
C602 C 0.9744 0.38464 0.49327 0.0
N603 N 0.99277 0.35339 0.51281 0.0
C604 C 0.98075 0.35191 0.49296 0.0
C605 C 0.97594 0.33438 0.48695 0.0
C606 C 0.98504 0.32469 0.50388 0.0
C607 C 0.99489 0.33673 0.51925 0.0
N608 N 0.02219 0.36038 0.54855 0.0
C609 C 0.02108 0.34305 0.55147 0.0
C610 C 0.0359 0.33686 0.56453 0.0
C611 C 0.04698 0.35125 0.57021 0.0
C612 C 0.03821 0.36543 0.56025 0.0
N613 N 0.98769 0.37234 0.55717 0.0
C614 C 0.96541 0.36448 0.59433 0.0
C615 C 0.98343 0.36965 0.60007 0.0
C616 C 0.99431 0.37359 0.58125 0.0
C617 C 0.95854 0.3643 0.56977 0.0
C618 C 0.96986 0.36829 0.55153 0.0
N619 N 0.0204 0.37683 0.50477 0.0
C620 C 0.04229 0.36359 0.47883 0.0
C621 C 0.04689 0.38009 0.47124 0.0
C622 C 0.03748 0.39487 0.48013 0.0
C623 C 0.02418 0.39293 0.49673 0.0
C624 C 0.02908 0.36226 0.49559 0.0
H625 H 0.01729 0.40452 0.50354 0.0
H626 H 0.02629 0.34946 0.50172 0.0
H627 H 0.00827 0.37701 0.58611 0.0
H628 H 0.96425 0.36752 0.53278 0.0
C629 C 0.99167 0.41562 0.53866 0.0
C630 C 0.04481 0.38364 0.56353 0.0
C631 C 0.97162 0.36673 0.48171 0.0
C632 C 0.00778 0.3327 0.5379 0.0
H633 H 0.0463 0.42034 0.58171 0.0
H634 H 0.01625 0.43766 0.57003 0.0
H635 H 0.96289 0.4256 0.50499 0.0
H636 H 0.9534 0.39917 0.4722 0.0
H637 H 0.96639 0.32915 0.47235 0.0
H638 H 0.98468 0.31054 0.50469 0.0
H639 H 0.03871 0.3234 0.56849 0.0
H640 H 0.05997 0.3513 0.58049 0.0
H641 H 0.98934 0.36995 0.6188 0.0
H642 H 0.94457 0.36079 0.56457 0.0
H643 H 0.04934 0.35185 0.47259 0.0
H644 H 0.04049 0.40784 0.47448 0.0
C645 C 0.70863 0.03575 0.65308 0.0
C646 C 0.69237 0.03938 0.6635 0.0
C647 C 0.67985 0.02801 0.65169 0.0
C648 C 0.68915 0.01803 0.63494 0.0
N649 N 0.70691 0.02224 0.63546 0.0
Co650 Co 0.72543 0.01085 0.6145 0.0
N651 N 0.70662 0.99547 0.59528 0.0
C652 C 0.6886 0.99567 0.59776 0.0
C653 C 0.67909 0.98371 0.58187 0.0
C654 C 0.69179 0.9753 0.56849 0.0
C655 C 0.70839 0.98259 0.57714 0.0
N656 N 0.74408 0.99898 0.59416 0.0
C657 C 0.74236 0.98539 0.57668 0.0
C658 C 0.75896 0.98045 0.56815 0.0
C659 C 0.77163 0.99124 0.58075 0.0
C660 C 0.76212 0.00204 0.59625 0.0
N661 N 0.74414 0.02673 0.63303 0.0
C662 C 0.76199 0.02736 0.62935 0.0
C663 C 0.77126 0.04047 0.64341 0.0
C664 C 0.75857 0.04893 0.65668 0.0
C665 C 0.74221 0.04032 0.65011 0.0
N666 N 0.7294 0.99279 0.63866 0.0
C667 C 0.73565 0.96493 0.66914 0.0
C668 C 0.74977 0.97592 0.66398 0.0
C669 C 0.74638 0.98965 0.64879 0.0
C670 C 0.71823 0.96852 0.65968 0.0
C671 C 0.7154 0.98252 0.6448 0.0
N672 N 0.72147 0.02888 0.59036 0.0
C673 C 0.7335 0.04926 0.56363 0.0
C674 C 0.71645 0.05654 0.5592 0.0
C675 C 0.70182 0.04927 0.56987 0.0
C676 C 0.7046 0.0355 0.58519 0.0
C677 C 0.73568 0.03556 0.57911 0.0
H678 H 0.69295 0.03064 0.59298 0.0
H679 H 0.74906 0.03077 0.58194 0.0
H680 H 0.7578 0.99726 0.64513 0.0
H681 H 0.70182 0.98457 0.63816 0.0
C682 C 0.68127 0.006 0.61677 0.0
C683 C 0.72514 0.04592 0.65992 0.0
C684 C 0.72546 0.97645 0.56806 0.0
C685 C 0.76967 0.01547 0.61249 0.0
H686 H 0.68976 0.04949 0.67777 0.0
H687 H 0.66554 0.02749 0.65441 0.0
H688 H 0.6647 0.98106 0.58067 0.0
H689 H 0.6892 0.96474 0.5543 0.0
H690 H 0.76167 0.97 0.55441 0.0
H691 H 0.78607 0.99117 0.57889 0.0
H692 H 0.7855 0.04369 0.64367 0.0
H693 H 0.76111 0.06035 0.66941 0.0
H694 H 0.76352 0.97357 0.67088 0.0
H695 H 0.70684 0.96047 0.66359 0.0
H696 H 0.74519 0.05415 0.55527 0.0
H697 H 0.68834 0.05448 0.567 0.0
C698 C 0.04864 0.80999 0.55398 0.0
C699 C 0.0515 0.82688 0.56496 0.0
C700 C 0.03882 0.83733 0.55426 0.0
C701 C 0.02901 0.82632 0.53739 0.0
N702 N 0.0346 0.8094 0.53669 0.0
Co703 Co 0.02423 0.78905 0.51471 0.0
N704 N 0.00577 0.80454 0.49883 0.0
C705 C 0.00421 0.82219 0.50276 0.0
C706 C 0.98992 0.82902 0.48944 0.0
C707 C 0.98165 0.81485 0.47657 0.0
C708 C 0.9914 0.80016 0.48293 0.0
N709 N 0.01356 0.76867 0.49307 0.0
C710 C 0.99819 0.76772 0.4781 0.0
C711 C 0.99488 0.75076 0.46768 0.0
C712 C 0.00853 0.74058 0.47659 0.0
C713 C 0.01929 0.75182 0.49197 0.0
N714 N 0.04283 0.77359 0.53038 0.0
C715 C 0.0452 0.75618 0.52496 0.0
C716 C 0.0592 0.74918 0.53861 0.0
C717 C 0.06633 0.76296 0.55353 0.0
C718 C 0.05624 0.77764 0.54801 0.0
N719 N 0.00728 0.78416 0.54002 0.0
C720 C 0.98321 0.77761 0.5762 0.0
C721 C 0.99307 0.76395 0.56519 0.0
C722 C 0.00498 0.76749 0.54729 0.0
C723 C 0.98548 0.79453 0.56856 0.0
C724 C 0.99744 0.79747 0.55063 0.0
N725 N 0.04132 0.79405 0.48935 0.0
C726 C 0.06295 0.78426 0.45999 0.0
C727 C 0.06714 0.80163 0.45579 0.0
C728 C 0.05785 0.81507 0.4681 0.0
C729 C 0.04508 0.81103 0.48449 0.0
C730 C 0.05015 0.7808 0.47679 0.0
H731 H 0.03861 0.82196 0.4931 0.0
H732 H 0.04783 0.76732 0.47951 0.0
H733 H 0.0122 0.75658 0.5396 0.0
H734 H 0.99845 0.81065 0.54558 0.0
C735 C 0.01506 0.83164 0.52112 0.0
C736 C 0.06011 0.79514 0.55979 0.0
C737 C 0.98581 0.78225 0.47465 0.0
C738 C 0.03397 0.74673 0.5071 0.0
H739 H 0.06188 0.8313 0.57894 0.0
H740 H 0.03719 0.85136 0.55798 0.0
H741 H 0.98555 0.84256 0.48988 0.0
H742 H 0.96948 0.81519 0.46451 0.0
H743 H 0.98349 0.74608 0.45552 0.0
H744 H 0.01003 0.72651 0.47307 0.0
H745 H 0.06371 0.73567 0.53778 0.0
H746 H 0.07773 0.7623 0.56689 0.0
H747 H 0.99183 0.75062 0.57061 0.0
H748 H 0.97788 0.8055 0.57617 0.0
H749 H 0.06984 0.7734 0.45085 0.0
H750 H 0.06036 0.82873 0.46505 0.0
C751 C 0.31636 0.11381 0.52324 0.0
C752 C 0.33262 0.10487 0.52445 0.0
C753 C 0.34348 0.11244 0.50887 0.0
C754 C 0.33328 0.12551 0.49909 0.0
N755 N 0.31663 0.12695 0.50772 0.0
Co756 Co 0.29708 0.14356 0.49725 0.0
N757 N 0.31271 0.15409 0.47331 0.0
C758 C 0.33007 0.14996 0.46949 0.0
C759 C 0.3377 0.16002 0.45306 0.0
C760 C 0.32451 0.1714 0.44608 0.0
C761 C 0.30944 0.16753 0.45857 0.0
N762 N 0.27731 0.15975 0.48626 0.0
C763 C 0.27713 0.1722 0.46965 0.0
C764 C 0.26031 0.18004 0.46698 0.0
C765 C 0.24961 0.1726 0.48282 0.0
C766 C 0.26037 0.16056 0.49406 0.0
N767 N 0.2816 0.1334 0.52167 0.0
C768 C 0.26466 0.13834 0.52671 0.0
C769 C 0.25733 0.12888 0.54407 0.0
C770 C 0.27029 0.11708 0.55041 0.0
C771 C 0.28486 0.12005 0.5365 0.0
N772 N 0.30625 0.16168 0.52308 0.0
C773 C 0.31908 0.18742 0.55979 0.0
C774 C 0.30059 0.18476 0.55427 0.0
C775 C 0.29453 0.17191 0.53608 0.0
C776 C 0.33108 0.17695 0.54673 0.0
C777 C 0.32443 0.16432 0.5285 0.0
N778 N 0.28797 0.12531 0.47162 0.0
C779 C 0.2643 0.10512 0.45502 0.0
C780 C 0.27638 0.09576 0.44061 0.0
C781 C 0.29407 0.10214 0.44077 0.0
C782 C 0.29951 0.11688 0.45619 0.0
C783 C 0.2703 0.11981 0.47014 0.0
H784 H 0.31326 0.12085 0.45588 0.0
H785 H 0.26051 0.1262 0.48095 0.0
H786 H 0.28028 0.1705 0.53293 0.0
H787 H 0.33428 0.15692 0.51905 0.0
C788 C 0.33886 0.13656 0.48165 0.0
C789 C 0.30104 0.1092 0.53704 0.0
C790 C 0.29257 0.17735 0.45639 0.0
C791 C 0.25535 0.15068 0.51312 0.0
H792 H 0.3362 0.09393 0.53534 0.0
H793 H 0.35712 0.10873 0.50495 0.0
H794 H 0.35132 0.15931 0.44708 0.0
H795 H 0.32593 0.18156 0.43346 0.0
H796 H 0.25624 0.19027 0.45504 0.0
H797 H 0.23574 0.17582 0.48611 0.0
H798 H 0.24392 0.12999 0.55066 0.0
H799 H 0.26893 0.10709 0.56331 0.0
H800 H 0.29077 0.1924 0.56419 0.0
H801 H 0.34555 0.17866 0.55029 0.0
H802 H 0.25032 0.10095 0.45498 0.0
H803 H 0.30394 0.09537 0.42987 0.0
C804 C 0.55375 0.8768 0.05338 0.0
C805 C 0.5619 0.8914 0.06634 0.0
C806 C 0.5583 0.90539 0.05259 0.0
C807 C 0.54816 0.89858 0.03216 0.0
N808 N 0.54497 0.88107 0.03208 0.0
Co809 Co 0.53086 0.86582 0.00599 0.0
N810 N 0.52582 0.88636 0.98566 0.0
C811 C 0.53217 0.90302 0.99022 0.0
C812 C 0.52548 0.91435 0.97348 0.0
C813 C 0.51388 0.90441 0.95759 0.0
C814 C 0.51421 0.88757 0.96564 0.0
N815 N 0.51643 0.85067 0.98012 0.0
C816 C 0.50574 0.85543 0.96068 0.0
C817 C 0.49702 0.84106 0.94796 0.0
C818 C 0.50208 0.82667 0.96016 0.0
C819 C 0.51351 0.8331 0.97955 0.0
N820 N 0.53599 0.8452 0.02615 0.0
C821 C 0.53089 0.82824 0.02034 0.0
C822 C 0.53682 0.81696 0.03752 0.0
C823 C 0.54642 0.82726 0.0553 0.0
C824 C 0.54574 0.84434 0.04793 0.0
N825 N 0.50847 0.87073 0.02308 0.0
C826 C 0.47581 0.87767 0.04542 0.0
C827 C 0.48082 0.86046 0.03846 0.0
C828 C 0.49703 0.85732 0.02742 0.0
C829 C 0.4876 0.89134 0.04128 0.0
C830 C 0.50374 0.88761 0.03022 0.0
N831 N 0.55338 0.86088 0.98882 0.0
C832 C 0.57323 0.84014 0.96867 0.0
C833 C 0.58636 0.85317 0.96741 0.0
C834 C 0.58246 0.87026 0.97639 0.0
C835 C 0.56603 0.8738 0.98686 0.0
C836 C 0.55705 0.84423 0.97931 0.0
H837 H 0.56404 0.88705 0.99353 0.0
H838 H 0.54785 0.8336 0.9798 0.0
H839 H 0.5 0.84393 0.02242 0.0
H840 H 0.51212 0.89859 0.02738 0.0
C841 C 0.54219 0.90809 0.01222 0.0
C842 C 0.55519 0.8591 0.06174 0.0
C843 C 0.50226 0.87349 0.95497 0.0
C844 C 0.52046 0.8233 0.99863 0.0
H845 H 0.56982 0.89182 0.08378 0.0
H846 H 0.5628 0.91887 0.05679 0.0
H847 H 0.52793 0.92837 0.97365 0.0
H848 H 0.50557 0.90913 0.9424 0.0
H849 H 0.48748 0.84109 0.93206 0.0
H850 H 0.49735 0.81326 0.95605 0.0
H851 H 0.53455 0.8029 0.03707 0.0
H852 H 0.55334 0.82266 0.0717 0.0
H853 H 0.47235 0.84936 0.04171 0.0
H854 H 0.48428 0.90492 0.04616 0.0
H855 H 0.57539 0.82675 0.96145 0.0
H856 H 0.5922 0.88084 0.97594 0.0
C857 C 0.20753 0.65999 0.01518 0.0
C858 C 0.18896 0.66251 0.01327 0.0
C859 C 0.18236 0.65259 0.99281 0.0
C860 C 0.19718 0.64471 0.98332 0.0
N861 N 0.2129 0.64896 0.9965 0.0
Co862 Co 0.23773 0.64092 0.98877 0.0
N863 N 0.22781 0.62565 0.95947 0.0
C864 C 0.21042 0.62413 0.95041 0.0
C865 C 0.20771 0.61162 0.93113 0.0
C866 C 0.22429 0.6044 0.92811 0.0
C867 C 0.23615 0.61302 0.94577 0.0
N868 N 0.26252 0.63285 0.98098 0.0
C869 C 0.2674 0.61955 0.96508 0.0
C870 C 0.28597 0.61736 0.966 0.0
C871 C 0.2931 0.62953 0.98365 0.0
C872 C 0.2785 0.63836 0.99239 0.0
N873 N 0.24771 0.65593 0.01828 0.0
C874 C 0.2653 0.65803 0.02638 0.0
C875 C 0.26793 0.66849 0.04781 0.0
C876 C 0.25104 0.67344 0.05375 0.0
C877 C 0.23901 0.66582 0.03535 0.0
N878 N 0.23549 0.6208 0.00965 0.0
C879 C 0.23331 0.59118 0.03774 0.0
C880 C 0.24883 0.60178 0.03942 0.0
C881 C 0.24963 0.61635 0.02539 0.0
C882 C 0.21873 0.59591 0.02197 0.0
C883 C 0.22009 0.61065 0.0082 0.0
N884 N 0.24009 0.66116 0.96766 0.0
C885 C 0.25736 0.68581 0.95543 0.0
C886 C 0.24378 0.68977 0.93774 0.0
C887 C 0.22822 0.6792 0.93545 0.0
C888 C 0.22668 0.66513 0.95041 0.0
C889 C 0.25525 0.67168 0.97 0.0
H890 H 0.21449 0.65768 0.94756 0.0
H891 H 0.26612 0.66965 0.9831 0.0
H892 H 0.2619 0.62377 0.02745 0.0
H893 H 0.20864 0.61352 0.99627 0.0
C894 C 0.19673 0.63315 0.96221 0.0
C895 C 0.21952 0.6687 0.03469 0.0
C896 C 0.25481 0.6078 0.95039 0.0
C897 C 0.27907 0.64983 0.01361 0.0
H898 H 0.18098 0.67075 0.02527 0.0
H899 H 0.16841 0.65133 0.98565 0.0
H900 H 0.19503 0.60758 0.92133 0.0
H901 H 0.2272 0.59355 0.91511 0.0
H902 H 0.29344 0.6075 0.95572 0.0
H903 H 0.30713 0.631 0.99036 0.0
H904 H 0.28061 0.67201 0.05799 0.0
H905 H 0.24796 0.68174 0.06983 0.0
H906 H 0.26038 0.59896 0.05169 0.0
H907 H 0.20643 0.58809 0.01984 0.0
H908 H 0.26956 0.69376 0.95835 0.0
H909 H 0.21731 0.68158 0.92192 0.0
C910 C 0.49082 0.31217 0.00059 0.0
C911 C 0.48922 0.32967 0.99519 0.0
C912 C 0.50038 0.33921 0.01205 0.0
C913 C 0.50809 0.32709 0.02677 0.0
N914 N 0.50263 0.31033 0.02028 0.0
Co915 Co 0.51027 0.28866 0.03698 0.0
N916 N 0.52583 0.30292 0.06262 0.0
C917 C 0.52763 0.32065 0.06517 0.0
C918 C 0.53916 0.32665 0.08467 0.0
C919 C 0.54528 0.31187 0.09506 0.0
C920 C 0.53717 0.29766 0.08111 0.0
N921 N 0.51827 0.26696 0.05341 0.0
C922 C 0.53076 0.2651 0.07236 0.0
C923 C 0.53305 0.24757 0.07713 0.0
C924 C 0.52168 0.23799 0.06054 0.0
C925 C 0.5132 0.25014 0.04656 0.0
N926 N 0.49439 0.27445 0.01161 0.0
C927 C 0.49182 0.2568 0.00988 0.0
C928 C 0.47974 0.25088 0.99096 0.0
C929 C 0.47406 0.26564 0.9801 0.0
C930 C 0.48303 0.27977 0.99312 0.0
N931 N 0.53099 0.28602 0.01588 0.0
C932 C 0.5623 0.2814 0.98974 0.0
C933 C 0.55018 0.2675 0.99112 0.0
C934 C 0.5347 0.2701 0.00405 0.0
C935 C 0.55814 0.29782 0.0009 0.0
C936 C 0.54253 0.29983 0.01374 0.0
N937 N 0.4896 0.29124 0.05827 0.0
C938 C 0.46531 0.2783 0.07858 0.0
C939 C 0.46036 0.29479 0.08871 0.0
C940 C 0.47026 0.30947 0.08325 0.0
C941 C 0.48469 0.30742 0.06816 0.0
C942 C 0.4798 0.27685 0.06351 0.0
H943 H 0.4916 0.31914 0.06471 0.0
H944 H 0.48278 0.26393 0.05637 0.0
H945 H 0.52609 0.25896 0.00451 0.0
H946 H 0.54028 0.31259 0.02219 0.0
C947 C 0.51941 0.33121 0.04788 0.0
C948 C 0.4801 0.29797 0.98737 0.0
C949 C 0.54129 0.27943 0.08555 0.0
C950 C 0.50089 0.24615 0.02639 0.0
H951 H 0.48055 0.33509 0.98094 0.0
H952 H 0.50223 0.35335 0.01382 0.0
H953 H 0.54303 0.34014 0.09024 0.0
H954 H 0.55492 0.31158 0.11082 0.0
H955 H 0.54224 0.24222 0.09087 0.0
H956 H 0.52009 0.22382 0.05855 0.0
H957 H 0.47545 0.23745 0.98581 0.0
H958 H 0.46431 0.26601 0.96446 0.0
H959 H 0.55263 0.25461 0.9823 0.0
H960 H 0.56715 0.30899 0.00038 0.0
H961 H 0.4582 0.26648 0.08244 0.0
H962 H 0.46678 0.32259 0.09028 0.0
C963 C 0.79608 0.54326 0.15432 0.0
C964 C 0.77984 0.55107 0.15997 0.0
C965 C 0.7666 0.54229 0.14539 0.0
C966 C 0.77546 0.52968 0.13175 0.0
N967 N 0.79357 0.52974 0.13686 0.0
Co968 Co 0.81166 0.51379 0.12113 0.0
N969 N 0.79229 0.50176 0.09834 0.0
C970 C 0.77443 0.50548 0.09694 0.0
C971 C 0.76441 0.49483 0.07983 0.0
C972 C 0.77653 0.48354 0.06974 0.0
C973 C 0.79335 0.48802 0.0813 0.0
N974 N 0.82969 0.49763 0.10564 0.0
C975 C 0.82715 0.48407 0.08821 0.0
C976 C 0.84331 0.47592 0.08307 0.0
C977 C 0.85652 0.48448 0.09801 0.0
C978 C 0.84772 0.49732 0.11133 0.0
N979 N 0.83105 0.52605 0.14365 0.0
C980 C 0.84894 0.52256 0.14479 0.0
C981 C 0.85898 0.5336 0.16142 0.0
C982 C 0.84681 0.54496 0.17133 0.0
C983 C 0.83 0.54016 0.16011 0.0
N984 N 0.80805 0.49643 0.14577 0.0
C985 C 0.80293 0.46928 0.17699 0.0
C986 C 0.82026 0.47527 0.17323 0.0
C987 C 0.82249 0.48881 0.15777 0.0
C988 C 0.7882 0.4776 0.16569 0.0
C989 C 0.79104 0.49107 0.15038 0.0
N990 N 0.81529 0.53108 0.09643 0.0
C991 C 0.8351 0.54754 0.07294 0.0
C992 C 0.82043 0.55645 0.06253 0.0
C993 C 0.80314 0.55228 0.06906 0.0
C994 C 0.80089 0.53962 0.08583 0.0
C995 C 0.83225 0.53503 0.08977 0.0
H996 H 0.78738 0.53705 0.08999 0.0
H997 H 0.84398 0.52886 0.09729 0.0
H998 H 0.83603 0.49266 0.1555 0.0
H999 H 0.77926 0.49664 0.14206 0.0
C1000 C 0.76729 0.51837 0.11294 0.0
C1001 C 0.81354 0.54967 0.16529 0.0
C1002 C 0.80976 0.47832 0.07618 0.0
C1003 C 0.85597 0.50914 0.12951 0.0
H1004 H 0.77781 0.5622 0.17294 0.0
H1005 H 0.75228 0.54507 0.14439 0.0
H1006 H 0.74994 0.49498 0.07563 0.0
H1007 H 0.77326 0.47297 0.05581 0.0
H1008 H 0.84531 0.46486 0.06997 0.0
H1009 H 0.87081 0.48158 0.09919 0.0
H1010 H 0.87345 0.53356 0.16556 0.0
H1011 H 0.84995 0.55572 0.18504 0.0
H1012 H 0.83209 0.46946 0.18202 0.0
H1013 H 0.77448 0.47336 0.16792 0.0
H1014 H 0.84876 0.55045 0.06853 0.0
H1015 H 0.79133 0.55866 0.06113 0.0
H1016 H 0.18201 0.40891 0.34106 0.0
H1017 H 0.15613 0.41004 0.36668 0.0
H1018 H 0.15991 0.35412 0.3734 0.0
H1019 H 0.18599 0.3529 0.34799 0.0
H1020 H 0.12284 0.39003 0.35562 0.0
H1021 H 0.15782 0.37648 0.44558 0.0
H1022 H 0.16966 0.38414 0.42045 0.0
H1023 H 0.16261 0.36154 0.41982 0.0
C1024 C 0.17753 0.3969 0.34835 0.0
C1025 C 0.1861 0.38082 0.34268 0.0
C1026 C 0.16269 0.39756 0.36282 0.0
C1027 C 0.15625 0.3822 0.37207 0.0
C1028 C 0.16484 0.36615 0.36665 0.0
H1029 H 0.05378 0.35955 0.42981 0.0
H1030 H 0.08012 0.36101 0.40523 0.0
C1031 C 0.17964 0.36545 0.35203 0.0
C1032 C 0.14011 0.38289 0.38658 0.0
H1033 H 0.1258 0.37696 0.4436 0.0
C1034 C 0.12346 0.38723 0.37487 0.0
C1035 C 0.14107 0.37939 0.41171 0.0
C1036 C 0.15875 0.37525 0.42529 0.0
C1037 C 0.10762 0.38782 0.38759 0.0
C1038 C 0.1085 0.38388 0.41255 0.0
C1039 C 0.12521 0.37989 0.42439 0.0
C1040 C 0.09218 0.38358 0.42664 0.0
C1041 C 0.09008 0.39274 0.37431 0.0
C1042 C 0.09032 0.39577 0.44682 0.0
C1043 C 0.07529 0.39498 0.46087 0.0
C1044 C 0.06201 0.38184 0.45512 0.0
C1045 C 0.06385 0.36977 0.43472 0.0
C1046 C 0.0788 0.37065 0.42059 0.0
H1047 H 0.09232 0.39903 0.357 0.0
H1048 H 0.08175 0.38069 0.36954 0.0
H1049 H 0.08228 0.40187 0.38629 0.0
H1050 H 0.10058 0.40578 0.45183 0.0
H1051 H 0.07436 0.40429 0.47669 0.0
H1052 H 0.74826 0.18474 0.43935 0.0
H1053 H 0.7423 0.16058 0.46504 0.0
H1054 H 0.68625 0.15978 0.4383 0.0
H1055 H 0.69212 0.18394 0.41235 0.0
H1056 H 0.7108 0.16092 0.5018 0.0
H1057 H 0.70999 0.10755 0.42612 0.0
H1058 H 0.72257 0.12773 0.42449 0.0
H1059 H 0.69839 0.12789 0.42121 0.0
C1060 C 0.73469 0.17935 0.43885 0.0
C1061 C 0.72066 0.18612 0.42382 0.0
C1062 C 0.7313 0.16567 0.45359 0.0
C1063 C 0.71388 0.15847 0.45338 0.0
C1064 C 0.69978 0.16523 0.43857 0.0
H1065 H 0.68895 0.06272 0.52478 0.0
H1066 H 0.68549 0.08821 0.49997 0.0
C1067 C 0.70314 0.17902 0.42391 0.0
C1068 C 0.71066 0.14379 0.46867 0.0
H1069 H 0.70832 0.09903 0.46647 0.0
C1070 C 0.71003 0.14738 0.49414 0.0
C1071 C 0.7095 0.12625 0.45841 0.0
C1072 C 0.71017 0.12195 0.43106 0.0
C1073 C 0.70878 0.13373 0.50984 0.0
C1074 C 0.70864 0.11609 0.49976 0.0
C1075 C 0.70849 0.11257 0.47413 0.0
C1076 C 0.7101 0.10113 0.51555 0.0
C1077 C 0.70778 0.13833 0.53708 0.0
C1078 C 0.72516 0.09993 0.53229 0.0
C1079 C 0.72709 0.08553 0.54656 0.0
C1080 C 0.71413 0.0719 0.54413 0.0
C1081 C 0.69906 0.0731 0.52727 0.0
C1082 C 0.6971 0.08759 0.51302 0.0
H1083 H 0.70198 0.15162 0.54067 0.0
H1084 H 0.69948 0.12859 0.54564 0.0
H1085 H 0.72162 0.13846 0.54619 0.0
H1086 H 0.73556 0.11004 0.53411 0.0
H1087 H 0.73874 0.08511 0.55958 0.0
H1088 H 0.82569 0.74289 0.37425 0.0
H1089 H 0.85658 0.74269 0.39329 0.0
H1090 H 0.85153 0.7972 0.4191 0.0
H1091 H 0.82082 0.79752 0.39985 0.0
H1092 H 0.88176 0.79125 0.39465 0.0
H1093 H 0.87621 0.7425 0.46468 0.0
H1094 H 0.86842 0.73451 0.434 0.0
H1095 H 0.85668 0.75217 0.44955 0.0
C1096 C 0.83108 0.7547 0.38442 0.0
C1097 C 0.82093 0.77024 0.38553 0.0
C1098 C 0.8487 0.75457 0.39531 0.0
C1099 C 0.85629 0.7699 0.40778 0.0
C1100 C 0.84593 0.78524 0.40955 0.0
H1101 H 0.95546 0.78488 0.49953 0.0
H1102 H 0.92403 0.78103 0.48272 0.0
C1103 C 0.82843 0.78542 0.39852 0.0
C1104 C 0.87544 0.77045 0.41747 0.0
H1105 H 0.9058 0.75232 0.45795 0.0
C1106 C 0.88702 0.78275 0.40852 0.0
C1107 C 0.88221 0.75943 0.43567 0.0
C1108 C 0.87022 0.74651 0.44674 0.0
C1109 C 0.90518 0.78439 0.4173 0.0
C1110 C 0.91206 0.77312 0.4351 0.0
C1111 C 0.90051 0.76081 0.4441 0.0
C1112 C 0.93105 0.77444 0.4453 0.0
C1113 C 0.91669 0.79852 0.40791 0.0
C1114 C 0.94536 0.77174 0.42988 0.0
C1115 C 0.96324 0.77407 0.43942 0.0
C1116 C 0.967 0.77884 0.46455 0.0
C1117 C 0.95275 0.78113 0.48008 0.0
C1118 C 0.93488 0.7789 0.47053 0.0
H1119 H 0.90833 0.80876 0.39926 0.0
H1120 H 0.92567 0.80499 0.42305 0.0
H1121 H 0.92529 0.79247 0.39378 0.0
H1122 H 0.94269 0.76802 0.41043 0.0
H1123 H 0.97411 0.77233 0.4272 0.0
H1124 H 0.22065 0.94637 0.32951 0.0
H1125 H 0.22331 0.97494 0.3533 0.0
H1126 H 0.28095 0.97472 0.34707 0.0
H1127 H 0.27844 0.94641 0.32312 0.0
H1128 H 0.27005 0.98465 0.39515 0.0
H1129 H 0.23443 0.02175 0.32248 0.0
H1130 H 0.22252 0.003 0.3318 0.0
H1131 H 0.24301 0.99984 0.31637 0.0
C1132 C 0.23388 0.95243 0.33324 0.0
C1133 C 0.24933 0.94412 0.32448 0.0
C1134 C 0.23536 0.96872 0.34678 0.0
C1135 C 0.25229 0.97697 0.35165 0.0
C1136 C 0.26777 0.96852 0.3435 0.0
H1137 H 0.28484 0.08392 0.39417 0.0
H1138 H 0.27795 0.05497 0.37306 0.0
C1139 C 0.26631 0.95229 0.32997 0.0
C1140 C 0.25402 0.99457 0.36491 0.0
H1141 H 0.24388 0.03786 0.35975 0.0
C1142 C 0.26425 0.99629 0.38753 0.0
C1143 C 0.24662 0.00969 0.35465 0.0
C1144 C 0.23614 0.00861 0.3299 0.0
C1145 C 0.26733 0.0128 0.40022 0.0
C1146 C 0.25977 0.02791 0.39009 0.0
C1147 C 0.24951 0.02619 0.36749 0.0
C1148 C 0.26296 0.04569 0.40233 0.0
C1149 C 0.27908 0.01402 0.42398 0.0
C1150 C 0.25647 0.05011 0.42549 0.0
C1151 C 0.26045 0.06656 0.43763 0.0
C1152 C 0.27093 0.07891 0.42674 0.0
C1153 C 0.27693 0.07461 0.40316 0.0
C1154 C 0.27292 0.05815 0.39103 0.0
H1155 H 0.28698 0.00184 0.42641 0.0
H1156 H 0.2886 0.02536 0.42464 0.0
H1157 H 0.2704 0.01606 0.43972 0.0
H1158 H 0.24856 0.04072 0.43434 0.0
H1159 H 0.25578 0.06939 0.45588 0.0
H1160 H 0.21788 0.83626 0.65752 0.0
H1161 H 0.19104 0.82338 0.63462 0.0
H1162 H 0.1596 0.83586 0.69712 0.0
H1163 H 0.18658 0.84841 0.72052 0.0
H1164 H 0.15261 0.80113 0.67086 0.0
H1165 H 0.15027 0.85659 0.60987 0.0
H1166 H 0.1715 0.84537 0.61243 0.0
H1167 H 0.1635 0.8575 0.63895 0.0
C1168 C 0.20538 0.83591 0.66664 0.0
C1169 C 0.20433 0.84343 0.69082 0.0
C1170 C 0.19002 0.82869 0.65343 0.0
C1171 C 0.17335 0.82893 0.6641 0.0
C1172 C 0.17237 0.83566 0.68858 0.0
H1173 H 0.06315 0.80193 0.6096 0.0
H1174 H 0.09089 0.80891 0.63576 0.0
C1175 C 0.18774 0.84291 0.70183 0.0
C1176 C 0.15676 0.82311 0.64918 0.0
H1177 H 0.12937 0.83335 0.5996 0.0
C1178 C 0.14746 0.80815 0.6553 0.0
C1179 C 0.15014 0.83238 0.62897 0.0
C1180 C 0.15924 0.84894 0.6222 0.0
C1181 C 0.13182 0.80197 0.64133 0.0
C1182 C 0.12523 0.81123 0.62107 0.0
C1183 C 0.13452 0.82624 0.61508 0.0
C1184 C 0.10863 0.80577 0.60582 0.0
C1185 C 0.12272 0.7854 0.64803 0.0
C1186 C 0.10942 0.80194 0.58035 0.0
C1187 C 0.09364 0.79817 0.56549 0.0
C1188 C 0.07687 0.79824 0.57589 0.0
C1189 C 0.07604 0.80178 0.60137 0.0
C1190 C 0.09184 0.80562 0.61625 0.0
H1191 H 0.13197 0.77744 0.65957 0.0
H1192 H 0.11091 0.78899 0.65872 0.0
H1193 H 0.11782 0.77716 0.63127 0.0
H1194 H 0.12224 0.80211 0.57195 0.0
H1195 H 0.09445 0.79548 0.54582 0.0
H1196 H 0.2949 0.29499 0.72057 0.0
H1197 H 0.30505 0.26972 0.69563 0.0
H1198 H 0.35958 0.29017 0.70331 0.0
H1199 H 0.34955 0.31557 0.72896 0.0
H1200 H 0.34694 0.28247 0.65494 0.0
H1201 H 0.33429 0.22594 0.70936 0.0
H1202 H 0.31508 0.24013 0.70802 0.0
H1203 H 0.33617 0.24826 0.72301 0.0
C1204 C 0.30917 0.29389 0.71776 0.0
C1205 C 0.32142 0.3073 0.7269 0.0
C1206 C 0.31496 0.27939 0.70345 0.0
C1207 C 0.33311 0.27792 0.69797 0.0
C1208 C 0.34553 0.291 0.70755 0.0
H1209 H 0.34578 0.18443 0.59641 0.0
H1210 H 0.35481 0.20635 0.63025 0.0
C1211 C 0.33976 0.30554 0.72204 0.0
C1212 C 0.33831 0.26384 0.67977 0.0
H1213 H 0.332 0.21996 0.66469 0.0
C1214 C 0.34417 0.26873 0.65728 0.0
C1215 C 0.33503 0.24589 0.68296 0.0
C1216 C 0.32999 0.23973 0.70728 0.0
C1217 C 0.34516 0.25633 0.63715 0.0
C1218 C 0.3399 0.23872 0.63958 0.0
C1219 C 0.33575 0.23353 0.66273 0.0
C1220 C 0.3362 0.22616 0.61786 0.0
C1221 C 0.35107 0.26235 0.61318 0.0
C1222 C 0.32277 0.23007 0.59976 0.0
C1223 C 0.31759 0.21764 0.58057 0.0
C1224 C 0.32566 0.201 0.57915 0.0
C1225 C 0.33944 0.19722 0.59695 0.0
C1226 C 0.34458 0.20968 0.61628 0.0
H1227 H 0.36045 0.27381 0.61642 0.0
H1228 H 0.35782 0.25162 0.60248 0.0
H1229 H 0.33904 0.26653 0.60192 0.0
H1230 H 0.31585 0.24256 0.60093 0.0
H1231 H 0.30706 0.22097 0.567 0.0
H1232 H 0.86054 0.33274 0.76508 0.0
H1233 H 0.88119 0.34422 0.73684 0.0
H1234 H 0.89354 0.29134 0.71009 0.0
H1235 H 0.87253 0.27965 0.73784 0.0
H1236 H 0.92478 0.32049 0.7243 0.0
H1237 H 0.8682 0.33593 0.65698 0.0
H1238 H 0.86574 0.34145 0.68927 0.0
H1239 H 0.8664 0.31881 0.67795 0.0
C1240 C 0.86762 0.32353 0.75317 0.0
C1241 C 0.86476 0.30528 0.75351 0.0
C1242 C 0.87948 0.33012 0.73721 0.0
C1243 C 0.88874 0.3186 0.72143 0.0
C1244 C 0.88648 0.30038 0.72226 0.0
H1245 H 0.94227 0.33636 0.5903 0.0
H1246 H 0.92412 0.32567 0.62192 0.0
C1247 C 0.87455 0.29375 0.73817 0.0
C1248 C 0.90008 0.32563 0.70318 0.0
H1249 H 0.89755 0.34397 0.64787 0.0
C1250 C 0.9189 0.32566 0.70758 0.0
C1251 C 0.89224 0.33222 0.68144 0.0
C1252 C 0.87204 0.3321 0.67588 0.0
C1253 C 0.9302 0.33221 0.69065 0.0
C1254 C 0.92234 0.339 0.66898 0.0
C1255 C 0.90349 0.33886 0.66459 0.0
C1256 C 0.93344 0.34569 0.65009 0.0
C1257 C 0.95041 0.33151 0.69579 0.0
C1258 C 0.9445 0.36064 0.65542 0.0
C1259 C 0.95482 0.36688 0.63731 0.0
C1260 C 0.95414 0.35832 0.61353 0.0
C1261 C 0.94289 0.34343 0.60828 0.0
C1262 C 0.9326 0.33723 0.62637 0.0
H1263 H 0.95427 0.32253 0.71039 0.0
H1264 H 0.95712 0.32711 0.67884 0.0
H1265 H 0.95559 0.34488 0.70207 0.0
H1266 H 0.94504 0.36755 0.67352 0.0
H1267 H 0.96319 0.3785 0.64183 0.0
H1268 H 0.79273 0.84345 0.80524 0.0
H1269 H 0.78233 0.86989 0.78593 0.0
H1270 H 0.76116 0.83803 0.72188 0.0
H1271 H 0.77201 0.81147 0.74067 0.0
H1272 H 0.79215 0.87896 0.7344 0.0
H1273 H 0.71871 0.87172 0.74747 0.0
H1274 H 0.7359 0.86184 0.76699 0.0
H1275 H 0.7307 0.8526 0.73617 0.0
C1276 C 0.78606 0.84205 0.78693 0.0
C1277 C 0.78327 0.82535 0.77444 0.0
C1278 C 0.78 0.85715 0.77605 0.0
C1279 C 0.77089 0.85579 0.75267 0.0
C1280 C 0.768 0.83922 0.74012 0.0
H1281 H 0.72318 0.93149 0.65766 0.0
H1282 H 0.73146 0.90509 0.6787 0.0
C1283 C 0.77416 0.8241 0.75091 0.0
C1284 C 0.76493 0.87183 0.74107 0.0
H1285 H 0.72754 0.89555 0.72553 0.0
C1286 C 0.77805 0.88267 0.73247 0.0
C1287 C 0.74652 0.87641 0.73854 0.0
C1288 C 0.73206 0.86514 0.74785 0.0
C1289 C 0.7732 0.898 0.72102 0.0
C1290 C 0.75478 0.9028 0.71883 0.0
C1291 C 0.74165 0.89187 0.72739 0.0
C1292 C 0.74887 0.91894 0.70722 0.0
C1293 C 0.78781 0.90864 0.71082 0.0
C1294 C 0.75552 0.93549 0.71674 0.0
C1295 C 0.7509 0.95054 0.70469 0.0
C1296 C 0.73931 0.9493 0.68317 0.0
C1297 C 0.73203 0.93282 0.67432 0.0
C1298 C 0.73679 0.91775 0.68625 0.0
H1299 H 0.80013 0.90073 0.70791 0.0
H1300 H 0.78302 0.91383 0.69304 0.0
H1301 H 0.79166 0.91996 0.7241 0.0
H1302 H 0.76448 0.93673 0.7333 0.0
H1303 H 0.75647 0.96314 0.71208 0.0
H1304 H 0.87991 0.78927 0.75425 0.0
H1305 H 0.90132 0.79004 0.72212 0.0
H1306 H 0.87972 0.74082 0.68836 0.0
H1307 H 0.85838 0.73982 0.72054 0.0
H1308 H 0.9277 0.76427 0.71112 0.0
H1309 H 0.87932 0.77294 0.63063 0.0
H1310 H 0.87328 0.77711 0.66202 0.0
H1311 H 0.87442 0.75492 0.64872 0.0
C1312 C 0.8797 0.77861 0.73998 0.0
C1313 C 0.8674 0.7645 0.73993 0.0
C1314 C 0.8919 0.77911 0.72161 0.0
C1315 C 0.89197 0.76559 0.70275 0.0
C1316 C 0.87964 0.75155 0.70249 0.0
H1317 H 0.95918 0.75026 0.5773 0.0
H1318 H 0.93763 0.74588 0.60855 0.0
C1319 C 0.86744 0.75103 0.72087 0.0
C1320 C 0.90545 0.76587 0.68395 0.0
H1321 H 0.90996 0.76869 0.62247 0.0
C1322 C 0.92384 0.76524 0.69173 0.0
C1323 C 0.90034 0.76698 0.65867 0.0
C1324 C 0.88078 0.76817 0.64943 0.0
C1325 C 0.93729 0.76573 0.6749 0.0
C1326 C 0.9322 0.76722 0.64968 0.0
C1327 C 0.9138 0.76752 0.64182 0.0
C1328 C 0.94577 0.76935 0.63136 0.0
C1329 C 0.95683 0.76448 0.68423 0.0
C1330 C 0.95742 0.78401 0.63383 0.0
C1331 C 0.96976 0.78648 0.61615 0.0
C1332 C 0.97062 0.77442 0.5955 0.0
C1333 C 0.959 0.75967 0.59314 0.0
C1334 C 0.94661 0.75721 0.61087 0.0
H1335 H 0.9582 0.75827 0.70207 0.0
H1336 H 0.96476 0.75678 0.67071 0.0
H1337 H 0.96276 0.77791 0.6872 0.0
H1338 H 0.95678 0.7937 0.64927 0.0
H1339 H 0.97863 0.79789 0.61864 0.0
H1340 H 0.26998 0.98597 0.67746 0.0
H1341 H 0.27289 0.0115 0.65323 0.0
H1342 H 0.31775 0.98713 0.61812 0.0
H1343 H 0.31523 0.96171 0.64277 0.0
H1344 H 0.32387 0.02278 0.63365 0.0
H1345 H 0.2581 0.01319 0.57955 0.0
H1346 H 0.25649 0.01394 0.61232 0.0
H1347 H 0.26839 0.99624 0.59713 0.0
C1348 C 0.28056 0.98607 0.66473 0.0
C1349 C 0.29234 0.97172 0.66204 0.0
C1350 C 0.28208 1.00061 0.65069 0.0
C1351 C 0.29536 0.00113 0.63357 0.0
C1352 C 0.30731 0.98697 0.63108 0.0
H1353 H 0.29768 0.07512 0.51861 0.0
H1354 H 0.29742 0.04856 0.54168 0.0
C1355 C 0.30577 0.97239 0.64507 0.0
C1356 C 0.29688 0.01652 0.61849 0.0
H1357 H 0.27357 0.04018 0.57609 0.0
C1358 C 0.31291 0.02656 0.621 0.0
C1359 C 0.28267 0.0213 0.60172 0.0
C1360 C 0.2655 0.01053 0.59727 0.0
C1361 C 0.31493 0.04147 0.60761 0.0
C1362 C 0.30046 0.04662 0.59151 0.0
C1363 C 0.2846 0.03634 0.5886 0.0
C1364 C 0.30143 0.06265 0.57756 0.0
C1365 C 0.33264 0.05146 0.61061 0.0
C1366 C 0.30372 0.07939 0.59002 0.0
C1367 C 0.30389 0.0945 0.57686 0.0
C1368 C 0.30166 0.09312 0.55104 0.0
C1369 C 0.29948 0.07642 0.53853 0.0
C1370 C 0.29929 0.06131 0.55169 0.0
H1371 H 0.34378 0.04329 0.61814 0.0
H1372 H 0.33639 0.05605 0.59276 0.0
H1373 H 0.33131 0.06317 0.62366 0.0
H1374 H 0.30503 0.08081 0.60996 0.0
H1375 H 0.30551 0.10729 0.58681 0.0
H1376 H 0.20356 0.42081 0.67419 0.0
H1377 H 0.17591 0.42086 0.64686 0.0
H1378 H 0.15736 0.37388 0.67731 0.0
H1379 H 0.18503 0.37349 0.70417 0.0
H1380 H 0.15454 0.37274 0.62503 0.0
H1381 H 0.12451 0.43328 0.66806 0.0
H1382 H 0.14728 0.43527 0.65906 0.0
H1383 H 0.14262 0.42158 0.68334 0.0
C1384 C 0.1936 0.41047 0.67498 0.0
C1385 C 0.19641 0.39721 0.69146 0.0
C1386 C 0.17777 0.4106 0.65952 0.0
C1387 C 0.16453 0.39748 0.66029 0.0
C1388 C 0.16738 0.38417 0.67655 0.0
H1389 H 0.05274 0.38721 0.61279 0.0
H1390 H 0.08262 0.39181 0.63456 0.0
C1391 C 0.18313 0.38405 0.69202 0.0
C1392 C 0.14775 0.39732 0.644 0.0
H1393 H 0.10811 0.41904 0.63371 0.0
C1394 C 0.14443 0.38292 0.62674 0.0
C1395 C 0.13459 0.41057 0.6465 0.0
C1396 C 0.13727 0.42601 0.66533 0.0
C1397 C 0.12811 0.38123 0.61217 0.0
C1398 C 0.1149 0.39446 0.61472 0.0
C1399 C 0.11835 0.40901 0.63169 0.0
C1400 C 0.09688 0.39271 0.60131 0.0
C1401 C 0.12486 0.36498 0.5949 0.0
C1402 C 0.09501 0.39199 0.57545 0.0
C1403 C 0.07798 0.38929 0.56307 0.0
C1404 C 0.06269 0.38744 0.57645 0.0
C1405 C 0.06447 0.38863 0.60226 0.0
C1406 C 0.08146 0.39128 0.61462 0.0
H1407 H 0.13474 0.35447 0.59888 0.0
H1408 H 0.11101 0.35967 0.59612 0.0
H1409 H 0.12619 0.36844 0.57568 0.0
H1410 H 0.10672 0.39335 0.56488 0.0
H1411 H 0.07674 0.38845 0.54312 0.0
H1412 H 0.72699 0.20526 0.76175 0.0
H1413 H 0.71779 0.17685 0.7407 0.0
H1414 H 0.76167 0.15163 0.77984 0.0
H1415 H 0.77148 0.17996 0.80023 0.0
H1416 H 0.74571 0.15418 0.71227 0.0
H1417 H 0.71236 0.12172 0.7857 0.0
H1418 H 0.71323 0.14538 0.78464 0.0
H1419 H 0.73311 0.1337 0.79421 0.0
C1420 C 0.73471 0.19369 0.76593 0.0
C1421 C 0.75004 0.19498 0.78268 0.0
C1422 C 0.72933 0.17746 0.75401 0.0
C1423 C 0.73898 0.1622 0.75891 0.0
C1424 C 0.75391 0.16327 0.77611 0.0
H1425 H 0.74007 0.05298 0.70666 0.0
H1426 H 0.74181 0.08155 0.7306 0.0
C1427 C 0.75942 0.1795 0.78785 0.0
C1428 C 0.73447 0.14535 0.7446 0.0
H1429 H 0.71741 0.10417 0.74928 0.0
C1430 C 0.73934 0.14326 0.72019 0.0
C1431 C 0.72639 0.13119 0.75521 0.0
C1432 C 0.72084 0.133 0.78135 0.0
C1433 C 0.73683 0.12713 0.70624 0.0
C1434 C 0.72867 0.11288 0.71679 0.0
C1435 C 0.72355 0.1151 0.74116 0.0
C1436 C 0.72617 0.09535 0.70319 0.0
C1437 C 0.74369 0.12533 0.68074 0.0
C1438 C 0.71631 0.09348 0.68023 0.0
C1439 C 0.71557 0.07726 0.66645 0.0
C1440 C 0.72442 0.06263 0.67562 0.0
C1441 C 0.73332 0.0642 0.6992 0.0
C1442 C 0.73426 0.08046 0.71285 0.0
H1443 H 0.75382 0.1357 0.67815 0.0
H1444 H 0.74995 0.11228 0.67703 0.0
H1445 H 0.73221 0.12667 0.66689 0.0
H1446 H 0.70951 0.10465 0.67272 0.0
H1447 H 0.70847 0.07623 0.64838 0.0
H1448 H 0.81108 0.32996 0.39134 0.0
H1449 H 0.8403 0.34339 0.4056 0.0
H1450 H 0.86737 0.29618 0.38031 0.0
H1451 H 0.83823 0.28247 0.36668 0.0
H1452 H 0.8775 0.30755 0.42849 0.0
H1453 H 0.88116 0.36253 0.36758 0.0
H1454 H 0.86058 0.36173 0.38306 0.0
H1455 H 0.86569 0.34417 0.36086 0.0
C1456 C 0.82326 0.32247 0.38873 0.0
C1457 C 0.82232 0.30514 0.37786 0.0
C1458 C 0.83996 0.33024 0.39661 0.0
C1459 C 0.85602 0.32088 0.39368 0.0
C1460 C 0.85515 0.3037 0.38252 0.0
H1461 H 0.96768 0.35599 0.43266 0.0
H1462 H 0.93964 0.34548 0.40922 0.0
C1463 C 0.83848 0.29592 0.37462 0.0
C1464 C 0.87359 0.32839 0.40408 0.0
H1465 H 0.90263 0.36316 0.40236 0.0
C1466 C 0.88306 0.31962 0.42261 0.0
C1467 C 0.88088 0.34408 0.39626 0.0
C1468 C 0.87166 0.35362 0.37568 0.0
C1469 C 0.89937 0.32637 0.43403 0.0
C1470 C 0.9063 0.34239 0.42688 0.0
C1471 C 0.89716 0.35094 0.40787 0.0
C1472 C 0.92274 0.35059 0.43972 0.0
C1473 C 0.90905 0.31638 0.45381 0.0
C1474 C 0.9223 0.35729 0.46429 0.0
C1475 C 0.93814 0.36327 0.47751 0.0
C1476 C 0.95464 0.36274 0.46631 0.0
C1477 C 0.95502 0.35665 0.44146 0.0
C1478 C 0.93909 0.35067 0.42817 0.0
H1479 H 0.90408 0.30258 0.45347 0.0
H1480 H 0.92384 0.31625 0.45168 0.0
H1481 H 0.90677 0.32299 0.47213 0.0
H1482 H 0.90978 0.35737 0.47345 0.0
H1483 H 0.93765 0.36773 0.49677 0.0
H1484 H 0.7692 0.85463 0.41023 0.0
H1485 H 0.76514 0.87902 0.44107 0.0
H1486 H 0.71504 0.85577 0.45901 0.0
H1487 H 0.71879 0.83156 0.42786 0.0
H1488 H 0.71255 0.89163 0.44997 0.0
H1489 H 0.77006 0.87938 0.51687 0.0
H1490 H 0.77602 0.88009 0.48557 0.0
H1491 H 0.76141 0.86285 0.49361 0.0
C1492 C 0.75737 0.85467 0.42084 0.0
C1493 C 0.74436 0.84112 0.41668 0.0
C1494 C 0.75515 0.86853 0.43859 0.0
C1495 C 0.73989 0.86909 0.45251 0.0
C1496 C 0.72697 0.85551 0.44858 0.0
H1497 H 0.72321 0.94239 0.57917 0.0
H1498 H 0.72564 0.91586 0.55113 0.0
C1499 C 0.72922 0.84162 0.43091 0.0
C1500 C 0.73693 0.88429 0.47026 0.0
H1501 H 0.75508 0.90678 0.52259 0.0
C1502 C 0.72179 0.8949 0.46592 0.0
C1503 C 0.7489 0.8884 0.49117 0.0
C1504 C 0.76494 0.87702 0.49729 0.0
C1505 C 0.71852 0.90978 0.48167 0.0
C1506 C 0.73083 0.91423 0.50212 0.0
C1507 C 0.74574 0.90339 0.50678 0.0
C1508 C 0.72859 0.9302 0.51877 0.0
C1509 C 0.70185 0.92052 0.47642 0.0
C1510 C 0.72946 0.94699 0.50984 0.0
C1511 C 0.72806 0.96206 0.52578 0.0
C1512 C 0.72584 0.96051 0.55086 0.0
C1513 C 0.72482 0.94377 0.5598 0.0
C1514 C 0.72626 0.92869 0.54388 0.0
H1515 H 0.69159 0.91298 0.46408 0.0
H1516 H 0.69564 0.92496 0.49375 0.0
H1517 H 0.70565 0.93236 0.46718 0.0
H1518 H 0.73157 0.94844 0.49063 0.0
H1519 H 0.72901 0.97492 0.51867 0.0
H1520 H 0.17001 0.83555 0.28191 0.0
H1521 H 0.14736 0.82527 0.30844 0.0
H1522 H 0.17267 0.85666 0.3703 0.0
H1523 H 0.19527 0.86714 0.34387 0.0
H1524 H 0.1549 0.80759 0.35482 0.0
H1525 H 0.11773 0.87053 0.36672 0.0
H1526 H 0.13203 0.86571 0.34159 0.0
H1527 H 0.14191 0.87199 0.37191 0.0
C1528 C 0.17063 0.84041 0.3011 0.0
C1529 C 0.18436 0.85222 0.3108 0.0
C1530 C 0.15777 0.83443 0.31624 0.0
C1531 C 0.15829 0.84033 0.34122 0.0
C1532 C 0.17196 0.8521 0.35098 0.0
H1533 H 0.09378 0.82648 0.46402 0.0
H1534 H 0.11603 0.83474 0.43576 0.0
C1535 C 0.18491 0.85798 0.33591 0.0
C1536 C 0.14469 0.834 0.35724 0.0
H1537 H 0.10973 0.84771 0.39118 0.0
C1538 C 0.14493 0.81629 0.36271 0.0
C1539 C 0.13178 0.84544 0.36745 0.0
C1540 C 0.13066 0.86446 0.36155 0.0
C1541 C 0.13287 0.8098 0.37875 0.0
C1542 C 0.11998 0.82127 0.38909 0.0
C1543 C 0.11963 0.83894 0.3833 0.0
C1544 C 0.10698 0.81543 0.40644 0.0
C1545 C 0.13446 0.7909 0.3851 0.0
C1546 C 0.0945 0.80178 0.39938 0.0
C1547 C 0.0818 0.79695 0.4156 0.0
C1548 C 0.08119 0.8059 0.43898 0.0
C1549 C 0.09379 0.81947 0.44601 0.0
C1550 C 0.10654 0.82418 0.42992 0.0
H1551 H 0.14787 0.78537 0.38111 0.0
H1552 H 0.13231 0.78962 0.40484 0.0
H1553 H 0.124 0.78285 0.37386 0.0
H1554 H 0.0943 0.79511 0.38116 0.0
H1555 H 0.07212 0.78659 0.40959 0.0
H1556 H 0.2745 0.29367 0.29418 0.0
H1557 H 0.2802 0.26836 0.31862 0.0
H1558 H 0.2647 0.29866 0.38347 0.0
H1559 H 0.25844 0.32394 0.3591 0.0
H1560 H 0.29876 0.27894 0.38869 0.0
H1561 H 0.24074 0.23786 0.34765 0.0
H1562 H 0.25487 0.24716 0.3263 0.0
H1563 H 0.24169 0.26139 0.34558 0.0
C1564 C 0.27203 0.29494 0.31355 0.0
C1565 C 0.26588 0.31092 0.32455 0.0
C1566 C 0.27538 0.28044 0.32753 0.0
C1567 C 0.27272 0.28156 0.35282 0.0
C1568 C 0.26683 0.2975 0.36397 0.0
H1569 H 0.28842 0.21175 0.47214 0.0
H1570 H 0.28417 0.23706 0.44707 0.0
C1571 C 0.26336 0.31199 0.34999 0.0
C1572 C 0.27622 0.26616 0.36768 0.0
H1573 H 0.26112 0.22468 0.37574 0.0
C1574 C 0.29053 0.26708 0.38593 0.0
C1575 C 0.26554 0.25066 0.36391 0.0
C1576 C 0.24975 0.24913 0.34494 0.0
C1577 C 0.2946 0.25282 0.40031 0.0
C1578 C 0.28373 0.23737 0.39683 0.0
C1579 C 0.26947 0.23647 0.37846 0.0
C1580 C 0.28674 0.22208 0.4122 0.0
C1581 C 0.31078 0.25432 0.41865 0.0
C1582 C 0.28909 0.2051 0.40103 0.0
C1583 C 0.29123 0.19061 0.41535 0.0
C1584 C 0.29109 0.19283 0.44111 0.0
C1585 C 0.28875 0.20977 0.45231 0.0
C1586 C 0.28647 0.22424 0.438 0.0
H1587 H 0.32069 0.26422 0.4137 0.0
H1588 H 0.30627 0.25862 0.4371 0.0
H1589 H 0.31771 0.24149 0.41992 0.0
H1590 H 0.28922 0.20305 0.38119 0.0
H1591 H 0.29283 0.17763 0.40632 0.0
H1592 H 0.72332 0.77419 0.89267 0.0
H1593 H 0.69687 0.78848 0.90936 0.0
H1594 H 0.71085 0.83664 0.87799 0.0
H1595 H 0.73732 0.82232 0.86087 0.0
H1596 H 0.69741 0.82085 0.94239 0.0
H1597 H 0.65653 0.82601 0.85375 0.0
H1598 H 0.67494 0.81071 0.8568 0.0
H1599 H 0.67958 0.83373 0.85563 0.0
C1600 C 0.72066 0.78776 0.88904 0.0
C1601 C 0.73232 0.7971 0.87528 0.0
C1602 C 0.70562 0.79593 0.89873 0.0
C1603 C 0.70186 0.81354 0.89471 0.0
C1604 C 0.71346 0.82297 0.88106 0.0
H1605 H 0.60608 0.87247 0.93777 0.0
H1606 H 0.63514 0.86484 0.92109 0.0
C1607 C 0.7286 0.81482 0.87145 0.0
C1608 C 0.68589 0.82196 0.90527 0.0
H1609 H 0.64335 0.83632 0.89003 0.0
C1610 C 0.68563 0.82436 0.93098 0.0
C1611 C 0.67065 0.82666 0.89028 0.0
C1612 C 0.67026 0.8241 0.86257 0.0
C1613 C 0.67035 0.83105 0.94215 0.0
C1614 C 0.65478 0.83503 0.9272 0.0
C1615 C 0.65528 0.8332 0.90145 0.0
C1616 C 0.63751 0.84003 0.93793 0.0
C1617 C 0.67105 0.8338 0.96987 0.0
C1618 C 0.62913 0.82855 0.95272 0.0
C1619 C 0.61266 0.83291 0.96241 0.0
C1620 C 0.60405 0.84878 0.95727 0.0
C1621 C 0.61244 0.86025 0.94234 0.0
C1622 C 0.62899 0.85587 0.93267 0.0
H1623 H 0.68517 0.83568 0.97785 0.0
H1624 H 0.663 0.84539 0.97591 0.0
H1625 H 0.66542 0.82198 0.97747 0.0
H1626 H 0.63526 0.81608 0.95659 0.0
H1627 H 0.60671 0.82385 0.97406 0.0
H1628 H 0.27331 0.80224 0.77753 0.0
H1629 H 0.26825 0.77736 0.80222 0.0
H1630 H 0.2542 0.81314 0.86268 0.0
H1631 H 0.25988 0.83813 0.83846 0.0
H1632 H 0.27725 0.78759 0.87781 0.0
H1633 H 0.22008 0.75722 0.81877 0.0
H1634 H 0.23993 0.76048 0.80249 0.0
H1635 H 0.22822 0.77921 0.8154 0.0
C1636 C 0.26927 0.80486 0.79614 0.0
C1637 C 0.26696 0.82226 0.80592 0.0
C1638 C 0.26614 0.79058 0.81014 0.0
C1639 C 0.26051 0.79332 0.83419 0.0
C1640 C 0.25838 0.81066 0.8441 0.0
H1641 H 0.2181 0.71347 0.92293 0.0
H1642 H 0.22199 0.73855 0.89805 0.0
C1643 C 0.26151 0.82495 0.83013 0.0
C1644 C 0.25736 0.77819 0.84929 0.0
H1645 H 0.23274 0.74024 0.85052 0.0
C1646 C 0.26747 0.77727 0.87186 0.0
C1647 C 0.24441 0.76482 0.84175 0.0
C1648 C 0.2324 0.76551 0.8184 0.0
C1649 C 0.26527 0.76324 0.88683 0.0
C1650 C 0.25282 0.74954 0.87885 0.0
C1651 C 0.24243 0.75063 0.85652 0.0
C1652 C 0.25038 0.73401 0.89345 0.0
C1653 C 0.2761 0.76339 0.91126 0.0
C1654 C 0.26492 0.72286 0.89877 0.0
C1655 C 0.26274 0.70848 0.91293 0.0
C1656 C 0.24589 0.70482 0.92199 0.0
C1657 C 0.23123 0.71578 0.91614 0.0
C1658 C 0.23345 0.73019 0.90199 0.0
H1659 H 0.2811 0.77682 0.91764 0.0
H1660 H 0.26794 0.75835 0.92563 0.0
H1661 H 0.28802 0.75477 0.90927 0.0
H1662 H 0.278 0.72523 0.89188 0.0
H1663 H 0.27424 0.70013 0.91658 0.0
H1664 H 0.34017 0.32997 0.84384 0.0
H1665 H 0.36455 0.31798 0.86981 0.0
H1666 H 0.39121 0.36866 0.87759 0.0
H1667 H 0.36651 0.38096 0.85238 0.0
H1668 H 0.40109 0.31579 0.86342 0.0
H1669 H 0.38832 0.35653 0.9489 0.0
H1670 H 0.37234 0.35473 0.92237 0.0
H1671 H 0.3917 0.36907 0.92292 0.0
C1672 C 0.35109 0.33865 0.85134 0.0
C1673 C 0.35128 0.35649 0.84627 0.0
C1674 C 0.36509 0.33172 0.866 0.0
C1675 C 0.37954 0.34249 0.87593 0.0
C1676 C 0.38 0.3602 0.87049 0.0
H1677 H 0.48268 0.30896 0.94131 0.0
H1678 H 0.45804 0.31882 0.91335 0.0
C1679 C 0.36597 0.36716 0.85585 0.0
C1680 C 0.39411 0.33511 0.89194 0.0
H1681 H 0.41499 0.33947 0.94976 0.0
C1682 C 0.40413 0.32093 0.88232 0.0
C1683 C 0.39784 0.34166 0.91669 0.0
C1684 C 0.38689 0.35622 0.92846 0.0
C1685 C 0.41797 0.31328 0.89671 0.0
C1686 C 0.42208 0.32022 0.92121 0.0
C1687 C 0.41189 0.33424 0.93091 0.0
C1688 C 0.43688 0.3132 0.93721 0.0
C1689 C 0.42784 0.29767 0.88568 0.0
C1690 C 0.43318 0.30693 0.95997 0.0
C1691 C 0.44723 0.30149 0.97595 0.0
C1692 C 0.46516 0.30229 0.96943 0.0
C1693 C 0.46887 0.30818 0.94651 0.0
C1694 C 0.45483 0.3137 0.93056 0.0
H1695 H 0.41986 0.29099 0.86968 0.0
H1696 H 0.44077 0.30222 0.87911 0.0
H1697 H 0.43095 0.28794 0.89954 0.0
H1698 H 0.41944 0.3065 0.96549 0.0
H1699 H 0.44417 0.29704 0.99364 0.0
H1700 H 0.78297 0.35846 0.90056 0.0
H1701 H 0.78679 0.38405 0.93017 0.0
H1702 H 0.79565 0.34981 0.98931 0.0
H1703 H 0.79176 0.32407 0.95976 0.0
H1704 H 0.76814 0.3942 0.97164 0.0
H1705 H 0.84052 0.38182 0.9971 0.0
H1706 H 0.82851 0.3707 0.97051 0.0
H1707 H 0.82551 0.36378 0.00078 0.0
C1708 C 0.78543 0.35635 0.91991 0.0
C1709 C 0.78706 0.33922 0.92781 0.0
C1710 C 0.78774 0.37099 0.93679 0.0
C1711 C 0.79181 0.36883 0.96186 0.0
C1712 C 0.79292 0.35177 0.96996 0.0
H1713 H 0.81205 0.44445 0.08857 0.0
H1714 H 0.8078 0.41754 0.06098 0.0
C1715 C 0.79064 0.33709 0.95307 0.0
C1716 C 0.79497 0.38449 0.97942 0.0
H1717 H 0.82691 0.4055 0.01927 0.0
C1718 C 0.78098 0.39669 0.98204 0.0
C1719 C 0.81176 0.38769 0.99296 0.0
C1720 C 0.82751 0.37541 0.99011 0.0
C1721 C 0.78328 0.41194 0.998 0.0
C1722 C 0.8001 0.41521 0.01137 0.0
C1723 C 0.81404 0.40294 0.00896 0.0
C1724 C 0.8035 0.43138 0.02783 0.0
C1725 C 0.7676 0.42433 0.00068 0.0
C1726 C 0.80295 0.44799 0.0182 0.0
C1727 C 0.80543 0.46326 0.03387 0.0
C1728 C 0.80853 0.46211 0.05935 0.0
C1729 C 0.80964 0.44553 0.06892 0.0
C1730 C 0.8072 0.43024 0.05324 0.0
H1731 H 0.75453 0.41787 0.99408 0.0
H1732 H 0.76677 0.42938 0.02018 0.0
H1733 H 0.76954 0.43574 0.98956 0.0
H1734 H 0.80045 0.44912 0.99859 0.0
H1735 H 0.80461 0.47598 0.02621 0.0
H1736 H 0.66755 0.23876 0.24582 0.0
H1737 H 0.6429 0.24025 0.21401 0.0
H1738 H 0.65375 0.29557 0.20988 0.0
H1739 H 0.67844 0.2942 0.24185 0.0
H1740 H 0.6178 0.28838 0.21285 0.0
H1741 H 0.64601 0.24382 0.14041 0.0
H1742 H 0.64487 0.23416 0.16932 0.0
H1743 H 0.65949 0.2528 0.16721 0.0
C1744 C 0.66487 0.25119 0.23786 0.0
C1745 C 0.67502 0.26635 0.24619 0.0
C1746 C 0.65079 0.25201 0.21968 0.0
C1747 C 0.6467 0.26794 0.20928 0.0
C1748 C 0.65676 0.28311 0.2176 0.0
H1749 H 0.57688 0.2837 0.07896 0.0
H1750 H 0.60251 0.28045 0.10916 0.0
C1751 C 0.6708 0.28233 0.23589 0.0
C1752 C 0.63147 0.26894 0.19043 0.0
H1753 H 0.6152 0.25186 0.13361 0.0
C1754 C 0.61725 0.28044 0.19548 0.0
C1755 C 0.63089 0.2587 0.16769 0.0
C1756 C 0.64621 0.2468 0.16067 0.0
C1757 C 0.60233 0.28184 0.17854 0.0
C1758 C 0.60146 0.27117 0.15616 0.0
C1759 C 0.6158 0.25984 0.15094 0.0
C1760 C 0.58607 0.27205 0.13756 0.0
C1761 C 0.58783 0.295 0.18454 0.0
C1762 C 0.56843 0.268 0.14335 0.0
C1763 C 0.55385 0.26991 0.12618 0.0
C1764 C 0.55677 0.27568 0.10293 0.0
C1765 C 0.57444 0.27916 0.09683 0.0
C1766 C 0.589 0.27732 0.11401 0.0
H1767 H 0.59271 0.30514 0.19916 0.0
H1768 H 0.583 0.3017 0.16795 0.0
H1769 H 0.57618 0.28803 0.19127 0.0
H1770 H 0.56593 0.26359 0.16127 0.0
H1771 H 0.54027 0.26724 0.13118 0.0
H1772 H 0.78938 0.70756 0.24671 0.0
H1773 H 0.79947 0.67933 0.22841 0.0
H1774 H 0.79089 0.65519 0.29582 0.0
H1775 H 0.78071 0.68339 0.31424 0.0
H1776 H 0.82694 0.65577 0.24196 0.0
H1777 H 0.75862 0.62598 0.24423 0.0
H1778 H 0.76273 0.64934 0.24957 0.0
H1779 H 0.76828 0.63491 0.27357 0.0
C1780 C 0.78996 0.69632 0.2578 0.0
C1781 C 0.78412 0.69767 0.28187 0.0
C1782 C 0.79566 0.68019 0.24728 0.0
C1783 C 0.79561 0.66511 0.26059 0.0
C1784 C 0.79064 0.66659 0.28503 0.0
H1785 H 0.8097 0.55425 0.21454 0.0
H1786 H 0.80757 0.5823 0.23943 0.0
C1787 C 0.78486 0.6827 0.29554 0.0
C1788 C 0.79993 0.64772 0.24848 0.0
H1789 H 0.78159 0.60735 0.23006 0.0
C1790 C 0.81706 0.64515 0.2394 0.0
C1791 C 0.78698 0.63391 0.2451 0.0
C1792 C 0.76806 0.63615 0.25341 0.0
C1793 C 0.82163 0.62909 0.22715 0.0
C1794 C 0.80862 0.61536 0.2236 0.0
C1795 C 0.79158 0.61787 0.23294 0.0
C1796 C 0.812 0.59851 0.20934 0.0
C1797 C 0.84037 0.62689 0.21828 0.0
C1798 C 0.8153 0.59834 0.18427 0.0
C1799 C 0.81654 0.58238 0.17016 0.0
C1800 C 0.81443 0.56641 0.18093 0.0
C1801 C 0.81153 0.56651 0.20606 0.0
C1802 C 0.81028 0.58246 0.22018 0.0
H1803 H 0.8501 0.63642 0.22836 0.0
H1804 H 0.84538 0.61335 0.22049 0.0
H1805 H 0.84002 0.62929 0.19844 0.0
H1806 H 0.81623 0.61054 0.17538 0.0
H1807 H 0.81855 0.58249 0.15068 0.0
H1808 H 0.33012 0.85704 0.14523 0.0
H1809 H 0.35745 0.85984 0.12299 0.0
H1810 H 0.3596 0.9155 0.14359 0.0
H1811 H 0.33237 0.91283 0.16632 0.0
H1812 H 0.36351 0.89509 0.08501 0.0
H1813 H 0.40993 0.88135 0.16591 0.0
H1814 H 0.38837 0.87012 0.16113 0.0
H1815 H 0.38916 0.89328 0.16949 0.0
C1816 C 0.33642 0.86988 0.14511 0.0
C1817 C 0.32914 0.88471 0.15767 0.0
C1818 C 0.35194 0.87146 0.13228 0.0
C1819 C 0.36045 0.88785 0.13175 0.0
C1820 C 0.35311 0.90276 0.14379 0.0
H1821 H 0.46929 0.90171 0.08366 0.0
H1822 H 0.44095 0.9066 0.10354 0.0
C1823 C 0.33754 0.90121 0.15665 0.0
C1824 C 0.37739 0.88914 0.11926 0.0
H1825 H 0.42282 0.88303 0.12786 0.0
C1826 C 0.37653 0.89263 0.09434 0.0
C1827 C 0.39426 0.88607 0.13167 0.0
C1828 C 0.39569 0.88252 0.15857 0.0
C1829 C 0.3922 0.89269 0.08125 0.0
C1830 C 0.40905 0.88882 0.09337 0.0
C1831 C 0.40991 0.88593 0.11856 0.0
C1832 C 0.42581 0.88684 0.08009 0.0
C1833 C 0.39055 0.89692 0.0546 0.0
C1834 C 0.42672 0.8741 0.06033 0.0
C1835 C 0.44282 0.87139 0.04879 0.0
C1836 C 0.45846 0.88121 0.05698 0.0
C1837 C 0.45747 0.89408 0.07668 0.0
C1838 C 0.44131 0.89682 0.08816 0.0
H1839 H 0.37837 0.90492 0.05052 0.0
H1840 H 0.40265 0.90415 0.04965 0.0
H1841 H 0.38921 0.88447 0.04272 0.0
H1842 H 0.41506 0.86597 0.05412 0.0
H1843 H 0.44303 0.86152 0.0335 0.0
H1844 H 0.21068 0.46363 0.18022 0.0
H1845 H 0.20764 0.4878 0.15293 0.0
H1846 H 0.26373 0.48266 0.13778 0.0
H1847 H 0.26679 0.45828 0.1645 0.0
H1848 H 0.22682 0.52009 0.15643 0.0
H1849 H 0.23787 0.48143 0.06873 0.0
H1850 H 0.23261 0.47125 0.0963 0.0
H1851 H 0.25521 0.47879 0.09273 0.0
C1852 C 0.22232 0.46751 0.17086 0.0
C1853 C 0.23897 0.45895 0.17452 0.0
C1854 C 0.22058 0.48139 0.15538 0.0
C1855 C 0.23539 0.48689 0.14302 0.0
C1856 C 0.25204 0.47847 0.14677 0.0
H1857 H 0.26015 0.56747 0.04702 0.0
H1858 H 0.25951 0.54248 0.07257 0.0
C1859 C 0.25381 0.46464 0.16229 0.0
C1860 C 0.2336 0.50171 0.12672 0.0
H1861 H 0.23841 0.51259 0.06779 0.0
C1862 C 0.22919 0.51844 0.13699 0.0
C1863 C 0.23669 0.49954 0.10136 0.0
C1864 C 0.2407 0.48176 0.08902 0.0
C1865 C 0.2284 0.53317 0.12282 0.0
C1866 C 0.23176 0.53105 0.09751 0.0
C1867 C 0.23587 0.51424 0.08717 0.0
C1868 C 0.23178 0.54618 0.08167 0.0
C1869 C 0.22464 0.55098 0.13529 0.0
C1870 C 0.2163 0.55647 0.07787 0.0
C1871 C 0.21667 0.57093 0.0634 0.0
C1872 C 0.23251 0.57537 0.05232 0.0
C1873 C 0.24782 0.56471 0.05566 0.0
C1874 C 0.24744 0.5503 0.07013 0.0
H1875 H 0.22686 0.55108 0.15565 0.0
H1876 H 0.23336 0.5613 0.12871 0.0
H1877 H 0.21034 0.55444 0.13088 0.0
H1878 H 0.20392 0.55334 0.08613 0.0
H1879 H 0.20464 0.57884 0.06132 0.0
H1880 H 0.34184 0.35319 0.22794 0.0
H1881 H 0.36786 0.34139 0.20734 0.0
H1882 H 0.33589 0.29678 0.17654 0.0
H1883 H 0.30977 0.30828 0.19758 0.0
H1884 H 0.38542 0.3062 0.20755 0.0
H1885 H 0.35372 0.32266 0.11665 0.0
H1886 H 0.34619 0.33218 0.14543 0.0
H1887 H 0.34043 0.30981 0.13532 0.0
C1888 C 0.34041 0.34063 0.21734 0.0
C1889 C 0.32368 0.33171 0.21433 0.0
C1890 C 0.35529 0.33397 0.20547 0.0
C1891 C 0.35368 0.31835 0.19025 0.0
C1892 C 0.33728 0.30898 0.18802 0.0
H1893 H 0.42784 0.27726 0.08309 0.0
H1894 H 0.40227 0.28083 0.10898 0.0
C1895 C 0.32239 0.3156 0.19997 0.0
C1896 C 0.36887 0.31258 0.17554 0.0
H1897 H 0.38266 0.3103 0.117 0.0
C1898 C 0.38483 0.30696 0.18773 0.0
C1899 C 0.36796 0.31359 0.14972 0.0
C1900 C 0.35123 0.31998 0.1359 0.0
C1901 C 0.40002 0.30237 0.1747 0.0
C1902 C 0.3993 0.30389 0.14895 0.0
C1903 C 0.38317 0.30915 0.13674 0.0
C1904 C 0.41529 0.30085 0.13437 0.0
C1905 C 0.41663 0.29585 0.18863 0.0
C1906 C 0.43106 0.31097 0.14 0.0
C1907 C 0.44577 0.30884 0.1254 0.0
C1908 C 0.44491 0.29668 0.10468 0.0
C1909 C 0.42907 0.28654 0.09912 0.0
C1910 C 0.4144 0.28864 0.1138 0.0
H1911 H 0.4132 0.29023 0.20599 0.0
H1912 H 0.42367 0.28569 0.17729 0.0
H1913 H 0.4261 0.30705 0.19359 0.0
H1914 H 0.4319 0.32077 0.15544 0.0
H1915 H 0.45781 0.31674 0.13035 0.0
H1916 H 0.73792 0.34642 0.29142 0.0
H1917 H 0.74781 0.37244 0.27203 0.0
H1918 H 0.79413 0.34417 0.24685 0.0
H1919 H 0.78446 0.31813 0.26645 0.0
H1920 H 0.78204 0.39032 0.28231 0.0
H1921 H 0.77058 0.36494 0.18425 0.0
H1922 H 0.76032 0.35492 0.20897 0.0
H1923 H 0.7837 0.35115 0.2039 0.0
C1924 C 0.75022 0.34575 0.28177 0.0
C1925 C 0.76041 0.33023 0.28042 0.0
C1926 C 0.7558 0.36058 0.27066 0.0
C1927 C 0.77159 0.36012 0.25789 0.0
C1928 C 0.78174 0.34465 0.25631 0.0
H1929 H 0.82206 0.43873 0.17646 0.0
H1930 H 0.81606 0.41251 0.19804 0.0
C1931 C 0.77617 0.32979 0.26744 0.0
C1932 C 0.77768 0.37605 0.24686 0.0
H1933 H 0.78437 0.39295 0.19197 0.0
C1934 C 0.78256 0.39094 0.26257 0.0
C1935 C 0.77843 0.37667 0.22114 0.0
C1936 C 0.77286 0.36114 0.20349 0.0
C1937 C 0.78823 0.40654 0.25317 0.0
C1938 C 0.78867 0.40728 0.2274 0.0
C1939 C 0.78403 0.39229 0.21173 0.0
C1940 C 0.79324 0.42365 0.21617 0.0
C1941 C 0.79389 0.422 0.2709 0.0
C1942 C 0.78244 0.4386 0.21937 0.0
C1943 C 0.78592 0.45364 0.20726 0.0
C1944 C 0.80018 0.45393 0.19156 0.0
C1945 C 0.81116 0.43901 0.18873 0.0
C1946 C 0.80767 0.42399 0.20088 0.0
H1947 H 0.79778 0.41779 0.2896 0.0
H1948 H 0.80542 0.42925 0.26432 0.0
H1949 H 0.78239 0.43118 0.27248 0.0
H1950 H 0.77103 0.43848 0.23075 0.0
H1951 H 0.77732 0.46496 0.20995 0.0
H1952 H 0.64722 0.78277 0.2298 0.0
H1953 H 0.625 0.79492 0.20042 0.0
H1954 H 0.66117 0.83821 0.19213 0.0
H1955 H 0.68328 0.82635 0.22175 0.0
H1956 H 0.62385 0.84769 0.19823 0.0
H1957 H 0.6321 0.79412 0.12509 0.0
H1958 H 0.62735 0.78717 0.15482 0.0
H1959 H 0.64831 0.7982 0.1511 0.0
C1960 C 0.65035 0.79495 0.22186 0.0
C1961 C 0.66705 0.80352 0.22786 0.0
C1962 C 0.63772 0.8018 0.205 0.0
C1963 C 0.64159 0.81733 0.19396 0.0
C1964 C 0.65802 0.82616 0.20039 0.0
H1965 H 0.5915 0.85627 0.06127 0.0
H1966 H 0.61267 0.84746 0.09467 0.0
C1967 C 0.67067 0.81929 0.21713 0.0
C1968 C 0.6287 0.82424 0.17527 0.0
H1969 H 0.6097 0.81526 0.11701 0.0
C1970 C 0.62069 0.84062 0.18048 0.0
C1971 C 0.62486 0.81504 0.15207 0.0
C1972 C 0.63368 0.79772 0.14523 0.0
C1973 C 0.60876 0.848 0.16306 0.0
C1974 C 0.6047 0.83865 0.14001 0.0
C1975 C 0.61282 0.82233 0.13477 0.0
C1976 C 0.59219 0.84555 0.12085 0.0
C1977 C 0.60083 0.86585 0.16922 0.0
C1978 C 0.57376 0.84753 0.12468 0.0
C1979 C 0.56174 0.85256 0.10567 0.0
C1980 C 0.56805 0.85561 0.08268 0.0
C1981 C 0.5865 0.85405 0.07901 0.0
C1982 C 0.5985 0.849 0.09797 0.0
H1983 H 0.60835 0.87295 0.18528 0.0
H1984 H 0.60088 0.87407 0.15322 0.0
H1985 H 0.58661 0.86419 0.17382 0.0
H1986 H 0.56861 0.84463 0.14206 0.0
H1987 H 0.54748 0.85358 0.10864 0.0
H1988 H 0.23438 0.7846 0.19495 0.0
H1989 H 0.22705 0.75768 0.16942 0.0
H1990 H 0.17105 0.77289 0.16247 0.0
H1991 H 0.17859 0.80045 0.18737 0.0
H1992 H 0.20583 0.72992 0.17094 0.0
H1993 H 0.18221 0.76801 0.09169 0.0
H1994 H 0.19278 0.7785 0.11968 0.0
H1995 H 0.16965 0.77114 0.11862 0.0
C1996 C 0.22043 0.78204 0.18842 0.0
C1997 C 0.20704 0.79456 0.19305 0.0
C1998 C 0.21625 0.76666 0.17378 0.0
C1999 C 0.19856 0.7634 0.16362 0.0
C2000 C 0.18487 0.77535 0.16957 0.0
H2001 H 0.19663 0.66314 0.07064 0.0
H2002 H 0.18628 0.68497 0.10193 0.0
C2003 C 0.18914 0.79098 0.18391 0.0
C2004 C 0.1952 0.74813 0.14541 0.0
H2005 H 0.1854 0.73773 0.08404 0.0
C2006 C 0.20111 0.73153 0.15199 0.0
C2007 C 0.18904 0.75032 0.12068 0.0
C2008 C 0.18318 0.76794 0.1121 0.0
C2009 C 0.20242 0.71741 0.13424 0.0
C2010 C 0.19691 0.71979 0.10935 0.0
C2011 C 0.18963 0.73598 0.10313 0.0
C2012 C 0.20104 0.70672 0.08905 0.0
C2013 C 0.211 0.70058 0.14209 0.0
C2014 C 0.21191 0.71188 0.07066 0.0
C2015 C 0.21733 0.6996 0.05251 0.0
C2016 C 0.2122 0.6819 0.05264 0.0
C2017 C 0.20081 0.67676 0.07042 0.0
C2018 C 0.19506 0.68916 0.08836 0.0
H2019 H 0.21789 0.70229 0.16084 0.0
H2020 H 0.20039 0.69031 0.14234 0.0
H2021 H 0.22104 0.69577 0.12903 0.0
H2022 H 0.21667 0.72535 0.07076 0.0
H2023 H 0.226 0.7038 0.03879 0.0
H2024 H 0.36179 0.85798 0.81149 0.0
H2025 H 0.38879 0.85791 0.83983 0.0
H2026 H 0.37423 0.9085 0.87303 0.0
H2027 H 0.34736 0.90883 0.8444 0.0
H2028 H 0.41025 0.90646 0.85908 0.0
H2029 H 0.39295 0.8512 0.91436 0.0
H2030 H 0.39046 0.84602 0.88165 0.0
H2031 H 0.37623 0.86235 0.89568 0.0
C2032 C 0.36429 0.86903 0.82493 0.0
C2033 C 0.35246 0.88339 0.82578 0.0
C2034 C 0.37962 0.86891 0.84122 0.0
C2035 C 0.38336 0.88312 0.85867 0.0
C2036 C 0.37148 0.89737 0.85979 0.0
H2037 H 0.47037 0.88107 0.97427 0.0
H2038 H 0.44107 0.8854 0.95179 0.0
C2039 C 0.35609 0.89747 0.84356 0.0
C2040 C 0.40023 0.88349 0.87476 0.0
H2041 H 0.42368 0.86091 0.91809 0.0
C2042 C 0.41315 0.89661 0.87217 0.0
C2043 C 0.40384 0.87074 0.89197 0.0
C2044 C 0.39008 0.85686 0.89631 0.0
C2045 C 0.42989 0.89697 0.88579 0.0
C2046 C 0.43383 0.88373 0.90216 0.0
C2047 C 0.42066 0.87096 0.90535 0.0
C2048 C 0.45168 0.88256 0.91571 0.0
C2049 C 0.4432 0.91151 0.88256 0.0
C2050 C 0.46729 0.8796 0.90284 0.0
C2051 C 0.48395 0.87721 0.91563 0.0
C2052 C 0.48512 0.87766 0.9414 0.0
C2053 C 0.46963 0.88084 0.95434 0.0
C2054 C 0.45298 0.88325 0.94156 0.0
H2055 H 0.4364 0.92308 0.87491 0.0
H2056 H 0.45062 0.91583 0.90034 0.0
H2057 H 0.4532 0.9066 0.86951 0.0
H2058 H 0.4665 0.87865 0.88289 0.0
H2059 H 0.49581 0.87455 0.90547 0.0
H2060 H 0.31646 0.46325 0.86085 0.0
H2061 H 0.31109 0.49103 0.88441 0.0
H2062 H 0.25883 0.47192 0.90113 0.0
H2063 H 0.26379 0.44441 0.87687 0.0
H2064 H 0.25695 0.50285 0.8796 0.0
H2065 H 0.30955 0.50751 0.95686 0.0
H2066 H 0.3186 0.5025 0.92749 0.0
H2067 H 0.30365 0.48702 0.93936 0.0
C2068 C 0.30397 0.46485 0.86992 0.0
C2069 C 0.29053 0.45165 0.86692 0.0
C2070 C 0.301 0.48066 0.8836 0.0
C2071 C 0.28462 0.48347 0.89469 0.0
C2072 C 0.27161 0.46995 0.89285 0.0
H2073 H 0.25581 0.58012 0.97879 0.0
H2074 H 0.26313 0.54942 0.96644 0.0
C2075 C 0.27454 0.45418 0.87912 0.0
C2076 C 0.28012 0.5012 0.90533 0.0
H2077 H 0.29488 0.53444 0.94726 0.0
C2078 C 0.26513 0.50967 0.89459 0.0
C2079 C 0.29074 0.51003 0.92497 0.0
C2080 C 0.30643 0.50124 0.93802 0.0
C2081 C 0.26076 0.52693 0.90246 0.0
C2082 C 0.2719 0.53608 0.92124 0.0
C2083 C 0.28654 0.52745 0.9326 0.0
C2084 C 0.26854 0.55466 0.92914 0.0
C2085 C 0.24424 0.53523 0.89061 0.0
C2086 C 0.26954 0.56773 0.91237 0.0
C2087 C 0.26535 0.58514 0.91938 0.0
C2088 C 0.26023 0.58964 0.94324 0.0
C2089 C 0.25974 0.57674 0.96026 0.0
C2090 C 0.26391 0.55932 0.95325 0.0
H2091 H 0.23468 0.52516 0.88144 0.0
H2092 H 0.23703 0.54344 0.90442 0.0
H2093 H 0.24844 0.54383 0.87641 0.0
H2094 H 0.27337 0.5644 0.8938 0.0
H2095 H 0.26587 0.59503 0.90614 0.0
H2096 H 0.71804 0.24341 0.905 0.0
H2097 H 0.68911 0.24396 0.92434 0.0
H2098 H 0.67469 0.29143 0.88947 0.0
H2099 H 0.70345 0.291 0.87019 0.0
H2100 H 0.67528 0.27006 0.95617 0.0
H2101 H 0.63089 0.25956 0.87044 0.0
H2102 H 0.65488 0.25555 0.87138 0.0
H2103 H 0.64647 0.27758 0.86987 0.0
C2104 C 0.7087 0.25397 0.90151 0.0
C2105 C 0.71293 0.26706 0.88587 0.0
C2106 C 0.69218 0.25423 0.91247 0.0
C2107 C 0.67963 0.26754 0.90791 0.0
C2108 C 0.68397 0.28077 0.89268 0.0
H2109 H 0.57781 0.30296 0.95892 0.0
H2110 H 0.60647 0.29873 0.93955 0.0
C2111 C 0.70042 0.28051 0.88169 0.0
C2112 C 0.66219 0.268 0.91962 0.0
H2113 H 0.61655 0.26931 0.90684 0.0
C2114 C 0.66242 0.2697 0.94543 0.0
C2115 C 0.64546 0.26751 0.90551 0.0
C2116 C 0.64434 0.26478 0.87777 0.0
C2117 C 0.64634 0.27156 0.9575 0.0
C2118 C 0.62965 0.27149 0.94336 0.0
C2119 C 0.6294 0.26946 0.91759 0.0
C2120 C 0.6123 0.27385 0.95497 0.0
C2121 C 0.64734 0.27413 0.98525 0.0
C2122 C 0.60605 0.26113 0.96976 0.0
C2123 C 0.58973 0.26351 0.98087 0.0
C2124 C 0.57936 0.27866 0.97733 0.0
C2125 C 0.58559 0.29127 0.96223 0.0
C2126 C 0.60189 0.28883 0.95106 0.0
H2127 H 0.66125 0.27748 0.99304 0.0
H2128 H 0.63808 0.28472 0.99142 0.0
H2129 H 0.64308 0.26178 0.9929 0.0
H2130 H 0.61381 0.24936 0.97272 0.0
H2131 H 0.58537 0.25364 0.99257 0.0
H2132 H 0.8168 0.69348 0.94535 0.0
H2133 H 0.81791 0.66889 0.97179 0.0
H2134 H 0.84778 0.6384 0.91883 0.0
H2135 H 0.84694 0.66311 0.89226 0.0
H2136 H 0.80379 0.63294 0.95283 0.0
H2137 H 0.87582 0.63507 0.98947 0.0
H2138 H 0.86448 0.6543 0.9787 0.0
H2139 H 0.87085 0.63703 0.95699 0.0
C2140 C 0.82393 0.68168 0.93955 0.0
C2141 C 0.83186 0.68021 0.91681 0.0
C2142 C 0.82445 0.66764 0.95459 0.0
C2143 C 0.83302 0.65197 0.94725 0.0
C2144 C 0.84127 0.65051 0.92482 0.0
H2145 H 0.8424 0.5553 0.02411 0.0
H2146 H 0.84592 0.57782 0.99481 0.0
C2147 C 0.84067 0.66455 0.90966 0.0
C2148 C 0.83221 0.63682 0.96245 0.0
H2149 H 0.85719 0.61302 0.00282 0.0
C2150 C 0.81546 0.6285 0.9637 0.0
C2151 C 0.84753 0.63105 0.97629 0.0
C2152 C 0.86573 0.6398 0.97552 0.0
C2153 C 0.81353 0.61461 0.97879 0.0
C2154 C 0.8287 0.60926 0.99344 0.0
C2155 C 0.84559 0.61725 0.99164 0.0
C2156 C 0.82705 0.59587 0.01145 0.0
C2157 C 0.79529 0.60577 0.97886 0.0
C2158 C 0.81559 0.5988 0.03073 0.0
C2159 C 0.81354 0.58602 0.04738 0.0
C2160 C 0.82306 0.57015 0.04519 0.0
C2161 C 0.83494 0.56744 0.02626 0.0
C2162 C 0.83693 0.58024 0.00951 0.0
H2163 H 0.78681 0.60773 0.96172 0.0
H2164 H 0.79669 0.59142 0.98082 0.0
H2165 H 0.78808 0.61157 0.99463 0.0
H2166 H 0.80822 0.61099 0.03288 0.0
H2167 H 0.80459 0.5886 0.06209 0.0
loop_
_geom_bond_atom_site_label_1
_geom_bond_atom_site_label_2
_geom_bond_distance
_geom_bond_site_symmetry_2
_ccdc_geom_bond_type
H0 O26 0.856 . S
H1 O29 0.854 . S
H2 C37 0.930 . S
H3 C38 0.930 . S
H4 C40 0.930 . S
H5 C41 0.930 . S
H6 C43 0.931 . S
H7 C44 0.930 . S
H8 C46 0.930 . S
H9 C47 0.929 . S
H10 C49 0.930 . S
H11 C50 0.931 . S
H12 C52 0.930 . S
H13 C53 0.929 . S
H14 C55 0.931 . S
H15 C56 0.930 . S
H16 C58 0.930 . S
H17 C59 0.932 . S
H18 C61 0.930 . S
H19 C62 0.929 . S
H20 C64 0.931 . S
H21 C65 0.930 . S
H22 C67 0.929 . S
H23 C68 0.931 . S
H24 C70 0.930 . S
H25 C71 0.929 . S
O26 H0 0.856 . S
O26 C72 1.300 . S
O27 C72 1.209 . S
O28 C73 1.199 . S
O29 H1 0.854 . S
O29 C73 1.297 . S
C30 C31 1.404 . S
C30 C35 1.397 . S
C30 C36 1.492 . S
C31 C30 1.404 . S
C31 C32 1.396 . S
C31 C42 1.492 . S
C32 C31 1.396 . S
C32 C33 1.397 . S
C32 C48 1.509 . S
C33 C32 1.397 . S
C33 C34 1.412 . S
C33 C54 1.485 . S
C34 C33 1.412 . S
C34 C35 1.388 . S
C34 C60 1.490 . S
C35 C30 1.397 . S
C35 C34 1.388 . S
C35 C66 1.519 . S
C36 C30 1.492 . S
C36 C37 1.363 . S
C36 C41 1.390 . S
C37 H2 0.930 . S
C37 C36 1.363 . S
C37 C38 1.372 . S
C38 H3 0.930 . S
C38 C37 1.372 . S
C38 C39 1.383 . S
C39 C38 1.383 . S
C39 C40 1.395 . S
C40 H4 0.930 . S
C40 C39 1.395 . S
C40 C41 1.362 . S
C41 H5 0.930 . S
C41 C36 1.390 . S
C41 C40 1.362 . S
C42 C31 1.492 . S
C42 C43 1.377 . S
C42 C47 1.397 . S
C43 H6 0.931 . S
C43 C42 1.377 . S
C43 C44 1.376 . S
C44 H7 0.930 . S
C44 C43 1.376 . S
C44 C45 1.376 . S
C45 C44 1.376 . S
C45 C46 1.378 . S
C45 C72 1.486 . S
C46 H8 0.930 . S
C46 C45 1.378 . S
C46 C47 1.376 . S
C47 H9 0.929 . S
C47 C42 1.397 . S
C47 C46 1.376 . S
C48 C32 1.509 . S
C48 C49 1.391 . S
C48 C53 1.386 . S
C49 H10 0.930 . S
C49 C48 1.391 . S
C49 C50 1.375 . S
C50 H11 0.931 . S
C50 C49 1.375 . S
C50 C51 1.375 . S
C51 C50 1.375 . S
C51 C52 1.361 . S
C52 H12 0.930 . S
C52 C51 1.361 . S
C52 C53 1.399 . S
C53 H13 0.929 . S
C53 C48 1.386 . S
C53 C52 1.399 . S
C54 C33 1.485 . S
C54 C55 1.394 . S
C54 C59 1.360 . S
C55 H14 0.931 . S
C55 C54 1.394 . S
C55 C56 1.372 . S
C56 H15 0.930 . S
C56 C55 1.372 . S
C56 C57 1.397 . S
C57 C56 1.397 . S
C57 C58 1.390 . S
C57 C73 1.476 . S
C58 H16 0.930 . S
C58 C57 1.390 . S
C58 C59 1.366 . S
C59 H17 0.932 . S
C59 C54 1.360 . S
C59 C58 1.366 . S
C60 C34 1.490 . S
C60 C61 1.380 . S
C60 C65 1.386 . S
C61 H18 0.930 . S
C61 C60 1.380 . S
C61 C62 1.381 . S
C62 H19 0.929 . S
C62 C61 1.381 . S
C62 C63 1.371 . S
C63 C62 1.371 . S
C63 C64 1.380 . S
C64 H20 0.931 . S
C64 C63 1.380 . S
C64 C65 1.387 . S
C65 H21 0.930 . S
C65 C60 1.386 . S
C65 C64 1.387 . S
C66 C35 1.519 . S
C66 C67 1.377 . S
C66 C71 1.361 . S
C67 H22 0.929 . S
C67 C66 1.377 . S
C67 C68 1.386 . S
C68 H23 0.931 . S
C68 C67 1.386 . S
C68 C69 1.363 . S
C69 C68 1.363 . S
C69 C70 1.385 . S
C70 H24 0.930 . S
C70 C69 1.385 . S
C70 C71 1.396 . S
C71 H25 0.929 . S
C71 C66 1.361 . S
C71 C70 1.396 . S
C72 O26 1.300 . S
C72 O27 1.209 . S
C72 C45 1.486 . S
C73 O28 1.199 . S
C73 O29 1.297 . S
C73 C57 1.476 . S
H74 O100 0.856 . S
H75 O103 0.854 . S
H76 C111 0.930 . S
H77 C112 0.930 . S
H78 C114 0.930 . S
H79 C115 0.930 . S
H80 C117 0.931 . S
H81 C118 0.930 . S
H82 C120 0.930 . S
H83 C121 0.929 . S
H84 C123 0.930 . S
H85 C124 0.931 . S
H86 C126 0.930 . S
H87 C127 0.929 . S
H88 C129 0.931 . S
H89 C130 0.930 . S
H90 C132 0.930 . S
H91 C133 0.932 . S
H92 C135 0.930 . S
H93 C136 0.929 . S
H94 C138 0.931 . S
H95 C139 0.930 . S
H96 C141 0.929 . S
H97 C142 0.931 . S
H98 C144 0.930 . S
H99 C145 0.929 . S
O100 H74 0.856 . S
O100 C146 1.300 . S
O101 C146 1.209 . S
O102 C147 1.199 . S
O103 H75 0.854 . S
O103 C147 1.297 . S
C104 C105 1.404 . S
C104 C109 1.397 . S
C104 C110 1.492 . S
C105 C104 1.404 . S
C105 C106 1.396 . S
C105 C116 1.492 . S
C106 C105 1.396 . S
C106 C107 1.397 . S
C106 C122 1.509 . S
C107 C106 1.397 . S
C107 C108 1.412 . S
C107 C128 1.485 . S
C108 C107 1.412 . S
C108 C109 1.388 . S
C108 C134 1.490 . S
C109 C104 1.397 . S
C109 C108 1.388 . S
C109 C140 1.519 . S
C110 C104 1.492 . S
C110 C111 1.363 . S
C110 C115 1.390 . S
C111 H76 0.930 . S
C111 C110 1.363 . S
C111 C112 1.372 . S
C112 H77 0.930 . S
C112 C111 1.372 . S
C112 C113 1.383 . S
C113 C112 1.383 . S
C113 C114 1.395 . S
C114 H78 0.930 . S
C114 C113 1.395 . S
C114 C115 1.362 . S
C115 H79 0.930 . S
C115 C110 1.390 . S
C115 C114 1.362 . S
C116 C105 1.492 . S
C116 C117 1.377 . S
C116 C121 1.397 . S
C117 H80 0.931 . S
C117 C116 1.377 . S
C117 C118 1.376 . S
C118 H81 0.930 . S
C118 C117 1.376 . S
C118 C119 1.376 . S
C119 C118 1.376 . S
C119 C120 1.378 . S
C119 C146 1.486 . S
C120 H82 0.930 . S
C120 C119 1.378 . S
C120 C121 1.376 . S
C121 H83 0.929 . S
C121 C116 1.397 . S
C121 C120 1.376 . S
C122 C106 1.509 . S
C122 C123 1.391 . S
C122 C127 1.386 . S
C123 H84 0.930 . S
C123 C122 1.391 . S
C123 C124 1.375 . S
C124 H85 0.931 . S
C124 C123 1.375 . S
C124 C125 1.375 . S
C125 C124 1.375 . S
C125 C126 1.361 . S
C126 H86 0.930 . S
C126 C125 1.361 . S
C126 C127 1.399 . S
C127 H87 0.929 . S
C127 C122 1.386 . S
C127 C126 1.399 . S
C128 C107 1.485 . S
C128 C129 1.394 . S
C128 C133 1.360 . S
C129 H88 0.931 . S
C129 C128 1.394 . S
C129 C130 1.372 . S
C130 H89 0.930 . S
C130 C129 1.372 . S
C130 C131 1.397 . S
C131 C130 1.397 . S
C131 C132 1.390 . S
C131 C147 1.476 . S
C132 H90 0.930 . S
C132 C131 1.390 . S
C132 C133 1.366 . S
C133 H91 0.932 . S
C133 C128 1.360 . S
C133 C132 1.366 . S
C134 C108 1.490 . S
C134 C135 1.380 . S
C134 C139 1.386 . S
C135 H92 0.930 . S
C135 C134 1.380 . S
C135 C136 1.381 . S
C136 H93 0.929 . S
C136 C135 1.381 . S
C136 C137 1.371 . S
C137 C136 1.371 . S
C137 C138 1.380 . S
C138 H94 0.931 . S
C138 C137 1.380 . S
C138 C139 1.387 . S
C139 H95 0.930 . S
C139 C134 1.386 . S
C139 C138 1.387 . S
C140 C109 1.519 . S
C140 C141 1.377 . S
C140 C145 1.361 . S
C141 H96 0.929 . S
C141 C140 1.377 . S
C141 C142 1.386 . S
C142 H97 0.931 . S
C142 C141 1.386 . S
C142 C143 1.363 . S
C143 C142 1.363 . S
C143 C144 1.385 . S
C144 H98 0.930 . S
C144 C143 1.385 . S
C144 C145 1.396 . S
C145 H99 0.929 . S
C145 C140 1.361 . S
C145 C144 1.396 . S
C146 O100 1.300 . S
C146 O101 1.209 . S
C146 C119 1.486 . S
C147 O102 1.199 . S
C147 O103 1.297 . S
C147 C131 1.476 . S
H148 O174 0.856 . S
H149 O177 0.854 . S
H150 C185 0.930 . S
H151 C186 0.930 . S
H152 C188 0.930 . S
H153 C189 0.930 . S
H154 C191 0.931 . S
H155 C192 0.930 . S
H156 C194 0.930 . S
H157 C195 0.929 . S
H158 C197 0.930 . S
H159 C198 0.931 . S
H160 C200 0.930 . S
H161 C201 0.929 . S
H162 C203 0.931 . S
H163 C204 0.930 . S
H164 C206 0.930 . S
H165 C207 0.932 . S
H166 C209 0.930 . S
H167 C210 0.929 . S
H168 C212 0.931 . S
H169 C213 0.930 . S
H170 C215 0.929 . S
H171 C216 0.931 . S
H172 C218 0.930 . S
H173 C219 0.929 . S
O174 H148 0.856 . S
O174 C220 1.300 . S
O175 C220 1.209 . S
O176 C221 1.199 . S
O177 H149 0.854 . S
O177 C221 1.297 . S
C178 C179 1.404 . S
C178 C183 1.397 . S
C178 C184 1.492 . S
C179 C178 1.404 . S
C179 C180 1.396 . S
C179 C190 1.492 . S
C180 C179 1.396 . S
C180 C181 1.397 . S
C180 C196 1.509 . S
C181 C180 1.397 . S
C181 C182 1.412 . S
C181 C202 1.485 . S
C182 C181 1.412 . S
C182 C183 1.388 . S
C182 C208 1.490 . S
C183 C178 1.397 . S
C183 C182 1.388 . S
C183 C214 1.519 . S
C184 C178 1.492 . S
C184 C185 1.363 . S
C184 C189 1.390 . S
C185 H150 0.930 . S
C185 C184 1.363 . S
C185 C186 1.372 . S
C186 H151 0.930 . S
C186 C185 1.372 . S
C186 C187 1.383 . S
C187 C186 1.383 . S
C187 C188 1.395 . S
C188 H152 0.930 . S
C188 C187 1.395 . S
C188 C189 1.362 . S
C189 H153 0.930 . S
C189 C184 1.390 . S
C189 C188 1.362 . S
C190 C179 1.492 . S
C190 C191 1.377 . S
C190 C195 1.397 . S
C191 H154 0.931 . S
C191 C190 1.377 . S
C191 C192 1.376 . S
C192 H155 0.930 . S
C192 C191 1.376 . S
C192 C193 1.376 . S
C193 C192 1.376 . S
C193 C194 1.378 . S
C193 C220 1.486 . S
C194 H156 0.930 . S
C194 C193 1.378 . S
C194 C195 1.376 . S
C195 H157 0.929 . S
C195 C190 1.397 . S
C195 C194 1.376 . S
C196 C180 1.509 . S
C196 C197 1.391 . S
C196 C201 1.386 . S
C197 H158 0.930 . S
C197 C196 1.391 . S
C197 C198 1.375 . S
C198 H159 0.931 . S
C198 C197 1.375 . S
C198 C199 1.375 . S
C199 C198 1.375 . S
C199 C200 1.361 . S
C200 H160 0.930 . S
C200 C199 1.361 . S
C200 C201 1.399 . S
C201 H161 0.929 . S
C201 C196 1.386 . S
C201 C200 1.399 . S
C202 C181 1.485 . S
C202 C203 1.394 . S
C202 C207 1.360 . S
C203 H162 0.931 . S
C203 C202 1.394 . S
C203 C204 1.372 . S
C204 H163 0.930 . S
C204 C203 1.372 . S
C204 C205 1.397 . S
C205 C204 1.397 . S
C205 C206 1.390 . S
C205 C221 1.476 . S
C206 H164 0.930 . S
C206 C205 1.390 . S
C206 C207 1.366 . S
C207 H165 0.932 . S
C207 C202 1.360 . S
C207 C206 1.366 . S
C208 C182 1.490 . S
C208 C209 1.380 . S
C208 C213 1.386 . S
C209 H166 0.930 . S
C209 C208 1.380 . S
C209 C210 1.381 . S
C210 H167 0.929 . S
C210 C209 1.381 . S
C210 C211 1.371 . S
C211 C210 1.371 . S
C211 C212 1.380 . S
C212 H168 0.931 . S
C212 C211 1.380 . S
C212 C213 1.387 . S
C213 H169 0.930 . S
C213 C208 1.386 . S
C213 C212 1.387 . S
C214 C183 1.519 . S
C214 C215 1.377 . S
C214 C219 1.361 . S
C215 H170 0.929 . S
C215 C214 1.377 . S
C215 C216 1.386 . S
C216 H171 0.931 . S
C216 C215 1.386 . S
C216 C217 1.363 . S
C217 C216 1.363 . S
C217 C218 1.385 . S
C218 H172 0.930 . S
C218 C217 1.385 . S
C218 C219 1.396 . S
C219 H173 0.929 . S
C219 C214 1.361 . S
C219 C218 1.396 . S
C220 O174 1.300 . S
C220 O175 1.209 . S
C220 C193 1.486 . S
C221 O176 1.199 . S
C221 O177 1.297 . S
C221 C205 1.476 . S
H222 O248 0.856 . S
H223 O251 0.854 . S
H224 C259 0.930 . S
H225 C260 0.930 . S
H226 C262 0.930 . S
H227 C263 0.930 . S
H228 C265 0.931 . S
H229 C266 0.930 . S
H230 C268 0.930 . S
H231 C269 0.929 . S
H232 C271 0.930 . S
H233 C272 0.931 . S
H234 C274 0.930 . S
H235 C275 0.929 . S
H236 C277 0.931 . S
H237 C278 0.930 . S
H238 C280 0.930 . S
H239 C281 0.932 . S
H240 C283 0.930 . S
H241 C284 0.929 . S
H242 C286 0.931 . S
H243 C287 0.930 . S
H244 C289 0.929 . S
H245 C290 0.931 . S
H246 C292 0.930 . S
H247 C293 0.929 . S
O248 H222 0.856 . S
O248 C294 1.300 . S
O249 C294 1.209 . S
O250 C295 1.199 . S
O251 H223 0.854 . S
O251 C295 1.297 . S
C252 C253 1.404 . S
C252 C257 1.397 . S
C252 C258 1.492 . S
C253 C252 1.404 . S
C253 C254 1.396 . S
C253 C264 1.492 . S
C254 C253 1.396 . S
C254 C255 1.397 . S
C254 C270 1.509 . S
C255 C254 1.397 . S
C255 C256 1.412 . S
C255 C276 1.485 . S
C256 C255 1.412 . S
C256 C257 1.388 . S
C256 C282 1.490 . S
C257 C252 1.397 . S
C257 C256 1.388 . S
C257 C288 1.519 . S
C258 C252 1.492 . S
C258 C259 1.363 . S
C258 C263 1.390 . S
C259 H224 0.930 . S
C259 C258 1.363 . S
C259 C260 1.372 . S
C260 H225 0.930 . S
C260 C259 1.372 . S
C260 C261 1.383 . S
C261 C260 1.383 . S
C261 C262 1.395 . S
C262 H226 0.930 . S
C262 C261 1.395 . S
C262 C263 1.362 . S
C263 H227 0.930 . S
C263 C258 1.390 . S
C263 C262 1.362 . S
C264 C253 1.492 . S
C264 C265 1.377 . S
C264 C269 1.397 . S
C265 H228 0.931 . S
C265 C264 1.377 . S
C265 C266 1.376 . S
C266 H229 0.930 . S
C266 C265 1.376 . S
C266 C267 1.376 . S
C267 C266 1.376 . S
C267 C268 1.378 . S
C267 C294 1.486 . S
C268 H230 0.930 . S
C268 C267 1.378 . S
C268 C269 1.376 . S
C269 H231 0.929 . S
C269 C264 1.397 . S
C269 C268 1.376 . S
C270 C254 1.509 . S
C270 C271 1.391 . S
C270 C275 1.386 . S
C271 H232 0.930 . S
C271 C270 1.391 . S
C271 C272 1.375 . S
C272 H233 0.931 . S
C272 C271 1.375 . S
C272 C273 1.375 . S
C273 C272 1.375 . S
C273 C274 1.361 . S
C274 H234 0.930 . S
C274 C273 1.361 . S
C274 C275 1.399 . S
C275 H235 0.929 . S
C275 C270 1.386 . S
C275 C274 1.399 . S
C276 C255 1.485 . S
C276 C277 1.394 . S
C276 C281 1.360 . S
C277 H236 0.931 . S
C277 C276 1.394 . S
C277 C278 1.372 . S
C278 H237 0.930 . S
C278 C277 1.372 . S
C278 C279 1.397 . S
C279 C278 1.397 . S
C279 C280 1.390 . S
C279 C295 1.476 . S
C280 H238 0.930 . S
C280 C279 1.390 . S
C280 C281 1.366 . S
C281 H239 0.932 . S
C281 C276 1.360 . S
C281 C280 1.366 . S
C282 C256 1.490 . S
C282 C283 1.380 . S
C282 C287 1.386 . S
C283 H240 0.930 . S
C283 C282 1.380 . S
C283 C284 1.381 . S
C284 H241 0.929 . S
C284 C283 1.381 . S
C284 C285 1.371 . S
C285 C284 1.371 . S
C285 C286 1.380 . S
C286 H242 0.931 . S
C286 C285 1.380 . S
C286 C287 1.387 . S
C287 H243 0.930 . S
C287 C282 1.386 . S
C287 C286 1.387 . S
C288 C257 1.519 . S
C288 C289 1.377 . S
C288 C293 1.361 . S
C289 H244 0.929 . S
C289 C288 1.377 . S
C289 C290 1.386 . S
C290 H245 0.931 . S
C290 C289 1.386 . S
C290 C291 1.363 . S
C291 C290 1.363 . S
C291 C292 1.385 . S
C292 H246 0.930 . S
C292 C291 1.385 . S
C292 C293 1.396 . S
C293 H247 0.929 . S
C293 C288 1.361 . S
C293 C292 1.396 . S
C294 O248 1.300 . S
C294 O249 1.209 . S
C294 C267 1.486 . S
C295 O250 1.199 . S
C295 O251 1.297 . S
C295 C279 1.476 . S
H296 O322 0.856 . S
H297 O325 0.854 . S
H298 C333 0.930 . S
H299 C334 0.930 . S
H300 C336 0.930 . S
H301 C337 0.930 . S
H302 C339 0.931 . S
H303 C340 0.930 . S
H304 C342 0.930 . S
H305 C343 0.929 . S
H306 C345 0.930 . S
H307 C346 0.931 . S
H308 C348 0.930 . S
H309 C349 0.929 . S
H310 C351 0.931 . S
H311 C352 0.930 . S
H312 C354 0.930 . S
H313 C355 0.932 . S
H314 C357 0.930 . S
H315 C358 0.929 . S
H316 C360 0.931 . S
H317 C361 0.930 . S
H318 C363 0.929 . S
H319 C364 0.931 . S
H320 C366 0.930 . S
H321 C367 0.929 . S
O322 H296 0.856 . S
O322 C368 1.300 . S
O323 C368 1.209 . S
O324 C369 1.199 . S
O325 H297 0.854 . S
O325 C369 1.297 . S
C326 C327 1.404 . S
C326 C331 1.397 . S
C326 C332 1.492 . S
C327 C326 1.404 . S
C327 C328 1.396 . S
C327 C338 1.492 . S
C328 C327 1.396 . S
C328 C329 1.397 . S
C328 C344 1.509 . S
C329 C328 1.397 . S
C329 C330 1.412 . S
C329 C350 1.485 . S
C330 C329 1.412 . S
C330 C331 1.388 . S
C330 C356 1.490 . S
C331 C326 1.397 . S
C331 C330 1.388 . S
C331 C362 1.519 . S
C332 C326 1.492 . S
C332 C333 1.363 . S
C332 C337 1.390 . S
C333 H298 0.930 . S
C333 C332 1.363 . S
C333 C334 1.372 . S
C334 H299 0.930 . S
C334 C333 1.372 . S
C334 C335 1.383 . S
C335 C334 1.383 . S
C335 C336 1.395 . S
C336 H300 0.930 . S
C336 C335 1.395 . S
C336 C337 1.362 . S
C337 H301 0.930 . S
C337 C332 1.390 . S
C337 C336 1.362 . S
C338 C327 1.492 . S
C338 C339 1.377 . S
C338 C343 1.397 . S
C339 H302 0.931 . S
C339 C338 1.377 . S
C339 C340 1.376 . S
C340 H303 0.930 . S
C340 C339 1.376 . S
C340 C341 1.376 . S
C341 C340 1.376 . S
C341 C342 1.378 . S
C341 C368 1.486 . S
C342 H304 0.930 . S
C342 C341 1.378 . S
C342 C343 1.376 . S
C343 H305 0.929 . S
C343 C338 1.397 . S
C343 C342 1.376 . S
C344 C328 1.509 . S
C344 C345 1.391 . S
C344 C349 1.386 . S
C345 H306 0.930 . S
C345 C344 1.391 . S
C345 C346 1.375 . S
C346 H307 0.931 . S
C346 C345 1.375 . S
C346 C347 1.375 . S
C347 C346 1.375 . S
C347 C348 1.361 . S
C348 H308 0.930 . S
C348 C347 1.361 . S
C348 C349 1.399 . S
C349 H309 0.929 . S
C349 C344 1.386 . S
C349 C348 1.399 . S
C350 C329 1.485 . S
C350 C351 1.394 . S
C350 C355 1.360 . S
C351 H310 0.931 . S
C351 C350 1.394 . S
C351 C352 1.372 . S
C352 H311 0.930 . S
C352 C351 1.372 . S
C352 C353 1.397 . S
C353 C352 1.397 . S
C353 C354 1.390 . S
C353 C369 1.476 . S
C354 H312 0.930 . S
C354 C353 1.390 . S
C354 C355 1.366 . S
C355 H313 0.932 . S
C355 C350 1.360 . S
C355 C354 1.366 . S
C356 C330 1.490 . S
C356 C357 1.380 . S
C356 C361 1.386 . S
C357 H314 0.930 . S
C357 C356 1.380 . S
C357 C358 1.381 . S
C358 H315 0.929 . S
C358 C357 1.381 . S
C358 C359 1.371 . S
C359 C358 1.371 . S
C359 C360 1.380 . S
C360 H316 0.931 . S
C360 C359 1.380 . S
C360 C361 1.387 . S
C361 H317 0.930 . S
C361 C356 1.386 . S
C361 C360 1.387 . S
C362 C331 1.519 . S
C362 C363 1.377 . S
C362 C367 1.361 . S
C363 H318 0.929 . S
C363 C362 1.377 . S
C363 C364 1.386 . S
C364 H319 0.931 . S
C364 C363 1.386 . S
C364 C365 1.363 . S
C365 C364 1.363 . S
C365 C366 1.385 . S
C366 H320 0.930 . S
C366 C365 1.385 . S
C366 C367 1.396 . S
C367 H321 0.929 . S
C367 C362 1.361 . S
C367 C366 1.396 . S
C368 O322 1.300 . S
C368 O323 1.209 . S
C368 C341 1.486 . S
C369 O324 1.199 . S
C369 O325 1.297 . S
C369 C353 1.476 . S
H370 O396 0.856 . S
H371 O399 0.854 . S
H372 C407 0.930 . S
H373 C408 0.930 . S
H374 C410 0.930 . S
H375 C411 0.930 . S
H376 C413 0.931 . S
H377 C414 0.930 . S
H378 C416 0.930 . S
H379 C417 0.929 . S
H380 C419 0.930 . S
H381 C420 0.931 . S
H382 C422 0.930 . S
H383 C423 0.929 . S
H384 C425 0.931 . S
H385 C426 0.930 . S
H386 C428 0.930 . S
H387 C429 0.932 . S
H388 C431 0.930 . S
H389 C432 0.929 . S
H390 C434 0.931 . S
H391 C435 0.930 . S
H392 C437 0.929 . S
H393 C438 0.931 . S
H394 C440 0.930 . S
H395 C441 0.929 . S
O396 H370 0.856 . S
O396 C442 1.300 . S
O397 C442 1.209 . S
O398 C443 1.199 . S
O399 H371 0.854 . S
O399 C443 1.297 . S
C400 C401 1.404 . S
C400 C405 1.397 . S
C400 C406 1.492 . S
C401 C400 1.404 . S
C401 C402 1.396 . S
C401 C412 1.492 . S
C402 C401 1.396 . S
C402 C403 1.397 . S
C402 C418 1.509 . S
C403 C402 1.397 . S
C403 C404 1.412 . S
C403 C424 1.485 . S
C404 C403 1.412 . S
C404 C405 1.388 . S
C404 C430 1.490 . S
C405 C400 1.397 . S
C405 C404 1.388 . S
C405 C436 1.519 . S
C406 C400 1.492 . S
C406 C407 1.363 . S
C406 C411 1.390 . S
C407 H372 0.930 . S
C407 C406 1.363 . S
C407 C408 1.372 . S
C408 H373 0.930 . S
C408 C407 1.372 . S
C408 C409 1.383 . S
C409 C408 1.383 . S
C409 C410 1.395 . S
C410 H374 0.930 . S
C410 C409 1.395 . S
C410 C411 1.362 . S
C411 H375 0.930 . S
C411 C406 1.390 . S
C411 C410 1.362 . S
C412 C401 1.492 . S
C412 C413 1.377 . S
C412 C417 1.397 . S
C413 H376 0.931 . S
C413 C412 1.377 . S
C413 C414 1.376 . S
C414 H377 0.930 . S
C414 C413 1.376 . S
C414 C415 1.376 . S
C415 C414 1.376 . S
C415 C416 1.378 . S
C415 C442 1.486 . S
C416 H378 0.930 . S
C416 C415 1.378 . S
C416 C417 1.376 . S
C417 H379 0.929 . S
C417 C412 1.397 . S
C417 C416 1.376 . S
C418 C402 1.509 . S
C418 C419 1.391 . S
C418 C423 1.386 . S
C419 H380 0.930 . S
C419 C418 1.391 . S
C419 C420 1.375 . S
C420 H381 0.931 . S
C420 C419 1.375 . S
C420 C421 1.375 . S
C421 C420 1.375 . S
C421 C422 1.361 . S
C422 H382 0.930 . S
C422 C421 1.361 . S
C422 C423 1.399 . S
C423 H383 0.929 . S
C423 C418 1.386 . S
C423 C422 1.399 . S
C424 C403 1.485 . S
C424 C425 1.394 . S
C424 C429 1.360 . S
C425 H384 0.931 . S
C425 C424 1.394 . S
C425 C426 1.372 . S
C426 H385 0.930 . S
C426 C425 1.372 . S
C426 C427 1.397 . S
C427 C426 1.397 . S
C427 C428 1.390 . S
C427 C443 1.476 . S
C428 H386 0.930 . S
C428 C427 1.390 . S
C428 C429 1.366 . S
C429 H387 0.932 . S
C429 C424 1.360 . S
C429 C428 1.366 . S
C430 C404 1.490 . S
C430 C431 1.380 . S
C430 C435 1.386 . S
C431 H388 0.930 . S
C431 C430 1.380 . S
C431 C432 1.381 . S
C432 H389 0.929 . S
C432 C431 1.381 . S
C432 C433 1.371 . S
C433 C432 1.371 . S
C433 C434 1.380 . S
C434 H390 0.931 . S
C434 C433 1.380 . S
C434 C435 1.387 . S
C435 H391 0.930 . S
C435 C430 1.386 . S
C435 C434 1.387 . S
C436 C405 1.519 . S
C436 C437 1.377 . S
C436 C441 1.361 . S
C437 H392 0.929 . S
C437 C436 1.377 . S
C437 C438 1.386 . S
C438 H393 0.931 . S
C438 C437 1.386 . S
C438 C439 1.363 . S
C439 C438 1.363 . S
C439 C440 1.385 . S
C440 H394 0.930 . S
C440 C439 1.385 . S
C440 C441 1.396 . S
C441 H395 0.929 . S
C441 C436 1.361 . S
C441 C440 1.396 . S
C442 O396 1.300 . S
C442 O397 1.209 . S
C442 C415 1.486 . S
C443 O398 1.199 . S
C443 O399 1.297 . S
C443 C427 1.476 . S
H444 O470 0.856 . S
H445 O473 0.854 . S
H446 C481 0.930 . S
H447 C482 0.930 . S
H448 C484 0.930 . S
H449 C485 0.930 . S
H450 C487 0.931 . S
H451 C488 0.930 . S
H452 C490 0.930 . S
H453 C491 0.929 . S
H454 C493 0.930 . S
H455 C494 0.931 . S
H456 C496 0.930 . S
H457 C497 0.929 . S
H458 C499 0.931 . S
H459 C500 0.930 . S
H460 C502 0.930 . S
H461 C503 0.932 . S
H462 C505 0.930 . S
H463 C506 0.929 . S
H464 C508 0.931 . S
H465 C509 0.930 . S
H466 C511 0.929 . S
H467 C512 0.931 . S
H468 C514 0.930 . S
H469 C515 0.929 . S
O470 H444 0.856 . S
O470 C516 1.300 . S
O471 C516 1.209 . S
O472 C517 1.199 . S
O473 H445 0.854 . S
O473 C517 1.297 . S
C474 C475 1.404 . S
C474 C479 1.397 . S
C474 C480 1.492 . S
C475 C474 1.404 . S
C475 C476 1.396 . S
C475 C486 1.492 . S
C476 C475 1.396 . S
C476 C477 1.397 . S
C476 C492 1.509 . S
C477 C476 1.397 . S
C477 C478 1.412 . S
C477 C498 1.485 . S
C478 C477 1.412 . S
C478 C479 1.388 . S
C478 C504 1.490 . S
C479 C474 1.397 . S
C479 C478 1.388 . S
C479 C510 1.519 . S
C480 C474 1.492 . S
C480 C481 1.363 . S
C480 C485 1.390 . S
C481 H446 0.930 . S
C481 C480 1.363 . S
C481 C482 1.372 . S
C482 H447 0.930 . S
C482 C481 1.372 . S
C482 C483 1.383 . S
C483 C482 1.383 . S
C483 C484 1.395 . S
C484 H448 0.930 . S
C484 C483 1.395 . S
C484 C485 1.362 . S
C485 H449 0.930 . S
C485 C480 1.390 . S
C485 C484 1.362 . S
C486 C475 1.492 . S
C486 C487 1.377 . S
C486 C491 1.397 . S
C487 H450 0.931 . S
C487 C486 1.377 . S
C487 C488 1.376 . S
C488 H451 0.930 . S
C488 C487 1.376 . S
C488 C489 1.376 . S
C489 C488 1.376 . S
C489 C490 1.378 . S
C489 C516 1.486 . S
C490 H452 0.930 . S
C490 C489 1.378 . S
C490 C491 1.376 . S
C491 H453 0.929 . S
C491 C486 1.397 . S
C491 C490 1.376 . S
C492 C476 1.509 . S
C492 C493 1.391 . S
C492 C497 1.386 . S
C493 H454 0.930 . S
C493 C492 1.391 . S
C493 C494 1.375 . S
C494 H455 0.931 . S
C494 C493 1.375 . S
C494 C495 1.375 . S
C495 C494 1.375 . S
C495 C496 1.361 . S
C496 H456 0.930 . S
C496 C495 1.361 . S
C496 C497 1.399 . S
C497 H457 0.929 . S
C497 C492 1.386 . S
C497 C496 1.399 . S
C498 C477 1.485 . S
C498 C499 1.394 . S
C498 C503 1.360 . S
C499 H458 0.931 . S
C499 C498 1.394 . S
C499 C500 1.372 . S
C500 H459 0.930 . S
C500 C499 1.372 . S
C500 C501 1.397 . S
C501 C500 1.397 . S
C501 C502 1.390 . S
C501 C517 1.476 . S
C502 H460 0.930 . S
C502 C501 1.390 . S
C502 C503 1.366 . S
C503 H461 0.932 . S
C503 C498 1.360 . S
C503 C502 1.366 . S
C504 C478 1.490 . S
C504 C505 1.380 . S
C504 C509 1.386 . S
C505 H462 0.930 . S
C505 C504 1.380 . S
C505 C506 1.381 . S
C506 H463 0.929 . S
C506 C505 1.381 . S
C506 C507 1.371 . S
C507 C506 1.371 . S
C507 C508 1.380 . S
C508 H464 0.931 . S
C508 C507 1.380 . S
C508 C509 1.387 . S
C509 H465 0.930 . S
C509 C504 1.386 . S
C509 C508 1.387 . S
C510 C479 1.519 . S
C510 C511 1.377 . S
C510 C515 1.361 . S
C511 H466 0.929 . S
C511 C510 1.377 . S
C511 C512 1.386 . S
C512 H467 0.931 . S
C512 C511 1.386 . S
C512 C513 1.363 . S
C513 C512 1.363 . S
C513 C514 1.385 . S
C514 H468 0.930 . S
C514 C513 1.385 . S
C514 C515 1.396 . S
C515 H469 0.929 . S
C515 C510 1.361 . S
C515 C514 1.396 . S
C516 O470 1.300 . S
C516 O471 1.209 . S
C516 C489 1.486 . S
C517 O472 1.199 . S
C517 O473 1.297 . S
C517 C501 1.476 . S
H518 O544 0.856 . S
H519 O547 0.854 . S
H520 C555 0.930 . S
H521 C556 0.930 . S
H522 C558 0.930 . S
H523 C559 0.930 . S
H524 C561 0.931 . S
H525 C562 0.930 . S
H526 C564 0.930 . S
H527 C565 0.929 . S
H528 C567 0.930 . S
H529 C568 0.931 . S
H530 C570 0.930 . S
H531 C571 0.929 . S
H532 C573 0.931 . S
H533 C574 0.930 . S
H534 C576 0.930 . S
H535 C577 0.932 . S
H536 C579 0.930 . S
H537 C580 0.929 . S
H538 C582 0.931 . S
H539 C583 0.930 . S
H540 C585 0.929 . S
H541 C586 0.931 . S
H542 C588 0.930 . S
H543 C589 0.929 . S
O544 H518 0.856 . S
O544 C590 1.300 . S
O545 C590 1.209 . S
O546 C591 1.199 . S
O547 H519 0.854 . S
O547 C591 1.297 . S
C548 C549 1.404 . S
C548 C553 1.397 . S
C548 C554 1.492 . S
C549 C548 1.404 . S
C549 C550 1.396 . S
C549 C560 1.492 . S
C550 C549 1.396 . S
C550 C551 1.397 . S
C550 C566 1.509 . S
C551 C550 1.397 . S
C551 C552 1.412 . S
C551 C572 1.485 . S
C552 C551 1.412 . S
C552 C553 1.388 . S
C552 C578 1.490 . S
C553 C548 1.397 . S
C553 C552 1.388 . S
C553 C584 1.519 . S
C554 C548 1.492 . S
C554 C555 1.363 . S
C554 C559 1.390 . S
C555 H520 0.930 . S
C555 C554 1.363 . S
C555 C556 1.372 . S
C556 H521 0.930 . S
C556 C555 1.372 . S
C556 C557 1.383 . S
C557 C556 1.383 . S
C557 C558 1.395 . S
C558 H522 0.930 . S
C558 C557 1.395 . S
C558 C559 1.362 . S
C559 H523 0.930 . S
C559 C554 1.390 . S
C559 C558 1.362 . S
C560 C549 1.492 . S
C560 C561 1.377 . S
C560 C565 1.397 . S
C561 H524 0.931 . S
C561 C560 1.377 . S
C561 C562 1.376 . S
C562 H525 0.930 . S
C562 C561 1.376 . S
C562 C563 1.376 . S
C563 C562 1.376 . S
C563 C564 1.378 . S
C563 C590 1.486 . S
C564 H526 0.930 . S
C564 C563 1.378 . S
C564 C565 1.376 . S
C565 H527 0.929 . S
C565 C560 1.397 . S
C565 C564 1.376 . S
C566 C550 1.509 . S
C566 C567 1.391 . S
C566 C571 1.386 . S
C567 H528 0.930 . S
C567 C566 1.391 . S
C567 C568 1.375 . S
C568 H529 0.931 . S
C568 C567 1.375 . S
C568 C569 1.375 . S
C569 C568 1.375 . S
C569 C570 1.361 . S
C570 H530 0.930 . S
C570 C569 1.361 . S
C570 C571 1.399 . S
C571 H531 0.929 . S
C571 C566 1.386 . S
C571 C570 1.399 . S
C572 C551 1.485 . S
C572 C573 1.394 . S
C572 C577 1.360 . S
C573 H532 0.931 . S
C573 C572 1.394 . S
C573 C574 1.372 . S
C574 H533 0.930 . S
C574 C573 1.372 . S
C574 C575 1.397 . S
C575 C574 1.397 . S
C575 C576 1.390 . S
C575 C591 1.476 . S
C576 H534 0.930 . S
C576 C575 1.390 . S
C576 C577 1.366 . S
C577 H535 0.932 . S
C577 C572 1.360 . S
C577 C576 1.366 . S
C578 C552 1.490 . S
C578 C579 1.380 . S
C578 C583 1.386 . S
C579 H536 0.930 . S
C579 C578 1.380 . S
C579 C580 1.381 . S
C580 H537 0.929 . S
C580 C579 1.381 . S
C580 C581 1.371 . S
C581 C580 1.371 . S
C581 C582 1.380 . S
C582 H538 0.931 . S
C582 C581 1.380 . S
C582 C583 1.387 . S
C583 H539 0.930 . S
C583 C578 1.386 . S
C583 C582 1.387 . S
C584 C553 1.519 . S
C584 C585 1.377 . S
C584 C589 1.361 . S
C585 H540 0.929 . S
C585 C584 1.377 . S
C585 C586 1.386 . S
C586 H541 0.931 . S
C586 C585 1.386 . S
C586 C587 1.363 . S
C587 C586 1.363 . S
C587 C588 1.385 . S
C588 H542 0.930 . S
C588 C587 1.385 . S
C588 C589 1.396 . S
C589 H543 0.929 . S
C589 C584 1.361 . S
C589 C588 1.396 . S
C590 O544 1.300 . S
C590 O545 1.209 . S
C590 C563 1.486 . S
C591 O546 1.199 . S
C591 O547 1.297 . S
C591 C575 1.476 . S
C592 C593 1.443 . S
C592 N596 1.376 . S
C592 C630 1.389 . S
C593 C592 1.443 . S
C593 C594 1.340 . S
C593 H633 0.951 . S
C594 C593 1.340 . S
C594 C595 1.439 . S
C594 H634 0.950 . S
C595 C594 1.439 . S
C595 N596 1.374 . S
C595 C629 1.395 1_455 S
N596 C592 1.376 . S
N596 C595 1.374 . S
N596 Co597 2.008 . S
Co597 N596 2.008 . S
Co597 N598 1.995 1_455 S
Co597 N603 2.008 1_455 S
Co597 N608 1.995 . S
Co597 N613 2.282 1_455 S
Co597 N619 2.282 . S
N598 Co597 1.995 1_655 S
N598 C599 1.376 . S
N598 C602 1.383 . S
C599 N598 1.376 . S
C599 C600 1.446 . S
C599 C629 1.391 . S
C600 C599 1.446 . S
C600 C601 1.339 . S
C600 H635 0.949 . S
C601 C600 1.339 . S
C601 C602 1.439 . S
C601 H636 0.950 . S
C602 N598 1.383 . S
C602 C601 1.439 . S
C602 C631 1.392 . S
N603 Co597 2.008 1_655 S
N603 C604 1.376 . S
N603 C607 1.374 . S
C604 N603 1.376 . S
C604 C605 1.443 . S
C604 C631 1.389 . S
C605 C604 1.443 . S
C605 C606 1.340 . S
C605 H637 0.951 . S
C606 C605 1.340 . S
C606 C607 1.439 . S
C606 H638 0.950 . S
C607 N603 1.374 . S
C607 C606 1.439 . S
C607 C632 1.395 1_655 S
N608 Co597 1.995 . S
N608 C609 1.376 . S
N608 C612 1.383 . S
C609 N608 1.376 . S
C609 C610 1.446 . S
C609 C632 1.391 . S
C610 C609 1.446 . S
C610 C611 1.339 . S
C610 H639 0.949 . S
C611 C610 1.339 . S
C611 C612 1.439 . S
C611 H640 0.950 . S
C612 N608 1.383 . S
C612 C611 1.439 . S
C612 C630 1.392 . S
N613 Co597 2.282 1_655 S
N613 C616 1.332 . S
N613 C618 1.332 . S
C614 C615 1.386 . S
C614 C617 1.388 . S
C615 C614 1.386 . S
C615 C616 1.382 . S
C615 H641 0.950 . S
C616 N613 1.332 . S
C616 C615 1.382 . S
C616 H627 0.952 . S
C617 C614 1.388 . S
C617 C618 1.382 . S
C617 H642 0.950 . S
C618 N613 1.332 . S
C618 C617 1.382 . S
C618 H628 0.948 . S
N619 Co597 2.282 . S
N619 C623 1.332 . S
N619 C624 1.332 . S
C620 C621 1.388 . S
C620 C624 1.382 . S
C620 H643 0.950 . S
C621 C620 1.388 . S
C621 C622 1.386 . S
C622 C621 1.386 . S
C622 C623 1.382 . S
C622 H644 0.950 . S
C623 N619 1.332 . S
C623 C622 1.382 . S
C623 H625 0.952 . S
C624 N619 1.332 . S
C624 C620 1.382 . S
C624 H626 0.948 . S
H625 C623 0.952 . S
H626 C624 0.948 . S
H627 C616 0.952 . S
H628 C618 0.948 . S
C629 C595 1.395 1_655 S
C629 C599 1.391 . S
C630 C592 1.389 . S
C630 C612 1.392 . S
C631 C602 1.392 . S
C631 C604 1.389 . S
C632 C607 1.395 1_455 S
C632 C609 1.391 . S
H633 C593 0.951 . S
H634 C594 0.950 . S
H635 C600 0.949 . S
H636 C601 0.950 . S
H637 C605 0.951 . S
H638 C606 0.950 . S
H639 C610 0.949 . S
H640 C611 0.950 . S
H641 C615 0.950 . S
H642 C617 0.950 . S
H643 C620 0.950 . S
H644 C622 0.950 . S
C645 C646 1.443 . S
C645 N649 1.376 . S
C645 C683 1.389 . S
C646 C645 1.443 . S
C646 C647 1.340 . S
C646 H686 0.951 . S
C647 C646 1.340 . S
C647 C648 1.439 . S
C647 H687 0.950 . S
C648 C647 1.439 . S
C648 N649 1.374 . S
C648 C682 1.395 . S
N649 C645 1.376 . S
N649 C648 1.374 . S
N649 Co650 2.008 . S
Co650 N649 2.008 . S
Co650 N651 1.995 1_545 S
Co650 N656 2.008 1_545 S
Co650 N661 1.995 . S
Co650 N666 2.282 1_545 S
Co650 N672 2.282 . S
N651 Co650 1.995 1_565 S
N651 C652 1.376 . S
N651 C655 1.383 . S
C652 N651 1.376 . S
C652 C653 1.446 . S
C652 C682 1.391 1_565 S
C653 C652 1.446 . S
C653 C654 1.339 . S
C653 H688 0.949 . S
C654 C653 1.339 . S
C654 C655 1.439 . S
C654 H689 0.950 . S
C655 N651 1.383 . S
C655 C654 1.439 . S
C655 C684 1.392 . S
N656 Co650 2.008 1_565 S
N656 C657 1.376 . S
N656 C660 1.374 . S
C657 N656 1.376 . S
C657 C658 1.443 . S
C657 C684 1.389 . S
C658 C657 1.443 . S
C658 C659 1.340 . S
C658 H690 0.951 . S
C659 C658 1.340 . S
C659 C660 1.439 . S
C659 H691 0.950 . S
C660 N656 1.374 . S
C660 C659 1.439 . S
C660 C685 1.395 1_565 S
N661 Co650 1.995 . S
N661 C662 1.376 . S
N661 C665 1.383 . S
C662 N661 1.376 . S
C662 C663 1.446 . S
C662 C685 1.391 . S
C663 C662 1.446 . S
C663 C664 1.339 . S
C663 H692 0.949 . S
C664 C663 1.339 . S
C664 C665 1.439 . S
C664 H693 0.950 . S
C665 N661 1.383 . S
C665 C664 1.439 . S
C665 C683 1.392 . S
N666 Co650 2.282 1_565 S
N666 C669 1.332 . S
N666 C671 1.332 . S
C667 C668 1.386 . S
C667 C670 1.388 . S
C668 C667 1.386 . S
C668 C669 1.382 . S
C668 H694 0.950 . S
C669 N666 1.332 . S
C669 C668 1.382 . S
C669 H680 0.952 . S
C670 C667 1.388 . S
C670 C671 1.382 . S
C670 H695 0.950 . S
C671 N666 1.332 . S
C671 C670 1.382 . S
C671 H681 0.948 . S
N672 Co650 2.282 . S
N672 C676 1.332 . S
N672 C677 1.332 . S
C673 C674 1.388 . S
C673 C677 1.382 . S
C673 H696 0.950 . S
C674 C673 1.388 . S
C674 C675 1.386 . S
C675 C674 1.386 . S
C675 C676 1.382 . S
C675 H697 0.950 . S
C676 N672 1.332 . S
C676 C675 1.382 . S
C676 H678 0.952 . S
C677 N672 1.332 . S
C677 C673 1.382 . S
C677 H679 0.948 . S
H678 C676 0.952 . S
H679 C677 0.948 . S
H680 C669 0.952 . S
H681 C671 0.948 . S
C682 C648 1.395 . S
C682 C652 1.391 1_545 S
C683 C645 1.389 . S
C683 C665 1.392 . S
C684 C655 1.392 . S
C684 C657 1.389 . S
C685 C660 1.395 1_545 S
C685 C662 1.391 . S
H686 C646 0.951 . S
H687 C647 0.950 . S
H688 C653 0.949 . S
H689 C654 0.950 . S
H690 C658 0.951 . S
H691 C659 0.950 . S
H692 C663 0.949 . S
H693 C664 0.950 . S
H694 C668 0.950 . S
H695 C670 0.950 . S
H696 C673 0.950 . S
H697 C675 0.950 . S
C698 C699 1.443 . S
C698 N702 1.376 . S
C698 C736 1.389 . S
C699 C698 1.443 . S
C699 C700 1.340 . S
C699 H739 0.951 . S
C700 C699 1.340 . S
C700 C701 1.439 . S
C700 H740 0.950 . S
C701 C700 1.439 . S
C701 N702 1.374 . S
C701 C735 1.395 . S
N702 C698 1.376 . S
N702 C701 1.374 . S
N702 Co703 2.008 . S
Co703 N702 2.008 . S
Co703 N704 1.995 . S
Co703 N709 2.008 . S
Co703 N714 1.995 . S
Co703 N719 2.282 . S
Co703 N725 2.282 . S
N704 Co703 1.995 . S
N704 C705 1.376 . S
N704 C708 1.383 1_455 S
C705 N704 1.376 . S
C705 C706 1.446 1_455 S
C705 C735 1.391 . S
C706 C705 1.446 1_655 S
C706 C707 1.339 . S
C706 H741 0.949 . S
C707 C706 1.339 . S
C707 C708 1.439 . S
C707 H742 0.950 . S
C708 N704 1.383 1_655 S
C708 C707 1.439 . S
C708 C737 1.392 . S
N709 Co703 2.008 . S
N709 C710 1.376 . S
N709 C713 1.374 . S
C710 N709 1.376 . S
C710 C711 1.443 1_455 S
C710 C737 1.389 1_455 S
C711 C710 1.443 1_655 S
C711 C712 1.340 1_655 S
C711 H743 0.951 . S
C712 C711 1.340 1_455 S
C712 C713 1.439 . S
C712 H744 0.950 . S
C713 N709 1.374 . S
C713 C712 1.439 . S
C713 C738 1.395 . S
N714 Co703 1.995 . S
N714 C715 1.376 . S
N714 C718 1.383 . S
C715 N714 1.376 . S
C715 C716 1.446 . S
C715 C738 1.391 . S
C716 C715 1.446 . S
C716 C717 1.339 . S
C716 H745 0.949 . S
C717 C716 1.339 . S
C717 C718 1.439 . S
C717 H746 0.950 . S
C718 N714 1.383 . S
C718 C717 1.439 . S
C718 C736 1.392 . S
N719 Co703 2.282 . S
N719 C722 1.332 . S
N719 C724 1.360 . S
C720 C721 1.381 . S
C720 C723 1.388 . S
C721 C720 1.381 . S
C721 C722 1.386 1_655 S
C721 H747 0.950 1_655 S
C722 N719 1.332 . S
C722 C721 1.386 1_455 S
C722 H733 0.952 . S
C723 C720 1.388 . S
C723 C724 1.354 1_655 S
C723 H748 0.950 . S
C724 N719 1.360 . S
C724 C723 1.354 1_455 S
C724 H734 0.948 . S
N725 Co703 2.282 . S
N725 C729 1.332 . S
N725 C730 1.332 . S
C726 C727 1.388 . S
C726 C730 1.382 . S
C726 H749 0.950 . S
C727 C726 1.388 . S
C727 C728 1.386 . S
C728 C727 1.386 . S
C728 C729 1.382 . S
C728 H750 0.950 . S
C729 N725 1.332 . S
C729 C728 1.382 . S
C729 H731 0.952 . S
C730 N725 1.332 . S
C730 C726 1.382 . S
C730 H732 0.948 . S
H731 C729 0.952 . S
H732 C730 0.948 . S
H733 C722 0.952 . S
H734 C724 0.948 . S
C735 C701 1.395 . S
C735 C705 1.391 . S
C736 C698 1.389 . S
C736 C718 1.392 . S
C737 C708 1.392 . S
C737 C710 1.389 1_655 S
C738 C713 1.395 . S
C738 C715 1.391 . S
H739 C699 0.951 . S
H740 C700 0.950 . S
H741 C706 0.949 . S
H742 C707 0.950 . S
H743 C711 0.951 . S
H744 C712 0.950 . S
H745 C716 0.949 . S
H746 C717 0.950 . S
H747 C721 0.950 1_455 S
H748 C723 0.950 . S
H749 C726 0.950 . S
H750 C728 0.950 . S
C751 C752 1.443 . S
C751 N755 1.376 . S
C751 C789 1.389 . S
C752 C751 1.443 . S
C752 C753 1.340 . S
C752 H792 0.951 . S
C753 C752 1.340 . S
C753 C754 1.439 . S
C753 H793 0.950 . S
C754 C753 1.439 . S
C754 N755 1.374 . S
C754 C788 1.395 . S
N755 C751 1.376 . S
N755 C754 1.374 . S
N755 Co756 2.008 . S
Co756 N755 2.008 . S
Co756 N757 1.995 . S
Co756 N762 2.008 . S
Co756 N767 1.995 . S
Co756 N772 2.282 . S
Co756 N778 2.282 . S
N757 Co756 1.995 . S
N757 C758 1.376 . S
N757 C761 1.383 . S
C758 N757 1.376 . S
C758 C759 1.446 . S
C758 C788 1.391 . S
C759 C758 1.446 . S
C759 C760 1.339 . S
C759 H794 0.949 . S
C760 C759 1.339 . S
C760 C761 1.439 . S
C760 H795 0.950 . S
C761 N757 1.383 . S
C761 C760 1.439 . S
C761 C790 1.392 . S
N762 Co756 2.008 . S
N762 C763 1.376 . S
N762 C766 1.374 . S
C763 N762 1.376 . S
C763 C764 1.443 . S
C763 C790 1.389 . S
C764 C763 1.443 . S
C764 C765 1.340 . S
C764 H796 0.951 . S
C765 C764 1.340 . S
C765 C766 1.439 . S
C765 H797 0.950 . S
C766 N762 1.374 . S
C766 C765 1.439 . S
C766 C791 1.395 . S
N767 Co756 1.995 . S
N767 C768 1.376 . S
N767 C771 1.383 . S
C768 N767 1.376 . S
C768 C769 1.446 . S
C768 C791 1.391 . S
C769 C768 1.446 . S
C769 C770 1.339 . S
C769 H798 0.949 . S
C770 C769 1.339 . S
C770 C771 1.439 . S
C770 H799 0.950 . S
C771 N767 1.383 . S
C771 C770 1.439 . S
C771 C789 1.392 . S
N772 Co756 2.282 . S
N772 C775 1.332 . S
N772 C777 1.332 . S
C773 C774 1.386 . S
C773 C776 1.388 . S
C774 C773 1.386 . S
C774 C775 1.382 . S
C774 H800 0.950 . S
C775 N772 1.332 . S
C775 C774 1.382 . S
C775 H786 0.952 . S
C776 C773 1.388 . S
C776 C777 1.382 . S
C776 H801 0.950 . S
C777 N772 1.332 . S
C777 C776 1.382 . S
C777 H787 0.948 . S
N778 Co756 2.282 . S
N778 C782 1.332 . S
N778 C783 1.332 . S
C779 C780 1.388 . S
C779 C783 1.382 . S
C779 H802 0.950 . S
C780 C779 1.388 . S
C780 C781 1.386 . S
C781 C780 1.386 . S
C781 C782 1.382 . S
C781 H803 0.950 . S
C782 N778 1.332 . S
C782 C781 1.382 . S
C782 H784 0.952 . S
C783 N778 1.332 . S
C783 C779 1.382 . S
C783 H785 0.948 . S
H784 C782 0.952 . S
H785 C783 0.948 . S
H786 C775 0.952 . S
H787 C777 0.948 . S
C788 C754 1.395 . S
C788 C758 1.391 . S
C789 C751 1.389 . S
C789 C771 1.392 . S
C790 C761 1.392 . S
C790 C763 1.389 . S
C791 C766 1.395 . S
C791 C768 1.391 . S
H792 C752 0.951 . S
H793 C753 0.950 . S
H794 C759 0.949 . S
H795 C760 0.950 . S
H796 C764 0.951 . S
H797 C765 0.950 . S
H798 C769 0.949 . S
H799 C770 0.950 . S
H800 C774 0.950 . S
H801 C776 0.950 . S
H802 C779 0.950 . S
H803 C781 0.950 . S
C804 C805 1.443 . S
C804 N808 1.376 . S
C804 C842 1.389 . S
C805 C804 1.443 . S
C805 C806 1.340 . S
C805 H845 0.951 . S
C806 C805 1.340 . S
C806 C807 1.439 . S
C806 H846 0.950 . S
C807 C806 1.439 . S
C807 N808 1.374 . S
C807 C841 1.395 . S
N808 C804 1.376 . S
N808 C807 1.374 . S
N808 Co809 2.008 . S
Co809 N808 2.008 . S
Co809 N810 1.995 1_554 S
Co809 N815 2.008 1_554 S
Co809 N820 1.995 . S
Co809 N825 2.282 . S
Co809 N831 2.282 1_554 S
N810 Co809 1.995 1_556 S
N810 C811 1.376 . S
N810 C814 1.383 . S
C811 N810 1.376 . S
C811 C812 1.446 . S
C811 C841 1.391 1_556 S
C812 C811 1.446 . S
C812 C813 1.339 . S
C812 H847 0.949 . S
C813 C812 1.339 . S
C813 C814 1.439 . S
C813 H848 0.950 . S
C814 N810 1.383 . S
C814 C813 1.439 . S
C814 C843 1.392 . S
N815 Co809 2.008 1_556 S
N815 C816 1.376 . S
N815 C819 1.374 . S
C816 N815 1.376 . S
C816 C817 1.443 . S
C816 C843 1.389 . S
C817 C816 1.443 . S
C817 C818 1.340 . S
C817 H849 0.951 . S
C818 C817 1.340 . S
C818 C819 1.439 . S
C818 H850 0.950 . S
C819 N815 1.374 . S
C819 C818 1.439 . S
C819 C844 1.395 1_556 S
N820 Co809 1.995 . S
N820 C821 1.376 . S
N820 C824 1.383 . S
C821 N820 1.376 . S
C821 C822 1.446 . S
C821 C844 1.391 . S
C822 C821 1.446 . S
C822 C823 1.339 . S
C822 H851 0.949 . S
C823 C822 1.339 . S
C823 C824 1.439 . S
C823 H852 0.950 . S
C824 N820 1.383 . S
C824 C823 1.439 . S
C824 C842 1.392 . S
N825 Co809 2.282 . S
N825 C828 1.332 . S
N825 C830 1.332 . S
C826 C827 1.386 . S
C826 C829 1.388 . S
C827 C826 1.386 . S
C827 C828 1.382 . S
C827 H853 0.950 . S
C828 N825 1.332 . S
C828 C827 1.382 . S
C828 H839 0.952 . S
C829 C826 1.388 . S
C829 C830 1.382 . S
C829 H854 0.950 . S
C830 N825 1.332 . S
C830 C829 1.382 . S
C830 H840 0.948 . S
N831 Co809 2.282 1_556 S
N831 C835 1.332 . S
N831 C836 1.332 . S
C832 C833 1.388 . S
C832 C836 1.382 . S
C832 H855 0.950 . S
C833 C832 1.388 . S
C833 C834 1.386 . S
C834 C833 1.386 . S
C834 C835 1.382 . S
C834 H856 0.950 . S
C835 N831 1.332 . S
C835 C834 1.382 . S
C835 H837 0.952 . S
C836 N831 1.332 . S
C836 C832 1.382 . S
C836 H838 0.948 . S
H837 C835 0.952 . S
H838 C836 0.948 . S
H839 C828 0.952 . S
H840 C830 0.948 . S
C841 C807 1.395 . S
C841 C811 1.391 1_554 S
C842 C804 1.389 . S
C842 C824 1.392 . S
C843 C814 1.392 . S
C843 C816 1.389 . S
C844 C819 1.395 1_554 S
C844 C821 1.391 . S
H845 C805 0.951 . S
H846 C806 0.950 . S
H847 C812 0.949 . S
H848 C813 0.950 . S
H849 C817 0.951 . S
H850 C818 0.950 . S
H851 C822 0.949 . S
H852 C823 0.950 . S
H853 C827 0.950 . S
H854 C829 0.950 . S
H855 C832 0.950 . S
H856 C834 0.950 . S
C857 C858 1.443 . S
C857 N861 1.376 . S
C857 C895 1.389 . S
C858 C857 1.443 . S
C858 C859 1.340 . S
C858 H898 0.951 . S
C859 C858 1.340 . S
C859 C860 1.439 . S
C859 H899 0.950 . S
C860 C859 1.439 . S
C860 N861 1.374 . S
C860 C894 1.395 1_554 S
N861 C857 1.376 . S
N861 C860 1.374 . S
N861 Co862 2.008 . S
Co862 N861 2.008 . S
Co862 N863 1.995 1_554 S
Co862 N868 2.008 1_554 S
Co862 N873 1.995 . S
Co862 N878 2.282 . S
Co862 N884 2.282 1_554 S
N863 Co862 1.995 1_556 S
N863 C864 1.376 . S
N863 C867 1.383 . S
C864 N863 1.376 . S
C864 C865 1.446 . S
C864 C894 1.391 . S
C865 C864 1.446 . S
C865 C866 1.339 . S
C865 H900 0.949 . S
C866 C865 1.339 . S
C866 C867 1.439 . S
C866 H901 0.950 . S
C867 N863 1.383 . S
C867 C866 1.439 . S
C867 C896 1.392 . S
N868 Co862 2.008 1_556 S
N868 C869 1.376 . S
N868 C872 1.374 1_556 S
C869 N868 1.376 . S
C869 C870 1.443 . S
C869 C896 1.389 . S
C870 C869 1.443 . S
C870 C871 1.340 . S
C870 H902 0.951 . S
C871 C870 1.340 . S
C871 C872 1.439 1_556 S
C871 H903 0.950 . S
C872 N868 1.374 1_554 S
C872 C871 1.439 1_554 S
C872 C897 1.395 . S
N873 Co862 1.995 . S
N873 C874 1.376 . S
N873 C877 1.383 . S
C874 N873 1.376 . S
C874 C875 1.446 . S
C874 C897 1.391 . S
C875 C874 1.446 . S
C875 C876 1.339 . S
C875 H904 0.949 . S
C876 C875 1.339 . S
C876 C877 1.439 . S
C876 H905 0.950 . S
C877 N873 1.383 . S
C877 C876 1.439 . S
C877 C895 1.392 . S
N878 Co862 2.282 . S
N878 C881 1.332 . S
N878 C883 1.332 . S
C879 C880 1.386 . S
C879 C882 1.388 . S
C880 C879 1.386 . S
C880 C881 1.382 . S
C880 H906 0.950 . S
C881 N878 1.332 . S
C881 C880 1.382 . S
C881 H892 0.952 . S
C882 C879 1.388 . S
C882 C883 1.382 . S
C882 H907 0.950 . S
C883 N878 1.332 . S
C883 C882 1.382 . S
C883 H893 0.948 . S
N884 Co862 2.282 1_556 S
N884 C888 1.332 . S
N884 C889 1.332 . S
C885 C886 1.388 . S
C885 C889 1.382 . S
C885 H908 0.950 . S
C886 C885 1.388 . S
C886 C887 1.386 . S
C887 C886 1.386 . S
C887 C888 1.382 . S
C887 H909 0.950 . S
C888 N884 1.332 . S
C888 C887 1.382 . S
C888 H890 0.952 . S
C889 N884 1.332 . S
C889 C885 1.382 . S
C889 H891 0.948 . S
H890 C888 0.952 . S
H891 C889 0.948 . S
H892 C881 0.952 . S
H893 C883 0.948 . S
C894 C860 1.395 1_556 S
C894 C864 1.391 . S
C895 C857 1.389 . S
C895 C877 1.392 . S
C896 C867 1.392 . S
C896 C869 1.389 . S
C897 C872 1.395 . S
C897 C874 1.391 . S
H898 C858 0.951 . S
H899 C859 0.950 . S
H900 C865 0.949 . S
H901 C866 0.950 . S
H902 C870 0.951 . S
H903 C871 0.950 . S
H904 C875 0.949 . S
H905 C876 0.950 . S
H906 C880 0.950 . S
H907 C882 0.950 . S
H908 C885 0.950 . S
H909 C887 0.950 . S
C910 C911 1.443 . S
C910 N914 1.376 . S
C910 C948 1.389 1_554 S
C911 C910 1.443 . S
C911 C912 1.340 . S
C911 H951 0.951 1_554 S
C912 C911 1.340 . S
C912 C913 1.439 . S
C912 H952 0.950 . S
C913 C912 1.439 . S
C913 N914 1.374 . S
C913 C947 1.395 . S
N914 C910 1.376 . S
N914 C913 1.374 . S
N914 Co915 2.008 . S
Co915 N914 2.008 . S
Co915 N916 1.995 . S
Co915 N921 2.008 . S
Co915 N926 1.995 . S
Co915 N931 2.282 . S
Co915 N937 2.282 . S
N916 Co915 1.995 . S
N916 C917 1.376 . S
N916 C920 1.383 . S
C917 N916 1.376 . S
C917 C918 1.446 . S
C917 C947 1.391 . S
C918 C917 1.446 . S
C918 C919 1.339 . S
C918 H953 0.949 . S
C919 C918 1.339 . S
C919 C920 1.439 . S
C919 H954 0.950 . S
C920 N916 1.383 . S
C920 C919 1.439 . S
C920 C949 1.392 . S
N921 Co915 2.008 . S
N921 C922 1.376 . S
N921 C925 1.374 . S
C922 N921 1.376 . S
C922 C923 1.443 . S
C922 C949 1.389 . S
C923 C922 1.443 . S
C923 C924 1.340 . S
C923 H955 0.951 . S
C924 C923 1.340 . S
C924 C925 1.439 . S
C924 H956 0.950 . S
C925 N921 1.374 . S
C925 C924 1.439 . S
C925 C950 1.395 . S
N926 Co915 1.995 . S
N926 C927 1.376 . S
N926 C930 1.383 . S
C927 N926 1.376 . S
C927 C928 1.446 1_554 S
C927 C950 1.391 . S
C928 C927 1.446 1_556 S
C928 C929 1.339 . S
C928 H957 0.949 . S
C929 C928 1.339 . S
C929 C930 1.439 1_556 S
C929 H958 0.950 . S
C930 N926 1.383 . S
C930 C929 1.439 1_554 S
C930 C948 1.392 1_554 S
N931 Co915 2.282 . S
N931 C934 1.332 . S
N931 C936 1.332 . S
C932 C933 1.386 . S
C932 C935 1.388 1_556 S
C933 C932 1.386 . S
C933 C934 1.382 1_556 S
C933 H959 0.950 . S
C934 N931 1.332 . S
C934 C933 1.382 1_554 S
C934 H945 0.952 . S
C935 C932 1.388 1_554 S
C935 C936 1.382 . S
C935 H960 0.950 . S
C936 N931 1.332 . S
C936 C935 1.382 . S
C936 H946 0.948 . S
N937 Co915 2.282 . S
N937 C941 1.332 . S
N937 C942 1.332 . S
C938 C939 1.388 . S
C938 C942 1.382 . S
C938 H961 0.950 . S
C939 C938 1.388 . S
C939 C940 1.386 . S
C940 C939 1.386 . S
C940 C941 1.382 . S
C940 H962 0.950 . S
C941 N937 1.332 . S
C941 C940 1.382 . S
C941 H943 0.952 . S
C942 N937 1.332 . S
C942 C938 1.382 . S
C942 H944 0.948 . S
H943 C941 0.952 . S
H944 C942 0.948 . S
H945 C934 0.952 . S
H946 C936 0.948 . S
C947 C913 1.395 . S
C947 C917 1.391 . S
C948 C910 1.389 1_556 S
C948 C930 1.392 1_556 S
C949 C920 1.392 . S
C949 C922 1.389 . S
C950 C925 1.395 . S
C950 C927 1.391 . S
H951 C911 0.951 1_556 S
H952 C912 0.950 . S
H953 C918 0.949 . S
H954 C919 0.950 . S
H955 C923 0.951 . S
H956 C924 0.950 . S
H957 C928 0.949 . S
H958 C929 0.950 . S
H959 C933 0.950 . S
H960 C935 0.950 . S
H961 C938 0.950 . S
H962 C940 0.950 . S
C963 C964 1.443 . S
C963 N967 1.376 . S
C963 C1001 1.389 . S
C964 C963 1.443 . S
C964 C965 1.340 . S
C964 H1004 0.951 . S
C965 C964 1.340 . S
C965 C966 1.439 . S
C965 H1005 0.950 . S
C966 C965 1.439 . S
C966 N967 1.374 . S
C966 C1000 1.395 . S
N967 C963 1.376 . S
N967 C966 1.374 . S
N967 Co968 2.008 . S
Co968 N967 2.008 . S
Co968 N969 1.995 . S
Co968 N974 2.008 . S
Co968 N979 1.995 . S
Co968 N984 2.282 . S
Co968 N990 2.282 . S
N969 Co968 1.995 . S
N969 C970 1.376 . S
N969 C973 1.383 . S
C970 N969 1.376 . S
C970 C971 1.446 . S
C970 C1000 1.391 . S
C971 C970 1.446 . S
C971 C972 1.339 . S
C971 H1006 0.949 . S
C972 C971 1.339 . S
C972 C973 1.439 . S
C972 H1007 0.950 . S
C973 N969 1.383 . S
C973 C972 1.439 . S
C973 C1002 1.392 . S
N974 Co968 2.008 . S
N974 C975 1.376 . S
N974 C978 1.374 . S
C975 N974 1.376 . S
C975 C976 1.443 . S
C975 C1002 1.389 . S
C976 C975 1.443 . S
C976 C977 1.340 . S
C976 H1008 0.951 . S
C977 C976 1.340 . S
C977 C978 1.439 . S
C977 H1009 0.950 . S
C978 N974 1.374 . S
C978 C977 1.439 . S
C978 C1003 1.395 . S
N979 Co968 1.995 . S
N979 C980 1.376 . S
N979 C983 1.383 . S
C980 N979 1.376 . S
C980 C981 1.446 . S
C980 C1003 1.391 . S
C981 C980 1.446 . S
C981 C982 1.339 . S
C981 H1010 0.949 . S
C982 C981 1.339 . S
C982 C983 1.439 . S
C982 H1011 0.950 . S
C983 N979 1.383 . S
C983 C982 1.439 . S
C983 C1001 1.392 . S
N984 Co968 2.282 . S
N984 C987 1.332 . S
N984 C989 1.332 . S
C985 C986 1.386 . S
C985 C988 1.388 . S
C986 C985 1.386 . S
C986 C987 1.382 . S
C986 H1012 0.950 . S
C987 N984 1.332 . S
C987 C986 1.382 . S
C987 H998 0.952 . S
C988 C985 1.388 . S
C988 C989 1.382 . S
C988 H1013 0.950 . S
C989 N984 1.332 . S
C989 C988 1.382 . S
C989 H999 0.948 . S
N990 Co968 2.282 . S
N990 C994 1.332 . S
N990 C995 1.332 . S
C991 C992 1.388 . S
C991 C995 1.382 . S
C991 H1014 0.950 . S
C992 C991 1.388 . S
C992 C993 1.386 . S
C993 C992 1.386 . S
C993 C994 1.382 . S
C993 H1015 0.950 . S
C994 N990 1.332 . S
C994 C993 1.382 . S
C994 H996 0.952 . S
C995 N990 1.332 . S
C995 C991 1.382 . S
C995 H997 0.948 . S
H996 C994 0.952 . S
H997 C995 0.948 . S
H998 C987 0.952 . S
H999 C989 0.948 . S
C1000 C966 1.395 . S
C1000 C970 1.391 . S
C1001 C963 1.389 . S
C1001 C983 1.392 . S
C1002 C973 1.392 . S
C1002 C975 1.389 . S
C1003 C978 1.395 . S
C1003 C980 1.391 . S
H1004 C964 0.951 . S
H1005 C965 0.950 . S
H1006 C971 0.949 . S
H1007 C972 0.950 . S
H1008 C976 0.951 . S
H1009 C977 0.950 . S
H1010 C981 0.949 . S
H1011 C982 0.950 . S
H1012 C986 0.950 . S
H1013 C988 0.950 . S
H1014 C991 0.950 . S
H1015 C993 0.950 . S
H1016 C1024 0.929 . S
H1017 C1026 0.930 . S
H1018 C1028 0.930 . S
H1019 C1031 0.929 . S
H1020 C1034 0.930 . S
H1021 C1036 0.960 . S
H1022 C1036 0.960 . S
H1023 C1036 0.960 . S
C1024 H1016 0.929 . S
C1024 C1025 1.377 . S
C1024 C1026 1.384 . S
C1025 C1024 1.377 . S
C1025 C1031 1.390 . S
C1026 H1017 0.930 . S
C1026 C1024 1.384 . S
C1026 C1027 1.372 . S
C1027 C1026 1.372 . S
C1027 C1028 1.400 . S
C1027 C1032 1.490 . S
C1028 H1018 0.930 . S
C1028 C1027 1.400 . S
C1028 C1031 1.386 . S
H1029 C1045 0.930 . S
H1030 C1046 0.931 . S
C1031 H1019 0.929 . S
C1031 C1025 1.390 . S
C1031 C1028 1.386 . S
C1032 C1027 1.490 . S
C1032 C1034 1.395 . S
C1032 C1035 1.403 . S
H1033 C1039 0.930 . S
C1034 H1020 0.930 . S
C1034 C1032 1.395 . S
C1034 C1037 1.403 . S
C1035 C1032 1.403 . S
C1035 C1036 1.524 . S
C1035 C1039 1.400 . S
C1036 H1021 0.960 . S
C1036 H1022 0.960 . S
C1036 H1023 0.960 . S
C1036 C1035 1.524 . S
C1037 C1034 1.403 . S
C1037 C1038 1.392 . S
C1037 C1041 1.495 . S
C1038 C1037 1.392 . S
C1038 C1039 1.385 . S
C1038 C1040 1.478 . S
C1039 H1033 0.930 . S
C1039 C1035 1.400 . S
C1039 C1038 1.385 . S
C1040 C1038 1.478 . S
C1040 C1042 1.381 . S
C1040 C1046 1.383 . S
C1041 C1037 1.495 . S
C1041 H1047 0.959 . S
C1041 H1048 0.961 . S
C1041 H1049 0.960 . S
C1042 C1040 1.381 . S
C1042 C1043 1.394 . S
C1042 H1050 0.930 . S
C1043 C1042 1.394 . S
C1043 C1044 1.383 . S
C1043 H1051 0.929 . S
C1044 C1043 1.383 . S
C1044 C1045 1.377 . S
C1045 H1029 0.930 . S
C1045 C1044 1.377 . S
C1045 C1046 1.379 . S
C1046 H1030 0.931 . S
C1046 C1040 1.383 . S
C1046 C1045 1.379 . S
H1047 C1041 0.959 . S
H1048 C1041 0.961 . S
H1049 C1041 0.960 . S
H1050 C1042 0.930 . S
H1051 C1043 0.929 . S
H1052 C1060 0.929 . S
H1053 C1062 0.930 . S
H1054 C1064 0.930 . S
H1055 C1067 0.929 . S
H1056 C1070 0.930 . S
H1057 C1072 0.960 . S
H1058 C1072 0.960 . S
H1059 C1072 0.960 . S
C1060 H1052 0.929 . S
C1060 C1061 1.377 . S
C1060 C1062 1.384 . S
C1061 C1060 1.377 . S
C1061 C1067 1.390 . S
C1062 H1053 0.930 . S
C1062 C1060 1.384 . S
C1062 C1063 1.372 . S
C1063 C1062 1.372 . S
C1063 C1064 1.400 . S
C1063 C1068 1.490 . S
C1064 H1054 0.930 . S
C1064 C1063 1.400 . S
C1064 C1067 1.386 . S
H1065 C1081 0.930 . S
H1066 C1082 0.931 . S
C1067 H1055 0.929 . S
C1067 C1061 1.390 . S
C1067 C1064 1.386 . S
C1068 C1063 1.490 . S
C1068 C1070 1.395 . S
C1068 C1071 1.403 . S
H1069 C1075 0.930 . S
C1070 H1056 0.930 . S
C1070 C1068 1.395 . S
C1070 C1073 1.403 . S
C1071 C1068 1.403 . S
C1071 C1072 1.524 . S
C1071 C1075 1.400 . S
C1072 H1057 0.960 . S
C1072 H1058 0.960 . S
C1072 H1059 0.960 . S
C1072 C1071 1.524 . S
C1073 C1070 1.403 . S
C1073 C1074 1.392 . S
C1073 C1077 1.495 . S
C1074 C1073 1.392 . S
C1074 C1075 1.385 . S
C1074 C1076 1.478 . S
C1075 H1069 0.930 . S
C1075 C1071 1.400 . S
C1075 C1074 1.385 . S
C1076 C1074 1.478 . S
C1076 C1078 1.381 . S
C1076 C1082 1.383 . S
C1077 C1073 1.495 . S
C1077 H1083 0.959 . S
C1077 H1084 0.961 . S
C1077 H1085 0.960 . S
C1078 C1076 1.381 . S
C1078 C1079 1.394 . S
C1078 H1086 0.930 . S
C1079 C1078 1.394 . S
C1079 C1080 1.383 . S
C1079 H1087 0.929 . S
C1080 C1079 1.383 . S
C1080 C1081 1.377 . S
C1081 H1065 0.930 . S
C1081 C1080 1.377 . S
C1081 C1082 1.379 . S
C1082 H1066 0.931 . S
C1082 C1076 1.383 . S
C1082 C1081 1.379 . S
H1083 C1077 0.959 . S
H1084 C1077 0.961 . S
H1085 C1077 0.960 . S
H1086 C1078 0.930 . S
H1087 C1079 0.929 . S
H1088 C1096 0.929 . S
H1089 C1098 0.930 . S
H1090 C1100 0.930 . S
H1091 C1103 0.929 . S
H1092 C1106 0.930 . S
H1093 C1108 0.960 . S
H1094 C1108 0.960 . S
H1095 C1108 0.960 . S
C1096 H1088 0.929 . S
C1096 C1097 1.377 . S
C1096 C1098 1.384 . S
C1097 C1096 1.377 . S
C1097 C1103 1.390 . S
C1098 H1089 0.930 . S
C1098 C1096 1.384 . S
C1098 C1099 1.372 . S
C1099 C1098 1.372 . S
C1099 C1100 1.400 . S
C1099 C1104 1.490 . S
C1100 H1090 0.930 . S
C1100 C1099 1.400 . S
C1100 C1103 1.386 . S
H1101 C1117 0.930 . S
H1102 C1118 0.931 . S
C1103 H1091 0.929 . S
C1103 C1097 1.390 . S
C1103 C1100 1.386 . S
C1104 C1099 1.490 . S
C1104 C1106 1.395 . S
C1104 C1107 1.403 . S
H1105 C1111 0.930 . S
C1106 H1092 0.930 . S
C1106 C1104 1.395 . S
C1106 C1109 1.403 . S
C1107 C1104 1.403 . S
C1107 C1108 1.524 . S
C1107 C1111 1.400 . S
C1108 H1093 0.960 . S
C1108 H1094 0.960 . S
C1108 H1095 0.960 . S
C1108 C1107 1.524 . S
C1109 C1106 1.403 . S
C1109 C1110 1.392 . S
C1109 C1113 1.495 . S
C1110 C1109 1.392 . S
C1110 C1111 1.385 . S
C1110 C1112 1.478 . S
C1111 H1105 0.930 . S
C1111 C1107 1.400 . S
C1111 C1110 1.385 . S
C1112 C1110 1.478 . S
C1112 C1114 1.381 . S
C1112 C1118 1.383 . S
C1113 C1109 1.495 . S
C1113 H1119 0.959 . S
C1113 H1120 0.961 . S
C1113 H1121 0.960 . S
C1114 C1112 1.381 . S
C1114 C1115 1.394 . S
C1114 H1122 0.930 . S
C1115 C1114 1.394 . S
C1115 C1116 1.383 . S
C1115 H1123 0.929 . S
C1116 C1115 1.383 . S
C1116 C1117 1.377 . S
C1117 H1101 0.930 . S
C1117 C1116 1.377 . S
C1117 C1118 1.379 . S
C1118 H1102 0.931 . S
C1118 C1112 1.383 . S
C1118 C1117 1.379 . S
H1119 C1113 0.959 . S
H1120 C1113 0.961 . S
H1121 C1113 0.960 . S
H1122 C1114 0.930 . S
H1123 C1115 0.929 . S
H1124 C1132 0.929 . S
H1125 C1134 0.930 . S
H1126 C1136 0.930 . S
H1127 C1139 0.929 . S
H1128 C1142 0.930 . S
H1129 C1144 0.960 . S
H1130 C1144 0.960 . S
H1131 C1144 0.997 . S
C1132 H1124 0.929 . S
C1132 C1133 1.377 . S
C1132 C1134 1.384 . S
C1133 C1132 1.377 . S
C1133 C1139 1.390 . S
C1134 H1125 0.930 . S
C1134 C1132 1.384 . S
C1134 C1135 1.372 . S
C1135 C1134 1.372 . S
C1135 C1136 1.400 . S
C1135 C1140 1.490 . S
C1136 H1126 0.930 . S
C1136 C1135 1.400 . S
C1136 C1139 1.386 . S
H1137 C1153 0.930 . S
H1138 C1154 0.931 . S
C1139 H1127 0.929 . S
C1139 C1133 1.390 . S
C1139 C1136 1.386 . S
C1140 C1135 1.490 . S
C1140 C1142 1.395 . S
C1140 C1143 1.403 1_565 S
H1141 C1147 0.930 . S
C1142 H1128 0.930 . S
C1142 C1140 1.395 . S
C1142 C1145 1.403 1_565 S
C1143 C1140 1.403 1_545 S
C1143 C1144 1.524 . S
C1143 C1147 1.400 . S
C1144 H1129 0.960 . S
C1144 H1130 0.960 . S
C1144 H1131 0.997 . S
C1144 C1143 1.524 . S
C1145 C1142 1.403 1_545 S
C1145 C1146 1.392 . S
C1145 C1149 1.500 . S
C1146 C1145 1.392 . S
C1146 C1147 1.385 . S
C1146 C1148 1.478 . S
C1147 H1141 0.930 . S
C1147 C1143 1.400 . S
C1147 C1146 1.385 . S
C1148 C1146 1.478 . S
C1148 C1150 1.381 . S
C1148 C1154 1.383 . S
C1149 C1145 1.500 . S
C1149 H1155 0.937 1_545 S
C1149 H1156 0.963 . S
C1149 H1157 0.975 . S
C1150 C1148 1.381 . S
C1150 C1151 1.394 . S
C1150 H1158 0.930 . S
C1151 C1150 1.394 . S
C1151 C1152 1.383 . S
C1151 H1159 0.929 . S
C1152 C1151 1.383 . S
C1152 C1153 1.377 . S
C1153 H1137 0.930 . S
C1153 C1152 1.377 . S
C1153 C1154 1.379 . S
C1154 H1138 0.931 . S
C1154 C1148 1.383 . S
C1154 C1153 1.379 . S
H1155 C1149 0.937 1_565 S
H1156 C1149 0.963 . S
H1157 C1149 0.975 . S
H1158 C1150 0.930 . S
H1159 C1151 0.929 . S
H1160 C1168 0.929 . S
H1161 C1170 0.930 . S
H1162 C1172 0.930 . S
H1163 C1175 0.929 . S
H1164 C1178 0.930 . S
H1165 C1180 0.960 . S
H1166 C1180 0.960 . S
H1167 C1180 0.960 . S
C1168 H1160 0.929 . S
C1168 C1169 1.377 . S
C1168 C1170 1.384 . S
C1169 C1168 1.377 . S
C1169 C1175 1.390 . S
C1170 H1161 0.930 . S
C1170 C1168 1.384 . S
C1170 C1171 1.372 . S
C1171 C1170 1.372 . S
C1171 C1172 1.400 . S
C1171 C1176 1.490 . S
C1172 H1162 0.930 . S
C1172 C1171 1.400 . S
C1172 C1175 1.386 . S
H1173 C1189 0.930 . S
H1174 C1190 0.931 . S
C1175 H1163 0.929 . S
C1175 C1169 1.390 . S
C1175 C1172 1.386 . S
C1176 C1171 1.490 . S
C1176 C1178 1.395 . S
C1176 C1179 1.403 . S
H1177 C1183 0.930 . S
C1178 H1164 0.930 . S
C1178 C1176 1.395 . S
C1178 C1181 1.403 . S
C1179 C1176 1.403 . S
C1179 C1180 1.524 . S
C1179 C1183 1.400 . S
C1180 H1165 0.960 . S
C1180 H1166 0.960 . S
C1180 H1167 0.960 . S
C1180 C1179 1.524 . S
C1181 C1178 1.403 . S
C1181 C1182 1.392 . S
C1181 C1185 1.495 . S
C1182 C1181 1.392 . S
C1182 C1183 1.385 . S
C1182 C1184 1.478 . S
C1183 H1177 0.930 . S
C1183 C1179 1.400 . S
C1183 C1182 1.385 . S
C1184 C1182 1.478 . S
C1184 C1186 1.381 . S
C1184 C1190 1.383 . S
C1185 C1181 1.495 . S
C1185 H1191 0.959 . S
C1185 H1192 0.961 . S
C1185 H1193 0.960 . S
C1186 C1184 1.381 . S
C1186 C1187 1.394 . S
C1186 H1194 0.930 . S
C1187 C1186 1.394 . S
C1187 C1188 1.383 . S
C1187 H1195 0.929 . S
C1188 C1187 1.383 . S
C1188 C1189 1.377 . S
C1189 H1173 0.930 . S
C1189 C1188 1.377 . S
C1189 C1190 1.379 . S
C1190 H1174 0.931 . S
C1190 C1184 1.383 . S
C1190 C1189 1.379 . S
H1191 C1185 0.959 . S
H1192 C1185 0.961 . S
H1193 C1185 0.960 . S
H1194 C1186 0.930 . S
H1195 C1187 0.929 . S
H1196 C1204 0.929 . S
H1197 C1206 0.930 . S
H1198 C1208 0.930 . S
H1199 C1211 0.929 . S
H1200 C1214 0.930 . S
H1201 C1216 0.960 . S
H1202 C1216 0.960 . S
H1203 C1216 0.960 . S
C1204 H1196 0.929 . S
C1204 C1205 1.377 . S
C1204 C1206 1.384 . S
C1205 C1204 1.377 . S
C1205 C1211 1.390 . S
C1206 H1197 0.930 . S
C1206 C1204 1.384 . S
C1206 C1207 1.372 . S
C1207 C1206 1.372 . S
C1207 C1208 1.400 . S
C1207 C1212 1.490 . S
C1208 H1198 0.930 . S
C1208 C1207 1.400 . S
C1208 C1211 1.386 . S
H1209 C1225 0.930 . S
H1210 C1226 0.931 . S
C1211 H1199 0.929 . S
C1211 C1205 1.390 . S
C1211 C1208 1.386 . S
C1212 C1207 1.490 . S
C1212 C1214 1.395 . S
C1212 C1215 1.403 . S
H1213 C1219 0.930 . S
C1214 H1200 0.930 . S
C1214 C1212 1.395 . S
C1214 C1217 1.403 . S
C1215 C1212 1.403 . S
C1215 C1216 1.524 . S
C1215 C1219 1.400 . S
C1216 H1201 0.960 . S
C1216 H1202 0.960 . S
C1216 H1203 0.960 . S
C1216 C1215 1.524 . S
C1217 C1214 1.403 . S
C1217 C1218 1.392 . S
C1217 C1221 1.495 . S
C1218 C1217 1.392 . S
C1218 C1219 1.385 . S
C1218 C1220 1.478 . S
C1219 H1213 0.930 . S
C1219 C1215 1.400 . S
C1219 C1218 1.385 . S
C1220 C1218 1.478 . S
C1220 C1222 1.381 . S
C1220 C1226 1.383 . S
C1221 C1217 1.495 . S
C1221 H1227 0.959 . S
C1221 H1228 0.961 . S
C1221 H1229 0.960 . S
C1222 C1220 1.381 . S
C1222 C1223 1.394 . S
C1222 H1230 0.930 . S
C1223 C1222 1.394 . S
C1223 C1224 1.383 . S
C1223 H1231 0.929 . S
C1224 C1223 1.383 . S
C1224 C1225 1.377 . S
C1225 H1209 0.930 . S
C1225 C1224 1.377 . S
C1225 C1226 1.379 . S
C1226 H1210 0.931 . S
C1226 C1220 1.383 . S
C1226 C1225 1.379 . S
H1227 C1221 0.959 . S
H1228 C1221 0.961 . S
H1229 C1221 0.960 . S
H1230 C1222 0.930 . S
H1231 C1223 0.929 . S
H1232 C1240 0.929 . S
H1233 C1242 0.930 . S
H1234 C1244 0.930 . S
H1235 C1247 0.929 . S
H1236 C1250 0.930 . S
H1237 C1252 0.960 . S
H1238 C1252 0.960 . S
H1239 C1252 0.960 . S
C1240 H1232 0.929 . S
C1240 C1241 1.377 . S
C1240 C1242 1.384 . S
C1241 C1240 1.377 . S
C1241 C1247 1.390 . S
C1242 H1233 0.930 . S
C1242 C1240 1.384 . S
C1242 C1243 1.372 . S
C1243 C1242 1.372 . S
C1243 C1244 1.400 . S
C1243 C1248 1.490 . S
C1244 H1234 0.930 . S
C1244 C1243 1.400 . S
C1244 C1247 1.386 . S
H1245 C1261 0.930 . S
H1246 C1262 0.931 . S
C1247 H1235 0.929 . S
C1247 C1241 1.390 . S
C1247 C1244 1.386 . S
C1248 C1243 1.490 . S
C1248 C1250 1.395 . S
C1248 C1251 1.403 . S
H1249 C1255 0.930 . S
C1250 H1236 0.930 . S
C1250 C1248 1.395 . S
C1250 C1253 1.403 . S
C1251 C1248 1.403 . S
C1251 C1252 1.524 . S
C1251 C1255 1.400 . S
C1252 H1237 0.960 . S
C1252 H1238 0.960 . S
C1252 H1239 0.960 . S
C1252 C1251 1.524 . S
C1253 C1250 1.403 . S
C1253 C1254 1.392 . S
C1253 C1257 1.495 . S
C1254 C1253 1.392 . S
C1254 C1255 1.385 . S
C1254 C1256 1.478 . S
C1255 H1249 0.930 . S
C1255 C1251 1.400 . S
C1255 C1254 1.385 . S
C1256 C1254 1.478 . S
C1256 C1258 1.381 . S
C1256 C1262 1.383 . S
C1257 C1253 1.495 . S
C1257 H1263 0.959 . S
C1257 H1264 0.961 . S
C1257 H1265 0.960 . S
C1258 C1256 1.381 . S
C1258 C1259 1.394 . S
C1258 H1266 0.930 . S
C1259 C1258 1.394 . S
C1259 C1260 1.383 . S
C1259 H1267 0.929 . S
C1260 C1259 1.383 . S
C1260 C1261 1.377 . S
C1261 H1245 0.930 . S
C1261 C1260 1.377 . S
C1261 C1262 1.379 . S
C1262 H1246 0.931 . S
C1262 C1256 1.383 . S
C1262 C1261 1.379 . S
H1263 C1257 0.959 . S
H1264 C1257 0.961 . S
H1265 C1257 0.960 . S
H1266 C1258 0.930 . S
H1267 C1259 0.929 . S
H1268 C1276 0.929 . S
H1269 C1278 0.930 . S
H1270 C1280 0.930 . S
H1271 C1283 0.929 . S
H1272 C1286 0.930 . S
H1273 C1288 0.960 . S
H1274 C1288 0.960 . S
H1275 C1288 0.960 . S
C1276 H1268 0.929 . S
C1276 C1277 1.377 . S
C1276 C1278 1.384 . S
C1277 C1276 1.377 . S
C1277 C1283 1.390 . S
C1278 H1269 0.930 . S
C1278 C1276 1.384 . S
C1278 C1279 1.372 . S
C1279 C1278 1.372 . S
C1279 C1280 1.400 . S
C1279 C1284 1.490 . S
C1280 H1270 0.930 . S
C1280 C1279 1.400 . S
C1280 C1283 1.386 . S
H1281 C1297 0.930 . S
H1282 C1298 0.931 . S
C1283 H1271 0.929 . S
C1283 C1277 1.390 . S
C1283 C1280 1.386 . S
C1284 C1279 1.490 . S
C1284 C1286 1.395 . S
C1284 C1287 1.403 . S
H1285 C1291 0.930 . S
C1286 H1272 0.930 . S
C1286 C1284 1.395 . S
C1286 C1289 1.403 . S
C1287 C1284 1.403 . S
C1287 C1288 1.524 . S
C1287 C1291 1.400 . S
C1288 H1273 0.960 . S
C1288 H1274 0.960 . S
C1288 H1275 0.960 . S
C1288 C1287 1.524 . S
C1289 C1286 1.403 . S
C1289 C1290 1.392 . S
C1289 C1293 1.495 . S
C1290 C1289 1.392 . S
C1290 C1291 1.385 . S
C1290 C1292 1.478 . S
C1291 H1285 0.930 . S
C1291 C1287 1.400 . S
C1291 C1290 1.385 . S
C1292 C1290 1.478 . S
C1292 C1294 1.381 . S
C1292 C1298 1.383 . S
C1293 C1289 1.495 . S
C1293 H1299 0.959 . S
C1293 H1300 0.961 . S
C1293 H1301 0.960 . S
C1294 C1292 1.381 . S
C1294 C1295 1.394 . S
C1294 H1302 0.930 . S
C1295 C1294 1.394 . S
C1295 C1296 1.383 . S
C1295 H1303 0.929 . S
C1296 C1295 1.383 . S
C1296 C1297 1.377 . S
C1297 H1281 0.930 . S
C1297 C1296 1.377 . S
C1297 C1298 1.379 . S
C1298 H1282 0.931 . S
C1298 C1292 1.383 . S
C1298 C1297 1.379 . S
H1299 C1293 0.959 . S
H1300 C1293 0.961 . S
H1301 C1293 0.960 . S
H1302 C1294 0.930 . S
H1303 C1295 0.929 . S
H1304 C1312 0.929 . S
H1305 C1314 0.930 . S
H1306 C1316 0.930 . S
H1307 C1319 0.929 . S
H1308 C1322 0.930 . S
H1309 C1324 0.960 . S
H1310 C1324 0.960 . S
H1311 C1324 0.960 . S
C1312 H1304 0.929 . S
C1312 C1313 1.377 . S
C1312 C1314 1.384 . S
C1313 C1312 1.377 . S
C1313 C1319 1.390 . S
C1314 H1305 0.930 . S
C1314 C1312 1.384 . S
C1314 C1315 1.372 . S
C1315 C1314 1.372 . S
C1315 C1316 1.400 . S
C1315 C1320 1.490 . S
C1316 H1306 0.930 . S
C1316 C1315 1.400 . S
C1316 C1319 1.386 . S
H1317 C1333 0.930 . S
H1318 C1334 0.931 . S
C1319 H1307 0.929 . S
C1319 C1313 1.390 . S
C1319 C1316 1.386 . S
C1320 C1315 1.490 . S
C1320 C1322 1.395 . S
C1320 C1323 1.403 . S
H1321 C1327 0.930 . S
C1322 H1308 0.930 . S
C1322 C1320 1.395 . S
C1322 C1325 1.403 . S
C1323 C1320 1.403 . S
C1323 C1324 1.524 . S
C1323 C1327 1.400 . S
C1324 H1309 0.960 . S
C1324 H1310 0.960 . S
C1324 H1311 0.960 . S
C1324 C1323 1.524 . S
C1325 C1322 1.403 . S
C1325 C1326 1.392 . S
C1325 C1329 1.495 . S
C1326 C1325 1.392 . S
C1326 C1327 1.385 . S
C1326 C1328 1.478 . S
C1327 H1321 0.930 . S
C1327 C1323 1.400 . S
C1327 C1326 1.385 . S
C1328 C1326 1.478 . S
C1328 C1330 1.381 . S
C1328 C1334 1.383 . S
C1329 C1325 1.495 . S
C1329 H1335 0.959 . S
C1329 H1336 0.961 . S
C1329 H1337 0.960 . S
C1330 C1328 1.381 . S
C1330 C1331 1.394 . S
C1330 H1338 0.930 . S
C1331 C1330 1.394 . S
C1331 C1332 1.383 . S
C1331 H1339 0.929 . S
C1332 C1331 1.383 . S
C1332 C1333 1.377 . S
C1333 H1317 0.930 . S
C1333 C1332 1.377 . S
C1333 C1334 1.379 . S
C1334 H1318 0.931 . S
C1334 C1328 1.383 . S
C1334 C1333 1.379 . S
H1335 C1329 0.959 . S
H1336 C1329 0.961 . S
H1337 C1329 0.960 . S
H1338 C1330 0.930 . S
H1339 C1331 0.929 . S
H1340 C1348 0.929 . S
H1341 C1350 0.878 1_545 S
H1342 C1352 0.930 . S
H1343 C1355 0.929 . S
H1344 C1358 0.930 . S
H1345 C1360 0.962 1_545 S
H1346 C1360 0.959 . S
H1347 C1360 0.956 . S
C1348 H1340 0.929 . S
C1348 C1349 1.377 . S
C1348 C1350 1.438 . S
C1349 C1348 1.377 . S
C1349 C1355 1.390 . S
C1350 H1341 0.878 1_565 S
C1350 C1348 1.438 . S
C1350 C1351 1.372 . S
C1351 C1350 1.372 . S
C1351 C1352 1.400 . S
C1351 C1356 1.490 1_565 S
C1352 H1342 0.930 . S
C1352 C1351 1.400 . S
C1352 C1355 1.386 . S
H1353 C1369 0.930 . S
H1354 C1370 0.931 . S
C1355 H1343 0.929 . S
C1355 C1349 1.390 . S
C1355 C1352 1.386 . S
C1356 C1351 1.490 1_545 S
C1356 C1358 1.395 . S
C1356 C1359 1.403 . S
H1357 C1363 0.930 . S
C1358 H1344 0.930 . S
C1358 C1356 1.395 . S
C1358 C1361 1.403 . S
C1359 C1356 1.403 . S
C1359 C1360 1.527 1_545 S
C1359 C1363 1.400 . S
C1360 H1345 0.962 1_565 S
C1360 H1346 0.959 . S
C1360 H1347 0.956 . S
C1360 C1359 1.527 1_565 S
C1361 C1358 1.403 . S
C1361 C1362 1.392 . S
C1361 C1365 1.495 . S
C1362 C1361 1.392 . S
C1362 C1363 1.385 . S
C1362 C1364 1.478 . S
C1363 H1357 0.930 . S
C1363 C1359 1.400 . S
C1363 C1362 1.385 . S
C1364 C1362 1.478 . S
C1364 C1366 1.381 . S
C1364 C1370 1.383 . S
C1365 C1361 1.495 . S
C1365 H1371 0.959 . S
C1365 H1372 0.961 . S
C1365 H1373 0.960 . S
C1366 C1364 1.381 . S
C1366 C1367 1.394 . S
C1366 H1374 0.930 . S
C1367 C1366 1.394 . S
C1367 C1368 1.383 . S
C1367 H1375 0.929 . S
C1368 C1367 1.383 . S
C1368 C1369 1.377 . S
C1369 H1353 0.930 . S
C1369 C1368 1.377 . S
C1369 C1370 1.379 . S
C1370 H1354 0.931 . S
C1370 C1364 1.383 . S
C1370 C1369 1.379 . S
H1371 C1365 0.959 . S
H1372 C1365 0.961 . S
H1373 C1365 0.960 . S
H1374 C1366 0.930 . S
H1375 C1367 0.929 . S
H1376 C1384 0.929 . S
H1377 C1386 0.930 . S
H1378 C1388 0.930 . S
H1379 C1391 0.929 . S
H1380 C1394 0.930 . S
H1381 C1396 0.960 . S
H1382 C1396 0.960 . S
H1383 C1396 0.960 . S
C1384 H1376 0.929 . S
C1384 C1385 1.377 . S
C1384 C1386 1.384 . S
C1385 C1384 1.377 . S
C1385 C1391 1.390 . S
C1386 H1377 0.930 . S
C1386 C1384 1.384 . S
C1386 C1387 1.372 . S
C1387 C1386 1.372 . S
C1387 C1388 1.400 . S
C1387 C1392 1.490 . S
C1388 H1378 0.930 . S
C1388 C1387 1.400 . S
C1388 C1391 1.386 . S
H1389 C1405 0.930 . S
H1390 C1406 0.931 . S
C1391 H1379 0.929 . S
C1391 C1385 1.390 . S
C1391 C1388 1.386 . S
C1392 C1387 1.490 . S
C1392 C1394 1.395 . S
C1392 C1395 1.403 . S
H1393 C1399 0.930 . S
C1394 H1380 0.930 . S
C1394 C1392 1.395 . S
C1394 C1397 1.403 . S
C1395 C1392 1.403 . S
C1395 C1396 1.524 . S
C1395 C1399 1.400 . S
C1396 H1381 0.960 . S
C1396 H1382 0.960 . S
C1396 H1383 0.960 . S
C1396 C1395 1.524 . S
C1397 C1394 1.403 . S
C1397 C1398 1.392 . S
C1397 C1401 1.495 . S
C1398 C1397 1.392 . S
C1398 C1399 1.385 . S
C1398 C1400 1.478 . S
C1399 H1393 0.930 . S
C1399 C1395 1.400 . S
C1399 C1398 1.385 . S
C1400 C1398 1.478 . S
C1400 C1402 1.381 . S
C1400 C1406 1.383 . S
C1401 C1397 1.495 . S
C1401 H1407 0.959 . S
C1401 H1408 0.961 . S
C1401 H1409 0.960 . S
C1402 C1400 1.381 . S
C1402 C1403 1.394 . S
C1402 H1410 0.930 . S
C1403 C1402 1.394 . S
C1403 C1404 1.383 . S
C1403 H1411 0.929 . S
C1404 C1403 1.383 . S
C1404 C1405 1.377 . S
C1405 H1389 0.930 . S
C1405 C1404 1.377 . S
C1405 C1406 1.379 . S
C1406 H1390 0.931 . S
C1406 C1400 1.383 . S
C1406 C1405 1.379 . S
H1407 C1401 0.959 . S
H1408 C1401 0.961 . S
H1409 C1401 0.960 . S
H1410 C1402 0.930 . S
H1411 C1403 0.929 . S
H1412 C1420 0.929 . S
H1413 C1422 0.930 . S
H1414 C1424 0.930 . S
H1415 C1427 0.929 . S
H1416 C1430 0.930 . S
H1417 C1432 0.960 . S
H1418 C1432 0.960 . S
H1419 C1432 0.960 . S
C1420 H1412 0.929 . S
C1420 C1421 1.377 . S
C1420 C1422 1.384 . S
C1421 C1420 1.377 . S
C1421 C1427 1.390 . S
C1422 H1413 0.930 . S
C1422 C1420 1.384 . S
C1422 C1423 1.372 . S
C1423 C1422 1.372 . S
C1423 C1424 1.400 . S
C1423 C1428 1.490 . S
C1424 H1414 0.930 . S
C1424 C1423 1.400 . S
C1424 C1427 1.386 . S
H1425 C1441 0.930 . S
H1426 C1442 0.931 . S
C1427 H1415 0.929 . S
C1427 C1421 1.390 . S
C1427 C1424 1.386 . S
C1428 C1423 1.490 . S
C1428 C1430 1.395 . S
C1428 C1431 1.403 . S
H1429 C1435 0.930 . S
C1430 H1416 0.930 . S
C1430 C1428 1.395 . S
C1430 C1433 1.403 . S
C1431 C1428 1.403 . S
C1431 C1432 1.524 . S
C1431 C1435 1.400 . S
C1432 H1417 0.960 . S
C1432 H1418 0.960 . S
C1432 H1419 0.960 . S
C1432 C1431 1.524 . S
C1433 C1430 1.403 . S
C1433 C1434 1.392 . S
C1433 C1437 1.495 . S
C1434 C1433 1.392 . S
C1434 C1435 1.385 . S
C1434 C1436 1.478 . S
C1435 H1429 0.930 . S
C1435 C1431 1.400 . S
C1435 C1434 1.385 . S
C1436 C1434 1.478 . S
C1436 C1438 1.381 . S
C1436 C1442 1.383 . S
C1437 C1433 1.495 . S
C1437 H1443 0.959 . S
C1437 H1444 0.961 . S
C1437 H1445 0.960 . S
C1438 C1436 1.381 . S
C1438 C1439 1.394 . S
C1438 H1446 0.930 . S
C1439 C1438 1.394 . S
C1439 C1440 1.383 . S
C1439 H1447 0.929 . S
C1440 C1439 1.383 . S
C1440 C1441 1.377 . S
C1441 H1425 0.930 . S
C1441 C1440 1.377 . S
C1441 C1442 1.379 . S
C1442 H1426 0.931 . S
C1442 C1436 1.383 . S
C1442 C1441 1.379 . S
H1443 C1437 0.959 . S
H1444 C1437 0.961 . S
H1445 C1437 0.960 . S
H1446 C1438 0.930 . S
H1447 C1439 0.929 . S
H1448 C1456 0.929 . S
H1449 C1458 0.930 . S
H1450 C1460 0.930 . S
H1451 C1463 0.929 . S
H1452 C1466 0.930 . S
H1453 C1468 0.960 . S
H1454 C1468 0.960 . S
H1455 C1468 0.960 . S
C1456 H1448 0.929 . S
C1456 C1457 1.377 . S
C1456 C1458 1.384 . S
C1457 C1456 1.377 . S
C1457 C1463 1.390 . S
C1458 H1449 0.930 . S
C1458 C1456 1.384 . S
C1458 C1459 1.372 . S
C1459 C1458 1.372 . S
C1459 C1460 1.400 . S
C1459 C1464 1.490 . S
C1460 H1450 0.930 . S
C1460 C1459 1.400 . S
C1460 C1463 1.386 . S
H1461 C1477 0.930 . S
H1462 C1478 0.931 . S
C1463 H1451 0.929 . S
C1463 C1457 1.390 . S
C1463 C1460 1.386 . S
C1464 C1459 1.490 . S
C1464 C1466 1.395 . S
C1464 C1467 1.403 . S
H1465 C1471 0.930 . S
C1466 H1452 0.930 . S
C1466 C1464 1.395 . S
C1466 C1469 1.403 . S
C1467 C1464 1.403 . S
C1467 C1468 1.524 . S
C1467 C1471 1.400 . S
C1468 H1453 0.960 . S
C1468 H1454 0.960 . S
C1468 H1455 0.960 . S
C1468 C1467 1.524 . S
C1469 C1466 1.403 . S
C1469 C1470 1.392 . S
C1469 C1473 1.495 . S
C1470 C1469 1.392 . S
C1470 C1471 1.385 . S
C1470 C1472 1.478 . S
C1471 H1465 0.930 . S
C1471 C1467 1.400 . S
C1471 C1470 1.385 . S
C1472 C1470 1.478 . S
C1472 C1474 1.381 . S
C1472 C1478 1.383 . S
C1473 C1469 1.495 . S
C1473 H1479 0.959 . S
C1473 H1480 0.961 . S
C1473 H1481 0.960 . S
C1474 C1472 1.381 . S
C1474 C1475 1.394 . S
C1474 H1482 0.930 . S
C1475 C1474 1.394 . S
C1475 C1476 1.383 . S
C1475 H1483 0.929 . S
C1476 C1475 1.383 . S
C1476 C1477 1.377 . S
C1477 H1461 0.930 . S
C1477 C1476 1.377 . S
C1477 C1478 1.379 . S
C1478 H1462 0.931 . S
C1478 C1472 1.383 . S
C1478 C1477 1.379 . S
H1479 C1473 0.959 . S
H1480 C1473 0.961 . S
H1481 C1473 0.960 . S
H1482 C1474 0.930 . S
H1483 C1475 0.929 . S
H1484 C1492 0.929 . S
H1485 C1494 0.930 . S
H1486 C1496 0.930 . S
H1487 C1499 0.929 . S
H1488 C1502 0.930 . S
H1489 C1504 0.960 . S
H1490 C1504 0.960 . S
H1491 C1504 0.960 . S
C1492 H1484 0.929 . S
C1492 C1493 1.377 . S
C1492 C1494 1.384 . S
C1493 C1492 1.377 . S
C1493 C1499 1.390 . S
C1494 H1485 0.930 . S
C1494 C1492 1.384 . S
C1494 C1495 1.372 . S
C1495 C1494 1.372 . S
C1495 C1496 1.400 . S
C1495 C1500 1.490 . S
C1496 H1486 0.930 . S
C1496 C1495 1.400 . S
C1496 C1499 1.386 . S
H1497 C1513 0.930 . S
H1498 C1514 0.931 . S
C1499 H1487 0.929 . S
C1499 C1493 1.390 . S
C1499 C1496 1.386 . S
C1500 C1495 1.490 . S
C1500 C1502 1.395 . S
C1500 C1503 1.403 . S
H1501 C1507 0.930 . S
C1502 H1488 0.930 . S
C1502 C1500 1.395 . S
C1502 C1505 1.403 . S
C1503 C1500 1.403 . S
C1503 C1504 1.524 . S
C1503 C1507 1.400 . S
C1504 H1489 0.960 . S
C1504 H1490 0.960 . S
C1504 H1491 0.960 . S
C1504 C1503 1.524 . S
C1505 C1502 1.403 . S
C1505 C1506 1.392 . S
C1505 C1509 1.495 . S
C1506 C1505 1.392 . S
C1506 C1507 1.385 . S
C1506 C1508 1.478 . S
C1507 H1501 0.930 . S
C1507 C1503 1.400 . S
C1507 C1506 1.385 . S
C1508 C1506 1.478 . S
C1508 C1510 1.381 . S
C1508 C1514 1.383 . S
C1509 C1505 1.495 . S
C1509 H1515 0.959 . S
C1509 H1516 0.961 . S
C1509 H1517 0.960 . S
C1510 C1508 1.381 . S
C1510 C1511 1.394 . S
C1510 H1518 0.930 . S
C1511 C1510 1.394 . S
C1511 C1512 1.383 . S
C1511 H1519 0.929 . S
C1512 C1511 1.383 . S
C1512 C1513 1.377 . S
C1513 H1497 0.930 . S
C1513 C1512 1.377 . S
C1513 C1514 1.379 . S
C1514 H1498 0.931 . S
C1514 C1508 1.383 . S
C1514 C1513 1.379 . S
H1515 C1509 0.959 . S
H1516 C1509 0.961 . S
H1517 C1509 0.960 . S
H1518 C1510 0.930 . S
H1519 C1511 0.929 . S
H1520 C1528 0.929 . S
H1521 C1530 0.930 . S
H1522 C1532 0.930 . S
H1523 C1535 0.929 . S
H1524 C1538 0.930 . S
H1525 C1540 0.960 . S
H1526 C1540 0.960 . S
H1527 C1540 0.960 . S
C1528 H1520 0.929 . S
C1528 C1529 1.377 . S
C1528 C1530 1.384 . S
C1529 C1528 1.377 . S
C1529 C1535 1.390 . S
C1530 H1521 0.930 . S
C1530 C1528 1.384 . S
C1530 C1531 1.372 . S
C1531 C1530 1.372 . S
C1531 C1532 1.400 . S
C1531 C1536 1.490 . S
C1532 H1522 0.930 . S
C1532 C1531 1.400 . S
C1532 C1535 1.386 . S
H1533 C1549 0.930 . S
H1534 C1550 0.931 . S
C1535 H1523 0.929 . S
C1535 C1529 1.390 . S
C1535 C1532 1.386 . S
C1536 C1531 1.490 . S
C1536 C1538 1.395 . S
C1536 C1539 1.403 . S
H1537 C1543 0.930 . S
C1538 H1524 0.930 . S
C1538 C1536 1.395 . S
C1538 C1541 1.403 . S
C1539 C1536 1.403 . S
C1539 C1540 1.524 . S
C1539 C1543 1.400 . S
C1540 H1525 0.960 . S
C1540 H1526 0.960 . S
C1540 H1527 0.960 . S
C1540 C1539 1.524 . S
C1541 C1538 1.403 . S
C1541 C1542 1.392 . S
C1541 C1545 1.495 . S
C1542 C1541 1.392 . S
C1542 C1543 1.385 . S
C1542 C1544 1.478 . S
C1543 H1537 0.930 . S
C1543 C1539 1.400 . S
C1543 C1542 1.385 . S
C1544 C1542 1.478 . S
C1544 C1546 1.381 . S
C1544 C1550 1.383 . S
C1545 C1541 1.495 . S
C1545 H1551 0.959 . S
C1545 H1552 0.961 . S
C1545 H1553 0.960 . S
C1546 C1544 1.381 . S
C1546 C1547 1.394 . S
C1546 H1554 0.930 . S
C1547 C1546 1.394 . S
C1547 C1548 1.383 . S
C1547 H1555 0.929 . S
C1548 C1547 1.383 . S
C1548 C1549 1.377 . S
C1549 H1533 0.930 . S
C1549 C1548 1.377 . S
C1549 C1550 1.379 . S
C1550 H1534 0.931 . S
C1550 C1544 1.383 . S
C1550 C1549 1.379 . S
H1551 C1545 0.959 . S
H1552 C1545 0.961 . S
H1553 C1545 0.960 . S
H1554 C1546 0.930 . S
H1555 C1547 0.929 . S
H1556 C1564 0.929 . S
H1557 C1566 0.930 . S
H1558 C1568 0.930 . S
H1559 C1571 0.929 . S
H1560 C1574 0.930 . S
H1561 C1576 0.960 . S
H1562 C1576 0.960 . S
H1563 C1576 0.960 . S
C1564 H1556 0.929 . S
C1564 C1565 1.377 . S
C1564 C1566 1.384 . S
C1565 C1564 1.377 . S
C1565 C1571 1.390 . S
C1566 H1557 0.930 . S
C1566 C1564 1.384 . S
C1566 C1567 1.372 . S
C1567 C1566 1.372 . S
C1567 C1568 1.400 . S
C1567 C1572 1.490 . S
C1568 H1558 0.930 . S
C1568 C1567 1.400 . S
C1568 C1571 1.386 . S
H1569 C1585 0.930 . S
H1570 C1586 0.931 . S
C1571 H1559 0.929 . S
C1571 C1565 1.390 . S
C1571 C1568 1.386 . S
C1572 C1567 1.490 . S
C1572 C1574 1.395 . S
C1572 C1575 1.403 . S
H1573 C1579 0.930 . S
C1574 H1560 0.930 . S
C1574 C1572 1.395 . S
C1574 C1577 1.403 . S
C1575 C1572 1.403 . S
C1575 C1576 1.524 . S
C1575 C1579 1.400 . S
C1576 H1561 0.960 . S
C1576 H1562 0.960 . S
C1576 H1563 0.960 . S
C1576 C1575 1.524 . S
C1577 C1574 1.403 . S
C1577 C1578 1.392 . S
C1577 C1581 1.495 . S
C1578 C1577 1.392 . S
C1578 C1579 1.385 . S
C1578 C1580 1.478 . S
C1579 H1573 0.930 . S
C1579 C1575 1.400 . S
C1579 C1578 1.385 . S
C1580 C1578 1.478 . S
C1580 C1582 1.381 . S
C1580 C1586 1.383 . S
C1581 C1577 1.495 . S
C1581 H1587 0.959 . S
C1581 H1588 0.961 . S
C1581 H1589 0.960 . S
C1582 C1580 1.381 . S
C1582 C1583 1.394 . S
C1582 H1590 0.930 . S
C1583 C1582 1.394 . S
C1583 C1584 1.383 . S
C1583 H1591 0.929 . S
C1584 C1583 1.383 . S
C1584 C1585 1.377 . S
C1585 H1569 0.930 . S
C1585 C1584 1.377 . S
C1585 C1586 1.379 . S
C1586 H1570 0.931 . S
C1586 C1580 1.383 . S
C1586 C1585 1.379 . S
H1587 C1581 0.959 . S
H1588 C1581 0.961 . S
H1589 C1581 0.960 . S
H1590 C1582 0.930 . S
H1591 C1583 0.929 . S
H1592 C1600 0.929 . S
H1593 C1602 0.930 . S
H1594 C1604 0.930 . S
H1595 C1607 0.929 . S
H1596 C1610 0.930 . S
H1597 C1612 0.960 . S
H1598 C1612 0.960 . S
H1599 C1612 0.960 . S
C1600 H1592 0.929 . S
C1600 C1601 1.377 . S
C1600 C1602 1.384 . S
C1601 C1600 1.377 . S
C1601 C1607 1.390 . S
C1602 H1593 0.930 . S
C1602 C1600 1.384 . S
C1602 C1603 1.372 . S
C1603 C1602 1.372 . S
C1603 C1604 1.400 . S
C1603 C1608 1.490 . S
C1604 H1594 0.930 . S
C1604 C1603 1.400 . S
C1604 C1607 1.386 . S
H1605 C1621 0.930 . S
H1606 C1622 0.931 . S
C1607 H1595 0.929 . S
C1607 C1601 1.390 . S
C1607 C1604 1.386 . S
C1608 C1603 1.490 . S
C1608 C1610 1.395 . S
C1608 C1611 1.403 . S
H1609 C1615 0.930 . S
C1610 H1596 0.930 . S
C1610 C1608 1.395 . S
C1610 C1613 1.403 . S
C1611 C1608 1.403 . S
C1611 C1612 1.524 . S
C1611 C1615 1.400 . S
C1612 H1597 0.960 . S
C1612 H1598 0.960 . S
C1612 H1599 0.960 . S
C1612 C1611 1.524 . S
C1613 C1610 1.403 . S
C1613 C1614 1.392 . S
C1613 C1617 1.495 . S
C1614 C1613 1.392 . S
C1614 C1615 1.385 . S
C1614 C1616 1.478 . S
C1615 H1609 0.930 . S
C1615 C1611 1.400 . S
C1615 C1614 1.385 . S
C1616 C1614 1.478 . S
C1616 C1618 1.381 . S
C1616 C1622 1.383 . S
C1617 C1613 1.495 . S
C1617 H1623 0.959 . S
C1617 H1624 0.961 . S
C1617 H1625 0.960 . S
C1618 C1616 1.381 . S
C1618 C1619 1.394 . S
C1618 H1626 0.930 . S
C1619 C1618 1.394 . S
C1619 C1620 1.383 . S
C1619 H1627 0.929 . S
C1620 C1619 1.383 . S
C1620 C1621 1.377 . S
C1621 H1605 0.930 . S
C1621 C1620 1.377 . S
C1621 C1622 1.379 . S
C1622 H1606 0.931 . S
C1622 C1616 1.383 . S
C1622 C1621 1.379 . S
H1623 C1617 0.959 . S
H1624 C1617 0.961 . S
H1625 C1617 0.960 . S
H1626 C1618 0.930 . S
H1627 C1619 0.929 . S
H1628 C1636 0.929 . S
H1629 C1638 0.930 . S
H1630 C1640 0.930 . S
H1631 C1643 0.929 . S
H1632 C1646 0.930 . S
H1633 C1648 0.960 . S
H1634 C1648 0.960 . S
H1635 C1648 0.960 . S
C1636 H1628 0.929 . S
C1636 C1637 1.377 . S
C1636 C1638 1.384 . S
C1637 C1636 1.377 . S
C1637 C1643 1.390 . S
C1638 H1629 0.930 . S
C1638 C1636 1.384 . S
C1638 C1639 1.372 . S
C1639 C1638 1.372 . S
C1639 C1640 1.400 . S
C1639 C1644 1.490 . S
C1640 H1630 0.930 . S
C1640 C1639 1.400 . S
C1640 C1643 1.386 . S
H1641 C1657 0.930 . S
H1642 C1658 0.931 . S
C1643 H1631 0.929 . S
C1643 C1637 1.390 . S
C1643 C1640 1.386 . S
C1644 C1639 1.490 . S
C1644 C1646 1.395 . S
C1644 C1647 1.403 . S
H1645 C1651 0.930 . S
C1646 H1632 0.930 . S
C1646 C1644 1.395 . S
C1646 C1649 1.403 . S
C1647 C1644 1.403 . S
C1647 C1648 1.524 . S
C1647 C1651 1.400 . S
C1648 H1633 0.960 . S
C1648 H1634 0.960 . S
C1648 H1635 0.960 . S
C1648 C1647 1.524 . S
C1649 C1646 1.403 . S
C1649 C1650 1.392 . S
C1649 C1653 1.495 . S
C1650 C1649 1.392 . S
C1650 C1651 1.385 . S
C1650 C1652 1.478 . S
C1651 H1645 0.930 . S
C1651 C1647 1.400 . S
C1651 C1650 1.385 . S
C1652 C1650 1.478 . S
C1652 C1654 1.381 . S
C1652 C1658 1.383 . S
C1653 C1649 1.495 . S
C1653 H1659 0.959 . S
C1653 H1660 0.961 . S
C1653 H1661 0.960 . S
C1654 C1652 1.381 . S
C1654 C1655 1.394 . S
C1654 H1662 0.930 . S
C1655 C1654 1.394 . S
C1655 C1656 1.383 . S
C1655 H1663 0.929 . S
C1656 C1655 1.383 . S
C1656 C1657 1.377 . S
C1657 H1641 0.930 . S
C1657 C1656 1.377 . S
C1657 C1658 1.379 . S
C1658 H1642 0.931 . S
C1658 C1652 1.383 . S
C1658 C1657 1.379 . S
H1659 C1653 0.959 . S
H1660 C1653 0.961 . S
H1661 C1653 0.960 . S
H1662 C1654 0.930 . S
H1663 C1655 0.929 . S
H1664 C1672 0.929 . S
H1665 C1674 0.930 . S
H1666 C1676 0.930 . S
H1667 C1679 0.929 . S
H1668 C1682 0.930 . S
H1669 C1684 0.960 . S
H1670 C1684 0.960 . S
H1671 C1684 0.960 . S
C1672 H1664 0.929 . S
C1672 C1673 1.377 . S
C1672 C1674 1.384 . S
C1673 C1672 1.377 . S
C1673 C1679 1.390 . S
C1674 H1665 0.930 . S
C1674 C1672 1.384 . S
C1674 C1675 1.372 . S
C1675 C1674 1.372 . S
C1675 C1676 1.400 . S
C1675 C1680 1.490 . S
C1676 H1666 0.930 . S
C1676 C1675 1.400 . S
C1676 C1679 1.386 . S
H1677 C1693 0.930 . S
H1678 C1694 0.931 . S
C1679 H1667 0.929 . S
C1679 C1673 1.390 . S
C1679 C1676 1.386 . S
C1680 C1675 1.490 . S
C1680 C1682 1.395 . S
C1680 C1683 1.403 . S
H1681 C1687 0.930 . S
C1682 H1668 0.930 . S
C1682 C1680 1.395 . S
C1682 C1685 1.403 . S
C1683 C1680 1.403 . S
C1683 C1684 1.524 . S
C1683 C1687 1.400 . S
C1684 H1669 0.960 . S
C1684 H1670 0.960 . S
C1684 H1671 0.960 . S
C1684 C1683 1.524 . S
C1685 C1682 1.403 . S
C1685 C1686 1.392 . S
C1685 C1689 1.495 . S
C1686 C1685 1.392 . S
C1686 C1687 1.385 . S
C1686 C1688 1.478 . S
C1687 H1681 0.930 . S
C1687 C1683 1.400 . S
C1687 C1686 1.385 . S
C1688 C1686 1.478 . S
C1688 C1690 1.381 . S
C1688 C1694 1.383 . S
C1689 C1685 1.495 . S
C1689 H1695 0.959 . S
C1689 H1696 0.961 . S
C1689 H1697 0.960 . S
C1690 C1688 1.381 . S
C1690 C1691 1.394 . S
C1690 H1698 0.930 . S
C1691 C1690 1.394 . S
C1691 C1692 1.383 . S
C1691 H1699 0.929 . S
C1692 C1691 1.383 . S
C1692 C1693 1.377 . S
C1693 H1677 0.930 . S
C1693 C1692 1.377 . S
C1693 C1694 1.379 . S
C1694 H1678 0.931 . S
C1694 C1688 1.383 . S
C1694 C1693 1.379 . S
H1695 C1689 0.959 . S
H1696 C1689 0.961 . S
H1697 C1689 0.960 . S
H1698 C1690 0.930 . S
H1699 C1691 0.929 . S
H1700 C1708 0.929 . S
H1701 C1710 0.930 . S
H1702 C1712 0.930 . S
H1703 C1715 0.929 . S
H1704 C1718 0.930 . S
H1705 C1720 0.960 . S
H1706 C1720 0.960 1_556 S
H1707 C1720 0.960 . S
C1708 H1700 0.929 . S
C1708 C1709 1.377 . S
C1708 C1710 1.384 . S
C1709 C1708 1.377 . S
C1709 C1715 1.390 . S
C1710 H1701 0.930 . S
C1710 C1708 1.384 . S
C1710 C1711 1.372 . S
C1711 C1710 1.372 . S
C1711 C1712 1.400 . S
C1711 C1716 1.490 . S
C1712 H1702 0.930 . S
C1712 C1711 1.400 . S
C1712 C1715 1.386 . S
H1713 C1729 0.930 . S
H1714 C1730 0.931 . S
C1715 H1703 0.929 . S
C1715 C1709 1.390 . S
C1715 C1712 1.386 . S
C1716 C1711 1.490 . S
C1716 C1718 1.395 . S
C1716 C1719 1.403 1_556 S
H1717 C1723 0.930 . S
C1718 H1704 0.930 . S
C1718 C1716 1.395 . S
C1718 C1721 1.403 . S
C1719 C1716 1.403 1_554 S
C1719 C1720 1.524 . S
C1719 C1723 1.400 . S
C1720 H1705 0.960 . S
C1720 H1706 0.960 1_554 S
C1720 H1707 0.960 . S
C1720 C1719 1.524 . S
C1721 C1718 1.403 . S
C1721 C1722 1.392 1_556 S
C1721 C1725 1.495 . S
C1722 C1721 1.392 1_554 S
C1722 C1723 1.385 . S
C1722 C1724 1.478 . S
C1723 H1717 0.930 . S
C1723 C1719 1.400 . S
C1723 C1722 1.385 . S
C1724 C1722 1.478 . S
C1724 C1726 1.381 . S
C1724 C1730 1.383 . S
C1725 C1721 1.495 . S
C1725 H1731 0.959 . S
C1725 H1732 0.961 1_556 S
C1725 H1733 0.960 . S
C1726 C1724 1.381 . S
C1726 C1727 1.394 . S
C1726 H1734 0.930 . S
C1727 C1726 1.394 . S
C1727 C1728 1.383 . S
C1727 H1735 0.929 . S
C1728 C1727 1.383 . S
C1728 C1729 1.377 . S
C1729 H1713 0.930 . S
C1729 C1728 1.377 . S
C1729 C1730 1.379 . S
C1730 H1714 0.931 . S
C1730 C1724 1.383 . S
C1730 C1729 1.379 . S
H1731 C1725 0.959 . S
H1732 C1725 0.961 1_554 S
H1733 C1725 0.960 . S
H1734 C1726 0.930 . S
H1735 C1727 0.929 . S
H1736 C1744 0.929 . S
H1737 C1746 0.930 . S
H1738 C1748 0.930 . S
H1739 C1751 0.929 . S
H1740 C1754 0.930 . S
H1741 C1756 0.960 . S
H1742 C1756 0.960 . S
H1743 C1756 0.960 . S
C1744 H1736 0.929 . S
C1744 C1745 1.377 . S
C1744 C1746 1.384 . S
C1745 C1744 1.377 . S
C1745 C1751 1.390 . S
C1746 H1737 0.930 . S
C1746 C1744 1.384 . S
C1746 C1747 1.372 . S
C1747 C1746 1.372 . S
C1747 C1748 1.400 . S
C1747 C1752 1.490 . S
C1748 H1738 0.930 . S
C1748 C1747 1.400 . S
C1748 C1751 1.386 . S
H1749 C1765 0.930 . S
H1750 C1766 0.931 . S
C1751 H1739 0.929 . S
C1751 C1745 1.390 . S
C1751 C1748 1.386 . S
C1752 C1747 1.490 . S
C1752 C1754 1.395 . S
C1752 C1755 1.403 . S
H1753 C1759 0.930 . S
C1754 H1740 0.930 . S
C1754 C1752 1.395 . S
C1754 C1757 1.403 . S
C1755 C1752 1.403 . S
C1755 C1756 1.524 . S
C1755 C1759 1.400 . S
C1756 H1741 0.960 . S
C1756 H1742 0.960 . S
C1756 H1743 0.960 . S
C1756 C1755 1.524 . S
C1757 C1754 1.403 . S
C1757 C1758 1.392 . S
C1757 C1761 1.495 . S
C1758 C1757 1.392 . S
C1758 C1759 1.385 . S
C1758 C1760 1.478 . S
C1759 H1753 0.930 . S
C1759 C1755 1.400 . S
C1759 C1758 1.385 . S
C1760 C1758 1.478 . S
C1760 C1762 1.381 . S
C1760 C1766 1.383 . S
C1761 C1757 1.495 . S
C1761 H1767 0.959 . S
C1761 H1768 0.961 . S
C1761 H1769 0.960 . S
C1762 C1760 1.381 . S
C1762 C1763 1.394 . S
C1762 H1770 0.930 . S
C1763 C1762 1.394 . S
C1763 C1764 1.383 . S
C1763 H1771 0.929 . S
C1764 C1763 1.383 . S
C1764 C1765 1.377 . S
C1765 H1749 0.930 . S
C1765 C1764 1.377 . S
C1765 C1766 1.379 . S
C1766 H1750 0.931 . S
C1766 C1760 1.383 . S
C1766 C1765 1.379 . S
H1767 C1761 0.959 . S
H1768 C1761 0.961 . S
H1769 C1761 0.960 . S
H1770 C1762 0.930 . S
H1771 C1763 0.929 . S
H1772 C1780 0.929 . S
H1773 C1782 0.930 . S
H1774 C1784 0.930 . S
H1775 C1787 0.929 . S
H1776 C1790 0.930 . S
H1777 C1792 0.960 . S
H1778 C1792 0.960 . S
H1779 C1792 0.960 . S
C1780 H1772 0.929 . S
C1780 C1781 1.377 . S
C1780 C1782 1.384 . S
C1781 C1780 1.377 . S
C1781 C1787 1.390 . S
C1782 H1773 0.930 . S
C1782 C1780 1.384 . S
C1782 C1783 1.372 . S
C1783 C1782 1.372 . S
C1783 C1784 1.400 . S
C1783 C1788 1.490 . S
C1784 H1774 0.930 . S
C1784 C1783 1.400 . S
C1784 C1787 1.386 . S
H1785 C1801 0.930 . S
H1786 C1802 0.931 . S
C1787 H1775 0.929 . S
C1787 C1781 1.390 . S
C1787 C1784 1.386 . S
C1788 C1783 1.490 . S
C1788 C1790 1.395 . S
C1788 C1791 1.403 . S
H1789 C1795 0.930 . S
C1790 H1776 0.930 . S
C1790 C1788 1.395 . S
C1790 C1793 1.403 . S
C1791 C1788 1.403 . S
C1791 C1792 1.524 . S
C1791 C1795 1.400 . S
C1792 H1777 0.960 . S
C1792 H1778 0.960 . S
C1792 H1779 0.960 . S
C1792 C1791 1.524 . S
C1793 C1790 1.403 . S
C1793 C1794 1.392 . S
C1793 C1797 1.495 . S
C1794 C1793 1.392 . S
C1794 C1795 1.385 . S
C1794 C1796 1.478 . S
C1795 H1789 0.930 . S
C1795 C1791 1.400 . S
C1795 C1794 1.385 . S
C1796 C1794 1.478 . S
C1796 C1798 1.381 . S
C1796 C1802 1.383 . S
C1797 C1793 1.495 . S
C1797 H1803 0.959 . S
C1797 H1804 0.961 . S
C1797 H1805 0.960 . S
C1798 C1796 1.381 . S
C1798 C1799 1.394 . S
C1798 H1806 0.930 . S
C1799 C1798 1.394 . S
C1799 C1800 1.383 . S
C1799 H1807 0.929 . S
C1800 C1799 1.383 . S
C1800 C1801 1.377 . S
C1801 H1785 0.930 . S
C1801 C1800 1.377 . S
C1801 C1802 1.379 . S
C1802 H1786 0.931 . S
C1802 C1796 1.383 . S
C1802 C1801 1.379 . S
H1803 C1797 0.959 . S
H1804 C1797 0.961 . S
H1805 C1797 0.960 . S
H1806 C1798 0.930 . S
H1807 C1799 0.929 . S
H1808 C1816 0.929 . S
H1809 C1818 0.930 . S
H1810 C1820 0.930 . S
H1811 C1823 0.929 . S
H1812 C1826 0.930 . S
H1813 C1828 0.960 . S
H1814 C1828 0.960 . S
H1815 C1828 0.960 . S
C1816 H1808 0.929 . S
C1816 C1817 1.377 . S
C1816 C1818 1.384 . S
C1817 C1816 1.377 . S
C1817 C1823 1.390 . S
C1818 H1809 0.930 . S
C1818 C1816 1.384 . S
C1818 C1819 1.372 . S
C1819 C1818 1.372 . S
C1819 C1820 1.400 . S
C1819 C1824 1.490 . S
C1820 H1810 0.930 . S
C1820 C1819 1.400 . S
C1820 C1823 1.386 . S
H1821 C1837 0.930 . S
H1822 C1838 0.931 . S
C1823 H1811 0.929 . S
C1823 C1817 1.390 . S
C1823 C1820 1.386 . S
C1824 C1819 1.490 . S
C1824 C1826 1.395 . S
C1824 C1827 1.403 . S
H1825 C1831 0.930 . S
C1826 H1812 0.930 . S
C1826 C1824 1.395 . S
C1826 C1829 1.403 . S
C1827 C1824 1.403 . S
C1827 C1828 1.524 . S
C1827 C1831 1.400 . S
C1828 H1813 0.960 . S
C1828 H1814 0.960 . S
C1828 H1815 0.960 . S
C1828 C1827 1.524 . S
C1829 C1826 1.403 . S
C1829 C1830 1.392 . S
C1829 C1833 1.495 . S
C1830 C1829 1.392 . S
C1830 C1831 1.385 . S
C1830 C1832 1.478 . S
C1831 H1825 0.930 . S
C1831 C1827 1.400 . S
C1831 C1830 1.385 . S
C1832 C1830 1.478 . S
C1832 C1834 1.381 . S
C1832 C1838 1.383 . S
C1833 C1829 1.495 . S
C1833 H1839 0.959 . S
C1833 H1840 0.961 . S
C1833 H1841 0.960 . S
C1834 C1832 1.381 . S
C1834 C1835 1.394 . S
C1834 H1842 0.930 . S
C1835 C1834 1.394 . S
C1835 C1836 1.383 . S
C1835 H1843 0.929 . S
C1836 C1835 1.383 . S
C1836 C1837 1.377 . S
C1837 H1821 0.930 . S
C1837 C1836 1.377 . S
C1837 C1838 1.379 . S
C1838 H1822 0.931 . S
C1838 C1832 1.383 . S
C1838 C1837 1.379 . S
H1839 C1833 0.959 . S
H1840 C1833 0.961 . S
H1841 C1833 0.960 . S
H1842 C1834 0.930 . S
H1843 C1835 0.929 . S
H1844 C1852 0.929 . S
H1845 C1854 0.930 . S
H1846 C1856 0.930 . S
H1847 C1859 0.929 . S
H1848 C1862 0.930 . S
H1849 C1864 0.960 . S
H1850 C1864 0.960 . S
H1851 C1864 0.960 . S
C1852 H1844 0.929 . S
C1852 C1853 1.377 . S
C1852 C1854 1.384 . S
C1853 C1852 1.377 . S
C1853 C1859 1.390 . S
C1854 H1845 0.930 . S
C1854 C1852 1.384 . S
C1854 C1855 1.372 . S
C1855 C1854 1.372 . S
C1855 C1856 1.400 . S
C1855 C1860 1.490 . S
C1856 H1846 0.930 . S
C1856 C1855 1.400 . S
C1856 C1859 1.386 . S
H1857 C1873 0.930 . S
H1858 C1874 0.931 . S
C1859 H1847 0.929 . S
C1859 C1853 1.390 . S
C1859 C1856 1.386 . S
C1860 C1855 1.490 . S
C1860 C1862 1.395 . S
C1860 C1863 1.403 . S
H1861 C1867 0.930 . S
C1862 H1848 0.930 . S
C1862 C1860 1.395 . S
C1862 C1865 1.403 . S
C1863 C1860 1.403 . S
C1863 C1864 1.524 . S
C1863 C1867 1.400 . S
C1864 H1849 0.960 . S
C1864 H1850 0.960 . S
C1864 H1851 0.960 . S
C1864 C1863 1.524 . S
C1865 C1862 1.403 . S
C1865 C1866 1.392 . S
C1865 C1869 1.495 . S
C1866 C1865 1.392 . S
C1866 C1867 1.385 . S
C1866 C1868 1.478 . S
C1867 H1861 0.930 . S
C1867 C1863 1.400 . S
C1867 C1866 1.385 . S
C1868 C1866 1.478 . S
C1868 C1870 1.381 . S
C1868 C1874 1.383 . S
C1869 C1865 1.495 . S
C1869 H1875 0.959 . S
C1869 H1876 0.961 . S
C1869 H1877 0.960 . S
C1870 C1868 1.381 . S
C1870 C1871 1.394 . S
C1870 H1878 0.930 . S
C1871 C1870 1.394 . S
C1871 C1872 1.383 . S
C1871 H1879 0.929 . S
C1872 C1871 1.383 . S
C1872 C1873 1.377 . S
C1873 H1857 0.930 . S
C1873 C1872 1.377 . S
C1873 C1874 1.379 . S
C1874 H1858 0.931 . S
C1874 C1868 1.383 . S
C1874 C1873 1.379 . S
H1875 C1869 0.959 . S
H1876 C1869 0.961 . S
H1877 C1869 0.960 . S
H1878 C1870 0.930 . S
H1879 C1871 0.929 . S
H1880 C1888 0.929 . S
H1881 C1890 0.930 . S
H1882 C1892 0.930 . S
H1883 C1895 0.929 . S
H1884 C1898 0.930 . S
H1885 C1900 0.960 . S
H1886 C1900 0.960 . S
H1887 C1900 0.960 . S
C1888 H1880 0.929 . S
C1888 C1889 1.377 . S
C1888 C1890 1.384 . S
C1889 C1888 1.377 . S
C1889 C1895 1.390 . S
C1890 H1881 0.930 . S
C1890 C1888 1.384 . S
C1890 C1891 1.372 . S
C1891 C1890 1.372 . S
C1891 C1892 1.400 . S
C1891 C1896 1.490 . S
C1892 H1882 0.930 . S
C1892 C1891 1.400 . S
C1892 C1895 1.386 . S
H1893 C1909 0.930 . S
H1894 C1910 0.931 . S
C1895 H1883 0.929 . S
C1895 C1889 1.390 . S
C1895 C1892 1.386 . S
C1896 C1891 1.490 . S
C1896 C1898 1.395 . S
C1896 C1899 1.403 . S
H1897 C1903 0.930 . S
C1898 H1884 0.930 . S
C1898 C1896 1.395 . S
C1898 C1901 1.403 . S
C1899 C1896 1.403 . S
C1899 C1900 1.524 . S
C1899 C1903 1.400 . S
C1900 H1885 0.960 . S
C1900 H1886 0.960 . S
C1900 H1887 0.960 . S
C1900 C1899 1.524 . S
C1901 C1898 1.403 . S
C1901 C1902 1.392 . S
C1901 C1905 1.495 . S
C1902 C1901 1.392 . S
C1902 C1903 1.385 . S
C1902 C1904 1.478 . S
C1903 H1897 0.930 . S
C1903 C1899 1.400 . S
C1903 C1902 1.385 . S
C1904 C1902 1.478 . S
C1904 C1906 1.381 . S
C1904 C1910 1.383 . S
C1905 C1901 1.495 . S
C1905 H1911 0.959 . S
C1905 H1912 0.961 . S
C1905 H1913 0.960 . S
C1906 C1904 1.381 . S
C1906 C1907 1.394 . S
C1906 H1914 0.930 . S
C1907 C1906 1.394 . S
C1907 C1908 1.383 . S
C1907 H1915 0.929 . S
C1908 C1907 1.383 . S
C1908 C1909 1.377 . S
C1909 H1893 0.930 . S
C1909 C1908 1.377 . S
C1909 C1910 1.379 . S
C1910 H1894 0.931 . S
C1910 C1904 1.383 . S
C1910 C1909 1.379 . S
H1911 C1905 0.959 . S
H1912 C1905 0.961 . S
H1913 C1905 0.960 . S
H1914 C1906 0.930 . S
H1915 C1907 0.929 . S
H1916 C1924 0.929 . S
H1917 C1926 0.930 . S
H1918 C1928 0.930 . S
H1919 C1931 0.929 . S
H1920 C1934 0.930 . S
H1921 C1936 0.960 . S
H1922 C1936 0.960 . S
H1923 C1936 0.960 . S
C1924 H1916 0.929 . S
C1924 C1925 1.377 . S
C1924 C1926 1.384 . S
C1925 C1924 1.377 . S
C1925 C1931 1.390 . S
C1926 H1917 0.930 . S
C1926 C1924 1.384 . S
C1926 C1927 1.372 . S
C1927 C1926 1.372 . S
C1927 C1928 1.400 . S
C1927 C1932 1.490 . S
C1928 H1918 0.930 . S
C1928 C1927 1.400 . S
C1928 C1931 1.386 . S
H1929 C1945 0.930 . S
H1930 C1946 0.931 . S
C1931 H1919 0.929 . S
C1931 C1925 1.390 . S
C1931 C1928 1.386 . S
C1932 C1927 1.490 . S
C1932 C1934 1.395 . S
C1932 C1935 1.403 . S
H1933 C1939 0.930 . S
C1934 H1920 0.930 . S
C1934 C1932 1.395 . S
C1934 C1937 1.403 . S
C1935 C1932 1.403 . S
C1935 C1936 1.524 . S
C1935 C1939 1.400 . S
C1936 H1921 0.960 . S
C1936 H1922 0.960 . S
C1936 H1923 0.960 . S
C1936 C1935 1.524 . S
C1937 C1934 1.403 . S
C1937 C1938 1.392 . S
C1937 C1941 1.495 . S
C1938 C1937 1.392 . S
C1938 C1939 1.385 . S
C1938 C1940 1.478 . S
C1939 H1933 0.930 . S
C1939 C1935 1.400 . S
C1939 C1938 1.385 . S
C1940 C1938 1.478 . S
C1940 C1942 1.381 . S
C1940 C1946 1.383 . S
C1941 C1937 1.495 . S
C1941 H1947 0.959 . S
C1941 H1948 0.961 . S
C1941 H1949 0.960 . S
C1942 C1940 1.381 . S
C1942 C1943 1.394 . S
C1942 H1950 0.930 . S
C1943 C1942 1.394 . S
C1943 C1944 1.383 . S
C1943 H1951 0.929 . S
C1944 C1943 1.383 . S
C1944 C1945 1.377 . S
C1945 H1929 0.930 . S
C1945 C1944 1.377 . S
C1945 C1946 1.379 . S
C1946 H1930 0.931 . S
C1946 C1940 1.383 . S
C1946 C1945 1.379 . S
H1947 C1941 0.959 . S
H1948 C1941 0.961 . S
H1949 C1941 0.960 . S
H1950 C1942 0.930 . S
H1951 C1943 0.929 . S
H1952 C1960 0.929 . S
H1953 C1962 0.930 . S
H1954 C1964 0.930 . S
H1955 C1967 0.929 . S
H1956 C1970 0.930 . S
H1957 C1972 0.960 . S
H1958 C1972 0.960 . S
H1959 C1972 0.960 . S
C1960 H1952 0.929 . S
C1960 C1961 1.377 . S
C1960 C1962 1.384 . S
C1961 C1960 1.377 . S
C1961 C1967 1.390 . S
C1962 H1953 0.930 . S
C1962 C1960 1.384 . S
C1962 C1963 1.372 . S
C1963 C1962 1.372 . S
C1963 C1964 1.400 . S
C1963 C1968 1.490 . S
C1964 H1954 0.930 . S
C1964 C1963 1.400 . S
C1964 C1967 1.386 . S
H1965 C1981 0.930 . S
H1966 C1982 0.931 . S
C1967 H1955 0.929 . S
C1967 C1961 1.390 . S
C1967 C1964 1.386 . S
C1968 C1963 1.490 . S
C1968 C1970 1.395 . S
C1968 C1971 1.403 . S
H1969 C1975 0.930 . S
C1970 H1956 0.930 . S
C1970 C1968 1.395 . S
C1970 C1973 1.403 . S
C1971 C1968 1.403 . S
C1971 C1972 1.524 . S
C1971 C1975 1.400 . S
C1972 H1957 0.960 . S
C1972 H1958 0.960 . S
C1972 H1959 0.960 . S
C1972 C1971 1.524 . S
C1973 C1970 1.403 . S
C1973 C1974 1.392 . S
C1973 C1977 1.495 . S
C1974 C1973 1.392 . S
C1974 C1975 1.385 . S
C1974 C1976 1.478 . S
C1975 H1969 0.930 . S
C1975 C1971 1.400 . S
C1975 C1974 1.385 . S
C1976 C1974 1.478 . S
C1976 C1978 1.381 . S
C1976 C1982 1.383 . S
C1977 C1973 1.495 . S
C1977 H1983 0.959 . S
C1977 H1984 0.961 . S
C1977 H1985 0.960 . S
C1978 C1976 1.381 . S
C1978 C1979 1.394 . S
C1978 H1986 0.930 . S
C1979 C1978 1.394 . S
C1979 C1980 1.383 . S
C1979 H1987 0.929 . S
C1980 C1979 1.383 . S
C1980 C1981 1.377 . S
C1981 H1965 0.930 . S
C1981 C1980 1.377 . S
C1981 C1982 1.379 . S
C1982 H1966 0.931 . S
C1982 C1976 1.383 . S
C1982 C1981 1.379 . S
H1983 C1977 0.959 . S
H1984 C1977 0.961 . S
H1985 C1977 0.960 . S
H1986 C1978 0.930 . S
H1987 C1979 0.929 . S
H1988 C1996 0.929 . S
H1989 C1998 0.930 . S
H1990 C2000 0.930 . S
H1991 C2003 0.929 . S
H1992 C2006 0.930 . S
H1993 C2008 0.960 . S
H1994 C2008 0.960 . S
H1995 C2008 0.960 . S
C1996 H1988 0.929 . S
C1996 C1997 1.377 . S
C1996 C1998 1.384 . S
C1997 C1996 1.377 . S
C1997 C2003 1.390 . S
C1998 H1989 0.930 . S
C1998 C1996 1.384 . S
C1998 C1999 1.372 . S
C1999 C1998 1.372 . S
C1999 C2000 1.400 . S
C1999 C2004 1.490 . S
C2000 H1990 0.930 . S
C2000 C1999 1.400 . S
C2000 C2003 1.386 . S
H2001 C2017 0.930 . S
H2002 C2018 0.931 . S
C2003 H1991 0.929 . S
C2003 C1997 1.390 . S
C2003 C2000 1.386 . S
C2004 C1999 1.490 . S
C2004 C2006 1.395 . S
C2004 C2007 1.403 . S
H2005 C2011 0.930 . S
C2006 H1992 0.930 . S
C2006 C2004 1.395 . S
C2006 C2009 1.403 . S
C2007 C2004 1.403 . S
C2007 C2008 1.524 . S
C2007 C2011 1.400 . S
C2008 H1993 0.960 . S
C2008 H1994 0.960 . S
C2008 H1995 0.960 . S
C2008 C2007 1.524 . S
C2009 C2006 1.403 . S
C2009 C2010 1.392 . S
C2009 C2013 1.495 . S
C2010 C2009 1.392 . S
C2010 C2011 1.385 . S
C2010 C2012 1.478 . S
C2011 H2005 0.930 . S
C2011 C2007 1.400 . S
C2011 C2010 1.385 . S
C2012 C2010 1.478 . S
C2012 C2014 1.381 . S
C2012 C2018 1.383 . S
C2013 C2009 1.495 . S
C2013 H2019 0.959 . S
C2013 H2020 0.961 . S
C2013 H2021 0.960 . S
C2014 C2012 1.381 . S
C2014 C2015 1.394 . S
C2014 H2022 0.930 . S
C2015 C2014 1.394 . S
C2015 C2016 1.383 . S
C2015 H2023 0.929 . S
C2016 C2015 1.383 . S
C2016 C2017 1.377 . S
C2017 H2001 0.930 . S
C2017 C2016 1.377 . S
C2017 C2018 1.379 . S
C2018 H2002 0.931 . S
C2018 C2012 1.383 . S
C2018 C2017 1.379 . S
H2019 C2013 0.959 . S
H2020 C2013 0.961 . S
H2021 C2013 0.960 . S
H2022 C2014 0.930 . S
H2023 C2015 0.929 . S
H2024 C2032 0.929 . S
H2025 C2034 0.930 . S
H2026 C2036 0.930 . S
H2027 C2039 0.929 . S
H2028 C2042 0.930 . S
H2029 C2044 0.960 . S
H2030 C2044 0.960 . S
H2031 C2044 0.960 . S
C2032 H2024 0.929 . S
C2032 C2033 1.377 . S
C2032 C2034 1.384 . S
C2033 C2032 1.377 . S
C2033 C2039 1.390 . S
C2034 H2025 0.930 . S
C2034 C2032 1.384 . S
C2034 C2035 1.372 . S
C2035 C2034 1.372 . S
C2035 C2036 1.400 . S
C2035 C2040 1.490 . S
C2036 H2026 0.930 . S
C2036 C2035 1.400 . S
C2036 C2039 1.386 . S
H2037 C2053 0.930 . S
H2038 C2054 0.931 . S
C2039 H2027 0.929 . S
C2039 C2033 1.390 . S
C2039 C2036 1.386 . S
C2040 C2035 1.490 . S
C2040 C2042 1.395 . S
C2040 C2043 1.403 . S
H2041 C2047 0.930 . S
C2042 H2028 0.930 . S
C2042 C2040 1.395 . S
C2042 C2045 1.403 . S
C2043 C2040 1.403 . S
C2043 C2044 1.524 . S
C2043 C2047 1.400 . S
C2044 H2029 0.960 . S
C2044 H2030 0.960 . S
C2044 H2031 0.960 . S
C2044 C2043 1.524 . S
C2045 C2042 1.403 . S
C2045 C2046 1.392 . S
C2045 C2049 1.495 . S
C2046 C2045 1.392 . S
C2046 C2047 1.385 . S
C2046 C2048 1.478 . S
C2047 H2041 0.930 . S
C2047 C2043 1.400 . S
C2047 C2046 1.385 . S
C2048 C2046 1.478 . S
C2048 C2050 1.381 . S
C2048 C2054 1.383 . S
C2049 C2045 1.495 . S
C2049 H2055 0.959 . S
C2049 H2056 0.961 . S
C2049 H2057 0.960 . S
C2050 C2048 1.381 . S
C2050 C2051 1.394 . S
C2050 H2058 0.930 . S
C2051 C2050 1.394 . S
C2051 C2052 1.383 . S
C2051 H2059 0.929 . S
C2052 C2051 1.383 . S
C2052 C2053 1.377 . S
C2053 H2037 0.930 . S
C2053 C2052 1.377 . S
C2053 C2054 1.379 . S
C2054 H2038 0.931 . S
C2054 C2048 1.383 . S
C2054 C2053 1.379 . S
H2055 C2049 0.959 . S
H2056 C2049 0.961 . S
H2057 C2049 0.960 . S
H2058 C2050 0.930 . S
H2059 C2051 0.929 . S
H2060 C2068 0.929 . S
H2061 C2070 0.930 . S
H2062 C2072 0.930 . S
H2063 C2075 0.929 . S
H2064 C2078 0.930 . S
H2065 C2080 0.960 . S
H2066 C2080 0.960 . S
H2067 C2080 0.960 . S
C2068 H2060 0.929 . S
C2068 C2069 1.377 . S
C2068 C2070 1.384 . S
C2069 C2068 1.377 . S
C2069 C2075 1.390 . S
C2070 H2061 0.930 . S
C2070 C2068 1.384 . S
C2070 C2071 1.372 . S
C2071 C2070 1.372 . S
C2071 C2072 1.400 . S
C2071 C2076 1.490 . S
C2072 H2062 0.930 . S
C2072 C2071 1.400 . S
C2072 C2075 1.386 . S
H2073 C2089 0.930 . S
H2074 C2090 0.931 . S
C2075 H2063 0.929 . S
C2075 C2069 1.390 . S
C2075 C2072 1.386 . S
C2076 C2071 1.490 . S
C2076 C2078 1.395 . S
C2076 C2079 1.403 . S
H2077 C2083 0.930 . S
C2078 H2064 0.930 . S
C2078 C2076 1.395 . S
C2078 C2081 1.403 . S
C2079 C2076 1.403 . S
C2079 C2080 1.524 . S
C2079 C2083 1.400 . S
C2080 H2065 0.960 . S
C2080 H2066 0.960 . S
C2080 H2067 0.960 . S
C2080 C2079 1.524 . S
C2081 C2078 1.403 . S
C2081 C2082 1.392 . S
C2081 C2085 1.495 . S
C2082 C2081 1.392 . S
C2082 C2083 1.385 . S
C2082 C2084 1.478 . S
C2083 H2077 0.930 . S
C2083 C2079 1.400 . S
C2083 C2082 1.385 . S
C2084 C2082 1.478 . S
C2084 C2086 1.381 . S
C2084 C2090 1.383 . S
C2085 C2081 1.495 . S
C2085 H2091 0.959 . S
C2085 H2092 0.961 . S
C2085 H2093 0.960 . S
C2086 C2084 1.381 . S
C2086 C2087 1.394 . S
C2086 H2094 0.930 . S
C2087 C2086 1.394 . S
C2087 C2088 1.383 . S
C2087 H2095 0.929 . S
C2088 C2087 1.383 . S
C2088 C2089 1.377 . S
C2089 H2073 0.930 . S
C2089 C2088 1.377 . S
C2089 C2090 1.379 . S
C2090 H2074 0.931 . S
C2090 C2084 1.383 . S
C2090 C2089 1.379 . S
H2091 C2085 0.959 . S
H2092 C2085 0.961 . S
H2093 C2085 0.960 . S
H2094 C2086 0.930 . S
H2095 C2087 0.929 . S
H2096 C2104 0.929 . S
H2097 C2106 0.930 . S
H2098 C2108 0.930 . S
H2099 C2111 0.929 . S
H2100 C2114 0.930 . S
H2101 C2116 0.960 . S
H2102 C2116 0.960 . S
H2103 C2116 0.960 . S
C2104 H2096 0.929 . S
C2104 C2105 1.377 . S
C2104 C2106 1.384 . S
C2105 C2104 1.377 . S
C2105 C2111 1.390 . S
C2106 H2097 0.930 . S
C2106 C2104 1.384 . S
C2106 C2107 1.372 . S
C2107 C2106 1.372 . S
C2107 C2108 1.400 . S
C2107 C2112 1.490 . S
C2108 H2098 0.930 . S
C2108 C2107 1.400 . S
C2108 C2111 1.386 . S
H2109 C2125 0.930 . S
H2110 C2126 0.931 . S
C2111 H2099 0.929 . S
C2111 C2105 1.390 . S
C2111 C2108 1.386 . S
C2112 C2107 1.490 . S
C2112 C2114 1.395 . S
C2112 C2115 1.403 . S
H2113 C2119 0.930 . S
C2114 H2100 0.930 . S
C2114 C2112 1.395 . S
C2114 C2117 1.403 . S
C2115 C2112 1.403 . S
C2115 C2116 1.524 . S
C2115 C2119 1.400 . S
C2116 H2101 0.960 . S
C2116 H2102 0.960 . S
C2116 H2103 0.960 . S
C2116 C2115 1.524 . S
C2117 C2114 1.403 . S
C2117 C2118 1.392 . S
C2117 C2121 1.495 . S
C2118 C2117 1.392 . S
C2118 C2119 1.385 . S
C2118 C2120 1.478 . S
C2119 H2113 0.930 . S
C2119 C2115 1.400 . S
C2119 C2118 1.385 . S
C2120 C2118 1.478 . S
C2120 C2122 1.381 . S
C2120 C2126 1.383 . S
C2121 C2117 1.495 . S
C2121 H2127 0.959 . S
C2121 H2128 0.961 . S
C2121 H2129 0.930 1_556 S
C2122 C2120 1.381 . S
C2122 C2123 1.394 . S
C2122 H2130 0.930 . S
C2123 C2122 1.394 . S
C2123 C2124 1.383 . S
C2123 H2131 0.929 1_556 S
C2124 C2123 1.383 . S
C2124 C2125 1.377 . S
C2125 H2109 0.930 . S
C2125 C2124 1.377 . S
C2125 C2126 1.379 . S
C2126 H2110 0.931 . S
C2126 C2120 1.383 . S
C2126 C2125 1.379 . S
H2127 C2121 0.959 . S
H2128 C2121 0.961 . S
H2129 C2121 0.930 1_554 S
H2130 C2122 0.930 . S
H2131 C2123 0.929 1_554 S
H2132 C2140 0.929 . S
H2133 C2142 0.930 . S
H2134 C2144 0.930 . S
H2135 C2147 0.929 . S
H2136 C2150 0.930 . S
H2137 C2152 0.960 . S
H2138 C2152 0.960 . S
H2139 C2152 0.960 . S
C2140 H2132 0.929 . S
C2140 C2141 1.377 . S
C2140 C2142 1.384 . S
C2141 C2140 1.377 . S
C2141 C2147 1.390 . S
C2142 H2133 0.930 . S
C2142 C2140 1.384 . S
C2142 C2143 1.372 . S
C2143 C2142 1.372 . S
C2143 C2144 1.400 . S
C2143 C2148 1.490 . S
C2144 H2134 0.930 . S
C2144 C2143 1.400 . S
C2144 C2147 1.386 . S
H2145 C2161 0.930 . S
H2146 C2162 0.931 1_556 S
C2147 H2135 0.929 . S
C2147 C2141 1.390 . S
C2147 C2144 1.386 . S
C2148 C2143 1.490 . S
C2148 C2150 1.395 . S
C2148 C2151 1.403 . S
H2149 C2155 0.930 . S
C2150 H2136 0.930 . S
C2150 C2148 1.395 . S
C2150 C2153 1.403 . S
C2151 C2148 1.403 . S
C2151 C2152 1.524 . S
C2151 C2155 1.400 . S
C2152 H2137 0.960 . S
C2152 H2138 0.960 . S
C2152 H2139 0.960 . S
C2152 C2151 1.524 . S
C2153 C2150 1.403 . S
C2153 C2154 1.392 1_556 S
C2153 C2157 1.495 1_556 S
C2154 C2153 1.392 1_554 S
C2154 C2155 1.385 1_554 S
C2154 C2156 1.478 . S
C2155 H2149 0.930 . S
C2155 C2151 1.400 . S
C2155 C2154 1.385 1_556 S
C2156 C2154 1.478 . S
C2156 C2158 1.381 . S
C2156 C2162 1.383 . S
C2157 C2153 1.495 1_554 S
C2157 H2163 0.959 1_554 S
C2157 H2164 0.969 . S
C2157 H2165 0.960 . S
C2158 C2156 1.381 . S
C2158 C2159 1.394 . S
C2158 H2166 0.930 . S
C2159 C2158 1.394 . S
C2159 C2160 1.383 . S
C2159 H2167 0.929 . S
C2160 C2159 1.383 . S
C2160 C2161 1.377 . S
C2161 H2145 0.930 . S
C2161 C2160 1.377 . S
C2161 C2162 1.379 . S
C2162 H2146 0.931 1_554 S
C2162 C2156 1.383 . S
C2162 C2161 1.379 . S
H2163 C2157 0.959 1_556 S
H2164 C2157 0.969 . S
H2165 C2157 0.960 . S
H2166 C2158 0.930 . S
H2167 C2159 0.929 . S
C1044 C621 1.621 . S
C1025 C39 1.581 . S
C1080 C674 1.446 . S
C1061 C125 1.441 . S
C1116 C737 2.297 . S
C1097 C217 2.233 . S
C1152 C780 1.719 . S
C1133 C261 1.653 . S
C1169 C359 1.432 . S
C1188 C736 1.450 . S
C1224 C773 1.130 . S
C1205 C433 1.081 . S
C1260 C614 1.435 . S
C1241 C495 1.457 . S
C1296 C667 1.429 . S
C1277 C587 1.445 . S
C1332 C720 1.775 . S
C1313 C557 1.767 . S
C1368 C789 1.325 . S
C1349 C347 1.328 . S
C1404 C630 1.037 . S
C1385 C421 1.036 . S
C1440 C683 1.824 . S
C1421 C507 1.791 . S
C1476 C631 1.452 . S
C1457 C137 1.451 . S
C1512 C684 1.873 . S
C1493 C187 1.844 . S
C1548 C727 2.648 . S
C1529 C291 2.598 . S
C1584 C790 2.324 . S
C1565 C69 2.323 . S
C1620 C833 1.337 . S
C1601 C581 1.339 . S
C1637 C365 2.268 . S
C1656 C886 2.241 . S
C1673 C439 2.691 . S
C1692 C948 2.683 . S
C1709 C483 1.619 . S
C1728 C1002 1.648 . S
C1745 C113 1.783 . S
C1764 C949 1.795 . S
C1781 C211 1.854 . S
C1800 C1001 1.892 . S
C1817 C273 1.202 . S
C1836 C826 1.229 . S
C1872 C879 1.173 . S
C1853 C51 1.176 . S
C1908 C939 1.379 . S
C1889 C63 1.350 . S
C1925 C143 1.553 . S
C1944 C985 1.545 . S
C1961 C199 1.823 . S
C1980 C842 1.832 . S
C1997 C285 1.023 . S
C2016 C895 1.065 . S
C2052 C843 1.593 . S
C2033 C335 1.579 . S
C2088 C896 1.982 . S
C2069 C409 1.867 . S
C2105 C513 2.058 . S
C2124 C932 2.044 . S
C2160 C992 1.393 . S
C2141 C569 1.400 . S
