# Generated by pormake.
# Topology zzz, (3,6)-cn, num edge types: 1
# Building blocks:
#     Node 0, Type 0, BuildingBlock: BETDIP_clean_linker_0, # of connection points: 3
#     Node 1, Type 0, BuildingBlock: BETDIP_clean_linker_0, # of connection points: 3
#     Node 2, Type 0, BuildingBlock: BETDIP_clean_linker_0, # of connection points: 3
#     Node 3, Type 0, BuildingBlock: BETDIP_clean_linker_0, # of connection points: 3
#     Node 4, Type 0, BuildingBlock: BETDIP_clean_linker_0, # of connection points: 3
#     Node 5, Type 0, BuildingBlock: BETDIP_clean_linker_0, # of connection points: 3
#     Node 6, Type 0, BuildingBlock: BETDIP_clean_linker_0, # of connection points: 3
#     Node 7, Type 0, BuildingBlock: BETDIP_clean_linker_0, # of connection points: 3
#     Node 8, Type 1, BuildingBlock: GEDQOX_clean_sbu_0, # of connection points: 6
#     Node 9, Type 1, BuildingBlock: GEDQOX_clean_sbu_0, # of connection points: 6
#     Node 10, Type 1, BuildingBlock: GEDQOX_clean_sbu_0, # of connection points: 6
#     Node 11, Type 1, BuildingBlock: GEDQOX_clean_sbu_0, # of connection points: 6
#     Edge 12, Type (0, 1), BuildingBlock: KIFKEQ_clean_linker_1, # of connection points: 2
#     Edge 13, Type (0, 1), BuildingBlock: KIFKEQ_clean_linker_1, # of connection points: 2
#     Edge 14, Type (0, 1), BuildingBlock: KIFKEQ_clean_linker_1, # of connection points: 2
#     Edge 15, Type (0, 1), BuildingBlock: KIFKEQ_clean_linker_1, # of connection points: 2
#     Edge 16, Type (0, 1), BuildingBlock: KIFKEQ_clean_linker_1, # of connection points: 2
#     Edge 17, Type (0, 1), BuildingBlock: KIFKEQ_clean_linker_1, # of connection points: 2
#     Edge 18, Type (0, 1), BuildingBlock: KIFKEQ_clean_linker_1, # of connection points: 2
#     Edge 19, Type (0, 1), BuildingBlock: KIFKEQ_clean_linker_1, # of connection points: 2
#     Edge 20, Type (0, 1), BuildingBlock: KIFKEQ_clean_linker_1, # of connection points: 2
#     Edge 21, Type (0, 1), BuildingBlock: KIFKEQ_clean_linker_1, # of connection points: 2
#     Edge 22, Type (0, 1), BuildingBlock: KIFKEQ_clean_linker_1, # of connection points: 2
#     Edge 23, Type (0, 1), BuildingBlock: KIFKEQ_clean_linker_1, # of connection points: 2
#     Edge 24, Type (0, 1), BuildingBlock: KIFKEQ_clean_linker_1, # of connection points: 2
#     Edge 25, Type (0, 1), BuildingBlock: KIFKEQ_clean_linker_1, # of connection points: 2
#     Edge 26, Type (0, 1), BuildingBlock: KIFKEQ_clean_linker_1, # of connection points: 2
#     Edge 27, Type (0, 1), BuildingBlock: KIFKEQ_clean_linker_1, # of connection points: 2
#     Edge 28, Type (0, 1), BuildingBlock: KIFKEQ_clean_linker_1, # of connection points: 2
#     Edge 29, Type (0, 1), BuildingBlock: KIFKEQ_clean_linker_1, # of connection points: 2
#     Edge 30, Type (0, 1), BuildingBlock: KIFKEQ_clean_linker_1, # of connection points: 2
#     Edge 31, Type (0, 1), BuildingBlock: KIFKEQ_clean_linker_1, # of connection points: 2
#     Edge 32, Type (0, 1), BuildingBlock: KIFKEQ_clean_linker_1, # of connection points: 2
#     Edge 33, Type (0, 1), BuildingBlock: KIFKEQ_clean_linker_1, # of connection points: 2
#     Edge 34, Type (0, 1), BuildingBlock: KIFKEQ_clean_linker_1, # of connection points: 2
#     Edge 35, Type (0, 1), BuildingBlock: KIFKEQ_clean_linker_1, # of connection points: 2
# Relax obj value: 0.126
# Max RMSD: 0.179
# Mean RMSD: 0.085
data_MOF--net-zzz--node1-GEDQOX_clean_sbu_0--node2-BETDIP_clean_linker_0--edge1-KIFKEQ_clean_linker_1
_symmetry_space_group_name_H-M    P1
_symmetry_Int_Tables_number       1
_symmetry_cell_setting            triclinic
loop_
_symmetry_equiv_pos_as_xyz
'x, y, z'
_cell_length_a     55.590679
_cell_length_b     54.348352
_cell_length_c     17.356364
_cell_angle_alpha  80.011539
_cell_angle_beta   88.936823
_cell_angle_gamma 99.607123
loop_
_atom_site_label
_atom_site_type_symbol
_atom_site_fract_x
_atom_site_fract_y
_atom_site_fract_z
_atom_type_partial_charge
H0 H 0.77264 0.559 0.28126 0.0
H1 H 0.78364 0.53046 0.06784 0.0
H2 H 0.83937 0.533 0.23481 0.0
H3 H 0.75168 0.54813 0.02872 0.0
C4 C 0.74024 0.54813 0.08004 0.0
C5 C 0.7838 0.55099 0.24364 0.0
C6 C 0.80697 0.54643 0.2665 0.0
C7 C 0.77489 0.54512 0.1724 0.0
C8 C 0.78984 0.53512 0.12305 0.0
C9 C 0.81302 0.53057 0.14615 0.0
C10 C 0.82122 0.53598 0.21797 0.0
N11 N 0.75071 0.54883 0.15406 0.0
H12 H 0.01706 0.75718 0.38542 0.0
H13 H 0.04988 0.78741 0.15259 0.0
H14 H 0.04643 0.83656 0.31829 0.0
H15 H 0.02684 0.75367 0.12207 0.0
C16 C 0.02765 0.73841 0.17089 0.0
C17 C 0.02636 0.77288 0.34225 0.0
C18 C 0.03157 0.79742 0.36111 0.0
C19 C 0.03296 0.76877 0.26681 0.0
C20 C 0.04451 0.78971 0.21074 0.0
C21 C 0.0495 0.81406 0.22959 0.0
C22 C 0.04333 0.81754 0.30473 0.0
N23 N 0.02812 0.74366 0.24889 0.0
H24 H 0.77049 0.98452 0.2773 0.0
H25 H 0.76802 0.0187 0.03433 0.0
H26 H 0.70312 1.00267 0.18402 0.0
H27 H 0.79862 0.99326 0.02564 0.0
C28 C 0.80942 0.99861 0.07356 0.0
C29 C 0.76028 0.99196 0.22866 0.0
C30 C 0.73515 0.99193 0.23951 0.0
C31 C 0.77218 1.00087 0.15434 0.0
C32 C 0.759 1.01093 0.09127 0.0
C33 C 0.7341 1.0115 0.1025 0.0
C34 C 0.72236 1.00185 0.17598 0.0
N35 N 0.79753 1.00025 0.14532 0.0
H36 H 0.52657 0.78814 0.54725 0.0
H37 H 0.50211 0.79503 0.31129 0.0
H38 H 0.4882 0.72282 0.46442 0.0
H39 H 0.54916 0.82314 0.31534 0.0
C40 C 0.53767 0.8336 0.34379 0.0
C41 C 0.51713 0.77969 0.50166 0.0
C42 C 0.50749 0.75351 0.51519 0.0
C43 C 0.51509 0.7948 0.42811 0.0
C44 C 0.50352 0.78362 0.36827 0.0
C45 C 0.49334 0.75785 0.3822 0.0
C46 C 0.4952 0.74303 0.45546 0.0
N47 N 0.52424 0.82129 0.41445 0.0
H48 H 0.27901 0.50921 0.5587 0.0
H49 H 0.27097 0.5441 0.7611 0.0
H50 H 0.21223 0.53513 0.60606 0.0
H51 H 0.3123 0.55921 0.727 0.0
C52 C 0.31847 0.54215 0.71583 0.0
C53 C 0.26824 0.51813 0.59477 0.0
C54 C 0.24447 0.52134 0.57453 0.0
C55 C 0.27843 0.52725 0.66025 0.0
C56 C 0.26398 0.53819 0.70816 0.0
C57 C 0.24016 0.54114 0.68818 0.0
C58 C 0.23077 0.53308 0.62091 0.0
N59 N 0.30307 0.52506 0.67686 0.0
H60 H 0.04059 0.31415 0.45172 0.0
H61 H 0.01295 0.28292 0.68975 0.0
H62 H 0.01554 0.23396 0.52369 0.0
H63 H 1.00402 0.31988 0.69199 0.0
C64 C 0.01741 0.33402 0.65512 0.0
C65 C 0.03255 0.29821 0.49625 0.0
C66 C 0.02867 0.27341 0.47879 0.0
C67 C 0.02573 0.30233 0.57161 0.0
C68 C 0.01656 0.28098 0.62992 0.0
C69 C 0.01233 0.25655 0.61187 0.0
C70 C 0.01806 0.25308 0.53647 0.0
N71 N 0.0287 0.32765 0.58806 0.0
H72 H 0.2896 0.0904 0.53192 0.0
H73 H 0.28877 0.05304 0.77334 0.0
H74 H 0.35398 0.06498 0.62676 0.0
H75 H 0.262 0.08129 0.78417 0.0
C76 C 0.25056 0.07808 0.73555 0.0
C77 C 0.29875 0.08115 0.58042 0.0
C78 C 0.32343 0.07901 0.57091 0.0
C79 C 0.28618 0.07243 0.65387 0.0
C80 C 0.29822 0.06039 0.71684 0.0
C81 C 0.32257 0.05756 0.7064 0.0
C82 C 0.33499 0.06697 0.63395 0.0
N83 N 0.26153 0.07586 0.6629 0.0
H84 H 0.5304 0.28814 0.2636 0.0
H85 H 0.56261 0.28285 0.48896 0.0
H86 H 0.56763 0.35524 0.33984 0.0
H87 H 0.57597 0.24787 0.41875 0.0
C88 C 0.55662 0.23977 0.42392 0.0
C89 C 0.54053 0.2971 0.307 0.0
C90 C 0.54875 0.32359 0.29246 0.0
C91 C 0.54642 0.28214 0.37672 0.0
C92 C 0.559 0.29401 0.43367 0.0
C93 C 0.56668 0.32025 0.42005 0.0
C94 C 0.56192 0.3348 0.34927 0.0
N95 N 0.53985 0.25522 0.39007 0.0
Nd96 Nd 0.02048 0.02593 0.84282 0.0
Nd97 Nd 0.04328 0.04719 0.99666 0.0
C98 C 0.99716 0.99642 0.75134 0.0
C99 C 0.99879 0.97207 0.72597 0.0
C100 C 0.97843 0.95893 0.69499 0.0
C101 C 0.97974 0.93621 0.6686 0.0
C102 C 1.0015 0.92603 0.67251 0.0
C103 C 0.02179 0.93911 0.70501 0.0
C104 C 0.02044 0.96188 0.73138 0.0
C105 C 0.06794 0.05102 0.82706 0.0
C106 C 0.04742 0.98925 0.9794 0.0
C107 C 0.07022 0.0773 0.07798 0.0
C108 C 0.06758 0.10078 0.10852 0.0
C109 C 0.06401 0.12301 0.05811 0.0
C110 C 0.06171 0.14501 0.0876 0.0
C111 C 0.06279 0.14546 0.16843 0.0
C112 C 0.06624 0.12309 0.21871 0.0
C113 C 0.06866 0.10113 0.1891 0.0
C114 C 0.99341 0.03021 0.01667 0.0
C115 C 0.0139 0.082 0.86566 0.0
O116 O 0.99041 0.99522 0.82483 0.0
O117 O 0.01475 0.01553 0.7257 0.0
O118 O 0.0531 0.05167 0.76981 0.0
O119 O 0.0579 0.03626 0.88746 0.0
O120 O 0.03461 0.99205 0.9156 0.0
O121 O 0.05419 1.00773 0.01969 0.0
O122 O 0.07297 0.07939 1.00165 0.0
O123 O 0.05605 0.05611 0.11117 0.0
O124 O 0.00654 0.0379 0.07192 0.0
O125 O 0.00733 0.03138 0.95813 0.0
O126 O 0.0309 0.0809 0.91803 0.0
O127 O 1.00446 0.0624 0.83333 0.0
H128 H 0.96149 0.96635 0.69071 0.0
H129 H 0.96361 0.92656 0.6453 0.0
H130 H 0.03894 0.93211 0.70835 0.0
H131 H 0.0364 0.9717 0.75512 0.0
H132 H 0.06305 0.12351 0.99561 0.0
H133 H 0.0594 0.1618 0.04661 0.0
H134 H 0.06673 0.12237 0.28137 0.0
H135 H 0.07132 0.08431 0.22944 0.0
Nd136 Nd 0.52904 0.02121 0.84315 0.0
Nd137 Nd 0.5267 0.05485 0.96329 0.0
C138 C 0.54138 0.9896 0.75572 0.0
C139 C 0.56511 0.98609 0.72314 0.0
C140 C 0.57226 0.96221 0.73737 0.0
C141 C 0.59461 0.95881 0.70575 0.0
C142 C 0.61019 0.97924 0.65879 0.0
C143 C 0.60304 1.00322 0.64593 0.0
C144 C 0.58092 1.00663 0.67806 0.0
C145 C 0.52175 0.06952 0.78222 0.0
C146 C 0.5808 0.0494 0.90206 0.0
C147 C 0.5222 0.09073 0.04399 0.0
C148 C 0.50172 0.09378 0.09489 0.0
C149 C 0.49239 0.11653 0.08244 0.0
C150 C 0.47096 0.11849 0.12293 0.0
C151 C 0.45843 0.09769 0.17677 0.0
C152 C 0.46827 0.07517 0.19058 0.0
C153 C 0.48954 0.07317 0.1498 0.0
C154 C 0.51924 1.00385 0.02687 0.0
C155 C 0.47623 0.02551 0.90692 0.0
O156 O 0.5375 0.9833 0.83167 0.0
O157 O 0.5339 1.01072 0.72716 0.0
O158 O 0.51018 0.04925 0.76055 0.0
O159 O 0.53646 0.06384 0.83421 0.0
O160 O 0.56985 0.03531 0.85389 0.0
O161 O 0.56838 0.05935 0.95076 0.0
O162 O 0.51771 0.09266 0.96957 0.0
O163 O 0.53398 0.0721 0.06912 0.0
O164 O 0.50758 0.02 0.05137 0.0
O165 O 0.53471 0.01504 0.97277 0.0
O166 O 0.48731 0.04688 0.92596 0.0
O167 O 0.48874 1.00922 0.88402 0.0
H168 H 0.56051 0.94614 0.77266 0.0
H169 H 0.5996 0.94015 0.7179 0.0
H170 H 0.61418 0.01934 0.609 0.0
H171 H 0.57611 0.0254 0.66656 0.0
H172 H 0.50127 0.13255 0.03953 0.0
H173 H 0.46384 0.13605 0.11028 0.0
H174 H 0.45947 0.05894 0.23279 0.0
H175 H 0.49611 0.05526 0.16006 0.0
Nd176 Nd 0.51091 0.53851 0.97257 0.0
Nd177 Nd 0.54468 0.53789 0.83463 0.0
C178 C 0.47562 0.54619 0.06464 0.0
C179 C 0.46684 0.56889 0.08144 0.0
C180 C 0.46263 0.58826 0.02082 0.0
C181 C 0.45735 0.61104 0.03793 0.0
C182 C 0.45635 0.61493 0.11589 0.0
C183 C 0.45963 0.59503 0.17639 0.0
C184 C 0.46473 0.57224 0.15927 0.0
C185 C 0.55957 0.5436 0.00379 0.0
C186 C 0.53073 0.59193 0.84652 0.0
C187 C 0.57991 0.53059 0.74152 0.0
C188 C 0.58918 0.50826 0.72385 0.0
C189 C 0.59401 0.489 0.78379 0.0
C190 C 0.60017 0.46668 0.76567 0.0
C191 C 0.60136 0.46311 0.68739 0.0
C192 C 0.5973 0.48289 0.62763 0.0
C193 C 0.5914 0.50524 0.64574 0.0
C194 C 0.49617 0.53372 0.80284 0.0
C195 C 0.52459 0.48444 0.96066 0.0
O196 O 0.47205 0.54071 0.99477 0.0
O197 O 0.49731 0.54341 0.0888 0.0
O198 O 0.54233 0.53024 0.05256 0.0
O199 O 0.55083 0.55443 0.9432 0.0
O200 O 0.51373 0.57902 0.89948 0.0
O201 O 0.54763 0.5809 0.81891 0.0
O202 O 0.58356 0.53607 0.81134 0.0
O203 O 0.55803 0.53291 0.7182 0.0
O204 O 0.5136 0.54714 0.75497 0.0
O205 O 0.50464 0.5223 0.86311 0.0
O206 O 0.54161 0.49726 0.90758 0.0
O207 O 0.50784 0.49557 0.98853 0.0
H208 H 0.46415 0.58615 0.96008 0.0
H209 H 0.45464 0.62582 0.99 0.0
H210 H 0.45948 0.59743 0.23702 0.0
H211 H 0.46803 0.5576 0.2068 0.0
H212 H 0.59238 0.49084 0.84475 0.0
H213 H 0.60345 0.45202 0.81311 0.0
H214 H 0.59751 0.48073 0.5668 0.0
H215 H 0.58762 0.51981 0.59873 0.0
Nd216 Nd 0.02448 0.55375 0.83915 0.0
Nd217 Nd 0.03263 0.51722 0.99435 0.0
C218 C 0.00741 0.58603 0.73069 0.0
C219 C 0.98374 0.58517 0.69381 0.0
C220 C 0.9768 0.6074 0.65395 0.0
C221 C 0.95419 0.60644 0.61923 0.0
C222 C 0.93812 0.58319 0.62414 0.0
C223 C 0.94517 0.561 0.66497 0.0
C224 C 0.96773 0.562 0.69943 0.0
C225 C 0.03217 0.50625 0.82106 0.0
C226 C 0.97656 0.51992 0.95041 0.0
C227 C 0.04768 0.47998 0.08867 0.0
C228 C 0.0696 0.4804 0.13492 0.0
C229 C 0.07505 0.45817 0.17992 0.0
C230 C 0.09661 0.4589 0.22088 0.0
C231 C 0.11311 0.48185 0.21665 0.0
C232 C 0.10736 0.50405 0.17173 0.0
C233 C 0.08582 0.50333 0.13151 0.0
C234 C 0.0347 0.56582 0.02661 0.0
C235 C 0.07949 0.5544 0.88967 0.0
O236 O 0.007 0.58764 0.80498 0.0
O237 O 0.02062 0.56964 0.71447 0.0
O238 O 0.04109 0.52698 0.77288 0.0
O239 O 0.01917 0.51097 0.87563 0.0
O240 O 0.98526 0.53731 0.88869 0.0
O241 O 0.99085 0.50822 0.99891 0.0
O242 O 0.0521 0.48451 0.01261 0.0
O243 O 0.03119 0.49236 0.1107 0.0
O244 O 0.0372 0.54633 0.0787 0.0
O245 O 0.03131 0.55879 0.96159 0.0
O246 O 0.07107 0.53282 0.93745 0.0
O247 O 0.06488 0.56857 0.85142 0.0
H248 H 0.98888 0.62548 0.64956 0.0
H249 H 0.94925 0.6239 0.58887 0.0
H250 H 0.9335 0.54272 0.66886 0.0
H251 H 0.97277 0.5446 0.72999 0.0
H252 H 0.06277 0.44029 0.1829 0.0
H253 H 0.10057 0.44147 0.25478 0.0
H254 H 0.11937 0.52211 0.16836 0.0
H255 H 0.08186 0.52071 0.09729 0.0
H256 H 0.2147 0.06774 0.63273 0.0
H257 H 0.22634 0.08615 0.86276 0.0
H258 H 0.17069 0.06409 0.65568 0.0
H259 H 0.18241 0.08326 0.88518 0.0
H260 H 0.10252 0.04259 0.93298 0.0
H261 H 0.14671 0.05128 0.90941 0.0
H262 H 0.138 0.08707 0.67137 0.0
H263 H 0.09366 0.07767 0.69469 0.0
C264 C 0.20786 0.0713 0.68785 0.0
C265 C 0.22391 0.07714 0.74617 0.0
C266 C 0.18263 0.06938 0.70089 0.0
C267 C 0.17292 0.07333 0.77242 0.0
C268 C 0.18915 0.07971 0.82993 0.0
C269 C 0.21433 0.08151 0.81698 0.0
C270 C 0.11007 0.05258 0.87591 0.0
C271 C 0.09466 0.0593 0.81551 0.0
C272 C 0.13543 0.05767 0.8624 0.0
C273 C 0.14599 0.06973 0.78823 0.0
C274 C 0.13051 0.07734 0.72873 0.0
C275 C 0.10511 0.07216 0.74224 0.0
H276 H 0.51 0.21222 0.46308 0.0
H277 H 0.5863 0.21087 0.50101 0.0
H278 H 0.4991 0.17161 0.55425 0.0
H279 H 0.57561 0.17062 0.59078 0.0
H280 H 0.55022 0.11315 0.80645 0.0
H281 H 0.55632 0.15471 0.72167 0.0
H282 H 0.503 0.12582 0.56706 0.0
H283 H 0.49668 0.08422 0.65274 0.0
C284 C 0.52441 0.2032 0.49051 0.0
C285 C 0.54902 0.21469 0.47511 0.0
C286 C 0.5182 0.17997 0.5426 0.0
C287 C 0.53648 0.16801 0.58062 0.0
C288 C 0.56103 0.1795 0.56396 0.0
C289 C 0.56718 0.20248 0.51192 0.0
C290 C 0.53959 0.11575 0.75487 0.0
C291 C 0.52319 0.09535 0.73577 0.0
C292 C 0.54317 0.13952 0.70601 0.0
C293 C 0.53042 0.14351 0.63686 0.0
C294 C 0.51308 0.12343 0.61988 0.0
C295 C 0.50953 0.09957 0.6688 0.0
H296 H 0.3404 0.50012 0.71804 0.0
H297 H 0.35446 0.5784 0.74754 0.0
H298 H 0.38334 0.4971 0.74161 0.0
H299 H 0.39732 0.57551 0.76945 0.0
H300 H 0.47619 0.56703 0.69918 0.0
H301 H 0.43291 0.56813 0.68007 0.0
H302 H 0.41346 0.50142 0.85906 0.0
H303 H 0.45698 0.50059 0.87944 0.0
C304 C 0.35266 0.51666 0.72935 0.0
C305 C 0.34419 0.53957 0.73051 0.0
C306 C 0.37715 0.51489 0.74323 0.0
C307 C 0.39364 0.53611 0.75699 0.0
C308 C 0.38506 0.55893 0.75837 0.0
C309 C 0.36056 0.56055 0.74603 0.0
C310 C 0.46269 0.55255 0.73432 0.0
C311 C 0.46991 0.5337 0.7907 0.0
C312 C 0.43794 0.55325 0.7236 0.0
C313 C 0.41986 0.53486 0.76806 0.0
C314 C 0.42705 0.51573 0.8237 0.0
C315 C 0.45188 0.51531 0.83551 0.0
H316 H 0.0374 0.38094 0.56645 0.0
H317 H 0.00876 0.34431 0.79794 0.0
H318 H 0.04172 0.42228 0.60785 0.0
H319 H 0.01436 0.38491 0.84111 0.0
H320 H 1.00096 0.46199 0.87906 0.0
H321 H 0.99848 0.42114 0.83744 0.0
H322 H 0.06143 0.45153 0.67851 0.0
H323 H 0.0628 0.49275 0.71741 0.0
C324 C 0.03244 0.38171 0.62652 0.0
C325 C 0.02261 0.35939 0.67882 0.0
C326 C 0.035 0.40543 0.65071 0.0
C327 C 0.02815 0.40734 0.72814 0.0
C328 C 0.01917 0.38468 0.78058 0.0
C329 C 0.0162 0.36121 0.75603 0.0
C330 C 0.01435 0.45985 0.83563 0.0
C331 C 0.03205 0.48062 0.80157 0.0
C332 C 0.01307 0.43629 0.81176 0.0
C333 C 0.02979 0.43262 0.75416 0.0
C334 C 0.04788 0.45344 0.72165 0.0
C335 C 0.04886 0.47711 0.7446 0.0
H336 H 0.84314 0.01974 0.16685 0.0
H337 H 0.83637 0.98484 0.96142 0.0
H338 H 0.88736 0.02579 0.15085 0.0
H339 H 0.8808 0.98959 0.94719 0.0
H340 H 0.96167 0.02723 0.89861 0.0
H341 H 0.91705 0.01875 0.91168 0.0
H342 H 0.92072 1.00514 0.16397 0.0
H343 H 0.96504 0.01507 0.15012 0.0
C344 C 0.85115 1.01302 0.11883 0.0
C345 C 0.83635 1.00171 0.06554 0.0
C346 C 0.87659 0.0163 0.10983 0.0
C347 C 0.88787 1.00797 0.04803 0.0
C348 C 0.87291 0.99655 0.99489 0.0
C349 C 0.84744 0.99364 1.00328 0.0
C350 C 0.95282 0.02219 0.95665 0.0
C351 C 0.9667 0.02195 0.02335 0.0
C352 C 0.92723 0.01724 0.96435 0.0
C353 C 0.91509 1.01156 0.03902 0.0
C354 C 0.92926 1.01017 0.10551 0.0
C355 C 0.95472 0.01559 0.0977 0.0
H356 H 0.5001 0.85972 0.36044 0.0
H357 H 0.5691 0.86516 0.2357 0.0
H358 H 0.4944 0.90013 0.28294 0.0
H359 H 0.56448 0.90626 0.16168 0.0
H360 H 0.54102 0.96664 0.98358 0.0
H361 H 0.54444 0.92569 0.06098 0.0
H362 H 0.50505 0.94373 0.25536 0.0
H363 H 0.50021 0.9839 0.17516 0.0
C364 C 0.51431 0.86989 0.31757 0.0
C365 C 0.53508 0.85938 0.30406 0.0
C366 C 0.51112 0.89316 0.27305 0.0
C367 C 0.52885 0.90667 0.21493 0.0
C368 C 0.55001 0.89631 0.20387 0.0
C369 C 0.55289 0.87286 0.2471 0.0
C370 C 0.5328 0.96165 0.04242 0.0
C371 C 0.52027 0.97844 0.07303 0.0
C372 C 0.53505 0.93825 0.08758 0.0
C373 C 0.52533 0.93123 0.16548 0.0
C374 C 0.51253 0.94807 0.19559 0.0
C375 C 0.50985 0.97126 0.14969 0.0
H376 H 0.71611 0.54857 0.94574 0.0
H377 H 0.70463 0.54816 0.19263 0.0
H378 H 0.67255 0.54802 0.9278 0.0
H379 H 0.66115 0.54804 0.1747 0.0
H380 H 0.58117 0.51856 0.12611 0.0
H381 H 0.62479 0.52019 0.14526 0.0
H382 H 0.64131 0.57431 0.92949 0.0
H383 H 0.59766 0.5724 0.91015 0.0
C384 C 0.70427 0.54852 0.99607 0.0
C385 C 0.7138 0.54841 0.07045 0.0
C386 C 0.67933 0.54835 0.98578 0.0
C387 C 0.66328 0.54801 0.04978 0.0
C388 C 0.6729 0.54799 0.12427 0.0
C389 C 0.69787 0.54822 0.1345 0.0
C390 C 0.59414 0.53087 0.08299 0.0
C391 C 0.58602 0.54528 0.01652 0.0
C392 C 0.61915 0.53191 0.09411 0.0
C393 C 0.63663 0.54736 0.03889 0.0
C394 C 0.6284 0.56194 0.97267 0.0
C395 C 0.60339 0.56094 0.96171 0.0
H396 H 0.0223 0.69185 0.27051 0.0
H397 H 0.03482 0.72724 0.02765 0.0
H398 H 0.0233 0.65045 0.2345 0.0
H399 H 0.03709 0.68638 0.99156 0.0
H400 H 0.01879 0.6065 0.93707 0.0
H401 H 0.01603 0.64749 0.97328 0.0
H402 H 0.0479 0.62417 0.19373 0.0
H403 H 0.04941 0.58303 0.1586 0.0
C404 C 0.02548 0.6908 0.20951 0.0
C405 C 0.02847 0.71282 0.15193 0.0
C406 C 0.02623 0.66704 0.18861 0.0
C407 C 0.03032 0.66474 0.10969 0.0
C408 C 0.03341 0.68699 0.05258 0.0
C409 C 0.03233 0.71057 0.07338 0.0
C410 C 0.02524 0.61025 0.99303 0.0
C411 C 0.03429 0.59151 0.04486 0.0
C412 C 0.02378 0.63385 0.01399 0.0
C413 C 0.03167 0.63945 0.08699 0.0
C414 C 0.04109 0.62065 0.13794 0.0
C415 C 0.04221 0.59703 0.11739 0.0
H416 H 0.03522 0.24112 0.74356 0.0
H417 H 0.97244 0.22006 0.61186 0.0
H418 H 0.02976 0.19808 0.81767 0.0
H419 H 0.9662 0.17704 0.68781 0.0
H420 H 0.01579 0.1199 0.95009 0.0
H421 H 0.00834 0.1628 0.90581 0.0
H422 H 0.98795 0.14328 0.6819 0.0
H423 H 0.99455 0.10005 0.72763 0.0
C424 C 0.01957 0.22751 0.73316 0.0
C425 C 1.00432 0.23372 0.67207 0.0
C426 C 0.0164 0.20277 0.77545 0.0
C427 C 0.99778 0.18388 0.75767 0.0
C428 C 0.98108 0.19092 0.70165 0.0
C429 C 0.98442 0.21559 0.65888 0.0
C430 C 0.00937 0.12469 0.89173 0.0
C431 C 0.00612 0.10676 0.84171 0.0
C432 C 0.00514 0.14932 0.86634 0.0
C433 C 0.99786 0.15669 0.78994 0.0
C434 C 0.99327 0.13827 0.74149 0.0
C435 C 0.9972 0.11348 0.76737 0.0
H436 H 0.34861 0.08171 0.80867 0.0
H437 H 0.32921 1.00858 0.74144 0.0
H438 H 0.38247 0.06753 0.8797 0.0
H439 H 0.36259 0.99358 0.81553 0.0
H440 H 0.4477 1.00026 0.80929 0.0
H441 H 0.40499 1.0022 0.78552 0.0
H442 H 0.40126 0.04308 0.97702 0.0
H443 H 0.44436 0.04221 0.99764 0.0
C444 C 0.35091 0.06211 0.81286 0.0
C445 C 0.33635 0.04613 0.77052 0.0
C446 C 0.37036 0.05388 0.8535 0.0
C447 C 0.3756 0.02943 0.85258 0.0
C448 C 0.35943 1.01267 0.81622 0.0
C449 C 0.34009 0.02105 0.77486 0.0
C450 C 0.43755 1.0091 0.8474 0.0
C451 C 0.44939 0.02149 0.90421 0.0
C452 C 0.41296 1.01012 0.8342 0.0
C453 C 0.39965 0.02322 0.87849 0.0
C454 C 0.41105 0.03346 0.94034 0.0
C455 C 0.43572 0.03286 0.95245 0.0
H456 H 0.54396 0.32683 0.55153 0.0
H457 H 0.61362 0.34395 0.42357 0.0
H458 H 0.55834 0.3577 0.63346 0.0
H459 H 0.629 0.37385 0.5088 0.0
H460 H 0.62617 0.45407 0.56011 0.0
H461 H 0.62261 0.4145 0.51219 0.0
H462 H 0.58177 0.37535 0.7254 0.0
H463 H 0.58341 0.4155 0.77004 0.0
C464 C 0.56277 0.3365 0.54353 0.0
C465 C 0.57771 0.33329 0.48157 0.0
C466 C 0.57116 0.35417 0.59069 0.0
C467 C 0.59481 0.36873 0.57721 0.0
C468 C 0.61049 0.36355 0.51961 0.0
C469 C 0.60186 0.34625 0.47136 0.0
C470 C 0.61647 0.43702 0.59696 0.0
C471 C 0.60442 0.4382 0.66776 0.0
C472 C 0.6148 0.41409 0.57008 0.0
C473 C 0.60143 0.3916 0.61411 0.0
C474 C 0.5916 0.39236 0.68879 0.0
C475 C 0.59287 0.41543 0.71501 0.0
H476 H 0.22455 0.58648 0.6612 0.0
H477 H 0.21738 0.5161 0.82499 0.0
H478 H 0.18871 0.59679 0.724 0.0
H479 H 0.18088 0.52533 0.8854 0.0
H480 H 0.10403 0.57986 0.754 0.0
H481 H 0.14705 0.58241 0.71917 0.0
H482 H 0.15847 0.54707 0.9558 0.0
H483 H 0.11509 0.54331 0.98874 0.0
C484 C 0.21566 0.57364 0.71237 0.0
C485 C 0.22369 0.55066 0.73902 0.0
C486 C 0.19491 0.57928 0.74764 0.0
C487 C 0.18144 0.56171 0.80896 0.0
C488 C 0.19075 0.53956 0.8391 0.0
C489 C 0.21173 0.53417 0.80461 0.0
C490 C 0.11588 0.57318 0.79891 0.0
C491 C 0.10618 0.56106 0.87362 0.0
C492 C 0.14067 0.57473 0.77919 0.0
C493 C 0.15638 0.56458 0.83429 0.0
C494 C 0.1469 0.55444 0.9111 0.0
C495 C 0.12205 0.55244 0.93024 0.0
H496 H 0.02857 0.82916 0.0936 0.0
H497 H 0.08867 0.85113 0.23493 0.0
H498 H 0.03356 0.87245 0.0216 0.0
H499 H 0.0943 0.89446 0.16155 0.0
H500 H 0.0478 0.95178 0.8935 0.0
H501 H 0.05548 0.909 0.93769 0.0
H502 H 0.07008 0.92671 0.16753 0.0
H503 H 0.06311 0.96984 0.12244 0.0
C504 C 0.04362 0.84303 0.10659 0.0
C505 C 0.05812 0.83694 0.16995 0.0
C506 C 0.04646 0.86793 0.06561 0.0
C507 C 0.064 0.88712 0.08703 0.0
C508 C 0.08021 0.8803 0.14497 0.0
C509 C 0.07723 0.85545 0.18626 0.0
C510 C 0.05291 0.94666 0.9533 0.0
C511 C 0.05451 0.96414 0.00489 0.0
C512 C 0.0573 0.92208 0.97859 0.0
C513 C 0.06321 0.91427 0.05629 0.0
C514 C 0.0659 0.93213 0.1069 0.0
C515 C 0.06171 0.95684 0.08133 0.0
H516 H 0.72915 0.06075 0.06184 0.0
H517 H 0.7049 0.98631 0.00872 0.0
H518 H 0.69558 0.07633 0.98993 0.0
H519 H 0.6712 1.00145 0.93795 0.0
H520 H 0.61238 0.0323 0.80932 0.0
H521 H 0.65478 0.02859 0.83273 0.0
H522 H 0.6523 0.06718 0.02968 0.0
H523 H 0.61009 0.0713 0.00562 0.0
C524 C 0.71719 0.04806 0.0318 0.0
C525 C 0.71959 0.02248 0.03964 0.0
C526 C 0.69783 0.05684 0.99156 0.0
C527 C 0.68053 0.04008 0.95899 0.0
C528 C 0.6843 0.01497 0.96145 0.0
C529 C 0.7036 1.00624 1.00181 0.0
C530 C 0.62102 0.04052 0.85659 0.0
C531 C 0.60766 0.05173 0.90651 0.0
C532 C 0.64534 0.03831 0.87005 0.0
C533 C 0.65686 0.04728 0.93363 0.0
C534 C 0.64409 0.06024 0.97973 0.0
C535 C 0.61976 0.06246 0.96625 0.0
H536 H 0.51716 0.7501 0.25395 0.0
H537 H 0.44605 0.73636 0.37195 0.0
H538 H 0.5027 0.71943 0.17126 0.0
H539 H 0.43075 0.7067 0.28601 0.0
H540 H 0.43154 0.62542 0.24071 0.0
H541 H 0.43615 0.66532 0.28712 0.0
H542 H 0.47954 0.7024 0.07667 0.0
H543 H 0.47659 0.66185 0.03338 0.0
C544 C 0.49809 0.74126 0.2595 0.0
C545 C 0.4827 0.74529 0.31912 0.0
C546 C 0.48967 0.72371 0.21194 0.0
C547 C 0.46558 0.71012 0.22268 0.0
C548 C 0.44957 0.71624 0.27747 0.0
C549 C 0.45818 0.7334 0.3261 0.0
C550 C 0.44197 0.64209 0.20408 0.0
C551 C 0.45426 0.64021 0.13445 0.0
C552 C 0.44429 0.66522 0.23007 0.0
C553 C 0.45862 0.68719 0.18635 0.0
C554 C 0.46889 0.68578 0.11289 0.0
C555 C 0.4669 0.66252 0.08747 0.0
H556 H 0.82987 0.48591 0.17066 0.0
H557 H 0.83613 0.55705 0.01083 0.0
H558 H 0.86698 0.47749 0.11027 0.0
H559 H 0.87381 0.54948 0.95235 0.0
H560 H 0.95148 0.49686 0.08814 0.0
H561 H 0.90835 0.49436 0.12078 0.0
H562 H 0.89755 0.52793 0.88199 0.0
H563 H 0.94094 0.53129 0.85035 0.0
C564 C 0.83883 0.49932 0.12072 0.0
C565 C 0.83018 0.52202 0.09483 0.0
C566 C 0.8603 0.49474 0.08689 0.0
C567 C 0.87381 0.51304 0.02753 0.0
C568 C 0.86391 0.53481 0.99744 0.0
C569 C 0.84225 0.5392 0.03069 0.0
C570 C 0.93984 0.50329 0.04226 0.0
C571 C 0.94975 0.51458 0.96699 0.0
C572 C 0.91497 0.50172 0.06078 0.0
C573 C 0.89933 0.51112 0.00419 0.0
C574 C 0.90905 0.52097 0.92754 0.0
C575 C 0.93397 0.52279 0.9093 0.0
H576 H 0.99976 0.25651 0.36831 0.0
H577 H 0.07496 0.27195 0.42771 0.0
H578 H 0.00998 0.22864 0.28182 0.0
H579 H 0.08568 0.24461 0.33898 0.0
H580 H 0.08595 0.16361 0.29148 0.0
H581 H 0.07985 0.20005 0.34825 0.0
H582 H 0.02877 0.21847 0.17173 0.0
H583 H 0.03375 0.18107 0.11779 0.0
C584 C 0.01877 0.25505 0.35925 0.0
C585 C 0.0366 0.26673 0.40394 0.0
C586 C 0.02469 0.23881 0.31005 0.0
C587 C 0.04865 0.23377 0.30419 0.0
C588 C 0.06692 0.24746 0.34322 0.0
C589 C 0.06094 0.26368 0.39273 0.0
C590 C 0.07325 0.17525 0.26492 0.0
C591 C 0.06018 0.16897 0.20024 0.0
C592 C 0.07007 0.19658 0.29678 0.0
C593 C 0.05382 0.21251 0.26481 0.0
C594 C 0.04126 0.20664 0.19876 0.0
C595 C 0.04434 0.18521 0.16713 0.0
H596 H 0.31492 0.06764 0.42506 0.0
H597 H 0.36556 0.11282 0.55178 0.0
H598 H 0.34467 0.0767 0.31327 0.0
H599 H 0.39545 0.12123 0.44263 0.0
H600 H 0.4463 0.13808 0.23549 0.0
H601 H 0.40962 0.13926 0.31273 0.0
H602 H 0.38182 0.06155 0.2931 0.0
H603 H 0.41768 0.06093 0.21195 0.0
C604 C 0.33212 0.08011 0.42792 0.0
C605 C 0.33809 0.08941 0.49688 0.0
C606 C 0.3493 0.08505 0.36451 0.0
C607 C 0.37267 0.09938 0.36923 0.0
C608 C 0.37767 0.11033 0.43616 0.0
C609 C 0.36058 0.10542 0.49909 0.0
C610 C 0.43211 0.12145 0.24602 0.0
C611 C 0.43521 0.09926 0.21853 0.0
C612 C 0.41113 0.12204 0.29099 0.0
C613 C 0.3928 0.10042 0.31011 0.0
C614 C 0.39537 0.07867 0.27922 0.0
C615 C 0.41623 0.07814 0.23379 0.0
H616 H 0.58144 0.3564 0.19007 0.0
H617 H 0.50411 0.33028 0.23629 0.0
H618 H 0.57339 0.39249 0.09633 0.0
H619 H 0.49576 0.36627 0.14031 0.0
H620 H 0.55483 0.45394 0.91469 0.0
H621 H 0.5583 0.4109 0.97647 0.0
H622 H 0.49952 0.41073 0.14311 0.0
H623 H 0.49561 0.45335 0.08014 0.0
C624 C 0.56266 0.35795 0.17783 0.0
C625 C 0.54341 0.3406 0.22052 0.0
C626 C 0.55798 0.37866 0.12388 0.0
C627 C 0.53389 0.38262 0.1112 0.0
C628 C 0.51455 0.3641 0.14956 0.0
C629 C 0.51928 0.34326 0.20367 0.0
C630 C 0.54242 0.44461 0.96382 0.0
C631 C 0.52511 0.4573 0.99283 0.0
C632 C 0.54446 0.41989 0.99953 0.0
C633 C 0.52933 0.40725 0.06539 0.0
C634 C 0.5113 0.41959 0.09202 0.0
C635 C 0.5092 0.44423 0.05616 0.0
H636 H 0.22702 0.47267 0.55911 0.0
H637 H 0.23408 0.55023 0.44061 0.0
H638 H 0.19806 0.45925 0.46318 0.0
H639 H 0.20518 0.53718 0.34538 0.0
H640 H 0.15869 0.50752 0.16448 0.0
H641 H 0.19509 0.51374 0.24001 0.0
H642 H 0.15572 0.46532 0.44259 0.0
H643 H 0.11936 0.45903 0.36689 0.0
C644 C 0.22303 0.48665 0.51074 0.0
C645 C 0.2329 0.51238 0.50625 0.0
C646 C 0.20623 0.47908 0.45653 0.0
C647 C 0.19913 0.49716 0.39692 0.0
C648 C 0.2104 0.52269 0.38978 0.0
C649 C 0.227 0.53021 0.44414 0.0
C650 C 0.15786 0.49807 0.22503 0.0
C651 C 0.13602 0.48306 0.26 0.0
C652 C 0.17874 0.50159 0.26824 0.0
C653 C 0.1783 0.4902 0.34755 0.0
C654 C 0.15682 0.47413 0.38139 0.0
C655 C 0.13592 0.47057 0.33806 0.0
H656 H 0.05998 0.81184 0.47624 0.0
H657 H 0.98554 0.80147 0.40682 0.0
H658 H 0.05037 0.83969 0.56403 0.0
H659 H 0.97552 0.82902 0.4959 0.0
H660 H 0.98149 0.91157 0.54041 0.0
H661 H 0.98558 0.87436 0.48467 0.0
H662 H 0.02969 0.84939 0.67522 0.0
H663 H 0.02553 0.88678 0.7314 0.0
C664 C 0.0412 0.81442 0.4832 0.0
C665 C 0.02343 0.80416 0.43555 0.0
C666 C 0.03568 0.83063 0.53307 0.0
C667 C 0.01224 0.83713 0.53616 0.0
C668 C 0.9939 0.82489 0.49394 0.0
C669 C 0.99945 0.80862 0.44411 0.0
C670 C 0.99169 0.89796 0.57149 0.0
C671 C 1.0032 0.90238 0.64059 0.0
C672 C 0.99398 0.87645 0.53948 0.0
C673 C 0.00788 0.85862 0.57542 0.0
C674 C 0.01903 0.86276 0.64536 0.0
C675 C 0.01672 0.88431 0.67749 0.0
H676 H 0.6915 0.96024 0.26858 0.0
H677 H 0.74822 1.0025 0.38365 0.0
H678 H 0.66485 0.95267 0.38514 0.0
H679 H 0.72188 0.9938 0.50327 0.0
H680 H 0.65395 1.01214 0.62928 0.0
H681 H 0.68755 1.00982 0.54124 0.0
H682 H 0.65293 0.93462 0.51445 0.0
H683 H 0.61832 0.93786 0.59716 0.0
C684 C 0.69849 0.96734 0.31988 0.0
C685 C 0.72174 0.9824 0.31652 0.0
C686 C 0.68327 0.96276 0.38738 0.0
C687 C 0.69098 0.97289 0.45389 0.0
C688 C 0.7151 0.98615 0.45269 0.0
C689 C 0.73034 0.99089 0.38455 0.0
C690 C 0.65344 0.99509 0.60458 0.0
C691 C 0.63296 0.97553 0.6187 0.0
C692 C 0.67303 0.99355 0.555 0.0
C693 C 0.67287 0.9722 0.51919 0.0
C694 C 0.65344 0.95166 0.53917 0.0
C695 C 0.63365 0.95338 0.58772 0.0
H696 H 0.47364 0.71899 0.60999 0.0
H697 H 0.55105 0.74729 0.57976 0.0
H698 H 0.48113 0.68253 0.70363 0.0
H699 H 0.55874 0.71092 0.67517 0.0
H700 H 0.49915 0.6215 0.8896 0.0
H701 H 0.49514 0.66435 0.82764 0.0
H702 H 0.5561 0.66642 0.66723 0.0
H703 H 0.5604 0.62383 0.73004 0.0
C704 C 0.49224 0.71781 0.62558 0.0
C705 C 0.51175 0.73593 0.58741 0.0
C706 C 0.49659 0.6969 0.67944 0.0
C707 C 0.5206 0.69351 0.69635 0.0
C708 C 0.54005 0.7127 0.66257 0.0
C709 C 0.53565 0.73374 0.60879 0.0
C710 C 0.51189 0.63118 0.84178 0.0
C711 C 0.52993 0.61901 0.8144 0.0
C712 C 0.50956 0.65579 0.80603 0.0
C713 C 0.52519 0.66889 0.74196 0.0
C714 C 0.54391 0.65712 0.71696 0.0
C715 C 0.54625 0.63253 0.75272 0.0
H716 H 0.82013 0.59397 0.29847 0.0
H717 H 0.81971 0.51506 0.39199 0.0
H718 H 0.84843 0.60615 0.39759 0.0
H719 H 0.84787 0.52697 0.49065 0.0
H720 H 0.89372 0.55429 0.67757 0.0
H721 H 0.85669 0.54777 0.60491 0.0
H722 H 0.89216 0.60218 0.40763 0.0
H723 H 0.9292 0.60849 0.47961 0.0
C724 C 0.82537 0.57929 0.34225 0.0
C725 C 0.81772 0.55362 0.3383 0.0
C726 C 0.84176 0.58621 0.39827 0.0
C727 C 0.85058 0.56753 0.45149 0.0
C728 C 0.84129 0.54184 0.45113 0.0
C729 C 0.82515 0.53498 0.39477 0.0
C730 C 0.89358 0.56497 0.61882 0.0
C731 C 0.91458 0.58168 0.58409 0.0
C732 C 0.87232 0.56132 0.5774 0.0
C733 C 0.8715 0.57438 0.50041 0.0
C734 C 0.89204 0.59209 0.46724 0.0
C735 C 0.91334 0.59567 0.50854 0.0
loop_
_geom_bond_atom_site_label_1
_geom_bond_atom_site_label_2
_geom_bond_distance
_geom_bond_site_symmetry_2
_ccdc_geom_bond_type
H0 C5 0.930 . S
H1 C8 0.930 . S
H2 C10 0.930 . S
H3 C4 1.016 . S
C4 H3 1.016 . S
C4 N11 1.286 1_556 S
C5 H0 0.930 . S
C5 C6 1.397 . S
C5 C7 1.361 . S
C6 C5 1.397 . S
C6 C10 1.390 . S
C7 C5 1.361 . S
C7 C8 1.393 1_554 S
C7 N11 1.413 . S
C8 H1 0.930 . S
C8 C7 1.393 1_556 S
C8 C9 1.399 . S
C9 C8 1.399 . S
C9 C10 1.381 1_556 S
C10 H2 0.930 . S
C10 C6 1.390 . S
C10 C9 1.381 1_554 S
N11 C4 1.286 1_554 S
N11 C7 1.413 . S
H12 C17 0.930 . S
H13 C20 0.930 . S
H14 C22 0.930 . S
H15 C16 1.016 . S
C16 H15 1.016 . S
C16 N23 1.286 1_655 S
C17 H12 0.930 . S
C17 C18 1.397 1_455 S
C17 C19 1.361 . S
C18 C17 1.397 1_655 S
C18 C22 1.390 . S
C19 C17 1.361 . S
C19 C20 1.393 . S
C19 N23 1.413 . S
C20 H13 0.930 . S
C20 C19 1.393 . S
C20 C21 1.399 1_455 S
C21 C20 1.399 1_655 S
C21 C22 1.381 . S
C22 H14 0.930 . S
C22 C18 1.390 . S
C22 C21 1.381 . S
N23 C16 1.286 1_455 S
N23 C19 1.413 . S
H24 C29 0.930 . S
H25 C32 0.930 1_556 S
H26 C34 0.930 . S
H27 C28 1.016 1_556 S
C28 H27 1.016 1_554 S
C28 N35 1.286 . S
C29 H24 0.930 . S
C29 C30 1.397 . S
C29 C31 1.361 . S
C30 C29 1.397 . S
C30 C34 1.390 . S
C31 C29 1.361 . S
C31 C32 1.393 . S
C31 N35 1.413 . S
C32 H25 0.930 1_554 S
C32 C31 1.393 . S
C32 C33 1.399 . S
C33 C32 1.399 . S
C33 C34 1.381 . S
C34 H26 0.930 . S
C34 C30 1.390 . S
C34 C33 1.381 . S
N35 C28 1.286 . S
N35 C31 1.413 . S
H36 C41 0.930 . S
H37 C44 0.930 . S
H38 C46 0.930 . S
H39 C40 1.016 . S
C40 H39 1.016 . S
C40 N47 1.286 . S
C41 H36 0.930 . S
C41 C42 1.397 . S
C41 C43 1.361 . S
C42 C41 1.397 . S
C42 C46 1.390 . S
C43 C41 1.361 . S
C43 C44 1.393 . S
C43 N47 1.413 . S
C44 H37 0.930 . S
C44 C43 1.393 . S
C44 C45 1.399 . S
C45 C44 1.399 . S
C45 C46 1.381 . S
C46 H38 0.930 . S
C46 C42 1.390 . S
C46 C45 1.381 . S
N47 C40 1.286 . S
N47 C43 1.413 . S
H48 C53 0.930 . S
H49 C56 0.930 . S
H50 C58 0.930 . S
H51 C52 1.016 . S
C52 H51 1.016 . S
C52 N59 1.286 . S
C53 H48 0.930 . S
C53 C54 1.397 . S
C53 C55 1.361 . S
C54 C53 1.397 . S
C54 C58 1.390 . S
C55 C53 1.361 . S
C55 C56 1.393 . S
C55 N59 1.413 . S
C56 H49 0.930 . S
C56 C55 1.393 . S
C56 C57 1.399 . S
C57 C56 1.399 . S
C57 C58 1.381 . S
C58 H50 0.930 . S
C58 C54 1.390 . S
C58 C57 1.381 . S
N59 C52 1.286 . S
N59 C55 1.413 . S
H60 C65 0.930 . S
H61 C68 0.930 . S
H62 C70 0.930 . S
H63 C64 1.016 . S
C64 H63 1.016 . S
C64 N71 1.286 . S
C65 H60 0.930 . S
C65 C66 1.397 . S
C65 C67 1.361 . S
C66 C65 1.397 . S
C66 C70 1.390 . S
C67 C65 1.361 . S
C67 C68 1.393 . S
C67 N71 1.413 . S
C68 H61 0.930 . S
C68 C67 1.393 . S
C68 C69 1.399 . S
C69 C68 1.399 . S
C69 C70 1.381 . S
C70 H62 0.930 . S
C70 C66 1.390 . S
C70 C69 1.381 . S
N71 C64 1.286 . S
N71 C67 1.413 . S
H72 C77 0.930 . S
H73 C80 0.930 . S
H74 C82 0.930 . S
H75 C76 1.016 . S
C76 H75 1.016 . S
C76 N83 1.286 . S
C77 H72 0.930 . S
C77 C78 1.397 . S
C77 C79 1.361 . S
C78 C77 1.397 . S
C78 C82 1.390 . S
C79 C77 1.361 . S
C79 C80 1.393 . S
C79 N83 1.413 . S
C80 H73 0.930 . S
C80 C79 1.393 . S
C80 C81 1.399 . S
C81 C80 1.399 . S
C81 C82 1.381 . S
C82 H74 0.930 . S
C82 C78 1.390 . S
C82 C81 1.381 . S
N83 C76 1.286 . S
N83 C79 1.413 . S
H84 C89 0.930 . S
H85 C92 0.930 . S
H86 C94 0.930 . S
H87 C88 1.016 . S
C88 H87 1.016 . S
C88 N95 1.286 . S
C89 H84 0.930 . S
C89 C90 1.397 . S
C89 C91 1.361 . S
C90 C89 1.397 . S
C90 C94 1.390 . S
C91 C89 1.361 . S
C91 C92 1.393 . S
C91 N95 1.413 . S
C92 H85 0.930 . S
C92 C91 1.393 . S
C92 C93 1.399 . S
C93 C92 1.399 . S
C93 C94 1.381 . S
C94 H86 0.930 . S
C94 C90 1.390 . S
C94 C93 1.381 . S
N95 C88 1.286 . S
N95 C91 1.413 . S
Nd96 C98 2.836 1_545 S
Nd96 O116 2.500 1_445 S
Nd96 O117 2.492 1_545 S
Nd96 O118 2.487 . S
Nd96 O119 2.682 . S
Nd96 O120 2.410 1_545 S
Nd96 O125 2.414 1_455 S
Nd96 O127 2.424 . S
Nd97 C107 2.836 . S
Nd97 O119 2.414 1_554 S
Nd97 O121 2.424 1_545 S
Nd97 O122 2.500 . S
Nd97 O123 2.492 . S
Nd97 O124 2.487 1_455 S
Nd97 O125 2.682 1_454 S
Nd97 O126 2.410 1_554 S
C98 Nd96 2.836 1_565 S
C98 C99 1.498 . S
C98 O116 1.258 1_455 S
C98 O117 1.239 . S
C99 C98 1.498 . S
C99 C100 1.366 1_455 S
C99 C104 1.407 . S
C100 C99 1.366 1_655 S
C100 C101 1.392 . S
C100 H128 0.930 . S
C101 C100 1.392 . S
C101 C102 1.398 1_655 S
C101 H129 0.929 . S
C102 C101 1.398 1_455 S
C102 C103 1.352 . S
C103 C102 1.352 . S
C103 C104 1.384 . S
C103 H130 0.930 . S
C104 C99 1.407 . S
C104 C103 1.384 . S
C104 H131 0.929 . S
C105 O118 1.241 . S
C105 O119 1.273 . S
C106 O120 1.251 . S
C106 O121 1.268 1_556 S
C107 Nd97 2.836 . S
C107 C108 1.498 . S
C107 O122 1.258 . S
C107 O123 1.239 . S
C108 C107 1.498 . S
C108 C109 1.366 . S
C108 C113 1.407 . S
C109 C108 1.366 . S
C109 C110 1.392 . S
C109 H132 0.930 . S
C110 C109 1.392 . S
C110 C111 1.398 . S
C110 H133 0.929 . S
C111 C110 1.398 . S
C111 C112 1.352 . S
C112 C111 1.352 . S
C112 C113 1.384 . S
C112 H134 0.930 . S
C113 C108 1.407 . S
C113 C112 1.384 . S
C113 H135 0.929 . S
C114 O124 1.241 1_556 S
C114 O125 1.273 . S
C115 O126 1.251 . S
C115 O127 1.268 . S
O116 Nd96 2.500 1_665 S
O116 C98 1.258 1_655 S
O117 Nd96 2.492 1_565 S
O117 C98 1.239 . S
O118 Nd96 2.487 . S
O118 C105 1.241 . S
O119 Nd96 2.682 . S
O119 Nd97 2.414 1_556 S
O119 C105 1.273 . S
O120 Nd96 2.410 1_565 S
O120 C106 1.251 . S
O121 Nd97 2.424 1_565 S
O121 C106 1.268 1_554 S
O122 Nd97 2.500 . S
O122 C107 1.258 . S
O123 Nd97 2.492 . S
O123 C107 1.239 . S
O124 Nd97 2.487 1_655 S
O124 C114 1.241 1_554 S
O125 Nd96 2.414 1_655 S
O125 Nd97 2.682 1_656 S
O125 C114 1.273 . S
O126 Nd97 2.410 1_556 S
O126 C115 1.251 . S
O127 Nd96 2.424 . S
O127 C115 1.268 . S
H128 C100 0.930 . S
H129 C101 0.929 . S
H130 C103 0.930 . S
H131 C104 0.929 . S
H132 C109 0.930 . S
H133 C110 0.929 . S
H134 C112 0.930 . S
H135 C113 0.929 . S
Nd136 C138 2.836 1_545 S
Nd136 O156 2.500 1_545 S
Nd136 O157 2.492 . S
Nd136 O158 2.487 . S
Nd136 O159 2.682 . S
Nd136 O160 2.410 . S
Nd136 O165 2.414 1_545 S
Nd136 O167 2.424 . S
Nd137 C147 2.836 . S
Nd137 O159 2.414 1_554 S
Nd137 O161 2.424 1_554 S
Nd137 O162 2.500 . S
Nd137 O163 2.492 . S
Nd137 O164 2.487 1_545 S
Nd137 O165 2.682 1_544 S
Nd137 O166 2.410 1_554 S
C138 Nd136 2.836 1_565 S
C138 C139 1.498 . S
C138 O156 1.258 . S
C138 O157 1.239 1_565 S
C139 C138 1.498 . S
C139 C140 1.366 . S
C139 C144 1.407 . S
C140 C139 1.366 . S
C140 C141 1.392 . S
C140 H168 0.930 . S
C141 C140 1.392 . S
C141 C142 1.398 . S
C141 H169 0.929 . S
C142 C141 1.398 . S
C142 C143 1.352 . S
C143 C142 1.352 . S
C143 C144 1.384 . S
C143 H170 0.930 . S
C144 C139 1.407 . S
C144 C143 1.384 . S
C144 H171 0.929 1_565 S
C145 O158 1.241 . S
C145 O159 1.273 . S
C146 O160 1.251 . S
C146 O161 1.268 . S
C147 Nd137 2.836 . S
C147 C148 1.498 . S
C147 O162 1.258 . S
C147 O163 1.239 . S
C148 C147 1.498 . S
C148 C149 1.366 . S
C148 C153 1.407 . S
C149 C148 1.366 . S
C149 C150 1.392 . S
C149 H172 0.930 . S
C150 C149 1.392 . S
C150 C151 1.398 . S
C150 H173 0.929 . S
C151 C150 1.398 . S
C151 C152 1.352 . S
C152 C151 1.352 . S
C152 C153 1.384 . S
C152 H174 0.930 . S
C153 C148 1.407 . S
C153 C152 1.384 . S
C153 H175 0.929 . S
C154 O164 1.241 . S
C154 O165 1.273 1_554 S
C155 O166 1.251 . S
C155 O167 1.268 . S
O156 Nd136 2.500 1_565 S
O156 C138 1.258 . S
O157 Nd136 2.492 . S
O157 C138 1.239 1_545 S
O158 Nd136 2.487 . S
O158 C145 1.241 . S
O159 Nd136 2.682 . S
O159 Nd137 2.414 1_556 S
O159 C145 1.273 . S
O160 Nd136 2.410 . S
O160 C146 1.251 . S
O161 Nd137 2.424 1_556 S
O161 C146 1.268 . S
O162 Nd137 2.500 . S
O162 C147 1.258 . S
O163 Nd137 2.492 . S
O163 C147 1.239 . S
O164 Nd137 2.487 1_565 S
O164 C154 1.241 . S
O165 Nd136 2.414 1_565 S
O165 Nd137 2.682 1_566 S
O165 C154 1.273 1_556 S
O166 Nd137 2.410 1_556 S
O166 C155 1.251 . S
O167 Nd136 2.424 . S
O167 C155 1.268 . S
H168 C140 0.930 . S
H169 C141 0.929 . S
H170 C143 0.930 . S
H171 C144 0.929 1_545 S
H172 C149 0.930 . S
H173 C150 0.929 . S
H174 C152 0.930 . S
H175 C153 0.929 . S
Nd176 C178 2.836 . S
Nd176 O196 2.500 . S
Nd176 O197 2.492 . S
Nd176 O198 2.487 1_554 S
Nd176 O199 2.682 1_554 S
Nd176 O200 2.410 1_554 S
Nd176 O205 2.414 1_554 S
Nd176 O207 2.424 . S
Nd177 C187 2.836 . S
Nd177 O199 2.414 . S
Nd177 O201 2.424 . S
Nd177 O202 2.500 . S
Nd177 O203 2.492 . S
Nd177 O204 2.487 . S
Nd177 O205 2.682 . S
Nd177 O206 2.410 . S
C178 Nd176 2.836 . S
C178 C179 1.498 . S
C178 O196 1.258 . S
C178 O197 1.239 . S
C179 C178 1.498 . S
C179 C180 1.366 . S
C179 C184 1.407 . S
C180 C179 1.366 . S
C180 C181 1.392 . S
C180 H208 0.930 . S
C181 C180 1.392 . S
C181 C182 1.398 . S
C181 H209 0.929 . S
C182 C181 1.398 . S
C182 C183 1.352 . S
C183 C182 1.352 . S
C183 C184 1.384 . S
C183 H210 0.930 . S
C184 C179 1.407 . S
C184 C183 1.384 . S
C184 H211 0.929 . S
C185 O198 1.241 . S
C185 O199 1.273 . S
C186 O200 1.251 . S
C186 O201 1.268 . S
C187 Nd177 2.836 . S
C187 C188 1.498 . S
C187 O202 1.258 . S
C187 O203 1.239 . S
C188 C187 1.498 . S
C188 C189 1.366 . S
C188 C193 1.407 . S
C189 C188 1.366 . S
C189 C190 1.392 . S
C189 H212 0.930 . S
C190 C189 1.392 . S
C190 C191 1.398 . S
C190 H213 0.929 . S
C191 C190 1.398 . S
C191 C192 1.352 . S
C192 C191 1.352 . S
C192 C193 1.384 . S
C192 H214 0.930 . S
C193 C188 1.407 . S
C193 C192 1.384 . S
C193 H215 0.929 . S
C194 O204 1.241 . S
C194 O205 1.273 . S
C195 O206 1.251 . S
C195 O207 1.268 1_556 S
O196 Nd176 2.500 . S
O196 C178 1.258 . S
O197 Nd176 2.492 . S
O197 C178 1.239 . S
O198 Nd176 2.487 1_556 S
O198 C185 1.241 . S
O199 Nd176 2.682 1_556 S
O199 Nd177 2.414 . S
O199 C185 1.273 . S
O200 Nd176 2.410 1_556 S
O200 C186 1.251 . S
O201 Nd177 2.424 . S
O201 C186 1.268 . S
O202 Nd177 2.500 . S
O202 C187 1.258 . S
O203 Nd177 2.492 . S
O203 C187 1.239 . S
O204 Nd177 2.487 . S
O204 C194 1.241 . S
O205 Nd176 2.414 1_556 S
O205 Nd177 2.682 . S
O205 C194 1.273 . S
O206 Nd177 2.410 . S
O206 C195 1.251 . S
O207 Nd176 2.424 . S
O207 C195 1.268 1_554 S
H208 C180 0.930 . S
H209 C181 0.929 . S
H210 C183 0.930 . S
H211 C184 0.929 . S
H212 C189 0.930 . S
H213 C190 0.929 . S
H214 C192 0.930 . S
H215 C193 0.929 . S
Nd216 C218 2.836 1_455 S
Nd216 O236 2.500 1_455 S
Nd216 O237 2.492 1_455 S
Nd216 O238 2.487 . S
Nd216 O239 2.682 . S
Nd216 O240 2.410 1_455 S
Nd216 O245 2.414 . S
Nd216 O247 2.424 . S
Nd217 C227 2.836 . S
Nd217 O239 2.414 1_554 S
Nd217 O241 2.424 1_454 S
Nd217 O242 2.500 . S
Nd217 O243 2.492 . S
Nd217 O244 2.487 . S
Nd217 O245 2.682 1_554 S
Nd217 O246 2.410 1_554 S
C218 Nd216 2.836 1_655 S
C218 C219 1.498 . S
C218 O236 1.258 . S
C218 O237 1.239 . S
C219 C218 1.498 . S
C219 C220 1.366 . S
C219 C224 1.407 . S
C220 C219 1.366 . S
C220 C221 1.392 . S
C220 H248 0.930 . S
C221 C220 1.392 . S
C221 C222 1.398 . S
C221 H249 0.929 . S
C222 C221 1.398 . S
C222 C223 1.352 . S
C223 C222 1.352 . S
C223 C224 1.384 . S
C223 H250 0.930 . S
C224 C219 1.407 . S
C224 C223 1.384 . S
C224 H251 0.929 . S
C225 O238 1.241 . S
C225 O239 1.273 . S
C226 O240 1.251 . S
C226 O241 1.268 . S
C227 Nd217 2.836 . S
C227 C228 1.498 . S
C227 O242 1.258 . S
C227 O243 1.239 . S
C228 C227 1.498 . S
C228 C229 1.366 . S
C228 C233 1.407 . S
C229 C228 1.366 . S
C229 C230 1.392 . S
C229 H252 0.930 . S
C230 C229 1.392 . S
C230 C231 1.398 . S
C230 H253 0.929 . S
C231 C230 1.398 . S
C231 C232 1.352 . S
C232 C231 1.352 . S
C232 C233 1.384 . S
C232 H254 0.930 . S
C233 C228 1.407 . S
C233 C232 1.384 . S
C233 H255 0.929 . S
C234 O244 1.241 1_556 S
C234 O245 1.273 . S
C235 O246 1.251 . S
C235 O247 1.268 . S
O236 Nd216 2.500 1_655 S
O236 C218 1.258 . S
O237 Nd216 2.492 1_655 S
O237 C218 1.239 . S
O238 Nd216 2.487 . S
O238 C225 1.241 . S
O239 Nd216 2.682 . S
O239 Nd217 2.414 1_556 S
O239 C225 1.273 . S
O240 Nd216 2.410 1_655 S
O240 C226 1.251 . S
O241 Nd217 2.424 1_656 S
O241 C226 1.268 . S
O242 Nd217 2.500 . S
O242 C227 1.258 . S
O243 Nd217 2.492 . S
O243 C227 1.239 . S
O244 Nd217 2.487 . S
O244 C234 1.241 1_554 S
O245 Nd216 2.414 . S
O245 Nd217 2.682 1_556 S
O245 C234 1.273 . S
O246 Nd217 2.410 1_556 S
O246 C235 1.251 . S
O247 Nd216 2.424 . S
O247 C235 1.268 . S
H248 C220 0.930 . S
H249 C221 0.929 . S
H250 C223 0.930 . S
H251 C224 0.929 . S
H252 C229 0.930 . S
H253 C230 0.929 . S
H254 C232 0.930 . S
H255 C233 0.929 . S
H256 C264 0.950 . S
H257 C269 0.950 . S
H258 C266 0.950 . S
H259 C268 0.950 . S
H260 C270 0.950 . S
H261 C272 0.950 . S
H262 C274 0.950 . S
H263 C275 0.950 . S
C264 H256 0.950 . S
C264 C265 1.386 . S
C264 C266 1.391 . S
C265 C264 1.386 . S
C265 C269 1.393 . S
C266 H258 0.950 . S
C266 C264 1.391 . S
C266 C267 1.400 . S
C267 C266 1.400 . S
C267 C268 1.398 . S
C267 C273 1.491 . S
C268 H259 0.950 . S
C268 C267 1.398 . S
C268 C269 1.391 . S
C269 H257 0.950 . S
C269 C265 1.393 . S
C269 C268 1.391 . S
C270 H260 0.950 . S
C270 C271 1.386 . S
C270 C272 1.391 . S
C271 C270 1.386 . S
C271 C275 1.393 . S
C272 H261 0.950 . S
C272 C270 1.391 . S
C272 C273 1.400 . S
C273 C267 1.491 . S
C273 C272 1.400 . S
C273 C274 1.398 . S
C274 H262 0.950 . S
C274 C273 1.398 . S
C274 C275 1.391 . S
C275 H263 0.950 . S
C275 C271 1.393 . S
C275 C274 1.391 . S
H276 C284 0.950 . S
H277 C289 0.950 . S
H278 C286 0.950 . S
H279 C288 0.950 . S
H280 C290 0.950 . S
H281 C292 0.950 . S
H282 C294 0.950 . S
H283 C295 0.950 . S
C284 H276 0.950 . S
C284 C285 1.386 . S
C284 C286 1.391 . S
C285 C284 1.386 . S
C285 C289 1.393 . S
C286 H278 0.950 . S
C286 C284 1.391 . S
C286 C287 1.400 . S
C287 C286 1.400 . S
C287 C288 1.398 . S
C287 C293 1.491 . S
C288 H279 0.950 . S
C288 C287 1.398 . S
C288 C289 1.391 . S
C289 H277 0.950 . S
C289 C285 1.393 . S
C289 C288 1.391 . S
C290 H280 0.950 . S
C290 C291 1.386 . S
C290 C292 1.391 . S
C291 C290 1.386 . S
C291 C295 1.393 . S
C292 H281 0.950 . S
C292 C290 1.391 . S
C292 C293 1.400 . S
C293 C287 1.491 . S
C293 C292 1.400 . S
C293 C294 1.398 . S
C294 H282 0.950 . S
C294 C293 1.398 . S
C294 C295 1.391 . S
C295 H283 0.950 . S
C295 C291 1.393 . S
C295 C294 1.391 . S
H296 C304 0.950 . S
H297 C309 0.950 . S
H298 C306 0.950 . S
H299 C308 0.950 . S
H300 C310 0.950 . S
H301 C312 0.950 . S
H302 C314 0.950 . S
H303 C315 0.950 . S
C304 H296 0.950 . S
C304 C305 1.386 . S
C304 C306 1.391 . S
C305 C304 1.386 . S
C305 C309 1.393 . S
C306 H298 0.950 . S
C306 C304 1.391 . S
C306 C307 1.400 . S
C307 C306 1.400 . S
C307 C308 1.398 . S
C307 C313 1.491 . S
C308 H299 0.950 . S
C308 C307 1.398 . S
C308 C309 1.391 . S
C309 H297 0.950 . S
C309 C305 1.393 . S
C309 C308 1.391 . S
C310 H300 0.950 . S
C310 C311 1.386 . S
C310 C312 1.391 . S
C311 C310 1.386 . S
C311 C315 1.393 . S
C312 H301 0.950 . S
C312 C310 1.391 . S
C312 C313 1.400 . S
C313 C307 1.491 . S
C313 C312 1.400 . S
C313 C314 1.398 . S
C314 H302 0.950 . S
C314 C313 1.398 . S
C314 C315 1.391 . S
C315 H303 0.950 . S
C315 C311 1.393 . S
C315 C314 1.391 . S
H316 C324 0.950 . S
H317 C329 0.950 . S
H318 C326 0.950 . S
H319 C328 0.950 . S
H320 C330 0.950 1_655 S
H321 C332 0.950 . S
H322 C334 0.950 . S
H323 C335 0.950 . S
C324 H316 0.950 . S
C324 C325 1.386 . S
C324 C326 1.391 . S
C325 C324 1.386 . S
C325 C329 1.393 . S
C326 H318 0.950 . S
C326 C324 1.391 . S
C326 C327 1.400 . S
C327 C326 1.400 . S
C327 C328 1.398 . S
C327 C333 1.491 . S
C328 H319 0.950 . S
C328 C327 1.398 . S
C328 C329 1.391 . S
C329 H317 0.950 . S
C329 C325 1.393 . S
C329 C328 1.391 . S
C330 H320 0.950 1_455 S
C330 C331 1.386 . S
C330 C332 1.391 . S
C331 C330 1.386 . S
C331 C335 1.393 . S
C332 H321 0.950 . S
C332 C330 1.391 . S
C332 C333 1.400 . S
C333 C327 1.491 . S
C333 C332 1.400 . S
C333 C334 1.398 . S
C334 H322 0.950 . S
C334 C333 1.398 . S
C334 C335 1.391 . S
C335 H323 0.950 . S
C335 C331 1.393 . S
C335 C334 1.391 . S
H336 C344 0.950 . S
H337 C349 0.950 . S
H338 C346 0.950 . S
H339 C348 0.950 . S
H340 C350 0.950 . S
H341 C352 0.950 . S
H342 C354 0.950 . S
H343 C355 0.950 . S
C344 H336 0.950 . S
C344 C345 1.386 . S
C344 C346 1.391 . S
C345 C344 1.386 . S
C345 C349 1.393 1_554 S
C346 H338 0.950 . S
C346 C344 1.391 . S
C346 C347 1.400 1_554 S
C347 C346 1.400 1_556 S
C347 C348 1.398 . S
C347 C353 1.491 . S
C348 H339 0.950 . S
C348 C347 1.398 . S
C348 C349 1.391 . S
C349 H337 0.950 . S
C349 C345 1.393 1_556 S
C349 C348 1.391 . S
C350 H340 0.950 . S
C350 C351 1.386 . S
C350 C352 1.391 1_545 S
C351 C350 1.386 . S
C351 C355 1.393 1_546 S
C352 H341 0.950 . S
C352 C350 1.391 1_565 S
C352 C353 1.400 . S
C353 C347 1.491 . S
C353 C352 1.400 . S
C353 C354 1.398 1_556 S
C354 H342 0.950 . S
C354 C353 1.398 1_554 S
C354 C355 1.391 . S
C355 H343 0.950 . S
C355 C351 1.393 1_564 S
C355 C354 1.391 . S
H356 C364 0.950 . S
H357 C369 0.950 . S
H358 C366 0.950 . S
H359 C368 0.950 . S
H360 C370 0.950 . S
H361 C372 0.950 . S
H362 C374 0.950 . S
H363 C375 0.950 1_556 S
C364 H356 0.950 . S
C364 C365 1.386 . S
C364 C366 1.391 . S
C365 C364 1.386 . S
C365 C369 1.393 . S
C366 H358 0.950 . S
C366 C364 1.391 . S
C366 C367 1.400 . S
C367 C366 1.400 . S
C367 C368 1.398 . S
C367 C373 1.491 . S
C368 H359 0.950 . S
C368 C367 1.398 . S
C368 C369 1.391 . S
C369 H357 0.950 . S
C369 C365 1.393 . S
C369 C368 1.391 . S
C370 H360 0.950 . S
C370 C371 1.386 . S
C370 C372 1.391 . S
C371 C370 1.386 . S
C371 C375 1.393 . S
C372 H361 0.950 . S
C372 C370 1.391 . S
C372 C373 1.400 . S
C373 C367 1.491 . S
C373 C372 1.400 . S
C373 C374 1.398 . S
C374 H362 0.950 . S
C374 C373 1.398 . S
C374 C375 1.391 . S
C375 H363 0.950 1_554 S
C375 C371 1.393 . S
C375 C374 1.391 . S
H376 C384 0.950 . S
H377 C389 0.950 . S
H378 C386 0.950 . S
H379 C388 0.950 . S
H380 C390 0.950 1_554 S
H381 C392 0.950 1_554 S
H382 C394 0.950 . S
H383 C395 0.950 . S
C384 H376 0.950 . S
C384 C385 1.386 . S
C384 C386 1.391 . S
C385 C384 1.386 . S
C385 C389 1.393 1_556 S
C386 H378 0.950 . S
C386 C384 1.391 . S
C386 C387 1.400 . S
C387 C386 1.400 . S
C387 C388 1.398 1_556 S
C387 C393 1.491 . S
C388 H379 0.950 . S
C388 C387 1.398 1_554 S
C388 C389 1.391 . S
C389 H377 0.950 . S
C389 C385 1.393 1_554 S
C389 C388 1.391 . S
C390 H380 0.950 1_556 S
C390 C391 1.386 . S
C390 C392 1.391 . S
C391 C390 1.386 . S
C391 C395 1.393 . S
C392 H381 0.950 1_556 S
C392 C390 1.391 . S
C392 C393 1.400 . S
C393 C387 1.491 . S
C393 C392 1.400 . S
C393 C394 1.398 . S
C394 H382 0.950 . S
C394 C393 1.398 . S
C394 C395 1.391 . S
C395 H383 0.950 . S
C395 C391 1.393 . S
C395 C394 1.391 . S
H396 C404 0.950 . S
H397 C409 0.950 1_556 S
H398 C406 0.950 . S
H399 C408 0.950 . S
H400 C410 0.950 1_655 S
H401 C412 0.977 . S
H402 C414 0.950 . S
H403 C415 0.950 1_554 S
C404 H396 0.950 . S
C404 C405 1.371 1_455 S
C404 C406 1.391 . S
C405 C404 1.371 1_655 S
C405 C409 1.402 . S
C406 H398 0.950 . S
C406 C404 1.391 . S
C406 C407 1.400 . S
C407 C406 1.400 . S
C407 C408 1.398 1_454 S
C407 C413 1.491 1_554 S
C408 H399 0.950 . S
C408 C407 1.398 1_656 S
C408 C409 1.391 1_556 S
C409 H397 0.950 1_554 S
C409 C405 1.402 . S
C409 C408 1.391 1_554 S
C410 H400 0.950 1_455 S
C410 C411 1.386 . S
C410 C412 1.381 1_455 S
C411 C410 1.386 . S
C411 C415 1.393 . S
C412 H401 0.977 . S
C412 C410 1.381 1_655 S
C412 C413 1.384 1_655 S
C413 C407 1.491 1_556 S
C413 C412 1.384 1_455 S
C413 C414 1.398 1_556 S
C414 H402 0.950 . S
C414 C413 1.398 1_554 S
C414 C415 1.391 1_554 S
C415 H403 0.950 1_556 S
C415 C411 1.393 . S
C415 C414 1.391 1_556 S
H416 C424 0.950 . S
H417 C429 0.950 . S
H418 C426 0.950 . S
H419 C428 0.950 . S
H420 C430 0.950 1_655 S
H421 C432 0.950 . S
H422 C434 0.950 . S
H423 C435 0.950 . S
C424 H416 0.950 . S
C424 C425 1.386 . S
C424 C426 1.391 . S
C425 C424 1.386 . S
C425 C429 1.393 . S
C426 H418 0.950 . S
C426 C424 1.391 . S
C426 C427 1.400 . S
C427 C426 1.400 . S
C427 C428 1.398 . S
C427 C433 1.491 . S
C428 H419 0.950 . S
C428 C427 1.398 . S
C428 C429 1.391 . S
C429 H417 0.950 . S
C429 C425 1.393 . S
C429 C428 1.391 . S
C430 H420 0.950 1_455 S
C430 C431 1.386 . S
C430 C432 1.391 . S
C431 C430 1.386 . S
C431 C435 1.393 . S
C432 H421 0.950 . S
C432 C430 1.391 . S
C432 C433 1.400 . S
C433 C427 1.491 . S
C433 C432 1.400 . S
C433 C434 1.398 . S
C434 H422 0.950 . S
C434 C433 1.398 . S
C434 C435 1.391 . S
C435 H423 0.950 . S
C435 C431 1.393 . S
C435 C434 1.391 . S
H436 C444 0.950 . S
H437 C449 0.950 . S
H438 C446 0.950 . S
H439 C448 0.950 . S
H440 C450 0.950 . S
H441 C452 0.950 . S
H442 C454 0.950 . S
H443 C455 0.950 . S
C444 H436 0.950 . S
C444 C445 1.386 . S
C444 C446 1.391 . S
C445 C444 1.386 . S
C445 C449 1.393 . S
C446 H438 0.950 . S
C446 C444 1.391 . S
C446 C447 1.400 . S
C447 C446 1.400 . S
C447 C448 1.398 . S
C447 C453 1.491 . S
C448 H439 0.950 . S
C448 C447 1.398 . S
C448 C449 1.391 . S
C449 H437 0.950 . S
C449 C445 1.393 . S
C449 C448 1.391 . S
C450 H440 0.950 . S
C450 C451 1.386 . S
C450 C452 1.391 . S
C451 C450 1.386 . S
C451 C455 1.393 . S
C452 H441 0.950 . S
C452 C450 1.391 . S
C452 C453 1.400 . S
C453 C447 1.491 . S
C453 C452 1.400 . S
C453 C454 1.398 . S
C454 H442 0.950 . S
C454 C453 1.398 . S
C454 C455 1.391 . S
C455 H443 0.950 . S
C455 C451 1.393 . S
C455 C454 1.391 . S
H456 C464 0.950 . S
H457 C469 0.950 . S
H458 C466 0.950 . S
H459 C468 0.950 . S
H460 C470 0.950 . S
H461 C472 0.950 . S
H462 C474 0.950 . S
H463 C475 0.950 . S
C464 H456 0.950 . S
C464 C465 1.386 . S
C464 C466 1.391 . S
C465 C464 1.386 . S
C465 C469 1.393 . S
C466 H458 0.950 . S
C466 C464 1.391 . S
C466 C467 1.400 . S
C467 C466 1.400 . S
C467 C468 1.398 . S
C467 C473 1.491 . S
C468 H459 0.950 . S
C468 C467 1.398 . S
C468 C469 1.391 . S
C469 H457 0.950 . S
C469 C465 1.393 . S
C469 C468 1.391 . S
C470 H460 0.950 . S
C470 C471 1.386 . S
C470 C472 1.391 . S
C471 C470 1.386 . S
C471 C475 1.393 . S
C472 H461 0.950 . S
C472 C470 1.391 . S
C472 C473 1.400 . S
C473 C467 1.491 . S
C473 C472 1.400 . S
C473 C474 1.398 . S
C474 H462 0.950 . S
C474 C473 1.398 . S
C474 C475 1.391 . S
C475 H463 0.950 . S
C475 C471 1.393 . S
C475 C474 1.391 . S
H476 C484 0.950 . S
H477 C489 0.950 . S
H478 C486 0.950 . S
H479 C488 0.950 . S
H480 C490 0.950 . S
H481 C492 0.950 . S
H482 C494 0.950 . S
H483 C495 0.950 . S
C484 H476 0.950 . S
C484 C485 1.386 . S
C484 C486 1.391 . S
C485 C484 1.386 . S
C485 C489 1.393 . S
C486 H478 0.950 . S
C486 C484 1.391 . S
C486 C487 1.400 . S
C487 C486 1.400 . S
C487 C488 1.398 . S
C487 C493 1.491 . S
C488 H479 0.950 . S
C488 C487 1.398 . S
C488 C489 1.391 . S
C489 H477 0.950 . S
C489 C485 1.393 . S
C489 C488 1.391 . S
C490 H480 0.950 . S
C490 C491 1.386 . S
C490 C492 1.391 . S
C491 C490 1.386 . S
C491 C495 1.393 . S
C492 H481 0.950 . S
C492 C490 1.391 . S
C492 C493 1.400 . S
C493 C487 1.491 . S
C493 C492 1.400 . S
C493 C494 1.398 . S
C494 H482 0.950 . S
C494 C493 1.398 . S
C494 C495 1.391 . S
C495 H483 0.950 . S
C495 C491 1.393 . S
C495 C494 1.391 . S
H496 C504 0.950 . S
H497 C509 0.950 . S
H498 C506 0.950 . S
H499 C508 0.950 . S
H500 C510 0.950 . S
H501 C512 0.950 . S
H502 C514 0.950 . S
H503 C515 0.950 1_655 S
C504 H496 0.950 . S
C504 C505 1.386 . S
C504 C506 1.391 . S
C505 C504 1.386 . S
C505 C509 1.393 1_654 S
C506 H498 0.950 . S
C506 C504 1.391 . S
C506 C507 1.400 1_655 S
C507 C506 1.400 1_455 S
C507 C508 1.398 1_554 S
C507 C513 1.491 1_554 S
C508 H499 0.950 . S
C508 C507 1.398 1_556 S
C508 C509 1.391 . S
C509 H497 0.950 . S
C509 C505 1.393 1_456 S
C509 C508 1.391 . S
C510 H500 0.950 . S
C510 C511 1.386 . S
C510 C512 1.391 . S
C511 C510 1.386 . S
C511 C515 1.393 1_556 S
C512 H501 0.950 . S
C512 C510 1.391 . S
C512 C513 1.400 . S
C513 C507 1.491 1_556 S
C513 C512 1.400 . S
C513 C514 1.398 1_456 S
C514 H502 0.950 . S
C514 C513 1.398 1_654 S
C514 C515 1.391 1_655 S
C515 H503 0.950 1_455 S
C515 C511 1.393 1_554 S
C515 C514 1.391 1_455 S
H516 C524 0.950 . S
H517 C529 0.950 . S
H518 C526 0.950 . S
H519 C528 0.950 . S
H520 C530 0.950 . S
H521 C532 0.950 . S
H522 C534 0.950 . S
H523 C535 0.950 . S
C524 H516 0.950 . S
C524 C525 1.386 . S
C524 C526 1.391 . S
C525 C524 1.386 . S
C525 C529 1.393 1_554 S
C526 H518 0.950 . S
C526 C524 1.391 . S
C526 C527 1.400 1_554 S
C527 C526 1.400 1_556 S
C527 C528 1.398 . S
C527 C533 1.491 . S
C528 H519 0.950 . S
C528 C527 1.398 . S
C528 C529 1.391 . S
C529 H517 0.950 . S
C529 C525 1.393 1_556 S
C529 C528 1.391 . S
C530 H520 0.950 . S
C530 C531 1.386 . S
C530 C532 1.391 1_545 S
C531 C530 1.386 . S
C531 C535 1.393 1_556 S
C532 H521 0.950 . S
C532 C530 1.391 1_565 S
C532 C533 1.400 . S
C533 C527 1.491 . S
C533 C532 1.400 . S
C533 C534 1.398 1_556 S
C534 H522 0.950 . S
C534 C533 1.398 1_554 S
C534 C535 1.391 1_565 S
C535 H523 0.950 . S
C535 C531 1.393 1_554 S
C535 C534 1.391 1_545 S
H536 C544 0.950 . S
H537 C549 0.950 . S
H538 C546 0.950 . S
H539 C548 0.950 . S
H540 C550 0.950 . S
H541 C552 0.950 . S
H542 C554 0.950 . S
H543 C555 0.950 . S
C544 H536 0.950 . S
C544 C545 1.386 . S
C544 C546 1.391 . S
C545 C544 1.386 . S
C545 C549 1.393 . S
C546 H538 0.950 . S
C546 C544 1.391 . S
C546 C547 1.400 . S
C547 C546 1.400 . S
C547 C548 1.398 . S
C547 C553 1.491 . S
C548 H539 0.950 . S
C548 C547 1.398 . S
C548 C549 1.391 . S
C549 H537 0.950 . S
C549 C545 1.393 . S
C549 C548 1.391 . S
C550 H540 0.950 . S
C550 C551 1.386 . S
C550 C552 1.391 . S
C551 C550 1.386 . S
C551 C555 1.393 . S
C552 H541 0.950 . S
C552 C550 1.391 . S
C552 C553 1.400 . S
C553 C547 1.491 . S
C553 C552 1.400 . S
C553 C554 1.398 . S
C554 H542 0.950 . S
C554 C553 1.398 . S
C554 C555 1.391 . S
C555 H543 0.950 . S
C555 C551 1.393 . S
C555 C554 1.391 . S
H556 C564 0.950 . S
H557 C569 0.950 . S
H558 C566 0.950 . S
H559 C568 0.950 . S
H560 C570 0.950 . S
H561 C572 0.950 . S
H562 C574 0.950 . S
H563 C575 0.950 . S
C564 H556 0.950 . S
C564 C565 1.386 . S
C564 C566 1.391 . S
C565 C564 1.386 . S
C565 C569 1.393 . S
C566 H558 0.950 . S
C566 C564 1.391 . S
C566 C567 1.400 . S
C567 C566 1.400 . S
C567 C568 1.398 . S
C567 C573 1.491 . S
C568 H559 0.950 . S
C568 C567 1.398 . S
C568 C569 1.391 . S
C569 H557 0.950 . S
C569 C565 1.393 . S
C569 C568 1.391 . S
C570 H560 0.950 . S
C570 C571 1.386 . S
C570 C572 1.391 . S
C571 C570 1.386 . S
C571 C575 1.393 . S
C572 H561 0.950 . S
C572 C570 1.391 . S
C572 C573 1.400 . S
C573 C567 1.491 . S
C573 C572 1.400 . S
C573 C574 1.398 . S
C574 H562 0.950 . S
C574 C573 1.398 . S
C574 C575 1.391 . S
C575 H563 0.950 . S
C575 C571 1.393 . S
C575 C574 1.391 . S
H576 C584 0.950 . S
H577 C589 0.950 . S
H578 C586 0.950 . S
H579 C588 0.950 . S
H580 C590 0.950 . S
H581 C592 0.950 . S
H582 C594 0.950 . S
H583 C595 0.950 . S
C584 H576 0.950 . S
C584 C585 1.386 . S
C584 C586 1.391 . S
C585 C584 1.386 . S
C585 C589 1.393 . S
C586 H578 0.950 . S
C586 C584 1.391 . S
C586 C587 1.400 . S
C587 C586 1.400 . S
C587 C588 1.398 . S
C587 C593 1.491 . S
C588 H579 0.950 . S
C588 C587 1.398 . S
C588 C589 1.391 . S
C589 H577 0.950 . S
C589 C585 1.393 . S
C589 C588 1.391 . S
C590 H580 0.950 . S
C590 C591 1.386 . S
C590 C592 1.391 . S
C591 C590 1.386 . S
C591 C595 1.393 . S
C592 H581 0.950 . S
C592 C590 1.391 . S
C592 C593 1.400 . S
C593 C587 1.491 . S
C593 C592 1.400 . S
C593 C594 1.398 . S
C594 H582 0.950 . S
C594 C593 1.398 . S
C594 C595 1.391 . S
C595 H583 0.950 . S
C595 C591 1.393 . S
C595 C594 1.391 . S
H596 C604 0.950 . S
H597 C609 0.950 . S
H598 C606 0.950 . S
H599 C608 0.950 . S
H600 C610 0.950 . S
H601 C612 0.950 . S
H602 C614 0.950 . S
H603 C615 0.950 . S
C604 H596 0.950 . S
C604 C605 1.386 . S
C604 C606 1.391 . S
C605 C604 1.386 . S
C605 C609 1.393 . S
C606 H598 0.950 . S
C606 C604 1.391 . S
C606 C607 1.400 . S
C607 C606 1.400 . S
C607 C608 1.398 . S
C607 C613 1.491 . S
C608 H599 0.950 . S
C608 C607 1.398 . S
C608 C609 1.391 . S
C609 H597 0.950 . S
C609 C605 1.393 . S
C609 C608 1.391 . S
C610 H600 0.950 . S
C610 C611 1.386 . S
C610 C612 1.391 . S
C611 C610 1.386 . S
C611 C615 1.393 . S
C612 H601 0.950 . S
C612 C610 1.391 . S
C612 C613 1.400 . S
C613 C607 1.491 . S
C613 C612 1.400 . S
C613 C614 1.398 . S
C614 H602 0.950 . S
C614 C613 1.398 . S
C614 C615 1.391 . S
C615 H603 0.950 . S
C615 C611 1.393 . S
C615 C614 1.391 . S
H616 C624 0.950 . S
H617 C629 0.950 . S
H618 C626 0.950 . S
H619 C628 0.950 . S
H620 C630 0.950 1_556 S
H621 C632 0.950 . S
H622 C634 0.950 . S
H623 C635 0.950 . S
C624 H616 0.950 . S
C624 C625 1.386 . S
C624 C626 1.391 . S
C625 C624 1.386 . S
C625 C629 1.393 . S
C626 H618 0.950 . S
C626 C624 1.391 . S
C626 C627 1.400 . S
C627 C626 1.400 . S
C627 C628 1.398 . S
C627 C633 1.491 . S
C628 H619 0.950 . S
C628 C627 1.398 . S
C628 C629 1.391 . S
C629 H617 0.950 . S
C629 C625 1.393 . S
C629 C628 1.391 . S
C630 H620 0.950 1_554 S
C630 C631 1.386 . S
C630 C632 1.391 . S
C631 C630 1.386 . S
C631 C635 1.393 . S
C632 H621 0.950 . S
C632 C630 1.391 . S
C632 C633 1.400 . S
C633 C627 1.491 . S
C633 C632 1.400 . S
C633 C634 1.398 . S
C634 H622 0.950 . S
C634 C633 1.398 . S
C634 C635 1.391 . S
C635 H623 0.950 . S
C635 C631 1.393 . S
C635 C634 1.391 . S
H636 C644 0.950 . S
H637 C649 0.950 . S
H638 C646 0.950 . S
H639 C648 0.950 . S
H640 C650 0.950 . S
H641 C652 0.950 . S
H642 C654 0.950 . S
H643 C655 0.950 . S
C644 H636 0.950 . S
C644 C645 1.386 . S
C644 C646 1.391 . S
C645 C644 1.386 . S
C645 C649 1.393 . S
C646 H638 0.950 . S
C646 C644 1.391 . S
C646 C647 1.400 . S
C647 C646 1.400 . S
C647 C648 1.398 . S
C647 C653 1.491 . S
C648 H639 0.950 . S
C648 C647 1.398 . S
C648 C649 1.391 . S
C649 H637 0.950 . S
C649 C645 1.393 . S
C649 C648 1.391 . S
C650 H640 0.950 . S
C650 C651 1.386 . S
C650 C652 1.391 . S
C651 C650 1.386 . S
C651 C655 1.393 . S
C652 H641 0.950 . S
C652 C650 1.391 . S
C652 C653 1.400 . S
C653 C647 1.491 . S
C653 C652 1.400 . S
C653 C654 1.398 . S
C654 H642 0.950 . S
C654 C653 1.398 . S
C654 C655 1.391 . S
C655 H643 0.950 . S
C655 C651 1.393 . S
C655 C654 1.391 . S
H656 C664 0.950 . S
H657 C669 0.950 . S
H658 C666 0.950 . S
H659 C668 0.950 . S
H660 C670 0.950 . S
H661 C672 0.950 . S
H662 C674 0.950 . S
H663 C675 0.950 . S
C664 H656 0.950 . S
C664 C665 1.386 1_455 S
C664 C666 1.391 . S
C665 C664 1.386 1_655 S
C665 C669 1.393 . S
C666 H658 0.950 . S
C666 C664 1.391 . S
C666 C667 1.388 1_455 S
C667 C666 1.388 1_655 S
C667 C668 1.409 . S
C667 C673 1.492 1_655 S
C668 H659 0.950 . S
C668 C667 1.409 . S
C668 C669 1.391 . S
C669 H657 0.950 . S
C669 C665 1.393 . S
C669 C668 1.391 . S
C670 H660 0.950 . S
C670 C671 1.386 1_655 S
C670 C672 1.391 . S
C671 C670 1.386 1_455 S
C671 C675 1.393 . S
C672 H661 0.950 . S
C672 C670 1.391 . S
C672 C673 1.395 1_655 S
C673 C667 1.492 1_455 S
C673 C672 1.395 1_455 S
C673 C674 1.403 . S
C674 H662 0.950 . S
C674 C673 1.403 . S
C674 C675 1.391 . S
C675 H663 0.950 . S
C675 C671 1.393 . S
C675 C674 1.391 . S
H676 C684 0.950 . S
H677 C689 0.950 . S
H678 C686 0.950 . S
H679 C688 0.950 . S
H680 C690 0.950 . S
H681 C692 0.950 . S
H682 C694 0.950 . S
H683 C695 0.950 . S
C684 H676 0.950 . S
C684 C685 1.386 . S
C684 C686 1.391 . S
C685 C684 1.386 . S
C685 C689 1.393 . S
C686 H678 0.950 . S
C686 C684 1.391 . S
C686 C687 1.400 . S
C687 C686 1.400 . S
C687 C688 1.398 . S
C687 C693 1.491 . S
C688 H679 0.950 . S
C688 C687 1.398 . S
C688 C689 1.391 . S
C689 H677 0.950 . S
C689 C685 1.393 . S
C689 C688 1.391 . S
C690 H680 0.950 . S
C690 C691 1.386 . S
C690 C692 1.391 . S
C691 C690 1.386 . S
C691 C695 1.393 . S
C692 H681 0.950 . S
C692 C690 1.391 . S
C692 C693 1.400 . S
C693 C687 1.491 . S
C693 C692 1.400 . S
C693 C694 1.398 . S
C694 H682 0.950 . S
C694 C693 1.398 . S
C694 C695 1.391 . S
C695 H683 0.950 . S
C695 C691 1.393 . S
C695 C694 1.391 . S
H696 C704 0.950 . S
H697 C709 0.950 . S
H698 C706 0.950 . S
H699 C708 0.950 . S
H700 C710 0.950 . S
H701 C712 0.950 . S
H702 C714 0.950 . S
H703 C715 0.950 . S
C704 H696 0.950 . S
C704 C705 1.386 . S
C704 C706 1.391 . S
C705 C704 1.386 . S
C705 C709 1.393 . S
C706 H698 0.950 . S
C706 C704 1.391 . S
C706 C707 1.400 . S
C707 C706 1.400 . S
C707 C708 1.398 . S
C707 C713 1.491 . S
C708 H699 0.950 . S
C708 C707 1.398 . S
C708 C709 1.391 . S
C709 H697 0.950 . S
C709 C705 1.393 . S
C709 C708 1.391 . S
C710 H700 0.950 . S
C710 C711 1.386 . S
C710 C712 1.391 . S
C711 C710 1.386 . S
C711 C715 1.393 . S
C712 H701 0.950 . S
C712 C710 1.391 . S
C712 C713 1.400 . S
C713 C707 1.491 . S
C713 C712 1.400 . S
C713 C714 1.398 . S
C714 H702 0.950 . S
C714 C713 1.398 . S
C714 C715 1.391 . S
C715 H703 0.950 . S
C715 C711 1.393 . S
C715 C714 1.391 . S
H716 C724 0.950 . S
H717 C729 0.950 . S
H718 C726 0.950 . S
H719 C728 0.950 . S
H720 C730 0.950 . S
H721 C732 0.950 . S
H722 C734 0.950 . S
H723 C735 0.950 . S
C724 H716 0.950 . S
C724 C725 1.386 . S
C724 C726 1.391 . S
C725 C724 1.386 . S
C725 C729 1.393 . S
C726 H718 0.950 . S
C726 C724 1.391 . S
C726 C727 1.400 . S
C727 C726 1.400 . S
C727 C728 1.398 . S
C727 C733 1.491 . S
C728 H719 0.950 . S
C728 C727 1.398 . S
C728 C729 1.391 . S
C729 H717 0.950 . S
C729 C725 1.393 . S
C729 C728 1.391 . S
C730 H720 0.950 . S
C730 C731 1.386 . S
C730 C732 1.391 . S
C731 C730 1.386 . S
C731 C735 1.393 . S
C732 H721 0.950 . S
C732 C730 1.391 . S
C732 C733 1.400 . S
C733 C727 1.491 . S
C733 C732 1.400 . S
C733 C734 1.398 . S
C734 H722 0.950 . S
C734 C733 1.398 . S
C734 C735 1.391 . S
C735 H723 0.950 . S
C735 C731 1.393 . S
C735 C734 1.391 . S
C265 C76 1.668 . S
C271 C105 1.667 . S
C291 C145 1.319 . S
C285 C88 1.336 . S
C311 C194 1.326 . S
C305 C52 1.356 . S
C331 C225 1.665 . S
C325 C64 1.726 . S
C351 C114 1.660 . S
C345 C28 1.700 . S
C365 C40 1.335 . S
C371 C154 1.317 . S
C385 C4 1.361 . S
C391 C185 1.309 . S
C405 C16 1.742 . S
C411 C234 1.666 . S
C431 C115 0.931 . S
C425 C69 0.915 . S
C451 C155 1.472 . S
C445 C81 1.338 . S
C471 C191 0.752 . S
C465 C93 0.762 . S
C485 C57 1.003 . S
C491 C235 1.124 . S
C505 C21 0.857 . S
C511 C106 0.933 . S
C531 C146 1.471 . S
C525 C33 1.309 . S
C551 C182 0.767 . S
C545 C45 0.753 . S
C565 C9 1.049 . S
C571 C226 1.125 . S
C585 C66 1.629 . S
C591 C111 1.661 . S
C605 C78 1.430 . S
C611 C151 1.415 . S
C631 C195 1.939 1_554 S
C625 C90 1.803 . S
C651 C231 1.430 . S
C645 C54 1.420 . S
C665 C18 1.618 . S
C671 C102 1.667 . S
C691 C142 1.414 . S
C685 C30 1.424 . S
C711 C186 1.942 . S
C705 C42 1.788 . S
C725 C6 1.434 . S
C731 C222 1.417 . S
