# Generated by pormake.
# Topology zzz, (3,6)-cn, num edge types: 1
# Building blocks:
#     Node 0, Type 0, BuildingBlock: QEWDON_clean_linker_0, # of connection points: 3
#     Node 1, Type 0, BuildingBlock: QEWDON_clean_linker_0, # of connection points: 3
#     Node 2, Type 0, BuildingBlock: QEWDON_clean_linker_0, # of connection points: 3
#     Node 3, Type 0, BuildingBlock: QEWDON_clean_linker_0, # of connection points: 3
#     Node 4, Type 0, BuildingBlock: QEWDON_clean_linker_0, # of connection points: 3
#     Node 5, Type 0, BuildingBlock: QEWDON_clean_linker_0, # of connection points: 3
#     Node 6, Type 0, BuildingBlock: QEWDON_clean_linker_0, # of connection points: 3
#     Node 7, Type 0, BuildingBlock: QEWDON_clean_linker_0, # of connection points: 3
#     Node 8, Type 1, BuildingBlock: KUMBUR_clean_sbu_0, # of connection points: 6
#     Node 9, Type 1, BuildingBlock: KUMBUR_clean_sbu_0, # of connection points: 6
#     Node 10, Type 1, BuildingBlock: KUMBUR_clean_sbu_0, # of connection points: 6
#     Node 11, Type 1, BuildingBlock: KUMBUR_clean_sbu_0, # of connection points: 6
#     Edge 12, Type (0, 1), BuildingBlock: TEMPAE_clean_linker_10, # of connection points: 2
#     Edge 13, Type (0, 1), BuildingBlock: TEMPAE_clean_linker_10, # of connection points: 2
#     Edge 14, Type (0, 1), BuildingBlock: TEMPAE_clean_linker_10, # of connection points: 2
#     Edge 15, Type (0, 1), BuildingBlock: TEMPAE_clean_linker_10, # of connection points: 2
#     Edge 16, Type (0, 1), BuildingBlock: TEMPAE_clean_linker_10, # of connection points: 2
#     Edge 17, Type (0, 1), BuildingBlock: TEMPAE_clean_linker_10, # of connection points: 2
#     Edge 18, Type (0, 1), BuildingBlock: TEMPAE_clean_linker_10, # of connection points: 2
#     Edge 19, Type (0, 1), BuildingBlock: TEMPAE_clean_linker_10, # of connection points: 2
#     Edge 20, Type (0, 1), BuildingBlock: TEMPAE_clean_linker_10, # of connection points: 2
#     Edge 21, Type (0, 1), BuildingBlock: TEMPAE_clean_linker_10, # of connection points: 2
#     Edge 22, Type (0, 1), BuildingBlock: TEMPAE_clean_linker_10, # of connection points: 2
#     Edge 23, Type (0, 1), BuildingBlock: TEMPAE_clean_linker_10, # of connection points: 2
#     Edge 24, Type (0, 1), BuildingBlock: TEMPAE_clean_linker_10, # of connection points: 2
#     Edge 25, Type (0, 1), BuildingBlock: TEMPAE_clean_linker_10, # of connection points: 2
#     Edge 26, Type (0, 1), BuildingBlock: TEMPAE_clean_linker_10, # of connection points: 2
#     Edge 27, Type (0, 1), BuildingBlock: TEMPAE_clean_linker_10, # of connection points: 2
#     Edge 28, Type (0, 1), BuildingBlock: TEMPAE_clean_linker_10, # of connection points: 2
#     Edge 29, Type (0, 1), BuildingBlock: TEMPAE_clean_linker_10, # of connection points: 2
#     Edge 30, Type (0, 1), BuildingBlock: TEMPAE_clean_linker_10, # of connection points: 2
#     Edge 31, Type (0, 1), BuildingBlock: TEMPAE_clean_linker_10, # of connection points: 2
#     Edge 32, Type (0, 1), BuildingBlock: TEMPAE_clean_linker_10, # of connection points: 2
#     Edge 33, Type (0, 1), BuildingBlock: TEMPAE_clean_linker_10, # of connection points: 2
#     Edge 34, Type (0, 1), BuildingBlock: TEMPAE_clean_linker_10, # of connection points: 2
#     Edge 35, Type (0, 1), BuildingBlock: TEMPAE_clean_linker_10, # of connection points: 2
# Relax obj value: 0.113
# Max RMSD: 0.150
# Mean RMSD: 0.075
data_MOF--net-zzz--node1-KUMBUR_clean_sbu_0--node2-QEWDON_clean_linker_0--edge1-TEMPAE_clean_linker_10
_symmetry_space_group_name_H-M    P1
_symmetry_Int_Tables_number       1
_symmetry_cell_setting            triclinic
loop_
_symmetry_equiv_pos_as_xyz
'x, y, z'
_cell_length_a     54.575108
_cell_length_b     54.639039
_cell_length_c     14.480448
_cell_angle_alpha  91.038099
_cell_angle_beta   89.957445
_cell_angle_gamma 89.981917
loop_
_atom_site_label
_atom_site_type_symbol
_atom_site_fract_x
_atom_site_fract_y
_atom_site_fract_z
_atom_type_partial_charge
H0 H 0.76198 0.56895 0.12571 0.0
C1 C 0.77363 0.56468 0.18354 0.0
C2 C 0.79821 0.57193 0.17946 0.0
C3 C 0.76433 0.55268 0.26186 0.0
H4 H 0.83256 0.57383 0.25166 0.0
C5 C 0.81371 0.56781 0.25457 0.0
C6 C 0.80622 0.55423 0.32988 0.0
C7 C 0.78144 0.54641 0.33329 0.0
C8 C 0.73689 0.54819 0.27065 0.0
H9 H 0.7757 0.53572 0.39156 0.0
C10 C 0.72046 0.54759 0.19317 0.0
C11 C 0.69459 0.54649 0.20566 0.0
C12 C 0.72646 0.54657 0.35939 0.0
H13 H 0.7376 0.54765 0.42099 0.0
C14 C 0.70121 0.54452 0.37143 0.0
H15 H 0.72744 0.54841 0.12343 0.0
C16 C 0.68546 0.54468 0.29593 0.0
H17 H 0.66593 0.54329 0.30836 0.0
H18 H 0.69374 0.54328 0.44038 0.0
H19 H 0.97924 0.76961 0.11162 0.0
C20 C 0.98459 0.78189 0.16737 0.0
C21 C 0.97624 0.80612 0.16468 0.0
C22 C 0.99975 0.77385 0.23984 0.0
H23 H 0.97541 0.84113 0.23385 0.0
C24 C 0.98219 0.82253 0.2364 0.0
C25 C 0.99914 0.81661 0.30464 0.0
C26 C 1.0077 0.79198 0.30718 0.0
C27 C 1.00651 0.74675 0.24516 0.0
H28 H 0.02097 0.78733 0.35945 0.0
C29 C 1.00553 0.72989 0.1674 0.0
C30 C 1.0091 0.7042 0.17842 0.0
C31 C 1.01223 0.73697 0.33186 0.0
H32 H 1.01268 0.7484 0.39356 0.0
C33 C 1.01655 0.71201 0.3421 0.0
H34 H 1.00164 0.73636 0.09887 0.0
C35 C 1.01481 0.69584 0.26692 0.0
H36 H 1.01802 0.67655 0.27816 0.0
H37 H 0.02084 0.70502 0.40969 0.0
H38 H 0.78184 0.97532 0.16351 0.0
C39 C 0.76854 0.98308 0.21103 0.0
C40 C 0.74401 0.97569 0.20191 0.0
C41 C 0.77579 1.00051 0.27871 0.0
H42 H 0.70766 0.97915 0.25909 0.0
C43 C 0.72666 0.9846 0.26587 0.0
C44 C 0.73255 1.00218 0.3337 0.0
C45 C 0.75732 1.0101 0.3403 0.0
C46 C 0.80257 1.00822 0.28388 0.0
H47 H 0.76184 0.02423 0.39075 0.0
C48 C 0.81882 1.00695 0.20582 0.0
C49 C 0.8442 1.01239 0.21496 0.0
C50 C 0.81258 1.0157 0.36941 0.0
H51 H 0.80143 1.01646 0.43118 0.0
C52 C 0.83741 0.02152 0.37788 0.0
H53 H 0.81201 1.00174 0.13814 0.0
C54 C 0.85307 0.01974 0.30187 0.0
H55 H 0.87232 0.02398 0.31112 0.0
H56 H 0.84469 0.02707 0.44455 0.0
H57 H 0.57972 0.78898 0.14273 0.0
C58 C 0.57558 0.77726 0.19993 0.0
C59 C 0.58253 0.75257 0.19198 0.0
C60 C 0.56288 0.78621 0.27889 0.0
H61 H 0.5839 0.71798 0.26073 0.0
C62 C 0.57843 0.73701 0.2662 0.0
C63 C 0.5643 0.74444 0.34174 0.0
C64 C 0.55625 0.76895 0.34765 0.0
C65 C 0.55619 0.81308 0.28867 0.0
H66 H 0.54459 0.77418 0.4051 0.0
C67 C 0.55525 0.82911 0.2119 0.0
C68 C 0.5493 0.85419 0.22402 0.0
C69 C 0.55138 0.8233 0.37708 0.0
H70 H 0.55294 0.81258 0.43877 0.0
C71 C 0.54492 0.84787 0.38855 0.0
H72 H 0.55861 0.82243 0.1424 0.0
C73 C 0.54371 0.86314 0.31284 0.0
H74 H 0.53892 0.88221 0.32395 0.0
H75 H 0.54114 0.85521 0.45703 0.0
H76 H 0.2912 0.48553 0.18076 0.0
C77 C 0.27809 0.48756 0.12566 0.0
C78 C 0.25348 0.48431 0.14821 0.0
C79 C 0.28534 0.49476 0.03691 0.0
H80 H 0.21674 0.48166 0.09604 0.0
C81 C 0.23576 0.48459 0.07825 0.0
C82 C 0.24141 0.49188 0.9886 0.0
C83 C 0.26638 0.49758 0.96852 0.0
C84 C 0.31254 0.49909 0.01867 0.0
H85 H 0.27073 0.50414 0.90048 0.0
C86 C 0.33009 0.50311 0.0916 0.0
C87 C 0.35571 0.50392 0.07397 0.0
C88 C 0.32163 0.4976 0.92778 0.0
H89 H 0.30958 0.4942 0.86976 0.0
C90 C 0.34667 0.49967 0.90973 0.0
H91 H 0.32428 0.50524 0.16253 0.0
C92 C 0.3635 0.50254 0.9816 0.0
H93 H 0.38278 0.5038 0.96472 0.0
H94 H 0.35318 0.4985 0.83916 0.0
H95 H 0.06341 0.28681 0.16379 0.0
C96 C 0.05824 0.27262 0.11464 0.0
C97 C 0.06393 0.24871 0.13733 0.0
C98 C 0.04532 0.27806 0.03377 0.0
H99 H 0.06232 0.21107 0.09717 0.0
C100 C 0.05894 0.22956 0.07484 0.0
C101 C 0.04805 0.23347 0.9883 0.0
C102 C 0.04046 0.25806 0.96929 0.0
C103 C 0.03786 0.30473 0.0199 0.0
H104 H 0.03088 0.26142 0.90548 0.0
C105 C 0.03618 0.32231 0.09534 0.0
C106 C 0.03251 0.34776 0.0805 0.0
C107 C 0.03392 0.31342 0.9304 0.0
H108 H 0.03517 0.30131 0.87069 0.0
C109 C 0.02908 0.33815 0.91565 0.0
H110 H 0.03811 0.31658 0.16591 0.0
C111 C 0.02862 0.35509 0.98909 0.0
H112 H 0.02501 0.37409 0.97394 0.0
H113 H 0.02611 0.34439 0.84599 0.0
H114 H 0.2636 0.07506 0.13683 0.0
C115 C 0.27779 0.06945 0.08878 0.0
C116 C 0.3013 0.07855 0.10395 0.0
C117 C 0.27271 0.05313 0.01478 0.0
H118 H 0.33832 0.07908 0.05407 0.0
C119 C 0.31989 0.07277 0.04022 0.0
C120 C 0.31627 0.05703 0.96425 0.0
C121 C 0.29243 0.04668 0.95262 0.0
C122 C 0.24654 0.04421 1.00303 0.0
H123 H 0.28935 0.0339 0.89589 0.0
C124 C 0.22971 0.04316 0.07906 0.0
C125 C 0.2043 0.03911 0.06492 0.0
C126 C 0.23735 0.03912 0.91407 0.0
H127 H 0.24908 0.03995 0.85398 0.0
C128 C 0.2125 0.03406 0.90035 0.0
H129 H 0.23599 0.04622 0.14914 0.0
C130 C 0.1961 0.03445 0.97445 0.0
H131 H 0.17686 0.03108 0.96093 0.0
H132 H 0.20575 0.03047 0.83114 0.0
H133 H 0.47785 0.26857 0.15269 0.0
C134 C 0.48169 0.28019 0.09486 0.0
C135 C 0.47367 0.30454 0.10063 0.0
C136 C 0.49504 0.27143 0.01741 0.0
H137 H 0.47092 0.33866 0.02953 0.0
C138 C 0.47734 0.31993 0.02561 0.0
C139 C 0.49215 0.31284 0.95137 0.0
C140 C 0.50113 0.28855 0.94731 0.0
C141 C 0.5027 0.24477 0.01083 0.0
H142 H 0.51307 0.28335 0.89062 0.0
C143 C 0.5049 0.22967 0.08999 0.0
C144 C 0.51108 0.20455 0.08105 0.0
C145 C 0.50683 0.23374 0.92342 0.0
H146 H 0.50454 0.24389 0.86061 0.0
C147 C 0.51332 0.2091 0.91476 0.0
H148 H 0.50232 0.23718 0.15886 0.0
C149 C 0.51549 0.19464 0.9926 0.0
H150 H 0.52012 0.17545 0.9835 0.0
H151 H 0.51635 0.20103 0.84686 0.0
Tb152 Tb 0.04843 0.0203 0.73433 0.0
C153 C 0.95871 1.00008 0.47742 0.0
C154 C 0.97296 0.97248 0.35623 0.0
C155 C 0.92938 0.97621 0.38645 0.0
C156 C 0.9779 0.98978 0.42779 0.0
C157 C 0.93422 0.99358 0.4566 0.0
C158 C 0.9487 0.96573 0.33625 0.0
C159 C 0.92074 0.02353 0.57 0.0
N160 N 0.96391 1.0174 0.54286 0.0
C161 C 0.94518 0.02972 0.58697 0.0
C162 C 0.91522 1.00528 0.50487 0.0
Tb163 Tb 1.00448 0.02824 0.55896 0.0
N164 N 1.00126 0.9968 0.4488 0.0
C165 C 0.02035 0.98634 0.4003 0.0
C166 C 0.99248 0.96252 0.30605 0.0
C167 C 1.01626 0.96939 0.32865 0.0
H168 H 0.9491 0.0442 0.63647 0.0
H169 H 0.03161 0.96138 0.29156 0.0
H170 H 0.94468 0.95251 0.28161 0.0
H171 H 0.90616 0.03303 0.60654 0.0
H172 H 0.03912 0.98952 0.41788 0.0
H173 H 0.02238 0.08261 0.01248 0.0
H174 H 0.9894 0.94933 0.25047 0.0
H175 H 0.10304 1.00719 0.64351 0.0
H176 H 1.01501 0.05202 0.89125 0.0
H177 H 0.14538 0.02285 0.65498 0.0
H178 H 0.91072 0.97106 0.36944 0.0
H179 H 0.06349 0.10069 0.03249 0.0
H180 H 0.10709 0.10341 0.97989 0.0
H181 H 0.89623 1.00077 0.49084 0.0
H182 H 0.14026 0.08807 0.87964 0.0
N183 N 0.05151 0.05268 0.83751 0.0
C184 C 0.03311 0.0596 0.89701 0.0
C185 C 0.06034 0.08734 0.97751 0.0
C186 C 0.07922 0.0802 0.91753 0.0
C187 C 0.03715 0.07714 0.96666 0.0
C188 C 0.07423 0.0625 0.84777 0.0
H189 H 0.1547 0.05817 0.75816 0.0
N190 N 0.088 0.03483 0.73273 0.0
C191 C 0.13083 0.03176 0.69369 0.0
C192 C 0.09301 0.05354 0.79266 0.0
C193 C 0.10681 0.02303 0.68711 0.0
C194 C 0.13598 0.05175 0.75167 0.0
C195 C 0.11713 0.06248 0.80393 0.0
O196 O 0.07272 0.99365 0.78142 0.0
O197 O 0.02366 1.00093 0.63875 0.0
O198 O 0.98406 1.01248 0.67475 0.0
O199 O 1.0112 1.01732 0.79757 0.0
O200 O 0.05807 0.98744 0.65239 0.0
O201 O 0.04419 1.00831 0.87036 0.0
O202 O 0.9816 0.0475 0.46818 0.0
O203 O 0.02734 0.04684 0.66115 0.0
O204 O 0.0658 0.03932 0.61801 0.0
O205 O 0.04169 0.02476 0.49791 0.0
O206 O 0.99209 0.05791 0.65496 0.0
O207 O 0.0193 0.05718 0.48249 0.0
C208 C 0.03742 0.98333 0.61279 0.0
C209 C 0.0584 0.96816 0.89655 0.0
C210 C 0.03243 0.93381 0.93348 0.0
C211 C 0.03517 0.95713 0.89656 0.0
C212 C 0.05304 0.92133 0.96723 0.0
C213 C 0.07879 0.9556 0.93069 0.0
C214 C 0.07611 0.93217 0.96543 0.0
C215 C 0.98884 1.01286 0.76446 0.0
C216 C 0.0622 0.99271 0.86181 0.0
C217 C 0.12188 0.08098 0.87001 0.0
C218 C 0.10301 0.08967 0.9272 0.0
C219 C 1.01271 0.06272 0.69415 0.0
C220 C 0.99117 0.08956 0.47915 0.0
C221 C 1.00811 0.10824 0.46403 0.0
C222 C 1.00356 0.13206 0.49686 0.0
C223 C 0.98193 0.13729 0.54552 0.0
C224 C 0.96921 0.0951 0.52632 0.0
C225 C 0.96478 0.11882 0.5599 0.0
C226 C 0.06293 0.03337 0.52954 0.0
C227 C 0.99794 0.06418 0.45418 0.0
H228 H 0.01932 0.9668 0.87064 0.0
H229 H 0.05119 0.90323 0.99582 0.0
H230 H 0.0968 0.96397 0.93058 0.0
H231 H 0.09187 0.92252 0.99184 0.0
H232 H 0.02501 0.10422 0.42722 0.0
H233 H 0.97795 0.15578 0.5693 0.0
H234 H 0.9557 0.08109 0.53913 0.0
H235 H 0.94796 0.12291 0.59668 0.0
Tb236 Tb 0.53517 0.05477 0.77279 0.0
C237 C 0.54297 0.96438 0.49825 0.0
C238 C 0.57297 0.97582 0.38412 0.0
C239 C 0.5639 0.93287 0.40714 0.0
C240 C 0.55608 0.98224 0.45446 0.0
C241 C 0.54635 0.93946 0.47409 0.0
C242 C 0.57713 0.95104 0.36195 0.0
C243 C 0.51319 0.92965 0.5771 0.0
N244 N 0.52591 0.97154 0.56114 0.0
C245 C 0.51046 0.95458 0.59834 0.0
C246 C 0.53143 0.92201 0.51557 0.0
Tb247 Tb 0.52154 1.01286 0.58809 0.0
N248 N 0.55128 1.00597 0.47716 0.0
C249 C 0.56199 0.02422 0.42738 0.0
C250 C 0.58456 0.99447 0.33607 0.0
C251 C 0.5789 0.01877 0.35739 0.0
H252 H 0.4962 0.96001 0.64596 0.0
H253 H 0.58747 0.0334 0.31965 0.0
H254 H 0.59013 0.94577 0.30857 0.0
H255 H 0.5012 0.91636 0.60828 0.0
H256 H 0.55813 0.04323 0.44149 0.0
H257 H 0.49326 1.01628 0.07962 0.0
H258 H 0.59747 0.99028 0.28114 0.0
H259 H 0.53974 0.11499 0.7405 0.0
H260 H 0.52338 0.01905 0.95833 0.0
H261 H 0.51451 0.15198 0.76553 0.0
H262 H 0.56696 0.91384 0.38825 0.0
H263 H 0.46055 0.0473 0.09564 0.0
H264 H 0.44314 0.08728 0.04547 0.0
H265 H 0.53342 0.9027 0.49884 0.0
H266 H 0.44869 0.12479 0.95656 0.0
N267 N 0.50767 0.05057 0.89472 0.0
C268 C 0.50899 0.03237 0.95872 0.0
C269 C 0.47358 0.04841 0.03936 0.0
C270 C 0.47333 0.06805 0.97915 0.0
C271 C 0.49195 0.03088 0.03053 0.0
C272 C 0.49109 0.06882 0.90798 0.0
H273 H 0.47582 0.14946 0.85374 0.0
N274 N 0.51423 0.09097 0.80378 0.0
C275 C 0.50831 0.13454 0.79104 0.0
C276 C 0.49434 0.08983 0.85934 0.0
C277 C 0.52243 0.11346 0.77629 0.0
C278 C 0.48645 0.13302 0.84039 0.0
C279 C 0.47977 0.11071 0.87879 0.0
O280 O 0.5591 0.08108 0.82948 0.0
O281 O 0.5505 0.03174 0.66336 0.0
O282 O 0.54185 0.99011 0.68343 0.0
O283 O 0.53898 1.01564 0.81414 0.0
O284 O 0.56469 0.06594 0.67955 0.0
O285 O 0.56022 0.04404 0.87478 0.0
O286 O 0.48581 1.0015 0.55185 0.0
O287 O 0.50646 0.03662 0.69735 0.0
O288 O 0.52139 0.07696 0.65714 0.0
O289 O 0.5236 0.0499 0.53185 0.0
O290 O 0.49314 1.00227 0.68762 0.0
O291 O 0.50792 0.02388 0.46071 0.0
C292 C 0.56753 0.04558 0.63481 0.0
C293 C 0.59808 0.06375 0.84932 0.0
C294 C 0.63584 0.04045 0.83534 0.0
C295 C 0.61131 0.04209 0.86249 0.0
C296 C 0.6473 0.06051 0.7945 0.0
C297 C 0.60982 0.08383 0.80864 0.0
C298 C 0.63425 0.08208 0.78082 0.0
C299 C 0.54358 0.99393 0.77382 0.0
C300 C 0.57178 0.06484 0.87261 0.0
C301 C 0.46034 0.10913 0.94197 0.0
C302 C 0.4572 0.0878 0.99262 0.0
C303 C 0.49054 0.0226 0.73215 0.0
C304 C 0.47228 1.00556 0.39673 0.0
C305 C 0.44805 1.01335 0.39844 0.0
C306 C 0.43442 1.01449 0.31703 0.0
C307 C 0.44434 1.00378 0.2358 0.0
C308 C 0.4823 0.99518 0.31613 0.0
C309 C 0.46787 0.99347 0.2365 0.0
C310 C 0.52054 0.07217 0.56705 0.0
C311 C 0.48688 1.01346 0.47529 0.0
H312 H 0.60283 0.0267 0.89641 0.0
H313 H 0.66657 0.05981 0.7767 0.0
H314 H 0.60009 0.10079 0.79735 0.0
H315 H 0.64319 0.09759 0.74982 0.0
H316 H 0.44057 0.02042 0.463 0.0
H317 H 0.43449 1.00408 0.17116 0.0
H318 H 0.50121 0.98913 0.3142 0.0
H319 H 0.47537 0.98532 0.17396 0.0
Tb320 Tb 0.5493 0.52085 0.564 0.0
C321 C 0.44548 0.52149 0.71091 0.0
C322 C 0.42476 0.54822 0.60472 0.0
C323 C 0.40129 0.51841 0.68999 0.0
C324 C 0.4465 0.5399 0.64681 0.0
C325 C 0.42273 0.51095 0.73479 0.0
C326 C 0.40227 0.53719 0.62588 0.0
C327 C 0.44299 0.49039 0.85907 0.0
N328 N 0.46635 0.51553 0.75609 0.0
C329 C 0.46483 0.50194 0.83467 0.0
C330 C 0.42192 0.49445 0.80736 0.0
Tb331 Tb 0.5009 0.53721 0.71807 0.0
N332 N 0.46853 0.55051 0.62926 0.0
C333 C 0.46969 0.56991 0.5704 0.0
C334 C 0.4261 0.56792 0.54481 0.0
C335 C 0.44867 0.57867 0.52711 0.0
H336 H 0.48075 0.49972 0.87811 0.0
H337 H 0.4499 0.59386 0.48039 0.0
H338 H 0.3854 0.54345 0.59476 0.0
H339 H 0.44231 0.47884 0.919 0.0
H340 H 0.48672 0.57861 0.5537 0.0
H341 H 0.60007 0.46234 0.79568 0.0
H342 H 0.40978 0.57522 0.513 0.0
H343 H 0.56974 0.55949 0.40763 0.0
H344 H 0.56325 0.47879 0.72671 0.0
H345 H 0.60818 0.58057 0.3691 0.0
H346 H 0.38371 0.5105 0.70736 0.0
H347 H 0.6404 0.48029 0.76138 0.0
H348 H 0.66496 0.51235 0.68218 0.0
H349 H 0.40487 0.48586 0.82725 0.0
H350 H 0.66671 0.54654 0.57525 0.0
N351 N 0.58161 0.50689 0.65161 0.0
C352 C 0.58033 0.48724 0.70929 0.0
C353 C 0.62407 0.48817 0.73165 0.0
C354 C 0.62549 0.50831 0.67396 0.0
C355 C 0.60138 0.4778 0.75023 0.0
C356 C 0.60373 0.51733 0.63411 0.0
H357 H 0.64572 0.57223 0.45843 0.0
N358 N 0.58393 0.54287 0.52843 0.0
C359 C 0.60744 0.56864 0.42793 0.0
C360 C 0.60482 0.53629 0.57225 0.0
C361 C 0.58554 0.55711 0.45143 0.0
C362 C 0.62856 0.56385 0.47834 0.0
C363 C 0.62766 0.54676 0.54891 0.0
O364 O 0.55327 0.51697 0.42022 0.0
O365 O 0.50957 0.52131 0.58317 0.0
O366 O 0.50042 0.49684 0.71325 0.0
O367 O 0.53356 0.48632 0.61803 0.0
O368 O 0.52309 0.53223 0.45864 0.0
O369 O 0.56577 0.48876 0.51185 0.0
O370 O 0.49753 0.54227 0.8619 0.0
O371 O 0.54057 0.5366 0.69865 0.0
O372 O 0.54969 0.56114 0.57021 0.0
O373 O 0.51636 0.57172 0.66401 0.0
O374 O 0.52711 0.52553 0.82308 0.0
O375 O 0.48442 0.5696 0.76761 0.0
C376 C 0.5032 0.52824 0.50335 0.0
C377 C 0.56047 0.47798 0.3547 0.0
C378 C 0.53756 0.44394 0.28799 0.0
C379 C 0.53992 0.46266 0.35533 0.0
C380 C 0.55609 0.44121 0.2202 0.0
C381 C 0.57823 0.47542 0.28544 0.0
C382 C 0.576 0.45709 0.21832 0.0
C383 C 0.51558 0.4804 0.67583 0.0
C384 C 0.56473 0.49625 0.427 0.0
C385 C 0.6491 0.53862 0.59183 0.0
C386 C 0.64808 0.51917 0.65296 0.0
C387 C 0.54697 0.52947 0.77807 0.0
C388 C 0.48942 0.58172 0.92402 0.0
C389 C 0.50999 0.5971 0.92539 0.0
C390 C 0.51153 0.61634 0.99138 0.0
C391 C 0.49204 0.61961 0.0549 0.0
C392 C 0.47079 0.58484 0.98966 0.0
C393 C 0.47213 0.60373 0.05486 0.0
C394 C 0.53445 0.57754 0.60698 0.0
C395 C 0.48583 0.56281 0.8532 0.0
H396 H 0.52612 0.46532 0.40843 0.0
H397 H 0.55566 0.42644 0.1694 0.0
H398 H 0.5941 0.48736 0.28437 0.0
H399 H 0.59 0.45484 0.16583 0.0
H400 H 0.52445 0.59404 0.87523 0.0
H401 H 0.49177 0.63476 0.10406 0.0
H402 H 0.45492 0.57291 0.98928 0.0
H403 H 0.45745 0.60637 0.1044 0.0
Tb404 Tb 0.03238 0.54372 0.56398 0.0
C405 C 0.03339 0.44622 0.72095 0.0
C406 C 1.00377 0.42363 0.62929 0.0
C407 C 0.03882 0.40242 0.69232 0.0
C408 C 1.01238 0.44593 0.6685 0.0
C409 C 0.04664 0.42431 0.73483 0.0
C410 C 1.01723 0.40202 0.64072 0.0
C411 C 0.0716 0.44591 0.84595 0.0
N412 N 0.03966 0.46743 0.76481 0.0
C413 C 0.05741 0.46681 0.83243 0.0
C414 C 0.06651 0.42464 0.79548 0.0
Tb415 Tb 1.01547 0.50156 0.73547 0.0
N416 N 0.9997 0.46717 0.6596 0.0
C417 C 0.97751 0.46667 0.61463 0.0
C418 C 0.98149 0.42346 0.58225 0.0
C419 C 0.96831 0.44506 0.57511 0.0
H420 H 0.06077 0.48246 0.87746 0.0
H421 H 0.95086 0.4451 0.53958 0.0
H422 H 1.01071 0.38477 0.61226 0.0
H423 H 0.08604 0.44607 0.89718 0.0
H424 H 0.9662 0.48252 0.60751 0.0
H425 H 0.08778 0.60371 0.77992 0.0
H426 H 0.97401 0.40668 0.55306 0.0
H427 H 0.99552 0.55732 0.38928 0.0
H428 H 0.07393 0.56434 0.71705 0.0
H429 H 0.97434 0.59359 0.32939 0.0
H430 H 0.04873 0.38548 0.70236 0.0
H431 H 0.06723 0.64181 0.73419 0.0
H432 H 0.03432 0.66235 0.64322 0.0
H433 H 0.07713 0.40826 0.80767 0.0
H434 H 1.00237 0.65943 0.52426 0.0
N435 N 0.04439 0.57916 0.6394 0.0
C436 C 0.0642 0.58048 0.69745 0.0
C437 C 0.06041 0.62439 0.70847 0.0
C438 C 0.04063 0.6232 0.64737 0.0
C439 C 0.07224 0.60295 0.73355 0.0
C440 C 0.03317 0.60007 0.61255 0.0
H441 H 0.97994 0.63393 0.40649 0.0
N442 N 1.01064 0.57619 0.50621 0.0
C443 C 0.9855 0.59521 0.39098 0.0
C444 C 1.01539 0.59847 0.54487 0.0
C445 C 0.99735 0.57467 0.42577 0.0
C446 C 0.98868 0.61791 0.43475 0.0
C447 C 1.00442 0.61992 0.51069 0.0
O448 O 0.03957 0.54477 0.42095 0.0
O449 O 0.03042 0.50468 0.5962 0.0
O450 O 0.05454 0.50946 0.75708 0.0
O451 O 0.06666 0.52751 0.62106 0.0
O452 O 1.01833 0.51565 0.46881 0.0
O453 O 0.06712 0.55621 0.52336 0.0
O454 O 1.01276 0.49057 0.87348 0.0
O455 O 1.01706 0.54027 0.70147 0.0
O456 O 0.99208 0.54528 0.56472 0.0
O457 O 0.9812 0.51659 0.67466 0.0
O458 O 0.02744 0.5307 0.83139 0.0
O459 O 0.98063 0.49981 0.79661 0.0
C460 C 0.02157 0.49683 0.51951 0.0
C461 C 0.07739 0.56139 0.36284 0.0
C462 C 0.11944 0.56518 0.31135 0.0
C463 C 0.10211 0.55564 0.37206 0.0
C464 C 0.11169 0.58057 0.24031 0.0
C465 C 0.06964 0.57659 0.29162 0.0
C466 C 0.08687 0.58629 0.23098 0.0
C467 C 0.07179 0.51718 0.70108 0.0
C468 C 0.06075 0.55491 0.43684 0.0
C469 C 1.01068 0.64281 0.54931 0.0
C470 C 0.0289 0.64446 0.61702 0.0
C471 C 0.02372 0.54916 0.77941 0.0
C472 C 0.98274 0.51422 0.95084 0.0
C473 C 0.96054 0.52689 0.94328 0.0
C474 C 0.95412 0.54501 0.00823 0.0
C475 C 0.97008 0.55063 0.08161 0.0
C476 C 0.99859 0.51994 0.02488 0.0
C477 C 0.9923 0.53819 0.08947 0.0
C478 C 0.9754 0.53233 0.609 0.0
C479 C 0.98972 0.49623 0.8783 0.0
H480 H 0.1078 0.54365 0.427 0.0
H481 H 0.12479 0.58828 0.19273 0.0
H482 H 0.05055 0.58179 0.28556 0.0
H483 H 0.08112 0.59871 0.17811 0.0
H484 H 0.94789 0.5223 0.88786 0.0
H485 H 0.96516 0.56436 0.13333 0.0
H486 H 1.01593 0.51054 0.03242 0.0
H487 H 1.00456 0.54254 0.14615 0.0
C488 C 0.18725 0.02591 0.21994 0.0
C489 C 0.18575 0.04078 0.14202 0.0
C490 C 0.16822 0.02555 0.28671 0.0
C491 C 0.14731 0.04085 0.27703 0.0
C492 C 0.14634 0.0567 0.20051 0.0
C493 C 0.16526 0.05621 0.13385 0.0
C494 C 0.17 1.00795 0.3655 0.0
C495 C 0.12495 0.07381 0.18736 0.0
C496 C 0.08524 0.02249 0.38061 0.0
C497 C 0.08423 0.03608 0.46394 0.0
C498 C 0.10571 0.02351 0.32096 0.0
C499 C 0.12573 0.03913 0.34268 0.0
C500 C 0.12461 0.05343 0.42557 0.0
C501 C 0.10409 0.05161 0.48512 0.0
C502 C 0.10595 1.00755 0.23471 0.0
C503 C 0.14501 0.0709 0.45104 0.0
H504 H 0.20283 1.01377 0.22665 0.0
H505 H 0.16392 0.06787 0.07426 0.0
H506 H 0.16731 1.01775 0.43248 0.0
H507 H 0.15521 0.99408 0.35907 0.0
H508 H 0.18793 0.99833 0.36687 0.0
H509 H 0.12859 0.08742 0.13294 0.0
H510 H 0.10848 0.06311 0.16715 0.0
H511 H 0.12063 0.08375 0.25288 0.0
H512 H 0.07021 1.01059 0.36206 0.0
H513 H 0.10352 0.06259 0.54817 0.0
H514 H 0.12272 0.99606 0.23317 0.0
H515 H 0.10639 0.01915 0.17265 0.0
H516 H 0.08969 0.99537 0.22996 0.0
H517 H 0.14148 0.08076 0.5175 0.0
H518 H 0.14731 0.08453 0.39582 0.0
H519 H 0.16257 0.06081 0.45667 0.0
C520 C 0.53382 0.17437 0.17823 0.0
C521 C 0.51248 0.188 0.16221 0.0
C522 C 0.53467 0.15645 0.24701 0.0
C523 C 0.51346 0.15145 0.30016 0.0
C524 C 0.49194 0.16544 0.28513 0.0
C525 C 0.49178 0.18367 0.21708 0.0
C526 C 0.55819 0.1425 0.26148 0.0
C527 C 0.4688 0.16057 0.33882 0.0
C528 C 0.51041 0.08791 0.40821 0.0
C529 C 0.51737 0.09275 0.50036 0.0
C530 C 0.50847 0.10679 0.34322 0.0
C531 C 0.51383 0.13132 0.37004 0.0
C532 C 0.52054 0.13639 0.46297 0.0
C533 C 0.52219 0.11716 0.5264 0.0
C534 C 0.501 0.10039 0.24532 0.0
C535 C 0.52665 0.16211 0.4951 0.0
H536 H 0.54984 0.17756 0.13582 0.0
H537 H 0.47512 0.19385 0.20406 0.0
H538 H 0.56371 0.1437 0.33516 0.0
H539 H 0.55535 0.12285 0.24401 0.0
H540 H 0.57344 0.1495 0.21849 0.0
H541 H 0.45388 0.17355 0.32168 0.0
H542 H 0.46236 0.14166 0.32365 0.0
H543 H 0.47246 0.1619 0.41408 0.0
H544 H 0.5065 0.06926 0.38633 0.0
H545 H 0.52804 0.12134 0.59569 0.0
H546 H 0.51616 0.10472 0.19723 0.0
H547 H 0.48497 0.11157 0.22496 0.0
H548 H 0.49624 0.08072 0.2363 0.0
H549 H 0.54301 0.16872 0.45743 0.0
H550 H 0.53044 0.16327 0.57044 0.0
H551 H 0.51132 0.17468 0.47928 0.0
C552 C 0.37276 0.52253 0.22377 0.0
C553 C 0.37479 0.50563 0.14986 0.0
C554 C 0.39191 0.52572 0.28915 0.0
C555 C 0.41373 0.51152 0.28226 0.0
C556 C 0.41536 0.49372 0.20989 0.0
C557 C 0.39611 0.49109 0.14512 0.0
C558 C 0.38903 0.54487 0.3642 0.0
C559 C 0.43791 0.47794 0.19869 0.0
C560 C 0.47503 0.53738 0.37142 0.0
C561 C 0.47927 0.52435 0.45275 0.0
C562 C 0.45374 0.53379 0.31746 0.0
C563 C 0.43572 0.51661 0.34445 0.0
C564 C 0.43974 0.50348 0.42726 0.0
C565 C 0.46159 0.50713 0.47919 0.0
C566 C 0.45082 0.54815 0.23 0.0
C567 C 0.42108 0.48534 0.46066 0.0
H568 H 0.35657 0.53397 0.22855 0.0
H569 H 0.3979 0.47767 0.08948 0.0
H570 H 0.39248 0.53653 0.43198 0.0
H571 H 0.4028 0.55954 0.35457 0.0
H572 H 0.37048 0.55324 0.36498 0.0
H573 H 0.43582 0.46388 0.14285 0.0
H574 H 0.45392 0.4896 0.18229 0.0
H575 H 0.44204 0.46857 0.26421 0.0
H576 H 0.48862 0.55053 0.34945 0.0
H577 H 0.46485 0.49648 0.54038 0.0
H578 H 0.43337 0.55856 0.23199 0.0
H579 H 0.44997 0.53542 0.16949 0.0
H580 H 0.46612 0.56121 0.21935 0.0
H581 H 0.40262 0.49386 0.46295 0.0
H582 H 0.42556 0.47852 0.53047 0.0
H583 H 0.42016 0.46952 0.41171 0.0
C584 C 0.04397 0.39015 0.14324 0.0
C585 C 0.0331 0.3671 0.15782 0.0
C586 C 0.04319 0.40928 0.21055 0.0
C587 C 0.03118 0.40584 0.29638 0.0
C588 C 0.02086 0.38236 0.31287 0.0
C589 C 0.0221 0.36339 0.24439 0.0
C590 C 0.05476 0.43357 0.18841 0.0
C591 C 1.00824 0.3772 0.40277 0.0
C592 C 0.04277 0.45551 0.48741 0.0
C593 C 0.02303 0.47165 0.47458 0.0
C594 C 0.04517 0.43354 0.4335 0.0
C595 C 0.02765 0.42749 0.36368 0.0
C596 C 1.00741 0.4435 0.35289 0.0
C597 C 1.00558 0.46526 0.40692 0.0
C598 C 0.06685 0.4171 0.4497 0.0
C599 C 0.98782 0.438 0.28205 0.0
H600 H 0.05311 0.39338 0.07815 0.0
H601 H 1.01367 0.34586 0.25772 0.0
H602 H 0.04036 0.44785 0.18443 0.0
H603 H 0.0676 0.43923 0.24424 0.0
H604 H 0.06491 0.43297 0.12185 0.0
H605 H 0.99777 0.35978 0.4001 0.0
H606 H 0.02227 0.37589 0.45771 0.0
H607 H 0.99557 0.39231 0.42165 0.0
H608 H 0.0567 0.46037 0.53778 0.0
H609 H 0.99038 0.47762 0.39537 0.0
H610 H 0.07835 0.41606 0.38652 0.0
H611 H 0.06046 0.39829 0.46411 0.0
H612 H 0.07833 0.42366 0.50845 0.0
H613 H 0.99583 0.43853 0.21167 0.0
H614 H 0.97239 0.45125 0.2861 0.0
H615 H 0.98046 0.41929 0.2919 0.0
C616 C 0.86763 0.03 0.08081 0.0
C617 C 0.86228 1.00998 0.13685 0.0
C618 C 0.8877 0.02952 0.01857 0.0
C619 C 0.90308 1.00854 0.01183 0.0
C620 C 0.89731 0.98804 0.06686 0.0
C621 C 0.87723 0.9891 0.12884 0.0
C622 C 0.89299 0.05189 0.96236 0.0
C623 C 0.91285 0.9652 0.06264 0.0
C624 C 0.94476 1.0011 0.79803 0.0
C625 C 0.9676 1.00967 0.83024 0.0
C626 C 0.92386 1.00045 0.85585 0.0
C627 C 0.92552 1.00833 0.9496 0.0
C628 C 0.94871 1.01621 0.98352 0.0
C629 C 0.96934 1.01666 0.92401 0.0
C630 C 0.89986 0.99157 0.81598 0.0
C631 C 0.95166 0.02468 0.08266 0.0
H632 H 0.8566 0.04642 0.08815 0.0
H633 H 0.87363 0.97379 0.17344 0.0
H634 H 0.91108 0.05959 0.9824 0.0
H635 H 0.89399 0.04686 0.88788 0.0
H636 H 0.87884 0.06634 0.97215 0.0
H637 H 0.90465 0.95002 0.10227 0.0
H638 H 0.91541 0.95897 0.98991 0.0
H639 H 0.93127 0.96924 0.09141 0.0
H640 H 0.94309 0.99493 0.72686 0.0
H641 H 0.98675 0.02305 0.95087 0.0
H642 H 0.88595 1.00634 0.82112 0.0
H643 H 0.89291 0.97594 0.8563 0.0
H644 H 0.90156 0.9857 0.74238 0.0
H645 H 0.9392 0.04033 0.09737 0.0
H646 H 0.97073 0.03043 0.09869 0.0
H647 H 0.94645 1.00977 0.12981 0.0
C648 C 0.52857 0.88583 0.12778 0.0
C649 C 0.54945 0.87173 0.14606 0.0
C650 C 0.52917 0.90483 0.06342 0.0
C651 C 0.55138 0.91042 0.01746 0.0
C652 C 0.57246 0.89597 0.03462 0.0
C653 C 0.57117 0.87665 0.09799 0.0
C654 C 0.5061 0.9193 0.04611 0.0
C655 C 0.59666 0.90155 0.98905 0.0
C656 C 0.54674 0.94846 0.7992 0.0
C657 C 0.54895 0.97252 0.83402 0.0
C658 C 0.54783 0.92812 0.85742 0.0
C659 C 0.55244 0.93166 0.95298 0.0
C660 C 0.55673 0.95575 0.98754 0.0
C661 C 0.55479 0.97583 0.92796 0.0
C662 C 0.54285 0.90293 0.8171 0.0
C663 C 0.56271 0.96041 0.08815 0.0
H664 H 0.51179 0.88218 0.16521 0.0
H665 H 0.58746 0.86611 0.11316 0.0
H666 H 0.50867 0.93854 0.06999 0.0
H667 H 0.50213 0.91963 0.97097 0.0
H668 H 0.48996 0.91162 0.08233 0.0
H669 H 0.61094 0.8878 1.00528 0.0
H670 H 0.59446 0.90222 0.91301 0.0
H671 H 0.60317 0.91986 0.01269 0.0
H672 H 0.54342 0.94541 0.72659 0.0
H673 H 0.55772 0.99415 0.95544 0.0
H674 H 0.52572 0.8956 0.84727 0.0
H675 H 0.55785 0.89017 0.83495 0.0
H676 H 0.54086 0.90306 0.74075 0.0
H677 H 0.54666 0.95576 0.13148 0.0
H678 H 0.56775 0.9798 0.1026 0.0
H679 H 0.57809 0.94852 0.10967 0.0
C680 C 0.65561 0.56252 0.13409 0.0
C681 C 0.67641 0.54732 0.12721 0.0
C682 C 0.6363 0.5611 0.06922 0.0
C683 C 0.63738 0.54387 0.99482 0.0
C684 C 0.65886 0.52924 0.98544 0.0
C685 C 0.67808 0.53122 0.05092 0.0
C686 C 0.61413 0.57727 0.08324 0.0
C687 C 0.66116 0.51067 0.90824 0.0
C688 C 0.57543 0.51934 0.90772 0.0
C689 C 0.57105 0.53287 0.82776 0.0
C690 C 0.59697 0.52239 0.96061 0.0
C691 C 0.61506 0.53952 0.93387 0.0
C692 C 0.61085 0.55321 0.85258 0.0
C693 C 0.58877 0.55008 0.8017 0.0
C694 C 0.60008 0.50748 0.0466 0.0
C695 C 0.62955 0.57139 0.81975 0.0
H696 H 0.65412 0.57521 0.19225 0.0
H697 H 0.69387 0.51926 0.04491 0.0
H698 H 0.60972 0.58694 0.01863 0.0
H699 H 0.59803 0.56583 0.10069 0.0
H700 H 0.61685 0.59108 0.13954 0.0
H701 H 0.67977 0.50248 0.904 0.0
H702 H 0.64764 0.49581 0.91847 0.0
H703 H 0.65697 0.5195 0.84208 0.0
H704 H 0.56179 0.50621 0.92934 0.0
H705 H 0.58537 0.56112 0.74161 0.0
H706 H 0.60157 0.51982 0.10804 0.0
H707 H 0.61727 0.49668 0.04221 0.0
H708 H 0.58456 0.49471 0.05747 0.0
H709 H 0.63091 0.58684 0.87024 0.0
H710 H 0.6248 0.57879 0.75107 0.0
H711 H 0.64789 0.56267 0.81522 0.0
C712 C 0.99229 0.66423 0.11348 0.0
C713 C 1.00681 0.68526 0.10105 0.0
C714 C 0.99306 0.64396 0.05114 0.0
C715 C 1.00901 0.64416 0.97364 0.0
C716 C 0.02285 0.66584 0.95839 0.0
C717 C 0.0215 0.68604 0.0215 0.0
C718 C 0.97772 0.62171 0.07144 0.0
C719 C 0.04025 0.66721 0.87816 0.0
C720 C 0.03421 0.581 0.89931 0.0
C721 C 0.02022 0.57448 0.82132 0.0
C722 C 0.03126 0.60367 0.94636 0.0
C723 C 1.01341 0.62071 0.91693 0.0
C724 C 0.99912 0.61431 0.83765 0.0
C725 C 1.00245 0.59126 0.79163 0.0
C726 C 0.04709 0.60901 0.02954 0.0
C727 C 0.97999 0.63165 0.8022 0.0
H728 H 0.98082 0.66328 0.17445 0.0
H729 H 0.03304 0.7019 0.01127 0.0
H730 H 0.96781 0.6154 0.00852 0.0
H731 H 0.98984 0.60653 0.09299 0.0
H732 H 0.96416 0.62533 0.1273 0.0
H733 H 0.04766 0.68595 0.86912 0.0
H734 H 0.05579 0.65453 0.88951 0.0
H735 H 0.03082 0.66135 0.81379 0.0
H736 H 0.04774 0.56813 0.92399 0.0
H737 H 0.99103 0.58629 0.73305 0.0
H738 H 0.03574 0.60835 0.09308 0.0
H739 H 0.05517 0.62759 0.02594 0.0
H740 H 0.0622 0.59552 0.0353 0.0
H741 H 0.96481 0.63324 0.85297 0.0
H742 H 0.97234 0.6254 0.7347 0.0
H743 H 0.98791 0.65019 0.79422 0.0
C744 C 0.05173 0.24904 0.30064 0.0
C745 C 0.06939 0.24277 0.23409 0.0
C746 C 0.048 0.23403 0.37641 0.0
C747 C 0.06276 0.21291 0.38516 0.0
C748 C 0.08449 0.21066 0.33258 0.0
C749 C 0.08726 0.22528 0.25472 0.0
C750 C 0.02531 0.23797 0.43458 0.0
C751 C 0.10227 0.19006 0.34829 0.0
C752 C 0.03228 0.16621 0.53749 0.0
C753 C 0.02025 0.15179 0.47092 0.0
C754 C 0.04802 0.18516 0.51119 0.0
C755 C 0.05055 0.19034 0.41625 0.0
C756 C 0.03839 0.17547 0.34889 0.0
C757 C 0.02382 0.15611 0.37741 0.0
C758 C 0.06212 0.19904 0.58493 0.0
C759 C 0.03963 0.18048 0.24653 0.0
H760 H 0.03833 0.26312 0.28603 0.0
H761 H 0.10155 0.22107 0.20484 0.0
H762 H 1.01093 0.22477 0.41218 0.0
H763 H 0.02923 0.23476 0.50845 0.0
H764 H 1.0179 0.25679 0.42778 0.0
H765 H 0.12101 0.19521 0.32582 0.0
H766 H 0.10267 0.18506 0.42229 0.0
H767 H 0.09657 0.1737 0.30719 0.0
H768 H 0.02952 0.16253 0.60976 0.0
H769 H 1.01433 0.14481 0.32645 0.0
H770 H 0.06627 0.21812 0.56549 0.0
H771 H 0.07989 0.18963 0.59564 0.0
H772 H 0.05208 0.19928 0.65173 0.0
H773 H 0.03391 0.19957 0.23321 0.0
H774 H 0.02766 0.16806 0.20504 0.0
H775 H 0.05865 0.17804 0.22119 0.0
C776 C 0.30399 0.07437 0.27195 0.0
C777 C 0.30845 0.08914 0.19537 0.0
C778 C 0.32378 0.0671 0.32674 0.0
C779 C 0.34752 0.0748 0.30136 0.0
C780 C 0.35015 0.09534 0.24384 0.0
C781 C 0.3294 0.10398 0.19779 0.0
C782 C 0.31999 0.04766 0.39777 0.0
C783 C 0.37503 0.10484 0.21613 0.0
C784 C 0.40822 0.04912 0.37796 0.0
C785 C 0.41125 0.0289 0.31701 0.0
C786 C 0.38674 0.06309 0.37877 0.0
C787 C 0.36849 0.05793 0.31252 0.0
C788 C 0.37139 0.03765 0.25027 0.0
C789 C 0.39246 0.02314 0.25495 0.0
C790 C 0.38366 0.08302 0.45168 0.0
C791 C 0.35343 0.03192 0.1735 0.0
H792 H 0.28679 0.06459 0.27753 0.0
H793 H 0.33179 0.11737 0.14413 0.0
H794 H 0.32233 0.02933 0.36463 0.0
H795 H 0.33365 0.04953 0.45429 0.0
H796 H 0.30123 0.04869 0.4274 0.0
H797 H 0.37369 0.12236 0.17866 0.0
H798 H 0.38694 0.1077 0.27727 0.0
H799 H 0.38411 0.09112 0.17004 0.0
H800 H 0.42282 0.05459 0.42438 0.0
H801 H 0.39433 1.00753 0.2083 0.0
H802 H 0.37318 0.07544 0.51031 0.0
H803 H 0.37319 0.09894 0.42651 0.0
H804 H 0.40162 0.08958 0.47829 0.0
H805 H 0.35505 1.01264 0.14844 0.0
H806 H 0.35773 0.04382 0.11453 0.0
H807 H 0.33418 0.03507 0.19429 0.0
C808 C 0.48857 0.31826 0.25215 0.0
C809 C 0.46871 0.31652 0.19113 0.0
C810 C 0.49276 0.33999 0.30246 0.0
C811 C 0.47598 0.35961 0.29373 0.0
C812 C 0.45284 0.35506 0.25306 0.0
C813 C 0.44961 0.33361 0.19956 0.0
C814 C 0.5172 0.34344 0.34977 0.0
C815 C 0.43329 0.37452 0.25259 0.0
C816 C 0.50666 0.41837 0.37372 0.0
C817 C 0.51687 0.42623 0.29009 0.0
C818 C 0.49055 0.39832 0.3753 0.0
C819 C 0.48605 0.38489 0.29268 0.0
C820 C 0.49482 0.39402 0.20763 0.0
C821 C 0.50896 0.41524 0.2074 0.0
C822 C 0.47965 0.39095 0.46615 0.0
C823 C 0.49152 0.38027 0.11714 0.0
H824 H 0.50303 0.30466 0.24789 0.0
H825 H 0.43377 0.33192 0.15474 0.0
H826 H 0.52851 0.35665 0.31092 0.0
H827 H 0.51453 0.351 0.4205 0.0
H828 H 0.52755 0.326 0.35454 0.0
H829 H 0.41478 0.36614 0.24788 0.0
H830 H 0.43433 0.38631 0.31574 0.0
H831 H 0.4358 0.38628 0.19167 0.0
H832 H 0.51202 0.42696 0.43859 0.0
H833 H 0.51533 0.42217 0.14197 0.0
H834 H 0.46282 0.37976 0.45701 0.0
H835 H 0.4752 0.40743 0.509 0.0
H836 H 0.49327 0.38017 0.50479 0.0
H837 H 0.50133 0.38894 0.05913 0.0
H838 H 0.47181 0.37924 0.09922 0.0
H839 H 0.49881 0.36144 0.1233 0.0
C840 C 0.22414 0.47702 0.27633 0.0
C841 C 0.24525 0.48876 0.24448 0.0
C842 C 0.2068 0.49034 0.32794 0.0
C843 C 0.21096 0.51558 0.34505 0.0
C844 C 0.23482 0.52512 0.33493 0.0
C845 C 0.25214 0.51117 0.28582 0.0
C846 C 0.18234 0.47879 0.34787 0.0
C847 C 0.24068 0.5513 0.36119 0.0
C848 C 0.15758 0.54903 0.24105 0.0
C849 C 0.14516 0.55735 0.31964 0.0
C850 C 0.17991 0.53684 0.24872 0.0
C851 C 0.18977 0.53237 0.33777 0.0
C852 C 0.17824 0.54249 0.41704 0.0
C853 C 0.15608 0.5551 0.40684 0.0
C854 C 0.19171 0.52729 0.16087 0.0
C855 C 0.18876 0.53985 0.51257 0.0
H856 H 0.21933 0.4591 0.24847 0.0
H857 H 0.26915 0.51983 0.26569 0.0
H858 H 0.17392 0.48711 0.41078 0.0
H859 H 0.16981 0.48181 0.2888 0.0
H860 H 0.18422 0.45873 0.35709 0.0
H861 H 0.26007 0.55606 0.34644 0.0
H862 H 0.22862 0.56397 0.323 0.0
H863 H 0.23729 0.55429 0.43599 0.0
H864 H 0.14914 0.55068 0.17365 0.0
H865 H 0.14673 0.56231 0.46761 0.0
H866 H 0.18657 0.5078 0.1509 0.0
H867 H 0.21194 0.52875 0.16393 0.0
H868 H 0.18527 0.5373 0.09931 0.0
H869 H 0.19893 0.52242 0.52001 0.0
H870 H 0.17415 0.54101 0.56583 0.0
H871 H 0.20159 0.5552 0.52661 0.0
C872 C 0.98594 0.82052 0.01048 0.0
C873 C 0.96789 0.81697 0.07747 0.0
C874 C 0.98605 0.84185 0.95838 0.0
C875 C 0.96686 0.85918 0.97105 0.0
C876 C 0.94561 0.85221 0.01999 0.0
C877 C 0.94668 0.83149 0.07608 0.0
C878 C 1.00888 0.84765 0.90369 0.0
C879 C 0.92323 0.86835 0.02423 0.0
C880 C 1.00098 0.91573 0.03171 0.0
C881 C 1.00819 0.9225 0.9435 0.0
C882 C 0.98376 0.89723 0.04339 0.0
C883 C 0.97336 0.88556 0.96416 0.0
C884 C 0.9767 0.89621 0.87662 0.0
C885 C 0.99477 0.91435 0.86648 0.0
C886 C 0.98051 0.88759 0.1394 0.0
C887 C 0.96254 0.88711 0.79359 0.0
H888 H 1.00209 0.80894 0.01028 0.0
H889 H 0.93228 0.82838 0.12611 0.0
H890 H 1.00406 0.85406 0.83391 0.0
H891 H 0.01931 0.86248 0.9394 0.0
H892 H 0.02114 0.83151 0.89559 0.0
H893 H 0.90647 0.85694 0.01734 0.0
H894 H 0.92219 0.87788 0.0924 0.0
H895 H 0.92328 0.88219 0.96903 0.0
H896 H 1.01093 0.92292 0.09118 0.0
H897 H 0.99974 0.92055 0.79825 0.0
H898 H 0.99171 0.87081 0.14509 0.0
H899 H 0.96117 0.88305 0.1538 0.0
H900 H 0.98667 0.90093 0.19329 0.0
H901 H 0.96632 0.86744 0.77983 0.0
H902 H 0.96693 0.89764 0.73077 0.0
H903 H 0.94263 0.88874 0.80799 0.0
C904 C 0.71319 0.9498 0.11722 0.0
C905 C 0.73497 0.96352 0.11529 0.0
C906 C 0.69592 0.95206 0.04611 0.0
C907 C 0.70144 0.96741 0.97132 0.0
C908 C 0.72606 0.97449 0.95682 0.0
C909 C 0.74271 0.97274 0.03018 0.0
C910 C 0.67033 0.94258 0.0615 0.0
C911 C 0.73328 0.989 0.87354 0.0
C912 C 0.65332 0.99804 0.82128 0.0
C913 C 0.65077 0.02033 0.86952 0.0
C914 C 0.66918 0.97983 0.85437 0.0
C915 C 0.68208 0.9842 0.93802 0.0
C916 C 0.67796 1.00629 0.989 0.0
C917 C 0.66254 0.02406 0.95353 0.0
C918 C 0.67276 0.95663 0.79804 0.0
C919 C 0.69013 1.01171 0.08059 0.0
H920 H 0.70781 0.94097 0.18056 0.0
H921 H 0.76003 0.9823 0.02521 0.0
H922 H 0.65984 0.95628 0.10304 0.0
H923 H 0.66052 0.93943 0.99533 0.0
H924 H 0.67073 0.92526 0.10051 0.0
H925 H 0.75329 0.98768 0.86026 0.0
H926 H 0.72321 0.98257 0.81119 0.0
H927 H 0.72865 1.00858 0.88606 0.0
H928 H 0.64354 0.9952 0.75683 0.0
H929 H 0.65983 0.04122 0.99113 0.0
H930 H 0.67581 0.94062 0.8426 0.0
H931 H 0.68918 0.9586 0.75364 0.0
H932 H 0.65678 0.95291 0.75235 0.0
H933 H 0.68421 0.02957 0.11091 0.0
H934 H 0.7103 1.01231 0.07239 0.0
H935 H 0.68548 0.99716 0.12993 0.0
C936 C 0.56758 0.74062 0.0381 0.0
C937 C 0.58714 0.74075 0.10069 0.0
C938 C 0.56205 0.71934 0.98669 0.0
C939 C 0.57712 0.6984 0.9965 0.0
C940 C 0.60021 0.70101 0.03995 0.0
C941 C 0.60493 0.72227 0.09296 0.0
C942 C 0.53748 0.71782 0.93905 0.0
C943 C 0.61785 0.67987 0.04503 0.0
C944 C 0.53912 0.64522 0.0768 0.0
C945 C 0.53251 0.63382 0.99309 0.0
C946 C 0.55419 0.66581 0.07884 0.0
C947 C 0.565 0.67401 0.99579 0.0
C948 C 0.56144 0.66034 0.91304 0.0
C949 C 0.54462 0.64081 0.91189 0.0
C950 C 0.55707 0.67956 0.16963 0.0
C951 C 0.57475 0.66673 0.82554 0.0
H952 H 0.5541 0.7552 0.04193 0.0
H953 H 0.62057 0.72268 0.13909 0.0
H954 H 0.5386 0.70681 0.87427 0.0
H955 H 0.52415 0.70878 0.98527 0.0
H956 H 0.5303 0.73627 0.92271 0.0
H957 H 0.63703 0.68657 0.0495 0.0
H958 H 0.61402 0.66927 0.10809 0.0
H959 H 0.61604 0.66735 0.98424 0.0
H960 H 0.53138 0.6389 0.14104 0.0
H961 H 0.54037 0.6318 0.84678 0.0
H962 H 0.55228 0.6991 0.16135 0.0
H963 H 0.57634 0.67832 0.19318 0.0
H964 H 0.54509 0.6723 0.22469 0.0
H965 H 0.56719 0.68381 0.79701 0.0
H966 H 0.57314 0.65192 0.77234 0.0
H967 H 0.59444 0.67008 0.83989 0.0
C968 C 0.8255 0.60007 0.09582 0.0
C969 C 0.80987 0.57972 0.09265 0.0
C970 C 0.84773 0.59956 0.0473 0.0
C971 C 0.85403 0.57826 0.99566 0.0
C972 C 0.83565 0.56074 0.97464 0.0
C973 C 0.81346 0.56175 0.0237 0.0
C974 C 0.86621 0.61955 0.06549 0.0
C975 C 0.84117 0.53834 0.91598 0.0
C976 C 0.92041 0.56658 0.92528 0.0
C977 C 0.92937 0.55555 1.00519 0.0
C978 C 0.89585 0.57422 0.91997 0.0
C979 C 0.88005 0.57025 0.99591 0.0
C980 C 0.88923 0.55862 0.07587 0.0
C981 C 0.91384 0.55193 0.07997 0.0
C982 C 0.88723 0.58676 0.83393 0.0
C983 C 0.87344 0.55331 0.15871 0.0
H984 H 0.82234 0.61439 0.14734 0.0
H985 H 0.80106 0.54625 0.01948 0.0
H986 H 0.8779 0.62242 1.00385 0.0
H987 H 0.85707 0.63707 0.085 0.0
H988 H 0.87827 0.61418 0.12345 0.0
H989 H 0.82413 0.53024 0.88676 0.0
H990 H 0.85385 0.54269 0.85872 0.0
H991 H 0.85012 0.52439 0.95947 0.0
H992 H 0.9326 0.56915 0.86709 0.0
H993 H 0.9208 0.54295 0.14083 0.0
H994 H 0.88933 0.60684 0.8439 0.0
H995 H 0.86767 0.58296 0.8189 0.0
H996 H 0.8984 0.58111 0.77299 0.0
H997 H 0.88121 0.53846 0.20097 0.0
H998 H 0.85471 0.54763 0.13859 0.0
H999 H 0.87237 0.57011 0.20264 0.0
C1000 C 0.02405 0.20725 0.8666 0.0
C1001 C 0.04439 0.21082 0.92509 0.0
C1002 C 0.01966 0.18437 0.8198 0.0
C1003 C 0.03529 0.16362 0.83404 0.0
C1004 C 0.05629 0.16775 0.89067 0.0
C1005 C 0.06095 0.19105 0.93064 0.0
C1006 C 0.99802 0.18318 0.7553 0.0
C1007 C 0.07418 0.1478 0.91393 0.0
C1008 C 1.00284 0.10097 0.78901 0.0
C1009 C 0.01894 0.0883 0.72935 0.0
C1010 C 1.0082 0.12474 0.82492 0.0
C1011 C 0.02936 0.13778 0.79476 0.0
C1012 C 0.04527 0.12511 0.73099 0.0
C1013 C 0.04014 0.10067 0.70128 0.0
C1014 C 0.99113 0.13528 0.89742 0.0
C1015 C 0.06829 0.13661 0.69378 0.0
H1016 H 1.01113 0.22211 0.85855 0.0
H1017 H 0.07768 0.19334 0.97014 0.0
H1018 H 0.9958 0.16518 0.72013 0.0
H1019 H 0.981 0.1876 0.79425 0.0
H1020 H 1.00009 0.19734 0.70178 0.0
H1021 H 0.07776 0.1479 0.98947 0.0
H1022 H 0.06775 0.12946 0.8932 0.0
H1023 H 0.09194 0.15139 0.87925 0.0
H1024 H 0.98631 0.09175 0.81117 0.0
H1025 H 0.05266 0.0914 0.65417 0.0
H1026 H 0.97607 0.14523 0.863 0.0
H1027 H 1.00063 0.14807 0.94577 0.0
H1028 H 0.98262 0.12053 0.93843 0.0
H1029 H 0.06966 0.13314 0.61812 0.0
H1030 H 0.08446 0.12775 0.72546 0.0
H1031 H 0.06925 0.15659 0.70722 0.0
C1032 C 0.35594 0.07037 0.8898 0.0
C1033 C 0.33881 0.05151 0.9051 0.0
C1034 C 0.38014 0.06565 0.86022 0.0
C1035 C 0.38755 0.04145 0.83617 0.0
C1036 C 0.36946 0.02256 0.8412 0.0
C1037 C 0.34571 0.02767 0.8778 0.0
C1038 C 0.3977 0.08701 0.85745 0.0
C1039 C 0.37464 0.99669 0.8088 0.0
C1040 C 0.44943 0.04246 0.70426 0.0
C1041 C 0.46518 0.02975 0.7631 0.0
C1042 C 0.42409 0.04514 0.72411 0.0
C1043 C 0.41411 0.03632 0.8083 0.0
C1044 C 0.43026 0.02381 0.86855 0.0
C1045 C 0.45496 0.01955 0.84265 0.0
C1046 C 0.40831 0.05679 0.65182 0.0
C1047 C 0.42167 1.01498 0.96122 0.0
H1048 H 0.35086 0.08911 0.90668 0.0
H1049 H 0.3329 1.01279 0.88762 0.0
H1050 H 0.41693 0.08136 0.86882 0.0
H1051 H 0.39645 0.09566 0.78892 0.0
H1052 H 0.3929 0.10118 0.91043 0.0
H1053 H 0.35981 0.99039 0.76155 0.0
H1054 H 0.39241 0.99467 0.77228 0.0
H1055 H 0.37434 0.98437 0.86892 0.0
H1056 H 0.45662 0.04919 0.63963 0.0
H1057 H 0.46644 1.00826 0.88547 0.0
H1058 H 0.38843 0.05594 0.66698 0.0
H1059 H 0.41155 0.04743 0.58431 0.0
H1060 H 0.41385 0.07619 0.64414 0.0
H1061 H 0.41073 0.02935 0.99758 0.0
H1062 H 0.43725 1.00974 0.00591 0.0
H1063 H 0.40991 0.99862 0.95155 0.0
C1064 C 0.48334 0.34086 0.81993 0.0
C1065 C 0.49979 0.33252 0.88671 0.0
C1066 C 0.48682 0.36351 0.77615 0.0
C1067 C 0.50715 0.37859 0.80017 0.0
C1068 C 0.52417 0.36987 0.86603 0.0
C1069 C 0.52033 0.34703 0.90812 0.0
C1070 C 0.46726 0.37216 0.71099 0.0
C1071 C 0.54539 0.38557 0.89776 0.0
C1072 C 0.52442 0.43468 0.65481 0.0
C1073 C 0.5127 0.45398 0.70304 0.0
C1074 C 0.5226 0.41011 0.68449 0.0
C1075 C 0.50895 0.40449 0.7652 0.0
C1076 C 0.49703 0.42391 0.81342 0.0
C1077 C 0.49928 0.44806 0.78235 0.0
C1078 C 0.53584 0.3903 0.6305 0.0
C1079 C 0.48263 0.41991 0.90102 0.0
H1080 H 0.46688 0.33033 0.80589 0.0
H1081 H 0.53253 0.34124 0.96262 0.0
H1082 H 0.45327 0.38257 0.75114 0.0
H1083 H 0.47482 0.38445 0.65823 0.0
H1084 H 0.45799 0.35649 0.6758 0.0
H1085 H 0.5582 0.37548 0.94293 0.0
H1086 H 0.55569 0.39246 0.83747 0.0
H1087 H 0.53829 0.40173 0.93695 0.0
H1088 H 0.53522 0.43874 0.59412 0.0
H1089 H 0.49101 0.46241 0.82316 0.0
H1090 H 0.52454 0.37346 0.62477 0.0
H1091 H 0.55295 0.38553 0.66732 0.0
H1092 H 0.54076 0.39631 0.55995 0.0
H1093 H 0.467 0.4329 0.90635 0.0
H1094 H 0.49478 0.42365 0.96101 0.0
H1095 H 0.47537 0.40105 0.90638 0.0
C1096 C 0.21418 0.51783 0.88502 0.0
C1097 C 0.21992 0.49504 0.92317 0.0
C1098 C 0.19111 0.52218 0.84237 0.0
C1099 C 0.173 0.50342 0.83751 0.0
C1100 C 0.17916 0.48014 0.87264 0.0
C1101 C 0.20227 0.47629 0.91439 0.0
C1102 C 0.18573 0.54727 0.80585 0.0
C1103 C 0.16088 0.45943 0.86983 0.0
C1104 C 0.10399 0.51909 0.82685 0.0
C1105 C 0.09805 0.51501 0.73323 0.0
C1106 C 0.12819 0.51619 0.86051 0.0
C1107 C 0.1473 0.50828 0.80015 0.0
C1108 C 0.14131 0.50395 0.70549 0.0
C1109 C 0.11704 0.50778 0.67308 0.0
C1110 C 0.1332 0.52117 0.96165 0.0
C1111 C 0.16015 0.49393 0.63871 0.0
H1112 H 0.2272 0.53269 0.89283 0.0
H1113 H 0.20621 0.45866 0.94416 0.0
H1114 H 0.17834 0.54576 0.73464 0.0
H1115 H 0.17149 0.55627 0.84943 0.0
H1116 H 0.20226 0.55911 0.80541 0.0
H1117 H 0.16868 0.44212 0.89615 0.0
H1118 H 0.14462 0.4644 0.91225 0.0
H1119 H 0.15441 0.45617 0.79807 0.0
H1120 H 0.08959 0.52472 0.87426 0.0
H1121 H 0.11274 0.50413 0.60106 0.0
H1122 H 0.1479 0.53507 0.96949 0.0
H1123 H 0.13979 0.50423 0.99472 0.0
H1124 H 0.11668 0.52782 0.99933 0.0
H1125 H 0.15518 0.49788 0.56614 0.0
H1126 H 0.16111 0.47376 0.64547 0.0
H1127 H 0.17864 0.5014 0.65363 0.0
C1128 C 1.00415 0.84077 0.45718 0.0
C1129 C 1.00905 0.83787 0.3623 0.0
C1130 C 1.00871 0.86335 0.50503 0.0
C1131 C 1.01763 0.88411 0.45671 0.0
C1132 C 0.02327 0.88081 0.36143 0.0
C1133 C 0.01935 0.85793 0.31666 0.0
C1134 C 1.00319 0.8646 0.60698 0.0
C1135 C 0.03232 0.90185 0.30469 0.0
C1136 C 1.00694 0.94946 0.56105 0.0
C1137 C 0.03099 0.95787 0.57628 0.0
C1138 C 1.00225 0.92577 0.52203 0.0
C1139 C 0.02186 0.90902 0.50426 0.0
C1140 C 0.0459 0.91678 0.52815 0.0
C1141 C 0.05013 0.94099 0.5605 0.0
C1142 C 0.97628 0.91886 0.49797 0.0
C1143 C 0.06765 0.89979 0.51988 0.0
H1144 H 0.99592 0.82569 0.49364 0.0
H1145 H 0.02333 0.856 0.24355 0.0
H1146 H 1.0109 0.88106 0.64219 0.0
H1147 H 0.98302 0.86452 0.61657 0.0
H1148 H 1.01042 0.84806 0.64114 0.0
H1149 H 0.03447 0.89682 0.23043 0.0
H1150 H 0.01915 0.91719 0.3108 0.0
H1151 H 0.05021 0.90847 0.33102 0.0
H1152 H 0.9918 0.96157 0.57761 0.0
H1153 H 0.06884 0.9466 0.57452 0.0
H1154 H 0.97039 0.90323 0.54038 0.0
H1155 H 0.97523 0.91293 0.4243 0.0
H1156 H 0.96329 0.93425 0.50993 0.0
H1157 H 0.06234 0.88019 0.51933 0.0
H1158 H 0.08056 0.90308 0.57809 0.0
H1159 H 0.07777 0.90365 0.45532 0.0
C1160 C 0.69068 0.02135 0.34084 0.0
C1161 C 0.71136 1.01293 0.38863 0.0
C1162 C 0.66802 0.02584 0.38485 0.0
C1163 C 0.66566 0.02299 0.48162 0.0
C1164 C 0.68703 1.01613 0.53182 0.0
C1165 C 0.70937 1.01078 0.48481 0.0
C1166 C 0.64618 0.03215 0.32595 0.0
C1167 C 0.68636 1.01336 0.63484 0.0
C1168 C 0.60957 0.05732 0.57969 0.0
C1169 C 0.59254 0.03859 0.59713 0.0
C1170 C 0.63364 0.05234 0.54854 0.0
C1171 C 0.64104 0.02795 0.5284 0.0
C1172 C 0.62409 1.00881 0.54698 0.0
C1173 C 0.60052 1.01428 0.58424 0.0
C1174 C 0.65129 0.07335 0.5376 0.0
C1175 C 0.63064 0.98252 0.52582 0.0
H1176 H 0.69199 0.02335 0.26707 0.0
H1177 H 0.72496 1.00402 0.52306 0.0
H1178 H 0.63299 1.01676 0.32759 0.0
H1179 H 0.63666 0.04866 0.35338 0.0
H1180 H 0.65129 0.03533 0.25286 0.0
H1181 H 0.70459 1.01705 0.66619 0.0
H1182 H 0.67268 0.02573 0.6675 0.0
H1183 H 0.68139 0.99421 0.65019 0.0
H1184 H 0.60415 0.0762 0.59179 0.0
H1185 H 0.5882 0.99952 0.60133 0.0
H1186 H 0.6562 0.07535 0.4638 0.0
H1187 H 0.66847 0.06955 0.5758 0.0
H1188 H 0.64357 0.09099 0.56352 0.0
H1189 H 0.63657 0.98051 0.45271 0.0
H1190 H 0.61503 0.96992 0.53779 0.0
H1191 H 0.64621 0.97694 0.56988 0.0
C1192 C 0.53384 0.71302 0.39151 0.0
C1193 C 0.55625 0.72503 0.4064 0.0
C1194 C 0.52872 0.69033 0.43266 0.0
C1195 C 0.54637 0.67931 0.4907 0.0
C1196 C 0.5686 0.69201 0.50892 0.0
C1197 C 0.5733 0.71454 0.46623 0.0
C1198 C 0.50525 0.67722 0.40783 0.0
C1199 C 0.58843 0.68079 0.56685 0.0
C1200 C 0.52882 0.62339 0.63544 0.0
C1201 C 0.53756 0.60383 0.58024 0.0
C1202 C 0.53156 0.64802 0.60777 0.0
C1203 C 0.5431 0.65334 0.52234 0.0
C1204 C 0.5516 0.63358 0.46625 0.0
C1205 C 0.54839 0.60939 0.49526 0.0
C1206 C 0.52166 0.6683 0.66914 0.0
C1207 C 0.56329 0.63744 0.37302 0.0
H1208 H 0.521 0.72055 0.34249 0.0
H1209 H 0.59099 0.72328 0.47534 0.0
H1210 H 0.5095 0.66131 0.36182 0.0
H1211 H 0.49629 0.67009 0.47065 0.0
H1212 H 0.49215 0.6893 0.37162 0.0
H1213 H 0.60243 0.69447 0.58866 0.0
H1214 H 0.58049 0.67238 0.62904 0.0
H1215 H 0.59764 0.66605 0.52606 0.0
H1216 H 0.51979 0.61948 0.70019 0.0
H1217 H 0.55369 0.59476 0.44883 0.0
H1218 H 0.50495 0.67602 0.63717 0.0
H1219 H 0.53517 0.68338 0.6762 0.0
H1220 H 0.51681 0.66176 0.739 0.0
H1221 H 0.54876 0.63673 0.31953 0.0
H1222 H 0.57662 0.62263 0.35616 0.0
H1223 H 0.57289 0.65525 0.36855 0.0
C1224 C 0.83801 0.52544 0.39346 0.0
C1225 C 0.82576 0.54805 0.39924 0.0
C1226 C 0.86102 0.52183 0.43677 0.0
C1227 C 0.87242 0.5413 0.4872 0.0
C1228 C 0.85953 0.5638 0.49655 0.0
C1229 C 0.83661 0.5669 0.45243 0.0
C1230 C 0.8739 0.49762 0.42317 0.0
C1231 C 0.87083 0.58534 0.54727 0.0
C1232 C 0.92931 0.5292 0.64012 0.0
C1233 C 0.94885 0.53515 0.58105 0.0
C1234 C 0.90448 0.53121 0.61132 0.0
C1235 C 0.89876 0.53917 0.52075 0.0
C1236 C 0.91849 0.54521 0.46142 0.0
C1237 C 0.94293 0.54287 0.49177 0.0
C1238 C 0.88435 0.52457 0.67766 0.0
C1239 C 0.91411 0.55338 0.36382 0.0
H1240 H 0.83036 0.51103 0.34984 0.0
H1241 H 0.82781 0.58469 0.45481 0.0
H1242 H 0.8895 0.49991 0.37492 0.0
H1243 H 0.88146 0.4912 0.48961 0.0
H1244 H 0.8615 0.48332 0.39413 0.0
H1245 H 0.85768 0.60071 0.55676 0.0
H1246 H 0.87754 0.57977 0.616 0.0
H1247 H 0.88686 0.59198 0.50772 0.0
H1248 H 0.93339 0.52298 0.70907 0.0
H1249 H 0.95747 0.54644 0.44353 0.0
H1250 H 0.8739 0.50871 0.64937 0.0
H1251 H 0.87129 0.54003 0.68577 0.0
H1252 H 0.89155 0.51986 0.74686 0.0
H1253 H 0.91091 0.53695 0.31946 0.0
H1254 H 0.93019 0.56326 0.33568 0.0
H1255 H 0.89782 0.56544 0.35914 0.0
loop_
_geom_bond_atom_site_label_1
_geom_bond_atom_site_label_2
_geom_bond_distance
_geom_bond_site_symmetry_2
_ccdc_geom_bond_type
H0 C1 0.949 . S
C1 H0 0.949 . S
C1 C2 1.395 . S
C1 C3 1.391 . S
C2 C1 1.395 . S
C2 C5 1.390 . S
C3 C1 1.391 . S
C3 C7 1.387 . S
C3 C8 1.491 . S
H4 C5 0.950 . S
C5 C2 1.390 . S
C5 H4 0.950 . S
C5 C6 1.378 . S
C6 C5 1.378 . S
C6 C7 1.409 . S
C7 C3 1.387 . S
C7 C6 1.409 . S
C7 H9 0.951 . S
C8 C3 1.491 . S
C8 C10 1.382 . S
C8 C12 1.404 . S
H9 C7 0.951 . S
C10 C8 1.382 . S
C10 C11 1.390 . S
C10 H15 0.949 . S
C11 C10 1.390 . S
C11 C16 1.399 . S
C12 C8 1.404 . S
C12 H13 0.950 . S
C12 C14 1.375 . S
H13 C12 0.950 . S
C14 C12 1.375 . S
C14 C16 1.382 . S
C14 H18 0.950 . S
H15 C10 0.949 . S
C16 C11 1.399 . S
C16 C14 1.382 . S
C16 H17 0.952 . S
H17 C16 0.952 . S
H18 C14 0.950 . S
H19 C20 0.949 . S
C20 H19 0.949 . S
C20 C21 1.395 . S
C20 C22 1.391 . S
C21 C20 1.395 . S
C21 C24 1.390 . S
C22 C20 1.391 . S
C22 C26 1.387 . S
C22 C27 1.491 . S
H23 C24 0.950 . S
C24 C21 1.390 . S
C24 H23 0.950 . S
C24 C25 1.378 . S
C25 C24 1.378 . S
C25 C26 1.409 . S
C26 C22 1.387 . S
C26 C25 1.409 . S
C26 H28 0.951 . S
C27 C22 1.491 . S
C27 C29 1.382 . S
C27 C31 1.404 . S
H28 C26 0.951 . S
C29 C27 1.382 . S
C29 C30 1.390 . S
C29 H34 0.949 . S
C30 C29 1.390 . S
C30 C35 1.399 . S
C31 C27 1.404 . S
C31 H32 0.950 . S
C31 C33 1.375 . S
H32 C31 0.950 . S
C33 C31 1.375 . S
C33 C35 1.382 . S
C33 H37 0.950 . S
H34 C29 0.949 . S
C35 C30 1.399 . S
C35 C33 1.382 . S
C35 H36 0.952 . S
H36 C35 0.952 . S
H37 C33 0.950 . S
H38 C39 0.949 . S
C39 H38 0.949 . S
C39 C40 1.395 . S
C39 C41 1.391 . S
C40 C39 1.395 . S
C40 C43 1.390 . S
C41 C39 1.391 . S
C41 C45 1.387 . S
C41 C46 1.491 . S
H42 C43 0.950 . S
C43 C40 1.390 . S
C43 H42 0.950 . S
C43 C44 1.378 . S
C44 C43 1.378 . S
C44 C45 1.409 . S
C45 C41 1.387 . S
C45 C44 1.409 . S
C45 H47 0.951 . S
C46 C41 1.491 . S
C46 C48 1.382 . S
C46 C50 1.404 . S
H47 C45 0.951 . S
C48 C46 1.382 . S
C48 C49 1.390 . S
C48 H53 0.949 . S
C49 C48 1.390 . S
C49 C54 1.399 . S
C50 C46 1.404 . S
C50 H51 0.950 . S
C50 C52 1.375 . S
H51 C50 0.950 . S
C52 C50 1.375 . S
C52 C54 1.382 . S
C52 H56 0.950 . S
H53 C48 0.949 . S
C54 C49 1.399 . S
C54 C52 1.382 . S
C54 H55 0.952 . S
H55 C54 0.952 . S
H56 C52 0.950 . S
H57 C58 0.949 . S
C58 H57 0.949 . S
C58 C59 1.395 . S
C58 C60 1.391 . S
C59 C58 1.395 . S
C59 C62 1.390 . S
C60 C58 1.391 . S
C60 C64 1.387 . S
C60 C65 1.491 . S
H61 C62 0.950 . S
C62 C59 1.390 . S
C62 H61 0.950 . S
C62 C63 1.378 . S
C63 C62 1.378 . S
C63 C64 1.409 . S
C64 C60 1.387 . S
C64 C63 1.409 . S
C64 H66 0.951 . S
C65 C60 1.491 . S
C65 C67 1.382 . S
C65 C69 1.404 . S
H66 C64 0.951 . S
C67 C65 1.382 . S
C67 C68 1.390 . S
C67 H72 0.949 . S
C68 C67 1.390 . S
C68 C73 1.399 . S
C69 C65 1.404 . S
C69 H70 0.950 . S
C69 C71 1.375 . S
H70 C69 0.950 . S
C71 C69 1.375 . S
C71 C73 1.382 . S
C71 H75 0.950 . S
H72 C67 0.949 . S
C73 C68 1.399 . S
C73 C71 1.382 . S
C73 H74 0.952 . S
H74 C73 0.952 . S
H75 C71 0.950 . S
H76 C77 0.949 . S
C77 H76 0.949 . S
C77 C78 1.395 . S
C77 C79 1.391 1_554 S
C78 C77 1.395 . S
C78 C81 1.390 1_554 S
C79 C77 1.391 1_556 S
C79 C83 1.387 . S
C79 C84 1.491 . S
H80 C81 0.950 . S
C81 C78 1.390 1_556 S
C81 H80 0.950 . S
C81 C82 1.378 . S
C82 C81 1.378 . S
C82 C83 1.409 . S
C83 C79 1.387 . S
C83 C82 1.409 . S
C83 H85 0.951 . S
C84 C79 1.491 . S
C84 C86 1.382 1_556 S
C84 C88 1.404 . S
H85 C83 0.951 . S
C86 C84 1.382 1_554 S
C86 C87 1.390 . S
C86 H91 0.949 . S
C87 C86 1.390 . S
C87 C92 1.399 1_554 S
C88 C84 1.404 . S
C88 H89 0.950 . S
C88 C90 1.375 . S
H89 C88 0.950 . S
C90 C88 1.375 . S
C90 C92 1.382 . S
C90 H94 0.950 . S
H91 C86 0.949 . S
C92 C87 1.399 1_556 S
C92 C90 1.382 . S
C92 H93 0.952 . S
H93 C92 0.952 . S
H94 C90 0.950 . S
H95 C96 0.949 . S
C96 H95 0.949 . S
C96 C97 1.395 . S
C96 C98 1.391 1_554 S
C97 C96 1.395 . S
C97 C100 1.390 1_554 S
C98 C96 1.391 1_556 S
C98 C102 1.387 . S
C98 C103 1.491 . S
H99 C100 0.950 . S
C100 C97 1.390 1_556 S
C100 H99 0.950 . S
C100 C101 1.378 . S
C101 C100 1.378 . S
C101 C102 1.409 . S
C102 C98 1.387 . S
C102 C101 1.409 . S
C102 H104 0.951 . S
C103 C98 1.491 . S
C103 C105 1.382 1_556 S
C103 C107 1.404 . S
H104 C102 0.951 . S
C105 C103 1.382 1_554 S
C105 C106 1.390 . S
C105 H110 0.949 . S
C106 C105 1.390 . S
C106 C111 1.399 1_554 S
C107 C103 1.404 . S
C107 H108 0.950 . S
C107 C109 1.375 . S
H108 C107 0.950 . S
C109 C107 1.375 . S
C109 C111 1.382 . S
C109 H113 0.950 . S
H110 C105 0.949 . S
C111 C106 1.399 1_556 S
C111 C109 1.382 . S
C111 H112 0.952 . S
H112 C111 0.952 . S
H113 C109 0.950 . S
H114 C115 0.949 . S
C115 H114 0.949 . S
C115 C116 1.395 . S
C115 C117 1.391 1_554 S
C116 C115 1.395 . S
C116 C119 1.390 1_554 S
C117 C115 1.391 1_556 S
C117 C121 1.387 . S
C117 C122 1.491 . S
H118 C119 0.950 . S
C119 C116 1.390 1_556 S
C119 H118 0.950 . S
C119 C120 1.378 . S
C120 C119 1.378 . S
C120 C121 1.409 . S
C121 C117 1.387 . S
C121 C120 1.409 . S
C121 H123 0.951 . S
C122 C117 1.491 . S
C122 C124 1.382 1_556 S
C122 C126 1.404 . S
H123 C121 0.951 . S
C124 C122 1.382 1_554 S
C124 C125 1.390 . S
C124 H129 0.949 . S
C125 C124 1.390 . S
C125 C130 1.399 1_554 S
C126 C122 1.404 . S
C126 H127 0.950 . S
C126 C128 1.375 . S
H127 C126 0.950 . S
C128 C126 1.375 . S
C128 C130 1.382 . S
C128 H132 0.950 . S
H129 C124 0.949 . S
C130 C125 1.399 1_556 S
C130 C128 1.382 . S
C130 H131 0.952 . S
H131 C130 0.952 . S
H132 C128 0.950 . S
H133 C134 0.949 . S
C134 H133 0.949 . S
C134 C135 1.395 . S
C134 C136 1.391 1_554 S
C135 C134 1.395 . S
C135 C138 1.390 1_554 S
C136 C134 1.391 1_556 S
C136 C140 1.387 . S
C136 C141 1.491 . S
H137 C138 0.950 . S
C138 C135 1.390 1_556 S
C138 H137 0.950 . S
C138 C139 1.378 . S
C139 C138 1.378 . S
C139 C140 1.409 . S
C140 C136 1.387 . S
C140 C139 1.409 . S
C140 H142 0.951 . S
C141 C136 1.491 . S
C141 C143 1.382 1_556 S
C141 C145 1.404 . S
H142 C140 0.951 . S
C143 C141 1.382 1_554 S
C143 C144 1.390 . S
C143 H148 0.949 . S
C144 C143 1.390 . S
C144 C149 1.399 1_554 S
C145 C141 1.404 . S
C145 H146 0.950 . S
C145 C147 1.375 . S
H146 C145 0.950 . S
C147 C145 1.375 . S
C147 C149 1.382 . S
C147 H151 0.950 . S
H148 C143 0.949 . S
C149 C144 1.399 1_556 S
C149 C147 1.382 . S
C149 H150 0.952 . S
H150 C149 0.952 . S
H151 C147 0.950 . S
Tb152 N183 2.660 1_565 S
Tb152 N190 2.600 1_565 S
Tb152 O196 2.546 . S
Tb152 O197 2.610 1_455 S
Tb152 O199 2.321 1_455 S
Tb152 O200 2.552 . S
Tb152 O201 2.413 . S
Tb152 O203 2.362 1_565 S
Tb152 O204 2.427 . S
Tb152 C216 2.833 . S
C153 C156 1.432 1_545 S
C153 C157 1.414 . S
C153 N160 1.359 . S
C154 C156 1.417 . S
C154 C158 1.432 . S
C154 C166 1.410 . S
C155 C157 1.444 1_565 S
C155 C158 1.317 . S
C155 H178 0.929 . S
C156 C153 1.432 1_565 S
C156 C154 1.417 . S
C156 N164 1.360 1_565 S
C157 C153 1.414 . S
C157 C155 1.444 1_545 S
C157 C162 1.385 . S
C158 C154 1.432 . S
C158 C155 1.317 . S
C158 H170 0.930 . S
C159 C161 1.392 . S
C159 C162 1.370 . S
C159 H171 0.931 . S
N160 C153 1.359 . S
N160 C161 1.327 . S
N160 Tb163 2.600 . S
C161 C159 1.392 . S
C161 N160 1.327 . S
C161 H168 0.930 . S
C162 C157 1.385 . S
C162 C159 1.370 . S
C162 H181 0.930 . S
Tb163 N160 2.600 . S
Tb163 N164 2.660 . S
Tb163 O197 2.362 1_545 S
Tb163 O198 2.421 . S
Tb163 O202 2.546 . S
Tb163 O203 2.610 1_655 S
Tb163 O205 2.320 1_655 S
Tb163 O206 2.552 1_655 S
Tb163 O207 2.417 . S
Tb163 C227 2.833 . S
N164 C156 1.360 1_545 S
N164 Tb163 2.660 . S
N164 C165 1.305 1_645 S
C165 N164 1.305 1_465 S
C165 C167 1.407 . S
C165 H172 0.930 . S
C166 C154 1.410 . S
C166 C167 1.345 1_655 S
C166 H174 0.930 . S
C167 C165 1.407 . S
C167 C166 1.345 1_455 S
C167 H169 0.930 . S
H168 C161 0.930 . S
H169 C167 0.930 . S
H170 C158 0.930 . S
H171 C159 0.931 . S
H172 C165 0.930 . S
H173 C187 0.930 1_655 S
H174 C166 0.930 . S
H175 C193 0.930 . S
H176 C184 0.930 1_655 S
H177 C191 0.931 . S
H178 C155 0.929 . S
H179 C185 0.930 . S
H180 C218 0.930 . S
H181 C162 0.930 . S
H182 C217 0.929 . S
N183 Tb152 2.660 1_545 S
N183 C184 1.305 . S
N183 C188 1.360 . S
C184 H176 0.930 1_455 S
C184 N183 1.305 . S
C184 C187 1.407 1_556 S
C185 H179 0.930 . S
C185 C186 1.410 . S
C185 C187 1.345 . S
C186 C185 1.410 . S
C186 C188 1.417 1_554 S
C186 C218 1.432 . S
C187 H173 0.930 1_455 S
C187 C184 1.407 1_554 S
C187 C185 1.345 . S
C188 N183 1.360 . S
C188 C186 1.417 1_556 S
C188 C192 1.432 . S
H189 C194 0.930 . S
N190 Tb152 2.600 1_545 S
N190 C192 1.359 . S
N190 C193 1.327 1_545 S
C191 H177 0.931 . S
C191 C193 1.392 . S
C191 C194 1.370 1_565 S
C192 C188 1.432 . S
C192 N190 1.359 . S
C192 C195 1.414 . S
C193 H175 0.930 . S
C193 N190 1.327 1_565 S
C193 C191 1.392 . S
C194 H189 0.930 . S
C194 C191 1.370 1_545 S
C194 C195 1.385 . S
C195 C192 1.414 . S
C195 C194 1.385 . S
C195 C217 1.444 1_556 S
O196 Tb152 2.546 . S
O196 C216 1.251 . S
O197 Tb152 2.610 1_655 S
O197 Tb163 2.362 1_565 S
O197 C208 1.283 . S
O198 Tb163 2.421 . S
O198 C215 1.262 . S
O199 Tb152 2.321 1_655 S
O199 C215 1.258 1_565 S
O200 Tb152 2.552 . S
O200 C208 1.243 1_455 S
O201 Tb152 2.413 . S
O201 C216 1.256 . S
O202 Tb163 2.546 . S
O202 C227 1.251 . S
O203 Tb152 2.362 1_545 S
O203 Tb163 2.610 1_455 S
O203 C219 1.283 . S
O204 Tb152 2.427 . S
O204 C226 1.236 1_565 S
O205 Tb163 2.320 1_455 S
O205 C226 1.260 . S
O206 Tb163 2.552 1_455 S
O206 C219 1.243 . S
O207 Tb163 2.417 . S
O207 C227 1.269 . S
C208 O197 1.283 . S
C208 O200 1.243 1_655 S
C209 C211 1.382 . S
C209 C213 1.393 . S
C209 C216 1.500 . S
C210 C211 1.400 . S
C210 C212 1.384 1_556 S
C211 C209 1.382 . S
C211 C210 1.400 . S
C211 H228 0.930 1_455 S
C212 C210 1.384 1_554 S
C212 C214 1.392 1_554 S
C212 H229 0.931 . S
C213 C209 1.393 . S
C213 C214 1.401 . S
C213 H230 0.930 . S
C214 C212 1.392 1_556 S
C214 C213 1.401 . S
C214 H231 0.930 . S
C215 O198 1.262 . S
C215 O199 1.258 1_545 S
C216 Tb152 2.833 . S
C216 O196 1.251 . S
C216 O201 1.256 . S
C216 C209 1.500 . S
C217 H182 0.929 . S
C217 C195 1.444 1_554 S
C217 C218 1.317 . S
C218 H180 0.930 . S
C218 C186 1.432 . S
C218 C217 1.317 . S
C219 O203 1.283 . S
C219 O206 1.243 . S
C220 C221 1.383 1_655 S
C220 C224 1.393 . S
C220 C227 1.500 . S
C221 C220 1.383 1_455 S
C221 C222 1.400 1_455 S
C221 H232 0.929 . S
C222 C221 1.400 1_655 S
C222 C223 1.384 . S
C223 C222 1.384 . S
C223 C225 1.392 . S
C223 H233 0.931 . S
C224 C220 1.393 . S
C224 C225 1.401 . S
C224 H234 0.930 . S
C225 C223 1.392 . S
C225 C224 1.401 . S
C225 H235 0.930 . S
C226 O204 1.236 1_545 S
C226 O205 1.260 . S
C227 Tb163 2.833 . S
C227 O202 1.251 . S
C227 O207 1.269 . S
C227 C220 1.500 . S
H228 C211 0.930 1_655 S
H229 C212 0.931 . S
H230 C213 0.930 . S
H231 C214 0.930 . S
H232 C221 0.929 . S
H233 C223 0.931 . S
H234 C224 0.930 . S
H235 C225 0.930 . S
Tb236 N267 2.660 . S
Tb236 N274 2.600 . S
Tb236 O280 2.546 . S
Tb236 O281 2.629 . S
Tb236 O283 2.320 1_545 S
Tb236 O284 2.552 . S
Tb236 O285 2.413 . S
Tb236 O287 2.362 . S
Tb236 O288 2.421 . S
Tb236 C300 2.833 . S
C237 C240 1.432 . S
C237 C241 1.414 . S
C237 N244 1.359 . S
C238 C240 1.417 . S
C238 C242 1.432 . S
C238 C250 1.410 . S
C239 C241 1.444 . S
C239 C242 1.317 . S
C239 H262 0.929 . S
C240 C237 1.432 . S
C240 C238 1.417 . S
C240 N248 1.360 . S
C241 C237 1.414 . S
C241 C239 1.444 . S
C241 C246 1.385 . S
C242 C238 1.432 . S
C242 C239 1.317 . S
C242 H254 0.930 . S
C243 C245 1.392 . S
C243 C246 1.370 . S
C243 H255 0.931 . S
N244 C237 1.359 . S
N244 C245 1.327 . S
N244 Tb247 2.600 . S
C245 C243 1.392 . S
C245 N244 1.327 . S
C245 H252 0.930 . S
C246 C241 1.385 . S
C246 C243 1.370 . S
C246 H265 0.930 . S
Tb247 N244 2.600 . S
Tb247 N248 2.660 . S
Tb247 O281 2.356 1_565 S
Tb247 O282 2.421 . S
Tb247 O286 2.546 . S
Tb247 O287 2.610 1_565 S
Tb247 O289 2.320 1_565 S
Tb247 O290 2.552 1_565 S
Tb247 O291 2.413 1_565 S
Tb247 C311 2.833 . S
N248 C240 1.360 . S
N248 Tb247 2.660 . S
N248 C249 1.305 1_565 S
C249 N248 1.305 1_545 S
C249 C251 1.407 . S
C249 H256 0.930 . S
C250 C238 1.410 . S
C250 C251 1.345 1_565 S
C250 H258 0.930 . S
C251 C249 1.407 . S
C251 C250 1.345 1_545 S
C251 H253 0.930 . S
H252 C245 0.930 . S
H253 C251 0.930 . S
H254 C242 0.930 . S
H255 C243 0.931 . S
H256 C249 0.930 . S
H257 C271 0.930 1_565 S
H258 C250 0.930 . S
H259 C277 0.930 . S
H260 C268 0.930 1_565 S
H261 C275 0.931 . S
H262 C239 0.929 . S
H263 C269 0.930 . S
H264 C302 0.930 . S
H265 C246 0.930 . S
H266 C301 0.929 . S
N267 Tb236 2.660 . S
N267 C268 1.305 . S
N267 C272 1.360 . S
C268 H260 0.930 1_545 S
C268 N267 1.305 . S
C268 C271 1.407 1_556 S
C269 H263 0.930 . S
C269 C270 1.410 . S
C269 C271 1.345 . S
C270 C269 1.410 . S
C270 C272 1.417 1_554 S
C270 C302 1.432 . S
C271 H257 0.930 1_545 S
C271 C268 1.407 1_554 S
C271 C269 1.345 . S
C272 N267 1.360 . S
C272 C270 1.417 1_556 S
C272 C276 1.432 . S
H273 C278 0.930 . S
N274 Tb236 2.600 . S
N274 C276 1.359 . S
N274 C277 1.327 . S
C275 H261 0.931 . S
C275 C277 1.392 . S
C275 C278 1.370 . S
C276 C272 1.432 . S
C276 N274 1.359 . S
C276 C279 1.414 . S
C277 H259 0.930 . S
C277 N274 1.327 . S
C277 C275 1.392 . S
C278 H273 0.930 . S
C278 C275 1.370 . S
C278 C279 1.385 . S
C279 C276 1.414 . S
C279 C278 1.385 . S
C279 C301 1.444 1_556 S
O280 Tb236 2.546 . S
O280 C300 1.251 . S
O281 Tb236 2.629 . S
O281 Tb247 2.356 1_545 S
O281 C292 1.284 . S
O282 Tb247 2.421 . S
O282 C299 1.262 . S
O283 Tb236 2.320 1_565 S
O283 C299 1.260 . S
O284 Tb236 2.552 . S
O284 C292 1.243 . S
O285 Tb236 2.413 . S
O285 C300 1.256 . S
O286 Tb247 2.546 . S
O286 C311 1.251 . S
O287 Tb236 2.362 . S
O287 Tb247 2.610 1_545 S
O287 C303 1.283 . S
O288 Tb236 2.421 . S
O288 C310 1.262 . S
O289 Tb247 2.320 1_545 S
O289 C310 1.260 . S
O290 Tb247 2.552 1_545 S
O290 C303 1.243 . S
O291 Tb247 2.413 1_545 S
O291 C311 1.256 1_545 S
C292 O281 1.284 . S
C292 O284 1.243 . S
C293 C295 1.382 . S
C293 C297 1.393 . S
C293 C300 1.500 . S
C294 C295 1.400 . S
C294 C296 1.384 1_556 S
C295 C293 1.382 . S
C295 C294 1.400 . S
C295 H312 0.930 . S
C296 C294 1.384 1_554 S
C296 C298 1.392 1_554 S
C296 H313 0.931 . S
C297 C293 1.393 . S
C297 C298 1.401 . S
C297 H314 0.930 . S
C298 C296 1.392 1_556 S
C298 C297 1.401 . S
C298 H315 0.930 . S
C299 O282 1.262 . S
C299 O283 1.260 . S
C300 Tb236 2.833 . S
C300 O280 1.251 . S
C300 O285 1.256 . S
C300 C293 1.500 . S
C301 H266 0.929 . S
C301 C279 1.444 1_554 S
C301 C302 1.317 . S
C302 H264 0.930 . S
C302 C270 1.432 . S
C302 C301 1.317 . S
C303 O287 1.283 . S
C303 O290 1.243 . S
C304 C305 1.382 1_565 S
C304 C308 1.393 . S
C304 C311 1.500 . S
C305 C304 1.382 1_545 S
C305 C306 1.403 . S
C305 H316 0.930 . S
C306 C305 1.403 . S
C306 C307 1.352 1_545 S
C307 C306 1.352 1_565 S
C307 C309 1.392 . S
C307 H317 0.931 . S
C308 C304 1.393 . S
C308 C309 1.401 . S
C308 H318 0.930 . S
C309 C307 1.392 . S
C309 C308 1.401 . S
C309 H319 0.930 . S
C310 O288 1.262 . S
C310 O289 1.260 . S
C311 Tb247 2.833 . S
C311 O286 1.251 . S
C311 O291 1.256 1_565 S
C311 C304 1.500 . S
H312 C295 0.930 . S
H313 C296 0.931 . S
H314 C297 0.930 . S
H315 C298 0.930 . S
H316 C305 0.930 . S
H317 C307 0.931 . S
H318 C308 0.930 . S
H319 C309 0.930 . S
Tb320 N351 2.660 . S
Tb320 N358 2.600 . S
Tb320 O364 2.546 . S
Tb320 O365 2.610 . S
Tb320 O367 2.320 . S
Tb320 O368 2.552 . S
Tb320 O369 2.413 . S
Tb320 O371 2.362 . S
Tb320 O372 2.421 . S
Tb320 C384 2.833 . S
C321 C324 1.432 . S
C321 C325 1.414 . S
C321 N328 1.359 . S
C322 C324 1.417 . S
C322 C326 1.432 . S
C322 C334 1.410 . S
C323 C325 1.444 . S
C323 C326 1.317 . S
C323 H346 0.929 . S
C324 C321 1.432 . S
C324 C322 1.417 . S
C324 N332 1.360 . S
C325 C321 1.414 . S
C325 C323 1.444 . S
C325 C330 1.385 . S
C326 C322 1.432 . S
C326 C323 1.317 . S
C326 H338 0.930 . S
C327 C329 1.392 . S
C327 C330 1.370 . S
C327 H339 0.931 . S
N328 C321 1.359 . S
N328 C329 1.327 . S
N328 Tb331 2.600 . S
C329 C327 1.392 . S
C329 N328 1.327 . S
C329 H336 0.930 . S
C330 C325 1.385 . S
C330 C327 1.370 . S
C330 H349 0.930 . S
Tb331 N328 2.600 . S
Tb331 N332 2.660 . S
Tb331 O365 2.362 . S
Tb331 O366 2.421 . S
Tb331 O370 2.546 . S
Tb331 O371 2.610 . S
Tb331 O373 2.320 . S
Tb331 O374 2.552 . S
Tb331 O375 2.413 . S
Tb331 C395 2.833 . S
N332 C324 1.360 . S
N332 Tb331 2.660 . S
N332 C333 1.305 . S
C333 N332 1.305 . S
C333 C335 1.407 . S
C333 H340 0.930 . S
C334 C322 1.410 . S
C334 C335 1.345 . S
C334 H342 0.930 . S
C335 C333 1.407 . S
C335 C334 1.345 . S
C335 H337 0.930 . S
H336 C329 0.930 . S
H337 C335 0.930 . S
H338 C326 0.930 . S
H339 C327 0.931 . S
H340 C333 0.930 . S
H341 C355 0.930 . S
H342 C334 0.930 . S
H343 C361 0.930 . S
H344 C352 0.930 . S
H345 C359 0.931 . S
H346 C323 0.929 . S
H347 C353 0.930 . S
H348 C386 0.930 . S
H349 C330 0.930 . S
H350 C385 0.929 . S
N351 Tb320 2.660 . S
N351 C352 1.305 . S
N351 C356 1.360 . S
C352 H344 0.930 . S
C352 N351 1.305 . S
C352 C355 1.407 . S
C353 H347 0.930 . S
C353 C354 1.410 . S
C353 C355 1.345 . S
C354 C353 1.410 . S
C354 C356 1.417 . S
C354 C386 1.432 . S
C355 H341 0.930 . S
C355 C352 1.407 . S
C355 C353 1.345 . S
C356 N351 1.360 . S
C356 C354 1.417 . S
C356 C360 1.432 . S
H357 C362 0.930 . S
N358 Tb320 2.600 . S
N358 C360 1.359 . S
N358 C361 1.327 . S
C359 H345 0.931 . S
C359 C361 1.392 . S
C359 C362 1.370 . S
C360 C356 1.432 . S
C360 N358 1.359 . S
C360 C363 1.414 . S
C361 H343 0.930 . S
C361 N358 1.327 . S
C361 C359 1.392 . S
C362 H357 0.930 . S
C362 C359 1.370 . S
C362 C363 1.385 . S
C363 C360 1.414 . S
C363 C362 1.385 . S
C363 C385 1.444 . S
O364 Tb320 2.546 . S
O364 C384 1.251 . S
O365 Tb320 2.610 . S
O365 Tb331 2.362 . S
O365 C376 1.283 . S
O366 Tb331 2.421 . S
O366 C383 1.262 . S
O367 Tb320 2.320 . S
O367 C383 1.260 . S
O368 Tb320 2.552 . S
O368 C376 1.243 . S
O369 Tb320 2.413 . S
O369 C384 1.256 . S
O370 Tb331 2.546 . S
O370 C395 1.251 . S
O371 Tb320 2.362 . S
O371 Tb331 2.610 . S
O371 C387 1.283 . S
O372 Tb320 2.421 . S
O372 C394 1.262 . S
O373 Tb331 2.320 . S
O373 C394 1.260 . S
O374 Tb331 2.552 . S
O374 C387 1.243 . S
O375 Tb331 2.413 . S
O375 C395 1.256 . S
C376 O365 1.283 . S
C376 O368 1.243 . S
C377 C379 1.382 . S
C377 C381 1.393 . S
C377 C384 1.500 . S
C378 C379 1.400 . S
C378 C380 1.384 . S
C379 C377 1.382 . S
C379 C378 1.400 . S
C379 H396 0.930 . S
C380 C378 1.384 . S
C380 C382 1.392 . S
C380 H397 0.931 . S
C381 C377 1.393 . S
C381 C382 1.401 . S
C381 H398 0.930 . S
C382 C380 1.392 . S
C382 C381 1.401 . S
C382 H399 0.930 . S
C383 O366 1.262 . S
C383 O367 1.260 . S
C384 Tb320 2.833 . S
C384 O364 1.251 . S
C384 O369 1.256 . S
C384 C377 1.500 . S
C385 H350 0.929 . S
C385 C363 1.444 . S
C385 C386 1.317 . S
C386 H348 0.930 . S
C386 C354 1.432 . S
C386 C385 1.317 . S
C387 O371 1.283 . S
C387 O374 1.243 . S
C388 C389 1.382 . S
C388 C392 1.393 1_556 S
C388 C395 1.500 . S
C389 C388 1.382 . S
C389 C390 1.400 1_556 S
C389 H400 0.930 . S
C390 C389 1.400 1_554 S
C390 C391 1.384 . S
C391 C390 1.384 . S
C391 C393 1.392 . S
C391 H401 0.931 . S
C392 C388 1.393 1_554 S
C392 C393 1.401 . S
C392 H402 0.930 . S
C393 C391 1.392 . S
C393 C392 1.401 . S
C393 H403 0.930 . S
C394 O372 1.262 . S
C394 O373 1.260 . S
C395 Tb331 2.833 . S
C395 O370 1.251 . S
C395 O375 1.256 . S
C395 C388 1.500 . S
H396 C379 0.930 . S
H397 C380 0.931 . S
H398 C381 0.930 . S
H399 C382 0.930 . S
H400 C389 0.930 . S
H401 C391 0.931 . S
H402 C392 0.930 . S
H403 C393 0.930 . S
Tb404 N435 2.660 . S
Tb404 N442 2.600 . S
Tb404 O448 2.546 . S
Tb404 O449 2.610 . S
Tb404 O451 2.320 . S
Tb404 O452 2.552 . S
Tb404 O453 2.413 . S
Tb404 O455 2.362 . S
Tb404 O456 2.421 1_455 S
Tb404 C468 2.833 . S
C405 C408 1.432 . S
C405 C409 1.414 . S
C405 N412 1.359 . S
C406 C408 1.417 . S
C406 C410 1.432 . S
C406 C418 1.410 . S
C407 C409 1.444 . S
C407 C410 1.317 . S
C407 H430 0.929 . S
C408 C405 1.432 . S
C408 C406 1.417 . S
C408 N416 1.360 . S
C409 C405 1.414 . S
C409 C407 1.444 . S
C409 C414 1.385 1_655 S
C410 C406 1.432 . S
C410 C407 1.317 . S
C410 H422 0.930 . S
C411 C413 1.392 . S
C411 C414 1.370 . S
C411 H423 0.931 . S
N412 C405 1.359 . S
N412 C413 1.327 1_655 S
N412 Tb415 2.600 . S
C413 C411 1.392 . S
C413 N412 1.327 1_455 S
C413 H420 0.930 . S
C414 C409 1.385 1_455 S
C414 C411 1.370 . S
C414 H433 0.930 . S
Tb415 N412 2.600 . S
Tb415 N416 2.660 . S
Tb415 O449 2.362 1_655 S
Tb415 O450 2.421 1_655 S
Tb415 O454 2.546 . S
Tb415 O455 2.610 1_655 S
Tb415 O457 2.320 . S
Tb415 O458 2.552 . S
Tb415 O459 2.413 . S
Tb415 C479 2.833 . S
N416 C408 1.360 . S
N416 Tb415 2.660 . S
N416 C417 1.305 . S
C417 N416 1.305 . S
C417 C419 1.407 . S
C417 H424 0.930 . S
C418 C406 1.410 . S
C418 C419 1.345 . S
C418 H426 0.930 . S
C419 C417 1.407 . S
C419 C418 1.345 . S
C419 H421 0.930 . S
H420 C413 0.930 . S
H421 C419 0.930 . S
H422 C410 0.930 . S
H423 C411 0.931 . S
H424 C417 0.930 . S
H425 C439 0.930 . S
H426 C418 0.930 . S
H427 C445 0.930 1_655 S
H428 C436 0.930 . S
H429 C443 0.931 . S
H430 C407 0.929 . S
H431 C437 0.930 . S
H432 C470 0.930 . S
H433 C414 0.930 . S
H434 C469 0.929 . S
N435 Tb404 2.660 . S
N435 C436 1.305 . S
N435 C440 1.360 . S
C436 H428 0.930 . S
C436 N435 1.305 . S
C436 C439 1.407 . S
C437 H431 0.930 . S
C437 C438 1.410 . S
C437 C439 1.345 . S
C438 C437 1.410 . S
C438 C440 1.417 . S
C438 C470 1.432 . S
C439 H425 0.930 . S
C439 C436 1.407 . S
C439 C437 1.345 . S
C440 N435 1.360 . S
C440 C438 1.417 . S
C440 C444 1.432 . S
H441 C446 0.930 . S
N442 Tb404 2.600 . S
N442 C444 1.359 . S
N442 C445 1.327 . S
C443 H429 0.931 . S
C443 C445 1.392 1_655 S
C443 C446 1.370 1_655 S
C444 C440 1.432 . S
C444 N442 1.359 . S
C444 C447 1.414 . S
C445 H427 0.930 1_455 S
C445 N442 1.327 . S
C445 C443 1.392 1_455 S
C446 H441 0.930 . S
C446 C443 1.370 1_455 S
C446 C447 1.385 . S
C447 C444 1.414 . S
C447 C446 1.385 . S
C447 C469 1.444 . S
O448 Tb404 2.546 . S
O448 C468 1.251 . S
O449 Tb404 2.610 . S
O449 Tb415 2.362 1_455 S
O449 C460 1.283 . S
O450 Tb415 2.421 1_455 S
O450 C467 1.262 . S
O451 Tb404 2.320 . S
O451 C467 1.260 . S
O452 Tb404 2.552 . S
O452 C460 1.243 . S
O453 Tb404 2.413 . S
O453 C468 1.256 . S
O454 Tb415 2.546 . S
O454 C479 1.251 . S
O455 Tb404 2.362 . S
O455 Tb415 2.610 1_455 S
O455 C471 1.283 1_455 S
O456 Tb404 2.421 1_655 S
O456 C478 1.262 . S
O457 Tb415 2.320 . S
O457 C478 1.260 . S
O458 Tb415 2.552 . S
O458 C471 1.243 . S
O459 Tb415 2.413 . S
O459 C479 1.256 . S
C460 O449 1.283 . S
C460 O452 1.243 . S
C461 C463 1.382 . S
C461 C465 1.393 . S
C461 C468 1.500 . S
C462 C463 1.400 . S
C462 C464 1.384 . S
C463 C461 1.382 . S
C463 C462 1.400 . S
C463 H480 0.930 . S
C464 C462 1.384 . S
C464 C466 1.392 . S
C464 H481 0.931 . S
C465 C461 1.393 . S
C465 C466 1.401 . S
C465 H482 0.930 . S
C466 C464 1.392 . S
C466 C465 1.401 . S
C466 H483 0.930 . S
C467 O450 1.262 . S
C467 O451 1.260 . S
C468 Tb404 2.833 . S
C468 O448 1.251 . S
C468 O453 1.256 . S
C468 C461 1.500 . S
C469 H434 0.929 . S
C469 C447 1.444 . S
C469 C470 1.317 . S
C470 H432 0.930 . S
C470 C438 1.432 . S
C470 C469 1.317 . S
C471 O455 1.283 1_655 S
C471 O458 1.243 . S
C472 C473 1.382 . S
C472 C476 1.393 1_556 S
C472 C479 1.500 . S
C473 C472 1.382 . S
C473 C474 1.400 1_556 S
C473 H484 0.930 . S
C474 C473 1.400 1_554 S
C474 C475 1.384 . S
C475 C474 1.384 . S
C475 C477 1.392 . S
C475 H485 0.931 . S
C476 C472 1.393 1_554 S
C476 C477 1.401 . S
C476 H486 0.930 . S
C477 C475 1.392 . S
C477 C476 1.401 . S
C477 H487 0.930 . S
C478 O456 1.262 . S
C478 O457 1.260 . S
C479 Tb415 2.833 . S
C479 O454 1.251 . S
C479 O459 1.256 . S
C479 C472 1.500 . S
H480 C463 0.930 . S
H481 C464 0.931 . S
H482 C465 0.930 . S
H483 C466 0.930 . S
H484 C473 0.930 . S
H485 C475 0.931 . S
H486 C476 0.930 . S
H487 C477 0.930 . S
C488 C489 1.391 . S
C488 C490 1.394 . S
C488 H504 0.931 . S
C489 C488 1.391 . S
C489 C493 1.376 . S
C490 C488 1.394 . S
C490 C491 1.369 . S
C490 C494 1.531 . S
C491 C490 1.369 . S
C491 C492 1.410 . S
C491 C499 1.503 . S
C492 C491 1.410 . S
C492 C493 1.392 . S
C492 C495 1.511 . S
C493 C489 1.376 . S
C493 C492 1.392 . S
C493 H505 0.929 . S
C494 C490 1.531 . S
C494 H506 0.960 . S
C494 H507 0.962 . S
C494 H508 0.960 . S
C495 C492 1.511 . S
C495 H509 0.961 . S
C495 H510 0.961 . S
C495 H511 0.961 . S
C496 C497 1.370 . S
C496 C498 1.363 . S
C496 H512 0.931 1_545 S
C497 C496 1.370 . S
C497 C501 1.408 . S
C498 C496 1.363 . S
C498 C499 1.370 . S
C498 C502 1.524 1_545 S
C499 C491 1.503 . S
C499 C498 1.370 . S
C499 C500 1.403 . S
C500 C499 1.403 . S
C500 C501 1.404 . S
C500 C503 1.539 . S
C501 C497 1.408 . S
C501 C500 1.404 . S
C501 H513 0.930 . S
C502 C498 1.524 1_565 S
C502 H514 0.956 . S
C502 H515 0.961 1_565 S
C502 H516 0.961 . S
C503 C500 1.539 . S
C503 H517 0.958 . S
C503 H518 0.961 . S
C503 H519 0.960 . S
H504 C488 0.931 . S
H505 C493 0.929 . S
H506 C494 0.960 . S
H507 C494 0.962 . S
H508 C494 0.960 . S
H509 C495 0.961 . S
H510 C495 0.961 . S
H511 C495 0.961 . S
H512 C496 0.931 1_565 S
H513 C501 0.930 . S
H514 C502 0.956 . S
H515 C502 0.961 1_545 S
H516 C502 0.961 . S
H517 C503 0.958 . S
H518 C503 0.961 . S
H519 C503 0.960 . S
C520 C521 1.391 . S
C520 C522 1.394 . S
C520 H536 0.931 . S
C521 C520 1.391 . S
C521 C525 1.376 . S
C522 C520 1.394 . S
C522 C523 1.369 . S
C522 C526 1.531 . S
C523 C522 1.369 . S
C523 C524 1.410 . S
C523 C531 1.503 . S
C524 C523 1.410 . S
C524 C525 1.392 . S
C524 C527 1.511 . S
C525 C521 1.376 . S
C525 C524 1.392 . S
C525 H537 0.929 . S
C526 C522 1.531 . S
C526 H538 0.960 . S
C526 H539 0.962 . S
C526 H540 0.960 . S
C527 C524 1.511 . S
C527 H541 0.961 . S
C527 H542 0.961 . S
C527 H543 0.961 . S
C528 C529 1.370 . S
C528 C530 1.363 . S
C528 H544 0.931 . S
C529 C528 1.370 . S
C529 C533 1.408 . S
C530 C528 1.363 . S
C530 C531 1.370 . S
C530 C534 1.524 . S
C531 C523 1.503 . S
C531 C530 1.370 . S
C531 C532 1.403 . S
C532 C531 1.403 . S
C532 C533 1.404 . S
C532 C535 1.539 . S
C533 C529 1.408 . S
C533 C532 1.404 . S
C533 H545 0.930 . S
C534 C530 1.524 . S
C534 H546 0.956 . S
C534 H547 0.961 . S
C534 H548 0.961 . S
C535 C532 1.539 . S
C535 H549 0.958 . S
C535 H550 0.961 . S
C535 H551 0.960 . S
H536 C520 0.931 . S
H537 C525 0.929 . S
H538 C526 0.960 . S
H539 C526 0.962 . S
H540 C526 0.960 . S
H541 C527 0.961 . S
H542 C527 0.961 . S
H543 C527 0.961 . S
H544 C528 0.931 . S
H545 C533 0.930 . S
H546 C534 0.956 . S
H547 C534 0.961 . S
H548 C534 0.961 . S
H549 C535 0.958 . S
H550 C535 0.961 . S
H551 C535 0.960 . S
C552 C553 1.391 . S
C552 C554 1.394 . S
C552 H568 0.931 . S
C553 C552 1.391 . S
C553 C557 1.376 . S
C554 C552 1.394 . S
C554 C555 1.369 . S
C554 C558 1.531 . S
C555 C554 1.369 . S
C555 C556 1.410 . S
C555 C563 1.503 . S
C556 C555 1.410 . S
C556 C557 1.392 . S
C556 C559 1.511 . S
C557 C553 1.376 . S
C557 C556 1.392 . S
C557 H569 0.929 . S
C558 C554 1.531 . S
C558 H570 0.960 . S
C558 H571 0.962 . S
C558 H572 0.960 . S
C559 C556 1.511 . S
C559 H573 0.961 . S
C559 H574 0.961 . S
C559 H575 0.961 . S
C560 C561 1.370 . S
C560 C562 1.363 . S
C560 H576 0.931 . S
C561 C560 1.370 . S
C561 C565 1.408 . S
C562 C560 1.363 . S
C562 C563 1.370 . S
C562 C566 1.524 . S
C563 C555 1.503 . S
C563 C562 1.370 . S
C563 C564 1.403 . S
C564 C563 1.403 . S
C564 C565 1.404 . S
C564 C567 1.539 . S
C565 C561 1.408 . S
C565 C564 1.404 . S
C565 H577 0.930 . S
C566 C562 1.524 . S
C566 H578 0.956 . S
C566 H579 0.961 . S
C566 H580 0.961 . S
C567 C564 1.539 . S
C567 H581 0.958 . S
C567 H582 0.961 . S
C567 H583 0.960 . S
H568 C552 0.931 . S
H569 C557 0.929 . S
H570 C558 0.960 . S
H571 C558 0.962 . S
H572 C558 0.960 . S
H573 C559 0.961 . S
H574 C559 0.961 . S
H575 C559 0.961 . S
H576 C560 0.931 . S
H577 C565 0.930 . S
H578 C566 0.956 . S
H579 C566 0.961 . S
H580 C566 0.961 . S
H581 C567 0.958 . S
H582 C567 0.961 . S
H583 C567 0.960 . S
C584 C585 1.391 . S
C584 C586 1.394 . S
C584 H600 0.931 . S
C585 C584 1.391 . S
C585 C589 1.376 . S
C586 C584 1.394 . S
C586 C587 1.369 . S
C586 C590 1.531 . S
C587 C586 1.369 . S
C587 C588 1.410 . S
C587 C595 1.503 . S
C588 C587 1.410 . S
C588 C589 1.392 . S
C588 C591 1.511 . S
C589 C585 1.376 . S
C589 C588 1.392 . S
C589 H601 0.929 . S
C590 C586 1.531 . S
C590 H602 0.960 . S
C590 H603 0.962 . S
C590 H604 0.960 . S
C591 C588 1.511 . S
C591 H605 0.961 . S
C591 H606 0.961 . S
C591 H607 0.961 . S
C592 C593 1.370 . S
C592 C594 1.363 . S
C592 H608 0.931 . S
C593 C592 1.370 . S
C593 C597 1.408 . S
C594 C592 1.363 . S
C594 C595 1.370 . S
C594 C598 1.524 . S
C595 C587 1.503 . S
C595 C594 1.370 . S
C595 C596 1.403 . S
C596 C595 1.403 . S
C596 C597 1.404 . S
C596 C599 1.539 1_455 S
C597 C593 1.408 . S
C597 C596 1.404 . S
C597 H609 0.930 1_455 S
C598 C594 1.524 . S
C598 H610 0.956 . S
C598 H611 0.961 . S
C598 H612 0.961 . S
C599 C596 1.539 1_655 S
C599 H613 0.958 . S
C599 H614 0.961 . S
C599 H615 0.960 . S
H600 C584 0.931 . S
H601 C589 0.929 . S
H602 C590 0.960 . S
H603 C590 0.962 . S
H604 C590 0.960 . S
H605 C591 0.961 . S
H606 C591 0.961 . S
H607 C591 0.961 . S
H608 C592 0.931 . S
H609 C597 0.930 1_655 S
H610 C598 0.956 . S
H611 C598 0.961 . S
H612 C598 0.961 . S
H613 C599 0.958 . S
H614 C599 0.961 . S
H615 C599 0.960 . S
C616 C617 1.391 . S
C616 C618 1.394 . S
C616 H632 0.931 . S
C617 C616 1.391 . S
C617 C621 1.376 . S
C618 C616 1.394 . S
C618 C619 1.369 . S
C618 C622 1.531 1_564 S
C619 C618 1.369 . S
C619 C620 1.410 . S
C619 C627 1.503 1_554 S
C620 C619 1.410 . S
C620 C621 1.392 . S
C620 C623 1.511 . S
C621 C617 1.376 . S
C621 C620 1.392 . S
C621 H633 0.929 . S
C622 C618 1.531 1_546 S
C622 H634 0.960 . S
C622 H635 0.962 . S
C622 H636 0.960 1_556 S
C623 C620 1.511 . S
C623 H637 0.961 . S
C623 H638 0.961 . S
C623 H639 0.961 . S
C624 C625 1.370 . S
C624 C626 1.363 . S
C624 H640 0.931 . S
C625 C624 1.370 . S
C625 C629 1.408 1_565 S
C626 C624 1.363 . S
C626 C627 1.370 . S
C626 C630 1.524 . S
C627 C619 1.503 1_556 S
C627 C626 1.370 . S
C627 C628 1.403 1_565 S
C628 C627 1.403 1_545 S
C628 C629 1.404 . S
C628 C631 1.539 1_556 S
C629 C625 1.408 1_545 S
C629 C628 1.404 . S
C629 H641 0.930 . S
C630 C626 1.524 . S
C630 H642 0.956 . S
C630 H643 0.961 . S
C630 H644 0.961 . S
C631 C628 1.539 1_554 S
C631 H645 0.958 . S
C631 H646 0.961 . S
C631 H647 0.960 . S
H632 C616 0.931 . S
H633 C621 0.929 . S
H634 C622 0.960 . S
H635 C622 0.962 . S
H636 C622 0.960 1_554 S
H637 C623 0.961 . S
H638 C623 0.961 . S
H639 C623 0.961 . S
H640 C624 0.931 . S
H641 C629 0.930 . S
H642 C630 0.956 . S
H643 C630 0.961 . S
H644 C630 0.961 . S
H645 C631 0.958 . S
H646 C631 0.961 . S
H647 C631 0.960 . S
C648 C649 1.391 . S
C648 C650 1.394 . S
C648 H664 0.931 . S
C649 C648 1.391 . S
C649 C653 1.376 . S
C650 C648 1.394 . S
C650 C651 1.369 . S
C650 C654 1.531 . S
C651 C650 1.369 . S
C651 C652 1.410 . S
C651 C659 1.503 1_554 S
C652 C651 1.410 . S
C652 C653 1.392 . S
C652 C655 1.511 1_554 S
C653 C649 1.376 . S
C653 C652 1.392 . S
C653 H665 0.929 . S
C654 C650 1.531 . S
C654 H666 0.960 . S
C654 H667 0.962 . S
C654 H668 0.960 . S
C655 C652 1.511 1_556 S
C655 H669 0.961 . S
C655 H670 0.961 . S
C655 H671 0.961 . S
C656 C657 1.370 . S
C656 C658 1.363 . S
C656 H672 0.931 . S
C657 C656 1.370 . S
C657 C661 1.408 . S
C658 C656 1.363 . S
C658 C659 1.370 . S
C658 C662 1.524 . S
C659 C651 1.503 1_556 S
C659 C658 1.370 . S
C659 C660 1.403 . S
C660 C659 1.403 . S
C660 C661 1.404 . S
C660 C663 1.539 1_556 S
C661 C657 1.408 . S
C661 C660 1.404 . S
C661 H673 0.930 . S
C662 C658 1.524 . S
C662 H674 0.956 . S
C662 H675 0.961 . S
C662 H676 0.961 . S
C663 C660 1.539 1_554 S
C663 H677 0.958 . S
C663 H678 0.961 . S
C663 H679 0.960 . S
H664 C648 0.931 . S
H665 C653 0.929 . S
H666 C654 0.960 . S
H667 C654 0.962 . S
H668 C654 0.960 . S
H669 C655 0.961 . S
H670 C655 0.961 . S
H671 C655 0.961 . S
H672 C656 0.931 . S
H673 C661 0.930 . S
H674 C662 0.956 . S
H675 C662 0.961 . S
H676 C662 0.961 . S
H677 C663 0.958 . S
H678 C663 0.961 . S
H679 C663 0.960 . S
C680 C681 1.391 . S
C680 C682 1.394 . S
C680 H696 0.931 . S
C681 C680 1.391 . S
C681 C685 1.376 . S
C682 C680 1.394 . S
C682 C683 1.369 1_554 S
C682 C686 1.531 . S
C683 C682 1.369 1_556 S
C683 C684 1.410 1_556 S
C683 C691 1.503 . S
C684 C683 1.410 1_554 S
C684 C685 1.392 . S
C684 C687 1.511 1_554 S
C685 C681 1.376 . S
C685 C684 1.392 . S
C685 H697 0.929 . S
C686 C682 1.531 . S
C686 H698 0.960 1_554 S
C686 H699 0.962 . S
C686 H700 0.960 . S
C687 C684 1.511 1_556 S
C687 H701 0.961 . S
C687 H702 0.961 . S
C687 H703 0.961 . S
C688 C689 1.370 . S
C688 C690 1.363 . S
C688 H704 0.931 . S
C689 C688 1.370 . S
C689 C693 1.408 . S
C690 C688 1.363 . S
C690 C691 1.370 . S
C690 C694 1.524 1_556 S
C691 C683 1.503 . S
C691 C690 1.370 . S
C691 C692 1.403 . S
C692 C691 1.403 . S
C692 C693 1.404 . S
C692 C695 1.539 . S
C693 C689 1.408 . S
C693 C692 1.404 . S
C693 H705 0.930 . S
C694 C690 1.524 1_554 S
C694 H706 0.956 . S
C694 H707 0.961 . S
C694 H708 0.961 . S
C695 C692 1.539 . S
C695 H709 0.958 . S
C695 H710 0.961 . S
C695 H711 0.960 . S
H696 C680 0.931 . S
H697 C685 0.929 . S
H698 C686 0.960 1_556 S
H699 C686 0.962 . S
H700 C686 0.960 . S
H701 C687 0.961 . S
H702 C687 0.961 . S
H703 C687 0.961 . S
H704 C688 0.931 . S
H705 C693 0.930 . S
H706 C694 0.956 . S
H707 C694 0.961 . S
H708 C694 0.961 . S
H709 C695 0.958 . S
H710 C695 0.961 . S
H711 C695 0.960 . S
C712 C713 1.391 . S
C712 C714 1.394 . S
C712 H728 0.931 . S
C713 C712 1.391 . S
C713 C717 1.376 . S
C714 C712 1.394 . S
C714 C715 1.369 1_554 S
C714 C718 1.531 1_554 S
C715 C714 1.369 1_556 S
C715 C716 1.410 1_556 S
C715 C723 1.503 . S
C716 C715 1.410 1_554 S
C716 C717 1.392 . S
C716 C719 1.511 1_655 S
C717 C713 1.376 . S
C717 C716 1.392 . S
C717 H729 0.929 . S
C718 C714 1.531 1_556 S
C718 H730 0.960 . S
C718 H731 0.962 . S
C718 H732 0.960 . S
C719 C716 1.511 1_455 S
C719 H733 0.961 . S
C719 H734 0.960 1_554 S
C719 H735 0.961 1_554 S
C720 C721 1.370 . S
C720 C722 1.363 . S
C720 H736 0.931 . S
C721 C720 1.370 . S
C721 C725 1.408 . S
C722 C720 1.363 . S
C722 C723 1.370 . S
C722 C726 1.524 1_556 S
C723 C715 1.503 . S
C723 C722 1.370 . S
C723 C724 1.403 . S
C724 C723 1.403 . S
C724 C725 1.404 . S
C724 C727 1.539 . S
C725 C721 1.408 . S
C725 C724 1.404 . S
C725 H737 0.930 . S
C726 C722 1.524 1_554 S
C726 H738 0.956 . S
C726 H739 0.961 . S
C726 H740 0.961 . S
C727 C724 1.539 . S
C727 H741 0.958 . S
C727 H742 0.961 . S
C727 H743 0.960 . S
H728 C712 0.931 . S
H729 C717 0.929 . S
H730 C718 0.960 . S
H731 C718 0.962 . S
H732 C718 0.960 . S
H733 C719 0.961 . S
H734 C719 0.960 1_556 S
H735 C719 0.961 1_556 S
H736 C720 0.931 . S
H737 C725 0.930 . S
H738 C726 0.956 . S
H739 C726 0.961 . S
H740 C726 0.961 . S
H741 C727 0.958 . S
H742 C727 0.961 . S
H743 C727 0.960 . S
C744 C745 1.391 . S
C744 C746 1.394 . S
C744 H760 0.931 . S
C745 C744 1.391 . S
C745 C749 1.376 . S
C746 C744 1.394 . S
C746 C747 1.369 . S
C746 C750 1.531 1_455 S
C747 C746 1.369 . S
C747 C748 1.410 . S
C747 C755 1.503 . S
C748 C747 1.410 . S
C748 C749 1.392 . S
C748 C751 1.511 . S
C749 C745 1.376 . S
C749 C748 1.392 . S
C749 H761 0.929 . S
C750 C746 1.531 1_655 S
C750 H762 0.960 . S
C750 H763 0.962 . S
C750 H764 0.960 . S
C751 C748 1.511 . S
C751 H765 0.961 . S
C751 H766 0.961 . S
C751 H767 0.961 . S
C752 C753 1.370 . S
C752 C754 1.363 . S
C752 H768 0.931 . S
C753 C752 1.370 . S
C753 C757 1.408 . S
C754 C752 1.363 . S
C754 C755 1.370 . S
C754 C758 1.524 . S
C755 C747 1.503 . S
C755 C754 1.370 . S
C755 C756 1.403 . S
C756 C755 1.403 . S
C756 C757 1.404 . S
C756 C759 1.539 . S
C757 C753 1.408 . S
C757 C756 1.404 . S
C757 H769 0.930 . S
C758 C754 1.524 . S
C758 H770 0.956 . S
C758 H771 0.961 . S
C758 H772 0.961 . S
C759 C756 1.539 . S
C759 H773 0.958 . S
C759 H774 0.961 . S
C759 H775 0.960 . S
H760 C744 0.931 . S
H761 C749 0.929 . S
H762 C750 0.960 . S
H763 C750 0.962 . S
H764 C750 0.960 . S
H765 C751 0.961 . S
H766 C751 0.961 . S
H767 C751 0.961 . S
H768 C752 0.931 . S
H769 C757 0.930 . S
H770 C758 0.956 . S
H771 C758 0.961 . S
H772 C758 0.961 . S
H773 C759 0.958 . S
H774 C759 0.961 . S
H775 C759 0.960 . S
C776 C777 1.391 . S
C776 C778 1.394 . S
C776 H792 0.931 . S
C777 C776 1.391 . S
C777 C781 1.376 . S
C778 C776 1.394 . S
C778 C779 1.369 . S
C778 C782 1.531 . S
C779 C778 1.369 . S
C779 C780 1.410 . S
C779 C787 1.503 . S
C780 C779 1.410 . S
C780 C781 1.392 . S
C780 C783 1.511 . S
C781 C777 1.376 . S
C781 C780 1.392 . S
C781 H793 0.929 1_554 S
C782 C778 1.531 . S
C782 H794 0.960 . S
C782 H795 0.962 . S
C782 H796 0.960 . S
C783 C780 1.511 . S
C783 H797 0.961 1_554 S
C783 H798 0.961 . S
C783 H799 0.961 1_554 S
C784 C785 1.370 . S
C784 C786 1.363 . S
C784 H800 0.931 . S
C785 C784 1.370 . S
C785 C789 1.408 1_545 S
C786 C784 1.363 . S
C786 C787 1.370 . S
C786 C790 1.524 . S
C787 C779 1.503 . S
C787 C786 1.370 . S
C787 C788 1.403 . S
C788 C787 1.403 . S
C788 C789 1.404 1_545 S
C788 C791 1.539 1_545 S
C789 C785 1.408 1_565 S
C789 C788 1.404 1_565 S
C789 H801 0.930 . S
C790 C786 1.524 . S
C790 H802 0.956 . S
C790 H803 0.961 . S
C790 H804 0.961 . S
C791 C788 1.539 1_565 S
C791 H805 0.958 . S
C791 H806 0.961 . S
C791 H807 0.960 . S
H792 C776 0.931 . S
H793 C781 0.929 1_556 S
H794 C782 0.960 . S
H795 C782 0.962 . S
H796 C782 0.960 . S
H797 C783 0.961 1_556 S
H798 C783 0.961 . S
H799 C783 0.961 1_556 S
H800 C784 0.931 . S
H801 C789 0.930 . S
H802 C790 0.956 . S
H803 C790 0.961 . S
H804 C790 0.961 . S
H805 C791 0.958 . S
H806 C791 0.961 . S
H807 C791 0.960 . S
C808 C809 1.391 . S
C808 C810 1.394 . S
C808 H824 0.931 . S
C809 C808 1.391 . S
C809 C813 1.376 . S
C810 C808 1.394 . S
C810 C811 1.369 . S
C810 C814 1.531 . S
C811 C810 1.369 . S
C811 C812 1.410 . S
C811 C819 1.503 . S
C812 C811 1.410 . S
C812 C813 1.392 . S
C812 C815 1.511 . S
C813 C809 1.376 . S
C813 C812 1.392 . S
C813 H825 0.929 . S
C814 C810 1.531 . S
C814 H826 0.960 . S
C814 H827 0.962 . S
C814 H828 0.960 . S
C815 C812 1.511 . S
C815 H829 0.961 . S
C815 H830 0.961 . S
C815 H831 0.961 . S
C816 C817 1.370 . S
C816 C818 1.363 . S
C816 H832 0.931 . S
C817 C816 1.370 . S
C817 C821 1.408 . S
C818 C816 1.363 . S
C818 C819 1.370 . S
C818 C822 1.524 . S
C819 C811 1.503 . S
C819 C818 1.370 . S
C819 C820 1.403 . S
C820 C819 1.403 . S
C820 C821 1.404 . S
C820 C823 1.539 . S
C821 C817 1.408 . S
C821 C820 1.404 . S
C821 H833 0.930 . S
C822 C818 1.524 . S
C822 H834 0.956 . S
C822 H835 0.961 . S
C822 H836 0.961 . S
C823 C820 1.539 . S
C823 H837 0.958 . S
C823 H838 0.961 . S
C823 H839 0.960 . S
H824 C808 0.931 . S
H825 C813 0.929 . S
H826 C814 0.960 . S
H827 C814 0.962 . S
H828 C814 0.960 . S
H829 C815 0.961 . S
H830 C815 0.961 . S
H831 C815 0.961 . S
H832 C816 0.931 . S
H833 C821 0.930 . S
H834 C822 0.956 . S
H835 C822 0.961 . S
H836 C822 0.961 . S
H837 C823 0.958 . S
H838 C823 0.961 . S
H839 C823 0.960 . S
C840 C841 1.391 . S
C840 C842 1.394 . S
C840 H856 0.931 . S
C841 C840 1.391 . S
C841 C845 1.376 . S
C842 C840 1.394 . S
C842 C843 1.369 . S
C842 C846 1.531 . S
C843 C842 1.369 . S
C843 C844 1.410 . S
C843 C851 1.503 . S
C844 C843 1.410 . S
C844 C845 1.392 . S
C844 C847 1.511 . S
C845 C841 1.376 . S
C845 C844 1.392 . S
C845 H857 0.929 . S
C846 C842 1.531 . S
C846 H858 0.960 . S
C846 H859 0.962 . S
C846 H860 0.960 . S
C847 C844 1.511 . S
C847 H861 0.961 . S
C847 H862 0.961 . S
C847 H863 0.961 . S
C848 C849 1.370 . S
C848 C850 1.363 . S
C848 H864 0.931 . S
C849 C848 1.370 . S
C849 C853 1.408 . S
C850 C848 1.363 . S
C850 C851 1.370 . S
C850 C854 1.524 . S
C851 C843 1.503 . S
C851 C850 1.370 . S
C851 C852 1.403 . S
C852 C851 1.403 . S
C852 C853 1.404 . S
C852 C855 1.539 . S
C853 C849 1.408 . S
C853 C852 1.404 . S
C853 H865 0.930 . S
C854 C850 1.524 . S
C854 H866 0.956 . S
C854 H867 0.961 . S
C854 H868 0.961 . S
C855 C852 1.539 . S
C855 H869 0.958 . S
C855 H870 0.961 . S
C855 H871 0.960 . S
H856 C840 0.931 . S
H857 C845 0.929 . S
H858 C846 0.960 . S
H859 C846 0.962 . S
H860 C846 0.960 . S
H861 C847 0.961 . S
H862 C847 0.961 . S
H863 C847 0.961 . S
H864 C848 0.931 . S
H865 C853 0.930 . S
H866 C854 0.956 . S
H867 C854 0.961 . S
H868 C854 0.961 . S
H869 C855 0.958 . S
H870 C855 0.961 . S
H871 C855 0.960 . S
C872 C873 1.391 . S
C872 C874 1.394 . S
C872 H888 0.931 . S
C873 C872 1.391 . S
C873 C877 1.376 . S
C874 C872 1.394 . S
C874 C875 1.369 . S
C874 C878 1.531 1_655 S
C875 C874 1.369 . S
C875 C876 1.410 . S
C875 C883 1.503 . S
C876 C875 1.410 . S
C876 C877 1.392 . S
C876 C879 1.511 . S
C877 C873 1.376 . S
C877 C876 1.392 . S
C877 H889 0.929 . S
C878 C874 1.531 1_455 S
C878 H890 0.960 . S
C878 H891 0.962 . S
C878 H892 0.960 . S
C879 C876 1.511 . S
C879 H893 0.961 . S
C879 H894 0.961 . S
C879 H895 0.961 . S
C880 C881 1.370 1_554 S
C880 C882 1.363 1_455 S
C880 H896 0.931 . S
C881 C880 1.370 1_556 S
C881 C885 1.408 1_455 S
C882 C880 1.363 1_655 S
C882 C883 1.370 . S
C882 C886 1.524 . S
C883 C875 1.503 . S
C883 C882 1.370 . S
C883 C884 1.403 1_554 S
C884 C883 1.403 1_556 S
C884 C885 1.404 . S
C884 C887 1.539 . S
C885 C881 1.408 1_655 S
C885 C884 1.404 . S
C885 H897 0.930 . S
C886 C882 1.524 . S
C886 H898 0.956 1_655 S
C886 H899 0.961 . S
C886 H900 0.961 1_655 S
C887 C884 1.539 . S
C887 H901 0.958 . S
C887 H902 0.961 . S
C887 H903 0.960 . S
H888 C872 0.931 . S
H889 C877 0.929 . S
H890 C878 0.960 . S
H891 C878 0.962 . S
H892 C878 0.960 . S
H893 C879 0.961 . S
H894 C879 0.961 . S
H895 C879 0.961 . S
H896 C880 0.931 . S
H897 C885 0.930 . S
H898 C886 0.956 1_455 S
H899 C886 0.961 . S
H900 C886 0.961 1_455 S
H901 C887 0.958 . S
H902 C887 0.961 . S
H903 C887 0.960 . S
C904 C905 1.391 . S
C904 C906 1.394 . S
C904 H920 0.931 . S
C905 C904 1.391 . S
C905 C909 1.376 . S
C906 C904 1.394 . S
C906 C907 1.369 . S
C906 C910 1.531 . S
C907 C906 1.369 . S
C907 C908 1.410 . S
C907 C915 1.503 . S
C908 C907 1.410 . S
C908 C909 1.392 . S
C908 C911 1.511 1_554 S
C909 C905 1.376 . S
C909 C908 1.392 . S
C909 H921 0.929 . S
C910 C906 1.531 . S
C910 H922 0.960 . S
C910 H923 0.962 . S
C910 H924 0.960 . S
C911 C908 1.511 1_556 S
C911 H925 0.961 . S
C911 H926 0.961 . S
C911 H927 0.961 1_565 S
C912 C913 1.370 1_565 S
C912 C914 1.363 1_556 S
C912 H928 0.931 . S
C913 C912 1.370 1_545 S
C913 C917 1.408 1_556 S
C914 C912 1.363 1_554 S
C914 C915 1.370 . S
C914 C918 1.524 . S
C915 C907 1.503 . S
C915 C914 1.370 . S
C915 C916 1.403 1_565 S
C916 C915 1.403 1_545 S
C916 C917 1.404 . S
C916 C919 1.539 . S
C917 C913 1.408 1_554 S
C917 C916 1.404 . S
C917 H929 0.930 . S
C918 C914 1.524 . S
C918 H930 0.956 . S
C918 H931 0.961 . S
C918 H932 0.961 . S
C919 C916 1.539 . S
C919 H933 0.958 . S
C919 H934 0.961 . S
C919 H935 0.960 . S
H920 C904 0.931 . S
H921 C909 0.929 . S
H922 C910 0.960 . S
H923 C910 0.962 . S
H924 C910 0.960 . S
H925 C911 0.961 . S
H926 C911 0.961 . S
H927 C911 0.961 1_545 S
H928 C912 0.931 . S
H929 C917 0.930 . S
H930 C918 0.956 . S
H931 C918 0.961 . S
H932 C918 0.961 . S
H933 C919 0.958 . S
H934 C919 0.961 . S
H935 C919 0.960 . S
C936 C937 1.391 . S
C936 C938 1.394 . S
C936 H952 0.931 . S
C937 C936 1.391 . S
C937 C941 1.376 . S
C938 C936 1.394 . S
C938 C939 1.369 . S
C938 C942 1.531 . S
C939 C938 1.369 . S
C939 C940 1.410 . S
C939 C947 1.503 . S
C940 C939 1.410 . S
C940 C941 1.392 . S
C940 C943 1.511 . S
C941 C937 1.376 . S
C941 C940 1.392 . S
C941 H953 0.929 . S
C942 C938 1.531 . S
C942 H954 0.960 . S
C942 H955 0.962 . S
C942 H956 0.960 . S
C943 C940 1.511 . S
C943 H957 0.961 . S
C943 H958 0.961 . S
C943 H959 0.961 . S
C944 C945 1.370 . S
C944 C946 1.363 . S
C944 H960 0.931 . S
C945 C944 1.370 . S
C945 C949 1.408 1_554 S
C946 C944 1.363 . S
C946 C947 1.370 . S
C946 C950 1.524 . S
C947 C939 1.503 . S
C947 C946 1.370 . S
C947 C948 1.403 1_554 S
C948 C947 1.403 1_556 S
C948 C949 1.404 . S
C948 C951 1.539 . S
C949 C945 1.408 1_556 S
C949 C948 1.404 . S
C949 H961 0.930 . S
C950 C946 1.524 . S
C950 H962 0.956 . S
C950 H963 0.961 . S
C950 H964 0.961 . S
C951 C948 1.539 . S
C951 H965 0.958 . S
C951 H966 0.961 . S
C951 H967 0.960 . S
H952 C936 0.931 . S
H953 C941 0.929 . S
H954 C942 0.960 . S
H955 C942 0.962 . S
H956 C942 0.960 . S
H957 C943 0.961 . S
H958 C943 0.961 . S
H959 C943 0.961 . S
H960 C944 0.931 . S
H961 C949 0.930 . S
H962 C950 0.956 . S
H963 C950 0.961 . S
H964 C950 0.961 . S
H965 C951 0.958 . S
H966 C951 0.961 . S
H967 C951 0.960 . S
C968 C969 1.391 . S
C968 C970 1.394 . S
C968 H984 0.931 . S
C969 C968 1.391 . S
C969 C973 1.376 . S
C970 C968 1.394 . S
C970 C971 1.369 . S
C970 C974 1.531 . S
C971 C970 1.369 . S
C971 C972 1.410 . S
C971 C979 1.503 . S
C972 C971 1.410 . S
C972 C973 1.392 . S
C972 C975 1.511 1_554 S
C973 C969 1.376 . S
C973 C972 1.392 . S
C973 H985 0.929 . S
C974 C970 1.531 . S
C974 H986 0.960 . S
C974 H987 0.962 . S
C974 H988 0.960 . S
C975 C972 1.511 1_556 S
C975 H989 0.961 . S
C975 H990 0.961 . S
C975 H991 0.961 . S
C976 C977 1.370 . S
C976 C978 1.363 . S
C976 H992 0.931 1_554 S
C977 C976 1.370 . S
C977 C981 1.408 . S
C978 C976 1.363 . S
C978 C979 1.370 . S
C978 C982 1.524 . S
C979 C971 1.503 . S
C979 C978 1.370 . S
C979 C980 1.403 . S
C980 C979 1.403 . S
C980 C981 1.404 . S
C980 C983 1.539 . S
C981 C977 1.408 . S
C981 C980 1.404 . S
C981 H993 0.930 . S
C982 C978 1.524 . S
C982 H994 0.956 . S
C982 H995 0.961 . S
C982 H996 0.961 . S
C983 C980 1.539 . S
C983 H997 0.958 . S
C983 H998 0.961 . S
C983 H999 0.960 . S
H984 C968 0.931 . S
H985 C973 0.929 . S
H986 C974 0.960 . S
H987 C974 0.962 . S
H988 C974 0.960 . S
H989 C975 0.961 . S
H990 C975 0.961 . S
H991 C975 0.961 . S
H992 C976 0.931 1_556 S
H993 C981 0.930 . S
H994 C982 0.956 . S
H995 C982 0.961 . S
H996 C982 0.961 . S
H997 C983 0.958 . S
H998 C983 0.961 . S
H999 C983 0.960 . S
C1000 C1001 1.391 . S
C1000 C1002 1.394 . S
C1000 H1016 0.931 . S
C1001 C1000 1.391 . S
C1001 C1005 1.376 . S
C1002 C1000 1.394 . S
C1002 C1003 1.369 . S
C1002 C1006 1.531 . S
C1003 C1002 1.369 . S
C1003 C1004 1.410 . S
C1003 C1011 1.503 . S
C1004 C1003 1.410 . S
C1004 C1005 1.392 . S
C1004 C1007 1.511 . S
C1005 C1001 1.376 . S
C1005 C1004 1.392 . S
C1005 H1017 0.929 . S
C1006 C1002 1.531 . S
C1006 H1018 0.960 . S
C1006 H1019 0.962 . S
C1006 H1020 0.960 . S
C1007 C1004 1.511 . S
C1007 H1021 0.961 . S
C1007 H1022 0.961 . S
C1007 H1023 0.961 . S
C1008 C1009 1.370 . S
C1008 C1010 1.363 . S
C1008 H1024 0.974 . S
C1009 C1008 1.370 . S
C1009 C1013 1.408 . S
C1010 C1008 1.363 . S
C1010 C1011 1.370 . S
C1010 C1014 1.524 . S
C1011 C1003 1.503 . S
C1011 C1010 1.370 . S
C1011 C1012 1.403 . S
C1012 C1011 1.403 . S
C1012 C1013 1.404 . S
C1012 C1015 1.539 . S
C1013 C1009 1.408 . S
C1013 C1012 1.404 . S
C1013 H1025 0.930 . S
C1014 C1010 1.524 . S
C1014 H1026 0.956 1_455 S
C1014 H1027 0.961 . S
C1014 H1028 0.961 1_455 S
C1015 C1012 1.539 . S
C1015 H1029 0.958 . S
C1015 H1030 0.961 . S
C1015 H1031 0.960 . S
H1016 C1000 0.931 . S
H1017 C1005 0.929 . S
H1018 C1006 0.960 . S
H1019 C1006 0.962 . S
H1020 C1006 0.960 . S
H1021 C1007 0.961 . S
H1022 C1007 0.961 . S
H1023 C1007 0.961 . S
H1024 C1008 0.974 . S
H1025 C1013 0.930 . S
H1026 C1014 0.956 1_655 S
H1027 C1014 0.961 . S
H1028 C1014 0.961 1_655 S
H1029 C1015 0.958 . S
H1030 C1015 0.961 . S
H1031 C1015 0.960 . S
C1032 C1033 1.391 . S
C1032 C1034 1.394 . S
C1032 H1048 0.931 . S
C1033 C1032 1.391 . S
C1033 C1037 1.376 . S
C1034 C1032 1.394 . S
C1034 C1035 1.369 . S
C1034 C1038 1.531 . S
C1035 C1034 1.369 . S
C1035 C1036 1.410 . S
C1035 C1043 1.503 . S
C1036 C1035 1.410 . S
C1036 C1037 1.392 . S
C1036 C1039 1.511 . S
C1037 C1033 1.376 . S
C1037 C1036 1.392 . S
C1037 H1049 0.929 . S
C1038 C1034 1.531 . S
C1038 H1050 0.960 . S
C1038 H1051 0.962 . S
C1038 H1052 0.960 . S
C1039 C1036 1.511 . S
C1039 H1053 0.961 1_545 S
C1039 H1054 0.957 1_545 S
C1039 H1055 0.962 . S
C1040 C1041 1.370 . S
C1040 C1042 1.363 . S
C1040 H1056 0.931 . S
C1041 C1040 1.370 . S
C1041 C1045 1.408 . S
C1042 C1040 1.363 . S
C1042 C1043 1.370 . S
C1042 C1046 1.524 . S
C1043 C1035 1.503 . S
C1043 C1042 1.370 . S
C1043 C1044 1.403 . S
C1044 C1043 1.403 . S
C1044 C1045 1.404 . S
C1044 C1047 1.539 . S
C1045 C1041 1.408 . S
C1045 C1044 1.404 . S
C1045 H1057 0.930 . S
C1046 C1042 1.524 . S
C1046 H1058 0.956 . S
C1046 H1059 0.961 . S
C1046 H1060 0.961 . S
C1047 C1044 1.539 . S
C1047 H1061 0.958 . S
C1047 H1062 0.961 . S
C1047 H1063 0.960 . S
H1048 C1032 0.931 . S
H1049 C1037 0.929 . S
H1050 C1038 0.960 . S
H1051 C1038 0.962 . S
H1052 C1038 0.960 . S
H1053 C1039 0.961 1_565 S
H1054 C1039 0.957 1_565 S
H1055 C1039 0.962 . S
H1056 C1040 0.931 . S
H1057 C1045 0.930 . S
H1058 C1046 0.956 . S
H1059 C1046 0.961 . S
H1060 C1046 0.961 . S
H1061 C1047 0.958 . S
H1062 C1047 0.961 . S
H1063 C1047 0.960 . S
C1064 C1065 1.391 . S
C1064 C1066 1.394 . S
C1064 H1080 0.931 . S
C1065 C1064 1.391 . S
C1065 C1069 1.376 . S
C1066 C1064 1.394 . S
C1066 C1067 1.369 . S
C1066 C1070 1.531 . S
C1067 C1066 1.369 . S
C1067 C1068 1.410 . S
C1067 C1075 1.503 . S
C1068 C1067 1.410 . S
C1068 C1069 1.392 . S
C1068 C1071 1.511 . S
C1069 C1065 1.376 . S
C1069 C1068 1.392 . S
C1069 H1081 0.929 . S
C1070 C1066 1.531 . S
C1070 H1082 0.960 . S
C1070 H1083 0.962 . S
C1070 H1084 0.960 . S
C1071 C1068 1.511 . S
C1071 H1085 0.961 . S
C1071 H1086 0.961 . S
C1071 H1087 0.961 . S
C1072 C1073 1.370 . S
C1072 C1074 1.363 . S
C1072 H1088 0.931 . S
C1073 C1072 1.370 . S
C1073 C1077 1.408 . S
C1074 C1072 1.363 . S
C1074 C1075 1.370 . S
C1074 C1078 1.524 . S
C1075 C1067 1.503 . S
C1075 C1074 1.370 . S
C1075 C1076 1.403 . S
C1076 C1075 1.403 . S
C1076 C1077 1.404 . S
C1076 C1079 1.539 . S
C1077 C1073 1.408 . S
C1077 C1076 1.404 . S
C1077 H1089 0.930 . S
C1078 C1074 1.524 . S
C1078 H1090 0.956 . S
C1078 H1091 0.961 . S
C1078 H1092 0.961 . S
C1079 C1076 1.539 . S
C1079 H1093 0.958 . S
C1079 H1094 0.963 . S
C1079 H1095 0.960 . S
H1080 C1064 0.931 . S
H1081 C1069 0.929 . S
H1082 C1070 0.960 . S
H1083 C1070 0.962 . S
H1084 C1070 0.960 . S
H1085 C1071 0.961 . S
H1086 C1071 0.961 . S
H1087 C1071 0.961 . S
H1088 C1072 0.931 . S
H1089 C1077 0.930 . S
H1090 C1078 0.956 . S
H1091 C1078 0.961 . S
H1092 C1078 0.961 . S
H1093 C1079 0.958 . S
H1094 C1079 0.963 . S
H1095 C1079 0.960 . S
C1096 C1097 1.391 . S
C1096 C1098 1.394 . S
C1096 H1112 0.931 . S
C1097 C1096 1.391 . S
C1097 C1101 1.376 . S
C1098 C1096 1.394 . S
C1098 C1099 1.369 . S
C1098 C1102 1.531 . S
C1099 C1098 1.369 . S
C1099 C1100 1.410 . S
C1099 C1107 1.503 . S
C1100 C1099 1.410 . S
C1100 C1101 1.392 . S
C1100 C1103 1.511 . S
C1101 C1097 1.376 . S
C1101 C1100 1.392 . S
C1101 H1113 0.929 . S
C1102 C1098 1.531 . S
C1102 H1114 0.960 . S
C1102 H1115 0.962 . S
C1102 H1116 0.960 . S
C1103 C1100 1.511 . S
C1103 H1117 0.961 . S
C1103 H1118 0.961 . S
C1103 H1119 0.961 . S
C1104 C1105 1.370 . S
C1104 C1106 1.363 . S
C1104 H1120 0.931 . S
C1105 C1104 1.370 . S
C1105 C1109 1.408 . S
C1106 C1104 1.363 . S
C1106 C1107 1.370 . S
C1106 C1110 1.524 . S
C1107 C1099 1.503 . S
C1107 C1106 1.370 . S
C1107 C1108 1.403 . S
C1108 C1107 1.403 . S
C1108 C1109 1.404 . S
C1108 C1111 1.539 . S
C1109 C1105 1.408 . S
C1109 C1108 1.404 . S
C1109 H1121 0.930 . S
C1110 C1106 1.524 . S
C1110 H1122 0.956 . S
C1110 H1123 0.961 . S
C1110 H1124 0.961 . S
C1111 C1108 1.539 . S
C1111 H1125 0.958 . S
C1111 H1126 0.961 . S
C1111 H1127 0.960 . S
H1112 C1096 0.931 . S
H1113 C1101 0.929 . S
H1114 C1102 0.960 . S
H1115 C1102 0.962 . S
H1116 C1102 0.960 . S
H1117 C1103 0.961 . S
H1118 C1103 0.961 . S
H1119 C1103 0.961 . S
H1120 C1104 0.931 . S
H1121 C1109 0.930 . S
H1122 C1110 0.956 . S
H1123 C1110 0.961 . S
H1124 C1110 0.961 . S
H1125 C1111 0.958 . S
H1126 C1111 0.961 . S
H1127 C1111 0.960 . S
C1128 C1129 1.391 . S
C1128 C1130 1.394 . S
C1128 H1144 0.931 . S
C1129 C1128 1.391 . S
C1129 C1133 1.376 . S
C1130 C1128 1.394 . S
C1130 C1131 1.369 . S
C1130 C1134 1.531 . S
C1131 C1130 1.369 . S
C1131 C1132 1.410 . S
C1131 C1139 1.503 . S
C1132 C1131 1.410 . S
C1132 C1133 1.392 . S
C1132 C1135 1.511 1_655 S
C1133 C1129 1.376 . S
C1133 C1132 1.392 . S
C1133 H1145 0.929 . S
C1134 C1130 1.531 . S
C1134 H1146 0.960 . S
C1134 H1147 0.962 . S
C1134 H1148 0.960 . S
C1135 C1132 1.511 1_455 S
C1135 H1149 0.961 . S
C1135 H1150 0.961 . S
C1135 H1151 0.961 . S
C1136 C1137 1.370 . S
C1136 C1138 1.363 . S
C1136 H1152 0.931 . S
C1137 C1136 1.370 . S
C1137 C1141 1.408 . S
C1138 C1136 1.363 . S
C1138 C1139 1.370 . S
C1138 C1142 1.524 . S
C1139 C1131 1.503 . S
C1139 C1138 1.370 . S
C1139 C1140 1.403 . S
C1140 C1139 1.403 . S
C1140 C1141 1.404 . S
C1140 C1143 1.539 1_655 S
C1141 C1137 1.408 . S
C1141 C1140 1.404 . S
C1141 H1153 0.930 1_655 S
C1142 C1138 1.524 . S
C1142 H1154 0.956 . S
C1142 H1155 0.961 . S
C1142 H1156 0.961 . S
C1143 C1140 1.539 1_455 S
C1143 H1157 0.958 1_455 S
C1143 H1158 0.961 . S
C1143 H1159 0.960 . S
H1144 C1128 0.931 . S
H1145 C1133 0.929 . S
H1146 C1134 0.960 . S
H1147 C1134 0.962 . S
H1148 C1134 0.960 . S
H1149 C1135 0.961 . S
H1150 C1135 0.961 . S
H1151 C1135 0.961 . S
H1152 C1136 0.931 . S
H1153 C1141 0.930 1_455 S
H1154 C1142 0.956 . S
H1155 C1142 0.961 . S
H1156 C1142 0.961 . S
H1157 C1143 0.958 1_655 S
H1158 C1143 0.961 . S
H1159 C1143 0.960 . S
C1160 C1161 1.391 . S
C1160 C1162 1.394 . S
C1160 H1176 0.931 1_565 S
C1161 C1160 1.391 . S
C1161 C1165 1.376 . S
C1162 C1160 1.394 . S
C1162 C1163 1.369 . S
C1162 C1166 1.531 1_565 S
C1163 C1162 1.369 . S
C1163 C1164 1.410 . S
C1163 C1171 1.503 . S
C1164 C1163 1.410 . S
C1164 C1165 1.392 . S
C1164 C1167 1.511 . S
C1165 C1161 1.376 . S
C1165 C1164 1.392 . S
C1165 H1177 0.929 . S
C1166 C1162 1.531 1_545 S
C1166 H1178 0.960 . S
C1166 H1179 0.962 . S
C1166 H1180 0.960 . S
C1167 C1164 1.511 . S
C1167 H1181 0.961 . S
C1167 H1182 0.961 . S
C1167 H1183 0.961 . S
C1168 C1169 1.370 . S
C1168 C1170 1.363 . S
C1168 H1184 0.947 . S
C1169 C1168 1.370 . S
C1169 C1173 1.408 . S
C1170 C1168 1.363 . S
C1170 C1171 1.370 . S
C1170 C1174 1.524 . S
C1171 C1163 1.503 . S
C1171 C1170 1.370 . S
C1171 C1172 1.403 . S
C1172 C1171 1.403 . S
C1172 C1173 1.404 . S
C1172 C1175 1.539 . S
C1173 C1169 1.408 . S
C1173 C1172 1.404 . S
C1173 H1185 0.930 . S
C1174 C1170 1.524 . S
C1174 H1186 0.956 1_565 S
C1174 H1187 0.961 . S
C1174 H1188 0.961 . S
C1175 C1172 1.539 . S
C1175 H1189 0.958 . S
C1175 H1190 0.961 . S
C1175 H1191 0.960 . S
H1176 C1160 0.931 1_545 S
H1177 C1165 0.929 . S
H1178 C1166 0.960 . S
H1179 C1166 0.962 . S
H1180 C1166 0.960 . S
H1181 C1167 0.961 . S
H1182 C1167 0.961 . S
H1183 C1167 0.961 . S
H1184 C1168 0.947 . S
H1185 C1173 0.930 . S
H1186 C1174 0.956 1_545 S
H1187 C1174 0.961 . S
H1188 C1174 0.961 . S
H1189 C1175 0.958 . S
H1190 C1175 0.961 . S
H1191 C1175 0.960 . S
C1192 C1193 1.391 . S
C1192 C1194 1.394 . S
C1192 H1208 0.931 . S
C1193 C1192 1.391 . S
C1193 C1197 1.376 . S
C1194 C1192 1.394 . S
C1194 C1195 1.369 . S
C1194 C1198 1.531 . S
C1195 C1194 1.369 . S
C1195 C1196 1.410 . S
C1195 C1203 1.503 . S
C1196 C1195 1.410 . S
C1196 C1197 1.392 . S
C1196 C1199 1.511 . S
C1197 C1193 1.376 . S
C1197 C1196 1.392 . S
C1197 H1209 0.929 . S
C1198 C1194 1.531 . S
C1198 H1210 0.960 . S
C1198 H1211 0.962 . S
C1198 H1212 0.960 . S
C1199 C1196 1.511 . S
C1199 H1213 0.961 . S
C1199 H1214 0.961 . S
C1199 H1215 0.961 . S
C1200 C1201 1.370 . S
C1200 C1202 1.363 . S
C1200 H1216 0.931 . S
C1201 C1200 1.370 . S
C1201 C1205 1.408 . S
C1202 C1200 1.363 . S
C1202 C1203 1.370 . S
C1202 C1206 1.524 . S
C1203 C1195 1.503 . S
C1203 C1202 1.370 . S
C1203 C1204 1.403 . S
C1204 C1203 1.403 . S
C1204 C1205 1.404 . S
C1204 C1207 1.539 . S
C1205 C1201 1.408 . S
C1205 C1204 1.404 . S
C1205 H1217 0.930 . S
C1206 C1202 1.524 . S
C1206 H1218 0.956 . S
C1206 H1219 0.961 . S
C1206 H1220 0.961 . S
C1207 C1204 1.539 . S
C1207 H1221 0.958 . S
C1207 H1222 0.961 . S
C1207 H1223 0.960 . S
H1208 C1192 0.931 . S
H1209 C1197 0.929 . S
H1210 C1198 0.960 . S
H1211 C1198 0.962 . S
H1212 C1198 0.960 . S
H1213 C1199 0.961 . S
H1214 C1199 0.961 . S
H1215 C1199 0.961 . S
H1216 C1200 0.931 . S
H1217 C1205 0.930 . S
H1218 C1206 0.956 . S
H1219 C1206 0.961 . S
H1220 C1206 0.961 . S
H1221 C1207 0.958 . S
H1222 C1207 0.961 . S
H1223 C1207 0.960 . S
C1224 C1225 1.391 . S
C1224 C1226 1.394 . S
C1224 H1240 0.931 . S
C1225 C1224 1.391 . S
C1225 C1229 1.376 . S
C1226 C1224 1.394 . S
C1226 C1227 1.369 . S
C1226 C1230 1.531 . S
C1227 C1226 1.369 . S
C1227 C1228 1.410 . S
C1227 C1235 1.503 . S
C1228 C1227 1.410 . S
C1228 C1229 1.392 . S
C1228 C1231 1.511 . S
C1229 C1225 1.376 . S
C1229 C1228 1.392 . S
C1229 H1241 0.929 . S
C1230 C1226 1.531 . S
C1230 H1242 0.960 . S
C1230 H1243 0.962 . S
C1230 H1244 0.960 . S
C1231 C1228 1.511 . S
C1231 H1245 0.961 . S
C1231 H1246 0.961 . S
C1231 H1247 0.961 . S
C1232 C1233 1.370 . S
C1232 C1234 1.363 . S
C1232 H1248 0.931 . S
C1233 C1232 1.370 . S
C1233 C1237 1.408 . S
C1234 C1232 1.363 . S
C1234 C1235 1.370 . S
C1234 C1238 1.524 . S
C1235 C1227 1.503 . S
C1235 C1234 1.370 . S
C1235 C1236 1.403 . S
C1236 C1235 1.403 . S
C1236 C1237 1.404 . S
C1236 C1239 1.539 . S
C1237 C1233 1.408 . S
C1237 C1236 1.404 . S
C1237 H1249 0.930 . S
C1238 C1234 1.524 . S
C1238 H1250 0.956 . S
C1238 H1251 0.961 . S
C1238 H1252 0.961 . S
C1239 C1236 1.539 . S
C1239 H1253 0.958 . S
C1239 H1254 0.961 . S
C1239 H1255 0.960 . S
H1240 C1224 0.931 . S
H1241 C1229 0.929 . S
H1242 C1230 0.960 . S
H1243 C1230 0.962 . S
H1244 C1230 0.960 . S
H1245 C1231 0.961 . S
H1246 C1231 0.961 . S
H1247 C1231 0.961 . S
H1248 C1232 0.931 . S
H1249 C1237 0.930 . S
H1250 C1238 0.956 . S
H1251 C1238 0.961 . S
H1252 C1238 0.961 . S
H1253 C1239 0.958 . S
H1254 C1239 0.961 . S
H1255 C1239 0.960 . S
C489 C125 1.925 . S
C497 C226 1.942 . S
C529 C310 1.966 . S
C521 C144 1.902 . S
C561 C376 1.956 . S
C553 C87 1.987 . S
C593 C460 1.932 . S
C585 C106 1.960 . S
C625 C215 1.926 1_565 S
C617 C49 1.995 . S
C649 C68 2.005 . S
C657 C299 1.955 . S
C681 C11 2.107 . S
C689 C387 1.954 . S
C713 C30 2.093 . S
C721 C471 1.937 . S
C753 C222 0.689 1_455 S
C745 C97 0.624 . S
C785 C306 0.661 . S
C777 C116 0.617 . S
C817 C378 0.622 . S
C809 C135 0.589 . S
C841 C78 0.755 . S
C849 C462 0.694 . S
C873 C21 0.767 . S
C881 C210 0.708 . S
C913 C294 0.631 . S
C905 C40 0.617 . S
C945 C390 0.672 . S
C937 C59 0.734 . S
C969 C2 0.634 . S
C977 C474 0.656 . S
C1001 C101 2.047 . S
C1009 C219 2.079 . S
C1033 C120 1.961 . S
C1041 C303 2.050 . S
C1073 C383 2.083 . S
C1065 C139 1.875 . S
C1105 C467 2.118 . S
C1097 C82 1.972 . S
C1129 C25 2.056 . S
C1137 C208 2.060 . S
C1169 C292 2.053 1_565 S
C1161 C44 1.967 . S
C1201 C394 2.085 . S
C1193 C63 1.879 . S
C1225 C6 1.918 . S
C1233 C478 2.119 . S
