# Generated by pormake.
# Topology nom, (4,4)-cn, num edge types: 1
# Building blocks:
#     Node 0, Type 0, BuildingBlock: NAWXER_clean_linker_0, # of connection points: 4
#     Node 1, Type 0, BuildingBlock: NAWXER_clean_linker_0, # of connection points: 4
#     Node 2, Type 0, BuildingBlock: NAWXER_clean_linker_0, # of connection points: 4
#     Node 3, Type 0, BuildingBlock: NAWXER_clean_linker_0, # of connection points: 4
#     Node 4, Type 0, BuildingBlock: NAWXER_clean_linker_0, # of connection points: 4
#     Node 5, Type 0, BuildingBlock: NAWXER_clean_linker_0, # of connection points: 4
#     Node 6, Type 1, BuildingBlock: TATPOV_clean_sbu_0, # of connection points: 4
#     Node 7, Type 1, BuildingBlock: TATPOV_clean_sbu_0, # of connection points: 4
#     Node 8, Type 1, BuildingBlock: TATPOV_clean_sbu_0, # of connection points: 4
#     Node 9, Type 1, BuildingBlock: TATPOV_clean_sbu_0, # of connection points: 4
#     Node 10, Type 1, BuildingBlock: TATPOV_clean_sbu_0, # of connection points: 4
#     Node 11, Type 1, BuildingBlock: TATPOV_clean_sbu_0, # of connection points: 4
#     Edge 12, Type (0, 1), BuildingBlock: UVAHIK_clean_linker_0, # of connection points: 2
#     Edge 13, Type (0, 1), BuildingBlock: UVAHIK_clean_linker_0, # of connection points: 2
#     Edge 14, Type (0, 1), BuildingBlock: UVAHIK_clean_linker_0, # of connection points: 2
#     Edge 15, Type (0, 1), BuildingBlock: UVAHIK_clean_linker_0, # of connection points: 2
#     Edge 16, Type (0, 1), BuildingBlock: UVAHIK_clean_linker_0, # of connection points: 2
#     Edge 17, Type (0, 1), BuildingBlock: UVAHIK_clean_linker_0, # of connection points: 2
#     Edge 18, Type (0, 1), BuildingBlock: UVAHIK_clean_linker_0, # of connection points: 2
#     Edge 19, Type (0, 1), BuildingBlock: UVAHIK_clean_linker_0, # of connection points: 2
#     Edge 20, Type (0, 1), BuildingBlock: UVAHIK_clean_linker_0, # of connection points: 2
#     Edge 21, Type (0, 1), BuildingBlock: UVAHIK_clean_linker_0, # of connection points: 2
#     Edge 22, Type (0, 1), BuildingBlock: UVAHIK_clean_linker_0, # of connection points: 2
#     Edge 23, Type (0, 1), BuildingBlock: UVAHIK_clean_linker_0, # of connection points: 2
#     Edge 24, Type (0, 1), BuildingBlock: UVAHIK_clean_linker_0, # of connection points: 2
#     Edge 25, Type (0, 1), BuildingBlock: UVAHIK_clean_linker_0, # of connection points: 2
#     Edge 26, Type (0, 1), BuildingBlock: UVAHIK_clean_linker_0, # of connection points: 2
#     Edge 27, Type (0, 1), BuildingBlock: UVAHIK_clean_linker_0, # of connection points: 2
#     Edge 28, Type (0, 1), BuildingBlock: UVAHIK_clean_linker_0, # of connection points: 2
#     Edge 29, Type (0, 1), BuildingBlock: UVAHIK_clean_linker_0, # of connection points: 2
#     Edge 30, Type (0, 1), BuildingBlock: UVAHIK_clean_linker_0, # of connection points: 2
#     Edge 31, Type (0, 1), BuildingBlock: UVAHIK_clean_linker_0, # of connection points: 2
#     Edge 32, Type (0, 1), BuildingBlock: UVAHIK_clean_linker_0, # of connection points: 2
#     Edge 33, Type (0, 1), BuildingBlock: UVAHIK_clean_linker_0, # of connection points: 2
#     Edge 34, Type (0, 1), BuildingBlock: UVAHIK_clean_linker_0, # of connection points: 2
#     Edge 35, Type (0, 1), BuildingBlock: UVAHIK_clean_linker_0, # of connection points: 2
# Relax obj value: 0.024
# Max RMSD: 0.116
# Mean RMSD: 0.109
data_MOF--net-nom--node1-TATPOV_clean_sbu_0--node2-NAWXER_clean_linker_0--edge1-UVAHIK_clean_linker_0
_symmetry_space_group_name_H-M    P1
_symmetry_Int_Tables_number       1
_symmetry_cell_setting            triclinic
loop_
_symmetry_equiv_pos_as_xyz
'x, y, z'
_cell_length_a     64.381802
_cell_length_b     65.248958
_cell_length_c     71.440836
_cell_angle_alpha  90.524083
_cell_angle_beta   90.643668
_cell_angle_gamma 120.00734
loop_
_atom_site_label
_atom_site_type_symbol
_atom_site_fract_x
_atom_site_fract_y
_atom_site_fract_z
_atom_type_partial_charge
C0 C 0.92813 0.44244 0.33262 0.0
C1 C 0.92186 0.43021 0.34954 0.0
C2 C 0.95005 0.44869 0.32441 0.0
C3 C 0.96573 0.44203 0.33257 0.0
C4 C 0.93747 0.42361 0.35781 0.0
C5 C 0.95916 0.42936 0.34934 0.0
C6 C 0.99018 0.4508 0.32525 0.0
C7 C 0.94067 0.41154 0.27568 0.0
C8 C 0.94359 0.42646 0.26061 0.0
C9 C 0.95732 0.41963 0.29064 0.0
C10 C 0.97703 0.44279 0.29078 0.0
C11 C 0.9633 0.44965 0.26098 0.0
C12 C 0.97988 0.45761 0.27578 0.0
C13 C 0.9954 0.45189 0.306 0.0
C14 C 0.10443 0.49923 0.30643 0.0
C15 C 0.10836 0.51469 0.29158 0.0
C16 C 0.08127 0.48498 0.31324 0.0
C17 C 0.06187 0.48657 0.30569 0.0
C18 C 0.08871 0.51527 0.28344 0.0
C19 C 0.06576 0.50138 0.29042 0.0
C20 C 0.0374 0.4733 0.31337 0.0
C21 C 0.0853 0.51953 0.36074 0.0
C22 C 0.08413 0.50758 0.37737 0.0
C23 C 0.06851 0.50814 0.34623 0.0
C24 C 0.05073 0.48422 0.34763 0.0
C25 C 0.06588 0.48378 0.37888 0.0
C26 C 0.04944 0.47226 0.36418 0.0
C27 C 0.03225 0.47206 0.33267 0.0
H28 H 0.9166 0.4482 0.32625 0.0
H29 H 0.95505 0.45962 0.31212 0.0
H30 H 0.93303 0.4143 0.37094 0.0
H31 H 0.97109 0.4244 0.35614 0.0
H32 H 0.9258 0.39354 0.27577 0.0
H33 H 0.95497 0.40775 0.30195 0.0
H34 H 0.96584 0.46185 0.24988 0.0
H35 H 0.99487 0.47558 0.27561 0.0
H36 H 0.11927 0.4983 0.3128 0.0
H37 H 0.07864 0.47311 0.32462 0.0
H38 H 0.09121 0.52719 0.27212 0.0
H39 H 0.05111 0.50283 0.28423 0.0
H40 H 0.09912 0.53775 0.35888 0.0
H41 H 0.06936 0.51816 0.33398 0.0
H42 H 0.06388 0.4741 0.39159 0.0
H43 H 0.03554 0.45398 0.3658 0.0
N44 N 0.00886 0.46069 0.33777 0.0
N45 N 0.01874 0.46319 0.30091 0.0
C46 C 0.4623 0.9477 0.49443 0.0
C47 C 0.46743 0.93699 0.50939 0.0
C48 C 0.47986 0.96951 0.48777 0.0
C49 C 0.5031 0.98094 0.49569 0.0
C50 C 0.49072 0.94842 0.51731 0.0
C51 C 0.50835 0.97032 0.51061 0.0
C52 C 0.52109 0.00486 0.48947 0.0
C53 C 0.50596 0.9546 0.44136 0.0
C54 C 0.495 0.95872 0.42584 0.0
C55 C 0.51648 0.97158 0.45577 0.0
C56 C 0.51602 0.99287 0.45496 0.0
C57 C 0.4954 0.98042 0.42478 0.0
C58 C 0.50585 0.99731 0.43915 0.0
C59 C 0.52591 0.01068 0.47041 0.0
C60 C 0.591 0.11795 0.47451 0.0
C61 C 0.58024 0.12336 0.45959 0.0
C62 C 0.58126 0.0946 0.48049 0.0
C63 C 0.56018 0.07639 0.47198 0.0
C64 C 0.55992 0.10496 0.4505 0.0
C65 C 0.55 0.08175 0.45665 0.0
C66 C 0.54815 0.05174 0.47884 0.0
C67 C 0.54776 0.09592 0.5277 0.0
C68 C 0.56063 0.09535 0.54354 0.0
C69 C 0.54267 0.0801 0.51273 0.0
C70 C 0.55063 0.06363 0.51319 0.0
C71 C 0.56866 0.07888 0.54392 0.0
C72 C 0.56354 0.06305 0.52892 0.0
C73 C 0.54396 0.04584 0.49797 0.0
H74 H 0.44462 0.93929 0.48791 0.0
H75 H 0.4751 0.97765 0.47665 0.0
H76 H 0.49514 0.94075 0.52899 0.0
H77 H 0.52604 0.97905 0.51714 0.0
H78 H 0.50596 0.93806 0.44257 0.0
H79 H 0.52478 0.96798 0.46759 0.0
H80 H 0.48759 0.98436 0.41282 0.0
H81 H 0.50549 0.01369 0.43809 0.0
H82 H 0.60691 0.13179 0.48157 0.0
H83 H 0.59004 0.09087 0.49188 0.0
H84 H 0.55117 0.10864 0.43904 0.0
H85 H 0.53385 0.06806 0.44973 0.0
H86 H 0.54146 0.10848 0.52693 0.0
H87 H 0.53216 0.08049 0.50093 0.0
H88 H 0.57828 0.07776 0.55603 0.0
H89 H 0.5695 0.05021 0.52965 0.0
N90 N 0.53062 0.02265 0.50252 0.0
N91 N 0.53902 0.03387 0.46587 0.0
C92 C 0.55767 0.50897 0.61071 0.0
C93 C 0.54262 0.49485 0.59588 0.0
C94 C 0.54945 0.51897 0.62391 0.0
C95 C 0.5259 0.51493 0.62272 0.0
C96 C 0.51928 0.49144 0.59434 0.0
C97 C 0.51103 0.5015 0.60762 0.0
C98 C 0.51691 0.52459 0.63735 0.0
C99 C 0.52327 0.4666 0.66421 0.0
C100 C 0.54069 0.47366 0.6786 0.0
C101 C 0.51682 0.48247 0.65703 0.0
C102 C 0.52786 0.50589 0.66387 0.0
C103 C 0.55146 0.497 0.6857 0.0
C104 C 0.54502 0.51295 0.67843 0.0
C105 C 0.52029 0.52239 0.65662 0.0
C106 C 0.46829 0.5631 0.69696 0.0
C107 C 0.48571 0.57601 0.71092 0.0
C108 C 0.47417 0.5542 0.68124 0.0
C109 C 0.4977 0.55857 0.67907 0.0
C110 C 0.50931 0.58078 0.70848 0.0
C111 C 0.51522 0.57211 0.69273 0.0
C112 C 0.5039 0.5471 0.66391 0.0
C113 C 0.47742 0.59196 0.63684 0.0
C114 C 0.45801 0.57914 0.62431 0.0
C115 C 0.49126 0.58226 0.64317 0.0
C116 C 0.48552 0.55932 0.63745 0.0
C117 C 0.45298 0.55664 0.61802 0.0
C118 C 0.4666 0.54686 0.62451 0.0
C119 C 0.49883 0.54786 0.64467 0.0
H120 H 0.57595 0.51249 0.61202 0.0
H121 H 0.5615 0.52985 0.63514 0.0
H122 H 0.50723 0.48063 0.5831 0.0
H123 H 0.49285 0.49829 0.60636 0.0
H124 H 0.51414 0.44858 0.65878 0.0
H125 H 0.50283 0.47625 0.64633 0.0
H126 H 0.56495 0.50297 0.69677 0.0
H127 H 0.55352 0.53084 0.68411 0.0
H128 H 0.44987 0.55888 0.69866 0.0
H129 H 0.46017 0.54321 0.67119 0.0
H130 H 0.52309 0.59076 0.719 0.0
H131 H 0.53344 0.57553 0.69142 0.0
H132 H 0.48193 0.60951 0.64169 0.0
H133 H 0.50628 0.59261 0.65264 0.0
H134 H 0.43804 0.54627 0.60848 0.0
H135 H 0.46193 0.52922 0.61975 0.0
N136 N 0.50581 0.53676 0.63211 0.0
N137 N 0.51418 0.53417 0.6691 0.0
C138 C 0.89839 0.42988 0.7975 0.0
C139 C 0.88813 0.44059 0.78675 0.0
C140 C 0.92233 0.44274 0.80338 0.0
C141 C 0.93654 0.46668 0.79881 0.0
C142 C 0.90261 0.46436 0.7816 0.0
C143 C 0.92667 0.47727 0.78752 0.0
C144 C 0.96173 0.48033 0.80561 0.0
C145 C 0.91683 0.46767 0.85631 0.0
C146 C 0.91827 0.45257 0.86955 0.0
C147 C 0.93288 0.47634 0.84156 0.0
C148 C 0.95063 0.46999 0.83963 0.0
C149 C 0.93607 0.44623 0.86756 0.0
C150 C 0.95219 0.455 0.85282 0.0
C151 C 0.9683 0.47992 0.82446 0.0
C152 C 0.07637 0.5417 0.82559 0.0
C153 C 0.082 0.527 0.8362 0.0
C154 C 0.05286 0.53346 0.81913 0.0
C155 C 0.03466 0.51029 0.82294 0.0
C156 C 0.06356 0.50407 0.84039 0.0
C157 C 0.04019 0.49585 0.83385 0.0
C158 C 0.00958 0.50093 0.8164 0.0
C159 C 0.05366 0.51767 0.76412 0.0
C160 C 0.05429 0.53658 0.75428 0.0
C161 C 0.03705 0.50653 0.77829 0.0
C162 C 0.02077 0.51407 0.78288 0.0
C163 C 0.03786 0.54399 0.75899 0.0
C164 C 0.02113 0.53269 0.773 0.0
C165 C 0.00304 0.50247 0.79773 0.0
H166 H 0.88794 0.41144 0.80128 0.0
H167 H 0.92976 0.43393 0.81154 0.0
H168 H 0.89522 0.47313 0.77335 0.0
H169 H 0.93742 0.49565 0.78365 0.0
H170 H 0.90374 0.47336 0.85763 0.0
H171 H 0.93172 0.48842 0.83187 0.0
H172 H 0.93755 0.43446 0.87737 0.0
H173 H 0.96582 0.44998 0.85165 0.0
H174 H 0.09014 0.55945 0.82213 0.0
H175 H 0.04892 0.54525 0.81125 0.0
H176 H 0.06711 0.49248 0.84891 0.0
H177 H 0.02641 0.47804 0.83722 0.0
H178 H 0.0657 0.51118 0.76068 0.0
H179 H 0.03677 0.4919 0.78556 0.0
H180 H 0.03803 0.55872 0.75198 0.0
H181 H 0.00868 0.53874 0.77635 0.0
N182 N 0.97934 0.49199 0.79299 0.0
N183 N 0.99193 0.48984 0.82906 0.0
C184 C 0.49217 0.91535 0.97624 0.0
C185 C 0.47257 0.90614 0.96359 0.0
C186 C 0.50281 0.93876 0.98266 0.0
C187 C 0.49394 0.95345 0.97674 0.0
C188 C 0.46412 0.92106 0.95726 0.0
C189 C 0.47479 0.94454 0.96372 0.0
C190 C 0.50514 0.97824 0.98373 0.0
C191 C 0.46829 0.93354 0.03279 0.0
C192 C 0.48346 0.93446 0.04748 0.0
C193 C 0.47728 0.94967 0.01825 0.0
C194 C 0.50171 0.96694 0.01794 0.0
C195 C 0.50789 0.95193 0.04725 0.0
C196 C 0.5169 0.9681 0.03266 0.0
C197 C 0.51102 0.98454 0.00283 0.0
C198 C 0.55244 0.0904 0.00469 0.0
C199 C 0.5728 0.09694 0.01613 0.0
C200 C 0.53871 0.06719 -0.00222 0.0
C201 C 0.54536 0.05021 0.00187 0.0
C202 C 0.57913 0.07979 0.02047 0.0
C203 C 0.56551 0.05666 0.01346 0.0
C204 C 0.53097 0.02541 0.995 0.0
C205 C 0.55648 0.06972 0.94263 0.0
C206 C 0.53721 0.06909 0.93256 0.0
C207 C 0.55223 0.05362 0.95693 0.0
C208 C 0.52866 0.03657 0.96135 0.0
C209 C 0.51364 0.05202 0.93725 0.0
C210 C 0.50946 0.03579 0.95133 0.0
C211 C 0.52362 0.01908 0.9761 0.0
H212 H 0.49952 0.90454 0.98103 0.0
H213 H 0.5181 0.94543 0.99219 0.0
H214 H 0.449 0.91448 0.94757 0.0
H215 H 0.46782 0.95563 0.95881 0.0
H216 H 0.44928 0.92073 0.03276 0.0
H217 H 0.465 0.9489 0.00742 0.0
H218 H 0.52008 0.95304 0.0583 0.0
H219 H 0.53575 0.98143 0.0328 0.0
H220 H 0.54686 0.10312 0.00138 0.0
H221 H 0.52273 0.06249 0.98946 0.0
H222 H 0.59483 0.08432 0.02911 0.0
H223 H 0.57086 0.04382 0.01696 0.0
H224 H 0.57486 0.08234 0.93926 0.0
H225 H 0.56731 0.05428 0.96438 0.0
H226 H 0.49831 0.05126 0.93018 0.0
H227 H 0.49113 0.02278 0.95459 0.0
N228 N 0.51118 0.99574 0.97115 0.0
N229 N 0.52417 0.00785 0.00767 0.0
C230 C 0.48753 0.57842 0.18786 0.0
C231 C 0.46918 0.57066 0.20107 0.0
C232 C 0.49475 0.56304 0.18078 0.0
C233 C 0.48381 0.53953 0.18673 0.0
C234 C 0.45854 0.54717 0.20729 0.0
C235 C 0.46595 0.53179 0.20027 0.0
C236 C 0.49195 0.52357 0.1793 0.0
C237 C 0.45056 0.53218 0.1321 0.0
C238 C 0.46436 0.54426 0.11658 0.0
C239 C 0.46033 0.52493 0.14637 0.0
C240 C 0.48412 0.52969 0.14543 0.0
C241 C 0.48824 0.54924 0.11578 0.0
C242 C 0.49796 0.54185 0.13 0.0
C243 C 0.49421 0.52091 0.15993 0.0
C244 C 0.54017 0.45914 0.15731 0.0
C245 C 0.55796 0.47228 0.14419 0.0
C246 C 0.5257 0.4677 0.1644 0.0
C247 C 0.52904 0.48971 0.15869 0.0
C248 C 0.5604 0.49372 0.13791 0.0
C249 C 0.54613 0.50231 0.14508 0.0
C250 C 0.515 0.50003 0.16649 0.0
C251 C 0.55546 0.49243 0.21537 0.0
C252 C 0.54033 0.47692 0.22904 0.0
C253 C 0.54622 0.50048 0.20128 0.0
C254 C 0.52163 0.49294 0.20045 0.0
C255 C 0.51576 0.46965 0.22828 0.0
C256 C 0.50653 0.47771 0.21417 0.0
C257 C 0.5117 0.50171 0.18588 0.0
H258 H 0.49661 0.59653 0.18314 0.0
H259 H 0.50912 0.56962 0.17078 0.0
H260 H 0.44428 0.54057 0.21737 0.0
H261 H 0.4575 0.51377 0.20518 0.0
H262 H 0.43213 0.52816 0.13311 0.0
H263 H 0.44911 0.51513 0.15792 0.0
H264 H 0.49919 0.55821 0.10387 0.0
H265 H 0.51629 0.54556 0.12892 0.0
H266 H 0.53777 0.44253 0.1624 0.0
H267 H 0.5121 0.45724 0.17444 0.0
H268 H 0.57345 0.50399 0.12746 0.0
H269 H 0.54882 0.51914 0.14022 0.0
H270 H 0.57455 0.49877 0.21579 0.0
H271 H 0.55832 0.51278 0.19115 0.0
H272 H 0.5036 0.45761 0.23851 0.0
H273 H 0.48754 0.47188 0.21387 0.0
N274 N 0.50039 0.51353 0.19155 0.0
N275 N 0.50596 0.50957 0.1543 0.0
Zn276 Zn 0.68846 0.45659 0.41859 0.0
Zn277 Zn 0.6599 0.40896 0.41839 0.0
O278 O 0.69429 0.41522 0.41573 0.0
O279 O 0.71837 0.45376 0.41801 0.0
O280 O 0.64189 0.37357 0.42083 0.0
O281 O 0.67467 0.45881 0.44332 0.0
O282 O 0.65124 0.42011 0.44256 0.0
C283 C 0.71536 0.43314 0.41607 0.0
C284 C 0.65382 0.43635 0.38702 0.0
O285 O 0.64697 0.41653 0.3948 0.0
O286 O 0.6709 0.45523 0.39423 0.0
C287 C 0.64327 0.36011 0.40855 0.0
O288 O 0.65502 0.36937 0.39312 0.0
C289 C 0.65836 0.4401 0.45059 0.0
Zn290 Zn 0.21988 0.67751 0.56566 0.0
Zn291 Zn 0.24908 0.65989 0.57275 0.0
O292 O 0.27215 0.69525 0.56832 0.0
O293 O 0.24879 0.71015 0.56245 0.0
O294 O 0.27199 0.64839 0.57942 0.0
O295 O 0.20464 0.66666 0.59081 0.0
O296 O 0.22769 0.65123 0.59605 0.0
C297 C 0.26962 0.71287 0.56432 0.0
C298 C 0.21411 0.64077 0.53934 0.0
O299 O 0.23107 0.64103 0.54893 0.0
O300 O 0.20614 0.65439 0.54374 0.0
C301 C 0.28439 0.64521 0.56724 0.0
O302 O 0.28169 0.64874 0.54952 0.0
C303 C 0.21101 0.65506 0.60118 0.0
Zn304 Zn 0.5421 0.22622 0.74249 0.0
Zn305 Zn 0.59024 0.25192 0.74651 0.0
O306 O 0.57977 0.27681 0.74411 0.0
O307 O 0.54037 0.25637 0.74221 0.0
O308 O 0.62588 0.27219 0.75045 0.0
O309 O 0.54051 0.20969 0.76673 0.0
O310 O 0.57972 0.2316 0.77013 0.0
C311 C 0.5597 0.27612 0.74263 0.0
C312 C 0.5679 0.21899 0.71246 0.0
O313 O 0.58641 0.23339 0.72208 0.0
O314 O 0.54714 0.21339 0.71807 0.0
C315 C 0.63896 0.28698 0.73828 0.0
O316 O 0.62901 0.28843 0.72256 0.0
C317 C 0.55956 0.21551 0.77607 0.0
Zn318 Zn 0.35075 0.56794 0.90975 0.0
Zn319 Zn 0.36816 0.61432 0.91427 0.0
O320 O 0.33248 0.60186 0.90798 0.0
O321 O 0.31858 0.56392 0.90248 0.0
O322 O 0.38097 0.64905 0.9193 0.0
O323 O 0.35803 0.56474 0.93656 0.0
O324 O 0.3757 0.60351 0.93939 0.0
C325 C 0.31525 0.58146 0.9032 0.0
C326 C 0.38852 0.5961 0.88424 0.0
O327 O 0.38713 0.61321 0.89163 0.0
O328 O 0.37572 0.57524 0.89012 0.0
C329 C 0.381 0.66302 0.907 0.0
O330 O 0.37276 0.65477 0.89004 0.0
C331 C 0.36998 0.58345 0.94631 0.0
Zn332 Zn 0.78729 0.43541 0.07508 0.0
Zn333 Zn 0.7585 0.38824 0.07222 0.0
O334 O 0.73514 0.40025 0.07809 0.0
O335 O 0.75857 0.43883 0.08101 0.0
O336 O 0.73626 0.35338 0.06753 0.0
O337 O 0.79776 0.43708 0.04841 0.0
O338 O 0.77585 0.39825 0.04697 0.0
C339 C 0.73785 0.42068 0.08136 0.0
C340 C 0.79837 0.40883 0.10196 0.0
O341 O 0.78015 0.39083 0.09463 0.0
O342 O 0.80513 0.42935 0.0958 0.0
C343 C 0.72836 0.33739 0.07983 0.0
O344 O 0.73503 0.34324 0.09743 0.0
C345 C 0.79035 0.41781 0.0394 0.0
Zn346 Zn 0.34095 0.77994 0.2398 0.0
Zn347 Zn 0.37141 0.76248 0.24085 0.0
O348 O 0.33795 0.73348 0.24315 0.0
O349 O 0.31253 0.74668 0.24194 0.0
O350 O 0.39191 0.74735 0.24016 0.0
O351 O 0.35399 0.79381 0.21433 0.0
O352 O 0.37892 0.78002 0.21603 0.0
C353 C 0.31652 0.72961 0.2434 0.0
C354 C 0.37576 0.79767 0.27097 0.0
O355 O 0.38304 0.78447 0.26384 0.0
O356 O 0.35832 0.79863 0.26345 0.0
C357 C 0.3908 0.73343 0.25293 0.0
O358 O 0.37715 0.73017 0.26742 0.0
C359 C 0.37074 0.79151 0.20734 0.0
C360 C 0.13758 0.53522 0.26604 0.0
C361 C 0.13288 0.5315 0.28524 0.0
C362 C 0.15941 0.5538 0.26003 0.0
C363 C 0.22086 0.59966 0.27574 0.0
H364 H 0.21325 0.63631 0.2366 0.0
C365 C 0.27267 0.70082 0.24673 0.0
C366 C 0.29637 0.70526 0.24605 0.0
C367 C 0.25375 0.67805 0.25003 0.0
C368 C 0.21568 0.62631 0.24757 0.0
H369 H 0.14771 0.54351 0.31318 0.0
H370 H 0.18576 0.57618 0.30272 0.0
H371 H 0.17909 0.59876 0.24542 0.0
H372 H 0.31871 0.6891 0.24801 0.0
H373 H 0.28559 0.6493 0.25361 0.0
H374 H 0.25727 0.62785 0.2784 0.0
C375 C 0.17276 0.56456 0.29228 0.0
C376 C 0.19617 0.60459 0.25246 0.0
C377 C 0.15096 0.54585 0.2983 0.0
C378 C 0.30067 0.68631 0.24848 0.0
C379 C 0.28172 0.66352 0.2518 0.0
C380 C 0.24041 0.62144 0.27085 0.0
C381 C 0.17693 0.56919 0.27308 0.0
C382 C 0.19841 0.59114 0.26678 0.0
C383 C 0.25806 0.65916 0.25271 0.0
C384 C 0.23792 0.63519 0.25691 0.0
H385 H 0.12405 0.52418 0.25568 0.0
H386 H 0.16227 0.55655 0.24513 0.0
H387 H 0.22325 0.58963 0.28672 0.0
H388 H 0.26871 0.71499 0.24497 0.0
H389 H 0.23578 0.67537 0.25092 0.0
C390 C 0.59209 0.1542 0.43496 0.0
C391 C 0.58933 0.14818 0.45396 0.0
C392 C 0.59876 0.17719 0.42958 0.0
C393 C 0.62393 0.23882 0.44817 0.0
H394 H 0.59359 0.24631 0.40357 0.0
C395 C 0.62754 0.32655 0.43096 0.0
C396 C 0.63456 0.33494 0.41274 0.0
C397 C 0.62175 0.30354 0.4355 0.0
C398 C 0.60231 0.24447 0.41598 0.0
H399 H 0.5915 0.16147 0.48223 0.0
H400 H 0.60259 0.20144 0.4729 0.0
H401 H 0.58494 0.20687 0.41257 0.0
H402 H 0.64008 0.32542 0.38482 0.0
H403 H 0.62952 0.28499 0.39273 0.0
H404 H 0.64078 0.27643 0.45177 0.0
C405 C 0.60021 0.18864 0.46212 0.0
C406 C 0.59748 0.2219 0.42111 0.0
C407 C 0.59382 0.16571 0.4675 0.0
C408 C 0.63478 0.3195 0.39898 0.0
C409 C 0.62869 0.29635 0.40349 0.0
C410 C 0.62852 0.26133 0.44315 0.0
C411 C 0.60253 0.19463 0.44307 0.0
C412 C 0.60819 0.21876 0.43731 0.0
C413 C 0.62256 0.28831 0.42188 0.0
C414 C 0.6177 0.26437 0.42704 0.0
H415 H 0.58897 0.14105 0.42425 0.0
H416 H 0.60087 0.18125 0.41482 0.0
H417 H 0.63288 0.2372 0.46051 0.0
H418 H 0.62718 0.33796 0.4419 0.0
H419 H 0.61677 0.29768 0.44973 0.0
C420 C 0.43382 0.59866 0.63139 0.0
C421 C 0.44245 0.58871 0.61823 0.0
C422 C 0.41761 0.60591 0.6259 0.0
C423 C 0.39448 0.62291 0.58505 0.0
H424 H 0.33776 0.60231 0.61499 0.0
C425 C 0.31427 0.63249 0.55969 0.0
C426 C 0.30238 0.6386 0.57308 0.0
C427 C 0.33164 0.62677 0.56522 0.0
C428 C 0.35364 0.60853 0.6066 0.0
H429 H 0.4416 0.57939 0.58892 0.0
H430 H 0.41335 0.59216 0.57932 0.0
H431 H 0.36834 0.59284 0.62473 0.0
H432 H 0.29951 0.6436 0.60281 0.0
H433 H 0.3301 0.63418 0.61242 0.0
H434 H 0.37998 0.63882 0.56702 0.0
C435 C 0.41908 0.59429 0.59387 0.0
C436 C 0.37115 0.60306 0.61219 0.0
C437 C 0.4351 0.58683 0.59939 0.0
C438 C 0.30821 0.63881 0.59213 0.0
C439 C 0.3257 0.63328 0.59765 0.0
C440 C 0.37705 0.62856 0.57954 0.0
C441 C 0.40989 0.6036 0.60712 0.0
C442 C 0.39171 0.61011 0.60144 0.0
C443 C 0.33766 0.6272 0.58428 0.0
C444 C 0.35634 0.62135 0.5902 0.0
H445 H 0.43903 0.60016 0.64603 0.0
H446 H 0.411 0.61323 0.63638 0.0
H447 H 0.41026 0.62879 0.5766 0.0
H448 H 0.31012 0.63205 0.5449 0.0
H449 H 0.34017 0.62179 0.55455 0.0
C450 C 0.85462 0.42846 0.76302 0.0
C451 C 0.86235 0.4269 0.78116 0.0
C452 C 0.83041 0.41474 0.75771 0.0
C453 C 0.76954 0.38005 0.77737 0.0
H454 H 0.75297 0.34813 0.72887 0.0
C455 C 0.67482 0.30322 0.75983 0.0
C456 C 0.6648 0.30321 0.74224 0.0
C457 C 0.69894 0.31919 0.76393 0.0
C458 C 0.75731 0.35714 0.74237 0.0
H459 H 0.85061 0.41029 0.80812 0.0
H460 H 0.80867 0.38607 0.79878 0.0
H461 H 0.79503 0.37505 0.73726 0.0
H462 H 0.67241 0.31972 0.71505 0.0
H463 H 0.71464 0.34762 0.72223 0.0
H464 H 0.73188 0.36186 0.7826 0.0
C465 C 0.82118 0.398 0.78867 0.0
C466 C 0.7814 0.37261 0.74717 0.0
C467 C 0.84531 0.41167 0.79396 0.0
C468 C 0.67957 0.31927 0.72873 0.0
C469 C 0.70378 0.33519 0.73281 0.0
C470 C 0.74551 0.36455 0.7726 0.0
C471 C 0.81344 0.39926 0.77046 0.0
C472 C 0.78781 0.38403 0.76482 0.0
C473 C 0.71365 0.33546 0.75052 0.0
C474 C 0.73915 0.35271 0.75515 0.0
H475 H 0.86734 0.43992 0.75281 0.0
H476 H 0.82499 0.4163 0.74364 0.0
H477 H 0.7738 0.38892 0.79092 0.0
H478 H 0.66398 0.29105 0.77055 0.0
H479 H 0.70612 0.31872 0.7776 0.0
C480 C 0.45749 0.86322 0.96975 0.0
C481 C 0.46111 0.88104 0.9571 0.0
C482 C 0.44744 0.83971 0.96366 0.0
C483 C 0.43772 0.80302 0.92129 0.0
H484 H 0.39356 0.75221 0.95293 0.0
C485 C 0.39052 0.70402 0.8984 0.0
C486 C 0.38966 0.68814 0.91196 0.0
C487 C 0.39835 0.72764 0.90328 0.0
C488 C 0.40602 0.7662 0.944 0.0
H489 H 0.45681 0.88805 0.92812 0.0
H490 H 0.43882 0.84685 0.91754 0.0
H491 H 0.40826 0.79319 0.96253 0.0
H492 H 0.39652 0.6847 0.94126 0.0
H493 H 0.41022 0.72579 0.94968 0.0
H494 H 0.4355 0.77592 0.90279 0.0
C495 C 0.44404 0.85116 0.93215 0.0
C496 C 0.41445 0.78969 0.9495 0.0
C497 C 0.4541 0.87472 0.93825 0.0
C498 C 0.39689 0.69642 0.93046 0.0
C499 C 0.4046 0.71996 0.93533 0.0
C500 C 0.42922 0.77948 0.91575 0.0
C501 C 0.44069 0.83339 0.94478 0.0
C502 C 0.43064 0.8084 0.93833 0.0
C503 C 0.40535 0.73583 0.92182 0.0
C504 C 0.4135 0.76082 0.92716 0.0
H505 H 0.46239 0.86742 0.98441 0.0
H506 H 0.44539 0.82654 0.97374 0.0
H507 H 0.4504 0.817 0.91246 0.0
H508 H 0.38506 0.69822 0.88403 0.0
H509 H 0.39857 0.7394 0.89258 0.0
C510 C 0.59874 0.48071 0.13466 0.0
C511 C 0.57438 0.46417 0.13725 0.0
C512 C 0.61418 0.47363 0.12735 0.0
C513 C 0.62352 0.4232 0.12106 0.0
H514 H 0.6676 0.46277 0.08309 0.0
C515 C 0.69386 0.40364 0.08753 0.0
C516 C 0.71697 0.42344 0.08593 0.0
C517 C 0.67445 0.40655 0.09235 0.0
C518 C 0.65551 0.4516 0.09375 0.0
H519 H 0.5473 0.42703 0.1346 0.0
H520 H 0.57459 0.41457 0.12203 0.0
H521 H 0.63738 0.47151 0.09463 0.0
H522 H 0.73772 0.46179 0.08807 0.0
H523 H 0.70413 0.46677 0.09658 0.0
H524 H 0.64216 0.40367 0.12051 0.0
C525 C 0.58157 0.43305 0.12564 0.0
C526 C 0.63819 0.4566 0.10034 0.0
C527 C 0.56599 0.44019 0.13287 0.0
C528 C 0.72018 0.44614 0.0891 0.0
C529 C 0.70085 0.44902 0.09387 0.0
C530 C 0.64099 0.41824 0.1145 0.0
C531 C 0.60574 0.4498 0.12257 0.0
C532 C 0.62237 0.4428 0.11435 0.0
C533 C 0.67776 0.4293 0.09556 0.0
C534 C 0.65752 0.43275 0.10109 0.0
H535 H 0.60597 0.49921 0.13836 0.0
H536 H 0.63286 0.48685 0.12556 0.0
H537 H 0.6116 0.41232 0.13191 0.0
H538 H 0.69078 0.38591 0.08517 0.0
H539 H 0.65683 0.39101 0.09343 0.0
C540 C 0.45274 0.89599 0.52162 0.0
C541 C 0.44822 0.91429 0.5169 0.0
C542 C 0.4342 0.8743 0.52787 0.0
C543 C 0.36826 0.83753 0.52601 0.0
H544 H 0.37692 0.80363 0.56686 0.0
C545 C 0.28817 0.75595 0.55715 0.0
C546 C 0.29093 0.73635 0.56099 0.0
C547 C 0.30797 0.77774 0.55279 0.0
C548 C 0.3743 0.81278 0.55531 0.0
H549 H 0.42098 0.92458 0.51597 0.0
H550 H 0.38878 0.8869 0.52682 0.0
H551 H 0.41058 0.84154 0.55728 0.0
H552 H 0.31687 0.7245 0.56373 0.0
H553 H 0.35146 0.76257 0.55591 0.0
H554 H 0.33213 0.8089 0.5239 0.0
C555 C 0.40648 0.88906 0.52529 0.0
C556 C 0.39357 0.83448 0.54983 0.0
C557 C 0.42495 0.91066 0.51906 0.0
C558 C 0.3141 0.73924 0.56085 0.0
C559 C 0.33395 0.76109 0.55645 0.0
C560 C 0.34907 0.81591 0.53146 0.0
C561 C 0.41079 0.87051 0.52953 0.0
C562 C 0.39069 0.84718 0.5352 0.0
C563 C 0.33105 0.7805 0.5521 0.0
C564 C 0.35177 0.80335 0.54626 0.0
H565 H 0.47045 0.89821 0.51999 0.0
H566 H 0.43806 0.8603 0.53091 0.0
H567 H 0.36557 0.8466 0.51442 0.0
H568 H 0.27063 0.75443 0.55728 0.0
H569 H 0.30517 0.79245 0.54988 0.0
C570 C 0.54923 0.45469 0.70587 0.0
C571 C 0.54683 0.45629 0.68642 0.0
C572 C 0.55263 0.43675 0.71321 0.0
C573 C 0.53995 0.37682 0.70127 0.0
H574 H 0.58342 0.3856 0.74257 0.0
C575 C 0.58024 0.32013 0.73845 0.0
C576 C 0.55894 0.29822 0.73989 0.0
C577 C 0.57942 0.34049 0.73375 0.0
C578 C 0.57125 0.38293 0.731 0.0
H579 H 0.54771 0.44131 0.65942 0.0
H580 H 0.55352 0.41002 0.67222 0.0
H581 H 0.5821 0.41981 0.73009 0.0
H582 H 0.52006 0.28083 0.7385 0.0
H583 H 0.51871 0.3163 0.73042 0.0
H584 H 0.52923 0.34012 0.70195 0.0
C585 C 0.55229 0.42232 0.6818 0.0
C586 C 0.57038 0.40245 0.72396 0.0
C587 C 0.54895 0.44023 0.67448 0.0
C588 C 0.53683 0.29735 0.73735 0.0
C589 C 0.53603 0.31765 0.73263 0.0
C590 C 0.5407 0.35736 0.70836 0.0
C591 C 0.55366 0.42006 0.70125 0.0
C592 C 0.55481 0.39959 0.70893 0.0
C593 C 0.55731 0.33932 0.73035 0.0
C594 C 0.55635 0.36017 0.72329 0.0
H595 H 0.54749 0.46668 0.71545 0.0
H596 H 0.55349 0.43536 0.72827 0.0
H597 H 0.52754 0.37398 0.68985 0.0
H598 H 0.59758 0.32143 0.74033 0.0
H599 H 0.59612 0.35692 0.73201 0.0
C600 C 0.11597 0.5197 0.84306 0.0
C601 C 0.1069 0.53533 0.84303 0.0
C602 C 0.13867 0.52676 0.85059 0.0
C603 C 0.1972 0.57783 0.86245 0.0
H604 H 0.20204 0.53365 0.89567 0.0
C605 C 0.28695 0.5971 0.89826 0.0
C606 C 0.29138 0.57806 0.89805 0.0
C607 C 0.26439 0.5936 0.8929 0.0
C608 C 0.20105 0.54612 0.88633 0.0
H609 H 0.11497 0.57093 0.85043 0.0
H610 H 0.15503 0.58341 0.86332 0.0
H611 H 0.16299 0.52453 0.88312 0.0
H612 H 0.27556 0.54045 0.89199 0.0
H613 H 0.23667 0.53451 0.88249 0.0
H614 H 0.23544 0.59913 0.86528 0.0
C615 C 0.14437 0.56565 0.85754 0.0
C616 C 0.17868 0.5409 0.87917 0.0
C617 C 0.12148 0.55851 0.85012 0.0
C618 C 0.27279 0.55551 0.89244 0.0
C619 C 0.25037 0.55205 0.8871 0.0
C620 C 0.21971 0.58301 0.86955 0.0
C621 C 0.15297 0.54967 0.85814 0.0
C622 C 0.17657 0.55645 0.86686 0.0
C623 C 0.24585 0.571 0.88728 0.0
C624 C 0.22191 0.56694 0.88125 0.0
H625 H 0.10549 0.50192 0.8373 0.0
H626 H 0.14507 0.51424 0.85049 0.0
H627 H 0.19606 0.59009 0.85296 0.0
H628 H 0.3009 0.6147 0.90249 0.0
H629 H 0.26141 0.60853 0.8933 0.0
C630 C 0.59586 0.12584 0.0422 0.0
C631 C 0.58744 0.12155 0.02353 0.0
C632 C 0.61011 0.14898 0.04906 0.0
C633 C 0.62774 0.21129 0.0392 0.0
H634 H 0.68218 0.22565 0.0717 0.0
C635 C 0.70286 0.30677 0.05564 0.0
C636 C 0.71156 0.31247 0.07421 0.0
C637 C 0.68696 0.28335 0.05021 0.0
C638 C 0.66688 0.22187 0.06282 0.0
H639 H 0.58744 0.13818 -0.00259 0.0
H640 H 0.61251 0.17858 0.0093 0.0
H641 H 0.65581 0.18506 0.06071 0.0
H642 H 0.71036 0.29796 0.10164 0.0
H643 H 0.68257 0.25694 0.09209 0.0
H644 H 0.63909 0.24819 0.04109 0.0
C645 C 0.60774 0.16407 0.01876 0.0
C646 C 0.65174 0.1986 0.05653 0.0
C647 C 0.59341 0.14092 0.01192 0.0
C648 C 0.70402 0.29417 0.08723 0.0
C649 C 0.68819 0.27067 0.08175 0.0
C650 C 0.64294 0.23456 0.04543 0.0
C651 C 0.61635 0.1684 0.0374 0.0
C652 C 0.63205 0.19304 0.04455 0.0
C653 C 0.67945 0.26503 0.06318 0.0
C654 C 0.66277 0.24013 0.05721 0.0
H655 H 0.59125 0.11128 0.05157 0.0
H656 H 0.61606 0.15165 0.06357 0.0
H657 H 0.61251 0.20759 0.03028 0.0
H658 H 0.70831 0.32041 0.04524 0.0
H659 H 0.68082 0.27955 0.03575 0.0
C660 C 0.46033 0.60357 0.19621 0.0
C661 C 0.46143 0.58721 0.20826 0.0
C662 C 0.45432 0.62001 0.203 0.0
C663 C 0.42278 0.63134 0.24011 0.0
H664 H 0.4616 0.69672 0.22527 0.0
C665 C 0.40123 0.70334 0.26425 0.0
C666 C 0.40261 0.71913 0.25042 0.0
C667 C 0.41056 0.68834 0.26109 0.0
C668 C 0.45045 0.67852 0.22943 0.0
H669 H 0.45662 0.5751 0.23692 0.0
H670 H 0.44547 0.60355 0.24868 0.0
H671 H 0.47288 0.66772 0.2157 0.0
H672 H 0.41544 0.73199 0.2226 0.0
H673 H 0.43119 0.70563 0.21695 0.0
H674 H 0.39983 0.64188 0.25327 0.0
C675 C 0.44943 0.60362 0.23397 0.0
C676 C 0.45696 0.66194 0.22398 0.0
C677 C 0.45571 0.58727 0.22721 0.0
C678 C 0.41413 0.72009 0.23359 0.0
C679 C 0.42331 0.70504 0.23039 0.0
C680 C 0.41611 0.6479 0.24542 0.0
C681 C 0.44899 0.62033 0.22196 0.0
C682 C 0.44299 0.63812 0.22901 0.0
C683 C 0.42139 0.68876 0.244 0.0
C684 C 0.42966 0.67162 0.23989 0.0
H685 H 0.46403 0.60367 0.18145 0.0
H686 H 0.45363 0.63238 0.19335 0.0
H687 H 0.41161 0.61305 0.24407 0.0
H688 H 0.39257 0.70225 0.27741 0.0
H689 H 0.4091 0.67628 0.27198 0.0
C690 C 0.8776 0.41461 0.34995 0.0
C691 C 0.90002 0.42619 0.35922 0.0
C692 C 0.85736 0.41278 0.35856 0.0
C693 C 0.84016 0.44526 0.38847 0.0
H694 H 0.78108 0.3866 0.39703 0.0
C695 C 0.75911 0.44695 0.41964 0.0
C696 C 0.73622 0.42999 0.41296 0.0
C697 C 0.77911 0.44482 0.41548 0.0
C698 C 0.79729 0.40319 0.3945 0.0
H699 H 0.91902 0.44477 0.38464 0.0
H700 H 0.88364 0.44224 0.39947 0.0
H701 H 0.81571 0.38547 0.38464 0.0
H702 H 0.71617 0.39734 0.39689 0.0
H703 H 0.75103 0.39424 0.38873 0.0
H704 H 0.82178 0.46322 0.39704 0.0
C705 C 0.88172 0.43422 0.38575 0.0
C706 C 0.81714 0.40246 0.38756 0.0
C707 C 0.90184 0.43557 0.37733 0.0
C708 C 0.73361 0.4106 0.40235 0.0
C709 C 0.75367 0.40877 0.39778 0.0
C710 C 0.8202 0.44604 0.39497 0.0
C711 C 0.8594 0.423 0.37635 0.0
C712 C 0.83868 0.4235 0.38447 0.0
C713 C 0.77679 0.42601 0.40409 0.0
C714 C 0.79841 0.42502 0.39804 0.0
H715 H 0.87585 0.40731 0.33596 0.0
H716 H 0.84031 0.40421 0.35104 0.0
H717 H 0.85657 0.46172 0.38596 0.0
H718 H 0.76158 0.46194 0.42804 0.0
H719 H 0.79643 0.45811 0.42108 0.0
C720 C 0.10859 0.50782 0.40535 0.0
C721 C 0.10125 0.52009 0.3933 0.0
C722 C 0.12348 0.51926 0.42091 0.0
C723 C 0.16786 0.57678 0.44049 0.0
H724 H 0.14207 0.55106 0.48905 0.0
C725 C 0.21652 0.61718 0.51231 0.0
C726 C 0.20315 0.62436 0.52319 0.0
C727 C 0.2061 0.60267 0.49641 0.0
C728 C 0.14961 0.55821 0.47556 0.0
H729 H 0.10433 0.55433 0.38833 0.0
H730 H 0.1311 0.57434 0.41494 0.0
H731 H 0.12076 0.52919 0.46048 0.0
H732 H 0.16827 0.62134 0.52643 0.0
H733 H 0.14995 0.59539 0.49911 0.0
H734 H 0.19655 0.60598 0.45564 0.0
C735 C 0.12516 0.55582 0.41227 0.0
C736 C 0.1375 0.54573 0.45927 0.0
C737 C 0.10989 0.54431 0.39695 0.0
C738 C 0.17904 0.6162 0.51824 0.0
C739 C 0.16852 0.60127 0.5027 0.0
C740 C 0.18025 0.58903 0.4568 0.0
C741 C 0.13181 0.54333 0.42452 0.0
C742 C 0.14622 0.55518 0.44161 0.0
C743 C 0.18201 0.59461 0.49154 0.0
C744 C 0.1709 0.58009 0.47444 0.0
H745 H 0.10282 0.48934 0.40284 0.0
H746 H 0.1285 0.50931 0.43014 0.0
H747 H 0.17492 0.58437 0.427 0.0
H748 H 0.23516 0.6233 0.5158 0.0
H749 H 0.21681 0.59773 0.48793 0.0
C750 C 0.58674 0.12233 0.56973 0.0
C751 C 0.56462 0.11111 0.55995 0.0
C752 C 0.59009 0.13668 0.58546 0.0
C753 C 0.56412 0.16923 0.60941 0.0
H754 H 0.5958 0.16305 0.65372 0.0
C755 C 0.55027 0.19641 0.68256 0.0
C756 C 0.57036 0.20892 0.69452 0.0
C757 C 0.55226 0.18691 0.66557 0.0
C758 C 0.58723 0.16523 0.64136 0.0
H759 H 0.52857 0.10581 0.55922 0.0
H760 H 0.53432 0.13059 0.58659 0.0
H761 H 0.59435 0.14193 0.62486 0.0
H762 H 0.60834 0.22118 0.69801 0.0
H763 H 0.61172 0.20421 0.66822 0.0
H764 H 0.55635 0.19191 0.62606 0.0
C765 C 0.5493 0.12883 0.5819 0.0
C766 C 0.58642 0.15316 0.62482 0.0
C767 C 0.54598 0.11458 0.5662 0.0
C768 C 0.59253 0.21164 0.68909 0.0
C769 C 0.59446 0.20188 0.6721 0.0
C770 C 0.56482 0.18114 0.62593 0.0
C771 C 0.57137 0.14005 0.59174 0.0
C772 C 0.5744 0.15464 0.60877 0.0
C773 C 0.57434 0.18952 0.66015 0.0
C774 C 0.57594 0.17889 0.64218 0.0
H775 H 0.60152 0.12017 0.56513 0.0
H776 H 0.60739 0.14526 0.59261 0.0
H777 H 0.55522 0.17121 0.59718 0.0
H778 H 0.53292 0.19397 0.68626 0.0
H779 H 0.53637 0.17718 0.65677 0.0
C780 C 0.46481 0.59345 0.72906 0.0
C781 C 0.47889 0.58253 0.72879 0.0
C782 C 0.45747 0.59829 0.74611 0.0
C783 C 0.44166 0.57481 0.7924 0.0
H784 H 0.45222 0.63614 0.80887 0.0
C785 C 0.41454 0.58576 0.86576 0.0
C786 C 0.40395 0.59986 0.86806 0.0
C787 C 0.42628 0.58658 0.84928 0.0
C788 C 0.44885 0.61883 0.80439 0.0
H789 H 0.49635 0.56815 0.74601 0.0
H790 H 0.48314 0.57618 0.77567 0.0
H791 H 0.467 0.63201 0.7784 0.0
H792 H 0.39806 0.62657 0.85537 0.0
H793 H 0.41767 0.62729 0.82607 0.0
H794 H 0.42274 0.56116 0.81766 0.0
C795 C 0.47807 0.58127 0.76276 0.0
C796 C 0.45738 0.61654 0.78699 0.0
C797 C 0.48571 0.5768 0.74581 0.0
C798 C 0.40622 0.61561 0.85392 0.0
C799 C 0.41751 0.61603 0.83716 0.0
C800 C 0.4328 0.57698 0.80954 0.0
C801 C 0.46371 0.59183 0.76305 0.0
C802 C 0.45408 0.59453 0.781 0.0
C803 C 0.4271 0.60099 0.83444 0.0
C804 C 0.43653 0.59906 0.81594 0.0
H805 H 0.45939 0.59809 0.7161 0.0
H806 H 0.44627 0.60633 0.74603 0.0
H807 H 0.43856 0.55757 0.78792 0.0
H808 H 0.4133 0.5737 0.87659 0.0
H809 H 0.4342 0.57539 0.84803 0.0
C810 C 0.9105 0.44325 0.90367 0.0
C811 C 0.90187 0.44429 0.88574 0.0
C812 C 0.89552 0.4369 0.91911 0.0
C813 C 0.85648 0.4121 0.94795 0.0
H814 H 0.8197 0.444 0.95371 0.0
C815 C 0.79573 0.39723 0.01156 0.0
C816 C 0.79926 0.41815 0.02032 0.0
C817 C 0.80556 0.39798 0.99403 0.0
C818 C 0.82981 0.43491 0.95226 0.0
H819 H 0.87035 0.43848 0.86991 0.0
H820 H 0.84431 0.42774 0.89697 0.0
H821 H 0.84223 0.44927 0.92518 0.0
H822 H 0.81523 0.45613 0.01729 0.0
H823 H 0.83218 0.45736 0.98676 0.0
H824 H 0.84458 0.39828 0.97529 0.0
C825 C 0.86277 0.43207 0.89905 0.0
C826 C 0.84254 0.43775 0.93586 0.0
C827 C 0.87771 0.43829 0.88357 0.0
C828 C 0.81222 0.43969 0.01096 0.0
C829 C 0.82181 0.44039 0.9934 0.0
C830 C 0.84359 0.4091 0.9643 0.0
C831 C 0.87159 0.43155 0.91701 0.0
C832 C 0.85635 0.42672 0.93367 0.0
C833 C 0.81883 0.4196 0.98484 0.0
C834 C 0.83049 0.42083 0.96676 0.0
H835 H 0.92908 0.44812 0.90593 0.0
H836 H 0.90293 0.43699 0.93282 0.0
H837 H 0.8668 0.40321 0.94658 0.0
H838 H 0.78583 0.38035 0.0184 0.0
H839 H 0.80284 0.38166 0.98768 0.0
C840 C 0.48072 0.92562 0.08182 0.0
C841 C 0.47351 0.91772 0.06324 0.0
C842 C 0.47023 0.91021 0.0967 0.0
C843 C 0.45324 0.87059 0.12499 0.0
H844 H 0.38397 0.83076 0.12359 0.0
C845 C 0.40197 0.80314 0.18271 0.0
C846 C 0.38156 0.80315 0.1895 0.0
C847 C 0.4131 0.81544 0.16653 0.0
C848 C 0.40331 0.8418 0.12419 0.0
H849 H 0.45033 0.88714 0.04573 0.0
H850 H 0.43191 0.86033 0.07172 0.0
H851 H 0.40429 0.85576 0.09702 0.0
H852 H 0.35651 0.81565 0.18431 0.0
H853 H 0.37595 0.83709 0.15613 0.0
H854 H 0.4522 0.85706 0.15236 0.0
C855 C 0.44544 0.87853 0.07476 0.0
C856 C 0.41498 0.85594 0.1089 0.0
C857 C 0.45598 0.89391 0.05988 0.0
C858 C 0.3722 0.81526 0.17948 0.0
C859 C 0.38326 0.82746 0.16326 0.0
C860 C 0.44158 0.85636 0.14025 0.0
C861 C 0.45225 0.88658 0.09334 0.0
C862 C 0.44006 0.87066 0.1092 0.0
C863 C 0.40399 0.82791 0.15673 0.0
C864 C 0.41646 0.84199 0.14009 0.0
H865 H 0.49393 0.94391 0.08492 0.0
H866 H 0.47566 0.91703 0.11087 0.0
H867 H 0.4726 0.88159 0.12557 0.0
H868 H 0.40963 0.79396 0.19005 0.0
H869 H 0.42889 0.81523 0.16171 0.0
C870 C 0.54267 0.46781 0.26282 0.0
C871 C 0.55032 0.4689 0.24431 0.0
C872 C 0.55282 0.4613 0.27733 0.0
C873 C 0.56943 0.43625 0.30421 0.0
H874 H 0.63871 0.46505 0.30504 0.0
C875 C 0.62135 0.41758 0.36221 0.0
C876 C 0.64178 0.43767 0.36966 0.0
C877 C 0.60977 0.41925 0.34608 0.0
C878 C 0.61935 0.45688 0.30502 0.0
H879 H 0.57401 0.46314 0.22645 0.0
H880 H 0.59182 0.45189 0.2518 0.0
H881 H 0.61872 0.47165 0.27857 0.0
H882 H 0.66615 0.47522 0.36584 0.0
H883 H 0.64597 0.47809 0.3379 0.0
H884 H 0.5702 0.42209 0.33099 0.0
C885 C 0.57819 0.45639 0.25511 0.0
C886 C 0.60786 0.46045 0.28975 0.0
C887 C 0.56802 0.46287 0.2406 0.0
C888 C 0.65049 0.45937 0.3605 0.0
C889 C 0.63901 0.461 0.34438 0.0
C890 C 0.58093 0.4326 0.31947 0.0
C891 C 0.57088 0.45576 0.27367 0.0
C892 C 0.5828 0.45046 0.28929 0.0
C893 C 0.61849 0.44101 0.33701 0.0
C894 C 0.60605 0.44319 0.32017 0.0
H895 H 0.52932 0.47265 0.26621 0.0
H896 H 0.54705 0.46134 0.2915 0.0
H897 H 0.55007 0.4281 0.30417 0.0
H898 H 0.61418 0.4006 0.36891 0.0
H899 H 0.59408 0.4035 0.34063 0.0
C900 C 0.4931 0.9274 0.40388 0.0
C901 C 0.48281 0.94046 0.41085 0.0
C902 C 0.48192 0.91098 0.38918 0.0
C903 C 0.43937 0.89757 0.34991 0.0
H904 H 0.43356 0.83547 0.34962 0.0
C905 C 0.37914 0.82615 0.29611 0.0
C906 C 0.38796 0.81249 0.28778 0.0
C907 C 0.39109 0.84099 0.31144 0.0
C908 C 0.4353 0.85285 0.34941 0.0
H909 H 0.45213 0.94565 0.4085 0.0
H910 H 0.43277 0.9172 0.3829 0.0
H911 H 0.45394 0.86286 0.37594 0.0
H912 H 0.41604 0.80336 0.28932 0.0
H913 H 0.4371 0.82957 0.31604 0.0
H914 H 0.42089 0.88778 0.32347 0.0
C915 C 0.44971 0.91998 0.38849 0.0
C916 C 0.44695 0.86851 0.36447 0.0
C917 C 0.46082 0.9363 0.40315 0.0
C918 C 0.40878 0.81366 0.2954 0.0
C919 C 0.42079 0.82859 0.31076 0.0
C920 C 0.42782 0.882 0.33489 0.0
C921 C 0.46027 0.90736 0.38118 0.0
C922 C 0.44884 0.89093 0.36496 0.0
C923 C 0.41221 0.84263 0.3188 0.0
C924 C 0.42538 0.85935 0.33455 0.0
H925 H 0.51011 0.93032 0.40944 0.0
H926 H 0.49054 0.90161 0.38375 0.0
H927 H 0.441 0.91491 0.34969 0.0
H928 H 0.36305 0.82555 0.29073 0.0
H929 H 0.38373 0.8512 0.31754 0.0
C930 C 0.56584 0.47456 0.58796 0.0
C931 C 0.55155 0.48407 0.58205 0.0
C932 C 0.57582 0.46604 0.57492 0.0
C933 C 0.60852 0.46725 0.54416 0.0
H934 H 0.57442 0.43193 0.49932 0.0
C935 C 0.65627 0.46333 0.47783 0.0
C936 C 0.64664 0.44179 0.46779 0.0
C937 C 0.64427 0.46564 0.49314 0.0
C938 C 0.5841 0.44154 0.51189 0.0
H939 H 0.53595 0.49142 0.55778 0.0
H940 H 0.55331 0.47646 0.53499 0.0
H941 H 0.55294 0.44037 0.52342 0.0
H942 H 0.61713 0.40555 0.46628 0.0
H943 H 0.59609 0.40967 0.49305 0.0
H944 H 0.63973 0.46872 0.53255 0.0
C945 C 0.55664 0.47544 0.54975 0.0
C946 C 0.57187 0.44657 0.52558 0.0
C947 C 0.5467 0.48403 0.56281 0.0
C948 C 0.62503 0.42239 0.47372 0.0
C949 C 0.6129 0.42477 0.48896 0.0
C950 C 0.62077 0.46235 0.53044 0.0
C951 C 0.57165 0.46675 0.55566 0.0
C952 C 0.58403 0.45975 0.54175 0.0
C953 C 0.62228 0.44651 0.4987 0.0
C954 C 0.60878 0.44974 0.51403 0.0
H955 H 0.56949 0.47385 0.60271 0.0
H956 H 0.58697 0.45908 0.57992 0.0
H957 H 0.61845 0.47762 0.55639 0.0
H958 H 0.67289 0.47861 0.47367 0.0
H959 H 0.65183 0.48268 0.50024 0.0
C960 C 0.06495 0.55599 0.72291 0.0
C961 C 0.0717 0.54831 0.73899 0.0
C962 C 0.0812 0.56719 0.7086 0.0
C963 C 0.14625 0.59839 0.6981 0.0
H964 H 0.12203 0.58758 0.64689 0.0
C965 C 0.20526 0.63324 0.63132 0.0
C966 C 0.19759 0.64444 0.61849 0.0
C967 C 0.19128 0.62162 0.64682 0.0
C968 C 0.12902 0.59081 0.66114 0.0
H969 H 0.10112 0.54656 0.75253 0.0
H970 H 0.12917 0.56522 0.72717 0.0
H971 H 0.09488 0.56616 0.67208 0.0
H972 H 0.1695 0.65267 0.61218 0.0
H973 H 0.14515 0.63219 0.63893 0.0
H974 H 0.1806 0.6228 0.68682 0.0
C975 C 0.11139 0.563 0.72583 0.0
C976 C 0.11346 0.57864 0.67561 0.0
C977 C 0.09516 0.55198 0.74027 0.0
C978 C 0.17598 0.64424 0.62174 0.0
C979 C 0.16193 0.63239 0.63701 0.0
C980 C 0.16193 0.61034 0.68353 0.0
C981 C 0.10461 0.57075 0.70979 0.0
C982 C 0.12173 0.58259 0.69434 0.0
C983 C 0.16925 0.62071 0.64954 0.0
C984 C 0.15332 0.60696 0.66496 0.0
H985 H 0.04697 0.55319 0.72125 0.0
H986 H 0.07539 0.57326 0.69666 0.0
H987 H 0.15324 0.60206 0.71234 0.0
H988 H 0.22183 0.63312 0.62924 0.0
H989 H 0.19728 0.61272 0.65631 0.0
C990 C 0.52613 0.07852 0.90126 0.0
C991 C 0.54145 0.08591 0.91714 0.0
C992 C 0.52926 0.09439 0.88714 0.0
C993 C 0.57277 0.14802 0.86447 0.0
H994 H 0.51725 0.15224 0.8486 0.0
C995 C 0.57811 0.21142 0.80594 0.0
C996 C 0.55833 0.20287 0.79351 0.0
C997 C 0.57688 0.19899 0.82215 0.0
C998 C 0.53289 0.1511 0.85266 0.0
H999 H 0.57249 0.11594 0.93027 0.0
H1000 H 0.57842 0.14344 0.90511 0.0
H1001 H 0.51388 0.1267 0.8744 0.0
H1002 H 0.52185 0.17445 0.78827 0.0
H1003 H 0.51997 0.15249 0.816 0.0
H1004 H 0.59157 0.1716 0.84224 0.0
C1005 C 0.56384 0.12531 0.90385 0.0
C1006 C 0.53095 0.13656 0.86752 0.0
C1007 C 0.56048 0.1095 0.91819 0.0
C1008 C 0.53734 0.18167 0.79763 0.0
C1009 C 0.53622 0.16913 0.81366 0.0
C1010 C 0.57464 0.16233 0.84936 0.0
C1011 C 0.54804 0.11794 0.88834 0.0
C1012 C 0.55077 0.13466 0.87341 0.0
C1013 C 0.55593 0.1776 0.82618 0.0
C1014 C 0.5546 0.16379 0.84308 0.0
H1015 H 0.51169 0.06039 0.89964 0.0
H1016 H 0.51707 0.08819 0.87514 0.0
H1017 H 0.58827 0.14672 0.86872 0.0
H1018 H 0.59451 0.22776 0.80319 0.0
H1019 H 0.59231 0.20624 0.83157 0.0
C1020 C 0.46611 0.57256 0.09217 0.0
C1021 C 0.45349 0.55042 0.10076 0.0
C1022 C 0.45634 0.57765 0.07651 0.0
C1023 C 0.41492 0.54771 0.03726 0.0
H1024 H 0.41509 0.60676 0.03089 0.0
C1025 C 0.36652 0.55988 0.97457 0.0
C1026 C 0.37788 0.5817 0.96545 0.0
C1027 C 0.375 0.55732 0.99191 0.0
C1028 C 0.41515 0.59029 0.03237 0.0
H1029 H 0.42065 0.51639 0.09983 0.0
H1030 H 0.40364 0.52529 0.07255 0.0
H1031 H 0.4316 0.60012 0.05975 0.0
H1032 H 0.40661 0.6182 0.96765 0.0
H1033 H 0.42194 0.61358 -0.00215 0.0
H1034 H 0.39914 0.53795 0.00989 0.0
C1035 C 0.42108 0.53868 0.0779 0.0
C1036 C 0.42454 0.58649 0.0489 0.0
C1037 C 0.43072 0.53368 0.09362 0.0
C1038 C 0.39747 0.60117 0.97437 0.0
C1039 C 0.40618 0.59853 0.9917 0.0
C1040 C 0.40577 0.55157 0.02073 0.0
C1041 C 0.4339 0.5606 0.06904 0.0
C1042 C 0.42431 0.56506 0.05155 0.0
C1043 C 0.39531 0.57642 0.0005 0.0
C1044 C 0.40553 0.5728 0.01812 0.0
H1045 H 0.48362 0.58586 0.09748 0.0
H1046 H 0.46666 0.59464 0.0699 0.0
H1047 H 0.41496 0.53122 0.03874 0.0
H1048 H 0.35115 0.54462 0.96819 0.0
H1049 H 0.36575 0.54022 -0.0015 0.0
C1050 C 0.9014 0.40462 0.24716 0.0
C1051 C 0.92631 0.41834 0.24449 0.0
C1052 C 0.88528 0.39953 0.23212 0.0
C1053 C 0.8787 0.42707 0.19231 0.0
H1054 H 0.83658 0.36677 0.16761 0.0
C1055 C 0.83543 0.4242 0.12169 0.0
C1056 C 0.81172 0.4063 0.1179 0.0
C1057 C 0.84784 0.42314 0.1374 0.0
C1058 C 0.84794 0.38368 0.17454 0.0
H1059 H 0.95373 0.43574 0.2236 0.0
H1060 H 0.92559 0.42762 0.19769 0.0
H1061 H 0.86049 0.36841 0.19523 0.0
H1062 H 0.78258 0.37285 0.12732 0.0
H1063 H 0.80412 0.37131 0.15528 0.0
H1064 H 0.86622 0.44255 0.1722 0.0
C1065 C 0.91865 0.4209 0.21141 0.0
C1066 C 0.86162 0.38457 0.19027 0.0
C1067 C 0.93469 0.42571 0.22629 0.0
C1068 C 0.80087 0.3869 0.1299 0.0
C1069 C 0.81324 0.386 0.14588 0.0
C1070 C 0.86486 0.42618 0.17686 0.0
C1071 C 0.89387 0.40823 0.21428 0.0
C1072 C 0.87744 0.40637 0.19897 0.0
C1073 C 0.83676 0.40437 0.14999 0.0
C1074 C 0.84977 0.40459 0.16744 0.0
H1075 H 0.89434 0.39876 0.261 0.0
H1076 H 0.86617 0.38981 0.23459 0.0
H1077 H 0.89065 0.44404 0.19898 0.0
H1078 H 0.84444 0.4392 0.11254 0.0
H1079 H 0.86618 0.43722 0.13971 0.0
loop_
_geom_bond_atom_site_label_1
_geom_bond_atom_site_label_2
_geom_bond_distance
_geom_bond_site_symmetry_2
_ccdc_geom_bond_type
C0 C1 1.384 . S
C0 C2 1.384 . S
C0 H28 0.931 . S
C1 C0 1.384 . S
C1 C4 1.382 . S
C2 C0 1.384 . S
C2 C3 1.381 . S
C2 H29 0.930 . S
C3 C2 1.381 . S
C3 C5 1.381 . S
C3 C6 1.487 . S
C4 C1 1.382 . S
C4 C5 1.387 . S
C4 H30 0.930 . S
C5 C3 1.381 . S
C5 C4 1.387 . S
C5 H31 0.931 . S
C6 C3 1.487 . S
C6 C13 1.399 . S
C6 N44 1.343 1_655 S
C7 C8 1.384 . S
C7 C9 1.384 . S
C7 H32 0.931 . S
C8 C7 1.384 . S
C8 C11 1.382 . S
C9 C7 1.384 . S
C9 C10 1.381 . S
C9 H33 0.930 . S
C10 C9 1.381 . S
C10 C12 1.381 . S
C10 C13 1.487 . S
C11 C8 1.382 . S
C11 C12 1.387 . S
C11 H34 0.930 . S
C12 C10 1.381 . S
C12 C11 1.387 . S
C12 H35 0.931 . S
C13 C6 1.399 . S
C13 C10 1.487 . S
C13 N45 1.343 1_655 S
C14 C15 1.384 . S
C14 C16 1.384 . S
C14 H36 0.931 . S
C15 C14 1.384 . S
C15 C18 1.382 . S
C16 C14 1.384 . S
C16 C17 1.381 . S
C16 H37 0.930 . S
C17 C16 1.381 . S
C17 C19 1.381 . S
C17 C20 1.487 . S
C18 C15 1.382 . S
C18 C19 1.387 . S
C18 H38 0.930 . S
C19 C17 1.381 . S
C19 C18 1.387 . S
C19 H39 0.931 . S
C20 C17 1.487 . S
C20 C27 1.399 . S
C20 N45 1.343 . S
C21 C22 1.384 . S
C21 C23 1.384 . S
C21 H40 0.931 . S
C22 C21 1.384 . S
C22 C25 1.382 . S
C23 C21 1.384 . S
C23 C24 1.381 . S
C23 H41 0.930 . S
C24 C23 1.381 . S
C24 C26 1.381 . S
C24 C27 1.487 . S
C25 C22 1.382 . S
C25 C26 1.387 . S
C25 H42 0.930 . S
C26 C24 1.381 . S
C26 C25 1.387 . S
C26 H43 0.931 . S
C27 C20 1.399 . S
C27 C24 1.487 . S
C27 N44 1.343 . S
H28 C0 0.931 . S
H29 C2 0.930 . S
H30 C4 0.930 . S
H31 C5 0.931 . S
H32 C7 0.931 . S
H33 C9 0.930 . S
H34 C11 0.930 . S
H35 C12 0.931 . S
H36 C14 0.931 . S
H37 C16 0.930 . S
H38 C18 0.930 . S
H39 C19 0.931 . S
H40 C21 0.931 . S
H41 C23 0.930 . S
H42 C25 0.930 . S
H43 C26 0.931 . S
N44 C6 1.343 1_455 S
N44 C27 1.343 . S
N45 C13 1.343 1_455 S
N45 C20 1.343 . S
C46 C47 1.384 . S
C46 C48 1.384 . S
C46 H74 0.931 . S
C47 C46 1.384 . S
C47 C50 1.382 . S
C48 C46 1.384 . S
C48 C49 1.381 . S
C48 H75 0.930 . S
C49 C48 1.381 . S
C49 C51 1.381 . S
C49 C52 1.487 . S
C50 C47 1.382 . S
C50 C51 1.387 . S
C50 H76 0.930 . S
C51 C49 1.381 . S
C51 C50 1.387 . S
C51 H77 0.931 . S
C52 C49 1.487 . S
C52 C59 1.399 . S
C52 N90 1.349 . S
C53 C54 1.384 . S
C53 C55 1.384 . S
C53 H78 0.931 . S
C54 C53 1.384 . S
C54 C57 1.382 . S
C55 C53 1.384 . S
C55 C56 1.381 . S
C55 H79 0.930 . S
C56 C55 1.381 . S
C56 C58 1.381 . S
C56 C59 1.487 . S
C57 C54 1.382 . S
C57 C58 1.387 . S
C57 H80 0.930 . S
C58 C56 1.381 . S
C58 C57 1.387 . S
C58 H81 0.931 . S
C59 C52 1.399 . S
C59 C56 1.487 . S
C59 N91 1.343 1_565 S
C60 C61 1.384 . S
C60 C62 1.384 . S
C60 H82 0.931 . S
C61 C60 1.384 . S
C61 C64 1.382 . S
C62 C60 1.384 . S
C62 C63 1.381 . S
C62 H83 0.930 . S
C63 C62 1.381 . S
C63 C65 1.381 . S
C63 C66 1.487 . S
C64 C61 1.382 . S
C64 C65 1.387 . S
C64 H84 0.930 . S
C65 C63 1.381 . S
C65 C64 1.387 . S
C65 H85 0.931 . S
C66 C63 1.487 . S
C66 C73 1.399 . S
C66 N91 1.343 . S
C67 C68 1.384 . S
C67 C69 1.384 . S
C67 H86 0.931 . S
C68 C67 1.384 . S
C68 C71 1.382 . S
C69 C67 1.384 . S
C69 C70 1.381 . S
C69 H87 0.930 . S
C70 C69 1.381 . S
C70 C72 1.381 . S
C70 C73 1.487 . S
C71 C68 1.382 . S
C71 C72 1.387 . S
C71 H88 0.930 . S
C72 C70 1.381 . S
C72 C71 1.387 . S
C72 H89 0.931 . S
C73 C66 1.399 . S
C73 C70 1.487 . S
C73 N90 1.333 1_545 S
H74 C46 0.931 . S
H75 C48 0.930 . S
H76 C50 0.930 . S
H77 C51 0.931 . S
H78 C53 0.931 . S
H79 C55 0.930 . S
H80 C57 0.930 . S
H81 C58 0.931 . S
H82 C60 0.931 . S
H83 C62 0.930 . S
H84 C64 0.930 . S
H85 C65 0.931 . S
H86 C67 0.931 . S
H87 C69 0.930 . S
H88 C71 0.930 . S
H89 C72 0.931 . S
N90 C52 1.349 . S
N90 C73 1.333 1_565 S
N91 C59 1.343 1_545 S
N91 C66 1.343 . S
C92 C93 1.384 . S
C92 C94 1.384 . S
C92 H120 0.931 . S
C93 C92 1.384 . S
C93 C96 1.382 . S
C94 C92 1.384 . S
C94 C95 1.381 . S
C94 H121 0.930 . S
C95 C94 1.381 . S
C95 C97 1.381 . S
C95 C98 1.487 . S
C96 C93 1.382 . S
C96 C97 1.387 . S
C96 H122 0.930 . S
C97 C95 1.381 . S
C97 C96 1.387 . S
C97 H123 0.931 . S
C98 C95 1.487 . S
C98 C105 1.399 . S
C98 N136 1.343 . S
C99 C100 1.384 . S
C99 C101 1.384 . S
C99 H124 0.931 . S
C100 C99 1.384 . S
C100 C103 1.382 . S
C101 C99 1.384 . S
C101 C102 1.381 . S
C101 H125 0.930 . S
C102 C101 1.381 . S
C102 C104 1.381 . S
C102 C105 1.487 . S
C103 C100 1.382 . S
C103 C104 1.387 . S
C103 H126 0.930 . S
C104 C102 1.381 . S
C104 C103 1.387 . S
C104 H127 0.931 . S
C105 C98 1.399 . S
C105 C102 1.487 . S
C105 N137 1.343 . S
C106 C107 1.384 . S
C106 C108 1.384 . S
C106 H128 0.931 . S
C107 C106 1.384 . S
C107 C110 1.382 . S
C108 C106 1.384 . S
C108 C109 1.381 . S
C108 H129 0.930 . S
C109 C108 1.381 . S
C109 C111 1.381 . S
C109 C112 1.487 . S
C110 C107 1.382 . S
C110 C111 1.387 . S
C110 H130 0.930 . S
C111 C109 1.381 . S
C111 C110 1.387 . S
C111 H131 0.931 . S
C112 C109 1.487 . S
C112 C119 1.399 . S
C112 N137 1.343 . S
C113 C114 1.384 . S
C113 C115 1.384 . S
C113 H132 0.931 . S
C114 C113 1.384 . S
C114 C117 1.382 . S
C115 C113 1.384 . S
C115 C116 1.381 . S
C115 H133 0.930 . S
C116 C115 1.381 . S
C116 C118 1.381 . S
C116 C119 1.487 . S
C117 C114 1.382 . S
C117 C118 1.387 . S
C117 H134 0.930 . S
C118 C116 1.381 . S
C118 C117 1.387 . S
C118 H135 0.931 . S
C119 C112 1.399 . S
C119 C116 1.487 . S
C119 N136 1.343 . S
H120 C92 0.931 . S
H121 C94 0.930 . S
H122 C96 0.930 . S
H123 C97 0.931 . S
H124 C99 0.931 . S
H125 C101 0.930 . S
H126 C103 0.930 . S
H127 C104 0.931 . S
H128 C106 0.931 . S
H129 C108 0.930 . S
H130 C110 0.930 . S
H131 C111 0.931 . S
H132 C113 0.931 . S
H133 C115 0.930 . S
H134 C117 0.930 . S
H135 C118 0.931 . S
N136 C98 1.343 . S
N136 C119 1.343 . S
N137 C105 1.343 . S
N137 C112 1.343 . S
C138 C139 1.384 . S
C138 C140 1.384 . S
C138 H166 0.931 . S
C139 C138 1.384 . S
C139 C142 1.382 . S
C140 C138 1.384 . S
C140 C141 1.381 . S
C140 H167 0.930 . S
C141 C140 1.381 . S
C141 C143 1.381 . S
C141 C144 1.487 . S
C142 C139 1.382 . S
C142 C143 1.387 . S
C142 H168 0.930 . S
C143 C141 1.381 . S
C143 C142 1.387 . S
C143 H169 0.931 . S
C144 C141 1.487 . S
C144 C151 1.399 . S
C144 N182 1.343 1_655 S
C145 C146 1.384 . S
C145 C147 1.384 . S
C145 H170 0.931 . S
C146 C145 1.384 . S
C146 C149 1.382 . S
C147 C145 1.384 . S
C147 C148 1.381 . S
C147 H171 0.930 . S
C148 C147 1.381 . S
C148 C150 1.381 . S
C148 C151 1.487 . S
C149 C146 1.382 . S
C149 C150 1.387 . S
C149 H172 0.930 . S
C150 C148 1.381 . S
C150 C149 1.387 . S
C150 H173 0.931 . S
C151 C144 1.399 . S
C151 C148 1.487 . S
C151 N183 1.343 1_655 S
C152 C153 1.384 . S
C152 C154 1.384 . S
C152 H174 0.931 . S
C153 C152 1.384 . S
C153 C156 1.382 . S
C154 C152 1.384 . S
C154 C155 1.381 . S
C154 H175 0.930 . S
C155 C154 1.381 . S
C155 C157 1.381 . S
C155 C158 1.487 . S
C156 C153 1.382 . S
C156 C157 1.387 . S
C156 H176 0.930 . S
C157 C155 1.381 . S
C157 C156 1.387 . S
C157 H177 0.931 . S
C158 C155 1.487 . S
C158 C165 1.399 . S
C158 N183 1.343 . S
C159 C160 1.384 . S
C159 C161 1.384 . S
C159 H178 0.931 . S
C160 C159 1.384 . S
C160 C163 1.382 . S
C161 C159 1.384 . S
C161 C162 1.381 . S
C161 H179 0.930 . S
C162 C161 1.381 . S
C162 C164 1.381 . S
C162 C165 1.487 . S
C163 C160 1.382 . S
C163 C164 1.387 . S
C163 H180 0.930 . S
C164 C162 1.381 . S
C164 C163 1.387 . S
C164 H181 0.931 . S
C165 C158 1.399 . S
C165 C162 1.487 . S
C165 N182 1.343 . S
H166 C138 0.931 . S
H167 C140 0.930 . S
H168 C142 0.930 . S
H169 C143 0.931 . S
H170 C145 0.931 . S
H171 C147 0.930 . S
H172 C149 0.930 . S
H173 C150 0.931 . S
H174 C152 0.931 . S
H175 C154 0.930 . S
H176 C156 0.930 . S
H177 C157 0.931 . S
H178 C159 0.931 . S
H179 C161 0.930 . S
H180 C163 0.930 . S
H181 C164 0.931 . S
N182 C144 1.343 1_455 S
N182 C165 1.343 . S
N183 C151 1.343 1_455 S
N183 C158 1.343 . S
C184 C185 1.384 . S
C184 C186 1.384 . S
C184 H212 0.931 . S
C185 C184 1.384 . S
C185 C188 1.382 . S
C186 C184 1.384 . S
C186 C187 1.381 . S
C186 H213 0.948 . S
C187 C186 1.381 . S
C187 C189 1.381 . S
C187 C190 1.487 . S
C188 C185 1.382 . S
C188 C189 1.387 . S
C188 H214 0.930 . S
C189 C187 1.381 . S
C189 C188 1.387 . S
C189 H215 0.931 . S
C190 C187 1.487 . S
C190 C197 1.399 1_556 S
C190 N228 1.343 1_565 S
C191 C192 1.384 . S
C191 C193 1.384 . S
C191 H216 0.931 . S
C192 C191 1.384 . S
C192 C195 1.382 . S
C193 C191 1.384 . S
C193 C194 1.381 . S
C193 H217 0.930 . S
C194 C193 1.381 . S
C194 C196 1.381 . S
C194 C197 1.487 . S
C195 C192 1.382 . S
C195 C196 1.387 . S
C195 H218 0.930 . S
C196 C194 1.381 . S
C196 C195 1.387 . S
C196 H219 0.931 . S
C197 C190 1.399 1_554 S
C197 C194 1.487 . S
C197 N229 1.343 1_565 S
C198 C199 1.384 . S
C198 C200 1.384 1_554 S
C198 H220 0.931 1_554 S
C199 C198 1.384 . S
C199 C202 1.382 . S
C200 C198 1.384 1_556 S
C200 C201 1.381 1_556 S
C200 H221 0.930 . S
C201 C200 1.381 1_554 S
C201 C203 1.381 . S
C201 C204 1.487 1_554 S
C202 C199 1.382 . S
C202 C203 1.387 . S
C202 H222 0.930 . S
C203 C201 1.381 . S
C203 C202 1.387 . S
C203 H223 0.931 . S
C204 C201 1.487 1_556 S
C204 C211 1.399 . S
C204 N229 1.343 1_556 S
C205 C206 1.384 . S
C205 C207 1.384 . S
C205 H224 0.931 . S
C206 C205 1.384 . S
C206 C209 1.382 . S
C207 C205 1.384 . S
C207 C208 1.381 . S
C207 H225 0.930 . S
C208 C207 1.381 . S
C208 C210 1.381 . S
C208 C211 1.487 . S
C209 C206 1.382 . S
C209 C210 1.387 . S
C209 H226 0.930 . S
C210 C208 1.381 . S
C210 C209 1.387 . S
C210 H227 0.931 . S
C211 C204 1.399 . S
C211 C208 1.487 . S
C211 N228 1.343 . S
H212 C184 0.931 . S
H213 C186 0.948 . S
H214 C188 0.930 . S
H215 C189 0.931 . S
H216 C191 0.931 . S
H217 C193 0.930 . S
H218 C195 0.930 . S
H219 C196 0.931 . S
H220 C198 0.931 1_556 S
H221 C200 0.930 . S
H222 C202 0.930 . S
H223 C203 0.931 . S
H224 C205 0.931 . S
H225 C207 0.930 . S
H226 C209 0.930 . S
H227 C210 0.931 . S
N228 C190 1.343 1_545 S
N228 C211 1.343 . S
N229 C197 1.343 1_545 S
N229 C204 1.343 1_554 S
C230 C231 1.384 . S
C230 C232 1.384 . S
C230 H258 0.931 . S
C231 C230 1.384 . S
C231 C234 1.382 . S
C232 C230 1.384 . S
C232 C233 1.381 . S
C232 H259 0.930 . S
C233 C232 1.381 . S
C233 C235 1.381 . S
C233 C236 1.487 . S
C234 C231 1.382 . S
C234 C235 1.387 . S
C234 H260 0.930 . S
C235 C233 1.381 . S
C235 C234 1.387 . S
C235 H261 0.931 . S
C236 C233 1.487 . S
C236 C243 1.399 . S
C236 N274 1.343 . S
C237 C238 1.384 . S
C237 C239 1.384 . S
C237 H262 0.931 . S
C238 C237 1.384 . S
C238 C241 1.382 . S
C239 C237 1.384 . S
C239 C240 1.381 . S
C239 H263 0.930 . S
C240 C239 1.381 . S
C240 C242 1.381 . S
C240 C243 1.487 . S
C241 C238 1.382 . S
C241 C242 1.387 . S
C241 H264 0.930 . S
C242 C240 1.381 . S
C242 C241 1.387 . S
C242 H265 0.931 . S
C243 C236 1.399 . S
C243 C240 1.487 . S
C243 N275 1.343 . S
C244 C245 1.384 . S
C244 C246 1.384 . S
C244 H266 0.931 . S
C245 C244 1.384 . S
C245 C248 1.382 . S
C246 C244 1.384 . S
C246 C247 1.381 . S
C246 H267 0.930 . S
C247 C246 1.381 . S
C247 C249 1.381 . S
C247 C250 1.487 . S
C248 C245 1.382 . S
C248 C249 1.387 . S
C248 H268 0.930 . S
C249 C247 1.381 . S
C249 C248 1.387 . S
C249 H269 0.931 . S
C250 C247 1.487 . S
C250 C257 1.399 . S
C250 N275 1.343 . S
C251 C252 1.384 . S
C251 C253 1.384 . S
C251 H270 0.931 . S
C252 C251 1.384 . S
C252 C255 1.382 . S
C253 C251 1.384 . S
C253 C254 1.381 . S
C253 H271 0.930 . S
C254 C253 1.381 . S
C254 C256 1.381 . S
C254 C257 1.487 . S
C255 C252 1.382 . S
C255 C256 1.387 . S
C255 H272 0.930 . S
C256 C254 1.381 . S
C256 C255 1.387 . S
C256 H273 0.931 . S
C257 C250 1.399 . S
C257 C254 1.487 . S
C257 N274 1.343 . S
H258 C230 0.931 . S
H259 C232 0.930 . S
H260 C234 0.930 . S
H261 C235 0.931 . S
H262 C237 0.931 . S
H263 C239 0.930 . S
H264 C241 0.930 . S
H265 C242 0.931 . S
H266 C244 0.931 . S
H267 C246 0.930 . S
H268 C248 0.930 . S
H269 C249 0.931 . S
H270 C251 0.931 . S
H271 C253 0.930 . S
H272 C255 0.930 . S
H273 C256 0.931 . S
N274 C236 1.343 . S
N274 C257 1.343 . S
N275 C243 1.343 . S
N275 C250 1.343 . S
Zn276 O279 2.031 . S
Zn276 O281 2.049 . S
Zn276 O286 2.067 . S
Zn277 O278 1.962 . S
Zn277 O280 1.986 . S
Zn277 O282 1.996 . S
Zn277 O285 1.943 . S
O278 Zn277 1.962 . S
O278 C283 1.254 . S
O279 Zn276 2.031 . S
O279 C283 1.269 . S
O280 Zn277 1.986 . S
O280 C287 1.262 . S
O281 Zn276 2.049 . S
O281 C289 1.260 . S
O282 Zn277 1.996 . S
O282 C289 1.257 . S
C283 O278 1.254 . S
C283 O279 1.269 . S
C284 O285 1.249 . S
C284 O286 1.270 . S
O285 Zn277 1.943 . S
O285 C284 1.249 . S
O286 Zn276 2.067 . S
O286 C284 1.270 . S
C287 O280 1.262 . S
C287 O288 1.232 . S
O288 C287 1.232 . S
C289 O281 1.260 . S
C289 O282 1.257 . S
Zn290 O293 2.031 . S
Zn290 O295 2.049 . S
Zn290 O300 2.067 . S
Zn291 O292 1.962 . S
Zn291 O294 1.986 . S
Zn291 O296 1.996 . S
Zn291 O299 1.943 . S
O292 Zn291 1.962 . S
O292 C297 1.254 . S
O293 Zn290 2.031 . S
O293 C297 1.269 . S
O294 Zn291 1.986 . S
O294 C301 1.262 . S
O295 Zn290 2.049 . S
O295 C303 1.260 . S
O296 Zn291 1.996 . S
O296 C303 1.257 . S
C297 O292 1.254 . S
C297 O293 1.269 . S
C298 O299 1.249 . S
C298 O300 1.270 . S
O299 Zn291 1.943 . S
O299 C298 1.249 . S
O300 Zn290 2.067 . S
O300 C298 1.270 . S
C301 O294 1.262 . S
C301 O302 1.232 . S
O302 C301 1.232 . S
C303 O295 1.260 . S
C303 O296 1.257 . S
Zn304 O307 2.031 . S
Zn304 O309 2.049 . S
Zn304 O314 2.067 . S
Zn305 O306 1.962 . S
Zn305 O308 1.986 . S
Zn305 O310 1.996 . S
Zn305 O313 1.943 . S
O306 Zn305 1.962 . S
O306 C311 1.254 . S
O307 Zn304 2.031 . S
O307 C311 1.269 . S
O308 Zn305 1.986 . S
O308 C315 1.262 . S
O309 Zn304 2.049 . S
O309 C317 1.260 . S
O310 Zn305 1.996 . S
O310 C317 1.257 . S
C311 O306 1.254 . S
C311 O307 1.269 . S
C312 O313 1.249 . S
C312 O314 1.270 . S
O313 Zn305 1.943 . S
O313 C312 1.249 . S
O314 Zn304 2.067 . S
O314 C312 1.270 . S
C315 O308 1.262 . S
C315 O316 1.232 . S
O316 C315 1.232 . S
C317 O309 1.260 . S
C317 O310 1.257 . S
Zn318 O321 2.031 . S
Zn318 O323 2.049 . S
Zn318 O328 2.067 . S
Zn319 O320 1.962 . S
Zn319 O322 1.986 . S
Zn319 O324 1.996 . S
Zn319 O327 1.943 . S
O320 Zn319 1.962 . S
O320 C325 1.254 . S
O321 Zn318 2.031 . S
O321 C325 1.269 . S
O322 Zn319 1.986 . S
O322 C329 1.262 . S
O323 Zn318 2.049 . S
O323 C331 1.260 . S
O324 Zn319 1.996 . S
O324 C331 1.257 . S
C325 O320 1.254 . S
C325 O321 1.269 . S
C326 O327 1.249 . S
C326 O328 1.270 . S
O327 Zn319 1.943 . S
O327 C326 1.249 . S
O328 Zn318 2.067 . S
O328 C326 1.270 . S
C329 O322 1.262 . S
C329 O330 1.232 . S
O330 C329 1.232 . S
C331 O323 1.260 . S
C331 O324 1.257 . S
Zn332 O335 2.031 . S
Zn332 O337 2.049 . S
Zn332 O342 2.067 . S
Zn333 O334 1.962 . S
Zn333 O336 1.986 . S
Zn333 O338 1.996 . S
Zn333 O341 1.943 . S
O334 Zn333 1.962 . S
O334 C339 1.254 . S
O335 Zn332 2.031 . S
O335 C339 1.269 . S
O336 Zn333 1.986 . S
O336 C343 1.262 . S
O337 Zn332 2.049 . S
O337 C345 1.260 . S
O338 Zn333 1.996 . S
O338 C345 1.257 . S
C339 O334 1.254 . S
C339 O335 1.269 . S
C340 O341 1.249 . S
C340 O342 1.270 . S
O341 Zn333 1.943 . S
O341 C340 1.249 . S
O342 Zn332 2.067 . S
O342 C340 1.270 . S
C343 O336 1.262 . S
C343 O344 1.232 . S
O344 C343 1.232 . S
C345 O337 1.260 . S
C345 O338 1.257 . S
Zn346 O349 2.031 . S
Zn346 O351 2.049 . S
Zn346 O356 2.067 . S
Zn347 O348 1.962 . S
Zn347 O350 1.986 . S
Zn347 O352 1.996 . S
Zn347 O355 1.943 . S
O348 Zn347 1.962 . S
O348 C353 1.254 . S
O349 Zn346 2.031 . S
O349 C353 1.269 . S
O350 Zn347 1.986 . S
O350 C357 1.262 . S
O351 Zn346 2.049 . S
O351 C359 1.260 . S
O352 Zn347 1.996 . S
O352 C359 1.257 . S
C353 O348 1.254 . S
C353 O349 1.269 . S
C354 O355 1.249 . S
C354 O356 1.270 . S
O355 Zn347 1.943 . S
O355 C354 1.249 . S
O356 Zn346 2.067 . S
O356 C354 1.270 . S
C357 O350 1.262 . S
C357 O358 1.232 . S
O358 C357 1.232 . S
C359 O351 1.260 . S
C359 O352 1.257 . S
C360 C361 1.349 . S
C360 C362 1.327 . S
C360 H385 0.950 . S
C361 C360 1.349 . S
C361 C377 1.349 . S
C362 C360 1.327 . S
C362 C381 1.429 . S
C362 H386 0.950 . S
C363 C380 1.574 . S
C363 C382 1.368 . S
C363 H387 0.949 . S
H364 C368 0.949 . S
C365 C366 1.349 . S
C365 C367 1.327 . S
C365 H388 0.950 . S
C366 C365 1.349 . S
C366 C378 1.349 . S
C367 C365 1.327 . S
C367 C383 1.429 . S
C367 H389 0.950 . S
C368 H364 0.949 . S
C368 C376 1.574 . S
C368 C384 1.368 . S
H369 C377 0.950 . S
H370 C375 0.950 . S
H371 C376 0.949 . S
H372 C378 0.950 . S
H373 C379 0.950 . S
H374 C380 0.949 . S
C375 H370 0.950 . S
C375 C377 1.327 . S
C375 C381 1.429 . S
C376 C368 1.574 . S
C376 H371 0.949 . S
C376 C382 1.368 . S
C377 C361 1.349 . S
C377 H369 0.950 . S
C377 C375 1.327 . S
C378 C366 1.349 . S
C378 H372 0.950 . S
C378 C379 1.327 . S
C379 H373 0.950 . S
C379 C378 1.327 . S
C379 C383 1.429 . S
C380 C363 1.574 . S
C380 H374 0.949 . S
C380 C384 1.368 . S
C381 C362 1.429 . S
C381 C375 1.429 . S
C381 C382 1.523 . S
C382 C363 1.368 . S
C382 C376 1.368 . S
C382 C381 1.523 . S
C383 C367 1.429 . S
C383 C379 1.429 . S
C383 C384 1.523 . S
C384 C368 1.368 . S
C384 C380 1.368 . S
C384 C383 1.523 . S
H385 C360 0.950 . S
H386 C362 0.950 . S
H387 C363 0.949 . S
H388 C365 0.950 . S
H389 C367 0.950 . S
C390 C391 1.349 . S
C390 C392 1.327 . S
C390 H415 0.950 . S
C391 C390 1.349 . S
C391 C407 1.349 . S
C392 C390 1.327 . S
C392 C411 1.429 . S
C392 H416 0.950 . S
C393 C410 1.574 . S
C393 C412 1.368 . S
C393 H417 0.949 . S
H394 C398 0.949 . S
C395 C396 1.349 . S
C395 C397 1.327 . S
C395 H418 0.950 . S
C396 C395 1.349 . S
C396 C408 1.349 . S
C397 C395 1.327 . S
C397 C413 1.429 . S
C397 H419 0.950 . S
C398 H394 0.949 . S
C398 C406 1.574 . S
C398 C414 1.368 . S
H399 C407 0.950 . S
H400 C405 0.950 . S
H401 C406 0.949 . S
H402 C408 0.950 . S
H403 C409 0.950 . S
H404 C410 0.949 . S
C405 H400 0.950 . S
C405 C407 1.327 . S
C405 C411 1.429 . S
C406 C398 1.574 . S
C406 H401 0.949 . S
C406 C412 1.368 . S
C407 C391 1.349 . S
C407 H399 0.950 . S
C407 C405 1.327 . S
C408 C396 1.349 . S
C408 H402 0.950 . S
C408 C409 1.327 . S
C409 H403 0.950 . S
C409 C408 1.327 . S
C409 C413 1.429 . S
C410 C393 1.574 . S
C410 H404 0.949 . S
C410 C414 1.368 . S
C411 C392 1.429 . S
C411 C405 1.429 . S
C411 C412 1.523 . S
C412 C393 1.368 . S
C412 C406 1.368 . S
C412 C411 1.523 . S
C413 C397 1.429 . S
C413 C409 1.429 . S
C413 C414 1.523 . S
C414 C398 1.368 . S
C414 C410 1.368 . S
C414 C413 1.523 . S
H415 C390 0.950 . S
H416 C392 0.950 . S
H417 C393 0.949 . S
H418 C395 0.950 . S
H419 C397 0.950 . S
C420 C421 1.349 . S
C420 C422 1.327 . S
C420 H445 0.950 . S
C421 C420 1.349 . S
C421 C437 1.349 . S
C422 C420 1.327 . S
C422 C441 1.429 . S
C422 H446 0.950 . S
C423 C440 1.574 . S
C423 C442 1.368 . S
C423 H447 0.949 . S
H424 C428 0.949 . S
C425 C426 1.349 . S
C425 C427 1.327 . S
C425 H448 0.950 . S
C426 C425 1.349 . S
C426 C438 1.349 . S
C427 C425 1.327 . S
C427 C443 1.429 . S
C427 H449 0.950 . S
C428 H424 0.949 . S
C428 C436 1.574 . S
C428 C444 1.368 . S
H429 C437 0.950 . S
H430 C435 0.950 . S
H431 C436 0.949 . S
H432 C438 0.950 . S
H433 C439 0.950 . S
H434 C440 0.949 . S
C435 H430 0.950 . S
C435 C437 1.327 . S
C435 C441 1.429 . S
C436 C428 1.574 . S
C436 H431 0.949 . S
C436 C442 1.368 . S
C437 C421 1.349 . S
C437 H429 0.950 . S
C437 C435 1.327 . S
C438 C426 1.349 . S
C438 H432 0.950 . S
C438 C439 1.327 . S
C439 H433 0.950 . S
C439 C438 1.327 . S
C439 C443 1.429 . S
C440 C423 1.574 . S
C440 H434 0.949 . S
C440 C444 1.368 . S
C441 C422 1.429 . S
C441 C435 1.429 . S
C441 C442 1.523 . S
C442 C423 1.368 . S
C442 C436 1.368 . S
C442 C441 1.523 . S
C443 C427 1.429 . S
C443 C439 1.429 . S
C443 C444 1.523 . S
C444 C428 1.368 . S
C444 C440 1.368 . S
C444 C443 1.523 . S
H445 C420 0.950 . S
H446 C422 0.950 . S
H447 C423 0.949 . S
H448 C425 0.950 . S
H449 C427 0.950 . S
C450 C451 1.349 . S
C450 C452 1.327 . S
C450 H475 0.950 . S
C451 C450 1.349 . S
C451 C467 1.349 . S
C452 C450 1.327 . S
C452 C471 1.429 . S
C452 H476 0.950 . S
C453 C470 1.574 . S
C453 C472 1.368 . S
C453 H477 0.949 . S
H454 C458 0.949 . S
C455 C456 1.349 . S
C455 C457 1.327 . S
C455 H478 0.950 . S
C456 C455 1.349 . S
C456 C468 1.349 . S
C457 C455 1.327 . S
C457 C473 1.429 . S
C457 H479 0.950 . S
C458 H454 0.949 . S
C458 C466 1.574 . S
C458 C474 1.368 . S
H459 C467 0.950 . S
H460 C465 0.950 . S
H461 C466 0.949 . S
H462 C468 0.950 . S
H463 C469 0.950 . S
H464 C470 0.949 . S
C465 H460 0.950 . S
C465 C467 1.327 . S
C465 C471 1.429 . S
C466 C458 1.574 . S
C466 H461 0.949 . S
C466 C472 1.368 . S
C467 C451 1.349 . S
C467 H459 0.950 . S
C467 C465 1.327 . S
C468 C456 1.349 . S
C468 H462 0.950 . S
C468 C469 1.327 . S
C469 H463 0.950 . S
C469 C468 1.327 . S
C469 C473 1.429 . S
C470 C453 1.574 . S
C470 H464 0.949 . S
C470 C474 1.368 . S
C471 C452 1.429 . S
C471 C465 1.429 . S
C471 C472 1.523 . S
C472 C453 1.368 . S
C472 C466 1.368 . S
C472 C471 1.523 . S
C473 C457 1.429 . S
C473 C469 1.429 . S
C473 C474 1.523 . S
C474 C458 1.368 . S
C474 C470 1.368 . S
C474 C473 1.523 . S
H475 C450 0.950 . S
H476 C452 0.950 . S
H477 C453 0.949 . S
H478 C455 0.950 . S
H479 C457 0.950 . S
C480 C481 1.349 . S
C480 C482 1.327 . S
C480 H505 0.950 . S
C481 C480 1.349 . S
C481 C497 1.349 . S
C482 C480 1.327 . S
C482 C501 1.429 . S
C482 H506 0.950 . S
C483 C500 1.574 . S
C483 C502 1.368 . S
C483 H507 0.949 . S
H484 C488 0.949 . S
C485 C486 1.349 . S
C485 C487 1.327 . S
C485 H508 0.950 . S
C486 C485 1.349 . S
C486 C498 1.349 . S
C487 C485 1.327 . S
C487 C503 1.429 . S
C487 H509 0.950 . S
C488 H484 0.949 . S
C488 C496 1.574 . S
C488 C504 1.368 . S
H489 C497 0.950 . S
H490 C495 0.950 . S
H491 C496 0.949 . S
H492 C498 0.950 . S
H493 C499 0.950 . S
H494 C500 0.949 . S
C495 H490 0.950 . S
C495 C497 1.327 . S
C495 C501 1.429 . S
C496 C488 1.574 . S
C496 H491 0.949 . S
C496 C502 1.368 . S
C497 C481 1.349 . S
C497 H489 0.950 . S
C497 C495 1.327 . S
C498 C486 1.349 . S
C498 H492 0.950 . S
C498 C499 1.327 . S
C499 H493 0.950 . S
C499 C498 1.327 . S
C499 C503 1.429 . S
C500 C483 1.574 . S
C500 H494 0.949 . S
C500 C504 1.368 . S
C501 C482 1.429 . S
C501 C495 1.429 . S
C501 C502 1.523 . S
C502 C483 1.368 . S
C502 C496 1.368 . S
C502 C501 1.523 . S
C503 C487 1.429 . S
C503 C499 1.429 . S
C503 C504 1.523 . S
C504 C488 1.368 . S
C504 C500 1.368 . S
C504 C503 1.523 . S
H505 C480 0.950 . S
H506 C482 0.950 . S
H507 C483 0.949 . S
H508 C485 0.950 . S
H509 C487 0.950 . S
C510 C511 1.349 . S
C510 C512 1.327 . S
C510 H535 0.950 . S
C511 C510 1.349 . S
C511 C527 1.349 . S
C512 C510 1.327 . S
C512 C531 1.429 . S
C512 H536 0.950 . S
C513 C530 1.574 . S
C513 C532 1.368 . S
C513 H537 0.949 . S
H514 C518 0.949 . S
C515 C516 1.349 . S
C515 C517 1.327 . S
C515 H538 0.950 . S
C516 C515 1.349 . S
C516 C528 1.349 . S
C517 C515 1.327 . S
C517 C533 1.429 . S
C517 H539 0.950 . S
C518 H514 0.949 . S
C518 C526 1.574 . S
C518 C534 1.368 . S
H519 C527 0.950 . S
H520 C525 0.950 . S
H521 C526 0.949 . S
H522 C528 0.950 . S
H523 C529 0.950 . S
H524 C530 0.949 . S
C525 H520 0.950 . S
C525 C527 1.327 . S
C525 C531 1.429 . S
C526 C518 1.574 . S
C526 H521 0.949 . S
C526 C532 1.368 . S
C527 C511 1.349 . S
C527 H519 0.950 . S
C527 C525 1.327 . S
C528 C516 1.349 . S
C528 H522 0.950 . S
C528 C529 1.327 . S
C529 H523 0.950 . S
C529 C528 1.327 . S
C529 C533 1.429 . S
C530 C513 1.574 . S
C530 H524 0.949 . S
C530 C534 1.368 . S
C531 C512 1.429 . S
C531 C525 1.429 . S
C531 C532 1.523 . S
C532 C513 1.368 . S
C532 C526 1.368 . S
C532 C531 1.523 . S
C533 C517 1.429 . S
C533 C529 1.429 . S
C533 C534 1.523 . S
C534 C518 1.368 . S
C534 C530 1.368 . S
C534 C533 1.523 . S
H535 C510 0.950 . S
H536 C512 0.950 . S
H537 C513 0.949 . S
H538 C515 0.950 . S
H539 C517 0.950 . S
C540 C541 1.349 . S
C540 C542 1.327 . S
C540 H565 0.950 . S
C541 C540 1.349 . S
C541 C557 1.349 . S
C542 C540 1.327 . S
C542 C561 1.429 . S
C542 H566 0.950 . S
C543 C560 1.574 . S
C543 C562 1.368 . S
C543 H567 0.949 . S
H544 C548 0.949 . S
C545 C546 1.349 . S
C545 C547 1.327 . S
C545 H568 0.950 . S
C546 C545 1.349 . S
C546 C558 1.349 . S
C547 C545 1.327 . S
C547 C563 1.429 . S
C547 H569 0.950 . S
C548 H544 0.949 . S
C548 C556 1.574 . S
C548 C564 1.368 . S
H549 C557 0.950 . S
H550 C555 0.950 . S
H551 C556 0.949 . S
H552 C558 0.950 . S
H553 C559 0.950 . S
H554 C560 0.949 . S
C555 H550 0.950 . S
C555 C557 1.327 . S
C555 C561 1.429 . S
C556 C548 1.574 . S
C556 H551 0.949 . S
C556 C562 1.368 . S
C557 C541 1.349 . S
C557 H549 0.950 . S
C557 C555 1.327 . S
C558 C546 1.349 . S
C558 H552 0.950 . S
C558 C559 1.327 . S
C559 H553 0.950 . S
C559 C558 1.327 . S
C559 C563 1.429 . S
C560 C543 1.574 . S
C560 H554 0.949 . S
C560 C564 1.368 . S
C561 C542 1.429 . S
C561 C555 1.429 . S
C561 C562 1.523 . S
C562 C543 1.368 . S
C562 C556 1.368 . S
C562 C561 1.523 . S
C563 C547 1.429 . S
C563 C559 1.429 . S
C563 C564 1.523 . S
C564 C548 1.368 . S
C564 C560 1.368 . S
C564 C563 1.523 . S
H565 C540 0.950 . S
H566 C542 0.950 . S
H567 C543 0.949 . S
H568 C545 0.950 . S
H569 C547 0.950 . S
C570 C571 1.349 . S
C570 C572 1.327 . S
C570 H595 0.950 . S
C571 C570 1.349 . S
C571 C587 1.349 . S
C572 C570 1.327 . S
C572 C591 1.429 . S
C572 H596 0.950 . S
C573 C590 1.574 . S
C573 C592 1.368 . S
C573 H597 0.949 . S
H574 C578 0.949 . S
C575 C576 1.349 . S
C575 C577 1.327 . S
C575 H598 0.950 . S
C576 C575 1.349 . S
C576 C588 1.349 . S
C577 C575 1.327 . S
C577 C593 1.429 . S
C577 H599 0.950 . S
C578 H574 0.949 . S
C578 C586 1.574 . S
C578 C594 1.368 . S
H579 C587 0.950 . S
H580 C585 0.950 . S
H581 C586 0.949 . S
H582 C588 0.950 . S
H583 C589 0.950 . S
H584 C590 0.949 . S
C585 H580 0.950 . S
C585 C587 1.327 . S
C585 C591 1.429 . S
C586 C578 1.574 . S
C586 H581 0.949 . S
C586 C592 1.368 . S
C587 C571 1.349 . S
C587 H579 0.950 . S
C587 C585 1.327 . S
C588 C576 1.349 . S
C588 H582 0.950 . S
C588 C589 1.327 . S
C589 H583 0.950 . S
C589 C588 1.327 . S
C589 C593 1.429 . S
C590 C573 1.574 . S
C590 H584 0.949 . S
C590 C594 1.368 . S
C591 C572 1.429 . S
C591 C585 1.429 . S
C591 C592 1.523 . S
C592 C573 1.368 . S
C592 C586 1.368 . S
C592 C591 1.523 . S
C593 C577 1.429 . S
C593 C589 1.429 . S
C593 C594 1.523 . S
C594 C578 1.368 . S
C594 C590 1.368 . S
C594 C593 1.523 . S
H595 C570 0.950 . S
H596 C572 0.950 . S
H597 C573 0.949 . S
H598 C575 0.950 . S
H599 C577 0.950 . S
C600 C601 1.349 . S
C600 C602 1.327 . S
C600 H625 0.950 . S
C601 C600 1.349 . S
C601 C617 1.349 . S
C602 C600 1.327 . S
C602 C621 1.429 . S
C602 H626 0.950 . S
C603 C620 1.574 . S
C603 C622 1.368 . S
C603 H627 0.949 . S
H604 C608 0.949 . S
C605 C606 1.349 . S
C605 C607 1.327 . S
C605 H628 0.950 . S
C606 C605 1.349 . S
C606 C618 1.349 . S
C607 C605 1.327 . S
C607 C623 1.429 . S
C607 H629 0.950 . S
C608 H604 0.949 . S
C608 C616 1.574 . S
C608 C624 1.368 . S
H609 C617 0.950 . S
H610 C615 0.950 . S
H611 C616 0.949 . S
H612 C618 0.950 . S
H613 C619 0.950 . S
H614 C620 0.949 . S
C615 H610 0.950 . S
C615 C617 1.327 . S
C615 C621 1.429 . S
C616 C608 1.574 . S
C616 H611 0.949 . S
C616 C622 1.368 . S
C617 C601 1.349 . S
C617 H609 0.950 . S
C617 C615 1.327 . S
C618 C606 1.349 . S
C618 H612 0.950 . S
C618 C619 1.327 . S
C619 H613 0.950 . S
C619 C618 1.327 . S
C619 C623 1.429 . S
C620 C603 1.574 . S
C620 H614 0.949 . S
C620 C624 1.368 . S
C621 C602 1.429 . S
C621 C615 1.429 . S
C621 C622 1.523 . S
C622 C603 1.368 . S
C622 C616 1.368 . S
C622 C621 1.523 . S
C623 C607 1.429 . S
C623 C619 1.429 . S
C623 C624 1.523 . S
C624 C608 1.368 . S
C624 C620 1.368 . S
C624 C623 1.523 . S
H625 C600 0.950 . S
H626 C602 0.950 . S
H627 C603 0.949 . S
H628 C605 0.950 . S
H629 C607 0.950 . S
C630 C631 1.349 . S
C630 C632 1.327 . S
C630 H655 0.950 . S
C631 C630 1.349 . S
C631 C647 1.349 . S
C632 C630 1.327 . S
C632 C651 1.429 . S
C632 H656 0.950 . S
C633 C650 1.574 . S
C633 C652 1.368 . S
C633 H657 0.949 . S
H634 C638 0.949 . S
C635 C636 1.349 . S
C635 C637 1.327 . S
C635 H658 0.950 . S
C636 C635 1.349 . S
C636 C648 1.349 . S
C637 C635 1.327 . S
C637 C653 1.429 . S
C637 H659 0.950 . S
C638 H634 0.949 . S
C638 C646 1.574 . S
C638 C654 1.368 . S
H639 C647 0.950 . S
H640 C645 0.950 . S
H641 C646 0.949 . S
H642 C648 0.950 . S
H643 C649 0.950 . S
H644 C650 0.949 . S
C645 H640 0.950 . S
C645 C647 1.327 . S
C645 C651 1.429 . S
C646 C638 1.574 . S
C646 H641 0.949 . S
C646 C652 1.368 . S
C647 C631 1.349 . S
C647 H639 0.950 . S
C647 C645 1.327 . S
C648 C636 1.349 . S
C648 H642 0.950 . S
C648 C649 1.327 . S
C649 H643 0.950 . S
C649 C648 1.327 . S
C649 C653 1.429 . S
C650 C633 1.574 . S
C650 H644 0.949 . S
C650 C654 1.368 . S
C651 C632 1.429 . S
C651 C645 1.429 . S
C651 C652 1.523 . S
C652 C633 1.368 . S
C652 C646 1.368 . S
C652 C651 1.523 . S
C653 C637 1.429 . S
C653 C649 1.429 . S
C653 C654 1.523 . S
C654 C638 1.368 . S
C654 C650 1.368 . S
C654 C653 1.523 . S
H655 C630 0.950 . S
H656 C632 0.950 . S
H657 C633 0.949 . S
H658 C635 0.950 . S
H659 C637 0.950 . S
C660 C661 1.349 . S
C660 C662 1.327 . S
C660 H685 0.950 . S
C661 C660 1.349 . S
C661 C677 1.349 . S
C662 C660 1.327 . S
C662 C681 1.429 . S
C662 H686 0.950 . S
C663 C680 1.574 . S
C663 C682 1.368 . S
C663 H687 0.949 . S
H664 C668 0.949 . S
C665 C666 1.349 . S
C665 C667 1.327 . S
C665 H688 0.950 . S
C666 C665 1.349 . S
C666 C678 1.349 . S
C667 C665 1.327 . S
C667 C683 1.429 . S
C667 H689 0.950 . S
C668 H664 0.949 . S
C668 C676 1.574 . S
C668 C684 1.368 . S
H669 C677 0.950 . S
H670 C675 0.950 . S
H671 C676 0.949 . S
H672 C678 0.950 . S
H673 C679 0.950 . S
H674 C680 0.949 . S
C675 H670 0.950 . S
C675 C677 1.327 . S
C675 C681 1.429 . S
C676 C668 1.574 . S
C676 H671 0.949 . S
C676 C682 1.368 . S
C677 C661 1.349 . S
C677 H669 0.950 . S
C677 C675 1.327 . S
C678 C666 1.349 . S
C678 H672 0.950 . S
C678 C679 1.327 . S
C679 H673 0.950 . S
C679 C678 1.327 . S
C679 C683 1.429 . S
C680 C663 1.574 . S
C680 H674 0.949 . S
C680 C684 1.368 . S
C681 C662 1.429 . S
C681 C675 1.429 . S
C681 C682 1.523 . S
C682 C663 1.368 . S
C682 C676 1.368 . S
C682 C681 1.523 . S
C683 C667 1.429 . S
C683 C679 1.429 . S
C683 C684 1.523 . S
C684 C668 1.368 . S
C684 C680 1.368 . S
C684 C683 1.523 . S
H685 C660 0.950 . S
H686 C662 0.950 . S
H687 C663 0.949 . S
H688 C665 0.950 . S
H689 C667 0.950 . S
C690 C691 1.349 . S
C690 C692 1.327 . S
C690 H715 0.950 . S
C691 C690 1.349 . S
C691 C707 1.349 . S
C692 C690 1.327 . S
C692 C711 1.429 . S
C692 H716 0.950 . S
C693 C710 1.574 . S
C693 C712 1.368 . S
C693 H717 0.949 . S
H694 C698 0.949 . S
C695 C696 1.349 . S
C695 C697 1.327 . S
C695 H718 0.950 . S
C696 C695 1.349 . S
C696 C708 1.349 . S
C697 C695 1.327 . S
C697 C713 1.429 . S
C697 H719 0.950 . S
C698 H694 0.949 . S
C698 C706 1.574 . S
C698 C714 1.368 . S
H699 C707 0.950 . S
H700 C705 0.950 . S
H701 C706 0.949 . S
H702 C708 0.950 . S
H703 C709 0.950 . S
H704 C710 0.949 . S
C705 H700 0.950 . S
C705 C707 1.327 . S
C705 C711 1.429 . S
C706 C698 1.574 . S
C706 H701 0.949 . S
C706 C712 1.368 . S
C707 C691 1.349 . S
C707 H699 0.950 . S
C707 C705 1.327 . S
C708 C696 1.349 . S
C708 H702 0.950 . S
C708 C709 1.327 . S
C709 H703 0.950 . S
C709 C708 1.327 . S
C709 C713 1.429 . S
C710 C693 1.574 . S
C710 H704 0.949 . S
C710 C714 1.368 . S
C711 C692 1.429 . S
C711 C705 1.429 . S
C711 C712 1.523 . S
C712 C693 1.368 . S
C712 C706 1.368 . S
C712 C711 1.523 . S
C713 C697 1.429 . S
C713 C709 1.429 . S
C713 C714 1.523 . S
C714 C698 1.368 . S
C714 C710 1.368 . S
C714 C713 1.523 . S
H715 C690 0.950 . S
H716 C692 0.950 . S
H717 C693 0.949 . S
H718 C695 0.950 . S
H719 C697 0.950 . S
C720 C721 1.349 . S
C720 C722 1.327 . S
C720 H745 0.950 . S
C721 C720 1.349 . S
C721 C737 1.349 . S
C722 C720 1.327 . S
C722 C741 1.429 . S
C722 H746 0.950 . S
C723 C740 1.574 . S
C723 C742 1.368 . S
C723 H747 0.949 . S
H724 C728 0.949 . S
C725 C726 1.349 . S
C725 C727 1.327 . S
C725 H748 0.950 . S
C726 C725 1.349 . S
C726 C738 1.349 . S
C727 C725 1.327 . S
C727 C743 1.429 . S
C727 H749 0.950 . S
C728 H724 0.949 . S
C728 C736 1.574 . S
C728 C744 1.368 . S
H729 C737 0.950 . S
H730 C735 0.950 . S
H731 C736 0.949 . S
H732 C738 0.950 . S
H733 C739 0.950 . S
H734 C740 0.949 . S
C735 H730 0.950 . S
C735 C737 1.327 . S
C735 C741 1.429 . S
C736 C728 1.574 . S
C736 H731 0.949 . S
C736 C742 1.368 . S
C737 C721 1.349 . S
C737 H729 0.950 . S
C737 C735 1.327 . S
C738 C726 1.349 . S
C738 H732 0.950 . S
C738 C739 1.327 . S
C739 H733 0.950 . S
C739 C738 1.327 . S
C739 C743 1.429 . S
C740 C723 1.574 . S
C740 H734 0.949 . S
C740 C744 1.368 . S
C741 C722 1.429 . S
C741 C735 1.429 . S
C741 C742 1.523 . S
C742 C723 1.368 . S
C742 C736 1.368 . S
C742 C741 1.523 . S
C743 C727 1.429 . S
C743 C739 1.429 . S
C743 C744 1.523 . S
C744 C728 1.368 . S
C744 C740 1.368 . S
C744 C743 1.523 . S
H745 C720 0.950 . S
H746 C722 0.950 . S
H747 C723 0.949 . S
H748 C725 0.950 . S
H749 C727 0.950 . S
C750 C751 1.349 . S
C750 C752 1.327 . S
C750 H775 0.950 . S
C751 C750 1.349 . S
C751 C767 1.349 . S
C752 C750 1.327 . S
C752 C771 1.429 . S
C752 H776 0.950 . S
C753 C770 1.574 . S
C753 C772 1.368 . S
C753 H777 0.949 . S
H754 C758 0.949 . S
C755 C756 1.349 . S
C755 C757 1.327 . S
C755 H778 0.950 . S
C756 C755 1.349 . S
C756 C768 1.349 . S
C757 C755 1.327 . S
C757 C773 1.429 . S
C757 H779 0.950 . S
C758 H754 0.949 . S
C758 C766 1.574 . S
C758 C774 1.368 . S
H759 C767 0.950 . S
H760 C765 0.950 . S
H761 C766 0.949 . S
H762 C768 0.950 . S
H763 C769 0.950 . S
H764 C770 0.949 . S
C765 H760 0.950 . S
C765 C767 1.327 . S
C765 C771 1.429 . S
C766 C758 1.574 . S
C766 H761 0.949 . S
C766 C772 1.368 . S
C767 C751 1.349 . S
C767 H759 0.950 . S
C767 C765 1.327 . S
C768 C756 1.349 . S
C768 H762 0.950 . S
C768 C769 1.327 . S
C769 H763 0.950 . S
C769 C768 1.327 . S
C769 C773 1.429 . S
C770 C753 1.574 . S
C770 H764 0.949 . S
C770 C774 1.368 . S
C771 C752 1.429 . S
C771 C765 1.429 . S
C771 C772 1.523 . S
C772 C753 1.368 . S
C772 C766 1.368 . S
C772 C771 1.523 . S
C773 C757 1.429 . S
C773 C769 1.429 . S
C773 C774 1.523 . S
C774 C758 1.368 . S
C774 C770 1.368 . S
C774 C773 1.523 . S
H775 C750 0.950 . S
H776 C752 0.950 . S
H777 C753 0.949 . S
H778 C755 0.950 . S
H779 C757 0.950 . S
C780 C781 1.349 . S
C780 C782 1.327 . S
C780 H805 0.950 . S
C781 C780 1.349 . S
C781 C797 1.349 . S
C782 C780 1.327 . S
C782 C801 1.429 . S
C782 H806 0.950 . S
C783 C800 1.574 . S
C783 C802 1.368 . S
C783 H807 0.949 . S
H784 C788 0.949 . S
C785 C786 1.349 . S
C785 C787 1.327 . S
C785 H808 0.950 . S
C786 C785 1.349 . S
C786 C798 1.349 . S
C787 C785 1.327 . S
C787 C803 1.429 . S
C787 H809 0.950 . S
C788 H784 0.949 . S
C788 C796 1.574 . S
C788 C804 1.368 . S
H789 C797 0.950 . S
H790 C795 0.950 . S
H791 C796 0.949 . S
H792 C798 0.950 . S
H793 C799 0.950 . S
H794 C800 0.949 . S
C795 H790 0.950 . S
C795 C797 1.327 . S
C795 C801 1.429 . S
C796 C788 1.574 . S
C796 H791 0.949 . S
C796 C802 1.368 . S
C797 C781 1.349 . S
C797 H789 0.950 . S
C797 C795 1.327 . S
C798 C786 1.349 . S
C798 H792 0.950 . S
C798 C799 1.327 . S
C799 H793 0.950 . S
C799 C798 1.327 . S
C799 C803 1.429 . S
C800 C783 1.574 . S
C800 H794 0.949 . S
C800 C804 1.368 . S
C801 C782 1.429 . S
C801 C795 1.429 . S
C801 C802 1.523 . S
C802 C783 1.368 . S
C802 C796 1.368 . S
C802 C801 1.523 . S
C803 C787 1.429 . S
C803 C799 1.429 . S
C803 C804 1.523 . S
C804 C788 1.368 . S
C804 C800 1.368 . S
C804 C803 1.523 . S
H805 C780 0.950 . S
H806 C782 0.950 . S
H807 C783 0.949 . S
H808 C785 0.950 . S
H809 C787 0.950 . S
C810 C811 1.349 . S
C810 C812 1.327 . S
C810 H835 0.950 . S
C811 C810 1.349 . S
C811 C827 1.349 . S
C812 C810 1.327 . S
C812 C831 1.429 . S
C812 H836 0.950 . S
C813 C830 1.574 . S
C813 C832 1.368 . S
C813 H837 0.949 . S
H814 C818 0.949 . S
C815 C816 1.349 . S
C815 C817 1.375 . S
C815 H838 0.950 . S
C816 C815 1.349 . S
C816 C828 1.349 . S
C817 C815 1.375 . S
C817 C833 1.422 1_554 S
C817 H839 0.908 1_554 S
C818 H814 0.949 . S
C818 C826 1.574 . S
C818 C834 1.368 . S
H819 C827 0.950 . S
H820 C825 0.950 . S
H821 C826 0.949 . S
H822 C828 0.950 . S
H823 C829 0.950 . S
H824 C830 0.949 . S
C825 H820 0.950 . S
C825 C827 1.327 . S
C825 C831 1.429 . S
C826 C818 1.574 . S
C826 H821 0.949 . S
C826 C832 1.368 . S
C827 C811 1.349 . S
C827 H819 0.950 . S
C827 C825 1.327 . S
C828 C816 1.349 . S
C828 H822 0.950 . S
C828 C829 1.327 . S
C829 H823 0.950 . S
C829 C828 1.327 . S
C829 C833 1.396 1_554 S
C830 C813 1.574 . S
C830 H824 0.949 . S
C830 C834 1.368 . S
C831 C812 1.429 . S
C831 C825 1.429 . S
C831 C832 1.523 . S
C832 C813 1.368 . S
C832 C826 1.368 . S
C832 C831 1.523 . S
C833 C817 1.422 1_556 S
C833 C829 1.396 1_556 S
C833 C834 1.558 . S
C834 C818 1.368 . S
C834 C830 1.368 . S
C834 C833 1.558 . S
H835 C810 0.950 . S
H836 C812 0.950 . S
H837 C813 0.949 . S
H838 C815 0.950 . S
H839 C817 0.908 1_556 S
C840 C841 1.349 . S
C840 C842 1.327 . S
C840 H865 0.950 . S
C841 C840 1.349 . S
C841 C857 1.349 . S
C842 C840 1.327 . S
C842 C861 1.429 . S
C842 H866 0.950 . S
C843 C860 1.574 . S
C843 C862 1.368 . S
C843 H867 0.949 . S
H844 C848 0.949 . S
C845 C846 1.349 . S
C845 C847 1.327 . S
C845 H868 0.950 . S
C846 C845 1.349 . S
C846 C858 1.349 . S
C847 C845 1.327 . S
C847 C863 1.429 . S
C847 H869 0.950 . S
C848 H844 0.949 . S
C848 C856 1.574 . S
C848 C864 1.368 . S
H849 C857 0.950 . S
H850 C855 0.950 . S
H851 C856 0.949 . S
H852 C858 0.950 . S
H853 C859 0.950 . S
H854 C860 0.949 . S
C855 H850 0.950 . S
C855 C857 1.327 . S
C855 C861 1.429 . S
C856 C848 1.574 . S
C856 H851 0.949 . S
C856 C862 1.368 . S
C857 C841 1.349 . S
C857 H849 0.950 . S
C857 C855 1.327 . S
C858 C846 1.349 . S
C858 H852 0.950 . S
C858 C859 1.327 . S
C859 H853 0.950 . S
C859 C858 1.327 . S
C859 C863 1.429 . S
C860 C843 1.574 . S
C860 H854 0.949 . S
C860 C864 1.368 . S
C861 C842 1.429 . S
C861 C855 1.429 . S
C861 C862 1.523 . S
C862 C843 1.368 . S
C862 C856 1.368 . S
C862 C861 1.523 . S
C863 C847 1.429 . S
C863 C859 1.429 . S
C863 C864 1.523 . S
C864 C848 1.368 . S
C864 C860 1.368 . S
C864 C863 1.523 . S
H865 C840 0.950 . S
H866 C842 0.950 . S
H867 C843 0.949 . S
H868 C845 0.950 . S
H869 C847 0.950 . S
C870 C871 1.349 . S
C870 C872 1.327 . S
C870 H895 0.950 . S
C871 C870 1.349 . S
C871 C887 1.349 . S
C872 C870 1.327 . S
C872 C891 1.429 . S
C872 H896 0.950 . S
C873 C890 1.574 . S
C873 C892 1.368 . S
C873 H897 0.949 . S
H874 C878 0.949 . S
C875 C876 1.349 . S
C875 C877 1.327 . S
C875 H898 0.950 . S
C876 C875 1.349 . S
C876 C888 1.349 . S
C877 C875 1.327 . S
C877 C893 1.429 . S
C877 H899 0.950 . S
C878 H874 0.949 . S
C878 C886 1.574 . S
C878 C894 1.368 . S
H879 C887 0.950 . S
H880 C885 0.950 . S
H881 C886 0.949 . S
H882 C888 0.950 . S
H883 C889 0.950 . S
H884 C890 0.949 . S
C885 H880 0.950 . S
C885 C887 1.327 . S
C885 C891 1.429 . S
C886 C878 1.574 . S
C886 H881 0.949 . S
C886 C892 1.368 . S
C887 C871 1.349 . S
C887 H879 0.950 . S
C887 C885 1.327 . S
C888 C876 1.349 . S
C888 H882 0.950 . S
C888 C889 1.327 . S
C889 H883 0.950 . S
C889 C888 1.327 . S
C889 C893 1.429 . S
C890 C873 1.574 . S
C890 H884 0.949 . S
C890 C894 1.368 . S
C891 C872 1.429 . S
C891 C885 1.429 . S
C891 C892 1.523 . S
C892 C873 1.368 . S
C892 C886 1.368 . S
C892 C891 1.523 . S
C893 C877 1.429 . S
C893 C889 1.429 . S
C893 C894 1.523 . S
C894 C878 1.368 . S
C894 C890 1.368 . S
C894 C893 1.523 . S
H895 C870 0.950 . S
H896 C872 0.950 . S
H897 C873 0.949 . S
H898 C875 0.950 . S
H899 C877 0.950 . S
C900 C901 1.349 . S
C900 C902 1.327 . S
C900 H925 0.950 . S
C901 C900 1.349 . S
C901 C917 1.349 . S
C902 C900 1.327 . S
C902 C921 1.429 . S
C902 H926 0.950 . S
C903 C920 1.574 . S
C903 C922 1.368 . S
C903 H927 0.949 . S
H904 C908 0.949 . S
C905 C906 1.349 . S
C905 C907 1.327 . S
C905 H928 0.950 . S
C906 C905 1.349 . S
C906 C918 1.349 . S
C907 C905 1.327 . S
C907 C923 1.429 . S
C907 H929 0.950 . S
C908 H904 0.949 . S
C908 C916 1.574 . S
C908 C924 1.368 . S
H909 C917 0.950 . S
H910 C915 0.950 . S
H911 C916 0.949 . S
H912 C918 0.950 . S
H913 C919 0.950 . S
H914 C920 0.949 . S
C915 H910 0.950 . S
C915 C917 1.327 . S
C915 C921 1.429 . S
C916 C908 1.574 . S
C916 H911 0.949 . S
C916 C922 1.368 . S
C917 C901 1.349 . S
C917 H909 0.950 . S
C917 C915 1.327 . S
C918 C906 1.349 . S
C918 H912 0.950 . S
C918 C919 1.327 . S
C919 H913 0.950 . S
C919 C918 1.327 . S
C919 C923 1.429 . S
C920 C903 1.574 . S
C920 H914 0.949 . S
C920 C924 1.368 . S
C921 C902 1.429 . S
C921 C915 1.429 . S
C921 C922 1.523 . S
C922 C903 1.368 . S
C922 C916 1.368 . S
C922 C921 1.523 . S
C923 C907 1.429 . S
C923 C919 1.429 . S
C923 C924 1.523 . S
C924 C908 1.368 . S
C924 C920 1.368 . S
C924 C923 1.523 . S
H925 C900 0.950 . S
H926 C902 0.950 . S
H927 C903 0.949 . S
H928 C905 0.950 . S
H929 C907 0.950 . S
C930 C931 1.349 . S
C930 C932 1.327 . S
C930 H955 0.950 . S
C931 C930 1.349 . S
C931 C947 1.349 . S
C932 C930 1.327 . S
C932 C951 1.429 . S
C932 H956 0.950 . S
C933 C950 1.574 . S
C933 C952 1.368 . S
C933 H957 0.949 . S
H934 C938 0.949 . S
C935 C936 1.349 . S
C935 C937 1.327 . S
C935 H958 0.950 . S
C936 C935 1.349 . S
C936 C948 1.349 . S
C937 C935 1.327 . S
C937 C953 1.429 . S
C937 H959 0.950 . S
C938 H934 0.949 . S
C938 C946 1.574 . S
C938 C954 1.368 . S
H939 C947 0.950 . S
H940 C945 0.950 . S
H941 C946 0.949 . S
H942 C948 0.950 . S
H943 C949 0.950 . S
H944 C950 0.949 . S
C945 H940 0.950 . S
C945 C947 1.327 . S
C945 C951 1.429 . S
C946 C938 1.574 . S
C946 H941 0.949 . S
C946 C952 1.368 . S
C947 C931 1.349 . S
C947 H939 0.950 . S
C947 C945 1.327 . S
C948 C936 1.349 . S
C948 H942 0.950 . S
C948 C949 1.327 . S
C949 H943 0.950 . S
C949 C948 1.327 . S
C949 C953 1.429 . S
C950 C933 1.574 . S
C950 H944 0.949 . S
C950 C954 1.368 . S
C951 C932 1.429 . S
C951 C945 1.429 . S
C951 C952 1.523 . S
C952 C933 1.368 . S
C952 C946 1.368 . S
C952 C951 1.523 . S
C953 C937 1.429 . S
C953 C949 1.429 . S
C953 C954 1.523 . S
C954 C938 1.368 . S
C954 C950 1.368 . S
C954 C953 1.523 . S
H955 C930 0.950 . S
H956 C932 0.950 . S
H957 C933 0.949 . S
H958 C935 0.950 . S
H959 C937 0.950 . S
C960 C961 1.349 . S
C960 C962 1.327 . S
C960 H985 0.950 . S
C961 C960 1.349 . S
C961 C977 1.349 . S
C962 C960 1.327 . S
C962 C981 1.429 . S
C962 H986 0.950 . S
C963 C980 1.574 . S
C963 C982 1.368 . S
C963 H987 0.949 . S
H964 C968 0.949 . S
C965 C966 1.349 . S
C965 C967 1.327 . S
C965 H988 0.950 . S
C966 C965 1.349 . S
C966 C978 1.349 . S
C967 C965 1.327 . S
C967 C983 1.429 . S
C967 H989 0.950 . S
C968 H964 0.949 . S
C968 C976 1.574 . S
C968 C984 1.368 . S
H969 C977 0.950 . S
H970 C975 0.950 . S
H971 C976 0.949 . S
H972 C978 0.950 . S
H973 C979 0.950 . S
H974 C980 0.949 . S
C975 H970 0.950 . S
C975 C977 1.327 . S
C975 C981 1.429 . S
C976 C968 1.574 . S
C976 H971 0.949 . S
C976 C982 1.368 . S
C977 C961 1.349 . S
C977 H969 0.950 . S
C977 C975 1.327 . S
C978 C966 1.349 . S
C978 H972 0.950 . S
C978 C979 1.327 . S
C979 H973 0.950 . S
C979 C978 1.327 . S
C979 C983 1.429 . S
C980 C963 1.574 . S
C980 H974 0.949 . S
C980 C984 1.368 . S
C981 C962 1.429 . S
C981 C975 1.429 . S
C981 C982 1.523 . S
C982 C963 1.368 . S
C982 C976 1.368 . S
C982 C981 1.523 . S
C983 C967 1.429 . S
C983 C979 1.429 . S
C983 C984 1.523 . S
C984 C968 1.368 . S
C984 C980 1.368 . S
C984 C983 1.523 . S
H985 C960 0.950 . S
H986 C962 0.950 . S
H987 C963 0.949 . S
H988 C965 0.950 . S
H989 C967 0.950 . S
C990 C991 1.349 . S
C990 C992 1.327 . S
C990 H1015 0.950 . S
C991 C990 1.349 . S
C991 C1007 1.349 . S
C992 C990 1.327 . S
C992 C1011 1.429 . S
C992 H1016 0.950 . S
C993 C1010 1.574 . S
C993 C1012 1.368 . S
C993 H1017 0.949 . S
H994 C998 0.949 . S
C995 C996 1.349 . S
C995 C997 1.327 . S
C995 H1018 0.950 . S
C996 C995 1.349 . S
C996 C1008 1.349 . S
C997 C995 1.327 . S
C997 C1013 1.429 . S
C997 H1019 0.950 . S
C998 H994 0.949 . S
C998 C1006 1.574 . S
C998 C1014 1.368 . S
H999 C1007 0.950 . S
H1000 C1005 0.950 . S
H1001 C1006 0.949 . S
H1002 C1008 0.950 . S
H1003 C1009 0.950 . S
H1004 C1010 0.949 . S
C1005 H1000 0.950 . S
C1005 C1007 1.327 . S
C1005 C1011 1.429 . S
C1006 C998 1.574 . S
C1006 H1001 0.949 . S
C1006 C1012 1.368 . S
C1007 C991 1.349 . S
C1007 H999 0.950 . S
C1007 C1005 1.327 . S
C1008 C996 1.349 . S
C1008 H1002 0.950 . S
C1008 C1009 1.327 . S
C1009 H1003 0.950 . S
C1009 C1008 1.327 . S
C1009 C1013 1.429 . S
C1010 C993 1.574 . S
C1010 H1004 0.949 . S
C1010 C1014 1.368 . S
C1011 C992 1.429 . S
C1011 C1005 1.429 . S
C1011 C1012 1.523 . S
C1012 C993 1.368 . S
C1012 C1006 1.368 . S
C1012 C1011 1.523 . S
C1013 C997 1.429 . S
C1013 C1009 1.429 . S
C1013 C1014 1.523 . S
C1014 C998 1.368 . S
C1014 C1010 1.368 . S
C1014 C1013 1.523 . S
H1015 C990 0.950 . S
H1016 C992 0.950 . S
H1017 C993 0.949 . S
H1018 C995 0.950 . S
H1019 C997 0.950 . S
C1020 C1021 1.349 . S
C1020 C1022 1.327 . S
C1020 H1045 0.950 . S
C1021 C1020 1.349 . S
C1021 C1037 1.349 . S
C1022 C1020 1.327 . S
C1022 C1041 1.429 . S
C1022 H1046 0.950 . S
C1023 C1040 1.574 . S
C1023 C1042 1.368 . S
C1023 H1047 0.949 . S
H1024 C1028 0.949 . S
C1025 C1026 1.349 . S
C1025 C1027 1.327 . S
C1025 H1048 0.950 . S
C1026 C1025 1.349 . S
C1026 C1038 1.349 . S
C1027 C1025 1.327 . S
C1027 C1043 1.429 . S
C1027 H1049 0.950 . S
C1028 H1024 0.949 . S
C1028 C1036 1.574 . S
C1028 C1044 1.368 . S
H1029 C1037 0.950 . S
H1030 C1035 0.950 . S
H1031 C1036 0.949 . S
H1032 C1038 0.950 . S
H1033 C1039 0.950 . S
H1034 C1040 0.949 . S
C1035 H1030 0.950 . S
C1035 C1037 1.327 . S
C1035 C1041 1.429 . S
C1036 C1028 1.574 . S
C1036 H1031 0.949 . S
C1036 C1042 1.368 . S
C1037 C1021 1.349 . S
C1037 H1029 0.950 . S
C1037 C1035 1.327 . S
C1038 C1026 1.349 . S
C1038 H1032 0.950 . S
C1038 C1039 1.327 . S
C1039 H1033 0.950 . S
C1039 C1038 1.327 . S
C1039 C1043 1.429 . S
C1040 C1023 1.574 . S
C1040 H1034 0.949 . S
C1040 C1044 1.368 . S
C1041 C1022 1.429 . S
C1041 C1035 1.429 . S
C1041 C1042 1.523 . S
C1042 C1023 1.368 . S
C1042 C1036 1.368 . S
C1042 C1041 1.523 . S
C1043 C1027 1.429 . S
C1043 C1039 1.429 . S
C1043 C1044 1.523 1_556 S
C1044 C1028 1.368 . S
C1044 C1040 1.368 . S
C1044 C1043 1.523 1_554 S
H1045 C1020 0.950 . S
H1046 C1022 0.950 . S
H1047 C1023 0.949 . S
H1048 C1025 0.950 . S
H1049 C1027 0.950 . S
C1050 C1051 1.349 . S
C1050 C1052 1.327 . S
C1050 H1075 0.950 . S
C1051 C1050 1.349 . S
C1051 C1067 1.349 . S
C1052 C1050 1.327 . S
C1052 C1071 1.429 . S
C1052 H1076 0.950 . S
C1053 C1070 1.574 . S
C1053 C1072 1.368 . S
C1053 H1077 0.949 . S
H1054 C1058 0.949 . S
C1055 C1056 1.349 . S
C1055 C1057 1.327 . S
C1055 H1078 0.950 . S
C1056 C1055 1.349 . S
C1056 C1068 1.349 . S
C1057 C1055 1.327 . S
C1057 C1073 1.429 . S
C1057 H1079 0.950 . S
C1058 H1054 0.949 . S
C1058 C1066 1.574 . S
C1058 C1074 1.368 . S
H1059 C1067 0.950 . S
H1060 C1065 0.950 . S
H1061 C1066 0.949 . S
H1062 C1068 0.950 . S
H1063 C1069 0.950 . S
H1064 C1070 0.949 . S
C1065 H1060 0.950 . S
C1065 C1067 1.327 . S
C1065 C1071 1.429 . S
C1066 C1058 1.574 . S
C1066 H1061 0.949 . S
C1066 C1072 1.368 . S
C1067 C1051 1.349 . S
C1067 H1059 0.950 . S
C1067 C1065 1.327 . S
C1068 C1056 1.349 . S
C1068 H1062 0.950 . S
C1068 C1069 1.327 . S
C1069 H1063 0.950 . S
C1069 C1068 1.327 . S
C1069 C1073 1.429 . S
C1070 C1053 1.574 . S
C1070 H1064 0.949 . S
C1070 C1074 1.368 . S
C1071 C1052 1.429 . S
C1071 C1065 1.429 . S
C1071 C1072 1.523 . S
C1072 C1053 1.368 . S
C1072 C1066 1.368 . S
C1072 C1071 1.523 . S
C1073 C1057 1.429 . S
C1073 C1069 1.429 . S
C1073 C1074 1.523 . S
C1074 C1058 1.368 . S
C1074 C1070 1.368 . S
C1074 C1073 1.523 . S
H1075 C1050 0.950 . S
H1076 C1052 0.950 . S
H1077 C1053 0.949 . S
H1078 C1055 0.950 . S
H1079 C1057 0.950 . S
C366 C353 1.542 . S
C361 C15 1.526 . S
C391 C61 1.419 . S
C396 C287 1.417 . S
C421 C114 1.341 . S
C426 C301 1.339 . S
C451 C139 1.436 . S
C456 C315 1.423 . S
C486 C329 1.472 . S
C481 C185 1.487 . S
C511 C245 1.475 . S
C516 C339 1.497 . S
C541 C47 1.542 . S
C546 C297 1.553 . S
C571 C100 1.629 . S
C576 C311 1.642 . S
C601 C153 1.535 . S
C606 C325 1.561 . S
C636 C343 1.451 . S
C631 C199 1.452 . S
C666 C357 1.479 . S
C661 C231 1.491 . S
C696 C283 1.517 . S
C691 C1 1.509 . S
C721 C22 1.468 . S
C726 C298 1.421 . S
C751 C68 1.564 . S
C756 C312 1.516 . S
C786 C326 1.519 . S
C781 C107 1.568 . S
C811 C146 1.449 . S
C816 C345 1.387 . S
C846 C359 1.357 . S
C841 C192 1.423 . S
C876 C284 1.392 . S
C871 C252 1.439 . S
C906 C354 1.396 . S
C901 C54 1.446 . S
C931 C93 1.325 . S
C936 C289 1.272 . S
C966 C303 1.279 . S
C961 C160 1.327 . S
C991 C206 1.430 . S
C996 C317 1.369 . S
C1021 C238 1.452 . S
C1026 C331 1.392 . S
C1051 C8 1.481 . S
C1056 C340 1.429 . S
