# Generated by pormake.
# Topology anh, (6,3)-cn, num edge types: 1
# Building blocks:
#     Node 0, Type 0, BuildingBlock: CUKXOW_clean_sbu_0, # of connection points: 6
#     Node 1, Type 0, BuildingBlock: CUKXOW_clean_sbu_0, # of connection points: 6
#     Node 2, Type 0, BuildingBlock: CUKXOW_clean_sbu_0, # of connection points: 6
#     Node 3, Type 1, BuildingBlock: KAKCAD_clean_linker_0, # of connection points: 3
#     Node 4, Type 1, BuildingBlock: KAKCAD_clean_linker_0, # of connection points: 3
#     Node 5, Type 1, BuildingBlock: KAKCAD_clean_linker_0, # of connection points: 3
#     Node 6, Type 1, BuildingBlock: KAKCAD_clean_linker_0, # of connection points: 3
#     Node 7, Type 1, BuildingBlock: KAKCAD_clean_linker_0, # of connection points: 3
#     Node 8, Type 1, BuildingBlock: KAKCAD_clean_linker_0, # of connection points: 3
#     Edge 9, Type (0, 1), BuildingBlock: MIFKUJ_clean_linker_0, # of connection points: 2
#     Edge 10, Type (0, 1), BuildingBlock: MIFKUJ_clean_linker_0, # of connection points: 2
#     Edge 11, Type (0, 1), BuildingBlock: MIFKUJ_clean_linker_0, # of connection points: 2
#     Edge 12, Type (0, 1), BuildingBlock: MIFKUJ_clean_linker_0, # of connection points: 2
#     Edge 13, Type (0, 1), BuildingBlock: MIFKUJ_clean_linker_0, # of connection points: 2
#     Edge 14, Type (0, 1), BuildingBlock: MIFKUJ_clean_linker_0, # of connection points: 2
#     Edge 15, Type (0, 1), BuildingBlock: MIFKUJ_clean_linker_0, # of connection points: 2
#     Edge 16, Type (0, 1), BuildingBlock: MIFKUJ_clean_linker_0, # of connection points: 2
#     Edge 17, Type (0, 1), BuildingBlock: MIFKUJ_clean_linker_0, # of connection points: 2
#     Edge 18, Type (0, 1), BuildingBlock: MIFKUJ_clean_linker_0, # of connection points: 2
#     Edge 19, Type (0, 1), BuildingBlock: MIFKUJ_clean_linker_0, # of connection points: 2
#     Edge 20, Type (0, 1), BuildingBlock: MIFKUJ_clean_linker_0, # of connection points: 2
#     Edge 21, Type (0, 1), BuildingBlock: MIFKUJ_clean_linker_0, # of connection points: 2
#     Edge 22, Type (0, 1), BuildingBlock: MIFKUJ_clean_linker_0, # of connection points: 2
#     Edge 23, Type (0, 1), BuildingBlock: MIFKUJ_clean_linker_0, # of connection points: 2
#     Edge 24, Type (0, 1), BuildingBlock: MIFKUJ_clean_linker_0, # of connection points: 2
#     Edge 25, Type (0, 1), BuildingBlock: MIFKUJ_clean_linker_0, # of connection points: 2
#     Edge 26, Type (0, 1), BuildingBlock: MIFKUJ_clean_linker_0, # of connection points: 2
# Relax obj value: 0.132
# Max RMSD: 0.194
# Mean RMSD: 0.138
data_MOF--net-anh--node1-CUKXOW_clean_sbu_0--node2-KAKCAD_clean_linker_0--edge1-MIFKUJ_clean_linker_0
_symmetry_space_group_name_H-M    P1
_symmetry_Int_Tables_number       1
_symmetry_cell_setting            triclinic
loop_
_symmetry_equiv_pos_as_xyz
'x, y, z'
_cell_length_a     44.249415
_cell_length_b     43.17949
_cell_length_c     81.082035
_cell_angle_alpha  95.788516
_cell_angle_beta   90.16786
_cell_angle_gamma 116.63218
loop_
_atom_site_label
_atom_site_type_symbol
_atom_site_fract_x
_atom_site_fract_y
_atom_site_fract_z
_atom_type_partial_charge
Tb0 Tb 0.0662 0.52166 0.15492 0.0
C1 C 0.03859 0.48613 0.18622 0.0
Tb2 Tb 0.01927 0.44559 0.15039 0.0
O3 O 0.02621 0.53592 0.16263 0.0
O4 O 0.01404 0.49099 0.14664 0.0
O5 O 0.06624 0.50959 0.18024 0.0
C6 C 0.96538 0.38358 0.15108 0.0
O7 O 0.01403 0.46161 0.17621 0.0
C8 C 0.08393 0.45987 0.14927 0.0
C9 C 0.04444 0.48215 0.11831 0.0
O10 O 0.99261 0.39572 0.1607 0.0
O11 O 0.96888 0.40599 0.14085 0.0
O12 O 0.05907 0.43203 0.14179 0.0
O13 O 0.07158 0.47623 0.15858 0.0
O14 O 0.02228 0.45362 0.12431 0.0
O15 O 0.06471 0.51087 0.12798 0.0
C16 C 0.12045 0.5839 0.15568 0.0
O17 O 0.11714 0.55527 0.14728 0.0
O18 O 0.09325 0.57749 0.16358 0.0
C19 C 1.00145 0.50776 0.1554 0.0
Tb20 Tb 0.49847 0.01618 0.50821 0.0
C21 C 0.53568 0.03949 0.47546 0.0
Tb22 Tb 0.57496 0.07353 0.51084 0.0
O23 O 0.48366 0.05485 0.50024 0.0
O24 O 0.52678 0.07042 0.51569 0.0
O25 O 0.51016 0.01468 0.48225 0.0
C26 C 0.62538 0.13711 0.51026 0.0
O27 O 0.56128 0.06593 0.48428 0.0
C28 C 0.5697 0.00973 0.50696 0.0
C29 C 0.54038 0.04251 0.5431 0.0
O30 O 0.59723 0.12391 0.50127 0.0
O31 O 0.62531 0.11444 0.51971 0.0
O32 O 0.59867 0.03775 0.50844 0.0
O33 O 0.54712 0.01982 0.5072 0.0
O34 O 0.56436 0.06992 0.53693 0.0
O35 O 0.5145 0.01711 0.53389 0.0
C36 C 0.43964 0.9596 0.50887 0.0
O37 O 0.44691 0.99007 0.5167 0.0
O38 O 0.46524 0.96118 0.50061 0.0
C39 C 0.51022 0.08136 0.50744 0.0
Tb40 Tb 0.51574 0.51454 0.83516 0.0
C41 C 0.55743 0.52123 0.86773 0.0
Tb42 Tb 0.58868 0.52814 0.8323 0.0
O43 O 0.49943 0.46234 0.84269 0.0
O44 O 0.54108 0.4841 0.82812 0.0
O45 O 0.53092 0.52336 0.86134 0.0
C46 C 0.64851 0.52809 0.83067 0.0
O47 O 0.58143 0.51937 0.85847 0.0
C48 C 0.57775 0.58258 0.83012 0.0
C49 C 0.54658 0.51924 0.79974 0.0
O50 O 0.64273 0.55192 0.83906 0.0
O51 O 0.62051 0.50393 0.82347 0.0
O52 O 0.60173 0.57801 0.82289 0.0
O53 O 0.56344 0.55889 0.8394 0.0
O54 O 0.57247 0.51611 0.8062 0.0
O55 O 0.5233 0.52259 0.80899 0.0
C56 C 0.46025 0.52335 0.83623 0.0
O57 O 0.46273 0.49782 0.82743 0.0
O58 O 0.48874 0.5435 0.84433 0.0
C59 C 0.5253 0.45937 0.83665 0.0
C60 C 0.54695 0.06036 0.28948 0.0
C61 C 0.5363 0.02998 0.29743 0.0
C62 C 0.54685 0.05846 0.27215 0.0
C63 C 0.53624 0.02614 0.26242 0.0
C64 C 0.52614 0.99588 0.27043 0.0
C65 C 0.52607 0.99777 0.28771 0.0
C66 C 0.53526 0.02371 0.24397 0.0
C67 C 0.56133 0.04849 0.23572 0.0
C68 C 0.56069 0.046 0.21825 0.0
C69 C 0.53373 0.01748 0.20903 0.0
C70 C 0.50757 0.99209 0.21713 0.0
C71 C 0.50831 0.99607 0.23457 0.0
C72 C 0.47934 0.96108 0.20772 0.0
C73 C 0.46423 0.96372 0.19295 0.0
C74 C 0.46615 0.92861 0.21405 0.0
C75 C 0.43752 0.90017 0.20643 0.0
C76 C 0.42183 0.90319 0.19208 0.0
C77 C 0.58884 0.07289 0.20989 0.0
C78 C 0.6038 0.10808 0.21676 0.0
C79 C 0.60212 0.0636 0.19553 0.0
C80 C 0.63035 0.08867 0.1886 0.0
C81 C 0.64607 0.12342 0.19599 0.0
C82 C 0.63221 0.13295 0.20998 0.0
C83 C 0.43578 0.93487 0.18513 0.0
H84 H 0.55469 0.08552 0.29665 0.0
H85 H 0.55444 0.0822 0.26637 0.0
H86 H 0.5185 0.97066 0.26334 0.0
H87 H 0.51831 0.97399 0.29349 0.0
H88 H 0.58271 0.06926 0.24296 0.0
H89 H 0.48751 0.97766 0.24093 0.0
H90 H 0.5332 0.01492 0.1956 0.0
H91 H 0.47359 0.9883 0.18777 0.0
H92 H 0.47765 0.92522 0.22509 0.0
H93 H 0.42738 0.87578 0.21186 0.0
H94 H 0.59379 0.11643 0.22755 0.0
H95 H 0.59153 0.03676 0.18999 0.0
H96 H 0.42393 0.93765 0.17404 0.0
H97 H 0.64356 0.15967 0.21577 0.0
H98 H 0.6407 0.08063 0.17785 0.0
C99 C 0.53059 0.56993 0.61751 0.0
C100 C 0.55194 0.55964 0.62584 0.0
C101 C 0.53071 0.57009 0.60028 0.0
C102 C 0.55231 0.56014 0.59096 0.0
C103 C 0.57421 0.55062 0.59932 0.0
C104 C 0.57393 0.55025 0.61653 0.0
C105 C 0.55129 0.55866 0.57254 0.0
C106 C 0.54743 0.58426 0.56466 0.0
C107 C 0.54548 0.58252 0.54723 0.0
C108 C 0.54772 0.55461 0.53758 0.0
C109 C 0.55192 0.52898 0.54536 0.0
C110 C 0.55362 0.53122 0.56274 0.0
C111 C 0.55392 0.49893 0.53585 0.0
C112 C 0.52478 0.47135 0.52781 0.0
C113 C 0.58351 0.4949 0.53737 0.0
C114 C 0.58357 0.46326 0.53171 0.0
C115 C 0.55379 0.43462 0.52468 0.0
C116 C 0.54182 0.61063 0.53952 0.0
C117 C 0.51922 0.62306 0.54583 0.0
C118 C 0.56281 0.62734 0.52696 0.0
C119 C 0.56238 0.65692 0.52143 0.0
C120 C 0.54077 0.67024 0.52828 0.0
C121 C 0.5187 0.65244 0.5403 0.0
C122 C 0.52466 0.43944 0.52231 0.0
H123 H 0.51365 0.57779 0.6243 0.0
H124 H 0.51329 0.57728 0.59424 0.0
H125 H 0.59153 0.54328 0.59257 0.0
H126 H 0.59047 0.5418 0.62247 0.0
H127 H 0.5467 0.60614 0.57216 0.0
H128 H 0.5559 0.51083 0.56861 0.0
H129 H 0.54613 0.55276 0.52415 0.0
H130 H 0.50151 0.47372 0.52677 0.0
H131 H 0.60623 0.51582 0.54363 0.0
H132 H 0.60671 0.46091 0.53339 0.0
H133 H 0.50246 0.61054 0.5554 0.0
H134 H 0.58058 0.61848 0.5219 0.0
H135 H 0.50117 0.418 0.51709 0.0
H136 H 0.5019 0.662 0.54596 0.0
H137 H 0.57938 0.66969 0.51199 0.0
C138 C 0.11794 0.5706 0.94477 0.0
C139 C 0.08874 0.54089 0.94816 0.0
C140 C 0.12021 0.58409 0.92962 0.0
C141 C 0.09342 0.56806 0.91748 0.0
C142 C 0.06495 0.53734 0.92055 0.0
C143 C 0.06259 0.52398 0.93574 0.0
C144 C 0.09456 0.58417 0.90199 0.0
C145 C 0.12472 0.5991 0.89364 0.0
C146 C 0.12593 0.61472 0.87906 0.0
C147 C 0.09665 0.61562 0.87306 0.0
C148 C 0.06612 0.59956 0.88082 0.0
C149 C 0.06527 0.58435 0.89538 0.0
C150 C 0.03466 0.59563 0.87259 0.0
C151 C 0.03348 0.62395 0.866 0.0
C152 C 1.00671 0.56255 0.86985 0.0
C153 C 0.97836 0.55767 0.86033 0.0
C154 C 0.97744 0.58582 0.85345 0.0
C155 C 0.15652 0.62669 0.86916 0.0
C156 C 0.18901 0.64137 0.877 0.0
C157 C 0.15324 0.62077 0.85169 0.0
C158 C 0.18143 0.627 0.84241 0.0
C159 C 0.21341 0.63831 0.85038 0.0
C160 C 0.21712 0.64686 0.86774 0.0
C161 C 1.00501 0.6191 0.85655 0.0
H162 H 0.13879 0.58393 0.95397 0.0
H163 H 0.14248 0.60781 0.92768 0.0
H164 H 0.04417 0.52389 0.91132 0.0
H165 H 0.03965 0.50118 0.93796 0.0
H166 H 0.14679 0.59711 0.89812 0.0
H167 H 0.04169 0.57274 0.90155 0.0
H168 H 0.09711 0.62739 0.86182 0.0
H169 H 0.05477 0.6497 0.86797 0.0
H170 H 1.00721 0.54023 0.87462 0.0
H171 H 0.95711 0.53189 0.85837 0.0
H172 H 0.19259 0.64712 0.89038 0.0
H173 H 0.12867 0.60927 0.84512 0.0
H174 H 1.00479 0.64121 0.85141 0.0
H175 H 0.24126 0.65542 0.87439 0.0
H176 H 0.17777 0.62084 0.82905 0.0
C177 C 0.97958 0.51422 0.37099 0.0
C178 C 0.00993 0.52187 0.36302 0.0
C179 C 0.97967 0.51978 0.38829 0.0
C180 C 0.01007 0.5329 0.39806 0.0
C181 C 0.04035 0.54034 0.39008 0.0
C182 C 0.04031 0.53512 0.37281 0.0
C183 C 0.01039 0.53863 0.4165 0.0
C184 C 0.98438 0.51496 0.4253 0.0
C185 C 0.98543 0.51957 0.44275 0.0
C186 C 0.01297 0.54809 0.45142 0.0
C187 C 0.0392 0.57197 0.44286 0.0
C188 C 0.0374 0.56732 0.42543 0.0
C189 C 0.06916 0.60104 0.45206 0.0
C190 C 0.06558 0.62041 0.46627 0.0
C191 C 0.10177 0.60941 0.44666 0.0
C192 C 0.13012 0.63674 0.45512 0.0
C193 C 0.12664 0.65628 0.46928 0.0
C194 C 0.95829 0.49393 0.4519 0.0
C195 C 0.92413 0.48136 0.44667 0.0
C196 C 0.96637 0.48141 0.46576 0.0
C197 C 0.94083 0.45641 0.47405 0.0
C198 C 0.9067 0.44353 0.4687 0.0
C199 C 0.8986 0.45648 0.455 0.0
C200 C 0.09405 0.6478 0.47479 0.0
H201 H 0.95563 0.50357 0.36389 0.0
H202 H 0.95591 0.51405 0.39399 0.0
H203 H 0.0642 0.54993 0.39718 0.0
H204 H 0.06425 0.54182 0.36714 0.0
H205 H 0.96386 0.49218 0.41862 0.0
H206 H 0.0571 0.58632 0.41878 0.0
H207 H 0.01418 0.55143 0.46487 0.0
H208 H 0.04075 0.61471 0.47068 0.0
H209 H 0.10546 0.59469 0.4359 0.0
H210 H 0.15478 0.64291 0.45036 0.0
H211 H 0.91715 0.49076 0.43612 0.0
H212 H 0.99249 0.49039 0.46999 0.0
H213 H 0.09055 0.66223 0.48571 0.0
H214 H 0.87255 0.44673 0.45046 0.0
H215 H 0.94781 0.44704 0.48462 0.0
C216 C 0.55211 0.99731 0.72613 0.0
C217 C 0.57047 0.02793 0.71864 0.0
C218 C 0.55406 0.99766 0.74334 0.0
C219 C 0.57476 0.02855 0.75354 0.0
C220 C 0.59368 0.059 0.74603 0.0
C221 C 0.59142 0.05875 0.72882 0.0
C222 C 0.57576 0.02913 0.77194 0.0
C223 C 0.57432 1.0005 0.77929 0.0
C224 C 0.57292 0.99964 0.79659 0.0
C225 C 0.57425 0.02886 0.80672 0.0
C226 C 0.57678 0.05827 0.79953 0.0
C227 C 0.57714 0.0579 0.7822 0.0
C228 C 0.57793 0.08949 0.80962 0.0
C229 C 0.55197 0.08668 0.82019 0.0
C230 C 0.60267 0.12283 0.80685 0.0
C231 C 0.60049 0.1527 0.81372 0.0
C232 C 0.57337 0.14998 0.82346 0.0
C233 C 0.57021 0.96791 0.80361 0.0
C234 C 0.54977 0.93468 0.79514 0.0
C235 C 0.58977 0.97032 0.81786 0.0
C236 C 0.59024 0.94035 0.82291 0.0
C237 C 0.5714 0.90759 0.81371 0.0
C238 C 0.5506 0.90501 0.80003 0.0
C239 C 0.54961 0.11666 0.82699 0.0
H240 H 0.53613 0.97295 0.71869 0.0
H241 H 0.53878 0.97379 0.74867 0.0
H242 H 0.61024 0.08316 0.75345 0.0
H243 H 0.60564 0.08295 0.72356 0.0
H244 H 0.57468 0.97881 0.77146 0.0
H245 H 0.57742 0.07987 0.77667 0.0
H246 H 0.57322 0.02873 0.82006 0.0
H247 H 0.53246 0.06128 0.82243 0.0
H248 H 0.62296 0.1257 0.79874 0.0
H249 H 0.61906 0.17781 0.81059 0.0
H250 H 0.53366 0.93167 0.7844 0.0
H251 H 0.60584 0.99547 0.82464 0.0
H252 H 0.52863 0.11371 0.83461 0.0
H253 H 0.53531 0.87998 0.79293 0.0
H254 H 0.60644 0.94298 0.83353 0.0
C255 C 0.56421 0.47953 0.05118 0.0
C256 C 0.55458 0.50243 0.04418 0.0
C257 C 0.56172 0.47621 0.06815 0.0
C258 C 0.54991 0.49605 0.07861 0.0
C259 C 0.5403 0.51902 0.07156 0.0
C260 C 0.54245 0.52203 0.05453 0.0
C261 C 0.54783 0.49284 0.09678 0.0
C262 C 0.57284 0.48848 0.10547 0.0
C263 C 0.57115 0.48439 0.12248 0.0
C264 C 0.54365 0.48558 0.13109 0.0
C265 C 0.51831 0.49054 0.12253 0.0
C266 C 0.52082 0.49386 0.10544 0.0
C267 C 0.48842 0.49208 0.13061 0.0
C268 C 0.46424 0.46365 0.13796 0.0
C269 C 0.48097 0.51991 0.12839 0.0
C270 C 0.44984 0.51884 0.13269 0.0
C271 C 0.4248 0.48974 0.1393 0.0
C272 C 0.59894 0.47899 0.1304 0.0
C273 C 0.6084 0.45435 0.12246 0.0
C274 C 0.61977 0.50172 0.14391 0.0
C275 C 0.65015 0.50098 0.14871 0.0
C276 C 0.66052 0.47744 0.14014 0.0
C277 C 0.63856 0.45363 0.12718 0.0
C278 C 0.43281 0.46243 0.14218 0.0
H279 H 0.57319 0.46372 0.04346 0.0
H280 H 0.56869 0.45773 0.07303 0.0
H281 H 0.53161 0.53512 0.07923 0.0
H282 H 0.53517 0.54017 0.0495 0.0
H283 H 0.59433 0.48882 0.09896 0.0
H284 H 0.501 0.49645 0.09873 0.0
H285 H 0.54197 0.48265 0.14421 0.0
H286 H 0.4689 0.44156 0.13963 0.0
H287 H 0.49885 0.54207 0.12262 0.0
H288 H 0.44486 0.54026 0.13006 0.0
H289 H 0.59308 0.4365 0.11196 0.0
H290 H 0.61352 0.52127 0.15021 0.0
H291 H 0.41452 0.43974 0.14744 0.0
H292 H 0.64534 0.43535 0.12002 0.0
H293 H 0.66584 0.5194 0.15895 0.0
H294 H 0.108 0.41579 0.13555 0.0
H295 H 0.16615 0.42348 0.13577 0.0
H296 H 0.20056 0.52499 0.1634 0.0
H297 H 0.1417 0.51694 0.16362 0.0
H298 H 0.24137 0.52175 0.13522 0.0
H299 H 0.19829 0.46415 0.18374 0.0
H300 H 0.15713 0.41863 0.1993 0.0
H301 H 0.17091 0.33994 0.16813 0.0
H302 H 0.2118 0.38497 0.15221 0.0
H303 H 0.4083 0.54225 0.15119 0.0
H304 H 0.35219 0.53938 0.15415 0.0
H305 H 0.30607 0.42945 0.13715 0.0
H306 H 0.36217 0.43213 0.13415 0.0
H307 H 0.27159 0.43957 0.16134 0.0
H308 H 0.31078 0.49287 0.11194 0.0
H309 H 0.34973 0.53543 0.09438 0.0
H310 H 0.34103 0.61851 0.1244 0.0
H311 H 0.30235 0.5764 0.14232 0.0
C312 C 0.12782 0.43978 0.14175 0.0
C313 C 0.11998 0.4657 0.14961 0.0
C314 C 0.1612 0.44413 0.14186 0.0
C315 C 0.18799 0.47474 0.14965 0.0
C316 C 0.18045 0.50108 0.15729 0.0
C317 C 0.14676 0.49646 0.15744 0.0
C318 C 0.22353 0.4786 0.1498 0.0
C319 C 0.24818 0.50423 0.14122 0.0
C320 C 0.23233 0.45503 0.15708 0.0
C321 C 0.2079 0.42792 0.16669 0.0
C322 C 0.19234 0.43711 0.18011 0.0
C323 C 0.16909 0.4114 0.18902 0.0
C324 C 0.16135 0.37641 0.18469 0.0
C325 C 0.17691 0.36706 0.17146 0.0
C326 C 0.20015 0.39267 0.1625 0.0
C327 C 0.3863 0.5174 0.14799 0.0
C328 C 0.39019 0.48747 0.1423 0.0
C329 C 0.354 0.51581 0.14969 0.0
C330 C 0.32442 0.4843 0.14562 0.0
C331 C 0.32821 0.45417 0.14039 0.0
C332 C 0.36052 0.45572 0.13874 0.0
C333 C 0.2897 0.48276 0.14671 0.0
C334 C 0.26507 0.4574 0.15546 0.0
C335 C 0.28076 0.50622 0.13932 0.0
C336 C 0.30404 0.53158 0.12861 0.0
C337 C 0.31742 0.52026 0.1149 0.0
C338 C 0.3394 0.54428 0.10486 0.0
C339 C 0.34794 0.57967 0.10832 0.0
C340 C 0.33445 0.5911 0.12179 0.0
C341 C 0.3125 0.56718 0.13188 0.0
H342 H 0.36494 0.59823 0.10052 0.0
H343 H 0.14334 0.35654 0.1916 0.0
H344 H 0.68403 0.17128 0.52976 0.0
H345 H 0.73252 0.22715 0.5257 0.0
H346 H 0.67904 0.23524 0.48307 0.0
H347 H 0.6305 0.18015 0.48725 0.0
H348 H 0.74619 0.24188 0.47776 0.0
H349 H 0.68504 0.28623 0.51388 0.0
H350 H 0.6562 0.29025 0.53938 0.0
H351 H 0.74851 0.32208 0.56861 0.0
H352 H 0.77778 0.31771 0.54327 0.0
H353 H 0.84508 0.43857 0.47733 0.0
H354 H 0.7982 0.38889 0.48772 0.0
H355 H 0.86047 0.33566 0.48884 0.0
H356 H 0.90718 0.38486 0.47817 0.0
H357 H 0.78881 0.35219 0.51566 0.0
H358 H 0.81085 0.25151 0.47197 0.0
H359 H 0.83717 0.24789 0.44552 0.0
H360 H 0.81813 0.32981 0.42972 0.0
H361 H 0.79128 0.33354 0.45597 0.0
C362 C 0.6826 0.18526 0.51966 0.0
C363 C 0.65374 0.17149 0.50877 0.0
C364 C 0.71017 0.21706 0.51737 0.0
C365 C 0.70921 0.23508 0.50407 0.0
C366 C 0.68016 0.22158 0.49338 0.0
C367 C 0.65251 0.1902 0.4958 0.0
C368 C 0.73907 0.26711 0.50065 0.0
C369 C 0.75565 0.26595 0.48609 0.0
C370 C 0.75098 0.29846 0.51146 0.0
C371 C 0.7335 0.30124 0.5267 0.0
C372 C 0.69911 0.29374 0.52576 0.0
C373 C 0.6827 0.29616 0.54018 0.0
C374 C 0.70049 0.30631 0.55561 0.0
C375 C 0.73475 0.31416 0.55665 0.0
C376 C 0.75127 0.31174 0.54226 0.0
C377 C 0.84882 0.41636 0.47991 0.0
C378 C 0.87966 0.41543 0.47678 0.0
C379 C 0.82217 0.38821 0.486 0.0
C380 C 0.82587 0.35859 0.48891 0.0
C381 C 0.85714 0.35828 0.48658 0.0
C382 C 0.88381 0.38644 0.48055 0.0
C383 C 0.79615 0.32682 0.49283 0.0
C384 C 0.77958 0.328 0.50745 0.0
C385 C 0.78388 0.29547 0.48196 0.0
C386 C 0.79942 0.29305 0.46601 0.0
C387 C 0.81219 0.26865 0.46282 0.0
C388 C 0.8272 0.26659 0.44787 0.0
C389 C 0.82943 0.2887 0.43597 0.0
C390 C 0.81651 0.3128 0.43897 0.0
C391 C 0.80142 0.31492 0.45389 0.0
H392 H 0.8411 0.28709 0.42442 0.0
H393 H 0.68774 0.30818 0.56677 0.0
H394 H 0.54583 0.61003 0.85182 0.0
H395 H 0.54299 0.66544 0.85102 0.0
H396 H 0.59363 0.67973 0.80493 0.0
H397 H 0.59731 0.62531 0.806 0.0
H398 H 0.62337 0.73606 0.82384 0.0
H399 H 0.50684 0.66062 0.80845 0.0
H400 H 0.44665 0.61814 0.80873 0.0
H401 H 0.43723 0.67219 0.85431 0.0
H402 H 0.49747 0.71471 0.85447 0.0
H403 H 0.58591 0.86376 0.79259 0.0
H404 H 0.58792 0.81007 0.7982 0.0
H405 H 0.56511 0.82625 0.84907 0.0
H406 H 0.56356 0.88061 0.84353 0.0
H407 H 0.52308 0.75769 0.83137 0.0
H408 H 0.64049 0.83745 0.84315 0.0
H409 H 0.69579 0.88446 0.83731 0.0
H410 H 0.69993 0.82179 0.79359 0.0
H411 H 0.6444 0.77458 0.79903 0.0
C412 C 0.55589 0.62487 0.84144 0.0
C413 C 0.57208 0.6136 0.82906 0.0
C414 C 0.55419 0.6565 0.84094 0.0
C415 C 0.56822 0.67706 0.82793 0.0
C416 C 0.58299 0.66477 0.81522 0.0
C417 C 0.58504 0.63356 0.81582 0.0
C418 C 0.5699 0.71242 0.82796 0.0
C419 C 0.60122 0.74051 0.82536 0.0
C420 C 0.54143 0.7189 0.8304 0.0
C421 C 0.50676 0.69067 0.83154 0.0
C422 C 0.49217 0.66298 0.81874 0.0
C423 C 0.45799 0.63907 0.81875 0.0
C424 C 0.43817 0.64278 0.83144 0.0
C425 C 0.45265 0.66957 0.84445 0.0
C426 C 0.4868 0.6935 0.84452 0.0
C427 C 0.58154 0.85598 0.805 0.0
C428 C 0.57446 0.87623 0.81763 0.0
C429 C 0.58286 0.82542 0.80821 0.0
C430 C 0.57681 0.81426 0.82406 0.0
C431 C 0.56996 0.83452 0.83676 0.0
C432 C 0.5692 0.86553 0.83362 0.0
C433 C 0.57609 0.78052 0.82696 0.0
C434 C 0.54513 0.75298 0.83015 0.0
C435 C 0.60462 0.7743 0.82467 0.0
C436 C 0.63815 0.80256 0.82144 0.0
C437 C 0.65306 0.83379 0.83222 0.0
C438 C 0.68447 0.86046 0.829 0.0
C439 C 0.70133 0.85614 0.81508 0.0
C440 C 0.68684 0.82511 0.80437 0.0
C441 C 0.65541 0.79837 0.80753 0.0
H442 H 0.72565 0.87682 0.8126 0.0
H443 H 0.41152 0.62514 0.83113 0.0
H444 H 0.97711 0.55348 0.16647 0.0
H445 H 0.91917 0.54587 0.16471 0.0
H446 H 0.88548 0.44098 0.14095 0.0
H447 H 0.94424 0.44962 0.14172 0.0
H448 H 0.852 0.46598 0.12675 0.0
H449 H 0.87224 0.46358 0.18396 0.0
H450 H 0.90296 0.48363 0.21138 0.0
H451 H 0.89126 0.57744 0.21382 0.0
H452 H 0.86093 0.55821 0.18628 0.0
H453 H 0.67772 0.42287 0.13814 0.0
H454 H 0.73371 0.42554 0.14154 0.0
H455 H 0.77725 0.53669 0.15462 0.0
H456 H 0.72148 0.53459 0.15071 0.0
H457 H 0.80358 0.5045 0.17501 0.0
H458 H 0.784 0.5038 0.11604 0.0
H459 H 0.75203 0.47962 0.08903 0.0
H460 H 0.75989 0.38456 0.09137 0.0
H461 H 0.79154 0.40802 0.11851 0.0
C462 C 0.95742 0.52874 0.16085 0.0
C463 C 0.96549 0.50206 0.15434 0.0
C464 C 0.92399 0.52424 0.16 0.0
C465 C 0.89722 0.49247 0.15308 0.0
C466 C 0.9053 0.46577 0.14645 0.0
C467 C 0.93901 0.4706 0.14698 0.0
C468 C 0.86122 0.48767 0.15244 0.0
C469 C 0.84141 0.47392 0.13744 0.0
C470 C 0.84682 0.49811 0.16626 0.0
C471 C 0.86451 0.50954 0.18298 0.0
C472 C 0.87635 0.48856 0.1903 0.0
C473 C 0.8937 0.49978 0.20587 0.0
C474 C 0.89911 0.53182 0.21432 0.0
C475 C 0.88707 0.55264 0.20725 0.0
C476 C 0.86976 0.54157 0.19166 0.0
C477 C 0.69909 0.44807 0.14161 0.0
C478 C 0.69457 0.47858 0.14392 0.0
C479 C 0.73127 0.44948 0.14364 0.0
C480 C 0.76007 0.48138 0.14816 0.0
C481 C 0.75559 0.51169 0.15113 0.0
C482 C 0.72342 0.51038 0.14896 0.0
C483 C 0.79484 0.48327 0.14932 0.0
C484 C 0.81431 0.49644 0.16441 0.0
C485 C 0.80863 0.47151 0.13573 0.0
C486 C 0.78982 0.45753 0.11937 0.0
C487 C 0.77869 0.47765 0.11085 0.0
C488 C 0.76066 0.46409 0.09551 0.0
C489 C 0.75385 0.43054 0.08851 0.0
C490 C 0.76514 0.41052 0.09682 0.0
C491 C 0.78313 0.42394 0.11217 0.0
H492 H 0.7399 0.4201 0.07663 0.0
H493 H 0.91259 0.54048 0.22636 0.0
H494 H 0.42822 0.89291 0.50059 0.0
H495 H 0.37378 0.84069 0.49785 0.0
H496 H 0.32329 0.9034 0.51327 0.0
H497 H 0.37822 0.95567 0.5168 0.0
H498 H 0.29303 0.84272 0.5252 0.0
H499 H 0.32768 0.87887 0.47176 0.0
H500 H 0.36636 0.89675 0.44891 0.0
H501 H 0.36855 0.79785 0.44418 0.0
H502 H 0.33024 0.77954 0.46717 0.0
H503 H 0.13358 0.72061 0.48196 0.0
H504 H 0.1857 0.77152 0.49297 0.0
H505 H 0.2406 0.7105 0.48638 0.0
H506 H 0.18859 0.6593 0.47583 0.0
H507 H 0.26701 0.77132 0.47036 0.0
H508 H 0.22905 0.73568 0.52413 0.0
H509 H 0.18851 0.71961 0.54627 0.0
H510 H 0.18939 0.81984 0.54905 0.0
H511 H 0.22959 0.83635 0.52674 0.0
C512 C 0.40551 0.89544 0.50356 0.0
C513 C 0.40715 0.92818 0.50867 0.0
C514 C 0.37444 0.86566 0.50195 0.0
C515 C 0.34436 0.86827 0.50492 0.0
C516 C 0.34615 0.90082 0.51081 0.0
C517 C 0.37744 0.93062 0.51276 0.0
C518 C 0.31114 0.83735 0.50094 0.0
C519 C 0.28716 0.82733 0.51315 0.0
C520 C 0.30351 0.81717 0.48523 0.0
C521 C 0.32632 0.82796 0.47129 0.0
C522 C 0.33658 0.86102 0.46592 0.0
C523 C 0.35841 0.87122 0.45293 0.0
C524 C 0.36997 0.84848 0.44512 0.0
C525 C 0.35961 0.81545 0.45025 0.0
C526 C 0.33781 0.80513 0.46325 0.0
C527 C 0.15655 0.71778 0.48326 0.0
C528 C 0.15704 0.68601 0.47782 0.0
C529 C 0.1863 0.74691 0.48951 0.0
C530 C 0.21692 0.74469 0.49041 0.0
C531 C 0.21719 0.71269 0.48569 0.0
C532 C 0.18751 0.68357 0.47956 0.0
C533 C 0.24924 0.77634 0.4947 0.0
C534 C 0.27295 0.78666 0.48244 0.0
C535 C 0.2562 0.797 0.51021 0.0
C536 C 0.23207 0.78711 0.52364 0.0
C537 C 0.22036 0.75418 0.52934 0.0
C538 C 0.19749 0.74502 0.54195 0.0
C539 C 0.1863 0.76865 0.54903 0.0
C540 C 0.19804 0.80154 0.54354 0.0
C541 C 0.22089 0.81083 0.53093 0.0
H542 H 0.1686 0.76151 0.55879 0.0
H543 H 0.38689 0.85644 0.43508 0.0
H544 H 0.47768 0.39167 0.83304 0.0
H545 H 0.48667 0.33967 0.83283 0.0
H546 H 0.5942 0.40509 0.84162 0.0
H547 H 0.58508 0.45692 0.84119 0.0
H548 H 0.58531 0.3544 0.81969 0.0
H549 H 0.5378 0.35995 0.87254 0.0
H550 H 0.49525 0.3631 0.89137 0.0
H551 H 0.41963 0.26574 0.86718 0.0
H552 H 0.46137 0.26229 0.84796 0.0
H553 H 0.62142 0.21568 0.83555 0.0
H554 H 0.6143 0.26885 0.84032 0.0
H555 H 0.50749 0.20915 0.82725 0.0
H556 H 0.5144 0.15595 0.82249 0.0
H557 H 0.51815 0.25794 0.85282 0.0
H558 H 0.56383 0.25451 0.7991 0.0
H559 H 0.60521 0.25098 0.77964 0.0
H560 H 0.68387 0.34431 0.80554 0.0
H561 H 0.64303 0.34811 0.8253 0.0
C562 C 0.5032 0.39481 0.83491 0.0
C563 C 0.53082 0.42817 0.83683 0.0
C564 C 0.50834 0.36511 0.83492 0.0
C565 C 0.54112 0.36827 0.83747 0.0
C566 C 0.56869 0.4018 0.83955 0.0
C567 C 0.56356 0.43145 0.83918 0.0
C568 C 0.5468 0.33671 0.83751 0.0
C569 C 0.57101 0.33365 0.82719 0.0
C570 C 0.52768 0.30908 0.84699 0.0
C571 C 0.5027 0.31099 0.85872 0.0
C572 C 0.51206 0.33931 0.87117 0.0
C573 C 0.4881 0.34115 0.88192 0.0
C574 C 0.45483 0.31467 0.88047 0.0
C575 C 0.44542 0.28624 0.86828 0.0
C576 C 0.4692 0.28433 0.85746 0.0
C577 C 0.59637 0.21384 0.8338 0.0
C578 C 0.56852 0.18154 0.82853 0.0
C579 C 0.59234 0.24427 0.83652 0.0
C580 C 0.56045 0.24314 0.83386 0.0
C581 C 0.53235 0.21073 0.82937 0.0
C582 C 0.53633 0.18026 0.82672 0.0
C583 C 0.55651 0.27578 0.835 0.0
C584 C 0.53264 0.27896 0.8455 0.0
C585 C 0.57592 0.30355 0.82571 0.0
C586 C 0.60045 0.30137 0.81379 0.0
C587 C 0.59 0.27412 0.80072 0.0
C588 C 0.61335 0.2721 0.78963 0.0
C589 C 0.64716 0.29734 0.79138 0.0
C590 C 0.65768 0.32473 0.80421 0.0
C591 C 0.63445 0.32684 0.81536 0.0
H592 H 0.6652 0.29573 0.78278 0.0
H593 H 0.43635 0.31616 0.88881 0.0
H594 H 0.51112 0.9505 0.5094 0.0
H595 H 0.50404 0.89133 0.51037 0.0
H596 H 0.61205 0.92908 0.50784 0.0
H597 H 0.61858 0.98788 0.50567 0.0
H598 H 0.581 0.8685 0.48984 0.0
H599 H 0.56893 0.91406 0.54488 0.0
H600 H 0.5432 0.94056 0.56506 0.0
H601 H 0.44666 0.85094 0.55498 0.0
H602 H 0.47146 0.82438 0.53429 0.0
H603 H 0.59716 0.73014 0.52324 0.0
H604 H 0.60019 0.78608 0.51784 0.0
H605 H 0.4914 0.74243 0.51805 0.0
H606 H 0.48813 0.68625 0.52334 0.0
H607 H 0.52078 0.80468 0.53654 0.0
H608 H 0.53201 0.75916 0.48181 0.0
H609 H 0.55607 0.73333 0.46039 0.0
H610 H 0.65331 0.82237 0.46985 0.0
H611 H 0.62992 0.84853 0.4915 0.0
C612 C 0.53308 0.94597 0.50854 0.0
C613 C 0.56516 0.97368 0.50716 0.0
C614 C 0.5292 0.91221 0.5094 0.0
C615 C 0.55759 0.90568 0.50946 0.0
C616 C 0.58971 0.93333 0.50783 0.0
C617 C 0.59345 0.96698 0.50667 0.0
C618 C 0.55406 0.87037 0.5117 0.0
C619 C 0.5682 0.85476 0.50018 0.0
C620 C 0.53661 0.85195 0.52496 0.0
C621 C 0.52202 0.86732 0.53792 0.0
C622 C 0.54219 0.90003 0.54691 0.0
C623 C 0.52777 0.91509 0.55844 0.0
C624 C 0.49338 0.89741 0.56134 0.0
C625 C 0.47331 0.86461 0.55273 0.0
C626 C 0.48751 0.84956 0.54107 0.0
C627 C 0.5738 0.73218 0.52183 0.0
C628 C 0.54239 0.70357 0.5237 0.0
C629 C 0.57559 0.76429 0.5188 0.0
C630 C 0.54601 0.7685 0.51744 0.0
C631 C 0.51459 0.7399 0.51911 0.0
C632 C 0.51278 0.70778 0.52215 0.0
C633 C 0.54795 0.80296 0.51474 0.0
C634 C 0.53355 0.81842 0.5262 0.0
C635 C 0.56516 0.82127 0.50144 0.0
C636 C 0.57928 0.80565 0.48839 0.0
C637 C 0.55858 0.77311 0.47941 0.0
C638 C 0.57209 0.75843 0.46721 0.0
C639 C 0.60622 0.77616 0.46379 0.0
C640 C 0.62689 0.80865 0.47253 0.0
C641 C 0.61351 0.82343 0.48476 0.0
H642 H 0.61663 0.76475 0.45434 0.0
H643 H 0.4823 0.90915 0.57026 0.0
H644 H 0.7086 0.58039 0.84302 0.0
H645 H 0.76496 0.5861 0.83758 0.0
H646 H 0.72069 0.48732 0.80668 0.0
H647 H 0.66391 0.48133 0.81222 0.0
H648 H 0.76923 0.49254 0.82881 0.0
H649 H 0.76089 0.55986 0.78819 0.0
H650 H 0.74771 0.60333 0.77662 0.0
H651 H 0.8225 0.68482 0.81049 0.0
H652 H 0.83579 0.64182 0.82246 0.0
H653 H 0.94281 0.53418 0.82841 0.0
H654 H 0.88819 0.52102 0.81481 0.0
H655 H 0.88934 0.61195 0.84295 0.0
H656 H 0.94387 0.62536 0.85636 0.0
H657 H 0.86085 0.60148 0.81204 0.0
H658 H 0.8538 0.53168 0.85753 0.0
H659 H 0.8658 0.48904 0.87073 0.0
H660 H 0.81866 0.41303 0.82841 0.0
H661 H 0.8068 0.45545 0.81488 0.0
C662 C 0.7109 0.55989 0.83508 0.0
C663 C 0.68213 0.53043 0.82804 0.0
C664 C 0.74304 0.56335 0.83183 0.0
C665 C 0.74687 0.53749 0.82141 0.0
C666 C 0.71813 0.50771 0.81456 0.0
C667 C 0.68586 0.50426 0.8178 0.0
C668 C 0.78112 0.54087 0.81886 0.0
C669 C 0.78915 0.51583 0.82464 0.0
C670 C 0.80696 0.57137 0.81349 0.0
C671 C 0.7993 0.59752 0.80625 0.0
C672 C 0.77441 0.58702 0.79324 0.0
C673 C 0.76693 0.61159 0.7866 0.0
C674 C 0.78425 0.64681 0.79282 0.0
C675 C 0.80913 0.65753 0.80567 0.0
C676 C 0.81671 0.63307 0.81236 0.0
C677 C 0.93153 0.55157 0.83146 0.0
C678 C 0.94715 0.58048 0.84358 0.0
C679 C 0.90054 0.54415 0.82364 0.0
C680 C 0.88463 0.56527 0.82806 0.0
C681 C 0.90131 0.59541 0.83933 0.0
C682 C 0.93238 0.603 0.84703 0.0
C683 C 0.84899 0.55407 0.82283 0.0
C684 C 0.84071 0.57757 0.81555 0.0
C685 C 0.82286 0.52228 0.82694 0.0
C686 C 0.82984 0.49681 0.83512 0.0
C687 C 0.84621 0.50594 0.85101 0.0
C688 C 0.85297 0.48182 0.85855 0.0
C689 C 0.84311 0.44838 0.85039 0.0
C690 C 0.82638 0.43897 0.83469 0.0
C691 C 0.81965 0.46303 0.82708 0.0
H692 H 0.84834 0.42974 0.85625 0.0
H693 H 0.77841 0.66579 0.78766 0.0
H694 H 0.17632 0.60199 0.13739 0.0
H695 H 0.2273 0.65818 0.1398 0.0
H696 H 0.18409 0.69805 0.17908 0.0
H697 H 0.13274 0.64244 0.17624 0.0
H698 H 0.21489 0.74651 0.16018 0.0
H699 H 0.24307 0.66727 0.18603 0.0
H700 H 0.24964 0.61397 0.18797 0.0
H701 H 0.32092 0.64158 0.14969 0.0
H702 H 0.31402 0.6945 0.14718 0.0
H703 H 0.36248 0.87424 0.20701 0.0
H704 H 0.31073 0.822 0.19669 0.0
H705 H 0.35828 0.81211 0.15145 0.0
H706 H 0.41006 0.86514 0.16165 0.0
H707 H 0.32713 0.74982 0.16979 0.0
H708 H 0.30095 0.83397 0.14697 0.0
H709 H 0.29485 0.88814 0.14796 0.0
H710 H 0.2206 0.85208 0.18458 0.0
H711 H 0.22662 0.7979 0.18399 0.0
C712 C 0.17771 0.62289 0.14645 0.0
C713 C 0.15075 0.61793 0.15669 0.0
C714 C 0.20687 0.65492 0.14787 0.0
C715 C 0.2098 0.68227 0.15979 0.0
C716 C 0.18248 0.67743 0.16978 0.0
C717 C 0.1532 0.6456 0.16821 0.0
C718 C 0.24153 0.71564 0.16225 0.0
C719 C 0.23937 0.74715 0.16236 0.0
C720 C 0.27367 0.71663 0.16485 0.0
C721 C 0.27765 0.68462 0.16625 0.0
C722 C 0.25982 0.66175 0.17788 0.0
C723 C 0.2636 0.63158 0.17907 0.0
C724 C 0.28551 0.62424 0.16888 0.0
C725 C 0.30374 0.64711 0.15749 0.0
C726 C 0.29987 0.67718 0.15615 0.0
C727 C 0.36163 0.86114 0.19477 0.0
C728 C 0.38999 0.87353 0.18506 0.0
C729 C 0.33216 0.83143 0.18889 0.0
C730 C 0.33074 0.81333 0.17331 0.0
C731 C 0.35895 0.82585 0.16349 0.0
C732 C 0.38832 0.85608 0.16925 0.0
C733 C 0.30024 0.78035 0.16785 0.0
C734 C 0.30266 0.74899 0.16729 0.0
C735 C 0.26828 0.77949 0.16521 0.0
C736 C 0.26444 0.81196 0.16552 0.0
C737 C 0.28353 0.8377 0.15533 0.0
C738 C 0.28004 0.86839 0.1558 0.0
C739 C 0.2574 0.87358 0.16635 0.0
C740 C 0.23814 0.84804 0.17642 0.0
C741 C 0.24155 0.81731 0.17601 0.0
H742 H 0.25474 0.89736 0.1667 0.0
H743 H 0.28848 0.60094 0.16987 0.0
H744 H 0.55779 0.13756 0.5269 0.0
H745 H 0.56794 0.19841 0.52823 0.0
H746 H 0.48942 0.16954 0.48981 0.0
H747 H 0.47928 0.10857 0.48838 0.0
H748 H 0.54734 0.23217 0.48579 0.0
H749 H 0.47108 0.18011 0.52854 0.0
H750 H 0.45306 0.14768 0.55295 0.0
H751 H 0.54133 0.22514 0.58139 0.0
H752 H 0.56012 0.25779 0.55706 0.0
H753 H 0.5192 0.38316 0.49896 0.0
H754 H 0.51411 0.32407 0.49478 0.0
H755 H 0.58082 0.34722 0.53805 0.0
H756 H 0.58462 0.40543 0.5428 0.0
H757 H 0.52939 0.28709 0.53915 0.0
H758 H 0.60619 0.34007 0.4975 0.0
H759 H 0.62676 0.37275 0.47332 0.0
H760 H 0.54143 0.29505 0.44313 0.0
H761 H 0.5201 0.26212 0.4672 0.0
C762 C 0.54291 0.14425 0.51864 0.0
C763 C 0.51764 0.11836 0.50758 0.0
C764 C 0.54867 0.17899 0.51944 0.0
C765 C 0.52921 0.18847 0.50922 0.0
C766 C 0.5047 0.16281 0.4978 0.0
C767 C 0.49883 0.128 0.49705 0.0
C768 C 0.53336 0.2248 0.51102 0.0
C769 C 0.54305 0.24412 0.49738 0.0
C770 C 0.52856 0.24063 0.52626 0.0
C771 C 0.51715 0.22122 0.54094 0.0
C772 C 0.48676 0.19009 0.53997 0.0
C773 C 0.47639 0.17169 0.55379 0.0
C774 C 0.49608 0.18429 0.5687 0.0
C775 C 0.52613 0.21539 0.56983 0.0
C776 C 0.53663 0.23387 0.55603 0.0
C777 C 0.53275 0.37569 0.50762 0.0
C778 C 0.55246 0.39934 0.52119 0.0
C779 C 0.53011 0.34194 0.5051 0.0
C780 C 0.54737 0.33116 0.516 0.0
C781 C 0.56731 0.35483 0.52943 0.0
C782 C 0.56979 0.3884 0.53201 0.0
C783 C 0.54359 0.29485 0.51392 0.0
C784 C 0.53383 0.27537 0.52753 0.0
C785 C 0.54868 0.27907 0.49869 0.0
C786 C 0.56136 0.29883 0.4842 0.0
C787 C 0.59166 0.33011 0.48574 0.0
C788 C 0.60348 0.34864 0.47205 0.0
C789 C 0.58536 0.33604 0.45671 0.0
C790 C 0.55541 0.30481 0.45503 0.0
C791 C 0.54345 0.28618 0.46869 0.0
H792 H 0.59456 0.35042 0.44612 0.0
H793 H 0.48801 0.17001 0.57939 0.0
H794 H 0.45231 0.5719 0.85667 0.0
H795 H 0.40669 0.58836 0.85562 0.0
H796 H 0.35658 0.50806 0.81477 0.0
H797 H 0.40284 0.49139 0.8158 0.0
H798 H 0.35956 0.56787 0.8079 0.0
H799 H 0.32269 0.50169 0.85344 0.0
H800 H 0.32718 0.48059 0.88004 0.0
H801 H 0.35905 0.58338 0.90536 0.0
H802 H 0.35522 0.60524 0.87888 0.0
H803 H 0.2074 0.58785 0.82549 0.0
H804 H 0.25129 0.57129 0.81731 0.0
H805 H 0.32562 0.66207 0.84729 0.0
H806 H 0.28207 0.68018 0.85497 0.0
H807 H 0.30555 0.59152 0.85788 0.0
H808 H 0.3437 0.65704 0.81119 0.0
H809 H 0.33721 0.67609 0.78431 0.0
H810 H 0.29893 0.57088 0.76098 0.0
H811 H 0.30472 0.55109 0.78779 0.0
C812 C 0.43132 0.55738 0.84762 0.0
C813 C 0.4309 0.53042 0.83632 0.0
C814 C 0.40513 0.56663 0.8471 0.0
C815 C 0.37806 0.54921 0.83521 0.0
C816 C 0.37724 0.52174 0.82405 0.0
C817 C 0.40348 0.5122 0.82468 0.0
C818 C 0.35225 0.5618 0.8339 0.0
C819 C 0.34706 0.57229 0.81873 0.0
C820 C 0.33656 0.56816 0.84812 0.0
C821 C 0.3388 0.55513 0.86413 0.0
C822 C 0.33086 0.51985 0.86466 0.0
C823 C 0.33326 0.50775 0.87973 0.0
C824 C 0.34343 0.53064 0.89438 0.0
C825 C 0.35116 0.56568 0.894 0.0
C826 C 0.34882 0.57792 0.87897 0.0
C827 C 0.23329 0.60552 0.82967 0.0
C828 C 0.24104 0.63495 0.84129 0.0
C829 C 0.25838 0.59583 0.82497 0.0
C830 C 0.29138 0.61524 0.8319 0.0
C831 C 0.30008 0.64676 0.8419 0.0
C832 C 0.27512 0.65683 0.8464 0.0
C833 C 0.31387 0.59853 0.83208 0.0
C834 C 0.31791 0.58683 0.84704 0.0
C835 C 0.328 0.59072 0.81765 0.0
C836 C 0.32424 0.60251 0.80155 0.0
C837 C 0.33351 0.63788 0.80037 0.0
C838 C 0.33006 0.64884 0.78514 0.0
C839 C 0.31756 0.62469 0.77096 0.0
C840 C 0.30856 0.58954 0.77198 0.0
C841 C 0.31194 0.57845 0.78719 0.0
H842 H 0.31493 0.63323 0.75917 0.0
H843 H 0.34528 0.52122 0.90603 0.0
H844 H 0.9086 0.35374 0.13045 0.0
H845 H 0.85353 0.3066 0.13569 0.0
H846 H 0.89464 0.2984 0.18249 0.0
H847 H 0.95001 0.34447 0.17692 0.0
H848 H 0.854 0.2367 0.16918 0.0
H849 H 0.84726 0.34456 0.17878 0.0
H850 H 0.8516 0.4007 0.17191 0.0
H851 H 0.77527 0.34727 0.13245 0.0
H852 H 0.77095 0.29078 0.13886 0.0
H853 H 0.70458 0.16632 0.21393 0.0
H854 H 0.75785 0.20828 0.2038 0.0
H855 H 0.71283 0.18135 0.15395 0.0
H856 H 0.65937 0.13873 0.16401 0.0
H857 H 0.75314 0.25848 0.1667 0.0
H858 H 0.76006 0.14923 0.15954 0.0
H859 H 0.75625 0.09517 0.16903 0.0
H860 H 0.83319 0.15525 0.2075 0.0
H861 H 0.83708 0.20969 0.19839 0.0
C862 C 0.90593 0.34143 0.14172 0.0
C863 C 0.93344 0.35268 0.1533 0.0
C864 C 0.87441 0.31472 0.14477 0.0
C865 C 0.86967 0.29942 0.15966 0.0
C866 C 0.89758 0.30982 0.17094 0.0
C867 C 0.92922 0.33614 0.16776 0.0
C868 C 0.83556 0.27329 0.16376 0.0
C869 C 0.83207 0.24168 0.16873 0.0
C870 C 0.8067 0.27949 0.163 0.0
C871 C 0.80905 0.31343 0.15919 0.0
C872 C 0.83158 0.34478 0.16855 0.0
C873 C 0.83403 0.37667 0.16475 0.0
C874 C 0.81376 0.37756 0.15174 0.0
C875 C 0.79099 0.34654 0.14251 0.0
C876 C 0.78854 0.31457 0.14622 0.0
C877 C 0.70596 0.16952 0.20083 0.0
C878 C 0.67789 0.14935 0.18974 0.0
C879 C 0.73638 0.19338 0.19507 0.0
C880 C 0.73918 0.19783 0.17815 0.0
C881 C 0.71105 0.17826 0.16706 0.0
C882 C 0.6807 0.15387 0.17278 0.0
C883 C 0.77195 0.22231 0.17215 0.0
C884 C 0.77513 0.25357 0.16691 0.0
C885 C 0.8007 0.21621 0.17299 0.0
C886 C 0.79864 0.18352 0.17837 0.0
C887 C 0.77596 0.15091 0.17011 0.0
C888 C 0.77383 0.12019 0.1754 0.0
C889 C 0.79441 0.12176 0.18888 0.0
C890 C 0.81724 0.15407 0.19707 0.0
C891 C 0.81945 0.18486 0.19184 0.0
H892 H 0.79271 0.09796 0.19296 0.0
H893 H 0.81564 0.40227 0.14884 0.0
H894 H 0.01697 0.42686 0.09385 0.0
H895 H 0.02034 0.42894 0.06373 0.0
H896 H 0.07874 0.54081 0.07177 0.0
H897 H 0.07573 0.53908 0.10166 0.0
H898 H 0.02456 0.51738 0.04797 0.0
H899 H 0.11796 0.49307 0.06266 0.0
H900 H 0.14234 0.4581 0.07433 0.0
H901 H 0.08005 0.36976 0.0396 0.0
H902 H 0.05494 0.40411 0.02788 0.0
H903 H 0.10672 0.58188 0.97786 0.0
H904 H 0.09551 0.56363 0.00553 0.0
H905 H 0.04796 0.45576 0.9846 0.0
H906 H 0.06031 0.47385 0.95666 0.0
H907 H 0.08715 0.46659 0.01327 0.0
H908 H 0.99859 0.49181 0.99622 0.0
H909 H 0.97315 0.52563 0.98435 0.0
H910 H 0.02311 0.60958 0.02323 0.0
H911 H 0.04929 0.57649 0.03521 0.0
C912 C 0.03048 0.45188 0.08918 0.0
C913 C 0.04609 0.4828 0.10014 0.0
C914 C 0.03246 0.45298 0.07201 0.0
C915 C 0.04983 0.48502 0.0656 0.0
C916 C 0.06517 0.51585 0.07651 0.0
C917 C 0.06351 0.51476 0.0936 0.0
C918 C 0.05214 0.48704 0.04754 0.0
C919 C 0.03831 0.50638 0.04037 0.0
C920 C 0.069 0.47153 0.03757 0.0
C921 C 0.08428 0.45101 0.04453 0.0
C922 C 0.10924 0.4661 0.05761 0.0
C923 C 0.12324 0.44642 0.06421 0.0
C924 C 0.11267 0.4117 0.05774 0.0
C925 C 0.08816 0.39663 0.04462 0.0
C926 C 0.07405 0.4162 0.03799 0.0
C927 C 0.09457 0.55424 0.97908 0.0
C928 C 0.08434 0.52933 0.96501 0.0
C929 C 0.08783 0.54385 0.99493 0.0
C930 C 0.07034 0.50838 0.99707 0.0
C931 C 0.06126 0.48328 0.98317 0.0
C932 C 0.06811 0.49368 0.96724 0.0
C933 C 0.06065 0.49809 0.01386 0.0
C934 C 0.07288 0.47709 0.02077 0.0
C935 C 0.042 0.51178 0.02361 0.0
C936 C 0.02607 0.53172 0.01655 0.0
C937 C 1.00434 0.51758 0.00218 0.0
C938 C 0.98976 0.53661 0.99544 0.0
C939 C 0.99655 0.56975 0.00302 0.0
C940 C 0.01788 0.5839 0.01737 0.0
C941 C 0.03255 0.565 0.02416 0.0
H942 H 0.98524 0.58445 0.99777 0.0
H943 H 0.12354 0.3965 0.06287 0.0
H944 H 0.48582 0.99367 0.45268 0.0
H945 H 0.48548 0.99222 0.4225 0.0
H946 H 0.58486 0.08 0.42646 0.0
H947 H 0.58521 0.08214 0.45664 0.0
H948 H 0.5443 0.08829 0.40484 0.0
H949 H 0.57319 0.99634 0.41455 0.0
H950 H 0.56531 0.94248 0.42589 0.0
H951 H 0.46969 0.88558 0.39836 0.0
H952 H 0.47681 0.93923 0.38701 0.0
H953 H 0.58483 0.07654 0.32045 0.0
H954 H 0.58405 0.07829 0.3507 0.0
H955 H 0.4855 0.98916 0.34608 0.0
H956 H 0.48631 0.98709 0.31584 0.0
H957 H 0.52496 0.98135 0.36806 0.0
H958 H 0.49584 0.07256 0.35812 0.0
H959 H 0.50286 0.12629 0.34694 0.0
H960 H 0.59774 0.1844 0.37496 0.0
H961 H 0.59151 0.1309 0.38615 0.0
C962 C 0.50768 0.01262 0.44716 0.0
C963 C 0.53559 0.03796 0.45712 0.0
C964 C 0.50748 0.01167 0.42988 0.0
C965 C 0.53531 0.03576 0.42221 0.0
C966 C 0.56311 0.06115 0.43211 0.0
C967 C 0.56329 0.06224 0.44939 0.0
C968 C 0.53537 0.03481 0.40386 0.0
C969 C 0.54052 0.06505 0.3968 0.0
C970 C 0.52957 0.00422 0.39337 0.0
C971 C 0.5254 0.97187 0.40005 0.0
C972 C 0.55038 0.97239 0.411 0.0
C973 C 0.54607 0.94189 0.41741 0.0
C974 C 0.51698 0.91064 0.41288 0.0
C975 C 0.49219 0.90981 0.40188 0.0
C976 C 0.49637 0.94025 0.39544 0.0
C977 C 0.56288 0.05754 0.32591 0.0
C978 C 0.53563 0.03169 0.31579 0.0
C979 C 0.56244 0.05856 0.34319 0.0
C980 C 0.53455 0.03406 0.35067 0.0
C981 C 0.50732 0.00827 0.34058 0.0
C982 C 0.50784 0.00708 0.32331 0.0
C983 C 0.53398 0.03488 0.36901 0.0
C984 C 0.52873 0.00461 0.37609 0.0
C985 C 0.53959 0.06542 0.37952 0.0
C986 C 0.54336 0.09765 0.37284 0.0
C987 C 0.51833 0.09674 0.3618 0.0
C988 C 0.52214 0.12716 0.35548 0.0
C989 C 0.55077 0.15872 0.3602 0.0
C990 C 0.5756 0.15993 0.3713 0.0
C991 C 0.57193 0.12957 0.37764 0.0
H992 H 0.55367 0.18224 0.3553 0.0
H993 H 0.51368 0.88706 0.41786 0.0
H994 H 0.5967 0.53045 0.77818 0.0
H995 H 0.59513 0.53748 0.74873 0.0
H996 H 0.49122 0.51935 0.75087 0.0
H997 H 0.49257 0.51262 0.78049 0.0
H998 H 0.50655 0.48252 0.72243 0.0
H999 H 0.54464 0.59748 0.75139 0.0
H1000 H 0.5809 0.64671 0.77193 0.0
H1001 H 0.66897 0.65719 0.74609 0.0
H1002 H 0.63327 0.60753 0.72557 0.0
H1003 H 0.49596 0.53738 0.64445 0.0
H1004 H 0.49351 0.53194 0.67412 0.0
H1005 H 0.60186 0.56998 0.67808 0.0
H1006 H 0.60477 0.57727 0.64855 0.0
H1007 H 0.58226 0.5972 0.70394 0.0
H1008 H 0.54684 0.48213 0.67604 0.0
H1009 H 0.51279 0.43065 0.65611 0.0
H1010 H 0.42234 0.41851 0.68007 0.0
H1011 H 0.45582 0.47024 0.70002 0.0
C1012 C 0.57337 0.52763 0.77239 0.0
C1013 C 0.54476 0.52105 0.78168 0.0
C1014 C 0.5726 0.53178 0.75558 0.0
C1015 C 0.54315 0.52915 0.74772 0.0
C1016 C 0.51418 0.52149 0.75678 0.0
C1017 C 0.51505 0.51777 0.77368 0.0
C1018 C 0.54312 0.53547 0.73015 0.0
C1019 C 0.52263 0.5077 0.71836 0.0
C1020 C 0.56483 0.56813 0.72493 0.0
C1021 C 0.58629 0.59857 0.73702 0.0
C1022 C 0.57176 0.61011 0.75015 0.0
C1023 C 0.59221 0.63811 0.76179 0.0
C1024 C 0.62722 0.65503 0.76033 0.0
C1025 C 0.64184 0.64404 0.7472 0.0
C1026 C 0.6215 0.61598 0.73556 0.0
C1027 C 0.51938 0.5452 0.65165 0.0
C1028 C 0.55057 0.55761 0.64405 0.0
C1029 C 0.51787 0.54167 0.66861 0.0
C1030 C 0.54742 0.54996 0.67828 0.0
C1031 C 0.57869 0.56323 0.67085 0.0
C1032 C 0.58027 0.56704 0.65391 0.0
C1033 C 0.54569 0.54414 0.69606 0.0
C1034 C 0.56593 0.57203 0.70794 0.0
C1035 C 0.52399 0.51144 0.70135 0.0
C1036 C 0.50379 0.48027 0.68941 0.0
C1037 C 0.51966 0.46864 0.67698 0.0
C1038 C 0.50046 0.4394 0.66569 0.0
C1039 C 0.46541 0.42138 0.66679 0.0
C1040 C 0.44949 0.43253 0.67921 0.0
C1041 C 0.46856 0.46179 0.69052 0.0
H1042 H 0.45059 0.39874 0.65805 0.0
H1043 H 0.64301 0.67668 0.76936 0.0
H1044 H 0.59323 0.08319 0.56545 0.0
H1045 H 0.59762 0.0781 0.59499 0.0
H1046 H 0.49793 0.99093 0.59109 0.0
H1047 H 0.49323 0.99561 0.56148 0.0
H1048 H 0.50901 0.04257 0.61821 0.0
H1049 H 0.56202 0.97355 0.59424 0.0
H1050 H 0.60252 0.96241 0.57676 0.0
H1051 H 0.6856 0.04818 0.60472 0.0
H1052 H 0.64564 0.06002 0.62227 0.0
H1053 H 0.51359 0.99195 0.69784 0.0
H1054 H 0.50834 0.99212 0.66795 0.0
H1055 H 0.61402 0.06554 0.66812 0.0
H1056 H 0.62007 0.06371 0.69788 0.0
H1057 H 0.59898 0.01943 0.64244 0.0
H1058 H 0.54874 0.09032 0.66604 0.0
H1059 H 0.51021 0.10475 0.68347 0.0
H1060 H 0.42431 0.02075 0.65629 0.0
H1061 H 0.46235 0.00551 0.63884 0.0
C1062 C 0.57215 0.06296 0.57084 0.0
C1063 C 0.54282 0.03988 0.56108 0.0
C1064 C 0.57481 0.06 0.58771 0.0
C1065 C 0.54818 0.03403 0.59515 0.0
C1066 C 0.51875 0.01114 0.58553 0.0
C1067 C 0.51616 0.01386 0.56861 0.0
C1068 C 0.55091 0.03122 0.61307 0.0
C1069 C 0.52832 0.03698 0.62352 0.0
C1070 C 0.57679 0.02499 0.61997 0.0
C1071 C 0.60083 0.01787 0.60945 0.0
C1072 C 0.58892 0.9902 0.59656 0.0
C1073 C 0.61176 0.98373 0.58667 0.0
C1074 C 0.64657 0.00466 0.58959 0.0
C1075 C 0.65862 0.03203 0.60246 0.0
C1076 C 0.6359 0.03859 0.6124 0.0
C1077 C 0.53591 0.00772 0.69152 0.0
C1078 C 0.56727 0.0279 0.70035 0.0
C1079 C 0.53273 0.00817 0.67442 0.0
C1080 C 0.56063 0.02935 0.6658 0.0
C1081 C 0.59207 0.04914 0.67451 0.0
C1082 C 0.59539 0.04836 0.69158 0.0
C1083 C 0.55707 0.03088 0.64772 0.0
C1084 C 0.57954 0.02492 0.6372 0.0
C1085 C 0.53135 0.03744 0.64078 0.0
C1086 C 0.5084 0.04656 0.65125 0.0
C1087 C 0.52163 0.07476 0.66387 0.0
C1088 C 0.49988 0.08311 0.67374 0.0
C1089 C 0.46483 0.06362 0.67102 0.0
C1090 C 0.45147 0.03579 0.6584 0.0
C1091 C 0.47311 0.0273 0.64851 0.0
H1092 H 0.44804 0.07013 0.67867 0.0
H1093 H 0.6642 0.9996 0.58192 0.0
H1094 H 0.61136 0.52684 0.88693 0.0
H1095 H 0.61472 0.52596 0.91702 0.0
H1096 H 0.51214 0.51221 0.91964 0.0
H1097 H 0.50887 0.51397 0.8898 0.0
H1098 H 0.55106 0.55926 0.94372 0.0
H1099 H 0.53493 0.44432 0.92073 0.0
H1100 H 0.55051 0.40377 0.90351 0.0
H1101 H 0.64539 0.44431 0.93154 0.0
H1102 H 0.63082 0.48574 0.94869 0.0
H1103 H 0.50706 0.50228 0.02255 0.0
H1104 H 0.51091 0.50714 0.99277 0.0
H1105 H 0.61177 0.51547 0.99526 0.0
H1106 H 0.60761 0.50971 0.02501 0.0
H1107 H 0.5789 0.47449 0.96883 0.0
H1108 H 0.59657 0.58774 0.99208 0.0
H1109 H 0.58434 0.63095 0.00916 0.0
H1110 H 0.49048 0.59645 0.98088 0.0
H1111 H 0.50192 0.55269 0.96376 0.0
C1112 C 0.58952 0.52361 0.89392 0.0
C1113 C 0.55985 0.52048 0.88592 0.0
C1114 C 0.59143 0.52299 0.91112 0.0
C1115 C 0.56354 0.51865 0.9206 0.0
C1116 C 0.53401 0.51565 0.91262 0.0
C1117 C 0.53218 0.51659 0.89551 0.0
C1118 C 0.5648 0.51739 0.93884 0.0
C1119 C 0.5568 0.54046 0.94919 0.0
C1120 C 0.57348 0.49372 0.94607 0.0
C1121 C 0.58192 0.46838 0.93589 0.0
C1122 C 0.55921 0.44476 0.92316 0.0
C1123 C 0.56784 0.4216 0.91341 0.0
C1124 C 0.59888 0.42146 0.91642 0.0
C1125 C 0.62136 0.44447 0.92921 0.0
C1126 C 0.61296 0.46782 0.93893 0.0
C1127 C 0.53012 0.50539 0.01676 0.0
C1128 C 0.55709 0.50577 0.02612 0.0
C1129 C 0.53236 0.50824 -0.00027 0.0
C1130 C 0.56188 0.51228 0.99177 0.0
C1131 C 0.58875 0.51241 0.0011 0.0
C1132 C 0.58635 0.50911 0.01809 0.0
C1133 C 0.56447 0.51591 0.97369 0.0
C1134 C 0.57329 0.49339 0.96338 0.0
C1135 C 0.5569 0.54035 0.96649 0.0
C1136 C 0.54998 0.56673 0.97673 0.0
C1137 C 0.57321 0.5892 0.98957 0.0
C1138 C 0.56643 0.61382 -0.00075 0.0
C1139 C 0.53662 0.61639 0.99613 0.0
C1140 C 0.51355 0.59441 0.98329 0.0
C1141 C 0.52018 0.56972 0.97359 0.0
H1142 H 0.53142 0.63547 0.00364 0.0
H1143 H 0.60547 0.40348 0.90886 0.0
H1144 H 0.98588 0.44147 0.20278 0.0
H1145 H 0.97745 0.44578 0.23251 0.0
H1146 H 0.07289 0.53863 0.24043 0.0
H1147 H 0.08143 0.53478 0.21066 0.0
H1148 H 0.01234 0.44395 0.25901 0.0
H1149 H 0.06529 0.59471 0.27063 0.0
H1150 H 0.06905 0.64297 0.25546 0.0
H1151 H 0.98214 0.57197 0.22413 0.0
H1152 H 0.97757 0.52342 0.23925 0.0
H1153 H 0.04872 0.49816 0.34452 0.0
H1154 H 0.05053 0.49094 0.31443 0.0
H1155 H 0.97201 0.52322 0.30951 0.0
H1156 H 0.97159 0.53273 0.3397 0.0
H1157 H 0.01729 0.5525 0.28874 0.0
H1158 H 0.95617 0.43595 0.30175 0.0
H1159 H 0.94463 0.38444 0.31615 0.0
H1160 H 0.03366 0.38106 0.29707 0.0
H1161 H 0.04599 0.43287 0.28273 0.0
C1162 C 1.00517 0.46279 0.21083 0.0
C1163 C 0.03431 0.48787 0.20433 0.0
C1164 C 1.00031 0.46514 0.22783 0.0
C1165 C 0.02436 0.49269 0.23865 0.0
C1166 C 0.05377 0.51741 0.23226 0.0
C1167 C 0.05869 0.51507 0.21525 0.0
C1168 C 0.01865 0.49569 0.25662 0.0
C1169 C 0.01342 0.46766 0.26553 0.0
C1170 C 0.01901 0.52622 0.26501 0.0
C1171 C 0.02133 0.55539 0.25598 0.0
C1172 C 0.04691 0.58944 0.26055 0.0
C1173 C 0.04919 0.61683 0.25195 0.0
C1174 C 0.02592 0.61052 0.23881 0.0
C1175 C 1.00023 0.57681 0.23427 0.0
C1176 C 0.99782 0.54934 0.24284 0.0
C1177 C 0.03208 0.50416 0.33709 0.0
C1178 C 0.01003 0.51611 0.34461 0.0
C1179 C 0.03281 0.49952 0.31983 0.0
C1180 C 0.01104 0.50601 0.30966 0.0
C1181 C 0.98897 0.5179 0.31709 0.0
C1182 C 0.98849 0.52295 0.33438 0.0
C1183 C 0.01184 0.50104 0.29129 0.0
C1184 C 0.01614 0.52872 0.28227 0.0
C1185 C 0.00951 0.46972 0.28272 0.0
C1186 C 1.00215 0.43848 0.29128 0.0
C1187 C 0.97342 0.42437 0.30072 0.0
C1188 C 0.96672 0.3951 0.30885 0.0
C1189 C 0.98844 0.37953 0.30755 0.0
C1190 C 0.01687 0.39317 0.29808 0.0
C1191 C 0.02371 0.42246 0.28993 0.0
H1192 H 0.98321 0.35687 0.31386 0.0
H1193 H 0.02775 0.63176 0.23216 0.0
loop_
_geom_bond_atom_site_label_1
_geom_bond_atom_site_label_2
_geom_bond_distance
_geom_bond_site_symmetry_2
_ccdc_geom_bond_type
Tb0 O3 2.453 1_455 S
Tb0 O4 2.603 . S
Tb0 O5 2.374 . S
Tb0 O13 2.343 . S
Tb0 O15 2.353 . S
Tb0 O17 2.427 . S
Tb0 O18 2.513 . S
C1 O5 1.251 . S
C1 O7 1.263 . S
Tb2 O4 2.354 . S
Tb2 O7 2.353 . S
Tb2 O10 2.427 1_455 S
Tb2 O11 2.513 1_455 S
Tb2 O12 2.453 . S
Tb2 O13 2.596 . S
Tb2 O14 2.374 . S
O3 Tb0 2.453 1_655 S
O3 C19 1.245 . S
O4 Tb0 2.603 . S
O4 Tb2 2.354 . S
O4 C19 1.246 1_455 S
O5 Tb0 2.374 . S
O5 C1 1.251 . S
C6 O10 1.275 . S
C6 O11 1.246 . S
O7 C1 1.263 . S
O7 Tb2 2.353 . S
C8 O12 1.245 . S
C8 O13 1.259 . S
C9 O14 1.250 . S
C9 O15 1.263 . S
O10 Tb2 2.427 1_655 S
O10 C6 1.275 . S
O11 Tb2 2.513 1_655 S
O11 C6 1.246 . S
O12 Tb2 2.453 . S
O12 C8 1.245 . S
O13 Tb0 2.343 . S
O13 Tb2 2.596 . S
O13 C8 1.259 . S
O14 Tb2 2.374 . S
O14 C9 1.250 . S
O15 Tb0 2.353 . S
O15 C9 1.263 . S
C16 O17 1.275 . S
C16 O18 1.246 . S
O17 Tb0 2.427 . S
O17 C16 1.275 . S
O18 Tb0 2.513 . S
O18 C16 1.246 . S
C19 O3 1.245 . S
C19 O4 1.246 1_655 S
Tb20 O23 2.453 . S
Tb20 O24 2.596 . S
Tb20 O25 2.374 . S
Tb20 O33 2.343 1_545 S
Tb20 O35 2.353 . S
Tb20 O37 2.427 1_545 S
Tb20 O38 2.513 1_545 S
C21 O25 1.251 . S
C21 O27 1.263 . S
Tb22 O24 2.343 . S
Tb22 O27 2.353 . S
Tb22 O30 2.427 . S
Tb22 O31 2.513 . S
Tb22 O32 2.453 1_545 S
Tb22 O33 2.596 1_545 S
Tb22 O34 2.374 . S
O23 Tb20 2.453 . S
O23 C39 1.245 . S
O24 Tb20 2.596 . S
O24 Tb22 2.343 . S
O24 C39 1.259 . S
O25 Tb20 2.374 . S
O25 C21 1.251 . S
C26 O30 1.275 . S
C26 O31 1.246 . S
O27 C21 1.263 . S
O27 Tb22 2.353 . S
C28 O32 1.245 . S
C28 O33 1.259 . S
C29 O34 1.250 . S
C29 O35 1.263 . S
O30 Tb22 2.427 . S
O30 C26 1.275 . S
O31 Tb22 2.513 . S
O31 C26 1.246 . S
O32 Tb22 2.453 1_565 S
O32 C28 1.245 . S
O33 Tb20 2.343 1_565 S
O33 Tb22 2.596 1_565 S
O33 C28 1.259 . S
O34 Tb22 2.374 . S
O34 C29 1.250 . S
O35 Tb20 2.353 . S
O35 C29 1.263 . S
C36 O37 1.275 . S
C36 O38 1.246 . S
O37 Tb20 2.427 1_565 S
O37 C36 1.275 . S
O38 Tb20 2.513 1_565 S
O38 C36 1.246 . S
C39 O23 1.245 . S
C39 O24 1.259 . S
Tb40 O43 2.453 . S
Tb40 O44 2.596 . S
Tb40 O45 2.374 . S
Tb40 O53 2.343 . S
Tb40 O55 2.353 . S
Tb40 O57 2.427 . S
Tb40 O58 2.513 . S
C41 O45 1.251 . S
C41 O47 1.263 . S
Tb42 O44 2.343 . S
Tb42 O47 2.353 . S
Tb42 O50 2.427 . S
Tb42 O51 2.513 . S
Tb42 O52 2.453 . S
Tb42 O53 2.596 . S
Tb42 O54 2.374 . S
O43 Tb40 2.453 . S
O43 C59 1.245 . S
O44 Tb40 2.596 . S
O44 Tb42 2.343 . S
O44 C59 1.259 . S
O45 Tb40 2.374 . S
O45 C41 1.251 . S
C46 O50 1.275 . S
C46 O51 1.246 . S
O47 C41 1.263 . S
O47 Tb42 2.353 . S
C48 O52 1.245 . S
C48 O53 1.259 . S
C49 O54 1.250 . S
C49 O55 1.263 . S
O50 Tb42 2.427 . S
O50 C46 1.275 . S
O51 Tb42 2.513 . S
O51 C46 1.246 . S
O52 Tb42 2.453 . S
O52 C48 1.245 . S
O53 Tb40 2.343 . S
O53 Tb42 2.596 . S
O53 C48 1.259 . S
O54 Tb42 2.374 . S
O54 C49 1.250 . S
O55 Tb40 2.353 . S
O55 C49 1.263 . S
C56 O57 1.275 . S
C56 O58 1.246 . S
O57 Tb40 2.427 . S
O57 C56 1.275 . S
O58 Tb40 2.513 . S
O58 C56 1.246 . S
C59 O43 1.245 . S
C59 O44 1.259 . S
C60 C61 1.386 . S
C60 C62 1.397 . S
C60 H84 0.931 . S
C61 C60 1.386 . S
C61 C65 1.397 . S
C62 C60 1.397 . S
C62 C63 1.384 . S
C62 H85 0.930 . S
C63 C62 1.384 . S
C63 C64 1.377 . S
C63 C66 1.481 . S
C64 C63 1.377 . S
C64 C65 1.389 . S
C64 H86 0.929 1_545 S
C65 C61 1.397 . S
C65 C64 1.389 . S
C65 H87 0.931 . S
C66 C63 1.481 . S
C66 C67 1.387 . S
C66 C71 1.390 . S
C67 C66 1.387 . S
C67 C68 1.401 . S
C67 H88 0.930 . S
C68 C67 1.401 . S
C68 C69 1.376 . S
C68 C77 1.511 . S
C69 C68 1.376 . S
C69 C70 1.392 . S
C69 H90 0.931 . S
C70 C69 1.392 . S
C70 C71 1.361 . S
C70 C72 1.500 1_545 S
C71 C66 1.390 . S
C71 C70 1.361 . S
C71 H89 0.925 1_545 S
C72 C70 1.500 1_565 S
C72 C73 1.371 . S
C72 C74 1.365 . S
C73 C72 1.371 . S
C73 C83 1.386 . S
C73 H91 0.931 1_565 S
C74 C72 1.365 . S
C74 C75 1.409 . S
C74 H92 0.929 . S
C75 C74 1.409 . S
C75 C76 1.380 . S
C75 H93 0.930 . S
C76 C75 1.380 . S
C76 C83 1.357 . S
C77 C68 1.511 . S
C77 C78 1.341 . S
C77 C79 1.371 . S
C78 C77 1.341 . S
C78 C82 1.394 . S
C78 H94 0.930 . S
C79 C77 1.371 . S
C79 C80 1.392 . S
C79 H95 0.931 . S
C80 C79 1.392 . S
C80 C81 1.331 . S
C80 H98 0.932 . S
C81 C80 1.331 . S
C81 C82 1.336 . S
C82 C78 1.394 . S
C82 C81 1.336 . S
C82 H97 0.929 . S
C83 C73 1.386 . S
C83 C76 1.357 . S
C83 H96 0.928 . S
H84 C60 0.931 . S
H85 C62 0.930 . S
H86 C64 0.929 1_565 S
H87 C65 0.931 . S
H88 C67 0.930 . S
H89 C71 0.925 1_565 S
H90 C69 0.931 . S
H91 C73 0.931 1_545 S
H92 C74 0.929 . S
H93 C75 0.930 . S
H94 C78 0.930 . S
H95 C79 0.931 . S
H96 C83 0.928 . S
H97 C82 0.929 . S
H98 C80 0.932 . S
C99 C100 1.386 . S
C99 C101 1.397 . S
C99 H123 0.931 . S
C100 C99 1.386 . S
C100 C104 1.397 . S
C101 C99 1.397 . S
C101 C102 1.384 . S
C101 H124 0.930 . S
C102 C101 1.384 . S
C102 C103 1.377 . S
C102 C105 1.481 . S
C103 C102 1.377 . S
C103 C104 1.389 . S
C103 H125 0.929 . S
C104 C100 1.397 . S
C104 C103 1.389 . S
C104 H126 0.931 . S
C105 C102 1.481 . S
C105 C106 1.387 . S
C105 C110 1.390 . S
C106 C105 1.387 . S
C106 C107 1.401 . S
C106 H127 0.930 . S
C107 C106 1.401 . S
C107 C108 1.376 . S
C107 C116 1.511 . S
C108 C107 1.376 . S
C108 C109 1.392 . S
C108 H129 0.931 . S
C109 C108 1.392 . S
C109 C110 1.361 . S
C109 C111 1.500 . S
C110 C105 1.390 . S
C110 C109 1.361 . S
C110 H128 0.931 . S
C111 C109 1.500 . S
C111 C112 1.371 . S
C111 C113 1.365 . S
C112 C111 1.371 . S
C112 C122 1.386 . S
C112 H130 0.931 . S
C113 C111 1.365 . S
C113 C114 1.409 . S
C113 H131 0.929 . S
C114 C113 1.409 . S
C114 C115 1.380 . S
C114 H132 0.930 . S
C115 C114 1.380 . S
C115 C122 1.357 . S
C116 C107 1.511 . S
C116 C117 1.341 . S
C116 C118 1.371 . S
C117 C116 1.341 . S
C117 C121 1.394 . S
C117 H133 0.930 . S
C118 C116 1.371 . S
C118 C119 1.392 . S
C118 H134 0.931 . S
C119 C118 1.392 . S
C119 C120 1.331 . S
C119 H137 0.932 . S
C120 C119 1.331 . S
C120 C121 1.336 . S
C121 C117 1.394 . S
C121 C120 1.336 . S
C121 H136 0.929 . S
C122 C112 1.386 . S
C122 C115 1.357 . S
C122 H135 0.928 . S
H123 C99 0.931 . S
H124 C101 0.930 . S
H125 C103 0.929 . S
H126 C104 0.931 . S
H127 C106 0.930 . S
H128 C110 0.931 . S
H129 C108 0.931 . S
H130 C112 0.931 . S
H131 C113 0.929 . S
H132 C114 0.930 . S
H133 C117 0.930 . S
H134 C118 0.931 . S
H135 C122 0.928 . S
H136 C121 0.929 . S
H137 C119 0.932 . S
C138 C139 1.386 . S
C138 C140 1.397 . S
C138 H162 0.931 . S
C139 C138 1.386 . S
C139 C143 1.397 . S
C140 C138 1.397 . S
C140 C141 1.384 . S
C140 H163 0.930 . S
C141 C140 1.384 . S
C141 C142 1.377 . S
C141 C144 1.481 . S
C142 C141 1.377 . S
C142 C143 1.389 . S
C142 H164 0.929 . S
C143 C139 1.397 . S
C143 C142 1.389 . S
C143 H165 0.931 . S
C144 C141 1.481 . S
C144 C145 1.387 . S
C144 C149 1.390 . S
C145 C144 1.387 . S
C145 C146 1.401 . S
C145 H166 0.930 . S
C146 C145 1.401 . S
C146 C147 1.376 . S
C146 C155 1.511 . S
C147 C146 1.376 . S
C147 C148 1.392 . S
C147 H168 0.931 . S
C148 C147 1.392 . S
C148 C149 1.361 . S
C148 C150 1.500 . S
C149 C144 1.390 . S
C149 C148 1.361 . S
C149 H167 0.931 . S
C150 C148 1.500 . S
C150 C151 1.371 . S
C150 C152 1.365 1_455 S
C151 C150 1.371 . S
C151 C161 1.375 1_455 S
C151 H169 0.931 . S
C152 C150 1.365 1_655 S
C152 C153 1.409 . S
C152 H170 0.929 . S
C153 C152 1.409 . S
C153 C154 1.380 . S
C153 H171 0.930 . S
C154 C153 1.380 . S
C154 C161 1.367 . S
C155 C146 1.511 . S
C155 C156 1.341 . S
C155 C157 1.371 . S
C156 C155 1.341 . S
C156 C160 1.394 . S
C156 H172 0.930 . S
C157 C155 1.371 . S
C157 C158 1.392 . S
C157 H173 0.931 . S
C158 C157 1.392 . S
C158 C159 1.331 . S
C158 H176 0.932 . S
C159 C158 1.331 . S
C159 C160 1.336 . S
C160 C156 1.394 . S
C160 C159 1.336 . S
C160 H175 0.929 . S
C161 C151 1.375 1_655 S
C161 C154 1.367 . S
C161 H174 0.929 1_655 S
H162 C138 0.931 . S
H163 C140 0.930 . S
H164 C142 0.929 . S
H165 C143 0.931 . S
H166 C145 0.930 . S
H167 C149 0.931 . S
H168 C147 0.931 . S
H169 C151 0.931 . S
H170 C152 0.929 . S
H171 C153 0.930 . S
H172 C156 0.930 . S
H173 C157 0.931 . S
H174 C161 0.929 1_455 S
H175 C160 0.929 . S
H176 C158 0.932 . S
C177 C178 1.399 . S
C177 C179 1.397 . S
C177 H201 0.931 . S
C178 C177 1.399 . S
C178 C182 1.385 1_655 S
C179 C177 1.397 . S
C179 C180 1.400 . S
C179 H202 0.930 . S
C180 C179 1.400 . S
C180 C181 1.361 1_655 S
C180 C183 1.481 . S
C181 C180 1.361 1_455 S
C181 C182 1.389 . S
C181 H203 0.929 . S
C182 C178 1.385 1_455 S
C182 C181 1.389 . S
C182 H204 0.931 . S
C183 C180 1.481 . S
C183 C184 1.389 . S
C183 C188 1.389 1_655 S
C184 C183 1.389 . S
C184 C185 1.401 . S
C184 H205 0.930 . S
C185 C184 1.401 . S
C185 C186 1.376 1_655 S
C185 C194 1.511 . S
C186 C185 1.376 1_455 S
C186 C187 1.392 . S
C186 H207 0.931 . S
C187 C186 1.392 . S
C187 C188 1.361 . S
C187 C189 1.500 . S
C188 C183 1.389 1_455 S
C188 C187 1.361 . S
C188 H206 0.931 . S
C189 C187 1.500 . S
C189 C190 1.371 . S
C189 C191 1.365 . S
C190 C189 1.371 . S
C190 C200 1.386 . S
C190 H208 0.931 . S
C191 C189 1.365 . S
C191 C192 1.409 . S
C191 H209 0.929 . S
C192 C191 1.409 . S
C192 C193 1.380 . S
C192 H210 0.930 . S
C193 C192 1.380 . S
C193 C200 1.357 . S
C194 C185 1.511 . S
C194 C195 1.341 . S
C194 C196 1.371 . S
C195 C194 1.341 . S
C195 C199 1.394 . S
C195 H211 0.930 . S
C196 C194 1.371 . S
C196 C197 1.392 . S
C196 H212 0.931 . S
C197 C196 1.392 . S
C197 C198 1.331 . S
C197 H215 0.932 . S
C198 C197 1.331 . S
C198 C199 1.336 . S
C199 C195 1.394 . S
C199 C198 1.336 . S
C199 H214 0.929 . S
C200 C190 1.386 . S
C200 C193 1.357 . S
C200 H213 0.928 . S
H201 C177 0.931 . S
H202 C179 0.930 . S
H203 C181 0.929 . S
H204 C182 0.931 . S
H205 C184 0.930 . S
H206 C188 0.931 . S
H207 C186 0.931 . S
H208 C190 0.931 . S
H209 C191 0.929 . S
H210 C192 0.930 . S
H211 C195 0.930 . S
H212 C196 0.931 . S
H213 C200 0.928 . S
H214 C199 0.929 . S
H215 C197 0.932 . S
C216 C217 1.386 1_565 S
C216 C218 1.397 . S
C216 H240 0.931 . S
C217 C216 1.386 1_545 S
C217 C221 1.397 . S
C218 C216 1.397 . S
C218 C219 1.384 1_565 S
C218 H241 0.930 . S
C219 C218 1.384 1_545 S
C219 C220 1.377 . S
C219 C222 1.481 . S
C220 C219 1.377 . S
C220 C221 1.389 . S
C220 H242 0.929 . S
C221 C217 1.397 . S
C221 C220 1.389 . S
C221 H243 0.931 . S
C222 C219 1.481 . S
C222 C223 1.387 1_545 S
C222 C227 1.390 . S
C223 C222 1.387 1_565 S
C223 C224 1.401 . S
C223 H244 0.930 . S
C224 C223 1.401 . S
C224 C225 1.376 1_565 S
C224 C233 1.511 . S
C225 C224 1.376 1_545 S
C225 C226 1.392 . S
C225 H246 0.931 . S
C226 C225 1.392 . S
C226 C227 1.361 . S
C226 C228 1.500 . S
C227 C222 1.390 . S
C227 C226 1.361 . S
C227 H245 0.931 . S
C228 C226 1.500 . S
C228 C229 1.371 . S
C228 C230 1.365 . S
C229 C228 1.371 . S
C229 C239 1.386 . S
C229 H247 0.931 . S
C230 C228 1.365 . S
C230 C231 1.409 . S
C230 H248 0.929 . S
C231 C230 1.409 . S
C231 C232 1.380 . S
C231 H249 0.930 . S
C232 C231 1.380 . S
C232 C239 1.357 . S
C233 C224 1.511 . S
C233 C234 1.341 . S
C233 C235 1.371 . S
C234 C233 1.341 . S
C234 C238 1.394 . S
C234 H250 0.930 . S
C235 C233 1.371 . S
C235 C236 1.392 . S
C235 H251 0.931 . S
C236 C235 1.392 . S
C236 C237 1.331 . S
C236 H254 0.932 . S
C237 C236 1.331 . S
C237 C238 1.336 . S
C238 C234 1.394 . S
C238 C237 1.336 . S
C238 H253 0.929 . S
C239 C229 1.386 . S
C239 C232 1.357 . S
C239 H252 0.928 . S
H240 C216 0.931 . S
H241 C218 0.930 . S
H242 C220 0.929 . S
H243 C221 0.931 . S
H244 C223 0.930 . S
H245 C227 0.931 . S
H246 C225 0.931 . S
H247 C229 0.931 . S
H248 C230 0.929 . S
H249 C231 0.930 . S
H250 C234 0.930 . S
H251 C235 0.931 . S
H252 C239 0.928 . S
H253 C238 0.929 . S
H254 C236 0.932 . S
C255 C256 1.386 . S
C255 C257 1.397 . S
C255 H279 0.931 . S
C256 C255 1.386 . S
C256 C260 1.397 . S
C257 C255 1.397 . S
C257 C258 1.384 . S
C257 H280 0.930 . S
C258 C257 1.384 . S
C258 C259 1.377 . S
C258 C261 1.481 . S
C259 C258 1.377 . S
C259 C260 1.389 . S
C259 H281 0.929 . S
C260 C256 1.397 . S
C260 C259 1.389 . S
C260 H282 0.931 . S
C261 C258 1.481 . S
C261 C262 1.387 . S
C261 C266 1.390 . S
C262 C261 1.387 . S
C262 C263 1.401 . S
C262 H283 0.930 . S
C263 C262 1.401 . S
C263 C264 1.376 . S
C263 C272 1.511 . S
C264 C263 1.376 . S
C264 C265 1.392 . S
C264 H285 0.931 . S
C265 C264 1.392 . S
C265 C266 1.361 . S
C265 C267 1.500 . S
C266 C261 1.390 . S
C266 C265 1.361 . S
C266 H284 0.931 . S
C267 C265 1.500 . S
C267 C268 1.371 . S
C267 C269 1.365 . S
C268 C267 1.371 . S
C268 C278 1.386 . S
C268 H286 0.931 . S
C269 C267 1.365 . S
C269 C270 1.409 . S
C269 H287 0.929 . S
C270 C269 1.409 . S
C270 C271 1.380 . S
C270 H288 0.930 . S
C271 C270 1.380 . S
C271 C278 1.357 . S
C272 C263 1.511 . S
C272 C273 1.341 . S
C272 C274 1.371 . S
C273 C272 1.341 . S
C273 C277 1.394 . S
C273 H289 0.930 . S
C274 C272 1.371 . S
C274 C275 1.392 . S
C274 H290 0.931 . S
C275 C274 1.392 . S
C275 C276 1.331 . S
C275 H293 0.932 . S
C276 C275 1.331 . S
C276 C277 1.336 . S
C277 C273 1.394 . S
C277 C276 1.336 . S
C277 H292 0.929 . S
C278 C268 1.386 . S
C278 C271 1.357 . S
C278 H291 0.928 . S
H279 C255 0.931 . S
H280 C257 0.930 . S
H281 C259 0.929 . S
H282 C260 0.931 . S
H283 C262 0.930 . S
H284 C266 0.931 . S
H285 C264 0.931 . S
H286 C268 0.931 . S
H287 C269 0.929 . S
H288 C270 0.930 . S
H289 C273 0.930 . S
H290 C274 0.931 . S
H291 C278 0.928 . S
H292 C277 0.929 . S
H293 C275 0.932 . S
H294 C312 0.951 . S
H295 C314 0.951 . S
H296 C316 0.950 . S
H297 C317 0.950 . S
H298 C319 0.950 . S
H299 C322 0.950 . S
H300 C323 0.950 . S
H301 C325 0.950 . S
H302 C326 0.950 . S
H303 C327 0.951 . S
H304 C329 0.951 . S
H305 C331 0.950 . S
H306 C332 0.950 . S
H307 C334 0.950 . S
H308 C337 0.950 . S
H309 C338 0.950 . S
H310 C340 0.950 . S
H311 C341 0.950 . S
C312 H294 0.951 . S
C312 C313 1.366 . S
C312 C314 1.388 . S
C313 C312 1.366 . S
C313 C317 1.385 . S
C314 H295 0.951 . S
C314 C312 1.388 . S
C314 C315 1.366 . S
C315 C314 1.366 . S
C315 C316 1.414 . S
C315 C318 1.499 . S
C316 H296 0.950 . S
C316 C315 1.414 . S
C316 C317 1.374 . S
C317 H297 0.950 . S
C317 C313 1.385 . S
C317 C316 1.374 . S
C318 C315 1.499 . S
C318 C319 1.373 . S
C318 C320 1.389 . S
C319 H298 0.950 . S
C319 C318 1.373 . S
C319 C335 1.377 . S
C320 C318 1.389 . S
C320 C321 1.524 . S
C320 C334 1.377 . S
C321 C320 1.524 . S
C321 C322 1.397 . S
C321 C326 1.363 . S
C322 H299 0.950 . S
C322 C321 1.397 . S
C322 C323 1.334 . S
C323 H300 0.950 . S
C323 C322 1.334 . S
C323 C324 1.287 . S
C324 C323 1.287 . S
C324 C325 1.524 . S
C324 H343 0.913 . S
C325 H301 0.950 . S
C325 C324 1.524 . S
C325 C326 1.415 . S
C326 H302 0.950 . S
C326 C321 1.363 . S
C326 C325 1.415 . S
C327 H303 0.951 . S
C327 C328 1.366 . S
C327 C329 1.388 . S
C328 C327 1.366 . S
C328 C332 1.385 . S
C329 H304 0.951 . S
C329 C327 1.388 . S
C329 C330 1.366 . S
C330 C329 1.366 . S
C330 C331 1.414 . S
C330 C333 1.499 . S
C331 H305 0.950 . S
C331 C330 1.414 . S
C331 C332 1.374 . S
C332 H306 0.950 . S
C332 C328 1.385 . S
C332 C331 1.374 . S
C333 C330 1.499 . S
C333 C334 1.373 . S
C333 C335 1.389 . S
C334 H307 0.950 . S
C334 C320 1.377 . S
C334 C333 1.373 . S
C335 C319 1.377 . S
C335 C333 1.389 . S
C335 C336 1.524 . S
C336 C335 1.524 . S
C336 C337 1.397 . S
C336 C341 1.363 . S
C337 H308 0.950 . S
C337 C336 1.397 . S
C337 C338 1.334 . S
C338 H309 0.950 . S
C338 C337 1.334 . S
C338 C339 1.287 . S
C339 C338 1.287 . S
C339 C340 1.524 . S
C339 H342 0.999 . S
C340 H310 0.950 . S
C340 C339 1.524 . S
C340 C341 1.415 . S
C341 H311 0.950 . S
C341 C336 1.363 . S
C341 C340 1.415 . S
H342 C339 0.999 . S
H343 C324 0.913 . S
H344 C362 0.951 . S
H345 C364 0.951 . S
H346 C366 0.950 . S
H347 C367 0.950 . S
H348 C369 0.950 . S
H349 C372 0.950 . S
H350 C373 0.950 . S
H351 C375 0.950 . S
H352 C376 0.950 . S
H353 C377 0.951 . S
H354 C379 0.951 . S
H355 C381 0.950 . S
H356 C382 0.950 . S
H357 C384 0.950 . S
H358 C387 0.950 . S
H359 C388 0.950 . S
H360 C390 0.950 . S
H361 C391 0.950 . S
C362 H344 0.951 . S
C362 C363 1.366 . S
C362 C364 1.388 . S
C363 C362 1.366 . S
C363 C367 1.385 . S
C364 H345 0.951 . S
C364 C362 1.388 . S
C364 C365 1.366 . S
C365 C364 1.366 . S
C365 C366 1.414 . S
C365 C368 1.499 . S
C366 H346 0.950 . S
C366 C365 1.414 . S
C366 C367 1.374 . S
C367 H347 0.950 . S
C367 C363 1.385 . S
C367 C366 1.374 . S
C368 C365 1.499 . S
C368 C369 1.373 . S
C368 C370 1.389 . S
C369 H348 0.950 . S
C369 C368 1.373 . S
C369 C385 1.377 . S
C370 C368 1.389 . S
C370 C371 1.524 . S
C370 C384 1.377 . S
C371 C370 1.524 . S
C371 C372 1.397 . S
C371 C376 1.363 . S
C372 H349 0.950 . S
C372 C371 1.397 . S
C372 C373 1.334 . S
C373 H350 0.950 . S
C373 C372 1.334 . S
C373 C374 1.287 . S
C374 C373 1.287 . S
C374 C375 1.524 . S
C374 H393 0.913 . S
C375 H351 0.950 . S
C375 C374 1.524 . S
C375 C376 1.415 . S
C376 H352 0.950 . S
C376 C371 1.363 . S
C376 C375 1.415 . S
C377 H353 0.951 . S
C377 C378 1.366 . S
C377 C379 1.388 . S
C378 C377 1.366 . S
C378 C382 1.385 . S
C379 H354 0.951 . S
C379 C377 1.388 . S
C379 C380 1.366 . S
C380 C379 1.366 . S
C380 C381 1.414 . S
C380 C383 1.499 . S
C381 H355 0.950 . S
C381 C380 1.414 . S
C381 C382 1.374 . S
C382 H356 0.950 . S
C382 C378 1.385 . S
C382 C381 1.374 . S
C383 C380 1.499 . S
C383 C384 1.373 . S
C383 C385 1.389 . S
C384 H357 0.950 . S
C384 C370 1.377 . S
C384 C383 1.373 . S
C385 C369 1.377 . S
C385 C383 1.389 . S
C385 C386 1.524 . S
C386 C385 1.524 . S
C386 C387 1.397 . S
C386 C391 1.363 . S
C387 H358 0.950 . S
C387 C386 1.397 . S
C387 C388 1.334 . S
C388 H359 0.950 . S
C388 C387 1.334 . S
C388 C389 1.287 . S
C389 C388 1.287 . S
C389 C390 1.524 . S
C389 H392 0.999 . S
C390 H360 0.950 . S
C390 C389 1.524 . S
C390 C391 1.415 . S
C391 H361 0.950 . S
C391 C386 1.363 . S
C391 C390 1.415 . S
H392 C389 0.999 . S
H393 C374 0.913 . S
H394 C412 0.951 . S
H395 C414 0.951 . S
H396 C416 0.950 . S
H397 C417 0.950 . S
H398 C419 0.950 . S
H399 C422 0.950 . S
H400 C423 0.950 . S
H401 C425 0.950 . S
H402 C426 0.950 . S
H403 C427 0.951 . S
H404 C429 0.951 . S
H405 C431 0.950 . S
H406 C432 0.950 . S
H407 C434 0.950 . S
H408 C437 0.950 . S
H409 C438 0.950 . S
H410 C440 0.950 . S
H411 C441 0.950 . S
C412 H394 0.951 . S
C412 C413 1.366 . S
C412 C414 1.388 . S
C413 C412 1.366 . S
C413 C417 1.385 . S
C414 H395 0.951 . S
C414 C412 1.388 . S
C414 C415 1.366 . S
C415 C414 1.366 . S
C415 C416 1.414 . S
C415 C418 1.499 . S
C416 H396 0.950 . S
C416 C415 1.414 . S
C416 C417 1.374 . S
C417 H397 0.950 . S
C417 C413 1.385 . S
C417 C416 1.374 . S
C418 C415 1.499 . S
C418 C419 1.373 . S
C418 C420 1.389 . S
C419 H398 0.950 . S
C419 C418 1.373 . S
C419 C435 1.377 . S
C420 C418 1.389 . S
C420 C421 1.524 . S
C420 C434 1.377 . S
C421 C420 1.524 . S
C421 C422 1.397 . S
C421 C426 1.363 . S
C422 H399 0.950 . S
C422 C421 1.397 . S
C422 C423 1.334 . S
C423 H400 0.950 . S
C423 C422 1.334 . S
C423 C424 1.287 . S
C424 C423 1.287 . S
C424 C425 1.524 . S
C424 H443 0.913 . S
C425 H401 0.950 . S
C425 C424 1.524 . S
C425 C426 1.415 . S
C426 H402 0.950 . S
C426 C421 1.363 . S
C426 C425 1.415 . S
C427 H403 0.951 . S
C427 C428 1.366 . S
C427 C429 1.388 . S
C428 C427 1.366 . S
C428 C432 1.385 . S
C429 H404 0.951 . S
C429 C427 1.388 . S
C429 C430 1.366 . S
C430 C429 1.366 . S
C430 C431 1.414 . S
C430 C433 1.499 . S
C431 H405 0.950 . S
C431 C430 1.414 . S
C431 C432 1.374 . S
C432 H406 0.950 . S
C432 C428 1.385 . S
C432 C431 1.374 . S
C433 C430 1.499 . S
C433 C434 1.373 . S
C433 C435 1.389 . S
C434 H407 0.950 . S
C434 C420 1.377 . S
C434 C433 1.373 . S
C435 C419 1.377 . S
C435 C433 1.389 . S
C435 C436 1.524 . S
C436 C435 1.524 . S
C436 C437 1.397 . S
C436 C441 1.363 . S
C437 H408 0.950 . S
C437 C436 1.397 . S
C437 C438 1.334 . S
C438 H409 0.950 . S
C438 C437 1.334 . S
C438 C439 1.287 . S
C439 C438 1.287 . S
C439 C440 1.524 . S
C439 H442 0.999 . S
C440 H410 0.950 . S
C440 C439 1.524 . S
C440 C441 1.415 . S
C441 H411 0.950 . S
C441 C436 1.363 . S
C441 C440 1.415 . S
H442 C439 0.999 . S
H443 C424 0.913 . S
H444 C462 0.951 . S
H445 C464 0.951 . S
H446 C466 0.950 . S
H447 C467 0.950 . S
H448 C469 0.950 . S
H449 C472 0.950 . S
H450 C473 0.950 . S
H451 C475 0.950 . S
H452 C476 0.950 . S
H453 C477 0.951 . S
H454 C479 0.951 . S
H455 C481 0.950 . S
H456 C482 0.950 . S
H457 C484 0.950 . S
H458 C487 0.950 . S
H459 C488 0.950 . S
H460 C490 0.950 . S
H461 C491 0.950 . S
C462 H444 0.951 . S
C462 C463 1.366 . S
C462 C464 1.388 . S
C463 C462 1.366 . S
C463 C467 1.385 . S
C464 H445 0.951 . S
C464 C462 1.388 . S
C464 C465 1.366 . S
C465 C464 1.366 . S
C465 C466 1.414 . S
C465 C468 1.499 . S
C466 H446 0.950 . S
C466 C465 1.414 . S
C466 C467 1.374 . S
C467 H447 0.950 . S
C467 C463 1.385 . S
C467 C466 1.374 . S
C468 C465 1.499 . S
C468 C469 1.373 . S
C468 C470 1.389 . S
C469 H448 0.950 . S
C469 C468 1.373 . S
C469 C485 1.377 . S
C470 C468 1.389 . S
C470 C471 1.524 . S
C470 C484 1.377 . S
C471 C470 1.524 . S
C471 C472 1.397 . S
C471 C476 1.363 . S
C472 H449 0.950 . S
C472 C471 1.397 . S
C472 C473 1.334 . S
C473 H450 0.950 . S
C473 C472 1.334 . S
C473 C474 1.287 . S
C474 C473 1.287 . S
C474 C475 1.524 . S
C474 H493 0.913 . S
C475 H451 0.950 . S
C475 C474 1.524 . S
C475 C476 1.415 . S
C476 H452 0.950 . S
C476 C471 1.363 . S
C476 C475 1.415 . S
C477 H453 0.951 . S
C477 C478 1.366 . S
C477 C479 1.388 . S
C478 C477 1.366 . S
C478 C482 1.385 . S
C479 H454 0.951 . S
C479 C477 1.388 . S
C479 C480 1.366 . S
C480 C479 1.366 . S
C480 C481 1.414 . S
C480 C483 1.499 . S
C481 H455 0.950 . S
C481 C480 1.414 . S
C481 C482 1.374 . S
C482 H456 0.950 . S
C482 C478 1.385 . S
C482 C481 1.374 . S
C483 C480 1.499 . S
C483 C484 1.373 . S
C483 C485 1.389 . S
C484 H457 0.950 . S
C484 C470 1.377 . S
C484 C483 1.373 . S
C485 C469 1.377 . S
C485 C483 1.389 . S
C485 C486 1.524 . S
C486 C485 1.524 . S
C486 C487 1.397 . S
C486 C491 1.363 . S
C487 H458 0.950 . S
C487 C486 1.397 . S
C487 C488 1.334 . S
C488 H459 0.950 . S
C488 C487 1.334 . S
C488 C489 1.287 . S
C489 C488 1.287 . S
C489 C490 1.524 . S
C489 H492 0.999 . S
C490 H460 0.950 . S
C490 C489 1.524 . S
C490 C491 1.415 . S
C491 H461 0.950 . S
C491 C486 1.363 . S
C491 C490 1.415 . S
H492 C489 0.999 . S
H493 C474 0.913 . S
H494 C512 0.951 . S
H495 C514 0.951 . S
H496 C516 0.950 . S
H497 C517 0.950 . S
H498 C519 0.950 . S
H499 C522 0.950 . S
H500 C523 0.950 . S
H501 C525 0.950 . S
H502 C526 0.950 . S
H503 C527 0.951 . S
H504 C529 0.951 . S
H505 C531 0.950 . S
H506 C532 0.950 . S
H507 C534 0.950 . S
H508 C537 0.950 . S
H509 C538 0.950 . S
H510 C540 0.950 . S
H511 C541 0.950 . S
C512 H494 0.951 . S
C512 C513 1.366 . S
C512 C514 1.388 . S
C513 C512 1.366 . S
C513 C517 1.385 . S
C514 H495 0.951 . S
C514 C512 1.388 . S
C514 C515 1.366 . S
C515 C514 1.366 . S
C515 C516 1.414 . S
C515 C518 1.499 . S
C516 H496 0.950 . S
C516 C515 1.414 . S
C516 C517 1.374 . S
C517 H497 0.950 . S
C517 C513 1.385 . S
C517 C516 1.374 . S
C518 C515 1.499 . S
C518 C519 1.373 . S
C518 C520 1.389 . S
C519 H498 0.950 . S
C519 C518 1.373 . S
C519 C535 1.377 . S
C520 C518 1.389 . S
C520 C521 1.524 . S
C520 C534 1.377 . S
C521 C520 1.524 . S
C521 C522 1.397 . S
C521 C526 1.363 . S
C522 H499 0.950 . S
C522 C521 1.397 . S
C522 C523 1.334 . S
C523 H500 0.950 . S
C523 C522 1.334 . S
C523 C524 1.287 . S
C524 C523 1.287 . S
C524 C525 1.524 . S
C524 H543 0.913 . S
C525 H501 0.950 . S
C525 C524 1.524 . S
C525 C526 1.415 . S
C526 H502 0.950 . S
C526 C521 1.363 . S
C526 C525 1.415 . S
C527 H503 0.951 . S
C527 C528 1.366 . S
C527 C529 1.388 . S
C528 C527 1.366 . S
C528 C532 1.385 . S
C529 H504 0.951 . S
C529 C527 1.388 . S
C529 C530 1.366 . S
C530 C529 1.366 . S
C530 C531 1.414 . S
C530 C533 1.499 . S
C531 H505 0.950 . S
C531 C530 1.414 . S
C531 C532 1.374 . S
C532 H506 0.950 . S
C532 C528 1.385 . S
C532 C531 1.374 . S
C533 C530 1.499 . S
C533 C534 1.373 . S
C533 C535 1.389 . S
C534 H507 0.950 . S
C534 C520 1.377 . S
C534 C533 1.373 . S
C535 C519 1.377 . S
C535 C533 1.389 . S
C535 C536 1.524 . S
C536 C535 1.524 . S
C536 C537 1.397 . S
C536 C541 1.363 . S
C537 H508 0.950 . S
C537 C536 1.397 . S
C537 C538 1.334 . S
C538 H509 0.950 . S
C538 C537 1.334 . S
C538 C539 1.287 . S
C539 C538 1.287 . S
C539 C540 1.524 . S
C539 H542 0.999 . S
C540 H510 0.950 . S
C540 C539 1.524 . S
C540 C541 1.415 . S
C541 H511 0.950 . S
C541 C536 1.363 . S
C541 C540 1.415 . S
H542 C539 0.999 . S
H543 C524 0.913 . S
H544 C562 0.951 . S
H545 C564 0.951 . S
H546 C566 0.950 . S
H547 C567 0.950 . S
H548 C569 0.950 . S
H549 C572 0.950 . S
H550 C573 0.950 . S
H551 C575 0.950 . S
H552 C576 0.950 . S
H553 C577 0.951 . S
H554 C579 0.951 . S
H555 C581 0.950 . S
H556 C582 0.950 . S
H557 C584 0.950 . S
H558 C587 0.950 . S
H559 C588 0.950 . S
H560 C590 0.950 . S
H561 C591 0.950 . S
C562 H544 0.951 . S
C562 C563 1.366 . S
C562 C564 1.388 . S
C563 C562 1.366 . S
C563 C567 1.385 . S
C564 H545 0.951 . S
C564 C562 1.388 . S
C564 C565 1.366 . S
C565 C564 1.366 . S
C565 C566 1.414 . S
C565 C568 1.499 . S
C566 H546 0.950 . S
C566 C565 1.414 . S
C566 C567 1.374 . S
C567 H547 0.950 . S
C567 C563 1.385 . S
C567 C566 1.374 . S
C568 C565 1.499 . S
C568 C569 1.373 . S
C568 C570 1.389 . S
C569 H548 0.950 . S
C569 C568 1.373 . S
C569 C585 1.377 . S
C570 C568 1.389 . S
C570 C571 1.524 . S
C570 C584 1.377 . S
C571 C570 1.524 . S
C571 C572 1.397 . S
C571 C576 1.363 . S
C572 H549 0.950 . S
C572 C571 1.397 . S
C572 C573 1.334 . S
C573 H550 0.950 . S
C573 C572 1.334 . S
C573 C574 1.287 . S
C574 C573 1.287 . S
C574 C575 1.524 . S
C574 H593 0.913 . S
C575 H551 0.950 . S
C575 C574 1.524 . S
C575 C576 1.415 . S
C576 H552 0.950 . S
C576 C571 1.363 . S
C576 C575 1.415 . S
C577 H553 0.951 . S
C577 C578 1.366 . S
C577 C579 1.388 . S
C578 C577 1.366 . S
C578 C582 1.385 . S
C579 H554 0.951 . S
C579 C577 1.388 . S
C579 C580 1.366 . S
C580 C579 1.366 . S
C580 C581 1.414 . S
C580 C583 1.499 . S
C581 H555 0.950 . S
C581 C580 1.414 . S
C581 C582 1.374 . S
C582 H556 0.950 . S
C582 C578 1.385 . S
C582 C581 1.374 . S
C583 C580 1.499 . S
C583 C584 1.373 . S
C583 C585 1.389 . S
C584 H557 0.950 . S
C584 C570 1.377 . S
C584 C583 1.373 . S
C585 C569 1.377 . S
C585 C583 1.389 . S
C585 C586 1.524 . S
C586 C585 1.524 . S
C586 C587 1.397 . S
C586 C591 1.363 . S
C587 H558 0.950 . S
C587 C586 1.397 . S
C587 C588 1.334 . S
C588 H559 0.950 . S
C588 C587 1.334 . S
C588 C589 1.287 . S
C589 C588 1.287 . S
C589 C590 1.524 . S
C589 H592 0.999 . S
C590 H560 0.950 . S
C590 C589 1.524 . S
C590 C591 1.415 . S
C591 H561 0.950 . S
C591 C586 1.363 . S
C591 C590 1.415 . S
H592 C589 0.999 . S
H593 C574 0.913 . S
H594 C612 0.951 . S
H595 C614 0.951 . S
H596 C616 0.950 . S
H597 C617 0.950 . S
H598 C619 0.950 . S
H599 C622 0.950 . S
H600 C623 0.950 . S
H601 C625 0.950 . S
H602 C626 0.950 . S
H603 C627 0.951 . S
H604 C629 0.951 . S
H605 C631 0.950 . S
H606 C632 0.950 . S
H607 C634 0.950 . S
H608 C637 0.950 . S
H609 C638 0.950 . S
H610 C640 0.950 . S
H611 C641 0.950 . S
C612 H594 0.951 . S
C612 C613 1.366 . S
C612 C614 1.388 . S
C613 C612 1.366 . S
C613 C617 1.385 . S
C614 H595 0.951 . S
C614 C612 1.388 . S
C614 C615 1.366 . S
C615 C614 1.366 . S
C615 C616 1.414 . S
C615 C618 1.499 . S
C616 H596 0.950 . S
C616 C615 1.414 . S
C616 C617 1.374 . S
C617 H597 0.950 . S
C617 C613 1.385 . S
C617 C616 1.374 . S
C618 C615 1.499 . S
C618 C619 1.373 . S
C618 C620 1.389 . S
C619 H598 0.950 . S
C619 C618 1.373 . S
C619 C635 1.377 . S
C620 C618 1.389 . S
C620 C621 1.524 . S
C620 C634 1.377 . S
C621 C620 1.524 . S
C621 C622 1.397 . S
C621 C626 1.363 . S
C622 H599 0.950 . S
C622 C621 1.397 . S
C622 C623 1.334 . S
C623 H600 0.950 . S
C623 C622 1.334 . S
C623 C624 1.287 . S
C624 C623 1.287 . S
C624 C625 1.524 . S
C624 H643 0.913 . S
C625 H601 0.950 . S
C625 C624 1.524 . S
C625 C626 1.415 . S
C626 H602 0.950 . S
C626 C621 1.363 . S
C626 C625 1.415 . S
C627 H603 0.951 . S
C627 C628 1.366 . S
C627 C629 1.388 . S
C628 C627 1.366 . S
C628 C632 1.385 . S
C629 H604 0.951 . S
C629 C627 1.388 . S
C629 C630 1.366 . S
C630 C629 1.366 . S
C630 C631 1.414 . S
C630 C633 1.499 . S
C631 H605 0.950 . S
C631 C630 1.414 . S
C631 C632 1.374 . S
C632 H606 0.950 . S
C632 C628 1.385 . S
C632 C631 1.374 . S
C633 C630 1.499 . S
C633 C634 1.373 . S
C633 C635 1.389 . S
C634 H607 0.950 . S
C634 C620 1.377 . S
C634 C633 1.373 . S
C635 C619 1.377 . S
C635 C633 1.389 . S
C635 C636 1.524 . S
C636 C635 1.524 . S
C636 C637 1.397 . S
C636 C641 1.363 . S
C637 H608 0.950 . S
C637 C636 1.397 . S
C637 C638 1.334 . S
C638 H609 0.950 . S
C638 C637 1.334 . S
C638 C639 1.287 . S
C639 C638 1.287 . S
C639 C640 1.524 . S
C639 H642 0.999 . S
C640 H610 0.950 . S
C640 C639 1.524 . S
C640 C641 1.415 . S
C641 H611 0.950 . S
C641 C636 1.363 . S
C641 C640 1.415 . S
H642 C639 0.999 . S
H643 C624 0.913 . S
H644 C662 0.951 . S
H645 C664 0.951 . S
H646 C666 0.950 . S
H647 C667 0.950 . S
H648 C669 0.950 . S
H649 C672 0.950 . S
H650 C673 0.950 . S
H651 C675 0.950 . S
H652 C676 0.950 . S
H653 C677 0.951 . S
H654 C679 0.951 . S
H655 C681 0.950 . S
H656 C682 0.950 . S
H657 C684 0.950 . S
H658 C687 0.950 . S
H659 C688 0.950 . S
H660 C690 0.950 . S
H661 C691 0.950 . S
C662 H644 0.951 . S
C662 C663 1.366 . S
C662 C664 1.388 . S
C663 C662 1.366 . S
C663 C667 1.385 . S
C664 H645 0.951 . S
C664 C662 1.388 . S
C664 C665 1.366 . S
C665 C664 1.366 . S
C665 C666 1.414 . S
C665 C668 1.499 . S
C666 H646 0.950 . S
C666 C665 1.414 . S
C666 C667 1.374 . S
C667 H647 0.950 . S
C667 C663 1.385 . S
C667 C666 1.374 . S
C668 C665 1.499 . S
C668 C669 1.373 . S
C668 C670 1.389 . S
C669 H648 0.950 . S
C669 C668 1.373 . S
C669 C685 1.377 . S
C670 C668 1.389 . S
C670 C671 1.524 . S
C670 C684 1.377 . S
C671 C670 1.524 . S
C671 C672 1.397 . S
C671 C676 1.363 . S
C672 H649 0.950 . S
C672 C671 1.397 . S
C672 C673 1.334 . S
C673 H650 0.950 . S
C673 C672 1.334 . S
C673 C674 1.287 . S
C674 C673 1.287 . S
C674 C675 1.524 . S
C674 H693 0.913 . S
C675 H651 0.950 . S
C675 C674 1.524 . S
C675 C676 1.415 . S
C676 H652 0.950 . S
C676 C671 1.363 . S
C676 C675 1.415 . S
C677 H653 0.951 . S
C677 C678 1.366 . S
C677 C679 1.388 . S
C678 C677 1.366 . S
C678 C682 1.385 . S
C679 H654 0.951 . S
C679 C677 1.388 . S
C679 C680 1.366 . S
C680 C679 1.366 . S
C680 C681 1.414 . S
C680 C683 1.499 . S
C681 H655 0.950 . S
C681 C680 1.414 . S
C681 C682 1.374 . S
C682 H656 0.950 . S
C682 C678 1.385 . S
C682 C681 1.374 . S
C683 C680 1.499 . S
C683 C684 1.373 . S
C683 C685 1.389 . S
C684 H657 0.950 . S
C684 C670 1.377 . S
C684 C683 1.373 . S
C685 C669 1.377 . S
C685 C683 1.389 . S
C685 C686 1.524 . S
C686 C685 1.524 . S
C686 C687 1.397 . S
C686 C691 1.363 . S
C687 H658 0.950 . S
C687 C686 1.397 . S
C687 C688 1.334 . S
C688 H659 0.950 . S
C688 C687 1.334 . S
C688 C689 1.287 . S
C689 C688 1.287 . S
C689 C690 1.524 . S
C689 H692 0.999 . S
C690 H660 0.950 . S
C690 C689 1.524 . S
C690 C691 1.415 . S
C691 H661 0.950 . S
C691 C686 1.363 . S
C691 C690 1.415 . S
H692 C689 0.999 . S
H693 C674 0.913 . S
H694 C712 0.951 . S
H695 C714 0.951 . S
H696 C716 0.950 . S
H697 C717 0.950 . S
H698 C719 0.950 . S
H699 C722 0.950 . S
H700 C723 0.950 . S
H701 C725 0.950 . S
H702 C726 0.950 . S
H703 C727 0.951 . S
H704 C729 0.951 . S
H705 C731 0.950 . S
H706 C732 0.950 . S
H707 C734 0.950 . S
H708 C737 0.950 . S
H709 C738 0.950 . S
H710 C740 0.950 . S
H711 C741 0.950 . S
C712 H694 0.951 . S
C712 C713 1.366 . S
C712 C714 1.388 . S
C713 C712 1.366 . S
C713 C717 1.385 . S
C714 H695 0.951 . S
C714 C712 1.388 . S
C714 C715 1.366 . S
C715 C714 1.366 . S
C715 C716 1.414 . S
C715 C718 1.499 . S
C716 H696 0.950 . S
C716 C715 1.414 . S
C716 C717 1.374 . S
C717 H697 0.950 . S
C717 C713 1.385 . S
C717 C716 1.374 . S
C718 C715 1.499 . S
C718 C719 1.373 . S
C718 C720 1.389 . S
C719 H698 0.950 . S
C719 C718 1.373 . S
C719 C735 1.377 . S
C720 C718 1.389 . S
C720 C721 1.524 . S
C720 C734 1.377 . S
C721 C720 1.524 . S
C721 C722 1.397 . S
C721 C726 1.363 . S
C722 H699 0.950 . S
C722 C721 1.397 . S
C722 C723 1.334 . S
C723 H700 0.950 . S
C723 C722 1.334 . S
C723 C724 1.287 . S
C724 C723 1.287 . S
C724 C725 1.524 . S
C724 H743 0.913 . S
C725 H701 0.950 . S
C725 C724 1.524 . S
C725 C726 1.415 . S
C726 H702 0.950 . S
C726 C721 1.363 . S
C726 C725 1.415 . S
C727 H703 0.951 . S
C727 C728 1.366 . S
C727 C729 1.388 . S
C728 C727 1.366 . S
C728 C732 1.385 . S
C729 H704 0.951 . S
C729 C727 1.388 . S
C729 C730 1.366 . S
C730 C729 1.366 . S
C730 C731 1.414 . S
C730 C733 1.499 . S
C731 H705 0.950 . S
C731 C730 1.414 . S
C731 C732 1.374 . S
C732 H706 0.950 . S
C732 C728 1.385 . S
C732 C731 1.374 . S
C733 C730 1.499 . S
C733 C734 1.373 . S
C733 C735 1.389 . S
C734 H707 0.950 . S
C734 C720 1.377 . S
C734 C733 1.373 . S
C735 C719 1.377 . S
C735 C733 1.389 . S
C735 C736 1.524 . S
C736 C735 1.524 . S
C736 C737 1.397 . S
C736 C741 1.363 . S
C737 H708 0.950 . S
C737 C736 1.397 . S
C737 C738 1.334 . S
C738 H709 0.950 . S
C738 C737 1.334 . S
C738 C739 1.287 . S
C739 C738 1.287 . S
C739 C740 1.524 . S
C739 H742 0.999 . S
C740 H710 0.950 . S
C740 C739 1.524 . S
C740 C741 1.415 . S
C741 H711 0.950 . S
C741 C736 1.363 . S
C741 C740 1.415 . S
H742 C739 0.999 . S
H743 C724 0.913 . S
H744 C762 0.951 . S
H745 C764 0.951 . S
H746 C766 0.950 . S
H747 C767 0.950 . S
H748 C769 0.950 . S
H749 C772 0.950 . S
H750 C773 0.950 . S
H751 C775 0.950 . S
H752 C776 0.950 . S
H753 C777 0.951 . S
H754 C779 0.951 . S
H755 C781 0.950 . S
H756 C782 0.950 . S
H757 C784 0.950 . S
H758 C787 0.950 . S
H759 C788 0.950 . S
H760 C790 0.950 . S
H761 C791 0.950 . S
C762 H744 0.951 . S
C762 C763 1.366 . S
C762 C764 1.388 . S
C763 C762 1.366 . S
C763 C767 1.385 . S
C764 H745 0.951 . S
C764 C762 1.388 . S
C764 C765 1.366 . S
C765 C764 1.366 . S
C765 C766 1.414 . S
C765 C768 1.499 . S
C766 H746 0.950 . S
C766 C765 1.414 . S
C766 C767 1.374 . S
C767 H747 0.950 . S
C767 C763 1.385 . S
C767 C766 1.374 . S
C768 C765 1.499 . S
C768 C769 1.373 . S
C768 C770 1.389 . S
C769 H748 0.950 . S
C769 C768 1.373 . S
C769 C785 1.377 . S
C770 C768 1.389 . S
C770 C771 1.524 . S
C770 C784 1.377 . S
C771 C770 1.524 . S
C771 C772 1.397 . S
C771 C776 1.363 . S
C772 H749 0.950 . S
C772 C771 1.397 . S
C772 C773 1.334 . S
C773 H750 0.950 . S
C773 C772 1.334 . S
C773 C774 1.287 . S
C774 C773 1.287 . S
C774 C775 1.524 . S
C774 H793 0.913 . S
C775 H751 0.950 . S
C775 C774 1.524 . S
C775 C776 1.415 . S
C776 H752 0.950 . S
C776 C771 1.363 . S
C776 C775 1.415 . S
C777 H753 0.951 . S
C777 C778 1.366 . S
C777 C779 1.388 . S
C778 C777 1.366 . S
C778 C782 1.385 . S
C779 H754 0.951 . S
C779 C777 1.388 . S
C779 C780 1.366 . S
C780 C779 1.366 . S
C780 C781 1.414 . S
C780 C783 1.499 . S
C781 H755 0.950 . S
C781 C780 1.414 . S
C781 C782 1.374 . S
C782 H756 0.950 . S
C782 C778 1.385 . S
C782 C781 1.374 . S
C783 C780 1.499 . S
C783 C784 1.373 . S
C783 C785 1.389 . S
C784 H757 0.950 . S
C784 C770 1.377 . S
C784 C783 1.373 . S
C785 C769 1.377 . S
C785 C783 1.389 . S
C785 C786 1.524 . S
C786 C785 1.524 . S
C786 C787 1.397 . S
C786 C791 1.363 . S
C787 H758 0.950 . S
C787 C786 1.397 . S
C787 C788 1.334 . S
C788 H759 0.950 . S
C788 C787 1.334 . S
C788 C789 1.287 . S
C789 C788 1.287 . S
C789 C790 1.524 . S
C789 H792 0.999 . S
C790 H760 0.950 . S
C790 C789 1.524 . S
C790 C791 1.415 . S
C791 H761 0.950 . S
C791 C786 1.363 . S
C791 C790 1.415 . S
H792 C789 0.999 . S
H793 C774 0.913 . S
H794 C812 0.951 . S
H795 C814 0.951 . S
H796 C816 0.950 . S
H797 C817 0.950 . S
H798 C819 0.950 . S
H799 C822 0.950 . S
H800 C823 0.950 . S
H801 C825 0.950 . S
H802 C826 0.950 . S
H803 C827 0.951 . S
H804 C829 0.951 . S
H805 C831 0.950 . S
H806 C832 0.950 . S
H807 C834 0.950 . S
H808 C837 0.950 . S
H809 C838 0.950 . S
H810 C840 0.950 . S
H811 C841 0.950 . S
C812 H794 0.951 . S
C812 C813 1.366 . S
C812 C814 1.388 . S
C813 C812 1.366 . S
C813 C817 1.385 . S
C814 H795 0.951 . S
C814 C812 1.388 . S
C814 C815 1.366 . S
C815 C814 1.366 . S
C815 C816 1.414 . S
C815 C818 1.499 . S
C816 H796 0.950 . S
C816 C815 1.414 . S
C816 C817 1.374 . S
C817 H797 0.950 . S
C817 C813 1.385 . S
C817 C816 1.374 . S
C818 C815 1.499 . S
C818 C819 1.373 . S
C818 C820 1.389 . S
C819 H798 0.950 . S
C819 C818 1.373 . S
C819 C835 1.377 . S
C820 C818 1.389 . S
C820 C821 1.524 . S
C820 C834 1.377 . S
C821 C820 1.524 . S
C821 C822 1.397 . S
C821 C826 1.363 . S
C822 H799 0.950 . S
C822 C821 1.397 . S
C822 C823 1.334 . S
C823 H800 0.950 . S
C823 C822 1.334 . S
C823 C824 1.287 . S
C824 C823 1.287 . S
C824 C825 1.524 . S
C824 H843 0.913 . S
C825 H801 0.950 . S
C825 C824 1.524 . S
C825 C826 1.415 . S
C826 H802 0.950 . S
C826 C821 1.363 . S
C826 C825 1.415 . S
C827 H803 0.951 . S
C827 C828 1.366 . S
C827 C829 1.388 . S
C828 C827 1.366 . S
C828 C832 1.385 . S
C829 H804 0.951 . S
C829 C827 1.388 . S
C829 C830 1.366 . S
C830 C829 1.366 . S
C830 C831 1.414 . S
C830 C833 1.499 . S
C831 H805 0.950 . S
C831 C830 1.414 . S
C831 C832 1.374 . S
C832 H806 0.950 . S
C832 C828 1.385 . S
C832 C831 1.374 . S
C833 C830 1.499 . S
C833 C834 1.373 . S
C833 C835 1.389 . S
C834 H807 0.950 . S
C834 C820 1.377 . S
C834 C833 1.373 . S
C835 C819 1.377 . S
C835 C833 1.389 . S
C835 C836 1.524 . S
C836 C835 1.524 . S
C836 C837 1.397 . S
C836 C841 1.363 . S
C837 H808 0.950 . S
C837 C836 1.397 . S
C837 C838 1.334 . S
C838 H809 0.950 . S
C838 C837 1.334 . S
C838 C839 1.287 . S
C839 C838 1.287 . S
C839 C840 1.524 . S
C839 H842 0.999 . S
C840 H810 0.950 . S
C840 C839 1.524 . S
C840 C841 1.415 . S
C841 H811 0.950 . S
C841 C836 1.363 . S
C841 C840 1.415 . S
H842 C839 0.999 . S
H843 C824 0.913 . S
H844 C862 0.951 . S
H845 C864 0.951 . S
H846 C866 0.950 . S
H847 C867 0.950 . S
H848 C869 0.950 . S
H849 C872 0.950 . S
H850 C873 0.950 . S
H851 C875 0.950 . S
H852 C876 0.950 . S
H853 C877 0.951 . S
H854 C879 0.951 . S
H855 C881 0.950 . S
H856 C882 0.950 . S
H857 C884 0.950 . S
H858 C887 0.950 . S
H859 C888 0.950 . S
H860 C890 0.950 . S
H861 C891 0.950 . S
C862 H844 0.951 . S
C862 C863 1.366 . S
C862 C864 1.388 . S
C863 C862 1.366 . S
C863 C867 1.385 . S
C864 H845 0.951 . S
C864 C862 1.388 . S
C864 C865 1.366 . S
C865 C864 1.366 . S
C865 C866 1.414 . S
C865 C868 1.499 . S
C866 H846 0.950 . S
C866 C865 1.414 . S
C866 C867 1.374 . S
C867 H847 0.950 . S
C867 C863 1.385 . S
C867 C866 1.374 . S
C868 C865 1.499 . S
C868 C869 1.373 . S
C868 C870 1.389 . S
C869 H848 0.950 . S
C869 C868 1.373 . S
C869 C885 1.377 . S
C870 C868 1.389 . S
C870 C871 1.524 . S
C870 C884 1.377 . S
C871 C870 1.524 . S
C871 C872 1.397 . S
C871 C876 1.363 . S
C872 H849 0.950 . S
C872 C871 1.397 . S
C872 C873 1.334 . S
C873 H850 0.950 . S
C873 C872 1.334 . S
C873 C874 1.287 . S
C874 C873 1.287 . S
C874 C875 1.524 . S
C874 H893 0.913 . S
C875 H851 0.950 . S
C875 C874 1.524 . S
C875 C876 1.415 . S
C876 H852 0.950 . S
C876 C871 1.363 . S
C876 C875 1.415 . S
C877 H853 0.951 . S
C877 C878 1.366 . S
C877 C879 1.388 . S
C878 C877 1.366 . S
C878 C882 1.385 . S
C879 H854 0.951 . S
C879 C877 1.388 . S
C879 C880 1.366 . S
C880 C879 1.366 . S
C880 C881 1.414 . S
C880 C883 1.499 . S
C881 H855 0.950 . S
C881 C880 1.414 . S
C881 C882 1.374 . S
C882 H856 0.950 . S
C882 C878 1.385 . S
C882 C881 1.374 . S
C883 C880 1.499 . S
C883 C884 1.373 . S
C883 C885 1.389 . S
C884 H857 0.950 . S
C884 C870 1.377 . S
C884 C883 1.373 . S
C885 C869 1.377 . S
C885 C883 1.389 . S
C885 C886 1.524 . S
C886 C885 1.524 . S
C886 C887 1.397 . S
C886 C891 1.363 . S
C887 H858 0.950 . S
C887 C886 1.397 . S
C887 C888 1.334 . S
C888 H859 0.950 . S
C888 C887 1.334 . S
C888 C889 1.287 . S
C889 C888 1.287 . S
C889 C890 1.524 . S
C889 H892 0.999 . S
C890 H860 0.950 . S
C890 C889 1.524 . S
C890 C891 1.415 . S
C891 H861 0.950 . S
C891 C886 1.363 . S
C891 C890 1.415 . S
H892 C889 0.999 . S
H893 C874 0.913 . S
H894 C912 0.951 . S
H895 C914 0.951 . S
H896 C916 0.950 . S
H897 C917 0.950 . S
H898 C919 0.950 . S
H899 C922 0.950 . S
H900 C923 0.950 . S
H901 C925 0.950 . S
H902 C926 0.950 . S
H903 C927 0.951 . S
H904 C929 0.951 . S
H905 C931 0.954 . S
H906 C932 0.950 . S
H907 C934 0.950 . S
H908 C937 0.947 . S
H909 C938 0.950 . S
H910 C940 0.950 . S
H911 C941 0.950 . S
C912 H894 0.951 . S
C912 C913 1.366 . S
C912 C914 1.388 . S
C913 C912 1.366 . S
C913 C917 1.385 . S
C914 H895 0.951 . S
C914 C912 1.388 . S
C914 C915 1.366 . S
C915 C914 1.366 . S
C915 C916 1.414 . S
C915 C918 1.499 . S
C916 H896 0.950 . S
C916 C915 1.414 . S
C916 C917 1.374 . S
C917 H897 0.950 . S
C917 C913 1.385 . S
C917 C916 1.374 . S
C918 C915 1.499 . S
C918 C919 1.373 . S
C918 C920 1.389 . S
C919 H898 0.950 . S
C919 C918 1.373 . S
C919 C935 1.377 . S
C920 C918 1.389 . S
C920 C921 1.524 . S
C920 C934 1.377 . S
C921 C920 1.524 . S
C921 C922 1.397 . S
C921 C926 1.363 . S
C922 H899 0.950 . S
C922 C921 1.397 . S
C922 C923 1.334 . S
C923 H900 0.950 . S
C923 C922 1.334 . S
C923 C924 1.287 . S
C924 C923 1.287 . S
C924 C925 1.524 . S
C924 H943 0.913 . S
C925 H901 0.950 . S
C925 C924 1.524 . S
C925 C926 1.415 . S
C926 H902 0.950 . S
C926 C921 1.363 . S
C926 C925 1.415 . S
C927 H903 0.951 . S
C927 C928 1.366 . S
C927 C929 1.388 1_556 S
C928 C927 1.366 . S
C928 C932 1.385 . S
C929 H904 0.951 . S
C929 C927 1.388 1_554 S
C929 C930 1.366 . S
C930 C929 1.366 . S
C930 C931 1.414 1_554 S
C930 C933 1.499 . S
C931 H905 0.954 . S
C931 C930 1.414 1_556 S
C931 C932 1.374 . S
C932 H906 0.950 . S
C932 C928 1.385 . S
C932 C931 1.374 . S
C933 C930 1.499 . S
C933 C934 1.373 . S
C933 C935 1.389 . S
C934 H907 0.950 . S
C934 C920 1.377 . S
C934 C933 1.373 . S
C935 C919 1.377 . S
C935 C933 1.389 . S
C935 C936 1.524 . S
C936 C935 1.524 . S
C936 C937 1.390 1_455 S
C936 C941 1.363 . S
C937 H908 0.947 . S
C937 C936 1.390 1_655 S
C937 C938 1.343 . S
C938 H909 0.950 . S
C938 C937 1.343 . S
C938 C939 1.287 . S
C939 C938 1.287 . S
C939 C940 1.524 1_655 S
C939 H942 0.999 . S
C940 H910 0.950 . S
C940 C939 1.524 1_455 S
C940 C941 1.415 . S
C941 H911 0.950 . S
C941 C936 1.363 . S
C941 C940 1.415 . S
H942 C939 0.999 . S
H943 C924 0.913 . S
H944 C962 0.951 . S
H945 C964 0.951 . S
H946 C966 0.950 . S
H947 C967 0.950 . S
H948 C969 0.950 . S
H949 C972 0.950 . S
H950 C973 0.950 . S
H951 C975 0.950 . S
H952 C976 0.950 . S
H953 C977 0.951 . S
H954 C979 0.951 . S
H955 C981 0.950 . S
H956 C982 0.950 . S
H957 C984 0.950 . S
H958 C987 0.950 . S
H959 C988 0.950 . S
H960 C990 0.950 . S
H961 C991 0.950 . S
C962 H944 0.951 . S
C962 C963 1.366 . S
C962 C964 1.388 . S
C963 C962 1.366 . S
C963 C967 1.385 . S
C964 H945 0.951 . S
C964 C962 1.388 . S
C964 C965 1.366 . S
C965 C964 1.366 . S
C965 C966 1.414 . S
C965 C968 1.499 . S
C966 H946 0.950 . S
C966 C965 1.414 . S
C966 C967 1.374 . S
C967 H947 0.950 . S
C967 C963 1.385 . S
C967 C966 1.374 . S
C968 C965 1.499 . S
C968 C969 1.373 . S
C968 C970 1.389 . S
C969 H948 0.950 . S
C969 C968 1.373 . S
C969 C985 1.377 . S
C970 C968 1.389 . S
C970 C971 1.524 1_545 S
C970 C984 1.377 . S
C971 C970 1.524 1_565 S
C971 C972 1.397 . S
C971 C976 1.363 . S
C972 H949 0.950 . S
C972 C971 1.397 . S
C972 C973 1.334 . S
C973 H950 0.950 . S
C973 C972 1.334 . S
C973 C974 1.287 . S
C974 C973 1.287 . S
C974 C975 1.524 . S
C974 H993 0.913 . S
C975 H951 0.950 . S
C975 C974 1.524 . S
C975 C976 1.415 . S
C976 H952 0.950 . S
C976 C971 1.363 . S
C976 C975 1.415 . S
C977 H953 0.951 . S
C977 C978 1.366 . S
C977 C979 1.388 . S
C978 C977 1.366 . S
C978 C982 1.385 . S
C979 H954 0.951 . S
C979 C977 1.388 . S
C979 C980 1.366 . S
C980 C979 1.366 . S
C980 C981 1.414 . S
C980 C983 1.499 . S
C981 H955 0.950 . S
C981 C980 1.414 . S
C981 C982 1.374 . S
C982 H956 0.950 . S
C982 C978 1.385 . S
C982 C981 1.374 . S
C983 C980 1.499 . S
C983 C984 1.373 . S
C983 C985 1.389 . S
C984 H957 0.950 . S
C984 C970 1.377 . S
C984 C983 1.373 . S
C985 C969 1.377 . S
C985 C983 1.389 . S
C985 C986 1.524 . S
C986 C985 1.524 . S
C986 C987 1.397 . S
C986 C991 1.363 . S
C987 H958 0.950 . S
C987 C986 1.397 . S
C987 C988 1.334 . S
C988 H959 0.950 . S
C988 C987 1.334 . S
C988 C989 1.287 . S
C989 C988 1.287 . S
C989 C990 1.524 . S
C989 H992 0.999 . S
C990 H960 0.950 . S
C990 C989 1.524 . S
C990 C991 1.415 . S
C991 H961 0.950 . S
C991 C986 1.363 . S
C991 C990 1.415 . S
H992 C989 0.999 . S
H993 C974 0.913 . S
H994 C1012 0.951 . S
H995 C1014 0.951 . S
H996 C1016 0.950 . S
H997 C1017 0.950 . S
H998 C1019 0.950 . S
H999 C1022 0.950 . S
H1000 C1023 0.950 . S
H1001 C1025 0.950 . S
H1002 C1026 0.950 . S
H1003 C1027 0.951 . S
H1004 C1029 0.951 . S
H1005 C1031 0.950 . S
H1006 C1032 0.950 . S
H1007 C1034 0.950 . S
H1008 C1037 0.950 . S
H1009 C1038 0.950 . S
H1010 C1040 0.950 . S
H1011 C1041 0.950 . S
C1012 H994 0.951 . S
C1012 C1013 1.366 . S
C1012 C1014 1.388 . S
C1013 C1012 1.366 . S
C1013 C1017 1.385 . S
C1014 H995 0.951 . S
C1014 C1012 1.388 . S
C1014 C1015 1.366 . S
C1015 C1014 1.366 . S
C1015 C1016 1.414 . S
C1015 C1018 1.499 . S
C1016 H996 0.950 . S
C1016 C1015 1.414 . S
C1016 C1017 1.374 . S
C1017 H997 0.950 . S
C1017 C1013 1.385 . S
C1017 C1016 1.374 . S
C1018 C1015 1.499 . S
C1018 C1019 1.373 . S
C1018 C1020 1.389 . S
C1019 H998 0.950 . S
C1019 C1018 1.373 . S
C1019 C1035 1.377 . S
C1020 C1018 1.389 . S
C1020 C1021 1.524 . S
C1020 C1034 1.377 . S
C1021 C1020 1.524 . S
C1021 C1022 1.397 . S
C1021 C1026 1.363 . S
C1022 H999 0.950 . S
C1022 C1021 1.397 . S
C1022 C1023 1.334 . S
C1023 H1000 0.950 . S
C1023 C1022 1.334 . S
C1023 C1024 1.287 . S
C1024 C1023 1.287 . S
C1024 C1025 1.524 . S
C1024 H1043 0.913 . S
C1025 H1001 0.950 . S
C1025 C1024 1.524 . S
C1025 C1026 1.415 . S
C1026 H1002 0.950 . S
C1026 C1021 1.363 . S
C1026 C1025 1.415 . S
C1027 H1003 0.951 . S
C1027 C1028 1.366 . S
C1027 C1029 1.388 . S
C1028 C1027 1.366 . S
C1028 C1032 1.385 . S
C1029 H1004 0.951 . S
C1029 C1027 1.388 . S
C1029 C1030 1.366 . S
C1030 C1029 1.366 . S
C1030 C1031 1.414 . S
C1030 C1033 1.499 . S
C1031 H1005 0.950 . S
C1031 C1030 1.414 . S
C1031 C1032 1.374 . S
C1032 H1006 0.950 . S
C1032 C1028 1.385 . S
C1032 C1031 1.374 . S
C1033 C1030 1.499 . S
C1033 C1034 1.373 . S
C1033 C1035 1.389 . S
C1034 H1007 0.950 . S
C1034 C1020 1.377 . S
C1034 C1033 1.373 . S
C1035 C1019 1.377 . S
C1035 C1033 1.389 . S
C1035 C1036 1.524 . S
C1036 C1035 1.524 . S
C1036 C1037 1.397 . S
C1036 C1041 1.363 . S
C1037 H1008 0.950 . S
C1037 C1036 1.397 . S
C1037 C1038 1.334 . S
C1038 H1009 0.950 . S
C1038 C1037 1.334 . S
C1038 C1039 1.287 . S
C1039 C1038 1.287 . S
C1039 C1040 1.524 . S
C1039 H1042 0.999 . S
C1040 H1010 0.950 . S
C1040 C1039 1.524 . S
C1040 C1041 1.415 . S
C1041 H1011 0.950 . S
C1041 C1036 1.363 . S
C1041 C1040 1.415 . S
H1042 C1039 0.999 . S
H1043 C1024 0.913 . S
H1044 C1062 0.951 . S
H1045 C1064 0.951 . S
H1046 C1066 0.950 1_565 S
H1047 C1067 0.950 1_565 S
H1048 C1069 0.950 . S
H1049 C1072 0.950 . S
H1050 C1073 0.950 . S
H1051 C1075 0.950 . S
H1052 C1076 0.950 . S
H1053 C1077 0.951 . S
H1054 C1079 0.951 . S
H1055 C1081 0.950 . S
H1056 C1082 0.950 . S
H1057 C1084 0.950 . S
H1058 C1087 0.950 . S
H1059 C1088 0.950 . S
H1060 C1090 0.950 . S
H1061 C1091 0.950 1_565 S
C1062 H1044 0.951 . S
C1062 C1063 1.366 . S
C1062 C1064 1.388 . S
C1063 C1062 1.366 . S
C1063 C1067 1.385 . S
C1064 H1045 0.951 . S
C1064 C1062 1.388 . S
C1064 C1065 1.366 . S
C1065 C1064 1.366 . S
C1065 C1066 1.414 . S
C1065 C1068 1.499 . S
C1066 H1046 0.950 1_545 S
C1066 C1065 1.414 . S
C1066 C1067 1.374 . S
C1067 H1047 0.950 1_545 S
C1067 C1063 1.385 . S
C1067 C1066 1.374 . S
C1068 C1065 1.499 . S
C1068 C1069 1.373 . S
C1068 C1070 1.389 . S
C1069 H1048 0.950 . S
C1069 C1068 1.373 . S
C1069 C1085 1.377 . S
C1070 C1068 1.389 . S
C1070 C1071 1.524 . S
C1070 C1084 1.377 . S
C1071 C1070 1.524 . S
C1071 C1072 1.397 1_545 S
C1071 C1076 1.363 . S
C1072 H1049 0.950 . S
C1072 C1071 1.397 1_565 S
C1072 C1073 1.334 . S
C1073 H1050 0.950 . S
C1073 C1072 1.334 . S
C1073 C1074 1.287 . S
C1074 C1073 1.287 . S
C1074 C1075 1.524 1_565 S
C1074 H1093 0.913 . S
C1075 H1051 0.950 . S
C1075 C1074 1.524 1_545 S
C1075 C1076 1.415 . S
C1076 H1052 0.950 . S
C1076 C1071 1.363 . S
C1076 C1075 1.415 . S
C1077 H1053 0.951 . S
C1077 C1078 1.366 1_565 S
C1077 C1079 1.388 . S
C1078 C1077 1.366 1_545 S
C1078 C1082 1.385 . S
C1079 H1054 0.951 . S
C1079 C1077 1.388 . S
C1079 C1080 1.366 1_565 S
C1080 C1079 1.366 1_545 S
C1080 C1081 1.414 . S
C1080 C1083 1.499 . S
C1081 H1055 0.950 . S
C1081 C1080 1.414 . S
C1081 C1082 1.374 . S
C1082 H1056 0.950 . S
C1082 C1078 1.385 . S
C1082 C1081 1.374 . S
C1083 C1080 1.499 . S
C1083 C1084 1.373 . S
C1083 C1085 1.389 . S
C1084 H1057 0.950 . S
C1084 C1070 1.377 . S
C1084 C1083 1.373 . S
C1085 C1069 1.377 . S
C1085 C1083 1.389 . S
C1085 C1086 1.524 . S
C1086 C1085 1.524 . S
C1086 C1087 1.397 . S
C1086 C1091 1.363 . S
C1087 H1058 0.950 . S
C1087 C1086 1.397 . S
C1087 C1088 1.334 . S
C1088 H1059 0.950 . S
C1088 C1087 1.334 . S
C1088 C1089 1.287 . S
C1089 C1088 1.287 . S
C1089 C1090 1.524 . S
C1089 H1092 0.999 . S
C1090 H1060 0.950 . S
C1090 C1089 1.524 . S
C1090 C1091 1.415 . S
C1091 H1061 0.950 1_545 S
C1091 C1086 1.363 . S
C1091 C1090 1.415 . S
H1092 C1089 0.999 . S
H1093 C1074 0.913 . S
H1094 C1112 0.951 . S
H1095 C1114 0.951 . S
H1096 C1116 0.950 . S
H1097 C1117 0.950 . S
H1098 C1119 0.950 . S
H1099 C1122 0.950 . S
H1100 C1123 0.950 . S
H1101 C1125 0.950 . S
H1102 C1126 0.950 . S
H1103 C1127 0.951 . S
H1104 C1129 0.951 . S
H1105 C1131 0.975 . S
H1106 C1132 0.950 . S
H1107 C1134 0.950 . S
H1108 C1137 0.950 . S
H1109 C1138 0.977 . S
H1110 C1140 0.950 . S
H1111 C1141 0.950 . S
C1112 H1094 0.951 . S
C1112 C1113 1.366 . S
C1112 C1114 1.388 . S
C1113 C1112 1.366 . S
C1113 C1117 1.385 . S
C1114 H1095 0.951 . S
C1114 C1112 1.388 . S
C1114 C1115 1.366 . S
C1115 C1114 1.366 . S
C1115 C1116 1.414 . S
C1115 C1118 1.499 . S
C1116 H1096 0.950 . S
C1116 C1115 1.414 . S
C1116 C1117 1.374 . S
C1117 H1097 0.950 . S
C1117 C1113 1.385 . S
C1117 C1116 1.374 . S
C1118 C1115 1.499 . S
C1118 C1119 1.373 . S
C1118 C1120 1.389 . S
C1119 H1098 0.950 . S
C1119 C1118 1.373 . S
C1119 C1135 1.377 . S
C1120 C1118 1.389 . S
C1120 C1121 1.524 . S
C1120 C1134 1.377 . S
C1121 C1120 1.524 . S
C1121 C1122 1.397 . S
C1121 C1126 1.363 . S
C1122 H1099 0.950 . S
C1122 C1121 1.397 . S
C1122 C1123 1.334 . S
C1123 H1100 0.950 . S
C1123 C1122 1.334 . S
C1123 C1124 1.287 . S
C1124 C1123 1.287 . S
C1124 C1125 1.524 . S
C1124 H1143 0.913 . S
C1125 H1101 0.950 . S
C1125 C1124 1.524 . S
C1125 C1126 1.415 . S
C1126 H1102 0.950 . S
C1126 C1121 1.363 . S
C1126 C1125 1.415 . S
C1127 H1103 0.951 . S
C1127 C1128 1.366 . S
C1127 C1129 1.388 1_554 S
C1128 C1127 1.366 . S
C1128 C1132 1.385 . S
C1129 H1104 0.951 . S
C1129 C1127 1.388 1_556 S
C1129 C1130 1.366 . S
C1130 C1129 1.366 . S
C1130 C1131 1.452 . S
C1130 C1133 1.499 . S
C1131 H1105 0.975 . S
C1131 C1130 1.452 . S
C1131 C1132 1.314 1_556 S
C1132 H1106 0.950 . S
C1132 C1128 1.385 . S
C1132 C1131 1.314 1_554 S
C1133 C1130 1.499 . S
C1133 C1134 1.373 . S
C1133 C1135 1.389 . S
C1134 H1107 0.950 . S
C1134 C1120 1.377 . S
C1134 C1133 1.373 . S
C1135 C1119 1.377 . S
C1135 C1133 1.389 . S
C1135 C1136 1.524 . S
C1136 C1135 1.524 . S
C1136 C1137 1.397 . S
C1136 C1141 1.363 . S
C1137 H1108 0.950 . S
C1137 C1136 1.397 . S
C1137 C1138 1.334 . S
C1138 H1109 0.977 . S
C1138 C1137 1.334 . S
C1138 C1139 1.287 . S
C1139 C1138 1.287 . S
C1139 C1140 1.524 . S
C1139 H1142 0.999 . S
C1140 H1110 0.950 . S
C1140 C1139 1.524 . S
C1140 C1141 1.415 . S
C1141 H1111 0.950 . S
C1141 C1136 1.363 . S
C1141 C1140 1.415 . S
H1142 C1139 0.999 . S
H1143 C1124 0.913 . S
H1144 C1162 0.949 . S
H1145 C1164 0.951 . S
H1146 C1166 0.950 . S
H1147 C1167 0.950 . S
H1148 C1169 0.950 . S
H1149 C1172 0.950 . S
H1150 C1173 0.950 . S
H1151 C1175 0.950 . S
H1152 C1176 0.950 . S
H1153 C1177 0.951 . S
H1154 C1179 0.951 . S
H1155 C1181 0.950 . S
H1156 C1182 0.950 . S
H1157 C1184 0.950 . S
H1158 C1187 0.950 . S
H1159 C1188 0.950 . S
H1160 C1190 0.950 . S
H1161 C1191 0.950 . S
C1162 H1144 0.949 . S
C1162 C1163 1.368 1_655 S
C1162 C1164 1.387 . S
C1163 C1162 1.368 1_455 S
C1163 C1167 1.385 . S
C1164 H1145 0.951 . S
C1164 C1162 1.387 . S
C1164 C1165 1.366 1_655 S
C1165 C1164 1.366 1_455 S
C1165 C1166 1.414 . S
C1165 C1168 1.499 . S
C1166 H1146 0.950 . S
C1166 C1165 1.414 . S
C1166 C1167 1.374 . S
C1167 H1147 0.950 . S
C1167 C1163 1.385 . S
C1167 C1166 1.374 . S
C1168 C1165 1.499 . S
C1168 C1169 1.373 . S
C1168 C1170 1.389 . S
C1169 H1148 0.950 . S
C1169 C1168 1.373 . S
C1169 C1185 1.377 . S
C1170 C1168 1.389 . S
C1170 C1171 1.524 . S
C1170 C1184 1.377 . S
C1171 C1170 1.524 . S
C1171 C1172 1.397 . S
C1171 C1176 1.363 1_455 S
C1172 H1149 0.950 . S
C1172 C1171 1.397 . S
C1172 C1173 1.334 . S
C1173 H1150 0.950 . S
C1173 C1172 1.334 . S
C1173 C1174 1.287 . S
C1174 C1173 1.287 . S
C1174 C1175 1.524 1_455 S
C1174 H1193 0.913 . S
C1175 H1151 0.950 . S
C1175 C1174 1.524 1_655 S
C1175 C1176 1.415 . S
C1176 H1152 0.950 . S
C1176 C1171 1.363 1_655 S
C1176 C1175 1.415 . S
C1177 H1153 0.951 . S
C1177 C1178 1.366 . S
C1177 C1179 1.388 . S
C1178 C1177 1.366 . S
C1178 C1182 1.385 1_455 S
C1179 H1154 0.951 . S
C1179 C1177 1.388 . S
C1179 C1180 1.366 . S
C1180 C1179 1.366 . S
C1180 C1181 1.414 1_455 S
C1180 C1183 1.499 . S
C1181 H1155 0.950 . S
C1181 C1180 1.414 1_655 S
C1181 C1182 1.374 . S
C1182 H1156 0.950 . S
C1182 C1178 1.385 1_655 S
C1182 C1181 1.374 . S
C1183 C1180 1.499 . S
C1183 C1184 1.373 . S
C1183 C1185 1.389 . S
C1184 H1157 0.950 . S
C1184 C1170 1.377 . S
C1184 C1183 1.373 . S
C1185 C1169 1.377 . S
C1185 C1183 1.389 . S
C1185 C1186 1.524 . S
C1186 C1185 1.524 . S
C1186 C1187 1.397 1_455 S
C1186 C1191 1.363 . S
C1187 H1158 0.950 . S
C1187 C1186 1.397 1_655 S
C1187 C1188 1.334 . S
C1188 H1159 0.950 . S
C1188 C1187 1.334 . S
C1188 C1189 1.287 . S
C1189 C1188 1.287 . S
C1189 C1190 1.524 1_655 S
C1189 H1192 0.999 . S
C1190 H1160 0.950 . S
C1190 C1189 1.524 1_455 S
C1190 C1191 1.415 . S
C1191 H1161 0.950 . S
C1191 C1186 1.363 . S
C1191 C1190 1.415 . S
H1192 C1189 0.999 . S
H1193 C1174 0.913 . S
C313 C8 2.012 . S
C328 C271 2.068 . S
C363 C26 1.286 . S
C378 C198 1.289 . S
C413 C48 1.449 . S
C428 C237 1.485 . S
C463 C19 1.727 . S
C478 C276 1.774 . S
C528 C193 1.488 . S
C513 C36 1.478 . S
C578 C232 1.721 . S
C563 C59 1.667 . S
C613 C28 1.474 . S
C628 C120 1.515 . S
C663 C46 1.222 . S
C678 C154 1.226 . S
C713 C16 1.561 . S
C728 C76 1.573 . S
C778 C115 1.674 . S
C763 C39 1.631 . S
C828 C159 0.953 . S
C813 C56 0.947 . S
C863 C6 1.321 . S
C878 C81 1.316 . S
C928 C139 1.430 . S
C913 C9 1.399 . S
C963 C21 1.493 . S
C978 C61 1.508 . S
C1013 C49 1.471 . S
C1028 C100 1.488 . S
C1078 C217 1.466 . S
C1063 C29 1.454 . S
C1128 C256 1.590 . S
C1113 C41 1.573 . S
C1163 C1 1.494 . S
C1178 C178 1.508 1_455 S
