# Generated by pormake.
# Topology anh, (6,3)-cn, num edge types: 1
# Building blocks:
#     Node 0, Type 0, BuildingBlock: NUHQIS_clean_sbu_0, # of connection points: 6
#     Node 1, Type 0, BuildingBlock: NUHQIS_clean_sbu_0, # of connection points: 6
#     Node 2, Type 0, BuildingBlock: NUHQIS_clean_sbu_0, # of connection points: 6
#     Node 3, Type 1, BuildingBlock: KAKCAD_clean_linker_0, # of connection points: 3
#     Node 4, Type 1, BuildingBlock: KAKCAD_clean_linker_0, # of connection points: 3
#     Node 5, Type 1, BuildingBlock: KAKCAD_clean_linker_0, # of connection points: 3
#     Node 6, Type 1, BuildingBlock: KAKCAD_clean_linker_0, # of connection points: 3
#     Node 7, Type 1, BuildingBlock: KAKCAD_clean_linker_0, # of connection points: 3
#     Node 8, Type 1, BuildingBlock: KAKCAD_clean_linker_0, # of connection points: 3
#     Edge 9, Type (0, 1), BuildingBlock: CIFDUS_clean_linker_0, # of connection points: 2
#     Edge 10, Type (0, 1), BuildingBlock: CIFDUS_clean_linker_0, # of connection points: 2
#     Edge 11, Type (0, 1), BuildingBlock: CIFDUS_clean_linker_0, # of connection points: 2
#     Edge 12, Type (0, 1), BuildingBlock: CIFDUS_clean_linker_0, # of connection points: 2
#     Edge 13, Type (0, 1), BuildingBlock: CIFDUS_clean_linker_0, # of connection points: 2
#     Edge 14, Type (0, 1), BuildingBlock: CIFDUS_clean_linker_0, # of connection points: 2
#     Edge 15, Type (0, 1), BuildingBlock: CIFDUS_clean_linker_0, # of connection points: 2
#     Edge 16, Type (0, 1), BuildingBlock: CIFDUS_clean_linker_0, # of connection points: 2
#     Edge 17, Type (0, 1), BuildingBlock: CIFDUS_clean_linker_0, # of connection points: 2
#     Edge 18, Type (0, 1), BuildingBlock: CIFDUS_clean_linker_0, # of connection points: 2
#     Edge 19, Type (0, 1), BuildingBlock: CIFDUS_clean_linker_0, # of connection points: 2
#     Edge 20, Type (0, 1), BuildingBlock: CIFDUS_clean_linker_0, # of connection points: 2
#     Edge 21, Type (0, 1), BuildingBlock: CIFDUS_clean_linker_0, # of connection points: 2
#     Edge 22, Type (0, 1), BuildingBlock: CIFDUS_clean_linker_0, # of connection points: 2
#     Edge 23, Type (0, 1), BuildingBlock: CIFDUS_clean_linker_0, # of connection points: 2
#     Edge 24, Type (0, 1), BuildingBlock: CIFDUS_clean_linker_0, # of connection points: 2
#     Edge 25, Type (0, 1), BuildingBlock: CIFDUS_clean_linker_0, # of connection points: 2
#     Edge 26, Type (0, 1), BuildingBlock: CIFDUS_clean_linker_0, # of connection points: 2
# Relax obj value: 0.260
# Max RMSD: 0.192
# Mean RMSD: 0.158
data_MOF--net-anh--node1-NUHQIS_clean_sbu_0--node2-KAKCAD_clean_linker_0--edge1-CIFDUS_clean_linker_0
_symmetry_space_group_name_H-M    P1
_symmetry_Int_Tables_number       1
_symmetry_cell_setting            triclinic
loop_
_symmetry_equiv_pos_as_xyz
'x, y, z'
_cell_length_a     32.521779
_cell_length_b     32.175081
_cell_length_c     60.374518
_cell_angle_alpha  91.165524
_cell_angle_beta   90.650506
_cell_angle_gamma 119.80072
loop_
_atom_site_label
_atom_site_type_symbol
_atom_site_fract_x
_atom_site_fract_y
_atom_site_fract_z
_atom_type_partial_charge
Tb0 Tb 0.238 0.6368 0.16485 0.0
Eu1 Eu 0.18438 0.69939 0.16422 0.0
C2 C 0.19681 0.65404 0.20841 0.0
C3 C 0.12394 0.58207 0.16611 0.0
C4 C 0.27742 0.5457 0.17323 0.0
C5 C 0.23613 0.45865 0.17357 0.0
C6 C 0.23594 0.50129 0.16954 0.0
C7 C 0.31758 0.54705 0.1826 0.0
C8 C 0.31785 0.50472 0.18659 0.0
C9 C 0.27781 0.45989 0.18124 0.0
C10 C 0.28199 0.59076 0.16544 0.0
O11 O 0.24475 0.66249 0.13098 0.0
O12 O 0.17897 0.6704 0.12956 0.0
O13 O 0.26231 0.75449 0.15924 0.0
O14 O 0.29255 0.71047 0.17443 0.0
C15 C 0.21134 0.66471 0.11952 0.0
O16 O 0.13827 0.72165 0.14815 0.0
O17 O 0.17013 0.7522 0.18026 0.0
O18 O 0.19988 0.6923 0.1997 0.0
O19 O 0.20339 0.6232 0.19671 0.0
O20 O 0.16284 0.58144 0.16043 0.0
O21 O 0.12492 0.62296 0.17067 0.0
C22 C 0.29842 0.75181 0.16774 0.0
O23 O 0.2539 0.58798 0.14918 0.0
O24 O 0.28762 0.62275 0.18056 0.0
C25 C 1.0908 0.73227 0.17378 0.0
C26 C 0.99398 0.68897 0.1834 0.0
C27 C 1.01344 0.72409 0.16719 0.0
C28 C 1.06153 0.74549 0.16239 0.0
C29 C 1.07222 0.69982 0.19104 0.0
C30 C 1.02423 0.67846 0.19586 0.0
C31 C 0.13806 0.74633 0.16547 0.0
H32 H 0.20449 0.42482 0.16956 0.0
H33 H 0.20423 0.49946 0.16256 0.0
H34 H 0.34986 0.58097 0.18562 0.0
H35 H 0.35092 0.50754 0.19217 0.0
H36 H 0.99095 0.73251 0.1571 0.0
H37 H 1.07519 0.77013 0.1489 0.0
H38 H 1.09423 0.68903 0.19998 0.0
H39 H 1.01031 0.65188 0.20855 0.0
Tb40 Tb 0.74059 0.13979 0.50102 0.0
Eu41 Eu 0.63267 0.09687 0.4828 0.0
C42 C 0.65384 0.09561 0.53356 0.0
C43 C 0.67774 1.02645 0.49345 0.0
C44 C 0.85757 0.23102 0.5217 0.0
C45 C 0.86077 0.30322 0.53652 0.0
C46 C 0.83933 0.25338 0.53549 0.0
C47 C 0.90086 0.25919 0.51135 0.0
C48 C 0.92208 0.30911 0.51222 0.0
C49 C 0.90009 0.33115 0.52348 0.0
C50 C 0.82661 0.18147 0.51349 0.0
O51 O 0.73729 0.12257 0.46529 0.0
O52 O 0.68306 0.14431 0.45772 0.0
O53 O 0.65103 0.16886 0.49863 0.0
O54 O 0.73193 0.20341 0.49842 0.0
C55 C 0.71709 0.13745 0.45102 0.0
O56 O 0.58022 1.05788 0.45608 0.0
O57 O 0.56473 0.09364 0.48314 0.0
O58 O 0.62509 1.07094 0.51704 0.0
O59 O 0.6974 0.13048 0.53026 0.0
O60 O 0.71588 1.06328 0.50244 0.0
O61 O 0.64404 1.03165 0.48346 0.0
C62 C 0.69338 0.20693 0.50076 0.0
O63 O 0.79186 0.15326 0.52602 0.0
O64 O 0.81231 0.17836 0.49299 0.0
C65 C 0.49907 1.03215 0.46325 0.0
C66 C 0.39969 0.97896 0.46117 0.0
C67 C 0.42534 1.00075 0.4422 0.0
C68 C 0.47464 1.02713 0.44326 0.0
C69 C 0.47385 1.00843 0.48201 0.0
C70 C 0.42435 0.98178 0.48094 0.0
C71 C 0.54947 1.06801 0.46475 0.0
H72 H 0.84358 0.31961 0.54552 0.0
H73 H 0.80594 0.23255 0.54366 0.0
H74 H 0.91544 0.2426 0.50061 0.0
H75 H 0.95237 0.32987 0.502 0.0
H76 H 0.40719 0.99825 0.42664 0.0
H77 H 0.49362 1.04543 0.42868 0.0
H78 H 0.49223 1.01218 0.49764 0.0
H79 H 0.40534 0.96519 0.49577 0.0
Tb80 Tb 0.73071 0.65176 0.8362 0.0
Eu81 Eu 0.66644 0.53705 0.82902 0.0
C82 C 0.68719 0.58559 0.87643 0.0
C83 C 0.78159 0.58858 0.8385 0.0
C84 C 0.75223 0.77111 0.83163 0.0
C85 C 0.72025 0.8232 0.84102 0.0
C86 C 0.75031 0.80492 0.84602 0.0
C87 C 0.72604 0.75827 0.81152 0.0
C88 C 0.69601 0.77621 0.80662 0.0
C89 C 0.69145 0.80735 0.82169 0.0
C90 C 0.77194 0.74145 0.83955 0.0
O91 O 0.70638 0.6367 0.80128 0.0
O92 O 0.70671 0.56686 0.79812 0.0
O93 O 0.61231 0.56242 0.82529 0.0
O94 O 0.65801 0.63875 0.8399 0.0
C95 C 0.7083 0.60383 0.78882 0.0
O96 O 0.63885 0.46454 0.84107 0.0
O97 O 0.62228 0.4756 0.8074 0.0
O98 O 0.65336 0.55561 0.86288 0.0
O99 O 0.72645 0.62084 0.86871 0.0
O100 O 0.78563 0.63053 0.8341 0.0
O101 O 0.73939 0.54995 0.8401 0.0
C102 C 0.61644 0.60304 0.83304 0.0
O103 O 0.74837 0.71358 0.85558 0.0
O104 O 0.78185 0.7185 0.82435 0.0
C105 C 0.56484 0.4067 0.8251 0.0
C106 C 0.4717 0.32857 0.82218 0.0
C107 C 0.50981 0.32211 0.82878 0.0
C108 C 0.55587 0.36082 0.83019 0.0
C109 C 0.52671 0.41423 0.82023 0.0
C110 C 0.48041 0.37536 0.81874 0.0
C111 C 0.61423 0.44473 0.82282 0.0
H112 H 0.71729 0.84725 0.85287 0.0
H113 H 0.76959 0.81472 0.86176 0.0
H114 H 0.72628 0.73191 0.80016 0.0
H115 H 0.6747 0.76405 0.79145 0.0
H116 H 0.50482 0.28666 0.83121 0.0
H117 H 0.58486 0.35442 0.83403 0.0
H118 H 0.53293 0.44967 0.81651 0.0
H119 H 0.45183 0.38157 0.81382 0.0
C120 C 0.73896 0.21157 0.30806 0.0
C121 C 0.72869 0.16971 0.31929 0.0
C122 C 0.73754 0.21171 0.28489 0.0
C123 C 0.72578 0.16996 0.2722 0.0
C124 C 0.7167 0.12833 0.28339 0.0
C125 C 0.71836 0.12827 0.30666 0.0
C126 C 0.72171 0.16988 0.24746 0.0
C127 C 0.75453 0.20935 0.23563 0.0
C128 C 0.75006 0.21198 0.21256 0.0
C129 C 0.71119 0.17249 0.20099 0.0
C130 C 0.67754 0.13146 0.21263 0.0
C131 C 0.68376 0.13147 0.23583 0.0
C132 C 0.63451 0.08838 0.20181 0.0
C133 C 0.60439 0.09304 0.18632 0.0
C134 C 0.61995 1.04175 0.20917 0.0
C135 C 0.57619 1.00201 0.2024 0.0
C136 C 0.54482 1.00663 0.18765 0.0
C137 C 0.78629 0.25781 0.20195 0.0
C138 C 0.79529 0.30226 0.21116 0.0
C139 C 0.81746 0.25866 0.18568 0.0
C140 C 0.85714 0.3025 0.17947 0.0
C141 C 0.86689 0.347 0.18925 0.0
C142 C 0.83453 0.3457 0.20501 0.0
C143 C 0.56042 1.05297 0.17938 0.0
H144 H 0.74748 0.24427 0.31723 0.0
H145 H 0.74434 0.24433 0.27694 0.0
H146 H 0.70802 0.09566 0.27416 0.0
H147 H 0.70999 0.09535 0.31477 0.0
H148 H 0.78424 0.23868 0.24456 0.0
H149 H 0.6576 0.10195 0.24518 0.0
H150 H 0.70701 0.17388 0.18325 0.0
H151 H 0.61381 0.12801 0.18022 0.0
H152 H 0.642 1.036 0.22086 0.0
H153 H 0.56642 0.96786 0.20955 0.0
H154 H 0.77266 0.30332 0.22394 0.0
H155 H 0.81239 0.22531 0.17846 0.0
H156 H 0.53845 1.05869 0.16765 0.0
H157 H 0.84034 0.37827 0.21341 0.0
H158 H 0.88044 0.30135 0.16712 0.0
C159 C 0.66515 0.64561 0.64535 0.0
C160 C 0.69548 0.63393 0.65717 0.0
C161 C 0.66255 0.6428 0.62209 0.0
C162 C 0.68999 0.62799 0.60998 0.0
C163 C 0.72045 0.61657 0.62178 0.0
C164 C 0.72326 0.61963 0.64498 0.0
C165 C 0.68756 0.62496 0.58517 0.0
C166 C 0.68763 0.66159 0.57293 0.0
C167 C 0.68819 0.66102 0.54957 0.0
C168 C 0.68752 0.6212 0.53829 0.0
C169 C 0.68786 0.58364 0.55042 0.0
C170 C 0.68708 0.58626 0.57377 0.0
C171 C 0.69008 0.54152 0.53981 0.0
C172 C 0.66273 0.51612 0.52086 0.0
C173 C 0.71689 0.5234 0.55018 0.0
C174 C 0.71428 0.48035 0.54287 0.0
C175 C 0.6854 0.45351 0.52451 0.0
C176 C 0.69294 0.70467 0.53816 0.0
C177 C 0.7273 0.7506 0.54618 0.0
C178 C 0.66075 0.7021 0.52157 0.0
C179 C 0.66232 0.74427 0.5138 0.0
C180 C 0.69641 0.79027 0.52226 0.0
C181 C 0.72886 0.79224 0.53853 0.0
C182 C 0.66049 0.473 0.51333 0.0
H183 H 0.64269 0.65613 0.65406 0.0
H184 H 0.63841 0.65149 0.61358 0.0
H185 H 0.74282 0.60594 0.61303 0.0
H186 H 0.74781 0.61132 0.65334 0.0
H187 H 0.6885 0.6917 0.58177 0.0
H188 H 0.68558 0.55744 0.58335 0.0
H189 H 0.6888 0.62054 0.52038 0.0
H190 H 0.64164 0.52857 0.51228 0.0
H191 H 0.73939 0.54204 0.56451 0.0
H192 H 0.73394 0.46749 0.55232 0.0
H193 H 0.75266 0.7544 0.55898 0.0
H194 H 0.63337 0.66749 0.51514 0.0
H195 H 0.63866 0.45478 0.49878 0.0
H196 H 0.75517 0.82621 0.546 0.0
H197 H 0.63681 0.74077 0.50117 0.0
C198 C 0.26573 0.65618 0.9744 0.0
C199 C 0.22596 0.63175 0.98775 0.0
C200 C 0.26135 0.65064 0.95125 0.0
C201 C 0.21711 0.6202 0.94073 0.0
C202 C 0.17737 0.59561 0.95413 0.0
C203 C 0.18171 0.60142 0.97729 0.0
C204 C 0.21251 0.6142 0.91593 0.0
C205 C 0.24823 0.61288 0.9036 0.0
C206 C 0.24562 0.60829 0.88026 0.0
C207 C 0.20435 0.60367 0.86913 0.0
C208 C 0.16711 0.6042 0.88136 0.0
C209 C 0.17253 0.60998 0.90463 0.0
C210 C 0.12213 0.59966 0.87099 0.0
C211 C 0.12304 0.62874 0.85365 0.0
C212 C 1.07786 0.57036 0.88072 0.0
C213 C 1.03675 0.57167 0.8742 0.0
C214 C 1.03783 0.6024 0.85761 0.0
C215 C 0.28695 0.60817 0.86872 0.0
C216 C 0.33397 0.64052 0.876 0.0
C217 C 0.28061 0.57266 0.85282 0.0
C218 C 0.3196 0.5683 0.84542 0.0
C219 C 0.36649 0.59935 0.85358 0.0
C220 C 0.3727 0.63617 0.86869 0.0
C221 C 1.08173 0.63019 0.84712 0.0
H222 H 0.30024 0.68036 0.98184 0.0
H223 H 0.29267 0.6709 0.94157 0.0
H224 H 0.14285 0.57122 0.94677 0.0
H225 H 0.15042 0.58149 0.98703 0.0
H226 H 0.27824 0.61445 0.91237 0.0
H227 H 0.14563 0.61241 0.91407 0.0
H228 H 0.20127 0.59974 0.85124 0.0
H229 H 0.15618 0.65209 0.84578 0.0
H230 H 1.07526 0.54725 0.89407 0.0
H231 H 1.00447 0.54984 0.88298 0.0
H232 H 0.34082 0.66869 0.8881 0.0
H233 H 0.24525 0.54684 0.84682 0.0
H234 H 1.08453 0.65379 0.83399 0.0
H235 H 0.40741 0.66082 0.87574 0.0
H236 H 0.31267 0.53993 0.83345 0.0
C237 C 1.00762 0.61369 0.32162 0.0
C238 C 1.05595 0.63897 0.31642 0.0
C239 C 0.9916 0.62514 0.34096 0.0
C240 C 1.02354 0.6621 0.35552 0.0
C241 C 1.07205 0.6861 0.35072 0.0
C242 C 1.08802 0.67481 0.33139 0.0
C243 C 1.00645 0.67578 0.37562 0.0
C244 C 0.97371 0.64037 0.38932 0.0
C245 C 0.96052 0.65307 0.40932 0.0
C246 C 0.97797 0.70164 0.41476 0.0
C247 C 1.01387 0.73759 0.40239 0.0
C248 C 1.02648 0.72421 0.38234 0.0
C249 C 1.04535 0.78616 0.41272 0.0
C250 C 1.07308 0.82582 0.39959 0.0
C251 C 1.05491 0.79093 0.43577 0.0
C252 C 1.09468 0.83112 0.44481 0.0
C253 C 0.12665 0.86681 0.43101 0.0
C254 C 0.93736 0.61679 0.42653 0.0
C255 C 0.90154 0.56992 0.42088 0.0
C256 C 0.95573 0.6275 0.44843 0.0
C257 C 0.94065 0.5917 0.46395 0.0
C258 C 0.90705 0.54431 0.45792 0.0
C259 C 0.88647 0.53398 0.43645 0.0
C260 C 1.11379 0.86555 0.40859 0.0
H261 H 0.98203 0.58545 0.31059 0.0
H262 H 0.95404 0.60584 0.34424 0.0
H263 H 1.09782 0.71392 0.36186 0.0
H264 H 0.12539 0.69538 0.32785 0.0
H265 H 0.96161 0.60302 0.38528 0.0
H266 H 1.05408 0.75112 0.37249 0.0
H267 H 0.96664 0.71113 0.4299 0.0
H268 H 1.06576 0.82465 0.38199 0.0
H269 H 1.03486 0.76192 0.44678 0.0
H270 H 1.10281 0.83195 0.46232 0.0
H271 H 0.88656 0.56065 0.40419 0.0
H272 H 0.98394 0.66301 0.45334 0.0
H273 H 0.13728 0.89291 0.39752 0.0
H274 H 0.86063 0.49763 0.4313 0.0
H275 H 0.95667 0.60075 0.48045 0.0
C276 C 0.48038 0.9647 0.65154 0.0
C277 C 0.50208 1.0111 0.64316 0.0
C278 C 0.45979 0.95575 0.67232 0.0
C279 C 0.46014 0.99293 0.68506 0.0
C280 C 0.4807 1.03908 0.67645 0.0
C281 C 0.50171 1.04815 0.65572 0.0
C282 C 0.44314 0.98456 0.70807 0.0
C283 C 0.45932 0.96207 0.72257 0.0
C284 C 0.44834 0.95835 0.74509 0.0
C285 C 0.41993 0.97664 0.75302 0.0
C286 C 0.40298 0.99904 0.73868 0.0
C287 C 0.41456 1.00253 0.71614 0.0
C288 C 0.37892 1.02431 0.74793 0.0
C289 C 0.34697 1.00505 0.76534 0.0
C290 C 0.39247 1.07079 0.74119 0.0
C291 C 0.37792 0.09888 0.7528 0.0
C292 C 0.34947 1.0813 0.77151 0.0
C293 C 0.47081 0.93961 0.7604 0.0
C294 C 0.4736 0.89882 0.75421 0.0
C295 C 0.49389 0.96506 0.78009 0.0
C296 C 0.52127 0.95135 0.79272 0.0
C297 C 0.52597 0.9119 0.7859 0.0
C298 C 0.50093 0.8852 0.76676 0.0
C299 C 0.33235 1.03328 0.77702 0.0
H300 H 0.48037 0.93552 0.64226 0.0
H301 H 0.44417 0.91987 0.67859 0.0
H302 H 0.48195 1.06851 0.68607 0.0
H303 H 0.51776 0.08413 0.64954 0.0
H304 H 0.48312 0.95011 0.71655 0.0
H305 H 0.40219 1.02009 0.70493 0.0
H306 H 0.41278 0.97522 0.77056 0.0
H307 H 0.33511 0.96894 0.77063 0.0
H308 H 0.41744 0.08706 0.72804 0.0
H309 H 0.39265 0.13585 0.74818 0.0
H310 H 0.4559 0.87835 0.73919 0.0
H311 H 0.49271 0.99691 0.78518 0.0
H312 H 0.30988 1.01841 0.79114 0.0
H313 H 0.50417 0.855 0.76081 0.0
H314 H 0.5397 0.97233 0.8075 0.0
C315 C 0.64476 0.48638 0.01125 0.0
C316 C 0.60996 0.48923 -0.00158 0.0
C317 C 0.63624 0.4723 0.03327 0.0
C318 C 0.59281 0.46092 0.0429 0.0
C319 C 0.55818 0.46395 0.03003 0.0
C320 C 0.56664 0.47791 0.00808 0.0
C321 C 0.58439 0.44873 0.06663 0.0
C322 C 0.6198 0.47576 0.08266 0.0
C323 C 0.61056 0.46897 0.10537 0.0
C324 C 0.56551 0.43382 0.11197 0.0
C325 C 0.52954 0.40614 0.09615 0.0
C326 C 0.53967 0.41328 0.07351 0.0
C327 C 0.47997 0.37561 0.10333 0.0
C328 C 0.46989 0.3492 0.12276 0.0
C329 C 0.44305 0.37809 0.09229 0.0
C330 C 0.39847 0.35879 0.10155 0.0
C331 C 0.38952 0.33652 0.12215 0.0
C332 C 0.64735 0.50064 0.12204 0.0
C333 C 0.6557 0.48191 0.14131 0.0
C334 C 0.67551 0.54986 0.11835 0.0
C335 C 0.71315 0.57911 0.13279 0.0
C336 C 0.72334 0.55997 0.15141 0.0
C337 C 0.6933 0.51132 0.15588 0.0
C338 C 0.42502 0.32969 0.13206 0.0
H339 H 0.67825 0.49432 0.00417 0.0
H340 H 0.66354 0.47006 0.04273 0.0
H341 H 0.52483 0.45663 0.03709 0.0
H342 H 0.53941 0.48049 -0.00128 0.0
H343 H 0.65425 0.50341 0.07746 0.0
H344 H 0.5122 0.39212 0.06119 0.0
H345 H 0.5576 0.4303 0.12945 0.0
H346 H 0.49739 0.3458 0.13141 0.0
H347 H 0.44949 0.39852 0.07742 0.0
H348 H 0.37259 0.36556 0.09345 0.0
H349 H 0.6344 0.44416 0.14467 0.0
H350 H 0.66919 0.56568 0.10397 0.0
H351 H 0.41912 0.31193 0.1477 0.0
H352 H 0.69977 0.4956 0.17025 0.0
H353 H 0.7357 0.61622 0.12864 0.0
H354 H 0.24109 0.38869 0.14934 0.0
H355 H 0.32793 0.43382 0.20923 0.0
H356 H 0.36432 0.38659 0.19788 0.0
H357 H 0.38665 0.35366 0.16635 0.0
H358 H 0.29878 0.307 0.10677 0.0
H359 H 0.24638 0.33249 0.12311 0.0
C360 C 0.26629 0.38657 0.1605 0.0
C361 C 0.28352 0.41679 0.17958 0.0
C362 C 0.28764 0.35993 0.15371 0.0
C363 C 0.31557 0.41258 0.19394 0.0
C364 C 0.33647 0.38559 0.18745 0.0
C365 C 0.35488 0.34678 0.15722 0.0
C366 C 0.3481 0.33074 0.13489 0.0
C367 C 0.32532 0.36227 0.16657 0.0
C368 C 0.30605 0.32134 0.12364 0.0
C369 C 0.27606 0.33599 0.13297 0.0
H370 H 0.83642 0.3522 0.50727 0.0
H371 H 0.9854 0.41532 0.52266 0.0
H372 H 1.00014 0.48979 0.50531 0.0
H373 H 0.97076 0.53277 0.48258 0.0
H374 H 0.8211 0.46744 0.46694 0.0
H375 H 0.80599 0.39753 0.488 0.0
C376 C 0.87171 0.38297 0.50776 0.0
C377 C 0.90951 0.37893 0.51677 0.0
C378 C 0.87967 0.42472 0.49748 0.0
C379 C 0.95573 0.41804 0.51608 0.0
C380 C 0.96406 0.46035 0.5061 0.0
C381 C 0.93468 0.50378 0.48429 0.0
C382 C 0.89705 0.5051 0.47315 0.0
C383 C 0.92635 0.46359 0.4963 0.0
C384 C 0.85063 0.46693 0.47516 0.0
C385 C 0.84198 0.42711 0.48728 0.0
H386 H 0.69965 0.89592 0.8229 0.0
H387 H 0.59893 0.7458 0.81192 0.0
H388 H 0.53694 0.76463 0.80267 0.0
H389 H 0.51309 0.82382 0.79473 0.0
H390 H 0.61483 0.97455 0.80276 0.0
H391 H 0.6741 0.95554 0.81679 0.0
C392 C 0.66396 0.86749 0.81873 0.0
C393 C 0.65385 0.81966 0.81784 0.0
C394 C 0.62867 0.87868 0.81292 0.0
C395 C 0.60756 0.78295 0.8124 0.0
C396 C 0.57212 0.79366 0.80716 0.0
C397 C 0.5482 0.85255 0.79958 0.0
C398 C 0.55956 0.90048 0.79746 0.0
C399 C 0.58256 0.84143 0.80685 0.0
C400 C 0.60491 0.93728 0.80436 0.0
C401 C 0.63904 0.92646 0.81218 0.0
H402 H 0.9273 0.71693 0.18324 0.0
H403 H 0.94373 0.59199 0.18573 0.0
H404 H 0.85881 0.54007 0.17971 0.0
H405 H 0.78317 0.53101 0.16722 0.0
H406 H 0.76568 0.65527 0.16393 0.0
H407 H 0.84779 0.70658 0.17664 0.0
C408 C 0.91206 0.67831 0.18284 0.0
C409 C 0.94184 0.65841 0.18465 0.0
C410 C 0.8632 0.64856 0.17883 0.0
C411 C 0.92163 0.60829 0.1845 0.0
C412 C 0.87305 0.57851 0.18083 0.0
C413 C 0.79661 0.56906 0.16998 0.0
C414 C 0.76851 0.58931 0.16417 0.0
C415 C 0.84388 0.59835 0.17707 0.0
C416 C 0.78693 0.63887 0.16774 0.0
C417 C 0.83386 0.66824 0.17505 0.0
H418 H 0.34495 1.01204 0.44342 0.0
H419 H 0.33747 0.8916 0.47716 0.0
H420 H 0.25109 0.84872 0.47306 0.0
H421 H 0.17959 0.84244 0.45654 0.0
H422 H 0.18604 0.96176 0.42208 0.0
H423 H 0.27161 1.0083 0.42967 0.0
C424 C 0.3243 0.9764 0.44988 0.0
C425 C 0.34738 0.9546 0.46028 0.0
C426 C 0.27484 0.95188 0.44725 0.0
C427 C 0.32038 0.90898 0.46907 0.0
C428 C 0.27111 0.88445 0.46666 0.0
C429 C 0.19924 0.87916 0.45125 0.0
C430 C 0.17635 0.89865 0.43879 0.0
C431 C 0.24816 0.90522 0.45539 0.0
C432 C 0.20286 0.94586 0.43158 0.0
C433 C 0.25172 0.97239 0.43589 0.0
H434 H 0.42403 0.24254 0.84222 0.0
H435 H 0.41723 0.31835 0.78542 0.0
H436 H 0.36294 0.24283 0.76646 0.0
H437 H 0.33774 0.15752 0.762 0.0
H438 H 0.35625 0.08373 0.81678 0.0
H439 H 0.38354 0.15483 0.84052 0.0
C440 C 0.40962 0.24249 0.82593 0.0
C441 C 0.42609 0.28594 0.81498 0.0
C442 C 0.3809 0.19881 0.81448 0.0
C443 C 0.40573 0.28552 0.79422 0.0
C444 C 0.37504 0.24216 0.78319 0.0
C445 C 0.34659 0.15666 0.7793 0.0
C446 C 0.34668 0.11591 0.78728 0.0
C447 C 0.36551 0.1988 0.7925 0.0
C448 C 0.35632 0.11464 0.80998 0.0
C449 C 0.37265 0.15568 0.82357 0.0
H450 H 0.7476 1.00401 0.50088 0.0
H451 H 0.59617 0.93755 0.4915 0.0
H452 H 0.58795 0.85892 0.49866 0.0
H453 H 0.62388 0.80892 0.50973 0.0
H454 H 0.77628 0.87727 0.51671 0.0
H455 H 0.78349 0.9541 0.50853 0.0
C456 C 0.71267 0.97239 0.50024 0.0
C457 C 0.67256 0.97736 0.49572 0.0
C458 C 0.70822 0.92706 0.50421 0.0
C459 C 0.62782 0.93536 0.49482 0.0
C460 C 0.62308 0.89017 0.49904 0.0
C461 C 0.65876 0.84039 0.5092 0.0
C462 C 0.69936 0.83647 0.51455 0.0
C463 C 0.66303 0.88546 0.50402 0.0
C464 C 0.74405 0.87844 0.51355 0.0
C465 C 0.74839 0.92282 0.50865 0.0
H466 H 0.87718 0.65807 0.83594 0.0
H467 H 0.78612 0.50852 0.84933 0.0
H468 H 0.85524 0.49933 0.85577 0.0
H469 H 0.94207 0.53297 0.85797 0.0
H470 H 1.03385 0.68269 0.84515 0.0
H471 H 0.9648 0.69175 0.83786 0.0
C472 C 0.87228 0.62338 0.84024 0.0
C473 C 0.82557 0.58412 0.8421 0.0
C474 C 0.91281 0.61804 0.84397 0.0
C475 C 0.82091 0.53963 0.8477 0.0
C476 C 0.86075 0.53422 0.85143 0.0
C477 C 0.94736 0.56782 0.85373 0.0
C478 C 0.99423 0.60698 0.85217 0.0
C479 C 0.907 0.57312 0.8497 0.0
C480 C 0.99904 0.65138 0.84621 0.0
C481 C 0.95919 0.65681 0.84219 0.0
H482 H 0.32629 0.8493 0.16597 0.0
H483 H 0.38214 0.75412 0.17604 0.0
H484 H 0.46136 0.82241 0.18203 0.0
H485 H 0.51594 0.90929 0.18503 0.0
H486 H 0.461 1.00588 0.1771 0.0
H487 H 0.38207 0.93783 0.16925 0.0
C488 C 0.35577 0.84341 0.16936 0.0
C489 C 0.3473 0.79576 0.17052 0.0
C490 C 0.4022 0.88356 0.17314 0.0
C491 C 0.38662 0.78971 0.17509 0.0
C492 C 0.4324 0.82906 0.17852 0.0
C493 C 0.48695 0.91599 0.18185 0.0
C494 C 0.49583 0.9639 0.18181 0.0
C495 C 0.44076 0.87623 0.17778 0.0
C496 C 0.45672 0.97031 0.177 0.0
C497 C 0.41092 0.93099 0.17267 0.0
H498 H 0.62896 0.23862 0.49369 0.0
H499 H 0.76814 0.28404 0.52114 0.0
H500 H 0.77857 0.36313 0.53043 0.0
H501 H 0.74987 0.42082 0.52966 0.0
H502 H 0.60844 0.37448 0.50421 0.0
H503 H 0.59857 0.29617 0.49442 0.0
C504 C 0.66171 0.26587 0.50162 0.0
C505 C 0.69823 0.25519 0.50631 0.0
C506 C 0.66763 0.31193 0.50687 0.0
C507 C 0.74 0.29124 0.5168 0.0
C508 C 0.74588 0.33659 0.52221 0.0
C509 C 0.71642 0.39377 0.52227 0.0
C510 C 0.68013 0.40502 0.51779 0.0
C511 C 0.71022 0.34769 0.51712 0.0
C512 C 0.63779 0.36851 0.50761 0.0
C513 C 0.63176 0.323 0.50215 0.0
H514 H 0.52003 0.53426 0.83145 0.0
H515 H 0.615 0.68652 0.84008 0.0
H516 H 0.54792 0.6989 0.84626 0.0
H517 H 0.46218 0.6674 0.85011 0.0
H518 H 0.36646 0.51495 0.84313 0.0
H519 H 0.43299 0.50259 0.835 0.0
C520 C 0.52614 0.57024 0.83448 0.0
C521 C 0.57335 0.60928 0.83527 0.0
C522 C 0.48681 0.57741 0.83831 0.0
C523 C 0.57972 0.65548 0.83942 0.0
C524 C 0.54108 0.66274 0.84297 0.0
C525 C 0.45543 0.63125 0.84701 0.0
C526 C 0.40819 0.59233 0.84738 0.0
C527 C 0.49441 0.62404 0.84268 0.0
C528 C 0.40151 0.54611 0.84273 0.0
C529 C 0.43997 0.53881 0.83822 0.0
H530 H 1.03236 0.56362 0.17483 0.0
H531 H 1.1128 0.49186 0.16342 0.0
H532 H 1.04228 0.41458 0.16884 0.0
H533 H 0.95748 0.36597 0.178 0.0
H534 H 0.8759 0.43708 0.18776 0.0
H535 H 0.94614 0.51427 0.182 0.0
C536 C 1.03456 0.53114 0.17339 0.0
C537 C 1.07872 0.53452 0.16864 0.0
C538 C 0.99317 0.48587 0.17642 0.0
C539 C 1.07996 0.49131 0.16694 0.0
C540 C 1.03932 0.44663 0.1701 0.0
C541 C 0.95459 0.39809 0.1786 0.0
C542 C 0.9105 0.39453 0.18374 0.0
C543 C 0.99561 0.44324 0.17495 0.0
C544 C 0.90882 0.43763 0.1845 0.0
C545 C 0.94928 0.48232 0.18101 0.0
H546 H 0.27265 0.65524 0.09142 0.0
H547 H 0.14409 0.66351 0.09172 0.0
H548 H 0.13727 0.65387 0.05159 0.0
H549 H 0.16707 0.64286 0.0161 0.0
H550 H 0.29555 0.63491 0.0151 0.0
H551 H 0.30317 0.64503 0.05549 0.0
C552 C 0.24322 0.65507 0.08272 0.0
C553 C 0.20901 0.66014 0.0948 0.0
C554 C 0.23939 0.64959 0.05936 0.0
C555 C 0.17113 0.6598 0.08307 0.0
C556 C 0.16706 0.6542 0.06 0.0
C557 C 0.19657 0.64296 0.0247 0.0
C558 C 0.23058 0.63798 0.01247 0.0
C559 C 0.20082 0.6489 0.04796 0.0
C560 C 0.26902 0.63909 0.02399 0.0
C561 C 0.27331 0.64466 0.04715 0.0
H562 H 0.69081 0.1813 0.42096 0.0
H563 H 0.76798 0.105 0.42695 0.0
H564 H 0.77881 0.10816 0.38667 0.0
H565 H 0.76343 0.13047 0.34936 0.0
H566 H 0.68565 0.20658 0.34479 0.0
H567 H 0.67799 0.20548 0.38483 0.0
C568 C 0.71024 0.16544 0.41356 0.0
C569 C 0.72832 0.14268 0.42703 0.0
C570 C 0.71604 0.1672 0.39053 0.0
C571 C 0.75377 0.12284 0.41704 0.0
C572 C 0.75972 0.12443 0.39397 0.0
C573 C 0.74478 0.14673 0.35717 0.0
C574 C 0.72535 0.16882 0.34397 0.0
C575 C 0.74048 0.14606 0.38047 0.0
C576 C 0.70159 0.19 0.35444 0.0
C577 C 0.69696 0.18919 0.37738 0.0
H578 H 0.70115 0.66842 0.76183 0.0
H579 H 0.71635 0.54244 0.75999 0.0
H580 H 0.71361 0.54074 0.71977 0.0
H581 H 0.7048 0.57292 0.68491 0.0
H582 H 0.69135 0.69976 0.68571 0.0
H583 H 0.69461 0.70248 0.72624 0.0
C584 C 0.70414 0.64079 0.75263 0.0
C585 C 0.70888 0.6056 0.76414 0.0
C586 C 0.70239 0.63976 0.72917 0.0
C587 C 0.71256 0.57001 0.75179 0.0
C588 C 0.71095 0.56889 0.72866 0.0
C589 C 0.70324 0.60165 0.69385 0.0
C590 C 0.69787 0.63606 0.68204 0.0
C591 C 0.70563 0.60335 0.71717 0.0
C592 C 0.69484 0.6723 0.69418 0.0
C593 C 0.69705 0.67411 0.71744 0.0
H594 H 0.57043 1.02086 0.54544 0.0
H595 H 0.69329 0.14778 0.57235 0.0
H596 H 0.65697 0.13292 0.60881 0.0
H597 H 0.589 0.08457 0.63269 0.0
H598 H 0.46672 0.9585 0.60485 0.0
H599 H 0.50427 0.97257 0.56893 0.0
C600 C 0.58952 1.04541 0.55923 0.0
C601 C 0.63445 0.08558 0.55611 0.0
C602 C 0.56838 1.03689 0.57993 0.0
C603 C 0.65869 0.11656 0.57429 0.0
C604 C 0.63784 0.1082 0.5951 0.0
C605 C 0.57055 1.06044 0.61869 0.0
C606 C 0.52512 1.02059 0.62138 0.0
C607 C 0.59245 1.06871 0.59805 0.0
C608 C 0.50184 0.98917 0.60322 0.0
C609 C 0.52321 0.99725 0.58269 0.0
H610 H 0.60879 0.51807 0.89585 0.0
H611 H 0.7511 0.63248 0.91102 0.0
H612 H 0.73989 0.61283 0.95036 0.0
H613 H 0.68948 0.56163 0.98025 0.0
H614 H 0.54819 0.44666 0.96367 0.0
H615 H 0.55937 0.46825 0.92492 0.0
C616 C 0.63756 0.53898 0.90767 0.0
C617 C 0.68084 0.57664 0.90045 0.0
C618 C 0.63103 0.52726 0.93 0.0
C619 C 0.71741 0.60333 0.91613 0.0
C620 C 0.71105 0.59199 0.9386 0.0
C621 C 0.66133 0.54119 0.96809 0.0
C622 C 0.61796 0.50269 0.97486 0.0
C623 C 0.66807 0.55371 0.94569 0.0
C624 C 0.58161 0.47683 0.95897 0.0
C625 C 0.58803 0.489 0.93679 0.0
H626 H 1.10811 0.63038 0.21709 0.0
H627 H 0.23668 0.64979 0.24791 0.0
H628 H 0.202 0.64173 0.2847 0.0
H629 H 0.13782 0.63756 0.30782 0.0
H630 H 1.0115 0.62315 0.27602 0.0
H631 H 1.04214 0.61998 0.23984 0.0
C632 C 0.12822 0.63237 0.23192 0.0
C633 C 0.17476 0.64111 0.23009 0.0
C634 C 1.10847 0.62875 0.25274 0.0
C635 C 0.20065 0.64296 0.24915 0.0
C636 C 0.18093 0.63868 0.27008 0.0
C637 C 1.11694 0.63355 0.29297 0.0
C638 C 1.0725 0.63096 0.29471 0.0
C639 C 0.13533 0.63297 0.27208 0.0
C640 C 1.04551 0.62475 0.27529 0.0
C641 C 1.06319 0.62338 0.25453 0.0
loop_
_geom_bond_atom_site_label_1
_geom_bond_atom_site_label_2
_geom_bond_distance
_geom_bond_site_symmetry_2
_ccdc_geom_bond_type
Tb0 C10 2.825 . S
Tb0 O11 2.347 . S
Tb0 O14 2.366 . S
Tb0 O19 2.418 . S
Tb0 O20 2.384 1_455 S
Tb0 O23 2.479 . S
Tb0 O24 2.471 . S
Eu1 O12 2.416 1_655 S
Eu1 O13 2.384 1_655 S
Eu1 O16 2.479 . S
Eu1 O17 2.471 . S
Eu1 O18 2.347 1_655 S
Eu1 O21 2.366 . S
Eu1 C31 2.825 . S
C2 O18 1.259 . S
C2 O19 1.265 . S
C3 O20 1.255 . S
C3 O21 1.265 . S
C4 C6 1.380 . S
C4 C7 1.374 . S
C4 C10 1.507 . S
C5 C6 1.384 . S
C5 C9 1.387 . S
C5 H32 0.930 . S
C6 C4 1.380 . S
C6 C5 1.384 . S
C6 H33 0.931 . S
C7 C4 1.374 . S
C7 C8 1.390 . S
C7 H34 0.930 . S
C8 C7 1.390 . S
C8 C9 1.391 . S
C8 H35 0.930 . S
C9 C5 1.387 . S
C9 C8 1.391 . S
C10 Tb0 2.825 . S
C10 C4 1.507 . S
C10 O23 1.238 . S
C10 O24 1.247 . S
O11 Tb0 2.347 . S
O11 C15 1.259 . S
O12 Eu1 2.416 1_455 S
O12 C15 1.273 . S
O13 Eu1 2.384 1_455 S
O13 C22 1.255 . S
O14 Tb0 2.366 . S
O14 C22 1.265 . S
C15 O11 1.259 . S
C15 O12 1.273 . S
O16 Eu1 2.479 . S
O16 C31 1.238 . S
O17 Eu1 2.471 . S
O17 C31 1.247 . S
O18 Eu1 2.347 1_455 S
O18 C2 1.259 . S
O19 Tb0 2.418 . S
O19 C2 1.265 . S
O20 Tb0 2.384 1_655 S
O20 C3 1.255 . S
O21 Eu1 2.366 . S
O21 C3 1.265 . S
C22 O13 1.255 . S
C22 O14 1.265 . S
O23 Tb0 2.479 . S
O23 C10 1.238 . S
O24 Tb0 2.471 . S
O24 C10 1.247 . S
C25 C28 1.380 . S
C25 C29 1.374 . S
C25 C31 1.507 . S
C26 C27 1.387 . S
C26 C30 1.391 . S
C27 C26 1.387 . S
C27 C28 1.384 . S
C27 H36 0.930 . S
C28 C25 1.380 . S
C28 C27 1.384 . S
C28 H37 0.931 . S
C29 C25 1.374 . S
C29 C30 1.390 . S
C29 H38 0.930 . S
C30 C26 1.391 . S
C30 C29 1.390 . S
C30 H39 0.930 . S
C31 Eu1 2.825 . S
C31 O16 1.238 . S
C31 O17 1.247 . S
C31 C25 1.507 . S
H32 C5 0.930 . S
H33 C6 0.931 . S
H34 C7 0.930 . S
H35 C8 0.930 . S
H36 C27 0.930 . S
H37 C28 0.931 . S
H38 C29 0.930 . S
H39 C30 0.930 . S
Tb40 C50 2.825 . S
Tb40 O51 2.347 . S
Tb40 O54 2.366 . S
Tb40 O59 2.418 . S
Tb40 O60 2.384 1_545 S
Tb40 O63 2.479 . S
Tb40 O64 2.471 . S
Eu41 O52 2.418 . S
Eu41 O53 2.384 . S
Eu41 O56 2.479 1_545 S
Eu41 O57 2.471 1_545 S
Eu41 O58 2.347 . S
Eu41 O61 2.366 1_545 S
Eu41 C71 2.825 1_545 S
C42 O58 1.259 . S
C42 O59 1.265 . S
C43 O60 1.255 . S
C43 O61 1.265 . S
C44 C46 1.380 . S
C44 C47 1.374 . S
C44 C50 1.507 . S
C45 C46 1.384 . S
C45 C49 1.387 . S
C45 H72 0.930 . S
C46 C44 1.380 . S
C46 C45 1.384 . S
C46 H73 0.931 . S
C47 C44 1.374 . S
C47 C48 1.390 . S
C47 H74 0.930 . S
C48 C47 1.390 . S
C48 C49 1.391 . S
C48 H75 0.930 . S
C49 C45 1.387 . S
C49 C48 1.391 . S
C50 Tb40 2.825 . S
C50 C44 1.507 . S
C50 O63 1.238 . S
C50 O64 1.247 . S
O51 Tb40 2.347 . S
O51 C55 1.259 . S
O52 Eu41 2.418 . S
O52 C55 1.265 . S
O53 Eu41 2.384 . S
O53 C62 1.255 . S
O54 Tb40 2.366 . S
O54 C62 1.265 . S
C55 O51 1.259 . S
C55 O52 1.265 . S
O56 Eu41 2.479 1_565 S
O56 C71 1.238 . S
O57 Eu41 2.471 1_565 S
O57 C71 1.247 . S
O58 Eu41 2.347 . S
O58 C42 1.259 . S
O59 Tb40 2.418 . S
O59 C42 1.265 . S
O60 Tb40 2.384 1_565 S
O60 C43 1.255 . S
O61 Eu41 2.366 1_565 S
O61 C43 1.265 . S
C62 O53 1.255 . S
C62 O54 1.265 . S
O63 Tb40 2.479 . S
O63 C50 1.238 . S
O64 Tb40 2.471 . S
O64 C50 1.247 . S
C65 C68 1.380 . S
C65 C69 1.374 . S
C65 C71 1.507 . S
C66 C67 1.387 . S
C66 C70 1.391 . S
C67 C66 1.387 . S
C67 C68 1.384 . S
C67 H76 0.930 . S
C68 C65 1.380 . S
C68 C67 1.384 . S
C68 H77 0.931 . S
C69 C65 1.374 . S
C69 C70 1.390 . S
C69 H78 0.930 . S
C70 C66 1.391 . S
C70 C69 1.390 . S
C70 H79 0.930 . S
C71 Eu41 2.825 1_565 S
C71 O56 1.238 . S
C71 O57 1.247 . S
C71 C65 1.507 . S
H72 C45 0.930 . S
H73 C46 0.931 . S
H74 C47 0.930 . S
H75 C48 0.930 . S
H76 C67 0.930 . S
H77 C68 0.931 . S
H78 C69 0.930 . S
H79 C70 0.930 . S
Tb80 C90 2.825 . S
Tb80 O91 2.347 . S
Tb80 O94 2.366 . S
Tb80 O99 2.418 . S
Tb80 O100 2.384 . S
Tb80 O103 2.479 . S
Tb80 O104 2.471 . S
Eu81 O92 2.418 . S
Eu81 O93 2.384 . S
Eu81 O96 2.479 . S
Eu81 O97 2.471 . S
Eu81 O98 2.347 . S
Eu81 O101 2.366 . S
Eu81 C111 2.825 . S
C82 O98 1.259 . S
C82 O99 1.265 . S
C83 O100 1.255 . S
C83 O101 1.265 . S
C84 C86 1.380 . S
C84 C87 1.374 . S
C84 C90 1.507 . S
C85 C86 1.384 . S
C85 C89 1.387 . S
C85 H112 0.930 . S
C86 C84 1.380 . S
C86 C85 1.384 . S
C86 H113 0.931 . S
C87 C84 1.374 . S
C87 C88 1.390 . S
C87 H114 0.930 . S
C88 C87 1.390 . S
C88 C89 1.391 . S
C88 H115 0.930 . S
C89 C85 1.387 . S
C89 C88 1.391 . S
C90 Tb80 2.825 . S
C90 C84 1.507 . S
C90 O103 1.238 . S
C90 O104 1.247 . S
O91 Tb80 2.347 . S
O91 C95 1.259 . S
O92 Eu81 2.418 . S
O92 C95 1.265 . S
O93 Eu81 2.384 . S
O93 C102 1.255 . S
O94 Tb80 2.366 . S
O94 C102 1.265 . S
C95 O91 1.259 . S
C95 O92 1.265 . S
O96 Eu81 2.479 . S
O96 C111 1.238 . S
O97 Eu81 2.471 . S
O97 C111 1.247 . S
O98 Eu81 2.347 . S
O98 C82 1.259 . S
O99 Tb80 2.418 . S
O99 C82 1.265 . S
O100 Tb80 2.384 . S
O100 C83 1.255 . S
O101 Eu81 2.366 . S
O101 C83 1.265 . S
C102 O93 1.255 . S
C102 O94 1.265 . S
O103 Tb80 2.479 . S
O103 C90 1.238 . S
O104 Tb80 2.471 . S
O104 C90 1.247 . S
C105 C108 1.380 . S
C105 C109 1.374 . S
C105 C111 1.507 . S
C106 C107 1.387 . S
C106 C110 1.391 . S
C107 C106 1.387 . S
C107 C108 1.384 . S
C107 H116 0.930 . S
C108 C105 1.380 . S
C108 C107 1.384 . S
C108 H117 0.931 . S
C109 C105 1.374 . S
C109 C110 1.390 . S
C109 H118 0.930 . S
C110 C106 1.391 . S
C110 C109 1.390 . S
C110 H119 0.930 . S
C111 Eu81 2.825 . S
C111 O96 1.238 . S
C111 O97 1.247 . S
C111 C105 1.507 . S
H112 C85 0.930 . S
H113 C86 0.931 . S
H114 C87 0.930 . S
H115 C88 0.930 . S
H116 C107 0.930 . S
H117 C108 0.931 . S
H118 C109 0.930 . S
H119 C110 0.930 . S
C120 C121 1.386 . S
C120 C122 1.397 . S
C120 H144 0.931 . S
C121 C120 1.386 . S
C121 C125 1.397 1_545 S
C122 C120 1.397 . S
C122 C123 1.384 . S
C122 H145 0.930 . S
C123 C122 1.384 . S
C123 C124 1.377 1_545 S
C123 C126 1.481 . S
C124 C123 1.377 1_565 S
C124 C125 1.389 . S
C124 H146 0.929 . S
C125 C121 1.397 1_565 S
C125 C124 1.389 . S
C125 H147 0.931 . S
C126 C123 1.481 . S
C126 C127 1.387 . S
C126 C131 1.390 1_545 S
C127 C126 1.387 . S
C127 C128 1.401 . S
C127 H148 0.930 . S
C128 C127 1.401 . S
C128 C129 1.376 . S
C128 C137 1.511 . S
C129 C128 1.376 . S
C129 C130 1.392 1_545 S
C129 H150 0.931 . S
C130 C129 1.392 1_565 S
C130 C131 1.361 . S
C130 C132 1.500 . S
C131 C126 1.390 1_565 S
C131 C130 1.361 . S
C131 H149 0.931 . S
C132 C130 1.500 . S
C132 C133 1.371 . S
C132 C134 1.365 . S
C133 C132 1.371 . S
C133 C143 1.386 . S
C133 H151 0.931 . S
C134 C132 1.365 . S
C134 C135 1.409 . S
C134 H152 0.929 . S
C135 C134 1.409 . S
C135 C136 1.380 . S
C135 H153 0.930 . S
C136 C135 1.380 . S
C136 C143 1.357 . S
C137 C128 1.511 . S
C137 C138 1.341 . S
C137 C139 1.371 . S
C138 C137 1.341 . S
C138 C142 1.394 . S
C138 H154 0.930 . S
C139 C137 1.371 . S
C139 C140 1.392 . S
C139 H155 0.931 . S
C140 C139 1.392 . S
C140 C141 1.331 . S
C140 H158 0.932 . S
C141 C140 1.331 . S
C141 C142 1.336 . S
C142 C138 1.394 . S
C142 C141 1.336 . S
C142 H157 0.929 . S
C143 C133 1.386 . S
C143 C136 1.357 . S
C143 H156 0.928 . S
H144 C120 0.931 . S
H145 C122 0.930 . S
H146 C124 0.929 . S
H147 C125 0.931 . S
H148 C127 0.930 . S
H149 C131 0.931 . S
H150 C129 0.931 . S
H151 C133 0.931 . S
H152 C134 0.929 . S
H153 C135 0.930 . S
H154 C138 0.930 . S
H155 C139 0.931 . S
H156 C143 0.928 . S
H157 C142 0.929 . S
H158 C140 0.932 . S
C159 C160 1.386 . S
C159 C161 1.397 . S
C159 H183 0.931 . S
C160 C159 1.386 . S
C160 C164 1.397 . S
C161 C159 1.397 . S
C161 C162 1.384 . S
C161 H184 0.930 . S
C162 C161 1.384 . S
C162 C163 1.377 . S
C162 C165 1.481 . S
C163 C162 1.377 . S
C163 C164 1.389 . S
C163 H185 0.929 . S
C164 C160 1.397 . S
C164 C163 1.389 . S
C164 H186 0.931 . S
C165 C162 1.481 . S
C165 C166 1.387 . S
C165 C170 1.390 . S
C166 C165 1.387 . S
C166 C167 1.401 . S
C166 H187 0.930 . S
C167 C166 1.401 . S
C167 C168 1.376 . S
C167 C176 1.511 . S
C168 C167 1.376 . S
C168 C169 1.392 . S
C168 H189 0.931 . S
C169 C168 1.392 . S
C169 C170 1.361 . S
C169 C171 1.500 . S
C170 C165 1.390 . S
C170 C169 1.361 . S
C170 H188 0.931 . S
C171 C169 1.500 . S
C171 C172 1.371 . S
C171 C173 1.365 . S
C172 C171 1.371 . S
C172 C182 1.386 . S
C172 H190 0.931 . S
C173 C171 1.365 . S
C173 C174 1.409 . S
C173 H191 0.929 . S
C174 C173 1.409 . S
C174 C175 1.380 . S
C174 H192 0.930 . S
C175 C174 1.380 . S
C175 C182 1.357 . S
C176 C167 1.511 . S
C176 C177 1.341 . S
C176 C178 1.371 . S
C177 C176 1.341 . S
C177 C181 1.394 . S
C177 H193 0.930 . S
C178 C176 1.371 . S
C178 C179 1.392 . S
C178 H194 0.931 . S
C179 C178 1.392 . S
C179 C180 1.331 . S
C179 H197 0.932 . S
C180 C179 1.331 . S
C180 C181 1.336 . S
C181 C177 1.394 . S
C181 C180 1.336 . S
C181 H196 0.929 . S
C182 C172 1.386 . S
C182 C175 1.357 . S
C182 H195 0.928 . S
H183 C159 0.931 . S
H184 C161 0.930 . S
H185 C163 0.929 . S
H186 C164 0.931 . S
H187 C166 0.930 . S
H188 C170 0.931 . S
H189 C168 0.931 . S
H190 C172 0.931 . S
H191 C173 0.929 . S
H192 C174 0.930 . S
H193 C177 0.930 . S
H194 C178 0.931 . S
H195 C182 0.928 . S
H196 C181 0.929 . S
H197 C179 0.932 . S
C198 C199 1.386 . S
C198 C200 1.397 . S
C198 H222 0.931 . S
C199 C198 1.386 . S
C199 C203 1.397 1_455 S
C200 C198 1.397 . S
C200 C201 1.384 . S
C200 H223 0.930 . S
C201 C200 1.384 . S
C201 C202 1.377 1_455 S
C201 C204 1.481 . S
C202 C201 1.377 1_655 S
C202 C203 1.389 . S
C202 H224 0.929 . S
C203 C199 1.397 1_655 S
C203 C202 1.389 . S
C203 H225 0.931 . S
C204 C201 1.481 . S
C204 C205 1.387 . S
C204 C209 1.390 1_455 S
C205 C204 1.387 . S
C205 C206 1.401 . S
C205 H226 0.930 . S
C206 C205 1.401 . S
C206 C207 1.376 . S
C206 C215 1.511 . S
C207 C206 1.376 . S
C207 C208 1.392 1_455 S
C207 H228 0.931 . S
C208 C207 1.392 1_655 S
C208 C209 1.361 . S
C208 C210 1.500 . S
C209 C204 1.390 1_655 S
C209 C208 1.361 . S
C209 H227 0.931 . S
C210 C208 1.500 . S
C210 C211 1.371 . S
C210 C212 1.365 . S
C211 C210 1.371 . S
C211 C221 1.386 . S
C211 H229 0.931 . S
C212 C210 1.365 . S
C212 C213 1.409 . S
C212 H230 0.929 . S
C213 C212 1.409 . S
C213 C214 1.380 . S
C213 H231 0.930 . S
C214 C213 1.380 . S
C214 C221 1.357 . S
C215 C206 1.511 . S
C215 C216 1.341 . S
C215 C217 1.371 . S
C216 C215 1.341 . S
C216 C220 1.394 . S
C216 H232 0.930 . S
C217 C215 1.371 . S
C217 C218 1.392 . S
C217 H233 0.931 . S
C218 C217 1.392 . S
C218 C219 1.331 . S
C218 H236 0.932 . S
C219 C218 1.331 . S
C219 C220 1.336 . S
C220 C216 1.394 . S
C220 C219 1.336 . S
C220 H235 0.929 . S
C221 C211 1.386 . S
C221 C214 1.357 . S
C221 H234 0.928 . S
H222 C198 0.931 . S
H223 C200 0.930 . S
H224 C202 0.929 . S
H225 C203 0.931 . S
H226 C205 0.930 . S
H227 C209 0.931 . S
H228 C207 0.931 . S
H229 C211 0.931 . S
H230 C212 0.929 . S
H231 C213 0.930 . S
H232 C216 0.930 . S
H233 C217 0.931 . S
H234 C221 0.928 . S
H235 C220 0.929 . S
H236 C218 0.932 . S
C237 C238 1.386 1_655 S
C237 C239 1.397 . S
C237 H261 0.931 . S
C238 C237 1.386 1_455 S
C238 C242 1.397 . S
C239 C237 1.397 . S
C239 C240 1.384 1_655 S
C239 H262 0.930 . S
C240 C239 1.384 1_455 S
C240 C241 1.377 . S
C240 C243 1.481 . S
C241 C240 1.377 . S
C241 C242 1.389 . S
C241 H263 0.929 . S
C242 C238 1.397 . S
C242 C241 1.389 . S
C242 H264 0.931 . S
C243 C240 1.481 . S
C243 C244 1.387 1_455 S
C243 C248 1.390 . S
C244 C243 1.387 1_655 S
C244 C245 1.401 . S
C244 H265 0.930 . S
C245 C244 1.401 . S
C245 C246 1.376 1_655 S
C245 C254 1.511 . S
C246 C245 1.376 1_455 S
C246 C247 1.392 . S
C246 H267 0.931 . S
C247 C246 1.392 . S
C247 C248 1.361 . S
C247 C249 1.500 . S
C248 C243 1.390 . S
C248 C247 1.361 . S
C248 H266 0.931 . S
C249 C247 1.500 . S
C249 C250 1.371 . S
C249 C251 1.365 . S
C250 C249 1.371 . S
C250 C260 1.386 . S
C250 H268 0.931 . S
C251 C249 1.365 . S
C251 C252 1.409 . S
C251 H269 0.929 . S
C252 C251 1.409 . S
C252 C253 1.380 . S
C252 H270 0.930 . S
C253 C252 1.380 . S
C253 C260 1.357 . S
C254 C245 1.511 . S
C254 C255 1.341 . S
C254 C256 1.371 . S
C255 C254 1.341 . S
C255 C259 1.394 . S
C255 H271 0.930 . S
C256 C254 1.371 . S
C256 C257 1.392 . S
C256 H272 0.931 . S
C257 C256 1.392 . S
C257 C258 1.331 . S
C257 H275 0.932 . S
C258 C257 1.331 . S
C258 C259 1.336 . S
C259 C255 1.394 . S
C259 C258 1.336 . S
C259 H274 0.929 . S
C260 C250 1.386 . S
C260 C253 1.357 . S
C260 H273 0.928 . S
H261 C237 0.931 . S
H262 C239 0.930 . S
H263 C241 0.929 . S
H264 C242 0.931 . S
H265 C244 0.930 . S
H266 C248 0.931 . S
H267 C246 0.931 . S
H268 C250 0.931 . S
H269 C251 0.929 . S
H270 C252 0.930 . S
H271 C255 0.930 . S
H272 C256 0.931 . S
H273 C260 0.928 . S
H274 C259 0.929 . S
H275 C257 0.932 . S
C276 C277 1.386 1_565 S
C276 C278 1.397 . S
C276 H300 0.931 . S
C277 C276 1.386 1_545 S
C277 C281 1.397 . S
C278 C276 1.397 . S
C278 C279 1.384 1_565 S
C278 H301 0.930 . S
C279 C278 1.384 1_545 S
C279 C280 1.377 . S
C279 C282 1.481 . S
C280 C279 1.377 . S
C280 C281 1.389 . S
C280 H302 0.929 . S
C281 C277 1.397 . S
C281 C280 1.389 . S
C281 H303 0.931 . S
C282 C279 1.481 . S
C282 C283 1.360 1_545 S
C282 C287 1.417 . S
C283 C282 1.360 1_565 S
C283 C284 1.401 . S
C283 H304 0.930 . S
C284 C283 1.401 . S
C284 C285 1.370 1_565 S
C284 C293 1.511 . S
C285 C284 1.370 1_545 S
C285 C286 1.399 . S
C285 H306 0.931 1_545 S
C286 C285 1.399 . S
C286 C287 1.361 . S
C286 C288 1.500 . S
C287 C282 1.417 . S
C287 C286 1.361 . S
C287 H305 0.931 . S
C288 C286 1.500 . S
C288 C289 1.371 . S
C288 C290 1.365 . S
C289 C288 1.371 . S
C289 C299 1.386 . S
C289 H307 0.931 . S
C290 C288 1.365 . S
C290 C291 1.409 . S
C290 H308 0.929 . S
C291 C290 1.409 . S
C291 C292 1.380 . S
C291 H309 0.930 . S
C292 C291 1.380 . S
C292 C299 1.357 . S
C293 C284 1.511 . S
C293 C294 1.341 . S
C293 C295 1.371 . S
C294 C293 1.341 . S
C294 C298 1.394 . S
C294 H310 0.930 . S
C295 C293 1.371 . S
C295 C296 1.392 . S
C295 H311 0.931 . S
C296 C295 1.392 . S
C296 C297 1.331 . S
C296 H314 0.932 . S
C297 C296 1.331 . S
C297 C298 1.336 . S
C298 C294 1.394 . S
C298 C297 1.336 . S
C298 H313 0.929 . S
C299 C289 1.386 . S
C299 C292 1.357 . S
C299 H312 0.928 . S
H300 C276 0.931 . S
H301 C278 0.930 . S
H302 C280 0.929 . S
H303 C281 0.931 . S
H304 C283 0.930 . S
H305 C287 0.931 . S
H306 C285 0.931 1_565 S
H307 C289 0.931 . S
H308 C290 0.929 . S
H309 C291 0.930 . S
H310 C294 0.930 . S
H311 C295 0.931 . S
H312 C299 0.928 . S
H313 C298 0.929 . S
H314 C296 0.932 . S
C315 C316 1.386 1_554 S
C315 C317 1.397 . S
C315 H339 0.931 1_554 S
C316 C315 1.386 1_556 S
C316 C320 1.397 1_556 S
C317 C315 1.397 . S
C317 C318 1.384 . S
C317 H340 0.930 . S
C318 C317 1.384 . S
C318 C319 1.377 . S
C318 C321 1.481 . S
C319 C318 1.377 . S
C319 C320 1.389 . S
C319 H341 0.929 . S
C320 C316 1.397 1_554 S
C320 C319 1.389 . S
C320 H342 0.908 1_554 S
C321 C318 1.481 . S
C321 C322 1.387 . S
C321 C326 1.390 . S
C322 C321 1.387 . S
C322 C323 1.401 . S
C322 H343 0.930 . S
C323 C322 1.401 . S
C323 C324 1.376 . S
C323 C332 1.511 . S
C324 C323 1.376 . S
C324 C325 1.392 . S
C324 H345 0.931 . S
C325 C324 1.392 . S
C325 C326 1.361 . S
C325 C327 1.500 . S
C326 C321 1.390 . S
C326 C325 1.361 . S
C326 H344 0.931 . S
C327 C325 1.500 . S
C327 C328 1.371 . S
C327 C329 1.365 . S
C328 C327 1.371 . S
C328 C338 1.386 . S
C328 H346 0.931 . S
C329 C327 1.365 . S
C329 C330 1.409 . S
C329 H347 0.929 . S
C330 C329 1.409 . S
C330 C331 1.380 . S
C330 H348 0.930 . S
C331 C330 1.380 . S
C331 C338 1.357 . S
C332 C323 1.511 . S
C332 C333 1.341 . S
C332 C334 1.371 . S
C333 C332 1.341 . S
C333 C337 1.394 . S
C333 H349 0.930 . S
C334 C332 1.371 . S
C334 C335 1.392 . S
C334 H350 0.931 . S
C335 C334 1.392 . S
C335 C336 1.331 . S
C335 H353 0.932 . S
C336 C335 1.331 . S
C336 C337 1.336 . S
C337 C333 1.394 . S
C337 C336 1.336 . S
C337 H352 0.929 . S
C338 C328 1.386 . S
C338 C331 1.357 . S
C338 H351 0.928 . S
H339 C315 0.931 1_556 S
H340 C317 0.930 . S
H341 C319 0.929 . S
H342 C320 0.908 1_556 S
H343 C322 0.930 . S
H344 C326 0.931 . S
H345 C324 0.931 . S
H346 C328 0.931 . S
H347 C329 0.929 . S
H348 C330 0.930 . S
H349 C333 0.930 . S
H350 C334 0.931 . S
H351 C338 0.928 . S
H352 C337 0.929 . S
H353 C335 0.932 . S
H354 C360 0.930 . S
H355 C363 0.930 . S
H356 C364 0.930 . S
H357 C365 0.930 . S
H358 C368 0.930 . S
H359 C369 0.930 . S
C360 H354 0.930 . S
C360 C361 1.355 . S
C360 C362 1.415 . S
C361 C360 1.355 . S
C361 C363 1.419 . S
C362 C360 1.415 . S
C362 C367 1.425 . S
C362 C369 1.409 . S
C363 H355 0.930 . S
C363 C361 1.419 . S
C363 C364 1.362 . S
C364 H356 0.930 . S
C364 C363 1.362 . S
C364 C367 1.409 . S
C365 H357 0.930 . S
C365 C366 1.355 . S
C365 C367 1.415 . S
C366 C365 1.355 . S
C366 C368 1.419 . S
C367 C362 1.425 . S
C367 C364 1.409 . S
C367 C365 1.415 . S
C368 H358 0.930 . S
C368 C366 1.419 . S
C368 C369 1.362 . S
C369 H359 0.930 . S
C369 C362 1.409 . S
C369 C368 1.362 . S
H370 C376 0.930 . S
H371 C379 0.930 . S
H372 C380 0.930 . S
H373 C381 0.930 . S
H374 C384 0.930 . S
H375 C385 0.930 . S
C376 H370 0.930 . S
C376 C377 1.355 . S
C376 C378 1.415 . S
C377 C376 1.355 . S
C377 C379 1.419 . S
C378 C376 1.415 . S
C378 C383 1.425 . S
C378 C385 1.409 . S
C379 H371 0.930 . S
C379 C377 1.419 . S
C379 C380 1.362 . S
C380 H372 0.930 . S
C380 C379 1.362 . S
C380 C383 1.409 . S
C381 H373 0.930 . S
C381 C382 1.355 . S
C381 C383 1.415 . S
C382 C381 1.355 . S
C382 C384 1.419 . S
C383 C378 1.425 . S
C383 C380 1.409 . S
C383 C381 1.415 . S
C384 H374 0.930 . S
C384 C382 1.419 . S
C384 C385 1.362 . S
C385 H375 0.930 . S
C385 C378 1.409 . S
C385 C384 1.362 . S
H386 C392 0.930 . S
H387 C395 0.930 . S
H388 C396 0.930 . S
H389 C397 0.930 . S
H390 C400 0.930 . S
H391 C401 0.930 . S
C392 H386 0.930 . S
C392 C393 1.355 . S
C392 C394 1.415 . S
C393 C392 1.355 . S
C393 C395 1.419 . S
C394 C392 1.415 . S
C394 C399 1.425 . S
C394 C401 1.409 . S
C395 H387 0.930 . S
C395 C393 1.419 . S
C395 C396 1.362 . S
C396 H388 0.930 . S
C396 C395 1.362 . S
C396 C399 1.409 . S
C397 H389 0.930 . S
C397 C398 1.355 . S
C397 C399 1.415 . S
C398 C397 1.355 . S
C398 C400 1.419 . S
C399 C394 1.425 . S
C399 C396 1.409 . S
C399 C397 1.415 . S
C400 H390 0.930 . S
C400 C398 1.419 . S
C400 C401 1.362 . S
C401 H391 0.930 . S
C401 C394 1.409 . S
C401 C400 1.362 . S
H402 C408 0.930 . S
H403 C411 0.930 . S
H404 C412 0.930 . S
H405 C413 0.930 . S
H406 C416 0.930 . S
H407 C417 0.930 . S
C408 H402 0.930 . S
C408 C409 1.355 . S
C408 C410 1.415 . S
C409 C408 1.355 . S
C409 C411 1.419 . S
C410 C408 1.415 . S
C410 C415 1.425 . S
C410 C417 1.409 . S
C411 H403 0.930 . S
C411 C409 1.419 . S
C411 C412 1.362 . S
C412 H404 0.930 . S
C412 C411 1.362 . S
C412 C415 1.409 . S
C413 H405 0.930 . S
C413 C414 1.355 . S
C413 C415 1.415 . S
C414 C413 1.355 . S
C414 C416 1.419 . S
C415 C410 1.425 . S
C415 C412 1.409 . S
C415 C413 1.415 . S
C416 H406 0.930 . S
C416 C414 1.419 . S
C416 C417 1.362 . S
C417 H407 0.930 . S
C417 C410 1.409 . S
C417 C416 1.362 . S
H418 C424 0.930 . S
H419 C427 0.930 . S
H420 C428 0.930 . S
H421 C429 0.930 . S
H422 C432 0.930 . S
H423 C433 0.930 . S
C424 H418 0.930 . S
C424 C425 1.355 . S
C424 C426 1.415 . S
C425 C424 1.355 . S
C425 C427 1.419 . S
C426 C424 1.415 . S
C426 C431 1.425 . S
C426 C433 1.409 . S
C427 H419 0.930 . S
C427 C425 1.419 . S
C427 C428 1.362 . S
C428 H420 0.930 . S
C428 C427 1.362 . S
C428 C431 1.409 . S
C429 H421 0.930 . S
C429 C430 1.355 . S
C429 C431 1.415 . S
C430 C429 1.355 . S
C430 C432 1.419 . S
C431 C426 1.425 . S
C431 C428 1.409 . S
C431 C429 1.415 . S
C432 H422 0.930 . S
C432 C430 1.419 . S
C432 C433 1.362 . S
C433 H423 0.930 . S
C433 C426 1.409 . S
C433 C432 1.362 . S
H434 C440 0.930 . S
H435 C443 0.930 . S
H436 C444 0.930 . S
H437 C445 0.930 . S
H438 C448 0.930 . S
H439 C449 0.930 . S
C440 H434 0.930 . S
C440 C441 1.355 . S
C440 C442 1.415 . S
C441 C440 1.355 . S
C441 C443 1.419 . S
C442 C440 1.415 . S
C442 C447 1.425 . S
C442 C449 1.409 . S
C443 H435 0.930 . S
C443 C441 1.419 . S
C443 C444 1.362 . S
C444 H436 0.930 . S
C444 C443 1.362 . S
C444 C447 1.409 . S
C445 H437 0.930 . S
C445 C446 1.355 . S
C445 C447 1.415 . S
C446 C445 1.355 . S
C446 C448 1.419 . S
C447 C442 1.425 . S
C447 C444 1.409 . S
C447 C445 1.415 . S
C448 H438 0.930 . S
C448 C446 1.419 . S
C448 C449 1.362 . S
C449 H439 0.930 . S
C449 C442 1.409 . S
C449 C448 1.362 . S
H450 C456 0.930 . S
H451 C459 0.930 . S
H452 C460 0.930 . S
H453 C461 0.930 . S
H454 C464 0.930 . S
H455 C465 0.930 . S
C456 H450 0.930 . S
C456 C457 1.355 . S
C456 C458 1.415 . S
C457 C456 1.355 . S
C457 C459 1.419 . S
C458 C456 1.415 . S
C458 C463 1.425 . S
C458 C465 1.409 . S
C459 H451 0.930 . S
C459 C457 1.419 . S
C459 C460 1.362 . S
C460 H452 0.930 . S
C460 C459 1.362 . S
C460 C463 1.409 . S
C461 H453 0.930 . S
C461 C462 1.355 . S
C461 C463 1.415 . S
C462 C461 1.355 . S
C462 C464 1.419 . S
C463 C458 1.425 . S
C463 C460 1.409 . S
C463 C461 1.415 . S
C464 H454 0.930 . S
C464 C462 1.419 . S
C464 C465 1.362 . S
C465 H455 0.930 . S
C465 C458 1.409 . S
C465 C464 1.362 . S
H466 C472 0.930 . S
H467 C475 0.930 . S
H468 C476 0.930 . S
H469 C477 0.930 . S
H470 C480 0.930 . S
H471 C481 0.930 . S
C472 H466 0.930 . S
C472 C473 1.355 . S
C472 C474 1.415 . S
C473 C472 1.355 . S
C473 C475 1.419 . S
C474 C472 1.415 . S
C474 C479 1.425 . S
C474 C481 1.409 . S
C475 H467 0.930 . S
C475 C473 1.419 . S
C475 C476 1.362 . S
C476 H468 0.930 . S
C476 C475 1.362 . S
C476 C479 1.409 . S
C477 H469 0.930 . S
C477 C478 1.355 . S
C477 C479 1.415 . S
C478 C477 1.355 . S
C478 C480 1.419 . S
C479 C474 1.425 . S
C479 C476 1.409 . S
C479 C477 1.415 . S
C480 H470 0.930 . S
C480 C478 1.419 . S
C480 C481 1.362 . S
C481 H471 0.930 . S
C481 C474 1.409 . S
C481 C480 1.362 . S
H482 C488 0.930 . S
H483 C491 0.930 . S
H484 C492 0.930 . S
H485 C493 0.930 . S
H486 C496 0.930 . S
H487 C497 0.930 . S
C488 H482 0.930 . S
C488 C489 1.355 . S
C488 C490 1.415 . S
C489 C488 1.355 . S
C489 C491 1.419 . S
C490 C488 1.415 . S
C490 C495 1.425 . S
C490 C497 1.409 . S
C491 H483 0.930 . S
C491 C489 1.419 . S
C491 C492 1.362 . S
C492 H484 0.930 . S
C492 C491 1.362 . S
C492 C495 1.409 . S
C493 H485 0.930 . S
C493 C494 1.355 . S
C493 C495 1.415 . S
C494 C493 1.355 . S
C494 C496 1.419 . S
C495 C490 1.425 . S
C495 C492 1.409 . S
C495 C493 1.415 . S
C496 H486 0.930 . S
C496 C494 1.419 . S
C496 C497 1.362 . S
C497 H487 0.930 . S
C497 C490 1.409 . S
C497 C496 1.362 . S
H498 C504 0.930 . S
H499 C507 0.930 . S
H500 C508 0.930 . S
H501 C509 0.930 . S
H502 C512 0.930 . S
H503 C513 0.930 . S
C504 H498 0.930 . S
C504 C505 1.355 . S
C504 C506 1.415 . S
C505 C504 1.355 . S
C505 C507 1.419 . S
C506 C504 1.415 . S
C506 C511 1.425 . S
C506 C513 1.409 . S
C507 H499 0.930 . S
C507 C505 1.419 . S
C507 C508 1.362 . S
C508 H500 0.930 . S
C508 C507 1.362 . S
C508 C511 1.409 . S
C509 H501 0.930 . S
C509 C510 1.355 . S
C509 C511 1.415 . S
C510 C509 1.355 . S
C510 C512 1.419 . S
C511 C506 1.425 . S
C511 C508 1.409 . S
C511 C509 1.415 . S
C512 H502 0.930 . S
C512 C510 1.419 . S
C512 C513 1.362 . S
C513 H503 0.930 . S
C513 C506 1.409 . S
C513 C512 1.362 . S
H514 C520 0.930 . S
H515 C523 0.930 . S
H516 C524 0.930 . S
H517 C525 0.930 . S
H518 C528 0.930 . S
H519 C529 0.930 . S
C520 H514 0.930 . S
C520 C521 1.355 . S
C520 C522 1.415 . S
C521 C520 1.355 . S
C521 C523 1.419 . S
C522 C520 1.415 . S
C522 C527 1.425 . S
C522 C529 1.409 . S
C523 H515 0.930 . S
C523 C521 1.419 . S
C523 C524 1.362 . S
C524 H516 0.930 . S
C524 C523 1.362 . S
C524 C527 1.409 . S
C525 H517 0.930 . S
C525 C526 1.355 . S
C525 C527 1.415 . S
C526 C525 1.355 . S
C526 C528 1.419 . S
C527 C522 1.425 . S
C527 C524 1.409 . S
C527 C525 1.415 . S
C528 H518 0.930 . S
C528 C526 1.419 . S
C528 C529 1.362 . S
C529 H519 0.930 . S
C529 C522 1.409 . S
C529 C528 1.362 . S
H530 C536 0.930 . S
H531 C539 0.930 . S
H532 C540 0.930 . S
H533 C541 0.930 . S
H534 C544 0.930 . S
H535 C545 0.930 . S
C536 H530 0.930 . S
C536 C537 1.355 . S
C536 C538 1.415 . S
C537 C536 1.355 . S
C537 C539 1.419 . S
C538 C536 1.415 . S
C538 C543 1.425 . S
C538 C545 1.409 . S
C539 H531 0.930 . S
C539 C537 1.419 . S
C539 C540 1.362 . S
C540 H532 0.930 . S
C540 C539 1.362 . S
C540 C543 1.409 . S
C541 H533 0.930 . S
C541 C542 1.355 . S
C541 C543 1.415 . S
C542 C541 1.355 . S
C542 C544 1.419 . S
C543 C538 1.425 . S
C543 C540 1.409 . S
C543 C541 1.415 . S
C544 H534 0.930 . S
C544 C542 1.419 . S
C544 C545 1.362 . S
C545 H535 0.930 . S
C545 C538 1.409 . S
C545 C544 1.362 . S
H546 C552 0.930 . S
H547 C555 0.930 . S
H548 C556 0.930 . S
H549 C557 0.930 . S
H550 C560 0.930 . S
H551 C561 0.930 . S
C552 H546 0.930 . S
C552 C553 1.355 . S
C552 C554 1.415 . S
C553 C552 1.355 . S
C553 C555 1.419 1_455 S
C554 C552 1.415 . S
C554 C559 1.425 . S
C554 C561 1.409 . S
C555 H547 0.930 . S
C555 C553 1.419 1_655 S
C555 C556 1.362 . S
C556 H548 0.930 . S
C556 C555 1.362 . S
C556 C559 1.409 1_655 S
C557 H549 0.930 . S
C557 C558 1.355 1_655 S
C557 C559 1.415 1_655 S
C558 C557 1.355 1_455 S
C558 C560 1.419 . S
C559 C554 1.425 . S
C559 C556 1.409 1_455 S
C559 C557 1.415 1_455 S
C560 H550 0.930 . S
C560 C558 1.419 . S
C560 C561 1.362 . S
C561 H551 0.930 . S
C561 C554 1.409 . S
C561 C560 1.362 . S
H562 C568 0.930 . S
H563 C571 0.937 . S
H564 C572 0.930 . S
H565 C573 0.930 1_565 S
H566 C576 0.930 . S
H567 C577 0.930 . S
C568 H562 0.930 . S
C568 C569 1.355 . S
C568 C570 1.415 . S
C569 C568 1.355 . S
C569 C571 1.410 1_545 S
C570 C568 1.415 . S
C570 C575 1.425 . S
C570 C577 1.409 . S
C571 H563 0.937 . S
C571 C569 1.410 1_565 S
C571 C572 1.364 . S
C572 H564 0.930 . S
C572 C571 1.364 . S
C572 C575 1.409 1_565 S
C573 H565 0.930 1_545 S
C573 C574 1.355 . S
C573 C575 1.415 . S
C574 C573 1.355 . S
C574 C576 1.419 . S
C575 C570 1.425 . S
C575 C572 1.409 1_545 S
C575 C573 1.415 . S
C576 H566 0.930 . S
C576 C574 1.419 . S
C576 C577 1.362 . S
C577 H567 0.930 . S
C577 C570 1.409 . S
C577 C576 1.362 . S
H578 C584 0.930 . S
H579 C587 0.930 . S
H580 C588 0.930 . S
H581 C589 0.930 . S
H582 C592 0.930 . S
H583 C593 0.930 . S
C584 H578 0.930 . S
C584 C585 1.355 . S
C584 C586 1.415 . S
C585 C584 1.355 . S
C585 C587 1.419 . S
C586 C584 1.415 . S
C586 C591 1.425 . S
C586 C593 1.409 . S
C587 H579 0.930 . S
C587 C585 1.419 . S
C587 C588 1.362 . S
C588 H580 0.930 . S
C588 C587 1.362 . S
C588 C591 1.409 . S
C589 H581 0.930 . S
C589 C590 1.355 . S
C589 C591 1.415 . S
C590 C589 1.355 . S
C590 C592 1.419 . S
C591 C586 1.425 . S
C591 C588 1.409 . S
C591 C589 1.415 . S
C592 H582 0.930 . S
C592 C590 1.419 . S
C592 C593 1.362 . S
C593 H583 0.930 . S
C593 C586 1.409 . S
C593 C592 1.362 . S
H594 C600 0.930 1_565 S
H595 C603 0.930 . S
H596 C604 0.930 . S
H597 C605 0.930 . S
H598 C608 0.930 . S
H599 C609 0.930 . S
C600 H594 0.930 1_545 S
C600 C601 1.355 . S
C600 C602 1.415 . S
C601 C600 1.355 . S
C601 C603 1.419 . S
C602 C600 1.415 . S
C602 C607 1.425 . S
C602 C609 1.409 1_545 S
C603 H595 0.930 . S
C603 C601 1.419 . S
C603 C604 1.362 . S
C604 H596 0.930 . S
C604 C603 1.362 . S
C604 C607 1.409 . S
C605 H597 0.930 . S
C605 C606 1.355 . S
C605 C607 1.415 . S
C606 C605 1.355 . S
C606 C608 1.419 1_545 S
C607 C602 1.425 . S
C607 C604 1.409 . S
C607 C605 1.415 . S
C608 H598 0.930 . S
C608 C606 1.419 1_565 S
C608 C609 1.362 . S
C609 H599 0.930 . S
C609 C602 1.409 1_565 S
C609 C608 1.362 . S
H610 C616 0.930 . S
H611 C619 0.930 . S
H612 C620 0.930 . S
H613 C621 0.930 . S
H614 C624 0.930 . S
H615 C625 0.930 . S
C616 H610 0.930 . S
C616 C617 1.355 . S
C616 C618 1.415 . S
C617 C616 1.355 . S
C617 C619 1.419 . S
C618 C616 1.415 . S
C618 C623 1.425 . S
C618 C625 1.409 . S
C619 H611 0.930 . S
C619 C617 1.419 . S
C619 C620 1.362 . S
C620 H612 0.930 . S
C620 C619 1.362 . S
C620 C623 1.409 . S
C621 H613 0.930 . S
C621 C622 1.355 . S
C621 C623 1.415 . S
C622 C621 1.355 . S
C622 C624 1.419 . S
C623 C618 1.425 . S
C623 C620 1.409 . S
C623 C621 1.415 . S
C624 H614 0.930 . S
C624 C622 1.419 . S
C624 C625 1.362 . S
C625 H615 0.930 . S
C625 C618 1.409 . S
C625 C624 1.362 . S
H626 C632 0.930 . S
H627 C635 0.930 . S
H628 C636 0.930 . S
H629 C637 0.930 . S
H630 C640 0.930 . S
H631 C641 0.930 . S
C632 H626 0.930 . S
C632 C633 1.355 . S
C632 C634 1.415 . S
C633 C632 1.355 . S
C633 C635 1.419 . S
C634 C632 1.415 . S
C634 C639 1.425 . S
C634 C641 1.409 1_455 S
C635 H627 0.930 . S
C635 C633 1.419 . S
C635 C636 1.362 . S
C636 H628 0.930 . S
C636 C635 1.362 . S
C636 C639 1.409 . S
C637 H629 0.930 . S
C637 C638 1.355 . S
C637 C639 1.415 . S
C638 C637 1.355 . S
C638 C640 1.419 1_455 S
C639 C634 1.425 . S
C639 C636 1.409 . S
C639 C637 1.415 . S
C640 H630 0.930 . S
C640 C638 1.419 1_655 S
C640 C641 1.362 . S
C641 H631 0.930 . S
C641 C634 1.409 1_655 S
C641 C640 1.362 . S
C361 C9 0.653 . S
C366 C331 0.553 . S
C377 C49 0.348 . S
C382 C258 0.360 . S
C393 C89 0.443 . S
C398 C297 0.310 . S
C409 C26 0.379 . S
C414 C336 0.404 . S
C430 C253 0.544 . S
C425 C66 0.546 . S
C446 C292 0.516 . S
C441 C106 0.493 . S
C457 C43 3.003 . S
C462 C180 2.932 . S
C473 C83 3.139 . S
C478 C214 3.085 . S
C489 C22 3.182 . S
C494 C136 3.092 . S
C510 C175 3.106 . S
C505 C62 3.180 . S
C526 C219 2.988 . S
C521 C102 3.038 . S
C537 C3 2.993 . S
C542 C141 2.951 . S
C558 C199 1.791 1_554 S
C553 C15 1.706 . S
C569 C55 1.736 . S
C574 C121 1.792 . S
C585 C95 1.715 . S
C590 C160 1.788 . S
C606 C277 1.079 . S
C601 C42 1.037 . S
C622 C316 1.089 . S
C617 C82 1.050 . S
C633 C2 1.025 . S
C638 C238 1.070 . S
