# Generated by pormake.
# Topology ssa, (4,4)-cn, num edge types: 1
# Building blocks:
#     Node 0, Type 0, BuildingBlock: NAWXER_clean_sbu_0, # of connection points: 4
#     Node 1, Type 0, BuildingBlock: NAWXER_clean_sbu_0, # of connection points: 4
#     Node 2, Type 0, BuildingBlock: NAWXER_clean_sbu_0, # of connection points: 4
#     Node 3, Type 0, BuildingBlock: NAWXER_clean_sbu_0, # of connection points: 4
#     Node 4, Type 0, BuildingBlock: NAWXER_clean_sbu_0, # of connection points: 4
#     Node 5, Type 0, BuildingBlock: NAWXER_clean_sbu_0, # of connection points: 4
#     Node 6, Type 1, BuildingBlock: GIZVER_clean_linker_0, # of connection points: 4
#     Node 7, Type 1, BuildingBlock: GIZVER_clean_linker_0, # of connection points: 4
#     Node 8, Type 1, BuildingBlock: GIZVER_clean_linker_0, # of connection points: 4
#     Node 9, Type 1, BuildingBlock: GIZVER_clean_linker_0, # of connection points: 4
#     Node 10, Type 1, BuildingBlock: GIZVER_clean_linker_0, # of connection points: 4
#     Node 11, Type 1, BuildingBlock: GIZVER_clean_linker_0, # of connection points: 4
#     Edge 12, Type (0, 1), BuildingBlock: MIFKUJ_clean_linker_0, # of connection points: 2
#     Edge 13, Type (0, 1), BuildingBlock: MIFKUJ_clean_linker_0, # of connection points: 2
#     Edge 14, Type (0, 1), BuildingBlock: MIFKUJ_clean_linker_0, # of connection points: 2
#     Edge 15, Type (0, 1), BuildingBlock: MIFKUJ_clean_linker_0, # of connection points: 2
#     Edge 16, Type (0, 1), BuildingBlock: MIFKUJ_clean_linker_0, # of connection points: 2
#     Edge 17, Type (0, 1), BuildingBlock: MIFKUJ_clean_linker_0, # of connection points: 2
#     Edge 18, Type (0, 1), BuildingBlock: MIFKUJ_clean_linker_0, # of connection points: 2
#     Edge 19, Type (0, 1), BuildingBlock: MIFKUJ_clean_linker_0, # of connection points: 2
#     Edge 20, Type (0, 1), BuildingBlock: MIFKUJ_clean_linker_0, # of connection points: 2
#     Edge 21, Type (0, 1), BuildingBlock: MIFKUJ_clean_linker_0, # of connection points: 2
#     Edge 22, Type (0, 1), BuildingBlock: MIFKUJ_clean_linker_0, # of connection points: 2
#     Edge 23, Type (0, 1), BuildingBlock: MIFKUJ_clean_linker_0, # of connection points: 2
#     Edge 24, Type (0, 1), BuildingBlock: MIFKUJ_clean_linker_0, # of connection points: 2
#     Edge 25, Type (0, 1), BuildingBlock: MIFKUJ_clean_linker_0, # of connection points: 2
#     Edge 26, Type (0, 1), BuildingBlock: MIFKUJ_clean_linker_0, # of connection points: 2
#     Edge 27, Type (0, 1), BuildingBlock: MIFKUJ_clean_linker_0, # of connection points: 2
#     Edge 28, Type (0, 1), BuildingBlock: MIFKUJ_clean_linker_0, # of connection points: 2
#     Edge 29, Type (0, 1), BuildingBlock: MIFKUJ_clean_linker_0, # of connection points: 2
#     Edge 30, Type (0, 1), BuildingBlock: MIFKUJ_clean_linker_0, # of connection points: 2
#     Edge 31, Type (0, 1), BuildingBlock: MIFKUJ_clean_linker_0, # of connection points: 2
#     Edge 32, Type (0, 1), BuildingBlock: MIFKUJ_clean_linker_0, # of connection points: 2
#     Edge 33, Type (0, 1), BuildingBlock: MIFKUJ_clean_linker_0, # of connection points: 2
#     Edge 34, Type (0, 1), BuildingBlock: MIFKUJ_clean_linker_0, # of connection points: 2
#     Edge 35, Type (0, 1), BuildingBlock: MIFKUJ_clean_linker_0, # of connection points: 2
# Relax obj value: 0.007
# Max RMSD: 0.038
# Mean RMSD: 0.029
data_MOF--net-ssa--node1-NAWXER_clean_sbu_0--node2-GIZVER_clean_linker_0--edge1-MIFKUJ_clean_linker_0
_symmetry_space_group_name_H-M    P1
_symmetry_Int_Tables_number       1
_symmetry_cell_setting            triclinic
loop_
_symmetry_equiv_pos_as_xyz
'x, y, z'
_cell_length_a     68.468104
_cell_length_b     68.493173
_cell_length_c     36.267149
_cell_angle_alpha  89.696368
_cell_angle_beta   89.836458
_cell_angle_gamma 120.01364
loop_
_atom_site_label
_atom_site_type_symbol
_atom_site_fract_x
_atom_site_fract_y
_atom_site_fract_z
_atom_type_partial_charge
C0 C 0.03041 0.52796 0.04004 0.0
C1 C 0.97806 0.45283 0.99292 0.0
O2 O 0.01506 0.51141 0.05818 0.0
Zn3 Zn 0.00424 0.48979 0.01807 0.0
O4 O 0.03352 0.52547 0.00596 0.0
Zn5 Zn 0.02018 0.50003 0.965 0.0
O6 O 0.00913 0.51337 0.92909 0.0
O7 O 0.98969 0.5034 0.98123 0.0
O8 O 0.99246 0.46599 0.96879 0.0
O9 O 0.97889 0.45974 0.02569 0.0
O10 O 0.03187 0.48409 0.00938 0.0
O11 O 0.0462 0.49673 0.95392 0.0
C12 C 0.99284 0.51168 0.94856 0.0
C13 C 0.04658 0.48763 0.98438 0.0
C14 C 0.4998 0.02259 0.55262 0.0
C15 C 0.52159 0.96923 0.50699 0.0
O16 O 0.4997 0.00645 0.57023 0.0
Zn17 Zn 0.50994 0.99518 0.53012 0.0
O18 O 0.50537 0.02561 0.51842 0.0
Zn19 Zn 0.516 0.01059 0.47719 0.0
O20 O 0.49209 0.99941 0.4414 0.0
O21 O 0.48142 0.9805 0.49391 0.0
O22 O 0.52274 0.98323 0.48224 0.0
O23 O 0.51481 0.97007 0.5393 0.0
O24 O 0.54378 0.02263 0.51994 0.0
O25 O 0.54505 0.03569 0.46356 0.0
C26 C 0.47689 0.9836 0.46085 0.0
C27 C 0.55482 0.03658 0.49376 0.0
C28 C 0.49804 0.45571 0.01098 0.0
C29 C 0.52602 0.53418 0.04552 0.0
O30 O 0.49828 0.46823 0.98436 0.0
Zn31 Zn 0.50795 0.50272 0.97408 0.0
O32 O 0.50507 0.46421 0.04263 0.0
Zn33 Zn 0.51252 0.49472 0.02962 0.0
O34 O 0.48022 0.49097 0.01795 0.0
O35 O 0.47953 0.50065 0.95999 0.0
O36 O 0.52387 0.5183 0.06656 0.0
O37 O 0.52086 0.53024 0.01139 0.0
O38 O 0.53252 0.51221 0.93867 0.0
O39 O 0.54077 0.50471 0.99379 0.0
C40 C 0.46972 0.4938 0.99112 0.0
C41 C 0.54642 0.5108 0.96016 0.0
C42 C 0.03033 0.54843 0.45779 0.0
C43 C 0.97684 0.4677 0.47197 0.0
O44 O 0.03204 0.54045 0.48891 0.0
Zn45 Zn 0.01704 0.50843 0.51686 0.0
O46 O 0.01599 0.53537 0.4344 0.0
Zn47 Zn 0.00375 0.50785 0.46324 0.0
O48 O 0.98713 0.51393 0.50778 0.0
O49 O 0.00328 0.51359 0.56015 0.0
O50 O 0.97902 0.48004 0.44415 0.0
O51 O 0.99005 0.47625 0.49958 0.0
O52 O 0.04256 0.50336 0.52161 0.0
O53 O 0.03145 0.50183 0.46417 0.0
C54 C 0.98808 0.51544 0.543 0.0
C55 C 0.04491 0.50073 0.4875 0.0
C56 C 0.524 0.98539 0.04738 0.0
C57 C 0.50107 0.03973 0.01168 0.0
O58 O 0.52385 1.00072 0.06673 0.0
Zn59 Zn 0.51348 0.01336 0.02921 0.0
O60 O 0.51852 0.98365 0.01325 0.0
Zn61 Zn 0.50683 0.99989 0.97541 0.0
O62 O 0.5299 0.01289 0.93771 0.0
O63 O 0.54142 0.03007 0.99112 0.0
O64 O 0.49974 0.02684 0.98506 0.0
O65 O 0.50821 0.03757 0.04288 0.0
O66 O 0.47969 0.98602 0.01999 0.0
O67 O 0.47748 0.97491 0.96237 0.0
C68 C 0.54525 0.02838 0.95695 0.0
C69 C 0.46822 0.97282 0.99369 0.0
C70 C 0.53452 0.50887 0.56707 0.0
C71 C 0.46132 0.487 0.51146 0.0
O72 O 0.51818 0.50972 0.58221 0.0
Zn73 Zn 0.4972 0.49715 0.54116 0.0
O74 O 0.53254 0.50163 0.53403 0.0
Zn75 Zn 0.50837 0.4893 0.4909 0.0
O76 O 0.52335 0.51252 0.45298 0.0
O77 O 0.51198 0.52376 0.5013 0.0
O78 O 0.47492 0.48472 0.48988 0.0
O79 O 0.4671 0.49315 0.54461 0.0
O80 O 0.49091 0.46329 0.5376 0.0
O81 O 0.50386 0.4592 0.48408 0.0
C82 C 0.52112 0.52772 0.46923 0.0
C83 C 0.49431 0.45097 0.51493 0.0
H84 H 0.24912 0.50954 0.1786 0.0
H85 H 0.24442 0.51664 0.29575 0.0
H86 H 0.18424 0.47984 0.23165 0.0
H87 H 0.28038 0.54061 0.21478 0.0
H88 H 0.27936 0.5403 0.26385 0.0
H89 H 0.29239 0.5177 0.18131 0.0
H90 H 0.32704 0.49096 0.24379 0.0
H91 H 0.28683 0.5139 0.29979 0.0
C92 C 0.23902 0.5055 0.20353 0.0
C93 C 0.21539 0.49313 0.20124 0.0
C94 C 0.24963 0.51355 0.23776 0.0
C95 C 0.23634 0.50939 0.26975 0.0
C96 C 0.21269 0.49757 0.26762 0.0
C97 C 0.20249 0.48882 0.23351 0.0
C98 C 0.27481 0.52921 0.2393 0.0
C99 C 0.28759 0.51653 0.24036 0.0
C100 C 0.29596 0.5125 0.20752 0.0
C101 C 0.3104 0.50349 0.20867 0.0
C102 C 0.31552 0.4975 0.24285 0.0
C103 C 0.30709 0.50108 0.2759 0.0
C104 C 0.293 0.51053 0.27443 0.0
H105 H 0.74226 0.24193 0.66304 0.0
H106 H 0.7335 0.23925 0.78105 0.0
H107 H 0.7117 0.17828 0.72049 0.0
H108 H 0.74097 0.27277 0.698 0.0
H109 H 0.74152 0.27295 0.74708 0.0
H110 H 0.77554 0.2828 0.66146 0.0
H111 H 0.83799 0.32505 0.71721 0.0
H112 H 0.7769 0.28709 0.78001 0.0
C113 C 0.73744 0.23237 0.68862 0.0
C114 C 0.72739 0.20877 0.68772 0.0
C115 C 0.74012 0.24358 0.72228 0.0
C116 C 0.73251 0.2309 0.75525 0.0
C117 C 0.72265 0.20733 0.75467 0.0
C118 C 0.7206 0.19656 0.72101 0.0
C119 C 0.74807 0.26852 0.72228 0.0
C120 C 0.77349 0.28283 0.72094 0.0
C121 C 0.78494 0.28919 0.68677 0.0
C122 C 0.80831 0.30429 0.68518 0.0
C123 C 0.82008 0.31292 0.71821 0.0
C124 C 0.80897 0.30701 0.75248 0.0
C125 C 0.78572 0.29148 0.75374 0.0
H126 H 0.51925 0.73439 0.20234 0.0
H127 H 0.52717 0.73451 0.32019 0.0
H128 H 0.55803 0.70735 0.24939 0.0
H129 H 0.4943 0.73983 0.243 0.0
H130 H 0.49574 0.73737 0.29171 0.0
H131 H 0.51425 0.77643 0.21246 0.0
H132 H 0.54151 0.83487 0.28139 0.0
H133 H 0.52201 0.77014 0.32924 0.0
C134 C 0.52708 0.73167 0.22625 0.0
C135 C 0.54026 0.72143 0.22192 0.0
C136 C 0.52279 0.73702 0.26169 0.0
C137 C 0.53154 0.73164 0.2928 0.0
C138 C 0.54448 0.72103 0.28865 0.0
C139 C 0.54934 0.71681 0.25299 0.0
C140 C 0.50621 0.74524 0.26659 0.0
C141 C 0.51796 0.77055 0.27011 0.0
C142 C 0.52029 0.78411 0.23915 0.0
C143 C 0.52865 0.8073 0.24335 0.0
C144 C 0.53578 0.81707 0.27807 0.0
C145 C 0.53353 0.80385 0.30912 0.0
C146 C 0.52464 0.78057 0.30506 0.0
H147 H 0.77676 0.58564 0.69439 0.0
H148 H 0.78236 0.5742 0.81034 0.0
H149 H 0.71746 0.55226 0.7624 0.0
H150 H 0.81343 0.60102 0.72053 0.0
H151 H 0.81515 0.60605 0.76894 0.0
H152 H 0.81219 0.56588 0.6964 0.0
H153 H 0.84399 0.5389 0.76556 0.0
H154 H 0.82675 0.58615 0.81018 0.0
C155 C 0.76901 0.57856 0.72088 0.0
C156 C 0.74556 0.56845 0.72501 0.0
C157 C 0.78248 0.58024 0.75149 0.0
C158 C 0.77216 0.57206 0.78626 0.0
C159 C 0.74866 0.56165 0.78992 0.0
C160 C 0.73559 0.55964 0.75919 0.0
C161 C 0.80787 0.59252 0.74788 0.0
C162 C 0.81709 0.57676 0.75327 0.0
C163 C 0.818 0.56415 0.72334 0.0
C164 C 0.82749 0.55024 0.72781 0.0
C165 C 0.83556 0.54867 0.76242 0.0
C166 C 0.83562 0.56172 0.7919 0.0
C167 C 0.82623 0.57566 0.78752 0.0
H168 H 0.26763 0.77421 0.17402 0.0
H169 H 0.28127 0.78849 0.28961 0.0
H170 H 0.30674 0.84265 0.21027 0.0
H171 H 0.2617 0.74452 0.2179 0.0
H172 H 0.26813 0.75055 0.26548 0.0
H173 H 0.22408 0.73144 0.19542 0.0
H174 H 0.17144 0.71564 0.27468 0.0
H175 H 0.2404 0.75081 0.309 0.0
C176 C 0.27449 0.78629 0.19623 0.0
C177 C 0.28721 0.80942 0.18791 0.0
C178 C 0.27157 0.77869 0.23312 0.0
C179 C 0.28218 0.79444 0.26157 0.0
C180 C 0.2954 0.81758 0.25342 0.0
C181 C 0.29666 0.82483 0.21679 0.0
C182 C 0.25987 0.75373 0.24163 0.0
C183 C 0.23514 0.74424 0.2504 0.0
C184 C 0.21879 0.73302 0.22289 0.0
C185 C 0.19569 0.72196 0.23187 0.0
C186 C 0.18921 0.72411 0.26756 0.0
C187 C 0.20504 0.73376 0.29571 0.0
C188 C 0.22809 0.74407 0.28707 0.0
H189 H 0.44027 0.23888 0.83087 0.0
H190 H 0.44674 0.23569 0.71308 0.0
H191 H 0.47423 0.29988 0.76674 0.0
H192 H 0.41549 0.20429 0.79709 0.0
H193 H 0.41806 0.20295 0.74835 0.0
H194 H 0.44612 0.20484 0.83869 0.0
H195 H 0.47062 0.16216 0.79802 0.0
H196 H 0.43859 0.18628 0.72386 0.0
C197 C 0.44693 0.24727 0.8046 0.0
C198 C 0.45812 0.27087 0.80257 0.0
C199 C 0.44278 0.23443 0.7724 0.0
C200 C 0.45044 0.24549 0.7381 0.0
C201 C 0.46215 0.26915 0.73595 0.0
C202 C 0.46602 0.28163 0.76835 0.0
C203 C 0.42796 0.20914 0.7742 0.0
C204 C 0.44155 0.19758 0.7803 0.0
C205 C 0.4492 0.19652 0.81592 0.0
C206 C 0.46014 0.18412 0.82235 0.0
C207 C 0.46308 0.17258 0.793 0.0
C208 C 0.45521 0.17309 0.75766 0.0
C209 C 0.44499 0.18612 0.7511 0.0
H210 H 0.091 0.51169 0.96376 0.0
H211 H 0.12204 0.50804 0.98973 0.0
H212 H 0.07404 0.44886 0.05064 0.0
H213 H 0.04324 0.45321 0.02619 0.0
H214 H 0.1032 0.47589 0.09524 0.0
H215 H 0.10888 0.44828 0.9772 0.0
H216 H 0.11229 0.44842 0.9095 0.0
H217 H 0.176 0.50995 0.91403 0.0
H218 H 0.17283 0.51035 0.98176 0.0
H219 H 0.1796 0.45296 0.18021 0.0
H220 H 0.15334 0.44741 0.13042 0.0
H221 H 0.19736 0.51547 0.09227 0.0
H222 H 0.22373 0.52115 0.14214 0.0
H223 H 0.17104 0.48226 0.03381 0.0
H224 H 0.16077 0.51229 0.14988 0.0
H225 H 0.15761 0.51207 0.21762 0.0
H226 H 0.10232 0.44394 0.21521 0.0
H227 H 0.105 0.44393 0.14726 0.0
C228 C 0.08711 0.49758 0.98192 0.0
C229 C 0.06477 0.48277 0.99311 0.0
C230 C 0.10486 0.49545 0.99672 0.0
C231 C 0.10046 0.47813 0.02222 0.0
C232 C 0.07795 0.46247 0.0313 0.0
C233 C 0.06033 0.46489 0.0172 0.0
C234 C 0.11911 0.47777 0.04279 0.0
C235 C 0.11773 0.47678 0.08149 0.0
C236 C 0.13854 0.47963 0.02528 0.0
C237 C 0.14052 0.47944 0.98456 0.0
C238 C 0.12354 0.46194 0.96375 0.0
C239 C 0.12544 0.4619 0.92537 0.0
C240 C 0.14433 0.47921 0.90747 0.0
C241 C 0.16137 0.49657 0.92793 0.0
C242 C 0.15954 0.49669 0.96633 0.0
C243 C 0.18407 0.46646 0.16039 0.0
C244 C 0.20357 0.48756 0.16528 0.0
C245 C 0.16907 0.46327 0.13196 0.0
C246 C 0.17328 0.48114 0.10803 0.0
C247 C 0.19385 0.50146 0.1104 0.0
C248 C 0.20893 0.50466 0.13888 0.0
C249 C 0.15465 0.47999 0.08562 0.0
C250 C 0.1562 0.48097 0.04701 0.0
C251 C 0.13521 0.47797 0.10297 0.0
C252 C 0.13319 0.47806 0.14365 0.0
C253 C 0.14798 0.49726 0.16385 0.0
C254 C 0.14627 0.49717 0.20227 0.0
C255 C 0.1299 0.47793 0.22081 0.0
C256 C 0.11503 0.45882 0.20086 0.0
C257 C 0.11655 0.45889 0.16238 0.0
H258 H 0.12869 0.47785 0.25058 0.0
H259 H 0.14577 0.47915 0.87775 0.0
H260 H 0.58549 0.03419 0.53787 0.0
H261 H 0.62177 0.06536 0.55761 0.0
H262 H 0.61287 0.11084 0.4861 0.0
H263 H 0.57688 0.07934 0.46497 0.0
H264 H 0.65724 0.12417 0.4921 0.0
H265 H 0.59494 0.10286 0.57307 0.0
H266 H 0.56186 0.0764 0.61006 0.0
H267 H 0.60429 0.06317 0.6805 0.0
H268 H 0.63753 0.08872 0.64277 0.0
H269 H 0.70739 0.21656 0.62858 0.0
H270 H 0.68525 0.18929 0.58094 0.0
H271 H 0.70723 0.1442 0.62134 0.0
H272 H 0.73008 0.17167 0.66818 0.0
H273 H 0.65738 0.13217 0.62804 0.0
H274 H 0.72037 0.15584 0.54399 0.0
H275 H 0.752 0.18353 0.50554 0.0
H276 H 0.70642 0.19632 0.44279 0.0
H277 H 0.67454 0.16894 0.48126 0.0
C278 C 0.59153 0.05073 0.52571 0.0
C279 C 0.57828 0.05447 0.50035 0.0
C280 C 0.61225 0.06853 0.53698 0.0
C281 C 0.61974 0.09054 0.52405 0.0
C282 C 0.60736 0.09402 0.49656 0.0
C283 C 0.58679 0.07604 0.48461 0.0
C284 C 0.63874 0.10999 0.54267 0.0
C285 C 0.65722 0.12602 0.52179 0.0
C286 C 0.63863 0.11252 0.58143 0.0
C287 C 0.61872 0.09752 0.60476 0.0
C288 C 0.59721 0.09414 0.5962 0.0
C289 C 0.57842 0.07927 0.61727 0.0
C290 C 0.58097 0.06815 0.64767 0.0
C291 C 0.60233 0.07178 0.65692 0.0
C292 C 0.62115 0.08637 0.63557 0.0
C293 C 0.70845 0.20136 0.62619 0.0
C294 C 0.72021 0.1961 0.65254 0.0
C295 C 0.69569 0.18575 0.59902 0.0
C296 C 0.69453 0.16474 0.59792 0.0
C297 C 0.70797 0.16037 0.62182 0.0
C298 C 0.72093 0.17604 0.64862 0.0
C299 C 0.67612 0.14589 0.57766 0.0
C300 C 0.65749 0.13016 0.59838 0.0
C301 C 0.67595 0.14405 0.53888 0.0
C302 C 0.6951 0.16053 0.51581 0.0
C303 C 0.71712 0.16475 0.52228 0.0
C304 C 0.73509 0.18033 0.50041 0.0
C305 C 0.73124 0.19173 0.47182 0.0
C306 C 0.70939 0.18751 0.46499 0.0
C307 C 0.69136 0.17194 0.4868 0.0
H308 H 0.74517 0.20378 0.4549 0.0
H309 H 0.5664 0.05673 0.66406 0.0
H310 H 0.54099 0.57292 0.00592 0.0
H311 H 0.54787 0.6094 0.02777 0.0
H312 H 0.53229 0.58317 0.13901 0.0
H313 H 0.52588 0.54661 0.11733 0.0
H314 H 0.51923 0.61935 0.05683 0.0
H315 H 0.55912 0.62547 0.2002 0.0
H316 H 0.58422 0.61424 0.23058 0.0
H317 H 0.61384 0.6145 0.12592 0.0
H318 H 0.58914 0.62603 0.09497 0.0
H319 H 0.50459 0.68831 0.18622 0.0
H320 H 0.50598 0.66094 0.14517 0.0
H321 H 0.57857 0.70168 0.14 0.0
H322 H 0.57714 0.72871 0.18227 0.0
H323 H 0.56745 0.66168 0.16238 0.0
H324 H 0.54415 0.68994 0.06143 0.0
H325 H 0.52095 0.70268 0.02873 0.0
H326 H 0.46243 0.63716 0.04304 0.0
H327 H 0.48521 0.62409 0.07623 0.0
C328 C 0.53934 0.57498 0.03515 0.0
C329 C 0.53284 0.55686 0.05993 0.0
C330 C 0.5432 0.59584 0.04756 0.0
C331 C 0.54061 0.59907 0.08499 0.0
C332 C 0.53472 0.58119 0.11004 0.0
C333 C 0.53104 0.56029 0.09765 0.0
C334 C 0.54288 0.62076 0.09734 0.0
C335 C 0.52989 0.6287 0.07978 0.0
C336 C 0.55704 0.63317 0.12685 0.0
C337 C 0.57212 0.62642 0.14524 0.0
C338 C 0.57105 0.62322 0.18369 0.0
C339 C 0.5852 0.61678 0.20101 0.0
C340 C 0.60057 0.61359 0.18018 0.0
C341 C 0.60187 0.6169 0.142 0.0
C342 C 0.58778 0.62335 0.12455 0.0
C343 C 0.52072 0.69197 0.17479 0.0
C344 C 0.54075 0.71064 0.18708 0.0
C345 C 0.52155 0.67624 0.15145 0.0
C346 C 0.54241 0.67917 0.13954 0.0
C347 C 0.5623 0.699 0.14898 0.0
C348 C 0.56148 0.71458 0.1727 0.0
C349 C 0.5436 0.66019 0.12215 0.0
C350 C 0.55708 0.65259 0.13902 0.0
C351 C 0.53016 0.64832 0.09162 0.0
C352 C 0.51639 0.65608 0.07151 0.0
C353 C 0.52631 0.67829 0.05781 0.0
C354 C 0.51323 0.68556 0.03915 0.0
C355 C 0.49022 0.67075 0.03385 0.0
C356 C 0.48025 0.64861 0.04715 0.0
C357 C 0.49325 0.64125 0.06583 0.0
H358 H 0.48013 0.67642 0.01941 0.0
H359 H 0.61149 0.60859 0.19364 0.0
H360 H 0.98001 0.51369 0.61788 0.0
H361 H 0.94845 0.51464 0.64861 0.0
H362 H 0.92477 0.5234 0.54313 0.0
H363 H 0.95579 0.52232 0.51249 0.0
H364 H 0.93577 0.54552 0.65301 0.0
H365 H 0.86866 0.49455 0.53962 0.0
H366 H 0.85933 0.46265 0.49812 0.0
H367 H 0.89282 0.43916 0.57061 0.0
H368 H 0.90215 0.47072 0.61262 0.0
H369 H 0.85332 0.57346 0.6691 0.0
H370 H 0.87662 0.56253 0.63337 0.0
H371 H 0.84101 0.49591 0.68156 0.0
H372 H 0.81769 0.50683 0.71754 0.0
H373 H 0.85755 0.49703 0.60797 0.0
H374 H 0.88251 0.52774 0.7265 0.0
H375 H 0.89 0.55415 0.77739 0.0
H376 H 0.93841 0.60897 0.71006 0.0
H377 H 0.93099 0.58278 0.6585 0.0
C378 C 0.96814 0.51596 0.60134 0.0
C379 C 0.97039 0.51782 0.56273 0.0
C380 C 0.9501 0.51644 0.61889 0.0
C381 C 0.934 0.51863 0.59807 0.0
C382 C 0.93666 0.52115 0.5597 0.0
C383 C 0.95456 0.52069 0.54225 0.0
C384 C 0.91454 0.5188 0.61595 0.0
C385 C 0.91871 0.53486 0.64317 0.0
C386 C 0.89207 0.50431 0.60421 0.0
C387 C 0.88631 0.48517 0.57907 0.0
C388 C 0.87397 0.48254 0.54674 0.0
C389 C 0.86871 0.46452 0.52309 0.0
C390 C 0.8756 0.44897 0.53157 0.0
C391 C 0.88764 0.4513 0.56385 0.0
C392 C 0.89295 0.46927 0.58756 0.0
C393 C 0.84961 0.55613 0.67052 0.0
C394 C 0.83381 0.541 0.69613 0.0
C395 C 0.86309 0.54997 0.6504 0.0
C396 C 0.8608 0.52857 0.65547 0.0
C397 C 0.84306 0.5125 0.67738 0.0
C398 C 0.82968 0.51872 0.69775 0.0
C399 C 0.87913 0.52452 0.64331 0.0
C400 C 0.87467 0.50766 0.61755 0.0
C401 C 0.90117 0.5375 0.65762 0.0
C402 C 0.90603 0.55335 0.68855 0.0
C403 C 0.89464 0.54545 0.72245 0.0
C404 C 0.89889 0.56039 0.75144 0.0
C405 C 0.91461 0.58328 0.74694 0.0
C406 C 0.9262 0.59124 0.71347 0.0
C407 C 0.92201 0.57635 0.68436 0.0
H408 H 0.91787 0.59483 0.76941 0.0
H409 H 0.87154 0.43507 0.51317 0.0
H410 H 0.44 0.97162 0.0475 0.0
H411 H 0.40386 0.93965 0.0664 0.0
H412 H 0.40762 0.90029 0.9771 0.0
H413 H 0.44379 0.93266 0.9573 0.0
H414 H 0.36329 0.89027 0.99091 0.0
H415 H 0.42568 0.89602 0.05848 0.0
H416 H 0.46063 0.91571 0.0947 0.0
H417 H 0.42484 0.92753 0.18098 0.0
H418 H 0.38981 0.9086 0.14475 0.0
H419 H 0.30764 0.79527 0.139 0.0
H420 H 0.33301 0.81825 0.08901 0.0
H421 H 0.31151 0.86709 0.10327 0.0
H422 H 0.28586 0.84404 0.1527 0.0
H423 H 0.3648 0.86752 0.12059 0.0
H424 H 0.30656 0.87181 0.0372 0.0
H425 H 0.27225 0.85122 -0.00044 0.0
H426 H 0.3014 0.81639 0.94453 0.0
H427 H 0.33577 0.83664 0.98227 0.0
C428 C 0.43299 0.9563 0.03146 0.0
C429 C 0.44487 0.95454 0.00122 0.0
C430 C 0.41231 0.93804 0.04228 0.0
C431 C 0.40328 0.91744 0.02363 0.0
C432 C 0.41434 0.91602 0.99195 0.0
C433 C 0.435 0.93449 0.98073 0.0
C434 C 0.38361 0.89707 0.0397 0.0
C435 C 0.36371 0.88522 0.01916 0.0
C436 C 0.38419 0.89014 0.07638 0.0
C437 C 0.40512 0.90101 0.09873 0.0
C438 C 0.42528 0.90293 0.08508 0.0
C439 C 0.44511 0.91396 0.1056 0.0
C440 C 0.44495 0.9228 0.14014 0.0
C441 C 0.42494 0.92065 0.15422 0.0
C442 C 0.40509 0.90981 0.13367 0.0
C443 C 0.30731 0.81021 0.12999 0.0
C444 C 0.29485 0.81793 0.14983 0.0
C445 C 0.32192 0.8234 0.10154 0.0
C446 C 0.32402 0.84429 0.0923 0.0
C447 C 0.30981 0.85081 0.1094 0.0
C448 C 0.2952 0.83765 0.13775 0.0
C449 C 0.34436 0.86144 0.07238 0.0
C450 C 0.3645 0.87255 0.09226 0.0
C451 C 0.34403 0.86753 0.03527 0.0
C452 C 0.3235 0.85547 0.01275 0.0
C453 C 0.30552 0.8596 0.01732 0.0
C454 C 0.28611 0.84804 0.99592 0.0
C455 C 0.28461 0.83244 0.96975 0.0
C456 C 0.30255 0.82842 0.96487 0.0
C457 C 0.32198 0.83992 0.98625 0.0
H458 H 0.26958 0.82353 0.95319 0.0
H459 H 0.46033 0.93133 0.15598 0.0
H460 H 0.51404 0.42647 0.49329 0.0
H461 H 0.50831 0.39125 0.52112 0.0
H462 H 0.45553 0.38834 0.5904 0.0
H463 H 0.46181 0.4238 0.56379 0.0
H464 H 0.48305 0.38335 0.63095 0.0
H465 H 0.44584 0.35055 0.51683 0.0
H466 H 0.44229 0.34634 0.4493 0.0
H467 H 0.4977 0.33371 0.44588 0.0
H468 H 0.50177 0.33813 0.51337 0.0
H469 H 0.43464 0.26154 0.67692 0.0
H470 H 0.44101 0.28837 0.62693 0.0
H471 H 0.50889 0.33156 0.66508 0.0
H472 H 0.50256 0.30491 0.71511 0.0
H473 H 0.47323 0.31468 0.56863 0.0
H474 H 0.51278 0.38105 0.68195 0.0
H475 H 0.51311 0.38269 0.75 0.0
H476 H 0.44608 0.32548 0.75416 0.0
H477 H 0.44532 0.32365 0.68628 0.0
C478 C 0.50092 0.41803 0.51393 0.0
C479 C 0.48847 0.42794 0.52657 0.0
C480 C 0.49762 0.39787 0.5298 0.0
C481 C 0.48149 0.38708 0.55798 0.0
C482 C 0.46823 0.3964 0.569 0.0
C483 C 0.47178 0.41665 0.55368 0.0
C484 C 0.47959 0.36727 0.57842 0.0
C485 C 0.48088 0.3684 0.61708 0.0
C486 C 0.47671 0.3476 0.56066 0.0
C487 C 0.47425 0.34489 0.52011 0.0
C488 C 0.45738 0.34705 0.50165 0.0
C489 C 0.45525 0.34459 0.46338 0.0
C490 C 0.4698 0.33982 0.4433 0.0
C491 C 0.48646 0.33743 0.46146 0.0
C492 C 0.48867 0.33989 0.49972 0.0
C493 C 0.45121 0.27628 0.67365 0.0
C494 C 0.46803 0.28134 0.7001 0.0
C495 C 0.45484 0.29159 0.64507 0.0
C496 C 0.4753 0.31208 0.6427 0.0
C497 C 0.49292 0.3159 0.66663 0.0
C498 C 0.48928 0.30071 0.69522 0.0
C499 C 0.47677 0.33107 0.62063 0.0
C500 C 0.47547 0.32977 0.58205 0.0
C501 C 0.47913 0.35047 0.63832 0.0
C502 C 0.4791 0.35211 0.67911 0.0
C503 C 0.49808 0.36892 0.69743 0.0
C504 C 0.49836 0.36984 0.73597 0.0
C505 C 0.47967 0.35411 0.75642 0.0
C506 C 0.4606 0.33756 0.73836 0.0
C507 C 0.46024 0.33657 0.69986 0.0
H508 H 0.47995 0.35478 0.78625 0.0
H509 H 0.46812 0.33792 0.41368 0.0
H510 H 0.51301 0.93108 0.54593 0.0
H511 H 0.51844 0.90018 0.52426 0.0
H512 H 0.54829 0.93712 0.42355 0.0
H513 H 0.54278 0.96769 0.4446 0.0
H514 H 0.51399 0.89561 0.41031 0.0
H515 H 0.57991 0.92991 0.48768 0.0
H516 H 0.60029 0.94398 0.54625 0.0
H517 H 0.56197 0.87788 0.59438 0.0
H518 H 0.54114 0.86347 0.53622 0.0
H519 H 0.57145 0.83984 0.33623 0.0
H520 H 0.57234 0.86462 0.38551 0.0
H521 H 0.5027 0.81746 0.41127 0.0
H522 H 0.50189 0.79244 0.3626 0.0
H523 H 0.55612 0.8617 0.46711 0.0
H524 H 0.47907 0.8505 0.39056 0.0
H525 H 0.46067 0.83905 0.32982 0.0
H526 H 0.5252 0.86319 0.27772 0.0
H527 H 0.54394 0.87507 0.33797 0.0
C528 C 0.52105 0.93273 0.51943 0.0
C529 C 0.5272 0.9517 0.49677 0.0
C530 C 0.52419 0.9151 0.50716 0.0
C531 C 0.53368 0.91634 0.47222 0.0
C532 C 0.5408 0.93575 0.45048 0.0
C533 C 0.5376 0.95322 0.46258 0.0
C534 C 0.5344 0.8968 0.45635 0.0
C535 C 0.52313 0.88819 0.42298 0.0
C536 C 0.54625 0.88702 0.47282 0.0
C537 C 0.55879 0.89567 0.50773 0.0
C538 C 0.57568 0.91842 0.51086 0.0
C539 C 0.58735 0.92645 0.54396 0.0
C540 C 0.58238 0.91185 0.57405 0.0
C541 C 0.56578 0.88917 0.57107 0.0
C542 C 0.55405 0.88106 0.53803 0.0
C543 C 0.55674 0.83426 0.35377 0.0
C544 C 0.53661 0.81429 0.34576 0.0
C545 C 0.55727 0.84837 0.38192 0.0
C546 C 0.53755 0.84287 0.4018 0.0
C547 C 0.51811 0.82187 0.39635 0.0
C548 C 0.51768 0.80758 0.36861 0.0
C549 C 0.53583 0.86086 0.42125 0.0
C550 C 0.54677 0.86905 0.45503 0.0
C551 C 0.52391 0.8706 0.40509 0.0
C552 C 0.51282 0.86333 0.36877 0.0
C553 C 0.48929 0.85332 0.3661 0.0
C554 C 0.47882 0.8468 0.33176 0.0
C555 C 0.49175 0.85034 0.29992 0.0
C556 C 0.51519 0.86039 0.30237 0.0
C557 C 0.52573 0.86697 0.33661 0.0
H558 H 0.48362 0.84539 0.27336 0.0
H559 H 0.59143 0.9181 0.59966 0.0
H560 H 0.5672 0.5287 0.89344 0.0
H561 H 0.60438 0.53586 0.87285 0.0
H562 H 0.61312 0.50989 0.97635 0.0
H563 H 0.57654 0.50332 0.99736 0.0
H564 H 0.65047 0.54583 0.9592 0.0
H565 H 0.59767 0.47906 0.89455 0.0
H566 H 0.56636 0.45535 0.85286 0.0
H567 H 0.60161 0.50024 0.76248 0.0
H568 H 0.63286 0.52451 0.8038 0.0
H569 H 0.72313 0.51938 0.81738 0.0
H570 H 0.69128 0.50796 0.8597 0.0
H571 H 0.71343 0.57798 0.88056 0.0
H572 H 0.74564 0.5892 0.83945 0.0
H573 H 0.66037 0.51617 0.84064 0.0
H574 H 0.68735 0.58457 0.95423 0.0
H575 H 0.71922 0.60576 0.9964 0.0
H576 H 0.73609 0.55332 0.99092 0.0
H577 H 0.70415 0.53166 0.94914 0.0
C578 C 0.57708 0.52457 0.91177 0.0
C579 C 0.56887 0.51543 0.94701 0.0
C580 C 0.59829 0.52857 0.89994 0.0
C581 C 0.61148 0.52319 0.92292 0.0
C582 C 0.60333 0.51424 0.95815 0.0
C583 C 0.58232 0.51043 0.97007 0.0
C584 C 0.63381 0.52685 0.9106 0.0
C585 C 0.65266 0.53937 0.93321 0.0
C586 C 0.63664 0.51805 0.87707 0.0
C587 C 0.61749 0.50377 0.85245 0.0
C588 C 0.59861 0.48404 0.86592 0.0
C589 C 0.58088 0.47048 0.84232 0.0
C590 C 0.58194 0.47633 0.80509 0.0
C591 C 0.60074 0.49577 0.79136 0.0
C592 C 0.61845 0.50945 0.81487 0.0
C593 C 0.72193 0.5322 0.83295 0.0
C594 C 0.73691 0.55512 0.82574 0.0
C595 C 0.70356 0.52573 0.85669 0.0
C596 C 0.69977 0.54209 0.87313 0.0
C597 C 0.71607 0.56499 0.86877 0.0
C598 C 0.73461 0.57144 0.84542 0.0
C599 C 0.67719 0.53557 0.88873 0.0
C600 C 0.65825 0.5226 0.86666 0.0
C601 C 0.67429 0.54376 0.92283 0.0
C602 C 0.69342 0.55656 0.94829 0.0
C603 C 0.69778 0.57749 0.96216 0.0
C604 C 0.71588 0.58961 0.98597 0.0
C605 C 0.7297 0.58092 0.99625 0.0
C606 C 0.72542 0.56007 0.98283 0.0
C607 C 0.70734 0.54788 0.95902 0.0
H608 H 0.74371 0.59033 0.01467 0.0
H609 H 0.56823 0.46576 0.78686 0.0
H610 H 0.04459 0.56736 0.38951 0.0
H611 H 0.07536 0.60532 0.37515 0.0
H612 H 0.08247 0.62173 0.49089 0.0
H613 H 0.05243 0.58336 0.50548 0.0
H614 H 0.08458 0.6465 0.38208 0.0
H615 H 0.14025 0.65899 0.5089 0.0
H616 H 0.14433 0.63627 0.55803 0.0
H617 H 0.11639 0.57868 0.48713 0.0
H618 H 0.11337 0.60137 0.43683 0.0
H619 H 0.18017 0.74679 0.33724 0.0
H620 H 0.15176 0.72215 0.38256 0.0
H621 H 0.17886 0.67723 0.37946 0.0
H622 H 0.20813 0.7027 0.33673 0.0
H623 H 0.15854 0.67057 0.44067 0.0
H624 H 0.13467 0.67357 0.31193 0.0
H625 H 0.13029 0.69421 0.25939 0.0
H626 H 0.09489 0.71679 0.3291 0.0
H627 H 0.09859 0.69588 0.38177 0.0
C628 C 0.05251 0.57915 0.41184 0.0
C629 C 0.04631 0.57232 0.44862 0.0
C630 C 0.0701 0.60089 0.40363 0.0
C631 C 0.08162 0.61631 0.43199 0.0
C632 C 0.07428 0.61 0.46858 0.0
C633 C 0.05704 0.5881 0.47687 0.0
C634 C 0.1021 0.63831 0.42308 0.0
C635 C 0.10068 0.6518 0.39518 0.0
C636 C 0.12323 0.6454 0.44013 0.0
C637 C 0.12622 0.63182 0.46929 0.0
C638 C 0.13525 0.64156 0.50362 0.0
C639 C 0.13749 0.62871 0.5316 0.0
C640 C 0.13069 0.60606 0.52564 0.0
C641 C 0.12186 0.59628 0.49156 0.0
C642 C 0.11998 0.60916 0.46324 0.0
C643 C 0.18089 0.73242 0.34821 0.0
C644 C 0.19631 0.72661 0.33359 0.0
C645 C 0.16433 0.71802 0.37343 0.0
C646 C 0.1624 0.69719 0.38304 0.0
C647 C 0.17969 0.69299 0.37223 0.0
C648 C 0.19664 0.70772 0.34799 0.0
C649 C 0.1411 0.67839 0.39898 0.0
C650 C 0.14232 0.66547 0.42817 0.0
C651 C 0.11984 0.67144 0.3826 0.0
C652 C 0.11714 0.68345 0.35076 0.0
C653 C 0.12594 0.68293 0.31596 0.0
C654 C 0.1236 0.69467 0.28623 0.0
C655 C 0.11266 0.70708 0.2911 0.0
C656 C 0.10353 0.70733 0.32547 0.0
C657 C 0.10561 0.69544 0.35519 0.0
H658 H 0.11111 0.71637 0.26816 0.0
H659 H 0.13224 0.59607 0.54744 0.0
H660 H 0.50333 0.07165 0.06006 0.0
H661 H 0.49377 0.10117 0.04765 0.0
H662 H 0.47571 0.07715 0.9363 0.0
H663 H 0.48479 0.04769 0.94846 0.0
H664 H 0.51125 0.13569 -0.00058 0.0
H665 H 0.433 0.08128 0.90638 0.0
H666 H 0.40099 0.04233 0.90491 0.0
H667 H 0.4069 0.03564 0.02152 0.0
H668 H 0.43873 0.07467 0.02384 0.0
H669 H 0.49969 0.18752 0.84406 0.0
H670 H 0.50507 0.1695 0.89785 0.0
H671 H 0.43973 0.15398 0.93979 0.0
H672 H 0.43389 0.1712 0.88465 0.0
H673 H 0.44031 0.11768 0.93546 0.0
H674 H 0.49043 0.18606 0.99107 0.0
H675 H 0.5214 0.22532 0.99676 0.0
H676 H 0.56925 0.2055 0.96406 0.0
H677 H 0.53857 0.16618 0.95759 0.0
C678 C 0.49712 0.07257 0.03305 0.0
C679 C 0.49474 0.05724 0.0053 0.0
C680 C 0.49173 0.08947 0.02601 0.0
C681 C 0.48369 0.09116 0.99124 0.0
C682 C 0.48139 0.07589 0.9636 0.0
C683 C 0.48673 0.05909 0.97057 0.0
C684 C 0.47851 0.1093 0.98258 0.0
C685 C 0.49566 0.13188 0.98584 0.0
C686 C 0.45777 0.10433 0.96638 0.0
C687 C 0.43833 0.08093 0.96525 0.0
C688 C 0.42737 0.07158 0.93178 0.0
C689 C 0.40928 0.04946 0.93078 0.0
C690 C 0.40193 0.03651 0.96309 0.0
C691 C 0.41263 0.04567 0.99649 0.0
C692 C 0.43072 0.06779 0.99766 0.0
C693 C 0.48679 0.18094 0.86536 0.0
C694 C 0.46624 0.18043 0.85992 0.0
C695 C 0.48996 0.17078 0.89642 0.0
C696 C 0.47279 0.16025 0.92308 0.0
C697 C 0.45319 0.16188 0.91957 0.0
C698 C 0.44993 0.17191 0.8882 0.0
C699 C 0.47369 0.14414 0.94983 0.0
C700 C 0.45569 0.1218 0.95001 0.0
C701 C 0.49346 0.14945 0.9699 0.0
C702 C 0.51212 0.1731 0.97382 0.0
C703 C 0.50753 0.19007 0.98489 0.0
C704 C 0.52505 0.21235 0.98827 0.0
C705 C 0.54727 0.2179 0.98078 0.0
C706 C 0.55203 0.20117 0.96992 0.0
C707 C 0.53457 0.17886 0.96648 0.0
H708 H 0.56081 0.23516 0.98341 0.0
H709 H 0.38794 0.01938 0.96224 0.0
H710 H 0.44827 0.48044 0.43968 0.0
H711 H 0.41698 0.48242 0.41199 0.0
H712 H 0.39538 0.49117 0.5193 0.0
H713 H 0.4272 0.48962 0.54765 0.0
H714 H 0.35921 0.45952 0.46601 0.0
H715 H 0.42047 0.53483 0.47865 0.0
H716 H 0.45999 0.56557 0.47418 0.0
H717 H 0.45838 0.55843 0.35655 0.0
H718 H 0.419 0.52718 0.36035 0.0
H719 H 0.32368 0.52964 0.33455 0.0
H720 H 0.34375 0.52634 0.38786 0.0
H721 H 0.33034 0.46119 0.35002 0.0
H722 H 0.30997 0.46426 0.29712 0.0
H723 H 0.38166 0.52485 0.38191 0.0
H724 H 0.33087 0.42948 0.42167 0.0
H725 H 0.29118 0.39924 0.42741 0.0
H726 H 0.27081 0.44854 0.44396 0.0
H727 H 0.3104 0.47907 0.43887 0.0
C728 C 0.43676 0.48247 0.45767 0.0
C729 C 0.44037 0.48501 0.49596 0.0
C730 C 0.41888 0.48363 0.44168 0.0
C731 C 0.40404 0.48713 0.46357 0.0
C732 C 0.40673 0.48848 0.502 0.0
C733 C 0.4249 0.48761 0.5181 0.0
C734 C 0.38673 0.49075 0.44542 0.0
C735 C 0.36399 0.47387 0.44785 0.0
C736 C 0.39305 0.50973 0.42235 0.0
C737 C 0.41679 0.52849 0.41985 0.0
C738 C 0.4286 0.53961 0.45186 0.0
C739 C 0.45098 0.55714 0.44944 0.0
C740 C 0.46168 0.5639 0.41512 0.0
C741 C 0.45006 0.55312 0.38312 0.0
C742 C 0.42771 0.53549 0.3854 0.0
C743 C 0.32438 0.5143 0.33826 0.0
C744 C 0.31532 0.49723 0.31158 0.0
C745 C 0.336 0.5125 0.3686 0.0
C746 C 0.33855 0.49351 0.37302 0.0
C747 C 0.32838 0.47589 0.34752 0.0
C748 C 0.31687 0.47772 0.31714 0.0
C749 C 0.35406 0.49322 0.40138 0.0
C750 C 0.37664 0.51069 0.40062 0.0
C751 C 0.3475 0.47488 0.42615 0.0
C752 C 0.32364 0.45659 0.42964 0.0
C753 C 0.31795 0.43388 0.42674 0.0
C754 C 0.29545 0.41668 0.42984 0.0
C755 C 0.27848 0.42197 0.43596 0.0
C756 C 0.28397 0.44447 0.43909 0.0
C757 C 0.30644 0.46173 0.43604 0.0
H758 H 0.26108 0.40863 0.43833 0.0
H759 H 0.47893 0.57755 0.41332 0.0
H760 H 0.97719 0.4287 0.93308 0.0
H761 H 0.94408 0.39732 0.90514 0.0
H762 H 0.90295 0.39628 0.99626 0.0
H763 H 0.9362 0.42781 0.02458 0.0
H764 H 0.91021 0.35394 0.92228 0.0
H765 H 0.85573 0.39376 0.95501 0.0
H766 H 0.86073 0.43053 0.9742 0.0
H767 H 0.92517 0.46464 0.91958 0.0
H768 H 0.92033 0.4282 0.89948 0.0
H769 H 0.80853 0.28841 0.8202 0.0
H770 H 0.83233 0.3078 0.87361 0.0
H771 H 0.86199 0.37085 0.81351 0.0
H772 H 0.83796 0.35184 0.76107 0.0
H773 H 0.85609 0.37797 0.88245 0.0
H774 H 0.88717 0.33777 0.81741 0.0
H775 H 0.88626 0.30389 0.79243 0.0
H776 H 0.87413 0.27473 0.90107 0.0
H777 H 0.8747 0.30836 0.92661 0.0
C778 C 0.96122 0.42143 0.94769 0.0
C779 C 0.95923 0.43089 0.9808 0.0
C780 C 0.94232 0.40339 0.93178 0.0
C781 C 0.92102 0.39464 0.94841 0.0
C782 C 0.91925 0.40288 0.98292 0.0
C783 C 0.93825 0.42085 -0.0009 0.0
C784 C 0.90066 0.37938 0.92692 0.0
C785 C 0.89809 0.35893 0.91413 0.0
C786 C 0.88515 0.38616 0.91565 0.0
C787 C 0.88782 0.40823 0.92636 0.0
C788 C 0.87092 0.40913 0.94704 0.0
C789 C 0.87374 0.42992 0.95809 0.0
C790 C 0.89338 0.4499 0.94851 0.0
C791 C 0.91011 0.44917 0.92747 0.0
C792 C 0.9073 0.42845 0.91612 0.0
C793 C 0.8199 0.30646 0.81875 0.0
C794 C 0.82168 0.31854 0.78624 0.0
C795 C 0.83355 0.31749 0.84914 0.0
C796 C 0.84918 0.34075 0.84742 0.0
C797 C 0.85013 0.35291 0.81557 0.0
C798 C 0.83655 0.34197 0.78541 0.0
C799 C 0.86567 0.35252 0.87738 0.0
C800 C 0.86763 0.37246 0.89164 0.0
C801 C 0.88099 0.34557 0.88913 0.0
C802 C 0.88068 0.32541 0.87382 0.0
C803 C 0.88414 0.32405 0.83591 0.0
C804 C 0.88371 0.30492 0.82166 0.0
C805 C 0.88006 0.28714 0.84513 0.0
C806 C 0.87689 0.28849 0.88292 0.0
C807 C 0.87727 0.30758 0.89729 0.0
H808 H 0.87974 0.27234 0.83405 0.0
H809 H 0.89552 0.46596 0.95709 0.0
H810 H 0.95006 0.49708 0.97211 0.0
H811 H 0.92361 0.50849 0.94987 0.0
H812 H 0.97315 0.55371 0.87124 0.0
H813 H 0.99978 0.5419 0.89279 0.0
H814 H 0.94807 0.57094 0.92202 0.0
H815 H 0.93803 0.51363 0.83516 0.0
H816 H 0.93057 0.4762 0.81512 0.0
H817 H 0.8659 0.44517 0.86897 0.0
H818 H 0.87327 0.48236 0.89036 0.0
H819 H 0.87821 0.59427 0.80576 0.0
H820 H 0.90548 0.58889 0.84092 0.0
H821 H 0.85154 0.52578 0.88361 0.0
H822 H 0.82442 0.5308 0.84681 0.0
H823 H 0.87992 0.51824 0.85191 0.0
H824 H 0.88827 0.57349 0.93978 0.0
H825 H 0.89428 0.61011 0.96164 0.0
H826 H 0.95964 0.64387 0.90999 0.0
H827 H 0.9539 0.60747 0.88738 0.0
C828 C 0.9554 0.50946 0.95004 0.0
C829 C 0.97702 0.51861 0.93414 0.0
C830 C 0.94022 0.51589 0.93737 0.0
C831 C 0.94647 0.53188 0.909 0.0
C832 C 0.9681 0.54132 0.89323 0.0
C833 C 0.9832 0.5345 0.90539 0.0
C834 C 0.93015 0.53852 0.89605 0.0
C835 C 0.93326 0.55961 0.90626 0.0
C836 C 0.91052 0.52329 0.87675 0.0
C837 C 0.90637 0.50081 0.86483 0.0
C838 C 0.92239 0.49881 0.84331 0.0
C839 C 0.91813 0.47763 0.83156 0.0
C840 C 0.89777 0.45832 0.84073 0.0
C841 C 0.88164 0.46015 0.86177 0.0
C842 C 0.8859 0.48127 0.87385 0.0
C843 C 0.8721 0.57989 0.82426 0.0
C844 C 0.84927 0.56308 0.82411 0.0
C845 C 0.88772 0.57673 0.84429 0.0
C846 C 0.88066 0.55684 0.86488 0.0
C847 C 0.85745 0.54118 0.86772 0.0
C848 C 0.84189 0.54417 0.84719 0.0
C849 C 0.89745 0.5507 0.87826 0.0
C850 C 0.89453 0.52964 0.86798 0.0
C851 C 0.91703 0.56583 0.89802 0.0
C852 C 0.92057 0.58775 0.91163 0.0
C853 C 0.90385 0.58874 0.93284 0.0
C854 C 0.90722 0.60946 0.94542 0.0
C855 C 0.92731 0.62931 0.93715 0.0
C856 C 0.94408 0.62848 0.91636 0.0
C857 C 0.94079 0.6078 0.9037 0.0
H858 H 0.92988 0.64533 0.94691 0.0
H859 H 0.8945 0.44194 0.83163 0.0
H860 H 0.46418 0.97923 0.3886 0.0
H861 H 0.42823 0.9514 0.36227 0.0
H862 H 0.40264 0.92503 0.4711 0.0
H863 H 0.43894 0.95241 0.49754 0.0
H864 H 0.39217 0.89167 0.4276 0.0
H865 H 0.38307 0.95559 0.42042 0.0
H866 H 0.39311 0.99486 0.4071 0.0
H867 H 0.39834 0.98453 0.29166 0.0
H868 H 0.38866 0.94528 0.3043 0.0
H869 H 0.28666 0.82059 0.32723 0.0
H870 H 0.31227 0.84866 0.37195 0.0
H871 H 0.36324 0.87978 0.28731 0.0
H872 H 0.33872 0.85159 0.24355 0.0
H873 H 0.35351 0.91035 0.32986 0.0
H874 H 0.36946 0.84822 0.34285 0.0
H875 H 0.35835 0.80883 0.3579 0.0
H876 H 0.33763 0.81634 0.46626 0.0
H877 H 0.34835 0.85572 0.4516 0.0
C878 C 0.45083 0.9677 0.407 0.0
C879 C 0.45444 0.96805 0.44516 0.0
C880 C 0.43019 0.95184 0.39193 0.0
C881 C 0.41252 0.93627 0.41472 0.0
C882 C 0.41596 0.93686 0.45293 0.0
C883 C 0.43671 0.95257 0.468 0.0
C884 C 0.39107 0.9186 0.3982 0.0
C885 C 0.38341 0.89585 0.4069 0.0
C886 C 0.37946 0.92388 0.37123 0.0
C887 C 0.38524 0.94749 0.36337 0.0
C888 C 0.3865 0.96172 0.39221 0.0
C889 C 0.39211 0.98398 0.38478 0.0
C890 C 0.39638 0.99219 0.34857 0.0
C891 C 0.39502 0.97814 0.3197 0.0
C892 C 0.38943 0.95587 0.32698 0.0
C893 C 0.30338 0.83334 0.3183 0.0
C894 C 0.31036 0.8341 0.28149 0.0
C895 C 0.31789 0.8494 0.34377 0.0
C896 C 0.33947 0.86646 0.33263 0.0
C897 C 0.3465 0.86702 0.29622 0.0
C898 C 0.3323 0.85091 0.27114 0.0
C899 C 0.35537 0.88373 0.35842 0.0
C900 C 0.36195 0.90636 0.35139 0.0
C901 C 0.36575 0.87836 0.38723 0.0
C902 C 0.35939 0.85477 0.39597 0.0
C903 C 0.36232 0.84139 0.36974 0.0
C904 C 0.35615 0.81909 0.37823 0.0
C905 C 0.34721 0.81006 0.41296 0.0
C906 C 0.34449 0.82334 0.43933 0.0
C907 C 0.35062 0.84564 0.43095 0.0
H908 H 0.34244 0.79279 0.41949 0.0
H909 H 0.40073 0.00943 0.34287 0.0
H910 H 0.47019 0.43038 0.95636 0.0
H911 H 0.46062 0.39249 0.93835 0.0
H912 H 0.49894 0.38874 0.02958 0.0
H913 H 0.50866 0.4271 0.04802 0.0
H914 H 0.51017 0.37749 0.96206 0.0
H915 H 0.44351 0.35452 0.03175 0.0
H916 H 0.41037 0.35606 0.0546 0.0
H917 H 0.38305 0.34411 0.94528 0.0
H918 H 0.41617 0.34283 0.92163 0.0
H919 H 0.47558 0.27146 0.87093 0.0
H920 H 0.47981 0.29648 0.92267 0.0
H921 H 0.44763 0.32552 0.85831 0.0
H922 H 0.44341 0.30075 0.80715 0.0
H923 H 0.43269 0.31723 0.93108 0.0
H924 H 0.50325 0.35139 0.86097 0.0
H925 H 0.53694 0.35203 0.83521 0.0
H926 H 0.55681 0.34412 0.94396 0.0
H927 H 0.52303 0.34314 0.9703 0.0
C928 C 0.47635 0.42142 0.973 0.0
C929 C 0.49024 0.43173 0.00354 0.0
C930 C 0.47073 0.39968 0.96279 0.0
C931 C 0.47888 0.3877 0.98282 0.0
C932 C 0.49235 0.39767 0.01393 0.0
C933 C 0.49781 0.41949 0.02449 0.0
C934 C 0.47468 0.36567 0.96866 0.0
C935 C 0.49321 0.36394 0.95638 0.0
C936 C 0.45256 0.34815 0.96081 0.0
C937 C 0.43239 0.34861 0.97491 0.0
C938 C 0.43049 0.35232 0.01253 0.0
C939 C 0.41169 0.35314 0.02563 0.0
C940 C 0.39461 0.35019 0.00141 0.0
C941 C 0.39628 0.34636 0.96403 0.0
C942 C 0.41504 0.34554 0.95077 0.0
C943 C 0.46924 0.28305 0.86821 0.0
C944 C 0.45945 0.28447 0.83503 0.0
C945 C 0.47167 0.2973 0.89762 0.0
C946 C 0.46406 0.31287 0.89423 0.0
C947 C 0.45353 0.31359 0.86157 0.0
C948 C 0.45132 0.2996 0.83225 0.0
C949 C 0.46816 0.32959 0.9233 0.0
C950 C 0.4496 0.33033 0.93817 0.0
C951 C 0.49023 0.34626 0.93333 0.0
C952 C 0.51049 0.34687 0.91753 0.0
C953 C 0.5147 0.34958 0.87934 0.0
C954 C 0.53383 0.35005 0.86464 0.0
C955 C 0.54897 0.34803 0.88792 0.0
C956 C 0.54504 0.34561 0.92596 0.0
C957 C 0.52591 0.3451 0.94078 0.0
H958 H 0.56377 0.34841 0.8765 0.0
H959 H 0.38009 0.35086 0.0116 0.0
H960 H 0.07994 0.50146 0.52635 0.0
H961 H 0.11107 0.49734 0.50126 0.0
H962 H 0.08289 0.48883 0.39231 0.0
H963 H 0.0519 0.49245 0.41694 0.0
H964 H 0.09592 0.45943 0.40247 0.0
H965 H 0.13244 0.54171 0.41362 0.0
H966 H 0.14448 0.57726 0.44675 0.0
H967 H 0.17583 0.5573 0.5297 0.0
H968 H 0.16456 0.5219 0.49618 0.0
H969 H 0.1777 0.5055 0.266 0.0
H970 H 0.15221 0.50183 0.31576 0.0
H971 H 0.1903 0.48552 0.39183 0.0
H972 H 0.21577 0.4884 0.34112 0.0
H973 H 0.17528 0.52137 0.41249 0.0
H974 H 0.14704 0.44387 0.37622 0.0
H975 H 0.13698 0.41445 0.32931 0.0
H976 H 0.08824 0.42959 0.28356 0.0
H977 H 0.09826 0.45933 0.32983 0.0
C978 C 0.08034 0.49853 0.49711 0.0
C979 C 0.06339 0.49729 0.4737 0.0
C980 C 0.09821 0.49633 0.48277 0.0
C981 C 0.09941 0.49287 0.44482 0.0
C982 C 0.08232 0.49134 0.42169 0.0
C983 C 0.06458 0.49351 0.43589 0.0
C984 C 0.11841 0.49112 0.42834 0.0
C985 C 0.1133 0.47284 0.40511 0.0
C986 C 0.14117 0.50839 0.43198 0.0
C987 C 0.14744 0.52916 0.45278 0.0
C988 C 0.14178 0.54489 0.43906 0.0
C989 C 0.14853 0.56502 0.45782 0.0
C990 C 0.16066 0.56943 0.49061 0.0
C991 C 0.16633 0.55382 0.50441 0.0
C992 C 0.15991 0.53379 0.48542 0.0
C993 C 0.18054 0.50079 0.2931 0.0
C994 C 0.19839 0.49661 0.29933 0.0
C995 C 0.16608 0.49895 0.32162 0.0
C996 C 0.16926 0.49318 0.35728 0.0
C997 C 0.18759 0.48992 0.36433 0.0
C998 C 0.20208 0.49157 0.33544 0.0
C999 C 0.1526 0.49001 0.38617 0.0
C1000 C 0.15807 0.50741 0.41141 0.0
C1001 C 0.13004 0.47224 0.3836 0.0
C1002 C 0.12341 0.45382 0.35653 0.0
C1003 C 0.13422 0.44096 0.3561 0.0
C1004 C 0.12853 0.42424 0.32959 0.0
C1005 C 0.11199 0.42016 0.30345 0.0
C1006 C 0.10104 0.43274 0.30385 0.0
C1007 C 0.10667 0.44949 0.33026 0.0
H1008 H 0.10765 0.40725 0.2829 0.0
H1009 H 0.16578 0.58499 0.50518 0.0
H1010 H 0.55365 0.03976 0.884 0.0
H1011 H 0.5877 0.07071 0.8564 0.0
H1012 H 0.61974 0.08662 0.96296 0.0
H1013 H 0.5852 0.05634 0.99098 0.0
H1014 H 0.62879 0.12339 0.93243 0.0
H1015 H 0.63382 0.06024 0.88998 0.0
H1016 H 0.621 0.02338 0.86078 0.0
H1017 H 0.61177 0.04922 0.75818 0.0
H1018 H 0.62425 0.08615 0.78689 0.0
H1019 H 0.72867 0.17421 0.78485 0.0
H1020 H 0.70336 0.1448 0.82824 0.0
H1021 H 0.66367 0.17751 0.83839 0.0
H1022 H 0.68946 0.2073 0.79611 0.0
H1023 H 0.66252 0.11571 0.81616 0.0
H1024 H 0.63204 0.16185 0.91534 0.0
H1025 H 0.64784 0.19813 0.94785 0.0
H1026 H 0.71376 0.2052 0.94379 0.0
H1027 H 0.69832 0.16883 0.91172 0.0
C1028 C 0.56805 0.04966 0.90148 0.0
C1029 C 0.56675 0.04553 0.93965 0.0
C1030 C 0.5876 0.06736 0.88563 0.0
C1031 C 0.60656 0.08093 0.90741 0.0
C1032 C 0.60541 0.07649 0.94548 0.0
C1033 C 0.58568 0.05908 0.96146 0.0
C1034 C 0.62716 0.1003 0.89074 0.0
C1035 C 0.63624 0.12165 0.90712 0.0
C1036 C 0.63731 0.09812 0.85809 0.0
C1037 C 0.62982 0.07592 0.84069 0.0
C1038 C 0.62892 0.05802 0.86126 0.0
C1039 C 0.62173 0.03712 0.84478 0.0
C1040 C 0.61554 0.03395 0.80767 0.0
C1041 C 0.61656 0.05169 0.78693 0.0
C1042 C 0.62372 0.07262 0.80328 0.0
C1043 C 0.71499 0.17549 0.79747 0.0
C1044 C 0.7111 0.19309 0.78743 0.0
C1045 C 0.70041 0.15859 0.82199 0.0
C1046 C 0.6815 0.1588 0.83667 0.0
C1047 C 0.67831 0.17708 0.82812 0.0
C1048 C 0.6931 0.19417 0.80398 0.0
C1049 C 0.66392 0.13885 0.85752 0.0
C1050 C 0.6553 0.11741 0.84176 0.0
C1051 C 0.65462 0.14087 0.89124 0.0
C1052 C 0.66403 0.16268 0.91084 0.0
C1053 C 0.64989 0.17109 0.92154 0.0
C1054 C 0.65879 0.19168 0.93986 0.0
C1055 C 0.6818 0.20399 0.94779 0.0
C1056 C 0.69596 0.19569 0.93751 0.0
C1057 C 0.68714 0.1751 0.91921 0.0
H1058 H 0.68866 0.21993 0.96196 0.0
H1059 H 0.60998 0.01776 0.79497 0.0
H1060 H 0.55144 0.54935 0.41237 0.0
H1061 H 0.56085 0.58576 0.38348 0.0
H1062 H 0.51359 0.59082 0.45595 0.0
H1063 H 0.50441 0.55511 0.48501 0.0
H1064 H 0.51139 0.59621 0.3706 0.0
H1065 H 0.56138 0.62003 0.4799 0.0
H1066 H 0.59258 0.62081 0.51484 0.0
H1067 H 0.63651 0.64923 0.42094 0.0
H1068 H 0.6054 0.64824 0.38524 0.0
H1069 H 0.51571 0.69693 0.34504 0.0
H1070 H 0.51707 0.66756 0.38117 0.0
H1071 H 0.58307 0.68787 0.33671 0.0
H1072 H 0.58246 0.71831 0.30233 0.0
H1073 H 0.5794 0.66907 0.40099 0.0
H1074 H 0.5359 0.64921 0.2925 0.0
H1075 H 0.50761 0.64723 0.2485 0.0
H1076 H 0.45483 0.60931 0.32731 0.0
H1077 H 0.48288 0.61155 0.37215 0.0
C1078 C 0.54315 0.55831 0.42208 0.0
C1079 C 0.52731 0.54946 0.45107 0.0
C1080 C 0.54856 0.57905 0.40569 0.0
C1081 C 0.5379 0.59086 0.41777 0.0
C1082 C 0.52199 0.58192 0.44636 0.0
C1083 C 0.51687 0.56155 0.46302 0.0
C1084 C 0.54258 0.61235 0.40046 0.0
C1085 C 0.5261 0.61219 0.37753 0.0
C1086 C 0.56236 0.63295 0.40799 0.0
C1087 C 0.58102 0.63381 0.4298 0.0
C1088 C 0.57763 0.62623 0.4666 0.0
C1089 C 0.59532 0.62676 0.48657 0.0
C1090 C 0.61651 0.635 0.47007 0.0
C1091 C 0.62008 0.64281 0.43365 0.0
C1092 C 0.60243 0.64228 0.41356 0.0
C1093 C 0.53102 0.69598 0.34436 0.0
C1094 C 0.54875 0.7096 0.32002 0.0
C1095 C 0.53163 0.67889 0.36464 0.0
C1096 C 0.54973 0.67488 0.3603 0.0
C1097 C 0.56872 0.69034 0.33995 0.0
C1098 C 0.56832 0.70772 0.32022 0.0
C1099 C 0.5475 0.65314 0.37272 0.0
C1100 C 0.56455 0.65317 0.39422 0.0
C1101 C 0.52854 0.63224 0.36278 0.0
C1102 C 0.51154 0.63075 0.33585 0.0
C1103 C 0.51828 0.64061 0.30058 0.0
C1104 C 0.50229 0.63945 0.27547 0.0
C1105 C 0.47944 0.62819 0.28513 0.0
C1106 C 0.47254 0.61806 0.3199 0.0
C1107 C 0.48849 0.61929 0.34519 0.0
H1108 H 0.46707 0.62728 0.26565 0.0
H1109 H 0.63022 0.63542 0.48547 0.0
H1110 H 0.50926 0.06413 0.5285 0.0
H1111 H 0.50015 0.09043 0.55853 0.0
H1112 H 0.46839 0.04325 0.6483 0.0
H1113 H 0.47771 0.01678 0.61856 0.0
H1114 H 0.44248 0.06244 0.61888 0.0
H1115 H 0.51655 0.0866 0.6688 0.0
H1116 H 0.55695 0.09838 0.66555 0.0
H1117 H 0.5689 0.15296 0.59273 0.0
H1118 H 0.52855 0.14167 0.5961 0.0
H1119 H 0.43797 0.12808 0.76326 0.0
H1120 H 0.44325 0.10354 0.72094 0.0
H1121 H 0.47962 0.15951 0.64578 0.0
H1122 H 0.47444 0.18436 0.68871 0.0
H1123 H 0.50266 0.13746 0.66086 0.0
H1124 H 0.42858 0.11655 0.62175 0.0
H1125 H 0.38835 0.10482 0.62853 0.0
H1126 H 0.37566 0.04323 0.68117 0.0
H1127 H 0.4159 0.05472 0.67521 0.0
C1128 C 0.5003 0.05928 0.55462 0.0
C1129 C 0.49415 0.03833 0.57116 0.0
C1130 C 0.4952 0.07438 0.57177 0.0
C1131 C 0.48365 0.06877 0.6056 0.0
C1132 C 0.47729 0.04783 0.62212 0.0
C1133 C 0.48269 0.03279 0.6052 0.0
C1134 C 0.47826 0.08486 0.62361 0.0
C1135 C 0.45558 0.07877 0.62841 0.0
C1136 C 0.49539 0.10641 0.63481 0.0
C1137 C 0.51956 0.11316 0.63239 0.0
C1138 C 0.52779 0.10103 0.65192 0.0
C1139 C 0.55068 0.10766 0.65016 0.0
C1140 C 0.56546 0.12629 0.62868 0.0
C1141 C 0.55741 0.13848 0.60925 0.0
C1142 C 0.53456 0.13206 0.61124 0.0
C1143 C 0.4468 0.13507 0.73743 0.0
C1144 C 0.45592 0.15808 0.7292 0.0
C1145 C 0.44969 0.12101 0.71317 0.0
C1146 C 0.4617 0.12964 0.68007 0.0
C1147 C 0.47023 0.15252 0.67115 0.0
C1148 C 0.46719 0.16664 0.69547 0.0
C1149 C 0.46678 0.115 0.65675 0.0
C1150 C 0.48947 0.12131 0.65088 0.0
C1151 C 0.44959 0.09363 0.64465 0.0
C1152 C 0.42532 0.08658 0.64823 0.0
C1153 C 0.41726 0.10058 0.63502 0.0
C1154 C 0.39443 0.09396 0.63868 0.0
C1155 C 0.37946 0.07331 0.65533 0.0
C1156 C 0.38728 0.05922 0.66829 0.0
C1157 C 0.41009 0.06577 0.66472 0.0
H1158 H 0.3618 0.06822 0.65813 0.0
H1159 H 0.58316 0.13132 0.62721 0.0
H1160 H 0.44123 0.46976 0.04694 0.0
H1161 H 0.40684 0.46912 0.06563 0.0
H1162 H 0.41196 0.50977 0.97081 0.0
H1163 H 0.44696 0.51073 0.95201 0.0
H1164 H 0.40682 0.52771 0.03185 0.0
H1165 H 0.36709 0.45559 0.97924 0.0
H1166 H 0.35833 0.41702 0.96407 0.0
H1167 H 0.3459 0.39821 0.07849 0.0
H1168 H 0.35491 0.43675 0.09448 0.0
H1169 H 0.29223 0.48492 0.14151 0.0
H1170 H 0.31247 0.48235 0.08707 0.0
H1171 H 0.37527 0.51754 0.14605 0.0
H1172 H 0.35532 0.52014 0.19988 0.0
H1173 H 0.33793 0.46134 0.0819 0.0
H1174 H 0.41695 0.55184 0.08857 0.0
H1175 H 0.42544 0.59057 0.1017 0.0
H1176 H 0.35764 0.57269 0.0737 0.0
H1177 H 0.34883 0.53396 0.05969 0.0
C1178 C 0.43487 0.47823 0.02958 0.0
C1179 C 0.44692 0.49044 0.99812 0.0
C1180 C 0.41502 0.47767 0.04016 0.0
C1181 C 0.40663 0.48921 0.01948 0.0
C1182 C 0.41806 0.50064 0.98708 0.0
C1183 C 0.43799 0.5011 0.97629 0.0
C1184 C 0.38766 0.49145 0.03473 0.0
C1185 C 0.39157 0.51319 0.04225 0.0
C1186 C 0.36745 0.4725 0.04747 0.0
C1187 C 0.36171 0.44914 0.03805 0.0
C1188 C 0.36259 0.44327 0.00121 0.0
C1189 C 0.35757 0.4214 0.99246 0.0
C1190 C 0.35157 0.40517 0.0203 0.0
C1191 C 0.35052 0.41078 0.05694 0.0
C1192 C 0.35553 0.43264 0.06586 0.0
C1193 C 0.31038 0.49224 0.14254 0.0
C1194 C 0.32221 0.50254 0.17494 0.0
C1195 C 0.32188 0.49074 0.11158 0.0
C1196 C 0.3454 0.49996 0.1124 0.0
C1197 C 0.35718 0.51058 0.14457 0.0
C1198 C 0.34574 0.51187 0.17545 0.0
C1199 C 0.35791 0.49757 0.08088 0.0
C1200 C 0.35281 0.47583 0.07047 0.0
C1201 C 0.37693 0.51652 0.06514 0.0
C1202 C 0.3822 0.53991 0.07321 0.0
C1203 C 0.40388 0.55618 0.08494 0.0
C1204 C 0.40875 0.57815 0.0926 0.0
C1205 C 0.39208 0.58408 0.08861 0.0
C1206 C 0.37052 0.56806 0.07687 0.0
C1207 C 0.36558 0.54609 0.0691 0.0
H1208 H 0.39588 0.60108 0.09458 0.0
H1209 H 0.34772 0.38826 0.01347 0.0
H1210 H 0.97469 0.43344 0.51315 0.0
H1211 H 0.94084 0.39837 0.53063 0.0
H1212 H 0.90113 0.41475 0.45823 0.0
H1213 H 0.93519 0.44996 0.44029 0.0
H1214 H 0.88632 0.40793 0.52946 0.0
H1215 H 0.9038 0.36779 0.442 0.0
H1216 H 0.92771 0.3563 0.40837 0.0
H1217 H 0.93947 0.33036 0.50874 0.0
H1218 H 0.91591 0.34199 0.54312 0.0
H1219 H 0.79491 0.3182 0.62396 0.0
H1220 H 0.81817 0.33892 0.57049 0.0
H1221 H 0.87308 0.33196 0.61358 0.0
H1222 H 0.84964 0.31045 0.66595 0.0
H1223 H 0.87412 0.33051 0.54206 0.0
H1224 H 0.86714 0.37937 0.63064 0.0
H1225 H 0.84782 0.39461 0.66823 0.0
H1226 H 0.8207 0.40725 0.57023 0.0
H1227 H 0.83958 0.39172 0.53213 0.0
C1228 C 0.95887 0.42924 0.50005 0.0
C1229 C 0.95757 0.44446 0.47544 0.0
C1230 C 0.93953 0.40912 0.50993 0.0
C1231 C 0.91844 0.40385 0.49563 0.0
C1232 C 0.91727 0.4184 0.46939 0.0
C1233 C 0.93674 0.43845 0.45905 0.0
C1234 C 0.89762 0.38518 0.51258 0.0
C1235 C 0.88323 0.39082 0.53136 0.0
C1236 C 0.89398 0.363 0.51575 0.0
C1237 C 0.90812 0.35586 0.49518 0.0
C1238 C 0.9116 0.35977 0.45697 0.0
C1239 C 0.92508 0.35321 0.43776 0.0
C1240 C 0.93512 0.34262 0.45641 0.0
C1241 C 0.93167 0.33855 0.49432 0.0
C1242 C 0.91821 0.34509 0.51368 0.0
C1243 C 0.81169 0.32049 0.62142 0.0
C1244 C 0.82054 0.31296 0.64949 0.0
C1245 C 0.82508 0.33256 0.59104 0.0
C1246 C 0.8476 0.33751 0.58839 0.0
C1247 C 0.85584 0.32854 0.61501 0.0
C1248 C 0.84246 0.31637 0.64514 0.0
C1249 C 0.86335 0.35358 0.56011 0.0
C1250 C 0.87679 0.34746 0.5393 0.0
C1251 C 0.86652 0.37556 0.55567 0.0
C1252 C 0.85445 0.38406 0.57862 0.0
C1253 C 0.85681 0.38512 0.61717 0.0
C1254 C 0.84599 0.39387 0.63855 0.0
C1255 C 0.83296 0.40181 0.62164 0.0
C1256 C 0.83069 0.40098 0.58332 0.0
C1257 C 0.84141 0.39217 0.56183 0.0
H1258 H 0.82468 0.40866 0.63823 0.0
H1259 H 0.94555 0.33756 0.44149 0.0
H1260 H 0.53701 0.95816 0.01344 0.0
H1261 H 0.54047 0.9274 0.04111 0.0
H1262 H 0.52248 0.94211 0.14736 0.0
H1263 H 0.52009 0.97352 0.12013 0.0
H1264 H 0.55233 0.93131 0.15809 0.0
H1265 H 0.48377 0.89762 0.09037 0.0
H1266 H 0.45926 0.89015 0.0363 0.0
H1267 H 0.49592 0.86426 0.97762 0.0
H1268 H 0.52085 0.87192 0.03119 0.0
H1269 H 0.50027 0.82358 0.24254 0.0
H1270 H 0.50191 0.85313 0.20213 0.0
H1271 H 0.55406 0.85173 0.13726 0.0
H1272 H 0.55295 0.82249 0.17881 0.0
H1273 H 0.51018 0.85534 0.10213 0.0
H1274 H 0.5772 0.88849 0.18168 0.0
H1275 H 0.59465 0.89301 0.24275 0.0
H1276 H 0.5527 0.91757 0.28651 0.0
H1277 H 0.53454 0.91257 0.22591 0.0
C1278 C 0.53409 0.95499 0.0428 0.0
C1279 C 0.52827 0.96825 0.06461 0.0
C1280 C 0.53589 0.93728 0.05856 0.0
C1281 C 0.5313 0.93205 0.09626 0.0
C1282 C 0.52614 0.94574 0.11824 0.0
C1283 C 0.52478 0.96373 0.10264 0.0
C1284 C 0.5313 0.91206 0.11274 0.0
C1285 C 0.54312 0.91477 0.14567 0.0
C1286 C 0.51926 0.8903 0.09682 0.0
C1287 C 0.50434 0.88563 0.06456 0.0
C1288 C 0.4867 0.89053 0.06579 0.0
C1289 C 0.47273 0.88623 0.03528 0.0
C1290 C 0.47609 0.87681 0.00351 0.0
C1291 C 0.49338 0.87161 0.00223 0.0
C1292 C 0.50744 0.87593 0.03265 0.0
C1293 C 0.51179 0.82935 0.21924 0.0
C1294 C 0.52664 0.82108 0.21382 0.0
C1295 C 0.51268 0.84611 0.19621 0.0
C1296 C 0.52823 0.85467 0.16703 0.0
C1297 C 0.54196 0.84526 0.15975 0.0
C1298 C 0.54128 0.82859 0.18327 0.0
C1299 C 0.53136 0.87486 0.14687 0.0
C1300 C 0.51988 0.87209 0.11369 0.0
C1301 C 0.54305 0.89641 0.16316 0.0
C1302 C 0.55435 0.89992 0.19935 0.0
C1303 C 0.57152 0.89462 0.20442 0.0
C1304 C 0.58156 0.89729 0.23894 0.0
C1305 C 0.57476 0.90554 0.26851 0.0
C1306 C 0.55798 0.91122 0.26356 0.0
C1307 C 0.54777 0.90842 0.22916 0.0
H1308 H 0.58251 0.90755 0.29524 0.0
H1309 H 0.46524 0.87348 0.97991 0.0
H1310 H 0.55421 0.54067 0.62148 0.0
H1311 H 0.59173 0.55428 0.64879 0.0
H1312 H 0.6002 0.50644 0.58387 0.0
H1313 H 0.56329 0.49319 0.55616 0.0
H1314 H 0.61206 0.50977 0.6636 0.0
H1315 H 0.62253 0.55711 0.55277 0.0
H1316 H 0.6154 0.58442 0.51933 0.0
H1317 H 0.64193 0.63021 0.61017 0.0
H1318 H 0.64889 0.60307 0.64433 0.0
H1319 H 0.72288 0.53625 0.67379 0.0
H1320 H 0.68793 0.52938 0.644 0.0
H1321 H 0.69789 0.59257 0.68586 0.0
H1322 H 0.73315 0.59968 0.71448 0.0
H1323 H 0.67573 0.58414 0.6244 0.0
H1324 H 0.66858 0.54505 0.73416 0.0
H1325 H 0.67441 0.52133 0.77884 0.0
H1326 H 0.63881 0.46395 0.70862 0.0
H1327 H 0.6336 0.4876 0.6626 0.0
C1328 C 0.56403 0.53295 0.61343 0.0
C1329 C 0.55592 0.51597 0.5866 0.0
C1330 C 0.58542 0.54077 0.62889 0.0
C1331 C 0.59869 0.53139 0.61814 0.0
C1332 C 0.5902 0.51388 0.59247 0.0
C1333 C 0.56915 0.5064 0.57659 0.0
C1334 C 0.62182 0.54006 0.6323 0.0
C1335 C 0.62605 0.52592 0.65482 0.0
C1336 C 0.63979 0.56162 0.62237 0.0
C1337 C 0.63601 0.57799 0.60122 0.0
C1338 C 0.62669 0.57294 0.56568 0.0
C1339 C 0.62271 0.5884 0.54659 0.0
C1340 C 0.62815 0.60899 0.5627 0.0
C1341 C 0.63769 0.61424 0.59778 0.0
C1342 C 0.64167 0.59885 0.61699 0.0
C1343 C 0.71818 0.54917 0.6748 0.0
C1344 C 0.73073 0.5686 0.69586 0.0
C1345 C 0.69805 0.54511 0.65837 0.0
C1346 C 0.68996 0.56017 0.66362 0.0
C1347 C 0.7037 0.58066 0.68155 0.0
C1348 C 0.72394 0.58483 0.69761 0.0
C1349 C 0.66625 0.55337 0.6544 0.0
C1350 C 0.66184 0.56792 0.63317 0.0
C1351 C 0.64792 0.5326 0.66708 0.0
C1352 C 0.65095 0.5182 0.69464 0.0
C1353 C 0.6622 0.52744 0.72799 0.0
C1354 C 0.66537 0.51399 0.75362 0.0
C1355 C 0.65691 0.49112 0.74668 0.0
C1356 C 0.64536 0.48168 0.71396 0.0
C1357 C 0.64237 0.49513 0.688 0.0
H1358 H 0.65931 0.48072 0.76665 0.0
H1359 H 0.62501 0.62091 0.54807 0.0
H1360 H 0.05929 0.56753 0.00567 0.0
H1361 H 0.08617 0.60319 0.03372 0.0
H1362 H 0.06291 0.57404 0.14189 0.0
H1363 H 0.03548 0.53818 0.11385 0.0
H1364 H 0.07006 0.61633 0.13841 0.0
H1365 H 0.11121 0.57926 0.10435 0.0
H1366 H 0.12451 0.56031 0.06189 0.0
H1367 H 0.15642 0.61973 0.99359 0.0
H1368 H 0.14301 0.63893 0.0354 0.0
H1369 H 0.16244 0.68006 0.25158 0.0
H1370 H 0.1332 0.65145 0.21362 0.0
H1371 H 0.16091 0.69437 0.11781 0.0
H1372 H 0.19026 0.72401 0.15649 0.0
H1373 H 0.15136 0.64889 0.10871 0.0
H1374 H 0.11279 0.68703 0.14846 0.0
H1375 H 0.09803 0.70456 0.19111 0.0
H1376 H 0.06151 0.64216 0.25108 0.0
H1377 H 0.07619 0.62428 0.20901 0.0
C1378 C 0.05975 0.56867 0.03546 0.0
C1379 C 0.04537 0.54992 0.05758 0.0
C1380 C 0.07522 0.58909 0.05143 0.0
C1381 C 0.07687 0.59117 0.08988 0.0
C1382 C 0.06198 0.57276 0.11211 0.0
C1383 C 0.04634 0.55228 0.0961 0.0
C1384 C 0.09448 0.61237 0.10683 0.0
C1385 C 0.08785 0.62335 0.13217 0.0
C1386 C 0.11765 0.62189 0.09778 0.0
C1387 C 0.1259 0.61045 0.07278 0.0
C1388 C 0.12092 0.58823 0.08013 0.0
C1389 C 0.1285 0.57745 0.0562 0.0
C1390 C 0.14124 0.58879 0.025 0.0
C1391 C 0.1465 0.61096 0.01774 0.0
C1392 C 0.13893 0.6218 0.04154 0.0
C1393 C 0.16213 0.68382 0.22261 0.0
C1394 C 0.17835 0.70468 0.20728 0.0
C1395 C 0.14539 0.6673 0.20091 0.0
C1396 C 0.14459 0.67096 0.1631 0.0
C1397 C 0.16112 0.6914 0.14713 0.0
C1398 C 0.17788 0.70823 0.16914 0.0
C1399 C 0.12693 0.65264 0.14073 0.0
C1400 C 0.13354 0.64209 0.11447 0.0
C1401 C 0.10375 0.64337 0.14924 0.0
C1402 C 0.09564 0.65433 0.17557 0.0
C1403 C 0.10178 0.67709 0.17094 0.0
C1404 C 0.09333 0.68706 0.19491 0.0
C1405 C 0.07869 0.67442 0.22358 0.0
C1406 C 0.07271 0.65187 0.22868 0.0
C1407 C 0.08107 0.64181 0.20475 0.0
H1408 H 0.07205 0.68212 0.24196 0.0
H1409 H 0.14709 0.58041 0.00651 0.0
loop_
_geom_bond_atom_site_label_1
_geom_bond_atom_site_label_2
_geom_bond_distance
_geom_bond_site_symmetry_2
_ccdc_geom_bond_type
C0 O2 1.247 . S
C0 O4 1.258 . S
C1 O8 1.281 . S
C1 O9 1.258 1_556 S
O2 C0 1.247 . S
O2 Zn3 2.028 1_455 S
Zn3 O2 2.028 1_655 S
Zn3 O7 2.035 . S
Zn3 O9 2.035 . S
Zn3 O10 2.028 1_655 S
O4 C0 1.258 . S
O4 Zn5 2.035 1_554 S
Zn5 O4 2.035 1_556 S
Zn5 O6 1.972 1_455 S
Zn5 O8 2.015 1_455 S
Zn5 O11 2.035 1_556 S
O6 Zn5 1.972 1_655 S
O6 C12 1.298 . S
O7 Zn3 2.035 . S
O7 C12 1.258 1_554 S
O8 C1 1.281 . S
O8 Zn5 2.015 1_655 S
O9 C1 1.258 1_554 S
O9 Zn3 2.035 . S
O10 Zn3 2.028 1_455 S
O10 C13 1.247 . S
O11 Zn5 2.035 1_554 S
O11 C13 1.258 . S
C12 O6 1.298 . S
C12 O7 1.258 1_556 S
C13 O10 1.247 . S
C13 O11 1.258 . S
C14 O16 1.247 . S
C14 O18 1.258 . S
C15 O22 1.247 . S
C15 O23 1.258 . S
O16 C14 1.247 . S
O16 Zn17 2.028 1_545 S
Zn17 O16 2.028 1_565 S
Zn17 O21 2.035 . S
Zn17 O23 2.035 . S
Zn17 O24 2.028 1_565 S
O18 C14 1.258 . S
O18 Zn19 2.035 . S
Zn19 O18 2.035 . S
Zn19 O20 2.028 1_545 S
Zn19 O22 2.028 1_545 S
Zn19 O25 2.035 . S
O20 Zn19 2.028 1_565 S
O20 C26 1.247 . S
O21 Zn17 2.035 . S
O21 C26 1.258 . S
O22 C15 1.247 . S
O22 Zn19 2.028 1_565 S
O23 C15 1.258 . S
O23 Zn17 2.035 . S
O24 Zn17 2.028 1_545 S
O24 C27 1.247 . S
O25 Zn19 2.035 . S
O25 C27 1.258 . S
C26 O20 1.247 . S
C26 O21 1.258 . S
C27 O24 1.247 . S
C27 O25 1.258 . S
C28 O30 1.247 . S
C28 O32 1.258 1_556 S
C29 O36 1.247 . S
C29 O37 1.258 . S
O30 C28 1.247 . S
O30 Zn31 2.028 . S
Zn31 O30 2.028 . S
Zn31 O35 2.035 1_556 S
Zn31 O37 2.035 1_556 S
Zn31 O38 2.028 . S
O32 C28 1.258 1_554 S
O32 Zn33 2.035 . S
Zn33 O32 2.035 . S
Zn33 O34 2.028 . S
Zn33 O36 2.028 . S
Zn33 O39 2.035 . S
O34 Zn33 2.028 . S
O34 C40 1.247 . S
O35 Zn31 2.035 1_554 S
O35 C40 1.258 . S
O36 C29 1.247 . S
O36 Zn33 2.028 . S
O37 C29 1.258 . S
O37 Zn31 2.035 1_554 S
O38 Zn31 2.028 . S
O38 C41 1.247 . S
O39 Zn33 2.035 . S
O39 C41 1.258 1_554 S
C40 O34 1.247 . S
C40 O35 1.258 . S
C41 O38 1.247 . S
C41 O39 1.258 1_556 S
C42 O44 1.247 . S
C42 O46 1.258 . S
C43 O50 1.247 . S
C43 O51 1.258 . S
O44 C42 1.247 . S
O44 Zn45 2.028 . S
Zn45 O44 2.028 . S
Zn45 O49 2.035 1_455 S
Zn45 O51 2.035 1_455 S
Zn45 O52 2.028 . S
O46 C42 1.258 . S
O46 Zn47 2.035 1_455 S
Zn47 O46 2.035 1_655 S
Zn47 O48 2.028 . S
Zn47 O50 2.028 . S
Zn47 O53 2.035 1_655 S
O48 Zn47 2.028 . S
O48 C54 1.247 . S
O49 Zn45 2.035 1_655 S
O49 C54 1.258 . S
O50 C43 1.247 . S
O50 Zn47 2.028 . S
O51 C43 1.258 . S
O51 Zn45 2.035 1_655 S
O52 Zn45 2.028 . S
O52 C55 1.247 . S
O53 Zn47 2.035 1_455 S
O53 C55 1.258 . S
C54 O48 1.247 . S
C54 O49 1.258 . S
C55 O52 1.247 . S
C55 O53 1.258 . S
C56 O58 1.247 . S
C56 O60 1.277 . S
C57 O64 1.247 . S
C57 O65 1.258 1_556 S
O58 C56 1.247 . S
O58 Zn59 2.028 1_565 S
Zn59 O58 2.028 1_545 S
Zn59 O63 2.035 . S
Zn59 O65 2.035 . S
Zn59 O66 2.028 1_545 S
O60 C56 1.277 . S
O60 Zn61 2.024 1_554 S
Zn61 O60 2.024 1_556 S
Zn61 O62 2.028 1_565 S
Zn61 O64 2.028 1_565 S
Zn61 O67 2.022 1_556 S
O62 Zn61 2.028 1_545 S
O62 C68 1.247 . S
O63 Zn59 2.035 . S
O63 C68 1.258 1_554 S
O64 C57 1.247 . S
O64 Zn61 2.028 1_545 S
O65 C57 1.258 1_554 S
O65 Zn59 2.035 . S
O66 Zn59 2.028 1_565 S
O66 C69 1.247 . S
O67 Zn61 2.022 1_554 S
O67 C69 1.280 . S
C68 O62 1.247 . S
C68 O63 1.258 1_556 S
C69 O66 1.247 . S
C69 O67 1.280 . S
C70 O72 1.247 . S
C70 O74 1.258 . S
C71 O78 1.247 . S
C71 O79 1.258 . S
O72 C70 1.247 . S
O72 Zn73 2.028 . S
Zn73 O72 2.028 . S
Zn73 O77 2.035 . S
Zn73 O79 2.035 . S
Zn73 O80 2.028 . S
O74 C70 1.258 . S
O74 Zn75 2.035 . S
Zn75 O74 2.035 . S
Zn75 O76 2.028 . S
Zn75 O78 2.028 . S
Zn75 O81 2.035 . S
O76 Zn75 2.028 . S
O76 C82 1.247 . S
O77 Zn73 2.035 . S
O77 C82 1.258 . S
O78 C71 1.247 . S
O78 Zn75 2.028 . S
O79 C71 1.258 . S
O79 Zn73 2.035 . S
O80 Zn73 2.028 . S
O80 C83 1.247 . S
O81 Zn75 2.035 . S
O81 C83 1.258 . S
C82 O76 1.247 . S
C82 O77 1.258 . S
C83 O80 1.247 . S
C83 O81 1.258 . S
H84 C92 0.930 . S
H85 C95 0.930 . S
H86 C97 0.930 . S
H87 C98 0.970 . S
H88 C98 0.970 . S
H89 C100 0.930 . S
H90 C102 0.930 . S
H91 C104 0.930 . S
C92 H84 0.930 . S
C92 C93 1.382 . S
C92 C94 1.426 . S
C93 C92 1.382 . S
C93 C97 1.389 . S
C94 C92 1.426 . S
C94 C95 1.375 . S
C94 C98 1.532 . S
C95 H85 0.930 . S
C95 C94 1.375 . S
C95 C96 1.416 . S
C96 C95 1.416 . S
C96 C97 1.371 . S
C97 H86 0.930 . S
C97 C93 1.389 . S
C97 C96 1.371 . S
C98 H87 0.970 . S
C98 H88 0.970 . S
C98 C94 1.532 . S
C98 C99 1.499 . S
C99 C98 1.499 . S
C99 C100 1.370 . S
C99 C104 1.415 . S
C100 H89 0.930 . S
C100 C99 1.370 . S
C100 C101 1.407 . S
C101 C100 1.407 . S
C101 C102 1.365 . S
C102 H90 0.930 . S
C102 C101 1.365 . S
C102 C103 1.393 . S
C103 C102 1.393 . S
C103 C104 1.387 . S
C104 H91 0.930 . S
C104 C99 1.415 . S
C104 C103 1.387 . S
H105 C113 0.930 . S
H106 C116 0.930 . S
H107 C118 0.930 . S
H108 C119 0.970 . S
H109 C119 0.970 . S
H110 C121 0.930 . S
H111 C123 0.930 . S
H112 C125 0.930 . S
C113 H105 0.930 . S
C113 C114 1.382 . S
C113 C115 1.426 . S
C114 C113 1.382 . S
C114 C118 1.389 . S
C115 C113 1.426 . S
C115 C116 1.375 . S
C115 C119 1.532 . S
C116 H106 0.930 . S
C116 C115 1.375 . S
C116 C117 1.416 . S
C117 C116 1.416 . S
C117 C118 1.371 . S
C118 H107 0.930 . S
C118 C114 1.389 . S
C118 C117 1.371 . S
C119 H108 0.970 . S
C119 H109 0.970 . S
C119 C115 1.532 . S
C119 C120 1.499 . S
C120 C119 1.499 . S
C120 C121 1.370 . S
C120 C125 1.415 . S
C121 H110 0.930 . S
C121 C120 1.370 . S
C121 C122 1.407 . S
C122 C121 1.407 . S
C122 C123 1.365 . S
C123 H111 0.930 . S
C123 C122 1.365 . S
C123 C124 1.393 . S
C124 C123 1.393 . S
C124 C125 1.387 . S
C125 H112 0.930 . S
C125 C120 1.415 . S
C125 C124 1.387 . S
H126 C134 0.930 . S
H127 C137 0.930 . S
H128 C139 0.930 . S
H129 C140 0.970 . S
H130 C140 0.970 . S
H131 C142 0.930 . S
H132 C144 0.930 . S
H133 C146 0.930 . S
C134 H126 0.930 . S
C134 C135 1.382 . S
C134 C136 1.426 . S
C135 C134 1.382 . S
C135 C139 1.389 . S
C136 C134 1.426 . S
C136 C137 1.375 . S
C136 C140 1.532 . S
C137 H127 0.930 . S
C137 C136 1.375 . S
C137 C138 1.416 . S
C138 C137 1.416 . S
C138 C139 1.371 . S
C139 H128 0.930 . S
C139 C135 1.389 . S
C139 C138 1.371 . S
C140 H129 0.970 . S
C140 H130 0.970 . S
C140 C136 1.532 . S
C140 C141 1.499 . S
C141 C140 1.499 . S
C141 C142 1.370 . S
C141 C146 1.415 . S
C142 H131 0.930 . S
C142 C141 1.370 . S
C142 C143 1.407 . S
C143 C142 1.407 . S
C143 C144 1.365 . S
C144 H132 0.930 . S
C144 C143 1.365 . S
C144 C145 1.393 . S
C145 C144 1.393 . S
C145 C146 1.387 . S
C146 H133 0.930 . S
C146 C141 1.415 . S
C146 C145 1.387 . S
H147 C155 0.930 . S
H148 C158 0.930 . S
H149 C160 0.930 . S
H150 C161 0.970 . S
H151 C161 0.970 . S
H152 C163 0.930 . S
H153 C165 0.930 . S
H154 C167 0.930 . S
C155 H147 0.930 . S
C155 C156 1.382 . S
C155 C157 1.426 . S
C156 C155 1.382 . S
C156 C160 1.389 . S
C157 C155 1.426 . S
C157 C158 1.375 . S
C157 C161 1.532 . S
C158 H148 0.930 . S
C158 C157 1.375 . S
C158 C159 1.416 . S
C159 C158 1.416 . S
C159 C160 1.371 . S
C160 H149 0.930 . S
C160 C156 1.389 . S
C160 C159 1.371 . S
C161 H150 0.970 . S
C161 H151 0.970 . S
C161 C157 1.532 . S
C161 C162 1.499 . S
C162 C161 1.499 . S
C162 C163 1.370 . S
C162 C167 1.415 . S
C163 H152 0.930 . S
C163 C162 1.370 . S
C163 C164 1.407 . S
C164 C163 1.407 . S
C164 C165 1.365 . S
C165 H153 0.930 . S
C165 C164 1.365 . S
C165 C166 1.393 . S
C166 C165 1.393 . S
C166 C167 1.387 . S
C167 H154 0.930 . S
C167 C162 1.415 . S
C167 C166 1.387 . S
H168 C176 0.930 . S
H169 C179 0.930 . S
H170 C181 0.930 . S
H171 C182 0.970 . S
H172 C182 0.970 . S
H173 C184 0.930 . S
H174 C186 0.930 . S
H175 C188 0.930 . S
C176 H168 0.930 . S
C176 C177 1.382 . S
C176 C178 1.426 . S
C177 C176 1.382 . S
C177 C181 1.389 . S
C178 C176 1.426 . S
C178 C179 1.375 . S
C178 C182 1.532 . S
C179 H169 0.930 . S
C179 C178 1.375 . S
C179 C180 1.416 . S
C180 C179 1.416 . S
C180 C181 1.371 . S
C181 H170 0.930 . S
C181 C177 1.389 . S
C181 C180 1.371 . S
C182 H171 0.970 . S
C182 H172 0.970 . S
C182 C178 1.532 . S
C182 C183 1.499 . S
C183 C182 1.499 . S
C183 C184 1.370 . S
C183 C188 1.415 . S
C184 H173 0.930 . S
C184 C183 1.370 . S
C184 C185 1.407 . S
C185 C184 1.407 . S
C185 C186 1.365 . S
C186 H174 0.930 . S
C186 C185 1.365 . S
C186 C187 1.393 . S
C187 C186 1.393 . S
C187 C188 1.387 . S
C188 H175 0.930 . S
C188 C183 1.415 . S
C188 C187 1.387 . S
H189 C197 0.930 . S
H190 C200 0.930 . S
H191 C202 0.930 . S
H192 C203 0.970 . S
H193 C203 0.970 . S
H194 C205 0.930 . S
H195 C207 0.930 . S
H196 C209 0.930 . S
C197 H189 0.930 . S
C197 C198 1.382 . S
C197 C199 1.426 . S
C198 C197 1.382 . S
C198 C202 1.389 . S
C199 C197 1.426 . S
C199 C200 1.375 . S
C199 C203 1.532 . S
C200 H190 0.930 . S
C200 C199 1.375 . S
C200 C201 1.416 . S
C201 C200 1.416 . S
C201 C202 1.371 . S
C202 H191 0.930 . S
C202 C198 1.389 . S
C202 C201 1.371 . S
C203 H192 0.970 . S
C203 H193 0.970 . S
C203 C199 1.532 . S
C203 C204 1.499 . S
C204 C203 1.499 . S
C204 C205 1.370 . S
C204 C209 1.415 . S
C205 H194 0.930 . S
C205 C204 1.370 . S
C205 C206 1.407 . S
C206 C205 1.407 . S
C206 C207 1.365 . S
C207 H195 0.930 . S
C207 C206 1.365 . S
C207 C208 1.393 . S
C208 C207 1.393 . S
C208 C209 1.387 . S
C209 H196 0.930 . S
C209 C204 1.415 . S
C209 C208 1.387 . S
H210 C228 0.951 . S
H211 C230 0.951 . S
H212 C232 0.950 . S
H213 C233 0.950 . S
H214 C235 0.950 . S
H215 C238 0.950 . S
H216 C239 0.950 . S
H217 C241 0.950 . S
H218 C242 0.950 . S
H219 C243 0.951 . S
H220 C245 0.951 . S
H221 C247 0.950 . S
H222 C248 0.950 . S
H223 C250 0.950 . S
H224 C253 0.950 . S
H225 C254 0.950 . S
H226 C256 0.950 . S
H227 C257 0.950 . S
C228 H210 0.951 . S
C228 C229 1.366 . S
C228 C230 1.388 . S
C229 C228 1.366 . S
C229 C233 1.385 . S
C230 H211 0.951 . S
C230 C228 1.388 . S
C230 C231 1.366 . S
C231 C230 1.366 . S
C231 C232 1.414 . S
C231 C234 1.499 . S
C232 H212 0.950 . S
C232 C231 1.414 . S
C232 C233 1.374 . S
C233 H213 0.950 . S
C233 C229 1.385 . S
C233 C232 1.374 . S
C234 C231 1.499 . S
C234 C235 1.373 . S
C234 C236 1.389 . S
C235 H214 0.950 . S
C235 C234 1.373 . S
C235 C251 1.377 . S
C236 C234 1.389 . S
C236 C237 1.524 . S
C236 C250 1.377 . S
C237 C236 1.524 . S
C237 C238 1.397 . S
C237 C242 1.363 . S
C238 H215 0.950 . S
C238 C237 1.397 . S
C238 C239 1.334 1_554 S
C239 H216 0.950 . S
C239 C238 1.334 1_556 S
C239 C240 1.287 . S
C240 C239 1.287 . S
C240 C241 1.524 . S
C240 H259 0.913 . S
C241 H217 0.950 . S
C241 C240 1.524 . S
C241 C242 1.415 1_556 S
C242 H218 0.950 . S
C242 C237 1.363 . S
C242 C241 1.415 1_554 S
C243 H219 0.951 . S
C243 C244 1.366 . S
C243 C245 1.388 . S
C244 C243 1.366 . S
C244 C248 1.385 . S
C245 H220 0.951 . S
C245 C243 1.388 . S
C245 C246 1.366 . S
C246 C245 1.366 . S
C246 C247 1.414 . S
C246 C249 1.499 . S
C247 H221 0.950 . S
C247 C246 1.414 . S
C247 C248 1.374 . S
C248 H222 0.950 . S
C248 C244 1.385 . S
C248 C247 1.374 . S
C249 C246 1.499 . S
C249 C250 1.373 . S
C249 C251 1.389 . S
C250 H223 0.950 . S
C250 C236 1.377 . S
C250 C249 1.373 . S
C251 C235 1.377 . S
C251 C249 1.389 . S
C251 C252 1.524 . S
C252 C251 1.524 . S
C252 C253 1.397 . S
C252 C257 1.363 . S
C253 H224 0.950 . S
C253 C252 1.397 . S
C253 C254 1.334 . S
C254 H225 0.950 . S
C254 C253 1.334 . S
C254 C255 1.287 . S
C255 C254 1.287 . S
C255 C256 1.524 . S
C255 H258 0.999 . S
C256 H226 0.950 . S
C256 C255 1.524 . S
C256 C257 1.415 . S
C257 H227 0.950 . S
C257 C252 1.363 . S
C257 C256 1.415 . S
H258 C255 0.999 . S
H259 C240 0.913 . S
H260 C278 0.951 . S
H261 C280 0.951 . S
H262 C282 0.950 . S
H263 C283 0.950 . S
H264 C285 0.950 . S
H265 C288 0.950 . S
H266 C289 0.950 . S
H267 C291 0.950 . S
H268 C292 0.950 . S
H269 C293 0.951 . S
H270 C295 0.951 . S
H271 C297 0.950 . S
H272 C298 0.950 . S
H273 C300 0.950 . S
H274 C303 0.950 . S
H275 C304 0.950 . S
H276 C306 0.950 . S
H277 C307 0.950 . S
C278 H260 0.951 . S
C278 C279 1.366 . S
C278 C280 1.388 . S
C279 C278 1.366 . S
C279 C283 1.385 . S
C280 H261 0.951 . S
C280 C278 1.388 . S
C280 C281 1.366 . S
C281 C280 1.366 . S
C281 C282 1.414 . S
C281 C284 1.499 . S
C282 H262 0.950 . S
C282 C281 1.414 . S
C282 C283 1.374 . S
C283 H263 0.950 . S
C283 C279 1.385 . S
C283 C282 1.374 . S
C284 C281 1.499 . S
C284 C285 1.373 . S
C284 C286 1.389 . S
C285 H264 0.950 . S
C285 C284 1.373 . S
C285 C301 1.377 . S
C286 C284 1.389 . S
C286 C287 1.524 . S
C286 C300 1.377 . S
C287 C286 1.524 . S
C287 C288 1.397 . S
C287 C292 1.363 . S
C288 H265 0.950 . S
C288 C287 1.397 . S
C288 C289 1.334 . S
C289 H266 0.950 . S
C289 C288 1.334 . S
C289 C290 1.287 . S
C290 C289 1.287 . S
C290 C291 1.524 . S
C290 H309 0.913 . S
C291 H267 0.950 . S
C291 C290 1.524 . S
C291 C292 1.415 . S
C292 H268 0.950 . S
C292 C287 1.363 . S
C292 C291 1.415 . S
C293 H269 0.951 . S
C293 C294 1.366 . S
C293 C295 1.388 . S
C294 C293 1.366 . S
C294 C298 1.385 . S
C295 H270 0.951 . S
C295 C293 1.388 . S
C295 C296 1.366 . S
C296 C295 1.366 . S
C296 C297 1.414 . S
C296 C299 1.499 . S
C297 H271 0.950 . S
C297 C296 1.414 . S
C297 C298 1.374 . S
C298 H272 0.950 . S
C298 C294 1.385 . S
C298 C297 1.374 . S
C299 C296 1.499 . S
C299 C300 1.373 . S
C299 C301 1.389 . S
C300 H273 0.950 . S
C300 C286 1.377 . S
C300 C299 1.373 . S
C301 C285 1.377 . S
C301 C299 1.389 . S
C301 C302 1.524 . S
C302 C301 1.524 . S
C302 C303 1.397 . S
C302 C307 1.363 . S
C303 H274 0.950 . S
C303 C302 1.397 . S
C303 C304 1.334 . S
C304 H275 0.950 . S
C304 C303 1.334 . S
C304 C305 1.287 . S
C305 C304 1.287 . S
C305 C306 1.524 . S
C305 H308 0.999 . S
C306 H276 0.950 . S
C306 C305 1.524 . S
C306 C307 1.415 . S
C307 H277 0.950 . S
C307 C302 1.363 . S
C307 C306 1.415 . S
H308 C305 0.999 . S
H309 C290 0.913 . S
H310 C328 0.951 . S
H311 C330 0.951 . S
H312 C332 0.950 . S
H313 C333 0.950 . S
H314 C335 0.950 . S
H315 C338 0.950 . S
H316 C339 0.950 . S
H317 C341 0.950 . S
H318 C342 0.950 . S
H319 C343 0.951 . S
H320 C345 0.951 . S
H321 C347 0.950 . S
H322 C348 0.950 . S
H323 C350 0.950 . S
H324 C353 0.950 . S
H325 C354 0.950 . S
H326 C356 0.950 . S
H327 C357 0.950 . S
C328 H310 0.951 . S
C328 C329 1.366 . S
C328 C330 1.388 . S
C329 C328 1.366 . S
C329 C333 1.385 . S
C330 H311 0.951 . S
C330 C328 1.388 . S
C330 C331 1.366 . S
C331 C330 1.366 . S
C331 C332 1.414 . S
C331 C334 1.499 . S
C332 H312 0.950 . S
C332 C331 1.414 . S
C332 C333 1.374 . S
C333 H313 0.950 . S
C333 C329 1.385 . S
C333 C332 1.374 . S
C334 C331 1.499 . S
C334 C335 1.373 . S
C334 C336 1.389 . S
C335 H314 0.950 . S
C335 C334 1.373 . S
C335 C351 1.377 . S
C336 C334 1.389 . S
C336 C337 1.524 . S
C336 C350 1.377 . S
C337 C336 1.524 . S
C337 C338 1.397 . S
C337 C342 1.363 . S
C338 H315 0.950 . S
C338 C337 1.397 . S
C338 C339 1.334 . S
C339 H316 0.950 . S
C339 C338 1.334 . S
C339 C340 1.287 . S
C340 C339 1.287 . S
C340 C341 1.524 . S
C340 H359 0.913 . S
C341 H317 0.950 . S
C341 C340 1.524 . S
C341 C342 1.415 . S
C342 H318 0.950 . S
C342 C337 1.363 . S
C342 C341 1.415 . S
C343 H319 0.951 . S
C343 C344 1.366 . S
C343 C345 1.388 . S
C344 C343 1.366 . S
C344 C348 1.385 . S
C345 H320 0.951 . S
C345 C343 1.388 . S
C345 C346 1.366 . S
C346 C345 1.366 . S
C346 C347 1.414 . S
C346 C349 1.499 . S
C347 H321 0.950 . S
C347 C346 1.414 . S
C347 C348 1.374 . S
C348 H322 0.950 . S
C348 C344 1.385 . S
C348 C347 1.374 . S
C349 C346 1.499 . S
C349 C350 1.373 . S
C349 C351 1.389 . S
C350 H323 0.950 . S
C350 C336 1.377 . S
C350 C349 1.373 . S
C351 C335 1.377 . S
C351 C349 1.389 . S
C351 C352 1.524 . S
C352 C351 1.524 . S
C352 C353 1.397 . S
C352 C357 1.363 . S
C353 H324 0.950 . S
C353 C352 1.397 . S
C353 C354 1.334 . S
C354 H325 0.950 . S
C354 C353 1.334 . S
C354 C355 1.287 . S
C355 C354 1.287 . S
C355 C356 1.524 . S
C355 H358 0.999 . S
C356 H326 0.950 . S
C356 C355 1.524 . S
C356 C357 1.415 . S
C357 H327 0.950 . S
C357 C352 1.363 . S
C357 C356 1.415 . S
H358 C355 0.999 . S
H359 C340 0.913 . S
H360 C378 0.951 . S
H361 C380 0.951 . S
H362 C382 0.950 . S
H363 C383 0.950 . S
H364 C385 0.950 . S
H365 C388 0.950 . S
H366 C389 0.950 . S
H367 C391 0.950 . S
H368 C392 0.950 . S
H369 C393 0.951 . S
H370 C395 0.951 . S
H371 C397 0.950 . S
H372 C398 0.950 . S
H373 C400 0.950 . S
H374 C403 0.950 . S
H375 C404 0.950 . S
H376 C406 0.950 . S
H377 C407 0.950 . S
C378 H360 0.951 . S
C378 C379 1.366 . S
C378 C380 1.388 . S
C379 C378 1.366 . S
C379 C383 1.385 . S
C380 H361 0.951 . S
C380 C378 1.388 . S
C380 C381 1.366 . S
C381 C380 1.366 . S
C381 C382 1.414 . S
C381 C384 1.499 . S
C382 H362 0.950 . S
C382 C381 1.414 . S
C382 C383 1.374 . S
C383 H363 0.950 . S
C383 C379 1.385 . S
C383 C382 1.374 . S
C384 C381 1.499 . S
C384 C385 1.373 . S
C384 C386 1.389 . S
C385 H364 0.950 . S
C385 C384 1.373 . S
C385 C401 1.377 . S
C386 C384 1.389 . S
C386 C387 1.524 . S
C386 C400 1.377 . S
C387 C386 1.524 . S
C387 C388 1.397 . S
C387 C392 1.363 . S
C388 H365 0.950 . S
C388 C387 1.397 . S
C388 C389 1.334 . S
C389 H366 0.950 . S
C389 C388 1.334 . S
C389 C390 1.287 . S
C390 C389 1.287 . S
C390 C391 1.524 . S
C390 H409 0.913 . S
C391 H367 0.950 . S
C391 C390 1.524 . S
C391 C392 1.415 . S
C392 H368 0.950 . S
C392 C387 1.363 . S
C392 C391 1.415 . S
C393 H369 0.951 . S
C393 C394 1.366 . S
C393 C395 1.388 . S
C394 C393 1.366 . S
C394 C398 1.385 . S
C395 H370 0.951 . S
C395 C393 1.388 . S
C395 C396 1.366 . S
C396 C395 1.366 . S
C396 C397 1.414 . S
C396 C399 1.499 . S
C397 H371 0.950 . S
C397 C396 1.414 . S
C397 C398 1.374 . S
C398 H372 0.950 . S
C398 C394 1.385 . S
C398 C397 1.374 . S
C399 C396 1.499 . S
C399 C400 1.373 . S
C399 C401 1.389 . S
C400 H373 0.950 . S
C400 C386 1.377 . S
C400 C399 1.373 . S
C401 C385 1.377 . S
C401 C399 1.389 . S
C401 C402 1.524 . S
C402 C401 1.524 . S
C402 C403 1.397 . S
C402 C407 1.363 . S
C403 H374 0.950 . S
C403 C402 1.397 . S
C403 C404 1.334 . S
C404 H375 0.950 . S
C404 C403 1.334 . S
C404 C405 1.287 . S
C405 C404 1.287 . S
C405 C406 1.524 . S
C405 H408 0.999 . S
C406 H376 0.950 . S
C406 C405 1.524 . S
C406 C407 1.415 . S
C407 H377 0.950 . S
C407 C402 1.363 . S
C407 C406 1.415 . S
H408 C405 0.999 . S
H409 C390 0.913 . S
H410 C428 0.951 . S
H411 C430 0.951 . S
H412 C432 0.950 . S
H413 C433 0.950 . S
H414 C435 0.950 . S
H415 C438 0.950 . S
H416 C439 0.950 . S
H417 C441 0.950 . S
H418 C442 0.950 . S
H419 C443 0.951 . S
H420 C445 0.951 . S
H421 C447 0.950 . S
H422 C448 0.950 . S
H423 C450 0.950 . S
H424 C453 0.950 . S
H425 C454 0.950 . S
H426 C456 0.950 . S
H427 C457 0.950 . S
C428 H410 0.951 . S
C428 C429 1.366 . S
C428 C430 1.388 . S
C429 C428 1.366 . S
C429 C433 1.385 . S
C430 H411 0.951 . S
C430 C428 1.388 . S
C430 C431 1.366 . S
C431 C430 1.366 . S
C431 C432 1.414 . S
C431 C434 1.499 . S
C432 H412 0.950 . S
C432 C431 1.414 . S
C432 C433 1.374 . S
C433 H413 0.950 . S
C433 C429 1.385 . S
C433 C432 1.374 . S
C434 C431 1.499 . S
C434 C435 1.373 . S
C434 C436 1.389 . S
C435 H414 0.950 . S
C435 C434 1.373 . S
C435 C451 1.377 . S
C436 C434 1.389 . S
C436 C437 1.524 . S
C436 C450 1.377 . S
C437 C436 1.524 . S
C437 C438 1.397 . S
C437 C442 1.363 . S
C438 H415 0.950 . S
C438 C437 1.397 . S
C438 C439 1.334 . S
C439 H416 0.950 . S
C439 C438 1.334 . S
C439 C440 1.287 . S
C440 C439 1.287 . S
C440 C441 1.524 . S
C440 H459 0.913 . S
C441 H417 0.950 . S
C441 C440 1.524 . S
C441 C442 1.415 . S
C442 H418 0.950 . S
C442 C437 1.363 . S
C442 C441 1.415 . S
C443 H419 0.951 . S
C443 C444 1.366 . S
C443 C445 1.388 . S
C444 C443 1.366 . S
C444 C448 1.385 . S
C445 H420 0.951 . S
C445 C443 1.388 . S
C445 C446 1.366 . S
C446 C445 1.366 . S
C446 C447 1.414 . S
C446 C449 1.499 . S
C447 H421 0.950 . S
C447 C446 1.414 . S
C447 C448 1.374 . S
C448 H422 0.950 . S
C448 C444 1.385 . S
C448 C447 1.374 . S
C449 C446 1.499 . S
C449 C450 1.373 . S
C449 C451 1.389 . S
C450 H423 0.950 . S
C450 C436 1.377 . S
C450 C449 1.373 . S
C451 C435 1.377 . S
C451 C449 1.389 . S
C451 C452 1.524 . S
C452 C451 1.524 . S
C452 C453 1.397 . S
C452 C457 1.363 . S
C453 H424 0.950 . S
C453 C452 1.397 . S
C453 C454 1.334 . S
C454 H425 0.950 . S
C454 C453 1.334 . S
C454 C455 1.287 . S
C455 C454 1.287 . S
C455 C456 1.524 . S
C455 H458 0.999 . S
C456 H426 0.950 . S
C456 C455 1.524 . S
C456 C457 1.415 . S
C457 H427 0.950 . S
C457 C452 1.363 . S
C457 C456 1.415 . S
H458 C455 0.999 . S
H459 C440 0.913 . S
H460 C478 0.951 . S
H461 C480 0.951 . S
H462 C482 0.950 . S
H463 C483 0.950 . S
H464 C485 0.950 . S
H465 C488 0.950 . S
H466 C489 0.950 . S
H467 C491 0.950 . S
H468 C492 0.950 . S
H469 C493 0.951 . S
H470 C495 0.951 . S
H471 C497 0.950 . S
H472 C498 0.950 . S
H473 C500 0.950 . S
H474 C503 0.950 . S
H475 C504 0.950 . S
H476 C506 0.950 . S
H477 C507 0.950 . S
C478 H460 0.951 . S
C478 C479 1.366 . S
C478 C480 1.388 . S
C479 C478 1.366 . S
C479 C483 1.385 . S
C480 H461 0.951 . S
C480 C478 1.388 . S
C480 C481 1.366 . S
C481 C480 1.366 . S
C481 C482 1.414 . S
C481 C484 1.499 . S
C482 H462 0.950 . S
C482 C481 1.414 . S
C482 C483 1.374 . S
C483 H463 0.950 . S
C483 C479 1.385 . S
C483 C482 1.374 . S
C484 C481 1.499 . S
C484 C485 1.373 . S
C484 C486 1.389 . S
C485 H464 0.950 . S
C485 C484 1.373 . S
C485 C501 1.377 . S
C486 C484 1.389 . S
C486 C487 1.524 . S
C486 C500 1.377 . S
C487 C486 1.524 . S
C487 C488 1.397 . S
C487 C492 1.363 . S
C488 H465 0.950 . S
C488 C487 1.397 . S
C488 C489 1.334 . S
C489 H466 0.950 . S
C489 C488 1.334 . S
C489 C490 1.287 . S
C490 C489 1.287 . S
C490 C491 1.524 . S
C490 H509 0.913 . S
C491 H467 0.950 . S
C491 C490 1.524 . S
C491 C492 1.415 . S
C492 H468 0.950 . S
C492 C487 1.363 . S
C492 C491 1.415 . S
C493 H469 0.951 . S
C493 C494 1.366 . S
C493 C495 1.388 . S
C494 C493 1.366 . S
C494 C498 1.385 . S
C495 H470 0.951 . S
C495 C493 1.388 . S
C495 C496 1.366 . S
C496 C495 1.366 . S
C496 C497 1.414 . S
C496 C499 1.499 . S
C497 H471 0.950 . S
C497 C496 1.414 . S
C497 C498 1.374 . S
C498 H472 0.950 . S
C498 C494 1.385 . S
C498 C497 1.374 . S
C499 C496 1.499 . S
C499 C500 1.373 . S
C499 C501 1.389 . S
C500 H473 0.950 . S
C500 C486 1.377 . S
C500 C499 1.373 . S
C501 C485 1.377 . S
C501 C499 1.389 . S
C501 C502 1.524 . S
C502 C501 1.524 . S
C502 C503 1.397 . S
C502 C507 1.363 . S
C503 H474 0.950 . S
C503 C502 1.397 . S
C503 C504 1.334 . S
C504 H475 0.950 . S
C504 C503 1.334 . S
C504 C505 1.287 . S
C505 C504 1.287 . S
C505 C506 1.524 . S
C505 H508 0.999 . S
C506 H476 0.950 . S
C506 C505 1.524 . S
C506 C507 1.415 . S
C507 H477 0.950 . S
C507 C502 1.363 . S
C507 C506 1.415 . S
H508 C505 0.999 . S
H509 C490 0.913 . S
H510 C528 0.951 . S
H511 C530 0.951 . S
H512 C532 0.950 . S
H513 C533 0.950 . S
H514 C535 0.950 . S
H515 C538 0.950 . S
H516 C539 0.950 . S
H517 C541 0.950 . S
H518 C542 0.950 . S
H519 C543 0.951 . S
H520 C545 0.951 . S
H521 C547 0.950 . S
H522 C548 0.950 . S
H523 C550 0.950 . S
H524 C553 0.950 . S
H525 C554 0.950 . S
H526 C556 0.950 . S
H527 C557 0.950 . S
C528 H510 0.951 . S
C528 C529 1.366 . S
C528 C530 1.388 . S
C529 C528 1.366 . S
C529 C533 1.385 . S
C530 H511 0.951 . S
C530 C528 1.388 . S
C530 C531 1.366 . S
C531 C530 1.366 . S
C531 C532 1.414 . S
C531 C534 1.499 . S
C532 H512 0.950 . S
C532 C531 1.414 . S
C532 C533 1.374 . S
C533 H513 0.950 . S
C533 C529 1.385 . S
C533 C532 1.374 . S
C534 C531 1.499 . S
C534 C535 1.373 . S
C534 C536 1.389 . S
C535 H514 0.950 . S
C535 C534 1.373 . S
C535 C551 1.377 . S
C536 C534 1.389 . S
C536 C537 1.524 . S
C536 C550 1.377 . S
C537 C536 1.524 . S
C537 C538 1.397 . S
C537 C542 1.363 . S
C538 H515 0.950 . S
C538 C537 1.397 . S
C538 C539 1.334 . S
C539 H516 0.950 . S
C539 C538 1.334 . S
C539 C540 1.287 . S
C540 C539 1.287 . S
C540 C541 1.524 . S
C540 H559 0.913 . S
C541 H517 0.950 . S
C541 C540 1.524 . S
C541 C542 1.415 . S
C542 H518 0.950 . S
C542 C537 1.363 . S
C542 C541 1.415 . S
C543 H519 0.951 . S
C543 C544 1.366 . S
C543 C545 1.388 . S
C544 C543 1.366 . S
C544 C548 1.385 . S
C545 H520 0.951 . S
C545 C543 1.388 . S
C545 C546 1.366 . S
C546 C545 1.366 . S
C546 C547 1.414 . S
C546 C549 1.499 . S
C547 H521 0.950 . S
C547 C546 1.414 . S
C547 C548 1.374 . S
C548 H522 0.950 . S
C548 C544 1.385 . S
C548 C547 1.374 . S
C549 C546 1.499 . S
C549 C550 1.373 . S
C549 C551 1.389 . S
C550 H523 0.950 . S
C550 C536 1.377 . S
C550 C549 1.373 . S
C551 C535 1.377 . S
C551 C549 1.389 . S
C551 C552 1.524 . S
C552 C551 1.524 . S
C552 C553 1.397 . S
C552 C557 1.363 . S
C553 H524 0.950 . S
C553 C552 1.397 . S
C553 C554 1.334 . S
C554 H525 0.950 . S
C554 C553 1.334 . S
C554 C555 1.287 . S
C555 C554 1.287 . S
C555 C556 1.524 . S
C555 H558 0.999 . S
C556 H526 0.950 . S
C556 C555 1.524 . S
C556 C557 1.415 . S
C557 H527 0.950 . S
C557 C552 1.363 . S
C557 C556 1.415 . S
H558 C555 0.999 . S
H559 C540 0.913 . S
H560 C578 0.951 . S
H561 C580 0.951 . S
H562 C582 0.950 . S
H563 C583 0.948 . S
H564 C585 0.950 . S
H565 C588 0.950 . S
H566 C589 0.950 . S
H567 C591 0.950 . S
H568 C592 0.950 . S
H569 C593 0.951 . S
H570 C595 0.951 . S
H571 C597 0.950 . S
H572 C598 0.950 . S
H573 C600 0.950 . S
H574 C603 0.950 . S
H575 C604 0.950 . S
H576 C606 0.950 . S
H577 C607 0.950 . S
C578 H560 0.951 . S
C578 C579 1.366 . S
C578 C580 1.388 . S
C579 C578 1.366 . S
C579 C583 1.385 . S
C580 H561 0.951 . S
C580 C578 1.388 . S
C580 C581 1.366 . S
C581 C580 1.366 . S
C581 C582 1.414 . S
C581 C584 1.499 . S
C582 H562 0.950 . S
C582 C581 1.414 . S
C582 C583 1.374 . S
C583 H563 0.948 . S
C583 C579 1.385 . S
C583 C582 1.374 . S
C584 C581 1.499 . S
C584 C585 1.373 . S
C584 C586 1.389 . S
C585 H564 0.950 . S
C585 C584 1.373 . S
C585 C601 1.377 . S
C586 C584 1.389 . S
C586 C587 1.524 . S
C586 C600 1.377 . S
C587 C586 1.524 . S
C587 C588 1.397 . S
C587 C592 1.363 . S
C588 H565 0.950 . S
C588 C587 1.397 . S
C588 C589 1.334 . S
C589 H566 0.950 . S
C589 C588 1.334 . S
C589 C590 1.287 . S
C590 C589 1.287 . S
C590 C591 1.524 . S
C590 H609 0.913 . S
C591 H567 0.950 . S
C591 C590 1.524 . S
C591 C592 1.415 . S
C592 H568 0.950 . S
C592 C587 1.363 . S
C592 C591 1.415 . S
C593 H569 0.951 . S
C593 C594 1.366 . S
C593 C595 1.388 . S
C594 C593 1.366 . S
C594 C598 1.385 . S
C595 H570 0.951 . S
C595 C593 1.388 . S
C595 C596 1.366 . S
C596 C595 1.366 . S
C596 C597 1.414 . S
C596 C599 1.499 . S
C597 H571 0.950 . S
C597 C596 1.414 . S
C597 C598 1.374 . S
C598 H572 0.950 . S
C598 C594 1.385 . S
C598 C597 1.374 . S
C599 C596 1.499 . S
C599 C600 1.373 . S
C599 C601 1.389 . S
C600 H573 0.950 . S
C600 C586 1.377 . S
C600 C599 1.373 . S
C601 C585 1.377 . S
C601 C599 1.389 . S
C601 C602 1.524 . S
C602 C601 1.524 . S
C602 C603 1.397 . S
C602 C607 1.363 . S
C603 H574 0.950 . S
C603 C602 1.397 . S
C603 C604 1.334 . S
C604 H575 0.950 . S
C604 C603 1.334 . S
C604 C605 1.287 . S
C605 C604 1.287 . S
C605 C606 1.524 . S
C605 H608 0.999 . S
C606 H576 0.950 . S
C606 C605 1.524 . S
C606 C607 1.415 . S
C607 H577 0.950 . S
C607 C602 1.363 . S
C607 C606 1.415 . S
H608 C605 0.999 . S
H609 C590 0.913 . S
H610 C628 0.951 . S
H611 C630 0.951 . S
H612 C632 0.950 . S
H613 C633 0.950 . S
H614 C635 0.950 . S
H615 C638 0.950 . S
H616 C639 0.950 . S
H617 C641 0.950 . S
H618 C642 0.950 . S
H619 C643 0.951 . S
H620 C645 0.951 . S
H621 C647 0.950 . S
H622 C648 0.950 . S
H623 C650 0.950 . S
H624 C653 0.950 . S
H625 C654 0.950 . S
H626 C656 0.950 . S
H627 C657 0.950 . S
C628 H610 0.951 . S
C628 C629 1.366 . S
C628 C630 1.388 . S
C629 C628 1.366 . S
C629 C633 1.385 . S
C630 H611 0.951 . S
C630 C628 1.388 . S
C630 C631 1.366 . S
C631 C630 1.366 . S
C631 C632 1.414 . S
C631 C634 1.499 . S
C632 H612 0.950 . S
C632 C631 1.414 . S
C632 C633 1.374 . S
C633 H613 0.950 . S
C633 C629 1.385 . S
C633 C632 1.374 . S
C634 C631 1.499 . S
C634 C635 1.373 . S
C634 C636 1.389 . S
C635 H614 0.950 . S
C635 C634 1.373 . S
C635 C651 1.377 . S
C636 C634 1.389 . S
C636 C637 1.524 . S
C636 C650 1.377 . S
C637 C636 1.524 . S
C637 C638 1.397 . S
C637 C642 1.363 . S
C638 H615 0.950 . S
C638 C637 1.397 . S
C638 C639 1.334 . S
C639 H616 0.950 . S
C639 C638 1.334 . S
C639 C640 1.287 . S
C640 C639 1.287 . S
C640 C641 1.524 . S
C640 H659 0.913 . S
C641 H617 0.950 . S
C641 C640 1.524 . S
C641 C642 1.415 . S
C642 H618 0.950 . S
C642 C637 1.363 . S
C642 C641 1.415 . S
C643 H619 0.951 . S
C643 C644 1.366 . S
C643 C645 1.388 . S
C644 C643 1.366 . S
C644 C648 1.385 . S
C645 H620 0.951 . S
C645 C643 1.388 . S
C645 C646 1.366 . S
C646 C645 1.366 . S
C646 C647 1.414 . S
C646 C649 1.499 . S
C647 H621 0.950 . S
C647 C646 1.414 . S
C647 C648 1.374 . S
C648 H622 0.950 . S
C648 C644 1.385 . S
C648 C647 1.374 . S
C649 C646 1.499 . S
C649 C650 1.373 . S
C649 C651 1.389 . S
C650 H623 0.950 . S
C650 C636 1.377 . S
C650 C649 1.373 . S
C651 C635 1.377 . S
C651 C649 1.389 . S
C651 C652 1.524 . S
C652 C651 1.524 . S
C652 C653 1.397 . S
C652 C657 1.363 . S
C653 H624 0.950 . S
C653 C652 1.397 . S
C653 C654 1.334 . S
C654 H625 0.950 . S
C654 C653 1.334 . S
C654 C655 1.287 . S
C655 C654 1.287 . S
C655 C656 1.524 . S
C655 H658 0.999 . S
C656 H626 0.950 . S
C656 C655 1.524 . S
C656 C657 1.415 . S
C657 H627 0.950 . S
C657 C652 1.363 . S
C657 C656 1.415 . S
H658 C655 0.999 . S
H659 C640 0.913 . S
H660 C678 0.951 . S
H661 C680 0.951 . S
H662 C682 0.950 . S
H663 C683 0.950 . S
H664 C685 0.950 . S
H665 C688 0.950 . S
H666 C689 0.950 . S
H667 C691 0.950 . S
H668 C692 0.950 . S
H669 C693 0.951 . S
H670 C695 0.951 . S
H671 C697 0.950 . S
H672 C698 0.950 . S
H673 C700 0.950 . S
H674 C703 0.950 . S
H675 C704 0.950 . S
H676 C706 0.950 . S
H677 C707 0.950 . S
C678 H660 0.951 . S
C678 C679 1.366 . S
C678 C680 1.388 . S
C679 C678 1.366 . S
C679 C683 1.385 . S
C680 H661 0.951 . S
C680 C678 1.388 . S
C680 C681 1.366 . S
C681 C680 1.366 . S
C681 C682 1.414 . S
C681 C684 1.499 . S
C682 H662 0.950 . S
C682 C681 1.414 . S
C682 C683 1.374 . S
C683 H663 0.950 . S
C683 C679 1.385 . S
C683 C682 1.374 . S
C684 C681 1.499 . S
C684 C685 1.373 . S
C684 C686 1.389 . S
C685 H664 0.950 . S
C685 C684 1.373 . S
C685 C701 1.377 . S
C686 C684 1.389 . S
C686 C687 1.524 . S
C686 C700 1.377 . S
C687 C686 1.524 . S
C687 C688 1.397 . S
C687 C692 1.363 . S
C688 H665 0.950 . S
C688 C687 1.397 . S
C688 C689 1.334 . S
C689 H666 0.950 . S
C689 C688 1.334 . S
C689 C690 1.287 . S
C690 C689 1.287 . S
C690 C691 1.524 . S
C690 H709 0.913 1_545 S
C691 H667 0.950 . S
C691 C690 1.524 . S
C691 C692 1.415 . S
C692 H668 0.950 . S
C692 C687 1.363 . S
C692 C691 1.415 . S
C693 H669 0.951 . S
C693 C694 1.366 . S
C693 C695 1.388 . S
C694 C693 1.366 . S
C694 C698 1.385 . S
C695 H670 0.951 . S
C695 C693 1.388 . S
C695 C696 1.366 . S
C696 C695 1.366 . S
C696 C697 1.414 . S
C696 C699 1.499 . S
C697 H671 0.950 . S
C697 C696 1.414 . S
C697 C698 1.374 . S
C698 H672 0.950 . S
C698 C694 1.385 . S
C698 C697 1.374 . S
C699 C696 1.499 . S
C699 C700 1.373 . S
C699 C701 1.389 . S
C700 H673 0.950 . S
C700 C686 1.377 . S
C700 C699 1.373 . S
C701 C685 1.377 . S
C701 C699 1.389 . S
C701 C702 1.524 . S
C702 C701 1.524 . S
C702 C703 1.397 . S
C702 C707 1.363 . S
C703 H674 0.950 . S
C703 C702 1.397 . S
C703 C704 1.334 . S
C704 H675 0.950 . S
C704 C703 1.334 . S
C704 C705 1.287 . S
C705 C704 1.287 . S
C705 C706 1.524 . S
C705 H708 0.999 . S
C706 H676 0.950 . S
C706 C705 1.524 . S
C706 C707 1.415 . S
C707 H677 0.950 . S
C707 C702 1.363 . S
C707 C706 1.415 . S
H708 C705 0.999 . S
H709 C690 0.913 1_565 S
H710 C728 0.951 . S
H711 C730 0.951 . S
H712 C732 0.950 . S
H713 C733 0.950 . S
H714 C735 0.950 . S
H715 C738 0.950 . S
H716 C739 0.950 . S
H717 C741 0.950 . S
H718 C742 0.950 . S
H719 C743 0.951 . S
H720 C745 0.951 . S
H721 C747 0.950 . S
H722 C748 0.950 . S
H723 C750 0.950 . S
H724 C753 0.950 . S
H725 C754 0.950 . S
H726 C756 0.950 . S
H727 C757 0.950 . S
C728 H710 0.951 . S
C728 C729 1.366 . S
C728 C730 1.388 . S
C729 C728 1.366 . S
C729 C733 1.385 . S
C730 H711 0.951 . S
C730 C728 1.388 . S
C730 C731 1.366 . S
C731 C730 1.366 . S
C731 C732 1.414 . S
C731 C734 1.499 . S
C732 H712 0.950 . S
C732 C731 1.414 . S
C732 C733 1.374 . S
C733 H713 0.950 . S
C733 C729 1.385 . S
C733 C732 1.374 . S
C734 C731 1.499 . S
C734 C735 1.373 . S
C734 C736 1.389 . S
C735 H714 0.950 . S
C735 C734 1.373 . S
C735 C751 1.377 . S
C736 C734 1.389 . S
C736 C737 1.524 . S
C736 C750 1.377 . S
C737 C736 1.524 . S
C737 C738 1.397 . S
C737 C742 1.363 . S
C738 H715 0.950 . S
C738 C737 1.397 . S
C738 C739 1.334 . S
C739 H716 0.950 . S
C739 C738 1.334 . S
C739 C740 1.287 . S
C740 C739 1.287 . S
C740 C741 1.524 . S
C740 H759 0.913 . S
C741 H717 0.950 . S
C741 C740 1.524 . S
C741 C742 1.415 . S
C742 H718 0.950 . S
C742 C737 1.363 . S
C742 C741 1.415 . S
C743 H719 0.951 . S
C743 C744 1.366 . S
C743 C745 1.388 . S
C744 C743 1.366 . S
C744 C748 1.385 . S
C745 H720 0.951 . S
C745 C743 1.388 . S
C745 C746 1.366 . S
C746 C745 1.366 . S
C746 C747 1.414 . S
C746 C749 1.499 . S
C747 H721 0.950 . S
C747 C746 1.414 . S
C747 C748 1.374 . S
C748 H722 0.950 . S
C748 C744 1.385 . S
C748 C747 1.374 . S
C749 C746 1.499 . S
C749 C750 1.373 . S
C749 C751 1.389 . S
C750 H723 0.950 . S
C750 C736 1.377 . S
C750 C749 1.373 . S
C751 C735 1.377 . S
C751 C749 1.389 . S
C751 C752 1.524 . S
C752 C751 1.524 . S
C752 C753 1.397 . S
C752 C757 1.363 . S
C753 H724 0.950 . S
C753 C752 1.397 . S
C753 C754 1.334 . S
C754 H725 0.950 . S
C754 C753 1.334 . S
C754 C755 1.287 . S
C755 C754 1.287 . S
C755 C756 1.524 . S
C755 H758 0.999 . S
C756 H726 0.950 . S
C756 C755 1.524 . S
C756 C757 1.415 . S
C757 H727 0.950 . S
C757 C752 1.363 . S
C757 C756 1.415 . S
H758 C755 0.999 . S
H759 C740 0.913 . S
H760 C778 0.951 . S
H761 C780 0.951 . S
H762 C782 0.950 . S
H763 C783 0.950 . S
H764 C785 0.950 . S
H765 C788 0.950 . S
H766 C789 0.950 1_554 S
H767 C791 0.950 . S
H768 C792 0.950 . S
H769 C793 0.951 . S
H770 C795 0.951 . S
H771 C797 0.950 . S
H772 C798 0.950 . S
H773 C800 0.950 . S
H774 C803 0.950 . S
H775 C804 0.950 . S
H776 C806 0.950 . S
H777 C807 0.950 . S
C778 H760 0.951 . S
C778 C779 1.366 . S
C778 C780 1.388 . S
C779 C778 1.366 . S
C779 C783 1.385 . S
C780 H761 0.951 . S
C780 C778 1.388 . S
C780 C781 1.366 . S
C781 C780 1.366 . S
C781 C782 1.414 . S
C781 C784 1.499 . S
C782 H762 0.950 . S
C782 C781 1.414 . S
C782 C783 1.374 . S
C783 H763 0.950 . S
C783 C779 1.385 . S
C783 C782 1.374 . S
C784 C781 1.499 . S
C784 C785 1.373 . S
C784 C786 1.389 . S
C785 H764 0.950 . S
C785 C784 1.373 . S
C785 C801 1.377 . S
C786 C784 1.389 . S
C786 C787 1.524 . S
C786 C800 1.377 . S
C787 C786 1.524 . S
C787 C788 1.397 . S
C787 C792 1.363 . S
C788 H765 0.950 . S
C788 C787 1.397 . S
C788 C789 1.334 . S
C789 H766 0.950 1_556 S
C789 C788 1.334 . S
C789 C790 1.287 . S
C790 C789 1.287 . S
C790 C791 1.524 . S
C790 H809 0.913 . S
C791 H767 0.950 . S
C791 C790 1.524 . S
C791 C792 1.415 . S
C792 H768 0.950 . S
C792 C787 1.363 . S
C792 C791 1.415 . S
C793 H769 0.951 . S
C793 C794 1.366 . S
C793 C795 1.388 . S
C794 C793 1.366 . S
C794 C798 1.385 . S
C795 H770 0.951 . S
C795 C793 1.388 . S
C795 C796 1.366 . S
C796 C795 1.366 . S
C796 C797 1.414 . S
C796 C799 1.499 . S
C797 H771 0.950 . S
C797 C796 1.414 . S
C797 C798 1.374 . S
C798 H772 0.950 . S
C798 C794 1.385 . S
C798 C797 1.374 . S
C799 C796 1.499 . S
C799 C800 1.373 . S
C799 C801 1.389 . S
C800 H773 0.950 . S
C800 C786 1.377 . S
C800 C799 1.373 . S
C801 C785 1.377 . S
C801 C799 1.389 . S
C801 C802 1.524 . S
C802 C801 1.524 . S
C802 C803 1.397 . S
C802 C807 1.363 . S
C803 H774 0.950 . S
C803 C802 1.397 . S
C803 C804 1.334 . S
C804 H775 0.950 . S
C804 C803 1.334 . S
C804 C805 1.287 . S
C805 C804 1.287 . S
C805 C806 1.524 . S
C805 H808 0.999 . S
C806 H776 0.950 . S
C806 C805 1.524 . S
C806 C807 1.415 . S
C807 H777 0.950 . S
C807 C802 1.363 . S
C807 C806 1.415 . S
H808 C805 0.999 . S
H809 C790 0.913 . S
H810 C828 0.951 . S
H811 C830 0.951 . S
H812 C832 0.950 . S
H813 C833 0.950 . S
H814 C835 0.950 . S
H815 C838 0.950 . S
H816 C839 0.950 . S
H817 C841 0.950 . S
H818 C842 0.950 . S
H819 C843 0.951 . S
H820 C845 0.951 . S
H821 C847 0.950 . S
H822 C848 0.950 . S
H823 C850 0.950 . S
H824 C853 0.950 . S
H825 C854 0.950 . S
H826 C856 0.950 . S
H827 C857 0.950 . S
C828 H810 0.951 . S
C828 C829 1.366 . S
C828 C830 1.388 . S
C829 C828 1.366 . S
C829 C833 1.385 . S
C830 H811 0.951 . S
C830 C828 1.388 . S
C830 C831 1.366 . S
C831 C830 1.366 . S
C831 C832 1.414 . S
C831 C834 1.499 . S
C832 H812 0.950 . S
C832 C831 1.414 . S
C832 C833 1.374 . S
C833 H813 0.950 . S
C833 C829 1.385 . S
C833 C832 1.374 . S
C834 C831 1.499 . S
C834 C835 1.373 . S
C834 C836 1.389 . S
C835 H814 0.950 . S
C835 C834 1.373 . S
C835 C851 1.377 . S
C836 C834 1.389 . S
C836 C837 1.524 . S
C836 C850 1.377 . S
C837 C836 1.524 . S
C837 C838 1.397 . S
C837 C842 1.363 . S
C838 H815 0.950 . S
C838 C837 1.397 . S
C838 C839 1.334 . S
C839 H816 0.950 . S
C839 C838 1.334 . S
C839 C840 1.287 . S
C840 C839 1.287 . S
C840 C841 1.524 . S
C840 H859 0.913 . S
C841 H817 0.950 . S
C841 C840 1.524 . S
C841 C842 1.415 . S
C842 H818 0.950 . S
C842 C837 1.363 . S
C842 C841 1.415 . S
C843 H819 0.951 . S
C843 C844 1.366 . S
C843 C845 1.388 . S
C844 C843 1.366 . S
C844 C848 1.385 . S
C845 H820 0.951 . S
C845 C843 1.388 . S
C845 C846 1.366 . S
C846 C845 1.366 . S
C846 C847 1.414 . S
C846 C849 1.499 . S
C847 H821 0.950 . S
C847 C846 1.414 . S
C847 C848 1.374 . S
C848 H822 0.950 . S
C848 C844 1.385 . S
C848 C847 1.374 . S
C849 C846 1.499 . S
C849 C850 1.373 . S
C849 C851 1.389 . S
C850 H823 0.950 . S
C850 C836 1.377 . S
C850 C849 1.373 . S
C851 C835 1.377 . S
C851 C849 1.389 . S
C851 C852 1.524 . S
C852 C851 1.524 . S
C852 C853 1.397 . S
C852 C857 1.363 . S
C853 H824 0.950 . S
C853 C852 1.397 . S
C853 C854 1.334 . S
C854 H825 0.950 . S
C854 C853 1.334 . S
C854 C855 1.287 . S
C855 C854 1.287 . S
C855 C856 1.524 . S
C855 H858 0.999 . S
C856 H826 0.950 . S
C856 C855 1.524 . S
C856 C857 1.415 . S
C857 H827 0.950 . S
C857 C852 1.363 . S
C857 C856 1.415 . S
H858 C855 0.999 . S
H859 C840 0.913 . S
H860 C878 0.951 . S
H861 C880 0.951 . S
H862 C882 0.950 . S
H863 C883 0.950 . S
H864 C885 0.950 . S
H865 C888 0.950 . S
H866 C889 0.950 . S
H867 C891 0.950 . S
H868 C892 0.950 . S
H869 C893 0.951 . S
H870 C895 0.951 . S
H871 C897 0.950 . S
H872 C898 0.950 . S
H873 C900 0.950 . S
H874 C903 0.950 . S
H875 C904 0.950 . S
H876 C906 0.950 . S
H877 C907 0.950 . S
C878 H860 0.951 . S
C878 C879 1.366 . S
C878 C880 1.388 . S
C879 C878 1.366 . S
C879 C883 1.385 . S
C880 H861 0.951 . S
C880 C878 1.388 . S
C880 C881 1.366 . S
C881 C880 1.366 . S
C881 C882 1.414 . S
C881 C884 1.499 . S
C882 H862 0.950 . S
C882 C881 1.414 . S
C882 C883 1.374 . S
C883 H863 0.950 . S
C883 C879 1.385 . S
C883 C882 1.374 . S
C884 C881 1.499 . S
C884 C885 1.373 . S
C884 C886 1.389 . S
C885 H864 0.950 . S
C885 C884 1.373 . S
C885 C901 1.377 . S
C886 C884 1.389 . S
C886 C887 1.524 . S
C886 C900 1.377 . S
C887 C886 1.524 . S
C887 C888 1.397 . S
C887 C892 1.363 . S
C888 H865 0.950 . S
C888 C887 1.397 . S
C888 C889 1.334 . S
C889 H866 0.950 . S
C889 C888 1.334 . S
C889 C890 1.287 . S
C890 C889 1.287 . S
C890 C891 1.524 . S
C890 H909 0.913 1_565 S
C891 H867 0.950 . S
C891 C890 1.524 . S
C891 C892 1.415 . S
C892 H868 0.950 . S
C892 C887 1.363 . S
C892 C891 1.415 . S
C893 H869 0.951 . S
C893 C894 1.366 . S
C893 C895 1.388 . S
C894 C893 1.366 . S
C894 C898 1.385 . S
C895 H870 0.951 . S
C895 C893 1.388 . S
C895 C896 1.366 . S
C896 C895 1.366 . S
C896 C897 1.414 . S
C896 C899 1.499 . S
C897 H871 0.950 . S
C897 C896 1.414 . S
C897 C898 1.374 . S
C898 H872 0.950 . S
C898 C894 1.385 . S
C898 C897 1.374 . S
C899 C896 1.499 . S
C899 C900 1.373 . S
C899 C901 1.389 . S
C900 H873 0.950 . S
C900 C886 1.377 . S
C900 C899 1.373 . S
C901 C885 1.377 . S
C901 C899 1.389 . S
C901 C902 1.524 . S
C902 C901 1.524 . S
C902 C903 1.397 . S
C902 C907 1.363 . S
C903 H874 0.950 . S
C903 C902 1.397 . S
C903 C904 1.334 . S
C904 H875 0.950 . S
C904 C903 1.334 . S
C904 C905 1.287 . S
C905 C904 1.287 . S
C905 C906 1.524 . S
C905 H908 0.999 . S
C906 H876 0.950 . S
C906 C905 1.524 . S
C906 C907 1.415 . S
C907 H877 0.950 . S
C907 C902 1.363 . S
C907 C906 1.415 . S
H908 C905 0.999 . S
H909 C890 0.913 1_545 S
H910 C928 0.951 . S
H911 C930 0.951 . S
H912 C932 0.950 . S
H913 C933 0.950 . S
H914 C935 0.950 . S
H915 C938 0.950 . S
H916 C939 0.950 . S
H917 C941 0.950 . S
H918 C942 0.950 . S
H919 C943 0.951 . S
H920 C945 0.951 . S
H921 C947 0.950 . S
H922 C948 0.950 . S
H923 C950 0.950 . S
H924 C953 0.950 . S
H925 C954 0.950 . S
H926 C956 0.950 . S
H927 C957 0.950 . S
C928 H910 0.951 . S
C928 C929 1.366 . S
C928 C930 1.388 . S
C929 C928 1.366 . S
C929 C933 1.385 . S
C930 H911 0.951 . S
C930 C928 1.388 . S
C930 C931 1.366 . S
C931 C930 1.366 . S
C931 C932 1.414 . S
C931 C934 1.499 . S
C932 H912 0.950 . S
C932 C931 1.414 . S
C932 C933 1.374 . S
C933 H913 0.950 . S
C933 C929 1.385 . S
C933 C932 1.374 . S
C934 C931 1.499 . S
C934 C935 1.373 . S
C934 C936 1.389 . S
C935 H914 0.950 . S
C935 C934 1.373 . S
C935 C951 1.377 . S
C936 C934 1.389 . S
C936 C937 1.524 . S
C936 C950 1.377 . S
C937 C936 1.524 . S
C937 C938 1.397 . S
C937 C942 1.363 . S
C938 H915 0.950 . S
C938 C937 1.397 . S
C938 C939 1.334 . S
C939 H916 0.950 . S
C939 C938 1.334 . S
C939 C940 1.287 . S
C940 C939 1.287 . S
C940 C941 1.524 . S
C940 H959 0.913 . S
C941 H917 0.950 . S
C941 C940 1.524 . S
C941 C942 1.415 . S
C942 H918 0.950 . S
C942 C937 1.363 . S
C942 C941 1.415 . S
C943 H919 0.951 . S
C943 C944 1.366 . S
C943 C945 1.388 . S
C944 C943 1.366 . S
C944 C948 1.385 . S
C945 H920 0.951 . S
C945 C943 1.388 . S
C945 C946 1.366 . S
C946 C945 1.366 . S
C946 C947 1.414 . S
C946 C949 1.499 . S
C947 H921 0.950 . S
C947 C946 1.414 . S
C947 C948 1.374 . S
C948 H922 0.950 . S
C948 C944 1.385 . S
C948 C947 1.374 . S
C949 C946 1.499 . S
C949 C950 1.373 . S
C949 C951 1.389 . S
C950 H923 0.950 . S
C950 C936 1.377 . S
C950 C949 1.373 . S
C951 C935 1.377 . S
C951 C949 1.389 . S
C951 C952 1.524 . S
C952 C951 1.524 . S
C952 C953 1.397 . S
C952 C957 1.363 . S
C953 H924 0.950 . S
C953 C952 1.397 . S
C953 C954 1.334 . S
C954 H925 0.950 . S
C954 C953 1.334 . S
C954 C955 1.287 . S
C955 C954 1.287 . S
C955 C956 1.524 . S
C955 H958 0.999 . S
C956 H926 0.950 . S
C956 C955 1.524 . S
C956 C957 1.415 . S
C957 H927 0.950 . S
C957 C952 1.363 . S
C957 C956 1.415 . S
H958 C955 0.999 . S
H959 C940 0.913 . S
H960 C978 0.951 . S
H961 C980 0.951 . S
H962 C982 0.950 . S
H963 C983 0.950 . S
H964 C985 0.950 . S
H965 C988 0.950 . S
H966 C989 0.950 . S
H967 C991 0.950 . S
H968 C992 0.950 . S
H969 C993 0.951 . S
H970 C995 0.951 . S
H971 C997 0.950 . S
H972 C998 0.950 . S
H973 C1000 0.950 . S
H974 C1003 0.950 . S
H975 C1004 0.950 . S
H976 C1006 0.950 . S
H977 C1007 0.950 . S
C978 H960 0.951 . S
C978 C979 1.366 . S
C978 C980 1.388 . S
C979 C978 1.366 . S
C979 C983 1.385 . S
C980 H961 0.951 . S
C980 C978 1.388 . S
C980 C981 1.366 . S
C981 C980 1.366 . S
C981 C982 1.414 . S
C981 C984 1.499 . S
C982 H962 0.950 . S
C982 C981 1.414 . S
C982 C983 1.374 . S
C983 H963 0.950 . S
C983 C979 1.385 . S
C983 C982 1.374 . S
C984 C981 1.499 . S
C984 C985 1.373 . S
C984 C986 1.389 . S
C985 H964 0.950 . S
C985 C984 1.373 . S
C985 C1001 1.377 . S
C986 C984 1.389 . S
C986 C987 1.524 . S
C986 C1000 1.377 . S
C987 C986 1.524 . S
C987 C988 1.397 . S
C987 C992 1.363 . S
C988 H965 0.950 . S
C988 C987 1.397 . S
C988 C989 1.334 . S
C989 H966 0.950 . S
C989 C988 1.334 . S
C989 C990 1.287 . S
C990 C989 1.287 . S
C990 C991 1.524 . S
C990 H1009 0.913 . S
C991 H967 0.950 . S
C991 C990 1.524 . S
C991 C992 1.415 . S
C992 H968 0.950 . S
C992 C987 1.363 . S
C992 C991 1.415 . S
C993 H969 0.951 . S
C993 C994 1.366 . S
C993 C995 1.388 . S
C994 C993 1.366 . S
C994 C998 1.385 . S
C995 H970 0.951 . S
C995 C993 1.388 . S
C995 C996 1.366 . S
C996 C995 1.366 . S
C996 C997 1.414 . S
C996 C999 1.499 . S
C997 H971 0.950 . S
C997 C996 1.414 . S
C997 C998 1.374 . S
C998 H972 0.950 . S
C998 C994 1.385 . S
C998 C997 1.374 . S
C999 C996 1.499 . S
C999 C1000 1.373 . S
C999 C1001 1.389 . S
C1000 H973 0.950 . S
C1000 C986 1.377 . S
C1000 C999 1.373 . S
C1001 C985 1.377 . S
C1001 C999 1.389 . S
C1001 C1002 1.524 . S
C1002 C1001 1.524 . S
C1002 C1003 1.397 . S
C1002 C1007 1.363 . S
C1003 H974 0.950 . S
C1003 C1002 1.397 . S
C1003 C1004 1.334 . S
C1004 H975 0.950 . S
C1004 C1003 1.334 . S
C1004 C1005 1.287 . S
C1005 C1004 1.287 . S
C1005 C1006 1.524 . S
C1005 H1008 0.999 . S
C1006 H976 0.950 . S
C1006 C1005 1.524 . S
C1006 C1007 1.415 . S
C1007 H977 0.950 . S
C1007 C1002 1.363 . S
C1007 C1006 1.415 . S
H1008 C1005 0.999 . S
H1009 C990 0.913 . S
H1010 C1028 0.951 . S
H1011 C1030 0.951 . S
H1012 C1032 0.950 . S
H1013 C1033 0.950 . S
H1014 C1035 0.950 . S
H1015 C1038 0.950 . S
H1016 C1039 0.950 . S
H1017 C1041 0.950 . S
H1018 C1042 0.950 . S
H1019 C1043 0.951 . S
H1020 C1045 0.951 . S
H1021 C1047 0.950 . S
H1022 C1048 0.950 . S
H1023 C1050 0.950 . S
H1024 C1053 0.950 . S
H1025 C1054 0.950 . S
H1026 C1056 0.950 1_554 S
H1027 C1057 0.950 . S
C1028 H1010 0.951 . S
C1028 C1029 1.366 . S
C1028 C1030 1.388 . S
C1029 C1028 1.366 . S
C1029 C1033 1.385 . S
C1030 H1011 0.951 . S
C1030 C1028 1.388 . S
C1030 C1031 1.366 . S
C1031 C1030 1.366 . S
C1031 C1032 1.414 . S
C1031 C1034 1.499 . S
C1032 H1012 0.950 . S
C1032 C1031 1.414 . S
C1032 C1033 1.374 . S
C1033 H1013 0.950 . S
C1033 C1029 1.385 . S
C1033 C1032 1.374 . S
C1034 C1031 1.499 . S
C1034 C1035 1.373 . S
C1034 C1036 1.389 . S
C1035 H1014 0.950 . S
C1035 C1034 1.373 . S
C1035 C1051 1.377 . S
C1036 C1034 1.389 . S
C1036 C1037 1.524 . S
C1036 C1050 1.377 . S
C1037 C1036 1.524 . S
C1037 C1038 1.397 . S
C1037 C1042 1.363 . S
C1038 H1015 0.950 . S
C1038 C1037 1.397 . S
C1038 C1039 1.334 . S
C1039 H1016 0.950 . S
C1039 C1038 1.334 . S
C1039 C1040 1.287 . S
C1040 C1039 1.287 . S
C1040 C1041 1.524 . S
C1040 H1059 0.913 . S
C1041 H1017 0.950 . S
C1041 C1040 1.524 . S
C1041 C1042 1.415 . S
C1042 H1018 0.950 . S
C1042 C1037 1.363 . S
C1042 C1041 1.415 . S
C1043 H1019 0.951 . S
C1043 C1044 1.366 . S
C1043 C1045 1.388 . S
C1044 C1043 1.366 . S
C1044 C1048 1.385 . S
C1045 H1020 0.951 . S
C1045 C1043 1.388 . S
C1045 C1046 1.366 . S
C1046 C1045 1.366 . S
C1046 C1047 1.414 . S
C1046 C1049 1.499 . S
C1047 H1021 0.950 . S
C1047 C1046 1.414 . S
C1047 C1048 1.374 . S
C1048 H1022 0.950 . S
C1048 C1044 1.385 . S
C1048 C1047 1.374 . S
C1049 C1046 1.499 . S
C1049 C1050 1.373 . S
C1049 C1051 1.389 . S
C1050 H1023 0.950 . S
C1050 C1036 1.377 . S
C1050 C1049 1.373 . S
C1051 C1035 1.377 . S
C1051 C1049 1.389 . S
C1051 C1052 1.524 . S
C1052 C1051 1.524 . S
C1052 C1053 1.397 . S
C1052 C1057 1.363 . S
C1053 H1024 0.950 . S
C1053 C1052 1.397 . S
C1053 C1054 1.334 . S
C1054 H1025 0.950 . S
C1054 C1053 1.334 . S
C1054 C1055 1.287 . S
C1055 C1054 1.287 . S
C1055 C1056 1.524 . S
C1055 H1058 0.999 . S
C1056 H1026 0.950 1_556 S
C1056 C1055 1.524 . S
C1056 C1057 1.415 . S
C1057 H1027 0.950 . S
C1057 C1052 1.363 . S
C1057 C1056 1.415 . S
H1058 C1055 0.999 . S
H1059 C1040 0.913 . S
H1060 C1078 0.951 . S
H1061 C1080 0.951 . S
H1062 C1082 0.950 . S
H1063 C1083 0.950 . S
H1064 C1085 0.950 . S
H1065 C1088 0.950 . S
H1066 C1089 0.950 . S
H1067 C1091 0.950 . S
H1068 C1092 0.950 . S
H1069 C1093 0.951 . S
H1070 C1095 0.951 . S
H1071 C1097 0.950 . S
H1072 C1098 0.950 . S
H1073 C1100 0.950 . S
H1074 C1103 0.950 . S
H1075 C1104 0.950 . S
H1076 C1106 0.950 . S
H1077 C1107 0.950 . S
C1078 H1060 0.951 . S
C1078 C1079 1.366 . S
C1078 C1080 1.388 . S
C1079 C1078 1.366 . S
C1079 C1083 1.385 . S
C1080 H1061 0.951 . S
C1080 C1078 1.388 . S
C1080 C1081 1.366 . S
C1081 C1080 1.366 . S
C1081 C1082 1.414 . S
C1081 C1084 1.499 . S
C1082 H1062 0.950 . S
C1082 C1081 1.414 . S
C1082 C1083 1.374 . S
C1083 H1063 0.950 . S
C1083 C1079 1.385 . S
C1083 C1082 1.374 . S
C1084 C1081 1.499 . S
C1084 C1085 1.373 . S
C1084 C1086 1.389 . S
C1085 H1064 0.950 . S
C1085 C1084 1.373 . S
C1085 C1101 1.377 . S
C1086 C1084 1.389 . S
C1086 C1087 1.524 . S
C1086 C1100 1.377 . S
C1087 C1086 1.524 . S
C1087 C1088 1.397 . S
C1087 C1092 1.363 . S
C1088 H1065 0.950 . S
C1088 C1087 1.397 . S
C1088 C1089 1.334 . S
C1089 H1066 0.950 . S
C1089 C1088 1.334 . S
C1089 C1090 1.287 . S
C1090 C1089 1.287 . S
C1090 C1091 1.524 . S
C1090 H1109 0.913 . S
C1091 H1067 0.950 . S
C1091 C1090 1.524 . S
C1091 C1092 1.415 . S
C1092 H1068 0.950 . S
C1092 C1087 1.363 . S
C1092 C1091 1.415 . S
C1093 H1069 0.951 . S
C1093 C1094 1.366 . S
C1093 C1095 1.388 . S
C1094 C1093 1.366 . S
C1094 C1098 1.385 . S
C1095 H1070 0.951 . S
C1095 C1093 1.388 . S
C1095 C1096 1.366 . S
C1096 C1095 1.366 . S
C1096 C1097 1.414 . S
C1096 C1099 1.499 . S
C1097 H1071 0.950 . S
C1097 C1096 1.414 . S
C1097 C1098 1.374 . S
C1098 H1072 0.950 . S
C1098 C1094 1.385 . S
C1098 C1097 1.374 . S
C1099 C1096 1.499 . S
C1099 C1100 1.373 . S
C1099 C1101 1.389 . S
C1100 H1073 0.950 . S
C1100 C1086 1.377 . S
C1100 C1099 1.373 . S
C1101 C1085 1.377 . S
C1101 C1099 1.389 . S
C1101 C1102 1.524 . S
C1102 C1101 1.524 . S
C1102 C1103 1.397 . S
C1102 C1107 1.363 . S
C1103 H1074 0.950 . S
C1103 C1102 1.397 . S
C1103 C1104 1.334 . S
C1104 H1075 0.950 . S
C1104 C1103 1.334 . S
C1104 C1105 1.287 . S
C1105 C1104 1.287 . S
C1105 C1106 1.524 . S
C1105 H1108 0.999 . S
C1106 H1076 0.950 . S
C1106 C1105 1.524 . S
C1106 C1107 1.415 . S
C1107 H1077 0.950 . S
C1107 C1102 1.363 . S
C1107 C1106 1.415 . S
H1108 C1105 0.999 . S
H1109 C1090 0.913 . S
H1110 C1128 0.951 . S
H1111 C1130 0.951 . S
H1112 C1132 0.950 . S
H1113 C1133 0.950 . S
H1114 C1135 0.950 . S
H1115 C1138 0.950 . S
H1116 C1139 0.950 . S
H1117 C1141 0.950 . S
H1118 C1142 0.950 . S
H1119 C1143 0.951 . S
H1120 C1145 0.951 . S
H1121 C1147 0.950 . S
H1122 C1148 0.950 . S
H1123 C1150 0.950 . S
H1124 C1153 0.950 . S
H1125 C1154 0.950 . S
H1126 C1156 0.950 . S
H1127 C1157 0.950 . S
C1128 H1110 0.951 . S
C1128 C1129 1.366 . S
C1128 C1130 1.388 . S
C1129 C1128 1.366 . S
C1129 C1133 1.385 . S
C1130 H1111 0.951 . S
C1130 C1128 1.388 . S
C1130 C1131 1.366 . S
C1131 C1130 1.366 . S
C1131 C1132 1.414 . S
C1131 C1134 1.499 . S
C1132 H1112 0.950 . S
C1132 C1131 1.414 . S
C1132 C1133 1.374 . S
C1133 H1113 0.950 . S
C1133 C1129 1.385 . S
C1133 C1132 1.374 . S
C1134 C1131 1.499 . S
C1134 C1135 1.373 . S
C1134 C1136 1.389 . S
C1135 H1114 0.950 . S
C1135 C1134 1.373 . S
C1135 C1151 1.377 . S
C1136 C1134 1.389 . S
C1136 C1137 1.524 . S
C1136 C1150 1.377 . S
C1137 C1136 1.524 . S
C1137 C1138 1.397 . S
C1137 C1142 1.363 . S
C1138 H1115 0.950 . S
C1138 C1137 1.397 . S
C1138 C1139 1.334 . S
C1139 H1116 0.950 . S
C1139 C1138 1.334 . S
C1139 C1140 1.287 . S
C1140 C1139 1.287 . S
C1140 C1141 1.524 . S
C1140 H1159 0.913 . S
C1141 H1117 0.950 . S
C1141 C1140 1.524 . S
C1141 C1142 1.415 . S
C1142 H1118 0.950 . S
C1142 C1137 1.363 . S
C1142 C1141 1.415 . S
C1143 H1119 0.951 . S
C1143 C1144 1.366 . S
C1143 C1145 1.388 . S
C1144 C1143 1.366 . S
C1144 C1148 1.385 . S
C1145 H1120 0.951 . S
C1145 C1143 1.388 . S
C1145 C1146 1.366 . S
C1146 C1145 1.366 . S
C1146 C1147 1.414 . S
C1146 C1149 1.499 . S
C1147 H1121 0.950 . S
C1147 C1146 1.414 . S
C1147 C1148 1.374 . S
C1148 H1122 0.950 . S
C1148 C1144 1.385 . S
C1148 C1147 1.374 . S
C1149 C1146 1.499 . S
C1149 C1150 1.373 . S
C1149 C1151 1.389 . S
C1150 H1123 0.950 . S
C1150 C1136 1.377 . S
C1150 C1149 1.373 . S
C1151 C1135 1.377 . S
C1151 C1149 1.389 . S
C1151 C1152 1.524 . S
C1152 C1151 1.524 . S
C1152 C1153 1.397 . S
C1152 C1157 1.363 . S
C1153 H1124 0.950 . S
C1153 C1152 1.397 . S
C1153 C1154 1.334 . S
C1154 H1125 0.950 . S
C1154 C1153 1.334 . S
C1154 C1155 1.287 . S
C1155 C1154 1.287 . S
C1155 C1156 1.524 . S
C1155 H1158 0.999 . S
C1156 H1126 0.950 . S
C1156 C1155 1.524 . S
C1156 C1157 1.415 . S
C1157 H1127 0.950 . S
C1157 C1152 1.363 . S
C1157 C1156 1.415 . S
H1158 C1155 0.999 . S
H1159 C1140 0.913 . S
H1160 C1178 0.951 . S
H1161 C1180 0.951 . S
H1162 C1182 0.950 . S
H1163 C1183 0.950 . S
H1164 C1185 0.950 . S
H1165 C1188 0.950 . S
H1166 C1189 0.950 . S
H1167 C1191 0.950 . S
H1168 C1192 0.950 . S
H1169 C1193 0.951 . S
H1170 C1195 0.951 . S
H1171 C1197 0.950 . S
H1172 C1198 0.950 . S
H1173 C1200 0.950 . S
H1174 C1203 0.950 . S
H1175 C1204 0.950 . S
H1176 C1206 0.950 . S
H1177 C1207 0.950 . S
C1178 H1160 0.951 . S
C1178 C1179 1.366 . S
C1178 C1180 1.388 . S
C1179 C1178 1.366 . S
C1179 C1183 1.385 . S
C1180 H1161 0.951 . S
C1180 C1178 1.388 . S
C1180 C1181 1.366 . S
C1181 C1180 1.366 . S
C1181 C1182 1.414 . S
C1181 C1184 1.499 . S
C1182 H1162 0.950 . S
C1182 C1181 1.414 . S
C1182 C1183 1.374 . S
C1183 H1163 0.950 . S
C1183 C1179 1.385 . S
C1183 C1182 1.374 . S
C1184 C1181 1.499 . S
C1184 C1185 1.373 . S
C1184 C1186 1.389 . S
C1185 H1164 0.950 . S
C1185 C1184 1.373 . S
C1185 C1201 1.377 . S
C1186 C1184 1.389 . S
C1186 C1187 1.524 . S
C1186 C1200 1.377 . S
C1187 C1186 1.524 . S
C1187 C1188 1.397 . S
C1187 C1192 1.363 . S
C1188 H1165 0.950 . S
C1188 C1187 1.397 . S
C1188 C1189 1.334 . S
C1189 H1166 0.950 . S
C1189 C1188 1.334 . S
C1189 C1190 1.287 . S
C1190 C1189 1.287 . S
C1190 C1191 1.524 . S
C1190 H1209 0.913 . S
C1191 H1167 0.950 . S
C1191 C1190 1.524 . S
C1191 C1192 1.415 . S
C1192 H1168 0.950 . S
C1192 C1187 1.363 . S
C1192 C1191 1.415 . S
C1193 H1169 0.951 . S
C1193 C1194 1.366 . S
C1193 C1195 1.388 . S
C1194 C1193 1.366 . S
C1194 C1198 1.385 . S
C1195 H1170 0.951 . S
C1195 C1193 1.388 . S
C1195 C1196 1.366 . S
C1196 C1195 1.366 . S
C1196 C1197 1.414 . S
C1196 C1199 1.499 . S
C1197 H1171 0.950 . S
C1197 C1196 1.414 . S
C1197 C1198 1.374 . S
C1198 H1172 0.950 . S
C1198 C1194 1.385 . S
C1198 C1197 1.374 . S
C1199 C1196 1.499 . S
C1199 C1200 1.373 . S
C1199 C1201 1.389 . S
C1200 H1173 0.950 . S
C1200 C1186 1.377 . S
C1200 C1199 1.373 . S
C1201 C1185 1.377 . S
C1201 C1199 1.389 . S
C1201 C1202 1.524 . S
C1202 C1201 1.524 . S
C1202 C1203 1.397 . S
C1202 C1207 1.363 . S
C1203 H1174 0.950 . S
C1203 C1202 1.397 . S
C1203 C1204 1.334 . S
C1204 H1175 0.950 . S
C1204 C1203 1.334 . S
C1204 C1205 1.287 . S
C1205 C1204 1.287 . S
C1205 C1206 1.524 . S
C1205 H1208 0.999 . S
C1206 H1176 0.950 . S
C1206 C1205 1.524 . S
C1206 C1207 1.415 . S
C1207 H1177 0.950 . S
C1207 C1202 1.363 . S
C1207 C1206 1.415 . S
H1208 C1205 0.999 . S
H1209 C1190 0.913 . S
H1210 C1228 0.951 . S
H1211 C1230 0.951 . S
H1212 C1232 0.950 . S
H1213 C1233 0.950 . S
H1214 C1235 0.950 . S
H1215 C1238 0.950 . S
H1216 C1239 0.950 . S
H1217 C1241 0.985 . S
H1218 C1242 0.950 . S
H1219 C1243 0.951 . S
H1220 C1245 0.951 . S
H1221 C1247 0.950 . S
H1222 C1248 0.950 . S
H1223 C1250 0.950 . S
H1224 C1253 0.950 . S
H1225 C1254 0.950 . S
H1226 C1256 0.950 . S
H1227 C1257 0.950 . S
C1228 H1210 0.951 . S
C1228 C1229 1.366 . S
C1228 C1230 1.388 . S
C1229 C1228 1.366 . S
C1229 C1233 1.385 . S
C1230 H1211 0.951 . S
C1230 C1228 1.388 . S
C1230 C1231 1.366 . S
C1231 C1230 1.366 . S
C1231 C1232 1.414 . S
C1231 C1234 1.499 . S
C1232 H1212 0.950 . S
C1232 C1231 1.414 . S
C1232 C1233 1.374 . S
C1233 H1213 0.950 . S
C1233 C1229 1.385 . S
C1233 C1232 1.374 . S
C1234 C1231 1.499 . S
C1234 C1235 1.373 . S
C1234 C1236 1.389 . S
C1235 H1214 0.950 . S
C1235 C1234 1.373 . S
C1235 C1251 1.377 . S
C1236 C1234 1.389 . S
C1236 C1237 1.524 . S
C1236 C1250 1.377 . S
C1237 C1236 1.524 . S
C1237 C1238 1.397 . S
C1237 C1242 1.363 . S
C1238 H1215 0.950 . S
C1238 C1237 1.397 . S
C1238 C1239 1.334 . S
C1239 H1216 0.950 . S
C1239 C1238 1.334 . S
C1239 C1240 1.287 . S
C1240 C1239 1.287 . S
C1240 C1241 1.524 . S
C1240 H1259 0.913 1_655 S
C1241 H1217 0.985 . S
C1241 C1240 1.524 . S
C1241 C1242 1.415 . S
C1242 H1218 0.950 . S
C1242 C1237 1.363 . S
C1242 C1241 1.415 . S
C1243 H1219 0.951 . S
C1243 C1244 1.366 . S
C1243 C1245 1.388 . S
C1244 C1243 1.366 . S
C1244 C1248 1.385 . S
C1245 H1220 0.951 . S
C1245 C1243 1.388 . S
C1245 C1246 1.366 . S
C1246 C1245 1.366 . S
C1246 C1247 1.414 . S
C1246 C1249 1.499 . S
C1247 H1221 0.950 . S
C1247 C1246 1.414 . S
C1247 C1248 1.374 . S
C1248 H1222 0.950 . S
C1248 C1244 1.385 . S
C1248 C1247 1.374 . S
C1249 C1246 1.499 . S
C1249 C1250 1.373 . S
C1249 C1251 1.389 . S
C1250 H1223 0.950 . S
C1250 C1236 1.377 . S
C1250 C1249 1.373 . S
C1251 C1235 1.377 . S
C1251 C1249 1.389 . S
C1251 C1252 1.524 . S
C1252 C1251 1.524 . S
C1252 C1253 1.397 . S
C1252 C1257 1.363 . S
C1253 H1224 0.950 . S
C1253 C1252 1.397 . S
C1253 C1254 1.334 . S
C1254 H1225 0.950 . S
C1254 C1253 1.334 . S
C1254 C1255 1.287 . S
C1255 C1254 1.287 . S
C1255 C1256 1.524 . S
C1255 H1258 0.999 . S
C1256 H1226 0.950 . S
C1256 C1255 1.524 . S
C1256 C1257 1.415 . S
C1257 H1227 0.950 . S
C1257 C1252 1.363 . S
C1257 C1256 1.415 . S
H1258 C1255 0.999 . S
H1259 C1240 0.913 1_455 S
H1260 C1278 0.951 . S
H1261 C1280 0.951 . S
H1262 C1282 0.950 . S
H1263 C1283 0.950 . S
H1264 C1285 0.950 . S
H1265 C1288 0.950 . S
H1266 C1289 0.950 . S
H1267 C1291 0.950 . S
H1268 C1292 0.950 . S
H1269 C1293 0.951 . S
H1270 C1295 0.951 . S
H1271 C1297 0.950 . S
H1272 C1298 0.950 . S
H1273 C1300 0.950 . S
H1274 C1303 0.950 . S
H1275 C1304 0.950 . S
H1276 C1306 0.950 . S
H1277 C1307 0.950 . S
C1278 H1260 0.951 . S
C1278 C1279 1.366 . S
C1278 C1280 1.388 . S
C1279 C1278 1.366 . S
C1279 C1283 1.385 . S
C1280 H1261 0.951 . S
C1280 C1278 1.388 . S
C1280 C1281 1.366 . S
C1281 C1280 1.366 . S
C1281 C1282 1.414 . S
C1281 C1284 1.499 . S
C1282 H1262 0.950 . S
C1282 C1281 1.414 . S
C1282 C1283 1.374 . S
C1283 H1263 0.950 . S
C1283 C1279 1.385 . S
C1283 C1282 1.374 . S
C1284 C1281 1.499 . S
C1284 C1285 1.373 . S
C1284 C1286 1.389 . S
C1285 H1264 0.950 . S
C1285 C1284 1.373 . S
C1285 C1301 1.377 . S
C1286 C1284 1.389 . S
C1286 C1287 1.524 . S
C1286 C1300 1.377 . S
C1287 C1286 1.524 . S
C1287 C1288 1.397 . S
C1287 C1292 1.363 . S
C1288 H1265 0.950 . S
C1288 C1287 1.397 . S
C1288 C1289 1.334 . S
C1289 H1266 0.950 . S
C1289 C1288 1.334 . S
C1289 C1290 1.287 . S
C1290 C1289 1.287 . S
C1290 C1291 1.524 . S
C1290 H1309 0.913 . S
C1291 H1267 0.950 . S
C1291 C1290 1.524 . S
C1291 C1292 1.415 . S
C1292 H1268 0.950 . S
C1292 C1287 1.363 . S
C1292 C1291 1.415 . S
C1293 H1269 0.951 . S
C1293 C1294 1.366 . S
C1293 C1295 1.388 . S
C1294 C1293 1.366 . S
C1294 C1298 1.385 . S
C1295 H1270 0.951 . S
C1295 C1293 1.388 . S
C1295 C1296 1.366 . S
C1296 C1295 1.366 . S
C1296 C1297 1.414 . S
C1296 C1299 1.499 . S
C1297 H1271 0.950 . S
C1297 C1296 1.414 . S
C1297 C1298 1.374 . S
C1298 H1272 0.950 . S
C1298 C1294 1.385 . S
C1298 C1297 1.374 . S
C1299 C1296 1.499 . S
C1299 C1300 1.373 . S
C1299 C1301 1.389 . S
C1300 H1273 0.950 . S
C1300 C1286 1.377 . S
C1300 C1299 1.373 . S
C1301 C1285 1.377 . S
C1301 C1299 1.389 . S
C1301 C1302 1.524 . S
C1302 C1301 1.524 . S
C1302 C1303 1.397 . S
C1302 C1307 1.363 . S
C1303 H1274 0.950 . S
C1303 C1302 1.397 . S
C1303 C1304 1.334 . S
C1304 H1275 0.950 . S
C1304 C1303 1.334 . S
C1304 C1305 1.287 . S
C1305 C1304 1.287 . S
C1305 C1306 1.524 . S
C1305 H1308 0.999 . S
C1306 H1276 0.950 . S
C1306 C1305 1.524 . S
C1306 C1307 1.415 . S
C1307 H1277 0.950 . S
C1307 C1302 1.363 . S
C1307 C1306 1.415 . S
H1308 C1305 0.999 . S
H1309 C1290 0.913 . S
H1310 C1328 0.951 . S
H1311 C1330 0.951 . S
H1312 C1332 0.950 . S
H1313 C1333 0.950 . S
H1314 C1335 0.950 . S
H1315 C1338 0.950 . S
H1316 C1339 0.950 . S
H1317 C1341 0.950 . S
H1318 C1342 0.950 . S
H1319 C1343 0.951 . S
H1320 C1345 0.951 . S
H1321 C1347 0.950 . S
H1322 C1348 0.950 . S
H1323 C1350 0.950 . S
H1324 C1353 0.950 . S
H1325 C1354 0.950 . S
H1326 C1356 0.950 . S
H1327 C1357 0.950 . S
C1328 H1310 0.951 . S
C1328 C1329 1.366 . S
C1328 C1330 1.388 . S
C1329 C1328 1.366 . S
C1329 C1333 1.385 . S
C1330 H1311 0.951 . S
C1330 C1328 1.388 . S
C1330 C1331 1.366 . S
C1331 C1330 1.366 . S
C1331 C1332 1.414 . S
C1331 C1334 1.499 . S
C1332 H1312 0.950 . S
C1332 C1331 1.414 . S
C1332 C1333 1.374 . S
C1333 H1313 0.950 . S
C1333 C1329 1.385 . S
C1333 C1332 1.374 . S
C1334 C1331 1.499 . S
C1334 C1335 1.373 . S
C1334 C1336 1.389 . S
C1335 H1314 0.950 . S
C1335 C1334 1.373 . S
C1335 C1351 1.377 . S
C1336 C1334 1.389 . S
C1336 C1337 1.524 . S
C1336 C1350 1.377 . S
C1337 C1336 1.524 . S
C1337 C1338 1.397 . S
C1337 C1342 1.363 . S
C1338 H1315 0.950 . S
C1338 C1337 1.397 . S
C1338 C1339 1.334 . S
C1339 H1316 0.950 . S
C1339 C1338 1.334 . S
C1339 C1340 1.287 . S
C1340 C1339 1.287 . S
C1340 C1341 1.524 . S
C1340 H1359 0.913 . S
C1341 H1317 0.950 . S
C1341 C1340 1.524 . S
C1341 C1342 1.415 . S
C1342 H1318 0.950 . S
C1342 C1337 1.363 . S
C1342 C1341 1.415 . S
C1343 H1319 0.951 . S
C1343 C1344 1.366 . S
C1343 C1345 1.388 . S
C1344 C1343 1.366 . S
C1344 C1348 1.385 . S
C1345 H1320 0.951 . S
C1345 C1343 1.388 . S
C1345 C1346 1.366 . S
C1346 C1345 1.366 . S
C1346 C1347 1.414 . S
C1346 C1349 1.499 . S
C1347 H1321 0.950 . S
C1347 C1346 1.414 . S
C1347 C1348 1.374 . S
C1348 H1322 0.950 . S
C1348 C1344 1.385 . S
C1348 C1347 1.374 . S
C1349 C1346 1.499 . S
C1349 C1350 1.373 . S
C1349 C1351 1.389 . S
C1350 H1323 0.950 . S
C1350 C1336 1.377 . S
C1350 C1349 1.373 . S
C1351 C1335 1.377 . S
C1351 C1349 1.389 . S
C1351 C1352 1.524 . S
C1352 C1351 1.524 . S
C1352 C1353 1.397 . S
C1352 C1357 1.363 . S
C1353 H1324 0.950 . S
C1353 C1352 1.397 . S
C1353 C1354 1.334 . S
C1354 H1325 0.950 . S
C1354 C1353 1.334 . S
C1354 C1355 1.287 . S
C1355 C1354 1.287 . S
C1355 C1356 1.524 . S
C1355 H1358 0.999 . S
C1356 H1326 0.950 . S
C1356 C1355 1.524 . S
C1356 C1357 1.415 . S
C1357 H1327 0.950 . S
C1357 C1352 1.363 . S
C1357 C1356 1.415 . S
H1358 C1355 0.999 . S
H1359 C1340 0.913 . S
H1360 C1378 0.951 . S
H1361 C1380 0.951 . S
H1362 C1382 0.950 . S
H1363 C1383 0.950 . S
H1364 C1385 0.950 . S
H1365 C1388 0.950 . S
H1366 C1389 0.950 . S
H1367 C1391 0.950 . S
H1368 C1392 0.950 . S
H1369 C1393 0.951 . S
H1370 C1395 0.951 . S
H1371 C1397 0.950 . S
H1372 C1398 0.950 . S
H1373 C1400 0.950 . S
H1374 C1403 0.950 . S
H1375 C1404 0.950 . S
H1376 C1406 0.950 . S
H1377 C1407 0.950 . S
C1378 H1360 0.951 . S
C1378 C1379 1.366 . S
C1378 C1380 1.388 . S
C1379 C1378 1.366 . S
C1379 C1383 1.385 . S
C1380 H1361 0.951 . S
C1380 C1378 1.388 . S
C1380 C1381 1.366 . S
C1381 C1380 1.366 . S
C1381 C1382 1.414 . S
C1381 C1384 1.499 . S
C1382 H1362 0.950 . S
C1382 C1381 1.414 . S
C1382 C1383 1.374 . S
C1383 H1363 0.950 . S
C1383 C1379 1.385 . S
C1383 C1382 1.374 . S
C1384 C1381 1.499 . S
C1384 C1385 1.373 . S
C1384 C1386 1.389 . S
C1385 H1364 0.950 . S
C1385 C1384 1.373 . S
C1385 C1401 1.377 . S
C1386 C1384 1.389 . S
C1386 C1387 1.524 . S
C1386 C1400 1.377 . S
C1387 C1386 1.524 . S
C1387 C1388 1.397 . S
C1387 C1392 1.363 . S
C1388 H1365 0.950 . S
C1388 C1387 1.397 . S
C1388 C1389 1.334 . S
C1389 H1366 0.950 . S
C1389 C1388 1.334 . S
C1389 C1390 1.287 . S
C1390 C1389 1.287 . S
C1390 C1391 1.524 . S
C1390 H1409 0.913 . S
C1391 H1367 0.950 . S
C1391 C1390 1.524 . S
C1391 C1392 1.415 . S
C1392 H1368 0.950 . S
C1392 C1387 1.363 . S
C1392 C1391 1.415 . S
C1393 H1369 0.951 . S
C1393 C1394 1.366 . S
C1393 C1395 1.388 . S
C1394 C1393 1.366 . S
C1394 C1398 1.385 . S
C1395 H1370 0.951 . S
C1395 C1393 1.388 . S
C1395 C1396 1.366 . S
C1396 C1395 1.366 . S
C1396 C1397 1.414 . S
C1396 C1399 1.499 . S
C1397 H1371 0.950 . S
C1397 C1396 1.414 . S
C1397 C1398 1.374 . S
C1398 H1372 0.950 . S
C1398 C1394 1.385 . S
C1398 C1397 1.374 . S
C1399 C1396 1.499 . S
C1399 C1400 1.373 . S
C1399 C1401 1.389 . S
C1400 H1373 0.950 . S
C1400 C1386 1.377 . S
C1400 C1399 1.373 . S
C1401 C1385 1.377 . S
C1401 C1399 1.389 . S
C1401 C1402 1.524 . S
C1402 C1401 1.524 . S
C1402 C1403 1.397 . S
C1402 C1407 1.363 . S
C1403 H1374 0.950 . S
C1403 C1402 1.397 . S
C1403 C1404 1.334 . S
C1404 H1375 0.950 . S
C1404 C1403 1.334 . S
C1404 C1405 1.287 . S
C1405 C1404 1.287 . S
C1405 C1406 1.524 . S
C1405 H1408 0.999 . S
C1406 H1376 0.950 . S
C1406 C1405 1.524 . S
C1406 C1407 1.415 . S
C1407 H1377 0.950 . S
C1407 C1402 1.363 . S
C1407 C1406 1.415 . S
H1408 C1405 0.999 . S
H1409 C1390 0.913 . S
C229 C13 1.592 . S
C244 C93 1.442 . S
C279 C27 1.629 . S
C294 C114 1.475 . S
C344 C135 1.446 . S
C329 C29 1.597 . S
C394 C164 1.556 . S
C379 C54 1.640 . S
C444 C177 1.441 . S
C429 C69 1.592 . S
C494 C201 1.546 . S
C479 C83 1.629 . S
C529 C15 1.583 . S
C544 C145 1.453 . S
C579 C41 1.634 . S
C594 C159 1.550 . S
C644 C187 1.456 . S
C629 C42 1.588 . S
C694 C206 1.556 . S
C679 C57 1.642 . S
C729 C71 1.590 . S
C744 C103 1.457 . S
C794 C124 1.492 . S
C779 C1 1.626 . S
C844 C166 1.547 . S
C829 C12 1.616 . S
C879 C26 1.668 . S
C894 C180 1.474 . S
C944 C198 1.555 . S
C929 C28 1.630 . S
C979 C55 1.668 . S
C994 C96 1.473 . S
C1029 C68 1.631 . S
C1044 C117 1.439 . S
C1079 C82 1.665 . S
C1094 C138 1.473 . S
C1129 C14 1.614 . S
C1144 C208 1.546 . S
C1194 C101 1.491 . S
C1179 C40 1.666 . S
C1229 C43 1.630 . S
C1244 C122 1.458 . S
C1279 C56 1.672 . S
C1294 C143 1.495 . S
C1329 C70 1.625 . S
C1344 C156 1.551 . S
C1379 C0 1.665 . S
C1394 C185 1.489 . S
