# Generated by pormake.
# Topology llj, (12,3)-cn, num edge types: 1
# Building blocks:
#     Node 0, Type 0, BuildingBlock: QEWDON_clean_sbu_0, # of connection points: 12
#     Node 1, Type 0, BuildingBlock: QEWDON_clean_sbu_0, # of connection points: 12
#     Node 2, Type 1, BuildingBlock: QEWDON_clean_linker_0, # of connection points: 3
#     Node 3, Type 1, BuildingBlock: QEWDON_clean_linker_0, # of connection points: 3
#     Node 4, Type 1, BuildingBlock: QEWDON_clean_linker_0, # of connection points: 3
#     Node 5, Type 1, BuildingBlock: QEWDON_clean_linker_0, # of connection points: 3
#     Node 6, Type 1, BuildingBlock: QEWDON_clean_linker_0, # of connection points: 3
#     Node 7, Type 1, BuildingBlock: QEWDON_clean_linker_0, # of connection points: 3
#     Node 8, Type 1, BuildingBlock: QEWDON_clean_linker_0, # of connection points: 3
#     Node 9, Type 1, BuildingBlock: QEWDON_clean_linker_0, # of connection points: 3
#     Edge 10, Type (0, 1), BuildingBlock: KIFKEQ_clean_linker_1, # of connection points: 2
#     Edge 11, Type (0, 1), BuildingBlock: KIFKEQ_clean_linker_1, # of connection points: 2
#     Edge 12, Type (0, 1), BuildingBlock: KIFKEQ_clean_linker_1, # of connection points: 2
#     Edge 13, Type (0, 1), BuildingBlock: KIFKEQ_clean_linker_1, # of connection points: 2
#     Edge 14, Type (0, 1), BuildingBlock: KIFKEQ_clean_linker_1, # of connection points: 2
#     Edge 15, Type (0, 1), BuildingBlock: KIFKEQ_clean_linker_1, # of connection points: 2
#     Edge 16, Type (0, 1), BuildingBlock: KIFKEQ_clean_linker_1, # of connection points: 2
#     Edge 17, Type (0, 1), BuildingBlock: KIFKEQ_clean_linker_1, # of connection points: 2
#     Edge 18, Type (0, 1), BuildingBlock: KIFKEQ_clean_linker_1, # of connection points: 2
#     Edge 19, Type (0, 1), BuildingBlock: KIFKEQ_clean_linker_1, # of connection points: 2
#     Edge 20, Type (0, 1), BuildingBlock: KIFKEQ_clean_linker_1, # of connection points: 2
#     Edge 21, Type (0, 1), BuildingBlock: KIFKEQ_clean_linker_1, # of connection points: 2
#     Edge 22, Type (0, 1), BuildingBlock: KIFKEQ_clean_linker_1, # of connection points: 2
#     Edge 23, Type (0, 1), BuildingBlock: KIFKEQ_clean_linker_1, # of connection points: 2
#     Edge 24, Type (0, 1), BuildingBlock: KIFKEQ_clean_linker_1, # of connection points: 2
#     Edge 25, Type (0, 1), BuildingBlock: KIFKEQ_clean_linker_1, # of connection points: 2
#     Edge 26, Type (0, 1), BuildingBlock: KIFKEQ_clean_linker_1, # of connection points: 2
#     Edge 27, Type (0, 1), BuildingBlock: KIFKEQ_clean_linker_1, # of connection points: 2
#     Edge 28, Type (0, 1), BuildingBlock: KIFKEQ_clean_linker_1, # of connection points: 2
#     Edge 29, Type (0, 1), BuildingBlock: KIFKEQ_clean_linker_1, # of connection points: 2
#     Edge 30, Type (0, 1), BuildingBlock: KIFKEQ_clean_linker_1, # of connection points: 2
#     Edge 31, Type (0, 1), BuildingBlock: KIFKEQ_clean_linker_1, # of connection points: 2
#     Edge 32, Type (0, 1), BuildingBlock: KIFKEQ_clean_linker_1, # of connection points: 2
#     Edge 33, Type (0, 1), BuildingBlock: KIFKEQ_clean_linker_1, # of connection points: 2
# Relax obj value: 0.027
# Max RMSD: 0.172
# Mean RMSD: 0.148
data_MOF--net-llj--node1-QEWDON_clean_sbu_0--node2-QEWDON_clean_linker_0--edge1-KIFKEQ_clean_linker_1
_symmetry_space_group_name_H-M    P1
_symmetry_Int_Tables_number       1
_symmetry_cell_setting            triclinic
loop_
_symmetry_equiv_pos_as_xyz
'x, y, z'
_cell_length_a     42.253248
_cell_length_b     42.227388
_cell_length_c     24.773185
_cell_angle_alpha  91.294558
_cell_angle_beta   91.240389
_cell_angle_gamma 90.391521
loop_
_atom_site_label
_atom_site_type_symbol
_atom_site_fract_x
_atom_site_fract_y
_atom_site_fract_z
_atom_type_partial_charge
Zn0 Zn 0.9514 0.08826 0.95027 0.0
Zn1 Zn 0.9512 0.07358 0.07679 0.0
O2 O 0.97787 0.0714 0.01157 0.0
H3 H 0.99377 0.05554 0.00534 0.0
C4 C 0.87338 0.03573 0.90211 0.0
O5 O 0.86717 0.04888 0.94924 0.0
Zn6 Zn 0.04824 0.94267 0.05777 0.0
Zn7 Zn 0.04548 0.93074 0.92937 0.0
O8 O 0.02057 0.9478 0.99216 0.0
H9 H 0.00399 0.96327 0.98834 0.0
Zn10 Zn 0.89339 0.9835 0.97023 0.0
O11 O 0.93803 0.98701 0.00032 0.0
Zn12 Zn 0.93596 0.95917 0.0637 0.0
H13 H 0.95533 1.00016 0.98885 0.0
Zn14 Zn 0.06252 0.05942 0.94365 0.0
O15 O 0.05047 0.03163 0.00526 0.0
H16 H 0.03485 0.01487 0.00141 0.0
Zn17 Zn 0.06135 0.0561 0.07297 0.0
C18 C 0.08974 0.01083 0.87723 0.0
O19 O 0.10132 0.00378 0.9251 0.0
O20 O 0.91206 0.11235 0.97549 0.0
O21 O 0.91353 0.10308 0.06372 0.0
O22 O 0.08347 0.90354 0.95302 0.0
O23 O 0.08355 0.9115 0.04224 0.0
O24 O 0.87228 0.93999 0.9832 0.0
O25 O 0.90523 0.92245 0.04704 0.0
C26 C 0.0079 0.08618 0.14022 0.0
O27 O 0.09414 0.0947 0.96728 0.0
O28 O 0.09371 0.09074 0.05672 0.0
O29 O 0.01885 0.91661 0.86165 0.0
C30 C 0.90078 0.11606 0.02253 0.0
O31 O 0.97587 0.10348 0.88388 0.0
C32 C 0.99281 0.93125 0.11824 0.0
O33 O 0.88406 0.00769 0.90013 0.0
C34 C 0.0949 0.89833 4e-05 0.0
O35 O 0.07174 0.03467 0.87297 0.0
C36 C 0.92563 0.0151 0.12836 0.0
O37 O 0.97805 0.09002 0.14086 0.0
O38 O 0.01938 0.07256 0.09879 0.0
C39 C 0.88119 0.91841 0.0153 0.0
O40 O 0.02252 0.92697 0.11959 0.0
O41 O 0.98038 0.94445 0.07754 0.0
C42 C 0.07619 0.99689 0.12173 0.0
O43 O 0.92179 0.9852 0.12792 0.0
O44 O 0.9382 0.028 0.08818 0.0
C45 C 0.10413 0.10348 0.01423 0.0
O46 O 0.07908 0.02663 0.12921 0.0
O47 O 0.06384 0.98642 0.0777 0.0
C48 C 0.99686 0.89629 0.86702 0.0
O49 O 0.99226 0.88448 0.91487 0.0
C50 C 0.00413 0.11358 0.89074 0.0
O51 O 0.01668 0.11468 0.93975 0.0
Zn52 Zn 0.44755 0.58859 0.45221 0.0
Zn53 Zn 0.44982 0.57991 0.58067 0.0
O54 O 0.47562 0.57598 0.51469 0.0
H55 H 0.49291 0.56148 0.50983 0.0
C56 C 0.36856 0.54031 0.43271 0.0
O57 O 0.35621 0.55183 0.47717 0.0
Zn58 Zn 0.55064 0.44307 0.56437 0.0
Zn59 Zn 0.54945 0.43962 0.43535 0.0
O60 O 0.52187 0.44746 0.50022 0.0
H61 H 0.5012 0.45708 0.49921 0.0
Zn62 Zn 0.39544 0.49068 0.50374 0.0
O63 O 0.44254 0.48815 0.51962 0.0
Zn64 Zn 0.44072 0.46374 0.58686 0.0
H65 H 0.45903 0.50239 0.50842 0.0
Zn66 Zn 0.5594 0.55062 0.45023 0.0
O67 O 0.54436 0.52877 0.51656 0.0
H68 H 0.52694 0.51382 0.51583 0.0
Zn69 Zn 0.55768 0.55595 0.5802 0.0
C70 C 0.58465 0.4973 0.38911 0.0
O71 O 0.59758 0.49181 0.43667 0.0
O72 O 0.40822 0.61302 0.47651 0.0
O73 O 0.41113 0.60755 0.56577 0.0
O74 O 0.5895 0.41415 0.45447 0.0
O75 O 0.58838 0.41638 0.54421 0.0
O76 O 0.37169 0.44892 0.52088 0.0
O77 O 0.40757 0.42848 0.57693 0.0
C78 C 0.50636 0.59289 0.64264 0.0
O79 O 0.59143 0.58672 0.46752 0.0
O80 O 0.59123 0.58817 0.55747 0.0
O81 O 0.525 0.42584 0.36539 0.0
C82 C 0.39754 0.6185 0.52354 0.0
O83 O 0.47111 0.6026 0.38408 0.0
C84 C 0.49816 0.42659 0.62976 0.0
O85 O 0.38451 0.51493 0.4343 0.0
C86 C 0.60102 0.40687 0.50049 0.0
O87 O 0.56709 0.5214 0.38366 0.0
C88 C 0.4311 0.52368 0.64336 0.0
O89 O 0.4769 0.59893 0.64209 0.0
O90 O 0.51695 0.57627 0.60369 0.0
C91 C 0.38127 0.4264 0.55051 0.0
O92 O 0.52741 0.42128 0.6233 0.0
O93 O 0.48471 0.44634 0.59887 0.0
C94 C 0.57335 0.49838 0.6332 0.0
O95 O 0.42957 0.49382 0.6483 0.0
O96 O 0.43881 0.53491 0.59837 0.0
C97 C 0.60168 0.59808 0.51278 0.0
O98 O 0.57461 0.52828 0.64027 0.0
O99 O 0.5626 0.48726 0.58845 0.0
C100 C 0.5048 0.40373 0.37027 0.0
O101 O 0.50107 0.39147 0.41802 0.0
C102 C 0.49967 0.61189 0.39029 0.0
O103 O 0.51255 0.61274 0.43906 0.0
H104 H 0.37409 0.27129 0.06822 0.0
C105 C 0.38035 0.2835 0.03189 0.0
C106 C 0.39607 0.31296 0.03566 0.0
C107 C 0.37395 0.26897 0.98133 0.0
H108 H 0.41737 0.35028 0.99039 0.0
C109 C 0.40417 0.32818 0.98795 0.0
C110 C 0.3975 0.31406 0.93707 0.0
C111 C 0.38253 0.28429 0.93415 0.0
C112 C 0.36081 0.23656 0.9778 0.0
H113 H 0.37765 0.27286 0.89519 0.0
C114 C 0.33003 0.23006 0.99507 0.0
C115 C 0.31779 0.19898 0.99141 0.0
C116 C 0.37936 0.2119 0.957 0.0
H117 H 0.40314 0.21655 0.94353 0.0
C118 C 0.3675 0.181 0.95405 0.0
H119 H 0.31564 0.24915 0.01087 0.0
C120 C 0.33694 0.17451 0.97113 0.0
H121 H 0.32799 0.15045 0.9673 0.0
H122 H 0.38195 0.16206 0.9381 0.0
H123 H 0.69992 0.36703 0.09212 0.0
C124 C 0.68772 0.37043 0.05374 0.0
C125 C 0.65837 0.38583 0.05219 0.0
C126 C 0.70283 0.36209 0.00569 0.0
H127 H 0.62158 0.40436 0.00083 0.0
C128 C 0.64381 0.39174 0.0019 0.0
C129 C 0.65856 0.38342 0.95329 0.0
C130 C 0.68812 0.36832 0.95576 0.0
C131 C 0.73617 0.35213 0.00756 0.0
H132 H 0.70032 0.36223 0.91896 0.0
C133 C 0.74474 0.32126 0.02187 0.0
C134 C 0.7769 0.31266 0.02428 0.0
C135 C 0.75974 0.37428 0.9956 0.0
H136 H 0.75346 0.39816 0.98455 0.0
C137 C 0.79157 0.36594 0.99833 0.0
H138 H 0.72652 0.30412 0.031 0.0
C139 C 0.80016 0.33538 0.0126 0.0
H140 H 0.82503 0.3293 0.01332 0.0
H141 H 0.80964 0.38316 0.98908 0.0
H142 H 0.6833 0.67164 0.9406 0.0
C143 C 0.6687 0.66958 0.97582 0.0
C144 C 0.63603 0.66373 0.96942 0.0
C145 C 0.68264 0.67183 0.02779 0.0
H146 H 0.59232 0.6557 0.01026 0.0
C147 C 0.61747 0.66048 0.01528 0.0
C148 C 0.6312 0.66207 0.06735 0.0
C149 C 0.66384 0.66796 0.07326 0.0
C150 C 0.71718 0.67606 0.03523 0.0
H151 H 0.67488 0.66871 0.1132 0.0
C152 C 0.73212 0.70461 0.02191 0.0
C153 C 0.7647 0.70939 0.03334 0.0
C154 C 0.735 0.65193 0.05884 0.0
H155 H 0.72382 0.62984 0.06956 0.0
C156 C 0.76732 0.65617 0.06914 0.0
H157 H 0.7182 0.72319 0.00374 0.0
C158 C 0.78207 0.6847 0.05689 0.0
H159 H 0.80695 0.68765 0.0673 0.0
H160 H 0.78089 0.63749 0.08761 0.0
H161 H 0.28027 0.64673 0.08535 0.0
C162 C 0.29646 0.64207 0.05279 0.0
C163 C 0.3259 0.6281 0.06375 0.0
C164 C 0.28664 0.64742 -0.00064 0.0
H165 H 0.3687 0.60995 0.02893 0.0
C166 C 0.34595 0.62078 0.02076 0.0
C167 C 0.33652 0.62647 0.96719 0.0
C168 C 0.30677 0.63985 0.9568 0.0
C169 C 0.25382 0.65698 0.98758 0.0
H170 H 0.29861 0.64304 0.91548 0.0
C171 C 0.24329 0.6874 0.00193 0.0
C172 C 0.21168 0.69593 0.99149 0.0
C173 C 0.2327 0.63511 0.96266 0.0
H174 H 0.24051 0.61152 0.95146 0.0
C175 C 0.20124 0.64337 0.95282 0.0
H176 H 0.25963 0.70434 0.02101 0.0
C177 C 0.1907 0.67357 0.96723 0.0
H178 H 0.1663 0.6797 0.9584 0.0
H179 H 0.18501 0.62637 0.9338 0.0
H180 H 0.85695 0.78206 0.5511 0.0
C181 C 0.86409 0.79641 0.51767 0.0
C182 C 0.88056 0.82509 0.52777 0.0
C183 C 0.85841 0.78525 0.46444 0.0
H184 H 0.90409 0.86445 0.49095 0.0
C185 C 0.89053 0.84282 0.48382 0.0
C186 C 0.88472 0.83211 0.43053 0.0
C187 C 0.86844 0.80341 0.42107 0.0
C188 C 0.84587 0.75284 0.45416 0.0
H189 H 0.86487 0.79444 0.38001 0.0
C190 C 0.8165 0.74324 0.47426 0.0
C191 C 0.80565 0.71189 0.46547 0.0
C192 C 0.86415 0.73095 0.42507 0.0
H193 H 0.88692 0.7378 0.40956 0.0
C194 C 0.85356 0.69986 0.41671 0.0
H195 H 0.8022 0.76003 0.49654 0.0
C196 C 0.82455 0.69031 0.43687 0.0
H197 H 0.81659 0.66614 0.42927 0.0
H198 H 0.86787 0.68311 0.39448 0.0
H199 H 0.20657 0.879 0.58427 0.0
C200 C 0.1941 0.88092 0.54576 0.0
C201 C 0.16478 0.89625 0.54306 0.0
C202 C 0.20866 0.87042 0.49843 0.0
H203 H 0.12756 0.91279 0.4906 0.0
C204 C 0.14975 0.90011 0.49258 0.0
C205 C 0.1639 0.8894 0.44471 0.0
C206 C 0.19346 0.87438 0.44818 0.0
C207 C 0.24176 0.8599 0.5009 0.0
H208 H 0.20521 0.86655 0.41184 0.0
C209 C 0.24944 0.82866 0.51398 0.0
C210 C 0.28135 0.81936 0.51741 0.0
C211 C 0.26592 0.88182 0.49111 0.0
H212 H 0.26026 0.90601 0.48108 0.0
C213 C 0.29753 0.87276 0.49465 0.0
H214 H 0.2307 0.8118 0.52168 0.0
C215 C 0.30527 0.84177 0.50773 0.0
H216 H 0.32999 0.83517 0.50927 0.0
H217 H 0.3161 0.88977 0.48703 0.0
H218 H 0.18238 0.17208 0.43472 0.0
C219 C 0.16845 0.17081 0.47086 0.0
C220 C 0.13606 0.16313 0.46675 0.0
C221 C 0.18297 0.17646 0.52178 0.0
H222 H 0.09371 0.15419 0.5108 0.0
C223 C 0.11857 0.16065 0.51396 0.0
C224 C 0.13305 0.16499 0.56516 0.0
C225 C 0.16523 0.17353 0.56871 0.0
C226 C 0.21742 0.18192 0.52672 0.0
H227 H 0.17693 0.17638 0.60792 0.0
C228 C 0.23009 0.21277 0.53153 0.0
C229 C 0.26289 0.21741 0.54024 0.0
C230 C 0.23762 0.15579 0.52972 0.0
H231 H 0.22815 0.1319 0.52634 0.0
C232 C 0.27011 0.1603 0.538 0.0
H233 H 0.21446 0.23299 0.52968 0.0
C234 C 0.2827 0.19088 0.54354 0.0
H235 H 0.30801 0.19383 0.54986 0.0
H236 H 0.28558 0.14003 0.54047 0.0
H237 H 0.77111 0.14865 0.56594 0.0
C238 C 0.78497 0.13995 0.5325 0.0
C239 C 0.81356 0.12394 0.54214 0.0
C240 C 0.77329 0.14362 0.47974 0.0
H241 H 0.85218 0.09924 0.50448 0.0
C242 C 0.83088 0.11283 0.49768 0.0
C243 C 0.81989 0.11739 0.44442 0.0
C244 C 0.79093 0.13284 0.43602 0.0
C245 C 0.7413 0.15617 0.47027 0.0
H246 H 0.78182 0.13647 0.39542 0.0
C247 C 0.73414 0.18759 0.48462 0.0
C248 C 0.70335 0.19908 0.47628 0.0
C249 C 0.71762 0.1363 0.44734 0.0
H250 H 0.72282 0.11197 0.4361 0.0
C251 C 0.68693 0.14755 0.4396 0.0
H252 H 0.75245 0.20301 0.5021 0.0
C253 C 0.67974 0.17875 0.45411 0.0
H254 H 0.65588 0.18719 0.4471 0.0
H255 H 0.66871 0.13208 0.42218 0.0
H256 H 0.12864 0.13967 0.93488 0.0
H257 H 0.14069 0.11847 0.10401 0.0
H258 H 0.17841 0.16905 0.93818 0.0
H259 H 0.19049 0.14815 0.10719 0.0
H260 H 0.29661 0.15075 0.05274 0.0
H261 H 0.24188 0.1345 0.06582 0.0
H262 H 0.20938 0.21502 0.97611 0.0
H263 H 0.26435 0.23105 0.96241 0.0
C264 C 0.14155 0.14182 0.97307 0.0
C265 C 0.13093 0.12625 0.01895 0.0
C266 C 0.17001 0.15887 0.97503 0.0
C267 C 0.18854 0.16061 0.02281 0.0
C268 C 0.1769 0.14684 0.06962 0.0
C269 C 0.14829 0.12997 0.0678 0.0
C270 C 0.27775 0.16519 0.03646 0.0
C271 C 0.2847 0.19196 0.00613 0.0
C272 C 0.2464 0.15609 0.04438 0.0
C273 C 0.22132 0.17343 0.0218 0.0
C274 C 0.22824 0.20109 0.99365 0.0
C275 C 0.25966 0.21037 0.98613 0.0
H276 H 0.87902 0.14226 0.11697 0.0
H277 H 0.86231 0.14041 0.94416 0.0
H278 H 0.84153 0.18578 0.1263 0.0
H279 H 0.82531 0.18386 0.95349 0.0
H280 H 0.82382 0.29405 0.09358 0.0
H281 H 0.84676 0.24148 0.10015 0.0
H282 H 0.77518 0.20431 0.98829 0.0
H283 H 0.75257 0.25729 0.98097 0.0
C284 C 0.86693 0.15069 0.08112 0.0
C285 C 0.87411 0.13827 0.0297 0.0
C286 C 0.84555 0.17569 0.08646 0.0
C287 C 0.8307 0.18851 0.04059 0.0
C288 C 0.83614 0.17445 0.98971 0.0
C289 C 0.85762 0.14967 0.98431 0.0
C290 C 0.81268 0.27452 0.07112 0.0
C291 C 0.78671 0.27982 0.03618 0.0
C292 C 0.82561 0.24432 0.07528 0.0
C293 C 0.81296 0.21874 0.04437 0.0
C294 C 0.78566 0.22363 0.01216 0.0
C295 C 0.77257 0.25388 0.00827 0.0
H296 H 0.82294 0.90482 0.96939 0.0
H297 H 0.89938 0.86289 0.06122 0.0
H298 H 0.79402 0.85449 0.96938 0.0
H299 H 0.87047 0.81272 0.06095 0.0
H300 H 0.82484 0.72008 0.99781 0.0
H301 H 0.85251 0.77067 0.99165 0.0
H302 H 0.76802 0.81979 0.03939 0.0
H303 H 0.74046 0.76919 0.0474 0.0
C304 C 0.83361 0.88491 0.98951 0.0
C305 C 0.8635 0.88794 0.01539 0.0
C306 C 0.81697 0.85615 0.98965 0.0
C307 C 0.83004 0.82969 0.01498 0.0
C308 C 0.85996 0.83264 0.04059 0.0
C309 C 0.87642 0.86147 0.04106 0.0
C310 C 0.81212 0.74161 0.00729 0.0
C311 C 0.78045 0.74041 0.02368 0.0
C312 C 0.828 0.77058 0.0036 0.0
C313 C 0.8125 0.79912 0.01548 0.0
C314 C 0.7805 0.79815 0.02967 0.0
C315 C 0.76468 0.76911 0.03399 0.0
H316 H 0.1131 0.86794 0.09188 0.0
H317 H 0.13233 0.8733 0.92159 0.0
H318 H 0.14708 0.82152 0.09811 0.0
H319 H 0.16638 0.82712 0.92817 0.0
H320 H 0.23888 0.75162 0.96289 0.0
H321 H 0.21664 0.80487 0.97235 0.0
H322 H 0.13704 0.76624 0.05605 0.0
H323 H 0.1592 0.71317 0.04642 0.0
C324 C 0.12509 0.85967 0.05606 0.0
C325 C 0.11967 0.874 0.00603 0.0
C326 C 0.14444 0.83305 0.05967 0.0
C327 C 0.15913 0.82065 0.01356 0.0
C328 C 0.15549 0.83631 0.96442 0.0
C329 C 0.13582 0.86263 0.96061 0.0
C330 C 0.21699 0.75471 0.98429 0.0
C331 C 0.20059 0.72839 0.00364 0.0
C332 C 0.20423 0.78506 0.98946 0.0
C333 C 0.17514 0.7896 0.01485 0.0
C334 C 0.15966 0.76346 0.03677 0.0
C335 C 0.17216 0.73311 0.0309 0.0
H336 H 0.64135 0.61545 0.5974 0.0
H337 H 0.62181 0.63343 0.42888 0.0
H338 H 0.68903 0.64844 0.59431 0.0
H339 H 0.66926 0.66646 0.42614 0.0
H340 H 0.7924 0.66062 0.52572 0.0
H341 H 0.74029 0.63854 0.54448 0.0
H342 H 0.69593 0.71691 0.46412 0.0
H343 H 0.7483 0.73911 0.44564 0.0
C344 C 0.64687 0.62688 0.56001 0.0
C345 C 0.62796 0.62151 0.51321 0.0
C346 C 0.67422 0.64567 0.55825 0.0
C347 C 0.68291 0.65989 0.50995 0.0
C348 C 0.66303 0.65601 0.46405 0.0
C349 C 0.63596 0.63689 0.46556 0.0
C350 C 0.77147 0.6734 0.51304 0.0
C351 C 0.77427 0.70145 0.48408 0.0
C352 C 0.74167 0.6609 0.52402 0.0
C353 C 0.71406 0.67596 0.50558 0.0
C354 C 0.71684 0.70476 0.47856 0.0
C355 C 0.74672 0.71754 0.46831 0.0
H356 H 0.35961 0.64198 0.44348 0.0
H357 H 0.37564 0.64633 0.61648 0.0
H358 H 0.32422 0.68689 0.45016 0.0
H359 H 0.33961 0.69112 0.62316 0.0
H360 H 0.32726 0.79914 0.58723 0.0
H361 H 0.34769 0.74568 0.5953 0.0
H362 H 0.27548 0.71094 0.48236 0.0
H363 H 0.2555 0.76485 0.47329 0.0
C364 C 0.35502 0.65205 0.48314 0.0
C365 C 0.37104 0.64101 0.5293 0.0
C366 C 0.33446 0.67769 0.48701 0.0
C367 C 0.32945 0.69289 0.53713 0.0
C368 C 0.34345 0.68023 0.58386 0.0
C369 C 0.36397 0.65447 0.58003 0.0
C370 C 0.31551 0.78001 0.56465 0.0
C371 C 0.29011 0.78621 0.52902 0.0
C372 C 0.32696 0.74929 0.56975 0.0
C373 C 0.31333 0.72405 0.5392 0.0
C374 C 0.28668 0.72995 0.50601 0.0
C375 C 0.2751 0.76075 0.5011 0.0
H376 H 0.31967 0.41679 0.51678 0.0
H377 H 0.39943 0.36914 0.58968 0.0
H378 H 0.28877 0.36794 0.51854 0.0
H379 H 0.36924 0.31999 0.58902 0.0
H380 H 0.30198 0.2404 0.62087 0.0
H381 H 0.32824 0.29194 0.62736 0.0
H382 H 0.2829 0.31801 0.47669 0.0
H383 H 0.25552 0.26689 0.4721 0.0
C384 C 0.33067 0.39584 0.53298 0.0
C385 C 0.36207 0.39691 0.55301 0.0
C386 C 0.313 0.36769 0.53365 0.0
C387 C 0.32638 0.33975 0.55373 0.0
C388 C 0.35776 0.34101 0.57414 0.0
C389 C 0.37526 0.36924 0.57417 0.0
C390 C 0.29748 0.25735 0.58948 0.0
C391 C 0.27683 0.24968 0.54591 0.0
C392 C 0.31272 0.28684 0.59288 0.0
C393 C 0.30814 0.30924 0.55223 0.0
C394 C 0.2868 0.3017 0.50922 0.0
C395 C 0.27114 0.27234 0.50635 0.0
H396 H 0.63551 0.38238 0.41726 0.0
H397 H 0.6239 0.37707 0.58991 0.0
H398 H 0.66776 0.33475 0.41895 0.0
H399 H 0.65611 0.32944 0.59121 0.0
H400 H 0.65529 0.2211 0.53735 0.0
H401 H 0.63883 0.27602 0.54997 0.0
H402 H 0.71749 0.30715 0.45557 0.0
H403 H 0.73408 0.25193 0.44323 0.0
C404 C 0.64049 0.37157 0.45574 0.0
C405 C 0.62654 0.38312 0.50324 0.0
C406 C 0.65911 0.34438 0.45672 0.0
C407 C 0.66396 0.32821 0.5051 0.0
C408 C 0.65233 0.34128 0.55328 0.0
C409 C 0.63396 0.36861 0.55245 0.0
C410 C 0.6693 0.23976 0.52007 0.0
C411 C 0.69578 0.23244 0.48913 0.0
C412 C 0.6601 0.27116 0.52765 0.0
C413 C 0.67697 0.29579 0.50381 0.0
C414 C 0.70412 0.28856 0.47434 0.0
C415 C 0.71363 0.2571 0.46746 0.0
H416 H 0.98849 0.10632 0.23948 0.0
H417 H 0.07275 0.09071 0.14781 0.0
H418 H 0.02082 0.1259 0.3156 0.0
H419 H 0.10515 0.11156 0.22264 0.0
H420 H 0.15476 0.12015 0.39019 0.0
H421 H 0.12453 0.10122 0.31056 0.0
H422 H 0.05172 0.1698 0.34511 0.0
H423 H 0.0815 0.18764 0.42566 0.0
C424 C 0.01395 0.10725 0.23528 0.0
C425 C 0.02801 0.09705 0.18706 0.0
C426 C 0.03254 0.11877 0.27889 0.0
C427 C 0.0657 0.12076 0.2753 0.0
C428 C 0.07976 0.11017 0.22728 0.0
C429 C 0.06113 0.09832 0.18395 0.0
C430 C 0.13254 0.13147 0.38003 0.0
C431 C 0.12039 0.15527 0.414 0.0
C432 C 0.11515 0.12064 0.33444 0.0
C433 C 0.08538 0.13365 0.32159 0.0
C434 C 0.07409 0.15858 0.3544 0.0
C435 C 0.09128 0.16909 0.40024 0.0
H436 H 0.93957 0.00657 0.23441 0.0
H437 H 0.88598 0.0649 0.12551 0.0
H438 H 0.91654 0.03474 0.31179 0.0
H439 H 0.86301 0.09316 0.20245 0.0
H440 H 0.7958 0.09009 0.35078 0.0
H441 H 0.82468 0.06964 0.27387 0.0
H442 H 0.91323 0.09316 0.35553 0.0
H443 H 0.88439 0.11529 0.43212 0.0
C444 C 0.92337 0.0259 0.22726 0.0
C445 C 0.91488 0.03419 0.17442 0.0
C446 C 0.91036 0.04202 0.27127 0.0
C447 C 0.88812 0.06607 0.26283 0.0
C448 C 0.88021 0.07476 0.20986 0.0
C449 C 0.89362 0.05898 0.16598 0.0
C450 C 0.82139 0.09167 0.35214 0.0
C451 C 0.83771 0.10465 0.39765 0.0
C452 C 0.83789 0.07979 0.30809 0.0
C453 C 0.87108 0.08008 0.30884 0.0
C454 C 0.88758 0.09268 0.35424 0.0
C455 C 0.87105 0.10511 0.3981 0.0
H456 H 0.94101 0.89318 0.11411 0.0
H457 H 0.00278 0.9458 0.22429 0.0
H458 H 0.91259 0.87168 0.1899 0.0
H459 H 0.97387 0.92556 0.30065 0.0
H460 H 0.94564 0.85151 0.42116 0.0
H461 H 0.96946 0.87815 0.3461 0.0
H462 H 0.87844 0.87917 0.26273 0.0
H463 H 0.855 0.85108 0.33758 0.0
C464 C 0.94766 0.90095 0.15468 0.0
C465 C 0.97362 0.92132 0.16364 0.0
C466 C 0.93152 0.88861 0.19825 0.0
C467 C 0.94097 0.89666 0.25172 0.0
C468 C 0.96632 0.91819 0.26023 0.0
C469 C 0.98274 0.93004 0.21662 0.0
C470 C 0.93071 0.8577 0.38694 0.0
C471 C 0.89849 0.84939 0.38517 0.0
C472 C 0.94429 0.87318 0.34394 0.0
C473 C 0.92589 0.88117 0.29826 0.0
C474 C 0.89346 0.87309 0.29684 0.0
C475 C 0.87996 0.85713 0.33971 0.0
H476 H 0.11385 0.94523 0.11445 0.0
H477 H 0.0598 0.00129 0.22658 0.0
H478 H 0.13269 0.91219 0.18859 0.0
H479 H 0.07849 0.96843 0.30075 0.0
H480 H 0.10078 0.88902 0.41555 0.0
H481 H 0.07665 0.91027 0.33365 0.0
H482 H 0.16942 0.92779 0.2708 0.0
H483 H 0.19369 0.90796 0.35322 0.0
C484 C 0.10535 0.94981 0.15473 0.0
C485 C 0.08519 0.97538 0.16505 0.0
C486 C 0.11632 0.93121 0.1971 0.0
C487 C 0.10691 0.93773 0.25023 0.0
C488 C 0.08579 0.96267 0.26006 0.0
C489 C 0.0753 0.98156 0.21787 0.0
C490 C 0.11608 0.89728 0.38423 0.0
C491 C 0.14923 0.89711 0.39144 0.0
C492 C 0.10222 0.90926 0.33729 0.0
C493 C 0.12121 0.92075 0.29618 0.0
C494 C 0.15426 0.91876 0.30172 0.0
C495 C 0.16814 0.90725 0.34898 0.0
H496 H 0.13418 0.96438 0.87042 0.0
H497 H 0.06457 0.01423 0.77505 0.0
H498 H 0.15058 0.93529 0.78996 0.0
H499 H 0.08005 0.98424 0.69491 0.0
H500 H 0.14307 0.95639 0.55473 0.0
H501 H 0.12325 0.9823 0.63564 0.0
H502 H 0.13637 0.89581 0.72337 0.0
H503 H 0.15713 0.87015 0.64213 0.0
C504 C 0.12212 0.96887 0.83236 0.0
C505 C 0.09832 0.99185 0.82897 0.0
C506 C 0.13136 0.95199 0.78624 0.0
C507 C 0.11678 0.95752 0.73579 0.0
C508 C 0.09226 0.97983 0.73286 0.0
C509 C 0.08325 0.99693 0.77886 0.0
C510 C 0.14134 0.9428 0.59114 0.0
C511 C 0.15143 0.91121 0.59212 0.0
C512 C 0.12989 0.95762 0.63755 0.0
C513 C 0.12801 0.94113 0.68607 0.0
C514 C 0.13785 0.90935 0.68689 0.0
C515 C 0.14962 0.89459 0.64042 0.0
H516 H 0.98571 0.11289 0.78437 0.0
H517 H 0.0653 0.13543 0.89127 0.0
H518 H 0.01721 0.12663 0.70708 0.0
H519 H 0.09704 0.14859 0.81362 0.0
H520 H 0.1326 0.19887 0.66122 0.0
H521 H 0.1016 0.18764 0.74108 0.0
H522 H 0.06222 0.10428 0.6599 0.0
H523 H 0.09301 0.11538 0.58072 0.0
C524 C 0.00993 0.12077 0.79142 0.0
C525 C 0.02302 0.12291 0.84399 0.0
C526 C 0.02805 0.12848 0.74707 0.0
C527 C 0.0597 0.13849 0.75419 0.0
C528 C 0.07266 0.14119 0.80683 0.0
C529 C 0.05451 0.13345 0.85128 0.0
C530 C 0.11743 0.17808 0.66068 0.0
C531 C 0.11492 0.15827 0.61439 0.0
C532 C 0.09971 0.17164 0.70636 0.0
C533 C 0.07919 0.14526 0.70655 0.0
C534 C 0.07721 0.1252 0.6606 0.0
C535 C 0.09486 0.13159 0.61517 0.0
H536 H 0.89662 0.02218 0.80252 0.0
H537 H 0.83702 0.08832 0.88798 0.0
H538 H 0.88438 0.04857 0.71801 0.0
H539 H 0.82444 0.1144 0.80294 0.0
H540 H 0.77646 0.10851 0.62736 0.0
H541 H 0.79344 0.09242 0.71691 0.0
H542 H 0.89111 0.10403 0.6736 0.0
H543 H 0.8743 0.12181 0.58432 0.0
C544 C 0.88104 0.04245 0.80329 0.0
C545 C 0.86748 0.05299 0.85174 0.0
C546 C 0.87427 0.05768 0.75502 0.0
C547 C 0.85345 0.08343 0.75412 0.0
C548 C 0.84047 0.09448 0.80269 0.0
C549 C 0.84768 0.07958 0.85122 0.0
C550 C 0.80156 0.10865 0.63711 0.0
C551 C 0.82398 0.1165 0.59826 0.0
C552 C 0.81124 0.09927 0.68849 0.0
C553 C 0.84353 0.09697 0.70197 0.0
C554 C 0.86603 0.10543 0.66391 0.0
C555 C 0.85636 0.11539 0.61273 0.0
H556 H 0.99536 0.92108 0.7661 0.0
H557 H 0.95238 0.84885 0.86202 0.0
H558 H 0.96259 0.90403 0.68852 0.0
H559 H 0.91949 0.83187 0.78414 0.0
H560 H 0.90414 0.78809 0.60839 0.0
H561 H 0.9288 0.80576 0.69386 0.0
H562 H 0.90586 0.9026 0.65781 0.0
H563 H 0.88071 0.88494 0.57265 0.0
C564 C 0.97885 0.90164 0.77071 0.0
C565 C 0.97658 0.88624 0.82018 0.0
C566 C 0.95988 0.89204 0.72636 0.0
C567 C 0.93838 0.86669 0.73034 0.0
C568 C 0.93597 0.85137 0.77985 0.0
C569 C 0.95476 0.86116 0.82442 0.0
C570 C 0.90352 0.81305 0.61934 0.0
C571 C 0.89069 0.83514 0.58344 0.0
C572 C 0.91778 0.82318 0.66825 0.0
C573 C 0.91963 0.8556 0.68213 0.0
C574 C 0.9053 0.87752 0.64766 0.0
C575 C 0.89088 0.86739 0.59896 0.0
H576 H 0.48793 0.61676 0.74001 0.0
H577 H 0.57126 0.59506 0.6492 0.0
H578 H 0.52116 0.6361 0.81511 0.0
H579 H 0.60467 0.61568 0.72303 0.0
H580 H 0.65327 0.62088 0.89204 0.0
H581 H 0.62293 0.60462 0.81105 0.0
H582 H 0.55466 0.67797 0.84452 0.0
H583 H 0.58446 0.69306 0.92666 0.0
C584 C 0.5134 0.61642 0.73574 0.0
C585 C 0.52695 0.60441 0.68826 0.0
C586 C 0.53252 0.62779 0.77873 0.0
C587 C 0.56573 0.62783 0.77517 0.0
C588 C 0.57924 0.61577 0.72763 0.0
C589 C 0.56006 0.60403 0.68494 0.0
C590 C 0.63212 0.63387 0.88127 0.0
C591 C 0.6211 0.65814 0.91545 0.0
C592 C 0.61466 0.62458 0.83488 0.0
C593 C 0.586 0.63966 0.82145 0.0
C594 C 0.57611 0.66522 0.85425 0.0
C595 C 0.59332 0.67416 0.90096 0.0
H596 H 0.45393 0.51856 0.7457 0.0
H597 H 0.39217 0.57443 0.64585 0.0
H598 H 0.43715 0.54815 0.82572 0.0
H599 H 0.37407 0.60326 0.7256 0.0
H600 H 0.35302 0.65879 0.87734 0.0
H601 H 0.38215 0.63858 0.79972 0.0
H602 H 0.39139 0.54807 0.87676 0.0
H603 H 0.36354 0.56873 0.9544 0.0
C604 C 0.43701 0.53752 0.74103 0.0
C605 C 0.42439 0.54448 0.68993 0.0
C606 C 0.42717 0.55432 0.78677 0.0
C607 C 0.4038 0.5778 0.78245 0.0
C608 C 0.39237 0.58569 0.73066 0.0
C609 C 0.40272 0.56925 0.6848 0.0
C610 C 0.36171 0.63472 0.87764 0.0
C611 C 0.35616 0.61534 0.92185 0.0
C612 C 0.37827 0.62307 0.83318 0.0
C613 C 0.38922 0.59165 0.83176 0.0
C614 C 0.38409 0.5726 0.87669 0.0
C615 C 0.36794 0.58436 0.92126 0.0
H616 H 0.43812 0.43698 0.66744 0.0
H617 H 0.51963 0.37713 0.68839 0.0
H618 H 0.41082 0.40848 0.73689 0.0
H619 H 0.49276 0.3492 0.75904 0.0
H620 H 0.42672 0.2867 0.85057 0.0
H621 H 0.44828 0.31299 0.77263 0.0
H622 H 0.41555 0.40305 0.83508 0.0
H623 H 0.39304 0.3766 0.91208 0.0
C624 C 0.45016 0.4177 0.68633 0.0
C625 C 0.48095 0.40935 0.67171 0.0
C626 C 0.43459 0.40147 0.72664 0.0
C627 C 0.44958 0.3765 0.75336 0.0
C628 C 0.48033 0.36799 0.73862 0.0
C629 C 0.49583 0.38423 0.69837 0.0
C630 C 0.42357 0.31201 0.84709 0.0
C631 C 0.40828 0.32961 0.88753 0.0
C632 C 0.43624 0.32711 0.80278 0.0
C633 C 0.43383 0.36012 0.79793 0.0
C634 C 0.4176 0.37756 0.83745 0.0
C635 C 0.40498 0.36247 0.8818 0.0
H636 H 0.55828 0.5036 0.73894 0.0
H637 H 0.61107 0.44677 0.62615 0.0
H638 H 0.5768 0.47035 0.8129 0.0
H639 H 0.62976 0.41349 0.69997 0.0
H640 H 0.68968 0.40558 0.86536 0.0
H641 H 0.6667 0.42859 0.78445 0.0
H642 H 0.57292 0.41024 0.84217 0.0
H643 H 0.59568 0.38554 0.9222 0.0
C644 C 0.57354 0.48373 0.73003 0.0
C645 C 0.58297 0.47732 0.67698 0.0
C646 C 0.58394 0.46463 0.77211 0.0
C647 C 0.60453 0.4393 0.76194 0.0
C648 C 0.61377 0.43279 0.70873 0.0
C649 C 0.60286 0.45154 0.66653 0.0
C650 C 0.66417 0.40538 0.86029 0.0
C651 C 0.6446 0.39379 0.9008 0.0
C652 C 0.65104 0.41879 0.81395 0.0
C653 C 0.61809 0.42137 0.80744 0.0
C654 C 0.59843 0.4088 0.84666 0.0
C655 C 0.61153 0.39484 0.89256 0.0
H656 H 0.62963 0.45118 0.38181 0.0
H657 H 0.55552 0.49667 0.28973 0.0
H658 H 0.64483 0.42126 0.30123 0.0
H659 H 0.57003 0.46609 0.20968 0.0
H660 H 0.6345 0.44488 0.06797 0.0
H661 H 0.61382 0.46823 0.15012 0.0
H662 H 0.63107 0.38091 0.23323 0.0
H663 H 0.65224 0.35747 0.15023 0.0
C664 C 0.61628 0.45445 0.34456 0.0
C665 C 0.59177 0.47674 0.34186 0.0
C666 C 0.62486 0.43713 0.29842 0.0
C667 C 0.60896 0.44162 0.24875 0.0
C668 C 0.5833 0.46265 0.24696 0.0
C669 C 0.5749 0.48011 0.29289 0.0
C670 C 0.63337 0.43041 0.10343 0.0
C671 C 0.64468 0.39919 0.10242 0.0
C672 C 0.62145 0.4438 0.15064 0.0
C673 C 0.62045 0.42636 0.19823 0.0
C674 C 0.63169 0.39505 0.19734 0.0
C675 C 0.64376 0.38162 0.14989 0.0
H676 H 0.48018 0.61387 0.28445 0.0
H677 H 0.56182 0.63009 0.38985 0.0
H678 H 0.51166 0.62747 0.20691 0.0
H679 H 0.59345 0.64301 0.31216 0.0
H680 H 0.63192 0.69392 0.16504 0.0
H681 H 0.59975 0.68307 0.24344 0.0
H682 H 0.5547 0.6048 0.15582 0.0
H683 H 0.58668 0.61566 0.07778 0.0
C684 C 0.50484 0.6203 0.29108 0.0
C685 C 0.51851 0.62083 0.3433 0.0
C686 C 0.52293 0.62793 0.24661 0.0
C687 C 0.55509 0.63621 0.25333 0.0
C688 C 0.56866 0.63709 0.30566 0.0
C689 C 0.55056 0.62949 0.35015 0.0
C690 C 0.61522 0.67434 0.16272 0.0
C691 C 0.61168 0.6558 0.11512 0.0
C692 C 0.59682 0.66811 0.20758 0.0
C693 C 0.57455 0.64317 0.20576 0.0
C694 C 0.57117 0.62458 0.1582 0.0
C695 C 0.58951 0.63081 0.11346 0.0
H696 H 0.40363 0.5328 0.34278 0.0
H697 H 0.32452 0.58502 0.40597 0.0
H698 H 0.39571 0.55715 0.25576 0.0
H699 H 0.31556 0.60849 0.3177 0.0
H700 H 0.32171 0.66193 0.15921 0.0
H701 H 0.33406 0.64358 0.25033 0.0
H702 H 0.35917 0.55196 0.18314 0.0
H703 H 0.34779 0.5706 0.09294 0.0
C704 C 0.38437 0.54936 0.33792 0.0
C705 C 0.36434 0.55658 0.38091 0.0
C706 C 0.37973 0.56325 0.2879 0.0
C707 C 0.35461 0.58434 0.27925 0.0
C708 C 0.33523 0.59247 0.32291 0.0
C709 C 0.34019 0.57885 0.37339 0.0
C710 C 0.33008 0.63796 0.16423 0.0
C711 C 0.33419 0.61781 0.11905 0.0
C712 C 0.33701 0.62738 0.21632 0.0
C713 C 0.34787 0.59634 0.22418 0.0
C714 C 0.35171 0.57627 0.17873 0.0
C715 C 0.34511 0.58691 0.1269 0.0
H716 H 0.5051 0.425 0.26672 0.0
H717 H 0.46212 0.35488 0.367 0.0
H718 H 0.47525 0.40366 0.1885 0.0
H719 H 0.43218 0.33378 0.28885 0.0
H720 H 0.42153 0.28163 0.12153 0.0
H721 H 0.44502 0.3045 0.20426 0.0
H722 H 0.41987 0.39811 0.15223 0.0
H723 H 0.39582 0.37522 0.0696 0.0
C724 C 0.48915 0.40518 0.27215 0.0
C725 C 0.48607 0.39156 0.32303 0.0
C726 C 0.4719 0.39311 0.22743 0.0
C727 C 0.45137 0.36706 0.2326 0.0
C728 C 0.44804 0.35368 0.28357 0.0
C729 C 0.46513 0.36585 0.32833 0.0
C730 C 0.42026 0.30702 0.12824 0.0
C731 C 0.40687 0.3266 0.08881 0.0
C732 C 0.43385 0.32013 0.17561 0.0
C733 C 0.43451 0.35311 0.1845 0.0
C734 C 0.42017 0.37264 0.14602 0.0
C735 C 0.40639 0.35952 0.09878 0.0
loop_
_geom_bond_atom_site_label_1
_geom_bond_atom_site_label_2
_geom_bond_distance
_geom_bond_site_symmetry_2
_ccdc_geom_bond_type
Zn0 O2 1.933 1_556 S
Zn0 O20 1.985 . S
Zn0 O31 1.955 . S
Zn1 O2 1.911 . S
Zn1 O21 1.970 . S
Zn1 O37 1.945 . S
Zn1 O44 1.981 . S
O2 Zn0 1.933 1_554 S
O2 Zn1 1.911 . S
O2 H3 0.841 1_655 S
H3 O2 0.841 1_455 S
C4 O5 1.246 . S
C4 O33 1.276 1_545 S
O5 C4 1.246 . S
Zn6 O8 1.911 . S
Zn6 O23 1.970 . S
Zn6 O40 1.945 . S
Zn6 O47 1.981 . S
Zn7 O8 1.933 1_556 S
Zn7 O22 1.985 . S
Zn7 O29 1.955 . S
O8 Zn6 1.911 . S
O8 Zn7 1.933 1_554 S
O8 H9 0.841 1_455 S
H9 O8 0.841 1_655 S
Zn10 O11 1.933 1_556 S
Zn10 O24 1.985 . S
Zn10 O33 1.955 . S
O11 Zn10 1.933 1_554 S
O11 Zn12 1.911 . S
O11 H13 0.841 1_565 S
Zn12 O11 1.911 . S
Zn12 O25 1.970 . S
Zn12 O41 1.981 . S
Zn12 O43 1.945 . S
H13 O11 0.841 1_545 S
Zn14 O15 1.933 1_556 S
Zn14 O27 1.985 . S
Zn14 O35 1.955 . S
O15 Zn14 1.933 1_554 S
O15 H16 0.841 1_545 S
O15 Zn17 1.911 . S
H16 O15 0.841 1_565 S
Zn17 O15 1.911 . S
Zn17 O28 1.970 . S
Zn17 O38 1.981 . S
Zn17 O46 1.945 . S
C18 O19 1.246 . S
C18 O35 1.276 1_565 S
O19 C18 1.246 . S
O20 Zn0 1.985 . S
O20 C30 1.245 1_556 S
O21 Zn1 1.970 . S
O21 C30 1.263 . S
O22 Zn7 1.985 . S
O22 C34 1.245 1_556 S
O23 Zn6 1.970 . S
O23 C34 1.263 . S
O24 Zn10 1.985 . S
O24 C39 1.245 1_556 S
O25 Zn12 1.970 . S
O25 C39 1.263 . S
C26 O37 1.262 1_455 S
C26 O38 1.245 . S
O27 Zn14 1.985 . S
O27 C45 1.245 1_556 S
O28 Zn17 1.970 . S
O28 C45 1.263 . S
O29 Zn7 1.955 . S
O29 C48 1.276 1_455 S
C30 O20 1.245 1_554 S
C30 O21 1.263 . S
O31 Zn0 1.955 . S
O31 C50 1.276 1_655 S
C32 O40 1.262 1_655 S
C32 O41 1.245 . S
O33 C4 1.276 1_565 S
O33 Zn10 1.955 . S
C34 O22 1.245 1_554 S
C34 O23 1.263 . S
O35 Zn14 1.955 . S
O35 C18 1.276 1_545 S
C36 O43 1.262 1_545 S
C36 O44 1.245 . S
O37 Zn1 1.945 . S
O37 C26 1.262 1_655 S
O38 Zn17 1.981 . S
O38 C26 1.245 . S
C39 O24 1.245 1_554 S
C39 O25 1.263 . S
O40 Zn6 1.945 . S
O40 C32 1.262 1_455 S
O41 Zn12 1.981 . S
O41 C32 1.245 . S
C42 O46 1.262 1_565 S
C42 O47 1.245 . S
O43 Zn12 1.945 . S
O43 C36 1.262 1_565 S
O44 Zn1 1.981 . S
O44 C36 1.245 . S
C45 O27 1.245 1_554 S
C45 O28 1.263 . S
O46 Zn17 1.945 . S
O46 C42 1.262 1_545 S
O47 Zn6 1.981 . S
O47 C42 1.245 . S
C48 O29 1.276 1_655 S
C48 O49 1.246 . S
O49 C48 1.246 . S
C50 O31 1.276 1_455 S
C50 O51 1.246 . S
O51 C50 1.246 . S
Zn52 O54 1.933 . S
Zn52 O72 1.985 . S
Zn52 O83 1.955 . S
Zn53 O54 1.911 . S
Zn53 O73 1.970 . S
Zn53 O89 1.945 . S
Zn53 O96 1.981 . S
O54 Zn52 1.933 . S
O54 Zn53 1.911 . S
O54 H55 0.841 . S
H55 O54 0.841 . S
C56 O57 1.246 . S
C56 O85 1.276 . S
O57 C56 1.246 . S
Zn58 O60 1.911 . S
Zn58 O75 1.970 . S
Zn58 O92 1.945 . S
Zn58 O99 1.981 . S
Zn59 O60 1.933 . S
Zn59 O74 1.985 . S
Zn59 O81 1.955 . S
O60 Zn58 1.911 . S
O60 Zn59 1.933 . S
O60 H61 0.841 . S
H61 O60 0.841 . S
Zn62 O63 1.933 . S
Zn62 O76 1.985 . S
Zn62 O85 1.955 . S
O63 Zn62 1.933 . S
O63 Zn64 1.911 . S
O63 H65 0.841 . S
Zn64 O63 1.911 . S
Zn64 O77 1.970 . S
Zn64 O93 1.981 . S
Zn64 O95 1.945 . S
H65 O63 0.841 . S
Zn66 O67 1.933 . S
Zn66 O79 1.985 . S
Zn66 O87 1.955 . S
O67 Zn66 1.933 . S
O67 H68 0.841 . S
O67 Zn69 1.911 . S
H68 O67 0.841 . S
Zn69 O67 1.911 . S
Zn69 O80 1.970 . S
Zn69 O90 1.981 . S
Zn69 O98 1.945 . S
C70 O71 1.246 . S
C70 O87 1.276 . S
O71 C70 1.246 . S
O72 Zn52 1.985 . S
O72 C82 1.245 . S
O73 Zn53 1.970 . S
O73 C82 1.263 . S
O74 Zn59 1.985 . S
O74 C86 1.245 . S
O75 Zn58 1.970 . S
O75 C86 1.263 . S
O76 Zn62 1.985 . S
O76 C91 1.245 . S
O77 Zn64 1.970 . S
O77 C91 1.263 . S
C78 O89 1.262 . S
C78 O90 1.245 . S
O79 Zn66 1.985 . S
O79 C97 1.245 . S
O80 Zn69 1.970 . S
O80 C97 1.263 . S
O81 Zn59 1.955 . S
O81 C100 1.276 . S
C82 O72 1.245 . S
C82 O73 1.263 . S
O83 Zn52 1.955 . S
O83 C102 1.276 . S
C84 O92 1.262 . S
C84 O93 1.245 . S
O85 C56 1.276 . S
O85 Zn62 1.955 . S
C86 O74 1.245 . S
C86 O75 1.263 . S
O87 Zn66 1.955 . S
O87 C70 1.276 . S
C88 O95 1.262 . S
C88 O96 1.245 . S
O89 Zn53 1.945 . S
O89 C78 1.262 . S
O90 Zn69 1.981 . S
O90 C78 1.245 . S
C91 O76 1.245 . S
C91 O77 1.263 . S
O92 Zn58 1.945 . S
O92 C84 1.262 . S
O93 Zn64 1.981 . S
O93 C84 1.245 . S
C94 O98 1.262 . S
C94 O99 1.245 . S
O95 Zn64 1.945 . S
O95 C88 1.262 . S
O96 Zn53 1.981 . S
O96 C88 1.245 . S
C97 O79 1.245 . S
C97 O80 1.263 . S
O98 Zn69 1.945 . S
O98 C94 1.262 . S
O99 Zn58 1.981 . S
O99 C94 1.245 . S
C100 O81 1.276 . S
C100 O101 1.246 . S
O101 C100 1.246 . S
C102 O83 1.276 . S
C102 O103 1.246 . S
O103 C102 1.246 . S
H104 C105 0.949 . S
C105 H104 0.949 . S
C105 C106 1.395 . S
C105 C107 1.391 1_554 S
C106 C105 1.395 . S
C106 C109 1.390 . S
C107 C105 1.391 1_556 S
C107 C111 1.387 . S
C107 C112 1.491 . S
H108 C109 0.950 . S
C109 C106 1.390 . S
C109 H108 0.950 . S
C109 C110 1.378 1_554 S
C110 C109 1.378 1_556 S
C110 C111 1.409 . S
C111 C107 1.387 . S
C111 C110 1.409 . S
C111 H113 0.951 . S
C112 C107 1.491 . S
C112 C114 1.382 1_556 S
C112 C116 1.404 . S
H113 C111 0.951 . S
C114 C112 1.382 1_554 S
C114 C115 1.390 . S
C114 H119 0.949 . S
C115 C114 1.390 . S
C115 C120 1.399 1_554 S
C116 C112 1.404 . S
C116 H117 0.950 . S
C116 C118 1.375 . S
H117 C116 0.950 . S
C118 C116 1.375 . S
C118 C120 1.382 . S
C118 H122 0.950 . S
H119 C114 0.949 . S
C120 C115 1.399 1_556 S
C120 C118 1.382 . S
C120 H121 0.952 . S
H121 C120 0.952 . S
H122 C118 0.950 . S
H123 C124 0.949 . S
C124 H123 0.949 . S
C124 C125 1.395 . S
C124 C126 1.391 1_554 S
C125 C124 1.395 . S
C125 C128 1.390 . S
C126 C124 1.391 1_556 S
C126 C130 1.387 . S
C126 C131 1.491 . S
H127 C128 0.950 . S
C128 C125 1.390 . S
C128 H127 0.950 . S
C128 C129 1.378 1_554 S
C129 C128 1.378 1_556 S
C129 C130 1.409 . S
C130 C126 1.387 . S
C130 C129 1.409 . S
C130 H132 0.951 . S
C131 C126 1.491 . S
C131 C133 1.382 1_556 S
C131 C135 1.404 . S
H132 C130 0.951 . S
C133 C131 1.382 1_554 S
C133 C134 1.390 . S
C133 H138 0.949 . S
C134 C133 1.390 . S
C134 C139 1.399 1_554 S
C135 C131 1.404 . S
C135 H136 0.950 . S
C135 C137 1.375 . S
H136 C135 0.950 . S
C137 C135 1.375 . S
C137 C139 1.382 . S
C137 H141 0.950 . S
H138 C133 0.949 . S
C139 C134 1.399 1_556 S
C139 C137 1.382 . S
C139 H140 0.952 . S
H140 C139 0.952 . S
H141 C137 0.950 . S
H142 C143 0.949 . S
C143 H142 0.949 . S
C143 C144 1.395 . S
C143 C145 1.391 1_556 S
C144 C143 1.395 . S
C144 C147 1.390 1_556 S
C145 C143 1.391 1_554 S
C145 C149 1.387 . S
C145 C150 1.491 . S
H146 C147 0.950 . S
C147 C144 1.390 1_554 S
C147 H146 0.950 . S
C147 C148 1.378 . S
C148 C147 1.378 . S
C148 C149 1.409 . S
C149 C145 1.387 . S
C149 C148 1.409 . S
C149 H151 0.951 . S
C150 C145 1.491 . S
C150 C152 1.382 . S
C150 C154 1.404 . S
H151 C149 0.951 . S
C152 C150 1.382 . S
C152 C153 1.390 . S
C152 H157 0.949 1_554 S
C153 C152 1.390 . S
C153 C158 1.399 . S
C154 C150 1.404 . S
C154 H155 0.950 . S
C154 C156 1.375 . S
H155 C154 0.950 . S
C156 C154 1.375 . S
C156 C158 1.382 . S
C156 H160 0.950 . S
H157 C152 0.949 1_556 S
C158 C153 1.399 . S
C158 C156 1.382 . S
C158 H159 0.952 . S
H159 C158 0.952 . S
H160 C156 0.950 . S
H161 C162 0.949 . S
C162 H161 0.949 . S
C162 C163 1.395 . S
C162 C164 1.391 1_554 S
C163 C162 1.395 . S
C163 C166 1.390 . S
C164 C162 1.391 1_556 S
C164 C168 1.387 . S
C164 C169 1.491 . S
H165 C166 0.950 . S
C166 C163 1.390 . S
C166 H165 0.950 . S
C166 C167 1.378 1_554 S
C167 C166 1.378 1_556 S
C167 C168 1.409 . S
C168 C164 1.387 . S
C168 C167 1.409 . S
C168 H170 0.951 . S
C169 C164 1.491 . S
C169 C171 1.382 1_556 S
C169 C173 1.404 . S
H170 C168 0.951 . S
C171 C169 1.382 1_554 S
C171 C172 1.390 . S
C171 H176 0.949 . S
C172 C171 1.390 . S
C172 C177 1.399 1_554 S
C173 C169 1.404 . S
C173 H174 0.950 . S
C173 C175 1.375 . S
H174 C173 0.950 . S
C175 C173 1.375 . S
C175 C177 1.382 . S
C175 H179 0.950 . S
H176 C171 0.949 . S
C177 C172 1.399 1_556 S
C177 C175 1.382 . S
C177 H178 0.952 . S
H178 C177 0.952 . S
H179 C175 0.950 . S
H180 C181 0.949 . S
C181 H180 0.949 . S
C181 C182 1.395 . S
C181 C183 1.391 . S
C182 C181 1.395 . S
C182 C185 1.390 . S
C183 C181 1.391 . S
C183 C187 1.387 . S
C183 C188 1.491 . S
H184 C185 0.950 . S
C185 C182 1.390 . S
C185 H184 0.950 . S
C185 C186 1.378 . S
C186 C185 1.378 . S
C186 C187 1.409 . S
C187 C183 1.387 . S
C187 C186 1.409 . S
C187 H189 0.951 . S
C188 C183 1.491 . S
C188 C190 1.382 . S
C188 C192 1.404 . S
H189 C187 0.951 . S
C190 C188 1.382 . S
C190 C191 1.390 . S
C190 H195 0.949 . S
C191 C190 1.390 . S
C191 C196 1.399 . S
C192 C188 1.404 . S
C192 H193 0.950 . S
C192 C194 1.375 . S
H193 C192 0.950 . S
C194 C192 1.375 . S
C194 C196 1.382 . S
C194 H198 0.950 . S
H195 C190 0.949 . S
C196 C191 1.399 . S
C196 C194 1.382 . S
C196 H197 0.952 . S
H197 C196 0.952 . S
H198 C194 0.950 . S
H199 C200 0.949 . S
C200 H199 0.949 . S
C200 C201 1.395 . S
C200 C202 1.391 . S
C201 C200 1.395 . S
C201 C204 1.390 . S
C202 C200 1.391 . S
C202 C206 1.387 . S
C202 C207 1.491 . S
H203 C204 0.950 . S
C204 C201 1.390 . S
C204 H203 0.950 . S
C204 C205 1.378 . S
C205 C204 1.378 . S
C205 C206 1.409 . S
C206 C202 1.387 . S
C206 C205 1.409 . S
C206 H208 0.951 . S
C207 C202 1.491 . S
C207 C209 1.382 . S
C207 C211 1.404 . S
H208 C206 0.951 . S
C209 C207 1.382 . S
C209 C210 1.390 . S
C209 H214 0.949 . S
C210 C209 1.390 . S
C210 C215 1.399 . S
C211 C207 1.404 . S
C211 H212 0.950 . S
C211 C213 1.375 . S
H212 C211 0.950 . S
C213 C211 1.375 . S
C213 C215 1.382 . S
C213 H217 0.950 . S
H214 C209 0.949 . S
C215 C210 1.399 . S
C215 C213 1.382 . S
C215 H216 0.952 . S
H216 C215 0.952 . S
H217 C213 0.950 . S
H218 C219 0.949 . S
C219 H218 0.949 . S
C219 C220 1.395 . S
C219 C221 1.391 . S
C220 C219 1.395 . S
C220 C223 1.390 . S
C221 C219 1.391 . S
C221 C225 1.387 . S
C221 C226 1.491 . S
H222 C223 0.950 . S
C223 C220 1.390 . S
C223 H222 0.950 . S
C223 C224 1.378 . S
C224 C223 1.378 . S
C224 C225 1.409 . S
C225 C221 1.387 . S
C225 C224 1.409 . S
C225 H227 0.951 . S
C226 C221 1.491 . S
C226 C228 1.382 . S
C226 C230 1.404 . S
H227 C225 0.951 . S
C228 C226 1.382 . S
C228 C229 1.390 . S
C228 H233 0.949 . S
C229 C228 1.390 . S
C229 C234 1.399 . S
C230 C226 1.404 . S
C230 H231 0.950 . S
C230 C232 1.375 . S
H231 C230 0.950 . S
C232 C230 1.375 . S
C232 C234 1.382 . S
C232 H236 0.950 . S
H233 C228 0.949 . S
C234 C229 1.399 . S
C234 C232 1.382 . S
C234 H235 0.952 . S
H235 C234 0.952 . S
H236 C232 0.950 . S
H237 C238 0.949 . S
C238 H237 0.949 . S
C238 C239 1.395 . S
C238 C240 1.391 . S
C239 C238 1.395 . S
C239 C242 1.390 . S
C240 C238 1.391 . S
C240 C244 1.387 . S
C240 C245 1.491 . S
H241 C242 0.950 . S
C242 C239 1.390 . S
C242 H241 0.950 . S
C242 C243 1.378 . S
C243 C242 1.378 . S
C243 C244 1.409 . S
C244 C240 1.387 . S
C244 C243 1.409 . S
C244 H246 0.951 . S
C245 C240 1.491 . S
C245 C247 1.382 . S
C245 C249 1.404 . S
H246 C244 0.951 . S
C247 C245 1.382 . S
C247 C248 1.390 . S
C247 H252 0.949 . S
C248 C247 1.390 . S
C248 C253 1.399 . S
C249 C245 1.404 . S
C249 H250 0.950 . S
C249 C251 1.375 . S
H250 C249 0.950 . S
C251 C249 1.375 . S
C251 C253 1.382 . S
C251 H255 0.950 . S
H252 C247 0.949 . S
C253 C248 1.399 . S
C253 C251 1.382 . S
C253 H254 0.952 . S
H254 C253 0.952 . S
H255 C251 0.950 . S
H256 C264 0.950 . S
H257 C269 0.950 . S
H258 C266 0.950 . S
H259 C268 0.950 . S
H260 C270 0.950 . S
H261 C272 0.950 . S
H262 C274 0.950 . S
H263 C275 0.950 . S
C264 H256 0.950 . S
C264 C265 1.386 1_556 S
C264 C266 1.391 . S
C265 C264 1.386 1_554 S
C265 C269 1.393 . S
C266 H258 0.950 . S
C266 C264 1.391 . S
C266 C267 1.400 1_556 S
C267 C266 1.400 1_554 S
C267 C268 1.398 . S
C267 C273 1.491 . S
C268 H259 0.950 . S
C268 C267 1.398 . S
C268 C269 1.391 . S
C269 H257 0.950 . S
C269 C265 1.393 . S
C269 C268 1.391 . S
C270 H260 0.950 . S
C270 C271 1.386 . S
C270 C272 1.391 . S
C271 C270 1.386 . S
C271 C275 1.393 1_554 S
C272 H261 0.950 . S
C272 C270 1.391 . S
C272 C273 1.400 . S
C273 C267 1.491 . S
C273 C272 1.400 . S
C273 C274 1.398 1_554 S
C274 H262 0.950 . S
C274 C273 1.398 1_556 S
C274 C275 1.391 . S
C275 H263 0.950 . S
C275 C271 1.393 1_556 S
C275 C274 1.391 . S
H276 C284 0.950 . S
H277 C289 0.950 1_556 S
H278 C286 0.950 . S
H279 C288 0.950 1_556 S
H280 C290 0.951 . S
H281 C292 0.950 1_556 S
H282 C294 0.950 . S
H283 C295 0.950 . S
C284 H276 0.950 . S
C284 C285 1.386 . S
C284 C286 1.391 . S
C285 C284 1.386 . S
C285 C289 1.393 . S
C286 H278 0.950 . S
C286 C284 1.391 . S
C286 C287 1.400 . S
C287 C286 1.400 . S
C287 C288 1.398 . S
C287 C293 1.491 . S
C288 H279 0.950 1_554 S
C288 C287 1.398 . S
C288 C289 1.391 . S
C289 H277 0.950 1_554 S
C289 C285 1.393 . S
C289 C288 1.391 . S
C290 H280 0.951 . S
C290 C291 1.386 . S
C290 C292 1.391 . S
C291 C290 1.386 . S
C291 C295 1.393 . S
C292 H281 0.950 1_554 S
C292 C290 1.391 . S
C292 C293 1.400 . S
C293 C287 1.491 . S
C293 C292 1.400 . S
C293 C294 1.398 . S
C294 H282 0.950 . S
C294 C293 1.398 . S
C294 C295 1.391 . S
C295 H283 0.950 . S
C295 C291 1.393 . S
C295 C294 1.391 . S
H296 C304 0.948 1_556 S
H297 C309 0.950 . S
H298 C306 0.949 1_556 S
H299 C308 0.950 . S
H300 C310 0.950 . S
H301 C312 0.950 . S
H302 C314 0.950 . S
H303 C315 0.950 1_556 S
C304 H296 0.948 1_554 S
C304 C305 1.386 . S
C304 C306 1.391 . S
C305 C304 1.386 . S
C305 C309 1.393 . S
C306 H298 0.949 1_554 S
C306 C304 1.391 . S
C306 C307 1.402 . S
C307 C306 1.402 . S
C307 C308 1.398 . S
C307 C313 1.491 . S
C308 H299 0.950 . S
C308 C307 1.398 . S
C308 C309 1.391 . S
C309 H297 0.950 . S
C309 C305 1.393 . S
C309 C308 1.391 . S
C310 H300 0.950 . S
C310 C311 1.386 . S
C310 C312 1.391 . S
C311 C310 1.386 . S
C311 C315 1.393 . S
C312 H301 0.950 . S
C312 C310 1.391 . S
C312 C313 1.400 . S
C313 C307 1.491 . S
C313 C312 1.400 . S
C313 C314 1.398 . S
C314 H302 0.950 . S
C314 C313 1.398 . S
C314 C315 1.391 . S
C315 H303 0.950 1_554 S
C315 C311 1.393 . S
C315 C314 1.391 . S
H316 C324 0.950 . S
H317 C329 0.950 . S
H318 C326 0.950 . S
H319 C328 0.950 . S
H320 C330 0.950 . S
H321 C332 0.950 . S
H322 C334 0.950 . S
H323 C335 0.950 . S
C324 H316 0.950 . S
C324 C325 1.386 . S
C324 C326 1.391 . S
C325 C324 1.386 . S
C325 C329 1.393 1_554 S
C326 H318 0.950 . S
C326 C324 1.391 . S
C326 C327 1.400 . S
C327 C326 1.400 . S
C327 C328 1.398 1_554 S
C327 C333 1.491 . S
C328 H319 0.950 . S
C328 C327 1.398 1_556 S
C328 C329 1.391 . S
C329 H317 0.950 . S
C329 C325 1.393 1_556 S
C329 C328 1.391 . S
C330 H320 0.950 . S
C330 C331 1.386 1_556 S
C330 C332 1.391 . S
C331 C330 1.386 1_554 S
C331 C335 1.393 . S
C332 H321 0.950 . S
C332 C330 1.391 . S
C332 C333 1.400 1_556 S
C333 C327 1.491 . S
C333 C332 1.400 1_554 S
C333 C334 1.398 . S
C334 H322 0.950 . S
C334 C333 1.398 . S
C334 C335 1.391 . S
C335 H323 0.950 . S
C335 C331 1.393 . S
C335 C334 1.391 . S
H336 C344 0.950 . S
H337 C349 0.950 . S
H338 C346 0.950 . S
H339 C348 0.950 . S
H340 C350 0.950 . S
H341 C352 0.950 . S
H342 C354 0.950 . S
H343 C355 0.950 . S
C344 H336 0.950 . S
C344 C345 1.386 . S
C344 C346 1.391 . S
C345 C344 1.386 . S
C345 C349 1.393 . S
C346 H338 0.950 . S
C346 C344 1.391 . S
C346 C347 1.400 . S
C347 C346 1.400 . S
C347 C348 1.398 . S
C347 C353 1.491 . S
C348 H339 0.950 . S
C348 C347 1.398 . S
C348 C349 1.391 . S
C349 H337 0.950 . S
C349 C345 1.393 . S
C349 C348 1.391 . S
C350 H340 0.950 . S
C350 C351 1.386 . S
C350 C352 1.391 . S
C351 C350 1.386 . S
C351 C355 1.393 . S
C352 H341 0.950 . S
C352 C350 1.391 . S
C352 C353 1.400 . S
C353 C347 1.491 . S
C353 C352 1.400 . S
C353 C354 1.398 . S
C354 H342 0.950 . S
C354 C353 1.398 . S
C354 C355 1.391 . S
C355 H343 0.950 . S
C355 C351 1.393 . S
C355 C354 1.391 . S
H356 C364 0.950 . S
H357 C369 0.950 . S
H358 C366 0.950 . S
H359 C368 0.950 . S
H360 C370 0.950 . S
H361 C372 0.950 . S
H362 C374 0.950 . S
H363 C375 0.950 . S
C364 H356 0.950 . S
C364 C365 1.386 . S
C364 C366 1.391 . S
C365 C364 1.386 . S
C365 C369 1.393 . S
C366 H358 0.950 . S
C366 C364 1.391 . S
C366 C367 1.400 . S
C367 C366 1.400 . S
C367 C368 1.398 . S
C367 C373 1.491 . S
C368 H359 0.950 . S
C368 C367 1.398 . S
C368 C369 1.391 . S
C369 H357 0.950 . S
C369 C365 1.393 . S
C369 C368 1.391 . S
C370 H360 0.950 . S
C370 C371 1.386 . S
C370 C372 1.391 . S
C371 C370 1.386 . S
C371 C375 1.393 . S
C372 H361 0.950 . S
C372 C370 1.391 . S
C372 C373 1.400 . S
C373 C367 1.491 . S
C373 C372 1.400 . S
C373 C374 1.398 . S
C374 H362 0.950 . S
C374 C373 1.398 . S
C374 C375 1.391 . S
C375 H363 0.950 . S
C375 C371 1.393 . S
C375 C374 1.391 . S
H376 C384 0.950 . S
H377 C389 0.950 . S
H378 C386 0.950 . S
H379 C388 0.950 . S
H380 C390 0.950 . S
H381 C392 0.950 . S
H382 C394 0.950 . S
H383 C395 0.950 . S
C384 H376 0.950 . S
C384 C385 1.386 . S
C384 C386 1.391 . S
C385 C384 1.386 . S
C385 C389 1.393 . S
C386 H378 0.950 . S
C386 C384 1.391 . S
C386 C387 1.400 . S
C387 C386 1.400 . S
C387 C388 1.398 . S
C387 C393 1.491 . S
C388 H379 0.950 . S
C388 C387 1.398 . S
C388 C389 1.391 . S
C389 H377 0.950 . S
C389 C385 1.393 . S
C389 C388 1.391 . S
C390 H380 0.950 . S
C390 C391 1.386 . S
C390 C392 1.391 . S
C391 C390 1.386 . S
C391 C395 1.393 . S
C392 H381 0.950 . S
C392 C390 1.391 . S
C392 C393 1.400 . S
C393 C387 1.491 . S
C393 C392 1.400 . S
C393 C394 1.398 . S
C394 H382 0.950 . S
C394 C393 1.398 . S
C394 C395 1.391 . S
C395 H383 0.950 . S
C395 C391 1.393 . S
C395 C394 1.391 . S
H396 C404 0.950 . S
H397 C409 0.950 . S
H398 C406 0.950 . S
H399 C408 0.950 . S
H400 C410 0.950 . S
H401 C412 0.950 . S
H402 C414 0.950 . S
H403 C415 0.950 . S
C404 H396 0.950 . S
C404 C405 1.386 . S
C404 C406 1.391 . S
C405 C404 1.386 . S
C405 C409 1.393 . S
C406 H398 0.950 . S
C406 C404 1.391 . S
C406 C407 1.400 . S
C407 C406 1.400 . S
C407 C408 1.398 . S
C407 C413 1.491 . S
C408 H399 0.950 . S
C408 C407 1.398 . S
C408 C409 1.391 . S
C409 H397 0.950 . S
C409 C405 1.393 . S
C409 C408 1.391 . S
C410 H400 0.950 . S
C410 C411 1.386 . S
C410 C412 1.391 . S
C411 C410 1.386 . S
C411 C415 1.393 . S
C412 H401 0.950 . S
C412 C410 1.391 . S
C412 C413 1.400 . S
C413 C407 1.491 . S
C413 C412 1.400 . S
C413 C414 1.398 . S
C414 H402 0.950 . S
C414 C413 1.398 . S
C414 C415 1.391 . S
C415 H403 0.950 . S
C415 C411 1.393 . S
C415 C414 1.391 . S
H416 C424 0.950 1_655 S
H417 C429 0.950 . S
H418 C426 0.950 . S
H419 C428 0.950 . S
H420 C430 0.950 . S
H421 C432 0.950 . S
H422 C434 0.950 . S
H423 C435 0.950 . S
C424 H416 0.950 1_455 S
C424 C425 1.386 . S
C424 C426 1.391 . S
C425 C424 1.386 . S
C425 C429 1.393 . S
C426 H418 0.950 . S
C426 C424 1.391 . S
C426 C427 1.400 . S
C427 C426 1.400 . S
C427 C428 1.398 . S
C427 C433 1.491 . S
C428 H419 0.950 . S
C428 C427 1.398 . S
C428 C429 1.391 . S
C429 H417 0.950 . S
C429 C425 1.393 . S
C429 C428 1.391 . S
C430 H420 0.950 . S
C430 C431 1.386 . S
C430 C432 1.391 . S
C431 C430 1.386 . S
C431 C435 1.393 . S
C432 H421 0.950 . S
C432 C430 1.391 . S
C432 C433 1.400 . S
C433 C427 1.491 . S
C433 C432 1.400 . S
C433 C434 1.398 . S
C434 H422 0.950 . S
C434 C433 1.398 . S
C434 C435 1.391 . S
C435 H423 0.950 . S
C435 C431 1.393 . S
C435 C434 1.391 . S
H436 C444 0.950 . S
H437 C449 0.950 . S
H438 C446 0.950 . S
H439 C448 0.950 . S
H440 C450 0.950 . S
H441 C452 0.950 . S
H442 C454 0.950 . S
H443 C455 0.950 . S
C444 H436 0.950 . S
C444 C445 1.386 . S
C444 C446 1.391 . S
C445 C444 1.386 . S
C445 C449 1.393 . S
C446 H438 0.950 . S
C446 C444 1.391 . S
C446 C447 1.400 . S
C447 C446 1.400 . S
C447 C448 1.398 . S
C447 C453 1.491 . S
C448 H439 0.950 . S
C448 C447 1.398 . S
C448 C449 1.391 . S
C449 H437 0.950 . S
C449 C445 1.393 . S
C449 C448 1.391 . S
C450 H440 0.950 . S
C450 C451 1.386 . S
C450 C452 1.391 . S
C451 C450 1.386 . S
C451 C455 1.393 . S
C452 H441 0.950 . S
C452 C450 1.391 . S
C452 C453 1.400 . S
C453 C447 1.491 . S
C453 C452 1.400 . S
C453 C454 1.398 . S
C454 H442 0.950 . S
C454 C453 1.398 . S
C454 C455 1.391 . S
C455 H443 0.950 . S
C455 C451 1.393 . S
C455 C454 1.391 . S
H456 C464 0.950 . S
H457 C469 0.950 1_455 S
H458 C466 0.950 . S
H459 C468 0.950 . S
H460 C470 0.950 . S
H461 C472 0.950 . S
H462 C474 0.950 . S
H463 C475 0.950 . S
C464 H456 0.950 . S
C464 C465 1.386 . S
C464 C466 1.391 . S
C465 C464 1.386 . S
C465 C469 1.393 . S
C466 H458 0.950 . S
C466 C464 1.391 . S
C466 C467 1.400 . S
C467 C466 1.400 . S
C467 C468 1.398 . S
C467 C473 1.491 . S
C468 H459 0.950 . S
C468 C467 1.398 . S
C468 C469 1.391 . S
C469 H457 0.950 1_655 S
C469 C465 1.393 . S
C469 C468 1.391 . S
C470 H460 0.950 . S
C470 C471 1.386 . S
C470 C472 1.391 . S
C471 C470 1.386 . S
C471 C475 1.393 . S
C472 H461 0.950 . S
C472 C470 1.391 . S
C472 C473 1.400 . S
C473 C467 1.491 . S
C473 C472 1.400 . S
C473 C474 1.398 . S
C474 H462 0.950 . S
C474 C473 1.398 . S
C474 C475 1.391 . S
C475 H463 0.950 . S
C475 C471 1.393 . S
C475 C474 1.391 . S
H476 C484 0.950 . S
H477 C489 0.950 . S
H478 C486 0.950 . S
H479 C488 0.950 . S
H480 C490 0.950 . S
H481 C492 0.950 . S
H482 C494 0.950 . S
H483 C495 0.950 . S
C484 H476 0.950 . S
C484 C485 1.386 . S
C484 C486 1.391 . S
C485 C484 1.386 . S
C485 C489 1.393 . S
C486 H478 0.950 . S
C486 C484 1.391 . S
C486 C487 1.400 . S
C487 C486 1.400 . S
C487 C488 1.398 . S
C487 C493 1.491 . S
C488 H479 0.950 . S
C488 C487 1.398 . S
C488 C489 1.391 . S
C489 H477 0.950 . S
C489 C485 1.393 . S
C489 C488 1.391 . S
C490 H480 0.950 . S
C490 C491 1.386 . S
C490 C492 1.391 . S
C491 C490 1.386 . S
C491 C495 1.393 . S
C492 H481 0.950 . S
C492 C490 1.391 . S
C492 C493 1.400 . S
C493 C487 1.491 . S
C493 C492 1.400 . S
C493 C494 1.398 . S
C494 H482 0.950 . S
C494 C493 1.398 . S
C494 C495 1.391 . S
C495 H483 0.950 . S
C495 C491 1.393 . S
C495 C494 1.391 . S
H496 C504 0.950 . S
H497 C509 0.950 1_545 S
H498 C506 0.950 . S
H499 C508 0.950 . S
H500 C510 0.950 . S
H501 C512 0.950 . S
H502 C514 0.950 . S
H503 C515 0.950 . S
C504 H496 0.950 . S
C504 C505 1.386 . S
C504 C506 1.391 . S
C505 C504 1.386 . S
C505 C509 1.393 . S
C506 H498 0.950 . S
C506 C504 1.391 . S
C506 C507 1.400 . S
C507 C506 1.400 . S
C507 C508 1.398 . S
C507 C513 1.491 . S
C508 H499 0.950 . S
C508 C507 1.398 . S
C508 C509 1.391 . S
C509 H497 0.950 1_565 S
C509 C505 1.393 . S
C509 C508 1.391 . S
C510 H500 0.950 . S
C510 C511 1.386 . S
C510 C512 1.391 . S
C511 C510 1.386 . S
C511 C515 1.393 . S
C512 H501 0.950 . S
C512 C510 1.391 . S
C512 C513 1.400 . S
C513 C507 1.491 . S
C513 C512 1.400 . S
C513 C514 1.398 . S
C514 H502 0.950 . S
C514 C513 1.398 . S
C514 C515 1.391 . S
C515 H503 0.950 . S
C515 C511 1.393 . S
C515 C514 1.391 . S
H516 C524 0.950 . S
H517 C529 0.950 . S
H518 C526 0.950 . S
H519 C528 0.950 . S
H520 C530 0.950 . S
H521 C532 0.950 . S
H522 C534 0.950 . S
H523 C535 0.950 . S
C524 H516 0.950 . S
C524 C525 1.386 . S
C524 C526 1.391 . S
C525 C524 1.386 . S
C525 C529 1.393 . S
C526 H518 0.950 . S
C526 C524 1.391 . S
C526 C527 1.400 . S
C527 C526 1.400 . S
C527 C528 1.398 . S
C527 C533 1.491 . S
C528 H519 0.950 . S
C528 C527 1.398 . S
C528 C529 1.391 . S
C529 H517 0.950 . S
C529 C525 1.393 . S
C529 C528 1.391 . S
C530 H520 0.950 . S
C530 C531 1.386 . S
C530 C532 1.391 . S
C531 C530 1.386 . S
C531 C535 1.393 . S
C532 H521 0.950 . S
C532 C530 1.391 . S
C532 C533 1.400 . S
C533 C527 1.491 . S
C533 C532 1.400 . S
C533 C534 1.398 . S
C534 H522 0.950 . S
C534 C533 1.398 . S
C534 C535 1.391 . S
C535 H523 0.950 . S
C535 C531 1.393 . S
C535 C534 1.391 . S
H536 C544 0.950 . S
H537 C549 0.950 . S
H538 C546 0.950 . S
H539 C548 0.950 . S
H540 C550 0.950 . S
H541 C552 0.950 . S
H542 C554 0.950 . S
H543 C555 0.950 . S
C544 H536 0.950 . S
C544 C545 1.386 . S
C544 C546 1.391 . S
C545 C544 1.386 . S
C545 C549 1.393 . S
C546 H538 0.950 . S
C546 C544 1.391 . S
C546 C547 1.400 . S
C547 C546 1.400 . S
C547 C548 1.398 . S
C547 C553 1.491 . S
C548 H539 0.950 . S
C548 C547 1.398 . S
C548 C549 1.391 . S
C549 H537 0.950 . S
C549 C545 1.393 . S
C549 C548 1.391 . S
C550 H540 0.950 . S
C550 C551 1.386 . S
C550 C552 1.391 . S
C551 C550 1.386 . S
C551 C555 1.393 . S
C552 H541 0.950 . S
C552 C550 1.391 . S
C552 C553 1.400 . S
C553 C547 1.491 . S
C553 C552 1.400 . S
C553 C554 1.398 . S
C554 H542 0.950 . S
C554 C553 1.398 . S
C554 C555 1.391 . S
C555 H543 0.950 . S
C555 C551 1.393 . S
C555 C554 1.391 . S
H556 C564 0.950 . S
H557 C569 0.950 . S
H558 C566 0.950 . S
H559 C568 0.950 . S
H560 C570 0.950 . S
H561 C572 0.950 . S
H562 C574 0.950 . S
H563 C575 0.950 . S
C564 H556 0.950 . S
C564 C565 1.386 . S
C564 C566 1.391 . S
C565 C564 1.386 . S
C565 C569 1.393 . S
C566 H558 0.950 . S
C566 C564 1.391 . S
C566 C567 1.400 . S
C567 C566 1.400 . S
C567 C568 1.398 . S
C567 C573 1.491 . S
C568 H559 0.950 . S
C568 C567 1.398 . S
C568 C569 1.391 . S
C569 H557 0.950 . S
C569 C565 1.393 . S
C569 C568 1.391 . S
C570 H560 0.950 . S
C570 C571 1.386 . S
C570 C572 1.391 . S
C571 C570 1.386 . S
C571 C575 1.393 . S
C572 H561 0.950 . S
C572 C570 1.391 . S
C572 C573 1.400 . S
C573 C567 1.491 . S
C573 C572 1.400 . S
C573 C574 1.398 . S
C574 H562 0.950 . S
C574 C573 1.398 . S
C574 C575 1.391 . S
C575 H563 0.950 . S
C575 C571 1.393 . S
C575 C574 1.391 . S
H576 C584 0.950 . S
H577 C589 0.950 . S
H578 C586 0.950 . S
H579 C588 0.950 . S
H580 C590 0.950 . S
H581 C592 0.950 . S
H582 C594 0.950 . S
H583 C595 0.950 . S
C584 H576 0.950 . S
C584 C585 1.386 . S
C584 C586 1.391 . S
C585 C584 1.386 . S
C585 C589 1.393 . S
C586 H578 0.950 . S
C586 C584 1.391 . S
C586 C587 1.400 . S
C587 C586 1.400 . S
C587 C588 1.398 . S
C587 C593 1.491 . S
C588 H579 0.950 . S
C588 C587 1.398 . S
C588 C589 1.391 . S
C589 H577 0.950 . S
C589 C585 1.393 . S
C589 C588 1.391 . S
C590 H580 0.950 . S
C590 C591 1.386 . S
C590 C592 1.391 . S
C591 C590 1.386 . S
C591 C595 1.393 . S
C592 H581 0.950 . S
C592 C590 1.391 . S
C592 C593 1.400 . S
C593 C587 1.491 . S
C593 C592 1.400 . S
C593 C594 1.398 . S
C594 H582 0.950 . S
C594 C593 1.398 . S
C594 C595 1.391 . S
C595 H583 0.950 . S
C595 C591 1.393 . S
C595 C594 1.391 . S
H596 C604 0.950 . S
H597 C609 0.950 . S
H598 C606 0.950 . S
H599 C608 0.950 . S
H600 C610 0.950 . S
H601 C612 0.950 . S
H602 C614 0.950 . S
H603 C615 0.950 . S
C604 H596 0.950 . S
C604 C605 1.386 . S
C604 C606 1.391 . S
C605 C604 1.386 . S
C605 C609 1.393 . S
C606 H598 0.950 . S
C606 C604 1.391 . S
C606 C607 1.400 . S
C607 C606 1.400 . S
C607 C608 1.398 . S
C607 C613 1.491 . S
C608 H599 0.950 . S
C608 C607 1.398 . S
C608 C609 1.391 . S
C609 H597 0.950 . S
C609 C605 1.393 . S
C609 C608 1.391 . S
C610 H600 0.950 . S
C610 C611 1.386 . S
C610 C612 1.391 . S
C611 C610 1.386 . S
C611 C615 1.393 . S
C612 H601 0.950 . S
C612 C610 1.391 . S
C612 C613 1.400 . S
C613 C607 1.491 . S
C613 C612 1.400 . S
C613 C614 1.398 . S
C614 H602 0.950 . S
C614 C613 1.398 . S
C614 C615 1.391 . S
C615 H603 0.950 . S
C615 C611 1.393 . S
C615 C614 1.391 . S
H616 C624 0.950 . S
H617 C629 0.950 . S
H618 C626 0.950 . S
H619 C628 0.950 . S
H620 C630 0.950 . S
H621 C632 0.950 . S
H622 C634 0.950 . S
H623 C635 0.950 . S
C624 H616 0.950 . S
C624 C625 1.386 . S
C624 C626 1.391 . S
C625 C624 1.386 . S
C625 C629 1.393 . S
C626 H618 0.950 . S
C626 C624 1.391 . S
C626 C627 1.400 . S
C627 C626 1.400 . S
C627 C628 1.398 . S
C627 C633 1.491 . S
C628 H619 0.950 . S
C628 C627 1.398 . S
C628 C629 1.391 . S
C629 H617 0.950 . S
C629 C625 1.393 . S
C629 C628 1.391 . S
C630 H620 0.950 . S
C630 C631 1.386 . S
C630 C632 1.391 . S
C631 C630 1.386 . S
C631 C635 1.393 . S
C632 H621 0.950 . S
C632 C630 1.391 . S
C632 C633 1.400 . S
C633 C627 1.491 . S
C633 C632 1.400 . S
C633 C634 1.398 . S
C634 H622 0.950 . S
C634 C633 1.398 . S
C634 C635 1.391 . S
C635 H623 0.950 . S
C635 C631 1.393 . S
C635 C634 1.391 . S
H636 C644 0.950 . S
H637 C649 0.950 . S
H638 C646 0.950 . S
H639 C648 0.950 . S
H640 C650 0.950 . S
H641 C652 0.950 . S
H642 C654 0.950 . S
H643 C655 0.950 . S
C644 H636 0.950 . S
C644 C645 1.386 . S
C644 C646 1.391 . S
C645 C644 1.386 . S
C645 C649 1.393 . S
C646 H638 0.950 . S
C646 C644 1.391 . S
C646 C647 1.400 . S
C647 C646 1.400 . S
C647 C648 1.398 . S
C647 C653 1.491 . S
C648 H639 0.950 . S
C648 C647 1.398 . S
C648 C649 1.391 . S
C649 H637 0.950 . S
C649 C645 1.393 . S
C649 C648 1.391 . S
C650 H640 0.950 . S
C650 C651 1.386 . S
C650 C652 1.391 . S
C651 C650 1.386 . S
C651 C655 1.393 . S
C652 H641 0.950 . S
C652 C650 1.391 . S
C652 C653 1.400 . S
C653 C647 1.491 . S
C653 C652 1.400 . S
C653 C654 1.398 . S
C654 H642 0.950 . S
C654 C653 1.398 . S
C654 C655 1.391 . S
C655 H643 0.950 . S
C655 C651 1.393 . S
C655 C654 1.391 . S
H656 C664 0.950 . S
H657 C669 0.950 . S
H658 C666 0.950 . S
H659 C668 0.950 . S
H660 C670 0.950 . S
H661 C672 0.950 . S
H662 C674 0.950 . S
H663 C675 0.950 . S
C664 H656 0.950 . S
C664 C665 1.386 . S
C664 C666 1.391 . S
C665 C664 1.386 . S
C665 C669 1.393 . S
C666 H658 0.950 . S
C666 C664 1.391 . S
C666 C667 1.400 . S
C667 C666 1.400 . S
C667 C668 1.398 . S
C667 C673 1.491 . S
C668 H659 0.950 . S
C668 C667 1.398 . S
C668 C669 1.391 . S
C669 H657 0.950 . S
C669 C665 1.393 . S
C669 C668 1.391 . S
C670 H660 0.950 . S
C670 C671 1.386 . S
C670 C672 1.391 . S
C671 C670 1.386 . S
C671 C675 1.393 . S
C672 H661 0.950 . S
C672 C670 1.391 . S
C672 C673 1.400 . S
C673 C667 1.491 . S
C673 C672 1.400 . S
C673 C674 1.398 . S
C674 H662 0.950 . S
C674 C673 1.398 . S
C674 C675 1.391 . S
C675 H663 0.950 . S
C675 C671 1.393 . S
C675 C674 1.391 . S
H676 C684 0.950 . S
H677 C689 0.950 . S
H678 C686 0.950 . S
H679 C688 0.950 . S
H680 C690 0.950 . S
H681 C692 0.950 . S
H682 C694 0.950 . S
H683 C695 0.950 . S
C684 H676 0.950 . S
C684 C685 1.386 . S
C684 C686 1.391 . S
C685 C684 1.386 . S
C685 C689 1.393 . S
C686 H678 0.950 . S
C686 C684 1.391 . S
C686 C687 1.400 . S
C687 C686 1.400 . S
C687 C688 1.398 . S
C687 C693 1.491 . S
C688 H679 0.950 . S
C688 C687 1.398 . S
C688 C689 1.391 . S
C689 H677 0.950 . S
C689 C685 1.393 . S
C689 C688 1.391 . S
C690 H680 0.950 . S
C690 C691 1.386 . S
C690 C692 1.391 . S
C691 C690 1.386 . S
C691 C695 1.393 . S
C692 H681 0.950 . S
C692 C690 1.391 . S
C692 C693 1.400 . S
C693 C687 1.491 . S
C693 C692 1.400 . S
C693 C694 1.398 . S
C694 H682 0.950 . S
C694 C693 1.398 . S
C694 C695 1.391 . S
C695 H683 0.950 . S
C695 C691 1.393 . S
C695 C694 1.391 . S
H696 C704 0.950 . S
H697 C709 0.950 . S
H698 C706 0.950 . S
H699 C708 0.950 . S
H700 C710 0.950 . S
H701 C712 0.950 . S
H702 C714 0.950 . S
H703 C715 0.950 . S
C704 H696 0.950 . S
C704 C705 1.386 . S
C704 C706 1.391 . S
C705 C704 1.386 . S
C705 C709 1.393 . S
C706 H698 0.950 . S
C706 C704 1.391 . S
C706 C707 1.400 . S
C707 C706 1.400 . S
C707 C708 1.398 . S
C707 C713 1.491 . S
C708 H699 0.950 . S
C708 C707 1.398 . S
C708 C709 1.391 . S
C709 H697 0.950 . S
C709 C705 1.393 . S
C709 C708 1.391 . S
C710 H700 0.950 . S
C710 C711 1.386 . S
C710 C712 1.391 . S
C711 C710 1.386 . S
C711 C715 1.393 . S
C712 H701 0.950 . S
C712 C710 1.391 . S
C712 C713 1.400 . S
C713 C707 1.491 . S
C713 C712 1.400 . S
C713 C714 1.398 . S
C714 H702 0.950 . S
C714 C713 1.398 . S
C714 C715 1.391 . S
C715 H703 0.950 . S
C715 C711 1.393 . S
C715 C714 1.391 . S
H716 C724 0.950 . S
H717 C729 0.950 . S
H718 C726 0.950 . S
H719 C728 0.950 . S
H720 C730 0.950 . S
H721 C732 0.950 . S
H722 C734 0.950 . S
H723 C735 0.950 . S
C724 H716 0.950 . S
C724 C725 1.386 . S
C724 C726 1.391 . S
C725 C724 1.386 . S
C725 C729 1.393 . S
C726 H718 0.950 . S
C726 C724 1.391 . S
C726 C727 1.400 . S
C727 C726 1.400 . S
C727 C728 1.398 . S
C727 C733 1.491 . S
C728 H719 0.950 . S
C728 C727 1.398 . S
C728 C729 1.391 . S
C729 H717 0.950 . S
C729 C725 1.393 . S
C729 C728 1.391 . S
C730 H720 0.950 . S
C730 C731 1.386 . S
C730 C732 1.391 . S
C731 C730 1.386 . S
C731 C735 1.393 . S
C732 H721 0.950 . S
C732 C730 1.391 . S
C732 C733 1.400 . S
C733 C727 1.491 . S
C733 C732 1.400 . S
C733 C734 1.398 . S
C734 H722 0.950 . S
C734 C733 1.398 . S
C734 C735 1.391 . S
C735 H723 0.950 . S
C735 C731 1.393 . S
C735 C734 1.391 . S
C265 C45 1.578 . S
C271 C115 1.496 . S
C285 C30 1.570 . S
C291 C134 1.489 . S
C305 C39 1.572 . S
C311 C153 1.386 . S
C331 C172 1.509 . S
C325 C34 1.568 . S
C345 C97 1.565 . S
C351 C191 1.498 . S
C371 C210 1.485 . S
C365 C82 1.580 . S
C391 C229 1.403 . S
C385 C91 1.577 . S
C411 C248 1.483 . S
C405 C86 1.579 . S
C431 C220 1.600 . S
C425 C26 1.571 . S
C451 C243 1.523 . S
C445 C36 1.465 . S
C471 C186 1.600 . S
C465 C32 1.540 . S
C491 C205 1.518 . S
C485 C42 1.471 . S
C505 C18 1.723 . S
C511 C201 1.769 . S
C531 C224 1.671 . S
C525 C50 1.603 . S
C545 C4 1.709 . S
C551 C239 1.756 . S
C565 C48 1.622 . S
C571 C182 1.673 . S
C591 C144 1.600 . S
C585 C78 1.573 . S
C605 C88 1.484 . S
C611 C167 1.530 . S
C631 C110 1.601 . S
C625 C84 1.541 . S
C651 C129 1.528 . S
C645 C94 1.485 . S
C671 C125 1.769 . S
C665 C70 1.723 . S
C691 C148 1.672 . S
C685 C102 1.606 . S
C705 C56 1.701 . S
C711 C163 1.748 . S
C725 C100 1.623 . S
C731 C106 1.674 . S
