# Generated by pormake.
# Topology sqc, (4,8)-cn, num edge types: 1
# Building blocks:
#     Node 0, Type 0, BuildingBlock: NAHDIM_clean_linker_0, # of connection points: 4
#     Node 1, Type 0, BuildingBlock: NAHDIM_clean_linker_0, # of connection points: 4
#     Node 2, Type 0, BuildingBlock: NAHDIM_clean_linker_0, # of connection points: 4
#     Node 3, Type 0, BuildingBlock: NAHDIM_clean_linker_0, # of connection points: 4
#     Node 4, Type 0, BuildingBlock: NAHDIM_clean_linker_0, # of connection points: 4
#     Node 5, Type 0, BuildingBlock: NAHDIM_clean_linker_0, # of connection points: 4
#     Node 6, Type 0, BuildingBlock: NAHDIM_clean_linker_0, # of connection points: 4
#     Node 7, Type 0, BuildingBlock: NAHDIM_clean_linker_0, # of connection points: 4
#     Node 8, Type 1, BuildingBlock: TAGTUT_clean_sbu_3, # of connection points: 8
#     Node 9, Type 1, BuildingBlock: TAGTUT_clean_sbu_3, # of connection points: 8
#     Node 10, Type 1, BuildingBlock: TAGTUT_clean_sbu_3, # of connection points: 8
#     Node 11, Type 1, BuildingBlock: TAGTUT_clean_sbu_3, # of connection points: 8
#     Edge 12, Type (0, 1), BuildingBlock: CIFDUS_clean_linker_0, # of connection points: 2
#     Edge 13, Type (0, 1), BuildingBlock: CIFDUS_clean_linker_0, # of connection points: 2
#     Edge 14, Type (0, 1), BuildingBlock: CIFDUS_clean_linker_0, # of connection points: 2
#     Edge 15, Type (0, 1), BuildingBlock: CIFDUS_clean_linker_0, # of connection points: 2
#     Edge 16, Type (0, 1), BuildingBlock: CIFDUS_clean_linker_0, # of connection points: 2
#     Edge 17, Type (0, 1), BuildingBlock: CIFDUS_clean_linker_0, # of connection points: 2
#     Edge 18, Type (0, 1), BuildingBlock: CIFDUS_clean_linker_0, # of connection points: 2
#     Edge 19, Type (0, 1), BuildingBlock: CIFDUS_clean_linker_0, # of connection points: 2
#     Edge 20, Type (0, 1), BuildingBlock: CIFDUS_clean_linker_0, # of connection points: 2
#     Edge 21, Type (0, 1), BuildingBlock: CIFDUS_clean_linker_0, # of connection points: 2
#     Edge 22, Type (0, 1), BuildingBlock: CIFDUS_clean_linker_0, # of connection points: 2
#     Edge 23, Type (0, 1), BuildingBlock: CIFDUS_clean_linker_0, # of connection points: 2
#     Edge 24, Type (0, 1), BuildingBlock: CIFDUS_clean_linker_0, # of connection points: 2
#     Edge 25, Type (0, 1), BuildingBlock: CIFDUS_clean_linker_0, # of connection points: 2
#     Edge 26, Type (0, 1), BuildingBlock: CIFDUS_clean_linker_0, # of connection points: 2
#     Edge 27, Type (0, 1), BuildingBlock: CIFDUS_clean_linker_0, # of connection points: 2
#     Edge 28, Type (0, 1), BuildingBlock: CIFDUS_clean_linker_0, # of connection points: 2
#     Edge 29, Type (0, 1), BuildingBlock: CIFDUS_clean_linker_0, # of connection points: 2
#     Edge 30, Type (0, 1), BuildingBlock: CIFDUS_clean_linker_0, # of connection points: 2
#     Edge 31, Type (0, 1), BuildingBlock: CIFDUS_clean_linker_0, # of connection points: 2
#     Edge 32, Type (0, 1), BuildingBlock: CIFDUS_clean_linker_0, # of connection points: 2
#     Edge 33, Type (0, 1), BuildingBlock: CIFDUS_clean_linker_0, # of connection points: 2
#     Edge 34, Type (0, 1), BuildingBlock: CIFDUS_clean_linker_0, # of connection points: 2
#     Edge 35, Type (0, 1), BuildingBlock: CIFDUS_clean_linker_0, # of connection points: 2
#     Edge 36, Type (0, 1), BuildingBlock: CIFDUS_clean_linker_0, # of connection points: 2
#     Edge 37, Type (0, 1), BuildingBlock: CIFDUS_clean_linker_0, # of connection points: 2
#     Edge 38, Type (0, 1), BuildingBlock: CIFDUS_clean_linker_0, # of connection points: 2
#     Edge 39, Type (0, 1), BuildingBlock: CIFDUS_clean_linker_0, # of connection points: 2
#     Edge 40, Type (0, 1), BuildingBlock: CIFDUS_clean_linker_0, # of connection points: 2
#     Edge 41, Type (0, 1), BuildingBlock: CIFDUS_clean_linker_0, # of connection points: 2
#     Edge 42, Type (0, 1), BuildingBlock: CIFDUS_clean_linker_0, # of connection points: 2
#     Edge 43, Type (0, 1), BuildingBlock: CIFDUS_clean_linker_0, # of connection points: 2
# Relax obj value: 0.120
# Max RMSD: 0.248
# Mean RMSD: 0.121
data_MOF--net-sqc--node1-TAGTUT_clean_sbu_3--node2-NAHDIM_clean_linker_0--edge1-CIFDUS_clean_linker_0
_symmetry_space_group_name_H-M    P1
_symmetry_Int_Tables_number       1
_symmetry_cell_setting            triclinic
loop_
_symmetry_equiv_pos_as_xyz
'x, y, z'
_cell_length_a     28.344732
_cell_length_b     28.329747
_cell_length_c     95.034685
_cell_angle_alpha  90.34181
_cell_angle_beta   89.514704
_cell_angle_gamma 89.974624
loop_
_atom_site_label
_atom_site_type_symbol
_atom_site_fract_x
_atom_site_fract_y
_atom_site_fract_z
_atom_type_partial_charge
C0 C 0.73366 0.95433 0.48359 0.0
C1 C 0.76733 0.93791 0.47184 0.0
C2 C 0.83976 0.89718 0.47838 0.0
C3 C 0.857 0.87428 0.49026 0.0
C4 C 0.90521 0.87586 0.49358 0.0
C5 C 0.93688 0.90046 0.48465 0.0
C6 C 0.92009 0.92036 0.47202 0.0
C7 C 0.87169 0.91844 0.469 0.0
C8 C 0.92195 0.85324 0.50696 0.0
C9 C 0.95291 0.94599 0.4621 0.0
C10 C 0.20325 0.70203 0.46637 0.0
C11 C 0.22135 0.74977 0.46097 0.0
C12 C 0.18569 0.80906 0.47623 0.0
C13 C 0.16466 0.84025 0.46677 0.0
C14 C 0.12684 0.86925 0.47102 0.0
C15 C 0.1094 0.86657 0.48502 0.0
C16 C 0.13066 0.83491 0.49457 0.0
C17 C 0.16915 0.8072 0.4901 0.0
C18 C 0.10577 0.903 0.46058 0.0
C19 C 0.11266 0.83009 0.50949 0.0
C20 C 0.23456 0.10599 0.53801 0.0
C21 C 0.21061 0.12999 0.5273 0.0
C22 C 0.16625 0.11449 0.52266 0.0
C23 C 0.14465 0.07494 0.5291 0.0
C24 C 0.16824 0.05132 0.54009 0.0
C25 C 0.2132 0.06671 0.54421 0.0
C26 C 0.14245 0.14067 0.51089 0.0
C27 C 0.14596 0.00995 0.54755 0.0
C28 C 0.75959 0.1552 0.52763 0.0
C29 C 0.7977 0.14371 0.53842 0.0
C30 C 0.88285 0.14572 0.53331 0.0
C31 C 0.91479 0.16353 0.52343 0.0
C32 C 0.95884 0.14208 0.52119 0.0
C33 C 0.97154 0.10247 0.52933 0.0
C34 C 0.94102 0.08696 0.54024 0.0
C35 C 0.89676 0.1086 0.54208 0.0
C36 C 0.99066 0.16009 0.50961 0.0
C37 C 0.95405 0.04578 0.54942 0.0
C38 C 0.98489 0.91291 0.48972 0.0
C39 C 0.02366 0.88525 0.48565 0.0
C40 C 0.06961 0.89742 0.48972 0.0
C41 C 0.07707 0.93829 0.49812 0.0
C42 C 0.12267 0.95286 0.50198 0.0
C43 C 0.12944 0.99249 0.5105 0.0
C44 C 0.09087 0.01909 0.51556 0.0
C45 C 0.09713 0.05891 0.52448 0.0
C46 C 0.05773 0.08492 0.52906 0.0
C47 C 0.0122 0.07267 0.52482 0.0
C48 C 0.00545 0.03313 0.51592 0.0
C49 C 0.96018 0.02054 0.51126 0.0
C50 C 0.95351 0.98146 0.50267 0.0
C51 C 0.99178 0.95313 0.49835 0.0
C52 C 0.03788 0.96564 0.50266 0.0
C53 C 0.04476 0.00589 0.51143 0.0
C54 C 0.33019 0.15625 0.52597 0.0
C55 C 0.30225 0.16049 0.53986 0.0
O56 O 0.79233 0.8987 0.47635 0.0
O57 O 0.83916 0.16531 0.534 0.0
O58 O 0.27817 0.11887 0.54259 0.0
O59 O 0.22241 0.781 0.47227 0.0
H60 H 0.79142 0.9684 0.47001 0.0
H61 H 0.75443 0.96814 0.49258 0.0
H62 H 0.71165 0.92474 0.48753 0.0
H63 H 0.71043 0.98309 0.47979 0.0
H64 H 0.83225 0.85694 0.49728 0.0
H65 H 0.85875 0.93441 0.45947 0.0
H66 H 0.95504 0.83316 0.50498 0.0
H67 H 0.89507 0.82905 0.5115 0.0
H68 H 0.92976 0.8812 0.51484 0.0
H69 H 0.93514 0.95656 0.45223 0.0
H70 H 0.98355 0.92316 0.4594 0.0
H71 H 0.96672 0.97818 0.46737 0.0
H72 H 0.19607 0.76204 0.45287 0.0
H73 H 0.19473 0.6779 0.4575 0.0
H74 H 0.17014 0.70728 0.47247 0.0
H75 H 0.22971 0.68543 0.47332 0.0
H76 H 0.17837 0.84247 0.45612 0.0
H77 H 0.18582 0.78305 0.49734 0.0
H78 H 0.10276 0.93889 0.46527 0.0
H79 H 0.06969 0.89104 0.45785 0.0
H80 H 0.12703 0.90516 0.45073 0.0
H81 H 0.12763 0.79865 0.51478 0.0
H82 H 0.07357 0.82733 0.50965 0.0
H83 H 0.12249 0.86192 0.51565 0.0
H84 H 0.2769 0.19024 0.53871 0.0
H85 H 0.22631 0.16053 0.52238 0.0
H86 H 0.23176 0.0484 0.55248 0.0
H87 H 0.12775 0.11552 0.50307 0.0
H88 H 0.16698 0.16512 0.5054 0.0
H89 H 0.11274 0.16169 0.51532 0.0
H90 H 0.16574 0.99984 0.55711 0.0
H91 H 0.14505 0.97905 0.54032 0.0
H92 H 0.109 0.01837 0.55062 0.0
H93 H 0.80173 0.10462 0.53851 0.0
H94 H 0.72641 0.13581 0.52994 0.0
H95 H 0.77182 0.14441 0.51695 0.0
H96 H 0.75214 0.19372 0.52757 0.0
H97 H 0.90409 0.19299 0.51696 0.0
H98 H 0.87297 0.09606 0.55022 0.0
H99 H 0.99639 0.13192 0.5016 0.0
H100 H 0.02556 0.16944 0.51402 0.0
H101 H 0.97585 0.19163 0.50433 0.0
H102 H 0.93107 0.04353 0.55892 0.0
H103 H 0.99141 0.04861 0.55276 0.0
H104 H 0.95034 0.01251 0.5433 0.0
H105 H 0.01806 0.85417 0.47915 0.0
H106 H 0.15372 0.93375 0.49847 0.0
H107 H 0.16533 0.00189 0.51313 0.0
H108 H 0.0626 0.11541 0.53585 0.0
H109 H 0.92913 0.04069 0.51417 0.0
H110 H 0.91771 0.97384 0.49952 0.0
H111 H 0.35108 0.12309 0.52563 0.0
H112 H 0.35411 0.187 0.52465 0.0
H113 H 0.30589 0.15555 0.51689 0.0
C114 C 0.13851 0.97039 0.78493 0.0
C115 C 0.14484 0.94884 0.79954 0.0
C116 C 0.2 0.8817 0.79669 0.0
C117 C 0.24517 0.86584 0.80005 0.0
C118 C 0.26055 0.82042 0.79623 0.0
C119 C 0.22999 0.79017 0.78871 0.0
C120 C 0.18386 0.80559 0.78545 0.0
C121 C 0.16925 0.85122 0.78946 0.0
C122 C 0.30986 0.80512 0.79997 0.0
C123 C 0.15041 0.77417 0.77743 0.0
C124 C 0.31791 0.44134 0.81733 0.0
C125 C 0.28427 0.46884 0.82709 0.0
C126 C 0.252 0.53364 0.81276 0.0
C127 C 0.2123 0.54887 0.80542 0.0
C128 C 0.21284 0.59112 0.79775 0.0
C129 C 0.25412 0.61912 0.79756 0.0
C130 C 0.29376 0.60509 0.80548 0.0
C131 C 0.29258 0.56226 0.81283 0.0
C132 C 0.17002 0.60492 0.78941 0.0
C133 C 0.3382 0.63445 0.80572 0.0
C134 C 0.41612 0.50413 0.72778 0.0
C135 C 0.37399 0.51824 0.72133 0.0
C136 C 0.35605 0.56396 0.72345 0.0
C137 C 0.38107 0.59616 0.73202 0.0
C138 C 0.4252 0.58307 0.73765 0.0
C139 C 0.44222 0.53716 0.73539 0.0
C140 C 0.30949 0.57732 0.71701 0.0
C141 C 0.45337 0.61688 0.74657 0.0
C142 C 0.44158 0.94424 0.71412 0.0
C143 C 0.43835 0.9144 0.7006 0.0
C144 C 0.3878 0.84813 0.70791 0.0
C145 C 0.34344 0.82731 0.70639 0.0
C146 C 0.33093 0.78673 0.71396 0.0
C147 C 0.3634 0.76719 0.72354 0.0
C148 C 0.40863 0.78764 0.725 0.0
C149 C 0.42061 0.82742 0.71703 0.0
C150 C 0.28292 0.76501 0.71182 0.0
C151 C 0.44441 0.7676 0.73503 0.0
C152 C 0.24746 0.74371 0.78347 0.0
C153 C 0.24111 0.70391 0.79197 0.0
C154 C 0.25824 0.65964 0.78774 0.0
C155 C 0.28153 0.65458 0.77459 0.0
C156 C 0.29808 0.61035 0.76988 0.0
C157 C 0.32293 0.60594 0.75729 0.0
C158 C 0.33214 0.64553 0.74885 0.0
C159 C 0.35905 0.64159 0.73631 0.0
C160 C 0.36739 0.68148 0.7281 0.0
C161 C 0.35012 0.72577 0.7322 0.0
C162 C 0.32346 0.73052 0.74481 0.0
C163 C 0.30621 0.77461 0.7494 0.0
C164 C 0.28064 0.77891 0.76191 0.0
C165 C 0.27202 0.73944 0.77048 0.0
C166 C 0.28905 0.6947 0.76604 0.0
C167 C 0.31455 0.69019 0.75316 0.0
C168 C 0.41979 0.38102 0.73512 0.0
C169 C 0.40666 0.4187 0.72438 0.0
O170 O 0.18835 0.92671 0.80042 0.0
O171 O 0.39708 0.88816 0.70052 0.0
O172 O 0.43259 0.45916 0.7271 0.0
O173 O 0.24957 0.49105 0.81933 0.0
H174 H 0.11604 0.92288 0.80141 0.0
H175 H 0.13758 0.94215 0.77679 0.0
H176 H 0.16807 0.99468 0.78236 0.0
H177 H 0.10477 0.99031 0.78449 0.0
H178 H 0.26862 0.8895 0.80563 0.0
H179 H 0.13423 0.86287 0.78669 0.0
H180 H 0.30862 0.77105 0.80568 0.0
H181 H 0.32823 0.83164 0.80662 0.0
H182 H 0.33087 0.79941 0.7902 0.0
H183 H 0.11516 0.79063 0.77609 0.0
H184 H 0.14599 0.74014 0.78303 0.0
H185 H 0.16555 0.76611 0.76687 0.0
H186 H 0.30558 0.49535 0.8329 0.0
H187 H 0.34347 0.42069 0.82361 0.0
H188 H 0.33812 0.46626 0.81062 0.0
H189 H 0.29824 0.41703 0.8103 0.0
H190 H 0.18107 0.52681 0.80544 0.0
H191 H 0.32392 0.55132 0.81832 0.0
H192 H 0.15814 0.64078 0.79262 0.0
H193 H 0.14028 0.57984 0.79087 0.0
H194 H 0.17937 0.60623 0.77804 0.0
H195 H 0.36255 0.62331 0.81418 0.0
H196 H 0.32949 0.67236 0.80725 0.0
H197 H 0.35694 0.63077 0.79547 0.0
H198 H 0.36822 0.42532 0.72586 0.0
H199 H 0.35471 0.49365 0.71479 0.0
H200 H 0.47524 0.52623 0.74004 0.0
H201 H 0.2831 0.58386 0.72551 0.0
H202 H 0.29577 0.54938 0.70989 0.0
H203 H 0.31342 0.61058 0.71099 0.0
H204 H 0.48869 0.60259 0.74922 0.0
H205 H 0.43384 0.62443 0.75651 0.0
H206 H 0.45805 0.65083 0.74097 0.0
H207 H 0.4693 0.89028 0.69998 0.0
H208 H 0.47385 0.96649 0.71385 0.0
H209 H 0.4435 0.92151 0.72355 0.0
H210 H 0.41021 0.96748 0.71534 0.0
H211 H 0.31847 0.84314 0.69924 0.0
H212 H 0.45551 0.8422 0.71818 0.0
H213 H 0.26116 0.77007 0.72147 0.0
H214 H 0.28634 0.72642 0.70994 0.0
H215 H 0.26403 0.78099 0.70282 0.0
H216 H 0.4754 0.79117 0.73635 0.0
H217 H 0.45706 0.73306 0.73092 0.0
H218 H 0.42804 0.7615 0.74552 0.0
H219 H 0.22346 0.70762 0.80209 0.0
H220 H 0.29233 0.57855 0.77591 0.0
H221 H 0.3351 0.57102 0.75432 0.0
H222 H 0.38854 0.67822 0.71857 0.0
H223 H 0.31233 0.80637 0.74338 0.0
H224 H 0.26821 0.81376 0.76486 0.0
H225 H 0.39951 0.3481 0.73316 0.0
H226 H 0.4112 0.39387 0.7459 0.0
H227 H 0.45813 0.37292 0.73456 0.0
C228 C 0.71896 0.83642 0.09506 0.0
C229 C 0.75902 0.83671 0.08412 0.0
C230 C 0.73209 0.89171 0.0665 0.0
C231 C 0.72861 0.86263 0.05457 0.0
C232 C 0.69666 0.87325 0.04386 0.0
C233 C 0.66773 0.91382 0.04514 0.0
C234 C 0.67288 0.94445 0.05684 0.0
C235 C 0.70561 0.93324 0.06732 0.0
C236 C 0.69259 0.8402 0.03142 0.0
C237 C 0.64248 0.98785 0.05855 0.0
C238 C 0.34014 0.7556 0.0483 0.0
C239 C 0.36997 0.7874 0.05775 0.0
C240 C 0.41828 0.84506 0.04487 0.0
C241 C 0.42548 0.89358 0.04375 0.0
C242 C 0.46752 0.91171 0.03813 0.0
C243 C 0.50276 0.88022 0.03312 0.0
C244 C 0.49484 0.83093 0.03363 0.0
C245 C 0.45258 0.81378 0.0395 0.0
C246 C 0.47474 0.96453 0.03797 0.0
C247 C 0.53129 0.7964 0.02817 0.0
C248 C 0.46666 0.98227 0.94508 0.0
C249 C 0.4574 0.0113 0.95675 0.0
C250 C 0.49203 0.01889 0.967 0.0
C251 C 0.53604 0.99537 0.96573 0.0
C252 C 0.54577 0.9672 0.95368 0.0
C253 C 0.51107 0.96173 0.94336 0.0
C254 C 0.48117 0.05121 0.97928 0.0
C255 C 0.5923 0.94186 0.95188 0.0
C256 C 0.85356 0.20677 0.99084 0.0
C257 C 0.83649 0.16156 0.98365 0.0
C258 C 0.75564 0.13403 0.98085 0.0
C259 C 0.71012 0.14807 0.98466 0.0
C260 C 0.67391 0.11484 0.98636 0.0
C261 C 0.68326 0.0665 0.98362 0.0
C262 C 0.7288 0.05241 0.979 0.0
C263 C 0.76483 0.08628 0.9779 0.0
C264 C 0.62583 0.13144 0.99124 0.0
C265 C 0.73947 0.00166 0.97526 0.0
C266 C 0.6288 0.92087 0.03505 0.0
C267 C 0.58622 0.89791 0.0379 0.0
C268 C 0.54901 0.89917 0.02839 0.0
C269 C 0.55513 0.92195 0.01532 0.0
C270 C 0.52045 0.91956 0.00488 0.0
C271 C 0.5263 0.94324 0.9922 0.0
C272 C 0.56606 0.97192 0.98976 0.0
C273 C 0.5711 0.9983 0.97724 0.0
C274 C 0.6102 0.02779 0.97543 0.0
C275 C 0.64519 0.03109 0.98568 0.0
C276 C 0.64191 0.00323 0.99797 0.0
C277 C 0.67737 0.00394 0.00826 0.0
C278 C 0.67391 0.97591 0.02022 0.0
C279 C 0.63367 0.94817 0.02273 0.0
C280 C 0.59694 0.94796 0.0127 0.0
C281 C 0.60175 0.97424 0.0001 0.0
C282 C 0.38462 0.90708 0.93057 0.0
C283 C 0.38945 0.95373 0.9386 0.0
O284 O 0.76015 0.88005 0.07742 0.0
O285 O 0.78968 0.16753 0.98 0.0
O286 O 0.43301 0.97335 0.93541 0.0
O287 O 0.3778 0.83022 0.05116 0.0
H288 H 0.75167 0.80776 0.07648 0.0
H289 H 0.68438 0.83763 0.08966 0.0
H290 H 0.72132 0.86754 0.10219 0.0
H291 H 0.72024 0.80388 0.10147 0.0
H292 H 0.75055 0.83143 0.05368 0.0
H293 H 0.70915 0.95574 0.07651 0.0
H294 H 0.65765 0.8225 0.03172 0.0
H295 H 0.72051 0.81265 0.03133 0.0
H296 H 0.69483 0.86042 0.02146 0.0
H297 H 0.65217 0.0091 0.06795 0.0
H298 H 0.6049 0.97721 0.05954 0.0
H299 H 0.64573 0.01033 0.04906 0.0
H300 H 0.40401 0.76927 0.05988 0.0
H301 H 0.33298 0.72142 0.05358 0.0
H302 H 0.35931 0.74833 0.03828 0.0
H303 H 0.306 0.77289 0.04585 0.0
H304 H 0.39846 0.91734 0.04775 0.0
H305 H 0.44658 0.77608 0.03981 0.0
H306 H 0.47613 0.977 0.02692 0.0
H307 H 0.50883 0.9738 0.04295 0.0
H308 H 0.44595 0.98377 0.04356 0.0
H309 H 0.51713 0.75992 0.02739 0.0
H310 H 0.56186 0.7961 0.0354 0.0
H311 H 0.54439 0.80744 0.01765 0.0
H312 H 0.38694 0.94553 0.95005 0.0
H313 H 0.4231 0.02794 0.9578 0.0
H314 H 0.5178 0.93984 0.93417 0.0
H315 H 0.47359 0.02976 0.98876 0.0
H316 H 0.45001 0.0739 0.97726 0.0
H317 H 0.51192 0.07413 0.98164 0.0
H318 H 0.5929 0.91847 0.94246 0.0
H319 H 0.59971 0.9203 0.96133 0.0
H320 H 0.62114 0.96813 0.95082 0.0
H321 H 0.83962 0.13252 0.99146 0.0
H322 H 0.8906 0.20272 0.99437 0.0
H323 H 0.83114 0.2145 0.00021 0.0
H324 H 0.8515 0.23711 0.9835 0.0
H325 H 0.70341 0.18516 0.98672 0.0
H326 H 0.79987 0.07556 0.97457 0.0
H327 H 0.61351 0.11007 0.00031 0.0
H328 H 0.6001 0.12653 0.98261 0.0
H329 H 0.6258 0.16928 0.99438 0.0
H330 H 0.77402 0.99781 0.96976 0.0
H331 H 0.71139 0.98697 0.96843 0.0
H332 H 0.74033 0.98026 0.98499 0.0
H333 H 0.58182 0.87915 0.04776 0.0
H334 H 0.48867 0.89891 0.00636 0.0
H335 H 0.4987 0.93952 0.98448 0.0
H336 H 0.61319 0.04886 0.96596 0.0
H337 H 0.7085 0.02572 0.00711 0.0
H338 H 0.70256 0.9772 0.02768 0.0
H339 H 0.38661 0.91306 0.91903 0.0
H340 H 0.35046 0.88985 0.93318 0.0
H341 H 0.41359 0.88278 0.93356 0.0
C342 C 0.19195 0.03665 0.24295 0.0
C343 C 0.19886 0.05354 0.2278 0.0
C344 C 0.25711 0.11838 0.22869 0.0
C345 C 0.30366 0.13019 0.22537 0.0
C346 C 0.32161 0.17525 0.22828 0.0
C347 C 0.29204 0.20964 0.23466 0.0
C348 C 0.24432 0.19859 0.23765 0.0
C349 C 0.22733 0.15293 0.23473 0.0
C350 C 0.37272 0.18563 0.22493 0.0
C351 C 0.21189 0.23451 0.24441 0.0
C352 C 0.38985 0.56654 0.19589 0.0
C353 C 0.34591 0.53827 0.20004 0.0
C354 C 0.34923 0.45325 0.20569 0.0
C355 C 0.3173 0.45311 0.21708 0.0
C356 C 0.31356 0.41357 0.22591 0.0
C357 C 0.34228 0.37342 0.2233 0.0
C358 C 0.37316 0.37293 0.21153 0.0
C359 C 0.37584 0.41272 0.20282 0.0
C360 C 0.27934 0.41492 0.23815 0.0
C361 C 0.40408 0.33079 0.20834 0.0
C362 C 0.5315 0.4607 0.29276 0.0
C363 C 0.4822 0.46491 0.29401 0.0
C364 C 0.45274 0.4257 0.29218 0.0
C365 C 0.47278 0.38157 0.28847 0.0
C366 C 0.52244 0.37672 0.28766 0.0
C367 C 0.55116 0.41631 0.29005 0.0
C368 C 0.40006 0.43186 0.29392 0.0
C369 C 0.54511 0.33004 0.28395 0.0
C370 C 0.27686 0.10415 0.33852 0.0
C371 C 0.3292 0.10232 0.33448 0.0
C372 C 0.36293 0.1758 0.32609 0.0
C373 C 0.34528 0.22171 0.32577 0.0
C374 C 0.35787 0.25257 0.31489 0.0
C375 C 0.39041 0.23746 0.30438 0.0
C376 C 0.41039 0.19169 0.30513 0.0
C377 C 0.3958 0.16099 0.31589 0.0
C378 C 0.33592 0.30111 0.31454 0.0
C379 C 0.44678 0.17511 0.29453 0.0
C380 C 0.31294 0.25497 0.2395 0.0
C381 C 0.3157 0.29281 0.2301 0.0
C382 C 0.34194 0.33329 0.23337 0.0
C383 C 0.36778 0.33511 0.24605 0.0
C384 C 0.39872 0.3726 0.249 0.0
C385 C 0.42397 0.37399 0.26148 0.0
C386 C 0.41788 0.33895 0.27178 0.0
C387 C 0.44156 0.34131 0.28482 0.0
C388 C 0.43335 0.30674 0.29499 0.0
C389 C 0.40219 0.26939 0.2925 0.0
C390 C 0.37971 0.26543 0.2793 0.0
C391 C 0.34958 0.22742 0.27618 0.0
C392 C 0.3284 0.22345 0.26308 0.0
C393 C 0.33438 0.25866 0.25284 0.0
C394 C 0.36294 0.29825 0.25597 0.0
C395 C 0.38704 0.30076 0.269 0.0
C396 C 0.58361 0.56195 0.2795 0.0
C397 C 0.55131 0.54507 0.29147 0.0
O398 O 0.24327 0.07319 0.22608 0.0
O399 O 0.34851 0.14675 0.33655 0.0
O400 O 0.5612 0.4981 0.29425 0.0
O401 O 0.35493 0.491 0.19706 0.0
H402 H 0.17129 0.08026 0.22546 0.0
H403 H 0.19446 0.06694 0.25037 0.0
H404 H 0.2193 0.0103 0.24575 0.0
H405 H 0.15651 0.02045 0.24424 0.0
H406 H 0.32631 0.10343 0.22069 0.0
H407 H 0.19124 0.1445 0.23749 0.0
H408 H 0.37535 0.21762 0.21829 0.0
H409 H 0.39041 0.15584 0.21936 0.0
H410 H 0.39198 0.19297 0.23483 0.0
H411 H 0.17472 0.22211 0.24487 0.0
H412 H 0.21338 0.26814 0.23848 0.0
H413 H 0.22386 0.24205 0.25528 0.0
H414 H 0.34021 0.54401 0.21152 0.0
H415 H 0.38575 0.60435 0.19881 0.0
H416 H 0.39655 0.56369 0.18438 0.0
H417 H 0.42107 0.55257 0.2015 0.0
H418 H 0.295 0.48349 0.21905 0.0
H419 H 0.39974 0.41283 0.19385 0.0
H420 H 0.2574 0.38245 0.23823 0.0
H421 H 0.25574 0.4462 0.23783 0.0
H422 H 0.29929 0.41597 0.24815 0.0
H423 H 0.42829 0.33706 0.19929 0.0
H424 H 0.38159 0.29981 0.20588 0.0
H425 H 0.42539 0.32181 0.2177 0.0
H426 H 0.51504 0.54961 0.28734 0.0
H427 H 0.46608 0.49846 0.29646 0.0
H428 H 0.58921 0.41307 0.28934 0.0
H429 H 0.38345 0.43313 0.2834 0.0
H430 H 0.39103 0.46503 0.29964 0.0
H431 H 0.38448 0.40166 0.29972 0.0
H432 H 0.58414 0.33268 0.28307 0.0
H433 H 0.53099 0.31672 0.27381 0.0
H434 H 0.53622 0.30368 0.29215 0.0
H435 H 0.33166 0.09181 0.32317 0.0
H436 H 0.25978 0.06947 0.33654 0.0
H437 H 0.25867 0.1311 0.33207 0.0
H438 H 0.27245 0.11368 0.34981 0.0
H439 H 0.32044 0.23283 0.33387 0.0
H440 H 0.41034 0.12568 0.31647 0.0
H441 H 0.32085 0.30802 0.304 0.0
H442 H 0.36351 0.3281 0.31651 0.0
H443 H 0.3076 0.30551 0.3226 0.0
H444 H 0.46406 0.14177 0.29781 0.0
H445 H 0.47426 0.20258 0.293 0.0
H446 H 0.42963 0.16897 0.28423 0.0
H447 H 0.29809 0.29032 0.22003 0.0
H448 H 0.40432 0.40098 0.24159 0.0
H449 H 0.44782 0.40336 0.26303 0.0
H450 H 0.45028 0.30976 0.30516 0.0
H451 H 0.3426 0.19983 0.28374 0.0
H452 H 0.30644 0.19284 0.26121 0.0
H453 H 0.57828 0.60023 0.27757 0.0
H454 H 0.57501 0.54243 0.26968 0.0
H455 H 0.62127 0.5552 0.28188 0.0
C456 C 0.68971 0.46477 0.29182 0.0
C457 C 0.68918 0.44665 0.30698 0.0
C458 C 0.74997 0.384 0.30735 0.0
C459 C 0.79592 0.37371 0.31155 0.0
C460 C 0.81714 0.33018 0.30829 0.0
C461 C 0.79152 0.29572 0.30071 0.0
C462 C 0.74427 0.30502 0.29688 0.0
C463 C 0.72408 0.34921 0.3001 0.0
C464 C 0.86754 0.32155 0.31258 0.0
C465 C 0.71572 0.26884 0.28894 0.0
C466 C 0.89541 0.95482 0.3364 0.0
C467 C 0.84572 0.97555 0.33821 0.0
C468 C 0.83226 0.03728 0.32048 0.0
C469 C 0.80336 0.04859 0.30918 0.0
C470 C 0.80465 0.09345 0.30307 0.0
C471 C 0.8365 0.12777 0.30824 0.0
C472 C 0.86521 0.11706 0.3199 0.0
C473 C 0.86284 0.07184 0.32593 0.0
C474 C 0.77305 0.10356 0.29073 0.0
C475 C 0.89977 0.15274 0.32556 0.0
C476 C 0.02798 0.04733 0.23979 0.0
C477 C 0.97928 0.04633 0.23723 0.0
C478 C 0.95135 0.08664 0.23934 0.0
C479 C 0.97262 0.12898 0.24406 0.0
C480 C 0.02217 0.13099 0.24573 0.0
C481 C 0.04932 0.09008 0.24344 0.0
C482 C 0.89884 0.08341 0.23702 0.0
C483 C 0.04612 0.17579 0.25047 0.0
C484 C 0.74913 0.41494 0.20204 0.0
C485 C 0.79881 0.40847 0.20786 0.0
C486 C 0.84115 0.33522 0.2116 0.0
C487 C 0.82918 0.28755 0.21161 0.0
C488 C 0.85057 0.25622 0.22095 0.0
C489 C 0.88635 0.27289 0.23005 0.0
C490 C 0.90194 0.32025 0.22901 0.0
C491 C 0.87831 0.35133 0.22002 0.0
C492 C 0.83372 0.20569 0.22134 0.0
C493 C 0.94193 0.33859 0.23787 0.0
C494 C 0.816 0.2523 0.2956 0.0
C495 C 0.8174 0.21252 0.30429 0.0
C496 C 0.84319 0.17232 0.30029 0.0
C497 C 0.87064 0.17286 0.28779 0.0
C498 C 0.90075 0.13512 0.28419 0.0
C499 C 0.9258 0.13489 0.27154 0.0
C500 C 0.92016 0.17139 0.26172 0.0
C501 C 0.94253 0.16966 0.24835 0.0
C502 C 0.93335 0.20487 0.23847 0.0
C503 C 0.90269 0.24227 0.24167 0.0
C504 C 0.88254 0.24615 0.25532 0.0
C505 C 0.85335 0.28444 0.25915 0.0
C506 C 0.8332 0.28752 0.27251 0.0
C507 C 0.8387 0.25088 0.28227 0.0
C508 C 0.86696 0.21148 0.27851 0.0
C509 C 0.89046 0.21001 0.26524 0.0
C510 C 0.07204 0.94359 0.25425 0.0
C511 C 0.04063 0.96255 0.24251 0.0
O512 O 0.73281 0.42792 0.31037 0.0
O513 O 0.81576 0.36487 0.2035 0.0
O514 O 0.05512 0.0078 0.23902 0.0
O515 O 0.83043 0.99228 0.32535 0.0
H516 H 0.66155 0.41894 0.30781 0.0
H517 H 0.69587 0.43505 0.28437 0.0
H518 H 0.71808 0.49125 0.29021 0.0
H519 H 0.6552 0.48095 0.28929 0.0
H520 H 0.81561 0.40052 0.31718 0.0
H521 H 0.68849 0.35623 0.29669 0.0
H522 H 0.86975 0.2886 0.31882 0.0
H523 H 0.88208 0.35115 0.31892 0.0
H524 H 0.88994 0.31668 0.30304 0.0
H525 H 0.67804 0.27917 0.28809 0.0
H526 H 0.71789 0.23407 0.29423 0.0
H527 H 0.73055 0.26446 0.27816 0.0
H528 H 0.84756 0.00473 0.34608 0.0
H529 H 0.91982 0.98219 0.33228 0.0
H530 H 0.8952 0.92484 0.32881 0.0
H531 H 0.90919 0.94287 0.34669 0.0
H532 H 0.77992 0.02175 0.30505 0.0
H533 H 0.88599 0.06341 0.33455 0.0
H534 H 0.75508 0.13811 0.2922 0.0
H535 H 0.74589 0.07575 0.28925 0.0
H536 H 0.79475 0.10564 0.28097 0.0
H537 H 0.91817 0.13989 0.33508 0.0
H538 H 0.88108 0.18612 0.32821 0.0
H539 H 0.92652 0.16093 0.31733 0.0
H540 H 0.00441 0.96278 0.24715 0.0
H541 H 0.96275 0.01405 0.23374 0.0
H542 H 0.08712 0.09083 0.24507 0.0
H543 H 0.88006 0.08599 0.24729 0.0
H544 H 0.88857 0.04974 0.23183 0.0
H545 H 0.88684 0.11322 0.23044 0.0
H546 H 0.08512 0.17202 0.25084 0.0
H547 H 0.03295 0.18582 0.26112 0.0
H548 H 0.0372 0.20501 0.24323 0.0
H549 H 0.79583 0.40953 0.21958 0.0
H550 H 0.73371 0.44891 0.20575 0.0
H551 H 0.72598 0.38584 0.20575 0.0
H552 H 0.7499 0.41447 0.19034 0.0
H553 H 0.80113 0.2755 0.20479 0.0
H554 H 0.88861 0.38811 0.21963 0.0
H555 H 0.82538 0.195 0.23231 0.0
H556 H 0.86225 0.18233 0.21731 0.0
H557 H 0.80194 0.19996 0.21479 0.0
H558 H 0.95703 0.37163 0.23349 0.0
H559 H 0.97038 0.31178 0.23865 0.0
H560 H 0.92875 0.34628 0.24867 0.0
H561 H 0.79756 0.21251 0.3141 0.0
H562 H 0.90553 0.10544 0.29116 0.0
H563 H 0.94865 0.10501 0.26942 0.0
H564 H 0.9485 0.20197 0.22798 0.0
H565 H 0.84589 0.3128 0.25195 0.0
H566 H 0.81184 0.31827 0.27488 0.0
H567 H 0.11002 0.94686 0.2515 0.0
H568 H 0.06361 0.90601 0.25642 0.0
H569 H 0.06567 0.96432 0.26405 0.0
C570 C 0.62822 0.55753 0.73358 0.0
C571 C 0.63915 0.5788 0.71913 0.0
C572 C 0.70438 0.63541 0.72281 0.0
C573 C 0.75211 0.64364 0.71999 0.0
C574 C 0.77425 0.68549 0.72435 0.0
C575 C 0.74791 0.72004 0.73183 0.0
C576 C 0.69942 0.71231 0.73462 0.0
C577 C 0.67809 0.67008 0.73011 0.0
C578 C 0.826 0.69252 0.72115 0.0
C579 C 0.6704 0.7484 0.7426 0.0
C580 C 0.86281 0.0643 0.70277 0.0
C581 C 0.82816 0.03588 0.69379 0.0
C582 C 0.79521 0.97306 0.70896 0.0
C583 C 0.75609 0.96032 0.71714 0.0
C584 C 0.75526 0.91797 0.72474 0.0
C585 C 0.79441 0.88702 0.72395 0.0
C586 C 0.8335 0.89875 0.71529 0.0
C587 C 0.83396 0.94198 0.7081 0.0
C588 C 0.71301 0.90684 0.7339 0.0
C589 C 0.87549 0.86619 0.71392 0.0
C590 C 0.97555 0.96924 0.79436 0.0
C591 C 0.92885 0.96433 0.79919 0.0
C592 C 0.90336 0.92288 0.79651 0.0
C593 C 0.92523 0.88549 0.789 0.0
C594 C 0.97337 0.88899 0.78506 0.0
C595 C 0.99803 0.93088 0.78789 0.0
C596 C 0.8526 0.91959 0.80133 0.0
C597 C 0.99817 0.84918 0.77741 0.0
C598 C 0.77764 0.60178 0.83905 0.0
C599 C 0.82263 0.58719 0.83111 0.0
C600 C 0.85628 0.65693 0.82059 0.0
C601 C 0.82612 0.69591 0.82114 0.0
C602 C 0.82856 0.73096 0.81081 0.0
C603 C 0.86278 0.72726 0.79992 0.0
C604 C 0.89381 0.6881 0.79947 0.0
C605 C 0.8901 0.65321 0.80987 0.0
C606 C 0.79516 0.77239 0.81169 0.0
C607 C 0.93114 0.68353 0.78815 0.0
C608 C 0.77181 0.76317 0.73724 0.0
C609 C 0.77227 0.80366 0.72885 0.0
C610 C 0.7961 0.84456 0.7331 0.0
C611 C 0.82098 0.8449 0.74596 0.0
C612 C 0.84624 0.88496 0.75042 0.0
C613 C 0.8716 0.88463 0.76287 0.0
C614 C 0.87158 0.84475 0.7716 0.0
C615 C 0.89683 0.84434 0.78437 0.0
C616 C 0.89426 0.80505 0.79313 0.0
C617 C 0.8673 0.76563 0.78945 0.0
C618 C 0.84333 0.76456 0.77644 0.0
C619 C 0.81716 0.7249 0.77219 0.0
C620 C 0.79398 0.7242 0.75933 0.0
C621 C 0.79521 0.76354 0.75035 0.0
C622 C 0.82048 0.80428 0.75459 0.0
C623 C 0.84526 0.80446 0.76753 0.0
C624 C 0.00233 0.0816 0.78236 0.0
C625 C 0.98004 0.05528 0.7948 0.0
O626 O 0.68579 0.59351 0.71843 0.0
O627 O 0.85465 0.6241 0.83085 0.0
O628 O 0.99959 0.0105 0.79558 0.0
O629 O 0.79381 0.01552 0.70228 0.0
H630 H 0.61526 0.60939 0.71745 0.0
H631 H 0.63296 0.58447 0.74197 0.0
H632 H 0.65208 0.52738 0.73577 0.0
H633 H 0.59106 0.54508 0.73402 0.0
H634 H 0.77218 0.61682 0.71438 0.0
H635 H 0.64119 0.66437 0.7325 0.0
H636 H 0.83133 0.72646 0.71557 0.0
H637 H 0.84093 0.66347 0.71459 0.0
H638 H 0.84592 0.69451 0.73115 0.0
H639 H 0.63296 0.73747 0.74384 0.0
H640 H 0.67161 0.78269 0.73701 0.0
H641 H 0.68565 0.75412 0.7532 0.0
H642 H 0.84877 0.00825 0.68812 0.0
H643 H 0.88859 0.08303 0.69592 0.0
H644 H 0.88264 0.04012 0.70972 0.0
H645 H 0.844 0.09044 0.70952 0.0
H646 H 0.72632 0.9843 0.71775 0.0
H647 H 0.86502 0.95103 0.70204 0.0
H648 H 0.69636 0.8736 0.7302 0.0
H649 H 0.68614 0.9354 0.73378 0.0
H650 H 0.72439 0.90127 0.74492 0.0
H651 H 0.89887 0.87599 0.70496 0.0
H652 H 0.86373 0.82911 0.71246 0.0
H653 H 0.89644 0.86786 0.72372 0.0
H654 H 0.94173 0.05368 0.79235 0.0
H655 H 0.912 0.99292 0.8049 0.0
H656 H 0.03445 0.93455 0.78453 0.0
H657 H 0.82929 0.91684 0.79203 0.0
H658 H 0.8415 0.95068 0.80772 0.0
H659 H 0.84743 0.88721 0.80767 0.0
H660 H 0.03634 0.85641 0.77576 0.0
H661 H 0.98148 0.84349 0.76701 0.0
H662 H 0.9943 0.81597 0.78346 0.0
H663 H 0.81298 0.5773 0.82012 0.0
H664 H 0.75365 0.57103 0.84029 0.0
H665 H 0.75834 0.62905 0.83306 0.0
H666 H 0.78632 0.61608 0.84963 0.0
H667 H 0.80115 0.69925 0.82977 0.0
H668 H 0.91372 0.62313 0.80973 0.0
H669 H 0.77731 0.77737 0.80145 0.0
H670 H 0.81544 0.80501 0.81398 0.0
H671 H 0.76789 0.76786 0.82004 0.0
H672 H 0.95296 0.65125 0.78938 0.0
H673 H 0.95461 0.7149 0.78839 0.0
H674 H 0.91422 0.68246 0.77766 0.0
H675 H 0.75401 0.80327 0.71886 0.0
H676 H 0.84716 0.917 0.74428 0.0
H677 H 0.89089 0.9163 0.76561 0.0
H678 H 0.91273 0.80554 0.80309 0.0
H679 H 0.8147 0.69375 0.7787 0.0
H680 H 0.77475 0.69251 0.75656 0.0
H681 H 0.99038 0.11896 0.78227 0.0
H682 H 0.99135 0.0646 0.77235 0.0
H683 H 0.04146 0.08046 0.78275 0.0
C684 C 0.73931 0.68568 0.06151 0.0
C685 C 0.71825 0.67027 0.07572 0.0
C686 C 0.6629 0.60585 0.07007 0.0
C687 C 0.65353 0.55789 0.07205 0.0
C688 C 0.61274 0.53678 0.06658 0.0
C689 C 0.58123 0.56418 0.05854 0.0
C690 C 0.58978 0.61303 0.05679 0.0
C691 C 0.63018 0.63348 0.0627 0.0
C692 C 0.60394 0.48498 0.06909 0.0
C693 C 0.55669 0.64352 0.0484 0.0
C694 C 0.1934 0.50329 0.05703 0.0
C695 C 0.22898 0.53989 0.06233 0.0
C696 C 0.31355 0.52344 0.06531 0.0
C697 C 0.33129 0.56531 0.05938 0.0
C698 C 0.37888 0.56884 0.05526 0.0
C699 C 0.40928 0.52988 0.05718 0.0
C700 C 0.39237 0.48914 0.06414 0.0
C701 C 0.34471 0.48661 0.06817 0.0
C702 C 0.39618 0.61326 0.04823 0.0
C703 C 0.42406 0.44725 0.06662 0.0
C704 C 0.3518 0.43788 0.97072 0.0
C705 C 0.37696 0.48066 0.97108 0.0
C706 C 0.41938 0.48443 0.97851 0.0
C707 C 0.43678 0.44493 0.98589 0.0
C708 C 0.41218 0.40158 0.98531 0.0
C709 C 0.36998 0.39867 0.97771 0.0
C710 C 0.44487 0.53122 0.97886 0.0
C711 C 0.42962 0.3589 0.99313 0.0
C712 C 0.7886 0.33509 0.99658 0.0
C713 C 0.76142 0.33445 0.98267 0.0
C714 C 0.69776 0.3936 0.98489 0.0
C715 C 0.68152 0.4369 0.97986 0.0
C716 C 0.63753 0.45524 0.98409 0.0
C717 C 0.60914 0.42954 0.99364 0.0
C718 C 0.62528 0.38567 0.9988 0.0
C719 C 0.66945 0.36826 0.99445 0.0
C720 C 0.62153 0.50224 0.97848 0.0
C721 C 0.59586 0.35724 0.00901 0.0
C722 C 0.54099 0.54158 0.05118 0.0
C723 C 0.49584 0.54518 0.05722 0.0
C724 C 0.45615 0.52855 0.05008 0.0
C725 C 0.46123 0.50937 0.03638 0.0
C726 C 0.4217 0.49591 0.02844 0.0
C727 C 0.42697 0.47742 0.01495 0.0
C728 C 0.47203 0.46994 0.00906 0.0
C729 C 0.47776 0.45081 0.99538 0.0
C730 C 0.52291 0.43909 0.99042 0.0
C731 C 0.56289 0.44846 0.99853 0.0
C732 C 0.55799 0.47261 0.01154 0.0
C733 C 0.59751 0.48752 0.01922 0.0
C734 C 0.59209 0.5113 0.03201 0.0
C735 C 0.54703 0.51879 0.03797 0.0
C736 C 0.50687 0.50337 0.03047 0.0
C737 C 0.51231 0.482 0.01701 0.0
C738 C 0.25645 0.49872 0.96453 0.0
C739 C 0.28714 0.46529 0.95556 0.0
O740 O 0.70408 0.62346 0.07521 0.0
O741 O 0.74084 0.37812 0.98036 0.0
O742 O 0.30973 0.43288 0.96406 0.0
O743 O 0.26698 0.5168 0.06829 0.0
H744 H 0.68737 0.69333 0.07811 0.0
H745 H 0.71191 0.68587 0.05326 0.0
H746 H 0.76779 0.66133 0.05798 0.0
H747 H 0.75381 0.72202 0.06236 0.0
H748 H 0.67859 0.53687 0.07787 0.0
H749 H 0.63618 0.67079 0.06124 0.0
H750 H 0.56675 0.47917 0.07243 0.0
H751 H 0.62769 0.47042 0.07723 0.0
H752 H 0.60981 0.46502 0.05915 0.0
H753 H 0.56937 0.68048 0.04746 0.0
H754 H 0.52135 0.64394 0.05352 0.0
H755 H 0.55243 0.62851 0.03766 0.0
H756 H 0.24002 0.55955 0.05274 0.0
H757 H 0.16079 0.52098 0.05335 0.0
H758 H 0.18416 0.47747 0.06535 0.0
H759 H 0.20903 0.48333 0.04804 0.0
H760 H 0.30824 0.59507 0.05772 0.0
H761 H 0.33105 0.45486 0.07304 0.0
H762 H 0.42814 0.62654 0.05364 0.0
H763 H 0.36902 0.64153 0.04827 0.0
H764 H 0.40627 0.60527 0.03715 0.0
H765 H 0.40724 0.42064 0.07358 0.0
H766 H 0.45771 0.45898 0.07141 0.0
H767 H 0.43276 0.43012 0.05638 0.0
H768 H 0.31336 0.48741 0.94984 0.0
H769 H 0.36349 0.51163 0.96589 0.0
H770 H 0.35046 0.3658 0.97739 0.0
H771 H 0.44197 0.54675 0.98958 0.0
H772 H 0.43013 0.55678 0.97124 0.0
H773 H 0.48295 0.52606 0.97647 0.0
H774 H 0.40714 0.32736 0.99132 0.0
H775 H 0.43025 0.36674 0.00459 0.0
H776 H 0.46632 0.35054 0.98977 0.0
H777 H 0.73394 0.30655 0.98353 0.0
H778 H 0.80986 0.30244 0.99766 0.0
H779 H 0.76352 0.33696 0.00559 0.0
H780 H 0.81211 0.36634 0.99725 0.0
H781 H 0.70357 0.45639 0.97255 0.0
H782 H 0.68149 0.3351 0.99868 0.0
H783 H 0.61414 0.52684 0.98737 0.0
H784 H 0.58817 0.49759 0.97259 0.0
H785 H 0.64824 0.51851 0.97139 0.0
H786 H 0.61183 0.32232 0.01129 0.0
H787 H 0.55998 0.35158 0.0047 0.0
H788 H 0.59188 0.37711 0.01905 0.0
H789 H 0.49153 0.56131 0.06753 0.0
H790 H 0.3861 0.50014 0.03246 0.0
H791 H 0.39521 0.46825 0.00931 0.0
H792 H 0.52694 0.42233 0.98018 0.0
H793 H 0.63302 0.48182 0.01528 0.0
H794 H 0.62378 0.52284 0.03728 0.0
H795 H 0.2339 0.47873 0.97201 0.0
H796 H 0.23388 0.52083 0.95769 0.0
H797 H 0.27921 0.52262 0.9708 0.0
C798 C 0.91091 0.77856 0.47298 0.0
C799 C 0.9224 0.72913 0.46745 0.0
C800 C 0.9616 0.6755 0.48338 0.0
C801 C 0.96013 0.62673 0.48512 0.0
C802 C 0.99983 0.60198 0.48973 0.0
C803 C 0.04116 0.62728 0.49337 0.0
C804 C 0.04204 0.67706 0.49217 0.0
C805 C 0.00233 0.70066 0.48698 0.0
C806 C 0.99766 0.54878 0.49049 0.0
C807 C 0.08436 0.70537 0.4967 0.0
C808 C 0.31031 0.48961 0.43406 0.0
C809 C 0.30363 0.54307 0.43576 0.0
C810 C 0.26796 0.55742 0.45915 0.0
C811 C 0.27512 0.58124 0.47184 0.0
C812 C 0.23937 0.58426 0.48208 0.0
C813 C 0.19581 0.56124 0.47972 0.0
C814 C 0.18835 0.53669 0.46691 0.0
C815 C 0.22429 0.53561 0.45665 0.0
C816 C 0.24818 0.61254 0.49532 0.0
C817 C 0.14252 0.5114 0.46404 0.0
C818 C 0.27475 0.36478 0.54868 0.0
C819 C 0.28371 0.41324 0.55021 0.0
C820 C 0.24729 0.44641 0.54875 0.0
C821 C 0.20132 0.43076 0.5453 0.0
C822 C 0.19198 0.38178 0.54422 0.0
C823 C 0.2288 0.34938 0.54617 0.0
C824 C 0.25821 0.49819 0.55063 0.0
C825 C 0.14347 0.36369 0.54061 0.0
C826 C 0.90056 0.62407 0.59368 0.0
C827 C 0.91016 0.57714 0.58617 0.0
C828 C 0.98782 0.54441 0.58102 0.0
C829 C 0.03453 0.55847 0.5829 0.0
C830 C 0.06976 0.54558 0.57315 0.0
C831 C 0.05799 0.51638 0.56156 0.0
C832 C 0.01136 0.49888 0.56028 0.0
C833 C 0.97651 0.51383 0.56991 0.0
C834 C 0.11906 0.56467 0.57496 0.0
C835 C 0.99791 0.46565 0.54852 0.0
C836 C 0.0838 0.60108 0.49778 0.0
C837 C 0.1197 0.59433 0.48782 0.0
C838 C 0.15765 0.56432 0.49048 0.0
C839 C 0.1591 0.53887 0.50323 0.0
C840 C 0.19428 0.50505 0.50574 0.0
C841 C 0.19552 0.48056 0.51839 0.0
C842 C 0.16208 0.4895 0.52912 0.0
C843 C 0.16367 0.46561 0.54215 0.0
C844 C 0.12922 0.47476 0.55245 0.0
C845 C 0.09327 0.50763 0.55017 0.0
C846 C 0.09153 0.53229 0.53728 0.0
C847 C 0.05638 0.56624 0.5347 0.0
C848 C 0.0538 0.58889 0.52179 0.0
C849 C 0.08697 0.57939 0.51108 0.0
C850 C 0.12411 0.54722 0.51369 0.0
C851 C 0.12593 0.523 0.52671 0.0
C852 C 0.3728 0.2926 0.53794 0.0
C853 C 0.3558 0.3382 0.54502 0.0
O854 O 0.92278 0.69754 0.4785 0.0
O855 O 0.95442 0.56117 0.59004 0.0
O856 O 0.30955 0.33202 0.5495 0.0
O857 O 0.3045 0.55576 0.44985 0.0
H858 H 0.95769 0.73026 0.46217 0.0
H859 H 0.9386 0.79017 0.48041 0.0
H860 H 0.87632 0.77874 0.47858 0.0
H861 H 0.90976 0.80418 0.46418 0.0
H862 H 0.92815 0.60792 0.4824 0.0
H863 H 0.00276 0.7387 0.48595 0.0
H864 H 0.02937 0.53283 0.48543 0.0
H865 H 0.96572 0.53436 0.48531 0.0
H866 H 0.99702 0.53773 0.50167 0.0
H867 H 0.0794 0.74373 0.49495 0.0
H868 H 0.1162 0.69359 0.49083 0.0
H869 H 0.09099 0.6993 0.50804 0.0
H870 H 0.26934 0.55353 0.43106 0.0
H871 H 0.3106 0.47978 0.42272 0.0
H872 H 0.28108 0.47024 0.43927 0.0
H873 H 0.34398 0.47804 0.43885 0.0
H874 H 0.30885 0.59817 0.47362 0.0
H875 H 0.21813 0.51715 0.44685 0.0
H876 H 0.21757 0.63572 0.49779 0.0
H877 H 0.28031 0.6348 0.49441 0.0
H878 H 0.25287 0.58817 0.5043 0.0
H879 H 0.14521 0.48752 0.45476 0.0
H880 H 0.11446 0.53778 0.46202 0.0
H881 H 0.13148 0.4904 0.47334 0.0
H882 H 0.35752 0.36638 0.53689 0.0
H883 H 0.31906 0.42518 0.55258 0.0
H884 H 0.22223 0.31181 0.54521 0.0
H885 H 0.25902 0.51553 0.5402 0.0
H886 H 0.29289 0.50391 0.55573 0.0
H887 H 0.23036 0.51569 0.55709 0.0
H888 H 0.14286 0.32475 0.53916 0.0
H889 H 0.13091 0.38056 0.53081 0.0
H890 H 0.11829 0.37326 0.54918 0.0
H891 H 0.9095 0.58423 0.57463 0.0
H892 H 0.86596 0.63876 0.59046 0.0
H893 H 0.92846 0.64997 0.59087 0.0
H894 H 0.90046 0.61926 0.60529 0.0
H895 H 0.04287 0.58147 0.59169 0.0
H896 H 0.94048 0.50176 0.56875 0.0
H897 H 0.13054 0.58327 0.56526 0.0
H898 H 0.14392 0.535 0.57665 0.0
H899 H 0.12162 0.58948 0.58402 0.0
H900 H 0.96408 0.44729 0.55077 0.0
H901 H 0.02592 0.43881 0.5467 0.0
H902 H 0.99377 0.48594 0.53865 0.0
H903 H 0.11774 0.61221 0.47777 0.0
H904 H 0.22101 0.49685 0.4979 0.0
H905 H 0.22322 0.45466 0.51965 0.0
H906 H 0.13053 0.4562 0.5624 0.0
H907 H 0.03008 0.57543 0.54257 0.0
H908 H 0.02567 0.61422 0.52032 0.0
H909 H 0.3731 0.26316 0.5456 0.0
H910 H 0.40899 0.29724 0.53358 0.0
H911 H 0.34892 0.28305 0.52916 0.0
C912 C 0.12757 0.67132 0.16426 0.0
C913 C 0.95549 0.6021 0.16834 0.0
C914 C 0.93227 0.6801 0.13052 0.0
Mg915 Mg 0.16499 0.76662 0.14894 0.0
Mg916 Mg 0.09921 0.85341 0.13607 0.0
O917 O 0.10581 0.7895 0.14007 0.0
Mg918 Mg 0.05981 0.74581 0.14895 0.0
O919 O 0.01793 0.69734 0.15757 0.0
Mg920 Mg 0.03567 0.64332 0.14492 0.0
Mg921 Mg 0.95381 0.70858 0.16099 0.0
C922 C 0.99561 0.81949 0.12907 0.0
O923 O 0.03588 0.79576 0.16691 0.0
O924 O 0.20678 0.8115 0.13277 0.0
O925 O 0.96191 0.77386 0.173 0.0
O926 O 0.16133 0.83059 0.16543 0.0
O927 O 0.15774 0.86074 0.12167 0.0
O928 O 0.1137 0.88449 0.15572 0.0
O929 O 0.08215 0.69357 0.13187 0.0
O930 O 0.16007 0.70834 0.13236 0.0
C931 C 0.12455 0.68531 0.12762 0.0
C932 C 0.19808 0.84088 0.12289 0.0
O933 O 0.00194 0.77913 0.1349 0.0
O934 O 0.98907 0.59635 0.15933 0.0
O935 O 0.02665 0.85243 0.12907 0.0
O936 O 0.97012 0.65517 0.13054 0.0
O937 O 0.93767 0.64272 0.17114 0.0
O938 O 0.92098 0.70694 0.14085 0.0
O939 O 0.11902 0.71562 0.16245 0.0
O940 O 0.10023 0.63913 0.15929 0.0
C941 C 0.13936 0.87049 0.16582 0.0
C942 C 0.99808 0.80081 0.17435 0.0
C943 C 0.63353 0.82681 0.40654 0.0
C944 C 0.74351 0.69088 0.40419 0.0
C945 C 0.67287 0.65499 0.36414 0.0
Mg946 Mg 0.53123 0.8504 0.39317 0.0
Mg947 Mg 0.45972 0.77011 0.37948 0.0
O948 O 0.52085 0.79429 0.3807 0.0
Mg949 Mg 0.5757 0.75565 0.3866 0.0
O950 O 0.63402 0.7228 0.39275 0.0
Mg951 Mg 0.68202 0.75967 0.38191 0.0
Mg952 Mg 0.64405 0.65881 0.39565 0.0
C953 C 0.51746 0.69052 0.36325 0.0
O954 O 0.5324 0.70676 0.40134 0.0
O955 O 0.47232 0.88735 0.38037 0.0
O956 O 0.57744 0.64274 0.40584 0.0
O957 O 0.47415 0.82554 0.4097 0.0
O958 O 0.42804 0.83148 0.37001 0.0
O959 O 0.43507 0.76387 0.40071 0.0
O960 O 0.62088 0.80003 0.37168 0.0
O961 O 0.58713 0.86977 0.37669 0.0
C962 C 0.61858 0.8451 0.3702 0.0
C963 C 0.4386 0.87492 0.37219 0.0
O964 O 0.55651 0.704 0.36876 0.0
O965 O 0.74047 0.72324 0.39486 0.0
O966 O 0.47724 0.70828 0.36672 0.0
O967 O 0.68563 0.69869 0.36451 0.0
O968 O 0.70925 0.66296 0.407 0.0
O969 O 0.65534 0.63421 0.37484 0.0
O970 O 0.59235 0.80936 0.40407 0.0
O971 O 0.67042 0.81357 0.39959 0.0
C972 C 0.44333 0.79251 0.41081 0.0
C973 C 0.53876 0.66607 0.40695 0.0
C974 C 0.66002 0.19255 0.64644 0.0
C975 C 0.50396 0.10112 0.64146 0.0
C976 C 0.48437 0.18734 0.60394 0.0
Mg977 Mg 0.68967 0.29772 0.63683 0.0
Mg978 Mg 0.61644 0.38201 0.62584 0.0
O979 O 0.6328 0.31817 0.62614 0.0
Mg980 Mg 0.59002 0.26451 0.63088 0.0
O981 O 0.55206 0.20734 0.63524 0.0
Mg982 Mg 0.58443 0.16167 0.62216 0.0
Mg983 Mg 0.4859 0.20745 0.63575 0.0
C984 C 0.52592 0.33812 0.61113 0.0
O985 O 0.54973 0.30179 0.64892 0.0
O986 O 0.73087 0.35875 0.62621 0.0
O987 O 0.47734 0.26856 0.64973 0.0
O988 O 0.67059 0.34967 0.6554 0.0
O989 O 0.68047 0.41046 0.61665 0.0
O990 O 0.61632 0.40091 0.6477 0.0
O991 O 0.62751 0.22418 0.61311 0.0
O992 O 0.70099 0.2491 0.61775 0.0
C993 C 0.67211 0.22423 0.61044 0.0
C994 C 0.72252 0.396 0.61902 0.0
O995 O 0.53536 0.29694 0.61596 0.0
O996 O 0.54123 0.10336 0.63368 0.0
O997 O 0.55104 0.37484 0.61382 0.0
O998 O 0.5255 0.16893 0.60518 0.0
O999 O 0.47765 0.13714 0.64386 0.0
O1000 O 0.4635 0.20747 0.61431 0.0
O1001 O 0.64578 0.23564 0.64586 0.0
O1002 O 0.64116 0.15992 0.63896 0.0
C1003 C 0.64276 0.38501 0.65743 0.0
C1004 C 0.50767 0.29906 0.65404 0.0
C1005 C 0.13059 0.29239 0.90838 0.0
C1006 C 0.19298 0.11979 0.90437 0.0
C1007 C 0.10573 0.11444 0.86729 0.0
Mg1008 Mg 0.03548 0.34141 0.89707 0.0
Mg1009 Mg 0.94154 0.28253 0.88553 0.0
O1010 O 0.00727 0.28952 0.88548 0.0
Mg1011 Mg 0.05029 0.23765 0.89112 0.0
O1012 O 0.09778 0.18978 0.89698 0.0
Mg1013 Mg 0.15131 0.20999 0.88458 0.0
Mg1014 Mg 0.08566 0.12544 0.89902 0.0
C1015 C 0.97246 0.19019 0.869 0.0
O1016 O 0.99905 0.20584 0.90771 0.0
O1017 O 0.98482 0.39239 0.88519 0.0
O1018 O 0.02209 0.1309 0.9119 0.0
O1019 O 0.97909 0.33246 0.91488 0.0
O1020 O 0.92553 0.34935 0.87614 0.0
O1021 O 0.9207 0.28609 0.90724 0.0
O1022 O 0.10227 0.26617 0.87478 0.0
O1023 O 0.09071 0.34326 0.87954 0.0
C1024 C 0.1125 0.31001 0.87292 0.0
C1025 C 0.94717 0.38866 0.87779 0.0
O1026 O 0.0138 0.19227 0.8744 0.0
O1027 O 0.19835 0.15544 0.89622 0.0
O1028 O 0.93881 0.2183 0.87263 0.0
O1029 O 0.13269 0.15097 0.86783 0.0
O1030 O 0.1522 0.10336 0.90756 0.0
O1031 O 0.08179 0.10059 0.87792 0.0
O1032 O 0.08581 0.28648 0.90692 0.0
O1033 O 0.16095 0.26692 0.90161 0.0
C1034 C 0.94012 0.31047 0.91695 0.0
C1035 C 0.99397 0.16589 0.91391 0.0
H1036 H 0.2827 0.82229 0.45597 0.0
H1037 H 0.26847 0.67195 0.44876 0.0
H1038 H 0.33882 0.67226 0.43437 0.0
H1039 H 0.39892 0.71577 0.42125 0.0
H1040 H 0.4155 0.8652 0.42814 0.0
H1041 H 0.35047 0.86425 0.44528 0.0
C1042 C 0.29552 0.78931 0.45152 0.0
C1043 C 0.26972 0.74732 0.45376 0.0
C1044 C 0.33639 0.78942 0.44298 0.0
C1045 C 0.28676 0.70515 0.44755 0.0
C1046 C 0.32732 0.70508 0.43915 0.0
C1047 C 0.38905 0.7479 0.42673 0.0
C1048 C 0.4118 0.79044 0.42333 0.0
C1049 C 0.35154 0.74711 0.43645 0.0
C1050 C 0.39871 0.83187 0.43058 0.0
C1051 C 0.3612 0.83141 0.4403 0.0
H1052 H 0.50891 0.9246 0.68106 0.0
H1053 H 0.37021 0.97654 0.69194 0.0
H1054 H 0.37619 0.03612 0.67349 0.0
H1055 H 0.42409 0.07813 0.65597 0.0
H1056 H 0.56281 0.0257 0.64503 0.0
H1057 H 0.553 0.96089 0.66157 0.0
C1058 C 0.4797 0.94847 0.67923 0.0
C1059 C 0.43938 0.94653 0.68793 0.0
C1060 C 0.4834 0.98256 0.66862 0.0
C1061 C 0.40171 0.97759 0.68541 0.0
C1062 C 0.40515 0.01165 0.67489 0.0
C1063 C 0.45193 0.05215 0.65704 0.0
C1064 C 0.49437 0.05726 0.6494 0.0
C1065 C 0.44632 0.0152 0.66668 0.0
C1066 C 0.5298 0.02284 0.65079 0.0
C1067 C 0.52438 0.98586 0.66032 0.0
H1068 H 0.387 0.02091 0.91769 0.0
H1069 H 0.30187 0.95837 0.95045 0.0
H1070 H 0.23387 0.00496 0.94311 0.0
H1071 H 0.19785 0.0607 0.92674 0.0
H1072 H 0.28346 0.12493 0.89433 0.0
H1073 H 0.35225 0.08099 0.90233 0.0
C1074 C 0.35383 0.01815 0.92339 0.0
C1075 C 0.34963 0.98675 0.93475 0.0
C1076 C 0.31495 0.04517 0.91914 0.0
C1077 C 0.30606 0.98283 0.94182 0.0
C1078 C 0.26718 0.00927 0.93758 0.0
C1079 C 0.23159 0.06526 0.92146 0.0
C1080 C 0.23535 0.09577 0.90988 0.0
C1081 C 0.27108 0.04014 0.92616 0.0
C1082 C 0.27952 0.10169 0.90327 0.0
C1083 C 0.31889 0.07646 0.90781 0.0
H1084 H 0.12543 0.03516 0.21037 0.0
H1085 H 0.26048 0.97982 0.22263 0.0
H1086 H 0.25336 0.91596 0.20524 0.0
H1087 H 0.21001 0.87831 0.1855 0.0
H1088 H 0.07543 0.9366 0.17352 0.0
H1089 H 0.08139 0.99664 0.19167 0.0
C1090 C 0.15337 0.0092 0.2092 0.0
C1091 C 0.19373 0.01267 0.21757 0.0
C1092 C 0.14937 0.97322 0.1991 0.0
C1093 C 0.22925 0.97815 0.21616 0.0
C1094 C 0.22522 0.94169 0.20622 0.0
C1095 C 0.18189 0.90386 0.18699 0.0
C1096 C 0.1426 0.903 0.17806 0.0
C1097 C 0.18563 0.93916 0.19748 0.0
C1098 C 0.1065 0.93668 0.18008 0.0
C1099 C 0.10975 0.9712 0.19048 0.0
H1100 H 0.39698 0.13772 0.54482 0.0
H1101 H 0.27614 0.20701 0.56372 0.0
H1102 H 0.32156 0.22264 0.58497 0.0
H1103 H 0.39412 0.21359 0.59847 0.0
H1104 H 0.51628 0.14843 0.5791 0.0
H1105 H 0.47153 0.13456 0.55761 0.0
C1106 C 0.38051 0.15702 0.5534 0.0
C1107 C 0.33309 0.17201 0.55247 0.0
C1108 C 0.40705 0.16656 0.56553 0.0
C1109 C 0.31264 0.19573 0.56404 0.0
C1110 C 0.33856 0.20459 0.57621 0.0
C1111 C 0.41143 0.19733 0.58946 0.0
C1112 C 0.45871 0.18245 0.59043 0.0
C1113 C 0.38569 0.18996 0.57709 0.0
C1114 C 0.48001 0.16038 0.5787 0.0
C1115 C 0.4544 0.15235 0.5664 0.0
H1116 H 0.07584 0.96247 0.81943 0.0
H1117 H 0.20772 0.02064 0.80474 0.0
H1118 H 0.2057 0.07953 0.82368 0.0
H1119 H 0.16873 0.11134 0.84533 0.0
H1120 H 0.03839 0.05017 0.86038 0.0
H1121 H 0.03767 0.99575 0.84048 0.0
C1122 C 0.10409 0.98808 0.82038 0.0
C1123 C 0.14209 0.9869 0.81079 0.0
C1124 C 0.10319 0.02113 0.83144 0.0
C1125 C 0.17819 0.02072 0.81205 0.0
C1126 C 0.1771 0.0543 0.82288 0.0
C1127 C 0.13996 0.08645 0.84417 0.0
C1128 C 0.10379 0.0849 0.85437 0.0
C1129 C 0.14012 0.05443 0.83278 0.0
C1130 C 0.06697 0.05197 0.85277 0.0
C1131 C 0.06646 0.02073 0.84138 0.0
H1132 H 0.30311 0.85453 0.06448 0.0
H1133 H 0.37962 0.73751 0.08207 0.0
H1134 H 0.33731 0.74762 0.1044 0.0
H1135 H 0.27567 0.78643 0.11833 0.0
H1136 H 0.19693 0.90195 0.1006 0.0
H1137 H 0.24437 0.89675 0.07905 0.0
C1138 C 0.31104 0.83175 0.07328 0.0
C1139 C 0.34507 0.79579 0.07171 0.0
C1140 C 0.28651 0.83773 0.08607 0.0
C1141 C 0.3541 0.76582 0.0831 0.0
C1142 C 0.32993 0.7716 0.09585 0.0
C1143 C 0.26938 0.81122 0.1099 0.0
C1144 C 0.2326 0.84451 0.11112 0.0
C1145 C 0.29581 0.80716 0.09741 0.0
C1146 C 0.22495 0.87598 0.09998 0.0
C1147 C 0.25184 0.8728 0.0876 0.0
H1148 H 0.32737 0.00754 0.33079 0.0
H1149 H 0.38524 0.11445 0.35816 0.0
H1150 H 0.42333 0.05369 0.37218 0.0
H1151 H 0.44061 0.97012 0.37662 0.0
H1152 H 0.37943 0.86299 0.34989 0.0
H1153 H 0.34176 0.92383 0.33584 0.0
C1154 C 0.34858 0.01743 0.33979 0.0
C1155 C 0.35434 0.06546 0.34318 0.0
C1156 C 0.36946 0.98228 0.34801 0.0
C1157 C 0.38099 0.07787 0.35507 0.0
C1158 C 0.40259 0.04309 0.36316 0.0
C1159 C 0.41893 0.96 0.36775 0.0
C1160 C 0.4131 0.91195 0.36431 0.0
C1161 C 0.39714 0.99519 0.35971 0.0
C1162 C 0.38451 0.89961 0.35283 0.0
C1163 C 0.36307 0.93441 0.34473 0.0
H1164 H 0.72183 0.11484 0.55406 0.0
H1165 H 0.8406 0.21034 0.55583 0.0
H1166 H 0.81371 0.23948 0.57856 0.0
H1167 H 0.75459 0.24205 0.59719 0.0
H1168 H 0.63135 0.15296 0.59493 0.0
H1169 H 0.66165 0.11757 0.57303 0.0
C1170 C 0.7417 0.14219 0.5594 0.0
C1171 C 0.78285 0.1606 0.55303 0.0
C1172 C 0.72515 0.16018 0.57234 0.0
C1173 C 0.80865 0.19548 0.56026 0.0
C1174 C 0.79327 0.21235 0.57332 0.0
C1175 C 0.73443 0.21449 0.59203 0.0
C1176 C 0.69084 0.19999 0.59774 0.0
C1177 C 0.75129 0.1955 0.57933 0.0
C1178 C 0.66501 0.16473 0.59077 0.0
C1179 C 0.68231 0.14456 0.57825 0.0
H1180 H 0.75417 0.99385 0.34243 0.0
H1181 H 0.85385 0.87944 0.34658 0.0
H1182 H 0.79176 0.82875 0.35568 0.0
H1183 H 0.70901 0.81732 0.36342 0.0
H1184 H 0.6104 0.93254 0.35924 0.0
H1185 H 0.6718 0.98154 0.34894 0.0
C1186 C 0.7623 0.95768 0.34525 0.0
C1187 C 0.80881 0.94111 0.34374 0.0
C1188 C 0.72641 0.92842 0.35043 0.0
C1189 C 0.81871 0.894 0.34753 0.0
C1190 C 0.783 0.86459 0.35275 0.0
C1191 C 0.70086 0.8529 0.3601 0.0
C1192 C 0.65521 0.87128 0.36225 0.0
C1193 C 0.73672 0.8815 0.35434 0.0
C1194 C 0.64533 0.91757 0.35786 0.0
C1195 C 0.68044 0.94576 0.35198 0.0
H1196 H 0.804 0.89077 0.1038 0.0
H1197 H 0.82005 0.76288 0.0794 0.0
H1198 H 0.89456 0.74614 0.09113 0.0
H1199 H 0.95298 0.76551 0.10937 0.0
H1200 H 0.93904 0.89545 0.13282 0.0
H1201 H 0.86483 0.91281 0.12089 0.0
C1202 C 0.82367 0.85905 0.10116 0.0
C1203 C 0.80609 0.82762 0.09097 0.0
C1204 C 0.86614 0.84938 0.10804 0.0
C1205 C 0.83253 0.7873 0.08734 0.0
C1206 C 0.87501 0.7776 0.09408 0.0
C1207 C 0.93336 0.79739 0.11188 0.0
C1208 C 0.95065 0.82889 0.12205 0.0
C1209 C 0.89161 0.8078 0.10467 0.0
C1210 C 0.92589 0.87068 0.12506 0.0
C1211 C 0.88364 0.88061 0.11824 0.0
H1212 H 0.91403 0.0726 0.81528 0.0
H1213 H 0.06175 0.09351 0.80577 0.0
H1214 H 0.07122 0.13745 0.82762 0.0
H1215 H 0.03851 0.16849 0.84961 0.0
H1216 H 0.89174 0.14656 0.85988 0.0
H1217 H 0.88138 0.10244 0.83781 0.0
C1218 C 0.94838 0.08646 0.81806 0.0
C1219 C 0.98672 0.081 0.80866 0.0
C1220 C 0.9541 0.11016 0.83096 0.0
C1221 C 0.03121 0.0985 0.81252 0.0
C1222 C 0.03684 0.12316 0.82512 0.0
C1223 C 0.00445 0.15317 0.84719 0.0
C1224 C 0.96617 0.15976 0.85649 0.0
C1225 C 0.9987 0.12881 0.83446 0.0
C1226 C 0.92184 0.14132 0.85295 0.0
C1227 C 0.91593 0.11631 0.84033 0.0
H1228 H 0.68468 0.88689 0.46778 0.0
H1229 H 0.79375 0.96204 0.44519 0.0
H1230 H 0.75782 0.93996 0.4229 0.0
H1231 H 0.69948 0.89409 0.40984 0.0
H1232 H 0.58915 0.82038 0.43214 0.0
H1233 H 0.61999 0.84945 0.45459 0.0
C1234 C 0.70009 0.8994 0.45804 0.0
C1235 C 0.74189 0.92648 0.45823 0.0
C1236 C 0.67863 0.88739 0.44521 0.0
C1237 C 0.7617 0.94127 0.44539 0.0
C1238 C 0.74104 0.92886 0.43262 0.0
C1239 C 0.68146 0.88544 0.41961 0.0
C1240 C 0.64231 0.855 0.41937 0.0
C1241 C 0.69996 0.90138 0.43241 0.0
C1242 C 0.6191 0.84413 0.43205 0.0
C1243 C 0.63719 0.86015 0.44489 0.0
H1244 H 0.9657 0.93549 0.22657 0.0
H1245 H 0.11705 0.9205 0.22885 0.0
H1246 H 0.11633 0.86851 0.20839 0.0
H1247 H 0.07359 0.82983 0.18923 0.0
H1248 H 0.9228 0.84683 0.18625 0.0
H1249 H 0.92292 0.89807 0.20709 0.0
C1250 C 0.99867 0.92151 0.22247 0.0
C1251 C 0.04115 0.93125 0.22949 0.0
C1252 C 0.9984 0.8934 0.21026 0.0
C1253 C 0.08356 0.91273 0.22398 0.0
C1254 C 0.08332 0.88341 0.21213 0.0
C1255 C 0.04086 0.84544 0.19299 0.0
C1256 C 0.99835 0.83522 0.18609 0.0
C1257 C 0.04111 0.87409 0.20507 0.0
C1258 C 0.95602 0.85456 0.19132 0.0
C1259 C 0.95607 0.88368 0.20325 0.0
H1260 H 0.82302 0.18683 0.95596 0.0
H1261 H 0.92 0.11432 0.98308 0.0
H1262 H 0.97607 0.10541 0.96355 0.0
H1263 H 1.00008 0.12427 0.93931 0.0
H1264 H 0.90317 0.19653 0.91219 0.0
H1265 H 0.84329 0.19699 0.93096 0.0
C1266 C 0.85596 0.16819 0.95752 0.0
C1267 C 0.86725 0.15088 0.97092 0.0
C1268 C 0.88801 0.16325 0.94626 0.0
C1269 C 0.91045 0.1275 0.97281 0.0
C1270 C 0.94254 0.12257 0.96168 0.0
C1271 C 0.96568 0.1398 0.9375 0.0
C1272 C 0.9562 0.16133 0.92456 0.0
C1273 C 0.93209 0.14119 0.94844 0.0
C1274 C 0.91156 0.1811 0.92226 0.0
C1275 C 0.87747 0.18143 0.93296 0.0
H1276 H 0.77724 0.1186 0.69753 0.0
H1277 H 0.82443 0.02046 0.66543 0.0
H1278 H 0.78134 0.06423 0.64771 0.0
H1279 H 0.72524 0.12584 0.64164 0.0
H1280 H 0.67729 0.22505 0.6732 0.0
H1281 H 0.72728 0.18659 0.69076 0.0
C1282 C 0.7789 0.1074 0.68662 0.0
C1283 C 0.80443 0.06637 0.68283 0.0
C1284 C 0.75414 0.13303 0.67639 0.0
C1285 C 0.80537 0.05192 0.66865 0.0
C1286 C 0.78074 0.07695 0.65849 0.0
C1287 C 0.72641 0.1396 0.65232 0.0
C1288 C 0.69745 0.17786 0.65619 0.0
C1289 C 0.75441 0.11695 0.66229 0.0
C1290 C 0.69954 0.19575 0.66998 0.0
C1291 C 0.72767 0.17341 0.68003 0.0
H1292 H 0.85381 0.36165 0.97659 0.0
H1293 H 0.73712 0.28178 0.95984 0.0
H1294 H 0.78199 0.26655 0.93827 0.0
H1295 H 0.85238 0.27923 0.92377 0.0
H1296 H 0.9711 0.3549 0.94091 0.0
H1297 H 0.92722 0.36827 0.96282 0.0
C1298 C 0.83842 0.34 0.96841 0.0
C1299 C 0.79228 0.32202 0.97003 0.0
C1300 C 0.86465 0.33085 0.95607 0.0
C1301 C 0.77276 0.29534 0.959 0.0
C1302 C 0.79831 0.28677 0.94663 0.0
C1303 C 0.86919 0.29778 0.93238 0.0
C1304 C 0.91517 0.31567 0.93067 0.0
C1305 C 0.8441 0.30468 0.94501 0.0
C1306 C 0.9358 0.3406 0.94189 0.0
C1307 C 0.91071 0.34828 0.95444 0.0
H1308 H 0.86187 0.40935 0.18554 0.0
H1309 H 0.80512 0.49698 0.21889 0.0
H1310 H 0.85013 0.56443 0.21009 0.0
H1311 H 0.9023 0.59915 0.19223 0.0
H1312 H 0.96105 0.5106 0.15935 0.0
H1313 H 0.9193 0.44244 0.16889 0.0
C1314 C 0.85993 0.44295 0.19104 0.0
C1315 C 0.83048 0.44815 0.20294 0.0
C1316 C 0.88622 0.48134 0.18601 0.0
C1317 C 0.82789 0.49218 0.20978 0.0
C1318 C 0.85349 0.53068 0.20474 0.0
C1319 C 0.90625 0.56486 0.18721 0.0
C1320 C 0.93438 0.56007 0.17503 0.0
C1321 C 0.88229 0.52579 0.19276 0.0
C1322 C 0.93963 0.51528 0.16875 0.0
C1323 C 0.91558 0.47631 0.17415 0.0
H1324 H 0.92579 0.73783 0.43887 0.0
H1325 H 0.83602 0.68801 0.47252 0.0
H1326 H 0.77569 0.66572 0.45559 0.0
H1327 H 0.74627 0.66516 0.43149 0.0
H1328 H 0.83279 0.72083 0.39793 0.0
H1329 H 0.89697 0.7351 0.41448 0.0
C1330 C 0.89322 0.72155 0.44243 0.0
C1331 C 0.88583 0.71366 0.45688 0.0
C1332 C 0.85821 0.70969 0.43266 0.0
C1333 C 0.84298 0.6936 0.46143 0.0
C1334 C 0.80841 0.68093 0.45176 0.0
C1335 C 0.77957 0.67937 0.42773 0.0
C1336 C 0.78496 0.69158 0.4135 0.0
C1337 C 0.81547 0.68919 0.43737 0.0
C1338 C 0.82793 0.71097 0.40884 0.0
C1339 C 0.86448 0.71941 0.41831 0.0
H1340 H 0.69044 0.49905 0.71282 0.0
H1341 H 0.56764 0.57694 0.69984 0.0
H1342 H 0.55553 0.5214 0.68045 0.0
H1343 H 0.58298 0.45444 0.66624 0.0
H1344 H 0.70563 0.37572 0.67907 0.0
H1345 H 0.7141 0.42736 0.6996 0.0
C1346 C 0.66094 0.50364 0.70576 0.0
C1347 C 0.63053 0.54262 0.7076 0.0
C1348 C 0.65414 0.47149 0.69463 0.0
C1349 C 0.59199 0.54775 0.69852 0.0
C1350 C 0.58499 0.51595 0.68745 0.0
C1351 C 0.61143 0.44821 0.67356 0.0
C1352 C 0.644 0.41151 0.67097 0.0
C1353 C 0.61636 0.47826 0.68525 0.0
C1354 C 0.6801 0.40369 0.68074 0.0
C1355 C 0.68513 0.43341 0.69246 0.0
H1356 H 0.80728 0.63201 0.07756 0.0
H1357 H 0.70817 0.71955 0.10043 0.0
H1358 H 0.76567 0.73121 0.11914 0.0
H1359 H 0.84409 0.71735 0.12881 0.0
H1360 H 0.9441 0.63068 0.10583 0.0
H1361 H 0.8864 0.61858 0.0872 0.0
C1362 C 0.79845 0.65404 0.08656 0.0
C1363 C 0.75395 0.6761 0.0874 0.0
C1364 C 0.83178 0.66071 0.09724 0.0
C1365 C 0.74255 0.70318 0.09938 0.0
C1366 C 0.77531 0.70964 0.11011 0.0
C1367 C 0.8535 0.69589 0.11972 0.0
C1368 C 0.89855 0.67505 0.11875 0.0
C1369 C 0.82012 0.68883 0.1091 0.0
C1370 C 0.90981 0.64728 0.10687 0.0
C1371 C 0.87675 0.64017 0.09623 0.0
H1372 H 0.73646 0.53042 0.3119 0.0
H1373 H 0.61472 0.45064 0.32545 0.0
H1374 H 0.59814 0.50923 0.34372 0.0
H1375 H 0.62067 0.5798 0.35673 0.0
H1376 H 0.73882 0.66375 0.34278 0.0
H1377 H 0.75391 0.60717 0.32354 0.0
C1378 C 0.70597 0.52624 0.31873 0.0
C1379 C 0.6771 0.48587 0.31737 0.0
C1380 C 0.69621 0.56052 0.32916 0.0
C1381 C 0.63773 0.48101 0.32633 0.0
C1382 C 0.62826 0.51445 0.3368 0.0
C1383 C 0.64971 0.58597 0.34945 0.0
C1384 C 0.67894 0.62569 0.35127 0.0
C1385 C 0.65778 0.55373 0.33847 0.0
C1386 C 0.71571 0.63359 0.34157 0.0
C1387 C 0.7245 0.60105 0.33065 0.0
H1388 H 0.91026 0.50832 0.60665 0.0
H1389 H 0.82349 0.56869 0.57432 0.0
H1390 H 0.7577 0.51798 0.58138 0.0
H1391 H 0.72404 0.45859 0.59735 0.0
H1392 H 0.81228 0.39614 0.62903 0.0
H1393 H 0.87845 0.44509 0.62147 0.0
C1394 C 0.87726 0.50982 0.60098 0.0
C1395 C 0.87191 0.54184 0.58985 0.0
C1396 C 0.83978 0.48032 0.60502 0.0
C1397 C 0.82854 0.54388 0.58281 0.0
C1398 C 0.79092 0.51507 0.58687 0.0
C1399 C 0.7578 0.45561 0.60257 0.0
C1400 C 0.76306 0.424 0.6138 0.0
C1401 C 0.79597 0.4835 0.59806 0.0
C1402 C 0.80722 0.42013 0.62033 0.0
C1403 C 0.8451 0.44822 0.61605 0.0
H1404 H 0.88399 0.58555 0.85336 0.0
H1405 H 0.80796 0.49401 0.8251 0.0
H1406 H 0.83909 0.42474 0.83713 0.0
H1407 H 0.88739 0.39043 0.85568 0.0
H1408 H 0.96568 0.48162 0.88355 0.0
H1409 H 0.93451 0.55096 0.87155 0.0
C1410 C 0.87483 0.55042 0.84972 0.0
C1411 C 0.84453 0.54482 0.83816 0.0
C1412 C 0.89308 0.51082 0.85663 0.0
C1413 C 0.83192 0.49911 0.8338 0.0
C1414 C 0.84953 0.45957 0.8407 0.0
C1415 C 0.89757 0.42546 0.85918 0.0
C1416 C 0.9286 0.43082 0.87056 0.0
C1417 C 0.88004 0.46504 0.85214 0.0
C1418 C 0.94187 0.47649 0.87482 0.0
C1419 C 0.92402 0.51614 0.86798 0.0
H1420 H 0.17327 0.52006 0.08565 0.0
H1421 H 0.23801 0.6358 0.06328 0.0
H1422 H 0.21035 0.69081 0.08134 0.0
H1423 H 0.1704 0.70567 0.10385 0.0
H1424 H 0.09972 0.59227 0.12543 0.0
H1425 H 0.1256 0.53649 0.10697 0.0
C1426 C 0.18043 0.55739 0.08452 0.0
C1427 C 0.2075 0.57373 0.07301 0.0
C1428 C 0.16308 0.58914 0.09473 0.0
C1429 C 0.21735 0.62221 0.07199 0.0
C1430 C 0.2014 0.65375 0.08228 0.0
C1431 C 0.1602 0.66877 0.10437 0.0
C1432 C 0.13355 0.65265 0.11588 0.0
C1433 C 0.17462 0.63753 0.09373 0.0
C1434 C 0.12006 0.60514 0.11654 0.0
C1435 C 0.13513 0.5734 0.10607 0.0
H1436 H 0.23359 0.38665 0.8227 0.0
H1437 H 0.28049 0.48091 0.85561 0.0
H1438 H 0.23632 0.43566 0.87299 0.0
H1439 H 0.17854 0.37451 0.87849 0.0
H1440 H 0.13121 0.27923 0.84607 0.0
H1441 H 0.18298 0.3185 0.82887 0.0
C1442 C 0.23509 0.39661 0.83371 0.0
C1443 C 0.26075 0.437 0.83784 0.0
C1444 C 0.20971 0.37019 0.84372 0.0
C1445 C 0.26136 0.44991 0.85214 0.0
C1446 C 0.2361 0.42407 0.8621 0.0
C1447 C 0.1804 0.36175 0.8677 0.0
C1448 C 0.15109 0.32447 0.86344 0.0
C1449 C 0.20944 0.38485 0.85796 0.0
C1450 C 0.15381 0.30777 0.84954 0.0
C1451 C 0.18294 0.33058 0.83971 0.0
H1452 H 0.34965 0.30925 0.57255 0.0
H1453 H 0.43496 0.39284 0.54441 0.0
H1454 H 0.49329 0.40481 0.56292 0.0
H1455 H 0.52335 0.38524 0.58644 0.0
H1456 H 0.43884 0.29973 0.61425 0.0
H1457 H 0.37574 0.29681 0.59682 0.0
C1458 C 0.3805 0.3309 0.57058 0.0
C1459 C 0.38781 0.35056 0.55718 0.0
C1460 C 0.41404 0.33722 0.58121 0.0
C1461 C 0.42841 0.37783 0.5547 0.0
C1462 C 0.46181 0.3845 0.56525 0.0
C1463 C 0.49081 0.36652 0.58872 0.0
C1464 C 0.48576 0.34222 0.60147 0.0
C1465 C 0.45549 0.36352 0.57845 0.0
C1466 C 0.44366 0.31791 0.60435 0.0
C1467 C 0.40777 0.31607 0.59439 0.0
H1468 H 0.48649 0.55163 0.31246 0.0
H1469 H 0.62557 0.60238 0.30138 0.0
H1470 H 0.62663 0.65061 0.32253 0.0
H1471 H 0.588 0.67933 0.34418 0.0
H1472 H 0.44977 0.62751 0.35547 0.0
H1473 H 0.44936 0.57727 0.33445 0.0
C1474 C 0.51728 0.57279 0.31466 0.0
C1475 C 0.55504 0.57396 0.30496 0.0
C1476 C 0.51831 0.59964 0.32707 0.0
C1477 C 0.59503 0.60137 0.30825 0.0
C1478 C 0.59592 0.62896 0.32047 0.0
C1479 C 0.55814 0.65641 0.34216 0.0
C1480 C 0.51916 0.65671 0.3514 0.0
C1481 C 0.55779 0.62833 0.32995 0.0
C1482 C 0.48025 0.62769 0.34851 0.0
C1483 C 0.47997 0.59909 0.3365 0.0
H1484 H 0.19588 0.42822 0.95704 0.0
H1485 H 0.31766 0.43874 0.9296 0.0
H1486 H 0.27877 0.38896 0.9122 0.0
H1487 H 0.21259 0.33915 0.90538 0.0
H1488 H 0.08973 0.3293 0.93228 0.0
H1489 H 0.12622 0.38366 0.94919 0.0
C1490 C 0.21363 0.4207 0.94716 0.0
C1491 C 0.25945 0.43833 0.94453 0.0
C1492 C 0.19091 0.39221 0.93712 0.0
C1493 C 0.28213 0.42653 0.93177 0.0
C1494 C 0.26001 0.39794 0.92184 0.0
C1495 C 0.19362 0.34914 0.91491 0.0
C1496 C 0.1489 0.32979 0.91772 0.0
C1497 C 0.21473 0.38015 0.92449 0.0
C1498 C 0.12429 0.34372 0.92993 0.0
C1499 C 0.14527 0.37452 0.93962 0.0
H1500 H 0.4921 0.41234 0.71107 0.0
H1501 H 0.3443 0.38372 0.70503 0.0
H1502 H 0.36179 0.34744 0.68212 0.0
H1503 H 0.41993 0.3191 0.6646 0.0
H1504 H 0.56795 0.34413 0.67162 0.0
H1505 H 0.54959 0.38748 0.69315 0.0
C1506 C 0.4637 0.39884 0.70461 0.0
C1507 C 0.41697 0.401 0.70963 0.0
C1508 C 0.47409 0.37751 0.69161 0.0
C1509 C 0.3805 0.38274 0.70129 0.0
C1510 C 0.39051 0.3619 0.68824 0.0
C1511 C 0.4481 0.33454 0.67076 0.0
C1512 C 0.49531 0.32908 0.66634 0.0
C1513 C 0.43729 0.35837 0.68339 0.0
C1514 C 0.53135 0.34908 0.67451 0.0
C1515 C 0.52089 0.37335 0.68695 0.0
H1516 H 0.39505 0.5509 0.44393 0.0
H1517 H 0.30073 0.59219 0.41084 0.0
H1518 H 0.36474 0.63581 0.39929 0.0
H1519 H 0.44777 0.66217 0.39872 0.0
H1520 H 0.54217 0.61778 0.43142 0.0
H1521 H 0.47771 0.57574 0.44316 0.0
C1522 C 0.38857 0.5695 0.43419 0.0
C1523 C 0.3432 0.56887 0.42832 0.0
C1524 C 0.42538 0.59416 0.42763 0.0
C1525 C 0.33532 0.5925 0.41559 0.0
C1526 C 0.37184 0.61741 0.40901 0.0
C1527 C 0.45388 0.64369 0.4085 0.0
C1528 C 0.49918 0.64351 0.41438 0.0
C1529 C 0.41695 0.61866 0.41498 0.0
C1530 C 0.50731 0.61858 0.42683 0.0
C1531 C 0.47059 0.5945 0.4335 0.0
H1532 H 0.3024 0.62391 0.20275 0.0
H1533 H 0.29363 0.49334 0.17918 0.0
H1534 H 0.22675 0.52382 0.16625 0.0
H1535 H 0.17085 0.58694 0.16146 0.0
H1536 H 0.18076 0.71977 0.18369 0.0
H1537 H 0.24796 0.68943 0.19704 0.0
C1538 C 0.28585 0.60221 0.19476 0.0
C1539 C 0.3031 0.55622 0.1921 0.0
C1540 C 0.24794 0.62047 0.18701 0.0
C1541 C 0.28127 0.5286 0.18165 0.0
C1542 C 0.24299 0.54611 0.17416 0.0
C1543 C 0.18762 0.60941 0.16923 0.0
C1544 C 0.1705 0.65543 0.17168 0.0
C1545 C 0.22613 0.5919 0.17674 0.0
C1546 C 0.19326 0.68425 0.1816 0.0
C1547 C 0.23148 0.66679 0.18928 0.0
loop_
_geom_bond_atom_site_label_1
_geom_bond_atom_site_label_2
_geom_bond_distance
_geom_bond_site_symmetry_2
_ccdc_geom_bond_type
C0 C1 1.560 . S
C0 H61 0.959 . S
C0 H62 0.959 . S
C0 H63 0.960 . S
C1 C0 1.560 . S
C1 O56 1.426 . S
C1 H60 0.980 . S
C2 C3 1.407 . S
C2 C7 1.418 . S
C2 O56 1.334 . S
C3 C2 1.407 . S
C3 C4 1.360 . S
C3 H64 0.929 . S
C4 C3 1.360 . S
C4 C5 1.401 . S
C4 C8 1.527 . S
C5 C4 1.401 . S
C5 C6 1.405 . S
C5 C38 1.587 . S
C6 C5 1.405 . S
C6 C7 1.332 . S
C6 C9 1.496 1_565 S
C7 C2 1.418 . S
C7 C6 1.332 . S
C7 H65 0.936 . S
C8 C4 1.527 . S
C8 H66 0.959 . S
C8 H67 0.961 . S
C8 H68 0.961 . S
C9 C6 1.496 1_545 S
C9 H69 0.960 . S
C9 H70 0.968 . S
C9 H71 0.961 . S
C10 C11 1.517 . S
C10 H73 0.961 . S
C10 H74 0.960 . S
C10 H75 0.959 . S
C11 C10 1.517 . S
C11 O59 1.468 . S
C11 H72 0.980 . S
C12 C13 1.349 . S
C12 C17 1.367 . S
C12 O59 1.408 . S
C13 C12 1.349 . S
C13 C14 1.407 . S
C13 H76 0.930 . S
C14 C13 1.407 . S
C14 C15 1.449 . S
C14 C18 1.535 . S
C15 C14 1.449 . S
C15 C16 1.384 . S
C15 C40 1.553 . S
C16 C15 1.384 . S
C16 C17 1.364 . S
C16 C19 1.450 . S
C17 C12 1.367 . S
C17 C16 1.364 . S
C17 H77 0.931 . S
C18 C14 1.535 . S
C18 H78 0.959 . S
C18 H79 0.961 . S
C18 H80 0.959 . S
C19 C16 1.450 . S
C19 H81 0.960 . S
C19 H82 0.960 . S
C19 H83 0.960 . S
C20 C21 1.309 . S
C20 C25 1.304 . S
C20 O58 1.435 . S
C21 C20 1.309 . S
C21 C22 1.476 . S
C21 H85 0.930 . S
C22 C21 1.476 . S
C22 C23 1.400 . S
C22 C26 1.567 . S
C23 C22 1.400 . S
C23 C24 1.373 . S
C23 C45 1.432 . S
C24 C23 1.373 . S
C24 C25 1.339 . S
C24 C27 1.530 1_545 S
C25 C20 1.304 . S
C25 C24 1.339 . S
C25 H86 0.930 1_545 S
C26 C22 1.567 . S
C26 H87 0.961 . S
C26 H88 0.960 . S
C26 H89 0.958 . S
C27 C24 1.530 1_565 S
C27 H90 0.961 . S
C27 H91 0.960 . S
C27 H92 0.960 . S
C28 C29 1.530 . S
C28 H94 0.961 . S
C28 H95 0.961 . S
C28 H96 0.959 . S
C29 C28 1.530 . S
C29 O57 1.412 . S
C29 H93 0.980 . S
C30 C31 1.288 . S
C30 C35 1.377 . S
C30 O57 1.393 . S
C31 C30 1.288 . S
C31 C32 1.369 . S
C31 H97 0.932 . S
C32 C31 1.369 . S
C32 C33 1.398 . S
C32 C36 1.527 . S
C33 C32 1.398 . S
C33 C34 1.380 . S
C33 C47 1.497 . S
C34 C33 1.380 . S
C34 C35 1.383 . S
C34 C37 1.603 1_545 S
C35 C30 1.377 . S
C35 C34 1.383 . S
C35 H98 0.929 . S
C36 C32 1.527 . S
C36 H99 0.961 . S
C36 H100 0.959 . S
C36 H101 0.959 . S
C37 C34 1.603 1_565 S
C37 H102 0.960 . S
C37 H103 0.962 . S
C37 H104 0.961 . S
C38 C5 1.587 . S
C38 C39 1.360 1_655 S
C38 C51 1.412 . S
C39 C38 1.360 1_455 S
C39 C40 1.365 . S
C39 H105 0.929 . S
C40 C15 1.553 . S
C40 C39 1.365 . S
C40 C41 1.404 . S
C41 C40 1.404 . S
C41 C42 1.395 . S
C41 C52 1.451 . S
C42 C41 1.395 . S
C42 C43 1.322 . S
C42 H106 0.930 . S
C43 C42 1.322 . S
C43 C44 1.459 . S
C43 H107 0.929 . S
C44 C43 1.459 . S
C44 C45 1.445 1_565 S
C44 C53 1.395 . S
C45 C23 1.432 . S
C45 C44 1.445 1_545 S
C45 C46 1.370 . S
C46 C45 1.370 . S
C46 C47 1.438 1_455 S
C46 H108 0.930 . S
C47 C33 1.497 . S
C47 C46 1.438 1_655 S
C47 C48 1.360 . S
C48 C47 1.360 . S
C48 C49 1.401 . S
C48 C53 1.446 1_645 S
C49 C48 1.401 . S
C49 C50 1.347 1_545 S
C49 H109 0.929 . S
C50 C49 1.347 1_565 S
C50 C51 1.455 . S
C50 H110 0.930 . S
C51 C38 1.412 . S
C51 C50 1.455 . S
C51 C52 1.331 1_655 S
C52 C41 1.451 . S
C52 C51 1.331 1_455 S
C52 C53 1.497 . S
C53 C44 1.395 . S
C53 C48 1.446 1_465 S
C53 C52 1.497 . S
C54 C55 1.582 . S
C54 H111 0.962 . S
C54 H112 0.959 . S
C54 H113 0.958 . S
C55 C54 1.582 . S
C55 O58 1.458 . S
C55 H84 0.980 . S
O56 C1 1.426 . S
O56 C2 1.334 . S
O57 C29 1.412 . S
O57 C30 1.393 . S
O58 C20 1.435 . S
O58 C55 1.458 . S
O59 C11 1.468 . S
O59 C12 1.408 . S
H60 C1 0.980 . S
H61 C0 0.959 . S
H62 C0 0.959 . S
H63 C0 0.960 . S
H64 C3 0.929 . S
H65 C7 0.936 . S
H66 C8 0.959 . S
H67 C8 0.961 . S
H68 C8 0.961 . S
H69 C9 0.960 . S
H70 C9 0.968 . S
H71 C9 0.961 . S
H72 C11 0.980 . S
H73 C10 0.961 . S
H74 C10 0.960 . S
H75 C10 0.959 . S
H76 C13 0.930 . S
H77 C17 0.931 . S
H78 C18 0.959 . S
H79 C18 0.961 . S
H80 C18 0.959 . S
H81 C19 0.960 . S
H82 C19 0.960 . S
H83 C19 0.960 . S
H84 C55 0.980 . S
H85 C21 0.930 . S
H86 C25 0.930 1_565 S
H87 C26 0.961 . S
H88 C26 0.960 . S
H89 C26 0.958 . S
H90 C27 0.961 . S
H91 C27 0.960 . S
H92 C27 0.960 . S
H93 C29 0.980 . S
H94 C28 0.961 . S
H95 C28 0.961 . S
H96 C28 0.959 . S
H97 C31 0.932 . S
H98 C35 0.929 . S
H99 C36 0.961 . S
H100 C36 0.959 . S
H101 C36 0.959 . S
H102 C37 0.960 . S
H103 C37 0.962 . S
H104 C37 0.961 . S
H105 C39 0.929 . S
H106 C42 0.930 . S
H107 C43 0.929 . S
H108 C46 0.930 . S
H109 C49 0.929 . S
H110 C50 0.930 . S
H111 C54 0.962 . S
H112 C54 0.959 . S
H113 C54 0.958 . S
C114 C115 1.560 . S
C114 H175 0.959 . S
C114 H176 0.959 . S
C114 H177 0.960 . S
C115 C114 1.560 . S
C115 O170 1.426 . S
C115 H174 0.980 . S
C116 C117 1.407 . S
C116 C121 1.418 . S
C116 O170 1.334 . S
C117 C116 1.407 . S
C117 C118 1.360 . S
C117 H178 0.929 . S
C118 C117 1.360 . S
C118 C119 1.401 . S
C118 C122 1.527 . S
C119 C118 1.401 . S
C119 C120 1.405 . S
C119 C152 1.587 . S
C120 C119 1.405 . S
C120 C121 1.332 . S
C120 C123 1.496 . S
C121 C116 1.418 . S
C121 C120 1.332 . S
C121 H179 0.929 . S
C122 C118 1.527 . S
C122 H180 0.959 . S
C122 H181 0.961 . S
C122 H182 0.961 . S
C123 C120 1.496 . S
C123 H183 0.960 . S
C123 H184 0.960 . S
C123 H185 0.961 . S
C124 C125 1.517 . S
C124 H187 0.961 . S
C124 H188 0.960 . S
C124 H189 0.959 . S
C125 C124 1.517 . S
C125 O173 1.468 . S
C125 H186 0.980 . S
C126 C127 1.349 . S
C126 C131 1.367 . S
C126 O173 1.408 . S
C127 C126 1.349 . S
C127 C128 1.407 . S
C127 H190 0.930 . S
C128 C127 1.407 . S
C128 C129 1.449 . S
C128 C132 1.535 . S
C129 C128 1.449 . S
C129 C130 1.384 . S
C129 C154 1.553 . S
C130 C129 1.384 . S
C130 C131 1.364 . S
C130 C133 1.450 . S
C131 C126 1.367 . S
C131 C130 1.364 . S
C131 H191 0.931 . S
C132 C128 1.535 . S
C132 H192 0.959 . S
C132 H193 0.961 . S
C132 H194 0.959 . S
C133 C130 1.450 . S
C133 H195 0.960 . S
C133 H196 0.960 . S
C133 H197 0.960 . S
C134 C135 1.309 . S
C134 C139 1.304 . S
C134 O172 1.435 . S
C135 C134 1.309 . S
C135 C136 1.476 . S
C135 H199 0.930 . S
C136 C135 1.476 . S
C136 C137 1.400 . S
C136 C140 1.567 . S
C137 C136 1.400 . S
C137 C138 1.373 . S
C137 C159 1.432 . S
C138 C137 1.373 . S
C138 C139 1.339 . S
C138 C141 1.530 . S
C139 C134 1.304 . S
C139 C138 1.339 . S
C139 H200 0.930 . S
C140 C136 1.567 . S
C140 H201 0.961 . S
C140 H202 0.960 . S
C140 H203 0.958 . S
C141 C138 1.530 . S
C141 H204 0.961 . S
C141 H205 0.960 . S
C141 H206 0.960 . S
C142 C143 1.530 . S
C142 H208 0.961 . S
C142 H209 0.961 . S
C142 H210 0.959 . S
C143 C142 1.530 . S
C143 O171 1.412 . S
C143 H207 0.980 . S
C144 C145 1.288 . S
C144 C149 1.377 . S
C144 O171 1.393 . S
C145 C144 1.288 . S
C145 C146 1.369 . S
C145 H211 0.932 . S
C146 C145 1.369 . S
C146 C147 1.398 . S
C146 C150 1.527 . S
C147 C146 1.398 . S
C147 C148 1.380 . S
C147 C161 1.497 . S
C148 C147 1.380 . S
C148 C149 1.383 . S
C148 C151 1.603 . S
C149 C144 1.377 . S
C149 C148 1.383 . S
C149 H212 0.929 . S
C150 C146 1.527 . S
C150 H213 0.961 . S
C150 H214 0.959 . S
C150 H215 0.959 . S
C151 C148 1.603 . S
C151 H216 0.960 . S
C151 H217 0.962 . S
C151 H218 0.961 . S
C152 C119 1.587 . S
C152 C153 1.360 . S
C152 C165 1.412 . S
C153 C152 1.360 . S
C153 C154 1.365 . S
C153 H219 0.929 . S
C154 C129 1.553 . S
C154 C153 1.365 . S
C154 C155 1.404 . S
C155 C154 1.404 . S
C155 C156 1.395 . S
C155 C166 1.451 . S
C156 C155 1.395 . S
C156 C157 1.322 . S
C156 H220 0.930 . S
C157 C156 1.322 . S
C157 C158 1.459 . S
C157 H221 0.929 . S
C158 C157 1.459 . S
C158 C159 1.445 . S
C158 C167 1.395 . S
C159 C137 1.432 . S
C159 C158 1.445 . S
C159 C160 1.370 . S
C160 C159 1.370 . S
C160 C161 1.438 . S
C160 H222 0.930 . S
C161 C147 1.497 . S
C161 C160 1.438 . S
C161 C162 1.360 . S
C162 C161 1.360 . S
C162 C163 1.401 . S
C162 C167 1.446 . S
C163 C162 1.401 . S
C163 C164 1.347 . S
C163 H223 0.929 . S
C164 C163 1.347 . S
C164 C165 1.455 . S
C164 H224 0.930 . S
C165 C152 1.412 . S
C165 C164 1.455 . S
C165 C166 1.331 . S
C166 C155 1.451 . S
C166 C165 1.331 . S
C166 C167 1.497 . S
C167 C158 1.395 . S
C167 C162 1.446 . S
C167 C166 1.497 . S
C168 C169 1.582 . S
C168 H225 0.962 . S
C168 H226 0.959 . S
C168 H227 0.958 . S
C169 C168 1.582 . S
C169 O172 1.458 . S
C169 H198 0.980 . S
O170 C115 1.426 . S
O170 C116 1.334 . S
O171 C143 1.412 . S
O171 C144 1.393 . S
O172 C134 1.435 . S
O172 C169 1.458 . S
O173 C125 1.468 . S
O173 C126 1.408 . S
H174 C115 0.980 . S
H175 C114 0.959 . S
H176 C114 0.959 . S
H177 C114 0.960 . S
H178 C117 0.929 . S
H179 C121 0.929 . S
H180 C122 0.959 . S
H181 C122 0.961 . S
H182 C122 0.961 . S
H183 C123 0.960 . S
H184 C123 0.960 . S
H185 C123 0.961 . S
H186 C125 0.980 . S
H187 C124 0.961 . S
H188 C124 0.960 . S
H189 C124 0.959 . S
H190 C127 0.930 . S
H191 C131 0.931 . S
H192 C132 0.959 . S
H193 C132 0.961 . S
H194 C132 0.959 . S
H195 C133 0.960 . S
H196 C133 0.960 . S
H197 C133 0.960 . S
H198 C169 0.980 . S
H199 C135 0.930 . S
H200 C139 0.930 . S
H201 C140 0.961 . S
H202 C140 0.960 . S
H203 C140 0.958 . S
H204 C141 0.961 . S
H205 C141 0.960 . S
H206 C141 0.960 . S
H207 C143 0.980 . S
H208 C142 0.961 . S
H209 C142 0.961 . S
H210 C142 0.959 . S
H211 C145 0.932 . S
H212 C149 0.929 . S
H213 C150 0.961 . S
H214 C150 0.959 . S
H215 C150 0.959 . S
H216 C151 0.960 . S
H217 C151 0.962 . S
H218 C151 0.961 . S
H219 C153 0.929 . S
H220 C156 0.930 . S
H221 C157 0.929 . S
H222 C160 0.930 . S
H223 C163 0.929 . S
H224 C164 0.930 . S
H225 C168 0.962 . S
H226 C168 0.959 . S
H227 C168 0.958 . S
C228 C229 1.560 . S
C228 H289 0.959 . S
C228 H290 0.959 . S
C228 H291 0.960 . S
C229 C228 1.560 . S
C229 O284 1.426 . S
C229 H288 0.980 . S
C230 C231 1.407 . S
C230 C235 1.418 . S
C230 O284 1.334 . S
C231 C230 1.407 . S
C231 C232 1.360 . S
C231 H292 0.929 . S
C232 C231 1.360 . S
C232 C233 1.401 . S
C232 C236 1.527 . S
C233 C232 1.401 . S
C233 C234 1.405 . S
C233 C266 1.587 . S
C234 C233 1.405 . S
C234 C235 1.332 . S
C234 C237 1.496 1_565 S
C235 C230 1.418 . S
C235 C234 1.332 . S
C235 H293 0.929 . S
C236 C232 1.527 . S
C236 H294 0.959 . S
C236 H295 0.961 . S
C236 H296 0.961 . S
C237 C234 1.496 1_545 S
C237 H297 0.960 . S
C237 H298 0.960 1_545 S
C237 H299 0.961 . S
C238 C239 1.517 . S
C238 H301 0.961 . S
C238 H302 0.960 . S
C238 H303 0.959 . S
C239 C238 1.517 . S
C239 O287 1.468 . S
C239 H300 0.980 . S
C240 C241 1.349 . S
C240 C245 1.367 . S
C240 O287 1.408 . S
C241 C240 1.349 . S
C241 C242 1.407 . S
C241 H304 0.930 . S
C242 C241 1.407 . S
C242 C243 1.449 . S
C242 C246 1.535 . S
C243 C242 1.449 . S
C243 C244 1.384 . S
C243 C268 1.553 . S
C244 C243 1.384 . S
C244 C245 1.364 . S
C244 C247 1.450 . S
C245 C240 1.367 . S
C245 C244 1.364 . S
C245 H305 0.931 . S
C246 C242 1.535 . S
C246 H306 0.959 . S
C246 H307 0.961 . S
C246 H308 0.959 . S
C247 C244 1.450 . S
C247 H309 0.960 . S
C247 H310 0.960 . S
C247 H311 0.960 . S
C248 C249 1.309 . S
C248 C253 1.304 . S
C248 O286 1.435 . S
C249 C248 1.309 . S
C249 C250 1.476 . S
C249 H313 0.930 . S
C250 C249 1.476 . S
C250 C251 1.400 . S
C250 C254 1.567 . S
C251 C250 1.400 . S
C251 C252 1.373 . S
C251 C273 1.432 . S
C252 C251 1.373 . S
C252 C253 1.339 . S
C252 C255 1.530 1_545 S
C253 C248 1.304 . S
C253 C252 1.339 . S
C253 H314 0.930 1_545 S
C254 C250 1.567 . S
C254 H315 0.961 1_556 S
C254 H316 0.960 1_556 S
C254 H317 0.958 . S
C255 C252 1.530 1_565 S
C255 H318 0.961 . S
C255 H319 0.960 . S
C255 H320 0.960 . S
C256 C257 1.530 . S
C256 H322 0.961 . S
C256 H323 0.961 . S
C256 H324 0.959 . S
C257 C256 1.530 . S
C257 O285 1.412 . S
C257 H321 0.980 . S
C258 C259 1.288 . S
C258 C263 1.377 . S
C258 O285 1.393 . S
C259 C258 1.288 . S
C259 C260 1.369 . S
C259 H325 0.932 . S
C260 C259 1.369 . S
C260 C261 1.398 . S
C260 C264 1.527 . S
C261 C260 1.398 . S
C261 C262 1.380 . S
C261 C275 1.497 . S
C262 C261 1.380 . S
C262 C263 1.383 . S
C262 C265 1.603 1_545 S
C263 C258 1.377 . S
C263 C262 1.383 . S
C263 H326 0.929 . S
C264 C260 1.527 . S
C264 H327 0.961 1_556 S
C264 H328 0.959 . S
C264 H329 0.959 1_556 S
C265 C262 1.603 1_565 S
C265 H330 0.960 . S
C265 H331 0.962 . S
C265 H332 0.961 . S
C266 C233 1.587 . S
C266 C267 1.360 . S
C266 C279 1.412 . S
C267 C266 1.360 . S
C267 C268 1.365 . S
C267 H333 0.929 . S
C268 C243 1.553 . S
C268 C267 1.365 . S
C268 C269 1.404 . S
C269 C268 1.404 . S
C269 C270 1.395 . S
C269 C280 1.451 . S
C270 C269 1.395 . S
C270 C271 1.322 . S
C270 H334 0.930 . S
C271 C270 1.322 . S
C271 C272 1.459 1_554 S
C271 H335 0.929 . S
C272 C271 1.459 1_556 S
C272 C273 1.444 1_565 S
C272 C281 1.396 1_556 S
C273 C251 1.432 . S
C273 C272 1.444 1_545 S
C273 C274 1.370 . S
C274 C273 1.370 . S
C274 C275 1.438 . S
C274 H336 0.930 . S
C275 C261 1.497 . S
C275 C274 1.438 . S
C275 C276 1.360 1_556 S
C276 C275 1.360 1_554 S
C276 C277 1.401 . S
C276 C281 1.446 1_545 S
C277 C276 1.401 . S
C277 C278 1.347 1_545 S
C277 H337 0.929 . S
C278 C277 1.347 1_565 S
C278 C279 1.455 . S
C278 H338 0.930 . S
C279 C266 1.412 . S
C279 C278 1.455 . S
C279 C280 1.331 . S
C280 C269 1.451 . S
C280 C279 1.331 . S
C280 C281 1.497 . S
C281 C272 1.396 1_554 S
C281 C276 1.446 1_565 S
C281 C280 1.497 . S
C282 C283 1.582 . S
C282 H339 0.962 . S
C282 H340 0.959 . S
C282 H341 0.958 . S
C283 C282 1.582 . S
C283 O286 1.458 . S
C283 H312 0.980 . S
O284 C229 1.426 . S
O284 C230 1.334 . S
O285 C257 1.412 . S
O285 C258 1.393 . S
O286 C248 1.435 . S
O286 C283 1.458 . S
O287 C239 1.468 . S
O287 C240 1.408 . S
H288 C229 0.980 . S
H289 C228 0.959 . S
H290 C228 0.959 . S
H291 C228 0.960 . S
H292 C231 0.929 . S
H293 C235 0.929 . S
H294 C236 0.959 . S
H295 C236 0.961 . S
H296 C236 0.961 . S
H297 C237 0.960 . S
H298 C237 0.960 1_565 S
H299 C237 0.961 . S
H300 C239 0.980 . S
H301 C238 0.961 . S
H302 C238 0.960 . S
H303 C238 0.959 . S
H304 C241 0.930 . S
H305 C245 0.931 . S
H306 C246 0.959 . S
H307 C246 0.961 . S
H308 C246 0.959 . S
H309 C247 0.960 . S
H310 C247 0.960 . S
H311 C247 0.960 . S
H312 C283 0.980 . S
H313 C249 0.930 . S
H314 C253 0.930 1_565 S
H315 C254 0.961 1_554 S
H316 C254 0.960 1_554 S
H317 C254 0.958 . S
H318 C255 0.961 . S
H319 C255 0.960 . S
H320 C255 0.960 . S
H321 C257 0.980 . S
H322 C256 0.961 . S
H323 C256 0.961 . S
H324 C256 0.959 . S
H325 C259 0.932 . S
H326 C263 0.929 . S
H327 C264 0.961 1_554 S
H328 C264 0.959 . S
H329 C264 0.959 1_554 S
H330 C265 0.960 . S
H331 C265 0.962 . S
H332 C265 0.961 . S
H333 C267 0.929 . S
H334 C270 0.930 . S
H335 C271 0.929 . S
H336 C274 0.930 . S
H337 C277 0.929 . S
H338 C278 0.930 . S
H339 C282 0.962 . S
H340 C282 0.959 . S
H341 C282 0.958 . S
C342 C343 1.560 . S
C342 H403 0.959 . S
C342 H404 0.959 . S
C342 H405 0.960 . S
C343 C342 1.560 . S
C343 O398 1.426 . S
C343 H402 0.980 . S
C344 C345 1.407 . S
C344 C349 1.418 . S
C344 O398 1.334 . S
C345 C344 1.407 . S
C345 C346 1.360 . S
C345 H406 0.929 . S
C346 C345 1.360 . S
C346 C347 1.401 . S
C346 C350 1.527 . S
C347 C346 1.401 . S
C347 C348 1.405 . S
C347 C380 1.587 . S
C348 C347 1.405 . S
C348 C349 1.332 . S
C348 C351 1.496 . S
C349 C344 1.418 . S
C349 C348 1.332 . S
C349 H407 0.929 . S
C350 C346 1.527 . S
C350 H408 0.959 . S
C350 H409 0.961 . S
C350 H410 0.961 . S
C351 C348 1.496 . S
C351 H411 0.960 . S
C351 H412 0.960 . S
C351 H413 0.961 . S
C352 C353 1.517 . S
C352 H415 0.961 . S
C352 H416 0.960 . S
C352 H417 0.959 . S
C353 C352 1.517 . S
C353 O401 1.468 . S
C353 H414 0.980 . S
C354 C355 1.349 . S
C354 C359 1.367 . S
C354 O401 1.408 . S
C355 C354 1.349 . S
C355 C356 1.407 . S
C355 H418 0.930 . S
C356 C355 1.407 . S
C356 C357 1.449 . S
C356 C360 1.535 . S
C357 C356 1.449 . S
C357 C358 1.384 . S
C357 C382 1.553 . S
C358 C357 1.384 . S
C358 C359 1.364 . S
C358 C361 1.450 . S
C359 C354 1.367 . S
C359 C358 1.364 . S
C359 H419 0.931 . S
C360 C356 1.535 . S
C360 H420 0.959 . S
C360 H421 0.961 . S
C360 H422 0.959 . S
C361 C358 1.450 . S
C361 H423 0.960 . S
C361 H424 0.960 . S
C361 H425 0.960 . S
C362 C363 1.309 . S
C362 C367 1.304 . S
C362 O400 1.435 . S
C363 C362 1.309 . S
C363 C364 1.476 . S
C363 H427 0.930 . S
C364 C363 1.476 . S
C364 C365 1.400 . S
C364 C368 1.567 . S
C365 C364 1.400 . S
C365 C366 1.373 . S
C365 C387 1.432 . S
C366 C365 1.373 . S
C366 C367 1.339 . S
C366 C369 1.530 . S
C367 C362 1.304 . S
C367 C366 1.339 . S
C367 H428 0.930 . S
C368 C364 1.567 . S
C368 H429 0.961 . S
C368 H430 0.960 . S
C368 H431 0.958 . S
C369 C366 1.530 . S
C369 H432 0.961 . S
C369 H433 0.960 . S
C369 H434 0.960 . S
C370 C371 1.530 . S
C370 H436 0.961 . S
C370 H437 0.961 . S
C370 H438 0.959 . S
C371 C370 1.530 . S
C371 O399 1.412 . S
C371 H435 0.980 . S
C372 C373 1.288 . S
C372 C377 1.377 . S
C372 O399 1.393 . S
C373 C372 1.288 . S
C373 C374 1.369 . S
C373 H439 0.932 . S
C374 C373 1.369 . S
C374 C375 1.398 . S
C374 C378 1.527 . S
C375 C374 1.398 . S
C375 C376 1.380 . S
C375 C389 1.497 . S
C376 C375 1.380 . S
C376 C377 1.383 . S
C376 C379 1.603 . S
C377 C372 1.377 . S
C377 C376 1.383 . S
C377 H440 0.929 . S
C378 C374 1.527 . S
C378 H441 0.961 . S
C378 H442 0.959 . S
C378 H443 0.959 . S
C379 C376 1.603 . S
C379 H444 0.960 . S
C379 H445 0.962 . S
C379 H446 0.961 . S
C380 C347 1.587 . S
C380 C381 1.360 . S
C380 C393 1.412 . S
C381 C380 1.360 . S
C381 C382 1.365 . S
C381 H447 0.929 . S
C382 C357 1.553 . S
C382 C381 1.365 . S
C382 C383 1.404 . S
C383 C382 1.404 . S
C383 C384 1.395 . S
C383 C394 1.451 . S
C384 C383 1.395 . S
C384 C385 1.322 . S
C384 H448 0.930 . S
C385 C384 1.322 . S
C385 C386 1.459 . S
C385 H449 0.929 . S
C386 C385 1.459 . S
C386 C387 1.445 . S
C386 C395 1.395 . S
C387 C365 1.432 . S
C387 C386 1.445 . S
C387 C388 1.370 . S
C388 C387 1.370 . S
C388 C389 1.438 . S
C388 H450 0.930 . S
C389 C375 1.497 . S
C389 C388 1.438 . S
C389 C390 1.360 . S
C390 C389 1.360 . S
C390 C391 1.401 . S
C390 C395 1.446 . S
C391 C390 1.401 . S
C391 C392 1.347 . S
C391 H451 0.929 . S
C392 C391 1.347 . S
C392 C393 1.455 . S
C392 H452 0.930 . S
C393 C380 1.412 . S
C393 C392 1.455 . S
C393 C394 1.331 . S
C394 C383 1.451 . S
C394 C393 1.331 . S
C394 C395 1.497 . S
C395 C386 1.395 . S
C395 C390 1.446 . S
C395 C394 1.497 . S
C396 C397 1.582 . S
C396 H453 0.962 . S
C396 H454 0.959 . S
C396 H455 0.958 . S
C397 C396 1.582 . S
C397 O400 1.458 . S
C397 H426 0.980 . S
O398 C343 1.426 . S
O398 C344 1.334 . S
O399 C371 1.412 . S
O399 C372 1.393 . S
O400 C362 1.435 . S
O400 C397 1.458 . S
O401 C353 1.468 . S
O401 C354 1.408 . S
H402 C343 0.980 . S
H403 C342 0.959 . S
H404 C342 0.959 . S
H405 C342 0.960 . S
H406 C345 0.929 . S
H407 C349 0.929 . S
H408 C350 0.959 . S
H409 C350 0.961 . S
H410 C350 0.961 . S
H411 C351 0.960 . S
H412 C351 0.960 . S
H413 C351 0.961 . S
H414 C353 0.980 . S
H415 C352 0.961 . S
H416 C352 0.960 . S
H417 C352 0.959 . S
H418 C355 0.930 . S
H419 C359 0.931 . S
H420 C360 0.959 . S
H421 C360 0.961 . S
H422 C360 0.959 . S
H423 C361 0.960 . S
H424 C361 0.960 . S
H425 C361 0.960 . S
H426 C397 0.980 . S
H427 C363 0.930 . S
H428 C367 0.930 . S
H429 C368 0.961 . S
H430 C368 0.960 . S
H431 C368 0.958 . S
H432 C369 0.961 . S
H433 C369 0.960 . S
H434 C369 0.960 . S
H435 C371 0.980 . S
H436 C370 0.961 . S
H437 C370 0.961 . S
H438 C370 0.959 . S
H439 C373 0.932 . S
H440 C377 0.929 . S
H441 C378 0.961 . S
H442 C378 0.959 . S
H443 C378 0.959 . S
H444 C379 0.960 . S
H445 C379 0.962 . S
H446 C379 0.961 . S
H447 C381 0.929 . S
H448 C384 0.930 . S
H449 C385 0.929 . S
H450 C388 0.930 . S
H451 C391 0.929 . S
H452 C392 0.930 . S
H453 C396 0.962 . S
H454 C396 0.959 . S
H455 C396 0.958 . S
C456 C457 1.560 . S
C456 H517 0.959 . S
C456 H518 0.959 . S
C456 H519 0.960 . S
C457 C456 1.560 . S
C457 O512 1.426 . S
C457 H516 0.980 . S
C458 C459 1.407 . S
C458 C463 1.418 . S
C458 O512 1.334 . S
C459 C458 1.407 . S
C459 C460 1.360 . S
C459 H520 0.929 . S
C460 C459 1.360 . S
C460 C461 1.401 . S
C460 C464 1.527 . S
C461 C460 1.401 . S
C461 C462 1.405 . S
C461 C494 1.587 . S
C462 C461 1.405 . S
C462 C463 1.332 . S
C462 C465 1.496 . S
C463 C458 1.418 . S
C463 C462 1.332 . S
C463 H521 0.929 . S
C464 C460 1.527 . S
C464 H522 0.959 . S
C464 H523 0.961 . S
C464 H524 0.961 . S
C465 C462 1.496 . S
C465 H525 0.960 . S
C465 H526 0.960 . S
C465 H527 0.961 . S
C466 C467 1.517 . S
C466 H529 0.961 . S
C466 H530 0.960 . S
C466 H531 0.959 . S
C467 C466 1.517 . S
C467 O515 1.468 . S
C467 H528 0.980 . S
C468 C469 1.349 . S
C468 C473 1.367 . S
C468 O515 1.408 1_545 S
C469 C468 1.349 . S
C469 C470 1.407 . S
C469 H532 0.930 . S
C470 C469 1.407 . S
C470 C471 1.449 . S
C470 C474 1.535 . S
C471 C470 1.449 . S
C471 C472 1.384 . S
C471 C496 1.553 . S
C472 C471 1.384 . S
C472 C473 1.364 . S
C472 C475 1.450 . S
C473 C468 1.367 . S
C473 C472 1.364 . S
C473 H533 0.931 . S
C474 C470 1.535 . S
C474 H534 0.959 . S
C474 H535 0.961 . S
C474 H536 0.959 . S
C475 C472 1.450 . S
C475 H537 0.960 . S
C475 H538 0.960 . S
C475 H539 0.960 . S
C476 C477 1.309 . S
C476 C481 1.304 . S
C476 O514 1.435 1_545 S
C477 C476 1.309 . S
C477 C478 1.476 . S
C477 H541 0.930 1_545 S
C478 C477 1.476 . S
C478 C479 1.400 . S
C478 C482 1.567 . S
C479 C478 1.400 . S
C479 C480 1.373 . S
C479 C501 1.432 . S
C480 C479 1.373 . S
C480 C481 1.339 . S
C480 C483 1.530 . S
C481 C476 1.304 . S
C481 C480 1.339 . S
C481 H542 0.930 . S
C482 C478 1.567 . S
C482 H543 0.961 . S
C482 H544 0.960 . S
C482 H545 0.958 . S
C483 C480 1.530 . S
C483 H546 0.961 1_655 S
C483 H547 0.960 . S
C483 H548 0.960 . S
C484 C485 1.530 . S
C484 H550 0.961 . S
C484 H551 0.961 . S
C484 H552 0.959 . S
C485 C484 1.530 . S
C485 O513 1.412 . S
C485 H549 0.980 . S
C486 C487 1.288 . S
C486 C491 1.377 . S
C486 O513 1.393 . S
C487 C486 1.288 . S
C487 C488 1.369 . S
C487 H553 0.932 . S
C488 C487 1.369 . S
C488 C489 1.398 . S
C488 C492 1.527 . S
C489 C488 1.398 . S
C489 C490 1.380 . S
C489 C503 1.497 . S
C490 C489 1.380 . S
C490 C491 1.383 . S
C490 C493 1.603 . S
C491 C486 1.377 . S
C491 C490 1.383 . S
C491 H554 0.929 . S
C492 C488 1.527 . S
C492 H555 0.961 . S
C492 H556 0.959 . S
C492 H557 0.959 . S
C493 C490 1.603 . S
C493 H558 0.960 . S
C493 H559 0.962 . S
C493 H560 0.961 . S
C494 C461 1.587 . S
C494 C495 1.360 . S
C494 C507 1.412 . S
C495 C494 1.360 . S
C495 C496 1.365 . S
C495 H561 0.929 . S
C496 C471 1.553 . S
C496 C495 1.365 . S
C496 C497 1.404 . S
C497 C496 1.404 . S
C497 C498 1.395 . S
C497 C508 1.451 . S
C498 C497 1.395 . S
C498 C499 1.322 . S
C498 H562 0.930 . S
C499 C498 1.322 . S
C499 C500 1.459 . S
C499 H563 0.929 . S
C500 C499 1.459 . S
C500 C501 1.445 . S
C500 C509 1.395 . S
C501 C479 1.432 . S
C501 C500 1.445 . S
C501 C502 1.370 . S
C502 C501 1.370 . S
C502 C503 1.438 . S
C502 H564 0.930 . S
C503 C489 1.497 . S
C503 C502 1.438 . S
C503 C504 1.360 . S
C504 C503 1.360 . S
C504 C505 1.401 . S
C504 C509 1.446 . S
C505 C504 1.401 . S
C505 C506 1.347 . S
C505 H565 0.929 . S
C506 C505 1.347 . S
C506 C507 1.455 . S
C506 H566 0.930 . S
C507 C494 1.412 . S
C507 C506 1.455 . S
C507 C508 1.331 . S
C508 C497 1.451 . S
C508 C507 1.331 . S
C508 C509 1.497 . S
C509 C500 1.395 . S
C509 C504 1.446 . S
C509 C508 1.497 . S
C510 C511 1.582 . S
C510 H567 0.962 . S
C510 H568 0.959 . S
C510 H569 0.981 . S
C511 C510 1.582 . S
C511 O514 1.458 . S
C511 H540 0.980 . S
O512 C457 1.426 . S
O512 C458 1.334 . S
O513 C485 1.412 . S
O513 C486 1.393 . S
O514 C476 1.435 1_565 S
O514 C511 1.458 . S
O515 C467 1.468 . S
O515 C468 1.408 1_565 S
H516 C457 0.980 . S
H517 C456 0.959 . S
H518 C456 0.959 . S
H519 C456 0.960 . S
H520 C459 0.929 . S
H521 C463 0.929 . S
H522 C464 0.959 . S
H523 C464 0.961 . S
H524 C464 0.961 . S
H525 C465 0.960 . S
H526 C465 0.960 . S
H527 C465 0.961 . S
H528 C467 0.980 . S
H529 C466 0.961 . S
H530 C466 0.960 . S
H531 C466 0.959 . S
H532 C469 0.930 . S
H533 C473 0.931 . S
H534 C474 0.959 . S
H535 C474 0.961 . S
H536 C474 0.959 . S
H537 C475 0.960 . S
H538 C475 0.960 . S
H539 C475 0.960 . S
H540 C511 0.980 . S
H541 C477 0.930 1_565 S
H542 C481 0.930 . S
H543 C482 0.961 . S
H544 C482 0.960 . S
H545 C482 0.958 . S
H546 C483 0.961 1_455 S
H547 C483 0.960 . S
H548 C483 0.960 . S
H549 C485 0.980 . S
H550 C484 0.961 . S
H551 C484 0.961 . S
H552 C484 0.959 . S
H553 C487 0.932 . S
H554 C491 0.929 . S
H555 C492 0.961 . S
H556 C492 0.959 . S
H557 C492 0.959 . S
H558 C493 0.960 . S
H559 C493 0.962 . S
H560 C493 0.961 . S
H561 C495 0.929 . S
H562 C498 0.930 . S
H563 C499 0.929 . S
H564 C502 0.930 . S
H565 C505 0.929 . S
H566 C506 0.930 . S
H567 C510 0.962 . S
H568 C510 0.959 . S
H569 C510 0.981 . S
C570 C571 1.560 . S
C570 H631 0.959 . S
C570 H632 0.959 . S
C570 H633 0.960 . S
C571 C570 1.560 . S
C571 O626 1.426 . S
C571 H630 0.980 . S
C572 C573 1.407 . S
C572 C577 1.418 . S
C572 O626 1.334 . S
C573 C572 1.407 . S
C573 C574 1.360 . S
C573 H634 0.929 . S
C574 C573 1.360 . S
C574 C575 1.401 . S
C574 C578 1.527 . S
C575 C574 1.401 . S
C575 C576 1.405 . S
C575 C608 1.587 . S
C576 C575 1.405 . S
C576 C577 1.332 . S
C576 C579 1.496 . S
C577 C572 1.418 . S
C577 C576 1.332 . S
C577 H635 0.929 . S
C578 C574 1.527 . S
C578 H636 0.959 . S
C578 H637 0.961 . S
C578 H638 0.961 . S
C579 C576 1.496 . S
C579 H639 0.960 . S
C579 H640 0.960 . S
C579 H641 0.961 . S
C580 C581 1.517 . S
C580 H643 0.961 . S
C580 H644 0.960 . S
C580 H645 0.959 . S
C581 C580 1.517 . S
C581 O629 1.468 . S
C581 H642 0.980 . S
C582 C583 1.349 . S
C582 C587 1.367 . S
C582 O629 1.408 1_565 S
C583 C582 1.349 . S
C583 C584 1.407 . S
C583 H646 0.930 . S
C584 C583 1.407 . S
C584 C585 1.449 . S
C584 C588 1.535 . S
C585 C584 1.449 . S
C585 C586 1.384 . S
C585 C610 1.553 . S
C586 C585 1.384 . S
C586 C587 1.364 . S
C586 C589 1.450 . S
C587 C582 1.367 . S
C587 C586 1.364 . S
C587 H647 0.931 . S
C588 C584 1.535 . S
C588 H648 0.959 . S
C588 H649 0.961 . S
C588 H650 0.959 . S
C589 C586 1.450 . S
C589 H651 0.960 . S
C589 H652 0.960 . S
C589 H653 0.960 . S
C590 C591 1.309 . S
C590 C595 1.304 . S
C590 O628 1.435 1_565 S
C591 C590 1.309 . S
C591 C592 1.476 . S
C591 H655 0.930 1_565 S
C592 C591 1.476 . S
C592 C593 1.400 . S
C592 C596 1.567 . S
C593 C592 1.400 . S
C593 C594 1.373 . S
C593 C615 1.432 . S
C594 C593 1.373 . S
C594 C595 1.339 . S
C594 C597 1.530 . S
C595 C590 1.304 . S
C595 C594 1.339 . S
C595 H656 0.930 . S
C596 C592 1.567 . S
C596 H657 0.961 . S
C596 H658 0.960 . S
C596 H659 0.958 . S
C597 C594 1.530 . S
C597 H660 0.961 1_655 S
C597 H661 0.960 . S
C597 H662 0.960 . S
C598 C599 1.530 . S
C598 H664 0.961 . S
C598 H665 0.961 . S
C598 H666 0.959 . S
C599 C598 1.530 . S
C599 O627 1.412 . S
C599 H663 0.980 . S
C600 C601 1.288 . S
C600 C605 1.377 . S
C600 O627 1.393 . S
C601 C600 1.288 . S
C601 C602 1.369 . S
C601 H667 0.932 . S
C602 C601 1.369 . S
C602 C603 1.398 . S
C602 C606 1.527 . S
C603 C602 1.398 . S
C603 C604 1.380 . S
C603 C617 1.497 . S
C604 C603 1.380 . S
C604 C605 1.383 . S
C604 C607 1.603 . S
C605 C600 1.377 . S
C605 C604 1.383 . S
C605 H668 0.929 . S
C606 C602 1.527 . S
C606 H669 0.961 . S
C606 H670 0.959 . S
C606 H671 0.959 . S
C607 C604 1.603 . S
C607 H672 0.960 . S
C607 H673 0.962 . S
C607 H674 0.961 . S
C608 C575 1.587 . S
C608 C609 1.360 . S
C608 C621 1.412 . S
C609 C608 1.360 . S
C609 C610 1.365 . S
C609 H675 0.929 . S
C610 C585 1.553 . S
C610 C609 1.365 . S
C610 C611 1.404 . S
C611 C610 1.404 . S
C611 C612 1.395 . S
C611 C622 1.451 . S
C612 C611 1.395 . S
C612 C613 1.322 . S
C612 H676 0.930 . S
C613 C612 1.322 . S
C613 C614 1.459 . S
C613 H677 0.929 . S
C614 C613 1.459 . S
C614 C615 1.445 . S
C614 C623 1.395 . S
C615 C593 1.432 . S
C615 C614 1.445 . S
C615 C616 1.370 . S
C616 C615 1.370 . S
C616 C617 1.438 . S
C616 H678 0.930 . S
C617 C603 1.497 . S
C617 C616 1.438 . S
C617 C618 1.360 . S
C618 C617 1.360 . S
C618 C619 1.401 . S
C618 C623 1.446 . S
C619 C618 1.401 . S
C619 C620 1.347 . S
C619 H679 0.929 . S
C620 C619 1.347 . S
C620 C621 1.455 . S
C620 H680 0.930 . S
C621 C608 1.412 . S
C621 C620 1.455 . S
C621 C622 1.331 . S
C622 C611 1.451 . S
C622 C621 1.331 . S
C622 C623 1.497 . S
C623 C614 1.395 . S
C623 C618 1.446 . S
C623 C622 1.497 . S
C624 C625 1.582 . S
C624 H681 0.962 . S
C624 H682 0.959 . S
C624 H683 0.958 . S
C625 C624 1.582 . S
C625 O628 1.458 . S
C625 H654 0.980 . S
O626 C571 1.426 . S
O626 C572 1.334 . S
O627 C599 1.412 . S
O627 C600 1.393 . S
O628 C590 1.435 1_545 S
O628 C625 1.458 . S
O629 C581 1.468 . S
O629 C582 1.408 1_545 S
H630 C571 0.980 . S
H631 C570 0.959 . S
H632 C570 0.959 . S
H633 C570 0.960 . S
H634 C573 0.929 . S
H635 C577 0.929 . S
H636 C578 0.959 . S
H637 C578 0.961 . S
H638 C578 0.961 . S
H639 C579 0.960 . S
H640 C579 0.960 . S
H641 C579 0.961 . S
H642 C581 0.980 . S
H643 C580 0.961 . S
H644 C580 0.960 . S
H645 C580 0.959 . S
H646 C583 0.930 . S
H647 C587 0.931 . S
H648 C588 0.959 . S
H649 C588 0.961 . S
H650 C588 0.959 . S
H651 C589 0.960 . S
H652 C589 0.960 . S
H653 C589 0.960 . S
H654 C625 0.980 . S
H655 C591 0.930 1_545 S
H656 C595 0.930 . S
H657 C596 0.961 . S
H658 C596 0.960 . S
H659 C596 0.958 . S
H660 C597 0.961 1_455 S
H661 C597 0.960 . S
H662 C597 0.960 . S
H663 C599 0.980 . S
H664 C598 0.961 . S
H665 C598 0.961 . S
H666 C598 0.959 . S
H667 C601 0.932 . S
H668 C605 0.929 . S
H669 C606 0.961 . S
H670 C606 0.959 . S
H671 C606 0.959 . S
H672 C607 0.960 . S
H673 C607 0.962 . S
H674 C607 0.961 . S
H675 C609 0.929 . S
H676 C612 0.930 . S
H677 C613 0.929 . S
H678 C616 0.930 . S
H679 C619 0.929 . S
H680 C620 0.930 . S
H681 C624 0.962 . S
H682 C624 0.959 . S
H683 C624 0.958 . S
C684 C685 1.560 . S
C684 H745 0.959 . S
C684 H746 0.959 . S
C684 H747 0.960 . S
C685 C684 1.560 . S
C685 O740 1.426 . S
C685 H744 0.980 . S
C686 C687 1.407 . S
C686 C691 1.418 . S
C686 O740 1.334 . S
C687 C686 1.407 . S
C687 C688 1.360 . S
C687 H748 0.929 . S
C688 C687 1.360 . S
C688 C689 1.401 . S
C688 C692 1.527 . S
C689 C688 1.401 . S
C689 C690 1.405 . S
C689 C722 1.587 . S
C690 C689 1.405 . S
C690 C691 1.332 . S
C690 C693 1.496 . S
C691 C686 1.418 . S
C691 C690 1.332 . S
C691 H749 0.929 . S
C692 C688 1.527 . S
C692 H750 0.959 . S
C692 H751 0.961 . S
C692 H752 0.961 . S
C693 C690 1.496 . S
C693 H753 0.960 . S
C693 H754 0.960 . S
C693 H755 0.961 . S
C694 C695 1.517 . S
C694 H757 0.961 . S
C694 H758 0.960 . S
C694 H759 0.959 . S
C695 C694 1.517 . S
C695 O743 1.468 . S
C695 H756 0.980 . S
C696 C697 1.349 . S
C696 C701 1.367 . S
C696 O743 1.408 . S
C697 C696 1.349 . S
C697 C698 1.407 . S
C697 H760 0.930 . S
C698 C697 1.407 . S
C698 C699 1.449 . S
C698 C702 1.535 . S
C699 C698 1.449 . S
C699 C700 1.384 . S
C699 C724 1.553 . S
C700 C699 1.384 . S
C700 C701 1.364 . S
C700 C703 1.450 . S
C701 C696 1.367 . S
C701 C700 1.364 . S
C701 H761 0.931 . S
C702 C698 1.535 . S
C702 H762 0.959 . S
C702 H763 0.961 . S
C702 H764 0.959 . S
C703 C700 1.450 . S
C703 H765 0.960 . S
C703 H766 0.960 . S
C703 H767 0.960 . S
C704 C705 1.309 . S
C704 C709 1.304 . S
C704 O742 1.435 . S
C705 C704 1.309 . S
C705 C706 1.476 . S
C705 H769 0.930 . S
C706 C705 1.476 . S
C706 C707 1.400 . S
C706 C710 1.567 . S
C707 C706 1.400 . S
C707 C708 1.373 . S
C707 C729 1.432 . S
C708 C707 1.373 . S
C708 C709 1.339 . S
C708 C711 1.530 1_556 S
C709 C704 1.304 . S
C709 C708 1.339 . S
C709 H770 0.930 . S
C710 C706 1.567 . S
C710 H771 0.961 . S
C710 H772 0.960 . S
C710 H773 0.958 . S
C711 C708 1.530 1_554 S
C711 H774 0.961 . S
C711 H775 0.960 . S
C711 H776 0.960 1_554 S
C712 C713 1.530 . S
C712 H778 0.961 . S
C712 H779 0.961 . S
C712 H780 0.959 . S
C713 C712 1.530 . S
C713 O741 1.412 . S
C713 H777 0.980 . S
C714 C715 1.288 . S
C714 C719 1.377 . S
C714 O741 1.393 . S
C715 C714 1.288 . S
C715 C716 1.369 . S
C715 H781 0.932 . S
C716 C715 1.369 . S
C716 C717 1.398 . S
C716 C720 1.527 . S
C717 C716 1.398 . S
C717 C718 1.380 . S
C717 C731 1.497 . S
C718 C717 1.380 . S
C718 C719 1.383 . S
C718 C721 1.603 . S
C719 C714 1.377 . S
C719 C718 1.383 . S
C719 H782 0.929 . S
C720 C716 1.527 . S
C720 H783 0.961 . S
C720 H784 0.959 . S
C720 H785 0.959 . S
C721 C718 1.603 . S
C721 H786 0.960 . S
C721 H787 0.962 . S
C721 H788 0.961 1_556 S
C722 C689 1.587 . S
C722 C723 1.360 . S
C722 C735 1.412 . S
C723 C722 1.360 . S
C723 C724 1.365 . S
C723 H789 0.929 . S
C724 C699 1.553 . S
C724 C723 1.365 . S
C724 C725 1.404 . S
C725 C724 1.404 . S
C725 C726 1.395 . S
C725 C736 1.451 . S
C726 C725 1.395 . S
C726 C727 1.322 . S
C726 H790 0.930 . S
C727 C726 1.322 . S
C727 C728 1.459 . S
C727 H791 0.929 . S
C728 C727 1.459 . S
C728 C729 1.445 1_554 S
C728 C737 1.395 . S
C729 C707 1.432 . S
C729 C728 1.445 1_556 S
C729 C730 1.370 . S
C730 C729 1.370 . S
C730 C731 1.438 . S
C730 H792 0.930 . S
C731 C717 1.497 . S
C731 C730 1.438 . S
C731 C732 1.360 1_556 S
C732 C731 1.360 1_554 S
C732 C733 1.401 . S
C732 C737 1.446 . S
C733 C732 1.401 . S
C733 C734 1.347 . S
C733 H793 0.929 . S
C734 C733 1.347 . S
C734 C735 1.455 . S
C734 H794 0.930 . S
C735 C722 1.412 . S
C735 C734 1.455 . S
C735 C736 1.331 . S
C736 C725 1.451 . S
C736 C735 1.331 . S
C736 C737 1.497 . S
C737 C728 1.395 . S
C737 C732 1.446 . S
C737 C736 1.497 . S
C738 C739 1.582 . S
C738 H795 0.962 . S
C738 H796 0.959 . S
C738 H797 0.958 . S
C739 C738 1.582 . S
C739 O742 1.458 . S
C739 H768 0.980 . S
O740 C685 1.426 . S
O740 C686 1.334 . S
O741 C713 1.412 . S
O741 C714 1.393 . S
O742 C704 1.435 . S
O742 C739 1.458 . S
O743 C695 1.468 . S
O743 C696 1.408 . S
H744 C685 0.980 . S
H745 C684 0.959 . S
H746 C684 0.959 . S
H747 C684 0.960 . S
H748 C687 0.929 . S
H749 C691 0.929 . S
H750 C692 0.959 . S
H751 C692 0.961 . S
H752 C692 0.961 . S
H753 C693 0.960 . S
H754 C693 0.960 . S
H755 C693 0.961 . S
H756 C695 0.980 . S
H757 C694 0.961 . S
H758 C694 0.960 . S
H759 C694 0.959 . S
H760 C697 0.930 . S
H761 C701 0.931 . S
H762 C702 0.959 . S
H763 C702 0.961 . S
H764 C702 0.959 . S
H765 C703 0.960 . S
H766 C703 0.960 . S
H767 C703 0.960 . S
H768 C739 0.980 . S
H769 C705 0.930 . S
H770 C709 0.930 . S
H771 C710 0.961 . S
H772 C710 0.960 . S
H773 C710 0.958 . S
H774 C711 0.961 . S
H775 C711 0.960 . S
H776 C711 0.960 1_556 S
H777 C713 0.980 . S
H778 C712 0.961 . S
H779 C712 0.961 . S
H780 C712 0.959 . S
H781 C715 0.932 . S
H782 C719 0.929 . S
H783 C720 0.961 . S
H784 C720 0.959 . S
H785 C720 0.959 . S
H786 C721 0.960 . S
H787 C721 0.962 . S
H788 C721 0.961 1_554 S
H789 C723 0.929 . S
H790 C726 0.930 . S
H791 C727 0.929 . S
H792 C730 0.930 . S
H793 C733 0.929 . S
H794 C734 0.930 . S
H795 C738 0.962 . S
H796 C738 0.959 . S
H797 C738 0.958 . S
C798 C799 1.560 . S
C798 H859 0.959 . S
C798 H860 0.959 . S
C798 H861 0.960 . S
C799 C798 1.560 . S
C799 O854 1.426 . S
C799 H858 0.980 . S
C800 C801 1.407 . S
C800 C805 1.418 1_655 S
C800 O854 1.334 . S
C801 C800 1.407 . S
C801 C802 1.360 1_655 S
C801 H862 0.929 . S
C802 C801 1.360 1_455 S
C802 C803 1.401 . S
C802 C806 1.527 . S
C803 C802 1.401 . S
C803 C804 1.405 . S
C803 C836 1.587 . S
C804 C803 1.405 . S
C804 C805 1.332 . S
C804 C807 1.496 . S
C805 C800 1.418 1_455 S
C805 C804 1.332 . S
C805 H863 0.929 . S
C806 C802 1.527 . S
C806 H864 0.959 . S
C806 H865 0.961 . S
C806 H866 0.961 . S
C807 C804 1.496 . S
C807 H867 0.960 . S
C807 H868 0.960 . S
C807 H869 0.961 . S
C808 C809 1.517 . S
C808 H871 0.961 . S
C808 H872 0.960 . S
C808 H873 0.959 . S
C809 C808 1.517 . S
C809 O857 1.468 . S
C809 H870 0.980 . S
C810 C811 1.349 . S
C810 C815 1.367 . S
C810 O857 1.408 . S
C811 C810 1.349 . S
C811 C812 1.407 . S
C811 H874 0.930 . S
C812 C811 1.407 . S
C812 C813 1.449 . S
C812 C816 1.535 . S
C813 C812 1.449 . S
C813 C814 1.384 . S
C813 C838 1.553 . S
C814 C813 1.384 . S
C814 C815 1.364 . S
C814 C817 1.450 . S
C815 C810 1.367 . S
C815 C814 1.364 . S
C815 H875 0.931 . S
C816 C812 1.535 . S
C816 H876 0.959 . S
C816 H877 0.961 . S
C816 H878 0.959 . S
C817 C814 1.450 . S
C817 H879 0.960 . S
C817 H880 0.960 . S
C817 H881 0.960 . S
C818 C819 1.309 . S
C818 C823 1.304 . S
C818 O856 1.435 . S
C819 C818 1.309 . S
C819 C820 1.476 . S
C819 H883 0.930 . S
C820 C819 1.476 . S
C820 C821 1.400 . S
C820 C824 1.567 . S
C821 C820 1.400 . S
C821 C822 1.373 . S
C821 C843 1.432 . S
C822 C821 1.373 . S
C822 C823 1.339 . S
C822 C825 1.530 . S
C823 C818 1.304 . S
C823 C822 1.339 . S
C823 H884 0.930 . S
C824 C820 1.567 . S
C824 H885 0.961 . S
C824 H886 0.960 . S
C824 H887 0.958 . S
C825 C822 1.530 . S
C825 H888 0.961 . S
C825 H889 0.960 . S
C825 H890 0.960 . S
C826 C827 1.530 . S
C826 H892 0.961 . S
C826 H893 0.961 . S
C826 H894 0.959 . S
C827 C826 1.530 . S
C827 O855 1.412 . S
C827 H891 0.980 . S
C828 C829 1.288 1_655 S
C828 C833 1.377 . S
C828 O855 1.393 . S
C829 C828 1.288 1_455 S
C829 C830 1.369 . S
C829 H895 0.932 . S
C830 C829 1.369 . S
C830 C831 1.398 . S
C830 C834 1.527 . S
C831 C830 1.398 . S
C831 C832 1.380 . S
C831 C845 1.497 . S
C832 C831 1.380 . S
C832 C833 1.383 1_455 S
C832 C835 1.603 . S
C833 C828 1.377 . S
C833 C832 1.383 1_655 S
C833 H896 0.929 . S
C834 C830 1.527 . S
C834 H897 0.961 . S
C834 H898 0.959 . S
C834 H899 0.959 . S
C835 C832 1.603 . S
C835 H900 0.960 . S
C835 H901 0.962 . S
C835 H902 0.961 . S
C836 C803 1.587 . S
C836 C837 1.360 . S
C836 C849 1.412 . S
C837 C836 1.360 . S
C837 C838 1.365 . S
C837 H903 0.929 . S
C838 C813 1.553 . S
C838 C837 1.365 . S
C838 C839 1.404 . S
C839 C838 1.404 . S
C839 C840 1.395 . S
C839 C850 1.451 . S
C840 C839 1.395 . S
C840 C841 1.322 . S
C840 H904 0.930 . S
C841 C840 1.322 . S
C841 C842 1.459 . S
C841 H905 0.929 . S
C842 C841 1.459 . S
C842 C843 1.445 . S
C842 C851 1.395 . S
C843 C821 1.432 . S
C843 C842 1.445 . S
C843 C844 1.370 . S
C844 C843 1.370 . S
C844 C845 1.438 . S
C844 H906 0.930 . S
C845 C831 1.497 . S
C845 C844 1.438 . S
C845 C846 1.360 . S
C846 C845 1.360 . S
C846 C847 1.401 . S
C846 C851 1.446 . S
C847 C846 1.401 . S
C847 C848 1.347 . S
C847 H907 0.929 . S
C848 C847 1.347 . S
C848 C849 1.455 . S
C848 H908 0.930 . S
C849 C836 1.412 . S
C849 C848 1.455 . S
C849 C850 1.331 . S
C850 C839 1.451 . S
C850 C849 1.331 . S
C850 C851 1.497 . S
C851 C842 1.395 . S
C851 C846 1.446 . S
C851 C850 1.497 . S
C852 C853 1.582 . S
C852 H909 0.962 . S
C852 H910 0.959 . S
C852 H911 0.958 . S
C853 C852 1.582 . S
C853 O856 1.458 . S
C853 H882 0.980 . S
O854 C799 1.426 . S
O854 C800 1.334 . S
O855 C827 1.412 . S
O855 C828 1.393 . S
O856 C818 1.435 . S
O856 C853 1.458 . S
O857 C809 1.468 . S
O857 C810 1.408 . S
H858 C799 0.980 . S
H859 C798 0.959 . S
H860 C798 0.959 . S
H861 C798 0.960 . S
H862 C801 0.929 . S
H863 C805 0.929 . S
H864 C806 0.959 . S
H865 C806 0.961 . S
H866 C806 0.961 . S
H867 C807 0.960 . S
H868 C807 0.960 . S
H869 C807 0.961 . S
H870 C809 0.980 . S
H871 C808 0.961 . S
H872 C808 0.960 . S
H873 C808 0.959 . S
H874 C811 0.930 . S
H875 C815 0.931 . S
H876 C816 0.959 . S
H877 C816 0.961 . S
H878 C816 0.959 . S
H879 C817 0.960 . S
H880 C817 0.960 . S
H881 C817 0.960 . S
H882 C853 0.980 . S
H883 C819 0.930 . S
H884 C823 0.930 . S
H885 C824 0.961 . S
H886 C824 0.960 . S
H887 C824 0.958 . S
H888 C825 0.961 . S
H889 C825 0.960 . S
H890 C825 0.960 . S
H891 C827 0.980 . S
H892 C826 0.961 . S
H893 C826 0.961 . S
H894 C826 0.959 . S
H895 C829 0.932 . S
H896 C833 0.929 . S
H897 C834 0.961 . S
H898 C834 0.959 . S
H899 C834 0.959 . S
H900 C835 0.960 . S
H901 C835 0.962 . S
H902 C835 0.961 . S
H903 C837 0.929 . S
H904 C840 0.930 . S
H905 C841 0.929 . S
H906 C844 0.930 . S
H907 C847 0.929 . S
H908 C848 0.930 . S
H909 C852 0.962 . S
H910 C852 0.959 . S
H911 C852 0.958 . S
C912 O939 1.312 . S
C912 O940 1.208 . S
C913 O934 1.331 1_655 S
C913 O937 1.244 . S
C914 O936 1.264 1_655 S
C914 O938 1.273 . S
Mg915 O917 1.936 . S
Mg915 O924 2.081 . S
Mg915 O926 2.023 . S
Mg915 O930 2.031 . S
Mg915 O939 2.291 . S
Mg916 O917 1.963 . S
Mg916 O927 1.942 . S
Mg916 O928 1.955 . S
Mg916 O935 1.986 . S
O917 Mg915 1.936 . S
O917 Mg916 1.963 . S
O917 Mg918 1.915 . S
Mg918 O917 1.915 . S
Mg918 O919 1.915 . S
Mg918 O923 2.013 . S
Mg918 O929 2.114 . S
Mg918 O933 2.013 . S
Mg918 O939 2.114 . S
O919 Mg918 1.915 . S
O919 Mg920 1.936 . S
O919 Mg921 1.963 1_455 S
Mg920 O919 1.936 . S
Mg920 O929 2.291 . S
Mg920 O934 2.081 . S
Mg920 O936 2.023 . S
Mg920 O940 2.031 . S
Mg921 O919 1.963 1_655 S
Mg921 O925 1.986 . S
Mg921 O937 1.942 . S
Mg921 O938 1.955 . S
C922 O933 1.191 . S
C922 O935 1.307 . S
O923 Mg918 2.013 . S
O923 C942 1.191 . S
O924 Mg915 2.081 . S
O924 C932 1.331 . S
O925 Mg921 1.986 . S
O925 C942 1.307 1_655 S
O926 Mg915 2.023 . S
O926 C941 1.264 . S
O927 Mg916 1.942 . S
O927 C932 1.244 . S
O928 Mg916 1.955 . S
O928 C941 1.273 . S
O929 Mg918 2.114 . S
O929 Mg920 2.291 . S
O929 C931 1.312 . S
O930 Mg915 2.031 . S
O930 C931 1.208 . S
C931 O929 1.312 . S
C931 O930 1.208 . S
C932 O924 1.331 . S
C932 O927 1.244 . S
O933 Mg918 2.013 . S
O933 C922 1.191 . S
O934 C913 1.331 1_455 S
O934 Mg920 2.081 . S
O935 Mg916 1.986 . S
O935 C922 1.307 . S
O936 C914 1.264 1_455 S
O936 Mg920 2.023 . S
O937 C913 1.244 . S
O937 Mg921 1.942 . S
O938 C914 1.273 . S
O938 Mg921 1.955 . S
O939 C912 1.312 . S
O939 Mg915 2.291 . S
O939 Mg918 2.114 . S
O940 C912 1.208 . S
O940 Mg920 2.031 . S
C941 O926 1.264 . S
C941 O928 1.273 . S
C942 O923 1.191 . S
C942 O925 1.307 1_455 S
C943 O970 1.312 . S
C943 O971 1.208 . S
C944 O965 1.331 . S
C944 O968 1.244 . S
C945 O967 1.264 . S
C945 O969 1.273 . S
Mg946 O948 1.936 . S
Mg946 O955 2.081 . S
Mg946 O957 2.023 . S
Mg946 O961 2.031 . S
Mg946 O970 2.291 . S
Mg947 O948 1.963 . S
Mg947 O958 1.942 . S
Mg947 O959 1.955 . S
Mg947 O966 1.986 . S
O948 Mg946 1.936 . S
O948 Mg947 1.963 . S
O948 Mg949 1.915 . S
Mg949 O948 1.915 . S
Mg949 O950 1.915 . S
Mg949 O954 2.013 . S
Mg949 O960 2.114 . S
Mg949 O964 2.013 . S
Mg949 O970 2.114 . S
O950 Mg949 1.915 . S
O950 Mg951 1.936 . S
O950 Mg952 1.963 . S
Mg951 O950 1.936 . S
Mg951 O960 2.291 . S
Mg951 O965 2.081 . S
Mg951 O967 2.023 . S
Mg951 O971 2.031 . S
Mg952 O950 1.963 . S
Mg952 O956 1.986 . S
Mg952 O968 1.942 . S
Mg952 O969 1.955 . S
C953 O964 1.191 . S
C953 O966 1.307 . S
O954 Mg949 2.013 . S
O954 C973 1.191 . S
O955 Mg946 2.081 . S
O955 C963 1.331 . S
O956 Mg952 1.986 . S
O956 C973 1.307 . S
O957 Mg946 2.023 . S
O957 C972 1.264 . S
O958 Mg947 1.942 . S
O958 C963 1.244 . S
O959 Mg947 1.955 . S
O959 C972 1.273 . S
O960 Mg949 2.114 . S
O960 Mg951 2.291 . S
O960 C962 1.312 . S
O961 Mg946 2.031 . S
O961 C962 1.208 . S
C962 O960 1.312 . S
C962 O961 1.208 . S
C963 O955 1.331 . S
C963 O958 1.244 . S
O964 Mg949 2.013 . S
O964 C953 1.191 . S
O965 C944 1.331 . S
O965 Mg951 2.081 . S
O966 Mg947 1.986 . S
O966 C953 1.307 . S
O967 C945 1.264 . S
O967 Mg951 2.023 . S
O968 C944 1.244 . S
O968 Mg952 1.942 . S
O969 C945 1.273 . S
O969 Mg952 1.955 . S
O970 C943 1.312 . S
O970 Mg946 2.291 . S
O970 Mg949 2.114 . S
O971 C943 1.208 . S
O971 Mg951 2.031 . S
C972 O957 1.264 . S
C972 O959 1.273 . S
C973 O954 1.191 . S
C973 O956 1.307 . S
C974 O1001 1.312 . S
C974 O1002 1.208 . S
C975 O996 1.331 . S
C975 O999 1.244 . S
C976 O998 1.264 . S
C976 O1000 1.273 . S
Mg977 O979 1.936 . S
Mg977 O986 2.081 . S
Mg977 O988 2.023 . S
Mg977 O992 2.031 . S
Mg977 O1001 2.291 . S
Mg978 O979 1.963 . S
Mg978 O989 1.942 . S
Mg978 O990 1.955 . S
Mg978 O997 1.986 . S
O979 Mg977 1.936 . S
O979 Mg978 1.963 . S
O979 Mg980 1.915 . S
Mg980 O979 1.915 . S
Mg980 O981 1.915 . S
Mg980 O985 2.013 . S
Mg980 O991 2.114 . S
Mg980 O995 2.013 . S
Mg980 O1001 2.114 . S
O981 Mg980 1.915 . S
O981 Mg982 1.936 . S
O981 Mg983 1.963 . S
Mg982 O981 1.936 . S
Mg982 O991 2.291 . S
Mg982 O996 2.081 . S
Mg982 O998 2.023 . S
Mg982 O1002 2.031 . S
Mg983 O981 1.963 . S
Mg983 O987 1.986 . S
Mg983 O999 1.942 . S
Mg983 O1000 1.955 . S
C984 O995 1.191 . S
C984 O997 1.307 . S
O985 Mg980 2.013 . S
O985 C1004 1.191 . S
O986 Mg977 2.081 . S
O986 C994 1.331 . S
O987 Mg983 1.986 . S
O987 C1004 1.307 . S
O988 Mg977 2.023 . S
O988 C1003 1.264 . S
O989 Mg978 1.942 . S
O989 C994 1.244 . S
O990 Mg978 1.955 . S
O990 C1003 1.273 . S
O991 Mg980 2.114 . S
O991 Mg982 2.291 . S
O991 C993 1.312 . S
O992 Mg977 2.031 . S
O992 C993 1.208 . S
C993 O991 1.312 . S
C993 O992 1.208 . S
C994 O986 1.331 . S
C994 O989 1.244 . S
O995 Mg980 2.013 . S
O995 C984 1.191 . S
O996 C975 1.331 . S
O996 Mg982 2.081 . S
O997 Mg978 1.986 . S
O997 C984 1.307 . S
O998 C976 1.264 . S
O998 Mg982 2.023 . S
O999 C975 1.244 . S
O999 Mg983 1.942 . S
O1000 C976 1.273 . S
O1000 Mg983 1.955 . S
O1001 C974 1.312 . S
O1001 Mg977 2.291 . S
O1001 Mg980 2.114 . S
O1002 C974 1.208 . S
O1002 Mg982 2.031 . S
C1003 O988 1.264 . S
C1003 O990 1.273 . S
C1004 O985 1.191 . S
C1004 O987 1.307 . S
C1005 O1032 1.312 . S
C1005 O1033 1.208 . S
C1006 O1027 1.331 . S
C1006 O1030 1.244 . S
C1007 O1029 1.264 . S
C1007 O1031 1.273 . S
Mg1008 O1010 1.936 . S
Mg1008 O1017 2.081 . S
Mg1008 O1019 2.039 . S
Mg1008 O1023 2.031 . S
Mg1008 O1032 2.291 . S
Mg1009 O1010 1.963 1_655 S
Mg1009 O1020 1.942 . S
Mg1009 O1021 1.955 . S
Mg1009 O1028 1.986 . S
O1010 Mg1008 1.936 . S
O1010 Mg1009 1.963 1_455 S
O1010 Mg1011 1.915 . S
Mg1011 O1010 1.915 . S
Mg1011 O1012 1.915 . S
Mg1011 O1016 2.013 . S
Mg1011 O1022 2.114 . S
Mg1011 O1026 2.013 . S
Mg1011 O1032 2.114 . S
O1012 Mg1011 1.915 . S
O1012 Mg1013 1.936 . S
O1012 Mg1014 1.963 . S
Mg1013 O1012 1.936 . S
Mg1013 O1022 2.291 . S
Mg1013 O1027 2.081 . S
Mg1013 O1029 2.023 . S
Mg1013 O1033 2.031 . S
Mg1014 O1012 1.963 . S
Mg1014 O1018 1.986 . S
Mg1014 O1030 1.942 . S
Mg1014 O1031 1.955 . S
C1015 O1026 1.191 . S
C1015 O1028 1.307 1_455 S
O1016 Mg1011 2.013 . S
O1016 C1035 1.191 . S
O1017 Mg1008 2.081 . S
O1017 C1025 1.331 1_455 S
O1018 Mg1014 1.986 . S
O1018 C1035 1.307 . S
O1019 Mg1008 2.039 . S
O1019 C1034 1.245 1_455 S
O1020 Mg1009 1.942 . S
O1020 C1025 1.244 . S
O1021 Mg1009 1.955 . S
O1021 C1034 1.273 . S
O1022 Mg1011 2.114 . S
O1022 Mg1013 2.291 . S
O1022 C1024 1.312 . S
O1023 Mg1008 2.031 . S
O1023 C1024 1.208 . S
C1024 O1022 1.312 . S
C1024 O1023 1.208 . S
C1025 O1017 1.331 1_655 S
C1025 O1020 1.244 . S
O1026 Mg1011 2.013 . S
O1026 C1015 1.191 . S
O1027 C1006 1.331 . S
O1027 Mg1013 2.081 . S
O1028 Mg1009 1.986 . S
O1028 C1015 1.307 1_655 S
O1029 C1007 1.264 . S
O1029 Mg1013 2.023 . S
O1030 C1006 1.244 . S
O1030 Mg1014 1.942 . S
O1031 C1007 1.273 . S
O1031 Mg1014 1.955 . S
O1032 C1005 1.312 . S
O1032 Mg1008 2.291 . S
O1032 Mg1011 2.114 . S
O1033 C1005 1.208 . S
O1033 Mg1013 2.031 . S
C1034 O1019 1.245 1_655 S
C1034 O1021 1.273 . S
C1035 O1016 1.191 . S
C1035 O1018 1.307 . S
H1036 C1042 0.930 . S
H1037 C1045 0.930 . S
H1038 C1046 0.930 . S
H1039 C1047 0.930 . S
H1040 C1050 0.930 . S
H1041 C1051 0.930 . S
C1042 H1036 0.930 . S
C1042 C1043 1.355 . S
C1042 C1044 1.415 . S
C1043 C1042 1.355 . S
C1043 C1045 1.419 . S
C1044 C1042 1.415 . S
C1044 C1049 1.425 . S
C1044 C1051 1.409 . S
C1045 H1037 0.930 . S
C1045 C1043 1.419 . S
C1045 C1046 1.362 . S
C1046 H1038 0.930 . S
C1046 C1045 1.362 . S
C1046 C1049 1.409 . S
C1047 H1039 0.930 . S
C1047 C1048 1.355 . S
C1047 C1049 1.415 . S
C1048 C1047 1.355 . S
C1048 C1050 1.419 . S
C1049 C1044 1.425 . S
C1049 C1046 1.409 . S
C1049 C1047 1.415 . S
C1050 H1040 0.930 . S
C1050 C1048 1.419 . S
C1050 C1051 1.362 . S
C1051 H1041 0.930 . S
C1051 C1044 1.409 . S
C1051 C1050 1.362 . S
H1052 C1058 0.930 . S
H1053 C1061 0.930 . S
H1054 C1062 0.930 . S
H1055 C1063 0.930 . S
H1056 C1066 0.930 . S
H1057 C1067 0.930 . S
C1058 H1052 0.930 . S
C1058 C1059 1.355 . S
C1058 C1060 1.415 1_565 S
C1059 C1058 1.355 . S
C1059 C1061 1.419 . S
C1060 C1058 1.415 1_545 S
C1060 C1065 1.425 . S
C1060 C1067 1.409 . S
C1061 H1053 0.930 . S
C1061 C1059 1.419 . S
C1061 C1062 1.362 1_565 S
C1062 H1054 0.930 . S
C1062 C1061 1.362 1_545 S
C1062 C1065 1.409 . S
C1063 H1055 0.930 . S
C1063 C1064 1.355 . S
C1063 C1065 1.415 . S
C1064 C1063 1.355 . S
C1064 C1066 1.419 . S
C1065 C1060 1.425 . S
C1065 C1062 1.409 . S
C1065 C1063 1.415 . S
C1066 H1056 0.930 . S
C1066 C1064 1.419 . S
C1066 C1067 1.362 . S
C1067 H1057 0.930 . S
C1067 C1060 1.409 . S
C1067 C1066 1.362 . S
H1068 C1074 0.930 . S
H1069 C1077 0.930 . S
H1070 C1078 0.930 . S
H1071 C1079 0.930 . S
H1072 C1082 0.930 . S
H1073 C1083 0.930 . S
C1074 H1068 0.930 . S
C1074 C1075 1.355 . S
C1074 C1076 1.415 . S
C1075 C1074 1.355 . S
C1075 C1077 1.419 . S
C1076 C1074 1.415 . S
C1076 C1081 1.425 . S
C1076 C1083 1.409 . S
C1077 H1069 0.930 . S
C1077 C1075 1.419 . S
C1077 C1078 1.362 . S
C1078 H1070 0.930 . S
C1078 C1077 1.362 . S
C1078 C1081 1.409 . S
C1079 H1071 0.930 . S
C1079 C1080 1.355 . S
C1079 C1081 1.415 . S
C1080 C1079 1.355 . S
C1080 C1082 1.419 . S
C1081 C1076 1.425 . S
C1081 C1078 1.409 . S
C1081 C1079 1.415 . S
C1082 H1072 0.930 . S
C1082 C1080 1.419 . S
C1082 C1083 1.362 . S
C1083 H1073 0.930 . S
C1083 C1076 1.409 . S
C1083 C1082 1.362 . S
H1084 C1090 0.930 . S
H1085 C1093 0.930 . S
H1086 C1094 0.930 . S
H1087 C1095 0.930 . S
H1088 C1098 0.930 . S
H1089 C1099 0.930 1_545 S
C1090 H1084 0.930 . S
C1090 C1091 1.355 . S
C1090 C1092 1.415 1_545 S
C1091 C1090 1.355 . S
C1091 C1093 1.419 . S
C1092 C1090 1.415 1_565 S
C1092 C1097 1.425 . S
C1092 C1099 1.409 . S
C1093 H1085 0.930 . S
C1093 C1091 1.419 . S
C1093 C1094 1.362 1_545 S
C1094 H1086 0.930 . S
C1094 C1093 1.362 1_565 S
C1094 C1097 1.409 . S
C1095 H1087 0.930 . S
C1095 C1096 1.355 . S
C1095 C1097 1.415 . S
C1096 C1095 1.355 . S
C1096 C1098 1.419 . S
C1097 C1092 1.425 . S
C1097 C1094 1.409 . S
C1097 C1095 1.415 . S
C1098 H1088 0.930 . S
C1098 C1096 1.419 . S
C1098 C1099 1.362 . S
C1099 H1089 0.930 1_565 S
C1099 C1092 1.409 . S
C1099 C1098 1.362 . S
H1100 C1106 0.930 . S
H1101 C1109 0.930 . S
H1102 C1110 0.930 . S
H1103 C1111 0.930 . S
H1104 C1114 0.930 . S
H1105 C1115 0.930 . S
C1106 H1100 0.930 . S
C1106 C1107 1.355 . S
C1106 C1108 1.415 . S
C1107 C1106 1.355 . S
C1107 C1109 1.419 . S
C1108 C1106 1.415 . S
C1108 C1113 1.425 . S
C1108 C1115 1.409 . S
C1109 H1101 0.930 . S
C1109 C1107 1.419 . S
C1109 C1110 1.362 . S
C1110 H1102 0.930 . S
C1110 C1109 1.362 . S
C1110 C1113 1.409 . S
C1111 H1103 0.930 . S
C1111 C1112 1.355 . S
C1111 C1113 1.415 . S
C1112 C1111 1.355 . S
C1112 C1114 1.419 . S
C1113 C1108 1.425 . S
C1113 C1110 1.409 . S
C1113 C1111 1.415 . S
C1114 H1104 0.930 . S
C1114 C1112 1.419 . S
C1114 C1115 1.362 . S
C1115 H1105 0.930 . S
C1115 C1108 1.409 . S
C1115 C1114 1.362 . S
H1116 C1122 0.930 . S
H1117 C1125 0.933 . S
H1118 C1126 0.930 . S
H1119 C1127 0.930 . S
H1120 C1130 0.930 . S
H1121 C1131 0.930 . S
C1122 H1116 0.930 . S
C1122 C1123 1.355 . S
C1122 C1124 1.415 1_565 S
C1123 C1122 1.355 . S
C1123 C1125 1.430 . S
C1124 C1122 1.415 1_545 S
C1124 C1129 1.425 . S
C1124 C1131 1.409 . S
C1125 H1117 0.933 . S
C1125 C1123 1.430 . S
C1125 C1126 1.349 1_565 S
C1126 H1118 0.930 . S
C1126 C1125 1.349 1_545 S
C1126 C1129 1.409 . S
C1127 H1119 0.930 . S
C1127 C1128 1.355 . S
C1127 C1129 1.415 . S
C1128 C1127 1.355 . S
C1128 C1130 1.419 . S
C1129 C1124 1.425 . S
C1129 C1126 1.409 . S
C1129 C1127 1.415 . S
C1130 H1120 0.930 . S
C1130 C1128 1.419 . S
C1130 C1131 1.362 . S
C1131 H1121 0.930 . S
C1131 C1124 1.409 . S
C1131 C1130 1.362 . S
H1132 C1138 0.930 . S
H1133 C1141 0.930 . S
H1134 C1142 0.930 . S
H1135 C1143 0.930 . S
H1136 C1146 0.930 . S
H1137 C1147 0.930 . S
C1138 H1132 0.930 . S
C1138 C1139 1.355 . S
C1138 C1140 1.415 . S
C1139 C1138 1.355 . S
C1139 C1141 1.419 . S
C1140 C1138 1.415 . S
C1140 C1145 1.425 . S
C1140 C1147 1.409 . S
C1141 H1133 0.930 . S
C1141 C1139 1.419 . S
C1141 C1142 1.362 . S
C1142 H1134 0.930 . S
C1142 C1141 1.362 . S
C1142 C1145 1.409 . S
C1143 H1135 0.930 . S
C1143 C1144 1.355 . S
C1143 C1145 1.415 . S
C1144 C1143 1.355 . S
C1144 C1146 1.419 . S
C1145 C1140 1.425 . S
C1145 C1142 1.409 . S
C1145 C1143 1.415 . S
C1146 H1136 0.930 . S
C1146 C1144 1.419 . S
C1146 C1147 1.362 . S
C1147 H1137 0.930 . S
C1147 C1140 1.409 . S
C1147 C1146 1.362 . S
H1148 C1154 0.930 . S
H1149 C1157 0.930 . S
H1150 C1158 0.930 . S
H1151 C1159 0.930 . S
H1152 C1162 0.930 . S
H1153 C1163 0.930 . S
C1154 H1148 0.930 . S
C1154 C1155 1.355 . S
C1154 C1156 1.415 1_545 S
C1155 C1154 1.355 . S
C1155 C1157 1.419 . S
C1156 C1154 1.415 1_565 S
C1156 C1161 1.425 . S
C1156 C1163 1.409 . S
C1157 H1149 0.930 . S
C1157 C1155 1.419 . S
C1157 C1158 1.362 . S
C1158 H1150 0.930 . S
C1158 C1157 1.362 . S
C1158 C1161 1.409 1_545 S
C1159 H1151 0.930 . S
C1159 C1160 1.355 . S
C1159 C1161 1.415 . S
C1160 C1159 1.355 . S
C1160 C1162 1.419 . S
C1161 C1156 1.425 . S
C1161 C1158 1.409 1_565 S
C1161 C1159 1.415 . S
C1162 H1152 0.930 . S
C1162 C1160 1.419 . S
C1162 C1163 1.362 . S
C1163 H1153 0.930 . S
C1163 C1156 1.409 . S
C1163 C1162 1.362 . S
H1164 C1170 0.930 . S
H1165 C1173 0.930 . S
H1166 C1174 0.930 . S
H1167 C1175 0.930 . S
H1168 C1178 0.930 . S
H1169 C1179 0.930 . S
C1170 H1164 0.930 . S
C1170 C1171 1.355 . S
C1170 C1172 1.415 . S
C1171 C1170 1.355 . S
C1171 C1173 1.419 . S
C1172 C1170 1.415 . S
C1172 C1177 1.425 . S
C1172 C1179 1.409 . S
C1173 H1165 0.930 . S
C1173 C1171 1.419 . S
C1173 C1174 1.362 . S
C1174 H1166 0.930 . S
C1174 C1173 1.362 . S
C1174 C1177 1.409 . S
C1175 H1167 0.930 . S
C1175 C1176 1.355 . S
C1175 C1177 1.415 . S
C1176 C1175 1.355 . S
C1176 C1178 1.419 . S
C1177 C1172 1.425 . S
C1177 C1174 1.409 . S
C1177 C1175 1.415 . S
C1178 H1168 0.930 . S
C1178 C1176 1.419 . S
C1178 C1179 1.362 . S
C1179 H1169 0.930 . S
C1179 C1172 1.409 . S
C1179 C1178 1.362 . S
H1180 C1186 0.930 . S
H1181 C1189 0.930 . S
H1182 C1190 0.930 . S
H1183 C1191 0.930 . S
H1184 C1194 0.930 . S
H1185 C1195 0.930 . S
C1186 H1180 0.930 . S
C1186 C1187 1.355 . S
C1186 C1188 1.415 . S
C1187 C1186 1.355 . S
C1187 C1189 1.419 . S
C1188 C1186 1.415 . S
C1188 C1193 1.425 . S
C1188 C1195 1.409 . S
C1189 H1181 0.930 . S
C1189 C1187 1.419 . S
C1189 C1190 1.362 . S
C1190 H1182 0.930 . S
C1190 C1189 1.362 . S
C1190 C1193 1.409 . S
C1191 H1183 0.930 . S
C1191 C1192 1.355 . S
C1191 C1193 1.415 . S
C1192 C1191 1.355 . S
C1192 C1194 1.419 . S
C1193 C1188 1.425 . S
C1193 C1190 1.409 . S
C1193 C1191 1.415 . S
C1194 H1184 0.930 . S
C1194 C1192 1.419 . S
C1194 C1195 1.362 . S
C1195 H1185 0.930 . S
C1195 C1188 1.409 . S
C1195 C1194 1.362 . S
H1196 C1202 0.930 . S
H1197 C1205 0.930 . S
H1198 C1206 0.930 . S
H1199 C1207 0.930 1_455 S
H1200 C1210 0.930 . S
H1201 C1211 0.930 . S
C1202 H1196 0.930 . S
C1202 C1203 1.355 . S
C1202 C1204 1.415 . S
C1203 C1202 1.355 . S
C1203 C1205 1.419 . S
C1204 C1202 1.415 . S
C1204 C1209 1.425 . S
C1204 C1211 1.409 . S
C1205 H1197 0.930 . S
C1205 C1203 1.419 . S
C1205 C1206 1.362 . S
C1206 H1198 0.930 . S
C1206 C1205 1.362 . S
C1206 C1209 1.409 . S
C1207 H1199 0.930 1_655 S
C1207 C1208 1.355 1_655 S
C1207 C1209 1.415 . S
C1208 C1207 1.355 1_455 S
C1208 C1210 1.419 1_455 S
C1209 C1204 1.425 . S
C1209 C1206 1.409 . S
C1209 C1207 1.415 . S
C1210 H1200 0.930 . S
C1210 C1208 1.419 1_655 S
C1210 C1211 1.362 . S
C1211 H1201 0.930 . S
C1211 C1204 1.409 . S
C1211 C1210 1.362 . S
H1212 C1218 0.930 . S
H1213 C1221 0.930 . S
H1214 C1222 0.930 1_455 S
H1215 C1223 0.930 . S
H1216 C1226 0.930 . S
H1217 C1227 0.930 . S
C1218 H1212 0.930 . S
C1218 C1219 1.355 . S
C1218 C1220 1.415 . S
C1219 C1218 1.355 . S
C1219 C1221 1.419 . S
C1220 C1218 1.415 . S
C1220 C1225 1.425 . S
C1220 C1227 1.409 . S
C1221 H1213 0.930 . S
C1221 C1219 1.419 . S
C1221 C1222 1.362 . S
C1222 H1214 0.930 1_655 S
C1222 C1221 1.362 . S
C1222 C1225 1.409 . S
C1223 H1215 0.930 . S
C1223 C1224 1.355 1_455 S
C1223 C1225 1.415 1_455 S
C1224 C1223 1.355 1_655 S
C1224 C1226 1.419 . S
C1225 C1220 1.425 . S
C1225 C1222 1.409 . S
C1225 C1223 1.415 1_655 S
C1226 H1216 0.930 . S
C1226 C1224 1.419 . S
C1226 C1227 1.362 . S
C1227 H1217 0.930 . S
C1227 C1220 1.409 . S
C1227 C1226 1.362 . S
H1228 C1234 0.930 . S
H1229 C1237 0.930 . S
H1230 C1238 0.930 . S
H1231 C1239 0.930 . S
H1232 C1242 0.930 . S
H1233 C1243 0.930 . S
C1234 H1228 0.930 . S
C1234 C1235 1.355 . S
C1234 C1236 1.415 . S
C1235 C1234 1.355 . S
C1235 C1237 1.419 . S
C1236 C1234 1.415 . S
C1236 C1241 1.425 . S
C1236 C1243 1.409 . S
C1237 H1229 0.930 . S
C1237 C1235 1.419 . S
C1237 C1238 1.362 . S
C1238 H1230 0.930 . S
C1238 C1237 1.362 . S
C1238 C1241 1.409 . S
C1239 H1231 0.930 . S
C1239 C1240 1.355 . S
C1239 C1241 1.415 . S
C1240 C1239 1.355 . S
C1240 C1242 1.419 . S
C1241 C1236 1.425 . S
C1241 C1238 1.409 . S
C1241 C1239 1.415 . S
C1242 H1232 0.930 . S
C1242 C1240 1.419 . S
C1242 C1243 1.362 . S
C1243 H1233 0.930 . S
C1243 C1236 1.409 . S
C1243 C1242 1.362 . S
H1244 C1250 0.930 . S
H1245 C1253 0.930 . S
H1246 C1254 0.930 . S
H1247 C1255 0.930 . S
H1248 C1258 0.930 1_455 S
H1249 C1259 0.930 . S
C1250 H1244 0.930 . S
C1250 C1251 1.355 . S
C1250 C1252 1.415 . S
C1251 C1250 1.355 . S
C1251 C1253 1.419 . S
C1252 C1250 1.415 . S
C1252 C1257 1.425 . S
C1252 C1259 1.409 . S
C1253 H1245 0.930 . S
C1253 C1251 1.419 . S
C1253 C1254 1.362 . S
C1254 H1246 0.930 . S
C1254 C1253 1.362 . S
C1254 C1257 1.409 . S
C1255 H1247 0.930 . S
C1255 C1256 1.355 . S
C1255 C1257 1.415 . S
C1256 C1255 1.355 . S
C1256 C1258 1.419 . S
C1257 C1252 1.425 . S
C1257 C1254 1.409 . S
C1257 C1255 1.415 . S
C1258 H1248 0.930 1_655 S
C1258 C1256 1.419 . S
C1258 C1259 1.362 . S
C1259 H1249 0.930 . S
C1259 C1252 1.409 . S
C1259 C1258 1.362 . S
H1260 C1266 0.930 . S
H1261 C1269 0.930 . S
H1262 C1270 0.930 . S
H1263 C1271 0.930 1_455 S
H1264 C1274 0.930 . S
H1265 C1275 0.930 . S
C1266 H1260 0.930 . S
C1266 C1267 1.355 . S
C1266 C1268 1.415 . S
C1267 C1266 1.355 . S
C1267 C1269 1.419 . S
C1268 C1266 1.415 . S
C1268 C1273 1.425 . S
C1268 C1275 1.409 . S
C1269 H1261 0.930 . S
C1269 C1267 1.419 . S
C1269 C1270 1.362 . S
C1270 H1262 0.930 . S
C1270 C1269 1.362 . S
C1270 C1273 1.409 . S
C1271 H1263 0.930 1_655 S
C1271 C1272 1.355 . S
C1271 C1273 1.415 . S
C1272 C1271 1.355 . S
C1272 C1274 1.419 . S
C1273 C1268 1.425 . S
C1273 C1270 1.409 . S
C1273 C1271 1.415 . S
C1274 H1264 0.930 . S
C1274 C1272 1.419 . S
C1274 C1275 1.362 . S
C1275 H1265 0.930 . S
C1275 C1268 1.409 . S
C1275 C1274 1.362 . S
H1276 C1282 0.930 . S
H1277 C1285 0.930 . S
H1278 C1286 0.930 . S
H1279 C1287 0.930 . S
H1280 C1290 0.930 . S
H1281 C1291 0.930 . S
C1282 H1276 0.930 . S
C1282 C1283 1.355 . S
C1282 C1284 1.415 . S
C1283 C1282 1.355 . S
C1283 C1285 1.419 . S
C1284 C1282 1.415 . S
C1284 C1289 1.425 . S
C1284 C1291 1.409 . S
C1285 H1277 0.930 . S
C1285 C1283 1.419 . S
C1285 C1286 1.362 . S
C1286 H1278 0.930 . S
C1286 C1285 1.362 . S
C1286 C1289 1.409 . S
C1287 H1279 0.930 . S
C1287 C1288 1.355 . S
C1287 C1289 1.415 . S
C1288 C1287 1.355 . S
C1288 C1290 1.419 . S
C1289 C1284 1.425 . S
C1289 C1286 1.409 . S
C1289 C1287 1.415 . S
C1290 H1280 0.930 . S
C1290 C1288 1.419 . S
C1290 C1291 1.362 . S
C1291 H1281 0.930 . S
C1291 C1284 1.409 . S
C1291 C1290 1.362 . S
H1292 C1298 0.930 . S
H1293 C1301 0.930 . S
H1294 C1302 0.930 . S
H1295 C1303 0.930 . S
H1296 C1306 0.930 . S
H1297 C1307 0.930 . S
C1298 H1292 0.930 . S
C1298 C1299 1.355 . S
C1298 C1300 1.415 . S
C1299 C1298 1.355 . S
C1299 C1301 1.419 . S
C1300 C1298 1.415 . S
C1300 C1305 1.425 . S
C1300 C1307 1.409 . S
C1301 H1293 0.930 . S
C1301 C1299 1.419 . S
C1301 C1302 1.362 . S
C1302 H1294 0.930 . S
C1302 C1301 1.362 . S
C1302 C1305 1.409 . S
C1303 H1295 0.930 . S
C1303 C1304 1.355 . S
C1303 C1305 1.415 . S
C1304 C1303 1.355 . S
C1304 C1306 1.419 . S
C1305 C1300 1.425 . S
C1305 C1302 1.409 . S
C1305 C1303 1.415 . S
C1306 H1296 0.930 . S
C1306 C1304 1.419 . S
C1306 C1307 1.362 . S
C1307 H1297 0.930 . S
C1307 C1300 1.409 . S
C1307 C1306 1.362 . S
H1308 C1314 0.930 . S
H1309 C1317 0.930 . S
H1310 C1318 0.930 . S
H1311 C1319 0.930 . S
H1312 C1322 0.930 . S
H1313 C1323 0.930 . S
C1314 H1308 0.930 . S
C1314 C1315 1.355 . S
C1314 C1316 1.415 . S
C1315 C1314 1.355 . S
C1315 C1317 1.419 . S
C1316 C1314 1.415 . S
C1316 C1321 1.425 . S
C1316 C1323 1.409 . S
C1317 H1309 0.930 . S
C1317 C1315 1.419 . S
C1317 C1318 1.362 . S
C1318 H1310 0.930 . S
C1318 C1317 1.362 . S
C1318 C1321 1.409 . S
C1319 H1311 0.930 . S
C1319 C1320 1.355 . S
C1319 C1321 1.415 . S
C1320 C1319 1.355 . S
C1320 C1322 1.419 . S
C1321 C1316 1.425 . S
C1321 C1318 1.409 . S
C1321 C1319 1.415 . S
C1322 H1312 0.930 . S
C1322 C1320 1.419 . S
C1322 C1323 1.362 . S
C1323 H1313 0.930 . S
C1323 C1316 1.409 . S
C1323 C1322 1.362 . S
H1324 C1330 0.930 . S
H1325 C1333 0.930 . S
H1326 C1334 0.930 . S
H1327 C1335 0.930 . S
H1328 C1338 0.930 . S
H1329 C1339 0.930 . S
C1330 H1324 0.930 . S
C1330 C1331 1.355 . S
C1330 C1332 1.415 . S
C1331 C1330 1.355 . S
C1331 C1333 1.419 . S
C1332 C1330 1.415 . S
C1332 C1337 1.425 . S
C1332 C1339 1.409 . S
C1333 H1325 0.930 . S
C1333 C1331 1.419 . S
C1333 C1334 1.362 . S
C1334 H1326 0.930 . S
C1334 C1333 1.362 . S
C1334 C1337 1.409 . S
C1335 H1327 0.930 . S
C1335 C1336 1.355 . S
C1335 C1337 1.415 . S
C1336 C1335 1.355 . S
C1336 C1338 1.419 . S
C1337 C1332 1.425 . S
C1337 C1334 1.409 . S
C1337 C1335 1.415 . S
C1338 H1328 0.930 . S
C1338 C1336 1.419 . S
C1338 C1339 1.362 . S
C1339 H1329 0.930 . S
C1339 C1332 1.409 . S
C1339 C1338 1.362 . S
H1340 C1346 0.930 . S
H1341 C1349 0.930 . S
H1342 C1350 0.930 . S
H1343 C1351 0.930 . S
H1344 C1354 0.930 . S
H1345 C1355 0.930 . S
C1346 H1340 0.930 . S
C1346 C1347 1.355 . S
C1346 C1348 1.415 . S
C1347 C1346 1.355 . S
C1347 C1349 1.419 . S
C1348 C1346 1.415 . S
C1348 C1353 1.425 . S
C1348 C1355 1.409 . S
C1349 H1341 0.930 . S
C1349 C1347 1.419 . S
C1349 C1350 1.362 . S
C1350 H1342 0.930 . S
C1350 C1349 1.362 . S
C1350 C1353 1.409 . S
C1351 H1343 0.930 . S
C1351 C1352 1.355 . S
C1351 C1353 1.415 . S
C1352 C1351 1.355 . S
C1352 C1354 1.419 . S
C1353 C1348 1.425 . S
C1353 C1350 1.409 . S
C1353 C1351 1.415 . S
C1354 H1344 0.930 . S
C1354 C1352 1.419 . S
C1354 C1355 1.362 . S
C1355 H1345 0.930 . S
C1355 C1348 1.409 . S
C1355 C1354 1.362 . S
H1356 C1362 0.930 . S
H1357 C1365 0.930 . S
H1358 C1366 0.930 . S
H1359 C1367 0.930 . S
H1360 C1370 0.930 . S
H1361 C1371 0.930 . S
C1362 H1356 0.930 . S
C1362 C1363 1.355 . S
C1362 C1364 1.415 . S
C1363 C1362 1.355 . S
C1363 C1365 1.419 . S
C1364 C1362 1.415 . S
C1364 C1369 1.425 . S
C1364 C1371 1.409 . S
C1365 H1357 0.930 . S
C1365 C1363 1.419 . S
C1365 C1366 1.362 . S
C1366 H1358 0.930 . S
C1366 C1365 1.362 . S
C1366 C1369 1.409 . S
C1367 H1359 0.930 . S
C1367 C1368 1.355 . S
C1367 C1369 1.415 . S
C1368 C1367 1.355 . S
C1368 C1370 1.419 . S
C1369 C1364 1.425 . S
C1369 C1366 1.409 . S
C1369 C1367 1.415 . S
C1370 H1360 0.930 . S
C1370 C1368 1.419 . S
C1370 C1371 1.362 . S
C1371 H1361 0.930 . S
C1371 C1364 1.409 . S
C1371 C1370 1.362 . S
H1372 C1378 0.930 . S
H1373 C1381 0.930 . S
H1374 C1382 0.930 . S
H1375 C1383 0.930 . S
H1376 C1386 0.930 . S
H1377 C1387 0.930 . S
C1378 H1372 0.930 . S
C1378 C1379 1.355 . S
C1378 C1380 1.415 . S
C1379 C1378 1.355 . S
C1379 C1381 1.419 . S
C1380 C1378 1.415 . S
C1380 C1385 1.425 . S
C1380 C1387 1.409 . S
C1381 H1373 0.930 . S
C1381 C1379 1.419 . S
C1381 C1382 1.362 . S
C1382 H1374 0.930 . S
C1382 C1381 1.362 . S
C1382 C1385 1.409 . S
C1383 H1375 0.930 . S
C1383 C1384 1.355 . S
C1383 C1385 1.415 . S
C1384 C1383 1.355 . S
C1384 C1386 1.419 . S
C1385 C1380 1.425 . S
C1385 C1382 1.409 . S
C1385 C1383 1.415 . S
C1386 H1376 0.930 . S
C1386 C1384 1.419 . S
C1386 C1387 1.362 . S
C1387 H1377 0.930 . S
C1387 C1380 1.409 . S
C1387 C1386 1.362 . S
H1388 C1394 0.930 . S
H1389 C1397 0.930 . S
H1390 C1398 0.930 . S
H1391 C1399 0.930 . S
H1392 C1402 0.930 . S
H1393 C1403 0.930 . S
C1394 H1388 0.930 . S
C1394 C1395 1.355 . S
C1394 C1396 1.415 . S
C1395 C1394 1.355 . S
C1395 C1397 1.419 . S
C1396 C1394 1.415 . S
C1396 C1401 1.425 . S
C1396 C1403 1.409 . S
C1397 H1389 0.930 . S
C1397 C1395 1.419 . S
C1397 C1398 1.362 . S
C1398 H1390 0.930 . S
C1398 C1397 1.362 . S
C1398 C1401 1.409 . S
C1399 H1391 0.930 . S
C1399 C1400 1.355 . S
C1399 C1401 1.415 . S
C1400 C1399 1.355 . S
C1400 C1402 1.419 . S
C1401 C1396 1.425 . S
C1401 C1398 1.409 . S
C1401 C1399 1.415 . S
C1402 H1392 0.930 . S
C1402 C1400 1.419 . S
C1402 C1403 1.362 . S
C1403 H1393 0.930 . S
C1403 C1396 1.409 . S
C1403 C1402 1.362 . S
H1404 C1410 0.930 . S
H1405 C1413 0.930 . S
H1406 C1414 0.930 . S
H1407 C1415 0.930 . S
H1408 C1418 0.930 . S
H1409 C1419 0.930 . S
C1410 H1404 0.930 . S
C1410 C1411 1.355 . S
C1410 C1412 1.415 . S
C1411 C1410 1.355 . S
C1411 C1413 1.419 . S
C1412 C1410 1.415 . S
C1412 C1417 1.425 . S
C1412 C1419 1.409 . S
C1413 H1405 0.930 . S
C1413 C1411 1.419 . S
C1413 C1414 1.362 . S
C1414 H1406 0.930 . S
C1414 C1413 1.362 . S
C1414 C1417 1.409 . S
C1415 H1407 0.930 . S
C1415 C1416 1.355 . S
C1415 C1417 1.415 . S
C1416 C1415 1.355 . S
C1416 C1418 1.419 . S
C1417 C1412 1.425 . S
C1417 C1414 1.409 . S
C1417 C1415 1.415 . S
C1418 H1408 0.930 . S
C1418 C1416 1.419 . S
C1418 C1419 1.362 . S
C1419 H1409 0.930 . S
C1419 C1412 1.409 . S
C1419 C1418 1.362 . S
H1420 C1426 0.930 . S
H1421 C1429 0.930 . S
H1422 C1430 0.930 . S
H1423 C1431 0.930 . S
H1424 C1434 0.930 . S
H1425 C1435 0.930 . S
C1426 H1420 0.930 . S
C1426 C1427 1.355 . S
C1426 C1428 1.415 . S
C1427 C1426 1.355 . S
C1427 C1429 1.419 . S
C1428 C1426 1.415 . S
C1428 C1433 1.425 . S
C1428 C1435 1.409 . S
C1429 H1421 0.930 . S
C1429 C1427 1.419 . S
C1429 C1430 1.362 . S
C1430 H1422 0.930 . S
C1430 C1429 1.362 . S
C1430 C1433 1.409 . S
C1431 H1423 0.930 . S
C1431 C1432 1.355 . S
C1431 C1433 1.415 . S
C1432 C1431 1.355 . S
C1432 C1434 1.419 . S
C1433 C1428 1.425 . S
C1433 C1430 1.409 . S
C1433 C1431 1.415 . S
C1434 H1424 0.930 . S
C1434 C1432 1.419 . S
C1434 C1435 1.362 . S
C1435 H1425 0.930 . S
C1435 C1428 1.409 . S
C1435 C1434 1.362 . S
H1436 C1442 0.930 . S
H1437 C1445 0.930 . S
H1438 C1446 0.930 . S
H1439 C1447 0.930 . S
H1440 C1450 0.930 . S
H1441 C1451 0.930 . S
C1442 H1436 0.930 . S
C1442 C1443 1.355 . S
C1442 C1444 1.415 . S
C1443 C1442 1.355 . S
C1443 C1445 1.419 . S
C1444 C1442 1.415 . S
C1444 C1449 1.425 . S
C1444 C1451 1.409 . S
C1445 H1437 0.930 . S
C1445 C1443 1.419 . S
C1445 C1446 1.362 . S
C1446 H1438 0.930 . S
C1446 C1445 1.362 . S
C1446 C1449 1.409 . S
C1447 H1439 0.930 . S
C1447 C1448 1.355 . S
C1447 C1449 1.415 . S
C1448 C1447 1.355 . S
C1448 C1450 1.419 . S
C1449 C1444 1.425 . S
C1449 C1446 1.409 . S
C1449 C1447 1.415 . S
C1450 H1440 0.930 . S
C1450 C1448 1.419 . S
C1450 C1451 1.362 . S
C1451 H1441 0.930 . S
C1451 C1444 1.409 . S
C1451 C1450 1.362 . S
H1452 C1458 0.930 . S
H1453 C1461 0.930 . S
H1454 C1462 0.930 . S
H1455 C1463 0.930 . S
H1456 C1466 0.930 . S
H1457 C1467 0.930 . S
C1458 H1452 0.930 . S
C1458 C1459 1.355 . S
C1458 C1460 1.415 . S
C1459 C1458 1.355 . S
C1459 C1461 1.419 . S
C1460 C1458 1.415 . S
C1460 C1465 1.425 . S
C1460 C1467 1.409 . S
C1461 H1453 0.930 . S
C1461 C1459 1.419 . S
C1461 C1462 1.362 . S
C1462 H1454 0.930 . S
C1462 C1461 1.362 . S
C1462 C1465 1.409 . S
C1463 H1455 0.930 . S
C1463 C1464 1.355 . S
C1463 C1465 1.415 . S
C1464 C1463 1.355 . S
C1464 C1466 1.419 . S
C1465 C1460 1.425 . S
C1465 C1462 1.409 . S
C1465 C1463 1.415 . S
C1466 H1456 0.930 . S
C1466 C1464 1.419 . S
C1466 C1467 1.362 . S
C1467 H1457 0.930 . S
C1467 C1460 1.409 . S
C1467 C1466 1.362 . S
H1468 C1474 0.930 . S
H1469 C1477 0.930 . S
H1470 C1478 0.930 . S
H1471 C1479 0.930 . S
H1472 C1482 0.930 . S
H1473 C1483 0.930 . S
C1474 H1468 0.930 . S
C1474 C1475 1.355 . S
C1474 C1476 1.415 . S
C1475 C1474 1.355 . S
C1475 C1477 1.419 . S
C1476 C1474 1.415 . S
C1476 C1481 1.425 . S
C1476 C1483 1.409 . S
C1477 H1469 0.930 . S
C1477 C1475 1.419 . S
C1477 C1478 1.362 . S
C1478 H1470 0.930 . S
C1478 C1477 1.362 . S
C1478 C1481 1.409 . S
C1479 H1471 0.930 . S
C1479 C1480 1.355 . S
C1479 C1481 1.415 . S
C1480 C1479 1.355 . S
C1480 C1482 1.419 . S
C1481 C1476 1.425 . S
C1481 C1478 1.409 . S
C1481 C1479 1.415 . S
C1482 H1472 0.930 . S
C1482 C1480 1.419 . S
C1482 C1483 1.362 . S
C1483 H1473 0.930 . S
C1483 C1476 1.409 . S
C1483 C1482 1.362 . S
H1484 C1490 0.930 . S
H1485 C1493 0.930 . S
H1486 C1494 0.930 . S
H1487 C1495 0.930 . S
H1488 C1498 0.930 . S
H1489 C1499 0.930 . S
C1490 H1484 0.930 . S
C1490 C1491 1.355 . S
C1490 C1492 1.415 . S
C1491 C1490 1.355 . S
C1491 C1493 1.419 . S
C1492 C1490 1.415 . S
C1492 C1497 1.425 . S
C1492 C1499 1.409 . S
C1493 H1485 0.930 . S
C1493 C1491 1.419 . S
C1493 C1494 1.362 . S
C1494 H1486 0.930 . S
C1494 C1493 1.362 . S
C1494 C1497 1.409 . S
C1495 H1487 0.930 . S
C1495 C1496 1.355 . S
C1495 C1497 1.415 . S
C1496 C1495 1.355 . S
C1496 C1498 1.419 . S
C1497 C1492 1.425 . S
C1497 C1494 1.409 . S
C1497 C1495 1.415 . S
C1498 H1488 0.930 . S
C1498 C1496 1.419 . S
C1498 C1499 1.362 . S
C1499 H1489 0.930 . S
C1499 C1492 1.409 . S
C1499 C1498 1.362 . S
H1500 C1506 0.930 . S
H1501 C1509 0.930 . S
H1502 C1510 0.930 . S
H1503 C1511 0.930 . S
H1504 C1514 0.930 . S
H1505 C1515 0.930 . S
C1506 H1500 0.930 . S
C1506 C1507 1.355 . S
C1506 C1508 1.415 . S
C1507 C1506 1.355 . S
C1507 C1509 1.419 . S
C1508 C1506 1.415 . S
C1508 C1513 1.425 . S
C1508 C1515 1.409 . S
C1509 H1501 0.930 . S
C1509 C1507 1.419 . S
C1509 C1510 1.362 . S
C1510 H1502 0.930 . S
C1510 C1509 1.362 . S
C1510 C1513 1.409 . S
C1511 H1503 0.930 . S
C1511 C1512 1.355 . S
C1511 C1513 1.415 . S
C1512 C1511 1.355 . S
C1512 C1514 1.419 . S
C1513 C1508 1.425 . S
C1513 C1510 1.409 . S
C1513 C1511 1.415 . S
C1514 H1504 0.930 . S
C1514 C1512 1.419 . S
C1514 C1515 1.362 . S
C1515 H1505 0.930 . S
C1515 C1508 1.409 . S
C1515 C1514 1.362 . S
H1516 C1522 0.930 . S
H1517 C1525 0.930 . S
H1518 C1526 0.930 . S
H1519 C1527 0.930 . S
H1520 C1530 0.930 . S
H1521 C1531 0.930 . S
C1522 H1516 0.930 . S
C1522 C1523 1.355 . S
C1522 C1524 1.415 . S
C1523 C1522 1.355 . S
C1523 C1525 1.419 . S
C1524 C1522 1.415 . S
C1524 C1529 1.425 . S
C1524 C1531 1.409 . S
C1525 H1517 0.930 . S
C1525 C1523 1.419 . S
C1525 C1526 1.362 . S
C1526 H1518 0.930 . S
C1526 C1525 1.362 . S
C1526 C1529 1.409 . S
C1527 H1519 0.930 . S
C1527 C1528 1.355 . S
C1527 C1529 1.415 . S
C1528 C1527 1.355 . S
C1528 C1530 1.419 . S
C1529 C1524 1.425 . S
C1529 C1526 1.409 . S
C1529 C1527 1.415 . S
C1530 H1520 0.930 . S
C1530 C1528 1.419 . S
C1530 C1531 1.362 . S
C1531 H1521 0.930 . S
C1531 C1524 1.409 . S
C1531 C1530 1.362 . S
H1532 C1538 0.930 . S
H1533 C1541 0.930 . S
H1534 C1542 0.930 . S
H1535 C1543 0.930 . S
H1536 C1546 0.930 . S
H1537 C1547 0.930 . S
C1538 H1532 0.930 . S
C1538 C1539 1.355 . S
C1538 C1540 1.415 . S
C1539 C1538 1.355 . S
C1539 C1541 1.419 . S
C1540 C1538 1.415 . S
C1540 C1545 1.425 . S
C1540 C1547 1.409 . S
C1541 H1533 0.930 . S
C1541 C1539 1.419 . S
C1541 C1542 1.362 . S
C1542 H1534 0.930 . S
C1542 C1541 1.362 . S
C1542 C1545 1.409 . S
C1543 H1535 0.930 . S
C1543 C1544 1.355 . S
C1543 C1545 1.415 . S
C1544 C1543 1.355 . S
C1544 C1546 1.419 . S
C1545 C1540 1.425 . S
C1545 C1542 1.409 . S
C1545 C1543 1.415 . S
C1546 H1536 0.930 . S
C1546 C1544 1.419 . S
C1546 C1547 1.362 . S
C1547 H1537 0.930 . S
C1547 C1540 1.409 . S
C1547 C1546 1.362 . S
C1048 C972 1.843 . S
C1043 C11 1.360 . S
C1059 C143 1.266 . S
C1064 C975 1.738 . S
C1075 C283 1.240 . S
C1080 C1006 1.798 . S
C1096 C941 1.679 . S
C1091 C343 1.572 . S
C1112 C976 1.941 . S
C1107 C55 1.378 . S
C1128 C1007 1.679 . S
C1123 C115 1.511 . S
C1144 C932 1.749 . S
C1139 C239 1.330 . S
C1160 C963 1.791 . S
C1155 C371 1.340 . S
C1171 C29 0.898 . S
C1176 C993 1.067 . S
C1187 C467 0.644 . S
C1192 C962 1.229 . S
C1203 C229 0.935 . S
C1208 C922 0.994 . S
C1224 C1015 1.247 1_655 S
C1219 C625 0.986 . S
C1240 C943 1.050 . S
C1235 C1 0.828 . S
C1251 C511 1.069 . S
C1256 C942 1.254 1_655 S
C1267 C257 0.942 . S
C1272 C1035 1.086 1_655 S
C1288 C974 1.272 . S
C1283 C581 0.725 . S
C1299 C713 1.443 . S
C1304 C1034 1.817 . S
C1315 C485 1.303 . S
C1320 C913 1.724 . S
C1331 C799 1.477 . S
C1336 C944 1.611 . S
C1347 C571 1.505 . S
C1352 C1003 1.718 . S
C1368 C914 1.762 . S
C1363 C685 1.489 . S
C1379 C457 1.527 . S
C1384 C945 1.696 . S
C1395 C827 1.268 . S
C1400 C994 1.712 . S
C1416 C1025 1.735 . S
C1411 C599 1.315 . S
C1427 C695 0.858 . S
C1432 C931 1.223 . S
C1443 C125 0.780 . S
C1448 C1024 1.213 . S
C1459 C853 0.959 . S
C1464 C984 1.263 . S
C1480 C953 1.270 . S
C1475 C397 0.975 . S
C1496 C1005 1.329 . S
C1491 C739 1.122 . S
C1512 C1004 1.300 . S
C1507 C169 1.100 . S
C1528 C973 1.213 . S
C1523 C809 0.684 . S
C1544 C912 1.309 . S
C1539 C353 0.605 . S
