# Generated by pormake.
# Topology pyr, (3,6)-cn, num edge types: 1
# Building blocks:
#     Node 0, Type 0, BuildingBlock: BETDAH_clean_linker_0, # of connection points: 3
#     Node 1, Type 0, BuildingBlock: BETDAH_clean_linker_0, # of connection points: 3
#     Node 2, Type 0, BuildingBlock: BETDAH_clean_linker_0, # of connection points: 3
#     Node 3, Type 0, BuildingBlock: BETDAH_clean_linker_0, # of connection points: 3
#     Node 4, Type 0, BuildingBlock: BETDAH_clean_linker_0, # of connection points: 3
#     Node 5, Type 0, BuildingBlock: BETDAH_clean_linker_0, # of connection points: 3
#     Node 6, Type 0, BuildingBlock: BETDAH_clean_linker_0, # of connection points: 3
#     Node 7, Type 0, BuildingBlock: BETDAH_clean_linker_0, # of connection points: 3
#     Node 8, Type 1, BuildingBlock: VOLQOD_clean_sbu_1, # of connection points: 6
#     Node 9, Type 1, BuildingBlock: VOLQOD_clean_sbu_1, # of connection points: 6
#     Node 10, Type 1, BuildingBlock: VOLQOD_clean_sbu_1, # of connection points: 6
#     Node 11, Type 1, BuildingBlock: VOLQOD_clean_sbu_1, # of connection points: 6
#     Edge 12, Type (0, 1), BuildingBlock: OJICUG_clean_linker_0, # of connection points: 2
#     Edge 13, Type (0, 1), BuildingBlock: OJICUG_clean_linker_0, # of connection points: 2
#     Edge 14, Type (0, 1), BuildingBlock: OJICUG_clean_linker_0, # of connection points: 2
#     Edge 15, Type (0, 1), BuildingBlock: OJICUG_clean_linker_0, # of connection points: 2
#     Edge 16, Type (0, 1), BuildingBlock: OJICUG_clean_linker_0, # of connection points: 2
#     Edge 17, Type (0, 1), BuildingBlock: OJICUG_clean_linker_0, # of connection points: 2
#     Edge 18, Type (0, 1), BuildingBlock: OJICUG_clean_linker_0, # of connection points: 2
#     Edge 19, Type (0, 1), BuildingBlock: OJICUG_clean_linker_0, # of connection points: 2
#     Edge 20, Type (0, 1), BuildingBlock: OJICUG_clean_linker_0, # of connection points: 2
#     Edge 21, Type (0, 1), BuildingBlock: OJICUG_clean_linker_0, # of connection points: 2
#     Edge 22, Type (0, 1), BuildingBlock: OJICUG_clean_linker_0, # of connection points: 2
#     Edge 23, Type (0, 1), BuildingBlock: OJICUG_clean_linker_0, # of connection points: 2
#     Edge 24, Type (0, 1), BuildingBlock: OJICUG_clean_linker_0, # of connection points: 2
#     Edge 25, Type (0, 1), BuildingBlock: OJICUG_clean_linker_0, # of connection points: 2
#     Edge 26, Type (0, 1), BuildingBlock: OJICUG_clean_linker_0, # of connection points: 2
#     Edge 27, Type (0, 1), BuildingBlock: OJICUG_clean_linker_0, # of connection points: 2
#     Edge 28, Type (0, 1), BuildingBlock: OJICUG_clean_linker_0, # of connection points: 2
#     Edge 29, Type (0, 1), BuildingBlock: OJICUG_clean_linker_0, # of connection points: 2
#     Edge 30, Type (0, 1), BuildingBlock: OJICUG_clean_linker_0, # of connection points: 2
#     Edge 31, Type (0, 1), BuildingBlock: OJICUG_clean_linker_0, # of connection points: 2
#     Edge 32, Type (0, 1), BuildingBlock: OJICUG_clean_linker_0, # of connection points: 2
#     Edge 33, Type (0, 1), BuildingBlock: OJICUG_clean_linker_0, # of connection points: 2
#     Edge 34, Type (0, 1), BuildingBlock: OJICUG_clean_linker_0, # of connection points: 2
#     Edge 35, Type (0, 1), BuildingBlock: OJICUG_clean_linker_0, # of connection points: 2
# Relax obj value: 0.110
# Max RMSD: 0.188
# Mean RMSD: 0.146
data_MOF--net-pry--node1-VOLQOD_clean_sbu_1--node2-BETDAH_clean_linker_0--edge1-OJICUG_clean_linker_0
_symmetry_space_group_name_H-M    P1
_symmetry_Int_Tables_number       1
_symmetry_cell_setting            triclinic
loop_
_symmetry_equiv_pos_as_xyz
'x, y, z'
_cell_length_a     26.570732
_cell_length_b     26.899257
_cell_length_c     28.093782
_cell_angle_alpha  90.143692
_cell_angle_beta   90.435603
_cell_angle_gamma 95.520308
loop_
_atom_site_label
_atom_site_type_symbol
_atom_site_fract_x
_atom_site_fract_y
_atom_site_fract_z
_atom_type_partial_charge
H0 H 0.19519 0.10023 0.21574 0.0
H1 H 0.16547 0.1464 0.07224 0.0
H2 H 0.05752 0.16507 0.18186 0.0
C3 C 0.1714 0.11679 0.18993 0.0
C4 C 0.12454 0.13146 0.20458 0.0
C5 C 0.18703 0.12179 0.14226 0.0
C6 C 0.15535 0.14346 0.10947 0.0
C7 C 0.10957 0.16038 0.12395 0.0
C8 C 0.09392 0.15384 0.17133 0.0
N9 N 0.07688 0.17825 0.08921 0.0
C10 C 0.06763 0.22817 0.0859 0.0
H11 H 0.46901 0.85333 0.74875 0.0
H12 H 0.42508 0.00135 0.7263 0.0
H13 H 0.41547 0.89755 0.61088 0.0
C14 C 0.45448 0.88065 0.72552 0.0
C15 C 0.44477 0.86898 0.67687 0.0
C16 C 0.44582 0.92777 0.74446 0.0
C17 C 0.42944 0.96398 0.71352 0.0
C18 C 0.41832 0.95277 0.66588 0.0
C19 C 0.42494 0.90531 0.64786 0.0
N20 N 0.40369 0.99092 0.63567 0.0
C21 C 0.35636 0.98834 0.61407 0.0
H22 H 0.65549 0.36419 1.00185 0.0
H23 H 0.61439 0.50385 0.94677 0.0
H24 H 0.50048 0.38138 0.96521 0.0
C25 C 0.62672 0.38732 0.98979 0.0
C26 C 0.57626 0.36671 0.98597 0.0
C27 C 0.64092 0.4369 0.97653 0.0
C28 C 0.60418 0.46563 0.95772 0.0
C29 C 0.55372 0.44544 0.9537 0.0
C30 C 0.53967 0.39646 0.96847 0.0
N31 N 0.51723 0.47346 0.93266 0.0
C32 C 0.52207 0.48734 0.88534 0.0
H33 H 0.84491 0.71226 0.49281 0.0
H34 H 0.96723 0.68171 0.40117 0.0
H35 H 0.85357 0.56391 0.43677 0.0
C36 C 0.86395 0.68581 0.47202 0.0
C37 C 0.84254 0.63625 0.46702 0.0
C38 C 0.90898 0.70223 0.44862 0.0
C39 C 0.93251 0.6692 0.41941 0.0
C40 C 0.91254 0.61925 0.41566 0.0
C41 C 0.86838 0.60275 0.44004 0.0
N42 N 0.93704 0.58478 0.38828 0.0
C43 C 0.94367 0.59083 0.33964 0.0
H44 H 0.95519 0.86735 0.83385 0.0
H45 H 0.90211 0.9105 0.97106 0.0
H46 H 0.92221 0.0189 0.85989 0.0
C47 C 0.94268 0.89564 0.8573 0.0
C48 C 0.93922 0.94446 0.8401 0.0
C49 C 0.9304 0.88315 0.90487 0.0
C50 C 0.91268 0.91961 0.93471 0.0
C51 C 0.90935 0.96825 0.91805 0.0
C52 C 0.92375 0.9807 0.87153 0.0
N53 N 0.89285 0.00575 0.94797 0.0
C54 C 0.84763 0.99905 0.97263 0.0
H55 H 0.68951 0.07979 0.37059 0.0
H56 H 0.67308 0.1403 0.51131 0.0
H57 H 0.5546 0.14691 0.40796 0.0
C58 C 0.66845 0.09938 0.39628 0.0
C59 C 0.62047 0.11315 0.38329 0.0
C60 C 0.68857 0.10916 0.44224 0.0
C61 C 0.65889 0.13196 0.47566 0.0
C62 C 0.61097 0.14559 0.46337 0.0
C63 C 0.59183 0.13646 0.41716 0.0
N64 N 0.58118 0.16533 0.49903 0.0
C65 C 0.56533 0.21298 0.49659 0.0
H66 H 0.33383 0.71794 0.08931 0.0
H67 H 0.3197 0.56402 0.1333 0.0
H68 H 0.44501 0.66418 0.18304 0.0
C69 C 0.34779 0.68754 0.10922 0.0
C70 C 0.39265 0.6962 0.13574 0.0
C71 C 0.32118 0.63996 0.10785 0.0
C72 C 0.34031 0.60081 0.1331 0.0
C73 C 0.38407 0.60953 0.16107 0.0
C74 C 0.41067 0.6573 0.16201 0.0
N75 N 0.3997 0.56989 0.18884 0.0
C76 C 0.41951 0.57725 0.23443 0.0
H77 H 0.17018 0.37509 0.57982 0.0
H78 H 0.12849 0.51869 0.62378 0.0
H79 H 0.01419 0.3958 0.60673 0.0
C80 C 0.14131 0.39893 0.58974 0.0
C81 C 0.09054 0.37897 0.59175 0.0
C82 C 0.15543 0.44932 0.60064 0.0
C83 C 0.11818 0.47994 0.61432 0.0
C84 C 0.06746 0.46031 0.61675 0.0
C85 C 0.05364 0.41025 0.60499 0.0
N86 N 0.0303 0.49033 0.63279 0.0
C87 C 0.0279 0.50202 0.68072 0.0
O88 O 0.00756 0.14324 0.56975 0.0
Zn89 Zn 0.97871 0.07123 0.56134 0.0
O90 O 0.02257 0.03591 0.51931 0.0
Zn91 Zn 0.98595 0.01521 0.4604 0.0
Zn92 Zn 0.08306 0.07867 0.5018 0.0
Zn93 Zn 0.04344 0.97824 0.55377 0.0
O94 O 0.97683 0.93973 0.45575 0.0
O95 O 0.01502 0.91547 0.52132 0.0
O96 O 0.90897 0.07263 0.53224 0.0
O97 O 0.91653 0.03966 0.46028 0.0
O98 O 0.02112 0.04389 0.40124 0.0
O99 O 0.08956 0.08716 0.43067 0.0
O100 O 0.14683 0.05217 0.52682 0.0
O101 O 0.97074 0.03875 0.62649 0.0
O102 O 0.1193 0.97936 0.55877 0.0
O103 O 0.01732 0.9749 0.621 0.0
C104 C 0.04721 0.16779 0.55362 0.0
C105 C 0.98979 0.90541 0.48322 0.0
C106 C 0.06194 0.07207 0.39529 0.0
C107 C 0.8907 0.06035 0.49134 0.0
C108 C 0.15538 0.01181 0.54775 0.0
C109 C 0.9887 0.00082 0.64482 0.0
O110 O 0.07857 0.14712 0.52793 0.0
O111 O 0.4996 0.13048 0.01089 0.0
Zn112 Zn 0.46992 0.0596 0.02226 0.0
O113 O 0.51226 0.02584 0.0673 0.0
Zn114 Zn 0.53588 0.96674 0.03677 0.0
Zn115 Zn 0.57109 0.07041 0.08619 0.0
Zn116 Zn 0.47329 0.0073 0.12459 0.0
O117 O 0.51003 0.90436 0.07222 0.0
O118 O 0.46341 0.93263 0.12997 0.0
O119 O 0.46278 0.02265 0.95889 0.0
O120 O 0.51001 0.9596 0.96895 0.0
O121 O 0.61222 0.97134 0.03237 0.0
O122 O 0.63572 0.04654 0.06206 0.0
O123 O 0.57744 0.07726 0.15715 0.0
O124 O 0.40066 0.06662 0.04969 0.0
O125 O 0.50815 0.03514 0.18505 0.0
O126 O 0.40418 0.03244 0.1214 0.0
C127 C 0.53631 0.15713 0.03045 0.0
C128 C 0.4807 0.89668 0.10772 0.0
C129 C 0.64657 0.0062 0.04252 0.0
C130 C 0.48151 0.98397 0.943 0.0
C131 C 0.5497 0.06214 0.19193 0.0
C132 C 0.38053 0.05493 0.08965 0.0
O133 O 0.56541 0.13877 0.06047 0.0
O134 O 0.55274 0.55763 0.66615 0.0
Zn135 Zn 0.55054 0.58901 0.60063 0.0
O136 O 0.50334 0.54849 0.55804 0.0
Zn137 Zn 0.53921 0.52464 0.50392 0.0
Zn138 Zn 0.47412 0.48937 0.59137 0.0
Zn139 Zn 0.44966 0.58858 0.53529 0.0
O140 O 0.5095 0.54583 0.44273 0.0
O141 O 0.44938 0.59353 0.463 0.0
O142 O 0.62175 0.59874 0.57207 0.0
O143 O 0.61041 0.55374 0.50579 0.0
O144 O 0.54012 0.44977 0.50162 0.0
O145 O 0.49333 0.42458 0.56339 0.0
O146 O 0.39897 0.48711 0.59146 0.0
O147 O 0.52445 0.6563 0.61273 0.0
O148 O 0.38075 0.55611 0.55456 0.0
O149 O 0.45728 0.65792 0.56501 0.0
C150 C 0.52726 0.51982 0.68423 0.0
C151 C 0.47505 0.57337 0.43134 0.0
C152 C 0.51994 0.41485 0.52767 0.0
C153 C 0.63872 0.58168 0.53347 0.0
C154 C 0.3669 0.51575 0.57656 0.0
C155 C 0.48786 0.67843 0.59606 0.0
O156 O 0.49602 0.49176 0.65932 0.0
O157 O 0.948 0.53767 0.1177 0.0
Zn158 Zn 0.94918 0.50888 0.05215 0.0
O159 O 0.98681 0.55566 0.00944 0.0
Zn160 Zn 0.94258 0.57331 0.95783 0.0
Zn161 Zn 0.01037 0.61733 0.04414 0.0
Zn162 Zn 0.04356 0.52276 0.98319 0.0
O163 O 0.96798 0.5517 0.89533 0.0
O164 O 0.04051 0.52014 0.91081 0.0
O165 O 0.877 0.49515 0.03054 0.0
O166 O 0.87181 0.54134 0.96565 0.0
O167 O 0.93997 0.64738 0.95251 0.0
O168 O 0.98737 0.67968 0.01231 0.0
O169 O 0.08631 0.62402 0.04639 0.0
O170 O 0.97998 0.44315 0.05763 0.0
O171 O 0.10931 0.55983 1.00445 0.0
O172 O 0.04493 0.45203 0.00833 0.0
C173 C 0.96375 0.57915 0.13705 0.0
C174 C 0.00719 0.5325 0.8813 0.0
C175 C 0.95951 0.68508 0.97583 0.0
C176 C 0.85151 0.51092 0.99612 0.0
C177 C 0.12043 0.59885 0.02965 0.0
C178 C 0.01788 0.42597 0.03817 0.0
O179 O 0.98745 0.61409 0.11313 0.0
C180 C 0.0585 0.09551 0.26178 0.0
C181 C 0.10686 0.11997 0.25384 0.0
H182 H 0.00658 0.06054 0.31236 0.0
C183 C 0.13976 0.12959 0.2929 0.0
H184 H 0.03254 0.08705 0.23231 0.0
C185 C 0.12503 0.11436 0.33871 0.0
C186 C 0.07715 0.0887 0.34659 0.0
H187 H 0.17718 0.14858 0.28794 0.0
H188 H 0.15156 0.12215 0.36786 0.0
C189 C 0.04388 0.07984 0.30759 0.0
C190 C 0.49394 0.92219 0.82218 0.0
C191 C 0.45394 0.93998 0.79615 0.0
H192 H 0.53386 0.92185 0.88874 0.0
C193 C 0.42204 0.97087 0.81972 0.0
H194 H 0.51972 0.89888 0.80535 0.0
C195 C 0.43081 0.98489 0.86726 0.0
C196 C 0.47118 0.96771 0.89297 0.0
H197 H 0.39003 0.98436 0.80144 0.0
H198 H 0.40577 0.00913 0.88392 0.0
C199 C 0.50225 0.93564 0.87004 0.0
C200 C 0.553 0.53814 0.81652 0.0
C201 C 0.52593 0.49532 0.83493 0.0
H202 H 0.57529 0.57951 0.75373 0.0
C203 C 0.50238 0.45932 0.80407 0.0
H204 H 0.57175 0.56606 0.84017 0.0
C205 C 0.5045 0.4666 0.75501 0.0
C206 C 0.5303 0.51014 0.73596 0.0
H207 H 0.48176 0.42578 0.81791 0.0
H208 H 0.48504 0.43844 0.73208 0.0
C209 C 0.55524 0.54555 0.76722 0.0
C210 C 0.92041 0.55169 0.26305 0.0
C211 C 0.94692 0.59065 0.28853 0.0
H212 H 0.90449 0.51779 0.19518 0.0
C213 C 0.97713 0.62774 0.26424 0.0
H214 H 0.89677 0.52284 0.28139 0.0
C215 C 0.98162 0.62514 0.2146 0.0
C216 C 0.95611 0.58519 0.1889 0.0
H217 H 0.99779 0.65816 0.28362 0.0
H218 H 0.006 0.6536 0.19661 0.0
C219 C 0.92493 0.54891 0.21373 0.0
C220 C 0.2531 0.06055 0.14797 0.0
C221 C 0.23564 0.10321 0.12682 0.0
H222 H 0.31236 0.01215 0.15306 0.0
C223 C 0.26545 0.1282 0.09137 0.0
H224 H 0.23078 0.03925 0.17432 0.0
C225 C 0.3117 0.11153 0.07814 0.0
C226 C 0.32971 0.07004 0.10062 0.0
H227 H 0.25381 0.16147 0.0746 0.0
H228 H 0.33415 0.1322 0.05142 0.0
C229 C 0.29976 0.04458 0.13545 0.0
C230 C 0.29737 0.03336 0.56681 0.0
C231 C 0.3068 0.99155 0.59383 0.0
H232 H 0.24211 0.07255 0.5307 0.0
C233 C 0.26716 0.95507 0.60383 0.0
H234 H 0.32768 0.06203 0.55904 0.0
C235 C 0.21808 0.96092 0.58775 0.0
C236 C 0.20796 0.00354 0.5616 0.0
H237 H 0.27389 0.92267 0.62495 0.0
H238 H 0.18793 0.93259 0.59678 0.0
C239 C 0.24839 0.03934 0.55074 0.0
C240 C 0.72194 0.447 0.02296 0.0
C241 C 0.69429 0.45788 0.98208 0.0
H242 H 0.79305 0.45505 0.05943 0.0
C243 C 0.71838 0.48755 0.94629 0.0
H244 H 0.70418 0.42495 0.05154 0.0
C245 C 0.76937 0.50523 0.95097 0.0
C246 C 0.79725 0.49343 0.99148 0.0
H247 H 0.69818 0.49615 0.91417 0.0
H248 H 0.78706 0.5275 0.92251 0.0
C249 C 0.77285 0.46442 0.02755 0.0
C250 C 0.75706 0.58953 0.45901 0.0
C251 C 0.79157 0.62049 0.48646 0.0
H252 H 0.68275 0.55314 0.45219 0.0
C253 C 0.77584 0.638 0.53075 0.0
H254 H 0.76728 0.57622 0.42432 0.0
C255 C 0.72639 0.62519 0.54676 0.0
C256 C 0.69187 0.59464 0.51877 0.0
H257 H 0.80166 0.66165 0.55296 0.0
H258 H 0.71516 0.63951 0.58074 0.0
C259 C 0.70812 0.57666 0.47496 0.0
C260 C 0.01456 0.29796 0.09651 0.0
C261 C 0.05669 0.27885 0.07622 0.0
H262 H 0.96907 0.3594 0.10042 0.0
C263 C 0.08633 0.30805 0.04377 0.0
H264 H 0.99097 0.27573 0.12136 0.0
C265 C 0.07384 0.35581 0.03144 0.0
C266 C 0.03129 0.37522 0.0513 0.0
H267 H 0.11882 0.29368 0.02743 0.0
H268 H 0.0974 0.37734 0.00611 0.0
C269 C 0.00198 0.34575 0.08427 0.0
C270 C 0.58556 0.29334 0.03871 0.0
C271 C 0.5629 0.31367 0.99883 0.0
H272 H 0.5953 0.22823 0.07963 0.0
C273 C 0.52986 0.28231 0.97007 0.0
H274 H 0.61042 0.31667 0.06212 0.0
C275 C 0.5207 0.23143 0.98043 0.0
C276 C 0.54472 0.21096 0.01951 0.0
H277 H 0.51224 0.29676 0.93879 0.0
H278 H 0.49562 0.20801 0.95731 0.0
C279 C 0.57684 0.2426 0.04876 0.0
C280 C 0.93766 0.78757 0.41837 0.0
C281 C 0.93204 0.7536 0.45621 0.0
H282 H 0.96002 0.86306 0.39732 0.0
C283 C 0.94734 0.76907 0.50215 0.0
H284 H 0.92593 0.7761 0.38267 0.0
C285 C 0.96761 0.81805 0.5104 0.0
C286 C 0.97197 0.85278 0.47298 0.0
H287 H 0.94339 0.74322 0.53171 0.0
H288 H 0.9785 0.82904 0.54644 0.0
C289 C 0.95699 0.83709 0.42679 0.0
C290 C 0.45423 0.7762 0.68414 0.0
C291 C 0.45614 0.81973 0.65605 0.0
H292 H 0.46392 0.69791 0.6872 0.0
C293 C 0.4695 0.81574 0.60765 0.0
H294 H 0.44308 0.77674 0.72107 0.0
C295 C 0.47936 0.76981 0.58794 0.0
C296 C 0.47797 0.7271 0.61642 0.0
H297 H 0.47304 0.84814 0.58476 0.0
H298 H 0.48896 0.76784 0.55062 0.0
C299 C 0.46576 0.7307 0.6647 0.0
C300 C 0.92379 0.99207 0.76495 0.0
C301 C 0.95155 0.95806 0.78963 0.0
H302 H 0.91381 0.03244 0.70049 0.0
C303 C 0.9914 0.93794 0.76584 0.0
H304 H 0.89213 0.0076 0.78155 0.0
C305 C 0.00326 0.95164 0.71888 0.0
C306 C 0.97592 0.98618 0.69459 0.0
H307 H 0.01413 0.91225 0.78372 0.0
H308 H 0.03437 0.93557 0.70182 0.0
C309 C 0.93603 0.00619 0.71824 0.0
C310 C 0.63226 0.11302 0.29499 0.0
C311 C 0.60078 0.10234 0.33432 0.0
H312 H 0.64095 0.10894 0.21964 0.0
C313 C 0.55159 0.07938 0.32652 0.0
H314 H 0.67017 0.13113 0.29985 0.0
C315 C 0.53475 0.06626 0.28035 0.0
C316 C 0.56662 0.07635 0.24104 0.0
H317 H 0.52664 0.07039 0.35623 0.0
H318 H 0.4969 0.04805 0.27551 0.0
C319 C 0.61538 0.10036 0.24897 0.0
C320 C 0.47993 0.56004 0.29727 0.0
C321 C 0.43636 0.58145 0.28315 0.0
H322 H 0.52673 0.54119 0.35531 0.0
C323 C 0.40709 0.60337 0.31717 0.0
H324 H 0.5028 0.54283 0.27131 0.0
C325 C 0.42051 0.6025 0.36541 0.0
C326 C 0.46328 0.57938 0.38014 0.0
H327 H 0.37311 0.61991 0.30661 0.0
H328 H 0.39653 0.61848 0.39119 0.0
C329 C 0.49338 0.55906 0.34536 0.0
C330 C 0.98284 0.53384 0.74832 0.0
C331 C 0.02414 0.51117 0.73091 0.0
H332 H 0.94507 0.55836 0.80955 0.0
C333 C 0.0605 0.49572 0.76256 0.0
H334 H 0.95435 0.54576 0.7242 0.0
C335 C 0.05539 0.50272 0.81162 0.0
C336 C 0.01368 0.52517 0.8295 0.0
H337 H 0.09254 0.47787 0.74939 0.0
H338 H 0.08382 0.49029 0.83545 0.0
C339 C 0.97761 0.54083 0.79718 0.0
C340 C 0.76139 0.95854 0.98438 0.0
C341 C 0.7988 0.9974 0.99481 0.0
H342 H 0.68362 0.93046 0.99171 0.0
C343 C 0.78718 0.03732 0.02342 0.0
H344 H 0.76982 0.92759 0.96198 0.0
C345 C 0.73808 0.03926 0.04033 0.0
C346 C 0.69969 0.00129 0.02873 0.0
H347 H 0.81569 0.0678 0.03153 0.0
H348 H 0.72998 0.07126 0.06141 0.0
C349 C 0.71217 0.96034 1.00134 0.0
C350 C 0.75244 0.08216 0.50188 0.0
C351 C 0.74039 0.09581 0.45502 0.0
H352 H 0.80949 0.06095 0.5502 0.0
C353 C 0.77862 0.09705 0.42041 0.0
H354 H 0.72411 0.07955 0.52946 0.0
C355 C 0.827 0.0845 0.4321 0.0
C356 C 0.83894 0.07181 0.47898 0.0
H357 H 0.77168 0.10857 0.38426 0.0
H358 H 0.85551 0.08602 0.40464 0.0
C359 C 0.80133 0.07102 0.51383 0.0
C360 C 0.23563 0.66635 0.08892 0.0
C361 C 0.27171 0.63198 0.08296 0.0
H362 H 0.1597 0.68311 0.07638 0.0
C363 C 0.25904 0.58881 0.05554 0.0
H364 H 0.24418 0.69978 0.11019 0.0
C365 C 0.21054 0.57921 0.03604 0.0
C366 C 0.17366 0.61243 0.04399 0.0
H367 H 0.28636 0.56201 0.04991 0.0
H368 H 0.20147 0.54482 0.01633 0.0
C369 C 0.18712 0.65666 0.0697 0.0
C370 C 0.22376 0.51396 0.57379 0.0
C371 C 0.20928 0.46911 0.59774 0.0
H372 H 0.28512 0.56392 0.54786 0.0
C373 C 0.24681 0.4414 0.61664 0.0
H374 H 0.19551 0.53589 0.55869 0.0
C375 C 0.29778 0.45713 0.61032 0.0
C376 C 0.31256 0.50106 0.58493 0.0
H377 H 0.23671 0.4071 0.63593 0.0
H378 H 0.32558 0.43432 0.62488 0.0
C379 C 0.27501 0.52978 0.56735 0.0
C380 C 0.92039 0.78959 0.89699 0.0
C381 C 0.93679 0.83239 0.92366 0.0
H382 H 0.91413 0.7099 0.89262 0.0
C383 C 0.95993 0.82642 0.96826 0.0
H384 H 0.90199 0.79289 0.86276 0.0
C385 C 0.96712 0.77874 0.98549 0.0
C386 C 0.95088 0.73589 0.95869 0.0
H387 H 0.9734 0.85873 0.98949 0.0
H388 H 0.98557 0.77552 0.0197 0.0
C389 C 0.92712 0.74197 0.91435 0.0
C390 C 0.3974 0.78657 0.1552 0.0
C391 C 0.41994 0.74639 0.13545 0.0
H392 H 0.39962 0.86576 0.16275 0.0
C393 C 0.46526 0.75529 0.11032 0.0
H394 H 0.36221 0.78022 0.17448 0.0
C395 C 0.48637 0.80425 0.10277 0.0
C396 C 0.46268 0.84485 0.12079 0.0
H397 H 0.48285 0.72457 0.09451 0.0
H398 H 0.52029 0.81033 0.08159 0.0
C399 C 0.41885 0.83539 0.14838 0.0
C400 C 0.10118 0.30238 0.54356 0.0
C401 C 0.07688 0.32533 0.58074 0.0
H402 H 0.11118 0.23496 0.50623 0.0
C403 C 0.04128 0.29619 0.60832 0.0
H404 H 0.12791 0.32388 0.52092 0.0
C405 C 0.03106 0.24498 0.59941 0.0
C406 C 0.05663 0.22196 0.56309 0.0
H407 H 0.02227 0.31266 0.63754 0.0
H408 H 0.00394 0.22332 0.62153 0.0
C409 C 0.09146 0.25133 0.53506 0.0
C410 C 0.51723 0.27382 0.53724 0.0
C411 C 0.5505 0.26295 0.50108 0.0
H412 H 0.48122 0.33033 0.57399 0.0
C413 C 0.57215 0.3015 0.47222 0.0
H414 H 0.50045 0.24442 0.56007 0.0
C415 C 0.56134 0.35079 0.48009 0.0
C416 C 0.5289 0.36226 0.51719 0.0
H417 H 0.59825 0.29369 0.44433 0.0
H418 H 0.57927 0.38 0.45775 0.0
C419 C 0.50644 0.32301 0.54523 0.0
loop_
_geom_bond_atom_site_label_1
_geom_bond_atom_site_label_2
_geom_bond_distance
_geom_bond_site_symmetry_2
_ccdc_geom_bond_type
H0 C3 0.929 . S
H1 C6 0.929 . S
H2 C8 0.930 . S
C3 H0 0.929 . S
C3 C4 1.398 . S
C3 C5 1.396 . S
C4 C3 1.398 . S
C4 C8 1.407 . S
C5 C3 1.396 . S
C5 C6 1.394 . S
C6 H1 0.929 . S
C6 C5 1.394 . S
C6 C7 1.382 . S
C7 C6 1.382 . S
C7 C8 1.392 . S
C7 N9 1.420 . S
C8 H2 0.930 . S
C8 C4 1.407 . S
C8 C7 1.392 . S
N9 C7 1.420 . S
N9 C10 1.244 . S
C10 N9 1.244 . S
H11 C14 0.929 . S
H12 C17 0.929 . S
H13 C19 0.930 . S
C14 H11 0.929 . S
C14 C15 1.398 . S
C14 C16 1.396 . S
C15 C14 1.398 . S
C15 C19 1.407 . S
C16 C14 1.396 . S
C16 C17 1.394 . S
C17 H12 0.929 . S
C17 C16 1.394 . S
C17 C18 1.382 . S
C18 C17 1.382 . S
C18 C19 1.392 . S
C18 N20 1.420 . S
C19 H13 0.930 . S
C19 C15 1.407 . S
C19 C18 1.392 . S
N20 C18 1.420 . S
N20 C21 1.244 . S
C21 N20 1.244 . S
H22 C25 0.929 1_554 S
H23 C28 0.929 . S
H24 C30 0.930 . S
C25 H22 0.929 1_556 S
C25 C26 1.398 . S
C25 C27 1.396 . S
C26 C25 1.398 . S
C26 C30 1.407 . S
C27 C25 1.396 . S
C27 C28 1.394 . S
C28 H23 0.929 . S
C28 C27 1.394 . S
C28 C29 1.382 . S
C29 C28 1.382 . S
C29 C30 1.392 . S
C29 N31 1.420 . S
C30 H24 0.930 . S
C30 C26 1.407 . S
C30 C29 1.392 . S
N31 C29 1.420 . S
N31 C32 1.244 . S
C32 N31 1.244 . S
H33 C36 0.929 . S
H34 C39 0.929 . S
H35 C41 0.930 . S
C36 H33 0.929 . S
C36 C37 1.398 . S
C36 C38 1.396 . S
C37 C36 1.398 . S
C37 C41 1.407 . S
C38 C36 1.396 . S
C38 C39 1.394 . S
C39 H34 0.929 . S
C39 C38 1.394 . S
C39 C40 1.382 . S
C40 C39 1.382 . S
C40 C41 1.392 . S
C40 N42 1.420 . S
C41 H35 0.930 . S
C41 C37 1.407 . S
C41 C40 1.392 . S
N42 C40 1.420 . S
N42 C43 1.244 . S
C43 N42 1.244 . S
H44 C47 0.929 . S
H45 C50 0.929 . S
H46 C52 0.930 . S
C47 H44 0.929 . S
C47 C48 1.398 . S
C47 C49 1.396 . S
C48 C47 1.398 . S
C48 C52 1.407 1_565 S
C49 C47 1.396 . S
C49 C50 1.394 . S
C50 H45 0.929 . S
C50 C49 1.394 . S
C50 C51 1.382 . S
C51 C50 1.382 . S
C51 C52 1.392 1_565 S
C51 N53 1.420 1_565 S
C52 H46 0.930 . S
C52 C48 1.407 1_545 S
C52 C51 1.392 1_545 S
N53 C51 1.420 1_545 S
N53 C54 1.244 1_545 S
C54 N53 1.244 1_565 S
H55 C58 0.929 . S
H56 C61 0.929 . S
H57 C63 0.930 . S
C58 H55 0.929 . S
C58 C59 1.398 . S
C58 C60 1.396 . S
C59 C58 1.398 . S
C59 C63 1.407 . S
C60 C58 1.396 . S
C60 C61 1.394 . S
C61 H56 0.929 . S
C61 C60 1.394 . S
C61 C62 1.382 . S
C62 C61 1.382 . S
C62 C63 1.392 . S
C62 N64 1.420 . S
C63 H57 0.930 . S
C63 C59 1.407 . S
C63 C62 1.392 . S
N64 C62 1.420 . S
N64 C65 1.244 . S
C65 N64 1.244 . S
H66 C69 0.929 . S
H67 C72 0.929 . S
H68 C74 0.930 . S
C69 H66 0.929 . S
C69 C70 1.398 . S
C69 C71 1.396 . S
C70 C69 1.398 . S
C70 C74 1.407 . S
C71 C69 1.396 . S
C71 C72 1.394 . S
C72 H67 0.929 . S
C72 C71 1.394 . S
C72 C73 1.382 . S
C73 C72 1.382 . S
C73 C74 1.392 . S
C73 N75 1.420 . S
C74 H68 0.930 . S
C74 C70 1.407 . S
C74 C73 1.392 . S
N75 C73 1.420 . S
N75 C76 1.244 . S
C76 N75 1.244 . S
H77 C80 0.929 . S
H78 C83 0.929 . S
H79 C85 0.930 . S
C80 H77 0.929 . S
C80 C81 1.398 . S
C80 C82 1.396 . S
C81 C80 1.398 . S
C81 C85 1.407 . S
C82 C80 1.396 . S
C82 C83 1.394 . S
C83 H78 0.929 . S
C83 C82 1.394 . S
C83 C84 1.382 . S
C84 C83 1.382 . S
C84 C85 1.392 . S
C84 N86 1.420 . S
C85 H79 0.930 . S
C85 C81 1.407 . S
C85 C84 1.392 . S
N86 C84 1.420 . S
N86 C87 1.244 . S
C87 N86 1.244 . S
O88 Zn89 1.953 . S
O88 C104 1.225 1_655 S
Zn89 O88 1.953 . S
Zn89 O90 1.949 1_655 S
Zn89 O96 1.919 . S
Zn89 O101 1.924 . S
O90 Zn89 1.949 1_455 S
O90 Zn91 1.923 1_455 S
O90 Zn92 1.950 . S
O90 Zn93 1.945 1_545 S
Zn91 O90 1.923 1_655 S
Zn91 O94 1.933 1_545 S
Zn91 O97 1.941 . S
Zn91 O98 1.965 1_655 S
Zn92 O90 1.950 . S
Zn92 O99 1.938 . S
Zn92 O100 1.906 . S
Zn92 O110 1.953 . S
Zn93 O90 1.945 1_565 S
Zn93 O95 1.932 1_455 S
Zn93 O102 1.977 . S
Zn93 O103 1.910 1_455 S
O94 Zn91 1.933 1_565 S
O94 C105 1.226 . S
O95 Zn93 1.932 1_655 S
O95 C105 1.307 . S
O96 Zn89 1.919 . S
O96 C107 1.253 . S
O97 Zn91 1.941 . S
O97 C107 1.283 . S
O98 Zn91 1.965 1_455 S
O98 C106 1.303 . S
O99 Zn92 1.938 . S
O99 C106 1.247 . S
O100 Zn92 1.906 . S
O100 C108 1.304 1_545 S
O101 Zn89 1.924 . S
O101 C109 1.311 . S
O102 Zn93 1.977 . S
O102 C108 1.272 . S
O103 Zn93 1.910 1_655 S
O103 C109 1.231 1_565 S
C104 O88 1.225 1_455 S
C104 O110 1.298 . S
C105 O94 1.226 . S
C105 O95 1.307 . S
C106 O98 1.303 . S
C106 O99 1.247 . S
C107 O96 1.253 . S
C107 O97 1.283 . S
C108 O100 1.304 1_565 S
C108 O102 1.272 . S
C109 O101 1.311 . S
C109 O103 1.231 1_545 S
O110 Zn92 1.953 . S
O110 C104 1.298 . S
O111 Zn112 1.953 1_556 S
O111 C127 1.225 1_556 S
Zn112 O111 1.953 1_554 S
Zn112 O113 1.949 . S
Zn112 O119 1.919 1_554 S
Zn112 O124 1.924 . S
O113 Zn112 1.949 . S
O113 Zn114 1.923 1_545 S
O113 Zn115 1.950 . S
O113 Zn116 1.945 . S
Zn114 O113 1.923 1_565 S
Zn114 O117 1.933 . S
Zn114 O120 1.941 1_554 S
Zn114 O121 1.965 . S
Zn115 O113 1.950 . S
Zn115 O122 1.938 . S
Zn115 O123 1.906 . S
Zn115 O133 1.953 . S
Zn116 O113 1.945 . S
Zn116 O118 1.932 1_545 S
Zn116 O125 1.977 . S
Zn116 O126 1.910 . S
O117 Zn114 1.933 . S
O117 C128 1.226 . S
O118 Zn116 1.932 1_565 S
O118 C128 1.307 . S
O119 Zn112 1.919 1_556 S
O119 C130 1.253 1_545 S
O120 Zn114 1.941 1_556 S
O120 C130 1.283 . S
O121 Zn114 1.965 . S
O121 C129 1.303 1_565 S
O122 Zn115 1.938 . S
O122 C129 1.247 . S
O123 Zn115 1.906 . S
O123 C131 1.304 . S
O124 Zn112 1.924 . S
O124 C132 1.311 . S
O125 Zn116 1.977 . S
O125 C131 1.272 . S
O126 Zn116 1.910 . S
O126 C132 1.231 . S
C127 O111 1.225 1_554 S
C127 O133 1.298 . S
C128 O117 1.226 . S
C128 O118 1.307 . S
C129 O121 1.303 1_545 S
C129 O122 1.247 . S
C130 O119 1.253 1_565 S
C130 O120 1.283 . S
C131 O123 1.304 . S
C131 O125 1.272 . S
C132 O124 1.311 . S
C132 O126 1.231 . S
O133 Zn115 1.953 . S
O133 C127 1.298 . S
O134 Zn135 1.953 . S
O134 C150 1.225 . S
Zn135 O134 1.953 . S
Zn135 O136 1.949 . S
Zn135 O142 1.919 . S
Zn135 O147 1.924 . S
O136 Zn135 1.949 . S
O136 Zn137 1.923 . S
O136 Zn138 1.950 . S
O136 Zn139 1.945 . S
Zn137 O136 1.923 . S
Zn137 O140 1.933 . S
Zn137 O143 1.941 . S
Zn137 O144 1.965 . S
Zn138 O136 1.950 . S
Zn138 O145 1.938 . S
Zn138 O146 1.906 . S
Zn138 O156 1.953 . S
Zn139 O136 1.945 . S
Zn139 O141 1.932 . S
Zn139 O148 1.977 . S
Zn139 O149 1.910 . S
O140 Zn137 1.933 . S
O140 C151 1.226 . S
O141 Zn139 1.932 . S
O141 C151 1.307 . S
O142 Zn135 1.919 . S
O142 C153 1.253 . S
O143 Zn137 1.941 . S
O143 C153 1.283 . S
O144 Zn137 1.965 . S
O144 C152 1.303 . S
O145 Zn138 1.938 . S
O145 C152 1.247 . S
O146 Zn138 1.906 . S
O146 C154 1.304 . S
O147 Zn135 1.924 . S
O147 C155 1.311 . S
O148 Zn139 1.977 . S
O148 C154 1.272 . S
O149 Zn139 1.910 . S
O149 C155 1.231 . S
C150 O134 1.225 . S
C150 O156 1.298 . S
C151 O140 1.226 . S
C151 O141 1.307 . S
C152 O144 1.303 . S
C152 O145 1.247 . S
C153 O142 1.253 . S
C153 O143 1.283 . S
C154 O146 1.304 . S
C154 O148 1.272 . S
C155 O147 1.311 . S
C155 O149 1.231 . S
O156 Zn138 1.953 . S
O156 C150 1.298 . S
O157 Zn158 1.953 . S
O157 C173 1.225 . S
Zn158 O157 1.953 . S
Zn158 O159 1.949 1_655 S
Zn158 O165 1.919 . S
Zn158 O170 1.924 . S
O159 Zn158 1.949 1_455 S
O159 Zn160 1.923 1_454 S
O159 Zn161 1.950 . S
O159 Zn162 1.945 1_554 S
Zn160 O159 1.923 1_656 S
Zn160 O163 1.933 1_655 S
Zn160 O166 1.941 . S
Zn160 O167 1.965 . S
Zn161 O159 1.950 . S
Zn161 O168 1.938 . S
Zn161 O169 1.906 . S
Zn161 O179 1.953 . S
Zn162 O159 1.945 1_556 S
Zn162 O164 1.932 . S
Zn162 O171 1.977 1_556 S
Zn162 O172 1.910 1_556 S
O163 Zn160 1.933 1_455 S
O163 C174 1.226 . S
O164 Zn162 1.932 . S
O164 C174 1.307 . S
O165 Zn158 1.919 . S
O165 C176 1.253 1_554 S
O166 Zn160 1.941 . S
O166 C176 1.283 . S
O167 Zn160 1.965 . S
O167 C175 1.303 . S
O168 Zn161 1.938 . S
O168 C175 1.247 1_454 S
O169 Zn161 1.906 . S
O169 C177 1.304 . S
O170 Zn158 1.924 . S
O170 C178 1.311 1_655 S
O171 Zn162 1.977 1_554 S
O171 C177 1.272 . S
O172 Zn162 1.910 1_554 S
O172 C178 1.231 . S
C173 O157 1.225 . S
C173 O179 1.298 1_655 S
C174 O163 1.226 . S
C174 O164 1.307 . S
C175 O167 1.303 . S
C175 O168 1.247 1_656 S
C176 O165 1.253 1_556 S
C176 O166 1.283 . S
C177 O169 1.304 . S
C177 O171 1.272 . S
C178 O170 1.311 1_455 S
C178 O172 1.231 . S
O179 Zn161 1.953 . S
O179 C173 1.298 1_455 S
C180 C181 1.387 . S
C180 H184 0.950 . S
C180 C189 1.390 . S
C181 C180 1.387 . S
C181 C183 1.387 . S
H182 C189 0.950 . S
C183 C181 1.387 . S
C183 C185 1.390 . S
C183 H187 0.950 . S
H184 C180 0.950 . S
C185 C183 1.390 . S
C185 C186 1.387 . S
C185 H188 0.950 . S
C186 C185 1.387 . S
C186 C189 1.387 . S
H187 C183 0.950 . S
H188 C185 0.950 . S
C189 C180 1.390 . S
C189 H182 0.950 . S
C189 C186 1.387 . S
C190 C191 1.387 . S
C190 H194 0.950 . S
C190 C199 1.390 . S
C191 C190 1.387 . S
C191 C193 1.387 . S
H192 C199 0.950 . S
C193 C191 1.387 . S
C193 C195 1.390 . S
C193 H197 0.950 . S
H194 C190 0.950 . S
C195 C193 1.390 . S
C195 C196 1.387 . S
C195 H198 0.950 . S
C196 C195 1.387 . S
C196 C199 1.387 . S
H197 C193 0.950 . S
H198 C195 0.950 . S
C199 C190 1.390 . S
C199 H192 0.950 . S
C199 C196 1.387 . S
C200 C201 1.387 . S
C200 H204 0.950 . S
C200 C209 1.390 . S
C201 C200 1.387 . S
C201 C203 1.387 . S
H202 C209 0.950 . S
C203 C201 1.387 . S
C203 C205 1.390 . S
C203 H207 0.950 . S
H204 C200 0.950 . S
C205 C203 1.390 . S
C205 C206 1.387 . S
C205 H208 0.950 . S
C206 C205 1.387 . S
C206 C209 1.387 . S
H207 C203 0.950 . S
H208 C205 0.950 . S
C209 C200 1.390 . S
C209 H202 0.950 . S
C209 C206 1.387 . S
C210 C211 1.387 . S
C210 H214 0.950 . S
C210 C219 1.390 . S
C211 C210 1.387 . S
C211 C213 1.387 . S
H212 C219 0.950 . S
C213 C211 1.387 . S
C213 C215 1.390 . S
C213 H217 0.950 . S
H214 C210 0.950 . S
C215 C213 1.390 . S
C215 C216 1.387 . S
C215 H218 0.950 . S
C216 C215 1.387 . S
C216 C219 1.387 . S
H217 C213 0.950 . S
H218 C215 0.950 . S
C219 C210 1.390 . S
C219 H212 0.950 . S
C219 C216 1.387 . S
C220 C221 1.387 . S
C220 H224 0.950 . S
C220 C229 1.390 . S
C221 C220 1.387 . S
C221 C223 1.387 . S
H222 C229 0.950 . S
C223 C221 1.387 . S
C223 C225 1.390 . S
C223 H227 0.950 . S
H224 C220 0.950 . S
C225 C223 1.390 . S
C225 C226 1.387 . S
C225 H228 0.950 . S
C226 C225 1.387 . S
C226 C229 1.387 . S
H227 C223 0.950 . S
H228 C225 0.950 . S
C229 C220 1.390 . S
C229 H222 0.950 . S
C229 C226 1.387 . S
C230 C231 1.387 . S
C230 H234 0.950 1_565 S
C230 C239 1.390 1_565 S
C231 C230 1.387 . S
C231 C233 1.387 . S
H232 C239 0.950 . S
C233 C231 1.387 . S
C233 C235 1.390 . S
C233 H237 0.950 . S
H234 C230 0.950 1_545 S
C235 C233 1.390 . S
C235 C236 1.387 . S
C235 H238 0.950 . S
C236 C235 1.387 . S
C236 C239 1.387 1_565 S
H237 C233 0.950 . S
H238 C235 0.950 . S
C239 C230 1.390 1_545 S
C239 H232 0.950 . S
C239 C236 1.387 1_545 S
C240 C241 1.387 . S
C240 H244 0.950 1_556 S
C240 C249 1.390 . S
C241 C240 1.387 . S
C241 C243 1.387 . S
H242 C249 0.950 1_554 S
C243 C241 1.387 . S
C243 C245 1.390 . S
C243 H247 0.950 . S
H244 C240 0.950 1_554 S
C245 C243 1.390 . S
C245 C246 1.387 . S
C245 H248 0.950 . S
C246 C245 1.387 . S
C246 C249 1.387 . S
H247 C243 0.950 . S
H248 C245 0.950 . S
C249 C240 1.390 . S
C249 H242 0.950 1_556 S
C249 C246 1.387 . S
C250 C251 1.387 . S
C250 H254 0.950 . S
C250 C259 1.390 . S
C251 C250 1.387 . S
C251 C253 1.387 . S
H252 C259 0.950 . S
C253 C251 1.387 . S
C253 C255 1.390 . S
C253 H257 0.950 . S
H254 C250 0.950 . S
C255 C253 1.390 . S
C255 C256 1.387 . S
C255 H258 0.950 . S
C256 C255 1.387 . S
C256 C259 1.387 . S
H257 C253 0.950 . S
H258 C255 0.950 . S
C259 C250 1.390 . S
C259 H252 0.950 . S
C259 C256 1.387 . S
C260 C261 1.387 . S
C260 H264 0.950 . S
C260 C269 1.390 . S
C261 C260 1.387 . S
C261 C263 1.387 . S
H262 C269 0.950 . S
C263 C261 1.387 . S
C263 C265 1.390 . S
C263 H267 0.950 . S
H264 C260 0.950 . S
C265 C263 1.390 . S
C265 C266 1.387 . S
C265 H268 0.950 . S
C266 C265 1.387 . S
C266 C269 1.387 . S
H267 C263 0.950 . S
H268 C265 0.950 . S
C269 C260 1.390 . S
C269 H262 0.950 . S
C269 C266 1.387 . S
C270 C271 1.387 1_554 S
C270 H274 0.950 . S
C270 C279 1.390 . S
C271 C270 1.387 1_556 S
C271 C273 1.387 . S
H272 C279 0.950 . S
C273 C271 1.387 . S
C273 C275 1.390 . S
C273 H277 0.950 . S
H274 C270 0.950 . S
C275 C273 1.390 . S
C275 C276 1.386 . S
C275 H278 0.950 . S
C276 C275 1.386 . S
C276 C279 1.389 1_556 S
H277 C273 0.950 . S
H278 C275 0.950 . S
C279 C270 1.390 . S
C279 H272 0.950 . S
C279 C276 1.389 1_554 S
C280 C281 1.387 . S
C280 H284 0.950 . S
C280 C289 1.390 . S
C281 C280 1.387 . S
C281 C283 1.387 . S
H282 C289 0.950 . S
C283 C281 1.387 . S
C283 C285 1.390 . S
C283 H287 0.950 . S
H284 C280 0.950 . S
C285 C283 1.390 . S
C285 C286 1.387 . S
C285 H288 0.950 . S
C286 C285 1.387 . S
C286 C289 1.387 . S
H287 C283 0.950 . S
H288 C285 0.950 . S
C289 C280 1.390 . S
C289 H282 0.950 . S
C289 C286 1.387 . S
C290 C291 1.387 . S
C290 H294 0.950 . S
C290 C299 1.390 . S
C291 C290 1.387 . S
C291 C293 1.387 . S
H292 C299 0.950 . S
C293 C291 1.387 . S
C293 C295 1.390 . S
C293 H297 0.950 . S
H294 C290 0.950 . S
C295 C293 1.390 . S
C295 C296 1.387 . S
C295 H298 0.950 . S
C296 C295 1.387 . S
C296 C299 1.387 . S
H297 C293 0.950 . S
H298 C295 0.950 . S
C299 C290 1.390 . S
C299 H292 0.950 . S
C299 C296 1.387 . S
C300 C301 1.387 . S
C300 H304 0.950 . S
C300 C309 1.390 1_565 S
C301 C300 1.387 . S
C301 C303 1.387 1_665 S
H302 C309 0.949 1_565 S
C303 C301 1.387 1_445 S
C303 C305 1.390 . S
C303 H307 0.950 . S
H304 C300 0.950 . S
C305 C303 1.390 . S
C305 C306 1.387 1_455 S
C305 H308 0.950 . S
C306 C305 1.387 1_655 S
C306 C309 1.387 . S
H307 C303 0.950 . S
H308 C305 0.950 . S
C309 C300 1.390 1_545 S
C309 H302 0.949 1_545 S
C309 C306 1.387 . S
C310 C311 1.387 . S
C310 H314 0.950 . S
C310 C319 1.390 . S
C311 C310 1.387 . S
C311 C313 1.387 . S
H312 C319 0.950 . S
C313 C311 1.387 . S
C313 C315 1.390 . S
C313 H317 0.950 1_545 S
H314 C310 0.950 . S
C315 C313 1.390 . S
C315 C316 1.387 . S
C315 H318 0.950 1_545 S
C316 C315 1.387 . S
C316 C319 1.387 . S
H317 C313 0.950 1_565 S
H318 C315 0.950 1_565 S
C319 C310 1.390 . S
C319 H312 0.950 . S
C319 C316 1.387 . S
C320 C321 1.387 . S
C320 H324 0.950 . S
C320 C329 1.390 . S
C321 C320 1.387 . S
C321 C323 1.387 . S
H322 C329 0.950 . S
C323 C321 1.387 . S
C323 C325 1.390 . S
C323 H327 0.950 . S
H324 C320 0.950 . S
C325 C323 1.390 . S
C325 C326 1.387 . S
C325 H328 0.950 . S
C326 C325 1.387 . S
C326 C329 1.387 . S
H327 C323 0.950 . S
H328 C325 0.950 . S
C329 C320 1.390 . S
C329 H322 0.950 . S
C329 C326 1.387 . S
C330 C331 1.387 . S
C330 H334 0.950 1_455 S
C330 C339 1.390 . S
C331 C330 1.387 . S
C331 C333 1.387 . S
H332 C339 0.950 1_655 S
C333 C331 1.387 . S
C333 C335 1.390 . S
C333 H337 0.950 . S
H334 C330 0.950 1_655 S
C335 C333 1.390 . S
C335 C336 1.387 . S
C335 H338 0.950 . S
C336 C335 1.387 . S
C336 C339 1.387 . S
H337 C333 0.950 . S
H338 C335 0.950 . S
C339 C330 1.390 . S
C339 H332 0.950 1_455 S
C339 C336 1.387 . S
C340 C341 1.387 1_564 S
C340 H344 0.950 . S
C340 C349 1.390 . S
C341 C340 1.387 1_546 S
C341 C343 1.387 . S
H342 C349 0.950 . S
C343 C341 1.387 . S
C343 C345 1.390 . S
C343 H347 0.950 . S
H344 C340 0.950 . S
C345 C343 1.390 . S
C345 C346 1.387 1_556 S
C345 H348 0.950 . S
C346 C345 1.387 1_554 S
C346 C349 1.387 1_545 S
H347 C343 0.950 . S
H348 C345 0.950 . S
C349 C340 1.390 . S
C349 H342 0.950 . S
C349 C346 1.387 1_565 S
C350 C351 1.387 . S
C350 H354 0.950 . S
C350 C359 1.390 . S
C351 C350 1.387 . S
C351 C353 1.387 . S
H352 C359 0.950 . S
C353 C351 1.387 . S
C353 C355 1.390 . S
C353 H357 0.950 . S
H354 C350 0.950 . S
C355 C353 1.390 . S
C355 C356 1.387 . S
C355 H358 0.950 . S
C356 C355 1.387 . S
C356 C359 1.387 . S
H357 C353 0.950 . S
H358 C355 0.950 . S
C359 C350 1.390 . S
C359 H352 0.950 . S
C359 C356 1.387 . S
C360 C361 1.387 . S
C360 H364 0.950 . S
C360 C369 1.390 . S
C361 C360 1.387 . S
C361 C363 1.387 . S
H362 C369 0.950 . S
C363 C361 1.387 . S
C363 C365 1.390 . S
C363 H367 0.950 . S
H364 C360 0.950 . S
C365 C363 1.390 . S
C365 C366 1.387 . S
C365 H368 0.950 . S
C366 C365 1.387 . S
C366 C369 1.387 . S
H367 C363 0.950 . S
H368 C365 0.950 . S
C369 C360 1.390 . S
C369 H362 0.950 . S
C369 C366 1.387 . S
C370 C371 1.387 . S
C370 H374 0.950 . S
C370 C379 1.390 . S
C371 C370 1.387 . S
C371 C373 1.387 . S
H372 C379 0.950 . S
C373 C371 1.387 . S
C373 C375 1.390 . S
C373 H377 0.950 . S
H374 C370 0.950 . S
C375 C373 1.390 . S
C375 C376 1.387 . S
C375 H378 0.950 . S
C376 C375 1.387 . S
C376 C379 1.387 . S
H377 C373 0.950 . S
H378 C375 0.950 . S
C379 C370 1.390 . S
C379 H372 0.950 . S
C379 C376 1.387 . S
C380 C381 1.387 . S
C380 H384 0.950 1_556 S
C380 C389 1.390 1_556 S
C381 C380 1.387 . S
C381 C383 1.387 . S
H382 C389 0.950 . S
C383 C381 1.387 . S
C383 C385 1.390 . S
C383 H387 0.950 1_655 S
H384 C380 0.950 1_554 S
C385 C383 1.390 . S
C385 C386 1.387 . S
C385 H388 0.950 1_655 S
C386 C385 1.387 . S
C386 C389 1.387 1_556 S
H387 C383 0.950 1_455 S
H388 C385 0.950 1_455 S
C389 C380 1.390 1_554 S
C389 H382 0.950 . S
C389 C386 1.387 1_554 S
C390 C391 1.387 . S
C390 H394 0.950 . S
C390 C399 1.390 . S
C391 C390 1.387 . S
C391 C393 1.387 . S
H392 C399 0.950 . S
C393 C391 1.387 . S
C393 C395 1.390 . S
C393 H397 0.950 . S
H394 C390 0.950 . S
C395 C393 1.390 . S
C395 C396 1.387 . S
C395 H398 0.950 . S
C396 C395 1.387 . S
C396 C399 1.387 . S
H397 C393 0.950 . S
H398 C395 0.950 . S
C399 C390 1.390 . S
C399 H392 0.950 . S
C399 C396 1.387 . S
C400 C401 1.387 . S
C400 H404 0.950 . S
C400 C409 1.390 . S
C401 C400 1.387 . S
C401 C403 1.387 . S
H402 C409 0.950 . S
C403 C401 1.387 . S
C403 C405 1.390 . S
C403 H407 0.950 . S
H404 C400 0.950 . S
C405 C403 1.390 . S
C405 C406 1.387 . S
C405 H408 0.950 . S
C406 C405 1.387 . S
C406 C409 1.387 . S
H407 C403 0.950 . S
H408 C405 0.950 . S
C409 C400 1.390 . S
C409 H402 0.950 . S
C409 C406 1.387 . S
C410 C411 1.387 . S
C410 H414 0.950 . S
C410 C419 1.390 . S
C411 C410 1.387 . S
C411 C413 1.387 . S
H412 C419 0.950 . S
C413 C411 1.387 . S
C413 C415 1.390 . S
C413 H417 0.950 . S
H414 C410 0.950 . S
C415 C413 1.390 . S
C415 C416 1.387 . S
C415 H418 0.950 . S
C416 C415 1.387 . S
C416 C419 1.387 . S
H417 C413 0.950 . S
H418 C415 0.950 . S
C419 C410 1.390 . S
C419 H412 0.950 . S
C419 C416 1.387 . S
C181 C4 1.731 . S
C186 C106 1.690 . S
C191 C16 1.864 . S
C196 C130 1.799 . S
C206 C150 1.166 . S
C201 C32 1.153 . S
C211 C43 1.353 . S
C216 C173 1.380 . S
C226 C132 1.963 . S
C221 C5 2.001 . S
C236 C108 1.433 . S
C231 C21 1.514 . S
C246 C176 1.501 . S
C241 C27 1.565 . S
C256 C153 1.437 . S
C251 C37 1.474 . S
C261 C10 1.529 . S
C266 C178 1.471 . S
C276 C127 1.675 1_556 S
C271 C26 1.651 . S
C281 C38 1.397 . S
C286 C105 1.407 . S
C291 C15 1.615 . S
C296 C155 1.573 . S
C306 C109 1.873 . S
C301 C48 1.857 . S
C311 C59 1.660 . S
C316 C131 1.687 . S
C321 C76 1.559 . S
C326 C151 1.594 . S
C331 C87 1.426 . S
C336 C174 1.471 . S
C341 C54 1.413 1_545 S
C346 C129 1.417 . S
C356 C107 1.843 . S
C351 C60 1.826 . S
C366 C177 1.412 . S
C361 C71 1.474 . S
C376 C154 1.412 . S
C371 C82 1.421 . S
C381 C49 1.961 . S
C386 C175 1.925 . S
C396 C128 1.342 . S
C391 C70 1.323 . S
C406 C104 1.616 . S
C401 C81 1.596 . S
C411 C65 1.689 . S
C416 C152 1.675 . S
