# Generated by pormake.
# Topology zzz, (3,6)-cn, num edge types: 1
# Building blocks:
#     Node 0, Type 0, BuildingBlock: BETDAH_clean_linker_0, # of connection points: 3
#     Node 1, Type 0, BuildingBlock: BETDAH_clean_linker_0, # of connection points: 3
#     Node 2, Type 0, BuildingBlock: BETDAH_clean_linker_0, # of connection points: 3
#     Node 3, Type 0, BuildingBlock: BETDAH_clean_linker_0, # of connection points: 3
#     Node 4, Type 0, BuildingBlock: BETDAH_clean_linker_0, # of connection points: 3
#     Node 5, Type 0, BuildingBlock: BETDAH_clean_linker_0, # of connection points: 3
#     Node 6, Type 0, BuildingBlock: BETDAH_clean_linker_0, # of connection points: 3
#     Node 7, Type 0, BuildingBlock: BETDAH_clean_linker_0, # of connection points: 3
#     Node 8, Type 1, BuildingBlock: LEVNOQ01_clean_sbu_1, # of connection points: 6
#     Node 9, Type 1, BuildingBlock: LEVNOQ01_clean_sbu_1, # of connection points: 6
#     Node 10, Type 1, BuildingBlock: LEVNOQ01_clean_sbu_1, # of connection points: 6
#     Node 11, Type 1, BuildingBlock: LEVNOQ01_clean_sbu_1, # of connection points: 6
#     Edge 12, Type (0, 1), BuildingBlock: CIFDUS_clean_linker_0, # of connection points: 2
#     Edge 13, Type (0, 1), BuildingBlock: CIFDUS_clean_linker_0, # of connection points: 2
#     Edge 14, Type (0, 1), BuildingBlock: CIFDUS_clean_linker_0, # of connection points: 2
#     Edge 15, Type (0, 1), BuildingBlock: CIFDUS_clean_linker_0, # of connection points: 2
#     Edge 16, Type (0, 1), BuildingBlock: CIFDUS_clean_linker_0, # of connection points: 2
#     Edge 17, Type (0, 1), BuildingBlock: CIFDUS_clean_linker_0, # of connection points: 2
#     Edge 18, Type (0, 1), BuildingBlock: CIFDUS_clean_linker_0, # of connection points: 2
#     Edge 19, Type (0, 1), BuildingBlock: CIFDUS_clean_linker_0, # of connection points: 2
#     Edge 20, Type (0, 1), BuildingBlock: CIFDUS_clean_linker_0, # of connection points: 2
#     Edge 21, Type (0, 1), BuildingBlock: CIFDUS_clean_linker_0, # of connection points: 2
#     Edge 22, Type (0, 1), BuildingBlock: CIFDUS_clean_linker_0, # of connection points: 2
#     Edge 23, Type (0, 1), BuildingBlock: CIFDUS_clean_linker_0, # of connection points: 2
#     Edge 24, Type (0, 1), BuildingBlock: CIFDUS_clean_linker_0, # of connection points: 2
#     Edge 25, Type (0, 1), BuildingBlock: CIFDUS_clean_linker_0, # of connection points: 2
#     Edge 26, Type (0, 1), BuildingBlock: CIFDUS_clean_linker_0, # of connection points: 2
#     Edge 27, Type (0, 1), BuildingBlock: CIFDUS_clean_linker_0, # of connection points: 2
#     Edge 28, Type (0, 1), BuildingBlock: CIFDUS_clean_linker_0, # of connection points: 2
#     Edge 29, Type (0, 1), BuildingBlock: CIFDUS_clean_linker_0, # of connection points: 2
#     Edge 30, Type (0, 1), BuildingBlock: CIFDUS_clean_linker_0, # of connection points: 2
#     Edge 31, Type (0, 1), BuildingBlock: CIFDUS_clean_linker_0, # of connection points: 2
#     Edge 32, Type (0, 1), BuildingBlock: CIFDUS_clean_linker_0, # of connection points: 2
#     Edge 33, Type (0, 1), BuildingBlock: CIFDUS_clean_linker_0, # of connection points: 2
#     Edge 34, Type (0, 1), BuildingBlock: CIFDUS_clean_linker_0, # of connection points: 2
#     Edge 35, Type (0, 1), BuildingBlock: CIFDUS_clean_linker_0, # of connection points: 2
# Relax obj value: 0.134
# Max RMSD: 0.180
# Mean RMSD: 0.107
data_MOF--net-zzz--node1-LEVNOQ01_clean_sbu_1--node2-BETDAH_clean_linker_0--edge1-CIFDUS_clean_linker_0
_symmetry_space_group_name_H-M    P1
_symmetry_Int_Tables_number       1
_symmetry_cell_setting            triclinic
loop_
_symmetry_equiv_pos_as_xyz
'x, y, z'
_cell_length_a     44.072193
_cell_length_b     44.066858
_cell_length_c     13.922414
_cell_angle_alpha  90.022758
_cell_angle_beta   89.898753
_cell_angle_gamma 89.800325
loop_
_atom_site_label
_atom_site_type_symbol
_atom_site_fract_x
_atom_site_fract_y
_atom_site_fract_z
_atom_type_partial_charge
H0 H 0.85098 0.56474 0.14432 0.0
H1 H 0.76327 0.56911 0.00946 0.0
H2 H 0.77116 0.5545 0.31491 0.0
C3 C 0.82644 0.56625 0.14975 0.0
C4 C 0.81331 0.56017 0.23833 0.0
C5 C 0.80884 0.56857 0.06624 0.0
C6 C 0.77698 0.56791 0.07385 0.0
C7 C 0.76319 0.56443 0.16487 0.0
C8 C 0.78158 0.55974 0.24636 0.0
N9 N 0.73113 0.56396 0.17723 0.0
C10 C 0.70965 0.56137 0.10426 0.0
H11 H 0.97582 0.84813 0.15976 0.0
H12 H 0.9738 0.761 0.02311 0.0
H13 H 0.95186 0.76957 0.32492 0.0
C14 C 0.97052 0.82411 0.16367 0.0
C15 C 0.96269 0.81147 0.25189 0.0
C16 C 0.97481 0.80617 0.082 0.0
C17 C 0.9701 0.77476 0.08656 0.0
C18 C 0.96081 0.76144 0.17399 0.0
C19 C 0.95763 0.77991 0.25673 0.0
N20 N 0.95517 0.7297 0.18218 0.0
C21 C 0.96145 0.7079 0.11182 0.0
H22 H 0.66355 0.94911 0.19175 0.0
H23 H 0.74693 0.95352 0.03344 0.0
H24 H 0.74754 0.93697 0.33966 0.0
C25 C 0.68798 0.94601 0.18847 0.0
C26 C 0.70335 0.94114 0.27411 0.0
C27 C 0.70333 0.95098 0.10188 0.0
C28 C 0.73512 0.94949 0.1003 0.0
C29 C 0.75135 0.94351 0.18578 0.0
C30 C 0.73525 0.93988 0.27297 0.0
N31 N 0.78368 0.94229 0.1872 0.0
C32 C 0.80224 0.95075 0.11046 0.0
H33 H 0.57801 0.66632 0.1682 0.0
H34 H 0.57119 0.7538 0.03468 0.0
H35 H 0.5859 0.74623 0.34052 0.0
C36 C 0.58037 0.69081 0.17235 0.0
C37 C 0.5835 0.70391 0.26262 0.0
C38 C 0.5752 0.70847 0.0904 0.0
C39 C 0.57565 0.7402 0.09791 0.0
C40 C 0.58096 0.75408 0.18777 0.0
C41 C 0.5842 0.73574 0.27036 0.0
N42 N 0.58148 0.78624 0.19797 0.0
C43 C 0.56994 0.80619 0.12929 0.0
H44 H 0.17692 0.43663 0.26394 0.0
H45 H 0.26484 0.45178 0.38663 0.0
H46 H 0.25261 0.45507 0.08016 0.0
C47 C 0.20093 0.44088 0.2551 0.0
C48 C 0.21171 0.44776 0.16337 0.0
C49 C 0.2191 0.44497 0.33653 0.0
C50 C 0.25054 0.44878 0.32421 0.0
C51 C 0.26297 0.44998 0.23073 0.0
C52 C 0.24328 0.45074 0.15083 0.0
N53 N 0.29475 0.45244 0.21421 0.0
C54 C 0.31679 0.45616 0.28503 0.0
H55 H 0.07969 0.16642 0.28031 0.0
H56 H 0.06552 0.25552 0.39486 0.0
H57 H 0.0859 0.24369 0.09363 0.0
C58 C 0.08068 0.19084 0.27011 0.0
C59 C 0.08426 0.20241 0.17763 0.0
C60 C 0.07302 0.20971 0.34716 0.0
C61 C 0.07209 0.24123 0.33501 0.0
C62 C 0.07828 0.25386 0.2441 0.0
C63 C 0.08345 0.23422 0.16501 0.0
N64 N 0.07775 0.28586 0.22851 0.0
C65 C 0.07071 0.30784 0.29777 0.0
H66 H 0.36274 0.07454 0.24904 0.0
H67 H 0.27731 0.06851 0.39336 0.0
H68 H 0.28083 0.09218 0.09189 0.0
C69 C 0.33828 0.07778 0.24758 0.0
C70 C 0.32414 0.0848 0.16106 0.0
C71 C 0.32152 0.07083 0.32954 0.0
C72 C 0.28991 0.07375 0.32886 0.0
C73 C 0.27492 0.08256 0.24358 0.0
C74 C 0.29222 0.08728 0.15903 0.0
N75 N 0.24268 0.08558 0.23957 0.0
C76 C 0.22299 0.07711 0.31363 0.0
H77 H 0.45819 0.35022 0.22474 0.0
H78 H 0.44901 0.26762 0.38331 0.0
H79 H 0.45308 0.26583 0.07312 0.0
C80 C 0.45411 0.32594 0.22549 0.0
C81 C 0.45486 0.3102 0.13883 0.0
C82 C 0.45237 0.3109 0.31357 0.0
C83 C 0.44981 0.27917 0.31499 0.0
C84 C 0.44897 0.26271 0.22779 0.0
C85 C 0.45205 0.27841 0.13993 0.0
N86 N 0.44622 0.23049 0.22585 0.0
C87 C 0.44879 0.21181 0.30633 0.0
O88 O 0.05751 0.95662 0.84319 0.0
Mg89 Mg 0.05968 0.97216 0.70072 0.0
O90 O 0.0126 0.97508 0.81271 0.0
Mg91 Mg 0.01102 0.01538 0.70657 0.0
O92 O 0.06301 0.01662 0.65589 0.0
O93 O 0.10157 0.98304 0.65538 0.0
O94 O 0.00912 0.05506 0.59862 0.0
O95 O 0.02407 0.0535 0.82185 0.0
Mg96 Mg 0.96106 0.05519 0.6988 0.0
O97 O 0.95935 0.01337 0.76061 0.0
O98 O 0.96292 0.06377 0.5503 0.0
O99 O 0.98711 0.08533 0.78265 0.0
O100 O 0.91936 0.04512 0.74936 0.0
C101 C 0.00881 0.95255 0.57056 0.0
C102 C 0.02923 0.95618 0.85748 0.0
C103 C 0.09133 0.00986 0.63645 0.0
C104 C 0.99092 0.06938 0.54422 0.0
C105 C 0.01159 0.07988 0.82755 0.0
C106 C 0.93085 0.01976 0.77844 0.0
O107 O 0.03402 0.9449 0.60713 0.0
O108 O 0.99711 0.97863 0.5891 0.0
O109 O 0.43762 0.98689 0.75611 0.0
Mg110 Mg 0.47191 0.96221 0.68237 0.0
O111 O 0.46897 0.02179 0.81103 0.0
Mg112 Mg 0.51167 0.01105 0.71381 0.0
O113 O 0.51203 0.95842 0.75552 0.0
O114 O 0.4793 0.92004 0.73274 0.0
O115 O 0.5555 0.00209 0.61756 0.0
O116 O 0.54374 0.012 0.84067 0.0
Mg117 Mg 0.55489 0.06715 0.74158 0.0
O118 O 0.51274 0.06255 0.6826 0.0
O119 O 0.58431 0.04225 0.65064 0.0
O120 O 0.56146 0.05602 0.88755 0.0
O121 O 0.53568 0.10732 0.69666 0.0
C122 C 0.46663 0.99355 0.52399 0.0
C123 C 0.44233 0.01035 0.8067 0.0
C124 C 0.50452 0.92997 0.76748 0.0
C125 C 0.58058 0.01676 0.60941 0.0
C126 C 0.55932 0.02762 0.89891 0.0
C127 C 0.51324 0.09149 0.66483 0.0
O128 O 0.47122 0.96541 0.53202 0.0
O129 O 0.47865 0.0112 0.58517 0.0
O130 O 0.53716 0.43937 0.77885 0.0
Mg131 Mg 0.55964 0.46551 0.67272 0.0
O132 O 0.50105 0.4734 0.80835 0.0
Mg133 Mg 0.50933 0.51294 0.69889 0.0
O134 O 0.56263 0.50968 0.71652 0.0
O135 O 0.60307 0.47937 0.6941 0.0
O136 O 0.51654 0.55399 0.59061 0.0
O137 O 0.51461 0.54856 0.81751 0.0
Mg138 Mg 0.4557 0.5594 0.73517 0.0
O139 O 0.45677 0.51599 0.68618 0.0
O140 O 0.47845 0.58517 0.62944 0.0
O141 O 0.4723 0.56831 0.87393 0.0
O142 O 0.41347 0.54136 0.70982 0.0
C143 C 0.5172 0.45832 0.52537 0.0
C144 C 0.51321 0.44736 0.82317 0.0
C145 C 0.59189 0.50504 0.7218 0.0
C146 C 0.50241 0.57942 0.58147 0.0
C147 C 0.50093 0.56606 0.87604 0.0
C148 C 0.42737 0.51747 0.67869 0.0
O149 O 0.54565 0.45554 0.53269 0.0
O150 O 0.50302 0.47678 0.57974 0.0
O151 O 0.95148 0.47515 0.85139 0.0
Mg152 Mg 0.96549 0.46153 0.71387 0.0
O153 O 0.97415 0.5169 0.80616 0.0
Mg154 Mg 0.01387 0.50865 0.70052 0.0
O155 O 0.00975 0.45508 0.67599 0.0
O156 O 0.97607 0.41721 0.69354 0.0
O157 O 0.05382 0.50077 0.59479 0.0
O158 O 0.04864 0.49836 0.82387 0.0
Mg159 Mg 0.06333 0.55577 0.68395 0.0
O160 O 0.01893 0.56148 0.72492 0.0
O161 O 0.07539 0.54253 0.54428 0.0
O162 O 0.08637 0.5303 0.79052 0.0
O163 O 0.05171 0.59996 0.70936 0.0
C164 C 0.95258 0.508 0.55849 0.0
C165 C 0.95426 0.50361 0.85701 0.0
C166 C 0.0028 0.42627 0.66891 0.0
C167 C 0.07324 0.51396 0.54168 0.0
C168 C 0.07552 0.50836 0.83848 0.0
C169 C 0.02516 0.59031 0.73353 0.0
O170 O 0.94306 0.4846 0.60215 0.0
O171 O 0.97842 0.51975 0.57853 0.0
H172 H 0.16306 0.09004 0.33562 0.0
H173 H 0.2375 0.03959 0.4582 0.0
H174 H 0.20358 0.01777 0.57811 0.0
H175 H 0.15243 0.00929 0.63876 0.0
H176 H 0.07654 0.05688 0.51415 0.0
H177 H 0.11119 0.08423 0.40647 0.0
C178 C 0.17175 0.07453 0.38951 0.0
C179 C 0.20272 0.0664 0.38852 0.0
C180 C 0.15184 0.06163 0.45784 0.0
C181 C 0.21384 0.04629 0.458 0.0
C182 C 0.19441 0.03373 0.52643 0.0
C183 C 0.14342 0.02596 0.58898 0.0
C184 C 0.11188 0.03098 0.58447 0.0
C185 C 0.16333 0.04074 0.52577 0.0
C186 C 0.1007 0.05286 0.52006 0.0
C187 C 0.12053 0.06819 0.45757 0.0
H188 H 0.45404 0.15079 0.30268 0.0
H189 H 0.45432 0.22826 0.49182 0.0
H190 H 0.46942 0.19603 0.6261 0.0
H191 H 0.48949 0.14744 0.68383 0.0
H192 H 0.48985 0.06948 0.49718 0.0
H193 H 0.46683 0.09982 0.36865 0.0
C194 C 0.45695 0.16038 0.37385 0.0
C195 C 0.45357 0.19185 0.38753 0.0
C196 C 0.46576 0.1416 0.45096 0.0
C197 C 0.45716 0.20417 0.47954 0.0
C198 C 0.46577 0.18573 0.55638 0.0
C199 C 0.48367 0.13692 0.61586 0.0
C200 C 0.49137 0.10638 0.59968 0.0
C201 C 0.47111 0.15465 0.54218 0.0
C202 C 0.48377 0.09289 0.51159 0.0
C203 C 0.47101 0.11037 0.43768 0.0
H204 H 0.31918 0.45144 0.47911 0.0
H205 H 0.37156 0.47501 0.22875 0.0
H206 H 0.41381 0.49112 0.3305 0.0
H207 H 0.43288 0.50501 0.49077 0.0
H208 H 0.37993 0.48372 0.74146 0.0
H209 H 0.34121 0.45974 0.64086 0.0
C210 C 0.34007 0.4597 0.44733 0.0
C211 C 0.34238 0.46239 0.34708 0.0
C212 C 0.36417 0.46925 0.50657 0.0
C213 C 0.3694 0.473 0.30605 0.0
C214 C 0.39352 0.4822 0.36414 0.0
C215 C 0.41352 0.49382 0.5233 0.0
C216 C 0.40958 0.49529 0.62323 0.0
C217 C 0.39087 0.48119 0.46453 0.0
C218 C 0.38369 0.48216 0.66468 0.0
C219 C 0.3614 0.46881 0.60705 0.0
H220 H 0.058 0.30719 0.48882 0.0
H221 H 0.06591 0.36601 0.24319 0.0
H222 H 0.04954 0.40951 0.34028 0.0
H223 H 0.02747 0.42962 0.49109 0.0
H224 H 0.01915 0.37093 0.73634 0.0
H225 H 0.04085 0.32869 0.64446 0.0
C226 C 0.0564 0.32962 0.45717 0.0
C227 C 0.06291 0.33348 0.35905 0.0
C228 C 0.04684 0.35457 0.51363 0.0
C229 C 0.06082 0.36257 0.31858 0.0
C230 C 0.05147 0.38744 0.37408 0.0
C231 C 0.03199 0.40803 0.5256 0.0
C232 C 0.0229 0.40375 0.62147 0.0
C233 C 0.04391 0.38365 0.47134 0.0
C234 C 0.02678 0.37499 0.66345 0.0
C235 C 0.03889 0.35074 0.61055 0.0
H236 H 0.86333 0.94758 0.10729 0.0
H237 H 0.78575 0.97744 0.9443 0.0
H238 H 0.81914 0.99843 0.82086 0.0
H239 H 0.87027 0.0117 0.76526 0.0
H240 H 0.948 0.98628 0.93427 0.0
H241 H 0.9151 0.95921 0.04735 0.0
C242 C 0.85388 0.9584 0.04401 0.0
C243 C 0.82222 0.96097 0.03433 0.0
C244 C 0.87333 0.97089 0.97398 0.0
C245 C 0.81005 0.9751 0.95283 0.0
C246 C 0.82915 0.98716 0.88237 0.0
C247 C 0.88003 -0.00022 0.82603 0.0
C248 C 0.91168 0.0 0.83953 0.0
C249 C 0.8608 0.98565 0.89297 0.0
C250 C 0.92394 0.98501 0.91956 0.0
C251 C 0.90501 0.97015 0.98538 0.0
H252 H 0.59477 0.85202 0.02512 0.0
H253 H 0.51119 0.80513 0.08495 0.0
H254 H 0.48377 0.83919 0.97664 0.0
H255 H 0.48331 0.88238 0.86765 0.0
H256 H 0.56587 0.93113 0.80775 0.0
H257 H 0.59424 0.89576 0.91105 0.0
C258 C 0.57059 0.84933 0.01365 0.0
C259 C 0.55482 0.82621 0.06224 0.0
C260 C 0.55493 0.86919 0.95127 0.0
C261 C 0.5236 0.8228 0.0478 0.0
C262 C 0.50798 0.84225 0.98608 0.0
C263 C 0.50756 0.88534 0.87685 0.0
C264 C 0.52249 0.9093 0.82967 0.0
C265 C 0.52337 0.86554 0.93781 0.0
C266 C 0.55383 0.91295 0.84353 0.0
C267 C 0.56999 0.89278 0.90274 0.0
H268 H 0.70777 0.56152 0.90923 0.0
H269 H 0.65322 0.54984 0.16342 0.0
H270 H 0.60938 0.53613 0.06497 0.0
H271 H 0.58882 0.5207 0.90795 0.0
H272 H 0.64308 0.53143 0.65342 0.0
H273 H 0.68469 0.55227 0.74934 0.0
C274 C 0.6861 0.5564 0.94245 0.0
C275 C 0.68357 0.5564 0.04302 0.0
C276 C 0.66098 0.54834 0.88514 0.0
C277 C 0.65555 0.54977 0.0859 0.0
C278 C 0.63052 0.54193 0.0297 0.0
C279 C 0.60909 0.52927 0.87318 0.0
C280 C 0.61246 0.52574 0.77352 0.0
C281 C 0.63314 0.54044 0.92937 0.0
C282 C 0.63969 0.53483 0.72978 0.0
C283 C 0.66361 0.54637 0.78481 0.0
H284 H 0.96873 0.70777 0.91813 0.0
H285 H 0.96944 0.6503 0.16818 0.0
H286 H 0.98458 0.60672 0.0695 0.0
H287 H 0.00337 0.58641 0.91479 0.0
H288 H 0.00445 0.64417 0.66579 0.0
H289 H 0.98264 0.68591 0.7598 0.0
C290 C 0.97194 0.68559 0.95041 0.0
C291 C 0.96832 0.68215 0.0501 0.0
C292 C 0.98089 0.66065 0.89307 0.0
C293 C 0.97237 0.6534 0.0915 0.0
C294 C 0.98098 0.62849 0.0351 0.0
C295 C 0.99751 0.60773 0.88046 0.0
C296 C 0.00463 0.61196 0.78292 0.0
C297 C 0.98593 0.63195 0.93606 0.0
C298 C 0.9985 0.64021 0.74027 0.0
C299 C 0.98636 0.66418 0.79433 0.0
H300 H 0.01437 0.19834 0.36599 0.0
H301 H 0.10102 0.18396 0.50089 0.0
H302 H 0.08207 0.13761 0.57678 0.0
H303 H 0.04424 0.09742 0.57979 0.0
H304 H 0.95927 0.10887 0.42951 0.0
H305 H 0.97457 0.15995 0.38105 0.0
C306 C 0.02846 0.1858 0.41619 0.0
C307 C 0.05882 0.19446 0.42914 0.0
C308 C 0.01832 0.15791 0.45161 0.0
C309 C 0.07738 0.17791 0.49196 0.0
C310 C 0.0668 0.15102 0.53286 0.0
C311 C 0.02914 0.11077 0.53511 0.0
C312 C 0.00101 0.09887 0.50548 0.0
C313 C 0.03798 0.13999 0.5082 0.0
C314 C 0.98136 0.11714 0.45094 0.0
C315 C 0.98991 0.14647 0.42447 0.0
H316 H 0.33927 0.01328 0.33128 0.0
H317 H 0.34431 0.09664 0.49151 0.0
H318 H 0.39194 0.07977 0.56527 0.0
H319 H 0.43538 0.04524 0.56262 0.0
H320 H 0.43252 0.96369 0.39032 0.0
H321 H 0.38119 0.97676 0.33786 0.0
C322 C 0.35017 0.027 0.38595 0.0
C323 C 0.33844 0.05594 0.40705 0.0
C324 C 0.37869 0.01838 0.42057 0.0
C325 C 0.35279 0.07405 0.47598 0.0
C326 C 0.38038 0.06476 0.51574 0.0
C327 C 0.42386 0.03046 0.51229 0.0
C328 C 0.43815 0.00381 0.47846 0.0
C329 C 0.39428 0.0378 0.4841 0.0
C330 C 0.42234 0.98464 0.41557 0.0
C331 C 0.39284 0.99184 0.38693 0.0
H332 H 0.42419 0.36195 0.37374 0.0
H333 H 0.49882 0.30206 0.43855 0.0
H334 H 0.5266 0.34414 0.51102 0.0
H335 H 0.53344 0.39923 0.52612 0.0
H336 H 0.46108 0.4599 0.44462 0.0
H337 H 0.42895 0.41653 0.40378 0.0
C338 C 0.44599 0.35797 0.40774 0.0
C339 C 0.45976 0.32922 0.39926 0.0
C340 C 0.46292 0.38275 0.44027 0.0
C341 C 0.4878 0.32401 0.44409 0.0
C342 C 0.50405 0.34828 0.48285 0.0
C343 C 0.51085 0.40299 0.49759 0.0
C344 C 0.4998 0.43278 0.48552 0.0
C345 C 0.49265 0.37797 0.47506 0.0
C346 C 0.47007 0.43721 0.4527 0.0
C347 C 0.45169 0.41244 0.43048 0.0
H348 H 0.17138 0.41706 0.42376 0.0
H349 H 0.22917 0.49541 0.44524 0.0
H350 H 0.18739 0.52487 0.51306 0.0
H351 H 0.13215 0.53142 0.53081 0.0
H352 H 0.0732 0.45498 0.48633 0.0
H353 H 0.117 0.42226 0.45535 0.0
C354 C 0.17505 0.44031 0.44668 0.0
C355 C 0.20291 0.45437 0.42543 0.0
C356 C 0.15006 0.45807 0.47426 0.0
C357 C 0.20782 0.48407 0.45886 0.0
C358 C 0.18361 0.50127 0.49479 0.0
C359 C 0.12885 0.50773 0.51263 0.0
C360 C 0.09933 0.49572 0.50794 0.0
C361 C 0.15422 0.48913 0.49545 0.0
C362 C 0.0956 0.46473 0.48821 0.0
C363 C 0.12068 0.446 0.47197 0.0
H364 H 0.9463 0.84568 0.96762 0.0
H365 H 0.033 0.80383 0.01985 0.0
H366 H 0.0589 0.84858 0.95598 0.0
H367 H 0.05645 0.90302 0.91383 0.0
H368 H 0.96897 0.94443 0.86573 0.0
H369 H 0.94379 0.89728 0.90466 0.0
C370 C 0.97083 0.84584 0.96007 0.0
C371 C 0.98781 0.82176 -0.00172 0.0
C372 C 0.9854 0.87244 0.93071 0.0
C373 C 0.01954 0.82208 0.98958 0.0
C374 C 0.03432 0.84805 0.9559 0.0
C375 C 0.03188 0.90186 0.91333 0.0
C376 C 0.01461 0.928 0.89255 0.0
C377 C 0.01745 0.87405 0.93209 0.0
C378 C 0.98281 0.92549 0.88791 0.0
C379 C 0.96836 0.89817 0.90733 0.0
H380 H 0.65075 0.92875 0.03453 0.0
H381 H 0.71415 0.0018 -0.00634 0.0
H382 H 0.67346 0.03387 0.92938 0.0
H383 H 0.6184 0.04365 0.91247 0.0
H384 H 0.55484 0.97286 0.98451 0.0
H385 H 0.59677 0.93866 0.02253 0.0
C386 C 0.65573 0.95152 0.00929 0.0
C387 C 0.68507 0.96324 0.02156 0.0
C388 C 0.6318 0.97098 0.98609 0.0
C389 C 0.69165 0.99231 0.98586 0.0
C390 C 0.66821 0.01096 0.9521 0.0
C391 C 0.61375 0.02098 0.93896 0.0
C392 C 0.58358 0.01096 0.94819 0.0
C393 C 0.63796 0.00115 0.95814 0.0
C394 C 0.57788 0.98123 0.97928 0.0
C395 C 0.60178 0.96141 -0.00199 0.0
H396 H 0.59943 0.66004 0.00047 0.0
H397 H 0.52199 0.71988 -0.00274 0.0
H398 H 0.49068 0.67943 0.92988 0.0
H399 H 0.48337 0.62461 0.90267 0.0
H400 H 0.5594 0.56367 0.93256 0.0
H401 H 0.59296 0.60634 0.96537 0.0
C402 C 0.57594 0.66444 0.98145 0.0
C403 C 0.56279 0.69246 0.006 0.0
C404 C 0.55742 0.64026 0.95418 0.0
C405 C 0.53258 0.69836 0.97959 0.0
C406 C 0.51445 0.67495 0.94395 0.0
C407 C 0.50713 0.62062 0.91866 0.0
C408 C 0.51893 0.59089 0.91728 0.0
C409 C 0.52617 0.64534 0.93765 0.0
C410 C 0.54993 0.58626 0.93471 0.0
C411 C 0.56911 0.61068 0.952 0.0
H412 H 0.85756 0.59896 -0.00341 0.0
H413 H 0.79799 0.5242 0.93522 0.0
H414 H 0.83989 0.49627 0.86174 0.0
H415 H 0.89501 0.48845 0.8513 0.0
H416 H 0.95555 0.56084 0.93009 0.0
H417 H 0.91217 0.59377 0.9665 0.0
C418 C 0.85357 0.57713 0.96284 0.0
C419 C 0.82514 0.5631 0.97479 0.0
C420 C 0.87842 0.5599 0.93095 0.0
C421 C 0.8198 0.53529 0.92863 0.0
C422 C 0.84401 0.51887 0.88944 0.0
C423 C 0.89871 0.51127 0.878 0.0
C424 C 0.92845 0.52195 0.89161 0.0
C425 C 0.8737 0.53 0.89764 0.0
C426 C 0.93288 0.552 0.9217 0.0
C427 C 0.90809 0.57089 0.94109 0.0
H428 H 0.04476 0.20385 0.02974 0.0
H429 H 0.11674 0.14974 0.15008 0.0
H430 H 0.10147 0.10637 0.05133 0.0
H431 H 0.06351 0.08202 0.94267 0.0
H432 H 0.99107 0.13786 0.82932 0.0
H433 H 0.01061 0.18158 0.91233 0.0
C434 C 0.05787 0.18297 0.03162 0.0
C435 C 0.08197 0.18024 0.09674 0.0
C436 C 0.04828 0.15781 0.97733 0.0
C437 C 0.09821 0.1526 0.09981 0.0
C438 C 0.0892 0.12761 0.04425 0.0
C439 C 0.05208 0.10373 0.93611 0.0
C440 C 0.02538 0.10601 0.88064 0.0
C441 C 0.0635 0.12956 0.98503 0.0
C442 C 0.01127 0.13474 0.87242 0.0
C443 C 0.02254 0.16014 0.91959 0.0
H444 H 0.31942 0.04552 0.01337 0.0
H445 H 0.3745 0.11837 0.12139 0.0
H446 H 0.41672 0.10224 0.01882 0.0
H447 H 0.44015 0.06299 0.91443 0.0
H448 H 0.38432 0.9896 0.81066 0.0
H449 H 0.34068 0.0103 0.89469 0.0
C450 C 0.34016 0.0587 0.01094 0.0
C451 C 0.34366 0.08328 0.074 0.0
C452 C 0.36474 0.04855 0.9546 0.0
C453 C 0.37106 0.09967 0.07208 0.0
C454 C 0.39543 0.09008 0.01477 0.0
C455 C 0.41843 0.0516 0.90998 0.0
C456 C 0.41595 0.02434 0.85759 0.0
C457 C 0.39297 0.06375 0.95867 0.0
C458 C 0.38732 0.01028 0.85155 0.0
C459 C 0.36211 0.0222 0.89927 0.0
H460 H 0.42898 0.36174 0.07108 0.0
H461 H 0.50323 0.29973 0.02197 0.0
H462 H 0.52849 0.33752 0.92128 0.0
H463 H 0.53179 0.38969 0.86151 0.0
H464 H 0.45855 0.45278 0.91675 0.0
H465 H 0.431 0.41331 0.00374 0.0
C466 C 0.45023 0.35622 0.03551 0.0
C467 C 0.46408 0.32785 0.05294 0.0
C468 C 0.46529 0.37861 0.98209 0.0
C469 C 0.49177 0.32105 0.00778 0.0
C470 C 0.50651 0.34292 0.95203 0.0
C471 C 0.50983 0.39496 0.8927 0.0
C472 C 0.49747 0.4244 0.88326 0.0
C473 C 0.49395 0.37208 0.94147 0.0
C474 C 0.46886 0.43055 0.92386 0.0
C475 C 0.45293 0.40788 0.97277 0.0
H476 H 0.15701 0.47584 0.18876 0.0
H477 H 0.21523 0.4398 0.96557 0.0
H478 H 0.17738 0.4545 0.84508 0.0
H479 H 0.12785 0.47843 0.80425 0.0
H480 H 0.06841 0.50837 0.03171 0.0
H481 H 0.10627 0.49328 0.15145 0.0
C482 C 0.16132 0.46986 0.11445 0.0
C483 C 0.18901 0.45586 0.08733 0.0
C484 C 0.13901 0.47694 0.04674 0.0
C485 C 0.19435 0.45046 0.9892 0.0
C486 C 0.17256 0.45864 0.92032 0.0
C487 C 0.12308 0.48095 0.88033 0.0
C488 C 0.09546 0.49418 0.91003 0.0
C489 C 0.14482 0.47188 0.94843 0.0
C490 C 0.08935 0.49777 0.00802 0.0
C491 C 0.1111 0.48945 0.07602 0.0
H492 H 0.93825 0.86803 0.27859 0.0
H493 H 0.99499 0.80071 0.41452 0.0
H494 H 0.01311 0.83875 0.5282 0.0
H495 H 0.01794 0.89193 0.57467 0.0
H496 H 0.9626 0.9604 0.43835 0.0
H497 H 0.93894 0.92111 0.3382 0.0
C498 C 0.95393 0.86154 0.335 0.0
C499 C 0.96529 0.83146 0.33794 0.0
C500 C 0.96511 0.88389 0.39801 0.0
C501 C 0.98554 0.82341 0.41136 0.0
C502 C 0.99632 0.84534 0.47532 0.0
C503 C 0.00067 0.89843 0.52313 0.0
C504 C 0.99261 0.9293 0.51243 0.0
C505 C 0.98717 0.8758 0.46673 0.0
C506 C 0.96956 0.93697 0.44716 0.0
C507 C 0.95601 0.91447 0.39013 0.0
H508 H 0.70462 0.98667 0.40159 0.0
H509 H 0.6578 0.90394 0.33386 0.0
H510 H 0.61455 0.91979 0.43287 0.0
H511 H 0.58751 0.96045 0.52302 0.0
H512 H 0.63492 0.04421 0.58072 0.0
H513 H 0.67984 0.02486 0.50169 0.0
C514 C 0.68559 0.97148 0.41258 0.0
C515 C 0.68474 0.9439 0.36253 0.0
C516 C 0.66021 0.98147 0.46531 0.0
C517 C 0.65935 0.92491 0.37423 0.0
C518 C 0.63431 0.9343 0.42904 0.0
C519 C 0.60764 0.97443 0.51819 0.0
C520 C 0.60732 0.00397 0.55709 0.0
C521 C 0.63397 0.96313 0.47196 0.0
C522 C 0.63398 0.02154 0.55086 0.0
C523 C 0.66 0.01044 0.50604 0.0
H524 H 0.53375 0.70228 0.37161 0.0
H525 H 0.61923 0.65717 0.32583 0.0
H526 H 0.60161 0.6132 0.41837 0.0
H527 H 0.55971 0.58591 0.50182 0.0
H528 H 0.47297 0.6311 0.53147 0.0
H529 H 0.49299 0.67606 0.45504 0.0
C530 C 0.54895 0.68337 0.3857 0.0
C531 C 0.57808 0.68342 0.3452 0.0
C532 C 0.53799 0.65756 0.43343 0.0
C533 C 0.5971 0.6581 0.35969 0.0
C534 C 0.58674 0.63269 0.41068 0.0
C535 C 0.54515 0.60547 0.49055 0.0
C536 C 0.51478 0.60479 0.52262 0.0
C537 C 0.55683 0.63176 0.44559 0.0
C538 C 0.4964 0.63064 0.50786 0.0
C539 C 0.50786 0.65665 0.46458 0.0
H540 H 0.854 0.58947 0.35237 0.0
H541 H 0.82072 0.50102 0.27499 0.0
H542 H 0.86363 0.47705 0.35621 0.0
H543 H 0.91071 0.48114 0.44738 0.0
H544 H 0.94419 0.56904 0.53082 0.0
H545 H 0.90128 0.5935 0.44905 0.0
C546 C 0.85566 0.56496 0.35692 0.0
C547 C 0.83361 0.54691 0.31159 0.0
C548 C 0.88075 0.55135 0.40271 0.0
C549 C 0.83662 0.5152 0.3136 0.0
C550 C 0.86147 0.50156 0.35822 0.0
C551 C 0.90885 0.5057 0.44648 0.0
C552 C 0.93084 0.52328 0.49358 0.0
C553 C 0.88377 0.5194 0.40217 0.0
C554 C 0.92805 0.55505 0.49257 0.0
C555 C 0.90323 0.56899 0.44728 0.0
loop_
_geom_bond_atom_site_label_1
_geom_bond_atom_site_label_2
_geom_bond_distance
_geom_bond_site_symmetry_2
_ccdc_geom_bond_type
H0 C3 0.929 . S
H1 C6 0.929 1_556 S
H2 C8 0.930 . S
C3 H0 0.929 . S
C3 C4 1.398 . S
C3 C5 1.396 . S
C4 C3 1.398 . S
C4 C8 1.407 . S
C5 C3 1.396 . S
C5 C6 1.394 . S
C6 H1 0.929 1_554 S
C6 C5 1.394 . S
C6 C7 1.382 . S
C7 C6 1.382 . S
C7 C8 1.392 . S
C7 N9 1.420 . S
C8 H2 0.930 . S
C8 C4 1.407 . S
C8 C7 1.392 . S
N9 C7 1.420 . S
N9 C10 1.244 . S
C10 N9 1.244 . S
H11 C14 0.929 . S
H12 C17 0.929 1_556 S
H13 C19 0.930 . S
C14 H11 0.929 . S
C14 C15 1.398 . S
C14 C16 1.396 . S
C15 C14 1.398 . S
C15 C19 1.407 . S
C16 C14 1.396 . S
C16 C17 1.394 . S
C17 H12 0.929 1_554 S
C17 C16 1.394 . S
C17 C18 1.382 . S
C18 C17 1.382 . S
C18 C19 1.392 . S
C18 N20 1.420 . S
C19 H13 0.930 . S
C19 C15 1.407 . S
C19 C18 1.392 . S
N20 C18 1.420 . S
N20 C21 1.244 . S
C21 N20 1.244 . S
H22 C25 0.929 . S
H23 C28 0.929 1_556 S
H24 C30 0.930 . S
C25 H22 0.929 . S
C25 C26 1.398 . S
C25 C27 1.396 . S
C26 C25 1.398 . S
C26 C30 1.407 . S
C27 C25 1.396 . S
C27 C28 1.394 . S
C28 H23 0.929 1_554 S
C28 C27 1.394 . S
C28 C29 1.382 . S
C29 C28 1.382 . S
C29 C30 1.392 . S
C29 N31 1.420 . S
C30 H24 0.930 . S
C30 C26 1.407 . S
C30 C29 1.392 . S
N31 C29 1.420 . S
N31 C32 1.244 . S
C32 N31 1.244 . S
H33 C36 0.929 . S
H34 C39 0.929 1_556 S
H35 C41 0.930 . S
C36 H33 0.929 . S
C36 C37 1.398 . S
C36 C38 1.396 . S
C37 C36 1.398 . S
C37 C41 1.407 . S
C38 C36 1.396 . S
C38 C39 1.394 . S
C39 H34 0.929 1_554 S
C39 C38 1.394 . S
C39 C40 1.382 . S
C40 C39 1.382 . S
C40 C41 1.392 . S
C40 N42 1.420 . S
C41 H35 0.930 . S
C41 C37 1.407 . S
C41 C40 1.392 . S
N42 C40 1.420 . S
N42 C43 1.244 . S
C43 N42 1.244 . S
H44 C47 0.929 . S
H45 C50 0.929 . S
H46 C52 0.930 . S
C47 H44 0.929 . S
C47 C48 1.398 . S
C47 C49 1.396 . S
C48 C47 1.398 . S
C48 C52 1.407 . S
C49 C47 1.396 . S
C49 C50 1.394 . S
C50 H45 0.929 . S
C50 C49 1.394 . S
C50 C51 1.382 . S
C51 C50 1.382 . S
C51 C52 1.392 . S
C51 N53 1.420 . S
C52 H46 0.930 . S
C52 C48 1.407 . S
C52 C51 1.392 . S
N53 C51 1.420 . S
N53 C54 1.244 . S
C54 N53 1.244 . S
H55 C58 0.929 . S
H56 C61 0.929 . S
H57 C63 0.930 . S
C58 H55 0.929 . S
C58 C59 1.398 . S
C58 C60 1.396 . S
C59 C58 1.398 . S
C59 C63 1.407 . S
C60 C58 1.396 . S
C60 C61 1.394 . S
C61 H56 0.929 . S
C61 C60 1.394 . S
C61 C62 1.382 . S
C62 C61 1.382 . S
C62 C63 1.392 . S
C62 N64 1.420 . S
C63 H57 0.930 . S
C63 C59 1.407 . S
C63 C62 1.392 . S
N64 C62 1.420 . S
N64 C65 1.244 . S
C65 N64 1.244 . S
H66 C69 0.929 . S
H67 C72 0.929 . S
H68 C74 0.930 . S
C69 H66 0.929 . S
C69 C70 1.398 . S
C69 C71 1.396 . S
C70 C69 1.398 . S
C70 C74 1.407 . S
C71 C69 1.396 . S
C71 C72 1.394 . S
C72 H67 0.929 . S
C72 C71 1.394 . S
C72 C73 1.382 . S
C73 C72 1.382 . S
C73 C74 1.392 . S
C73 N75 1.420 . S
C74 H68 0.930 . S
C74 C70 1.407 . S
C74 C73 1.392 . S
N75 C73 1.420 . S
N75 C76 1.244 . S
C76 N75 1.244 . S
H77 C80 0.929 . S
H78 C83 0.929 . S
H79 C85 0.930 . S
C80 H77 0.929 . S
C80 C81 1.398 . S
C80 C82 1.396 . S
C81 C80 1.398 . S
C81 C85 1.407 . S
C82 C80 1.396 . S
C82 C83 1.394 . S
C83 H78 0.929 . S
C83 C82 1.394 . S
C83 C84 1.382 . S
C84 C83 1.382 . S
C84 C85 1.392 . S
C84 N86 1.420 . S
C85 H79 0.930 . S
C85 C81 1.407 . S
C85 C84 1.392 . S
N86 C84 1.420 . S
N86 C87 1.244 . S
C87 N86 1.244 . S
O88 Mg89 1.990 . S
O88 C102 1.253 . S
Mg89 O88 1.990 . S
Mg89 O92 2.181 1_565 S
Mg89 O93 2.117 . S
Mg89 O107 2.030 . S
O90 Mg91 2.072 1_565 S
O90 C102 1.260 . S
Mg91 O90 2.072 1_545 S
Mg91 O92 2.098 . S
Mg91 O94 2.079 . S
Mg91 O95 2.072 . S
Mg91 O97 2.099 1_455 S
Mg91 O108 2.079 1_445 S
O92 Mg89 2.181 1_545 S
O92 Mg91 2.098 . S
O92 C103 1.279 . S
O93 Mg89 2.117 . S
O93 C103 1.250 1_565 S
O94 Mg91 2.079 . S
O94 C104 1.264 . S
O95 Mg91 2.072 . S
O95 C105 1.260 . S
Mg96 O97 2.180 . S
Mg96 O98 2.030 . S
Mg96 O99 1.990 . S
Mg96 O100 2.117 . S
O97 Mg91 2.099 1_655 S
O97 Mg96 2.180 . S
O97 C106 1.279 . S
O98 Mg96 2.030 . S
O98 C104 1.248 1_655 S
O99 Mg96 1.990 . S
O99 C105 1.253 1_655 S
O100 Mg96 2.117 . S
O100 C106 1.250 . S
C101 O107 1.248 . S
C101 O108 1.264 1_455 S
C102 O88 1.253 . S
C102 O90 1.260 . S
C103 O92 1.279 . S
C103 O93 1.250 1_545 S
C104 O94 1.264 . S
C104 O98 1.248 1_455 S
C105 O95 1.260 . S
C105 O99 1.253 1_455 S
C106 O97 1.279 . S
C106 O100 1.250 . S
O107 Mg89 2.030 . S
O107 C101 1.248 . S
O108 Mg91 2.079 1_665 S
O108 C101 1.264 1_655 S
O109 Mg110 1.990 . S
O109 C123 1.253 1_565 S
Mg110 O109 1.990 . S
Mg110 O113 2.180 . S
Mg110 O114 2.117 . S
Mg110 O128 2.030 . S
O111 Mg112 2.072 . S
O111 C123 1.260 . S
Mg112 O111 2.072 . S
Mg112 O113 2.099 1_545 S
Mg112 O115 2.079 1_545 S
Mg112 O116 2.072 . S
Mg112 O118 2.099 . S
Mg112 O129 2.079 . S
O113 Mg110 2.180 . S
O113 Mg112 2.099 1_565 S
O113 C124 1.279 . S
O114 Mg110 2.117 . S
O114 C124 1.250 . S
O115 Mg112 2.079 1_565 S
O115 C125 1.259 1_565 S
O116 Mg112 2.072 . S
O116 C126 1.260 . S
Mg117 O118 2.180 . S
Mg117 O119 2.030 . S
Mg117 O120 1.990 . S
Mg117 O121 2.117 . S
O118 Mg112 2.099 . S
O118 Mg117 2.180 . S
O118 C127 1.279 . S
O119 Mg117 2.030 . S
O119 C125 1.271 . S
O120 Mg117 1.990 . S
O120 C126 1.253 . S
O121 Mg117 2.117 . S
O121 C127 1.250 . S
C122 O128 1.248 1_545 S
C122 O129 1.264 . S
C123 O109 1.253 1_545 S
C123 O111 1.260 . S
C124 O113 1.279 . S
C124 O114 1.250 . S
C125 O115 1.259 1_545 S
C125 O119 1.271 . S
C126 O116 1.260 . S
C126 O120 1.253 . S
C127 O118 1.279 . S
C127 O121 1.250 . S
O128 Mg110 2.030 . S
O128 C122 1.248 1_565 S
O129 Mg112 2.079 . S
O129 C122 1.264 . S
O130 Mg131 1.990 . S
O130 C144 1.253 . S
Mg131 O130 1.990 . S
Mg131 O134 2.180 . S
Mg131 O135 2.117 . S
Mg131 O149 2.030 . S
O132 Mg133 2.072 . S
O132 C144 1.260 . S
Mg133 O132 2.072 . S
Mg133 O134 2.099 . S
Mg133 O136 2.079 . S
Mg133 O137 2.072 . S
Mg133 O139 2.099 . S
Mg133 O150 2.079 . S
O134 Mg131 2.180 . S
O134 Mg133 2.099 . S
O134 C145 1.279 . S
O135 Mg131 2.117 . S
O135 C145 1.250 . S
O136 Mg133 2.079 . S
O136 C146 1.264 . S
O137 Mg133 2.072 . S
O137 C147 1.260 . S
Mg138 O139 2.180 . S
Mg138 O140 2.030 . S
Mg138 O141 1.990 . S
Mg138 O142 2.117 . S
O139 Mg133 2.099 . S
O139 Mg138 2.180 . S
O139 C148 1.279 . S
O140 Mg138 2.030 . S
O140 C146 1.248 . S
O141 Mg138 1.990 . S
O141 C147 1.253 . S
O142 Mg138 2.117 . S
O142 C148 1.250 . S
C143 O149 1.248 . S
C143 O150 1.264 . S
C144 O130 1.253 . S
C144 O132 1.260 . S
C145 O134 1.279 . S
C145 O135 1.250 . S
C146 O136 1.264 . S
C146 O140 1.248 . S
C147 O137 1.260 . S
C147 O141 1.253 . S
C148 O139 1.279 . S
C148 O142 1.250 . S
O149 Mg131 2.030 . S
O149 C143 1.248 . S
O150 Mg133 2.079 . S
O150 C143 1.264 . S
O151 Mg152 1.990 . S
O151 C165 1.253 . S
Mg152 O151 1.990 . S
Mg152 O155 2.180 1_655 S
Mg152 O156 2.117 . S
Mg152 O170 2.030 . S
O153 Mg154 2.072 1_655 S
O153 C165 1.260 . S
Mg154 O153 2.072 1_455 S
Mg154 O155 2.099 . S
Mg154 O157 2.079 . S
Mg154 O158 2.072 . S
Mg154 O160 2.099 . S
Mg154 O171 2.079 1_455 S
O155 Mg152 2.180 1_455 S
O155 Mg154 2.099 . S
O155 C166 1.279 . S
O156 Mg152 2.117 . S
O156 C166 1.250 1_655 S
O157 Mg154 2.079 . S
O157 C167 1.264 . S
O158 Mg154 2.072 . S
O158 C168 1.260 . S
Mg159 O160 2.180 . S
Mg159 O161 2.030 . S
Mg159 O162 1.990 . S
Mg159 O163 2.117 . S
O160 Mg154 2.099 . S
O160 Mg159 2.180 . S
O160 C169 1.279 . S
O161 Mg159 2.030 . S
O161 C167 1.248 . S
O162 Mg159 1.990 . S
O162 C168 1.253 . S
O163 Mg159 2.117 . S
O163 C169 1.250 . S
C164 O170 1.248 . S
C164 O171 1.264 . S
C165 O151 1.253 . S
C165 O153 1.260 . S
C166 O155 1.279 . S
C166 O156 1.250 1_455 S
C167 O157 1.264 . S
C167 O161 1.248 . S
C168 O158 1.260 . S
C168 O162 1.253 . S
C169 O160 1.279 . S
C169 O163 1.250 . S
O170 Mg152 2.030 . S
O170 C164 1.248 . S
O171 Mg154 2.079 1_655 S
O171 C164 1.264 . S
H172 C178 0.930 . S
H173 C181 0.930 . S
H174 C182 0.930 . S
H175 C183 0.930 . S
H176 C186 0.930 . S
H177 C187 0.930 . S
C178 H172 0.930 . S
C178 C179 1.355 . S
C178 C180 1.415 . S
C179 C178 1.355 . S
C179 C181 1.419 . S
C180 C178 1.415 . S
C180 C185 1.425 . S
C180 C187 1.409 . S
C181 H173 0.930 . S
C181 C179 1.419 . S
C181 C182 1.362 . S
C182 H174 0.930 . S
C182 C181 1.362 . S
C182 C185 1.409 . S
C183 H175 0.930 . S
C183 C184 1.355 . S
C183 C185 1.415 . S
C184 C183 1.355 . S
C184 C186 1.419 . S
C185 C180 1.425 . S
C185 C182 1.409 . S
C185 C183 1.415 . S
C186 H176 0.930 . S
C186 C184 1.419 . S
C186 C187 1.362 . S
C187 H177 0.930 . S
C187 C180 1.409 . S
C187 C186 1.362 . S
H188 C194 0.930 . S
H189 C197 0.930 . S
H190 C198 0.930 . S
H191 C199 0.930 . S
H192 C202 0.930 . S
H193 C203 0.930 . S
C194 H188 0.930 . S
C194 C195 1.355 . S
C194 C196 1.415 . S
C195 C194 1.355 . S
C195 C197 1.419 . S
C196 C194 1.415 . S
C196 C201 1.425 . S
C196 C203 1.409 . S
C197 H189 0.930 . S
C197 C195 1.419 . S
C197 C198 1.362 . S
C198 H190 0.930 . S
C198 C197 1.362 . S
C198 C201 1.409 . S
C199 H191 0.930 . S
C199 C200 1.355 . S
C199 C201 1.415 . S
C200 C199 1.355 . S
C200 C202 1.419 . S
C201 C196 1.425 . S
C201 C198 1.409 . S
C201 C199 1.415 . S
C202 H192 0.930 . S
C202 C200 1.419 . S
C202 C203 1.362 . S
C203 H193 0.930 . S
C203 C196 1.409 . S
C203 C202 1.362 . S
H204 C210 0.930 . S
H205 C213 0.930 . S
H206 C214 0.930 . S
H207 C215 0.930 . S
H208 C218 0.930 . S
H209 C219 0.930 . S
C210 H204 0.930 . S
C210 C211 1.355 . S
C210 C212 1.415 . S
C211 C210 1.355 . S
C211 C213 1.419 . S
C212 C210 1.415 . S
C212 C217 1.425 . S
C212 C219 1.409 . S
C213 H205 0.930 . S
C213 C211 1.419 . S
C213 C214 1.362 . S
C214 H206 0.930 . S
C214 C213 1.362 . S
C214 C217 1.409 . S
C215 H207 0.930 . S
C215 C216 1.355 . S
C215 C217 1.415 . S
C216 C215 1.355 . S
C216 C218 1.419 . S
C217 C212 1.425 . S
C217 C214 1.409 . S
C217 C215 1.415 . S
C218 H208 0.930 . S
C218 C216 1.419 . S
C218 C219 1.362 . S
C219 H209 0.930 . S
C219 C212 1.409 . S
C219 C218 1.362 . S
H220 C226 0.930 . S
H221 C229 0.930 . S
H222 C230 0.930 . S
H223 C231 0.930 . S
H224 C234 0.930 . S
H225 C235 0.930 . S
C226 H220 0.930 . S
C226 C227 1.355 . S
C226 C228 1.415 . S
C227 C226 1.355 . S
C227 C229 1.419 . S
C228 C226 1.415 . S
C228 C233 1.425 . S
C228 C235 1.409 . S
C229 H221 0.930 . S
C229 C227 1.419 . S
C229 C230 1.362 . S
C230 H222 0.930 . S
C230 C229 1.362 . S
C230 C233 1.409 . S
C231 H223 0.930 . S
C231 C232 1.355 . S
C231 C233 1.415 . S
C232 C231 1.355 . S
C232 C234 1.419 . S
C233 C228 1.425 . S
C233 C230 1.409 . S
C233 C231 1.415 . S
C234 H224 0.930 . S
C234 C232 1.419 . S
C234 C235 1.362 . S
C235 H225 0.930 . S
C235 C228 1.409 . S
C235 C234 1.362 . S
H236 C242 0.923 1_554 S
H237 C245 0.930 . S
H238 C246 0.930 . S
H239 C247 0.930 . S
H240 C250 0.930 . S
H241 C251 0.930 . S
C242 H236 0.923 1_556 S
C242 C243 1.356 . S
C242 C244 1.420 . S
C243 C242 1.356 . S
C243 C245 1.419 1_565 S
C244 C242 1.420 . S
C244 C249 1.423 1_565 S
C244 C251 1.409 . S
C245 H237 0.930 . S
C245 C243 1.419 1_545 S
C245 C246 1.362 . S
C246 H238 0.930 . S
C246 C245 1.362 . S
C246 C249 1.410 . S
C247 H239 0.930 . S
C247 C248 1.355 1_545 S
C247 C249 1.415 . S
C248 C247 1.355 1_565 S
C248 C250 1.419 . S
C249 C244 1.423 1_545 S
C249 C246 1.410 . S
C249 C247 1.415 . S
C250 H240 0.930 . S
C250 C248 1.419 . S
C250 C251 1.362 . S
C251 H241 0.930 . S
C251 C244 1.409 . S
C251 C250 1.362 . S
H252 C258 0.930 . S
H253 C261 0.930 . S
H254 C262 0.930 . S
H255 C263 0.930 . S
H256 C266 0.930 . S
H257 C267 0.930 . S
C258 H252 0.930 . S
C258 C259 1.355 . S
C258 C260 1.415 . S
C259 C258 1.355 . S
C259 C261 1.419 1_556 S
C260 C258 1.415 . S
C260 C265 1.425 . S
C260 C267 1.409 . S
C261 H253 0.930 . S
C261 C259 1.419 1_554 S
C261 C262 1.362 1_554 S
C262 H254 0.930 . S
C262 C261 1.362 1_556 S
C262 C265 1.409 . S
C263 H255 0.930 . S
C263 C264 1.355 . S
C263 C265 1.415 . S
C264 C263 1.355 . S
C264 C266 1.419 . S
C265 C260 1.425 . S
C265 C262 1.409 . S
C265 C263 1.415 . S
C266 H256 0.930 . S
C266 C264 1.419 . S
C266 C267 1.362 . S
C267 H257 0.930 . S
C267 C260 1.409 . S
C267 C266 1.362 . S
H268 C274 0.930 . S
H269 C277 0.930 . S
H270 C278 0.930 . S
H271 C279 0.930 . S
H272 C282 0.930 . S
H273 C283 0.930 . S
C274 H268 0.930 . S
C274 C275 1.357 . S
C274 C276 1.415 . S
C275 C274 1.357 . S
C275 C277 1.418 1_556 S
C276 C274 1.415 . S
C276 C281 1.425 . S
C276 C283 1.409 . S
C277 H269 0.930 . S
C277 C275 1.418 1_554 S
C277 C278 1.362 . S
C278 H270 0.930 . S
C278 C277 1.362 . S
C278 C281 1.409 1_554 S
C279 H271 0.930 . S
C279 C280 1.355 . S
C279 C281 1.415 . S
C280 C279 1.355 . S
C280 C282 1.419 . S
C281 C276 1.425 . S
C281 C278 1.409 1_556 S
C281 C279 1.415 . S
C282 H272 0.930 . S
C282 C280 1.419 . S
C282 C283 1.362 . S
C283 H273 0.930 . S
C283 C276 1.409 . S
C283 C282 1.362 . S
H284 C290 0.930 . S
H285 C293 0.930 . S
H286 C294 0.930 . S
H287 C295 0.930 . S
H288 C298 0.930 . S
H289 C299 0.932 . S
C290 H284 0.930 . S
C290 C291 1.362 . S
C290 C292 1.415 . S
C291 C290 1.362 . S
C291 C293 1.414 1_556 S
C292 C290 1.415 . S
C292 C297 1.425 . S
C292 C299 1.409 . S
C293 H285 0.930 . S
C293 C291 1.414 1_554 S
C293 C294 1.362 . S
C294 H286 0.930 . S
C294 C293 1.362 . S
C294 C297 1.409 1_554 S
C295 H287 0.930 . S
C295 C296 1.355 1_655 S
C295 C297 1.415 . S
C296 C295 1.355 1_455 S
C296 C298 1.419 . S
C297 C292 1.425 . S
C297 C294 1.409 1_556 S
C297 C295 1.415 . S
C298 H288 0.930 . S
C298 C296 1.419 . S
C298 C299 1.362 1_455 S
C299 H289 0.932 . S
C299 C292 1.409 . S
C299 C298 1.362 1_655 S
H300 C306 0.930 . S
H301 C309 0.930 . S
H302 C310 0.930 . S
H303 C311 0.930 . S
H304 C314 0.930 . S
H305 C315 0.930 . S
C306 H300 0.930 . S
C306 C307 1.355 . S
C306 C308 1.415 . S
C307 C306 1.355 . S
C307 C309 1.419 . S
C308 C306 1.415 . S
C308 C313 1.425 . S
C308 C315 1.409 1_455 S
C309 H301 0.930 . S
C309 C307 1.419 . S
C309 C310 1.362 . S
C310 H302 0.930 . S
C310 C309 1.362 . S
C310 C313 1.409 . S
C311 H303 0.930 . S
C311 C312 1.355 . S
C311 C313 1.415 . S
C312 C311 1.355 . S
C312 C314 1.419 1_455 S
C313 C308 1.425 . S
C313 C310 1.409 . S
C313 C311 1.415 . S
C314 H304 0.930 . S
C314 C312 1.419 1_655 S
C314 C315 1.362 . S
C315 H305 0.930 . S
C315 C308 1.409 1_655 S
C315 C314 1.362 . S
H316 C322 0.930 . S
H317 C325 0.930 . S
H318 C326 0.930 . S
H319 C327 0.930 . S
H320 C330 0.930 . S
H321 C331 0.930 . S
C322 H316 0.930 . S
C322 C323 1.355 . S
C322 C324 1.415 . S
C323 C322 1.355 . S
C323 C325 1.419 . S
C324 C322 1.415 . S
C324 C329 1.425 . S
C324 C331 1.409 1_545 S
C325 H317 0.930 . S
C325 C323 1.419 . S
C325 C326 1.362 . S
C326 H318 0.930 . S
C326 C325 1.362 . S
C326 C329 1.409 . S
C327 H319 0.930 . S
C327 C328 1.355 . S
C327 C329 1.415 . S
C328 C327 1.355 . S
C328 C330 1.419 1_545 S
C329 C324 1.425 . S
C329 C326 1.409 . S
C329 C327 1.415 . S
C330 H320 0.930 . S
C330 C328 1.419 1_565 S
C330 C331 1.362 . S
C331 H321 0.930 . S
C331 C324 1.409 1_565 S
C331 C330 1.362 . S
H332 C338 0.930 . S
H333 C341 0.930 . S
H334 C342 0.930 . S
H335 C343 0.930 . S
H336 C346 0.930 . S
H337 C347 0.930 . S
C338 H332 0.930 . S
C338 C339 1.355 . S
C338 C340 1.415 . S
C339 C338 1.355 . S
C339 C341 1.419 . S
C340 C338 1.415 . S
C340 C345 1.425 . S
C340 C347 1.409 . S
C341 H333 0.930 . S
C341 C339 1.419 . S
C341 C342 1.362 . S
C342 H334 0.930 . S
C342 C341 1.362 . S
C342 C345 1.409 . S
C343 H335 0.930 . S
C343 C344 1.355 . S
C343 C345 1.415 . S
C344 C343 1.355 . S
C344 C346 1.419 . S
C345 C340 1.425 . S
C345 C342 1.409 . S
C345 C343 1.415 . S
C346 H336 0.930 . S
C346 C344 1.419 . S
C346 C347 1.362 . S
C347 H337 0.930 . S
C347 C340 1.409 . S
C347 C346 1.362 . S
H348 C354 0.930 . S
H349 C357 0.930 . S
H350 C358 0.930 . S
H351 C359 0.930 . S
H352 C362 0.930 . S
H353 C363 0.930 . S
C354 H348 0.930 . S
C354 C355 1.355 . S
C354 C356 1.415 . S
C355 C354 1.355 . S
C355 C357 1.419 . S
C356 C354 1.415 . S
C356 C361 1.425 . S
C356 C363 1.409 . S
C357 H349 0.930 . S
C357 C355 1.419 . S
C357 C358 1.362 . S
C358 H350 0.930 . S
C358 C357 1.362 . S
C358 C361 1.409 . S
C359 H351 0.930 . S
C359 C360 1.355 . S
C359 C361 1.415 . S
C360 C359 1.355 . S
C360 C362 1.419 . S
C361 C356 1.425 . S
C361 C358 1.409 . S
C361 C359 1.415 . S
C362 H352 0.930 . S
C362 C360 1.419 . S
C362 C363 1.362 . S
C363 H353 0.930 . S
C363 C356 1.409 . S
C363 C362 1.362 . S
H364 C370 0.930 . S
H365 C373 0.930 1_554 S
H366 C374 0.930 . S
H367 C375 0.930 . S
H368 C378 0.930 . S
H369 C379 0.930 . S
C370 H364 0.930 . S
C370 C371 1.355 . S
C370 C372 1.415 . S
C371 C370 1.355 . S
C371 C373 1.419 1_655 S
C372 C370 1.415 . S
C372 C377 1.425 1_655 S
C372 C379 1.409 . S
C373 H365 0.930 1_556 S
C373 C371 1.419 1_455 S
C373 C374 1.362 . S
C374 H366 0.930 . S
C374 C373 1.362 . S
C374 C377 1.409 . S
C375 H367 0.930 . S
C375 C376 1.355 . S
C375 C377 1.415 . S
C376 C375 1.355 . S
C376 C378 1.419 1_455 S
C377 C372 1.425 1_455 S
C377 C374 1.409 . S
C377 C375 1.415 . S
C378 H368 0.930 . S
C378 C376 1.419 1_655 S
C378 C379 1.362 . S
C379 H369 0.930 . S
C379 C372 1.409 . S
C379 C378 1.362 . S
H380 C386 0.930 1_554 S
H381 C389 0.930 1_545 S
H382 C390 0.930 . S
H383 C391 0.930 . S
H384 C394 0.930 . S
H385 C395 0.930 1_554 S
C386 H380 0.930 1_556 S
C386 C387 1.355 . S
C386 C388 1.415 . S
C387 C386 1.355 . S
C387 C389 1.419 . S
C388 C386 1.415 . S
C388 C393 1.425 1_565 S
C388 C395 1.409 . S
C389 H381 0.930 1_565 S
C389 C387 1.419 . S
C389 C390 1.362 1_565 S
C390 H382 0.930 . S
C390 C389 1.362 1_545 S
C390 C393 1.409 . S
C391 H383 0.930 . S
C391 C392 1.355 . S
C391 C393 1.415 . S
C392 C391 1.355 . S
C392 C394 1.419 1_545 S
C393 C388 1.425 1_545 S
C393 C390 1.409 . S
C393 C391 1.415 . S
C394 H384 0.930 . S
C394 C392 1.419 1_565 S
C394 C395 1.362 . S
C395 H385 0.930 1_556 S
C395 C388 1.409 . S
C395 C394 1.362 . S
H396 C402 0.928 1_554 S
H397 C405 0.930 . S
H398 C406 0.930 . S
H399 C407 0.930 . S
H400 C410 0.930 . S
H401 C411 0.930 . S
C402 H396 0.928 1_556 S
C402 C403 1.355 . S
C402 C404 1.415 . S
C403 C402 1.355 . S
C403 C405 1.419 . S
C404 C402 1.415 . S
C404 C409 1.425 . S
C404 C411 1.409 . S
C405 H397 0.930 . S
C405 C403 1.419 . S
C405 C406 1.362 . S
C406 H398 0.930 . S
C406 C405 1.362 . S
C406 C409 1.409 . S
C407 H399 0.930 . S
C407 C408 1.355 . S
C407 C409 1.415 . S
C408 C407 1.355 . S
C408 C410 1.419 . S
C409 C404 1.425 . S
C409 C406 1.409 . S
C409 C407 1.415 . S
C410 H400 0.930 . S
C410 C408 1.419 . S
C410 C411 1.362 . S
C411 H401 0.930 . S
C411 C404 1.409 . S
C411 C410 1.362 . S
H412 C418 0.930 1_554 S
H413 C421 0.930 . S
H414 C422 0.930 . S
H415 C423 0.930 . S
H416 C426 0.930 . S
H417 C427 0.930 . S
C418 H412 0.930 1_556 S
C418 C419 1.355 . S
C418 C420 1.415 . S
C419 C418 1.355 . S
C419 C421 1.419 . S
C420 C418 1.415 . S
C420 C425 1.425 . S
C420 C427 1.409 . S
C421 H413 0.930 . S
C421 C419 1.419 . S
C421 C422 1.362 . S
C422 H414 0.930 . S
C422 C421 1.362 . S
C422 C425 1.409 . S
C423 H415 0.930 . S
C423 C424 1.355 . S
C423 C425 1.415 . S
C424 C423 1.355 . S
C424 C426 1.419 . S
C425 C420 1.425 . S
C425 C422 1.409 . S
C425 C423 1.415 . S
C426 H416 0.930 . S
C426 C424 1.419 . S
C426 C427 1.362 . S
C427 H417 0.930 . S
C427 C420 1.409 . S
C427 C426 1.362 . S
H428 C434 0.930 . S
H429 C437 0.930 . S
H430 C438 0.930 . S
H431 C439 0.930 . S
H432 C442 0.930 . S
H433 C443 0.930 . S
C434 H428 0.930 . S
C434 C435 1.355 . S
C434 C436 1.415 . S
C435 C434 1.355 . S
C435 C437 1.419 . S
C436 C434 1.415 . S
C436 C441 1.425 . S
C436 C443 1.409 1_554 S
C437 H429 0.930 . S
C437 C435 1.419 . S
C437 C438 1.362 . S
C438 H430 0.930 . S
C438 C437 1.362 . S
C438 C441 1.409 . S
C439 H431 0.930 . S
C439 C440 1.355 1_554 S
C439 C441 1.415 . S
C440 C439 1.355 1_556 S
C440 C442 1.419 . S
C441 C436 1.425 . S
C441 C438 1.409 . S
C441 C439 1.415 . S
C442 H432 0.930 . S
C442 C440 1.419 . S
C442 C443 1.362 . S
C443 H433 0.930 . S
C443 C436 1.409 1_556 S
C443 C442 1.362 . S
H444 C450 0.930 . S
H445 C453 0.930 . S
H446 C454 0.930 . S
H447 C455 0.930 . S
H448 C458 0.930 . S
H449 C459 0.930 . S
C450 H444 0.930 . S
C450 C451 1.355 . S
C450 C452 1.415 1_554 S
C451 C450 1.355 . S
C451 C453 1.419 . S
C452 C450 1.415 1_556 S
C452 C457 1.425 1_556 S
C452 C459 1.409 . S
C453 H445 0.930 . S
C453 C451 1.419 . S
C453 C454 1.362 . S
C454 H446 0.930 . S
C454 C453 1.362 . S
C454 C457 1.409 . S
C455 H447 0.930 . S
C455 C456 1.355 1_554 S
C455 C457 1.415 . S
C456 C455 1.355 1_556 S
C456 C458 1.419 . S
C457 C452 1.425 1_554 S
C457 C454 1.409 . S
C457 C455 1.415 . S
C458 H448 0.930 . S
C458 C456 1.419 . S
C458 C459 1.362 . S
C459 H449 0.930 . S
C459 C452 1.409 . S
C459 C458 1.362 . S
H460 C466 0.930 . S
H461 C469 0.930 . S
H462 C470 0.930 . S
H463 C471 0.930 . S
H464 C474 0.930 . S
H465 C475 0.930 . S
C466 H460 0.930 . S
C466 C467 1.355 . S
C466 C468 1.415 . S
C467 C466 1.355 . S
C467 C469 1.419 . S
C468 C466 1.415 . S
C468 C473 1.425 . S
C468 C475 1.409 1_554 S
C469 H461 0.930 . S
C469 C467 1.419 . S
C469 C470 1.362 . S
C470 H462 0.930 . S
C470 C469 1.362 . S
C470 C473 1.409 . S
C471 H463 0.930 . S
C471 C472 1.355 1_554 S
C471 C473 1.415 . S
C472 C471 1.355 1_556 S
C472 C474 1.419 . S
C473 C468 1.425 . S
C473 C470 1.409 . S
C473 C471 1.415 . S
C474 H464 0.930 . S
C474 C472 1.419 . S
C474 C475 1.362 . S
C475 H465 0.930 . S
C475 C468 1.409 1_556 S
C475 C474 1.362 . S
H476 C482 0.930 . S
H477 C485 0.930 . S
H478 C486 0.930 . S
H479 C487 0.930 . S
H480 C490 0.930 . S
H481 C491 0.930 . S
C482 H476 0.930 . S
C482 C483 1.355 . S
C482 C484 1.415 . S
C483 C482 1.355 . S
C483 C485 1.419 . S
C484 C482 1.415 . S
C484 C489 1.425 1_554 S
C484 C491 1.409 . S
C485 H477 0.930 . S
C485 C483 1.419 . S
C485 C486 1.362 1_554 S
C486 H478 0.930 . S
C486 C485 1.362 1_556 S
C486 C489 1.409 . S
C487 H479 0.930 . S
C487 C488 1.355 . S
C487 C489 1.415 . S
C488 C487 1.355 . S
C488 C490 1.419 1_556 S
C489 C484 1.425 1_556 S
C489 C486 1.409 . S
C489 C487 1.415 . S
C490 H480 0.930 . S
C490 C488 1.419 1_554 S
C490 C491 1.362 . S
C491 H481 0.930 . S
C491 C484 1.409 . S
C491 C490 1.362 . S
H492 C498 0.930 . S
H493 C501 0.930 . S
H494 C502 0.930 . S
H495 C503 0.930 . S
H496 C506 0.930 . S
H497 C507 0.930 . S
C498 H492 0.930 . S
C498 C499 1.355 . S
C498 C500 1.415 . S
C499 C498 1.355 . S
C499 C501 1.419 1_655 S
C500 C498 1.415 . S
C500 C505 1.443 . S
C500 C507 1.409 . S
C501 H493 0.930 . S
C501 C499 1.419 1_455 S
C501 C502 1.362 . S
C502 H494 0.930 . S
C502 C501 1.362 . S
C502 C505 1.397 1_455 S
C503 H495 0.930 . S
C503 C504 1.355 1_455 S
C503 C505 1.410 1_455 S
C504 C503 1.355 1_655 S
C504 C506 1.419 . S
C505 C500 1.443 . S
C505 C502 1.397 1_655 S
C505 C503 1.410 1_655 S
C506 H496 0.930 . S
C506 C504 1.419 . S
C506 C507 1.362 . S
C507 H497 0.930 . S
C507 C500 1.409 . S
C507 C506 1.362 . S
H508 C514 0.930 . S
H509 C517 0.930 . S
H510 C518 0.930 . S
H511 C519 0.930 . S
H512 C522 0.930 . S
H513 C523 0.946 . S
C514 H508 0.930 . S
C514 C515 1.355 . S
C514 C516 1.415 . S
C515 C514 1.355 . S
C515 C517 1.419 . S
C516 C514 1.415 . S
C516 C521 1.425 . S
C516 C523 1.394 1_565 S
C517 H509 0.930 . S
C517 C515 1.419 . S
C517 C518 1.362 . S
C518 H510 0.930 . S
C518 C517 1.362 . S
C518 C521 1.409 . S
C519 H511 0.930 . S
C519 C520 1.355 . S
C519 C521 1.415 . S
C520 C519 1.355 . S
C520 C522 1.419 1_565 S
C521 C516 1.425 . S
C521 C518 1.409 . S
C521 C519 1.415 . S
C522 H512 0.930 . S
C522 C520 1.419 1_545 S
C522 C523 1.364 . S
C523 H513 0.946 . S
C523 C516 1.394 1_545 S
C523 C522 1.364 . S
H524 C530 0.930 . S
H525 C533 0.930 . S
H526 C534 0.930 . S
H527 C535 0.930 . S
H528 C538 0.930 . S
H529 C539 0.930 . S
C530 H524 0.930 . S
C530 C531 1.355 . S
C530 C532 1.415 . S
C531 C530 1.355 . S
C531 C533 1.419 . S
C532 C530 1.415 . S
C532 C537 1.425 . S
C532 C539 1.409 . S
C533 H525 0.930 . S
C533 C531 1.419 . S
C533 C534 1.362 . S
C534 H526 0.930 . S
C534 C533 1.362 . S
C534 C537 1.409 . S
C535 H527 0.930 . S
C535 C536 1.355 . S
C535 C537 1.415 . S
C536 C535 1.355 . S
C536 C538 1.419 . S
C537 C532 1.425 . S
C537 C534 1.409 . S
C537 C535 1.415 . S
C538 H528 0.930 . S
C538 C536 1.419 . S
C538 C539 1.362 . S
C539 H529 0.930 . S
C539 C532 1.409 . S
C539 C538 1.362 . S
H540 C546 0.930 . S
H541 C549 0.930 . S
H542 C550 0.930 . S
H543 C551 0.930 . S
H544 C554 0.930 . S
H545 C555 0.930 . S
C546 H540 0.930 . S
C546 C547 1.355 . S
C546 C548 1.415 . S
C547 C546 1.355 . S
C547 C549 1.419 . S
C548 C546 1.415 . S
C548 C553 1.425 . S
C548 C555 1.409 . S
C549 H541 0.930 . S
C549 C547 1.419 . S
C549 C550 1.362 . S
C550 H542 0.930 . S
C550 C549 1.362 . S
C550 C553 1.409 . S
C551 H543 0.930 . S
C551 C552 1.355 . S
C551 C553 1.415 . S
C552 C551 1.355 . S
C552 C554 1.419 . S
C553 C548 1.425 . S
C553 C550 1.409 . S
C553 C551 1.415 . S
C554 H544 0.930 . S
C554 C552 1.419 . S
C554 C555 1.362 . S
C555 H545 0.930 . S
C555 C548 1.409 . S
C555 C554 1.362 . S
C179 C76 1.542 . S
C184 C103 1.410 . S
C200 C127 1.382 . S
C195 C87 1.567 . S
C216 C148 1.484 . S
C211 C54 1.589 . S
C232 C166 1.455 . S
C227 C65 1.603 . S
C248 C106 1.401 1_565 S
C243 C32 1.472 1_556 S
C259 C43 1.503 1_556 S
C264 C124 1.415 . S
C275 C10 1.523 1_556 S
C280 C145 1.356 . S
C291 C21 1.522 1_556 S
C296 C169 1.351 . S
C312 C104 0.774 . S
C307 C60 0.807 . S
C328 C122 0.834 . S
C323 C71 0.847 . S
C344 C143 0.717 . S
C339 C82 0.690 . S
C355 C49 0.763 . S
C360 C167 0.794 . S
C371 C16 0.828 1_556 S
C376 C102 0.888 . S
C392 C126 0.907 . S
C387 C27 0.890 1_556 S
C408 C147 0.903 . S
C403 C38 0.867 1_556 S
C419 C5 0.873 1_556 S
C424 C165 0.904 . S
C435 C59 1.552 . S
C440 C105 1.526 . S
C451 C70 1.551 . S
C456 C123 1.549 . S
C472 C144 1.581 . S
C467 C81 1.569 . S
C488 C168 1.527 . S
C483 C48 1.613 . S
C499 C15 1.430 . S
C504 C101 1.451 1_655 S
C520 C125 1.361 1_565 S
C515 C26 1.431 . S
C536 C146 1.372 . S
C531 C37 1.439 . S
C547 C4 1.411 . S
C552 C164 1.391 . S
