# Generated by pormake.
# Topology zzz, (3,6)-cn, num edge types: 1
# Building blocks:
#     Node 0, Type 0, BuildingBlock: PAMTOO_clean_linker_0, # of connection points: 3
#     Node 1, Type 0, BuildingBlock: PAMTOO_clean_linker_0, # of connection points: 3
#     Node 2, Type 0, BuildingBlock: PAMTOO_clean_linker_0, # of connection points: 3
#     Node 3, Type 0, BuildingBlock: PAMTOO_clean_linker_0, # of connection points: 3
#     Node 4, Type 0, BuildingBlock: PAMTOO_clean_linker_0, # of connection points: 3
#     Node 5, Type 0, BuildingBlock: PAMTOO_clean_linker_0, # of connection points: 3
#     Node 6, Type 0, BuildingBlock: PAMTOO_clean_linker_0, # of connection points: 3
#     Node 7, Type 0, BuildingBlock: PAMTOO_clean_linker_0, # of connection points: 3
#     Node 8, Type 1, BuildingBlock: HISSIN_clean_sbu_0, # of connection points: 6
#     Node 9, Type 1, BuildingBlock: HISSIN_clean_sbu_0, # of connection points: 6
#     Node 10, Type 1, BuildingBlock: HISSIN_clean_sbu_0, # of connection points: 6
#     Node 11, Type 1, BuildingBlock: HISSIN_clean_sbu_0, # of connection points: 6
#     Edge 12, Type (0, 1), BuildingBlock: TEMPAE_clean_linker_10, # of connection points: 2
#     Edge 13, Type (0, 1), BuildingBlock: TEMPAE_clean_linker_10, # of connection points: 2
#     Edge 14, Type (0, 1), BuildingBlock: TEMPAE_clean_linker_10, # of connection points: 2
#     Edge 15, Type (0, 1), BuildingBlock: TEMPAE_clean_linker_10, # of connection points: 2
#     Edge 16, Type (0, 1), BuildingBlock: TEMPAE_clean_linker_10, # of connection points: 2
#     Edge 17, Type (0, 1), BuildingBlock: TEMPAE_clean_linker_10, # of connection points: 2
#     Edge 18, Type (0, 1), BuildingBlock: TEMPAE_clean_linker_10, # of connection points: 2
#     Edge 19, Type (0, 1), BuildingBlock: TEMPAE_clean_linker_10, # of connection points: 2
#     Edge 20, Type (0, 1), BuildingBlock: TEMPAE_clean_linker_10, # of connection points: 2
#     Edge 21, Type (0, 1), BuildingBlock: TEMPAE_clean_linker_10, # of connection points: 2
#     Edge 22, Type (0, 1), BuildingBlock: TEMPAE_clean_linker_10, # of connection points: 2
#     Edge 23, Type (0, 1), BuildingBlock: TEMPAE_clean_linker_10, # of connection points: 2
#     Edge 24, Type (0, 1), BuildingBlock: TEMPAE_clean_linker_10, # of connection points: 2
#     Edge 25, Type (0, 1), BuildingBlock: TEMPAE_clean_linker_10, # of connection points: 2
#     Edge 26, Type (0, 1), BuildingBlock: TEMPAE_clean_linker_10, # of connection points: 2
#     Edge 27, Type (0, 1), BuildingBlock: TEMPAE_clean_linker_10, # of connection points: 2
#     Edge 28, Type (0, 1), BuildingBlock: TEMPAE_clean_linker_10, # of connection points: 2
#     Edge 29, Type (0, 1), BuildingBlock: TEMPAE_clean_linker_10, # of connection points: 2
#     Edge 30, Type (0, 1), BuildingBlock: TEMPAE_clean_linker_10, # of connection points: 2
#     Edge 31, Type (0, 1), BuildingBlock: TEMPAE_clean_linker_10, # of connection points: 2
#     Edge 32, Type (0, 1), BuildingBlock: TEMPAE_clean_linker_10, # of connection points: 2
#     Edge 33, Type (0, 1), BuildingBlock: TEMPAE_clean_linker_10, # of connection points: 2
#     Edge 34, Type (0, 1), BuildingBlock: TEMPAE_clean_linker_10, # of connection points: 2
#     Edge 35, Type (0, 1), BuildingBlock: TEMPAE_clean_linker_10, # of connection points: 2
# Relax obj value: 0.263
# Max RMSD: 0.185
# Mean RMSD: 0.094
data_MOF--net-zzz--node1-HISSIN_clean_sbu_0--node2-PAMTOO_clean_linker_0--edge1-TEMPAE_clean_linker_10
_symmetry_space_group_name_H-M    P1
_symmetry_Int_Tables_number       1
_symmetry_cell_setting            triclinic
loop_
_symmetry_equiv_pos_as_xyz
'x, y, z'
_cell_length_a     49.798542
_cell_length_b     49.917237
_cell_length_c     16.257508
_cell_angle_alpha  89.946613
_cell_angle_beta   91.298081
_cell_angle_gamma 90.719439
loop_
_atom_site_label
_atom_site_type_symbol
_atom_site_fract_x
_atom_site_fract_y
_atom_site_fract_z
_atom_type_partial_charge
H0 H 0.83023 0.49903 0.28226 0.0
H1 H 0.75363 0.51801 0.1739 0.0
H2 H 0.77496 0.5477 0.41581 0.0
H3 H 0.70386 0.54509 0.36397 0.0
C4 C 0.71304 0.5347 0.31136 0.0
O5 O 0.7375 0.54701 0.29546 0.0
H6 H 0.71583 0.51351 0.33126 0.0
C7 C 0.81082 0.50839 0.28801 0.0
C8 C 0.8051 0.52305 0.35913 0.0
C9 C 0.79233 0.50632 0.22215 0.0
C10 C 0.76768 0.51913 0.22571 0.0
C11 C 0.76121 0.53386 0.29551 0.0
C12 C 0.77993 0.53596 0.36242 0.0
H13 H 0.98436 0.82601 0.32614 0.0
H14 H 0.98681 0.74962 0.20431 0.0
H15 H 0.03286 0.7632 0.42807 0.0
H16 H 0.05958 0.71989 0.29977 0.0
C17 C 0.04151 0.72219 0.25912 0.0
O18 O 1.01984 0.72774 0.30864 0.0
H19 H 0.04562 0.73923 0.21673 0.0
C20 C 0.99038 0.8052 0.32539 0.0
C21 C 1.00823 0.79645 0.38701 0.0
C22 C 0.98312 0.78888 0.25795 0.0
C23 C 0.992 0.76235 0.2564 0.0
C24 C 1.00989 0.75287 0.31708 0.0
C25 C 1.01832 0.77008 0.38253 0.0
H26 H 0.73646 0.04392 0.23542 0.0
H27 H 0.81353 0.02767 0.13599 0.0
H28 H 0.79643 1.00361 0.38401 0.0
H29 H 0.86661 1.01114 0.33421 0.0
C30 C 0.85655 1.01874 0.27731 0.0
O31 O 0.83302 1.00384 0.26409 0.0
H32 H 0.85184 0.04017 0.28865 0.0
C33 C 0.7564 0.03583 0.24378 0.0
C34 C 0.76372 0.02396 0.31944 0.0
C35 C 0.77416 0.03758 0.17804 0.0
C36 C 0.7998 0.02683 0.18676 0.0
C37 C 0.80804 1.0147 0.26036 0.0
C38 C 0.79 1.01312 0.32715 0.0
H39 H 0.49763 0.7314 0.28889 0.0
H40 H 0.52184 0.8036 0.16759 0.0
H41 H 0.55808 0.7831 0.40184 0.0
H42 H 0.56282 0.85307 0.34374 0.0
C43 C 0.54874 0.84432 0.29682 0.0
O44 O 0.55705 0.8186 0.27885 0.0
H45 H 0.52858 0.84389 0.32526 0.0
C46 C 0.50923 0.74994 0.29073 0.0
C47 C 0.52762 0.7549 0.35609 0.0
C48 C 0.50689 0.76747 0.22376 0.0
C49 C 0.523 0.79048 0.22072 0.0
C50 C 0.54106 0.79649 0.28532 0.0
C51 C 0.54356 0.77866 0.35304 0.0
H52 H 0.24149 0.49322 0.17339 0.0
H53 H 0.32412 0.48624 0.24908 0.0
H54 H 0.30371 0.50904 0.99994 0.0
H55 H 0.3445 0.54002 0.15095 0.0
C56 C 0.35812 0.52416 0.12872 0.0
O57 O 0.34388 0.50079 0.1094 0.0
H58 H 0.36696 0.53213 0.07138 0.0
C59 C 0.26259 0.49363 0.15829 0.0
C60 C 0.26984 0.5009 0.07842 0.0
C61 C 0.28194 0.48908 0.22059 0.0
C62 C 0.30913 0.49001 0.20146 0.0
C63 C 0.31718 0.49759 0.12283 0.0
C64 C 0.29751 0.50281 0.06051 0.0
H65 H 1.00984 0.22873 0.16027 0.0
H66 H 1.01874 0.30634 0.27229 0.0
H67 H 0.0495 0.29262 0.03057 0.0
H68 H 0.07781 0.34902 0.14033 0.0
C69 C 0.06512 0.3396 0.18792 0.0
O70 O 0.04217 0.32897 0.14946 0.0
H71 H 0.07735 0.32337 0.21652 0.0
C72 C 1.01705 0.24929 0.15757 0.0
C73 C 0.02994 0.25821 0.08656 0.0
C74 C 1.01325 0.26618 0.22518 0.0
C75 C 1.02182 0.29294 0.22104 0.0
C76 C 0.03506 0.30257 0.15176 0.0
C77 C 0.03952 0.28509 0.08453 0.0
H78 H 0.33887 0.08821 0.106 0.0
H79 H 0.26905 0.07797 0.25441 0.0
H80 H 0.28111 0.02622 0.04738 0.0
H81 H 0.21378 0.03285 0.10823 0.0
C82 C 0.22271 0.04597 0.15706 0.0
O83 O 0.24892 0.03784 0.17332 0.0
H84 H 0.22254 0.06671 0.13168 0.0
C85 C 0.31941 0.07898 0.11618 0.0
C86 C 0.31155 0.05737 0.06595 0.0
C87 C 0.30495 0.08602 0.18602 0.0
C88 C 0.28034 0.07303 0.20036 0.0
C89 C 0.27124 0.05186 0.15021 0.0
C90 C 0.2872 0.04357 0.08347 0.0
H91 H 0.57756 0.31532 0.09411 0.0
H92 H 0.5681 0.23903 0.21247 0.0
H93 H 0.5049 0.26925 0.05377 0.0
H94 H 0.48326 0.22912 0.19846 0.0
C95 C 0.50446 0.22636 0.21916 0.0
O96 O 0.52052 0.22846 0.15053 0.0
H97 H 0.50942 0.24258 0.26421 0.0
C98 C 0.56603 0.297 0.10287 0.0
C99 C 0.54035 0.29483 0.06633 0.0
C100 C 0.57611 0.27724 0.15618 0.0
C101 C 0.56073 0.25407 0.1699 0.0
C102 C 0.53519 0.25087 0.13291 0.0
C103 C 0.52492 0.2713 0.08058 0.0
Eu104 Eu 1.01672 0.0407 0.64668 0.0
Eu105 Eu 0.06005 0.0214 0.78415 0.0
C106 C 0.04373 0.0846 0.77185 0.0
C107 C 0.96292 0.08181 0.546 0.0
C108 C 0.95416 0.09298 0.47153 0.0
C109 C 0.94838 0.1215 0.61822 0.0
C110 C 0.94371 0.11874 0.46975 0.0
C111 C 0.9591 0.09575 0.61977 0.0
C112 C 0.94176 0.13386 0.54273 0.0
C113 C 0.97969 0.05792 0.54484 0.0
O114 O 1.01908 1.00819 0.82951 0.0
O115 O 0.99613 0.04217 0.76983 0.0
C116 C 0.99792 0.0236 0.82677 0.0
O117 O 1.01503 0.99536 0.63292 0.0
O118 O 0.07267 0.02077 0.91344 0.0
O119 O 0.09643 1.00047 0.82363 0.0
O120 O 0.05186 0.98336 0.71134 0.0
C121 C 0.03218 0.97721 0.65918 0.0
O122 O 0.05494 0.03344 0.57608 0.0
O123 O 0.08576 0.03815 0.68181 0.0
O124 O 0.05283 0.06478 0.81751 0.0
O125 O 1.00526 0.06283 0.53618 0.0
O126 O 0.97514 0.03999 0.60146 0.0
O127 O 0.03289 0.08016 0.69845 0.0
C128 C 0.08377 0.97644 0.94236 0.0
C129 C 0.08014 0.95307 0.89481 0.0
C130 C 0.05798 0.95569 0.05095 0.0
C131 C 0.06418 0.93204 0.92287 0.0
C132 C 0.07385 0.97691 0.02261 0.0
C133 C 0.05193 0.93378 0.99939 0.0
C134 C 0.09009 1.00198 0.90101 0.0
C135 C 0.07999 0.03678 0.60239 0.0
H136 H 0.95715 0.08255 0.41406 0.0
H137 H 0.94684 0.1323 0.67562 0.0
H138 H 0.9394 0.1275 0.41004 0.0
H139 H 0.96589 0.0874 0.67806 0.0
H140 H 0.08764 0.95187 0.83295 0.0
H141 H 0.04894 0.95729 0.1107 0.0
H142 H 0.06038 0.91494 0.88305 0.0
H143 H 0.07625 0.99469 0.06036 0.0
Eu144 Eu 0.55259 0.04743 0.78536 0.0
Eu145 Eu 0.52979 1.00359 0.65186 0.0
C146 C 0.54712 0.98352 0.83601 0.0
C147 C 0.59908 0.10004 0.87503 0.0
C148 C 0.61249 0.10899 0.94625 0.0
C149 C 0.63716 0.11414 0.79384 0.0
C150 C 0.63857 0.11923 0.94208 0.0
C151 C 0.61104 0.10364 0.79831 0.0
C152 C 0.65183 0.12074 0.86622 0.0
C153 C 0.57514 0.08297 0.88294 0.0
O154 O 0.49252 0.02091 0.71116 0.0
O155 O 0.51013 0.04051 0.82828 0.0
C156 C 0.48936 0.03161 0.78446 0.0
O157 O 0.5338 0.07311 0.68535 0.0
O158 O 0.50149 0.97167 0.61566 0.0
O159 O 0.52934 0.98734 0.52723 0.0
O160 O 0.53099 0.04259 0.58081 0.0
C161 C 0.52987 0.06735 0.60724 0.0
O162 O 0.58772 0.03932 0.70132 0.0
O163 O 0.57471 1.00007 0.63801 0.0
O164 O 0.5403 0.97695 0.75995 0.0
O165 O 0.55479 0.0882 0.83401 0.0
O166 O 0.58008 0.05742 0.8869 0.0
O167 O 0.5517 1.00859 0.85809 0.0
C168 C 0.48391 0.98692 0.48796 0.0
C169 C 0.48911 0.99731 0.40925 0.0
C170 C 0.44445 1.01486 0.49424 0.0
C171 C 0.4728 1.01727 0.37528 0.0
C172 C 0.46042 0.99474 0.52755 0.0
C173 C 0.45124 0.02706 0.41983 0.0
C174 C 0.50616 0.97552 0.53773 0.0
C175 C 0.59304 1.01857 0.65465 0.0
H176 H 0.60361 0.10616 1.00594 0.0
H177 H 0.64639 0.1154 0.73429 0.0
H178 H 0.649 0.12353 0.99977 0.0
H179 H 0.60088 0.09674 0.74247 0.0
H180 H 0.50706 0.99172 0.37735 0.0
H181 H 0.42728 0.02155 0.52811 0.0
H182 H 0.47793 0.02612 0.31673 0.0
H183 H 0.45552 0.98705 0.58777 0.0
Eu184 Eu 0.51266 0.53372 0.77433 0.0
Eu185 Eu 0.561 0.51683 0.65646 0.0
C186 C 0.57343 0.53339 0.84154 0.0
C187 C 0.45727 0.57258 0.87256 0.0
C188 C 0.4637 0.59495 0.82431 0.0
C189 C 0.42859 0.60006 0.95496 0.0
C190 C 0.45376 0.62008 0.84418 0.0
C191 C 0.43871 0.57495 0.93538 0.0
C192 C 0.43732 0.62309 0.91268 0.0
C193 C 0.47287 0.54809 0.86565 0.0
O194 O 0.55289 0.47956 0.73264 0.0
O195 O 0.51023 0.48831 0.77374 0.0
C196 C 0.5303 0.47169 0.76605 0.0
O197 O 0.49753 0.53729 0.64274 0.0
O198 O 0.60163 0.50167 0.64534 0.0
O199 O 0.57904 0.51318 0.53608 0.0
O200 O 0.52223 0.50354 0.59082 0.0
C201 C 0.5013 0.5193 0.58561 0.0
O202 O 0.52995 0.57386 0.73299 0.0
O203 O 0.55194 0.55953 0.61883 0.0
O204 O 0.57996 0.53865 0.76543 0.0
O205 O 0.46963 0.53455 0.79754 0.0
O206 O 0.49812 0.55068 0.88778 0.0
O207 O 0.54887 0.52534 0.85723 0.0
C208 C 0.60704 0.47595 0.52719 0.0
C209 C 0.58767 0.45538 0.52415 0.0
C210 C 0.63848 0.44711 0.45892 0.0
C211 C 0.59345 0.43103 0.48743 0.0
C212 C 0.63258 0.47169 0.49534 0.0
C213 C 0.61877 0.42678 0.45366 0.0
C214 C 0.60055 0.50153 0.56523 0.0
C215 C 0.5417 0.5789 0.66267 0.0
H216 H 0.47801 0.59336 0.77537 0.0
H217 H 0.41569 0.60178 1.00742 0.0
H218 H 0.46107 0.6374 0.81084 0.0
H219 H 0.43348 0.55777 0.97287 0.0
H220 H 0.56798 0.45826 0.54964 0.0
H221 H 0.65809 0.44422 0.433 0.0
H222 H 0.57805 0.4155 0.48487 0.0
H223 H 0.64779 0.48738 0.49807 0.0
Eu224 Eu 0.04623 0.55026 0.66484 0.0
Eu225 Eu 0.02619 0.50538 0.7935 0.0
C226 C 0.08979 0.52058 0.7852 0.0
C227 C 0.09511 0.58655 0.53869 0.0
C228 C 0.10152 0.57797 0.45949 0.0
C229 C 0.14244 0.58497 0.57861 0.0
C230 C 0.1279 0.57147 0.4415 0.0
C231 C 0.11603 0.59128 0.59684 0.0
C232 C 0.14842 0.57376 0.50219 0.0
C233 C 0.06693 0.58504 0.56481 0.0
O234 O 0.03555 0.54255 0.87013 0.0
O235 O 0.02725 0.57305 0.76872 0.0
C236 C 0.0305 0.5673 0.84721 0.0
O237 O 1.00293 0.54264 0.62537 0.0
O238 O 1.00666 0.49327 0.90613 0.0
O239 O 1.02308 0.46305 0.82689 0.0
O240 O 0.98739 0.52344 0.74369 0.0
C241 C 0.98296 0.53403 0.67046 0.0
O242 O 0.05787 0.50994 0.61199 0.0
O243 O 1.02305 0.48684 0.66647 0.0
O244 O 0.07161 0.50213 0.8021 0.0
O245 O 0.05346 0.56389 0.53954 0.0
O246 O 0.06279 0.59016 0.64212 0.0
O247 O 0.08348 0.54208 0.74266 0.0
C248 C 0.98229 0.45331 0.8909 0.0
C249 C 0.96086 0.4621 0.84089 0.0
C250 C 0.95209 0.42275 0.95986 0.0
C251 C 0.9349 0.45253 0.85379 0.0
C252 C 0.97807 0.43273 0.94778 0.0
C253 C 0.93 0.43376 0.91655 0.0
C254 C 1.00804 0.46776 0.8897 0.0
C255 C 0.04165 0.48896 0.61093 0.0
H256 H 0.08582 0.5742 0.41354 0.0
H257 H 0.15796 0.58761 0.6257 0.0
H258 H 0.13179 0.5628 0.38196 0.0
H259 H 0.11188 0.59812 0.65841 0.0
H260 H 0.9639 0.47778 0.79585 0.0
H261 H 0.9491 0.40783 1.00729 0.0
H262 H 0.91854 0.4617 0.81949 0.0
H263 H 0.99453 0.42548 0.98603 0.0
C264 C 0.19565 0.06776 0.27009 0.0
C265 C 0.20512 0.04435 0.23317 0.0
C266 C 0.17647 0.06674 0.33291 0.0
C267 C 0.1664 0.04165 0.36068 0.0
C268 C 0.17673 1.0179 0.32585 0.0
C269 C 0.19583 1.01954 0.26274 0.0
C270 C 0.16627 0.09263 0.36755 0.0
C271 C 0.16697 0.99069 0.35347 0.0
C272 C 0.12942 0.03878 0.56639 0.0
C273 C 0.1022 0.03839 0.5409 0.0
C274 C 0.15038 0.03966 0.50896 0.0
C275 C 0.14429 0.04035 0.42322 0.0
C276 C 0.11687 0.04008 0.39717 0.0
C277 C 0.09633 0.03902 0.45583 0.0
C278 C 0.17915 0.03972 0.54016 0.0
C279 C 0.10916 0.04095 0.30688 0.0
H280 H 0.20262 0.08705 0.24783 0.0
H281 H 0.20293 1.00136 0.23455 0.0
H282 H 0.14452 0.0945 0.35252 0.0
H283 H 0.16855 0.09267 0.43558 0.0
H284 H 0.177 0.11043 0.3428 0.0
H285 H 0.17819 0.97416 0.32484 0.0
H286 H 0.16899 0.98892 0.42135 0.0
H287 H 0.14534 0.98819 0.33704 0.0
H288 H 0.13443 0.03818 0.63157 0.0
H289 H 0.07554 0.03874 0.4347 0.0
H290 H 0.18972 0.05806 0.51886 0.0
H291 H 0.1898 0.02231 0.51464 0.0
H292 H 0.18069 0.03888 0.60839 0.0
H293 H 0.11769 0.05929 0.27841 0.0
H294 H 0.08705 0.04074 0.29626 0.0
H295 H 0.11771 0.02351 0.27481 0.0
C296 C 0.4851 0.18799 0.30218 0.0
C297 C 0.50745 0.19961 0.26397 0.0
C298 C 0.48763 0.16541 0.35388 0.0
C299 C 0.51325 0.15411 0.36902 0.0
C300 C 0.53582 0.16536 0.32915 0.0
C301 C 0.5327 0.18801 0.2778 0.0
C302 C 0.46295 0.15423 0.3946 0.0
C303 C 0.56349 0.15396 0.34274 0.0
C304 C 0.52635 0.11644 0.57116 0.0
C305 C 0.52467 0.08947 0.54665 0.0
C306 C 0.52244 0.13748 0.51433 0.0
C307 C 0.5167 0.13166 0.4303 0.0
C308 C 0.51448 0.10448 0.40535 0.0
C309 C 0.51847 0.08381 0.46355 0.0
C310 C 0.52464 0.16606 0.54433 0.0
C311 C 0.50812 0.09719 0.31691 0.0
H312 H 0.46559 0.19707 0.29329 0.0
H313 H 0.55017 0.19696 0.24985 0.0
H314 H 0.46053 0.13259 0.38048 0.0
H315 H 0.46527 0.15613 0.46239 0.0
H316 H 0.44435 0.16466 0.3745 0.0
H317 H 0.57867 0.16376 0.30329 0.0
H318 H 0.56989 0.15659 0.40808 0.0
H319 H 0.56315 0.13213 0.32981 0.0
H320 H 0.53103 0.12121 0.63496 0.0
H321 H 0.51685 0.06312 0.4436 0.0
H322 H 0.50576 0.1768 0.52949 0.0
H323 H 0.54108 0.17669 0.51232 0.0
H324 H 0.52864 0.16732 0.61172 0.0
H325 H 0.48848 0.10564 0.29755 0.0
H326 H 0.50732 0.07516 0.30709 0.0
H327 H 0.52353 0.10602 0.27638 0.0
C328 C 0.40723 0.51871 0.17213 0.0
C329 C 0.3801 0.51942 0.19376 0.0
C330 C 0.42794 0.51724 0.23266 0.0
C331 C 0.42145 0.51564 0.3171 0.0
C332 C 0.39401 0.51526 0.33885 0.0
C333 C 0.3738 0.5177 0.27728 0.0
C334 C 0.4568 0.51859 0.20636 0.0
C335 C 0.38594 0.51307 0.42757 0.0
C336 C 0.47506 0.49363 0.47594 0.0
C337 C 0.48219 0.51803 0.51372 0.0
C338 C 0.45538 0.49245 0.41191 0.0
C339 C 0.44318 0.51636 0.383 0.0
C340 C 0.45117 0.54113 0.41911 0.0
C341 C 0.47014 0.5416 0.48464 0.0
C342 C 0.44702 0.46555 0.37701 0.0
C343 C 0.43952 0.56725 0.38898 0.0
H344 H 0.41231 0.52032 0.10782 0.0
H345 H 0.35305 0.51911 0.29487 0.0
H346 H 0.4666 0.53698 0.23178 0.0
H347 H 0.46805 0.50125 0.23132 0.0
H348 H 0.45856 0.51885 0.13836 0.0
H349 H 0.36394 0.50997 0.43358 0.0
H350 H 0.3965 0.49619 0.45811 0.0
H351 H 0.3919 0.53165 0.46099 0.0
H352 H 0.48414 0.47533 0.49846 0.0
H353 H 0.47575 0.56058 0.51294 0.0
H354 H 0.44971 0.46531 0.3095 0.0
H355 H 0.42535 0.46192 0.38789 0.0
H356 H 0.45865 0.44888 0.40496 0.0
H357 H 0.44171 0.56906 0.32142 0.0
H358 H 0.44936 0.58491 0.41899 0.0
H359 H 0.41773 0.5677 0.40153 0.0
C360 C 0.06935 0.35921 0.33215 0.0
C361 C 0.05853 0.36084 0.25178 0.0
C362 C 0.06608 0.38001 0.38966 0.0
C363 C 0.05158 0.40326 0.36685 0.0
C364 C 0.04019 0.40481 0.28609 0.0
C365 C 0.04392 0.38371 0.22961 0.0
C366 C 0.07865 0.37731 0.47458 0.0
C367 C 0.02444 0.42899 0.25883 0.0
C368 C 0.02489 0.44655 0.54117 0.0
C369 C 0.04402 0.46749 0.5469 0.0
C370 C 0.02684 0.42593 0.4823 0.0
C371 C 0.04858 0.42588 0.42744 0.0
C372 C 0.06787 0.44706 0.43245 0.0
C373 C 0.06532 0.46757 0.49163 0.0
C374 C 1.00568 0.40402 0.47932 0.0
C375 C 0.09147 0.44788 0.37587 0.0
H376 H 0.08094 0.3418 0.3497 0.0
H377 H 0.03581 0.38531 0.16738 0.0
H378 H 0.09351 0.39375 0.48545 0.0
H379 H 0.06306 0.37915 0.52186 0.0
H380 H 0.08893 0.35786 0.48337 0.0
H381 H 1.01603 0.42679 0.19528 0.0
H382 H 1.00769 0.43242 0.30129 0.0
H383 H 0.03758 0.4471 0.26127 0.0
H384 H 1.00824 0.44619 0.58297 0.0
H385 H 0.08025 0.48353 0.49511 0.0
H386 H 1.01504 0.3844 0.49283 0.0
H387 H 0.99647 0.4027 0.41664 0.0
H388 H 0.98953 0.40734 0.52409 0.0
H389 H 0.10383 0.42975 0.3854 0.0
H390 H 0.10445 0.46588 0.38617 0.0
H391 H 0.08428 0.44774 0.31079 0.0
C392 C 0.90037 0.03259 0.21337 0.0
C393 C 0.87649 1.01736 0.20678 0.0
C394 C 0.9198 0.03235 0.15155 0.0
C395 C 0.91558 1.01641 0.08014 0.0
C396 C 0.89159 1.00072 0.0732 0.0
C397 C 0.87241 1.00133 0.13635 0.0
C398 C 0.94487 0.04943 0.16258 0.0
C399 C 0.88612 0.98337 0.99864 0.0
C400 C 0.95415 0.03798 0.88842 0.0
C401 C 0.9763 1.02075 0.88964 0.0
C402 C 0.93411 0.03635 0.94849 0.0
C403 C 0.93593 1.01696 1.01223 0.0
C404 C 0.95798 0.99914 1.01299 0.0
C405 C 0.9778 1.00126 0.95213 0.0
C406 C 0.91117 0.05583 0.94455 0.0
C407 C 0.96094 0.97806 0.07909 0.0
H408 H 0.90381 0.0449 0.26762 0.0
H409 H 0.85422 0.98929 0.13023 0.0
H410 H 0.96295 0.03675 0.15914 0.0
H411 H 0.94599 0.06435 0.11213 0.0
H412 H 0.9455 0.06025 0.22229 0.0
H413 H 0.86693 0.97191 1.00284 0.0
H414 H 0.88527 0.99601 0.94248 0.0
H415 H 0.90273 0.96904 0.99115 0.0
H416 H 0.95256 0.05312 0.84077 0.0
H417 H 0.99467 0.98774 0.95413 0.0
H418 H 0.91179 0.0687 1.00018 0.0
H419 H 0.89169 0.0448 0.94391 0.0
H420 H 0.91187 0.06891 0.88929 0.0
H421 H 0.9638 0.98786 0.13994 0.0
H422 H 0.97824 0.96473 0.06868 0.0
H423 H 0.94238 0.9656 0.08183 0.0
C424 C 0.52478 0.87406 0.19215 0.0
C425 C 0.54864 0.86219 0.22079 0.0
C426 C 0.52479 0.89283 0.12727 0.0
C427 C 0.54925 0.89997 0.0894 0.0
C428 C 0.5733 0.88743 0.11655 0.0
C429 C 0.5727 0.8688 0.18191 0.0
C430 C 0.49867 0.90561 0.10083 0.0
C431 C 0.5998 0.8942 0.07792 0.0
C432 C 0.5452 0.9348 0.87919 0.0
C433 C 0.54884 0.96196 0.90025 0.0
C434 C 0.54568 0.91447 0.93961 0.0
C435 C 0.54976 0.92125 0.0237 0.0
C436 C 0.5537 0.94857 0.04529 0.0
C437 C 0.55326 0.96847 0.98363 0.0
C438 C 0.54152 0.88568 0.91348 0.0
C439 C 0.55799 0.95687 0.13395 0.0
H440 H 0.5061 0.86912 0.22196 0.0
H441 H 0.5912 0.85978 0.20403 0.0
H442 H 0.49982 0.9275 0.11248 0.0
H443 H 0.49508 0.90281 0.03378 0.0
H444 H 0.48123 0.89716 0.13398 0.0
H445 H 0.61641 0.88167 0.10263 0.0
H446 H 0.59826 0.89142 1.01027 0.0
H447 H 0.605 0.91557 0.08936 0.0
H448 H 0.54178 0.92936 0.81527 0.0
H449 H 0.55604 0.98928 1.00121 0.0
H450 H 0.52314 0.87735 0.94175 0.0
H451 H 0.55865 0.87341 0.93566 0.0
H452 H 0.53949 0.88353 0.84561 0.0
H453 H 0.54025 0.95092 0.17012 0.0
H454 H 0.5613 0.97881 0.14068 0.0
H455 H 0.5756 0.9464 0.16115 0.0
C456 C 0.67911 0.55894 0.22013 0.0
C457 C 0.69411 0.53588 0.23668 0.0
C458 C 0.65999 0.55965 0.15478 0.0
C459 C 0.65578 0.53676 0.10419 0.0
C460 C 0.67154 0.51369 0.11922 0.0
C461 C 0.69053 0.51358 0.18492 0.0
C462 C 0.64388 0.58472 0.14098 0.0
C463 C 0.66791 0.48887 0.06702 0.0
C464 C 0.58816 0.52753 0.99002 0.0
C465 C 0.59425 0.53526 0.90934 0.0
C466 C 0.60787 0.52808 0.05375 0.0
C467 C 0.63446 0.53665 0.03705 0.0
C468 C 0.64067 0.54479 0.956 0.0
C469 C 0.62059 0.54396 0.89336 0.0
C470 C 0.60026 0.51917 0.13897 0.0
C471 C 0.66864 0.55416 0.9352 0.0
H472 H 0.68195 0.57628 0.25963 0.0
H473 H 0.70223 0.49578 0.19703 0.0
H474 H 0.64592 0.59177 0.07665 0.0
H475 H 0.62227 0.5803 0.15024 0.0
H476 H 0.65029 0.60118 0.18331 0.0
H477 H 0.68236 0.47296 0.08459 0.0
H478 H 0.64721 0.48077 0.07327 0.0
H479 H 0.67053 0.4939 1.00118 0.0
H480 H 0.56798 0.52071 1.00342 0.0
H481 H 0.62564 0.54998 0.83149 0.0
H482 H 0.60455 0.5355 0.18382 0.0
H483 H 0.61256 0.50177 0.15816 0.0
H484 H 0.5787 0.51341 0.1424 0.0
H485 H 0.67477 0.57133 0.97494 0.0
H486 H 0.67016 0.56036 0.86982 0.0
H487 H 0.68315 0.53787 0.94749 0.0
C488 C 1.01201 0.688 0.17853 0.0
C489 C 0.03748 0.69702 0.20639 0.0
C490 C 1.00918 0.66624 0.12302 0.0
C491 C 0.03232 0.65348 0.09275 0.0
C492 C 0.05801 0.66262 0.12068 0.0
C493 C 0.06022 0.68414 0.17664 0.0
C494 C 0.98138 0.65718 0.09564 0.0
C495 C 0.08331 0.6501 0.08977 0.0
C496 C 0.02938 0.58342 0.99491 0.0
C497 C 0.02942 0.58925 0.91025 0.0
C498 C 0.02946 0.60399 0.05466 0.0
C499 C 0.02995 0.63126 0.02985 0.0
C500 C 0.02966 0.63725 0.94448 0.0
C501 C 0.02924 0.61631 0.88609 0.0
C502 C 0.02946 0.59651 0.14461 0.0
C503 C 0.03052 0.66589 0.91462 0.0
H504 H 0.99429 0.69811 0.19934 0.0
H505 H 0.07998 0.69136 0.19611 0.0
H506 H 0.97863 0.66057 0.02855 0.0
H507 H 0.97883 0.63536 0.10664 0.0
H508 H 0.96541 0.66798 0.12822 0.0
H509 H 0.10175 0.65909 0.11859 0.0
H510 H 0.08311 0.62827 0.1025 0.0
H511 H 0.08431 0.65266 0.02209 0.0
H512 H 0.02941 0.56268 1.01474 0.0
H513 H 0.02938 0.62122 0.82116 0.0
H514 H 1.01283 0.6067 0.17578 0.0
H515 H 0.04851 0.60338 0.17489 0.0
H516 H 0.02728 0.57455 0.15407 0.0
H517 H 1.01372 0.67728 0.94063 0.0
H518 H 0.02924 0.66732 0.84646 0.0
H519 H 0.04948 0.67573 0.93633 0.0
C520 C 1.00686 0.22944 0.32624 0.0
C521 C 1.00025 0.25522 0.29945 0.0
C522 C 0.99193 0.21635 0.38609 0.0
C523 C 0.97043 0.22987 0.42325 0.0
C524 C 0.96535 0.25694 0.40252 0.0
C525 C 0.98012 0.26922 0.33974 0.0
C526 C 0.99847 0.18747 0.40581 0.0
C527 C 0.94382 0.27283 0.44333 0.0
C528 C 0.9238 0.17428 0.47006 0.0
C529 C 0.93839 0.16341 0.53674 0.0
C530 C 0.93093 0.19939 0.43813 0.0
C531 C 0.95223 0.21407 0.47639 0.0
C532 C 0.96164 0.20632 0.55534 0.0
C533 C 0.95516 0.18059 0.58411 0.0
C534 C 0.9189 0.20792 0.35641 0.0
C535 C 0.98192 0.2232 0.6028 0.0
H536 H 1.02315 0.21897 0.29761 0.0
H537 H 0.97511 0.28935 0.32013 0.0
H538 H 1.00496 0.18562 0.47122 0.0
H539 H 0.98043 0.1745 0.39591 0.0
H540 H 1.01477 0.17963 0.36735 0.0
H541 H 0.95122 0.29352 0.45621 0.0
H542 H 0.92622 0.2745 0.40064 0.0
H543 H 0.93719 0.26365 0.50176 0.0
H544 H 0.90937 0.1618 0.4364 0.0
H545 H 0.96588 0.17312 0.63797 0.0
H546 H 0.93374 0.20486 0.30743 0.0
H547 H 0.91397 0.2295 0.35759 0.0
H548 H 0.90038 0.19627 0.34013 0.0
H549 H 1.0025 0.21717 0.58651 0.0
H550 H 0.97975 0.22023 0.67004 0.0
H551 H 0.97963 0.2448 0.58813 0.0
C552 C 0.33977 0.11921 0.23498 0.0
C553 C 0.31983 0.10012 0.25386 0.0
C554 C 0.36455 0.11908 0.27786 0.0
C555 C 0.36865 0.09983 0.34047 0.0
C556 C 0.34616 0.08634 0.37357 0.0
C557 C 0.32165 0.08693 0.32996 0.0
C558 C 0.38745 0.13597 0.24665 0.0
C559 C 0.34914 0.06696 0.44445 0.0
C560 C 0.42124 0.04746 0.31453 0.0
C561 C 0.43525 0.04972 0.38943 0.0
C562 C 0.40097 0.06554 0.29377 0.0
C563 C 0.3951 0.08667 0.3491 0.0
C564 C 0.41169 0.09093 0.4197 0.0
C565 C 0.43138 0.07206 0.43986 0.0
C566 C 0.38427 0.06034 0.21642 0.0
C567 C 0.40757 0.11411 0.47731 0.0
H568 H 0.33781 0.13085 0.17886 0.0
H569 H 0.30584 0.07317 0.34801 0.0
H570 H 0.40275 0.13996 0.29596 0.0
H571 H 0.39729 0.12525 0.19595 0.0
H572 H 0.38001 0.15531 0.22184 0.0
H573 H 0.32937 0.06092 0.46936 0.0
H574 H 0.35937 0.04865 0.4233 0.0
H575 H 0.36155 0.07594 0.49487 0.0
H576 H 0.42465 0.03029 0.27543 0.0
H577 H 0.44291 0.07408 0.49699 0.0
H578 H 0.38441 0.07832 0.17637 0.0
H579 H 0.36314 0.05589 0.23245 0.0
H580 H 0.39172 0.04317 0.18041 0.0
H581 H 0.39777 0.13124 0.44572 0.0
H582 H 0.42705 0.12101 0.50492 0.0
H583 H 0.39478 0.10753 0.52867 0.0
C584 C 0.59572 0.28518 0.29517 0.0
C585 C 0.59948 0.28441 0.21007 0.0
C586 C 0.6094 0.30435 0.3437 0.0
C587 C 0.62693 0.32282 0.30534 0.0
C588 C 0.63529 0.31778 0.22436 0.0
C589 C 0.62132 0.29845 0.17707 0.0
C590 C 0.60107 0.30807 0.43154 0.0
C591 C 0.65537 0.33586 0.18316 0.0
C592 C 0.60497 0.39327 0.34878 0.0
C593 C 0.62356 0.40156 0.40944 0.0
C594 C 0.60679 0.36816 0.31187 0.0
C595 C 0.62783 0.35075 0.33658 0.0
C596 C 0.64757 0.35957 0.39487 0.0
C597 C 0.64529 0.38513 0.4304 0.0
C598 C 0.58547 0.36003 0.24857 0.0
C599 C 0.67085 0.34213 0.42029 0.0
H600 H 0.57933 0.27384 0.32167 0.0
H601 H 0.62493 0.29712 0.11166 0.0
H602 H 0.61826 0.31495 0.47093 0.0
H603 H 0.58529 0.32357 0.43354 0.0
H604 H 0.59271 0.2892 0.45744 0.0
H605 H 0.66484 0.32559 0.13082 0.0
H606 H 0.64495 0.35385 0.15886 0.0
H607 H 0.67125 0.34267 0.22755 0.0
H608 H 0.58853 0.40633 0.33151 0.0
H609 H 0.65985 0.39182 0.47679 0.0
H610 H 0.57433 0.34202 0.26986 0.0
H611 H 0.59493 0.35494 0.18961 0.0
H612 H 0.57071 0.37614 0.23635 0.0
H613 H 0.66445 0.32091 0.4276 0.0
H614 H 0.68058 0.3491 0.47873 0.0
H615 H 0.6861 0.34284 0.37161 0.0
C616 C 0.28379 0.51026 0.3582 0.0
C617 C 0.27328 0.48991 0.30695 0.0
C618 C 0.26793 0.52142 0.41911 0.0
C619 C 0.24122 0.51208 0.427 0.0
C620 C 0.23297 0.48792 0.38808 0.0
C621 C 0.24935 0.47688 0.32837 0.0
C622 C 0.27815 0.5458 0.46523 0.0
C623 C 0.20518 0.47632 0.39915 0.0
C624 C 0.18712 0.5456 0.54937 0.0
C625 C 0.17496 0.56166 0.48839 0.0
C626 C 0.20991 0.53048 0.53254 0.0
C627 C 0.22033 0.53106 0.45242 0.0
C628 C 0.209 0.5484 0.39203 0.0
C629 C 0.18665 0.56367 0.41119 0.0
C630 C 0.22154 0.51294 0.59969 0.0
C631 C 0.21945 0.54974 0.30542 0.0
H632 H 0.30269 0.51999 0.3436 0.0
H633 H 0.2417 0.46045 0.29062 0.0
H634 H 0.27128 0.56412 0.43264 0.0
H635 H 0.27015 0.54621 0.52841 0.0
H636 H 0.30046 0.54637 0.46895 0.0
H637 H 0.20354 0.45539 0.37627 0.0
H638 H 0.19977 0.47669 0.46495 0.0
H639 H 0.19038 0.48865 0.36438 0.0
H640 H 0.17806 0.54366 0.60911 0.0
H641 H 0.17764 0.57646 0.36453 0.0
H642 H 0.24205 0.50595 0.58651 0.0
H643 H 0.20821 0.49519 0.60782 0.0
H644 H 0.22228 0.52399 0.65891 0.0
H645 H 0.24111 0.5552 0.30679 0.0
H646 H 0.20861 0.5646 0.26658 0.0
H647 H 0.21728 0.52983 0.27553 0.0
C648 C 0.95629 0.82422 0.18683 0.0
C649 C 0.97357 0.80229 0.18153 0.0
C650 C 0.96003 0.84661 0.13602 0.0
C651 C 0.98112 0.84638 0.07937 0.0
C652 C 0.99344 0.82187 0.06014 0.0
C653 C 0.98936 0.79981 0.11166 0.0
C654 C 0.94471 0.8718 0.15265 0.0
C655 C 1.01468 0.82031 0.99567 0.0
C656 C 1.01112 0.90583 0.96772 0.0
C657 C 0.0319 0.91335 0.02307 0.0
C658 C 0.99294 0.88524 0.98708 0.0
C659 C 0.99613 0.87155 0.06276 0.0
C660 C 1.01629 0.88012 0.12066 0.0
C661 C 0.0338 0.90108 0.10011 0.0
C662 C 0.97123 0.87777 0.92474 0.0
C663 C 1.02025 0.86643 0.20309 0.0
H664 H 0.94299 0.82565 0.2385 0.0
H665 H 1.00203 0.78249 0.10482 0.0
H666 H 0.95617 0.88424 0.19817 0.0
H667 H 0.94194 0.8838 0.09561 0.0
H668 H 0.92475 0.86706 0.17854 0.0
H669 H 1.01895 0.79925 0.97885 0.0
H670 H 1.00835 0.83132 0.9394 0.0
H671 H 0.03356 0.82976 0.0198 0.0
H672 H 1.00923 0.9159 0.90876 0.0
H673 H 0.04974 0.90713 0.14297 0.0
H674 H 0.95435 0.86649 0.95242 0.0
H675 H 0.97997 0.86527 0.87598 0.0
H676 H 0.96316 0.89604 0.89445 0.0
H677 H 0.0369 0.8756 0.24047 0.0
H678 H 0.02475 0.84493 0.19403 0.0
H679 H 1.00162 0.86757 0.23892 0.0
C680 C 0.73938 0.04722 0.07038 0.0
C681 C 0.76555 0.0513 0.1011 0.0
C682 C 0.72861 0.06378 1.00916 0.0
C683 C 0.74488 0.08437 0.97496 0.0
C684 C 0.77233 0.08655 0.99903 0.0
C685 C 0.78228 0.07019 0.06292 0.0
C686 C 0.69921 0.06013 0.98553 0.0
C687 C 0.79112 0.10671 0.96095 0.0
C688 C 0.69681 0.10634 0.81667 0.0
C689 C 0.68174 0.12328 0.86669 0.0
C690 C 0.72229 0.09778 0.84343 0.0
C691 C 0.73156 0.10502 0.92302 0.0
C692 C 0.71968 0.12692 0.96289 0.0
C693 C 0.69505 0.13645 0.93243 0.0
C694 C 0.73703 0.07749 0.79357 0.0
C695 C 0.73033 0.13701 0.04487 0.0
H696 H 0.7268 0.03184 0.09744 0.0
H697 H 0.80276 0.07316 0.08545 0.0
H698 H 0.68823 0.07899 0.99584 0.0
H699 H 0.69705 0.05492 0.91943 0.0
H700 H 0.6893 0.044 0.02142 0.0
H701 H 0.81047 0.09704 0.94709 0.0
H702 H 0.78277 0.11565 0.9035 0.0
H703 H 0.79571 0.12295 1.00588 0.0
H704 H 0.68771 0.09698 0.76266 0.0
H705 H 0.68451 0.15133 0.96742 0.0
H706 H 0.75899 0.07872 0.80668 0.0
H707 H 0.73322 0.08067 0.72673 0.0
H708 H 0.72997 0.05702 0.80963 0.0
H709 H 0.72649 0.12172 0.09299 0.0
H710 H 0.72067 0.15597 0.06315 0.0
H711 H 0.75233 0.14044 0.04262 0.0
C712 C 0.50264 0.74585 0.08811 0.0
C713 C 0.49025 0.75902 0.15251 0.0
C714 C 0.48766 0.72911 0.03496 0.0
C715 C 0.45965 0.72599 0.04648 0.0
C716 C 0.44662 0.74254 0.10339 0.0
C717 C 0.46223 0.75849 0.15755 0.0
C718 C 0.50239 0.71207 0.9744 0.0
C719 C 0.41661 0.74112 0.1134 0.0
C720 C 0.43107 0.67291 0.90236 0.0
C721 C 0.43501 0.64991 0.95065 0.0
C722 C 0.43626 0.69856 0.93508 0.0
C723 C 0.44629 0.70097 1.01693 0.0
C724 C 0.44787 0.67795 0.06784 0.0
C725 C 0.44196 0.65278 0.03419 0.0
C726 C 0.43292 0.72265 0.87992 0.0
C727 C 0.45856 0.67943 0.15564 0.0
H728 H 0.52437 0.74641 0.08482 0.0
H729 H 0.45275 0.76894 0.20741 0.0
H730 H 0.50261 0.69099 0.99627 0.0
H731 H 0.49203 0.71232 0.91337 0.0
H732 H 0.52349 0.71897 0.96689 0.0
H733 H 0.40902 0.75984 0.14098 0.0
H734 H 0.40613 0.7376 0.05332 0.0
H735 H 0.41149 0.72424 0.15483 0.0
H736 H 0.42533 0.67081 0.83794 0.0
H737 H 0.44529 0.63514 0.07178 0.0
H738 H 0.45148 0.72579 0.84452 0.0
H739 H 0.42914 0.74112 0.91557 0.0
H740 H 0.41609 0.71939 0.83487 0.0
H741 H 0.47985 0.68632 0.15631 0.0
H742 H 0.45749 0.65977 0.18758 0.0
H743 H 0.44704 0.69409 0.19137 0.0
C744 C 0.81897 0.50428 0.0968 0.0
C745 C 0.80033 0.49202 0.14799 0.0
C746 C 0.83379 0.48901 0.04237 0.0
C747 C 0.82979 0.46083 0.03996 0.0
C748 C 0.80842 0.44899 0.08366 0.0
C749 C 0.79404 0.46479 0.13843 0.0
C750 C 0.85602 0.50263 0.99562 0.0
C751 C 0.80263 0.41931 0.07949 0.0
C752 C 0.87979 0.43235 0.89482 0.0
C753 C 0.90233 0.43076 0.94812 0.0
C754 C 0.8545 0.43898 0.92491 0.0
C755 C 0.85195 0.44415 1.00985 0.0
C756 C 0.87369 0.43879 0.06485 0.0
C757 C 0.8986 0.43214 0.03326 0.0
C758 C 0.83148 0.44315 0.86463 0.0
C759 C 0.8718 0.44356 0.15638 0.0
H760 H 0.82361 0.52543 0.10469 0.0
H761 H 0.77945 0.45547 0.17826 0.0
H762 H 0.87576 0.49709 0.02333 0.0
H763 H 0.85567 0.49598 0.93057 0.0
H764 H 0.85443 0.5248 0.99693 0.0
H765 H 0.78133 0.41482 0.09375 0.0
H766 H 0.80702 0.41112 1.01786 0.0
H767 H 0.81548 0.40883 0.12558 0.0
H768 H 0.88228 0.43045 0.82902 0.0
H769 H 0.91571 0.43092 0.07538 0.0
H770 H 0.832 0.46413 0.8421 0.0
H771 H 0.81179 0.43947 0.8935 0.0
H772 H 0.83317 0.42977 0.81045 0.0
H773 H 0.88945 0.43568 0.19122 0.0
H774 H 0.85342 0.43395 0.18061 0.0
H775 H 0.87058 0.4654 0.16837 0.0
C776 C 1.0104 0.22216 0.99457 0.0
C777 C 0.03263 0.23841 1.01747 0.0
C778 C 1.01314 0.19902 0.94613 0.0
C779 C 0.03874 0.19191 0.91743 0.0
C780 C 0.06093 0.20944 0.93438 0.0
C781 C 0.05767 0.23235 0.98457 0.0
C782 C 0.98883 0.18118 0.93065 0.0
C783 C 0.08844 0.20321 0.90329 0.0
C784 C 0.04988 0.11661 0.89109 0.0
C785 C 0.04438 0.1125 0.80678 0.0
C786 C 0.04877 0.14229 0.92693 0.0
C787 C 0.04245 0.1649 0.87754 0.0
C788 C 0.03766 0.16106 0.79187 0.0
C789 C 0.03846 0.135 0.75776 0.0
C790 C 0.0534 0.14503 0.01868 0.0
C791 C 0.03138 0.18448 0.73628 0.0
H792 H 0.99087 0.22678 0.01869 0.0
H793 H 0.07501 0.2446 1.00185 0.0
H794 H 0.98637 0.17666 0.86413 0.0
H795 H 0.99165 0.16183 0.96321 0.0
H796 H 0.97004 0.19036 0.95223 0.0
H797 H 0.10252 0.22055 0.91028 0.0
H798 H 0.09687 0.18605 0.93825 0.0
H799 H 0.0872 0.19732 0.8375 0.0
H800 H 0.05432 0.09954 0.9301 0.0
H801 H 0.03428 0.13226 0.69258 0.0
H802 H 0.03495 0.1526 0.04734 0.0
H803 H 0.06972 0.15984 0.03185 0.0
H804 H 0.05881 0.12572 0.04835 0.0
H805 H 1.01333 0.19494 0.75778 0.0
H806 H 0.0278 0.17826 0.67131 0.0
H807 H 0.04829 0.19916 0.73887 0.0
C808 C 0.34144 0.06701 0.94666 0.0
C809 C 0.33169 0.04845 1.00427 0.0
C810 C 0.36568 0.06292 0.9052 0.0
C811 C 0.381 0.03964 0.92131 0.0
C812 C 0.37046 1.02006 0.97588 0.0
C813 C 0.34609 0.02471 1.01671 0.0
C814 C 0.37581 0.08452 0.84833 0.0
C815 C 0.38577 0.99487 0.99521 0.0
C816 C 0.43878 0.02355 0.77567 0.0
C817 C 0.46153 0.03366 0.81892 0.0
C818 C 0.41268 0.02499 0.8083 0.0
C819 C 0.40884 0.03697 0.8863 0.0
C820 C 0.43171 0.04726 0.93012 0.0
C821 C 0.45756 0.0454 0.89633 0.0
C822 C 0.38915 1.01362 0.75911 0.0
C823 C 0.42894 0.06023 1.01331 0.0
H824 H 0.33085 0.08568 0.93787 0.0
H825 H 0.33927 1.01059 0.06268 0.0
H826 H 0.39403 0.09418 0.8762 0.0
H827 H 0.38163 0.07575 0.78874 0.0
H828 H 0.36058 0.1002 0.83628 0.0
H829 H 0.37339 0.97999 0.02888 0.0
H830 H 0.39286 0.98552 0.93788 0.0
H831 H 0.40376 0.99996 0.03385 0.0
H832 H 0.44131 1.01436 0.71606 0.0
H833 H 0.47475 0.05325 0.931 0.0
H834 H 0.37451 0.02965 0.7451 0.0
H835 H 0.3786 0.99815 0.79579 0.0
H836 H 0.39537 1.00452 0.70029 0.0
H837 H 0.4138 0.07634 1.01 0.0
H838 H 0.44824 0.06891 0.03718 0.0
H839 H 0.42177 0.04512 0.05804 0.0
C840 C 0.52399 0.31775 0.9356 0.0
C841 C 0.53019 0.3188 0.02015 0.0
C842 C 0.52082 0.34153 0.88891 0.0
C843 C 0.52418 0.36696 0.92746 0.0
C844 C 0.52889 0.36794 1.0137 0.0
C845 C 0.53163 0.344 0.05866 0.0
C846 C 0.5153 0.33943 0.79756 0.0
C847 C 0.5328 0.39431 0.05812 0.0
C848 C 0.55087 0.42772 0.80906 0.0
C849 C 0.52804 0.44384 0.80042 0.0
C850 C 0.54967 0.40242 0.8477 0.0
C851 C 0.52493 0.39252 0.87791 0.0
C852 C 0.50158 0.40822 0.86651 0.0
C853 C 0.50343 0.43366 0.82863 0.0
C854 C 0.57519 0.3867 0.85906 0.0
C855 C 0.47472 0.39847 0.89655 0.0
H856 H 0.52312 0.29844 0.90516 0.0
H857 H 0.53644 0.345 0.124 0.0
H858 H 0.49892 0.35313 0.77846 0.0
H859 H 0.53351 0.34563 0.764 0.0
H860 H 0.50967 0.31869 0.77868 0.0
H861 H 0.53389 0.39177 0.126 0.0
H862 H 0.55174 0.40403 0.03817 0.0
H863 H 0.51617 0.4081 0.04245 0.0
H864 H 0.57003 0.43521 0.78786 0.0
H865 H 0.48557 0.44573 0.82213 0.0
H866 H 0.57241 0.3662 0.83381 0.0
H867 H 0.58012 0.38466 0.92568 0.0
H868 H 0.59253 0.39642 0.8286 0.0
H869 H 0.47051 0.37779 0.87441 0.0
H870 H 0.45804 0.4116 0.87577 0.0
H871 H 0.47513 0.39784 0.96477 0.0
C872 C 0.2439 0.49472 0.94357 0.0
C873 C 0.24761 0.50808 0.01893 0.0
C874 C 0.21973 0.4973 0.89681 0.0
C875 C 0.19862 0.5133 0.92665 0.0
C876 C 0.20301 0.52795 1.00043 0.0
C877 C 0.2274 0.52539 0.04479 0.0
C878 C 0.21632 0.48158 0.81804 0.0
C879 C 0.18131 0.54516 0.03545 0.0
C880 C 0.13845 0.53576 0.79371 0.0
C881 C 0.11814 0.51757 0.81688 0.0
C882 C 0.16488 0.53402 0.82641 0.0
C883 C 0.17139 0.51373 0.8843 0.0
C884 C 0.15119 0.49493 0.90632 0.0
C885 C 0.12496 0.49701 0.87233 0.0
C886 C 0.18572 0.55438 0.80067 0.0
C887 C 0.15708 0.47301 0.96789 0.0
H888 H 0.25923 0.48116 0.9233 0.0
H889 H 0.23017 0.53598 0.10265 0.0
H890 H 0.20571 0.46243 0.83111 0.0
H891 H 0.20412 0.49264 0.77162 0.0
H892 H 0.23604 0.47681 0.79138 0.0
H893 H 0.16383 0.53238 0.05175 0.0
H894 H 0.1883 0.55623 0.09137 0.0
H895 H 0.17419 0.55986 0.98892 0.0
H896 H 0.13367 0.55164 0.75053 0.0
H897 H 0.10962 0.48278 0.89079 0.0
H898 H 0.20434 0.5442 0.78254 0.0
H899 H 0.19107 0.56764 0.85337 0.0
H900 H 0.1785 0.56704 0.74879 0.0
H901 H 0.17419 0.4609 0.94724 0.0
H902 H 0.13951 0.45947 0.97688 0.0
H903 H 0.16302 0.48199 0.02813 0.0
C904 C 0.03826 0.83521 0.42435 0.0
C905 C 1.01791 0.81719 0.44739 0.0
C906 C 0.04209 0.86009 0.46452 0.0
C907 C 0.0251 0.86738 0.52958 0.0
C908 C 1.00549 0.84855 0.55608 0.0
C909 C 1.00197 0.82388 0.51426 0.0
C910 C 0.06315 0.87932 0.43336 0.0
C911 C 0.98697 0.85517 0.6252 0.0
C912 C 0.04503 0.92824 0.6635 0.0
C913 C 0.02968 0.9489 0.62788 0.0
C914 C 0.0435 0.9017 0.63326 0.0
C915 C 0.02638 0.89538 0.56491 0.0
C916 C 1.01068 0.91609 0.52906 0.0
C917 C 1.01242 0.9424 0.56101 0.0
C918 C 0.06045 0.88044 0.67415 0.0
C919 C 0.9922 0.91051 0.456 0.0
H920 H 0.04998 0.83064 0.37085 0.0
H921 H 0.98562 0.8105 0.5306 0.0
H922 H 0.05319 0.89655 0.40275 0.0
H923 H 0.07561 0.88739 0.48528 0.0
H924 H 0.07652 0.86975 0.38851 0.0
H925 H 0.97502 0.83745 0.6449 0.0
H926 H 0.99861 0.86307 0.67909 0.0
H927 H 0.97292 0.87104 0.60477 0.0
H928 H 0.05836 0.93277 0.71531 0.0
H929 H 1.00047 0.95802 0.53253 0.0
H930 H 0.0747 0.87227 0.62937 0.0
H931 H 0.04751 0.86355 0.69446 0.0
H932 H 0.07208 0.88827 0.72828 0.0
H933 H 1.00395 0.90305 0.40375 0.0
H934 H 0.98111 0.9286 0.43553 0.0
H935 H 0.97741 0.8946 0.47161 0.0
C936 C 0.73872 1.00051 0.4363 0.0
C937 C 0.7429 0.02317 0.38641 0.0
C938 C 0.71626 0.99853 0.48857 0.0
C939 C 0.69689 1.01927 0.48958 0.0
C940 C 0.70172 0.04258 0.44218 0.0
C941 C 0.72479 0.04452 0.39377 0.0
C942 C 0.7129 0.97392 0.54132 0.0
C943 C 0.68181 0.06517 0.43932 0.0
C944 C 0.62311 1.00396 0.53992 0.0
C945 C 0.62015 1.01681 0.61605 0.0
C946 C 0.64796 1.00405 0.49935 0.0
C947 C 0.67101 1.01648 0.5366 0.0
C948 C 0.66837 0.02838 0.61535 0.0
C949 C 0.64302 0.02891 0.65304 0.0
C950 C 0.64919 0.99191 0.41456 0.0
C951 C 0.69215 0.0412 0.65951 0.0
H952 H 0.7524 0.98388 0.43241 0.0
H953 H 0.7281 0.06271 0.35884 0.0
H954 H 0.7083 0.97974 0.60532 0.0
H955 H 0.69575 0.96163 0.51741 0.0
H956 H 0.73117 0.96136 0.54242 0.0
H957 H 0.68788 0.08149 0.39683 0.0
H958 H 0.66175 0.05741 0.41901 0.0
H959 H 0.67965 0.0738 0.50156 0.0
H960 H 0.60563 0.99473 0.51016 0.0
H961 H 0.64115 0.03881 0.71193 0.0
H962 H 0.66505 0.97653 0.41311 0.0
H963 H 0.65459 1.00767 0.36942 0.0
H964 H 0.6298 0.98249 0.39456 0.0
H965 H 0.6885 0.04358 0.72624 0.0
H966 H 0.69596 0.06135 0.63322 0.0
H967 H 0.71053 0.02919 0.65188 0.0
C968 C 0.50824 0.71889 0.44737 0.0
C969 C 0.5308 0.73377 0.4219 0.0
C970 C 0.51086 0.6953 0.49427 0.0
C971 C 0.53669 0.68653 0.51972 0.0
C972 C 0.55941 0.70267 0.50055 0.0
C973 C 0.55626 0.72589 0.45135 0.0
C974 C 0.48599 0.67882 0.51174 0.0
C975 C 0.58727 0.69467 0.5285 0.0
C976 C 0.53794 0.6293 0.67825 0.0
C977 C 0.5419 0.60678 0.6283 0.0
C978 C 0.5373 0.65546 0.64468 0.0
C979 C 0.53988 0.65927 0.5586 0.0
C980 C 0.54391 0.63657 0.50815 0.0
C981 C 0.54519 0.61083 0.54354 0.0
C982 C 0.53356 0.67899 0.70128 0.0
C983 C 0.54601 0.63933 0.41599 0.0
H984 H 0.48836 0.72505 0.42731 0.0
H985 H 0.5739 0.73703 0.43255 0.0
H986 H 0.48687 0.65944 0.47852 0.0
H987 H 0.48496 0.67419 0.57829 0.0
H988 H 0.46726 0.68913 0.49225 0.0
H989 H 0.60218 0.71114 0.52016 0.0
H990 H 0.5874 0.68871 0.5943 0.0
H991 H 0.59368 0.6771 0.49252 0.0
H992 H 0.53543 0.6265 0.74376 0.0
H993 H 0.54797 0.59367 0.50396 0.0
H994 H 0.54916 0.69457 0.69014 0.0
H995 H 0.5346 0.67309 0.76717 0.0
H996 H 0.51376 0.68821 0.68844 0.0
H997 H 0.52732 0.64816 0.38998 0.0
H998 H 0.5493 0.61981 0.38529 0.0
H999 H 0.56283 0.65312 0.40089 0.0
C1000 C 0.84232 0.5028 0.44521 0.0
C1001 C 0.82656 0.52523 0.42559 0.0
C1002 C 0.86614 0.5051 0.49305 0.0
C1003 C 0.87439 0.5304 0.52467 0.0
C1004 C 0.85747 0.55276 0.51089 0.0
C1005 C 0.83389 0.54997 0.46117 0.0
C1006 C 0.88338 0.48066 0.50509 0.0
C1007 C 0.86499 0.57996 0.54516 0.0
C1008 C 0.9325 0.52908 0.68405 0.0
C1009 C 0.95484 0.53504 0.63554 0.0
C1010 C 0.90612 0.52858 0.64995 0.0
C1011 C 0.90183 0.53367 0.56475 0.0
C1012 C 0.92428 0.54007 0.51592 0.0
C1013 C 0.9503 0.54088 0.55182 0.0
C1014 C 0.8829 0.52206 0.70488 0.0
C1015 C 0.92095 0.54513 0.42467 0.0
H1016 H 0.83663 0.48342 0.41976 0.0
H1017 H 0.82201 0.56747 0.44667 0.0
H1018 H 0.90256 0.48357 0.47257 0.0
H1019 H 0.88846 0.47777 0.57122 0.0
H1020 H 0.87338 0.46213 0.48128 0.0
H1021 H 0.87125 0.57832 0.61091 0.0
H1022 H 0.88233 0.58829 0.51142 0.0
H1023 H 0.84814 0.59427 0.53955 0.0
H1024 H 0.9356 0.52457 0.74877 0.0
H1025 H 0.96726 0.54538 0.51331 0.0
H1026 H 0.87407 0.50228 0.68773 0.0
H1027 H 0.86686 0.53712 0.69656 0.0
H1028 H 0.88911 0.52142 0.77092 0.0
H1029 H 0.91257 0.52691 0.39396 0.0
H1030 H 0.94024 0.55057 0.39555 0.0
H1031 H 0.90651 0.56153 0.41334 0.0
loop_
_geom_bond_atom_site_label_1
_geom_bond_atom_site_label_2
_geom_bond_distance
_geom_bond_site_symmetry_2
_ccdc_geom_bond_type
H0 C7 0.929 . S
H1 C10 0.930 . S
H2 C12 0.929 . S
H3 C4 0.969 . S
C4 H3 0.969 . S
C4 O5 1.550 . S
C4 H6 0.973 . S
O5 C4 1.550 . S
O5 C11 1.412 . S
H6 C4 0.973 . S
C7 H0 0.929 . S
C7 C8 1.400 . S
C7 C9 1.364 . S
C8 C7 1.400 . S
C8 C12 1.377 . S
C9 C7 1.364 . S
C9 C10 1.374 . S
C10 H1 0.930 . S
C10 C9 1.374 . S
C10 C11 1.383 . S
C11 O5 1.412 . S
C11 C10 1.383 . S
C11 C12 1.394 . S
C12 H2 0.929 . S
C12 C8 1.377 . S
C12 C11 1.394 . S
H13 C20 0.929 . S
H14 C23 0.930 . S
H15 C25 0.929 . S
H16 C17 0.969 . S
C17 H16 0.969 . S
C17 O18 1.550 . S
C17 H19 0.973 . S
O18 C17 1.550 . S
O18 C24 1.412 . S
H19 C17 0.973 . S
C20 H13 0.929 . S
C20 C21 1.400 . S
C20 C22 1.364 . S
C21 C20 1.400 . S
C21 C25 1.377 . S
C22 C20 1.364 . S
C22 C23 1.374 . S
C23 H14 0.930 . S
C23 C22 1.374 . S
C23 C24 1.383 . S
C24 O18 1.412 . S
C24 C23 1.383 . S
C24 C25 1.394 . S
C25 H15 0.929 . S
C25 C21 1.377 . S
C25 C24 1.394 . S
H26 C33 0.929 . S
H27 C36 0.930 . S
H28 C38 0.929 . S
H29 C30 0.991 . S
C30 H29 0.991 . S
C30 O31 1.550 . S
C30 H32 0.973 . S
O31 C30 1.550 . S
O31 C37 1.412 . S
H32 C30 0.973 . S
C33 H26 0.929 . S
C33 C34 1.400 . S
C33 C35 1.364 . S
C34 C33 1.400 . S
C34 C38 1.377 . S
C35 C33 1.364 . S
C35 C36 1.374 . S
C36 H27 0.930 . S
C36 C35 1.374 . S
C36 C37 1.383 . S
C37 O31 1.412 . S
C37 C36 1.383 . S
C37 C38 1.394 . S
C38 H28 0.929 . S
C38 C34 1.377 . S
C38 C37 1.394 . S
H39 C46 0.929 . S
H40 C49 0.930 . S
H41 C51 0.929 . S
H42 C43 0.969 . S
C43 H42 0.969 . S
C43 O44 1.550 . S
C43 H45 0.973 . S
O44 C43 1.550 . S
O44 C50 1.412 . S
H45 C43 0.973 . S
C46 H39 0.929 . S
C46 C47 1.400 . S
C46 C48 1.364 . S
C47 C46 1.400 . S
C47 C51 1.377 . S
C48 C46 1.364 . S
C48 C49 1.374 . S
C49 H40 0.930 . S
C49 C48 1.374 . S
C49 C50 1.383 . S
C50 O44 1.412 . S
C50 C49 1.383 . S
C50 C51 1.394 . S
C51 H41 0.929 . S
C51 C47 1.377 . S
C51 C50 1.394 . S
H52 C59 0.929 . S
H53 C62 0.930 . S
H54 C64 0.929 1_556 S
H55 C56 0.969 . S
C56 H55 0.969 . S
C56 O57 1.550 . S
C56 H58 0.973 . S
O57 C56 1.550 . S
O57 C63 1.412 . S
H58 C56 0.973 . S
C59 H52 0.929 . S
C59 C60 1.400 1_554 S
C59 C61 1.364 . S
C60 C59 1.400 1_556 S
C60 C64 1.377 1_556 S
C61 C59 1.364 . S
C61 C62 1.374 . S
C62 H53 0.930 . S
C62 C61 1.374 . S
C62 C63 1.383 . S
C63 O57 1.412 . S
C63 C62 1.383 . S
C63 C64 1.394 . S
C64 H54 0.929 1_554 S
C64 C60 1.377 1_554 S
C64 C63 1.394 . S
H65 C72 0.929 . S
H66 C75 0.930 . S
H67 C77 0.929 . S
H68 C69 0.969 . S
C69 H68 0.969 . S
C69 O70 1.550 . S
C69 H71 0.973 . S
O70 C69 1.550 . S
O70 C76 1.412 . S
H71 C69 0.973 . S
C72 H65 0.929 . S
C72 C73 1.400 1_554 S
C72 C74 1.364 . S
C73 C72 1.400 1_556 S
C73 C77 1.377 . S
C74 C72 1.364 . S
C74 C75 1.374 . S
C75 H66 0.930 . S
C75 C74 1.374 . S
C75 C76 1.383 . S
C76 O70 1.412 . S
C76 C75 1.383 . S
C76 C77 1.394 1_554 S
C77 H67 0.929 . S
C77 C73 1.377 . S
C77 C76 1.394 1_556 S
H78 C85 0.929 1_556 S
H79 C88 0.930 . S
H80 C90 0.929 . S
H81 C82 0.969 . S
C82 H81 0.969 . S
C82 O83 1.550 . S
C82 H84 0.973 . S
O83 C82 1.550 . S
O83 C89 1.412 . S
H84 C82 0.973 . S
C85 H78 0.929 1_554 S
C85 C86 1.400 1_554 S
C85 C87 1.364 . S
C86 C85 1.400 1_556 S
C86 C90 1.377 . S
C87 C85 1.364 . S
C87 C88 1.374 . S
C88 H79 0.930 . S
C88 C87 1.374 . S
C88 C89 1.383 . S
C89 O83 1.412 . S
C89 C88 1.383 . S
C89 C90 1.394 1_554 S
C90 H80 0.929 . S
C90 C86 1.377 . S
C90 C89 1.394 1_556 S
H91 C98 0.929 . S
H92 C101 0.930 . S
H93 C103 0.929 . S
H94 C95 0.969 . S
C95 H94 0.969 . S
C95 O96 1.550 . S
C95 H97 0.973 . S
O96 C95 1.550 . S
O96 C102 1.412 . S
H97 C95 0.973 . S
C98 H91 0.929 . S
C98 C99 1.400 1_554 S
C98 C100 1.364 . S
C99 C98 1.400 1_556 S
C99 C103 1.377 . S
C100 C98 1.364 . S
C100 C101 1.374 . S
C101 H92 0.930 . S
C101 C100 1.374 . S
C101 C102 1.383 . S
C102 O96 1.412 . S
C102 C101 1.383 . S
C102 C103 1.394 1_554 S
C103 H93 0.929 . S
C103 C99 1.377 . S
C103 C102 1.394 1_556 S
Eu104 C113 2.828 . S
Eu104 O115 2.392 . S
Eu104 O117 2.418 1_545 S
Eu104 O122 2.373 1_655 S
Eu104 O125 2.488 . S
Eu104 O126 2.471 . S
Eu104 O127 2.349 1_655 S
Eu105 O114 2.373 1_455 S
Eu105 O118 2.488 . S
Eu105 O119 2.471 . S
Eu105 O120 2.349 . S
Eu105 O123 2.392 1_565 S
Eu105 O124 2.418 1_565 S
Eu105 C134 2.828 . S
C106 O124 1.244 . S
C106 O127 1.265 . S
C107 C108 1.379 1_655 S
C107 C111 1.373 . S
C107 C113 1.505 . S
C108 C107 1.379 1_455 S
C108 C110 1.369 . S
C108 H136 0.930 . S
C109 C111 1.383 . S
C109 C112 1.382 1_655 S
C109 H137 0.930 . S
C110 C108 1.369 . S
C110 C112 1.392 . S
C110 H138 0.930 . S
C111 C107 1.373 . S
C111 C109 1.383 . S
C111 H139 0.931 . S
C112 C109 1.382 1_455 S
C112 C110 1.392 . S
C113 Eu104 2.828 . S
C113 C107 1.505 . S
C113 O125 1.249 . S
C113 O126 1.244 . S
O114 Eu105 2.373 1_655 S
O114 C116 1.258 1_565 S
O115 Eu104 2.392 . S
O115 C116 1.242 . S
C116 O114 1.258 1_545 S
C116 O115 1.242 . S
O117 Eu104 2.418 1_565 S
O117 C121 1.244 . S
O118 Eu105 2.488 . S
O118 C134 1.249 . S
O119 Eu105 2.471 . S
O119 C134 1.244 . S
O120 Eu105 2.349 . S
O120 C121 1.265 1_455 S
C121 O117 1.244 . S
C121 O120 1.265 1_655 S
O122 Eu104 2.373 1_455 S
O122 C135 1.258 . S
O123 Eu105 2.392 1_545 S
O123 C135 1.242 . S
O124 Eu105 2.418 1_545 S
O124 C106 1.244 . S
O125 Eu104 2.488 . S
O125 C113 1.249 . S
O126 Eu104 2.471 . S
O126 C113 1.244 . S
O127 Eu104 2.349 1_455 S
O127 C106 1.265 . S
C128 C129 1.379 . S
C128 C132 1.373 1_556 S
C128 C134 1.505 . S
C129 C128 1.379 . S
C129 C131 1.372 1_556 S
C129 H140 0.930 1_455 S
C130 C132 1.383 . S
C130 C133 1.382 . S
C130 H141 0.930 . S
C131 C129 1.372 1_554 S
C131 C133 1.398 . S
C131 H142 0.922 1_455 S
C132 C128 1.373 1_554 S
C132 C130 1.383 . S
C132 H143 0.931 . S
C133 C130 1.382 . S
C133 C131 1.398 . S
C134 Eu105 2.828 . S
C134 O118 1.249 . S
C134 O119 1.244 . S
C134 C128 1.505 . S
C135 O122 1.258 . S
C135 O123 1.242 . S
H136 C108 0.930 . S
H137 C109 0.930 . S
H138 C110 0.930 . S
H139 C111 0.931 . S
H140 C129 0.930 1_655 S
H141 C130 0.930 . S
H142 C131 0.922 1_655 S
H143 C132 0.931 . S
Eu144 C153 2.828 . S
Eu144 O155 2.392 . S
Eu144 O157 2.418 . S
Eu144 O162 2.373 . S
Eu144 O165 2.488 . S
Eu144 O166 2.471 . S
Eu144 O167 2.349 1_545 S
Eu145 O154 2.373 1_565 S
Eu145 O158 2.488 . S
Eu145 O159 2.471 1_565 S
Eu145 O160 2.349 1_565 S
Eu145 O163 2.392 . S
Eu145 O164 2.418 . S
Eu145 C174 2.828 . S
C146 O164 1.244 . S
C146 O167 1.265 . S
C147 C148 1.379 . S
C147 C151 1.373 . S
C147 C153 1.505 . S
C148 C147 1.379 . S
C148 C150 1.369 . S
C148 H176 0.930 1_545 S
C149 C151 1.383 . S
C149 C152 1.382 . S
C149 H177 0.930 . S
C150 C148 1.369 . S
C150 C152 1.392 . S
C150 H178 0.930 1_545 S
C151 C147 1.373 . S
C151 C149 1.383 . S
C151 H179 0.931 . S
C152 C149 1.382 . S
C152 C150 1.392 . S
C153 Eu144 2.828 . S
C153 C147 1.505 . S
C153 O165 1.249 . S
C153 O166 1.244 . S
O154 Eu145 2.373 1_545 S
O154 C156 1.258 . S
O155 Eu144 2.392 . S
O155 C156 1.242 . S
C156 O154 1.258 . S
C156 O155 1.242 . S
O157 Eu144 2.418 . S
O157 C161 1.244 . S
O158 Eu145 2.488 . S
O158 C174 1.249 . S
O159 Eu145 2.471 1_545 S
O159 C174 1.244 1_545 S
O160 Eu145 2.349 1_545 S
O160 C161 1.265 . S
C161 O157 1.244 . S
C161 O160 1.265 . S
O162 Eu144 2.373 . S
O162 C175 1.258 1_545 S
O163 Eu145 2.392 . S
O163 C175 1.242 . S
O164 Eu145 2.418 . S
O164 C146 1.244 . S
O165 Eu144 2.488 . S
O165 C153 1.249 . S
O166 Eu144 2.471 . S
O166 C153 1.244 . S
O167 Eu144 2.349 1_565 S
O167 C146 1.265 . S
C168 C169 1.379 1_565 S
C168 C172 1.373 . S
C168 C174 1.505 . S
C169 C168 1.379 1_545 S
C169 C171 1.369 . S
C169 H180 0.930 . S
C170 C172 1.383 . S
C170 C173 1.382 . S
C170 H181 0.930 . S
C171 C169 1.369 . S
C171 C173 1.392 1_545 S
C171 H182 0.930 . S
C172 C168 1.373 . S
C172 C170 1.383 . S
C172 H183 0.931 . S
C173 C170 1.382 . S
C173 C171 1.392 1_565 S
C174 Eu145 2.828 . S
C174 O158 1.249 . S
C174 O159 1.244 1_565 S
C174 C168 1.505 . S
C175 O162 1.258 1_565 S
C175 O163 1.242 . S
H176 C148 0.930 1_565 S
H177 C149 0.930 . S
H178 C150 0.930 1_565 S
H179 C151 0.931 . S
H180 C169 0.930 . S
H181 C170 0.930 . S
H182 C171 0.930 . S
H183 C172 0.931 . S
Eu184 C193 2.828 . S
Eu184 O195 2.392 . S
Eu184 O197 2.418 . S
Eu184 O202 2.373 . S
Eu184 O205 2.488 . S
Eu184 O206 2.471 . S
Eu184 O207 2.349 . S
Eu185 O194 2.373 . S
Eu185 O198 2.488 . S
Eu185 O199 2.471 . S
Eu185 O200 2.349 . S
Eu185 O203 2.392 . S
Eu185 O204 2.418 . S
Eu185 C214 2.828 . S
C186 O204 1.244 . S
C186 O207 1.265 . S
C187 C188 1.379 . S
C187 C191 1.373 . S
C187 C193 1.505 . S
C188 C187 1.379 . S
C188 C190 1.369 . S
C188 H216 0.930 . S
C189 C191 1.383 . S
C189 C192 1.382 . S
C189 H217 0.930 . S
C190 C188 1.369 . S
C190 C192 1.392 . S
C190 H218 0.930 . S
C191 C187 1.373 . S
C191 C189 1.383 . S
C191 H219 0.931 . S
C192 C189 1.382 . S
C192 C190 1.392 . S
C193 Eu184 2.828 . S
C193 C187 1.505 . S
C193 O205 1.249 . S
C193 O206 1.244 . S
O194 Eu185 2.373 . S
O194 C196 1.258 . S
O195 Eu184 2.392 . S
O195 C196 1.242 . S
C196 O194 1.258 . S
C196 O195 1.242 . S
O197 Eu184 2.418 . S
O197 C201 1.244 . S
O198 Eu185 2.488 . S
O198 C214 1.249 . S
O199 Eu185 2.471 . S
O199 C214 1.244 . S
O200 Eu185 2.349 . S
O200 C201 1.265 . S
C201 O197 1.244 . S
C201 O200 1.265 . S
O202 Eu184 2.373 . S
O202 C215 1.258 . S
O203 Eu185 2.392 . S
O203 C215 1.242 . S
O204 Eu185 2.418 . S
O204 C186 1.244 . S
O205 Eu184 2.488 . S
O205 C193 1.249 . S
O206 Eu184 2.471 . S
O206 C193 1.244 . S
O207 Eu184 2.349 . S
O207 C186 1.265 . S
C208 C209 1.379 . S
C208 C212 1.373 . S
C208 C214 1.505 . S
C209 C208 1.379 . S
C209 C211 1.369 . S
C209 H220 0.930 . S
C210 C212 1.383 . S
C210 C213 1.382 . S
C210 H221 0.930 . S
C211 C209 1.369 . S
C211 C213 1.392 . S
C211 H222 0.930 . S
C212 C208 1.373 . S
C212 C210 1.383 . S
C212 H223 0.931 . S
C213 C210 1.382 . S
C213 C211 1.392 . S
C214 Eu185 2.828 . S
C214 O198 1.249 . S
C214 O199 1.244 . S
C214 C208 1.505 . S
C215 O202 1.258 . S
C215 O203 1.242 . S
H216 C188 0.930 . S
H217 C189 0.930 . S
H218 C190 0.930 . S
H219 C191 0.931 . S
H220 C209 0.930 . S
H221 C210 0.930 . S
H222 C211 0.930 . S
H223 C212 0.931 . S
Eu224 C233 2.828 . S
Eu224 O235 2.392 . S
Eu224 O237 2.418 1_455 S
Eu224 O242 2.373 . S
Eu224 O245 2.488 . S
Eu224 O246 2.471 . S
Eu224 O247 2.349 . S
Eu225 O234 2.373 . S
Eu225 O238 2.488 . S
Eu225 O239 2.471 . S
Eu225 O240 2.349 . S
Eu225 O243 2.392 1_655 S
Eu225 O244 2.418 1_655 S
Eu225 C254 2.828 . S
C226 O244 1.244 . S
C226 O247 1.265 . S
C227 C228 1.379 . S
C227 C231 1.373 . S
C227 C233 1.505 . S
C228 C227 1.379 . S
C228 C230 1.369 . S
C228 H256 0.930 . S
C229 C231 1.383 . S
C229 C232 1.382 . S
C229 H257 0.930 . S
C230 C228 1.369 . S
C230 C232 1.392 . S
C230 H258 0.930 . S
C231 C227 1.373 . S
C231 C229 1.383 . S
C231 H259 0.931 . S
C232 C229 1.382 . S
C232 C230 1.392 . S
C233 Eu224 2.828 . S
C233 C227 1.505 . S
C233 O245 1.249 . S
C233 O246 1.244 . S
O234 Eu225 2.373 . S
O234 C236 1.254 1_655 S
O235 Eu224 2.392 . S
O235 C236 1.251 . S
C236 O234 1.254 1_455 S
C236 O235 1.251 . S
O237 Eu224 2.418 1_655 S
O237 C241 1.244 . S
O238 Eu225 2.488 . S
O238 C254 1.249 . S
O239 Eu225 2.471 . S
O239 C254 1.244 . S
O240 Eu225 2.349 . S
O240 C241 1.265 . S
C241 O237 1.244 . S
C241 O240 1.265 . S
O242 Eu224 2.373 . S
O242 C255 1.258 . S
O243 Eu225 2.392 1_455 S
O243 C255 1.242 . S
O244 Eu225 2.418 1_455 S
O244 C226 1.244 . S
O245 Eu224 2.488 . S
O245 C233 1.249 . S
O246 Eu224 2.471 . S
O246 C233 1.244 . S
O247 Eu224 2.349 . S
O247 C226 1.265 . S
C248 C249 1.379 . S
C248 C252 1.373 1_556 S
C248 C254 1.505 . S
C249 C248 1.379 . S
C249 C251 1.369 . S
C249 H260 0.930 . S
C250 C252 1.383 . S
C250 C253 1.382 . S
C250 H261 0.930 . S
C251 C249 1.369 . S
C251 C253 1.392 1_556 S
C251 H262 0.930 . S
C252 C248 1.373 1_554 S
C252 C250 1.383 . S
C252 H263 0.931 . S
C253 C250 1.382 . S
C253 C251 1.392 1_554 S
C254 Eu225 2.828 . S
C254 O238 1.249 . S
C254 O239 1.244 . S
C254 C248 1.505 . S
C255 O242 1.258 . S
C255 O243 1.242 . S
H256 C228 0.930 . S
H257 C229 0.930 . S
H258 C230 0.930 . S
H259 C231 0.931 . S
H260 C249 0.930 . S
H261 C250 0.930 . S
H262 C251 0.930 . S
H263 C252 0.931 . S
C264 C265 1.391 . S
C264 C266 1.394 . S
C264 H280 0.931 . S
C265 C264 1.391 . S
C265 C269 1.376 . S
C266 C264 1.394 . S
C266 C267 1.369 . S
C266 C270 1.531 . S
C267 C266 1.369 . S
C267 C268 1.410 . S
C267 C275 1.503 . S
C268 C267 1.410 . S
C268 C269 1.392 . S
C268 C271 1.511 . S
C269 C265 1.376 . S
C269 C268 1.392 . S
C269 H281 0.929 . S
C270 C266 1.531 . S
C270 H282 0.960 . S
C270 H283 0.962 . S
C270 H284 0.960 . S
C271 C268 1.511 . S
C271 H285 0.961 . S
C271 H286 0.961 . S
C271 H287 0.961 . S
C272 C273 1.370 . S
C272 C274 1.363 . S
C272 H288 0.931 1_545 S
C273 C272 1.370 . S
C273 C277 1.408 . S
C274 C272 1.363 . S
C274 C275 1.370 . S
C274 C278 1.524 1_545 S
C275 C267 1.503 . S
C275 C274 1.370 . S
C275 C276 1.403 . S
C276 C275 1.403 . S
C276 C277 1.404 . S
C276 C279 1.539 . S
C277 C273 1.408 . S
C277 C276 1.404 . S
C277 H289 0.930 . S
C278 C274 1.524 1_565 S
C278 H290 0.956 . S
C278 H291 0.961 . S
C278 H292 0.961 . S
C279 C276 1.539 . S
C279 H293 0.958 . S
C279 H294 0.961 . S
C279 H295 0.960 . S
H280 C264 0.931 . S
H281 C269 0.929 . S
H282 C270 0.960 . S
H283 C270 0.962 . S
H284 C270 0.960 . S
H285 C271 0.961 . S
H286 C271 0.961 . S
H287 C271 0.961 . S
H288 C272 0.931 1_565 S
H289 C277 0.930 . S
H290 C278 0.956 . S
H291 C278 0.961 . S
H292 C278 0.961 . S
H293 C279 0.958 . S
H294 C279 0.961 . S
H295 C279 0.960 . S
C296 C297 1.391 . S
C296 C298 1.394 . S
C296 H312 0.931 . S
C297 C296 1.391 . S
C297 C301 1.376 . S
C298 C296 1.394 . S
C298 C299 1.369 . S
C298 C302 1.531 . S
C299 C298 1.369 . S
C299 C300 1.410 . S
C299 C307 1.503 . S
C300 C299 1.410 . S
C300 C301 1.392 . S
C300 C303 1.511 . S
C301 C297 1.376 . S
C301 C300 1.392 . S
C301 H313 0.929 . S
C302 C298 1.531 . S
C302 H314 0.960 . S
C302 H315 0.962 . S
C302 H316 0.960 . S
C303 C300 1.511 . S
C303 H317 0.961 . S
C303 H318 0.961 . S
C303 H319 0.961 . S
C304 C305 1.370 . S
C304 C306 1.363 . S
C304 H320 0.931 . S
C305 C304 1.370 . S
C305 C309 1.408 . S
C306 C304 1.363 . S
C306 C307 1.370 . S
C306 C310 1.524 . S
C307 C299 1.503 . S
C307 C306 1.370 . S
C307 C308 1.403 . S
C308 C307 1.403 . S
C308 C309 1.404 . S
C308 C311 1.539 . S
C309 C305 1.408 . S
C309 C308 1.404 . S
C309 H321 0.930 . S
C310 C306 1.524 . S
C310 H322 0.956 . S
C310 H323 0.961 . S
C310 H324 0.961 . S
C311 C308 1.539 . S
C311 H325 0.958 . S
C311 H326 0.961 . S
C311 H327 0.960 . S
H312 C296 0.931 . S
H313 C301 0.929 . S
H314 C302 0.960 . S
H315 C302 0.962 . S
H316 C302 0.960 . S
H317 C303 0.961 . S
H318 C303 0.961 . S
H319 C303 0.961 . S
H320 C304 0.931 . S
H321 C309 0.930 . S
H322 C310 0.956 . S
H323 C310 0.961 . S
H324 C310 0.961 . S
H325 C311 0.958 . S
H326 C311 0.961 . S
H327 C311 0.960 . S
C328 C329 1.391 . S
C328 C330 1.394 . S
C328 H344 0.931 . S
C329 C328 1.391 . S
C329 C333 1.376 . S
C330 C328 1.394 . S
C330 C331 1.369 . S
C330 C334 1.531 . S
C331 C330 1.369 . S
C331 C332 1.410 . S
C331 C339 1.503 . S
C332 C331 1.410 . S
C332 C333 1.392 . S
C332 C335 1.511 . S
C333 C329 1.376 . S
C333 C332 1.392 . S
C333 H345 0.929 . S
C334 C330 1.531 . S
C334 H346 0.960 . S
C334 H347 0.962 . S
C334 H348 0.960 . S
C335 C332 1.511 . S
C335 H349 0.961 . S
C335 H350 0.961 . S
C335 H351 0.961 . S
C336 C337 1.370 . S
C336 C338 1.363 . S
C336 H352 0.931 . S
C337 C336 1.370 . S
C337 C341 1.408 . S
C338 C336 1.363 . S
C338 C339 1.370 . S
C338 C342 1.524 . S
C339 C331 1.503 . S
C339 C338 1.370 . S
C339 C340 1.403 . S
C340 C339 1.403 . S
C340 C341 1.404 . S
C340 C343 1.539 . S
C341 C337 1.408 . S
C341 C340 1.404 . S
C341 H353 0.930 . S
C342 C338 1.524 . S
C342 H354 0.956 . S
C342 H355 0.961 . S
C342 H356 0.961 . S
C343 C340 1.539 . S
C343 H357 0.958 . S
C343 H358 0.961 . S
C343 H359 0.960 . S
H344 C328 0.931 . S
H345 C333 0.929 . S
H346 C334 0.960 . S
H347 C334 0.962 . S
H348 C334 0.960 . S
H349 C335 0.961 . S
H350 C335 0.961 . S
H351 C335 0.961 . S
H352 C336 0.931 . S
H353 C341 0.930 . S
H354 C342 0.956 . S
H355 C342 0.961 . S
H356 C342 0.961 . S
H357 C343 0.958 . S
H358 C343 0.961 . S
H359 C343 0.960 . S
C360 C361 1.391 . S
C360 C362 1.394 . S
C360 H376 0.931 . S
C361 C360 1.391 . S
C361 C365 1.376 . S
C362 C360 1.394 . S
C362 C363 1.369 . S
C362 C366 1.531 . S
C363 C362 1.369 . S
C363 C364 1.410 . S
C363 C371 1.503 . S
C364 C363 1.410 . S
C364 C365 1.392 . S
C364 C367 1.511 1_455 S
C365 C361 1.376 . S
C365 C364 1.392 . S
C365 H377 0.929 . S
C366 C362 1.531 . S
C366 H378 0.960 . S
C366 H379 0.962 . S
C366 H380 0.960 . S
C367 C364 1.511 1_655 S
C367 H381 0.961 . S
C367 H382 0.961 . S
C367 H383 0.961 . S
C368 C369 1.370 . S
C368 C370 1.363 . S
C368 H384 0.931 . S
C369 C368 1.370 . S
C369 C373 1.408 . S
C370 C368 1.363 . S
C370 C371 1.370 . S
C370 C374 1.524 . S
C371 C363 1.503 . S
C371 C370 1.370 . S
C371 C372 1.403 . S
C372 C371 1.403 . S
C372 C373 1.404 . S
C372 C375 1.539 . S
C373 C369 1.408 . S
C373 C372 1.404 . S
C373 H385 0.930 . S
C374 C370 1.524 . S
C374 H386 0.956 . S
C374 H387 0.961 . S
C374 H388 0.961 . S
C375 C372 1.539 . S
C375 H389 0.958 . S
C375 H390 0.961 1_455 S
C375 H391 0.960 . S
H376 C360 0.931 . S
H377 C365 0.929 . S
H378 C366 0.960 . S
H379 C366 0.962 . S
H380 C366 0.960 . S
H381 C367 0.961 . S
H382 C367 0.961 . S
H383 C367 0.961 . S
H384 C368 0.931 . S
H385 C373 0.930 . S
H386 C374 0.956 . S
H387 C374 0.961 . S
H388 C374 0.961 . S
H389 C375 0.958 . S
H390 C375 0.961 1_655 S
H391 C375 0.960 . S
C392 C393 1.391 . S
C392 C394 1.394 . S
C392 H408 0.931 . S
C393 C392 1.391 . S
C393 C397 1.376 . S
C394 C392 1.394 . S
C394 C395 1.369 . S
C394 C398 1.531 . S
C395 C394 1.369 . S
C395 C396 1.410 . S
C395 C403 1.503 . S
C396 C395 1.410 . S
C396 C397 1.392 . S
C396 C399 1.511 . S
C397 C393 1.376 . S
C397 C396 1.392 . S
C397 H409 0.929 . S
C398 C394 1.531 . S
C398 H410 0.960 . S
C398 H411 0.962 . S
C398 H412 0.960 . S
C399 C396 1.511 . S
C399 H413 0.961 1_565 S
C399 H414 0.961 1_564 S
C399 H415 0.961 1_554 S
C400 C401 1.370 1_545 S
C400 C402 1.363 1_556 S
C400 H416 0.931 . S
C401 C400 1.370 1_565 S
C401 C405 1.408 . S
C402 C400 1.363 1_554 S
C402 C403 1.370 1_545 S
C402 C406 1.524 . S
C403 C395 1.503 . S
C403 C402 1.370 1_565 S
C403 C404 1.403 1_554 S
C404 C403 1.403 1_556 S
C404 C405 1.404 . S
C404 C407 1.539 . S
C405 C401 1.408 . S
C405 C404 1.404 . S
C405 H417 0.930 . S
C406 C402 1.524 . S
C406 H418 0.956 . S
C406 H419 0.961 . S
C406 H420 0.961 . S
C407 C404 1.539 . S
C407 H421 0.958 1_556 S
C407 H422 0.961 . S
C407 H423 0.960 1_556 S
H408 C392 0.931 . S
H409 C397 0.929 . S
H410 C398 0.960 . S
H411 C398 0.962 . S
H412 C398 0.960 . S
H413 C399 0.961 1_545 S
H414 C399 0.961 1_546 S
H415 C399 0.961 1_556 S
H416 C400 0.931 . S
H417 C405 0.930 . S
H418 C406 0.956 . S
H419 C406 0.961 . S
H420 C406 0.961 . S
H421 C407 0.958 1_554 S
H422 C407 0.961 . S
H423 C407 0.960 1_554 S
C424 C425 1.391 . S
C424 C426 1.394 . S
C424 H440 0.931 . S
C425 C424 1.391 . S
C425 C429 1.376 . S
C426 C424 1.394 . S
C426 C427 1.369 . S
C426 C430 1.531 . S
C427 C426 1.369 . S
C427 C428 1.410 . S
C427 C435 1.503 1_554 S
C428 C427 1.410 . S
C428 C429 1.392 . S
C428 C431 1.511 . S
C429 C425 1.376 . S
C429 C428 1.392 . S
C429 H441 0.929 . S
C430 C426 1.531 . S
C430 H442 0.960 . S
C430 H443 0.962 . S
C430 H444 0.960 . S
C431 C428 1.511 . S
C431 H445 0.961 . S
C431 H446 0.961 1_554 S
C431 H447 0.961 . S
C432 C433 1.370 . S
C432 C434 1.363 . S
C432 H448 0.931 . S
C433 C432 1.370 . S
C433 C437 1.408 . S
C434 C432 1.363 . S
C434 C435 1.370 . S
C434 C438 1.524 . S
C435 C427 1.503 1_556 S
C435 C434 1.370 . S
C435 C436 1.403 . S
C436 C435 1.403 . S
C436 C437 1.404 . S
C436 C439 1.539 1_556 S
C437 C433 1.408 . S
C437 C436 1.404 . S
C437 H449 0.930 . S
C438 C434 1.524 . S
C438 H450 0.956 . S
C438 H451 0.961 . S
C438 H452 0.961 . S
C439 C436 1.539 1_554 S
C439 H453 0.958 . S
C439 H454 0.961 . S
C439 H455 0.960 . S
H440 C424 0.931 . S
H441 C429 0.929 . S
H442 C430 0.960 . S
H443 C430 0.962 . S
H444 C430 0.960 . S
H445 C431 0.961 . S
H446 C431 0.961 1_556 S
H447 C431 0.961 . S
H448 C432 0.931 . S
H449 C437 0.930 . S
H450 C438 0.956 . S
H451 C438 0.961 . S
H452 C438 0.961 . S
H453 C439 0.958 . S
H454 C439 0.961 . S
H455 C439 0.960 . S
C456 C457 1.391 . S
C456 C458 1.394 . S
C456 H472 0.931 . S
C457 C456 1.391 . S
C457 C461 1.376 . S
C458 C456 1.394 . S
C458 C459 1.369 . S
C458 C462 1.531 . S
C459 C458 1.369 . S
C459 C460 1.410 . S
C459 C467 1.503 1_554 S
C460 C459 1.410 . S
C460 C461 1.392 . S
C460 C463 1.511 1_554 S
C461 C457 1.376 . S
C461 C460 1.392 . S
C461 H473 0.929 . S
C462 C458 1.531 . S
C462 H474 0.960 . S
C462 H475 0.962 . S
C462 H476 0.960 . S
C463 C460 1.511 1_556 S
C463 H477 0.961 1_556 S
C463 H478 0.961 . S
C463 H479 0.961 . S
C464 C465 1.370 . S
C464 C466 1.363 . S
C464 H480 0.931 . S
C465 C464 1.370 . S
C465 C469 1.408 . S
C466 C464 1.363 . S
C466 C467 1.370 . S
C466 C470 1.524 1_556 S
C467 C459 1.503 1_556 S
C467 C466 1.370 . S
C467 C468 1.403 . S
C468 C467 1.403 . S
C468 C469 1.404 . S
C468 C471 1.539 . S
C469 C465 1.408 . S
C469 C468 1.404 . S
C469 H481 0.930 . S
C470 C466 1.524 1_554 S
C470 H482 0.956 . S
C470 H483 0.961 . S
C470 H484 0.961 . S
C471 C468 1.539 . S
C471 H485 0.958 . S
C471 H486 0.961 . S
C471 H487 0.960 . S
H472 C456 0.931 . S
H473 C461 0.929 . S
H474 C462 0.960 . S
H475 C462 0.962 . S
H476 C462 0.960 . S
H477 C463 0.961 1_554 S
H478 C463 0.961 . S
H479 C463 0.961 . S
H480 C464 0.931 . S
H481 C469 0.930 . S
H482 C470 0.956 . S
H483 C470 0.961 . S
H484 C470 0.961 . S
H485 C471 0.958 . S
H486 C471 0.961 . S
H487 C471 0.960 . S
C488 C489 1.391 . S
C488 C490 1.394 . S
C488 H504 0.931 . S
C489 C488 1.391 . S
C489 C493 1.376 . S
C490 C488 1.394 . S
C490 C491 1.369 . S
C490 C494 1.531 . S
C491 C490 1.369 . S
C491 C492 1.410 1_655 S
C491 C499 1.503 . S
C492 C491 1.410 1_455 S
C492 C493 1.392 1_455 S
C492 C495 1.511 . S
C493 C489 1.376 . S
C493 C492 1.392 1_655 S
C493 H505 0.929 1_655 S
C494 C490 1.531 . S
C494 H506 0.960 1_554 S
C494 H507 0.962 . S
C494 H508 0.960 . S
C495 C492 1.511 . S
C495 H509 0.961 . S
C495 H510 0.961 . S
C495 H511 0.961 . S
C496 C497 1.370 . S
C496 C498 1.363 1_556 S
C496 H512 0.931 . S
C497 C496 1.370 . S
C497 C501 1.408 1_655 S
C498 C496 1.363 1_554 S
C498 C499 1.370 . S
C498 C502 1.524 . S
C499 C491 1.503 . S
C499 C498 1.370 . S
C499 C500 1.403 1_554 S
C500 C499 1.403 1_556 S
C500 C501 1.404 1_655 S
C500 C503 1.539 1_655 S
C501 C497 1.408 1_455 S
C501 C500 1.404 1_455 S
C501 H513 0.930 . S
C502 C498 1.524 . S
C502 H514 0.956 . S
C502 H515 0.961 . S
C502 H516 0.961 . S
C503 C500 1.539 1_455 S
C503 H517 0.958 1_455 S
C503 H518 0.961 . S
C503 H519 0.960 . S
H504 C488 0.931 . S
H505 C493 0.929 1_455 S
H506 C494 0.960 1_556 S
H507 C494 0.962 . S
H508 C494 0.960 . S
H509 C495 0.961 . S
H510 C495 0.961 . S
H511 C495 0.961 . S
H512 C496 0.931 . S
H513 C501 0.930 . S
H514 C502 0.956 . S
H515 C502 0.961 . S
H516 C502 0.961 . S
H517 C503 0.958 1_655 S
H518 C503 0.961 . S
H519 C503 0.960 . S
C520 C521 1.391 . S
C520 C522 1.394 . S
C520 H536 0.931 . S
C521 C520 1.391 . S
C521 C525 1.376 . S
C522 C520 1.394 . S
C522 C523 1.369 . S
C522 C526 1.531 . S
C523 C522 1.369 . S
C523 C524 1.410 . S
C523 C531 1.503 . S
C524 C523 1.410 . S
C524 C525 1.392 . S
C524 C527 1.511 . S
C525 C521 1.376 . S
C525 C524 1.392 . S
C525 H537 0.929 . S
C526 C522 1.531 . S
C526 H538 0.960 . S
C526 H539 0.962 . S
C526 H540 0.960 . S
C527 C524 1.511 . S
C527 H541 0.961 . S
C527 H542 0.961 . S
C527 H543 0.961 1_455 S
C528 C529 1.370 . S
C528 C530 1.363 . S
C528 H544 0.931 . S
C529 C528 1.370 . S
C529 C533 1.408 1_455 S
C530 C528 1.363 . S
C530 C531 1.370 . S
C530 C534 1.524 . S
C531 C523 1.503 . S
C531 C530 1.370 . S
C531 C532 1.403 1_455 S
C532 C531 1.403 1_655 S
C532 C533 1.404 . S
C532 C535 1.539 . S
C533 C529 1.408 1_655 S
C533 C532 1.404 . S
C533 H545 0.930 . S
C534 C530 1.524 . S
C534 H546 0.956 . S
C534 H547 0.961 . S
C534 H548 0.961 . S
C535 C532 1.539 . S
C535 H549 0.958 . S
C535 H550 0.961 . S
C535 H551 0.960 . S
H536 C520 0.931 . S
H537 C525 0.929 . S
H538 C526 0.960 . S
H539 C526 0.962 . S
H540 C526 0.960 . S
H541 C527 0.961 . S
H542 C527 0.961 . S
H543 C527 0.961 1_655 S
H544 C528 0.931 . S
H545 C533 0.930 . S
H546 C534 0.956 . S
H547 C534 0.961 . S
H548 C534 0.961 . S
H549 C535 0.958 . S
H550 C535 0.961 . S
H551 C535 0.960 . S
C552 C553 1.391 . S
C552 C554 1.394 . S
C552 H568 0.931 . S
C553 C552 1.391 . S
C553 C557 1.376 . S
C554 C552 1.394 . S
C554 C555 1.369 . S
C554 C558 1.531 . S
C555 C554 1.369 . S
C555 C556 1.410 . S
C555 C563 1.503 . S
C556 C555 1.410 . S
C556 C557 1.392 . S
C556 C559 1.511 . S
C557 C553 1.376 . S
C557 C556 1.392 . S
C557 H569 0.929 . S
C558 C554 1.531 . S
C558 H570 0.960 . S
C558 H571 0.962 . S
C558 H572 0.960 . S
C559 C556 1.511 . S
C559 H573 0.961 . S
C559 H574 0.961 . S
C559 H575 0.961 . S
C560 C561 1.370 . S
C560 C562 1.363 . S
C560 H576 0.931 . S
C561 C560 1.370 . S
C561 C565 1.408 1_565 S
C562 C560 1.363 . S
C562 C563 1.370 1_565 S
C562 C566 1.524 . S
C563 C555 1.503 . S
C563 C562 1.370 1_545 S
C563 C564 1.403 . S
C564 C563 1.403 . S
C564 C565 1.404 . S
C564 C567 1.539 . S
C565 C561 1.408 1_545 S
C565 C564 1.404 . S
C565 H577 0.930 . S
C566 C562 1.524 . S
C566 H578 0.956 . S
C566 H579 0.961 . S
C566 H580 0.961 . S
C567 C564 1.539 . S
C567 H581 0.958 . S
C567 H582 0.961 . S
C567 H583 0.960 . S
H568 C552 0.931 . S
H569 C557 0.929 . S
H570 C558 0.960 . S
H571 C558 0.962 . S
H572 C558 0.960 . S
H573 C559 0.961 . S
H574 C559 0.961 . S
H575 C559 0.961 . S
H576 C560 0.931 . S
H577 C565 0.930 . S
H578 C566 0.956 . S
H579 C566 0.961 . S
H580 C566 0.961 . S
H581 C567 0.958 . S
H582 C567 0.961 . S
H583 C567 0.960 . S
C584 C585 1.391 . S
C584 C586 1.394 . S
C584 H600 0.931 . S
C585 C584 1.391 . S
C585 C589 1.376 . S
C586 C584 1.394 . S
C586 C587 1.369 . S
C586 C590 1.531 . S
C587 C586 1.369 . S
C587 C588 1.410 . S
C587 C595 1.503 . S
C588 C587 1.410 . S
C588 C589 1.392 . S
C588 C591 1.511 . S
C589 C585 1.376 . S
C589 C588 1.392 . S
C589 H601 0.929 . S
C590 C586 1.531 . S
C590 H602 0.960 . S
C590 H603 0.962 . S
C590 H604 0.960 . S
C591 C588 1.511 . S
C591 H605 0.961 . S
C591 H606 0.961 . S
C591 H607 0.961 . S
C592 C593 1.370 . S
C592 C594 1.363 . S
C592 H608 0.931 . S
C593 C592 1.370 . S
C593 C597 1.408 . S
C594 C592 1.363 . S
C594 C595 1.370 . S
C594 C598 1.524 . S
C595 C587 1.503 . S
C595 C594 1.370 . S
C595 C596 1.403 . S
C596 C595 1.403 . S
C596 C597 1.404 . S
C596 C599 1.539 . S
C597 C593 1.408 . S
C597 C596 1.404 . S
C597 H609 0.930 . S
C598 C594 1.524 . S
C598 H610 0.956 . S
C598 H611 0.961 . S
C598 H612 0.961 . S
C599 C596 1.539 . S
C599 H613 0.958 . S
C599 H614 0.961 . S
C599 H615 0.960 . S
H600 C584 0.931 . S
H601 C589 0.929 . S
H602 C590 0.960 . S
H603 C590 0.962 . S
H604 C590 0.960 . S
H605 C591 0.961 . S
H606 C591 0.961 . S
H607 C591 0.961 . S
H608 C592 0.931 . S
H609 C597 0.930 . S
H610 C598 0.956 . S
H611 C598 0.961 . S
H612 C598 0.961 . S
H613 C599 0.958 . S
H614 C599 0.961 . S
H615 C599 0.960 . S
C616 C617 1.391 . S
C616 C618 1.394 . S
C616 H632 0.931 . S
C617 C616 1.391 . S
C617 C621 1.376 . S
C618 C616 1.394 . S
C618 C619 1.369 . S
C618 C622 1.531 . S
C619 C618 1.369 . S
C619 C620 1.410 . S
C619 C627 1.503 . S
C620 C619 1.410 . S
C620 C621 1.392 . S
C620 C623 1.511 . S
C621 C617 1.376 . S
C621 C620 1.392 . S
C621 H633 0.929 . S
C622 C618 1.531 . S
C622 H634 0.960 . S
C622 H635 0.962 . S
C622 H636 0.960 . S
C623 C620 1.511 . S
C623 H637 0.961 . S
C623 H638 0.961 . S
C623 H639 0.961 . S
C624 C625 1.370 . S
C624 C626 1.363 . S
C624 H640 0.931 . S
C625 C624 1.370 . S
C625 C629 1.408 . S
C626 C624 1.363 . S
C626 C627 1.370 . S
C626 C630 1.524 . S
C627 C619 1.503 . S
C627 C626 1.370 . S
C627 C628 1.403 . S
C628 C627 1.403 . S
C628 C629 1.404 . S
C628 C631 1.539 . S
C629 C625 1.408 . S
C629 C628 1.404 . S
C629 H641 0.930 . S
C630 C626 1.524 . S
C630 H642 0.956 . S
C630 H643 0.961 . S
C630 H644 0.961 . S
C631 C628 1.539 . S
C631 H645 0.958 . S
C631 H646 0.961 . S
C631 H647 0.960 . S
H632 C616 0.931 . S
H633 C621 0.929 . S
H634 C622 0.960 . S
H635 C622 0.962 . S
H636 C622 0.960 . S
H637 C623 0.961 . S
H638 C623 0.961 . S
H639 C623 0.961 . S
H640 C624 0.931 . S
H641 C629 0.930 . S
H642 C630 0.956 . S
H643 C630 0.961 . S
H644 C630 0.961 . S
H645 C631 0.958 . S
H646 C631 0.961 . S
H647 C631 0.960 . S
C648 C649 1.391 . S
C648 C650 1.394 . S
C648 H664 0.931 . S
C649 C648 1.391 . S
C649 C653 1.376 . S
C650 C648 1.394 . S
C650 C651 1.369 . S
C650 C654 1.531 . S
C651 C650 1.369 . S
C651 C652 1.410 . S
C651 C659 1.503 . S
C652 C651 1.410 . S
C652 C653 1.392 . S
C652 C655 1.511 1_655 S
C653 C649 1.376 . S
C653 C652 1.392 . S
C653 H665 0.929 . S
C654 C650 1.531 . S
C654 H666 0.960 . S
C654 H667 0.962 . S
C654 H668 0.960 . S
C655 C652 1.511 1_455 S
C655 H669 0.961 . S
C655 H670 0.961 . S
C655 H671 0.961 . S
C656 C657 1.370 1_655 S
C656 C658 1.363 . S
C656 H672 0.931 . S
C657 C656 1.370 1_455 S
C657 C661 1.408 . S
C658 C656 1.363 . S
C658 C659 1.370 . S
C658 C662 1.524 . S
C659 C651 1.503 . S
C659 C658 1.370 . S
C659 C660 1.403 1_655 S
C660 C659 1.403 1_455 S
C660 C661 1.404 . S
C660 C663 1.539 . S
C661 C657 1.408 . S
C661 C660 1.404 . S
C661 H673 0.930 . S
C662 C658 1.524 . S
C662 H674 0.956 . S
C662 H675 0.961 . S
C662 H676 0.961 . S
C663 C660 1.539 . S
C663 H677 0.958 . S
C663 H678 0.961 . S
C663 H679 0.960 . S
H664 C648 0.931 . S
H665 C653 0.929 . S
H666 C654 0.960 . S
H667 C654 0.962 . S
H668 C654 0.960 . S
H669 C655 0.961 . S
H670 C655 0.961 . S
H671 C655 0.961 . S
H672 C656 0.931 . S
H673 C661 0.930 . S
H674 C662 0.956 . S
H675 C662 0.961 . S
H676 C662 0.961 . S
H677 C663 0.958 . S
H678 C663 0.961 . S
H679 C663 0.960 . S
C680 C681 1.391 . S
C680 C682 1.394 . S
C680 H696 0.931 . S
C681 C680 1.391 . S
C681 C685 1.356 1_565 S
C682 C680 1.394 . S
C682 C683 1.369 . S
C682 C686 1.531 . S
C683 C682 1.369 . S
C683 C684 1.410 1_565 S
C683 C691 1.503 1_565 S
C684 C683 1.410 1_545 S
C684 C685 1.402 . S
C684 C687 1.511 . S
C685 C681 1.356 1_545 S
C685 C684 1.402 . S
C685 H697 0.940 . S
C686 C682 1.531 . S
C686 H698 0.960 . S
C686 H699 0.962 . S
C686 H700 0.960 . S
C687 C684 1.511 . S
C687 H701 0.961 . S
C687 H702 0.961 . S
C687 H703 0.961 . S
C688 C689 1.370 1_556 S
C688 C690 1.354 1_546 S
C688 H704 0.931 . S
C689 C688 1.370 1_554 S
C689 C693 1.408 . S
C690 C688 1.354 1_564 S
C690 C691 1.361 1_565 S
C690 C694 1.544 . S
C691 C683 1.503 1_545 S
C691 C690 1.361 1_545 S
C691 C692 1.403 . S
C692 C691 1.403 . S
C692 C693 1.404 . S
C692 C695 1.539 . S
C693 C689 1.408 . S
C693 C692 1.404 . S
C693 H705 0.930 . S
C694 C690 1.544 . S
C694 H706 0.956 . S
C694 H707 0.961 . S
C694 H708 0.961 1_554 S
C695 C692 1.539 . S
C695 H709 0.958 . S
C695 H710 0.961 . S
C695 H711 0.960 . S
H696 C680 0.931 . S
H697 C685 0.940 . S
H698 C686 0.960 . S
H699 C686 0.962 . S
H700 C686 0.960 . S
H701 C687 0.961 . S
H702 C687 0.961 . S
H703 C687 0.961 . S
H704 C688 0.931 . S
H705 C693 0.930 . S
H706 C694 0.956 . S
H707 C694 0.961 . S
H708 C694 0.961 1_556 S
H709 C695 0.958 . S
H710 C695 0.961 . S
H711 C695 0.960 . S
C712 C713 1.391 . S
C712 C714 1.394 . S
C712 H728 0.931 . S
C713 C712 1.391 . S
C713 C717 1.376 . S
C714 C712 1.394 . S
C714 C715 1.369 . S
C714 C718 1.531 . S
C715 C714 1.369 . S
C715 C716 1.410 . S
C715 C723 1.503 . S
C716 C715 1.410 . S
C716 C717 1.392 . S
C716 C719 1.511 . S
C717 C713 1.376 . S
C717 C716 1.392 . S
C717 H729 0.929 . S
C718 C714 1.531 . S
C718 H730 0.960 . S
C718 H731 0.962 . S
C718 H732 0.960 . S
C719 C716 1.511 . S
C719 H733 0.961 . S
C719 H734 0.961 . S
C719 H735 0.961 . S
C720 C721 1.370 . S
C720 C722 1.363 1_556 S
C720 H736 0.931 . S
C721 C720 1.370 . S
C721 C725 1.408 1_556 S
C722 C720 1.363 1_554 S
C722 C723 1.370 . S
C722 C726 1.524 1_554 S
C723 C715 1.503 . S
C723 C722 1.370 . S
C723 C724 1.403 . S
C724 C723 1.403 . S
C724 C725 1.404 . S
C724 C727 1.539 . S
C725 C721 1.408 1_554 S
C725 C724 1.404 . S
C725 H737 0.930 . S
C726 C722 1.524 1_556 S
C726 H738 0.956 1_556 S
C726 H739 0.960 . S
C726 H740 0.961 . S
C727 C724 1.539 . S
C727 H741 0.958 . S
C727 H742 0.961 . S
C727 H743 0.960 . S
H728 C712 0.931 . S
H729 C717 0.929 . S
H730 C718 0.960 . S
H731 C718 0.962 . S
H732 C718 0.960 . S
H733 C719 0.961 . S
H734 C719 0.961 . S
H735 C719 0.961 . S
H736 C720 0.931 . S
H737 C725 0.930 . S
H738 C726 0.956 1_554 S
H739 C726 0.960 . S
H740 C726 0.961 . S
H741 C727 0.958 . S
H742 C727 0.961 . S
H743 C727 0.960 . S
C744 C745 1.391 . S
C744 C746 1.394 . S
C744 H760 0.931 . S
C745 C744 1.391 . S
C745 C749 1.376 . S
C746 C744 1.394 . S
C746 C747 1.369 . S
C746 C750 1.531 . S
C747 C746 1.369 . S
C747 C748 1.410 . S
C747 C755 1.503 . S
C748 C747 1.410 . S
C748 C749 1.392 . S
C748 C751 1.511 . S
C749 C745 1.376 . S
C749 C748 1.392 . S
C749 H761 0.929 . S
C750 C746 1.531 . S
C750 H762 0.960 . S
C750 H763 0.962 . S
C750 H764 0.960 . S
C751 C748 1.511 . S
C751 H765 0.961 . S
C751 H766 0.961 . S
C751 H767 0.961 . S
C752 C753 1.370 . S
C752 C754 1.363 . S
C752 H768 0.931 1_554 S
C753 C752 1.370 . S
C753 C757 1.408 . S
C754 C752 1.363 . S
C754 C755 1.370 . S
C754 C758 1.524 . S
C755 C747 1.503 . S
C755 C754 1.370 . S
C755 C756 1.403 . S
C756 C755 1.403 . S
C756 C757 1.404 . S
C756 C759 1.539 . S
C757 C753 1.408 . S
C757 C756 1.404 . S
C757 H769 0.930 . S
C758 C754 1.524 . S
C758 H770 0.956 . S
C758 H771 0.961 . S
C758 H772 0.961 1_554 S
C759 C756 1.539 . S
C759 H773 0.958 . S
C759 H774 0.961 . S
C759 H775 0.960 . S
H760 C744 0.931 . S
H761 C749 0.929 . S
H762 C750 0.960 . S
H763 C750 0.962 . S
H764 C750 0.960 . S
H765 C751 0.961 . S
H766 C751 0.961 . S
H767 C751 0.961 . S
H768 C752 0.931 1_556 S
H769 C757 0.930 . S
H770 C758 0.956 . S
H771 C758 0.961 . S
H772 C758 0.961 1_556 S
H773 C759 0.958 . S
H774 C759 0.961 . S
H775 C759 0.960 . S
C776 C777 1.391 . S
C776 C778 1.394 . S
C776 H792 0.931 . S
C777 C776 1.391 . S
C777 C781 1.376 . S
C778 C776 1.394 . S
C778 C779 1.369 . S
C778 C782 1.531 1_455 S
C779 C778 1.369 . S
C779 C780 1.410 . S
C779 C787 1.503 . S
C780 C779 1.410 . S
C780 C781 1.392 . S
C780 C783 1.511 . S
C781 C777 1.376 . S
C781 C780 1.392 . S
C781 H793 0.929 . S
C782 C778 1.531 1_655 S
C782 H794 0.960 . S
C782 H795 0.962 . S
C782 H796 0.960 . S
C783 C780 1.511 . S
C783 H797 0.961 . S
C783 H798 0.961 . S
C783 H799 0.961 . S
C784 C785 1.370 . S
C784 C786 1.363 . S
C784 H800 0.931 . S
C785 C784 1.370 . S
C785 C789 1.408 . S
C786 C784 1.363 . S
C786 C787 1.370 . S
C786 C790 1.524 . S
C787 C779 1.503 . S
C787 C786 1.370 . S
C787 C788 1.403 . S
C788 C787 1.403 . S
C788 C789 1.404 . S
C788 C791 1.539 . S
C789 C785 1.408 . S
C789 C788 1.404 . S
C789 H801 0.930 . S
C790 C786 1.524 . S
C790 H802 0.956 . S
C790 H803 0.961 . S
C790 H804 0.961 1_556 S
C791 C788 1.539 . S
C791 H805 0.958 . S
C791 H806 0.961 . S
C791 H807 0.960 . S
H792 C776 0.931 . S
H793 C781 0.929 . S
H794 C782 0.960 . S
H795 C782 0.962 . S
H796 C782 0.960 . S
H797 C783 0.961 . S
H798 C783 0.961 . S
H799 C783 0.961 . S
H800 C784 0.931 . S
H801 C789 0.930 . S
H802 C790 0.956 . S
H803 C790 0.961 . S
H804 C790 0.961 1_554 S
H805 C791 0.958 . S
H806 C791 0.961 . S
H807 C791 0.960 . S
C808 C809 1.391 . S
C808 C810 1.394 . S
C808 H824 0.931 . S
C809 C808 1.391 . S
C809 C813 1.376 . S
C810 C808 1.394 . S
C810 C811 1.369 . S
C810 C814 1.531 . S
C811 C810 1.369 . S
C811 C812 1.410 . S
C811 C819 1.503 . S
C812 C811 1.410 . S
C812 C813 1.392 . S
C812 C815 1.511 1_545 S
C813 C809 1.376 . S
C813 C812 1.392 . S
C813 H825 0.929 . S
C814 C810 1.531 . S
C814 H826 0.960 . S
C814 H827 0.962 . S
C814 H828 0.960 . S
C815 C812 1.511 1_565 S
C815 H829 0.961 . S
C815 H830 0.961 . S
C815 H831 0.961 . S
C816 C817 1.370 . S
C816 C818 1.363 . S
C816 H832 0.931 . S
C817 C816 1.370 . S
C817 C821 1.408 . S
C818 C816 1.363 . S
C818 C819 1.370 . S
C818 C822 1.524 . S
C819 C811 1.503 . S
C819 C818 1.370 . S
C819 C820 1.403 . S
C820 C819 1.403 . S
C820 C821 1.404 . S
C820 C823 1.539 . S
C821 C817 1.408 . S
C821 C820 1.404 . S
C821 H833 0.930 . S
C822 C818 1.524 . S
C822 H834 0.956 . S
C822 H835 0.961 . S
C822 H836 0.961 . S
C823 C820 1.539 . S
C823 H837 0.958 . S
C823 H838 0.961 . S
C823 H839 0.960 . S
H824 C808 0.931 . S
H825 C813 0.929 . S
H826 C814 0.960 . S
H827 C814 0.962 . S
H828 C814 0.960 . S
H829 C815 0.961 . S
H830 C815 0.961 . S
H831 C815 0.961 . S
H832 C816 0.931 . S
H833 C821 0.930 . S
H834 C822 0.956 . S
H835 C822 0.961 . S
H836 C822 0.961 . S
H837 C823 0.958 . S
H838 C823 0.961 . S
H839 C823 0.960 . S
C840 C841 1.391 . S
C840 C842 1.394 . S
C840 H856 0.931 . S
C841 C840 1.391 . S
C841 C845 1.376 . S
C842 C840 1.394 . S
C842 C843 1.369 . S
C842 C846 1.531 . S
C843 C842 1.369 . S
C843 C844 1.410 . S
C843 C851 1.503 . S
C844 C843 1.410 . S
C844 C845 1.392 . S
C844 C847 1.511 . S
C845 C841 1.376 . S
C845 C844 1.392 . S
C845 H857 0.934 . S
C846 C842 1.531 . S
C846 H858 0.960 . S
C846 H859 0.962 . S
C846 H860 0.960 . S
C847 C844 1.511 . S
C847 H861 0.961 1_556 S
C847 H862 0.961 . S
C847 H863 0.961 . S
C848 C849 1.370 . S
C848 C850 1.363 . S
C848 H864 0.931 . S
C849 C848 1.370 . S
C849 C853 1.408 . S
C850 C848 1.363 . S
C850 C851 1.370 . S
C850 C854 1.524 . S
C851 C843 1.503 . S
C851 C850 1.370 . S
C851 C852 1.403 . S
C852 C851 1.403 . S
C852 C853 1.404 . S
C852 C855 1.539 . S
C853 C849 1.408 . S
C853 C852 1.404 . S
C853 H865 0.930 . S
C854 C850 1.524 . S
C854 H866 0.956 . S
C854 H867 0.961 . S
C854 H868 0.961 . S
C855 C852 1.539 . S
C855 H869 0.958 . S
C855 H870 0.961 . S
C855 H871 0.960 . S
H856 C840 0.931 . S
H857 C845 0.934 . S
H858 C846 0.960 . S
H859 C846 0.962 . S
H860 C846 0.960 . S
H861 C847 0.961 1_554 S
H862 C847 0.961 . S
H863 C847 0.961 . S
H864 C848 0.931 . S
H865 C853 0.930 . S
H866 C854 0.956 . S
H867 C854 0.961 . S
H868 C854 0.961 . S
H869 C855 0.958 . S
H870 C855 0.961 . S
H871 C855 0.960 . S
C872 C873 1.391 . S
C872 C874 1.394 . S
C872 H888 0.931 . S
C873 C872 1.391 . S
C873 C877 1.376 . S
C874 C872 1.394 . S
C874 C875 1.369 . S
C874 C878 1.531 . S
C875 C874 1.369 . S
C875 C876 1.410 . S
C875 C883 1.503 . S
C876 C875 1.410 . S
C876 C877 1.392 . S
C876 C879 1.511 1_556 S
C877 C873 1.376 . S
C877 C876 1.392 . S
C877 H889 0.929 1_556 S
C878 C874 1.531 . S
C878 H890 0.960 . S
C878 H891 0.962 . S
C878 H892 0.960 . S
C879 C876 1.511 1_554 S
C879 H893 0.961 . S
C879 H894 0.961 . S
C879 H895 0.961 . S
C880 C881 1.370 . S
C880 C882 1.363 . S
C880 H896 0.931 . S
C881 C880 1.370 . S
C881 C885 1.408 . S
C882 C880 1.363 . S
C882 C883 1.370 . S
C882 C886 1.524 . S
C883 C875 1.503 . S
C883 C882 1.370 . S
C883 C884 1.403 . S
C884 C883 1.403 . S
C884 C885 1.404 . S
C884 C887 1.539 . S
C885 C881 1.408 . S
C885 C884 1.404 . S
C885 H897 0.930 . S
C886 C882 1.524 . S
C886 H898 0.956 . S
C886 H899 0.961 . S
C886 H900 0.961 . S
C887 C884 1.539 . S
C887 H901 0.958 . S
C887 H902 0.961 . S
C887 H903 0.960 . S
H888 C872 0.931 . S
H889 C877 0.929 1_554 S
H890 C878 0.960 . S
H891 C878 0.962 . S
H892 C878 0.960 . S
H893 C879 0.961 . S
H894 C879 0.961 . S
H895 C879 0.961 . S
H896 C880 0.931 . S
H897 C885 0.930 . S
H898 C886 0.956 . S
H899 C886 0.961 . S
H900 C886 0.961 . S
H901 C887 0.958 . S
H902 C887 0.961 . S
H903 C887 0.960 . S
C904 C905 1.391 . S
C904 C906 1.394 . S
C904 H920 0.931 1_655 S
C905 C904 1.391 . S
C905 C909 1.376 . S
C906 C904 1.394 . S
C906 C907 1.369 . S
C906 C910 1.531 1_655 S
C907 C906 1.369 . S
C907 C908 1.410 . S
C907 C915 1.503 . S
C908 C907 1.410 . S
C908 C909 1.392 . S
C908 C911 1.511 . S
C909 C905 1.376 . S
C909 C908 1.392 . S
C909 H921 0.929 . S
C910 C906 1.531 1_455 S
C910 H922 0.960 . S
C910 H923 0.962 . S
C910 H924 0.960 . S
C911 C908 1.511 . S
C911 H925 0.961 . S
C911 H926 0.961 . S
C911 H927 0.961 . S
C912 C913 1.370 . S
C912 C914 1.363 . S
C912 H928 0.931 . S
C913 C912 1.370 . S
C913 C917 1.408 . S
C914 C912 1.363 . S
C914 C915 1.370 . S
C914 C918 1.524 . S
C915 C907 1.503 . S
C915 C914 1.370 . S
C915 C916 1.403 . S
C916 C915 1.403 . S
C916 C917 1.404 . S
C916 C919 1.539 . S
C917 C913 1.408 . S
C917 C916 1.404 . S
C917 H929 0.930 . S
C918 C914 1.524 . S
C918 H930 0.956 1_655 S
C918 H931 0.961 . S
C918 H932 0.961 . S
C919 C916 1.539 . S
C919 H933 0.958 . S
C919 H934 0.961 . S
C919 H935 0.960 . S
H920 C904 0.931 1_455 S
H921 C909 0.929 . S
H922 C910 0.960 . S
H923 C910 0.962 . S
H924 C910 0.960 . S
H925 C911 0.961 . S
H926 C911 0.961 . S
H927 C911 0.961 . S
H928 C912 0.931 . S
H929 C917 0.930 . S
H930 C918 0.956 1_455 S
H931 C918 0.961 . S
H932 C918 0.961 . S
H933 C919 0.958 . S
H934 C919 0.961 . S
H935 C919 0.960 . S
C936 C937 1.391 . S
C936 C938 1.394 . S
C936 H952 0.931 . S
C937 C936 1.391 . S
C937 C941 1.376 1_565 S
C938 C936 1.394 . S
C938 C939 1.369 . S
C938 C942 1.531 . S
C939 C938 1.369 . S
C939 C940 1.410 1_565 S
C939 C947 1.503 . S
C940 C939 1.410 1_545 S
C940 C941 1.392 . S
C940 C943 1.511 . S
C941 C937 1.376 1_545 S
C941 C940 1.392 . S
C941 H953 0.929 . S
C942 C938 1.531 . S
C942 H954 0.960 . S
C942 H955 0.962 . S
C942 H956 0.960 . S
C943 C940 1.511 . S
C943 H957 0.961 . S
C943 H958 0.961 . S
C943 H959 0.961 . S
C944 C945 1.370 . S
C944 C946 1.363 . S
C944 H960 0.931 . S
C945 C944 1.370 . S
C945 C949 1.408 . S
C946 C944 1.363 . S
C946 C947 1.370 . S
C946 C950 1.524 . S
C947 C939 1.503 . S
C947 C946 1.370 . S
C947 C948 1.403 . S
C948 C947 1.403 . S
C948 C949 1.404 . S
C948 C951 1.539 . S
C949 C945 1.408 . S
C949 C948 1.404 . S
C949 H961 0.930 . S
C950 C946 1.524 . S
C950 H962 0.956 . S
C950 H963 0.961 . S
C950 H964 0.961 . S
C951 C948 1.539 . S
C951 H965 0.958 . S
C951 H966 0.961 1_565 S
C951 H967 0.960 1_565 S
H952 C936 0.931 . S
H953 C941 0.929 . S
H954 C942 0.960 . S
H955 C942 0.962 . S
H956 C942 0.960 . S
H957 C943 0.961 . S
H958 C943 0.961 . S
H959 C943 0.961 . S
H960 C944 0.931 . S
H961 C949 0.930 . S
H962 C950 0.956 . S
H963 C950 0.961 . S
H964 C950 0.961 . S
H965 C951 0.958 . S
H966 C951 0.961 1_545 S
H967 C951 0.960 1_545 S
C968 C969 1.391 . S
C968 C970 1.394 . S
C968 H984 0.931 . S
C969 C968 1.391 . S
C969 C973 1.376 . S
C970 C968 1.394 . S
C970 C971 1.369 . S
C970 C974 1.531 . S
C971 C970 1.369 . S
C971 C972 1.410 . S
C971 C979 1.503 . S
C972 C971 1.410 . S
C972 C973 1.392 . S
C972 C975 1.511 . S
C973 C969 1.376 . S
C973 C972 1.392 . S
C973 H985 0.929 . S
C974 C970 1.531 . S
C974 H986 0.960 . S
C974 H987 0.962 . S
C974 H988 0.960 . S
C975 C972 1.511 . S
C975 H989 0.961 . S
C975 H990 0.961 . S
C975 H991 0.961 . S
C976 C977 1.370 . S
C976 C978 1.363 . S
C976 H992 0.931 . S
C977 C976 1.370 . S
C977 C981 1.408 . S
C978 C976 1.363 . S
C978 C979 1.370 . S
C978 C982 1.524 . S
C979 C971 1.503 . S
C979 C978 1.370 . S
C979 C980 1.403 . S
C980 C979 1.403 . S
C980 C981 1.404 . S
C980 C983 1.539 . S
C981 C977 1.408 . S
C981 C980 1.404 . S
C981 H993 0.930 . S
C982 C978 1.524 . S
C982 H994 0.956 . S
C982 H995 0.961 . S
C982 H996 0.961 . S
C983 C980 1.539 . S
C983 H997 0.958 . S
C983 H998 0.961 . S
C983 H999 0.960 . S
H984 C968 0.931 . S
H985 C973 0.929 . S
H986 C974 0.960 . S
H987 C974 0.962 . S
H988 C974 0.960 . S
H989 C975 0.961 . S
H990 C975 0.961 . S
H991 C975 0.961 . S
H992 C976 0.931 . S
H993 C981 0.930 . S
H994 C982 0.956 . S
H995 C982 0.961 . S
H996 C982 0.961 . S
H997 C983 0.958 . S
H998 C983 0.961 . S
H999 C983 0.960 . S
C1000 C1001 1.391 . S
C1000 C1002 1.394 . S
C1000 H1016 0.931 . S
C1001 C1000 1.391 . S
C1001 C1005 1.376 . S
C1002 C1000 1.394 . S
C1002 C1003 1.369 . S
C1002 C1006 1.531 . S
C1003 C1002 1.369 . S
C1003 C1004 1.410 . S
C1003 C1011 1.503 . S
C1004 C1003 1.410 . S
C1004 C1005 1.392 . S
C1004 C1007 1.511 . S
C1005 C1001 1.376 . S
C1005 C1004 1.392 . S
C1005 H1017 0.929 . S
C1006 C1002 1.531 . S
C1006 H1018 0.960 . S
C1006 H1019 0.962 . S
C1006 H1020 0.960 . S
C1007 C1004 1.511 . S
C1007 H1021 0.961 . S
C1007 H1022 0.961 . S
C1007 H1023 0.961 . S
C1008 C1009 1.370 . S
C1008 C1010 1.363 . S
C1008 H1024 0.931 . S
C1009 C1008 1.370 . S
C1009 C1013 1.408 . S
C1010 C1008 1.363 . S
C1010 C1011 1.370 . S
C1010 C1014 1.524 . S
C1011 C1003 1.503 . S
C1011 C1010 1.370 . S
C1011 C1012 1.403 . S
C1012 C1011 1.403 . S
C1012 C1013 1.404 . S
C1012 C1015 1.539 . S
C1013 C1009 1.408 . S
C1013 C1012 1.404 . S
C1013 H1025 0.930 . S
C1014 C1010 1.524 . S
C1014 H1026 0.956 . S
C1014 H1027 0.961 . S
C1014 H1028 0.961 . S
C1015 C1012 1.539 . S
C1015 H1029 0.958 . S
C1015 H1030 0.961 . S
C1015 H1031 0.960 . S
H1016 C1000 0.931 . S
H1017 C1005 0.929 . S
H1018 C1006 0.960 . S
H1019 C1006 0.962 . S
H1020 C1006 0.960 . S
H1021 C1007 0.961 . S
H1022 C1007 0.961 . S
H1023 C1007 0.961 . S
H1024 C1008 0.931 . S
H1025 C1013 0.930 . S
H1026 C1014 0.956 . S
H1027 C1014 0.961 . S
H1028 C1014 0.961 . S
H1029 C1015 0.958 . S
H1030 C1015 0.961 . S
H1031 C1015 0.960 . S
C265 C82 1.998 . S
C273 C135 2.318 . S
C305 C161 1.868 . S
C297 C95 1.599 . S
C337 C201 1.939 . S
C329 C56 1.684 . S
C369 C255 2.360 . S
C361 C69 2.113 . S
C401 C116 2.322 1_565 S
C393 C30 1.961 . S
C425 C43 1.611 . S
C433 C146 1.876 . S
C457 C4 1.627 . S
C465 C186 1.942 . S
C489 C17 1.986 . S
C497 C236 2.362 1_655 S
C529 C112 0.521 . S
C521 C74 0.533 . S
C561 C173 0.659 . S
C553 C87 0.715 . S
C593 C213 0.581 . S
C585 C100 0.576 . S
C617 C61 0.369 . S
C625 C232 0.459 . S
C649 C22 0.462 . S
C657 C133 0.538 . S
C689 C152 0.674 1_554 S
C681 C35 0.629 . S
C721 C192 0.554 . S
C713 C48 0.512 . S
C745 C9 0.377 . S
C753 C253 0.459 . S
C777 C73 1.925 . S
C785 C106 2.107 . S
C809 C86 2.347 . S
C817 C156 2.592 . S
C849 C196 2.379 . S
C841 C99 2.194 . S
C881 C226 1.870 . S
C873 C60 1.677 . S
C905 C21 1.845 . S
C913 C121 2.107 . S
C945 C175 2.589 . S
C937 C34 2.401 . S
C977 C215 2.378 . S
C969 C47 2.154 . S
C1001 C8 1.650 . S
C1009 C241 1.874 . S
