# Generated by pormake.
# Topology eea, (3,6)-cn, num edge types: 1
# Building blocks:
#     Node 0, Type 0, BuildingBlock: PAMTOO_clean_linker_0, # of connection points: 3
#     Node 1, Type 0, BuildingBlock: PAMTOO_clean_linker_0, # of connection points: 3
#     Node 2, Type 0, BuildingBlock: PAMTOO_clean_linker_0, # of connection points: 3
#     Node 3, Type 0, BuildingBlock: PAMTOO_clean_linker_0, # of connection points: 3
#     Node 4, Type 0, BuildingBlock: PAMTOO_clean_linker_0, # of connection points: 3
#     Node 5, Type 0, BuildingBlock: PAMTOO_clean_linker_0, # of connection points: 3
#     Node 6, Type 0, BuildingBlock: PAMTOO_clean_linker_0, # of connection points: 3
#     Node 7, Type 0, BuildingBlock: PAMTOO_clean_linker_0, # of connection points: 3
#     Node 8, Type 0, BuildingBlock: PAMTOO_clean_linker_0, # of connection points: 3
#     Node 9, Type 0, BuildingBlock: PAMTOO_clean_linker_0, # of connection points: 3
#     Node 10, Type 0, BuildingBlock: PAMTOO_clean_linker_0, # of connection points: 3
#     Node 11, Type 0, BuildingBlock: PAMTOO_clean_linker_0, # of connection points: 3
#     Node 12, Type 0, BuildingBlock: PAMTOO_clean_linker_0, # of connection points: 3
#     Node 13, Type 0, BuildingBlock: PAMTOO_clean_linker_0, # of connection points: 3
#     Node 14, Type 0, BuildingBlock: PAMTOO_clean_linker_0, # of connection points: 3
#     Node 15, Type 0, BuildingBlock: PAMTOO_clean_linker_0, # of connection points: 3
#     Node 16, Type 0, BuildingBlock: PAMTOO_clean_linker_0, # of connection points: 3
#     Node 17, Type 0, BuildingBlock: PAMTOO_clean_linker_0, # of connection points: 3
#     Node 18, Type 1, BuildingBlock: KUMBUR_clean_sbu_0, # of connection points: 6
#     Node 19, Type 1, BuildingBlock: KUMBUR_clean_sbu_0, # of connection points: 6
#     Node 20, Type 1, BuildingBlock: KUMBUR_clean_sbu_0, # of connection points: 6
#     Node 21, Type 1, BuildingBlock: KUMBUR_clean_sbu_0, # of connection points: 6
#     Node 22, Type 1, BuildingBlock: KUMBUR_clean_sbu_0, # of connection points: 6
#     Node 23, Type 1, BuildingBlock: KUMBUR_clean_sbu_0, # of connection points: 6
#     Node 24, Type 1, BuildingBlock: KUMBUR_clean_sbu_0, # of connection points: 6
#     Node 25, Type 1, BuildingBlock: KUMBUR_clean_sbu_0, # of connection points: 6
#     Node 26, Type 1, BuildingBlock: KUMBUR_clean_sbu_0, # of connection points: 6
#     Edge 27, Type (0, 1), BuildingBlock: EZIPEK_clean_linker_0, # of connection points: 2
#     Edge 28, Type (0, 1), BuildingBlock: EZIPEK_clean_linker_0, # of connection points: 2
#     Edge 29, Type (0, 1), BuildingBlock: EZIPEK_clean_linker_0, # of connection points: 2
#     Edge 30, Type (0, 1), BuildingBlock: EZIPEK_clean_linker_0, # of connection points: 2
#     Edge 31, Type (0, 1), BuildingBlock: EZIPEK_clean_linker_0, # of connection points: 2
#     Edge 32, Type (0, 1), BuildingBlock: EZIPEK_clean_linker_0, # of connection points: 2
#     Edge 33, Type (0, 1), BuildingBlock: EZIPEK_clean_linker_0, # of connection points: 2
#     Edge 34, Type (0, 1), BuildingBlock: EZIPEK_clean_linker_0, # of connection points: 2
#     Edge 35, Type (0, 1), BuildingBlock: EZIPEK_clean_linker_0, # of connection points: 2
#     Edge 36, Type (0, 1), BuildingBlock: EZIPEK_clean_linker_0, # of connection points: 2
#     Edge 37, Type (0, 1), BuildingBlock: EZIPEK_clean_linker_0, # of connection points: 2
#     Edge 38, Type (0, 1), BuildingBlock: EZIPEK_clean_linker_0, # of connection points: 2
#     Edge 39, Type (0, 1), BuildingBlock: EZIPEK_clean_linker_0, # of connection points: 2
#     Edge 40, Type (0, 1), BuildingBlock: EZIPEK_clean_linker_0, # of connection points: 2
#     Edge 41, Type (0, 1), BuildingBlock: EZIPEK_clean_linker_0, # of connection points: 2
#     Edge 42, Type (0, 1), BuildingBlock: EZIPEK_clean_linker_0, # of connection points: 2
#     Edge 43, Type (0, 1), BuildingBlock: EZIPEK_clean_linker_0, # of connection points: 2
#     Edge 44, Type (0, 1), BuildingBlock: EZIPEK_clean_linker_0, # of connection points: 2
#     Edge 45, Type (0, 1), BuildingBlock: EZIPEK_clean_linker_0, # of connection points: 2
#     Edge 46, Type (0, 1), BuildingBlock: EZIPEK_clean_linker_0, # of connection points: 2
#     Edge 47, Type (0, 1), BuildingBlock: EZIPEK_clean_linker_0, # of connection points: 2
#     Edge 48, Type (0, 1), BuildingBlock: EZIPEK_clean_linker_0, # of connection points: 2
#     Edge 49, Type (0, 1), BuildingBlock: EZIPEK_clean_linker_0, # of connection points: 2
#     Edge 50, Type (0, 1), BuildingBlock: EZIPEK_clean_linker_0, # of connection points: 2
#     Edge 51, Type (0, 1), BuildingBlock: EZIPEK_clean_linker_0, # of connection points: 2
#     Edge 52, Type (0, 1), BuildingBlock: EZIPEK_clean_linker_0, # of connection points: 2
#     Edge 53, Type (0, 1), BuildingBlock: EZIPEK_clean_linker_0, # of connection points: 2
#     Edge 54, Type (0, 1), BuildingBlock: EZIPEK_clean_linker_0, # of connection points: 2
#     Edge 55, Type (0, 1), BuildingBlock: EZIPEK_clean_linker_0, # of connection points: 2
#     Edge 56, Type (0, 1), BuildingBlock: EZIPEK_clean_linker_0, # of connection points: 2
#     Edge 57, Type (0, 1), BuildingBlock: EZIPEK_clean_linker_0, # of connection points: 2
#     Edge 58, Type (0, 1), BuildingBlock: EZIPEK_clean_linker_0, # of connection points: 2
#     Edge 59, Type (0, 1), BuildingBlock: EZIPEK_clean_linker_0, # of connection points: 2
#     Edge 60, Type (0, 1), BuildingBlock: EZIPEK_clean_linker_0, # of connection points: 2
#     Edge 61, Type (0, 1), BuildingBlock: EZIPEK_clean_linker_0, # of connection points: 2
#     Edge 62, Type (0, 1), BuildingBlock: EZIPEK_clean_linker_0, # of connection points: 2
#     Edge 63, Type (0, 1), BuildingBlock: EZIPEK_clean_linker_0, # of connection points: 2
#     Edge 64, Type (0, 1), BuildingBlock: EZIPEK_clean_linker_0, # of connection points: 2
#     Edge 65, Type (0, 1), BuildingBlock: EZIPEK_clean_linker_0, # of connection points: 2
#     Edge 66, Type (0, 1), BuildingBlock: EZIPEK_clean_linker_0, # of connection points: 2
#     Edge 67, Type (0, 1), BuildingBlock: EZIPEK_clean_linker_0, # of connection points: 2
#     Edge 68, Type (0, 1), BuildingBlock: EZIPEK_clean_linker_0, # of connection points: 2
#     Edge 69, Type (0, 1), BuildingBlock: EZIPEK_clean_linker_0, # of connection points: 2
#     Edge 70, Type (0, 1), BuildingBlock: EZIPEK_clean_linker_0, # of connection points: 2
#     Edge 71, Type (0, 1), BuildingBlock: EZIPEK_clean_linker_0, # of connection points: 2
#     Edge 72, Type (0, 1), BuildingBlock: EZIPEK_clean_linker_0, # of connection points: 2
#     Edge 73, Type (0, 1), BuildingBlock: EZIPEK_clean_linker_0, # of connection points: 2
#     Edge 74, Type (0, 1), BuildingBlock: EZIPEK_clean_linker_0, # of connection points: 2
#     Edge 75, Type (0, 1), BuildingBlock: EZIPEK_clean_linker_0, # of connection points: 2
#     Edge 76, Type (0, 1), BuildingBlock: EZIPEK_clean_linker_0, # of connection points: 2
#     Edge 77, Type (0, 1), BuildingBlock: EZIPEK_clean_linker_0, # of connection points: 2
#     Edge 78, Type (0, 1), BuildingBlock: EZIPEK_clean_linker_0, # of connection points: 2
#     Edge 79, Type (0, 1), BuildingBlock: EZIPEK_clean_linker_0, # of connection points: 2
#     Edge 80, Type (0, 1), BuildingBlock: EZIPEK_clean_linker_0, # of connection points: 2
# Relax obj value: 0.024
# Max RMSD: 0.186
# Mean RMSD: 0.131
data_MOF--net-eea--node1-KUMBUR_clean_sbu_0--node2-PAMTOO_clean_linker_0--edge1-EZIPEK_clean_linker_0
_symmetry_space_group_name_H-M    P1
_symmetry_Int_Tables_number       1
_symmetry_cell_setting            triclinic
loop_
_symmetry_equiv_pos_as_xyz
'x, y, z'
_cell_length_a     39.16073
_cell_length_b     40.369476
_cell_length_c     52.158056
_cell_angle_alpha  89.936543
_cell_angle_beta   89.997989
_cell_angle_gamma 119.97487
loop_
_atom_site_label
_atom_site_type_symbol
_atom_site_fract_x
_atom_site_fract_y
_atom_site_fract_z
_atom_type_partial_charge
H0 H 0.26806 0.05832 0.42927 0.0
H1 H 0.25945 0.15976 0.43921 0.0
H2 H 0.21289 0.09177 0.37121 0.0
H3 H 0.26158 0.18436 0.36753 0.0
C4 C 0.24641 0.18759 0.38448 0.0
O5 O 0.22242 0.15259 0.39598 0.0
H6 H 0.27113 0.2063 0.39743 0.0
C7 C 0.25901 0.07804 0.4222 0.0
C8 C 0.23925 0.07094 0.39865 0.0
C9 C 0.26682 0.11027 0.43679 0.0
C10 C 0.25425 0.13523 0.42783 0.0
C11 C 0.23552 0.12902 0.404 0.0
C12 C 0.2282 0.09698 0.38936 0.0
H13 H 0.96695 0.21633 0.42997 0.0
H14 H 0.86493 0.10388 0.43362 0.0
H15 H 0.93425 0.14092 0.36469 0.0
H16 H 0.83417 0.08851 0.36419 0.0
C17 C 0.83438 0.07052 0.3802 0.0
O18 O 0.8729 0.08288 0.38764 0.0
H19 H 0.81827 0.07561 0.39587 0.0
C20 C 0.94735 0.18911 0.42098 0.0
C21 C 0.95463 0.18225 0.39565 0.0
C22 C 0.91449 0.16119 0.4346 0.0
C23 C 0.88989 0.12565 0.42306 0.0
C24 C 0.89663 0.11809 0.39792 0.0
C25 C 0.92881 0.14667 0.38409 0.0
H26 H 0.81653 0.77495 0.43136 0.0
H27 H 0.92865 0.78116 0.43735 0.0
H28 H 0.89703 0.81632 0.36733 0.0
H29 H 0.95286 0.76017 0.38953 0.0
C30 C 0.9737 0.7906 0.39416 0.0
O31 O 0.95485 0.81196 0.39137 0.0
H32 H 0.98094 0.79029 0.41471 0.0
C33 C 0.84474 0.78218 0.42292 0.0
C34 C 0.8534 0.79668 0.39778 0.0
C35 C 0.87096 0.77484 0.43682 0.0
C36 C 0.90805 0.78566 0.42618 0.0
C37 C 0.91802 0.80058 0.40108 0.0
C38 C 0.88997 0.80514 0.38668 0.0
H39 H 0.05463 0.24497 0.59799 0.0
H40 H 0.15659 0.23284 0.58911 0.0
H41 H 0.09305 0.20183 0.66074 0.0
H42 H 0.20506 0.25581 0.63568 0.0
C43 C 0.19398 0.22505 0.63181 0.0
O44 O 0.15332 0.20422 0.63546 0.0
H45 H 0.20048 0.22407 0.61118 0.0
C46 C 0.07496 0.23674 0.60585 0.0
C47 C 0.06945 0.22229 0.63096 0.0
C48 C 0.10728 0.24203 0.5911 0.0
C49 C 0.13259 0.22994 0.60098 0.0
C50 C 0.12832 0.21594 0.62623 0.0
C51 C 0.09689 0.2128 0.64136 0.0
H52 H 0.75641 0.80947 0.59547 0.0
H53 H 0.76825 0.92105 0.59365 0.0
H54 H 0.81119 0.88713 0.65783 0.0
H55 H 0.75979 0.93212 0.66362 0.0
C56 C 0.77676 0.95225 0.64795 0.0
O57 O 0.80301 0.94252 0.63745 0.0
H58 H 0.75402 0.9481 0.63352 0.0
C59 C 0.76292 0.8359 0.6046 0.0
C60 C 0.78402 0.84482 0.62784 0.0
C61 C 0.75103 0.86078 0.59384 0.0
C62 C 0.77026 0.89854 0.60348 0.0
C63 C 0.79038 0.90766 0.62689 0.0
C64 C 0.79608 0.88029 0.63953 0.0
H65 H 0.20003 0.95973 0.59385 0.0
H66 H 0.08431 0.86169 0.58583 0.0
H67 H 0.11761 0.92498 0.65661 0.0
H68 H 0.07339 0.82414 0.64621 0.0
C69 C 0.04975 0.8263 0.63604 0.0
O70 O 0.06104 0.86453 0.63278 0.0
H71 H 0.04802 0.81322 0.61699 0.0
C72 C 0.17108 0.94059 0.60176 0.0
C73 C 0.16165 0.94706 0.62649 0.0
C74 C 0.14364 0.90941 0.58726 0.0
C75 C 0.1058 0.88539 0.59723 0.0
C76 C 0.09665 0.89 0.62258 0.0
C77 C 0.12476 0.92088 0.63723 0.0
H78 H 0.94901 0.40025 0.75736 0.0
H79 H 0.93111 0.4962 0.76687 0.0
H80 H 0.88708 0.42597 0.69951 0.0
H81 H 0.94153 0.52482 0.6996 0.0
C82 C 0.92231 0.52513 0.71509 0.0
O83 O 0.89601 0.48812 0.72279 0.0
H84 H 0.9431 0.54099 0.73096 0.0
C85 C 0.93778 0.4182 0.75018 0.0
C86 C 0.91658 0.40872 0.72711 0.0
C87 C 0.94333 0.44986 0.76451 0.0
C88 C 0.92738 0.47203 0.75567 0.0
C89 C 0.90864 0.46457 0.73176 0.0
C90 C 0.90302 0.43271 0.71748 0.0
H91 H 0.63105 0.54077 0.76352 0.0
H92 H 0.53778 0.42431 0.77131 0.0
H93 H 0.60477 0.46125 0.70139 0.0
H94 H 0.50724 0.41326 0.70132 0.0
C95 C 0.50581 0.39406 0.71703 0.0
O96 O 0.54355 0.40389 0.72475 0.0
H97 H 0.49016 0.39975 0.73272 0.0
C98 C 0.614 0.51213 0.75575 0.0
C99 C 0.62305 0.50401 0.73129 0.0
C100 C 0.58301 0.48355 0.7702 0.0
C101 C 0.56162 0.44645 0.7602 0.0
C102 C 0.56817 0.43866 0.73509 0.0
C103 C 0.59913 0.46742 0.72064 0.0
H104 H 0.47983 0.09565 0.76108 0.0
H105 H 0.58234 0.08279 0.75826 0.0
H106 H 0.5579 0.13793 0.69598 0.0
H107 H 0.6479 0.14018 0.74559 0.0
C108 C 0.64629 0.14685 0.72507 0.0
O109 O 0.60988 0.1202 0.71508 0.0
H110 H 0.64876 0.17545 0.72546 0.0
C111 C 0.5064 0.10037 0.75137 0.0
C112 C 0.51506 0.11707 0.72686 0.0
C113 C 0.53013 0.08749 0.76284 0.0
C114 C 0.56404 0.093 0.7498 0.0
C115 C 0.57541 0.11296 0.72637 0.0
C116 C 0.55041 0.1244 0.71466 0.0
H117 H 0.73201 0.58562 0.93174 0.0
H118 H 0.82758 0.56178 0.92898 0.0
H119 H 0.7509 0.52734 0.99469 0.0
H120 H 0.83842 0.55497 0.00922 0.0
C121 C 0.84794 0.55398 0.9893 0.0
O122 O 0.81505 0.53061 0.97445 0.0
H123 H 0.86107 0.58317 0.98114 0.0
C124 C 0.74858 0.57361 0.94044 0.0
C125 C 0.73684 0.55554 0.9645 0.0
C126 C 0.7812 0.576 0.92736 0.0
C127 C 0.80237 0.56012 0.93878 0.0
C128 C 0.79236 0.54352 0.96328 0.0
C129 C 0.75919 0.54079 0.976 0.0
H130 H 0.42442 0.14247 0.92987 0.0
H131 H 0.45024 0.25833 0.92009 0.0
H132 H 0.47931 0.22407 0.99104 0.0
H133 H 0.42531 0.27733 0.97275 0.0
C134 C 0.45581 0.29814 0.96667 0.0
O135 O 0.47893 0.28102 0.9663 0.0
H136 H 0.4526 0.30611 0.94678 0.0
C137 C 0.43631 0.1712 0.93735 0.0
C138 C 0.4542 0.18037 0.96164 0.0
C139 C 0.43372 0.19899 0.92268 0.0
C140 C 0.451 0.23656 0.93183 0.0
C141 C 0.46557 0.24529 0.95693 0.0
C142 C 0.46675 0.217 0.97196 0.0
H143 H 0.8718 0.27027 0.93313 0.0
H144 H 0.75248 0.17732 0.92853 0.0
H145 H 0.78301 0.26586 0.98429 0.0
H146 H 0.71133 0.19436 1.00524 0.0
C147 C 0.71437 0.17731 0.98963 0.0
O148 O 0.72655 0.19935 0.96751 0.0
H149 H 0.73743 0.17139 0.99697 0.0
C150 C 0.84188 0.25592 0.94047 0.0
C151 C 0.83168 0.27258 0.96059 0.0
C152 C 0.81325 0.22281 0.92802 0.0
C153 C 0.77476 0.20306 0.93788 0.0
C154 C 0.76432 0.2178 0.95889 0.0
C155 C 0.79222 0.25335 0.96937 0.0
H156 H 0.59426 0.72297 0.10021 0.0
H157 H 0.5852 0.82469 0.10574 0.0
H158 H 0.54439 0.75507 0.03799 0.0
H159 H 0.59862 0.84788 0.03487 0.0
C160 C 0.58103 0.85217 0.04978 0.0
O161 O 0.55353 0.8174 0.06018 0.0
H162 H 0.60302 0.86981 0.06463 0.0
C163 C 0.58555 0.74235 0.09204 0.0
C164 C 0.56773 0.73467 0.0678 0.0
C165 C 0.59246 0.77505 0.10571 0.0
C166 C 0.58039 0.79961 0.09519 0.0
C167 C 0.56385 0.79289 0.07056 0.0
C168 C 0.55766 0.76049 0.05686 0.0
H169 H 0.28123 0.873 0.09897 0.0
H170 H 0.20028 0.75416 0.10043 0.0
H171 H 0.27899 0.80281 0.03649 0.0
H172 H 0.17995 0.74973 0.02898 0.0
C173 C 0.17784 0.73011 0.04459 0.0
O174 O 0.21532 0.74119 0.05376 0.0
H175 H 0.16014 0.73412 0.05969 0.0
C176 C 0.27281 0.84563 0.09077 0.0
C177 C 0.29212 0.84116 0.06921 0.0
C178 C 0.24107 0.81425 0.10268 0.0
C179 C 0.2248 0.77836 0.09122 0.0
C180 C 0.2367 0.77472 0.06662 0.0
C181 C 0.27015 0.80616 0.05552 0.0
H182 H 0.1499 0.43797 0.09506 0.0
H183 H 0.26786 0.45807 0.10114 0.0
H184 H 0.22678 0.47757 0.02907 0.0
H185 H 0.28332 0.42651 0.04664 0.0
C186 C 0.30457 0.45523 0.05423 0.0
O187 O 0.28789 0.47868 0.05294 0.0
H188 H 0.30837 0.44988 0.07463 0.0
C189 C 0.17823 0.44669 0.08623 0.0
C190 C 0.18493 0.45907 0.0606 0.0
C191 C 0.20768 0.44518 0.10052 0.0
C192 C 0.24488 0.45796 0.08955 0.0
C193 C 0.25187 0.46831 0.0635 0.0
C194 C 0.22151 0.46864 0.04895 0.0
H195 H 0.39007 0.91589 0.25866 0.0
H196 H 0.49069 0.90098 0.2541 0.0
H197 H 0.42144 0.86999 0.32351 0.0
H198 H 0.53691 0.92226 0.29832 0.0
C199 C 0.52439 0.89085 0.29662 0.0
O200 O 0.48377 0.87211 0.30091 0.0
H201 H 0.52975 0.88638 0.27634 0.0
C202 C 0.40924 0.90698 0.26751 0.0
C203 C 0.40129 0.89206 0.29259 0.0
C204 C 0.44229 0.91145 0.25397 0.0
C205 C 0.46613 0.89852 0.26511 0.0
C206 C 0.45973 0.88428 0.29041 0.0
C207 C 0.42721 0.88143 0.3042 0.0
H208 H 0.09174 0.47787 0.26157 0.0
H209 H 0.12117 0.59502 0.25237 0.0
H210 H 0.14875 0.55849 0.3229 0.0
H211 H 0.09448 0.6119 0.30599 0.0
C212 C 0.12479 0.63291 0.29968 0.0
O213 O 0.1482 0.6161 0.299 0.0
H214 H 0.12107 0.64076 0.27986 0.0
C215 C 0.10412 0.50661 0.26912 0.0
C216 C 0.12205 0.51521 0.29341 0.0
C217 C 0.10267 0.53511 0.25449 0.0
C218 C 0.12081 0.57259 0.26399 0.0
C219 C 0.13497 0.5806 0.28922 0.0
C220 C 0.13575 0.55184 0.30394 0.0
H221 H 0.53702 0.62412 0.26527 0.0
H222 H 0.425 0.51983 0.2627 0.0
H223 H 0.45912 0.58968 0.33054 0.0
H224 H 0.41251 0.49605 0.33754 0.0
C225 C 0.39724 0.49045 0.31874 0.0
O226 O 0.40365 0.52531 0.30946 0.0
H227 H 0.41077 0.47879 0.30535 0.0
C228 C 0.50933 0.60407 0.27433 0.0
C229 C 0.501 0.61161 0.29916 0.0
C230 C 0.48234 0.57086 0.26112 0.0
C231 C 0.4462 0.54531 0.27283 0.0
C232 C 0.4381 0.55133 0.2981 0.0
C233 C 0.46557 0.5846 0.31122 0.0
Tb234 Tb 0.48514 0.9875 0.97765 0.0
C235 C 0.55828 0.10879 0.0622 0.0
C236 C 0.62824 0.13231 0.05948 0.0
C237 C 0.60467 0.17452 0.07401 0.0
C238 C 0.58891 0.10298 0.05579 0.0
C239 C 0.56562 0.14437 0.07183 0.0
C240 C 0.63598 0.16848 0.06786 0.0
C241 C 0.49551 0.11678 0.07807 0.0
N242 N 0.5211 0.07897 0.05967 0.0
C243 C 0.48978 0.08201 0.06849 0.0
C244 C 0.53356 0.14827 0.07944 0.0
Tb245 Tb 0.51439 0.02372 0.04216 0.0
N246 N 0.58004 0.06754 0.048 0.0
C247 C 0.60923 0.05839 0.04669 0.0
C248 C 0.65842 0.12385 0.05589 0.0
C249 C 0.64875 0.08641 0.05022 0.0
H250 H 0.46015 0.05804 0.06733 0.0
H251 H 0.67173 0.0791 0.04841 0.0
H252 H 0.66601 0.19154 0.07046 0.0
H253 H 0.47054 0.11926 0.08436 0.0
H254 H 0.60253 0.02961 0.04267 0.0
H255 H 0.32687 0.92465 0.98474 0.0
H256 H 0.68903 0.14551 0.05855 0.0
H257 H 0.53416 0.95719 0.94206 0.0
H258 H 0.39594 0.97704 0.98378 0.0
H259 H 0.52471 0.89574 0.92573 0.0
H260 H 0.61097 0.20223 0.08111 0.0
H261 H 0.31131 0.85814 0.97648 0.0
H262 H 0.33548 0.81338 0.96297 0.0
H263 H 0.53792 0.17514 0.08691 0.0
H264 H 0.39013 0.8053 0.94701 0.0
N265 N 0.41966 0.94085 0.97682 0.0
C266 C 0.38963 0.94831 0.98052 0.0
C267 C 0.34171 0.88112 0.97629 0.0
C268 C 0.37231 0.87412 0.97018 0.0
C269 C 0.35037 0.91859 0.9809 0.0
C270 C 0.41131 0.9051 0.97033 0.0
H271 H 0.46102 0.83618 0.93247 0.0
N272 N 0.4778 0.93217 0.95995 0.0
C273 C 0.50125 0.89652 0.93618 0.0
C274 C 0.44175 0.90047 0.96174 0.0
C275 C 0.50661 0.93125 0.94563 0.0
C276 C 0.46531 0.86296 0.94008 0.0
C277 C 0.4345 0.86487 0.95225 0.0
O278 O 0.51455 0.01275 0.94301 0.0
O279 O 0.5297 0.03096 1.00192 0.0
O280 O 0.50678 0.06663 0.02174 0.0
O281 O 0.46764 0.03097 0.98745 0.0
O282 O 0.54875 0.01389 0.97093 0.0
O283 O 0.45504 0.99954 0.94877 0.0
O284 O 0.48301 0.00433 0.07706 0.0
O285 O 0.46942 0.97835 0.01826 0.0
O286 O 0.50554 0.95078 0.99496 0.0
O287 O 0.53611 0.98426 0.03269 0.0
O288 O 0.45133 0.99977 0.04668 0.0
O289 O 0.53562 1.00143 0.07038 0.0
C290 C 0.5607 0.03659 0.9903 0.0
C291 C 0.47443 0.99525 0.90632 0.0
C292 C 0.48255 1.00358 0.85971 0.0
C293 C 0.48794 0.01933 0.88459 0.0
C294 C 0.46382 0.96361 0.85705 0.0
C295 C 0.45368 0.95551 0.90282 0.0
C296 C 0.4489 0.93983 0.87841 0.0
C297 C 0.48351 0.06223 1.00218 0.0
C298 C 0.48396 0.01157 0.93246 0.0
C299 C 0.39626 0.83309 0.95381 0.0
C300 C 0.36514 0.83771 0.96283 0.0
C301 C 0.43839 0.97341 0.0296 0.0
C302 C 0.52086 0.00811 0.11348 0.0
C303 C 0.49729 0.98544 0.134 0.0
C304 C 0.51057 0.99483 0.15953 0.0
C305 C 0.54722 0.02769 0.16418 0.0
C306 C 0.55706 0.04106 0.11868 0.0
C307 C 0.57004 0.05077 0.14391 0.0
C308 C 0.52639 0.95591 0.01618 0.0
C309 C 0.50822 0.99587 0.08684 0.0
H310 H 0.50296 0.05009 0.88702 0.0
H311 H 0.45978 0.95076 0.83826 0.0
H312 H 0.44134 0.93648 0.91892 0.0
H313 H 0.43352 0.90909 0.87604 0.0
H314 H 0.46917 0.96007 0.13013 0.0
H315 H 0.55813 0.03552 0.1836 0.0
H316 H 0.57558 0.05897 0.10325 0.0
H317 H 0.59812 0.07608 0.14777 0.0
Tb318 Tb 0.03274 0.50061 0.97683 0.0
C319 C 0.90769 0.44696 0.06239 0.0
C320 C 0.88244 0.49067 0.06087 0.0
C321 C 0.84213 0.42714 0.07887 0.0
C322 C 0.91234 0.48189 0.05549 0.0
C323 C 0.87314 0.41965 0.07507 0.0
C324 C 0.84674 0.46261 0.0717 0.0
C325 C 0.9043 0.38166 0.0818 0.0
N326 N 0.93867 0.44121 0.05886 0.0
C327 C 0.9379 0.40959 0.06909 0.0
C328 C 0.87159 0.3865 0.08457 0.0
Tb329 Tb 0.99466 0.49075 0.0415 0.0
N330 N 0.94779 0.50858 0.04599 0.0
C331 C 0.95609 0.54556 0.04304 0.0
C332 C 0.89017 0.52799 0.05662 0.0
C333 C 0.92745 0.55572 0.04818 0.0
H334 H 0.96308 0.40564 0.06736 0.0
H335 H 0.93414 0.58495 0.04552 0.0
H336 H 0.82322 0.46864 0.07565 0.0
H337 H 0.90371 0.35648 0.08951 0.0
H338 H 0.98467 0.56743 0.03646 0.0
H339 H 0.08765 0.40072 0.97689 0.0
H340 H 0.86806 0.53595 0.06058 0.0
H341 H 0.07432 0.58566 0.94604 0.0
H342 H 0.03716 0.41909 0.97921 0.0
H343 H 0.14135 0.6368 0.93502 0.0
H344 H 0.81512 0.40631 0.08822 0.0
H345 H 0.15786 0.45018 0.97321 0.0
H346 H 0.20855 0.51912 0.96719 0.0
H347 H 0.8457 0.36494 0.09455 0.0
H348 H 0.22351 0.58438 0.95665 0.0
N349 N 0.07721 0.47905 0.97552 0.0
C350 C 0.0671 0.4413 0.97648 0.0
C351 C 0.13554 0.45856 0.97358 0.0
C352 C 0.14572 0.49687 0.97117 0.0
C353 C 0.09596 0.43058 0.97546 0.0
C354 C 0.11546 0.50626 0.97165 0.0
H355 H 0.19854 0.6284 0.94401 0.0
N356 N 0.0934 0.54979 0.96352 0.0
C357 C 0.13699 0.61081 0.94405 0.0
C358 C 0.12392 0.54303 0.96583 0.0
C359 C 0.09902 0.58171 0.95037 0.0
C360 C 0.16918 0.60603 0.94925 0.0
C361 C 0.16275 0.57122 0.95925 0.0
O362 O 0.0218 0.51835 0.94118 0.0
O363 O 0.9942 0.50971 1.00272 0.0
O364 O 0.95202 0.43905 0.01981 0.0
O365 O 0.99149 0.43998 0.98635 0.0
O366 O 0.9768 0.4972 0.96591 0.0
O367 O 0.02224 0.46515 0.94527 0.0
O368 O 0.02104 0.48447 0.07508 0.0
O369 O 0.04087 0.49298 0.01704 0.0
O370 O 0.066 0.55791 0.99429 0.0
O371 O 0.03652 0.55195 0.03437 0.0
O372 O 0.02243 0.45566 0.04672 0.0
O373 O 1.00791 0.52969 0.07199 0.0
C374 C 0.96573 0.50269 0.98771 0.0
C375 C 0.03942 0.49476 0.90479 0.0
C376 C 0.03481 0.48919 0.85828 0.0
C377 C 0.01776 0.48836 0.88214 0.0
C378 C 0.07429 0.49796 0.85718 0.0
C379 C 0.0788 0.50332 0.90341 0.0
C380 C 0.09625 0.50537 0.87967 0.0
C381 C 0.95766 0.42283 0.99917 0.0
C382 C 0.01902 0.48851 0.92947 0.0
C383 C 0.19342 0.56287 0.96113 0.0
C384 C 0.18489 0.52569 0.96705 0.0
C385 C 0.04773 0.46904 0.02843 0.0
C386 C 1.00458 0.50384 0.11336 0.0
C387 C 0.03003 0.51159 0.13438 0.0
C388 C 0.01452 0.5008 0.15935 0.0
C389 C 0.97345 0.48141 0.16291 0.0
C390 C 0.96394 0.48688 0.11778 0.0
C391 C 0.94841 0.47504 0.14226 0.0
C392 C 0.06341 0.57212 0.01669 0.0
C393 C 0.02045 0.51234 0.087 0.0
H394 H 0.98713 0.48114 0.88309 0.0
H395 H 0.08789 0.49866 0.83895 0.0
H396 H 0.09577 0.50743 0.92055 0.0
H397 H 0.12658 0.51184 0.87876 0.0
H398 H 0.06164 0.52607 0.13138 0.0
H399 H 0.9609 0.4726 0.1819 0.0
H400 H 0.94416 0.48298 0.10244 0.0
H401 H 0.91689 0.46136 0.14529 0.0
Tb402 Tb 0.53926 0.51566 0.04789 0.0
C403 C 0.47266 0.57192 0.96639 0.0
C404 C 0.40444 0.52444 0.95972 0.0
C405 C 0.42539 0.59189 0.95533 0.0
C406 C 0.44317 0.53429 0.96675 0.0
C407 C 0.46451 0.60117 0.95994 0.0
C408 C 0.39535 0.55348 0.95512 0.0
C409 C 0.53467 0.64529 0.95907 0.0
N410 N 0.51012 0.57938 0.97027 0.0
C411 C 0.54122 0.61511 0.96499 0.0
C412 C 0.49611 0.63845 0.95705 0.0
Tb413 Tb 0.51784 0.52857 0.9826 0.0
N414 N 0.45349 0.50724 0.97084 0.0
C415 C 0.4275 0.47001 0.96476 0.0
C416 C 0.37686 0.48592 0.95568 0.0
C417 C 0.3889 0.45879 0.95727 0.0
H418 H 0.57111 0.62066 0.96625 0.0
H419 H 0.36842 0.42912 0.95288 0.0
H420 H 0.36562 0.54648 0.95014 0.0
H421 H 0.55936 0.67374 0.95591 0.0
H422 H 0.43624 0.44858 0.96564 0.0
H423 H 0.69365 0.61815 0.06214 0.0
H424 H 0.34691 0.47711 0.94998 0.0
H425 H 0.48872 0.42884 0.0737 0.0
H426 H 0.62382 0.59733 0.0544 0.0
H427 H 0.5014 0.37755 0.08765 0.0
H428 H 0.41836 0.61397 0.95066 0.0
H429 H 0.71477 0.57023 0.06796 0.0
H430 H 0.69531 0.50113 0.07444 0.0
H431 H 0.49112 0.66178 0.95216 0.0
H432 H 0.64223 0.43484 0.0819 0.0
N433 N 0.60512 0.53792 0.05504 0.0
C434 C 0.63237 0.57593 0.05671 0.0
C435 C 0.68398 0.56086 0.06452 0.0
C436 C 0.65548 0.52206 0.065 0.0
C437 C 0.67213 0.58795 0.06134 0.0
C438 C 0.61579 0.51158 0.0607 0.0
H439 H 0.56953 0.38857 0.08758 0.0
N440 N 0.54868 0.46779 0.06423 0.0
C441 C 0.52557 0.40473 0.08128 0.0
C442 C 0.58629 0.47492 0.06555 0.0
C443 C 0.51848 0.43387 0.07333 0.0
C444 C 0.56403 0.411 0.08112 0.0
C445 C 0.59513 0.44684 0.07387 0.0
O446 O 0.50865 0.50107 0.08319 0.0
O447 O 0.49585 0.51417 0.02137 0.0
O448 O 0.51512 0.57149 0.00654 0.0
O449 O 0.55764 0.57621 0.03888 0.0
O450 O 0.47498 0.47731 0.05079 0.0
O451 O 0.55475 0.55851 0.07574 0.0
O452 O 0.55511 0.54882 0.95044 0.0
O453 O 0.56056 0.52625 0.00844 0.0
O454 O 0.53254 0.46613 0.02693 0.0
O455 O 0.49755 0.46673 0.99064 0.0
O456 O 0.58184 0.56838 0.98232 0.0
O457 O 0.50398 0.49273 0.9501 0.0
C458 C 0.46375 0.48797 0.03086 0.0
C459 C 0.54551 0.53776 0.11884 0.0
C460 C 0.54127 0.54635 0.16495 0.0
C461 C 0.52543 0.54161 0.14004 0.0
C462 C 0.57704 0.54669 0.16835 0.0
C463 C 0.58094 0.53774 0.12281 0.0
C464 C 0.59655 0.54219 0.14743 0.0
C465 C 0.53821 0.59002 0.02599 0.0
C466 C 0.53003 0.53516 0.09268 0.0
C467 C 0.63472 0.4561 0.07584 0.0
C468 C 0.66493 0.49379 0.0715 0.0
C469 C 0.59296 0.5532 0.99966 0.0
C470 C 0.52467 0.52621 0.9105 0.0
C471 C 0.53701 0.51324 0.88936 0.0
C472 C 0.53363 0.52437 0.8643 0.0
C473 C 0.51725 0.54807 0.86067 0.0
C474 C 0.50752 0.54905 0.90631 0.0
C475 C 0.50384 0.55989 0.88155 0.0
C476 C 0.51005 0.44924 0.00682 0.0
C477 C 0.53312 0.51869 0.9367 0.0
H478 H 0.49792 0.54143 0.13719 0.0
H479 H 0.58974 0.55027 0.18731 0.0
H480 H 0.59676 0.53466 0.1069 0.0
H481 H 0.624 0.54233 0.15029 0.0
H482 H 0.5501 0.49538 0.89238 0.0
H483 H 0.51451 0.55709 0.84157 0.0
H484 H 0.49768 0.5592 0.9221 0.0
H485 H 0.49095 0.57787 0.87857 0.0
Tb486 Tb 0.16029 0.32677 0.31245 0.0
C487 C 0.22749 0.44162 0.39625 0.0
C488 C 0.29416 0.45326 0.39868 0.0
C489 C 0.28095 0.50492 0.40737 0.0
C490 C 0.25383 0.42884 0.39333 0.0
C491 C 0.24041 0.47938 0.40431 0.0
C492 C 0.30785 0.49183 0.40459 0.0
C493 C 0.17223 0.46165 0.41022 0.0
N494 N 0.18868 0.41564 0.39394 0.0
C495 C 0.16105 0.42438 0.40259 0.0
C496 C 0.21211 0.48956 0.41051 0.0
Tb497 Tb 0.17296 0.35623 0.37857 0.0
N498 N 0.23912 0.39124 0.38813 0.0
C499 C 0.26264 0.37533 0.39101 0.0
C500 C 0.31893 0.43762 0.39954 0.0
C501 C 0.30282 0.39826 0.39653 0.0
H502 H 0.13023 0.4028 0.4028 0.0
H503 H 0.32142 0.38558 0.39807 0.0
H504 H 0.33883 0.51124 0.4083 0.0
H505 H 0.15012 0.46872 0.41606 0.0
H506 H 0.25101 0.34507 0.3885 0.0
H507 H 1.00417 0.27402 0.29933 0.0
H508 H 0.35007 0.45532 0.40369 0.0
H509 H 0.21808 0.29404 0.28956 0.0
H510 H 0.07204 0.32142 0.31047 0.0
H511 H 0.20987 0.23873 0.26509 0.0
H512 H 0.29159 0.53424 0.41316 0.0
H513 H 0.98896 0.21124 0.28184 0.0
H514 H 0.01389 0.16902 0.26514 0.0
H515 H 0.22077 0.51828 0.41677 0.0
H516 H 0.07009 0.16025 0.25467 0.0
N517 N 0.09556 0.285 0.30217 0.0
C518 C 0.06618 0.29391 0.30378 0.0
C519 C 0.01894 0.23177 0.28727 0.0
C520 C 0.04966 0.22419 0.28321 0.0
C521 C 0.02741 0.26714 0.29711 0.0
C522 C 0.08817 0.25185 0.29074 0.0
H523 H 0.14319 0.18669 0.25368 0.0
N524 N 0.15643 0.27458 0.29192 0.0
C525 C 0.18423 0.24058 0.2706 0.0
C526 C 0.11971 0.24681 0.28499 0.0
C527 C 0.1887 0.27217 0.2844 0.0
C528 C 0.14656 0.21124 0.26425 0.0
C529 C 0.11372 0.21411 0.27138 0.0
O530 O 0.20192 0.36896 0.28793 0.0
O531 O 0.20004 0.3672 0.34095 0.0
O532 O 0.16603 0.39918 0.35693 0.0
O533 O 0.138 0.36673 0.31882 0.0
O534 O 0.22274 0.34507 0.31525 0.0
O535 O 0.14258 0.33511 0.27555 0.0
O536 O 0.13755 0.34368 0.41187 0.0
O537 O 0.1333 0.31483 0.35064 0.0
O538 O 0.16993 0.28372 0.33166 0.0
O539 O 0.18455 0.3081 0.37334 0.0
O540 O 0.1095 0.33447 0.3769 0.0
O541 O 0.1829 0.32893 0.40939 0.0
C542 C 0.23204 0.36856 0.33417 0.0
C543 C 0.19278 0.35953 0.24349 0.0
C544 C 0.20162 0.37688 0.1981 0.0
C545 C 0.18397 0.37512 0.222 0.0
C546 C 0.22688 0.36179 0.19566 0.0
C547 C 0.2193 0.3459 0.2407 0.0
C548 C 0.23562 0.34639 0.21686 0.0
C549 C 0.14848 0.3959 0.33465 0.0
C550 C 0.17778 0.36154 0.26911 0.0
C551 C 0.07529 0.18574 0.26485 0.0
C552 C 0.04329 0.19069 0.27087 0.0
C553 C 0.1004 0.31042 0.35843 0.0
C554 C 0.16904 0.34259 0.45051 0.0
C555 C 0.14836 0.31852 0.47127 0.0
C556 C 0.16314 0.32855 0.49645 0.0
C557 C 0.1982 0.36335 0.50055 0.0
C558 C 0.20363 0.37739 0.45519 0.0
C559 C 0.21799 0.38773 0.48008 0.0
C560 C 0.17901 0.28171 0.35594 0.0
C561 C 0.15641 0.3296 0.42402 0.0
H562 H 0.16464 0.38698 0.22401 0.0
H563 H 0.24053 0.36276 0.17739 0.0
H564 H 0.22857 0.33609 0.25705 0.0
H565 H 0.25593 0.33569 0.21497 0.0
H566 H 0.12159 0.29158 0.46782 0.0
H567 H 0.21021 0.37166 0.5197 0.0
H568 H 0.22005 0.39619 0.4396 0.0
H569 H 0.24491 0.41448 0.48347 0.0
Tb570 Tb 0.69968 0.83829 0.31677 0.0
C571 C 0.57002 0.77275 0.39695 0.0
C572 C 0.53822 0.81077 0.39557 0.0
C573 C 0.50001 0.74317 0.40615 0.0
C574 C 0.5718 0.80701 0.3919 0.0
C575 C 0.53434 0.74048 0.40449 0.0
C576 C 0.50198 0.77837 0.4018 0.0
C577 C 0.57002 0.70654 0.41028 0.0
N578 N 0.60401 0.77159 0.3952 0.0
C579 C 0.60477 0.73944 0.40287 0.0
C580 C 0.53455 0.70688 0.41076 0.0
Tb581 Tb 0.65913 0.8264 0.3809 0.0
N582 N 0.60758 0.83766 0.38644 0.0
C583 C 0.61263 0.87359 0.38796 0.0
C584 C 0.54271 0.84734 0.39464 0.0
C585 C 0.58035 0.87898 0.39177 0.0
H586 H 0.63181 0.73852 0.40236 0.0
H587 H 0.58461 0.90758 0.3926 0.0
H588 H 0.47571 0.78055 0.40431 0.0
H589 H 0.57064 0.68092 0.41559 0.0
H590 H 0.64165 0.89832 0.38646 0.0
H591 H 0.75462 0.73902 0.31576 0.0
H592 H 0.51779 0.8516 0.39762 0.0
H593 H 0.73839 0.92008 0.28448 0.0
H594 H 0.70411 0.7581 0.31624 0.0
H595 H 0.80457 0.97213 0.27225 0.0
H596 H 0.47217 0.71862 0.41168 0.0
H597 H 0.82517 0.78832 0.31251 0.0
H598 H 0.87602 0.85759 0.30501 0.0
H599 H 0.50772 0.6814 0.4166 0.0
H600 H 0.88988 0.92226 0.29305 0.0
N601 N 0.74494 0.81771 0.31478 0.0
C602 C 0.73447 0.77995 0.31529 0.0
C603 C 0.80296 0.79683 0.3129 0.0
C604 C 0.81326 0.83514 0.31003 0.0
C605 C 0.7632 0.76896 0.31466 0.0
C606 C 0.78304 0.84448 0.31058 0.0
H607 H 0.86308 0.9652 0.28002 0.0
N608 N 0.75943 0.88554 0.3012 0.0
C609 C 0.80122 0.94658 0.28138 0.0
C610 C 0.79068 0.88018 0.30366 0.0
C611 C 0.76376 0.91712 0.2885 0.0
C612 C 0.83417 0.94264 0.28589 0.0
C613 C 0.82895 0.90848 0.29632 0.0
O614 O 0.68474 0.84982 0.28029 0.0
O615 O 0.65405 0.83758 0.34078 0.0
O616 O 0.61683 0.77707 0.35853 0.0
O617 O 0.65528 0.7772 0.32458 0.0
O618 O 0.67206 0.87331 0.31011 0.0
O619 O 0.67566 0.79416 0.28949 0.0
O620 O 0.67917 0.81722 0.41623 0.0
O621 O 0.70675 0.83006 0.35708 0.0
O622 O 0.73595 0.89326 0.33632 0.0
O623 O 0.69776 0.88832 0.3725 0.0
O624 O 0.69098 0.79549 0.38795 0.0
O625 O 0.67428 0.86734 0.41016 0.0
C626 C 0.64829 0.86227 0.32928 0.0
C627 C 0.69016 0.81409 0.24649 0.0
C628 C 0.68097 0.80457 0.20032 0.0
C629 C 0.66738 0.80853 0.22443 0.0
C630 C 0.71785 0.80679 0.19845 0.0
C631 C 0.72712 0.81666 0.24429 0.0
C632 C 0.74086 0.81305 0.22033 0.0
C633 C 0.62227 0.76045 0.33844 0.0
C634 C 0.67432 0.81595 0.27162 0.0
C635 C 0.86009 0.90073 0.29818 0.0
C636 C 0.85221 0.86394 0.30499 0.0
C637 C 0.71534 0.80774 0.36919 0.0
C638 C 0.6624 0.84128 0.45209 0.0
C639 C 0.68418 0.84536 0.4745 0.0
C640 C 0.66567 0.8378 0.49862 0.0
C641 C 0.6254 0.82606 0.50015 0.0
C642 C 0.62235 0.83017 0.45413 0.0
C643 C 0.60395 0.82244 0.478 0.0
C644 C 0.72824 0.90812 0.35678 0.0
C645 C 0.6813 0.84737 0.42677 0.0
H646 H 0.63887 0.80669 0.22602 0.0
H647 H 0.72879 0.80377 0.18003 0.0
H648 H 0.74515 0.82106 0.26104 0.0
H649 H 0.76931 0.81487 0.21875 0.0
H650 H 0.71522 0.85423 0.47322 0.0
H651 H 0.61072 0.82017 0.51858 0.0
H652 H 0.60519 0.82746 0.43738 0.0
H653 H 0.57299 0.81372 0.47932 0.0
Tb654 Tb 0.20694 0.85195 0.37851 0.0
C655 C 0.13369 0.90347 0.29888 0.0
C656 C 0.06471 0.85604 0.29632 0.0
C657 C 0.08559 0.92314 0.28978 0.0
C658 C 0.10412 0.86612 0.30138 0.0
C659 C 0.12509 0.93237 0.29232 0.0
C660 C 0.05538 0.88491 0.29167 0.0
C661 C 0.19499 0.97566 0.28737 0.0
N662 N 0.1714 0.91076 0.30076 0.0
C663 C 0.20193 0.94579 0.2935 0.0
C664 C 0.15643 0.96914 0.28728 0.0
Tb665 Tb 0.18017 0.8609 0.31396 0.0
N666 N 0.11469 0.83922 0.30534 0.0
C667 C 0.0879 0.80165 0.30087 0.0
C668 C 0.03653 0.81732 0.29411 0.0
C669 C 0.04852 0.79012 0.29538 0.0
H670 H 0.23178 0.9511 0.2933 0.0
H671 H 0.02743 0.7602 0.2923 0.0
H672 H 0.02518 0.87779 0.28822 0.0
H673 H 0.21936 1.00364 0.28259 0.0
H674 H 0.09661 0.78019 0.30154 0.0
H675 H 0.36174 0.95581 0.38962 0.0
H676 H 1.006 0.80829 0.28995 0.0
H677 H 0.15815 0.76617 0.40602 0.0
H678 H 0.29151 0.93427 0.3832 0.0
H679 H 0.17191 0.71577 0.42033 0.0
H680 H 0.07824 0.94498 0.28508 0.0
H681 H 0.3836 0.90851 0.39576 0.0
H682 H 0.36492 0.83985 0.4034 0.0
H683 H 0.15111 0.99221 0.28223 0.0
H684 H 0.31254 0.77374 0.4123 0.0
N685 N 0.27321 0.87496 0.38467 0.0
C686 C 0.30034 0.91309 0.38556 0.0
C687 C 0.35261 0.8988 0.39285 0.0
C688 C 0.32435 0.85998 0.3942 0.0
C689 C 0.34035 0.92555 0.38948 0.0
C690 C 0.28441 0.84907 0.39055 0.0
H691 H 0.2402 0.7273 0.41936 0.0
N692 N 0.21759 0.80508 0.39534 0.0
C693 C 0.19567 0.74278 0.41336 0.0
C694 C 0.25534 0.81255 0.39618 0.0
C695 C 0.18795 0.7714 0.40516 0.0
C696 C 0.23421 0.74933 0.4127 0.0
C697 C 0.26482 0.78499 0.40471 0.0
O698 O 0.1773 0.83886 0.41405 0.0
O699 O 0.16123 0.84894 0.3534 0.0
O700 O 0.18045 0.9061 0.33713 0.0
O701 O 0.225 0.91211 0.36841 0.0
O702 O 0.14311 0.81255 0.38312 0.0
O703 O 0.22391 0.89588 0.40564 0.0
O704 O 0.21274 0.87793 0.27967 0.0
O705 O 0.22525 0.86094 0.33854 0.0
O706 O 0.20093 0.80239 0.35801 0.0
O707 O 0.16172 0.79979 0.32333 0.0
O708 O 0.2441 0.90062 0.31081 0.0
O709 O 0.1628 0.82137 0.28346 0.0
C710 C 0.13011 0.82256 0.36376 0.0
C711 C 0.215 0.87642 0.44893 0.0
C712 C 0.20985 0.8853 0.4947 0.0
C713 C 0.19446 0.88021 0.46975 0.0
C714 C 0.24567 0.88595 0.49866 0.0
C715 C 0.25056 0.8768 0.45323 0.0
C716 C 0.26575 0.88151 0.47802 0.0
C717 C 0.20505 0.92555 0.35575 0.0
C718 C 0.19935 0.87323 0.42291 0.0
C719 C 0.30456 0.7946 0.4061 0.0
C720 C 0.33437 0.83219 0.40094 0.0
C721 C 0.25679 0.88738 0.3285 0.0
C722 C 0.17644 0.84987 0.24224 0.0
C723 C 0.18881 0.83758 0.22083 0.0
C724 C 0.18143 0.84579 0.19587 0.0
C725 C 0.16044 0.86535 0.19264 0.0
C726 C 0.15474 0.86853 0.23858 0.0
C727 C 0.14667 0.87609 0.21391 0.0
C728 C 0.17679 0.78392 0.3389 0.0
C729 C 0.18939 0.84604 0.26798 0.0
H730 H 0.16686 0.87974 0.46656 0.0
H731 H 0.25795 0.88978 0.51776 0.0
H732 H 0.26671 0.87376 0.43749 0.0
H733 H 0.29327 0.88193 0.48123 0.0
H734 H 0.20549 0.82301 0.22353 0.0
H735 H 0.1547 0.87224 0.17362 0.0
H736 H 0.14469 0.87795 0.25466 0.0
H737 H 0.13031 0.89093 0.21128 0.0
Tb738 Tb 0.82039 0.65459 0.64829 0.0
C739 C 0.87394 0.77644 0.73129 0.0
C740 C 0.94436 0.80496 0.73618 0.0
C741 C 0.91332 0.8434 0.74312 0.0
C742 C 0.90737 0.77354 0.7296 0.0
C743 C 0.87625 0.8111 0.73859 0.0
C744 C 0.94737 0.84029 0.74203 0.0
C745 C 0.80513 0.77812 0.73929 0.0
N746 N 0.83875 0.74428 0.72724 0.0
C747 C 0.80436 0.74428 0.7324 0.0
C748 C 0.84122 0.81183 0.74202 0.0
Tb749 Tb 0.84071 0.69074 0.71377 0.0
N750 N 0.90299 0.73875 0.72422 0.0
C751 C 0.93368 0.73243 0.72843 0.0
C752 C 0.97658 0.79921 0.7384 0.0
C753 C 0.97081 0.76243 0.73546 0.0
H754 H 0.77616 0.71864 0.73018 0.0
H755 H 0.99484 0.75703 0.73884 0.0
H756 H 0.97561 0.86491 0.74676 0.0
H757 H 0.77784 0.77816 0.74251 0.0
H758 H 0.92958 0.70405 0.7269 0.0
H759 H 0.66142 0.58663 0.64412 0.0
H760 H 1.00539 0.82239 0.74381 0.0
H761 H 0.87599 0.62727 0.61712 0.0
H762 H 0.72945 0.64069 0.64682 0.0
H763 H 0.8715 0.56681 0.60308 0.0
H764 H 0.91581 0.87045 0.74849 0.0
H765 H 0.64954 0.52079 0.63861 0.0
H766 H 0.67791 0.47787 0.62976 0.0
H767 H 0.84171 0.83793 0.74756 0.0
H768 H 0.73602 0.47236 0.6185 0.0
N769 N 0.75604 0.60617 0.64414 0.0
C770 C 0.72475 0.6123 0.64457 0.0
C771 C 0.67946 0.54451 0.6399 0.0
C772 C 0.71169 0.53886 0.63702 0.0
C773 C 0.68606 0.58162 0.6429 0.0
C774 C 0.74996 0.57081 0.63887 0.0
H775 H 0.80866 0.50574 0.60785 0.0
N776 N 0.81753 0.60035 0.63194 0.0
C777 C 0.84622 0.56652 0.61171 0.0
C778 C 0.78218 0.56771 0.6326 0.0
C779 C 0.84878 0.6007 0.6199 0.0
C780 C 0.81075 0.53211 0.6145 0.0
C781 C 0.77772 0.5326 0.62425 0.0
O782 O 0.85377 0.68123 0.61518 0.0
O783 O 0.8616 0.69811 0.67439 0.0
O784 O 0.8351 0.73251 0.69025 0.0
O785 O 0.79873 0.69514 0.65578 0.0
O786 O 0.88438 0.6827 0.64471 0.0
O787 O 0.79372 0.66763 0.61761 0.0
O788 O 0.80422 0.66748 0.74618 0.0
O789 O 0.80029 0.64551 0.68798 0.0
O790 O 0.84129 0.62029 0.66808 0.0
O791 O 0.86738 0.65431 0.70655 0.0
O792 O 0.7768 0.66222 0.71613 0.0
O793 O 0.86149 0.67306 0.74545 0.0
C794 C 0.89418 0.70475 0.66438 0.0
C795 C 0.8193 0.66819 0.57624 0.0
C796 C 0.82852 0.68326 0.53033 0.0
C797 C 0.82908 0.69467 0.55601 0.0
C798 C 0.81779 0.64501 0.52537 0.0
C799 C 0.80685 0.62989 0.57055 0.0
C800 C 0.8064 0.61848 0.54529 0.0
C801 C 0.81334 0.727 0.66964 0.0
C802 C 0.82484 0.68129 0.60313 0.0
C803 C 0.74008 0.4998 0.62446 0.0
C804 C 0.70701 0.50294 0.63086 0.0
C805 C 0.76743 0.63814 0.69779 0.0
C806 C 0.83605 0.67719 0.786 0.0
C807 C 0.82534 0.65118 0.80666 0.0
C808 C 0.82717 0.6638 0.83219 0.0
C809 C 0.84029 0.70268 0.83661 0.0
C810 C 0.84974 0.7159 0.79114 0.0
C811 C 0.85184 0.72851 0.81626 0.0
C812 C 0.86083 0.62657 0.69 0.0
C813 C 0.83019 0.66345 0.75921 0.0
H814 H 0.83781 0.72415 0.56023 0.0
H815 H 0.81747 0.63549 0.50591 0.0
H816 H 0.79786 0.60883 0.58558 0.0
H817 H 0.79738 0.58896 0.54113 0.0
H818 H 0.8149 0.62121 0.80292 0.0
H819 H 0.84185 0.7131 0.85596 0.0
H820 H 0.85824 0.73633 0.77574 0.0
H821 H 0.86212 0.75842 0.81996 0.0
Tb822 Tb 0.36683 0.16736 0.64869 0.0
C823 C 0.23475 0.09907 0.72769 0.0
C824 C 0.20416 0.13822 0.72877 0.0
C825 C 0.16478 0.06993 0.73692 0.0
C826 C 0.2374 0.1341 0.72446 0.0
C827 C 0.19865 0.06661 0.73437 0.0
C828 C 0.16755 0.10575 0.73421 0.0
C829 C 0.23302 0.03109 0.73774 0.0
N830 N 0.26836 0.09731 0.72517 0.0
C831 C 0.26822 0.06416 0.73127 0.0
C832 C 0.19798 0.03216 0.73896 0.0
Tb833 Tb 0.32436 0.15289 0.71258 0.0
N834 N 0.27343 0.16473 0.71948 0.0
C835 C 0.27893 0.20076 0.72174 0.0
C836 C 0.20922 0.17502 0.72897 0.0
C837 C 0.24702 0.20647 0.72629 0.0
H838 H 0.29484 0.06257 0.73022 0.0
H839 H 0.2517 0.23515 0.72792 0.0
H840 H 0.14157 0.10826 0.73724 0.0
H841 H 0.23295 0.00475 0.74178 0.0
H842 H 0.30811 0.22531 0.72044 0.0
H843 H 0.41379 0.06208 0.64439 0.0
H844 H 0.18457 0.17953 0.73248 0.0
H845 H 0.41148 0.25184 0.61953 0.0
H846 H 0.36608 0.08466 0.64536 0.0
H847 H 0.47958 0.30246 0.60979 0.0
H848 H 0.13663 0.04528 0.74182 0.0
H849 H 0.48533 0.10878 0.64341 0.0
H850 H 0.53936 0.17758 0.6391 0.0
H851 H 0.17081 0.00652 0.74409 0.0
H852 H 0.55762 0.24431 0.62974 0.0
N853 N 0.40943 0.14363 0.64637 0.0
C854 C 0.3969 0.1054 0.64544 0.0
C855 C 0.46435 0.11884 0.64401 0.0
C856 C 0.47692 0.15785 0.64275 0.0
C857 C 0.42403 0.09243 0.6445 0.0
C858 C 0.44825 0.16924 0.64347 0.0
H859 H 0.53525 0.29119 0.61799 0.0
N860 N 0.42861 0.21374 0.63537 0.0
C861 C 0.47414 0.27565 0.61804 0.0
C862 C 0.45834 0.20613 0.63796 0.0
C863 C 0.43561 0.247 0.62375 0.0
C864 C 0.50548 0.26925 0.62279 0.0
C865 C 0.49761 0.23355 0.63198 0.0
O866 O 0.35648 0.183 0.61216 0.0
O867 O 0.32169 0.16725 0.67276 0.0
O868 O 0.28153 0.10643 0.68889 0.0
O869 O 0.32 0.10663 0.6549 0.0
O870 O 0.34066 0.2038 0.64257 0.0
O871 O 0.34153 0.12512 0.6202 0.0
O872 O 0.34694 0.14278 0.74635 0.0
O873 O 0.37203 0.15662 0.68874 0.0
O874 O 0.40324 0.22054 0.66996 0.0
O875 O 0.36362 0.21491 0.70549 0.0
O876 O 0.35408 0.11973 0.71842 0.0
O877 O 0.33688 0.19033 0.74391 0.0
C878 C 0.31672 0.19267 0.66166 0.0
C879 C 0.36092 0.14719 0.57802 0.0
C880 C 0.35401 0.1378 0.53178 0.0
C881 C 0.33934 0.14189 0.55544 0.0
C882 C 0.39075 0.1396 0.53087 0.0
C883 C 0.39778 0.14935 0.57679 0.0
C884 C 0.41259 0.14562 0.55329 0.0
C885 C 0.28662 0.09044 0.66839 0.0
C886 C 0.34392 0.14913 0.60268 0.0
C887 C 0.52712 0.22352 0.63381 0.0
C888 C 0.51673 0.18556 0.63914 0.0
C889 C 0.37915 0.13277 0.70005 0.0
C890 C 0.3295 0.16088 0.78445 0.0
C891 C 0.35432 0.17155 0.80592 0.0
C892 C 0.3385 0.15825 0.83046 0.0
C893 C 0.29758 0.13441 0.83331 0.0
C894 C 0.28863 0.13808 0.78777 0.0
C895 C 0.27278 0.12484 0.81207 0.0
C896 C 0.39501 0.23476 0.69052 0.0
C897 C 0.34697 0.1707 0.75871 0.0
H898 H 0.31087 0.14029 0.55627 0.0
H899 H 0.40246 0.13642 0.51281 0.0
H900 H 0.4149 0.15355 0.59394 0.0
H901 H 0.44095 0.14711 0.55247 0.0
H902 H 0.38594 0.18946 0.80352 0.0
H903 H 0.28485 0.12373 0.85205 0.0
H904 H 0.26902 0.13005 0.77165 0.0
H905 H 0.24124 0.10688 0.81442 0.0
Tb906 Tb 0.87274 0.18148 0.71536 0.0
C907 C 0.80642 0.23516 0.62898 0.0
C908 C 0.73625 0.19166 0.63089 0.0
C909 C 0.76116 0.25676 0.61591 0.0
C910 C 0.77529 0.19992 0.63524 0.0
C911 C 0.7999 0.2637 0.61843 0.0
C912 C 0.72931 0.22067 0.62206 0.0
C913 C 0.86964 0.30091 0.60968 0.0
N914 N 0.84313 0.24012 0.63097 0.0
C915 C 0.87432 0.27134 0.61985 0.0
C916 C 0.83234 0.29744 0.60947 0.0
Tb917 Tb 0.84895 0.19146 0.64943 0.0
N918 N 0.78346 0.17266 0.64324 0.0
C919 C 0.75371 0.13535 0.64451 0.0
C920 C 0.70556 0.15413 0.63436 0.0
C921 C 0.71444 0.1257 0.64065 0.0
H922 H 0.90306 0.27383 0.61938 0.0
H923 H 0.69106 0.09628 0.64253 0.0
H924 H 0.69951 0.21507 0.61902 0.0
H925 H 0.89472 0.32615 0.60179 0.0
H926 H 0.75966 0.11269 0.64896 0.0
H927 H 0.03082 0.2783 0.71924 0.0
H928 H 0.67516 0.14657 0.63128 0.0
H929 H 0.82439 0.10206 0.74977 0.0
H930 H 0.96153 0.26134 0.71629 0.0
H931 H 0.83492 0.04995 0.76515 0.0
H932 H 0.75549 0.27846 0.60816 0.0
H933 H 0.04844 0.22785 0.72495 0.0
H934 H 0.02581 0.15867 0.73425 0.0
H935 H 0.82863 0.32011 0.60125 0.0
H936 H 0.97147 0.09523 0.74687 0.0
N937 N 0.93891 0.20113 0.71931 0.0
C938 C 0.96819 0.23868 0.71868 0.0
C939 C 0.01772 0.22009 0.72361 0.0
C940 C 0.98767 0.18218 0.72667 0.0
C941 C 1.00787 0.24862 0.72053 0.0
C942 C 0.9482 0.17378 0.72486 0.0
H943 H 0.89988 0.05454 0.75925 0.0
N944 N 0.88143 0.13396 0.73306 0.0
C945 C 0.85848 0.07447 0.75549 0.0
C946 C 0.91806 0.13855 0.73198 0.0
C947 C 0.85254 0.10392 0.74659 0.0
C948 C 0.89512 0.07708 0.75203 0.0
C949 C 0.92597 0.11015 0.74104 0.0
O950 O 0.84152 0.17176 0.75016 0.0
O951 O 0.83087 0.18499 0.68932 0.0
O952 O 0.86438 0.24565 0.6683 0.0
O953 O 0.89557 0.24226 0.70573 0.0
O954 O 0.80848 0.14997 0.72034 0.0
O955 O 0.89607 0.22378 0.744 0.0
O956 O 0.88054 0.20115 0.61473 0.0
O957 O 0.89044 0.18713 0.67526 0.0
O958 O 0.85325 0.1257 0.69791 0.0
O959 O 0.82523 0.13058 0.65935 0.0
O960 O 0.91309 0.22418 0.64527 0.0
O961 O 0.82694 0.14827 0.62148 0.0
C962 C 0.79859 0.16268 0.70078 0.0
C963 C 0.88199 0.19947 0.78636 0.0
C964 C 0.87466 0.19917 0.83294 0.0
C965 C 0.86092 0.19993 0.80807 0.0
C966 C 0.90899 0.19668 0.83576 0.0
C967 C 0.91602 0.19662 0.78964 0.0
C968 C 0.92925 0.19503 0.81422 0.0
C969 C 0.88509 0.26087 0.68947 0.0
C970 C 0.86877 0.20305 0.76054 0.0
C971 C 0.9648 0.11691 0.74044 0.0
C972 C 0.99572 0.15301 0.73325 0.0
C973 C 0.92279 0.21036 0.66427 0.0
C974 C 0.84063 0.17043 0.57862 0.0
C975 C 0.86403 0.17303 0.55735 0.0
C976 C 0.85003 0.17135 0.53219 0.0
C977 C 0.81293 0.16817 0.52865 0.0
C978 C 0.80384 0.16767 0.57453 0.0
C979 C 0.79023 0.16672 0.54969 0.0
C980 C 0.83312 0.11097 0.6765 0.0
C981 C 0.85409 0.16894 0.60482 0.0
H982 H 0.8346 0.2021 0.8057 0.0
H983 H 0.92022 0.19629 0.85467 0.0
H984 H 0.93269 0.19613 0.77328 0.0
H985 H 0.95565 0.19309 0.81657 0.0
H986 H 0.89255 0.17534 0.5603 0.0
H987 H 0.80153 0.16678 0.50951 0.0
H988 H 0.78528 0.16566 0.59048 0.0
H989 H 0.76174 0.16435 0.54673 0.0
C990 C 0.359 0.86653 0.04486 0.0
C991 C 0.333 0.87314 0.06046 0.0
C992 C 0.37198 0.9409 0.05071 0.0
C993 C 0.40016 0.93651 0.03609 0.0
N994 N 0.42348 0.89251 0.02585 0.0
N995 N 0.34724 0.92135 0.09261 0.0
C996 C 0.3944 0.89844 0.03471 0.0
C997 C 0.34723 0.91163 0.06763 0.0
N998 N 0.35256 0.8303 0.04186 0.0
N999 N 0.37123 0.97426 0.05105 0.0
H1000 H 0.34195 0.90189 0.1074 0.0
H1001 H 0.35976 0.94983 0.09844 0.0
H1002 H 0.38866 0.99717 0.03911 0.0
H1003 H 0.35062 0.97721 0.06207 0.0
H1004 H 0.36526 0.82261 0.02716 0.0
H1005 H 0.33528 0.80829 0.0546 0.0
H1006 H 0.4236 0.86688 0.02766 0.0
H1007 H 0.44874 0.91399 0.01787 0.0
C1008 C 0.11737 0.42907 0.04054 0.0
C1009 C 0.15307 0.46258 0.04695 0.0
C1010 C 0.12341 0.50148 0.03424 0.0
C1011 C 0.08576 0.46778 0.0311 0.0
N1012 N 0.04696 0.39875 0.03329 0.0
N1013 N 0.18888 0.53077 0.05294 0.0
C1014 C 0.08288 0.4314 0.03496 0.0
C1015 C 0.15587 0.4988 0.04436 0.0
N1016 N 0.11671 0.39494 0.0393 0.0
N1017 N 0.1288 0.53628 0.02736 0.0
H1018 H 0.21365 0.53037 0.05984 0.0
H1019 H 0.19067 0.55724 0.05511 0.0
H1020 H 0.10654 0.53972 0.01973 0.0
H1021 H 0.15628 0.56102 0.0263 0.0
H1022 H 0.09299 0.36995 0.03216 0.0
H1023 H 0.14152 0.39249 0.04311 0.0
H1024 H 0.04191 0.37207 0.03931 0.0
H1025 H 0.02159 0.39839 0.02679 0.0
C1026 C 0.52018 0.66802 0.05274 0.0
C1027 C 0.55941 0.69913 0.05405 0.0
C1028 C 0.58299 0.66089 0.03172 0.0
C1029 C 0.54441 0.62874 0.0326 0.0
N1030 N 0.47461 0.60735 0.0335 0.0
N1031 N 0.6286 0.72611 0.04484 0.0
C1032 C 0.51238 0.63388 0.03992 0.0
C1033 C 0.59095 0.69588 0.0434 0.0
N1034 N 0.49055 0.67015 0.06515 0.0
N1035 N 0.61094 0.65882 0.01735 0.0
H1036 H 0.63519 0.75304 0.05147 0.0
H1037 H 0.65354 0.72425 0.04059 0.0
H1038 H 0.60379 0.63508 0.00601 0.0
H1039 H 0.63912 0.68164 0.01396 0.0
H1040 H 0.46247 0.64667 0.0678 0.0
H1041 H 0.4948 0.69453 0.07479 0.0
H1042 H 0.45077 0.61177 0.03582 0.0
H1043 H 0.46722 0.5826 0.0233 0.0
C1044 C 0.88793 0.34053 0.95375 0.0
C1045 C 0.86209 0.31127 0.97077 0.0
C1046 C 0.89104 0.35875 1.00475 0.0
C1047 C 0.92458 0.38375 0.98941 0.0
N1048 N 0.9561 0.38521 0.94831 0.0
N1049 N 0.84834 0.29242 0.01545 0.0
C1050 C 0.92358 0.37108 0.96351 0.0
C1051 C 0.86686 0.32001 0.99728 0.0
N1052 N 0.87874 0.33986 0.92848 0.0
N1053 N 0.87762 0.37211 0.02374 0.0
H1054 H 0.83255 0.26337 0.01104 0.0
H1055 H 0.85276 0.29881 0.03499 0.0
H1056 H 0.88523 0.40058 0.02428 0.0
H1057 H 0.85232 0.35406 0.03424 0.0
H1058 H 0.89642 0.36216 0.91599 0.0
H1059 H 0.85131 0.31989 0.92115 0.0
H1060 H 0.95488 0.37604 0.92945 0.0
H1061 H 0.98422 0.39786 0.95578 0.0
C1062 C 0.70286 0.5815 0.9925 0.0
C1063 C 0.70032 0.55182 0.9768 0.0
C1064 C 0.62784 0.52192 0.9769 0.0
C1065 C 0.62984 0.55081 0.99374 0.0
N1066 N 0.67141 0.61607 0.00754 0.0
N1067 N 0.6605 0.49114 0.95634 0.0
C1068 C 0.66803 0.58274 0.99886 0.0
C1069 C 0.66281 0.52131 0.96972 0.0
N1070 N 0.73875 0.60856 1.00171 0.0
N1071 N 0.59313 0.49757 0.96517 0.0
H1072 H 0.68533 0.48989 0.95055 0.0
H1073 H 0.63417 0.46606 0.95263 0.0
H1074 H 0.56645 0.49474 0.97074 0.0
H1075 H 0.59092 0.48124 0.94915 0.0
H1076 H 0.7421 0.62835 0.01572 0.0
H1077 H 0.76489 0.60897 0.99709 0.0
H1078 H 0.69795 0.6419 0.00812 0.0
H1079 H 0.64716 0.61839 0.01266 0.0
C1080 C 0.42889 0.11568 0.98238 0.0
C1081 C 0.46109 0.15181 0.97549 0.0
C1082 C 0.50637 0.13308 0.99423 0.0
C1083 C 0.47525 0.09421 0.99602 0.0
N1084 N 0.40533 0.04982 0.99403 0.0
N1085 N 0.53153 0.19231 0.9709 0.0
C1086 C 0.43604 0.08595 0.99061 0.0
C1087 C 0.50003 0.15996 0.98059 0.0
N1088 N 0.39154 0.11033 0.98203 0.0
N1089 N 0.54206 0.14542 0.00563 0.0
H1090 H 0.52877 0.21223 0.9597 0.0
H1091 H 0.56032 0.19725 0.97175 0.0
H1092 H 0.55125 0.12792 0.01388 0.0
H1093 H 0.56209 0.17442 0.00831 0.0
H1094 H 0.36697 0.08597 0.98912 0.0
H1095 H 0.38558 0.13191 0.97685 0.0
H1096 H 0.37707 0.04024 0.98692 0.0
H1097 H 0.40865 0.0293 1.00383 0.0
C1098 C 0.6393 0.14235 0.98363 0.0
C1099 C 0.67464 0.14073 0.98569 0.0
C1100 C 0.63526 0.07073 0.98936 0.0
C1101 C 0.59994 0.07267 0.98903 0.0
N1102 N 0.57092 0.10767 0.97078 0.0
N1103 N 0.70484 0.10203 0.97865 0.0
C1104 C 0.60246 0.10774 0.98191 0.0
C1105 C 0.67228 0.10446 0.98488 0.0
N1106 N 0.64066 0.17679 0.98297 0.0
N1107 N 0.63366 0.03685 0.99466 0.0
H1108 H 0.73138 0.1257 0.97301 0.0
H1109 H 0.70413 0.07618 0.97571 0.0
H1110 H 0.60729 0.01188 0.99851 0.0
H1111 H 0.65855 0.03441 0.99789 0.0
H1112 H 0.61546 0.17927 0.98356 0.0
H1113 H 0.66684 0.20298 0.98286 0.0
H1114 H 0.57286 0.13181 0.96206 0.0
H1115 H 0.54424 0.0827 0.96754 0.0
C1116 C 0.9196 0.56723 0.98746 0.0
C1117 C 0.87851 0.54038 0.98999 0.0
C1118 C 0.89472 0.4885 0.99217 0.0
C1119 C 0.93554 0.51544 0.98926 0.0
N1120 N 0.9832 0.5779 0.97381 0.0
N1121 N 0.82957 0.47686 1.00351 0.0
C1122 C 0.94686 0.55403 0.98387 0.0
C1123 C 0.86675 0.50132 0.99472 0.0
N1124 N 0.9336 0.60546 0.9909 0.0
N1125 N 0.88216 0.4504 0.99056 0.0
H1126 H 0.80898 0.4854 0.00726 0.0
H1127 H 0.82069 0.44936 0.0101 0.0
H1128 H 0.90136 0.44029 0.98671 0.0
H1129 H 0.85257 0.42924 0.98991 0.0
H1130 H 0.9636 0.62549 0.9916 0.0
H1131 H 0.91625 0.61676 0.99709 0.0
H1132 H 0.99161 0.60517 0.96692 0.0
H1133 H 1.00292 0.56859 0.96931 0.0
C1134 C 0.4543 0.33954 1.00326 0.0
C1135 C 0.4748 0.33492 0.98229 0.0
C1136 C 0.52624 0.40153 0.98796 0.0
C1137 C 0.49977 0.40887 1.00173 0.0
N1138 N 0.44172 0.38295 0.02822 0.0
N1139 N 0.53232 0.36397 0.95448 0.0
C1140 C 0.46456 0.37723 0.01115 0.0
C1141 C 0.51158 0.36653 0.97467 0.0
N1142 N 0.42682 0.30825 0.01645 0.0
N1143 N 0.56572 0.42615 0.98955 0.0
H1144 H 0.52304 0.3392 0.94374 0.0
H1145 H 0.55757 0.38779 0.94735 0.0
H1146 H 0.57739 0.44965 1.00184 0.0
H1147 H 0.58636 0.41991 0.9817 0.0
H1148 H 0.41278 0.30995 0.03292 0.0
H1149 H 0.42197 0.28079 0.01303 0.0
H1150 H 0.41341 0.36186 0.03344 0.0
H1151 H 0.45086 0.40954 0.03642 0.0
C1152 C 0.1403 0.65826 0.05546 0.0
C1153 C 0.15509 0.68788 0.0367 0.0
C1154 C 0.10854 0.64254 0.00557 0.0
C1155 C 0.09506 0.61211 0.0236 0.0
N1156 N 0.1088 0.59033 0.06361 0.0
N1157 N 0.16376 0.70241 0.99148 0.0
C1158 C 0.11403 0.6197 0.04797 0.0
C1159 C 0.14272 0.67813 0.01095 0.0
N1160 N 0.15063 0.6667 0.08059 0.0
N1161 N 0.08735 0.63878 0.98403 0.0
H1162 H 0.19075 0.72724 0.99449 0.0
H1163 H 0.15711 0.69509 0.97222 0.0
H1164 H 0.06057 0.6144 0.98051 0.0
H1165 H 0.09419 0.66135 0.97145 0.0
H1166 H 0.13647 0.64723 0.09542 0.0
H1167 H 0.17193 0.69365 0.08677 0.0
H1168 H 0.12512 0.59442 0.08027 0.0
H1169 H 0.0917 0.56164 0.05868 0.0
C1170 C 0.37927 0.50388 0.05371 0.0
C1171 C 0.346 0.47232 0.04212 0.0
C1172 C 0.39037 0.45416 0.02101 0.0
C1173 C 0.42422 0.48621 0.03158 0.0
N1174 N 0.44943 0.53676 0.06297 0.0
N1175 N 0.32264 0.42726 0.00732 0.0
C1176 C 0.41828 0.51035 0.04887 0.0
C1177 C 0.35253 0.45072 0.02339 0.0
N1178 N 0.37367 0.52792 0.06933 0.0
N1179 N 0.3935 0.42496 0.01041 0.0
H1180 H 0.29596 0.42716 0.00664 0.0
H1181 H 0.32615 0.4119 0.99251 0.0
H1182 H 0.42055 0.42678 0.00717 0.0
H1183 H 0.36915 0.39858 0.00579 0.0
H1184 H 0.39635 0.55414 0.07573 0.0
H1185 H 0.34595 0.52329 0.07443 0.0
H1186 H 0.44688 0.55105 0.07878 0.0
H1187 H 0.47835 0.54353 0.05952 0.0
C1188 C 0.56188 0.883 0.01375 0.0
C1189 C 0.56108 0.87408 0.04019 0.0
C1190 C 0.5274 0.9104 0.04882 0.0
C1191 C 0.53675 0.92627 0.02371 0.0
N1192 N 0.57006 0.9318 0.98364 0.0
N1193 N 0.54463 0.88212 0.08368 0.0
C1194 C 0.55575 0.91355 0.00644 0.0
C1195 C 0.54419 0.88853 0.05797 0.0
N1196 N 0.56718 0.8618 0.99548 0.0
N1197 N 0.501 0.91457 0.06362 0.0
H1198 H 0.55498 0.86504 0.09147 0.0
H1199 H 0.5371 0.89607 0.09745 0.0
H1200 H 0.4863 0.92853 0.05722 0.0
H1201 H 0.49032 0.90045 0.08104 0.0
H1202 H 0.56513 0.86586 0.97591 0.0
H1203 H 0.56792 0.83693 0.99973 0.0
H1204 H 0.58726 0.92562 0.97146 0.0
H1205 H 0.56842 0.95578 0.97832 0.0
C1206 C 0.99004 0.24563 0.37226 0.0
C1207 C 0.98992 0.21256 0.38162 0.0
C1208 C 0.05696 0.23783 0.36485 0.0
C1209 C 0.06035 0.27404 0.36005 0.0
N1210 N 0.02819 0.31166 0.35833 0.0
N1211 N 0.02531 0.17891 0.38929 0.0
C1212 C 0.02608 0.2775 0.36336 0.0
C1213 C 0.02392 0.20911 0.37854 0.0
N1214 N 0.9555 0.2463 0.37149 0.0
N1215 N 0.08396 0.22978 0.35496 0.0
H1216 H 1.00165 0.15699 0.39919 0.0
H1217 H 0.05107 0.17738 0.39023 0.0
H1218 H 0.10353 0.24761 0.34131 0.0
H1219 H 0.08203 0.20316 0.35637 0.0
H1220 H 0.95254 0.2678 0.36256 0.0
H1221 H 0.9288 0.22353 0.3779 0.0
H1222 H 1.00656 0.31812 0.36367 0.0
H1223 H 0.05243 0.33406 0.34928 0.0
C1224 C 0.82525 0.83744 0.38124 0.0
C1225 C 0.82233 0.80115 0.38369 0.0
C1226 C 0.75115 0.77018 0.37537 0.0
C1227 C 0.75357 0.80637 0.37123 0.0
N1228 N 0.79574 0.87502 0.3687 0.0
N1229 N 0.78522 0.73383 0.37535 0.0
C1230 C 0.79161 0.84009 0.37331 0.0
C1231 C 0.78615 0.76792 0.37807 0.0
N1232 N 0.8595 0.86942 0.38824 0.0
N1233 N 0.71538 0.73769 0.37804 0.0
H1234 H 0.81052 0.73151 0.37699 0.0
H1235 H 0.7606 0.70911 0.36868 0.0
H1236 H 0.68869 0.73724 0.37721 0.0
H1237 H 0.71225 0.71159 0.3838 0.0
H1238 H 0.86232 0.8963 0.3904 0.0
H1239 H 0.88484 0.86872 0.39344 0.0
H1240 H 0.82275 0.89979 0.36583 0.0
H1241 H 0.7718 0.87876 0.3666 0.0
C1242 C 0.25949 0.0319 0.37167 0.0
C1243 C 0.22926 0.03538 0.38421 0.0
C1244 C 0.1807 0.97005 0.37101 0.0
C1245 C 0.21182 0.96462 0.36205 0.0
N1246 N 0.2762 0.99454 0.34335 0.0
N1247 N 0.16156 0.00669 0.39811 0.0
C1248 C 0.25014 0.99676 0.35957 0.0
C1249 C 0.18987 0.00435 0.38418 0.0
N1250 N 0.29728 0.06201 0.37177 0.0
N1251 N 0.1424 0.94366 0.36575 0.0
H1252 H 0.16683 0.03116 0.40809 0.0
H1253 H 0.13369 0.98329 0.40159 0.0
H1254 H 0.13415 0.91902 0.35516 0.0
H1255 H 0.11889 0.94816 0.36939 0.0
H1256 H 0.32159 0.05994 0.366 0.0
H1257 H 0.30472 0.08896 0.37882 0.0
H1258 H 0.30385 0.01739 0.33877 0.0
H1259 H 0.26766 0.97061 0.33186 0.0
C1260 C 0.52208 0.67851 0.31476 0.0
C1261 C 0.53009 0.6481 0.31217 0.0
C1262 C 0.59753 0.69021 0.32806 0.0
C1263 C 0.58954 0.72081 0.33113 0.0
N1264 N 0.53902 0.73893 0.33428 0.0
N1265 N 0.57221 0.62218 0.32145 0.0
C1266 C 0.55023 0.71335 0.32677 0.0
C1267 C 0.56695 0.6532 0.3203 0.0
N1268 N 0.48833 0.67504 0.30446 0.0
N1269 N 0.63435 0.69626 0.33304 0.0
H1270 H 0.55031 0.59474 0.3162 0.0
H1271 H 0.5967 0.6227 0.32964 0.0
H1272 H 0.65555 0.72087 0.34199 0.0
H1273 H 0.64419 0.67761 0.3277 0.0
H1274 H 0.48324 0.69792 0.30266 0.0
H1275 H 0.46681 0.65012 0.29565 0.0
H1276 H 0.5097 0.73239 0.33471 0.0
H1277 H 0.55797 0.76562 0.34197 0.0
C1278 C 0.32753 0.85615 0.29934 0.0
C1279 C 0.36493 0.88749 0.30575 0.0
C1280 C 0.33197 0.91822 0.32726 0.0
C1281 C 0.29403 0.88564 0.32269 0.0
N1282 N 0.25748 0.83111 0.29511 0.0
N1283 N 0.40304 0.94578 0.32924 0.0
C1284 C 0.2923 0.85635 0.30642 0.0
C1285 C 0.36713 0.91761 0.32082 0.0
N1286 N 0.32565 0.82564 0.28668 0.0
N1287 N 0.33466 0.95147 0.3355 0.0
H1288 H 0.42937 0.94672 0.32445 0.0
H1289 H 0.40636 0.96612 0.3428 0.0
H1290 H 0.31012 0.95315 0.34084 0.0
H1291 H 0.3608 0.97768 0.3356 0.0
H1292 H 0.29952 0.80023 0.28327 0.0
H1293 H 0.35072 0.82453 0.28129 0.0
H1294 H 0.25527 0.81404 0.27953 0.0
H1295 H 0.23072 0.8283 0.30054 0.0
C1296 C 0.16292 0.4838 0.29743 0.0
C1297 C 0.13042 0.48696 0.30615 0.0
C1298 C 0.11311 0.43421 0.33652 0.0
C1299 C 0.14291 0.42817 0.3257 0.0
N1300 N 0.19424 0.44555 0.29416 0.0
N1301 N 0.07253 0.46401 0.33247 0.0
C1302 C 0.16724 0.45256 0.30569 0.0
C1303 C 0.10507 0.46201 0.32543 0.0
N1304 N 0.19042 0.51142 0.28169 0.0
N1305 N 0.09256 0.41349 0.35741 0.0
H1306 H 0.06647 0.48461 0.32518 0.0
H1307 H 0.05029 0.444 0.34422 0.0
H1308 H 0.09663 0.39204 0.36526 0.0
H1309 H 0.07356 0.41916 0.36802 0.0
H1310 H 0.21722 0.51335 0.27706 0.0
H1311 H 0.18821 0.53463 0.27499 0.0
H1312 H 0.20875 0.45844 0.27715 0.0
H1313 H 0.20061 0.42513 0.30095 0.0
C1314 C 0.32116 0.46491 0.31768 0.0
C1315 C 0.3536 0.45917 0.3226 0.0
C1316 C 0.30527 0.39308 0.33591 0.0
C1317 C 0.27408 0.40158 0.3352 0.0
N1318 N 0.25797 0.45206 0.33303 0.0
N1319 N 0.37525 0.41706 0.34023 0.0
C1320 C 0.28382 0.43955 0.32875 0.0
C1321 C 0.34521 0.42305 0.33295 0.0
N1322 N 0.32401 0.4917 0.30051 0.0
N1323 N 0.29695 0.35621 0.33943 0.0
H1324 H 0.40498 0.43679 0.33737 0.0
H1325 H 0.37063 0.39328 0.35084 0.0
H1326 H 0.26885 0.33379 0.34386 0.0
H1327 H 0.31773 0.34759 0.33672 0.0
H1328 H 0.29998 0.49499 0.29577 0.0
H1329 H 0.34711 0.50504 0.28749 0.0
H1330 H 0.26539 0.48052 0.33038 0.0
H1331 H 0.23142 0.43533 0.34221 0.0
C1332 C 0.54591 0.8416 0.3065 0.0
C1333 C 0.54735 0.87651 0.3128 0.0
C1334 C 0.61166 0.89899 0.33343 0.0
C1335 C 0.61095 0.86427 0.32717 0.0
N1336 N 0.58171 0.80753 0.30091 0.0
N1337 N 0.57406 0.93095 0.34073 0.0
C1338 C 0.57871 0.83641 0.31235 0.0
C1339 C 0.57788 0.90277 0.32897 0.0
N1340 N 0.51311 0.81333 0.29476 0.0
N1341 N 0.64552 0.92954 0.34235 0.0
H1342 H 0.54824 0.9324 0.33943 0.0
H1343 H 0.59406 0.94953 0.35422 0.0
H1344 H 0.67044 0.92789 0.34697 0.0
H1345 H 0.64943 0.95696 0.3439 0.0
H1346 H 0.50798 0.78562 0.29227 0.0
H1347 H 0.48914 0.81648 0.28974 0.0
H1348 H 0.56237 0.78962 0.28691 0.0
H1349 H 0.60521 0.80286 0.30405 0.0
C1350 C 0.18004 0.70166 0.30737 0.0
C1351 C 0.14366 0.66976 0.31525 0.0
C1352 C 0.1329 0.7118 0.34406 0.0
C1353 C 0.1675 0.74371 0.33424 0.0
N1354 N 0.23363 0.76204 0.32168 0.0
N1355 N 0.0963 0.64282 0.34971 0.0
C1356 C 0.19426 0.7368 0.32043 0.0
C1357 C 0.1232 0.67418 0.33632 0.0
N1358 N 0.20075 0.69928 0.2871 0.0
N1359 N 0.11026 0.71724 0.36146 0.0
H1360 H 0.09196 0.61552 0.34635 0.0
H1361 H 0.08223 0.64435 0.36622 0.0
H1362 H 0.11935 0.74384 0.36964 0.0
H1363 H 0.08228 0.69591 0.36707 0.0
H1364 H 0.22563 0.72326 0.27977 0.0
H1365 H 0.19178 0.67442 0.27651 0.0
H1366 H 0.25448 0.75604 0.31391 0.0
H1367 H 0.24515 0.78597 0.33357 0.0
C1368 C 0.79897 0.99961 0.39374 0.0
C1369 C 0.81201 0.02762 0.37387 0.0
C1370 C 0.76775 0.978 0.34385 0.0
C1371 C 0.75658 0.94934 0.36299 0.0
N1372 N 0.77004 0.93256 0.4048 0.0
N1373 N 0.81952 0.03882 0.32818 0.0
C1374 C 0.77459 0.96003 0.3876 0.0
C1375 C 0.79987 0.01537 0.34834 0.0
N1376 N 0.80934 0.01063 0.4186 0.0
N1377 N 0.74628 0.97053 0.3219 0.0
H1378 H 0.8453 0.06506 0.3305 0.0
H1379 H 0.81331 0.02981 0.30917 0.0
H1380 H 0.72098 0.9444 0.31859 0.0
H1381 H 0.75118 0.99158 0.30845 0.0
H1382 H 0.79642 0.99226 0.43412 0.0
H1383 H 0.82935 0.03861 0.42388 0.0
H1384 H 0.78589 0.93864 0.42185 0.0
H1385 H 0.75347 0.9034 0.40101 0.0
C1386 C 0.01788 0.78292 0.36173 0.0
C1387 C 0.01326 0.80658 0.37972 0.0
C1388 C 0.08597 0.84608 0.3826 0.0
C1389 C 0.09041 0.82027 0.36604 0.0
N1390 N 0.05827 0.75707 0.34758 0.0
N1391 N 0.04318 0.86602 0.4029 0.0
C1392 C 0.05568 0.78683 0.3577 0.0
C1393 C 0.04746 0.83994 0.38866 0.0
N1394 N 0.98611 0.75708 0.34786 0.0
N1395 N 0.11826 0.87391 0.39505 0.0
H1396 H 0.01582 0.86203 0.40841 0.0
H1397 H 0.06636 0.89311 0.40739 0.0
H1398 H 0.14686 0.88041 0.39076 0.0
H1399 H 0.11691 0.88955 0.41047 0.0
H1400 H 0.98806 0.74037 0.33336 0.0
H1401 H 0.95895 0.75603 0.34861 0.0
H1402 H 0.03386 0.73002 0.34465 0.0
H1403 H 0.08511 0.75926 0.34297 0.0
C1404 C 0.205 0.20199 0.35313 0.0
C1405 C 0.22192 0.20629 0.37795 0.0
C1406 C 0.19196 0.24475 0.39056 0.0
C1407 C 0.18539 0.2492 0.36441 0.0
N1408 N 0.15757 0.20882 0.32763 0.0
N1409 N 0.22564 0.22735 0.42192 0.0
C1410 C 0.18417 0.22153 0.34715 0.0
C1411 C 0.2135 0.22622 0.39722 0.0
N1412 N 0.20812 0.17893 0.33525 0.0
N1413 N 0.17214 0.25249 0.40892 0.0
H1414 H 0.23738 0.21082 0.42864 0.0
H1415 H 0.22509 0.24585 0.43563 0.0
H1416 H 0.14944 0.25775 0.40402 0.0
H1417 H 0.17312 0.24731 0.4284 0.0
H1418 H 0.2022 0.1799 0.31586 0.0
H1419 H 0.21698 0.15915 0.33957 0.0
H1420 H 0.15202 0.18575 0.31596 0.0
H1421 H 0.13616 0.21671 0.32619 0.0
C1422 C 0.69333 0.5334 0.71574 0.0
C1423 C 0.65788 0.53455 0.7173 0.0
C1424 C 0.69328 0.60172 0.70414 0.0
C1425 C 0.72893 0.60051 0.70054 0.0
N1426 N 0.75848 0.56019 0.69817 0.0
N1427 N 0.62184 0.56604 0.70578 0.0
C1428 C 0.72751 0.56475 0.70464 0.0
C1429 C 0.65717 0.56744 0.70894 0.0
N1430 N 0.69521 0.50327 0.72621 0.0
N1431 N 0.69375 0.63579 0.70439 0.0
H1432 H 0.59492 0.54126 0.70922 0.0
H1433 H 0.61925 0.58801 0.69721 0.0
H1434 H 0.7191 0.66208 0.70199 0.0
H1435 H 0.66947 0.63827 0.70968 0.0
H1436 H 0.72155 0.50322 0.72887 0.0
H1437 H 0.67091 0.47952 0.73421 0.0
H1438 H 0.75731 0.53383 0.69795 0.0
H1439 H 0.78366 0.58181 0.69013 0.0
C1440 C 0.44806 0.09077 0.70747 0.0
C1441 C 0.48441 0.12326 0.71394 0.0
C1442 C 0.45505 0.16381 0.70549 0.0
C1443 C 0.41686 0.13062 0.70224 0.0
N1444 N 0.37744 0.06159 0.70671 0.0
N1445 N 0.52268 0.191 0.72063 0.0
C1446 C 0.41358 0.09389 0.70509 0.0
C1447 C 0.48815 0.15995 0.71289 0.0
N1448 N 0.44653 0.05661 0.70343 0.0
N1449 N 0.45977 0.19928 0.70251 0.0
H1450 H 0.5476 0.18931 0.72546 0.0
H1451 H 0.52616 0.21799 0.72371 0.0
H1452 H 0.43609 0.20356 0.70137 0.0
H1453 H 0.48699 0.22407 0.70036 0.0
H1454 H 0.42182 0.03268 0.69602 0.0
H1455 H 0.47141 0.05355 0.70478 0.0
H1456 H 0.37363 0.03492 0.7116 0.0
H1457 H 0.35103 0.06169 0.70589 0.0
C1458 C 0.92804 0.36947 0.69415 0.0
C1459 C 0.90567 0.37143 0.71486 0.0
C1460 C 0.87115 0.30164 0.71932 0.0
C1461 C 0.8921 0.29917 0.69775 0.0
N1462 N 0.93724 0.33029 0.66277 0.0
N1463 N 0.85025 0.33968 0.74345 0.0
C1464 C 0.91934 0.33299 0.68446 0.0
C1465 C 0.8755 0.33755 0.72628 0.0
N1466 N 0.95868 0.40247 0.6845 0.0
N1467 N 0.84765 0.26984 0.73365 0.0
H1468 H 0.8525 0.36551 0.74904 0.0
H1469 H 0.82487 0.31586 0.7503 0.0
H1470 H 0.84133 0.24241 0.72869 0.0
H1471 H 0.83627 0.27088 0.75148 0.0
H1472 H 0.97918 0.4032 0.67148 0.0
H1473 H 0.96508 0.42953 0.69072 0.0
H1474 H 0.95372 0.35311 0.65044 0.0
H1475 H 0.93366 0.30443 0.65626 0.0
C1476 C 0.18533 0.01348 0.64347 0.0
C1477 C 0.19115 0.98176 0.64067 0.0
C1478 C 0.25866 0.02024 0.65714 0.0
C1479 C 0.25286 0.05215 0.66036 0.0
N1480 N 0.20513 0.07387 0.66386 0.0
N1481 N 0.22955 0.95184 0.65004 0.0
C1482 C 0.2145 0.04712 0.65597 0.0
C1483 C 0.22677 0.98427 0.64906 0.0
N1484 N 0.15287 0.01246 0.63289 0.0
N1485 N 0.29457 0.02405 0.66223 0.0
H1486 H 0.2065 0.92508 0.64459 0.0
H1487 H 0.25305 0.95057 0.65831 0.0
H1488 H 0.31673 0.04807 0.67119 0.0
H1489 H 0.30278 0.00417 0.65691 0.0
H1490 H 0.14968 0.03651 0.63128 0.0
H1491 H 0.13059 0.98846 0.62368 0.0
H1492 H 0.17631 0.06884 0.6642 0.0
H1493 H 0.22497 0.09997 0.67195 0.0
C1494 C 1.00032 0.18146 0.64854 0.0
C1495 C 0.03454 0.21785 0.6458 0.0
C1496 C 0.99701 0.24829 0.66035 0.0
C1497 C 0.96236 0.2118 0.66344 0.0
N1498 N 0.93564 0.14358 0.66696 0.0
N1499 N 0.06825 0.28494 0.65545 0.0
C1500 C 0.96551 0.17838 0.65967 0.0
C1501 C 0.03368 0.25094 0.65378 0.0
N1502 N 1.00022 0.14979 0.63917 0.0
N1503 N 0.99483 0.28074 0.66361 0.0
H1504 H 0.09548 0.28753 0.65104 0.0
H1505 H 0.07048 0.30953 0.66351 0.0
H1506 H 0.97016 0.28025 0.67146 0.0
H1507 H 0.017 0.30784 0.65808 0.0
H1508 H 0.97476 0.12324 0.63731 0.0
H1509 H 0.02517 0.1506 0.63141 0.0
H1510 H 0.93767 0.11882 0.66732 0.0
H1511 H 0.91067 0.1405 0.67566 0.0
C1512 C 0.75964 0.78036 0.64824 0.0
C1513 C 0.79173 0.81592 0.64039 0.0
C1514 C 0.83755 0.79676 0.65777 0.0
C1515 C 0.80573 0.7585 0.6613 0.0
N1516 N 0.73559 0.71421 0.65851 0.0
N1517 N 0.86169 0.85549 0.63361 0.0
C1518 C 0.76657 0.75043 0.65598 0.0
C1519 C 0.83081 0.82356 0.64418 0.0
N1520 N 0.72257 0.77565 0.64943 0.0
N1521 N 0.87429 0.80831 0.66734 0.0
H1522 H 0.85814 0.87542 0.62295 0.0
H1523 H 0.89038 0.86014 0.63322 0.0
H1524 H 0.88266 0.79048 0.67621 0.0
H1525 H 0.89632 0.83697 0.66804 0.0
H1526 H 0.69862 0.75181 0.65761 0.0
H1527 H 0.71648 0.79729 0.64474 0.0
H1528 H 0.70748 0.70553 0.65145 0.0
H1529 H 0.73852 0.69239 0.66659 0.0
C1530 C 0.97449 0.79794 0.63555 0.0
C1531 C 1.00885 0.80282 0.64839 0.0
C1532 C 0.96741 0.74411 0.67259 0.0
C1533 C 0.93244 0.74183 0.66284 0.0
N1534 N 0.90332 0.76811 0.63438 0.0
N1535 N 0.03469 0.78665 0.68542 0.0
C1536 C 0.93627 0.76988 0.64458 0.0
C1537 C 1.00413 0.77812 0.66911 0.0
N1538 N 0.97813 0.81778 0.61347 0.0
N1539 N 0.96647 0.71296 0.68353 0.0
H1540 H 0.06035 0.8133 0.68555 0.0
H1541 H 0.03236 0.76927 0.70087 0.0
H1542 H 0.94045 0.6872 0.68632 0.0
H1543 H 0.99196 0.71222 0.68825 0.0
H1544 H 0.95463 0.81174 0.60132 0.0
H1545 H 1.00501 0.83839 0.60586 0.0
H1546 H 0.90384 0.78967 0.62311 0.0
H1547 H 0.875 0.74657 0.63891 0.0
C1548 C 0.21613 0.17544 0.638 0.0
C1549 C 0.21721 0.20947 0.64635 0.0
C1550 C 0.28058 0.22952 0.66759 0.0
C1551 C 0.27985 0.19539 0.65972 0.0
N1552 N 0.25184 0.14163 0.63076 0.0
N1553 N 0.24286 0.26068 0.67701 0.0
C1554 C 0.24843 0.16939 0.64355 0.0
C1555 C 0.24706 0.23386 0.66365 0.0
N1556 N 0.18414 0.14875 0.62468 0.0
N1557 N 0.31427 0.25915 0.67749 0.0
H1558 H 0.21697 0.26209 0.67638 0.0
H1559 H 0.26257 0.27791 0.69112 0.0
H1560 H 0.33911 0.25709 0.68158 0.0
H1561 H 0.3182 0.2864 0.68029 0.0
H1562 H 0.17903 0.12134 0.62083 0.0
H1563 H 0.1607 0.1526 0.61946 0.0
H1564 H 0.23342 0.12548 0.61583 0.0
H1565 H 0.27479 0.13614 0.63388 0.0
C1566 C 0.8142 0.02369 0.6373 0.0
C1567 C 0.79772 0.99411 0.65605 0.0
C1568 C 0.8027 0.04069 0.68792 0.0
C1569 C 0.82172 0.07077 0.66982 0.0
N1570 N 0.85749 0.09116 0.62973 0.0
N1571 N 0.79229 0.97912 0.70133 0.0
C1572 C 0.83105 0.06241 0.64519 0.0
C1573 C 0.79708 0.00401 0.68207 0.0
N1574 N 0.81326 0.01515 0.61188 0.0
N1575 N 0.7878 0.04615 0.71008 0.0
H1576 H 0.79199 0.95349 0.6981 0.0
H1577 H 0.79438 0.98655 0.72064 0.0
H1578 H 0.78907 0.07186 0.71437 0.0
H1579 H 0.77058 0.02394 0.72272 0.0
H1580 H 0.82061 0.03549 0.59744 0.0
H1581 H 0.80262 0.98753 0.60501 0.0
H1582 H 0.86796 0.08617 0.61264 0.0
H1583 H 0.87252 0.11972 0.63534 0.0
C1584 C 0.46995 0.34095 0.68424 0.0
C1585 C 0.48168 0.35174 0.71 0.0
C1586 C 0.44108 0.2841 0.72259 0.0
C1587 C 0.42388 0.27516 0.69771 0.0
N1588 N 0.41592 0.29906 0.65702 0.0
N1589 N 0.47663 0.33288 0.7545 0.0
C1590 C 0.43672 0.30466 0.67909 0.0
C1591 C 0.46678 0.32306 0.72943 0.0
N1592 N 0.491 0.36468 0.66452 0.0
N1593 N 0.43449 0.2555 0.73939 0.0
H1594 H 0.49749 0.3603 0.76032 0.0
H1595 H 0.46246 0.31416 0.76969 0.0
H1596 H 0.41672 0.22664 0.73516 0.0
H1597 H 0.44973 0.26021 0.7566 0.0
H1598 H 0.48484 0.35653 0.64535 0.0
H1599 H 0.51759 0.39001 0.6673 0.0
H1600 H 0.42222 0.32096 0.64396 0.0
H1601 H 0.38994 0.27372 0.65321 0.0
C1602 C 0.68872 0.11638 0.71417 0.0
C1603 C 0.68108 0.14708 0.71118 0.0
C1604 C 0.7492 0.18801 0.69638 0.0
C1605 C 0.75728 0.15738 0.69911 0.0
N1606 N 0.72871 0.08903 0.7012 0.0
N1607 N 0.69937 0.2057 0.68861 0.0
C1608 C 0.72503 0.12049 0.70509 0.0
C1609 C 0.70977 0.18076 0.69869 0.0
N1610 N 0.66203 0.08363 0.72638 0.0
N1611 N 0.77889 0.22443 0.69285 0.0
H1612 H 0.67016 0.1996 0.688 0.0
H1613 H 0.71866 0.2296 0.67787 0.0
H1614 H 0.80762 0.2308 0.69083 0.0
H1615 H 0.7751 0.24819 0.69378 0.0
H1616 H 0.66831 0.06242 0.7319 0.0
H1617 H 0.63446 0.07858 0.73238 0.0
H1618 H 0.70544 0.0611 0.7032 0.0
H1619 H 0.75362 0.09109 0.6925 0.0
C1620 C 0.90377 0.56082 0.68276 0.0
C1621 C 0.90094 0.54675 0.70803 0.0
C1622 C 0.86526 0.58007 0.72049 0.0
C1623 C 0.87552 0.59992 0.6967 0.0
N1624 N 0.91449 0.61548 0.65803 0.0
N1625 N 0.88103 0.5459 0.75213 0.0
C1626 C 0.89748 0.59201 0.67857 0.0
C1627 C 0.8822 0.55717 0.72728 0.0
N1628 N 0.91125 0.54396 0.66253 0.0
N1629 N 0.83807 0.58152 0.73616 0.0
H1630 H 0.89134 0.52781 0.75797 0.0
H1631 H 0.87208 0.55664 0.76726 0.0
H1632 H 0.82375 0.5966 0.73151 0.0
H1633 H 0.82665 0.56449 0.75244 0.0
H1634 H 0.91089 0.55208 0.64359 0.0
H1635 H 0.91209 0.51865 0.66431 0.0
H1636 H 0.93362 0.61254 0.64555 0.0
H1637 H 0.91297 0.6402 0.65521 0.0
C1638 C 0.46399 0.96995 0.2258 0.0
C1639 C 0.45344 0.93089 0.22833 0.0
C1640 C 0.47841 0.93253 0.18481 0.0
C1641 C 0.48674 0.97088 0.18179 0.0
N1642 N 0.47592 0.02142 0.19668 0.0
N1643 N 0.44033 0.87245 0.20745 0.0
C1644 C 0.47565 0.988 0.20141 0.0
C1645 C 0.45726 0.91134 0.20686 0.0
N1646 N 0.46547 0.99074 0.24686 0.0
N1647 N 0.49261 0.91693 0.16756 0.0
H1648 H 0.4239 0.85606 0.22308 0.0
H1649 H 0.43911 0.85635 0.19151 0.0
H1650 H 0.50935 0.93166 0.15161 0.0
H1651 H 0.4909 0.89058 0.17041 0.0
H1652 H 0.477 0.02025 0.24632 0.0
H1653 H 0.45899 0.97949 0.26535 0.0
H1654 H 0.4647 0.03334 0.20953 0.0
H1655 H 0.48337 0.03491 0.17882 0.0
C1656 C 0.08931 0.50802 0.2097 0.0
C1657 C 0.08037 0.52587 0.22983 0.0
C1658 C 0.03604 0.53473 0.20136 0.0
C1659 C 0.04045 0.51198 0.18239 0.0
N1660 N 0.06694 0.47156 0.17017 0.0
N1661 N 0.03659 0.5466 0.24668 0.0
C1662 C 0.06616 0.49721 0.18686 0.0
C1663 C 0.05128 0.53657 0.22621 0.0
N1664 N 0.12079 0.50274 0.21277 0.0
N1665 N 0.01795 0.55526 0.19551 0.0
H1666 H 0.04485 0.54566 0.26556 0.0
H1667 H 0.01285 0.55139 0.24516 0.0
H1668 H 1.00776 0.55591 0.17714 0.0
H1669 H 0.01713 0.57485 0.20814 0.0
H1670 H 0.13176 0.49248 0.19852 0.0
H1671 H 0.13176 0.49248 0.19852 0.0
H1672 H 0.08168 0.4566 0.17395 0.0
H1673 H 0.04993 0.46256 0.15354 0.0
C1674 C 0.49824 0.53021 0.23211 0.0
C1675 C 0.49299 0.56234 0.23536 0.0
C1676 C 0.51783 0.58374 0.19162 0.0
C1677 C 0.52074 0.55035 0.18793 0.0
N1678 N 0.50345 0.48706 0.20222 0.0
N1679 N 0.48881 0.61456 0.21614 0.0
C1680 C 0.50757 0.52205 0.20742 0.0
C1681 C 0.49995 0.5875 0.21442 0.0
N1682 N 0.49665 0.50868 0.25281 0.0
N1683 N 0.53382 0.61271 0.17403 0.0
H1684 H 0.47508 0.61766 0.23237 0.0
H1685 H 0.48965 0.63131 0.20069 0.0
H1686 H 0.54764 0.61141 0.15729 0.0
H1687 H 0.5362 0.63929 0.177 0.0
H1688 H 0.50446 0.48753 0.25189 0.0
H1689 H 0.49131 0.51426 0.27144 0.0
H1690 H 0.49035 0.46407 0.21491 0.0
H1691 H 0.50933 0.47987 0.18419 0.0
C1692 C 0.95296 0.43425 0.80972 0.0
C1693 C 0.96634 0.46014 0.78875 0.0
C1694 C 0.02134 0.50704 0.81479 0.0
C1695 C 1.01084 0.47935 0.83448 0.0
N1696 N 0.97117 0.41366 0.84833 0.0
N1697 N 0.01811 0.51812 0.76953 0.0
C1698 C 0.97787 0.44207 0.83132 0.0
C1699 C 1.00192 0.49575 0.79076 0.0
N1700 N 0.916 0.40285 0.80941 0.0
N1701 N 0.04899 0.54437 0.81925 0.0
H1702 H 1.00559 0.51037 0.75132 0.0
H1703 H 0.04598 0.54247 0.76951 0.0
H1704 H 0.06326 0.55397 0.83684 0.0
H1705 H 0.05484 0.56635 0.80638 0.0
H1706 H 0.90342 0.38514 0.82528 0.0
H1707 H 0.8964 0.39666 0.79422 0.0
H1708 H 0.94986 0.38512 0.84544 0.0
H1709 H 0.9894 0.41777 0.864 0.0
C1710 C 0.59735 0.50802 0.81587 0.0
C1711 C 0.57067 0.49292 0.79495 0.0
C1712 C 0.5184 0.49046 0.82204 0.0
C1713 C 0.54637 0.51107 0.84146 0.0
N1714 N 0.61461 0.54554 0.85481 0.0
N1715 N 0.50798 0.47865 0.77662 0.0
C1716 C 0.58651 0.52145 0.83791 0.0
C1717 C 0.53172 0.48652 0.7976 0.0
N1718 N 0.63252 0.50861 0.81504 0.0
N1719 N 0.47897 0.47395 0.82703 0.0
H1720 H 0.51723 0.47779 0.75801 0.0
H1721 H 0.48071 0.4773 0.77737 0.0
H1722 H 0.46798 0.47506 0.84504 0.0
H1723 H 0.45738 0.45572 0.81416 0.0
H1724 H 0.65134 0.51594 0.83077 0.0
H1725 H 0.64104 0.49813 0.79952 0.0
H1726 H 0.6447 0.55697 0.85164 0.0
H1727 H 0.60824 0.55704 0.87076 0.0
C1728 C 0.47995 0.03501 0.7914 0.0
C1729 C 0.51838 0.06698 0.78813 0.0
C1730 C 0.53485 0.0567 0.83185 0.0
C1731 C 0.49496 0.02796 0.83601 0.0
N1732 N 0.42744 0.99878 0.82152 0.0
N1733 N 0.57903 0.11408 0.80827 0.0
C1734 C 0.46683 0.01999 0.81633 0.0
C1735 C 0.54491 0.07963 0.80926 0.0
N1736 N 0.45647 0.0176 0.77064 0.0
N1737 N 0.56356 0.06111 0.84866 0.0
H1738 H 0.58664 0.13258 0.79264 0.0
H1739 H 0.59751 0.12599 0.82406 0.0
H1740 H 0.5579 0.04393 0.86482 0.0
H1741 H 0.59349 0.07922 0.84508 0.0
H1742 H 0.42953 0.99225 0.77208 0.0
H1743 H 0.46587 0.02579 0.75182 0.0
H1744 H 0.40587 0.99496 0.80824 0.0
H1745 H 0.41653 0.98886 0.83988 0.0
C1746 C 0.12358 0.30027 0.56403 0.0
C1747 C 0.11619 0.26207 0.56572 0.0
C1748 C 0.13812 0.26625 0.5211 0.0
C1749 C 0.14261 0.30334 0.51895 0.0
N1750 N 0.12758 0.35003 0.53617 0.0
N1751 N 0.10592 0.20546 0.54346 0.0
C1752 C 0.13125 0.31842 0.53971 0.0
C1753 C 0.12003 0.24398 0.54343 0.0
N1754 N 0.126 0.32035 0.5857 0.0
N1755 N 0.15308 0.253 0.50268 0.0
H1756 H 0.09154 0.18817 0.55925 0.0
H1757 H 0.1048 0.19029 0.52702 0.0
H1758 H 0.16781 0.26873 0.48645 0.0
H1759 H 0.15412 0.22784 0.50474 0.0
H1760 H 0.13517 0.34943 0.58545 0.0
H1761 H 0.12317 0.30935 0.60414 0.0
H1762 H 0.11603 0.36017 0.55011 0.0
H1763 H 0.13197 0.36346 0.51839 0.0
C1764 C 0.70665 0.81502 0.55787 0.0
C1765 C 0.72121 0.84958 0.57199 0.0
C1766 C 0.69455 0.87389 0.53915 0.0
C1767 C 0.68782 0.84319 0.52283 0.0
N1768 N 0.68812 0.7841 0.51645 0.0
N1769 N 0.69777 0.8927 0.58322 0.0
C1770 C 0.69441 0.81377 0.53203 0.0
C1771 C 0.70639 0.874 0.5648 0.0
N1772 N 0.69608 0.78162 0.57041 0.0
N1773 N 0.69008 0.90328 0.53016 0.0
H1774 H 0.69986 0.88811 0.60272 0.0
H1775 H 0.68353 0.90811 0.57931 0.0
H1776 H 0.68177 0.90449 0.51132 0.0
H1777 H 0.69821 0.92798 0.5408 0.0
H1778 H 0.68256 0.75504 0.5614 0.0
H1779 H 0.69393 0.7799 0.59037 0.0
H1780 H 0.69619 0.764 0.52164 0.0
H1781 H 0.67771 0.78132 0.49771 0.0
C1782 C 0.1611 0.86853 0.56003 0.0
C1783 C 0.15594 0.90083 0.56227 0.0
C1784 C 0.18542 0.92298 0.51971 0.0
C1785 C 0.18853 0.88957 0.51697 0.0
N1786 N 0.16984 0.82602 0.53154 0.0
N1787 N 0.15495 0.95416 0.54226 0.0
C1788 C 0.17331 0.86089 0.53621 0.0
C1789 C 0.16545 0.92659 0.54141 0.0
N1790 N 0.15648 0.84626 0.58098 0.0
N1791 N 0.20309 0.95204 0.50227 0.0
H1792 H 0.14007 0.95731 0.55782 0.0
H1793 H 0.15762 0.97148 0.52669 0.0
H1794 H 0.21868 0.95093 0.48641 0.0
H1795 H 0.20498 0.9785 0.50454 0.0
H1796 H 0.16422 0.82504 0.58107 0.0
H1797 H 0.14833 0.85109 0.599 0.0
H1798 H 0.15528 0.80274 0.54387 0.0
H1799 H 0.17794 0.8192 0.51413 0.0
C1800 C 0.65172 0.81697 0.13298 0.0
C1801 C 0.61374 0.78404 0.13067 0.0
C1802 C 0.62035 0.76349 0.17377 0.0
C1803 C 0.65673 0.79808 0.17686 0.0
N1804 N 0.70219 0.86175 0.16172 0.0
N1805 N 0.55827 0.73035 0.15093 0.0
C1806 C 0.67092 0.82608 0.15716 0.0
C1807 C 0.59691 0.75862 0.15174 0.0
N1808 N 0.67044 0.83852 0.11185 0.0
N1809 N 0.60897 0.7346 0.19125 0.0
H1810 H 0.54001 0.72639 0.13529 0.0
H1811 H 0.54337 0.7133 0.16666 0.0
H1812 H 0.62565 0.73661 0.20736 0.0
H1813 H 0.5848 0.70737 0.18856 0.0
H1814 H 0.69978 0.86038 0.11203 0.0
H1815 H 0.65812 0.83231 0.09355 0.0
H1816 H 0.71123 0.88441 0.14888 0.0
H1817 H 0.71657 0.86976 0.17937 0.0
C1818 C 0.18471 0.80943 0.12928 0.0
C1819 C 0.22495 0.81955 0.12728 0.0
C1820 C 0.23739 0.84889 0.16982 0.0
C1821 C 0.1964 0.83498 0.17295 0.0
N1822 N 0.13006 0.79265 0.15807 0.0
N1823 N 0.28678 0.83924 0.1489 0.0
C1824 C 0.1697 0.81225 0.15343 0.0
C1825 C 0.25044 0.83623 0.1486 0.0
N1826 N 0.16122 0.79911 0.10802 0.0
N1827 N 0.26416 0.87569 0.18619 0.0
H1828 H 0.29683 0.82882 0.13417 0.0
H1829 H 0.30497 0.84818 0.165 0.0
H1830 H 0.25624 0.88751 0.20121 0.0
H1831 H 0.29449 0.8892 0.18311 0.0
H1832 H 0.13273 0.79497 0.1083 0.0
H1833 H 0.17146 0.79875 0.08964 0.0
H1834 H 0.10973 0.77304 0.14514 0.0
H1835 H 0.11801 0.7928 0.17588 0.0
C1836 C 0.21681 0.45227 0.14831 0.0
C1837 C 0.19936 0.42826 0.12675 0.0
C1838 C 0.1722 0.37187 0.15478 0.0
C1839 C 0.19532 0.39534 0.17527 0.0
N1840 N 0.24094 0.45793 0.19184 0.0
N1841 N 0.16225 0.36477 0.10884 0.0
C1842 C 0.21753 0.43568 0.17227 0.0
C1843 C 0.17697 0.38791 0.12985 0.0
N1844 N 0.23243 0.49088 0.14581 0.0
N1845 N 0.14575 0.33417 0.15926 0.0
H1846 H 0.16503 0.3752 0.09021 0.0
H1847 H 0.14977 0.33518 0.10959 0.0
H1848 H 0.14175 0.32181 0.17741 0.0
H1849 H 0.12529 0.31622 0.14576 0.0
H1850 H 0.24227 0.50971 0.16125 0.0
H1851 H 0.23225 0.50371 0.12847 0.0
H1852 H 0.26146 0.48688 0.18983 0.0
H1853 H 0.24155 0.44697 0.20983 0.0
C1854 C 0.76715 0.58374 0.88087 0.0
C1855 C 0.79377 0.59614 0.90194 0.0
C1856 C 0.84457 0.64534 0.87425 0.0
C1857 C 0.81612 0.63732 0.85479 0.0
N1858 N 0.74797 0.60183 0.84145 0.0
N1859 N 0.85602 0.64438 0.91969 0.0
C1860 C 0.77674 0.60712 0.8585 0.0
C1861 C 0.83213 0.62838 0.89888 0.0
N1862 N 0.73311 0.5492 0.88192 0.0
N1863 N 0.88369 0.66887 0.8691 0.0
H1864 H 0.8475 0.63436 0.93835 0.0
H1865 H 0.88264 0.67012 0.91877 0.0
H1866 H 0.89397 0.68095 0.85105 0.0
H1867 H 0.90595 0.67292 0.88185 0.0
H1868 H 0.71443 0.53716 0.86624 0.0
H1869 H 0.72564 0.53079 0.89761 0.0
H1870 H 0.71815 0.58287 0.84469 0.0
H1871 H 0.75335 0.61874 0.82517 0.0
C1872 C 0.37692 0.194 0.89735 0.0
C1873 C 0.4099 0.1884 0.89875 0.0
C1874 C 0.39414 0.1596 0.85596 0.0
C1875 C 0.3644 0.16979 0.85345 0.0
N1876 N 0.33495 0.20588 0.86953 0.0
N1877 N 0.45468 0.17287 0.87721 0.0
C1878 C 0.35805 0.18981 0.87348 0.0
C1879 C 0.41998 0.17322 0.8774 0.0
N1880 N 0.36239 0.20168 0.91898 0.0
N1881 N 0.39674 0.13568 0.83855 0.0
H1882 H 0.47478 0.18344 0.89232 0.0
H1883 H 0.46517 0.16553 0.86109 0.0
H1884 H 0.3776 0.12407 0.82303 0.0
H1885 H 0.41539 0.12444 0.84095 0.0
H1886 H 0.33618 0.20245 0.91916 0.0
H1887 H 0.37391 0.20298 0.93722 0.0
H1888 H 0.3325 0.22381 0.88286 0.0
H1889 H 0.32177 0.20479 0.85193 0.0
C1890 C 0.82752 0.18029 0.89947 0.0
C1891 C 0.823 0.21277 0.90258 0.0
C1892 C 0.8518 0.23616 0.86012 0.0
C1893 C 0.8544 0.20268 0.85622 0.0
N1894 N 0.83541 0.1385 0.86966 0.0
N1895 N 0.81859 0.26437 0.88257 0.0
C1896 C 0.83934 0.17332 0.87515 0.0
C1897 C 0.8312 0.23836 0.8818 0.0
N1898 N 0.82189 0.15689 0.9199 0.0
N1899 N 0.87089 0.26689 0.84407 0.0
H1900 H 0.8019 0.26562 0.89774 0.0
H1901 H 0.82083 0.28152 0.86699 0.0
H1902 H 0.88798 0.26747 0.82857 0.0
H1903 H 0.87312 0.29327 0.84774 0.0
H1904 H 0.82897 0.13522 0.91953 0.0
H1905 H 0.81274 0.16091 0.93783 0.0
H1906 H 0.82133 0.11494 0.88181 0.0
H1907 H 0.84274 0.13211 0.85182 0.0
C1908 C 0.32666 0.15055 0.4639 0.0
C1909 C 0.28849 0.11796 0.46149 0.0
C1910 C 0.29438 0.0969 0.50454 0.0
C1911 C 0.33082 0.13132 0.50784 0.0
N1912 N 0.37733 0.19474 0.49278 0.0
N1913 N 0.23252 0.06438 0.48147 0.0
C1914 C 0.3457 0.15932 0.48813 0.0
C1915 C 0.27127 0.09235 0.48241 0.0
N1916 N 0.34547 0.17226 0.44285 0.0
N1917 N 0.28254 0.06789 0.52198 0.0
H1918 H 0.21445 0.06051 0.46574 0.0
H1919 H 0.21734 0.04751 0.4972 0.0
H1920 H 0.29901 0.06967 0.53816 0.0
H1921 H 0.25824 0.04079 0.51919 0.0
H1922 H 0.3749 0.19389 0.44303 0.0
H1923 H 0.33298 0.16638 0.42459 0.0
H1924 H 0.38688 0.21748 0.47996 0.0
H1925 H 0.39163 0.20255 0.51047 0.0
C1926 C 0.8946 0.19708 0.4655 0.0
C1927 C 0.90492 0.16845 0.46105 0.0
C1928 C 0.88179 0.14273 0.50425 0.0
C1929 C 0.8734 0.17257 0.50915 0.0
N1930 N 0.88325 0.23443 0.49714 0.0
N1931 N 0.91925 0.12164 0.47894 0.0
C1932 C 0.88368 0.20187 0.49064 0.0
C1933 C 0.90215 0.14382 0.48139 0.0
N1934 N 0.89265 0.2181 0.44559 0.0
N1935 N 0.86827 0.1121 0.52045 0.0
H1936 H 0.93517 0.12246 0.46266 0.0
H1937 H 0.92119 0.10569 0.49401 0.0
H1938 H 0.85206 0.10928 0.53696 0.0
H1939 H 0.86999 0.08775 0.51621 0.0
H1940 H 0.8812 0.23638 0.4475 0.0
H1941 H 0.89886 0.21473 0.42667 0.0
H1942 H 0.89388 0.25818 0.48511 0.0
H1943 H 0.87623 0.23917 0.51557 0.0
C1944 C 0.88269 0.76845 0.4841 0.0
C1945 C 0.85867 0.75361 0.4619 0.0
C1946 C 0.81054 0.69951 0.4877 0.0
C1947 C 0.83796 0.71022 0.50814 0.0
N1948 N 0.9041 0.75279 0.5235 0.0
N1949 N 0.80344 0.69897 0.44181 0.0
C1950 C 0.87513 0.74431 0.50585 0.0
C1951 C 0.82343 0.71753 0.46348 0.0
N1952 N 0.91214 0.80576 0.48472 0.0
N1953 N 0.77198 0.67233 0.49141 0.0
H1954 H 0.81342 0.7092 0.42338 0.0
H1955 H 0.77953 0.67115 0.44211 0.0
H1956 H 0.76106 0.65961 0.50922 0.0
H1957 H 0.75029 0.66585 0.4776 0.0
H1958 H 0.92824 0.81876 0.50125 0.0
H1959 H 0.91744 0.82468 0.46961 0.0
H1960 H 0.93282 0.7754 0.52121 0.0
H1961 H 0.9007 0.73516 0.53905 0.0
loop_
_geom_bond_atom_site_label_1
_geom_bond_atom_site_label_2
_geom_bond_distance
_geom_bond_site_symmetry_2
_ccdc_geom_bond_type
H0 C7 0.929 . S
H1 C10 0.930 . S
H2 C12 0.929 . S
H3 C4 0.969 . S
C4 H3 0.969 . S
C4 O5 1.550 . S
C4 H6 0.973 . S
O5 C4 1.550 . S
O5 C11 1.412 . S
H6 C4 0.973 . S
C7 H0 0.929 . S
C7 C8 1.400 . S
C7 C9 1.364 . S
C8 C7 1.400 . S
C8 C12 1.377 . S
C9 C7 1.364 . S
C9 C10 1.374 . S
C10 H1 0.930 . S
C10 C9 1.374 . S
C10 C11 1.383 . S
C11 O5 1.412 . S
C11 C10 1.383 . S
C11 C12 1.394 . S
C12 H2 0.929 . S
C12 C8 1.377 . S
C12 C11 1.394 . S
H13 C20 0.929 . S
H14 C23 0.930 . S
H15 C25 0.929 . S
H16 C17 0.969 . S
C17 H16 0.969 . S
C17 O18 1.550 . S
C17 H19 0.973 . S
O18 C17 1.550 . S
O18 C24 1.412 . S
H19 C17 0.973 . S
C20 H13 0.929 . S
C20 C21 1.400 . S
C20 C22 1.364 . S
C21 C20 1.400 . S
C21 C25 1.377 . S
C22 C20 1.364 . S
C22 C23 1.374 . S
C23 H14 0.930 . S
C23 C22 1.374 . S
C23 C24 1.383 . S
C24 O18 1.412 . S
C24 C23 1.383 . S
C24 C25 1.394 . S
C25 H15 0.929 . S
C25 C21 1.377 . S
C25 C24 1.394 . S
H26 C33 0.929 . S
H27 C36 0.930 . S
H28 C38 0.929 . S
H29 C30 0.969 . S
C30 H29 0.969 . S
C30 O31 1.550 . S
C30 H32 0.973 . S
O31 C30 1.550 . S
O31 C37 1.412 . S
H32 C30 0.973 . S
C33 H26 0.929 . S
C33 C34 1.400 . S
C33 C35 1.364 . S
C34 C33 1.400 . S
C34 C38 1.377 . S
C35 C33 1.364 . S
C35 C36 1.374 . S
C36 H27 0.930 . S
C36 C35 1.374 . S
C36 C37 1.383 . S
C37 O31 1.412 . S
C37 C36 1.383 . S
C37 C38 1.394 . S
C38 H28 0.929 . S
C38 C34 1.377 . S
C38 C37 1.394 . S
H39 C46 0.929 . S
H40 C49 0.930 . S
H41 C51 0.929 . S
H42 C43 0.969 . S
C43 H42 0.969 . S
C43 O44 1.550 . S
C43 H45 0.973 . S
O44 C43 1.550 . S
O44 C50 1.412 . S
H45 C43 0.973 . S
C46 H39 0.929 . S
C46 C47 1.400 . S
C46 C48 1.364 . S
C47 C46 1.400 . S
C47 C51 1.377 . S
C48 C46 1.364 . S
C48 C49 1.374 . S
C49 H40 0.930 . S
C49 C48 1.374 . S
C49 C50 1.383 . S
C50 O44 1.412 . S
C50 C49 1.383 . S
C50 C51 1.394 . S
C51 H41 0.929 . S
C51 C47 1.377 . S
C51 C50 1.394 . S
H52 C59 0.929 . S
H53 C62 0.930 . S
H54 C64 0.929 . S
H55 C56 0.969 . S
C56 H55 0.969 . S
C56 O57 1.550 . S
C56 H58 0.973 . S
O57 C56 1.550 . S
O57 C63 1.412 . S
H58 C56 0.973 . S
C59 H52 0.929 . S
C59 C60 1.400 . S
C59 C61 1.364 . S
C60 C59 1.400 . S
C60 C64 1.377 . S
C61 C59 1.364 . S
C61 C62 1.374 . S
C62 H53 0.930 . S
C62 C61 1.374 . S
C62 C63 1.383 . S
C63 O57 1.412 . S
C63 C62 1.383 . S
C63 C64 1.394 . S
C64 H54 0.929 . S
C64 C60 1.377 . S
C64 C63 1.394 . S
H65 C72 0.929 . S
H66 C75 0.930 . S
H67 C77 0.929 . S
H68 C69 0.969 . S
C69 H68 0.969 . S
C69 O70 1.550 . S
C69 H71 0.973 . S
O70 C69 1.550 . S
O70 C76 1.412 . S
H71 C69 0.973 . S
C72 H65 0.929 . S
C72 C73 1.400 . S
C72 C74 1.364 . S
C73 C72 1.400 . S
C73 C77 1.377 . S
C74 C72 1.364 . S
C74 C75 1.374 . S
C75 H66 0.930 . S
C75 C74 1.374 . S
C75 C76 1.383 . S
C76 O70 1.412 . S
C76 C75 1.383 . S
C76 C77 1.394 . S
C77 H67 0.929 . S
C77 C73 1.377 . S
C77 C76 1.394 . S
H78 C85 0.929 . S
H79 C88 0.930 . S
H80 C90 0.929 . S
H81 C82 0.969 . S
C82 H81 0.969 . S
C82 O83 1.550 . S
C82 H84 0.973 . S
O83 C82 1.550 . S
O83 C89 1.412 . S
H84 C82 0.973 . S
C85 H78 0.929 . S
C85 C86 1.400 . S
C85 C87 1.364 . S
C86 C85 1.400 . S
C86 C90 1.377 . S
C87 C85 1.364 . S
C87 C88 1.374 . S
C88 H79 0.930 . S
C88 C87 1.374 . S
C88 C89 1.383 . S
C89 O83 1.412 . S
C89 C88 1.383 . S
C89 C90 1.394 . S
C90 H80 0.929 . S
C90 C86 1.377 . S
C90 C89 1.394 . S
H91 C98 0.929 . S
H92 C101 0.930 . S
H93 C103 0.929 . S
H94 C95 0.969 . S
C95 H94 0.969 . S
C95 O96 1.550 . S
C95 H97 0.973 . S
O96 C95 1.550 . S
O96 C102 1.412 . S
H97 C95 0.973 . S
C98 H91 0.929 . S
C98 C99 1.400 . S
C98 C100 1.364 . S
C99 C98 1.400 . S
C99 C103 1.377 . S
C100 C98 1.364 . S
C100 C101 1.374 . S
C101 H92 0.930 . S
C101 C100 1.374 . S
C101 C102 1.383 . S
C102 O96 1.412 . S
C102 C101 1.383 . S
C102 C103 1.394 . S
C103 H93 0.929 . S
C103 C99 1.377 . S
C103 C102 1.394 . S
H104 C111 0.929 . S
H105 C114 0.930 . S
H106 C116 0.929 . S
H107 C108 0.969 . S
C108 H107 0.969 . S
C108 O109 1.550 . S
C108 H110 0.973 . S
O109 C108 1.550 . S
O109 C115 1.412 . S
H110 C108 0.973 . S
C111 H104 0.929 . S
C111 C112 1.400 . S
C111 C113 1.364 . S
C112 C111 1.400 . S
C112 C116 1.377 . S
C113 C111 1.364 . S
C113 C114 1.374 . S
C114 H105 0.930 . S
C114 C113 1.374 . S
C114 C115 1.383 . S
C115 O109 1.412 . S
C115 C114 1.383 . S
C115 C116 1.394 . S
C116 H106 0.929 . S
C116 C112 1.377 . S
C116 C115 1.394 . S
H117 C124 0.929 . S
H118 C127 0.930 . S
H119 C129 0.929 . S
H120 C121 0.969 . S
C121 H120 0.969 . S
C121 O122 1.550 . S
C121 H123 0.973 . S
O122 C121 1.550 . S
O122 C128 1.412 . S
H123 C121 0.973 . S
C124 H117 0.929 . S
C124 C125 1.400 . S
C124 C126 1.364 . S
C125 C124 1.400 . S
C125 C129 1.377 . S
C126 C124 1.364 . S
C126 C127 1.374 . S
C127 H118 0.930 . S
C127 C126 1.374 . S
C127 C128 1.383 . S
C128 O122 1.412 . S
C128 C127 1.383 . S
C128 C129 1.394 . S
C129 H119 0.929 . S
C129 C125 1.377 . S
C129 C128 1.394 . S
H130 C137 0.929 . S
H131 C140 0.930 . S
H132 C142 0.929 . S
H133 C134 0.969 . S
C134 H133 0.969 . S
C134 O135 1.550 . S
C134 H136 0.973 . S
O135 C134 1.550 . S
O135 C141 1.412 . S
H136 C134 0.973 . S
C137 H130 0.929 . S
C137 C138 1.400 . S
C137 C139 1.364 . S
C138 C137 1.400 . S
C138 C142 1.377 . S
C139 C137 1.364 . S
C139 C140 1.374 . S
C140 H131 0.930 . S
C140 C139 1.374 . S
C140 C141 1.383 . S
C141 O135 1.412 . S
C141 C140 1.383 . S
C141 C142 1.394 . S
C142 H132 0.929 . S
C142 C138 1.377 . S
C142 C141 1.394 . S
H143 C150 0.929 . S
H144 C153 0.930 . S
H145 C155 0.929 . S
H146 C147 0.969 . S
C147 H146 0.969 . S
C147 O148 1.550 . S
C147 H149 0.973 . S
O148 C147 1.550 . S
O148 C154 1.412 . S
H149 C147 0.973 . S
C150 H143 0.929 . S
C150 C151 1.400 . S
C150 C152 1.364 . S
C151 C150 1.400 . S
C151 C155 1.377 . S
C152 C150 1.364 . S
C152 C153 1.374 . S
C153 H144 0.930 . S
C153 C152 1.374 . S
C153 C154 1.383 . S
C154 O148 1.412 . S
C154 C153 1.383 . S
C154 C155 1.394 . S
C155 H145 0.929 . S
C155 C151 1.377 . S
C155 C154 1.394 . S
H156 C163 0.929 . S
H157 C166 0.930 . S
H158 C168 0.929 . S
H159 C160 0.969 . S
C160 H159 0.969 . S
C160 O161 1.550 . S
C160 H162 0.973 . S
O161 C160 1.550 . S
O161 C167 1.412 . S
H162 C160 0.973 . S
C163 H156 0.929 . S
C163 C164 1.400 . S
C163 C165 1.364 . S
C164 C163 1.400 . S
C164 C168 1.377 . S
C165 C163 1.364 . S
C165 C166 1.374 . S
C166 H157 0.930 . S
C166 C165 1.374 . S
C166 C167 1.383 . S
C167 O161 1.412 . S
C167 C166 1.383 . S
C167 C168 1.394 . S
C168 H158 0.929 . S
C168 C164 1.377 . S
C168 C167 1.394 . S
H169 C176 0.929 . S
H170 C179 0.930 . S
H171 C181 0.929 . S
H172 C173 0.969 . S
C173 H172 0.969 . S
C173 O174 1.550 . S
C173 H175 0.973 . S
O174 C173 1.550 . S
O174 C180 1.412 . S
H175 C173 0.973 . S
C176 H169 0.929 . S
C176 C177 1.400 . S
C176 C178 1.364 . S
C177 C176 1.400 . S
C177 C181 1.377 . S
C178 C176 1.364 . S
C178 C179 1.374 . S
C179 H170 0.930 . S
C179 C178 1.374 . S
C179 C180 1.383 . S
C180 O174 1.412 . S
C180 C179 1.383 . S
C180 C181 1.394 . S
C181 H171 0.929 . S
C181 C177 1.377 . S
C181 C180 1.394 . S
H182 C189 0.929 . S
H183 C192 0.930 . S
H184 C194 0.929 . S
H185 C186 0.969 . S
C186 H185 0.969 . S
C186 O187 1.550 . S
C186 H188 0.973 . S
O187 C186 1.550 . S
O187 C193 1.412 . S
H188 C186 0.973 . S
C189 H182 0.929 . S
C189 C190 1.400 . S
C189 C191 1.364 . S
C190 C189 1.400 . S
C190 C194 1.377 . S
C191 C189 1.364 . S
C191 C192 1.374 . S
C192 H183 0.930 . S
C192 C191 1.374 . S
C192 C193 1.383 . S
C193 O187 1.412 . S
C193 C192 1.383 . S
C193 C194 1.394 . S
C194 H184 0.929 . S
C194 C190 1.377 . S
C194 C193 1.394 . S
H195 C202 0.929 . S
H196 C205 0.930 . S
H197 C207 0.929 . S
H198 C199 0.969 . S
C199 H198 0.969 . S
C199 O200 1.550 . S
C199 H201 0.973 . S
O200 C199 1.550 . S
O200 C206 1.412 . S
H201 C199 0.973 . S
C202 H195 0.929 . S
C202 C203 1.400 . S
C202 C204 1.364 . S
C203 C202 1.400 . S
C203 C207 1.377 . S
C204 C202 1.364 . S
C204 C205 1.374 . S
C205 H196 0.930 . S
C205 C204 1.374 . S
C205 C206 1.383 . S
C206 O200 1.412 . S
C206 C205 1.383 . S
C206 C207 1.394 . S
C207 H197 0.929 . S
C207 C203 1.377 . S
C207 C206 1.394 . S
H208 C215 0.929 . S
H209 C218 0.930 . S
H210 C220 0.929 . S
H211 C212 0.969 . S
C212 H211 0.969 . S
C212 O213 1.550 . S
C212 H214 0.973 . S
O213 C212 1.550 . S
O213 C219 1.412 . S
H214 C212 0.973 . S
C215 H208 0.929 . S
C215 C216 1.400 . S
C215 C217 1.364 . S
C216 C215 1.400 . S
C216 C220 1.377 . S
C217 C215 1.364 . S
C217 C218 1.374 . S
C218 H209 0.930 . S
C218 C217 1.374 . S
C218 C219 1.383 . S
C219 O213 1.412 . S
C219 C218 1.383 . S
C219 C220 1.394 . S
C220 H210 0.929 . S
C220 C216 1.377 . S
C220 C219 1.394 . S
H221 C228 0.929 . S
H222 C231 0.930 . S
H223 C233 0.929 . S
H224 C225 0.969 . S
C225 H224 0.969 . S
C225 O226 1.550 . S
C225 H227 0.973 . S
O226 C225 1.550 . S
O226 C232 1.412 . S
H227 C225 0.973 . S
C228 H221 0.929 . S
C228 C229 1.400 . S
C228 C230 1.364 . S
C229 C228 1.400 . S
C229 C233 1.377 . S
C230 C228 1.364 . S
C230 C231 1.374 . S
C231 H222 0.930 . S
C231 C230 1.374 . S
C231 C232 1.383 . S
C232 O226 1.412 . S
C232 C231 1.383 . S
C232 C233 1.394 . S
C233 H223 0.929 . S
C233 C229 1.377 . S
C233 C232 1.394 . S
Tb234 N265 2.660 . S
Tb234 N272 2.600 . S
Tb234 O278 2.546 . S
Tb234 O279 2.610 1_566 S
Tb234 O281 2.320 1_565 S
Tb234 O282 2.552 1_565 S
Tb234 O283 2.413 1_565 S
Tb234 O285 2.362 1_556 S
Tb234 O286 2.421 . S
Tb234 C298 2.833 . S
C235 C238 1.432 . S
C235 C239 1.414 . S
C235 N242 1.359 . S
C236 C238 1.417 . S
C236 C240 1.432 . S
C236 C248 1.410 . S
C237 C239 1.444 . S
C237 C240 1.317 . S
C237 H260 0.929 . S
C238 C235 1.432 . S
C238 C236 1.417 . S
C238 N246 1.360 . S
C239 C235 1.414 . S
C239 C237 1.444 . S
C239 C244 1.385 . S
C240 C236 1.432 . S
C240 C237 1.317 . S
C240 H252 0.930 . S
C241 C243 1.392 . S
C241 C244 1.370 . S
C241 H253 0.931 . S
N242 C235 1.359 . S
N242 C243 1.327 . S
N242 Tb245 2.600 . S
C243 C241 1.392 . S
C243 N242 1.327 . S
C243 H250 0.930 . S
C244 C239 1.385 . S
C244 C241 1.370 . S
C244 H263 0.930 . S
Tb245 N242 2.600 . S
Tb245 N246 2.660 . S
Tb245 O279 2.362 . S
Tb245 O280 2.421 . S
Tb245 O284 2.546 . S
Tb245 O285 2.610 1_545 S
Tb245 O287 2.320 1_545 S
Tb245 O288 2.552 1_545 S
Tb245 O289 2.413 1_545 S
Tb245 C309 2.833 . S
N246 C238 1.360 . S
N246 Tb245 2.660 . S
N246 C247 1.305 . S
C247 N246 1.305 . S
C247 C249 1.407 . S
C247 H254 0.930 . S
C248 C236 1.410 . S
C248 C249 1.345 . S
C248 H256 0.930 . S
C249 C247 1.407 . S
C249 C248 1.345 . S
C249 H251 0.930 . S
H250 C243 0.930 . S
H251 C249 0.930 . S
H252 C240 0.930 . S
H253 C241 0.931 . S
H254 C247 0.930 . S
H255 C269 0.930 . S
H256 C248 0.930 . S
H257 C275 0.930 . S
H258 C266 0.930 . S
H259 C273 0.931 . S
H260 C237 0.929 . S
H261 C267 0.930 . S
H262 C300 0.930 . S
H263 C244 0.930 . S
H264 C299 0.929 . S
N265 Tb234 2.660 . S
N265 C266 1.305 . S
N265 C270 1.360 . S
C266 H258 0.930 . S
C266 N265 1.305 . S
C266 C269 1.407 . S
C267 H261 0.930 . S
C267 C268 1.410 . S
C267 C269 1.345 . S
C268 C267 1.410 . S
C268 C270 1.417 . S
C268 C300 1.432 . S
C269 H255 0.930 . S
C269 C266 1.407 . S
C269 C267 1.345 . S
C270 N265 1.360 . S
C270 C268 1.417 . S
C270 C274 1.432 . S
H271 C276 0.930 . S
N272 Tb234 2.600 . S
N272 C274 1.359 . S
N272 C275 1.327 . S
C273 H259 0.931 . S
C273 C275 1.392 . S
C273 C276 1.370 . S
C274 C270 1.432 . S
C274 N272 1.359 . S
C274 C277 1.414 . S
C275 H257 0.930 . S
C275 N272 1.327 . S
C275 C273 1.392 . S
C276 H271 0.930 . S
C276 C273 1.370 . S
C276 C277 1.385 . S
C277 C274 1.414 . S
C277 C276 1.385 . S
C277 C299 1.444 . S
O278 Tb234 2.546 . S
O278 C298 1.251 . S
O279 Tb234 2.610 1_544 S
O279 Tb245 2.362 . S
O279 C290 1.283 1_554 S
O280 Tb245 2.421 . S
O280 C297 1.262 1_554 S
O281 Tb234 2.320 1_545 S
O281 C297 1.260 . S
O282 Tb234 2.552 1_545 S
O282 C290 1.243 . S
O283 Tb234 2.413 1_545 S
O283 C298 1.256 1_545 S
O284 Tb245 2.546 . S
O284 C309 1.251 . S
O285 Tb234 2.362 1_554 S
O285 Tb245 2.610 1_565 S
O285 C301 1.283 . S
O286 Tb234 2.421 . S
O286 C308 1.262 1_556 S
O287 Tb245 2.320 1_565 S
O287 C308 1.260 . S
O288 Tb245 2.552 1_565 S
O288 C301 1.243 . S
O289 Tb245 2.413 1_565 S
O289 C309 1.256 1_565 S
C290 O279 1.283 1_556 S
C290 O282 1.243 . S
C291 C293 1.382 . S
C291 C295 1.393 1_545 S
C291 C298 1.500 1_545 S
C292 C293 1.400 . S
C292 C294 1.384 . S
C293 C291 1.382 . S
C293 C292 1.400 . S
C293 H310 0.930 . S
C294 C292 1.384 . S
C294 C296 1.392 1_545 S
C294 H311 0.931 . S
C295 C291 1.393 1_565 S
C295 C296 1.401 . S
C295 H312 0.930 . S
C296 C294 1.392 1_565 S
C296 C295 1.401 . S
C296 H313 0.930 . S
C297 O280 1.262 1_556 S
C297 O281 1.260 . S
C298 Tb234 2.833 . S
C298 O278 1.251 . S
C298 O283 1.256 1_565 S
C298 C291 1.500 1_565 S
C299 H264 0.929 . S
C299 C277 1.444 . S
C299 C300 1.317 . S
C300 H262 0.930 . S
C300 C268 1.432 . S
C300 C299 1.317 . S
C301 O285 1.283 . S
C301 O288 1.243 . S
C302 C303 1.353 1_545 S
C302 C306 1.418 . S
C302 C309 1.504 . S
C303 C302 1.353 1_565 S
C303 C304 1.400 . S
C303 H314 0.930 . S
C304 C303 1.400 . S
C304 C305 1.384 . S
C305 C304 1.384 . S
C305 C307 1.392 1_565 S
C305 H315 0.931 . S
C306 C302 1.418 . S
C306 C307 1.401 . S
C306 H316 0.930 . S
C307 C305 1.392 1_545 S
C307 C306 1.401 . S
C307 H317 0.930 . S
C308 O286 1.262 1_554 S
C308 O287 1.260 . S
C309 Tb245 2.833 . S
C309 O284 1.251 . S
C309 O289 1.256 1_545 S
C309 C302 1.504 . S
H310 C293 0.930 . S
H311 C294 0.931 . S
H312 C295 0.930 . S
H313 C296 0.930 . S
H314 C303 0.930 . S
H315 C305 0.931 . S
H316 C306 0.930 . S
H317 C307 0.930 . S
Tb318 N349 2.660 . S
Tb318 N356 2.600 . S
Tb318 O362 2.546 . S
Tb318 O363 2.610 1_456 S
Tb318 O365 2.320 1_455 S
Tb318 O366 2.552 1_455 S
Tb318 O367 2.413 1_455 S
Tb318 O369 2.362 1_556 S
Tb318 O370 2.421 . S
Tb318 C382 2.833 . S
C319 C322 1.432 . S
C319 C323 1.414 . S
C319 N326 1.359 . S
C320 C322 1.417 . S
C320 C324 1.432 . S
C320 C332 1.410 . S
C321 C323 1.444 . S
C321 C324 1.317 . S
C321 H344 0.929 . S
C322 C319 1.432 . S
C322 C320 1.417 . S
C322 N330 1.360 . S
C323 C319 1.414 . S
C323 C321 1.444 . S
C323 C328 1.385 . S
C324 C320 1.432 . S
C324 C321 1.317 . S
C324 H336 0.930 . S
C325 C327 1.392 . S
C325 C328 1.370 . S
C325 H337 0.931 . S
N326 C319 1.359 . S
N326 C327 1.327 . S
N326 Tb329 2.600 . S
C327 C325 1.392 . S
C327 N326 1.327 . S
C327 H334 0.930 . S
C328 C323 1.385 . S
C328 C325 1.370 . S
C328 H347 0.930 . S
Tb329 N326 2.600 . S
Tb329 N330 2.660 . S
Tb329 O363 2.362 . S
Tb329 O364 2.421 . S
Tb329 O368 2.546 . S
Tb329 O369 2.610 1_655 S
Tb329 O371 2.320 1_655 S
Tb329 O372 2.552 1_655 S
Tb329 O373 2.413 1_655 S
Tb329 C393 2.833 . S
N330 C322 1.360 . S
N330 Tb329 2.660 . S
N330 C331 1.305 . S
C331 N330 1.305 . S
C331 C333 1.407 . S
C331 H338 0.930 . S
C332 C320 1.410 . S
C332 C333 1.345 . S
C332 H340 0.930 . S
C333 C331 1.407 . S
C333 C332 1.345 . S
C333 H335 0.930 . S
H334 C327 0.930 . S
H335 C333 0.930 . S
H336 C324 0.930 . S
H337 C325 0.931 . S
H338 C331 0.930 . S
H339 C353 0.930 . S
H340 C332 0.930 . S
H341 C359 0.930 . S
H342 C350 0.930 . S
H343 C357 0.931 . S
H344 C321 0.929 . S
H345 C351 0.930 . S
H346 C384 0.930 . S
H347 C328 0.930 . S
H348 C383 0.929 . S
N349 Tb318 2.660 . S
N349 C350 1.305 . S
N349 C354 1.360 . S
C350 H342 0.930 . S
C350 N349 1.305 . S
C350 C353 1.407 . S
C351 H345 0.930 . S
C351 C352 1.410 . S
C351 C353 1.345 . S
C352 C351 1.410 . S
C352 C354 1.417 . S
C352 C384 1.432 . S
C353 H339 0.930 . S
C353 C350 1.407 . S
C353 C351 1.345 . S
C354 N349 1.360 . S
C354 C352 1.417 . S
C354 C358 1.432 . S
H355 C360 0.930 . S
N356 Tb318 2.600 . S
N356 C358 1.359 . S
N356 C359 1.327 . S
C357 H343 0.931 . S
C357 C359 1.392 . S
C357 C360 1.370 . S
C358 C354 1.432 . S
C358 N356 1.359 . S
C358 C361 1.414 . S
C359 H341 0.930 . S
C359 N356 1.327 . S
C359 C357 1.392 . S
C360 H355 0.930 . S
C360 C357 1.370 . S
C360 C361 1.385 . S
C361 C358 1.414 . S
C361 C360 1.385 . S
C361 C383 1.444 . S
O362 Tb318 2.546 . S
O362 C382 1.251 . S
O363 Tb318 2.610 1_654 S
O363 Tb329 2.362 . S
O363 C374 1.283 1_554 S
O364 Tb329 2.421 . S
O364 C381 1.262 1_554 S
O365 Tb318 2.320 1_655 S
O365 C381 1.260 . S
O366 Tb318 2.552 1_655 S
O366 C374 1.243 . S
O367 Tb318 2.413 1_655 S
O367 C382 1.256 1_655 S
O368 Tb329 2.546 . S
O368 C393 1.251 . S
O369 Tb318 2.362 1_554 S
O369 Tb329 2.610 1_455 S
O369 C385 1.283 . S
O370 Tb318 2.421 . S
O370 C392 1.262 1_556 S
O371 Tb329 2.320 1_455 S
O371 C392 1.260 . S
O372 Tb329 2.552 1_455 S
O372 C385 1.243 . S
O373 Tb329 2.413 1_455 S
O373 C393 1.256 1_455 S
C374 O363 1.283 1_556 S
C374 O366 1.243 . S
C375 C377 1.382 1_455 S
C375 C379 1.393 . S
C375 C382 1.500 . S
C376 C377 1.400 . S
C376 C378 1.384 . S
C377 C375 1.382 1_655 S
C377 C376 1.400 . S
C377 H394 0.930 . S
C378 C376 1.384 . S
C378 C380 1.392 1_655 S
C378 H395 0.931 . S
C379 C375 1.393 . S
C379 C380 1.401 . S
C379 H396 0.930 . S
C380 C378 1.392 1_455 S
C380 C379 1.401 . S
C380 H397 0.930 . S
C381 O364 1.262 1_556 S
C381 O365 1.260 . S
C382 Tb318 2.833 . S
C382 O362 1.251 . S
C382 O367 1.256 1_455 S
C382 C375 1.500 . S
C383 H348 0.929 . S
C383 C361 1.444 . S
C383 C384 1.317 . S
C384 H346 0.930 . S
C384 C352 1.432 . S
C384 C383 1.317 . S
C385 O369 1.283 . S
C385 O372 1.243 . S
C386 C387 1.382 . S
C386 C390 1.393 1_455 S
C386 C393 1.500 1_455 S
C387 C386 1.382 . S
C387 C388 1.400 . S
C387 H398 0.930 . S
C388 C387 1.400 . S
C388 C389 1.384 . S
C389 C388 1.384 . S
C389 C391 1.392 1_455 S
C389 H399 0.931 . S
C390 C386 1.393 1_655 S
C390 C391 1.401 . S
C390 H400 0.930 . S
C391 C389 1.392 1_655 S
C391 C390 1.401 . S
C391 H401 0.930 . S
C392 O370 1.262 1_554 S
C392 O371 1.260 . S
C393 Tb329 2.833 . S
C393 O368 1.251 . S
C393 O373 1.256 1_655 S
C393 C386 1.500 1_655 S
H394 C377 0.930 . S
H395 C378 0.931 . S
H396 C379 0.930 . S
H397 C380 0.930 . S
H398 C387 0.930 . S
H399 C389 0.931 . S
H400 C390 0.930 . S
H401 C391 0.930 . S
Tb402 N433 2.660 . S
Tb402 N440 2.600 . S
Tb402 O446 2.546 . S
Tb402 O447 2.610 . S
Tb402 O449 2.320 . S
Tb402 O450 2.552 . S
Tb402 O451 2.413 . S
Tb402 O453 2.362 . S
Tb402 O454 2.421 . S
Tb402 C466 2.833 . S
C403 C406 1.432 . S
C403 C407 1.414 . S
C403 N410 1.359 . S
C404 C406 1.417 . S
C404 C408 1.432 . S
C404 C416 1.410 . S
C405 C407 1.444 . S
C405 C408 1.317 . S
C405 H428 0.929 . S
C406 C403 1.432 . S
C406 C404 1.417 . S
C406 N414 1.360 . S
C407 C403 1.414 . S
C407 C405 1.444 . S
C407 C412 1.385 . S
C408 C404 1.432 . S
C408 C405 1.317 . S
C408 H420 0.930 . S
C409 C411 1.392 . S
C409 C412 1.370 . S
C409 H421 0.931 . S
N410 C403 1.359 . S
N410 C411 1.327 . S
N410 Tb413 2.600 . S
C411 C409 1.392 . S
C411 N410 1.327 . S
C411 H418 0.930 . S
C412 C407 1.385 . S
C412 C409 1.370 . S
C412 H431 0.930 . S
Tb413 N410 2.600 . S
Tb413 N414 2.660 . S
Tb413 O447 2.362 1_556 S
Tb413 O448 2.421 . S
Tb413 O452 2.546 . S
Tb413 O453 2.610 1_556 S
Tb413 O455 2.320 . S
Tb413 O456 2.552 . S
Tb413 O457 2.413 . S
Tb413 C477 2.833 . S
N414 C406 1.360 . S
N414 Tb413 2.660 . S
N414 C415 1.305 . S
C415 N414 1.305 . S
C415 C417 1.407 . S
C415 H422 0.930 . S
C416 C404 1.410 . S
C416 C417 1.345 . S
C416 H424 0.930 . S
C417 C415 1.407 . S
C417 C416 1.345 . S
C417 H419 0.930 . S
H418 C411 0.930 . S
H419 C417 0.930 . S
H420 C408 0.930 . S
H421 C409 0.931 . S
H422 C415 0.930 . S
H423 C437 0.930 . S
H424 C416 0.930 . S
H425 C443 0.930 . S
H426 C434 0.930 . S
H427 C441 0.931 . S
H428 C405 0.929 . S
H429 C435 0.930 . S
H430 C468 0.930 . S
H431 C412 0.930 . S
H432 C467 0.929 . S
N433 Tb402 2.660 . S
N433 C434 1.305 . S
N433 C438 1.360 . S
C434 H426 0.930 . S
C434 N433 1.305 . S
C434 C437 1.407 . S
C435 H429 0.930 . S
C435 C436 1.410 . S
C435 C437 1.345 . S
C436 C435 1.410 . S
C436 C438 1.417 . S
C436 C468 1.432 . S
C437 H423 0.930 . S
C437 C434 1.407 . S
C437 C435 1.345 . S
C438 N433 1.360 . S
C438 C436 1.417 . S
C438 C442 1.432 . S
H439 C444 0.930 . S
N440 Tb402 2.600 . S
N440 C442 1.359 . S
N440 C443 1.327 . S
C441 H427 0.931 . S
C441 C443 1.392 . S
C441 C444 1.370 . S
C442 C438 1.432 . S
C442 N440 1.359 . S
C442 C445 1.414 . S
C443 H425 0.930 . S
C443 N440 1.327 . S
C443 C441 1.392 . S
C444 H439 0.930 . S
C444 C441 1.370 . S
C444 C445 1.385 . S
C445 C442 1.414 . S
C445 C444 1.385 . S
C445 C467 1.444 . S
O446 Tb402 2.546 . S
O446 C466 1.251 . S
O447 Tb402 2.610 . S
O447 Tb413 2.362 1_554 S
O447 C458 1.283 . S
O448 Tb413 2.421 . S
O448 C465 1.262 1_556 S
O449 Tb402 2.320 . S
O449 C465 1.260 . S
O450 Tb402 2.552 . S
O450 C458 1.243 . S
O451 Tb402 2.413 . S
O451 C466 1.256 . S
O452 Tb413 2.546 . S
O452 C477 1.251 . S
O453 Tb402 2.362 . S
O453 Tb413 2.610 1_554 S
O453 C469 1.283 1_554 S
O454 Tb402 2.421 . S
O454 C476 1.262 1_554 S
O455 Tb413 2.320 . S
O455 C476 1.260 . S
O456 Tb413 2.552 . S
O456 C469 1.243 . S
O457 Tb413 2.413 . S
O457 C477 1.256 . S
C458 O447 1.283 . S
C458 O450 1.243 . S
C459 C461 1.382 . S
C459 C463 1.393 . S
C459 C466 1.500 . S
C460 C461 1.400 . S
C460 C462 1.384 . S
C461 C459 1.382 . S
C461 C460 1.400 . S
C461 H478 0.930 . S
C462 C460 1.384 . S
C462 C464 1.392 . S
C462 H479 0.931 . S
C463 C459 1.393 . S
C463 C464 1.401 . S
C463 H480 0.930 . S
C464 C462 1.392 . S
C464 C463 1.401 . S
C464 H481 0.930 . S
C465 O448 1.262 1_554 S
C465 O449 1.260 . S
C466 Tb402 2.833 . S
C466 O446 1.251 . S
C466 O451 1.256 . S
C466 C459 1.500 . S
C467 H432 0.929 . S
C467 C445 1.444 . S
C467 C468 1.317 . S
C468 H430 0.930 . S
C468 C436 1.432 . S
C468 C467 1.317 . S
C469 O453 1.283 1_556 S
C469 O456 1.243 . S
C470 C471 1.382 . S
C470 C474 1.393 . S
C470 C477 1.500 . S
C471 C470 1.382 . S
C471 C472 1.400 . S
C471 H482 0.930 . S
C472 C471 1.400 . S
C472 C473 1.384 . S
C473 C472 1.384 . S
C473 C475 1.392 . S
C473 H483 0.931 . S
C474 C470 1.393 . S
C474 C475 1.401 . S
C474 H484 0.930 . S
C475 C473 1.392 . S
C475 C474 1.401 . S
C475 H485 0.930 . S
C476 O454 1.262 1_556 S
C476 O455 1.260 . S
C477 Tb413 2.833 . S
C477 O452 1.251 . S
C477 O457 1.256 . S
C477 C470 1.500 . S
H478 C461 0.930 . S
H479 C462 0.931 . S
H480 C463 0.930 . S
H481 C464 0.930 . S
H482 C471 0.930 . S
H483 C473 0.931 . S
H484 C474 0.930 . S
H485 C475 0.930 . S
Tb486 N517 2.660 . S
Tb486 N524 2.600 . S
Tb486 O530 2.546 . S
Tb486 O531 2.610 . S
Tb486 O533 2.320 . S
Tb486 O534 2.552 . S
Tb486 O535 2.413 . S
Tb486 O537 2.362 . S
Tb486 O538 2.421 . S
Tb486 C550 2.833 . S
C487 C490 1.432 . S
C487 C491 1.414 . S
C487 N494 1.359 . S
C488 C490 1.417 . S
C488 C492 1.432 . S
C488 C500 1.410 . S
C489 C491 1.444 . S
C489 C492 1.317 . S
C489 H512 0.929 . S
C490 C487 1.432 . S
C490 C488 1.417 . S
C490 N498 1.360 . S
C491 C487 1.414 . S
C491 C489 1.444 . S
C491 C496 1.385 . S
C492 C488 1.432 . S
C492 C489 1.317 . S
C492 H504 0.930 . S
C493 C495 1.392 . S
C493 C496 1.370 . S
C493 H505 0.931 . S
N494 C487 1.359 . S
N494 C495 1.327 . S
N494 Tb497 2.600 . S
C495 C493 1.392 . S
C495 N494 1.327 . S
C495 H502 0.930 . S
C496 C491 1.385 . S
C496 C493 1.370 . S
C496 H515 0.930 . S
Tb497 N494 2.600 . S
Tb497 N498 2.660 . S
Tb497 O531 2.362 . S
Tb497 O532 2.421 . S
Tb497 O536 2.546 . S
Tb497 O537 2.610 . S
Tb497 O539 2.320 . S
Tb497 O540 2.552 . S
Tb497 O541 2.413 . S
Tb497 C561 2.833 . S
N498 C490 1.360 . S
N498 Tb497 2.660 . S
N498 C499 1.305 . S
C499 N498 1.305 . S
C499 C501 1.407 . S
C499 H506 0.930 . S
C500 C488 1.410 . S
C500 C501 1.345 . S
C500 H508 0.930 . S
C501 C499 1.407 . S
C501 C500 1.345 . S
C501 H503 0.930 . S
H502 C495 0.930 . S
H503 C501 0.930 . S
H504 C492 0.930 . S
H505 C493 0.931 . S
H506 C499 0.930 . S
H507 C521 0.930 . S
H508 C500 0.930 . S
H509 C527 0.930 . S
H510 C518 0.930 . S
H511 C525 0.931 . S
H512 C489 0.929 . S
H513 C519 0.930 . S
H514 C552 0.930 . S
H515 C496 0.930 . S
H516 C551 0.929 . S
N517 Tb486 2.660 . S
N517 C518 1.305 . S
N517 C522 1.360 . S
C518 H510 0.930 . S
C518 N517 1.305 . S
C518 C521 1.407 1_455 S
C519 H513 0.930 . S
C519 C520 1.410 . S
C519 C521 1.345 . S
C520 C519 1.410 . S
C520 C522 1.417 1_655 S
C520 C552 1.432 . S
C521 H507 0.930 . S
C521 C518 1.407 1_655 S
C521 C519 1.345 . S
C522 N517 1.360 . S
C522 C520 1.417 1_455 S
C522 C526 1.432 . S
H523 C528 0.930 . S
N524 Tb486 2.600 . S
N524 C526 1.359 . S
N524 C527 1.327 . S
C525 H511 0.931 . S
C525 C527 1.392 . S
C525 C528 1.370 . S
C526 C522 1.432 . S
C526 N524 1.359 . S
C526 C529 1.414 . S
C527 H509 0.930 . S
C527 N524 1.327 . S
C527 C525 1.392 . S
C528 H523 0.930 . S
C528 C525 1.370 . S
C528 C529 1.385 . S
C529 C526 1.414 . S
C529 C528 1.385 . S
C529 C551 1.444 1_455 S
O530 Tb486 2.546 . S
O530 C550 1.251 . S
O531 Tb486 2.610 . S
O531 Tb497 2.362 . S
O531 C542 1.283 . S
O532 Tb497 2.421 . S
O532 C549 1.262 . S
O533 Tb486 2.320 . S
O533 C549 1.260 . S
O534 Tb486 2.552 . S
O534 C542 1.243 . S
O535 Tb486 2.413 . S
O535 C550 1.256 . S
O536 Tb497 2.546 . S
O536 C561 1.251 . S
O537 Tb486 2.362 . S
O537 Tb497 2.610 . S
O537 C553 1.283 . S
O538 Tb486 2.421 . S
O538 C560 1.262 . S
O539 Tb497 2.320 . S
O539 C560 1.260 . S
O540 Tb497 2.552 . S
O540 C553 1.243 . S
O541 Tb497 2.413 . S
O541 C561 1.256 . S
C542 O531 1.283 . S
C542 O534 1.243 . S
C543 C545 1.382 . S
C543 C547 1.393 . S
C543 C550 1.500 . S
C544 C545 1.400 . S
C544 C546 1.384 . S
C545 C543 1.382 . S
C545 C544 1.400 . S
C545 H562 0.930 . S
C546 C544 1.384 . S
C546 C548 1.392 . S
C546 H563 0.931 . S
C547 C543 1.393 . S
C547 C548 1.401 . S
C547 H564 0.930 . S
C548 C546 1.392 . S
C548 C547 1.401 . S
C548 H565 0.930 . S
C549 O532 1.262 . S
C549 O533 1.260 . S
C550 Tb486 2.833 . S
C550 O530 1.251 . S
C550 O535 1.256 . S
C550 C543 1.500 . S
C551 H516 0.929 . S
C551 C529 1.444 1_655 S
C551 C552 1.317 . S
C552 H514 0.930 . S
C552 C520 1.432 . S
C552 C551 1.317 . S
C553 O537 1.283 . S
C553 O540 1.243 . S
C554 C555 1.382 . S
C554 C558 1.393 . S
C554 C561 1.500 . S
C555 C554 1.382 . S
C555 C556 1.400 . S
C555 H566 0.930 . S
C556 C555 1.400 . S
C556 C557 1.384 . S
C557 C556 1.384 . S
C557 C559 1.392 . S
C557 H567 0.931 . S
C558 C554 1.393 . S
C558 C559 1.401 . S
C558 H568 0.930 . S
C559 C557 1.392 . S
C559 C558 1.401 . S
C559 H569 0.930 . S
C560 O538 1.262 . S
C560 O539 1.260 . S
C561 Tb497 2.833 . S
C561 O536 1.251 . S
C561 O541 1.256 . S
C561 C554 1.500 . S
H562 C545 0.930 . S
H563 C546 0.931 . S
H564 C547 0.930 . S
H565 C548 0.930 . S
H566 C555 0.930 . S
H567 C557 0.931 . S
H568 C558 0.930 . S
H569 C559 0.930 . S
Tb570 N601 2.660 . S
Tb570 N608 2.600 . S
Tb570 O614 2.546 . S
Tb570 O615 2.610 . S
Tb570 O617 2.320 . S
Tb570 O618 2.552 . S
Tb570 O619 2.413 . S
Tb570 O621 2.362 . S
Tb570 O622 2.421 . S
Tb570 C634 2.833 . S
C571 C574 1.432 . S
C571 C575 1.414 . S
C571 N578 1.359 . S
C572 C574 1.417 . S
C572 C576 1.432 . S
C572 C584 1.410 . S
C573 C575 1.444 . S
C573 C576 1.317 . S
C573 H596 0.929 . S
C574 C571 1.432 . S
C574 C572 1.417 . S
C574 N582 1.360 . S
C575 C571 1.414 . S
C575 C573 1.444 . S
C575 C580 1.385 . S
C576 C572 1.432 . S
C576 C573 1.317 . S
C576 H588 0.930 . S
C577 C579 1.392 . S
C577 C580 1.370 . S
C577 H589 0.931 . S
N578 C571 1.359 . S
N578 C579 1.327 . S
N578 Tb581 2.600 . S
C579 C577 1.392 . S
C579 N578 1.327 . S
C579 H586 0.930 . S
C580 C575 1.385 . S
C580 C577 1.370 . S
C580 H599 0.930 . S
Tb581 N578 2.600 . S
Tb581 N582 2.660 . S
Tb581 O615 2.362 . S
Tb581 O616 2.421 . S
Tb581 O620 2.546 . S
Tb581 O621 2.610 . S
Tb581 O623 2.320 . S
Tb581 O624 2.552 . S
Tb581 O625 2.413 . S
Tb581 C645 2.833 . S
N582 C574 1.360 . S
N582 Tb581 2.660 . S
N582 C583 1.305 . S
C583 N582 1.305 . S
C583 C585 1.407 . S
C583 H590 0.930 . S
C584 C572 1.410 . S
C584 C585 1.345 . S
C584 H592 0.930 . S
C585 C583 1.407 . S
C585 C584 1.345 . S
C585 H587 0.930 . S
H586 C579 0.930 . S
H587 C585 0.930 . S
H588 C576 0.930 . S
H589 C577 0.931 . S
H590 C583 0.930 . S
H591 C605 0.930 . S
H592 C584 0.930 . S
H593 C611 0.930 . S
H594 C602 0.930 . S
H595 C609 0.931 . S
H596 C573 0.929 . S
H597 C603 0.930 . S
H598 C636 0.930 . S
H599 C580 0.930 . S
H600 C635 0.929 . S
N601 Tb570 2.660 . S
N601 C602 1.305 . S
N601 C606 1.360 . S
C602 H594 0.930 . S
C602 N601 1.305 . S
C602 C605 1.407 . S
C603 H597 0.930 . S
C603 C604 1.410 . S
C603 C605 1.345 . S
C604 C603 1.410 . S
C604 C606 1.417 . S
C604 C636 1.432 . S
C605 H591 0.930 . S
C605 C602 1.407 . S
C605 C603 1.345 . S
C606 N601 1.360 . S
C606 C604 1.417 . S
C606 C610 1.432 . S
H607 C612 0.930 . S
N608 Tb570 2.600 . S
N608 C610 1.359 . S
N608 C611 1.327 . S
C609 H595 0.931 . S
C609 C611 1.392 . S
C609 C612 1.370 . S
C610 C606 1.432 . S
C610 N608 1.359 . S
C610 C613 1.414 . S
C611 H593 0.930 . S
C611 N608 1.327 . S
C611 C609 1.392 . S
C612 H607 0.930 . S
C612 C609 1.370 . S
C612 C613 1.385 . S
C613 C610 1.414 . S
C613 C612 1.385 . S
C613 C635 1.444 . S
O614 Tb570 2.546 . S
O614 C634 1.251 . S
O615 Tb570 2.610 . S
O615 Tb581 2.362 . S
O615 C626 1.283 . S
O616 Tb581 2.421 . S
O616 C633 1.262 . S
O617 Tb570 2.320 . S
O617 C633 1.260 . S
O618 Tb570 2.552 . S
O618 C626 1.243 . S
O619 Tb570 2.413 . S
O619 C634 1.256 . S
O620 Tb581 2.546 . S
O620 C645 1.251 . S
O621 Tb570 2.362 . S
O621 Tb581 2.610 . S
O621 C637 1.283 . S
O622 Tb570 2.421 . S
O622 C644 1.262 . S
O623 Tb581 2.320 . S
O623 C644 1.260 . S
O624 Tb581 2.552 . S
O624 C637 1.243 . S
O625 Tb581 2.413 . S
O625 C645 1.256 . S
C626 O615 1.283 . S
C626 O618 1.243 . S
C627 C629 1.382 . S
C627 C631 1.393 . S
C627 C634 1.500 . S
C628 C629 1.400 . S
C628 C630 1.384 . S
C629 C627 1.382 . S
C629 C628 1.400 . S
C629 H646 0.930 . S
C630 C628 1.384 . S
C630 C632 1.392 . S
C630 H647 0.931 . S
C631 C627 1.393 . S
C631 C632 1.401 . S
C631 H648 0.930 . S
C632 C630 1.392 . S
C632 C631 1.401 . S
C632 H649 0.930 . S
C633 O616 1.262 . S
C633 O617 1.260 . S
C634 Tb570 2.833 . S
C634 O614 1.251 . S
C634 O619 1.256 . S
C634 C627 1.500 . S
C635 H600 0.929 . S
C635 C613 1.444 . S
C635 C636 1.317 . S
C636 H598 0.930 . S
C636 C604 1.432 . S
C636 C635 1.317 . S
C637 O621 1.283 . S
C637 O624 1.243 . S
C638 C639 1.382 . S
C638 C642 1.393 . S
C638 C645 1.500 . S
C639 C638 1.382 . S
C639 C640 1.400 . S
C639 H650 0.930 . S
C640 C639 1.400 . S
C640 C641 1.384 . S
C641 C640 1.384 . S
C641 C643 1.392 . S
C641 H651 0.931 . S
C642 C638 1.393 . S
C642 C643 1.401 . S
C642 H652 0.930 . S
C643 C641 1.392 . S
C643 C642 1.401 . S
C643 H653 0.930 . S
C644 O622 1.262 . S
C644 O623 1.260 . S
C645 Tb581 2.833 . S
C645 O620 1.251 . S
C645 O625 1.256 . S
C645 C638 1.500 . S
H646 C629 0.930 . S
H647 C630 0.931 . S
H648 C631 0.930 . S
H649 C632 0.930 . S
H650 C639 0.930 . S
H651 C641 0.931 . S
H652 C642 0.930 . S
H653 C643 0.930 . S
Tb654 N685 2.660 . S
Tb654 N692 2.600 . S
Tb654 O698 2.546 . S
Tb654 O699 2.610 . S
Tb654 O701 2.320 . S
Tb654 O702 2.552 . S
Tb654 O703 2.413 . S
Tb654 O705 2.362 . S
Tb654 O706 2.421 . S
Tb654 C718 2.833 . S
C655 C658 1.432 . S
C655 C659 1.414 . S
C655 N662 1.359 . S
C656 C658 1.417 . S
C656 C660 1.432 . S
C656 C668 1.410 . S
C657 C659 1.444 . S
C657 C660 1.317 . S
C657 H680 0.929 . S
C658 C655 1.432 . S
C658 C656 1.417 . S
C658 N666 1.360 . S
C659 C655 1.414 . S
C659 C657 1.444 . S
C659 C664 1.385 . S
C660 C656 1.432 . S
C660 C657 1.317 . S
C660 H672 0.930 . S
C661 C663 1.392 . S
C661 C664 1.370 . S
C661 H673 0.931 . S
N662 C655 1.359 . S
N662 C663 1.327 . S
N662 Tb665 2.600 . S
C663 C661 1.392 . S
C663 N662 1.327 . S
C663 H670 0.930 . S
C664 C659 1.385 . S
C664 C661 1.370 . S
C664 H683 0.930 . S
Tb665 N662 2.600 . S
Tb665 N666 2.660 . S
Tb665 O699 2.362 . S
Tb665 O700 2.421 . S
Tb665 O704 2.546 . S
Tb665 O705 2.610 . S
Tb665 O707 2.320 . S
Tb665 O708 2.552 . S
Tb665 O709 2.413 . S
Tb665 C729 2.833 . S
N666 C658 1.360 . S
N666 Tb665 2.660 . S
N666 C667 1.305 . S
C667 N666 1.305 . S
C667 C669 1.407 . S
C667 H674 0.930 . S
C668 C656 1.410 . S
C668 C669 1.345 . S
C668 H676 0.930 . S
C669 C667 1.407 . S
C669 C668 1.345 . S
C669 H671 0.930 . S
H670 C663 0.930 . S
H671 C669 0.930 . S
H672 C660 0.930 . S
H673 C661 0.931 . S
H674 C667 0.930 . S
H675 C689 0.930 . S
H676 C668 0.930 . S
H677 C695 0.930 . S
H678 C686 0.930 . S
H679 C693 0.931 . S
H680 C657 0.929 . S
H681 C687 0.930 . S
H682 C720 0.930 . S
H683 C664 0.930 . S
H684 C719 0.929 . S
N685 Tb654 2.660 . S
N685 C686 1.305 . S
N685 C690 1.360 . S
C686 H678 0.930 . S
C686 N685 1.305 . S
C686 C689 1.407 . S
C687 H681 0.930 . S
C687 C688 1.410 . S
C687 C689 1.345 . S
C688 C687 1.410 . S
C688 C690 1.417 . S
C688 C720 1.432 . S
C689 H675 0.930 . S
C689 C686 1.407 . S
C689 C687 1.345 . S
C690 N685 1.360 . S
C690 C688 1.417 . S
C690 C694 1.432 . S
H691 C696 0.930 . S
N692 Tb654 2.600 . S
N692 C694 1.359 . S
N692 C695 1.327 . S
C693 H679 0.931 . S
C693 C695 1.392 . S
C693 C696 1.370 . S
C694 C690 1.432 . S
C694 N692 1.359 . S
C694 C697 1.414 . S
C695 H677 0.930 . S
C695 N692 1.327 . S
C695 C693 1.392 . S
C696 H691 0.930 . S
C696 C693 1.370 . S
C696 C697 1.385 . S
C697 C694 1.414 . S
C697 C696 1.385 . S
C697 C719 1.444 . S
O698 Tb654 2.546 . S
O698 C718 1.251 . S
O699 Tb654 2.610 . S
O699 Tb665 2.362 . S
O699 C710 1.283 . S
O700 Tb665 2.421 . S
O700 C717 1.262 . S
O701 Tb654 2.320 . S
O701 C717 1.260 . S
O702 Tb654 2.552 . S
O702 C710 1.243 . S
O703 Tb654 2.413 . S
O703 C718 1.256 . S
O704 Tb665 2.546 . S
O704 C729 1.251 . S
O705 Tb654 2.362 . S
O705 Tb665 2.610 . S
O705 C721 1.283 . S
O706 Tb654 2.421 . S
O706 C728 1.262 . S
O707 Tb665 2.320 . S
O707 C728 1.260 . S
O708 Tb665 2.552 . S
O708 C721 1.243 . S
O709 Tb665 2.413 . S
O709 C729 1.256 . S
C710 O699 1.283 . S
C710 O702 1.243 . S
C711 C713 1.382 . S
C711 C715 1.393 . S
C711 C718 1.500 . S
C712 C713 1.400 . S
C712 C714 1.384 . S
C713 C711 1.382 . S
C713 C712 1.400 . S
C713 H730 0.930 . S
C714 C712 1.384 . S
C714 C716 1.392 . S
C714 H731 0.931 . S
C715 C711 1.393 . S
C715 C716 1.401 . S
C715 H732 0.930 . S
C716 C714 1.392 . S
C716 C715 1.401 . S
C716 H733 0.930 . S
C717 O700 1.262 . S
C717 O701 1.260 . S
C718 Tb654 2.833 . S
C718 O698 1.251 . S
C718 O703 1.256 . S
C718 C711 1.500 . S
C719 H684 0.929 . S
C719 C697 1.444 . S
C719 C720 1.317 . S
C720 H682 0.930 . S
C720 C688 1.432 . S
C720 C719 1.317 . S
C721 O705 1.283 . S
C721 O708 1.243 . S
C722 C723 1.382 . S
C722 C726 1.393 . S
C722 C729 1.500 . S
C723 C722 1.382 . S
C723 C724 1.400 . S
C723 H734 0.930 . S
C724 C723 1.400 . S
C724 C725 1.384 . S
C725 C724 1.384 . S
C725 C727 1.392 . S
C725 H735 0.931 . S
C726 C722 1.393 . S
C726 C727 1.401 . S
C726 H736 0.930 . S
C727 C725 1.392 . S
C727 C726 1.401 . S
C727 H737 0.930 . S
C728 O706 1.262 . S
C728 O707 1.260 . S
C729 Tb665 2.833 . S
C729 O704 1.251 . S
C729 O709 1.256 . S
C729 C722 1.500 . S
H730 C713 0.930 . S
H731 C714 0.931 . S
H732 C715 0.930 . S
H733 C716 0.930 . S
H734 C723 0.930 . S
H735 C725 0.931 . S
H736 C726 0.930 . S
H737 C727 0.930 . S
Tb738 N769 2.660 . S
Tb738 N776 2.600 . S
Tb738 O782 2.546 . S
Tb738 O783 2.610 . S
Tb738 O785 2.320 . S
Tb738 O786 2.552 . S
Tb738 O787 2.413 . S
Tb738 O789 2.362 . S
Tb738 O790 2.421 . S
Tb738 C802 2.833 . S
C739 C742 1.432 . S
C739 C743 1.414 . S
C739 N746 1.359 . S
C740 C742 1.417 . S
C740 C744 1.432 . S
C740 C752 1.410 . S
C741 C743 1.444 . S
C741 C744 1.317 . S
C741 H764 0.929 . S
C742 C739 1.432 . S
C742 C740 1.417 . S
C742 N750 1.360 . S
C743 C739 1.414 . S
C743 C741 1.444 . S
C743 C748 1.385 . S
C744 C740 1.432 . S
C744 C741 1.317 . S
C744 H756 0.930 . S
C745 C747 1.392 . S
C745 C748 1.370 . S
C745 H757 0.931 . S
N746 C739 1.359 . S
N746 C747 1.327 . S
N746 Tb749 2.600 . S
C747 C745 1.392 . S
C747 N746 1.327 . S
C747 H754 0.930 . S
C748 C743 1.385 . S
C748 C745 1.370 . S
C748 H767 0.930 . S
Tb749 N746 2.600 . S
Tb749 N750 2.660 . S
Tb749 O783 2.362 . S
Tb749 O784 2.421 . S
Tb749 O788 2.546 . S
Tb749 O789 2.610 . S
Tb749 O791 2.320 . S
Tb749 O792 2.552 . S
Tb749 O793 2.413 . S
Tb749 C813 2.833 . S
N750 C742 1.360 . S
N750 Tb749 2.660 . S
N750 C751 1.305 . S
C751 N750 1.305 . S
C751 C753 1.407 . S
C751 H758 0.930 . S
C752 C740 1.410 . S
C752 C753 1.345 . S
C752 H760 0.930 . S
C753 C751 1.407 . S
C753 C752 1.345 . S
C753 H755 0.930 . S
H754 C747 0.930 . S
H755 C753 0.930 . S
H756 C744 0.930 . S
H757 C745 0.931 . S
H758 C751 0.930 . S
H759 C773 0.930 . S
H760 C752 0.930 . S
H761 C779 0.930 . S
H762 C770 0.930 . S
H763 C777 0.931 . S
H764 C741 0.929 . S
H765 C771 0.930 . S
H766 C804 0.930 . S
H767 C748 0.930 . S
H768 C803 0.929 . S
N769 Tb738 2.660 . S
N769 C770 1.305 . S
N769 C774 1.360 . S
C770 H762 0.930 . S
C770 N769 1.305 . S
C770 C773 1.407 . S
C771 H765 0.930 . S
C771 C772 1.410 . S
C771 C773 1.345 . S
C772 C771 1.410 . S
C772 C774 1.417 . S
C772 C804 1.432 . S
C773 H759 0.930 . S
C773 C770 1.407 . S
C773 C771 1.345 . S
C774 N769 1.360 . S
C774 C772 1.417 . S
C774 C778 1.432 . S
H775 C780 0.930 . S
N776 Tb738 2.600 . S
N776 C778 1.359 . S
N776 C779 1.327 . S
C777 H763 0.931 . S
C777 C779 1.392 . S
C777 C780 1.370 . S
C778 C774 1.432 . S
C778 N776 1.359 . S
C778 C781 1.414 . S
C779 H761 0.930 . S
C779 N776 1.327 . S
C779 C777 1.392 . S
C780 H775 0.930 . S
C780 C777 1.370 . S
C780 C781 1.385 . S
C781 C778 1.414 . S
C781 C780 1.385 . S
C781 C803 1.444 . S
O782 Tb738 2.546 . S
O782 C802 1.251 . S
O783 Tb738 2.610 . S
O783 Tb749 2.362 . S
O783 C794 1.283 . S
O784 Tb749 2.421 . S
O784 C801 1.262 . S
O785 Tb738 2.320 . S
O785 C801 1.260 . S
O786 Tb738 2.552 . S
O786 C794 1.243 . S
O787 Tb738 2.413 . S
O787 C802 1.256 . S
O788 Tb749 2.546 . S
O788 C813 1.251 . S
O789 Tb738 2.362 . S
O789 Tb749 2.610 . S
O789 C805 1.283 . S
O790 Tb738 2.421 . S
O790 C812 1.262 . S
O791 Tb749 2.320 . S
O791 C812 1.260 . S
O792 Tb749 2.552 . S
O792 C805 1.243 . S
O793 Tb749 2.413 . S
O793 C813 1.256 . S
C794 O783 1.283 . S
C794 O786 1.243 . S
C795 C797 1.382 . S
C795 C799 1.393 . S
C795 C802 1.500 . S
C796 C797 1.400 . S
C796 C798 1.384 . S
C797 C795 1.382 . S
C797 C796 1.400 . S
C797 H814 0.930 . S
C798 C796 1.384 . S
C798 C800 1.392 . S
C798 H815 0.931 . S
C799 C795 1.393 . S
C799 C800 1.401 . S
C799 H816 0.930 . S
C800 C798 1.392 . S
C800 C799 1.401 . S
C800 H817 0.930 . S
C801 O784 1.262 . S
C801 O785 1.260 . S
C802 Tb738 2.833 . S
C802 O782 1.251 . S
C802 O787 1.256 . S
C802 C795 1.500 . S
C803 H768 0.929 . S
C803 C781 1.444 . S
C803 C804 1.317 . S
C804 H766 0.930 . S
C804 C772 1.432 . S
C804 C803 1.317 . S
C805 O789 1.283 . S
C805 O792 1.243 . S
C806 C807 1.382 . S
C806 C810 1.393 . S
C806 C813 1.500 . S
C807 C806 1.382 . S
C807 C808 1.400 . S
C807 H818 0.930 . S
C808 C807 1.400 . S
C808 C809 1.384 . S
C809 C808 1.384 . S
C809 C811 1.392 . S
C809 H819 0.931 . S
C810 C806 1.393 . S
C810 C811 1.401 . S
C810 H820 0.930 . S
C811 C809 1.392 . S
C811 C810 1.401 . S
C811 H821 0.930 . S
C812 O790 1.262 . S
C812 O791 1.260 . S
C813 Tb749 2.833 . S
C813 O788 1.251 . S
C813 O793 1.256 . S
C813 C806 1.500 . S
H814 C797 0.930 . S
H815 C798 0.931 . S
H816 C799 0.930 . S
H817 C800 0.930 . S
H818 C807 0.930 . S
H819 C809 0.931 . S
H820 C810 0.930 . S
H821 C811 0.930 . S
Tb822 N853 2.660 . S
Tb822 N860 2.600 . S
Tb822 O866 2.546 . S
Tb822 O867 2.610 . S
Tb822 O869 2.320 . S
Tb822 O870 2.552 . S
Tb822 O871 2.413 . S
Tb822 O873 2.362 . S
Tb822 O874 2.421 . S
Tb822 C886 2.833 . S
C823 C826 1.432 . S
C823 C827 1.414 . S
C823 N830 1.359 . S
C824 C826 1.417 . S
C824 C828 1.432 . S
C824 C836 1.410 . S
C825 C827 1.444 . S
C825 C828 1.317 . S
C825 H848 0.929 . S
C826 C823 1.432 . S
C826 C824 1.417 . S
C826 N834 1.360 . S
C827 C823 1.414 . S
C827 C825 1.444 . S
C827 C832 1.385 . S
C828 C824 1.432 . S
C828 C825 1.317 . S
C828 H840 0.930 . S
C829 C831 1.392 . S
C829 C832 1.370 . S
C829 H841 0.931 . S
N830 C823 1.359 . S
N830 C831 1.327 . S
N830 Tb833 2.600 . S
C831 C829 1.392 . S
C831 N830 1.327 . S
C831 H838 0.930 . S
C832 C827 1.385 . S
C832 C829 1.370 . S
C832 H851 0.930 . S
Tb833 N830 2.600 . S
Tb833 N834 2.660 . S
Tb833 O867 2.362 . S
Tb833 O868 2.421 . S
Tb833 O872 2.546 . S
Tb833 O873 2.610 . S
Tb833 O875 2.320 . S
Tb833 O876 2.552 . S
Tb833 O877 2.413 . S
Tb833 C897 2.833 . S
N834 C826 1.360 . S
N834 Tb833 2.660 . S
N834 C835 1.305 . S
C835 N834 1.305 . S
C835 C837 1.407 . S
C835 H842 0.930 . S
C836 C824 1.410 . S
C836 C837 1.345 . S
C836 H844 0.930 . S
C837 C835 1.407 . S
C837 C836 1.345 . S
C837 H839 0.930 . S
H838 C831 0.930 . S
H839 C837 0.930 . S
H840 C828 0.930 . S
H841 C829 0.931 . S
H842 C835 0.930 . S
H843 C857 0.930 . S
H844 C836 0.930 . S
H845 C863 0.930 . S
H846 C854 0.930 . S
H847 C861 0.931 . S
H848 C825 0.929 . S
H849 C855 0.930 . S
H850 C888 0.930 . S
H851 C832 0.930 . S
H852 C887 0.929 . S
N853 Tb822 2.660 . S
N853 C854 1.305 . S
N853 C858 1.360 . S
C854 H846 0.930 . S
C854 N853 1.305 . S
C854 C857 1.407 . S
C855 H849 0.930 . S
C855 C856 1.410 . S
C855 C857 1.345 . S
C856 C855 1.410 . S
C856 C858 1.417 . S
C856 C888 1.432 . S
C857 H843 0.930 . S
C857 C854 1.407 . S
C857 C855 1.345 . S
C858 N853 1.360 . S
C858 C856 1.417 . S
C858 C862 1.432 . S
H859 C864 0.930 . S
N860 Tb822 2.600 . S
N860 C862 1.359 . S
N860 C863 1.327 . S
C861 H847 0.931 . S
C861 C863 1.392 . S
C861 C864 1.370 . S
C862 C858 1.432 . S
C862 N860 1.359 . S
C862 C865 1.414 . S
C863 H845 0.930 . S
C863 N860 1.327 . S
C863 C861 1.392 . S
C864 H859 0.930 . S
C864 C861 1.370 . S
C864 C865 1.385 . S
C865 C862 1.414 . S
C865 C864 1.385 . S
C865 C887 1.444 . S
O866 Tb822 2.546 . S
O866 C886 1.251 . S
O867 Tb822 2.610 . S
O867 Tb833 2.362 . S
O867 C878 1.283 . S
O868 Tb833 2.421 . S
O868 C885 1.262 . S
O869 Tb822 2.320 . S
O869 C885 1.260 . S
O870 Tb822 2.552 . S
O870 C878 1.243 . S
O871 Tb822 2.413 . S
O871 C886 1.256 . S
O872 Tb833 2.546 . S
O872 C897 1.251 . S
O873 Tb822 2.362 . S
O873 Tb833 2.610 . S
O873 C889 1.283 . S
O874 Tb822 2.421 . S
O874 C896 1.262 . S
O875 Tb833 2.320 . S
O875 C896 1.260 . S
O876 Tb833 2.552 . S
O876 C889 1.243 . S
O877 Tb833 2.413 . S
O877 C897 1.256 . S
C878 O867 1.283 . S
C878 O870 1.243 . S
C879 C881 1.382 . S
C879 C883 1.393 . S
C879 C886 1.500 . S
C880 C881 1.400 . S
C880 C882 1.384 . S
C881 C879 1.382 . S
C881 C880 1.400 . S
C881 H898 0.930 . S
C882 C880 1.384 . S
C882 C884 1.392 . S
C882 H899 0.931 . S
C883 C879 1.393 . S
C883 C884 1.401 . S
C883 H900 0.930 . S
C884 C882 1.392 . S
C884 C883 1.401 . S
C884 H901 0.930 . S
C885 O868 1.262 . S
C885 O869 1.260 . S
C886 Tb822 2.833 . S
C886 O866 1.251 . S
C886 O871 1.256 . S
C886 C879 1.500 . S
C887 H852 0.929 . S
C887 C865 1.444 . S
C887 C888 1.317 . S
C888 H850 0.930 . S
C888 C856 1.432 . S
C888 C887 1.317 . S
C889 O873 1.283 . S
C889 O876 1.243 . S
C890 C891 1.382 . S
C890 C894 1.393 . S
C890 C897 1.500 . S
C891 C890 1.382 . S
C891 C892 1.400 . S
C891 H902 0.930 . S
C892 C891 1.400 . S
C892 C893 1.384 . S
C893 C892 1.384 . S
C893 C895 1.392 . S
C893 H903 0.931 . S
C894 C890 1.393 . S
C894 C895 1.401 . S
C894 H904 0.930 . S
C895 C893 1.392 . S
C895 C894 1.401 . S
C895 H905 0.930 . S
C896 O874 1.262 . S
C896 O875 1.260 . S
C897 Tb833 2.833 . S
C897 O872 1.251 . S
C897 O877 1.256 . S
C897 C890 1.500 . S
H898 C881 0.930 . S
H899 C882 0.931 . S
H900 C883 0.930 . S
H901 C884 0.930 . S
H902 C891 0.930 . S
H903 C893 0.931 . S
H904 C894 0.930 . S
H905 C895 0.930 . S
Tb906 N937 2.660 . S
Tb906 N944 2.600 . S
Tb906 O950 2.546 . S
Tb906 O951 2.610 . S
Tb906 O953 2.320 . S
Tb906 O954 2.552 . S
Tb906 O955 2.413 . S
Tb906 O957 2.362 . S
Tb906 O958 2.421 . S
Tb906 C970 2.833 . S
C907 C910 1.432 . S
C907 C911 1.414 . S
C907 N914 1.359 . S
C908 C910 1.417 . S
C908 C912 1.432 . S
C908 C920 1.410 . S
C909 C911 1.444 . S
C909 C912 1.317 . S
C909 H932 0.929 . S
C910 C907 1.432 . S
C910 C908 1.417 . S
C910 N918 1.360 . S
C911 C907 1.414 . S
C911 C909 1.444 . S
C911 C916 1.385 . S
C912 C908 1.432 . S
C912 C909 1.317 . S
C912 H924 0.930 . S
C913 C915 1.392 . S
C913 C916 1.370 . S
C913 H925 0.931 . S
N914 C907 1.359 . S
N914 C915 1.327 . S
N914 Tb917 2.600 . S
C915 C913 1.392 . S
C915 N914 1.327 . S
C915 H922 0.930 . S
C916 C911 1.385 . S
C916 C913 1.370 . S
C916 H935 0.930 . S
Tb917 N914 2.600 . S
Tb917 N918 2.660 . S
Tb917 O951 2.362 . S
Tb917 O952 2.421 . S
Tb917 O956 2.546 . S
Tb917 O957 2.610 . S
Tb917 O959 2.320 . S
Tb917 O960 2.552 . S
Tb917 O961 2.413 . S
Tb917 C981 2.833 . S
N918 C910 1.360 . S
N918 Tb917 2.660 . S
N918 C919 1.305 . S
C919 N918 1.305 . S
C919 C921 1.407 . S
C919 H926 0.930 . S
C920 C908 1.410 . S
C920 C921 1.345 . S
C920 H928 0.930 . S
C921 C919 1.407 . S
C921 C920 1.345 . S
C921 H923 0.930 . S
H922 C915 0.930 . S
H923 C921 0.930 . S
H924 C912 0.930 . S
H925 C913 0.931 . S
H926 C919 0.930 . S
H927 C941 0.930 . S
H928 C920 0.930 . S
H929 C947 0.930 . S
H930 C938 0.930 . S
H931 C945 0.931 . S
H932 C909 0.929 . S
H933 C939 0.930 . S
H934 C972 0.930 . S
H935 C916 0.930 . S
H936 C971 0.929 . S
N937 Tb906 2.660 . S
N937 C938 1.305 . S
N937 C942 1.360 . S
C938 H930 0.930 . S
C938 N937 1.305 . S
C938 C941 1.407 1_655 S
C939 H933 0.930 . S
C939 C940 1.410 . S
C939 C941 1.345 . S
C940 C939 1.410 . S
C940 C942 1.417 1_455 S
C940 C972 1.432 . S
C941 H927 0.930 . S
C941 C938 1.407 1_455 S
C941 C939 1.345 . S
C942 N937 1.360 . S
C942 C940 1.417 1_655 S
C942 C946 1.432 . S
H943 C948 0.930 . S
N944 Tb906 2.600 . S
N944 C946 1.359 . S
N944 C947 1.327 . S
C945 H931 0.931 . S
C945 C947 1.392 . S
C945 C948 1.370 . S
C946 C942 1.432 . S
C946 N944 1.359 . S
C946 C949 1.414 . S
C947 H929 0.930 . S
C947 N944 1.327 . S
C947 C945 1.392 . S
C948 H943 0.930 . S
C948 C945 1.370 . S
C948 C949 1.385 . S
C949 C946 1.414 . S
C949 C948 1.385 . S
C949 C971 1.444 1_655 S
O950 Tb906 2.546 . S
O950 C970 1.251 . S
O951 Tb906 2.610 . S
O951 Tb917 2.362 . S
O951 C962 1.283 . S
O952 Tb917 2.421 . S
O952 C969 1.262 . S
O953 Tb906 2.320 . S
O953 C969 1.260 . S
O954 Tb906 2.552 . S
O954 C962 1.243 . S
O955 Tb906 2.413 . S
O955 C970 1.256 . S
O956 Tb917 2.546 . S
O956 C981 1.251 . S
O957 Tb906 2.362 . S
O957 Tb917 2.610 . S
O957 C973 1.283 . S
O958 Tb906 2.421 . S
O958 C980 1.262 . S
O959 Tb917 2.320 . S
O959 C980 1.260 . S
O960 Tb917 2.552 . S
O960 C973 1.243 . S
O961 Tb917 2.413 . S
O961 C981 1.256 . S
C962 O951 1.283 . S
C962 O954 1.243 . S
C963 C965 1.382 . S
C963 C967 1.393 . S
C963 C970 1.500 . S
C964 C965 1.400 . S
C964 C966 1.384 . S
C965 C963 1.382 . S
C965 C964 1.400 . S
C965 H982 0.930 . S
C966 C964 1.384 . S
C966 C968 1.392 . S
C966 H983 0.931 . S
C967 C963 1.393 . S
C967 C968 1.401 . S
C967 H984 0.930 . S
C968 C966 1.392 . S
C968 C967 1.401 . S
C968 H985 0.930 . S
C969 O952 1.262 . S
C969 O953 1.260 . S
C970 Tb906 2.833 . S
C970 O950 1.251 . S
C970 O955 1.256 . S
C970 C963 1.500 . S
C971 H936 0.929 . S
C971 C949 1.444 1_455 S
C971 C972 1.317 . S
C972 H934 0.930 . S
C972 C940 1.432 . S
C972 C971 1.317 . S
C973 O957 1.283 . S
C973 O960 1.243 . S
C974 C975 1.382 . S
C974 C978 1.393 . S
C974 C981 1.500 . S
C975 C974 1.382 . S
C975 C976 1.400 . S
C975 H986 0.930 . S
C976 C975 1.400 . S
C976 C977 1.384 . S
C977 C976 1.384 . S
C977 C979 1.392 . S
C977 H987 0.931 . S
C978 C974 1.393 . S
C978 C979 1.401 . S
C978 H988 0.930 . S
C979 C977 1.392 . S
C979 C978 1.401 . S
C979 H989 0.930 . S
C980 O958 1.262 . S
C980 O959 1.260 . S
C981 Tb917 2.833 . S
C981 O956 1.251 . S
C981 O961 1.256 . S
C981 C974 1.500 . S
H982 C965 0.930 . S
H983 C966 0.931 . S
H984 C967 0.930 . S
H985 C968 0.930 . S
H986 C975 0.930 . S
H987 C977 0.931 . S
H988 C978 0.930 . S
H989 C979 0.930 . S
C990 C991 1.363 . S
C990 C996 1.379 . S
C990 N998 1.356 . S
C991 C990 1.363 . S
C991 C997 1.363 . S
C992 C993 1.363 . S
C992 C997 1.379 . S
C992 N999 1.356 . S
C993 C992 1.363 . S
C993 C996 1.363 . S
N994 C996 1.356 1_556 S
N994 H1006 0.984 . S
N994 H1007 0.985 . S
N995 C997 1.356 . S
N995 H1000 0.984 . S
N995 H1001 0.985 . S
C996 C990 1.379 . S
C996 C993 1.363 . S
C996 N994 1.356 1_554 S
C997 C991 1.363 . S
C997 C992 1.379 . S
C997 N995 1.356 . S
N998 C990 1.356 . S
N998 H1004 0.984 1_554 S
N998 H1005 0.984 . S
N999 C992 1.356 . S
N999 H1002 0.984 . S
N999 H1003 0.985 . S
H1000 N995 0.984 . S
H1001 N995 0.985 . S
H1002 N999 0.984 . S
H1003 N999 0.985 . S
H1004 N998 0.984 1_556 S
H1005 N998 0.984 . S
H1006 N994 0.984 . S
H1007 N994 0.985 . S
C1008 C1009 1.363 . S
C1008 C1014 1.379 . S
C1008 N1016 1.356 . S
C1009 C1008 1.363 . S
C1009 C1015 1.363 . S
C1010 C1011 1.363 . S
C1010 C1015 1.379 . S
C1010 N1017 1.356 . S
C1011 C1010 1.363 . S
C1011 C1014 1.363 . S
N1012 C1014 1.356 . S
N1012 H1024 0.984 . S
N1012 H1025 0.985 . S
N1013 C1015 1.356 . S
N1013 H1018 0.984 . S
N1013 H1019 0.985 . S
C1014 C1008 1.379 . S
C1014 C1011 1.363 . S
C1014 N1012 1.356 . S
C1015 C1009 1.363 . S
C1015 C1010 1.379 . S
C1015 N1013 1.356 . S
N1016 C1008 1.356 . S
N1016 H1022 0.984 . S
N1016 H1023 0.984 . S
N1017 C1010 1.356 . S
N1017 H1020 0.984 . S
N1017 H1021 0.985 . S
H1018 N1013 0.984 . S
H1019 N1013 0.985 . S
H1020 N1017 0.984 . S
H1021 N1017 0.985 . S
H1022 N1016 0.984 . S
H1023 N1016 0.984 . S
H1024 N1012 0.984 . S
H1025 N1012 0.985 . S
C1026 C1027 1.363 . S
C1026 C1032 1.379 . S
C1026 N1034 1.356 . S
C1027 C1026 1.363 . S
C1027 C1033 1.363 . S
C1028 C1029 1.363 . S
C1028 C1033 1.379 . S
C1028 N1035 1.356 . S
C1029 C1028 1.363 . S
C1029 C1032 1.363 . S
N1030 C1032 1.356 1_556 S
N1030 H1042 0.984 . S
N1030 H1043 0.985 . S
N1031 C1033 1.356 . S
N1031 H1036 0.984 . S
N1031 H1037 0.985 . S
C1032 C1026 1.379 . S
C1032 C1029 1.363 . S
C1032 N1030 1.356 1_554 S
C1033 C1027 1.363 . S
C1033 C1028 1.379 . S
C1033 N1031 1.356 . S
N1034 C1026 1.356 . S
N1034 H1040 0.984 1_554 S
N1034 H1041 0.984 . S
N1035 C1028 1.356 . S
N1035 H1038 0.984 . S
N1035 H1039 0.985 . S
H1036 N1031 0.984 . S
H1037 N1031 0.985 . S
H1038 N1035 0.984 . S
H1039 N1035 0.985 . S
H1040 N1034 0.984 1_556 S
H1041 N1034 0.984 . S
H1042 N1030 0.984 . S
H1043 N1030 0.985 . S
C1044 C1045 1.363 . S
C1044 C1050 1.379 . S
C1044 N1052 1.356 . S
C1045 C1044 1.363 . S
C1045 C1051 1.363 . S
C1046 C1047 1.363 1_554 S
C1046 C1051 1.379 1_554 S
C1046 N1053 1.356 . S
C1047 C1046 1.363 1_556 S
C1047 C1050 1.363 . S
N1048 C1050 1.356 . S
N1048 H1060 0.984 . S
N1048 H1061 0.985 . S
N1049 C1051 1.356 1_554 S
N1049 H1054 0.984 1_554 S
N1049 H1055 0.985 . S
C1050 C1044 1.379 . S
C1050 C1047 1.363 . S
C1050 N1048 1.356 . S
C1051 C1045 1.363 . S
C1051 C1046 1.379 1_556 S
C1051 N1049 1.356 1_556 S
N1052 C1044 1.356 . S
N1052 H1058 0.984 . S
N1052 H1059 0.984 . S
N1053 C1046 1.356 . S
N1053 H1056 0.984 . S
N1053 H1057 0.985 . S
H1054 N1049 0.984 1_556 S
H1055 N1049 0.985 . S
H1056 N1053 0.984 . S
H1057 N1053 0.985 . S
H1058 N1052 0.984 . S
H1059 N1052 0.984 . S
H1060 N1048 0.984 . S
H1061 N1048 0.985 . S
C1062 C1063 1.363 . S
C1062 C1068 1.379 . S
C1062 N1070 1.356 . S
C1063 C1062 1.363 . S
C1063 C1069 1.363 . S
C1064 C1065 1.363 . S
C1064 C1069 1.379 . S
C1064 N1071 1.356 . S
C1065 C1064 1.363 . S
C1065 C1068 1.363 . S
N1066 C1068 1.356 . S
N1066 H1078 0.981 1_556 S
N1066 H1079 0.985 1_556 S
N1067 C1069 1.356 . S
N1067 H1072 0.984 . S
N1067 H1073 0.985 . S
C1068 C1062 1.379 . S
C1068 C1065 1.363 . S
C1068 N1066 1.356 . S
C1069 C1063 1.363 . S
C1069 C1064 1.379 . S
C1069 N1067 1.356 . S
N1070 C1062 1.356 . S
N1070 H1076 0.984 . S
N1070 H1077 0.984 . S
N1071 C1064 1.356 . S
N1071 H1074 0.984 . S
N1071 H1075 0.985 . S
H1072 N1067 0.984 . S
H1073 N1067 0.985 . S
H1074 N1071 0.984 . S
H1075 N1071 0.985 . S
H1076 N1070 0.984 . S
H1077 N1070 0.984 . S
H1078 N1066 0.981 1_554 S
H1079 N1066 0.985 1_554 S
C1080 C1081 1.363 . S
C1080 C1086 1.379 . S
C1080 N1088 1.356 . S
C1081 C1080 1.363 . S
C1081 C1087 1.363 . S
C1082 C1083 1.359 1_554 S
C1082 C1087 1.376 1_554 S
C1082 N1089 1.363 . S
C1083 C1082 1.359 1_556 S
C1083 C1086 1.363 . S
N1084 C1086 1.356 . S
N1084 H1096 0.984 . S
N1084 H1097 0.985 . S
N1085 C1087 1.356 . S
N1085 H1090 0.984 . S
N1085 H1091 0.985 1_556 S
C1086 C1080 1.379 . S
C1086 C1083 1.363 . S
C1086 N1084 1.356 . S
C1087 C1081 1.363 . S
C1087 C1082 1.376 1_556 S
C1087 N1085 1.356 . S
N1088 C1080 1.356 . S
N1088 H1094 0.984 . S
N1088 H1095 0.984 . S
N1089 C1082 1.363 . S
N1089 H1092 0.984 . S
N1089 H1093 0.985 . S
H1090 N1085 0.984 . S
H1091 N1085 0.985 1_554 S
H1092 N1089 0.984 . S
H1093 N1089 0.985 . S
H1094 N1088 0.984 . S
H1095 N1088 0.984 . S
H1096 N1084 0.984 . S
H1097 N1084 0.985 . S
C1098 C1099 1.372 . S
C1098 C1104 1.377 1_556 S
C1098 N1106 1.352 1_556 S
C1099 C1098 1.372 . S
C1099 C1105 1.363 . S
C1100 C1101 1.363 . S
C1100 C1105 1.379 . S
C1100 N1107 1.356 . S
C1101 C1100 1.363 . S
C1101 C1104 1.363 1_556 S
N1102 C1104 1.356 . S
N1102 H1114 0.984 . S
N1102 H1115 0.985 . S
N1103 C1105 1.356 . S
N1103 H1108 0.984 . S
N1103 H1109 0.985 . S
C1104 C1098 1.377 1_554 S
C1104 C1101 1.363 1_554 S
C1104 N1102 1.356 . S
C1105 C1099 1.363 . S
C1105 C1100 1.379 . S
C1105 N1103 1.356 . S
N1106 C1098 1.352 1_554 S
N1106 H1112 0.984 . S
N1106 H1113 0.984 . S
N1107 C1100 1.356 . S
N1107 H1110 0.984 . S
N1107 H1111 0.985 . S
H1108 N1103 0.984 . S
H1109 N1103 0.985 . S
H1110 N1107 0.984 . S
H1111 N1107 0.985 . S
H1112 N1106 0.984 . S
H1113 N1106 0.984 . S
H1114 N1102 0.984 . S
H1115 N1102 0.985 . S
C1116 C1117 1.363 . S
C1116 C1122 1.379 . S
C1116 N1124 1.356 . S
C1117 C1116 1.363 . S
C1117 C1123 1.363 . S
C1118 C1119 1.363 . S
C1118 C1123 1.379 . S
C1118 N1125 1.356 1_556 S
C1119 C1118 1.363 . S
C1119 C1122 1.363 . S
N1120 C1122 1.356 . S
N1120 H1132 0.984 . S
N1120 H1133 0.985 . S
N1121 C1123 1.370 . S
N1121 H1126 1.004 . S
N1121 H1127 0.954 1_556 S
C1122 C1116 1.379 . S
C1122 C1119 1.363 . S
C1122 N1120 1.356 . S
C1123 C1117 1.363 . S
C1123 C1118 1.379 . S
C1123 N1121 1.370 . S
N1124 C1116 1.356 . S
N1124 H1130 0.984 . S
N1124 H1131 0.984 . S
N1125 C1118 1.356 1_554 S
N1125 H1128 0.984 . S
N1125 H1129 0.985 . S
H1126 N1121 1.004 . S
H1127 N1121 0.954 1_554 S
H1128 N1125 0.984 . S
H1129 N1125 0.985 . S
H1130 N1124 0.984 . S
H1131 N1124 0.984 . S
H1132 N1120 0.984 . S
H1133 N1120 0.985 . S
C1134 C1135 1.363 . S
C1134 C1140 1.379 . S
C1134 N1142 1.356 . S
C1135 C1134 1.363 . S
C1135 C1141 1.363 . S
C1136 C1137 1.363 . S
C1136 C1141 1.379 . S
C1136 N1143 1.356 . S
C1137 C1136 1.363 . S
C1137 C1140 1.363 . S
N1138 C1140 1.356 . S
N1138 H1150 0.981 1_556 S
N1138 H1151 0.985 . S
N1139 C1141 1.356 . S
N1139 H1144 0.984 . S
N1139 H1145 0.985 . S
C1140 C1134 1.379 . S
C1140 C1137 1.363 . S
C1140 N1138 1.356 . S
C1141 C1135 1.363 . S
C1141 C1136 1.379 . S
C1141 N1139 1.356 . S
N1142 C1134 1.356 . S
N1142 H1148 0.984 . S
N1142 H1149 0.984 . S
N1143 C1136 1.356 . S
N1143 H1146 0.984 . S
N1143 H1147 0.985 . S
H1144 N1139 0.984 . S
H1145 N1139 0.985 . S
H1146 N1143 0.984 . S
H1147 N1143 0.985 . S
H1148 N1142 0.984 . S
H1149 N1142 0.984 . S
H1150 N1138 0.981 1_554 S
H1151 N1138 0.985 . S
C1152 C1153 1.363 . S
C1152 C1158 1.379 . S
C1152 N1160 1.356 . S
C1153 C1152 1.363 . S
C1153 C1159 1.363 . S
C1154 C1155 1.363 . S
C1154 C1159 1.379 . S
C1154 N1161 1.356 1_554 S
C1155 C1154 1.363 . S
C1155 C1158 1.363 . S
N1156 C1158 1.356 . S
N1156 H1168 0.984 . S
N1156 H1169 0.985 . S
N1157 C1159 1.356 . S
N1157 H1162 0.984 . S
N1157 H1163 0.985 1_554 S
C1158 C1152 1.379 . S
C1158 C1155 1.363 . S
C1158 N1156 1.356 . S
C1159 C1153 1.363 . S
C1159 C1154 1.379 . S
C1159 N1157 1.356 . S
N1160 C1152 1.356 . S
N1160 H1166 0.984 . S
N1160 H1167 0.984 . S
N1161 C1154 1.356 1_556 S
N1161 H1164 0.984 . S
N1161 H1165 0.985 . S
H1162 N1157 0.984 . S
H1163 N1157 0.985 1_556 S
H1164 N1161 0.984 . S
H1165 N1161 0.985 . S
H1166 N1160 0.984 . S
H1167 N1160 0.984 . S
H1168 N1156 0.984 . S
H1169 N1156 0.985 . S
C1170 C1171 1.363 . S
C1170 C1176 1.379 . S
C1170 N1178 1.356 . S
C1171 C1170 1.363 . S
C1171 C1177 1.363 . S
C1172 C1173 1.363 . S
C1172 C1177 1.379 . S
C1172 N1179 1.356 . S
C1173 C1172 1.363 . S
C1173 C1176 1.363 . S
N1174 C1176 1.356 . S
N1174 H1186 0.984 . S
N1174 H1187 0.985 . S
N1175 C1177 1.356 . S
N1175 H1180 0.984 . S
N1175 H1181 0.985 . S
C1176 C1170 1.379 . S
C1176 C1173 1.363 . S
C1176 N1174 1.356 . S
C1177 C1171 1.363 . S
C1177 C1172 1.379 . S
C1177 N1175 1.356 . S
N1178 C1170 1.356 . S
N1178 H1184 0.984 . S
N1178 H1185 0.984 . S
N1179 C1172 1.356 . S
N1179 H1182 0.984 . S
N1179 H1183 0.985 . S
H1180 N1175 0.984 . S
H1181 N1175 0.985 . S
H1182 N1179 0.984 . S
H1183 N1179 0.985 . S
H1184 N1178 0.984 . S
H1185 N1178 0.984 . S
H1186 N1174 0.984 . S
H1187 N1174 0.985 . S
C1188 C1189 1.363 . S
C1188 C1194 1.379 . S
C1188 N1196 1.356 . S
C1189 C1188 1.363 . S
C1189 C1195 1.363 . S
C1190 C1191 1.363 . S
C1190 C1195 1.379 . S
C1190 N1197 1.356 . S
C1191 C1190 1.363 . S
C1191 C1194 1.363 . S
N1192 C1194 1.356 1_556 S
N1192 H1204 0.984 . S
N1192 H1205 0.985 . S
N1193 C1195 1.356 . S
N1193 H1198 0.984 . S
N1193 H1199 0.985 . S
C1194 C1188 1.379 . S
C1194 C1191 1.363 . S
C1194 N1192 1.356 1_554 S
C1195 C1189 1.363 . S
C1195 C1190 1.379 . S
C1195 N1193 1.356 . S
N1196 C1188 1.356 . S
N1196 H1202 0.984 1_554 S
N1196 H1203 0.984 . S
N1197 C1190 1.356 . S
N1197 H1200 0.984 . S
N1197 H1201 0.985 . S
H1198 N1193 0.984 . S
H1199 N1193 0.985 . S
H1200 N1197 0.984 . S
H1201 N1197 0.985 . S
H1202 N1196 0.984 1_556 S
H1203 N1196 0.984 . S
H1204 N1192 0.984 . S
H1205 N1192 0.985 . S
C1206 C1207 1.363 . S
C1206 C1212 1.379 1_655 S
C1206 N1214 1.356 . S
C1207 C1206 1.363 . S
C1207 C1213 1.363 . S
C1208 C1209 1.363 . S
C1208 C1213 1.379 1_455 S
C1208 N1215 1.356 . S
C1209 C1208 1.363 . S
C1209 C1212 1.363 . S
N1210 C1212 1.356 . S
N1210 H1222 0.984 . S
N1210 H1223 0.985 . S
N1211 C1213 1.356 . S
N1211 H1216 0.984 . S
N1211 H1217 0.985 . S
C1212 C1206 1.379 1_455 S
C1212 C1209 1.363 . S
C1212 N1210 1.356 . S
C1213 C1207 1.363 . S
C1213 C1208 1.379 1_655 S
C1213 N1211 1.356 . S
N1214 C1206 1.356 . S
N1214 H1220 0.984 . S
N1214 H1221 0.984 . S
N1215 C1208 1.356 . S
N1215 H1218 0.984 . S
N1215 H1219 0.985 . S
H1216 N1211 0.984 . S
H1217 N1211 0.985 . S
H1218 N1215 0.984 . S
H1219 N1215 0.985 . S
H1220 N1214 0.984 . S
H1221 N1214 0.984 . S
H1222 N1210 0.984 . S
H1223 N1210 0.985 . S
C1224 C1225 1.363 . S
C1224 C1230 1.379 . S
C1224 N1232 1.356 . S
C1225 C1224 1.363 . S
C1225 C1231 1.363 . S
C1226 C1227 1.363 . S
C1226 C1231 1.379 . S
C1226 N1233 1.356 . S
C1227 C1226 1.363 . S
C1227 C1230 1.363 . S
N1228 C1230 1.356 . S
N1228 H1240 0.984 . S
N1228 H1241 0.985 . S
N1229 C1231 1.356 . S
N1229 H1234 0.984 . S
N1229 H1235 0.985 . S
C1230 C1224 1.379 . S
C1230 C1227 1.363 . S
C1230 N1228 1.356 . S
C1231 C1225 1.363 . S
C1231 C1226 1.379 . S
C1231 N1229 1.356 . S
N1232 C1224 1.356 . S
N1232 H1238 0.984 . S
N1232 H1239 0.984 . S
N1233 C1226 1.356 . S
N1233 H1236 0.984 . S
N1233 H1237 0.985 . S
H1234 N1229 0.984 . S
H1235 N1229 0.985 . S
H1236 N1233 0.984 . S
H1237 N1233 0.985 . S
H1238 N1232 0.984 . S
H1239 N1232 0.984 . S
H1240 N1228 0.984 . S
H1241 N1228 0.985 . S
C1242 C1243 1.363 . S
C1242 C1248 1.379 . S
C1242 N1250 1.356 . S
C1243 C1242 1.363 . S
C1243 C1249 1.363 . S
C1244 C1245 1.363 . S
C1244 C1249 1.379 1_565 S
C1244 N1251 1.356 . S
C1245 C1244 1.363 . S
C1245 C1248 1.363 1_565 S
N1246 C1248 1.356 . S
N1246 H1258 0.984 . S
N1246 H1259 0.985 1_545 S
N1247 C1249 1.356 . S
N1247 H1252 0.984 . S
N1247 H1253 0.985 1_545 S
C1248 C1242 1.379 . S
C1248 C1245 1.363 1_545 S
C1248 N1246 1.356 . S
C1249 C1243 1.363 . S
C1249 C1244 1.379 1_545 S
C1249 N1247 1.356 . S
N1250 C1242 1.356 . S
N1250 H1256 0.984 . S
N1250 H1257 0.984 . S
N1251 C1244 1.356 . S
N1251 H1254 0.984 . S
N1251 H1255 0.985 . S
H1252 N1247 0.984 . S
H1253 N1247 0.985 1_565 S
H1254 N1251 0.984 . S
H1255 N1251 0.985 . S
H1256 N1250 0.984 . S
H1257 N1250 0.984 . S
H1258 N1246 0.984 . S
H1259 N1246 0.985 1_565 S
C1260 C1261 1.363 . S
C1260 C1266 1.379 . S
C1260 N1268 1.356 . S
C1261 C1260 1.363 . S
C1261 C1267 1.363 . S
C1262 C1263 1.363 . S
C1262 C1267 1.379 . S
C1262 N1269 1.356 . S
C1263 C1262 1.363 . S
C1263 C1266 1.363 . S
N1264 C1266 1.356 . S
N1264 H1276 0.984 . S
N1264 H1277 0.985 . S
N1265 C1267 1.356 . S
N1265 H1270 0.984 . S
N1265 H1271 0.985 . S
C1266 C1260 1.379 . S
C1266 C1263 1.363 . S
C1266 N1264 1.356 . S
C1267 C1261 1.363 . S
C1267 C1262 1.379 . S
C1267 N1265 1.356 . S
N1268 C1260 1.356 . S
N1268 H1274 0.984 . S
N1268 H1275 0.984 . S
N1269 C1262 1.356 . S
N1269 H1272 0.984 . S
N1269 H1273 0.985 . S
H1270 N1265 0.984 . S
H1271 N1265 0.985 . S
H1272 N1269 0.984 . S
H1273 N1269 0.985 . S
H1274 N1268 0.984 . S
H1275 N1268 0.984 . S
H1276 N1264 0.984 . S
H1277 N1264 0.985 . S
C1278 C1279 1.363 . S
C1278 C1284 1.379 . S
C1278 N1286 1.356 . S
C1279 C1278 1.363 . S
C1279 C1285 1.363 . S
C1280 C1281 1.363 . S
C1280 C1285 1.379 . S
C1280 N1287 1.356 . S
C1281 C1280 1.363 . S
C1281 C1284 1.363 . S
N1282 C1284 1.356 . S
N1282 H1294 0.984 . S
N1282 H1295 0.985 . S
N1283 C1285 1.356 . S
N1283 H1288 0.984 . S
N1283 H1289 0.985 . S
C1284 C1278 1.379 . S
C1284 C1281 1.363 . S
C1284 N1282 1.356 . S
C1285 C1279 1.363 . S
C1285 C1280 1.379 . S
C1285 N1283 1.356 . S
N1286 C1278 1.356 . S
N1286 H1292 0.984 . S
N1286 H1293 0.984 . S
N1287 C1280 1.356 . S
N1287 H1290 0.984 . S
N1287 H1291 0.985 . S
H1288 N1283 0.984 . S
H1289 N1283 0.985 . S
H1290 N1287 0.984 . S
H1291 N1287 0.985 . S
H1292 N1286 0.984 . S
H1293 N1286 0.984 . S
H1294 N1282 0.984 . S
H1295 N1282 0.985 . S
C1296 C1297 1.363 . S
C1296 C1302 1.379 . S
C1296 N1304 1.356 . S
C1297 C1296 1.363 . S
C1297 C1303 1.363 . S
C1298 C1299 1.363 . S
C1298 C1303 1.379 . S
C1298 N1305 1.356 . S
C1299 C1298 1.363 . S
C1299 C1302 1.363 . S
N1300 C1302 1.356 . S
N1300 H1312 0.984 . S
N1300 H1313 0.985 . S
N1301 C1303 1.356 . S
N1301 H1306 0.984 . S
N1301 H1307 0.985 . S
C1302 C1296 1.379 . S
C1302 C1299 1.363 . S
C1302 N1300 1.356 . S
C1303 C1297 1.363 . S
C1303 C1298 1.379 . S
C1303 N1301 1.356 . S
N1304 C1296 1.356 . S
N1304 H1310 0.984 . S
N1304 H1311 0.984 . S
N1305 C1298 1.356 . S
N1305 H1308 0.984 . S
N1305 H1309 0.985 . S
H1306 N1301 0.984 . S
H1307 N1301 0.985 . S
H1308 N1305 0.984 . S
H1309 N1305 0.985 . S
H1310 N1304 0.984 . S
H1311 N1304 0.984 . S
H1312 N1300 0.984 . S
H1313 N1300 0.985 . S
C1314 C1315 1.363 . S
C1314 C1320 1.379 . S
C1314 N1322 1.356 . S
C1315 C1314 1.363 . S
C1315 C1321 1.363 . S
C1316 C1317 1.363 . S
C1316 C1321 1.379 . S
C1316 N1323 1.356 . S
C1317 C1316 1.363 . S
C1317 C1320 1.363 . S
N1318 C1320 1.356 . S
N1318 H1330 0.984 . S
N1318 H1331 0.985 . S
N1319 C1321 1.356 . S
N1319 H1324 0.984 . S
N1319 H1325 0.985 . S
C1320 C1314 1.379 . S
C1320 C1317 1.363 . S
C1320 N1318 1.356 . S
C1321 C1315 1.363 . S
C1321 C1316 1.379 . S
C1321 N1319 1.356 . S
N1322 C1314 1.356 . S
N1322 H1328 0.984 . S
N1322 H1329 0.984 . S
N1323 C1316 1.356 . S
N1323 H1326 0.984 . S
N1323 H1327 0.985 . S
H1324 N1319 0.984 . S
H1325 N1319 0.985 . S
H1326 N1323 0.984 . S
H1327 N1323 0.985 . S
H1328 N1322 0.984 . S
H1329 N1322 0.984 . S
H1330 N1318 0.984 . S
H1331 N1318 0.985 . S
C1332 C1333 1.363 . S
C1332 C1338 1.379 . S
C1332 N1340 1.356 . S
C1333 C1332 1.363 . S
C1333 C1339 1.363 . S
C1334 C1335 1.363 . S
C1334 C1339 1.379 . S
C1334 N1341 1.356 . S
C1335 C1334 1.363 . S
C1335 C1338 1.363 . S
N1336 C1338 1.356 . S
N1336 H1348 0.984 . S
N1336 H1349 0.985 . S
N1337 C1339 1.356 . S
N1337 H1342 0.984 . S
N1337 H1343 0.985 . S
C1338 C1332 1.379 . S
C1338 C1335 1.363 . S
C1338 N1336 1.356 . S
C1339 C1333 1.363 . S
C1339 C1334 1.379 . S
C1339 N1337 1.356 . S
N1340 C1332 1.356 . S
N1340 H1346 0.984 . S
N1340 H1347 0.984 . S
N1341 C1334 1.356 . S
N1341 H1344 0.984 . S
N1341 H1345 0.985 . S
H1342 N1337 0.984 . S
H1343 N1337 0.985 . S
H1344 N1341 0.984 . S
H1345 N1341 0.985 . S
H1346 N1340 0.984 . S
H1347 N1340 0.984 . S
H1348 N1336 0.984 . S
H1349 N1336 0.985 . S
C1350 C1351 1.363 . S
C1350 C1356 1.379 . S
C1350 N1358 1.356 . S
C1351 C1350 1.363 . S
C1351 C1357 1.363 . S
C1352 C1353 1.363 . S
C1352 C1357 1.379 . S
C1352 N1359 1.356 . S
C1353 C1352 1.363 . S
C1353 C1356 1.363 . S
N1354 C1356 1.356 . S
N1354 H1366 0.984 . S
N1354 H1367 0.985 . S
N1355 C1357 1.356 . S
N1355 H1360 0.984 . S
N1355 H1361 0.985 . S
C1356 C1350 1.379 . S
C1356 C1353 1.363 . S
C1356 N1354 1.356 . S
C1357 C1351 1.363 . S
C1357 C1352 1.379 . S
C1357 N1355 1.356 . S
N1358 C1350 1.356 . S
N1358 H1364 0.984 . S
N1358 H1365 0.984 . S
N1359 C1352 1.356 . S
N1359 H1362 0.984 . S
N1359 H1363 0.985 . S
H1360 N1355 0.984 . S
H1361 N1355 0.985 . S
H1362 N1359 0.984 . S
H1363 N1359 0.985 . S
H1364 N1358 0.984 . S
H1365 N1358 0.984 . S
H1366 N1354 0.984 . S
H1367 N1354 0.985 . S
C1368 C1369 1.363 . S
C1368 C1374 1.379 . S
C1368 N1376 1.356 . S
C1369 C1368 1.363 . S
C1369 C1375 1.363 . S
C1370 C1371 1.363 . S
C1370 C1375 1.379 . S
C1370 N1377 1.356 . S
C1371 C1370 1.363 . S
C1371 C1374 1.363 . S
N1372 C1374 1.356 . S
N1372 H1384 0.984 . S
N1372 H1385 0.985 . S
N1373 C1375 1.356 1_545 S
N1373 H1378 0.984 . S
N1373 H1379 0.985 . S
C1374 C1368 1.379 . S
C1374 C1371 1.363 . S
C1374 N1372 1.356 . S
C1375 C1369 1.363 . S
C1375 C1370 1.379 . S
C1375 N1373 1.356 1_565 S
N1376 C1368 1.356 . S
N1376 H1382 0.984 . S
N1376 H1383 0.984 1_565 S
N1377 C1370 1.356 . S
N1377 H1380 0.984 . S
N1377 H1381 0.985 . S
H1378 N1373 0.984 . S
H1379 N1373 0.985 . S
H1380 N1377 0.984 . S
H1381 N1377 0.985 . S
H1382 N1376 0.984 . S
H1383 N1376 0.984 1_545 S
H1384 N1372 0.984 . S
H1385 N1372 0.985 . S
C1386 C1387 1.363 . S
C1386 C1392 1.379 . S
C1386 N1394 1.348 1_455 S
C1387 C1386 1.363 . S
C1387 C1393 1.363 . S
C1388 C1389 1.363 . S
C1388 C1393 1.379 . S
C1388 N1395 1.356 . S
C1389 C1388 1.363 . S
C1389 C1392 1.363 . S
N1390 C1392 1.356 . S
N1390 H1402 0.984 . S
N1390 H1403 0.985 . S
N1391 C1393 1.356 . S
N1391 H1396 0.984 . S
N1391 H1397 0.985 . S
C1392 C1386 1.379 . S
C1392 C1389 1.363 . S
C1392 N1390 1.356 . S
C1393 C1387 1.363 . S
C1393 C1388 1.379 . S
C1393 N1391 1.356 . S
N1394 C1386 1.348 1_655 S
N1394 H1400 0.982 . S
N1394 H1401 0.995 . S
N1395 C1388 1.356 . S
N1395 H1398 0.984 . S
N1395 H1399 0.985 . S
H1396 N1391 0.984 . S
H1397 N1391 0.985 . S
H1398 N1395 0.984 . S
H1399 N1395 0.985 . S
H1400 N1394 0.982 . S
H1401 N1394 0.995 . S
H1402 N1390 0.984 . S
H1403 N1390 0.985 . S
C1404 C1405 1.363 . S
C1404 C1410 1.379 . S
C1404 N1412 1.356 . S
C1405 C1404 1.363 . S
C1405 C1411 1.363 . S
C1406 C1407 1.363 . S
C1406 C1411 1.379 . S
C1406 N1413 1.356 . S
C1407 C1406 1.363 . S
C1407 C1410 1.363 . S
N1408 C1410 1.356 . S
N1408 H1420 0.984 . S
N1408 H1421 0.985 . S
N1409 C1411 1.356 . S
N1409 H1414 0.984 . S
N1409 H1415 0.985 . S
C1410 C1404 1.379 . S
C1410 C1407 1.363 . S
C1410 N1408 1.356 . S
C1411 C1405 1.363 . S
C1411 C1406 1.379 . S
C1411 N1409 1.356 . S
N1412 C1404 1.356 . S
N1412 H1418 0.984 . S
N1412 H1419 0.984 . S
N1413 C1406 1.356 . S
N1413 H1416 0.984 . S
N1413 H1417 0.985 . S
H1414 N1409 0.984 . S
H1415 N1409 0.985 . S
H1416 N1413 0.984 . S
H1417 N1413 0.985 . S
H1418 N1412 0.984 . S
H1419 N1412 0.984 . S
H1420 N1408 0.984 . S
H1421 N1408 0.985 . S
C1422 C1423 1.363 . S
C1422 C1428 1.379 . S
C1422 N1430 1.356 . S
C1423 C1422 1.363 . S
C1423 C1429 1.363 . S
C1424 C1425 1.363 . S
C1424 C1429 1.379 . S
C1424 N1431 1.356 . S
C1425 C1424 1.363 . S
C1425 C1428 1.363 . S
N1426 C1428 1.356 . S
N1426 H1438 0.984 . S
N1426 H1439 0.985 . S
N1427 C1429 1.356 . S
N1427 H1432 0.984 . S
N1427 H1433 0.985 . S
C1428 C1422 1.379 . S
C1428 C1425 1.363 . S
C1428 N1426 1.356 . S
C1429 C1423 1.363 . S
C1429 C1424 1.379 . S
C1429 N1427 1.356 . S
N1430 C1422 1.356 . S
N1430 H1436 0.984 . S
N1430 H1437 0.984 . S
N1431 C1424 1.356 . S
N1431 H1434 0.984 . S
N1431 H1435 0.985 . S
H1432 N1427 0.984 . S
H1433 N1427 0.985 . S
H1434 N1431 0.984 . S
H1435 N1431 0.985 . S
H1436 N1430 0.984 . S
H1437 N1430 0.984 . S
H1438 N1426 0.984 . S
H1439 N1426 0.985 . S
C1440 C1441 1.363 . S
C1440 C1446 1.379 . S
C1440 N1448 1.356 . S
C1441 C1440 1.363 . S
C1441 C1447 1.363 . S
C1442 C1443 1.363 . S
C1442 C1447 1.379 . S
C1442 N1449 1.356 . S
C1443 C1442 1.363 . S
C1443 C1446 1.363 . S
N1444 C1446 1.356 . S
N1444 H1456 0.984 . S
N1444 H1457 0.985 . S
N1445 C1447 1.356 . S
N1445 H1450 0.984 . S
N1445 H1451 0.985 . S
C1446 C1440 1.379 . S
C1446 C1443 1.363 . S
C1446 N1444 1.356 . S
C1447 C1441 1.363 . S
C1447 C1442 1.379 . S
C1447 N1445 1.356 . S
N1448 C1440 1.356 . S
N1448 H1454 0.984 . S
N1448 H1455 0.984 . S
N1449 C1442 1.356 . S
N1449 H1452 0.984 . S
N1449 H1453 0.985 . S
H1450 N1445 0.984 . S
H1451 N1445 0.985 . S
H1452 N1449 0.984 . S
H1453 N1449 0.985 . S
H1454 N1448 0.984 . S
H1455 N1448 0.984 . S
H1456 N1444 0.984 . S
H1457 N1444 0.985 . S
C1458 C1459 1.363 . S
C1458 C1464 1.379 . S
C1458 N1466 1.356 . S
C1459 C1458 1.363 . S
C1459 C1465 1.363 . S
C1460 C1461 1.363 . S
C1460 C1465 1.379 . S
C1460 N1467 1.356 . S
C1461 C1460 1.363 . S
C1461 C1464 1.363 . S
N1462 C1464 1.356 . S
N1462 H1474 0.984 . S
N1462 H1475 0.985 . S
N1463 C1465 1.356 . S
N1463 H1468 0.984 . S
N1463 H1469 0.985 . S
C1464 C1458 1.379 . S
C1464 C1461 1.363 . S
C1464 N1462 1.356 . S
C1465 C1459 1.363 . S
C1465 C1460 1.379 . S
C1465 N1463 1.356 . S
N1466 C1458 1.356 . S
N1466 H1472 0.984 . S
N1466 H1473 0.984 . S
N1467 C1460 1.356 . S
N1467 H1470 0.984 . S
N1467 H1471 0.985 . S
H1468 N1463 0.984 . S
H1469 N1463 0.985 . S
H1470 N1467 0.984 . S
H1471 N1467 0.985 . S
H1472 N1466 0.984 . S
H1473 N1466 0.984 . S
H1474 N1462 0.984 . S
H1475 N1462 0.985 . S
C1476 C1477 1.363 . S
C1476 C1482 1.379 1_565 S
C1476 N1484 1.356 . S
C1477 C1476 1.363 . S
C1477 C1483 1.363 . S
C1478 C1479 1.363 . S
C1478 C1483 1.379 1_545 S
C1478 N1485 1.356 . S
C1479 C1478 1.363 . S
C1479 C1482 1.363 . S
N1480 C1482 1.356 . S
N1480 H1492 0.984 . S
N1480 H1493 0.985 . S
N1481 C1483 1.356 . S
N1481 H1486 0.984 . S
N1481 H1487 0.985 . S
C1482 C1476 1.379 1_545 S
C1482 C1479 1.363 . S
C1482 N1480 1.356 . S
C1483 C1477 1.363 . S
C1483 C1478 1.379 1_565 S
C1483 N1481 1.356 . S
N1484 C1476 1.356 . S
N1484 H1490 0.984 . S
N1484 H1491 0.984 . S
N1485 C1478 1.356 . S
N1485 H1488 0.984 . S
N1485 H1489 0.985 . S
H1486 N1481 0.984 . S
H1487 N1481 0.985 . S
H1488 N1485 0.984 . S
H1489 N1485 0.985 . S
H1490 N1484 0.984 . S
H1491 N1484 0.984 . S
H1492 N1480 0.984 . S
H1493 N1480 0.985 . S
C1494 C1495 1.363 1_655 S
C1494 C1500 1.379 . S
C1494 N1502 1.349 1_655 S
C1495 C1494 1.363 1_455 S
C1495 C1501 1.363 . S
C1496 C1497 1.363 1_455 S
C1496 C1501 1.379 . S
C1496 N1503 1.369 . S
C1497 C1496 1.363 1_655 S
C1497 C1500 1.363 . S
N1498 C1500 1.356 . S
N1498 H1510 0.984 . S
N1498 H1511 0.985 . S
N1499 C1501 1.356 . S
N1499 H1504 0.984 . S
N1499 H1505 0.985 . S
C1500 C1494 1.379 . S
C1500 C1497 1.363 . S
C1500 N1498 1.356 . S
C1501 C1495 1.363 . S
C1501 C1496 1.379 . S
C1501 N1499 1.356 . S
N1502 C1494 1.349 1_455 S
N1502 H1508 0.978 1_455 S
N1502 H1509 0.999 . S
N1503 C1496 1.369 . S
N1503 H1506 0.959 1_455 S
N1503 H1507 0.997 . S
H1504 N1499 0.984 . S
H1505 N1499 0.985 . S
H1506 N1503 0.959 1_655 S
H1507 N1503 0.997 . S
H1508 N1502 0.978 1_655 S
H1509 N1502 0.999 . S
H1510 N1498 0.984 . S
H1511 N1498 0.985 . S
C1512 C1513 1.363 . S
C1512 C1518 1.379 . S
C1512 N1520 1.356 . S
C1513 C1512 1.363 . S
C1513 C1519 1.363 . S
C1514 C1515 1.363 . S
C1514 C1519 1.379 . S
C1514 N1521 1.356 . S
C1515 C1514 1.363 . S
C1515 C1518 1.363 . S
N1516 C1518 1.356 . S
N1516 H1528 0.984 . S
N1516 H1529 0.985 . S
N1517 C1519 1.356 . S
N1517 H1522 0.984 . S
N1517 H1523 0.985 . S
C1518 C1512 1.379 . S
C1518 C1515 1.363 . S
C1518 N1516 1.356 . S
C1519 C1513 1.363 . S
C1519 C1514 1.379 . S
C1519 N1517 1.356 . S
N1520 C1512 1.356 . S
N1520 H1526 0.984 . S
N1520 H1527 0.984 . S
N1521 C1514 1.356 . S
N1521 H1524 0.984 . S
N1521 H1525 0.985 . S
H1522 N1517 0.984 . S
H1523 N1517 0.985 . S
H1524 N1521 0.984 . S
H1525 N1521 0.985 . S
H1526 N1520 0.984 . S
H1527 N1520 0.984 . S
H1528 N1516 0.984 . S
H1529 N1516 0.985 . S
C1530 C1531 1.363 . S
C1530 C1536 1.379 . S
C1530 N1538 1.356 . S
C1531 C1530 1.363 . S
C1531 C1537 1.363 . S
C1532 C1533 1.363 . S
C1532 C1537 1.379 . S
C1532 N1539 1.356 . S
C1533 C1532 1.363 . S
C1533 C1536 1.363 . S
N1534 C1536 1.356 . S
N1534 H1546 0.984 . S
N1534 H1547 0.985 . S
N1535 C1537 1.356 1_455 S
N1535 H1540 0.984 . S
N1535 H1541 0.985 . S
C1536 C1530 1.379 . S
C1536 C1533 1.363 . S
C1536 N1534 1.356 . S
C1537 C1531 1.363 . S
C1537 C1532 1.379 . S
C1537 N1535 1.356 1_655 S
N1538 C1530 1.356 . S
N1538 H1544 0.984 . S
N1538 H1545 1.002 . S
N1539 C1532 1.356 . S
N1539 H1542 0.984 . S
N1539 H1543 0.985 . S
H1540 N1535 0.984 . S
H1541 N1535 0.985 . S
H1542 N1539 0.984 . S
H1543 N1539 0.985 . S
H1544 N1538 0.984 . S
H1545 N1538 1.002 . S
H1546 N1534 0.984 . S
H1547 N1534 0.985 . S
C1548 C1549 1.363 . S
C1548 C1554 1.379 . S
C1548 N1556 1.356 . S
C1549 C1548 1.363 . S
C1549 C1555 1.363 . S
C1550 C1551 1.363 . S
C1550 C1555 1.379 . S
C1550 N1557 1.356 . S
C1551 C1550 1.363 . S
C1551 C1554 1.363 . S
N1552 C1554 1.356 . S
N1552 H1564 0.984 . S
N1552 H1565 0.985 . S
N1553 C1555 1.356 . S
N1553 H1558 0.984 . S
N1553 H1559 0.985 . S
C1554 C1548 1.379 . S
C1554 C1551 1.363 . S
C1554 N1552 1.356 . S
C1555 C1549 1.363 . S
C1555 C1550 1.379 . S
C1555 N1553 1.356 . S
N1556 C1548 1.356 . S
N1556 H1562 0.984 . S
N1556 H1563 0.984 . S
N1557 C1550 1.356 . S
N1557 H1560 0.984 . S
N1557 H1561 0.985 . S
H1558 N1553 0.984 . S
H1559 N1553 0.985 . S
H1560 N1557 0.984 . S
H1561 N1557 0.985 . S
H1562 N1556 0.984 . S
H1563 N1556 0.984 . S
H1564 N1552 0.984 . S
H1565 N1552 0.985 . S
C1566 C1567 1.363 . S
C1566 C1572 1.379 . S
C1566 N1574 1.356 . S
C1567 C1566 1.363 . S
C1567 C1573 1.363 . S
C1568 C1569 1.363 . S
C1568 C1573 1.379 . S
C1568 N1575 1.356 . S
C1569 C1568 1.363 . S
C1569 C1572 1.363 . S
N1570 C1572 1.356 . S
N1570 H1582 0.984 . S
N1570 H1583 0.985 . S
N1571 C1573 1.356 1_565 S
N1571 H1576 0.984 . S
N1571 H1577 0.985 . S
C1572 C1566 1.379 . S
C1572 C1569 1.363 . S
C1572 N1570 1.356 . S
C1573 C1567 1.363 . S
C1573 C1568 1.379 . S
C1573 N1571 1.356 1_545 S
N1574 C1566 1.356 . S
N1574 H1580 0.984 . S
N1574 H1581 0.984 1_545 S
N1575 C1568 1.356 . S
N1575 H1578 0.984 . S
N1575 H1579 0.985 . S
H1576 N1571 0.984 . S
H1577 N1571 0.985 . S
H1578 N1575 0.984 . S
H1579 N1575 0.985 . S
H1580 N1574 0.984 . S
H1581 N1574 0.984 1_565 S
H1582 N1570 0.984 . S
H1583 N1570 0.985 . S
C1584 C1585 1.363 . S
C1584 C1590 1.379 . S
C1584 N1592 1.356 . S
C1585 C1584 1.363 . S
C1585 C1591 1.363 . S
C1586 C1587 1.363 . S
C1586 C1591 1.379 . S
C1586 N1593 1.356 . S
C1587 C1586 1.363 . S
C1587 C1590 1.363 . S
N1588 C1590 1.356 . S
N1588 H1600 0.984 . S
N1588 H1601 0.985 . S
N1589 C1591 1.356 . S
N1589 H1594 0.984 . S
N1589 H1595 0.985 . S
C1590 C1584 1.379 . S
C1590 C1587 1.363 . S
C1590 N1588 1.356 . S
C1591 C1585 1.363 . S
C1591 C1586 1.379 . S
C1591 N1589 1.356 . S
N1592 C1584 1.356 . S
N1592 H1598 0.984 . S
N1592 H1599 0.984 . S
N1593 C1586 1.356 . S
N1593 H1596 0.984 . S
N1593 H1597 0.985 . S
H1594 N1589 0.984 . S
H1595 N1589 0.985 . S
H1596 N1593 0.984 . S
H1597 N1593 0.985 . S
H1598 N1592 0.984 . S
H1599 N1592 0.984 . S
H1600 N1588 0.984 . S
H1601 N1588 0.985 . S
C1602 C1603 1.363 . S
C1602 C1608 1.379 . S
C1602 N1610 1.356 . S
C1603 C1602 1.363 . S
C1603 C1609 1.363 . S
C1604 C1605 1.363 . S
C1604 C1609 1.379 . S
C1604 N1611 1.356 . S
C1605 C1604 1.363 . S
C1605 C1608 1.363 . S
N1606 C1608 1.356 . S
N1606 H1618 0.984 . S
N1606 H1619 0.985 . S
N1607 C1609 1.356 . S
N1607 H1612 0.984 . S
N1607 H1613 0.985 . S
C1608 C1602 1.379 . S
C1608 C1605 1.363 . S
C1608 N1606 1.356 . S
C1609 C1603 1.363 . S
C1609 C1604 1.379 . S
C1609 N1607 1.356 . S
N1610 C1602 1.356 . S
N1610 H1616 0.984 . S
N1610 H1617 0.984 . S
N1611 C1604 1.356 . S
N1611 H1614 0.984 . S
N1611 H1615 0.985 . S
H1612 N1607 0.984 . S
H1613 N1607 0.985 . S
H1614 N1611 0.984 . S
H1615 N1611 0.985 . S
H1616 N1610 0.984 . S
H1617 N1610 0.984 . S
H1618 N1606 0.984 . S
H1619 N1606 0.985 . S
C1620 C1621 1.363 . S
C1620 C1626 1.379 . S
C1620 N1628 1.356 . S
C1621 C1620 1.363 . S
C1621 C1627 1.363 . S
C1622 C1623 1.363 . S
C1622 C1627 1.379 . S
C1622 N1629 1.356 . S
C1623 C1622 1.363 . S
C1623 C1626 1.363 . S
N1624 C1626 1.356 . S
N1624 H1636 0.984 . S
N1624 H1637 0.985 . S
N1625 C1627 1.356 . S
N1625 H1630 0.984 . S
N1625 H1631 0.985 . S
C1626 C1620 1.379 . S
C1626 C1623 1.363 . S
C1626 N1624 1.356 . S
C1627 C1621 1.363 . S
C1627 C1622 1.379 . S
C1627 N1625 1.356 . S
N1628 C1620 1.356 . S
N1628 H1634 0.984 . S
N1628 H1635 0.984 . S
N1629 C1622 1.356 . S
N1629 H1632 0.984 . S
N1629 H1633 0.985 . S
H1630 N1625 0.984 . S
H1631 N1625 0.985 . S
H1632 N1629 0.984 . S
H1633 N1629 0.985 . S
H1634 N1628 0.984 . S
H1635 N1628 0.984 . S
H1636 N1624 0.984 . S
H1637 N1624 0.985 . S
C1638 C1639 1.363 . S
C1638 C1644 1.379 . S
C1638 N1646 1.356 . S
C1639 C1638 1.363 . S
C1639 C1645 1.363 . S
C1640 C1641 1.363 . S
C1640 C1645 1.379 . S
C1640 N1647 1.356 . S
C1641 C1640 1.363 . S
C1641 C1644 1.363 . S
N1642 C1644 1.356 . S
N1642 H1654 0.984 . S
N1642 H1655 0.985 . S
N1643 C1645 1.356 . S
N1643 H1648 0.984 . S
N1643 H1649 0.985 . S
C1644 C1638 1.379 . S
C1644 C1641 1.363 . S
C1644 N1642 1.356 . S
C1645 C1639 1.363 . S
C1645 C1640 1.379 . S
C1645 N1643 1.356 . S
N1646 C1638 1.356 . S
N1646 H1652 0.984 . S
N1646 H1653 0.984 . S
N1647 C1640 1.356 . S
N1647 H1650 0.984 . S
N1647 H1651 0.985 . S
H1648 N1643 0.984 . S
H1649 N1643 0.985 . S
H1650 N1647 0.984 . S
H1651 N1647 0.985 . S
H1652 N1646 0.984 . S
H1653 N1646 0.984 . S
H1654 N1642 0.984 . S
H1655 N1642 0.985 . S
C1656 C1657 1.363 . S
C1656 C1662 1.379 . S
C1656 N1664 1.356 . S
C1657 C1656 1.363 . S
C1657 C1663 1.363 . S
C1658 C1659 1.363 . S
C1658 C1663 1.379 . S
C1658 N1665 1.356 . S
C1659 C1658 1.363 . S
C1659 C1662 1.363 . S
N1660 C1662 1.356 . S
N1660 H1672 0.984 . S
N1660 H1673 0.985 . S
N1661 C1663 1.356 . S
N1661 H1666 0.984 . S
N1661 H1667 0.985 . S
C1662 C1656 1.379 . S
C1662 C1659 1.363 . S
C1662 N1660 1.356 . S
C1663 C1657 1.363 . S
C1663 C1658 1.379 . S
C1663 N1661 1.356 . S
N1664 C1656 1.356 . S
N1664 H1670 0.984 . S
N1664 H1671 0.984 . S
N1665 C1658 1.356 . S
N1665 H1668 0.984 . S
N1665 H1669 0.985 . S
H1666 N1661 0.984 . S
H1667 N1661 0.985 . S
H1668 N1665 0.984 . S
H1669 N1665 0.985 . S
H1670 N1664 0.984 . S
H1671 N1664 0.984 . S
H1672 N1660 0.984 . S
H1673 N1660 0.985 . S
C1674 C1675 1.363 . S
C1674 C1680 1.379 . S
C1674 N1682 1.356 . S
C1675 C1674 1.363 . S
C1675 C1681 1.363 . S
C1676 C1677 1.363 . S
C1676 C1681 1.379 . S
C1676 N1683 1.356 . S
C1677 C1676 1.363 . S
C1677 C1680 1.363 . S
N1678 C1680 1.356 . S
N1678 H1690 0.984 . S
N1678 H1691 0.985 . S
N1679 C1681 1.356 . S
N1679 H1684 0.984 . S
N1679 H1685 0.985 . S
C1680 C1674 1.379 . S
C1680 C1677 1.363 . S
C1680 N1678 1.356 . S
C1681 C1675 1.363 . S
C1681 C1676 1.379 . S
C1681 N1679 1.356 . S
N1682 C1674 1.356 . S
N1682 H1688 0.984 . S
N1682 H1689 0.984 . S
N1683 C1676 1.356 . S
N1683 H1686 0.984 . S
N1683 H1687 0.985 . S
H1684 N1679 0.984 . S
H1685 N1679 0.985 . S
H1686 N1683 0.984 . S
H1687 N1683 0.985 . S
H1688 N1682 0.984 . S
H1689 N1682 0.984 . S
H1690 N1678 0.984 . S
H1691 N1678 0.985 . S
C1692 C1693 1.363 . S
C1692 C1698 1.379 . S
C1692 N1700 1.356 . S
C1693 C1692 1.363 . S
C1693 C1699 1.363 . S
C1694 C1695 1.363 . S
C1694 C1699 1.379 . S
C1694 N1701 1.356 . S
C1695 C1694 1.363 . S
C1695 C1698 1.363 . S
N1696 C1698 1.356 . S
N1696 H1708 0.984 . S
N1696 H1709 0.985 . S
N1697 C1699 1.356 . S
N1697 H1702 0.984 . S
N1697 H1703 0.985 . S
C1698 C1692 1.379 . S
C1698 C1695 1.363 . S
C1698 N1696 1.356 . S
C1699 C1693 1.363 . S
C1699 C1694 1.379 . S
C1699 N1697 1.356 . S
N1700 C1692 1.356 . S
N1700 H1706 0.984 . S
N1700 H1707 0.984 . S
N1701 C1694 1.356 . S
N1701 H1704 0.984 . S
N1701 H1705 0.985 1_655 S
H1702 N1697 0.984 . S
H1703 N1697 0.985 . S
H1704 N1701 0.984 . S
H1705 N1701 0.985 1_455 S
H1706 N1700 0.984 . S
H1707 N1700 0.984 . S
H1708 N1696 0.984 . S
H1709 N1696 0.985 . S
C1710 C1711 1.363 . S
C1710 C1716 1.379 . S
C1710 N1718 1.356 . S
C1711 C1710 1.363 . S
C1711 C1717 1.363 . S
C1712 C1713 1.363 . S
C1712 C1717 1.379 . S
C1712 N1719 1.356 . S
C1713 C1712 1.363 . S
C1713 C1716 1.363 . S
N1714 C1716 1.356 . S
N1714 H1726 0.984 . S
N1714 H1727 0.985 . S
N1715 C1717 1.356 . S
N1715 H1720 0.984 . S
N1715 H1721 0.985 . S
C1716 C1710 1.379 . S
C1716 C1713 1.363 . S
C1716 N1714 1.356 . S
C1717 C1711 1.363 . S
C1717 C1712 1.379 . S
C1717 N1715 1.356 . S
N1718 C1710 1.356 . S
N1718 H1724 0.984 . S
N1718 H1725 0.984 . S
N1719 C1712 1.356 . S
N1719 H1722 0.984 . S
N1719 H1723 0.985 . S
H1720 N1715 0.984 . S
H1721 N1715 0.985 . S
H1722 N1719 0.984 . S
H1723 N1719 0.985 . S
H1724 N1718 0.984 . S
H1725 N1718 0.984 . S
H1726 N1714 0.984 . S
H1727 N1714 0.985 . S
C1728 C1729 1.363 . S
C1728 C1734 1.379 . S
C1728 N1736 1.356 . S
C1729 C1728 1.363 . S
C1729 C1735 1.363 . S
C1730 C1731 1.363 . S
C1730 C1735 1.379 . S
C1730 N1737 1.356 . S
C1731 C1730 1.363 . S
C1731 C1734 1.363 . S
N1732 C1734 1.356 . S
N1732 H1744 0.984 . S
N1732 H1745 0.985 . S
N1733 C1735 1.356 . S
N1733 H1738 0.984 . S
N1733 H1739 0.985 . S
C1734 C1728 1.379 . S
C1734 C1731 1.363 . S
C1734 N1732 1.356 . S
C1735 C1729 1.363 . S
C1735 C1730 1.379 . S
C1735 N1733 1.356 . S
N1736 C1728 1.356 . S
N1736 H1742 0.984 . S
N1736 H1743 0.984 . S
N1737 C1730 1.356 . S
N1737 H1740 0.984 . S
N1737 H1741 0.985 . S
H1738 N1733 0.984 . S
H1739 N1733 0.985 . S
H1740 N1737 0.984 . S
H1741 N1737 0.985 . S
H1742 N1736 0.984 . S
H1743 N1736 0.984 . S
H1744 N1732 0.984 . S
H1745 N1732 0.985 . S
C1746 C1747 1.363 . S
C1746 C1752 1.379 . S
C1746 N1754 1.356 . S
C1747 C1746 1.363 . S
C1747 C1753 1.363 . S
C1748 C1749 1.363 . S
C1748 C1753 1.379 . S
C1748 N1755 1.356 . S
C1749 C1748 1.363 . S
C1749 C1752 1.363 . S
N1750 C1752 1.356 . S
N1750 H1762 0.984 . S
N1750 H1763 0.985 . S
N1751 C1753 1.356 . S
N1751 H1756 0.984 . S
N1751 H1757 0.985 . S
C1752 C1746 1.379 . S
C1752 C1749 1.363 . S
C1752 N1750 1.356 . S
C1753 C1747 1.363 . S
C1753 C1748 1.379 . S
C1753 N1751 1.356 . S
N1754 C1746 1.356 . S
N1754 H1760 0.984 . S
N1754 H1761 0.984 . S
N1755 C1748 1.356 . S
N1755 H1758 0.984 . S
N1755 H1759 0.985 . S
H1756 N1751 0.984 . S
H1757 N1751 0.985 . S
H1758 N1755 0.984 . S
H1759 N1755 0.985 . S
H1760 N1754 0.984 . S
H1761 N1754 0.984 . S
H1762 N1750 0.984 . S
H1763 N1750 0.985 . S
C1764 C1765 1.363 . S
C1764 C1770 1.379 . S
C1764 N1772 1.356 . S
C1765 C1764 1.363 . S
C1765 C1771 1.363 . S
C1766 C1767 1.363 . S
C1766 C1771 1.379 . S
C1766 N1773 1.356 . S
C1767 C1766 1.363 . S
C1767 C1770 1.363 . S
N1768 C1770 1.356 . S
N1768 H1780 0.984 . S
N1768 H1781 0.985 . S
N1769 C1771 1.356 . S
N1769 H1774 0.984 . S
N1769 H1775 0.985 . S
C1770 C1764 1.379 . S
C1770 C1767 1.363 . S
C1770 N1768 1.356 . S
C1771 C1765 1.363 . S
C1771 C1766 1.379 . S
C1771 N1769 1.356 . S
N1772 C1764 1.356 . S
N1772 H1778 0.984 . S
N1772 H1779 0.984 . S
N1773 C1766 1.356 . S
N1773 H1776 0.984 . S
N1773 H1777 0.985 . S
H1774 N1769 0.984 . S
H1775 N1769 0.985 . S
H1776 N1773 0.984 . S
H1777 N1773 0.985 . S
H1778 N1772 0.984 . S
H1779 N1772 0.984 . S
H1780 N1768 0.984 . S
H1781 N1768 0.985 . S
C1782 C1783 1.363 . S
C1782 C1788 1.379 . S
C1782 N1790 1.356 . S
C1783 C1782 1.363 . S
C1783 C1789 1.363 . S
C1784 C1785 1.363 . S
C1784 C1789 1.379 . S
C1784 N1791 1.356 . S
C1785 C1784 1.363 . S
C1785 C1788 1.363 . S
N1786 C1788 1.356 . S
N1786 H1798 0.984 . S
N1786 H1799 0.985 . S
N1787 C1789 1.356 . S
N1787 H1792 0.984 . S
N1787 H1793 0.985 . S
C1788 C1782 1.379 . S
C1788 C1785 1.363 . S
C1788 N1786 1.356 . S
C1789 C1783 1.363 . S
C1789 C1784 1.379 . S
C1789 N1787 1.356 . S
N1790 C1782 1.356 . S
N1790 H1796 0.984 . S
N1790 H1797 0.984 . S
N1791 C1784 1.356 . S
N1791 H1794 0.984 . S
N1791 H1795 0.985 . S
H1792 N1787 0.984 . S
H1793 N1787 0.985 . S
H1794 N1791 0.984 . S
H1795 N1791 0.985 . S
H1796 N1790 0.984 . S
H1797 N1790 0.984 . S
H1798 N1786 0.984 . S
H1799 N1786 0.985 . S
C1800 C1801 1.363 . S
C1800 C1806 1.379 . S
C1800 N1808 1.356 . S
C1801 C1800 1.363 . S
C1801 C1807 1.363 . S
C1802 C1803 1.363 . S
C1802 C1807 1.379 . S
C1802 N1809 1.356 . S
C1803 C1802 1.363 . S
C1803 C1806 1.363 . S
N1804 C1806 1.356 . S
N1804 H1816 0.984 . S
N1804 H1817 0.985 . S
N1805 C1807 1.356 . S
N1805 H1810 0.984 . S
N1805 H1811 0.985 . S
C1806 C1800 1.379 . S
C1806 C1803 1.363 . S
C1806 N1804 1.356 . S
C1807 C1801 1.363 . S
C1807 C1802 1.379 . S
C1807 N1805 1.356 . S
N1808 C1800 1.356 . S
N1808 H1814 0.984 . S
N1808 H1815 0.984 . S
N1809 C1802 1.356 . S
N1809 H1812 0.984 . S
N1809 H1813 0.985 . S
H1810 N1805 0.984 . S
H1811 N1805 0.985 . S
H1812 N1809 0.984 . S
H1813 N1809 0.985 . S
H1814 N1808 0.984 . S
H1815 N1808 0.984 . S
H1816 N1804 0.984 . S
H1817 N1804 0.985 . S
C1818 C1819 1.363 . S
C1818 C1824 1.379 . S
C1818 N1826 1.356 . S
C1819 C1818 1.363 . S
C1819 C1825 1.363 . S
C1820 C1821 1.363 . S
C1820 C1825 1.379 . S
C1820 N1827 1.356 . S
C1821 C1820 1.363 . S
C1821 C1824 1.363 . S
N1822 C1824 1.356 . S
N1822 H1834 0.984 . S
N1822 H1835 0.985 . S
N1823 C1825 1.356 . S
N1823 H1828 0.984 . S
N1823 H1829 0.985 . S
C1824 C1818 1.379 . S
C1824 C1821 1.363 . S
C1824 N1822 1.356 . S
C1825 C1819 1.363 . S
C1825 C1820 1.379 . S
C1825 N1823 1.356 . S
N1826 C1818 1.356 . S
N1826 H1832 0.984 . S
N1826 H1833 0.984 . S
N1827 C1820 1.356 . S
N1827 H1830 0.984 . S
N1827 H1831 0.985 . S
H1828 N1823 0.984 . S
H1829 N1823 0.985 . S
H1830 N1827 0.984 . S
H1831 N1827 0.985 . S
H1832 N1826 0.984 . S
H1833 N1826 0.984 . S
H1834 N1822 0.984 . S
H1835 N1822 0.985 . S
C1836 C1837 1.363 . S
C1836 C1842 1.379 . S
C1836 N1844 1.356 . S
C1837 C1836 1.363 . S
C1837 C1843 1.363 . S
C1838 C1839 1.363 . S
C1838 C1843 1.379 . S
C1838 N1845 1.356 . S
C1839 C1838 1.363 . S
C1839 C1842 1.363 . S
N1840 C1842 1.356 . S
N1840 H1852 0.984 . S
N1840 H1853 0.985 . S
N1841 C1843 1.356 . S
N1841 H1846 0.984 . S
N1841 H1847 0.985 . S
C1842 C1836 1.379 . S
C1842 C1839 1.363 . S
C1842 N1840 1.356 . S
C1843 C1837 1.363 . S
C1843 C1838 1.379 . S
C1843 N1841 1.356 . S
N1844 C1836 1.356 . S
N1844 H1850 0.984 . S
N1844 H1851 0.984 . S
N1845 C1838 1.356 . S
N1845 H1848 0.984 . S
N1845 H1849 0.985 . S
H1846 N1841 0.984 . S
H1847 N1841 0.985 . S
H1848 N1845 0.984 . S
H1849 N1845 0.985 . S
H1850 N1844 0.984 . S
H1851 N1844 0.984 . S
H1852 N1840 0.984 . S
H1853 N1840 0.985 . S
C1854 C1855 1.363 . S
C1854 C1860 1.379 . S
C1854 N1862 1.356 . S
C1855 C1854 1.363 . S
C1855 C1861 1.363 . S
C1856 C1857 1.363 . S
C1856 C1861 1.379 . S
C1856 N1863 1.356 . S
C1857 C1856 1.363 . S
C1857 C1860 1.363 . S
N1858 C1860 1.356 . S
N1858 H1870 0.984 . S
N1858 H1871 0.985 . S
N1859 C1861 1.356 . S
N1859 H1864 0.984 . S
N1859 H1865 0.985 . S
C1860 C1854 1.379 . S
C1860 C1857 1.363 . S
C1860 N1858 1.356 . S
C1861 C1855 1.363 . S
C1861 C1856 1.379 . S
C1861 N1859 1.356 . S
N1862 C1854 1.356 . S
N1862 H1868 0.984 . S
N1862 H1869 0.984 . S
N1863 C1856 1.356 . S
N1863 H1866 0.984 . S
N1863 H1867 0.985 . S
H1864 N1859 0.984 . S
H1865 N1859 0.985 . S
H1866 N1863 0.984 . S
H1867 N1863 0.985 . S
H1868 N1862 0.984 . S
H1869 N1862 0.984 . S
H1870 N1858 0.984 . S
H1871 N1858 0.985 . S
C1872 C1873 1.363 . S
C1872 C1878 1.379 . S
C1872 N1880 1.356 . S
C1873 C1872 1.363 . S
C1873 C1879 1.363 . S
C1874 C1875 1.363 . S
C1874 C1879 1.379 . S
C1874 N1881 1.356 . S
C1875 C1874 1.363 . S
C1875 C1878 1.363 . S
N1876 C1878 1.356 . S
N1876 H1888 0.984 . S
N1876 H1889 0.985 . S
N1877 C1879 1.356 . S
N1877 H1882 0.984 . S
N1877 H1883 0.985 . S
C1878 C1872 1.379 . S
C1878 C1875 1.363 . S
C1878 N1876 1.356 . S
C1879 C1873 1.363 . S
C1879 C1874 1.379 . S
C1879 N1877 1.356 . S
N1880 C1872 1.356 . S
N1880 H1886 0.984 . S
N1880 H1887 0.984 . S
N1881 C1874 1.356 . S
N1881 H1884 0.984 . S
N1881 H1885 0.985 . S
H1882 N1877 0.984 . S
H1883 N1877 0.985 . S
H1884 N1881 0.984 . S
H1885 N1881 0.985 . S
H1886 N1880 0.984 . S
H1887 N1880 0.984 . S
H1888 N1876 0.984 . S
H1889 N1876 0.985 . S
C1890 C1891 1.363 . S
C1890 C1896 1.379 . S
C1890 N1898 1.356 . S
C1891 C1890 1.363 . S
C1891 C1897 1.363 . S
C1892 C1893 1.363 . S
C1892 C1897 1.379 . S
C1892 N1899 1.356 . S
C1893 C1892 1.363 . S
C1893 C1896 1.363 . S
N1894 C1896 1.356 . S
N1894 H1906 0.984 . S
N1894 H1907 0.985 . S
N1895 C1897 1.356 . S
N1895 H1900 0.984 . S
N1895 H1901 0.985 . S
C1896 C1890 1.379 . S
C1896 C1893 1.363 . S
C1896 N1894 1.356 . S
C1897 C1891 1.363 . S
C1897 C1892 1.379 . S
C1897 N1895 1.356 . S
N1898 C1890 1.356 . S
N1898 H1904 0.984 . S
N1898 H1905 0.984 . S
N1899 C1892 1.356 . S
N1899 H1902 0.984 . S
N1899 H1903 0.985 . S
H1900 N1895 0.984 . S
H1901 N1895 0.985 . S
H1902 N1899 0.984 . S
H1903 N1899 0.985 . S
H1904 N1898 0.984 . S
H1905 N1898 0.984 . S
H1906 N1894 0.984 . S
H1907 N1894 0.985 . S
C1908 C1909 1.363 . S
C1908 C1914 1.379 . S
C1908 N1916 1.356 . S
C1909 C1908 1.363 . S
C1909 C1915 1.363 . S
C1910 C1911 1.363 . S
C1910 C1915 1.379 . S
C1910 N1917 1.356 . S
C1911 C1910 1.363 . S
C1911 C1914 1.363 . S
N1912 C1914 1.356 . S
N1912 H1924 0.984 . S
N1912 H1925 0.985 . S
N1913 C1915 1.356 . S
N1913 H1918 0.984 . S
N1913 H1919 0.985 . S
C1914 C1908 1.379 . S
C1914 C1911 1.363 . S
C1914 N1912 1.356 . S
C1915 C1909 1.363 . S
C1915 C1910 1.379 . S
C1915 N1913 1.356 . S
N1916 C1908 1.356 . S
N1916 H1922 0.984 . S
N1916 H1923 0.984 . S
N1917 C1910 1.356 . S
N1917 H1920 0.984 . S
N1917 H1921 0.985 . S
H1918 N1913 0.984 . S
H1919 N1913 0.985 . S
H1920 N1917 0.984 . S
H1921 N1917 0.985 . S
H1922 N1916 0.984 . S
H1923 N1916 0.984 . S
H1924 N1912 0.984 . S
H1925 N1912 0.985 . S
C1926 C1927 1.363 . S
C1926 C1932 1.379 . S
C1926 N1934 1.356 . S
C1927 C1926 1.363 . S
C1927 C1933 1.363 . S
C1928 C1929 1.363 . S
C1928 C1933 1.379 . S
C1928 N1935 1.356 . S
C1929 C1928 1.363 . S
C1929 C1932 1.363 . S
N1930 C1932 1.356 . S
N1930 H1942 0.984 . S
N1930 H1943 0.985 . S
N1931 C1933 1.356 . S
N1931 H1936 0.984 . S
N1931 H1937 0.985 . S
C1932 C1926 1.379 . S
C1932 C1929 1.363 . S
C1932 N1930 1.356 . S
C1933 C1927 1.363 . S
C1933 C1928 1.379 . S
C1933 N1931 1.356 . S
N1934 C1926 1.356 . S
N1934 H1940 0.984 . S
N1934 H1941 0.984 . S
N1935 C1928 1.356 . S
N1935 H1938 0.984 . S
N1935 H1939 0.985 . S
H1936 N1931 0.984 . S
H1937 N1931 0.985 . S
H1938 N1935 0.984 . S
H1939 N1935 0.985 . S
H1940 N1934 0.984 . S
H1941 N1934 0.984 . S
H1942 N1930 0.984 . S
H1943 N1930 0.985 . S
C1944 C1945 1.363 . S
C1944 C1950 1.379 . S
C1944 N1952 1.356 . S
C1945 C1944 1.363 . S
C1945 C1951 1.363 . S
C1946 C1947 1.363 . S
C1946 C1951 1.379 . S
C1946 N1953 1.356 . S
C1947 C1946 1.363 . S
C1947 C1950 1.363 . S
N1948 C1950 1.356 . S
N1948 H1960 0.984 . S
N1948 H1961 0.985 . S
N1949 C1951 1.356 . S
N1949 H1954 0.984 . S
N1949 H1955 0.985 . S
C1950 C1944 1.379 . S
C1950 C1947 1.363 . S
C1950 N1948 1.356 . S
C1951 C1945 1.363 . S
C1951 C1946 1.379 . S
C1951 N1949 1.356 . S
N1952 C1944 1.356 . S
N1952 H1958 0.984 . S
N1952 H1959 0.984 . S
N1953 C1946 1.356 . S
N1953 H1956 0.984 . S
N1953 H1957 0.985 . S
H1954 N1949 0.984 . S
H1955 N1949 0.985 . S
H1956 N1953 0.984 . S
H1957 N1953 0.985 . S
H1958 N1952 0.984 . S
H1959 N1952 0.984 . S
H1960 N1948 0.984 . S
H1961 N1948 0.985 . S
C991 C177 1.476 . S
C993 C301 1.417 . S
C1009 C190 1.501 . S
C1011 C385 1.447 . S
C1027 C164 1.472 . S
C1029 C465 1.470 . S
C1045 C151 1.462 . S
C1047 C381 1.463 . S
C1065 C469 1.407 . S
C1063 C125 1.468 . S
C1081 C138 1.439 . S
C1083 C297 1.437 . S
C1101 C290 1.459 . S
C1099 C147 1.467 . S
C1119 C374 1.482 . S
C1117 C121 1.481 . S
C1135 C134 1.484 . S
C1137 C476 1.482 . S
C1153 C173 1.458 . S
C1155 C392 1.460 . S
C1171 C186 1.443 . S
C1173 C458 1.436 . S
C1191 C308 1.442 . S
C1189 C160 1.447 . S
C1209 C553 1.417 . S
C1207 C21 1.476 . S
C1225 C34 1.502 . S
C1227 C637 1.447 . S
C1243 C8 1.472 . S
C1245 C717 1.470 . S
C1261 C229 1.462 . S
C1263 C633 1.463 . S
C1279 C203 1.468 . S
C1281 C721 1.407 . S
C1297 C216 1.439 . S
C1299 C549 1.437 . S
C1315 C225 1.467 . S
C1317 C542 1.459 . S
C1333 C199 1.480 . S
C1335 C626 1.482 . S
C1353 C728 1.482 . S
C1351 C212 1.485 . S
C1369 C17 1.458 1_565 S
C1371 C644 1.460 . S
C1389 C710 1.436 . S
C1387 C30 1.443 1_455 S
C1405 C4 1.447 . S
C1407 C560 1.442 . S
C1425 C805 1.417 . S
C1423 C99 1.476 . S
C1441 C112 1.502 . S
C1443 C889 1.447 . S
C1461 C969 1.470 . S
C1459 C86 1.472 . S
C1479 C885 1.462 . S
C1477 C73 1.461 . S
C1497 C973 1.406 . S
C1495 C47 1.468 . S
C1513 C60 1.439 . S
C1515 C801 1.437 . S
C1531 C69 1.467 1_655 S
C1533 C794 1.459 . S
C1549 C43 1.480 . S
C1551 C878 1.482 . S
C1569 C980 1.482 . S
C1567 C56 1.484 1_545 S
C1585 C95 1.458 . S
C1587 C896 1.460 . S
C1603 C108 1.443 . S
C1605 C962 1.436 . S
C1621 C82 1.448 . S
C1623 C812 1.442 . S
C1639 C204 1.573 . S
C1641 C304 1.467 . S
C1659 C388 1.475 . S
C1657 C217 1.615 . S
C1675 C230 1.571 . S
C1677 C460 1.380 . S
C1693 C87 1.582 . S
C1695 C376 1.375 . S
C1711 C100 1.581 . S
C1713 C472 1.452 . S
C1731 C292 1.371 . S
C1729 C113 1.540 . S
C1747 C48 1.574 . S
C1749 C556 1.468 . S
C1765 C61 1.615 . S
C1767 C640 1.475 . S
C1783 C74 1.570 . S
C1785 C712 1.380 . S
C1801 C165 1.582 . S
C1803 C628 1.375 . S
C1821 C724 1.452 . S
C1819 C178 1.582 . S
C1837 C191 1.540 . S
C1839 C544 1.371 . S
C1855 C126 1.574 . S
C1857 C808 1.467 . S
C1873 C139 1.615 . S
C1875 C892 1.475 . S
C1893 C964 1.380 . S
C1891 C152 1.571 . S
C1909 C9 1.582 . S
C1911 C880 1.375 . S
C1927 C22 1.581 . S
C1929 C976 1.452 . S
C1945 C35 1.540 . S
C1947 C796 1.371 . S
