# Generated by pormake.
# Topology ssb, (4,4)-cn, num edge types: 1
# Building blocks:
#     Node 0, Type 0, BuildingBlock: AZAVOO_clean_linker_0, # of connection points: 4
#     Node 1, Type 0, BuildingBlock: AZAVOO_clean_linker_0, # of connection points: 4
#     Node 2, Type 0, BuildingBlock: AZAVOO_clean_linker_0, # of connection points: 4
#     Node 3, Type 0, BuildingBlock: AZAVOO_clean_linker_0, # of connection points: 4
#     Node 4, Type 0, BuildingBlock: AZAVOO_clean_linker_0, # of connection points: 4
#     Node 5, Type 0, BuildingBlock: AZAVOO_clean_linker_0, # of connection points: 4
#     Node 6, Type 0, BuildingBlock: AZAVOO_clean_linker_0, # of connection points: 4
#     Node 7, Type 0, BuildingBlock: AZAVOO_clean_linker_0, # of connection points: 4
#     Node 8, Type 1, BuildingBlock: NAWXER_clean_sbu_0, # of connection points: 4
#     Node 9, Type 1, BuildingBlock: NAWXER_clean_sbu_0, # of connection points: 4
#     Node 10, Type 1, BuildingBlock: NAWXER_clean_sbu_0, # of connection points: 4
#     Node 11, Type 1, BuildingBlock: NAWXER_clean_sbu_0, # of connection points: 4
#     Node 12, Type 1, BuildingBlock: NAWXER_clean_sbu_0, # of connection points: 4
#     Node 13, Type 1, BuildingBlock: NAWXER_clean_sbu_0, # of connection points: 4
#     Node 14, Type 1, BuildingBlock: NAWXER_clean_sbu_0, # of connection points: 4
#     Node 15, Type 1, BuildingBlock: NAWXER_clean_sbu_0, # of connection points: 4
#     Edge 16, Type (0, 1), BuildingBlock: XIVTED_clean_linker_0, # of connection points: 2
#     Edge 17, Type (0, 1), BuildingBlock: XIVTED_clean_linker_0, # of connection points: 2
#     Edge 18, Type (0, 1), BuildingBlock: XIVTED_clean_linker_0, # of connection points: 2
#     Edge 19, Type (0, 1), BuildingBlock: XIVTED_clean_linker_0, # of connection points: 2
#     Edge 20, Type (0, 1), BuildingBlock: XIVTED_clean_linker_0, # of connection points: 2
#     Edge 21, Type (0, 1), BuildingBlock: XIVTED_clean_linker_0, # of connection points: 2
#     Edge 22, Type (0, 1), BuildingBlock: XIVTED_clean_linker_0, # of connection points: 2
#     Edge 23, Type (0, 1), BuildingBlock: XIVTED_clean_linker_0, # of connection points: 2
#     Edge 24, Type (0, 1), BuildingBlock: XIVTED_clean_linker_0, # of connection points: 2
#     Edge 25, Type (0, 1), BuildingBlock: XIVTED_clean_linker_0, # of connection points: 2
#     Edge 26, Type (0, 1), BuildingBlock: XIVTED_clean_linker_0, # of connection points: 2
#     Edge 27, Type (0, 1), BuildingBlock: XIVTED_clean_linker_0, # of connection points: 2
#     Edge 28, Type (0, 1), BuildingBlock: XIVTED_clean_linker_0, # of connection points: 2
#     Edge 29, Type (0, 1), BuildingBlock: XIVTED_clean_linker_0, # of connection points: 2
#     Edge 30, Type (0, 1), BuildingBlock: XIVTED_clean_linker_0, # of connection points: 2
#     Edge 31, Type (0, 1), BuildingBlock: XIVTED_clean_linker_0, # of connection points: 2
#     Edge 32, Type (0, 1), BuildingBlock: XIVTED_clean_linker_0, # of connection points: 2
#     Edge 33, Type (0, 1), BuildingBlock: XIVTED_clean_linker_0, # of connection points: 2
#     Edge 34, Type (0, 1), BuildingBlock: XIVTED_clean_linker_0, # of connection points: 2
#     Edge 35, Type (0, 1), BuildingBlock: XIVTED_clean_linker_0, # of connection points: 2
#     Edge 36, Type (0, 1), BuildingBlock: XIVTED_clean_linker_0, # of connection points: 2
#     Edge 37, Type (0, 1), BuildingBlock: XIVTED_clean_linker_0, # of connection points: 2
#     Edge 38, Type (0, 1), BuildingBlock: XIVTED_clean_linker_0, # of connection points: 2
#     Edge 39, Type (0, 1), BuildingBlock: XIVTED_clean_linker_0, # of connection points: 2
#     Edge 40, Type (0, 1), BuildingBlock: XIVTED_clean_linker_0, # of connection points: 2
#     Edge 41, Type (0, 1), BuildingBlock: XIVTED_clean_linker_0, # of connection points: 2
#     Edge 42, Type (0, 1), BuildingBlock: XIVTED_clean_linker_0, # of connection points: 2
#     Edge 43, Type (0, 1), BuildingBlock: XIVTED_clean_linker_0, # of connection points: 2
#     Edge 44, Type (0, 1), BuildingBlock: XIVTED_clean_linker_0, # of connection points: 2
#     Edge 45, Type (0, 1), BuildingBlock: XIVTED_clean_linker_0, # of connection points: 2
#     Edge 46, Type (0, 1), BuildingBlock: XIVTED_clean_linker_0, # of connection points: 2
#     Edge 47, Type (0, 1), BuildingBlock: XIVTED_clean_linker_0, # of connection points: 2
# Relax obj value: 0.057
# Max RMSD: 0.287
# Mean RMSD: 0.112
data_MOF--net-ssb--node1-NAWXER_clean_sbu_0--node2-AZAVOO_clean_linker_0--edge1-XIVTED_clean_linker_0
_symmetry_space_group_name_H-M    P1
_symmetry_Int_Tables_number       1
_symmetry_cell_setting            triclinic
loop_
_symmetry_equiv_pos_as_xyz
'x, y, z'
_cell_length_a     51.374792
_cell_length_b     53.206394
_cell_length_c     44.655671
_cell_angle_alpha  92.903864
_cell_angle_beta   90.087068
_cell_angle_gamma 89.974933
loop_
_atom_site_label
_atom_site_type_symbol
_atom_site_fract_x
_atom_site_fract_y
_atom_site_fract_z
_atom_type_partial_charge
H0 H 0.09642 0.49813 0.26406 0.0
H1 H 0.32065 0.42088 0.03341 0.0
H2 H 0.22564 0.40617 0.28465 0.0
H3 H 0.19906 0.39705 0.32825 0.0
H4 H 0.13907 0.36621 0.2694 0.0
H5 H 0.16633 0.37433 0.22577 0.0
H6 H 0.19737 0.44747 0.2557 0.0
H7 H 0.15789 0.47177 0.26711 0.0
H8 H 0.12301 0.4418 0.18464 0.0
H9 H 0.16253 0.41734 0.17367 0.0
H10 H 0.22616 0.46914 0.20529 0.0
H11 H 0.22289 0.50801 0.1789 0.0
H12 H 0.20584 0.46497 0.09649 0.0
H13 H 0.20786 0.42605 0.12363 0.0
H14 H 0.28208 0.44225 0.17516 0.0
H15 H 0.31074 0.45241 0.13369 0.0
H16 H 0.27325 0.39472 0.07714 0.0
H17 H 0.24467 0.38488 0.11878 0.0
H18 H 0.29975 0.3957 0.21692 0.0
H19 H 0.34071 0.37632 0.20034 0.0
H20 H 0.29855 0.32803 0.13629 0.0
H21 H 0.25756 0.34671 0.15431 0.0
H22 H 0.27119 0.39126 0.26495 0.0
H23 H 0.28468 0.36267 0.30339 0.0
H24 H 0.23855 0.30338 0.26036 0.0
H25 H 0.22463 0.3324 0.22214 0.0
O26 O 0.11183 0.48831 0.25913 0.0
O27 O 0.09482 0.47244 0.21643 0.0
O28 O 0.32811 0.4468 0.08012 0.0
O29 O 0.3095 0.41735 0.05014 0.0
C30 C 0.21417 0.39605 0.22576 0.0
C31 C 0.20662 0.41556 0.20716 0.0
C32 C 0.22221 0.42132 0.18238 0.0
C33 C 0.2444 0.40652 0.17522 0.0
C34 C 0.25174 0.38691 0.19368 0.0
C35 C 0.23716 0.3822 0.21947 0.0
C36 C 0.19813 0.39039 0.25212 0.0
C37 C 0.20707 0.39687 0.28119 0.0
C38 C 0.19185 0.3918 0.30599 0.0
C39 C 0.16718 0.38082 0.30203 0.0
C40 C 0.15807 0.37469 0.27291 0.0
C41 C 0.17356 0.37926 0.2481 0.0
C42 C 0.18271 0.43047 0.214 0.0
C43 C 0.18111 0.44603 0.24025 0.0
C44 C 0.15856 0.45997 0.24665 0.0
C45 C 0.13726 0.45869 0.22682 0.0
C46 C 0.13904 0.44318 0.20041 0.0
C47 C 0.16158 0.42922 0.19408 0.0
C48 C 0.21738 0.44474 0.16639 0.0
C49 C 0.22117 0.46811 0.18167 0.0
C50 C 0.21957 0.4903 0.16645 0.0
C51 C 0.21452 0.48961 0.13544 0.0
C52 C 0.20964 0.4662 0.12038 0.0
C53 C 0.211 0.44393 0.13577 0.0
C54 C 0.26137 0.41288 0.14987 0.0
C55 C 0.28008 0.43191 0.15375 0.0
C56 C 0.29642 0.43763 0.13005 0.0
C57 C 0.29429 0.42435 0.10208 0.0
C58 C 0.27541 0.4053 0.09835 0.0
C59 C 0.25908 0.39963 0.12207 0.0
C60 C 0.27582 0.37255 0.18679 0.0
C61 C 0.29937 0.38042 0.19994 0.0
C62 C 0.32273 0.36952 0.19017 0.0
C63 C 0.32296 0.35089 0.16662 0.0
C64 C 0.2991 0.34215 0.15461 0.0
C65 C 0.27568 0.35287 0.16473 0.0
C66 C 0.24684 0.36391 0.24092 0.0
C67 C 0.26416 0.37204 0.26368 0.0
C68 C 0.27175 0.35577 0.28564 0.0
C69 C 0.26255 0.3309 0.28486 0.0
C70 C 0.24599 0.32245 0.26134 0.0
C71 C 0.23801 0.33894 0.23961 0.0
C72 C 0.11333 0.47351 0.2337 0.0
C73 C 0.31169 0.43025 0.07687 0.0
H74 H 0.62286 0.14826 0.32298 0.0
H75 H 0.83079 0.25998 0.52795 0.0
H76 H 0.70819 0.2489 0.29133 0.0
H77 H 0.68018 0.25578 0.2482 0.0
H78 H 0.64961 0.32315 0.29351 0.0
H79 H 0.67766 0.31601 0.3367 0.0
H80 H 0.71699 0.20944 0.33774 0.0
H81 H 0.68253 0.17827 0.32856 0.0
H82 H 0.62539 0.23297 0.36048 0.0
H83 H 0.6601 0.26389 0.36985 0.0
H84 H 0.76524 0.21609 0.37968 0.0
H85 H 0.7665 0.17911 0.41 0.0
H86 H 0.69649 0.20468 0.45573 0.0
H87 H 0.69534 0.24161 0.42506 0.0
H88 H 0.80174 0.26158 0.38231 0.0
H89 H 0.8339 0.2564 0.422 0.0
H90 H 0.77395 0.27023 0.48872 0.0
H91 H 0.74207 0.27573 0.44879 0.0
H92 H 0.79388 0.30189 0.33555 0.0
H93 H 0.8333 0.32543 0.34962 0.0
H94 H 0.79775 0.34924 0.43406 0.0
H95 H 0.75813 0.32648 0.41922 0.0
H96 H 0.74643 0.29235 0.28826 0.0
H97 H 0.74864 0.32578 0.25275 0.0
H98 H 0.73111 0.38089 0.32424 0.0
H99 H 0.7282 0.34713 0.35967 0.0
O100 O 0.63619 0.16087 0.32689 0.0
O101 O 0.60757 0.18969 0.34343 0.0
O102 O 0.84862 0.25519 0.47662 0.0
O103 O 0.81848 0.26196 0.51181 0.0
C104 C 0.71364 0.27884 0.34219 0.0
C105 C 0.71199 0.25776 0.3601 0.0
C106 C 0.73057 0.25449 0.38291 0.0
C107 C 0.75022 0.2727 0.38854 0.0
C108 C 0.7518 0.29392 0.37081 0.0
C109 C 0.7339 0.29664 0.34717 0.0
C110 C 0.69487 0.28187 0.31722 0.0
C111 C 0.69509 0.26487 0.29217 0.0
C112 C 0.67911 0.26887 0.26754 0.0
C113 C 0.66273 0.29006 0.26742 0.0
C114 C 0.66224 0.30683 0.29279 0.0
C115 C 0.67809 0.3027 0.31752 0.0
C116 C 0.69104 0.23886 0.3546 0.0
C117 C 0.69703 0.21459 0.3429 0.0
C118 C 0.6773 0.19685 0.33759 0.0
C119 C 0.6512 0.20312 0.34381 0.0
C120 C 0.64528 0.22752 0.35547 0.0
C121 C 0.66505 0.24522 0.36081 0.0
C122 C 0.73026 0.23151 0.40031 0.0
C123 C 0.75015 0.21363 0.39621 0.0
C124 C 0.75091 0.19262 0.41363 0.0
C125 C 0.73169 0.18908 0.43538 0.0
C126 C 0.71144 0.20679 0.43897 0.0
C127 C 0.71076 0.22788 0.42157 0.0
C128 C 0.76963 0.26915 0.41271 0.0
C129 C 0.79564 0.26359 0.40552 0.0
C130 C 0.81394 0.26058 0.42823 0.0
C131 C 0.80649 0.26292 0.45855 0.0
C132 C 0.78034 0.26832 0.46562 0.0
C133 C 0.76208 0.27142 0.44288 0.0
C134 C 0.77321 0.31236 0.37643 0.0
C135 C 0.79432 0.3129 0.35662 0.0
C136 C 0.81693 0.32613 0.36488 0.0
C137 C 0.81888 0.3389 0.3932 0.0
C138 C 0.79692 0.3398 0.41202 0.0
C139 C 0.77427 0.32671 0.40365 0.0
C140 C 0.73701 0.31733 0.32646 0.0
C141 C 0.74294 0.31163 0.29623 0.0
C142 C 0.74403 0.33067 0.27599 0.0
C143 C 0.73972 0.35581 0.28576 0.0
C144 C 0.73444 0.36161 0.31621 0.0
C145 C 0.73292 0.34245 0.33641 0.0
C146 C 0.63028 0.18424 0.33808 0.0
C147 C 0.82587 0.25977 0.48277 0.0
H148 H 0.62969 0.88411 0.29546 0.0
H149 H 0.70745 0.61022 0.20221 0.0
H150 H 0.7517 0.82237 0.32538 0.0
H151 H 0.74914 0.85637 0.36441 0.0
H152 H 0.72817 0.80231 0.42925 0.0
H153 H 0.73063 0.76847 0.39001 0.0
H154 H 0.71191 0.80975 0.27148 0.0
H155 H 0.67996 0.84392 0.27381 0.0
H156 H 0.6497 0.81656 0.35642 0.0
H157 H 0.68152 0.78228 0.35358 0.0
H158 H 0.72085 0.75825 0.22876 0.0
H159 H 0.68641 0.76523 0.19227 0.0
H160 H 0.62858 0.75845 0.26144 0.0
H161 H 0.66317 0.75024 0.29772 0.0
H162 H 0.75816 0.72407 0.23315 0.0
H163 H 0.75476 0.68629 0.19978 0.0
H164 H 0.69845 0.65543 0.25975 0.0
H165 H 0.70223 0.69328 0.29302 0.0
H166 H 0.7988 0.73221 0.27129 0.0
H167 H 0.82248 0.6943 0.25451 0.0
H168 H 0.78041 0.652 0.31904 0.0
H169 H 0.75571 0.68975 0.33412 0.0
H170 H 0.79737 0.78773 0.32306 0.0
H171 H 0.83728 0.79197 0.35271 0.0
H172 H 0.81372 0.72916 0.40408 0.0
H173 H 0.77366 0.72508 0.37416 0.0
O174 O 0.64216 0.87046 0.29498 0.0
O175 O 0.62749 0.85579 0.33755 0.0
O176 O 0.73776 0.64231 0.18459 0.0
O177 O 0.70879 0.62556 0.2147 0.0
C178 C 0.73953 0.77297 0.33077 0.0
C179 C 0.71827 0.77271 0.31064 0.0
C180 C 0.7157 0.75292 0.28848 0.0
C181 C 0.73413 0.73324 0.28696 0.0
C182 C 0.75579 0.73394 0.30655 0.0
C183 C 0.75868 0.75395 0.32819 0.0
C184 C 0.74132 0.79304 0.35494 0.0
C185 C 0.74693 0.81789 0.34812 0.0
C186 C 0.74549 0.83722 0.37041 0.0
C187 C 0.73825 0.83198 0.3998 0.0
C188 C 0.73345 0.80692 0.4067 0.0
C189 C 0.73509 0.78758 0.38445 0.0
C190 C 0.699 0.79357 0.31235 0.0
C191 C 0.69831 0.81116 0.29001 0.0
C192 C 0.68007 0.83066 0.29143 0.0
C193 C 0.66227 0.83298 0.31531 0.0
C194 C 0.66312 0.81533 0.33773 0.0
C195 C 0.68131 0.79578 0.33621 0.0
C196 C 0.69453 0.75365 0.26588 0.0
C197 C 0.70073 0.75739 0.23585 0.0
C198 C 0.68108 0.76147 0.21508 0.0
C199 C 0.65493 0.7624 0.22416 0.0
C200 C 0.64864 0.75786 0.254 0.0
C201 C 0.66831 0.75319 0.27464 0.0
C202 C 0.73045 0.71134 0.26545 0.0
C203 C 0.745 0.70918 0.23891 0.0
C204 C 0.74304 0.68757 0.21994 0.0
C205 C 0.72639 0.66778 0.22716 0.0
C206 C 0.71148 0.67028 0.25354 0.0
C207 C 0.7135 0.6919 0.27251 0.0
C208 C 0.77539 0.71356 0.30361 0.0
C209 C 0.79536 0.71489 0.28241 0.0
C210 C 0.80893 0.69316 0.27293 0.0
C211 C 0.80293 0.66988 0.2849 0.0
C212 C 0.78498 0.66943 0.30869 0.0
C213 C 0.77107 0.69103 0.31767 0.0
C214 C 0.7827 0.75612 0.3465 0.0
C215 C 0.80082 0.77494 0.34078 0.0
C216 C 0.82353 0.77736 0.35778 0.0
C217 C 0.82858 0.76093 0.38078 0.0
C218 C 0.81046 0.74191 0.3863 0.0
C219 C 0.7876 0.73959 0.36933 0.0
C220 C 0.6429 0.85371 0.31673 0.0
C221 C 0.72471 0.64452 0.20745 0.0
H222 H 0.32914 0.07332 0.31761 0.0
H223 H 0.28014 0.81977 0.10865 0.0
H224 H 0.24726 0.95452 0.34175 0.0
H225 H 0.23428 0.9905 0.3746 0.0
H226 H 0.18997 0.02017 0.30198 0.0
H227 H 0.20321 0.98408 0.26925 0.0
H228 H 0.29017 0.9699 0.31267 0.0
H229 H 0.3099 0.01136 0.32259 0.0
H230 H 0.27749 0.03609 0.23961 0.0
H231 H 0.25768 0.99457 0.23014 0.0
H232 H 0.31824 0.93584 0.26764 0.0
H233 H 0.36 0.93594 0.24129 0.0
H234 H 0.31992 0.94962 0.15858 0.0
H235 H 0.27814 0.94953 0.1852 0.0
H236 H 0.30088 0.8843 0.23856 0.0
H237 H 0.31467 0.85182 0.20111 0.0
H238 H 0.25005 0.8711 0.14449 0.0
H239 H 0.23673 0.90373 0.18191 0.0
H240 H 0.25639 0.86277 0.27075 0.0
H241 H 0.25152 0.8234 0.24167 0.0
H242 H 0.18534 0.85418 0.19579 0.0
H243 H 0.19221 0.89437 0.22324 0.0
H244 H 0.23296 0.90912 0.33373 0.0
H245 H 0.19941 0.89726 0.36927 0.0
H246 H 0.14031 0.90729 0.30206 0.0
H247 H 0.17402 0.92014 0.26685 0.0
O248 O 0.32122 0.05703 0.3132 0.0
O249 O 0.30427 0.06878 0.27024 0.0
O250 O 0.30977 0.8251 0.15214 0.0
O251 O 0.27593 0.83333 0.12311 0.0
C252 C 0.23779 0.9478 0.28187 0.0
C253 C 0.25995 0.95443 0.26523 0.0
C254 C 0.27021 0.93736 0.24319 0.0
C255 C 0.25777 0.91406 0.23702 0.0
C256 C 0.23619 0.90702 0.25446 0.0
C257 C 0.22643 0.92375 0.27723 0.0
C258 C 0.22607 0.96672 0.30323 0.0
C259 C 0.23405 0.96836 0.33328 0.0
C260 C 0.22657 0.98891 0.35199 0.0
C261 C 0.21117 0.00821 0.34082 0.0
C262 C 0.202 0.00569 0.31113 0.0
C263 C 0.20941 0.98508 0.29249 0.0
C264 C 0.27239 0.97937 0.27082 0.0
C265 C 0.2873 0.98435 0.29675 0.0
C266 C 0.29858 0.00802 0.30231 0.0
C267 C 0.29522 0.02707 0.28193 0.0
C268 C 0.28042 0.02186 0.25579 0.0
C269 C 0.26913 0.99818 0.25029 0.0
C270 C 0.29524 0.94264 0.22829 0.0
C271 C 0.31856 0.93958 0.24402 0.0
C272 C 0.34232 0.93945 0.22892 0.0
C273 C 0.34313 0.94258 0.19788 0.0
C274 C 0.31985 0.94736 0.18255 0.0
C275 C 0.29603 0.94727 0.19766 0.0
C276 C 0.26783 0.89635 0.21291 0.0
C277 C 0.29004 0.88177 0.2178 0.0
C278 C 0.29774 0.86312 0.19647 0.0
C279 C 0.28332 0.85872 0.1699 0.0
C280 C 0.26153 0.87391 0.16474 0.0
C281 C 0.25392 0.89262 0.18602 0.0
C282 C 0.22499 0.88156 0.24873 0.0
C283 C 0.2401 0.86062 0.25539 0.0
C284 C 0.23726 0.838 0.2385 0.0
C285 C 0.21864 0.83576 0.2153 0.0
C286 C 0.20066 0.85552 0.21246 0.0
C287 C 0.20407 0.87841 0.22875 0.0
C288 C 0.20589 0.91552 0.29779 0.0
C289 C 0.21276 0.90889 0.32674 0.0
C290 C 0.19363 0.90218 0.34697 0.0
C291 C 0.16732 0.9015 0.33838 0.0
C292 C 0.16049 0.90761 0.30913 0.0
C293 C 0.17966 0.91484 0.28904 0.0
C294 C 0.30713 0.05223 0.28799 0.0
C295 C 0.2906 0.83807 0.14789 0.0
H296 H 0.44032 0.01801 0.74487 0.0
H297 H 0.20707 0.94078 0.5543 0.0
H298 H 0.37814 0.89565 0.73438 0.0
H299 H 0.406 0.88971 0.77799 0.0
H300 H 0.33943 0.89994 0.83629 0.0
H301 H 0.31175 0.90675 0.79259 0.0
H302 H 0.37681 0.93691 0.68986 0.0
H303 H 0.40843 0.96924 0.70598 0.0
H304 H 0.35894 0.99137 0.78103 0.0
H305 H 0.32737 0.95914 0.76446 0.0
H306 H 0.34366 0.93366 0.63854 0.0
H307 H 0.34984 0.97156 0.61045 0.0
H308 H 0.30019 0.01298 0.67376 0.0
H309 H 0.29553 0.97541 0.70234 0.0
H310 H 0.30167 0.884 0.62819 0.0
H311 H 0.27615 0.88805 0.58233 0.0
H312 H 0.23212 0.94866 0.62613 0.0
H313 H 0.25764 0.94423 0.67189 0.0
H314 H 0.29643 0.84253 0.67478 0.0
H315 H 0.26089 0.81444 0.65734 0.0
H316 H 0.20493 0.87114 0.68676 0.0
H317 H 0.24034 0.89873 0.70416 0.0
H318 H 0.33646 0.84674 0.73764 0.0
H319 H 0.32788 0.8153 0.77468 0.0
H320 H 0.25417 0.8511 0.79577 0.0
H321 H 0.26299 0.88245 0.75891 0.0
O322 O 0.42754 0.0054 0.73885 0.0
O323 O 0.40142 0.01599 0.77712 0.0
O324 O 0.24071 0.90757 0.5506 0.0
O325 O 0.21749 0.9388 0.57211 0.0
C326 C 0.32634 0.90516 0.73364 0.0
C327 C 0.33057 0.92619 0.71611 0.0
C328 C 0.31578 0.92914 0.68988 0.0
C329 C 0.29683 0.91106 0.68108 0.0
C330 C 0.29203 0.89045 0.69906 0.0
C331 C 0.30661 0.88753 0.72549 0.0
C332 C 0.34293 0.90155 0.76032 0.0
C333 C 0.36961 0.89682 0.75658 0.0
C334 C 0.38546 0.89346 0.78144 0.0
C335 C 0.37479 0.89437 0.8104 0.0
C336 C 0.34803 0.89897 0.81413 0.0
C337 C 0.33226 0.90282 0.78927 0.0
C338 C 0.3498 0.94576 0.72595 0.0
C339 C 0.37279 0.94886 0.70967 0.0
C340 C 0.39084 0.96729 0.71899 0.0
C341 C 0.38621 0.9829 0.7448 0.0
C342 C 0.36312 0.97967 0.76106 0.0
C343 C 0.34507 0.96127 0.75168 0.0
C344 C 0.31923 0.9519 0.67245 0.0
C345 C 0.33429 0.95104 0.64629 0.0
C346 C 0.33762 0.9727 0.6302 0.0
C347 C 0.32561 0.99553 0.63977 0.0
C348 C 0.3103 0.99605 0.66597 0.0
C349 C 0.30735 0.97452 0.68224 0.0
C350 C 0.28159 0.91393 0.65321 0.0
C351 C 0.28653 0.89815 0.62777 0.0
C352 C 0.27192 0.90051 0.60164 0.0
C353 C 0.25211 0.91872 0.60055 0.0
C354 C 0.24725 0.93449 0.62618 0.0
C355 C 0.26185 0.93207 0.6523 0.0
C356 C 0.27084 0.87259 0.69067 0.0
C357 C 0.27643 0.84862 0.67775 0.0
C358 C 0.25619 0.83271 0.66773 0.0
C359 C 0.23013 0.84053 0.67083 0.0
C360 C 0.22475 0.86436 0.68452 0.0
C361 C 0.24492 0.88023 0.69429 0.0
C362 C 0.30033 0.86685 0.74551 0.0
C363 C 0.31835 0.84759 0.75005 0.0
C364 C 0.31347 0.82976 0.77132 0.0
C365 C 0.29037 0.83076 0.78826 0.0
C366 C 0.27199 0.84961 0.78288 0.0
C367 C 0.27699 0.86753 0.7618 0.0
C368 C 0.40544 0.00244 0.75466 0.0
C369 C 0.23649 0.92128 0.57287 0.0
H370 H 0.23841 0.57959 0.81283 0.0
H371 H 0.23801 0.31046 0.63988 0.0
H372 H 0.35618 0.47515 0.78136 0.0
H373 H 0.37009 0.51112 0.81407 0.0
H374 H 0.31392 0.49057 0.88044 0.0
H375 H 0.30006 0.45483 0.84757 0.0
H376 H 0.30294 0.49726 0.76266 0.0
H377 H 0.28072 0.53626 0.77903 0.0
H378 H 0.22523 0.49321 0.82812 0.0
H379 H 0.24786 0.45438 0.81185 0.0
H380 H 0.26737 0.4614 0.7081 0.0
H381 H 0.22594 0.46058 0.68063 0.0
H382 H 0.1934 0.41214 0.74579 0.0
H383 H 0.23496 0.41264 0.77254 0.0
H384 H 0.29684 0.41773 0.68475 0.0
H385 H 0.28021 0.38952 0.64411 0.0
H386 H 0.25166 0.33903 0.7095 0.0
H387 H 0.26802 0.36766 0.74989 0.0
H388 H 0.35167 0.40675 0.71047 0.0
H389 H 0.35959 0.37103 0.67519 0.0
H390 H 0.32534 0.32123 0.73753 0.0
H391 H 0.31767 0.35716 0.77292 0.0
H392 H 0.3798 0.41474 0.76247 0.0
H393 H 0.41707 0.4021 0.79299 0.0
H394 H 0.36705 0.40016 0.87038 0.0
H395 H 0.32981 0.41143 0.83971 0.0
O396 O 0.24682 0.56393 0.80649 0.0
O397 O 0.21858 0.54092 0.83102 0.0
O398 O 0.25802 0.34945 0.62285 0.0
O399 O 0.24407 0.32231 0.65552 0.0
C400 C 0.3154 0.44411 0.79003 0.0
C401 C 0.29106 0.44959 0.7769 0.0
C402 C 0.28032 0.43281 0.75488 0.0
C403 C 0.29454 0.41144 0.74467 0.0
C404 C 0.31903 0.40608 0.75746 0.0
C405 C 0.32901 0.42181 0.78116 0.0
C406 C 0.32705 0.46256 0.81211 0.0
C407 C 0.34741 0.47808 0.80331 0.0
C408 C 0.35524 0.49859 0.82191 0.0
C409 C 0.34303 0.50362 0.84971 0.0
C410 C 0.32388 0.48696 0.85929 0.0
C411 C 0.31585 0.46665 0.84054 0.0
C412 C 0.27694 0.47306 0.78602 0.0
C413 C 0.28595 0.49632 0.7769 0.0
C414 C 0.27322 0.51855 0.7863 0.0
C415 C 0.25119 0.51786 0.80488 0.0
C416 C 0.24213 0.49442 0.81379 0.0
C417 C 0.25493 0.47221 0.80445 0.0
C418 C 0.25407 0.43708 0.74225 0.0
C419 C 0.25101 0.45122 0.71682 0.0
C420 C 0.22735 0.45073 0.7012 0.0
C421 C 0.20649 0.43603 0.71083 0.0
C422 C 0.20922 0.4233 0.73752 0.0
C423 C 0.23284 0.42375 0.753 0.0
C424 C 0.28374 0.39461 0.72015 0.0
C425 C 0.28684 0.40064 0.69019 0.0
C426 C 0.27733 0.3845 0.66707 0.0
C427 C 0.26471 0.36194 0.67356 0.0
C428 C 0.26136 0.35618 0.70371 0.0
C429 C 0.27069 0.37246 0.72681 0.0
C430 C 0.334 0.38453 0.74416 0.0
C431 C 0.3473 0.38795 0.71729 0.0
C432 C 0.35153 0.36758 0.69701 0.0
C433 C 0.34255 0.34351 0.70343 0.0
C434 C 0.3325 0.33958 0.73208 0.0
C435 C 0.32824 0.36006 0.75241 0.0
C436 C 0.35198 0.41398 0.79879 0.0
C437 C 0.3768 0.41119 0.78587 0.0
C438 C 0.39807 0.40414 0.80331 0.0
C439 C 0.39488 0.4004 0.83403 0.0
C440 C 0.37007 0.40325 0.84684 0.0
C441 C 0.34882 0.40969 0.82934 0.0
C442 C 0.23781 0.54152 0.81497 0.0
C443 C 0.25538 0.3443 0.64905 0.0
H444 H 0.95128 0.34206 0.85684 0.0
H445 H 0.8035 0.17972 0.62427 0.0
H446 H 0.84755 0.25876 0.88679 0.0
H447 H 0.85242 0.29191 0.92633 0.0
H448 H 0.78166 0.3268 0.8962 0.0
H449 H 0.77794 0.29451 0.85571 0.0
H450 H 0.88478 0.25452 0.83019 0.0
H451 H 0.91848 0.28602 0.84192 0.0
H452 H 0.86127 0.34512 0.83505 0.0
H453 H 0.82786 0.31344 0.82294 0.0
H454 H 0.87642 0.22284 0.77123 0.0
H455 H 0.90883 0.23597 0.73477 0.0
H456 H 0.86457 0.30384 0.72243 0.0
H457 H 0.8328 0.29079 0.75911 0.0
H458 H 0.82863 0.1826 0.77117 0.0
H459 H 0.82772 0.15941 0.72238 0.0
H460 H 0.79847 0.2258 0.68149 0.0
H461 H 0.79931 0.24866 0.73045 0.0
H462 H 0.79065 0.17852 0.82006 0.0
H463 H 0.76018 0.14654 0.80068 0.0
H464 H 0.71958 0.2031 0.75209 0.0
H465 H 0.75151 0.23436 0.76991 0.0
H466 H 0.79176 0.22207 0.88822 0.0
H467 H 0.75364 0.21949 0.92124 0.0
H468 H 0.70593 0.25248 0.85382 0.0
H469 H 0.74396 0.25573 0.82163 0.0
O470 O 0.93769 0.32993 0.852 0.0
O471 O 0.9075 0.35959 0.84837 0.0
O472 O 0.81912 0.15481 0.66594 0.0
O473 O 0.80412 0.18844 0.64383 0.0
C474 C 0.81338 0.25837 0.83994 0.0
C475 C 0.83347 0.26245 0.81907 0.0
C476 C 0.83353 0.24912 0.79096 0.0
C477 C 0.81415 0.23108 0.78393 0.0
C478 C 0.79402 0.22703 0.8046 0.0
C479 C 0.7933 0.24098 0.83238 0.0
C480 C 0.81248 0.27428 0.86825 0.0
C481 C 0.83281 0.27329 0.8892 0.0
C482 C 0.83554 0.29225 0.91182 0.0
C483 C 0.81773 0.31235 0.91408 0.0
C484 C 0.79614 0.31201 0.89459 0.0
C485 C 0.79367 0.29328 0.87175 0.0
C486 C 0.85389 0.2817 0.82594 0.0
C487 C 0.87961 0.27429 0.83116 0.0
C488 C 0.89879 0.29232 0.8379 0.0
C489 C 0.89255 0.31809 0.83952 0.0
C490 C 0.86673 0.32543 0.83406 0.0
C491 C 0.8476 0.30739 0.82722 0.0
C492 C 0.85247 0.25599 0.76783 0.0
C493 C 0.87379 0.24046 0.76047 0.0
C494 C 0.89218 0.24795 0.73964 0.0
C495 C 0.88939 0.27107 0.72597 0.0
C496 C 0.86759 0.2862 0.73302 0.0
C497 C 0.84933 0.27873 0.75379 0.0
C498 C 0.81412 0.21727 0.75423 0.0
C499 C 0.82207 0.19207 0.75162 0.0
C500 C 0.82152 0.1789 0.72374 0.0
C501 C 0.81303 0.19077 0.69801 0.0
C502 C 0.80514 0.2161 0.70081 0.0
C503 C 0.80565 0.22922 0.72871 0.0
C504 C 0.77323 0.20865 0.79636 0.0
C505 C 0.77493 0.18396 0.80553 0.0
C506 C 0.75728 0.16576 0.79457 0.0
C507 C 0.7373 0.17206 0.77458 0.0
C508 C 0.73495 0.1973 0.76684 0.0
C509 C 0.75299 0.21531 0.77726 0.0
C510 C 0.7705 0.2387 0.85235 0.0
C511 C 0.77302 0.22861 0.88063 0.0
C512 C 0.75131 0.22711 0.89935 0.0
C513 C 0.72681 0.23541 0.88981 0.0
C514 C 0.72443 0.24537 0.86142 0.0
C515 C 0.74612 0.24724 0.84303 0.0
C516 C 0.91294 0.33719 0.84687 0.0
C517 C 0.81232 0.17685 0.66836 0.0
H518 H 0.97046 0.68159 0.84408 0.0
H519 H 0.71364 0.71508 2e-05 0.0
H520 H 0.89181 0.79122 0.84192 0.0
H521 H 0.91978 0.79977 0.79909 0.0
H522 H 0.85505 0.78517 0.73894 0.0
H523 H 0.82749 0.77561 0.78161 0.0
H524 H 0.88944 0.74969 0.89173 0.0
H525 H 0.92714 0.72296 0.87965 0.0
H526 H 0.89152 0.69958 0.79495 0.0
H527 H 0.85382 0.72617 0.80746 0.0
H528 H 0.84143 0.74647 0.94089 0.0
H529 H 0.83974 0.70829 0.9694 0.0
H530 H 0.82547 0.66379 0.88749 0.0
H531 H 0.82609 0.70208 0.85925 0.0
H532 H 0.80108 0.79172 0.94228 0.0
H533 H 0.77238 0.78137 0.98359 0.0
H534 H 0.74632 0.71492 0.93234 0.0
H535 H 0.77479 0.72569 0.89106 0.0
H536 H 0.79868 0.83541 0.89402 0.0
H537 H 0.7591 0.85858 0.909 0.0
H538 H 0.71277 0.79379 0.88048 0.0
H539 H 0.75211 0.77152 0.86442 0.0
H540 H 0.84655 0.83521 0.839 0.0
H541 H 0.83738 0.86743 0.80331 0.0
H542 H 0.76521 0.82964 0.77908 0.0
H543 H 0.77568 0.79662 0.81281 0.0
O544 O 0.95533 0.69197 0.84844 0.0
O545 O 0.93622 0.68064 0.80513 0.0
O546 O 0.7388 0.75429 0.00924 0.0
O547 O 0.72504 0.71971 0.98397 0.0
C548 C 0.84068 0.77734 0.84081 0.0
C549 C 0.84615 0.75626 0.85788 0.0
C550 C 0.82956 0.75036 0.88172 0.0
C551 C 0.80771 0.76571 0.88881 0.0
C552 C 0.80215 0.7867 0.87174 0.0
C553 C 0.81858 0.79252 0.8477 0.0
C554 C 0.85757 0.7829 0.81492 0.0
C555 C 0.88373 0.78972 0.81948 0.0
C556 C 0.89963 0.7946 0.79509 0.0
C557 C 0.88946 0.79324 0.76583 0.0
C558 C 0.86324 0.78661 0.76133 0.0
C559 C 0.84752 0.78119 0.78564 0.0
C560 C 0.86897 0.73995 0.85043 0.0
C561 C 0.88981 0.73873 0.87062 0.0
C562 C 0.91133 0.72348 0.86363 0.0
C563 C 0.91237 0.70917 0.8363 0.0
C564 C 0.89137 0.71039 0.81616 0.0
C565 C 0.86984 0.72561 0.82321 0.0
C566 C 0.83372 0.72706 0.89804 0.0
C567 C 0.83833 0.72844 0.92906 0.0
C568 C 0.83729 0.70672 0.94527 0.0
C569 C 0.8323 0.68327 0.93055 0.0
C570 C 0.82947 0.68169 0.89925 0.0
C571 C 0.82995 0.70348 0.88313 0.0
C572 C 0.7901 0.7594 0.91377 0.0
C573 C 0.78909 0.77499 0.94001 0.0
C574 C 0.77272 0.76901 0.96357 0.0
C575 C 0.7571 0.74727 0.96129 0.0
C576 C 0.75812 0.73176 0.93486 0.0
C577 C 0.77441 0.73783 0.91128 0.0
C578 C 0.77825 0.80172 0.87839 0.0
C579 C 0.77989 0.82649 0.89058 0.0
C580 C 0.75728 0.83958 0.89935 0.0
C581 C 0.73267 0.82806 0.89611 0.0
C582 C 0.73123 0.8035 0.88293 0.0
C583 C 0.75374 0.79057 0.874 0.0
C584 C 0.81179 0.81357 0.82853 0.0
C585 C 0.82877 0.83398 0.82593 0.0
C586 C 0.82337 0.85248 0.80567 0.0
C587 C 0.80062 0.85111 0.78804 0.0
C588 C 0.78322 0.83106 0.79165 0.0
C589 C 0.78892 0.81235 0.81137 0.0
C590 C 0.9353 0.69304 0.82891 0.0
C591 C 0.7398 0.74073 0.98633 0.0
C592 C 0.00738 0.33765 0.57046 0.0
C593 C 0.06045 0.35908 0.48586 0.0
O594 O 0.00625 0.36121 0.56566 0.0
Zn595 Zn 0.02241 0.38661 0.53446 0.0
O596 O 0.02145 0.32318 0.55379 0.0
Zn597 Zn 0.03435 0.34845 0.52856 0.0
O598 O 0.05791 0.37119 0.55859 0.0
O599 O 0.04258 0.40994 0.56032 0.0
O600 O 0.05833 0.33797 0.49767 0.0
O601 O 0.0482 0.37831 0.4972 0.0
O602 O 0.99128 0.39835 0.51466 0.0
O603 O 0.00023 0.3583 0.50399 0.0
C604 C 0.05921 0.39409 0.56883 0.0
C605 C 0.98578 0.37762 0.50062 0.0
C606 C 0.69772 0.03013 0.6425 0.0
C607 C 0.71497 0.96971 0.55936 0.0
O608 O 0.7218 0.02895 0.63524 0.0
Zn609 Zn 0.74588 0.00949 0.60275 0.0
O610 O 0.68099 0.01678 0.62801 0.0
Zn611 Zn 0.70567 0.00015 0.60067 0.0
O612 O 0.72914 0.97805 0.6296 0.0
O613 O 0.76953 0.99223 0.62785 0.0
O614 O 0.69315 0.975 0.57149 0.0
O615 O 0.73555 0.98119 0.56891 0.0
O616 O 0.75944 0.03623 0.58001 0.0
O617 O 0.71726 0.03041 0.57353 0.0
C618 C 0.75302 0.97706 0.63796 0.0
C619 C 0.73819 0.04236 0.56778 0.0
C620 C 0.99933 0.81892 0.58482 0.0
C621 C 0.04948 0.84165 0.49781 0.0
O622 O 0.00302 0.84073 0.57525 0.0
Zn623 Zn 0.02411 0.83036 0.54141 0.0
O624 O 0.00903 0.79957 0.57051 0.0
Zn625 Zn 0.03208 0.79185 0.53042 0.0
O626 O 0.06292 0.77586 0.5459 0.0
O627 O 0.05768 0.81536 0.56262 0.0
O628 O 0.04839 0.81774 0.50007 0.0
O629 O 0.03832 0.85607 0.51735 0.0
O630 O 0.99617 0.81159 0.51268 0.0
O631 O 0.00839 0.77202 0.50511 0.0
C632 C 0.07038 0.79462 0.56244 0.0
C633 C 0.9922 0.78953 0.50068 0.0
C634 C 0.29052 0.21794 0.54051 0.0
C635 C 0.25124 0.15834 0.46779 0.0
O636 O 0.30754 0.20778 0.52268 0.0
Zn637 Zn 0.30757 0.18138 0.4843 0.0
O638 O 0.2666 0.21246 0.53713 0.0
Zn639 Zn 0.2705 0.18844 0.50401 0.0
O640 O 0.29264 0.1589 0.52303 0.0
O641 O 0.3292 0.15414 0.49738 0.0
O642 O 0.23989 0.17036 0.48932 0.0
O643 O 0.27575 0.16105 0.46382 0.0
O644 O 0.31927 0.2009 0.45143 0.0
O645 O 0.28016 0.21188 0.46778 0.0
C646 C 0.31437 0.14751 0.51833 0.0
C647 C 0.29913 0.21462 0.44959 0.0
C648 C 0.49504 0.89363 0.06796 0.0
C649 C 0.56749 0.87556 -7e-05 0.0
O650 O 0.51277 0.90861 0.0602 0.0
Zn651 Zn 0.53118 0.8848 0.03389 0.0
O652 O 0.49478 0.87088 0.05696 0.0
Zn653 Zn 0.51728 0.84781 0.0256 0.0
O654 O 0.52848 0.82066 0.04904 0.0
O655 O 0.54517 0.85736 0.06427 0.0
O656 O 0.55201 0.85677 0.0016 0.0
O657 O 0.56294 0.89577 0.01539 0.0
O658 O 0.50442 0.87977 0.99666 0.0
O659 O 0.49268 0.83981 0.99441 0.0
C660 C 0.5427 0.8336 0.06724 0.0
C661 C 0.49107 0.86164 0.98435 0.0
C662 C 0.2668 0.71512 0.04562 0.0
C663 C 0.30638 0.65561 0.97314 0.0
O664 O 0.29048 0.70842 0.0436 0.0
Zn665 Zn 0.28706 0.68576 0.00895 0.0
O666 O 0.25017 0.70618 0.02645 0.0
Zn667 Zn 0.25008 0.6798 0.98831 0.0
O668 O 0.22745 0.65289 0.00115 0.0
O669 O 0.26445 0.65609 0.02609 0.0
O670 O 0.28199 0.65878 0.9684 0.0
O671 O 0.31752 0.66743 0.99502 0.0
O672 O 0.27865 0.70959 0.9725 0.0
O673 O 0.23928 0.69998 0.95572 0.0
C674 C 0.24245 0.64525 0.02146 0.0
C675 C 0.25993 0.713 0.95405 0.0
C676 C 0.5653 0.27907 0.00103 0.0
C677 C 0.48691 0.30405 0.05593 0.0
O678 O 0.56543 0.30229 0.01019 0.0
Zn679 Zn 0.54003 0.32856 0.03322 0.0
O680 O 0.54525 0.26566 0.00501 0.0
Zn681 Zn 0.52517 0.29134 0.02678 0.0
O682 O 0.51425 0.31637 0.9926 0.0
O683 O 0.53194 0.3533 0.00437 0.0
O684 O 0.4918 0.28249 0.04364 0.0
O685 O 0.50318 0.32206 0.05335 0.0
O686 O 0.56077 0.33855 0.0678 0.0
O687 O 0.54844 0.29873 0.06673 0.0
C688 C 0.51796 0.33946 0.98682 0.0
C689 C 0.56073 0.31731 0.07966 0.0
C690 C 0.83095 0.52808 0.13716 0.0
C691 C 0.83242 0.46272 0.0563 0.0
O692 O 0.85113 0.51642 0.12747 0.0
Zn693 Zn 0.83312 0.49606 0.09624 0.0
O694 O 0.80894 0.52418 0.12424 0.0
Zn695 Zn 0.79249 0.50184 0.08796 0.0
O696 O 0.76637 0.48314 0.10855 0.0
O697 O 0.80671 0.47524 0.12272 0.0
O698 O 0.81028 0.47355 0.05963 0.0
O699 O 0.85134 0.46943 0.07325 0.0
O700 O 0.82441 0.52344 0.06404 0.0
O701 O 0.78163 0.52673 0.06084 0.0
C702 C 0.78211 0.47201 0.12545 0.0
C703 C 0.80417 0.53355 0.05285 0.0
H704 H 0.11718 0.39613 0.31173 0.0
H705 H 0.09996 0.32837 0.46521 0.0
H706 H 0.18006 0.35589 0.35186 0.0
H707 H 0.05701 0.39514 0.44479 0.0
H708 H 0.12589 0.33281 0.41972 0.0
H709 H 0.09074 0.39026 0.35654 0.0
C710 C 0.12527 0.38588 0.32992 0.0
C711 C 0.15073 0.37648 0.3283 0.0
C712 C 0.1108 0.34646 0.42531 0.0
C713 C 0.12079 0.36965 0.37923 0.0
C714 C 0.09597 0.34391 0.45113 0.0
C715 C 0.07641 0.36147 0.45877 0.0
C716 C 0.10561 0.3664 0.40677 0.0
C717 C 0.07205 0.38129 0.43981 0.0
C718 C 0.11031 0.38269 0.35547 0.0
C719 C 0.16051 0.36352 0.35247 0.0
N720 N 0.08643 0.38313 0.41454 0.0
N721 N 0.14545 0.36035 0.37697 0.0
H722 H 0.77471 0.16973 0.4622 0.0
H723 H 0.69574 0.06053 0.53891 0.0
H724 H 0.69185 0.15865 0.45236 0.0
H725 H 0.77839 0.07232 0.55047 0.0
H726 H 0.69418 0.09591 0.50635 0.0
H727 H 0.77667 0.13356 0.49368 0.0
C728 C 0.75694 0.15958 0.46651 0.0
C729 C 0.73307 0.16718 0.45457 0.0
C730 C 0.71267 0.09076 0.51597 0.0
C731 C 0.73514 0.12591 0.49086 0.0
C732 C 0.7136 0.07052 0.53456 0.0
C733 C 0.73725 0.06344 0.54748 0.0
C734 C 0.73555 0.10408 0.51019 0.0
C735 C 0.75973 0.07711 0.54101 0.0
C736 C 0.75805 0.13901 0.48463 0.0
C737 C 0.71061 0.15361 0.46134 0.0
N738 N 0.75832 0.0968 0.52284 0.0
N739 N 0.7122 0.13361 0.479 0.0
H740 H 0.86202 0.72436 0.39906 0.0
H741 H 0.95622 0.82395 0.48468 0.0
H742 H 0.84959 0.80468 0.40433 0.0
H743 H 0.97389 0.74458 0.47537 0.0
H744 H 0.91649 0.81649 0.45615 0.0
H745 H 0.90217 0.73058 0.42832 0.0
C746 C 0.86767 0.74327 0.40652 0.0
C747 C 0.85254 0.76406 0.39913 0.0
C748 C 0.92901 0.80065 0.46024 0.0
C749 C 0.89838 0.7713 0.43232 0.0
C750 C 0.95178 0.8049 0.47658 0.0
C751 C 0.96847 0.78485 0.48247 0.0
C752 C 0.92267 0.77614 0.44965 0.0
C753 C 0.96161 0.76059 0.47131 0.0
C754 C 0.89064 0.74681 0.42303 0.0
C755 C 0.86086 0.78815 0.40911 0.0
N756 N 0.93916 0.75689 0.45545 0.0
N757 N 0.88317 0.79108 0.42515 0.0
H758 H 0.19911 0.01542 0.40068 0.0
H759 H 0.25753 0.15147 0.40793 0.0
H760 H 0.21662 0.05572 0.3217 0.0
H761 H 0.21373 0.12428 0.48192 0.0
H762 H 0.24019 0.11719 0.37554 0.0
H763 H 0.20166 0.05518 0.43087 0.0
C764 C 0.20303 0.03268 0.38965 0.0
C765 C 0.20785 0.03225 0.35868 0.0
C766 C 0.23392 0.1189 0.3987 0.0
C767 C 0.21099 0.07757 0.39297 0.0
C768 C 0.24386 0.13843 0.41717 0.0
C769 C 0.23708 0.14051 0.44754 0.0
C770 C 0.21767 0.10085 0.4109 0.0
C771 C 0.2193 0.12325 0.45851 0.0
C772 C 0.20435 0.05535 0.40683 0.0
C773 C 0.21261 0.05516 0.34544 0.0
N774 N 0.21058 0.10373 0.4403 0.0
N775 N 0.21448 0.07679 0.36272 0.0
H776 H 0.22773 0.81433 0.61632 0.0
H777 H 0.07523 0.81407 0.61908 0.0
H778 H 0.18302 0.83147 0.6965 0.0
H779 H 0.1177 0.77257 0.54962 0.0
H780 H 0.11488 0.81775 0.64895 0.0
H781 H 0.18884 0.79556 0.59256 0.0
C782 C 0.2099 0.81361 0.62918 0.0
C783 C 0.20844 0.82492 0.65823 0.0
C784 C 0.11558 0.80745 0.62741 0.0
C785 C 0.16393 0.8039 0.63106 0.0
C786 C 0.09296 0.80544 0.61035 0.0
C787 C 0.09339 0.79319 0.58187 0.0
C788 C 0.13904 0.79777 0.61557 0.0
C789 C 0.11671 0.78216 0.57156 0.0
C790 C 0.1877 0.80297 0.61556 0.0
C791 C 0.18483 0.82356 0.67378 0.0
N792 N 0.13885 0.78516 0.58818 0.0
N793 N 0.16342 0.81365 0.65984 0.0
H794 H 0.3551 0.29303 0.70132 0.0
H795 H 0.26343 0.25814 0.56446 0.0
H796 H 0.31978 0.3504 0.64977 0.0
H797 H 0.33629 0.21853 0.57176 0.0
H798 H 0.278 0.28855 0.60412 0.0
H799 H 0.34333 0.26143 0.66117 0.0
C800 C 0.34512 0.29896 0.68149 0.0
C801 C 0.33855 0.32433 0.67868 0.0
C802 C 0.29071 0.27313 0.597 0.0
C803 C 0.32439 0.28856 0.63374 0.0
C804 C 0.28241 0.25578 0.57456 0.0
C805 C 0.29878 0.23597 0.56481 0.0
C806 C 0.31521 0.27019 0.61029 0.0
C807 C 0.32323 0.23374 0.57855 0.0
C808 C 0.33844 0.28103 0.65875 0.0
C809 C 0.32543 0.33109 0.65269 0.0
N810 N 0.33068 0.25057 0.60088 0.0
N811 N 0.31844 0.31327 0.63143 0.0
H812 H 0.91492 0.24335 0.68144 0.0
H813 H 0.98084 0.36414 0.6145 0.0
H814 H 0.90896 0.31852 0.72203 0.0
H815 H 0.99874 0.28821 0.58228 0.0
H816 H 0.95407 0.34742 0.65379 0.0
H817 H 0.94572 0.25893 0.64492 0.0
C818 C 0.92026 0.26307 0.68284 0.0
C819 C 0.90914 0.27971 0.70463 0.0
C820 C 0.96394 0.33437 0.63824 0.0
C821 C 0.94406 0.29767 0.66279 0.0
C822 C 0.97919 0.34392 0.61573 0.0
C823 C 0.99197 0.32754 0.59499 0.0
C824 C 0.96121 0.30823 0.63997 0.0
C825 C 0.98921 0.30151 0.5978 0.0
C826 C 0.93775 0.27196 0.66193 0.0
C827 C 0.9166 0.30511 0.70523 0.0
N828 N 0.97398 0.29264 0.61978 0.0
N829 N 0.93345 0.31332 0.68454 0.0
H830 H 0.81171 0.90194 0.79128 0.0
H831 H 0.72925 0.93265 0.64819 0.0
H832 H 0.77735 0.84367 0.73293 0.0
H833 H 0.79476 0.97886 0.67628 0.0
H834 H 0.74206 0.90188 0.68428 0.0
H835 H 0.80175 0.93258 0.75382 0.0
C836 C 0.80226 0.89548 0.77062 0.0
C837 C 0.79519 0.8701 0.76549 0.0
C838 C 0.75367 0.91872 0.68244 0.0
C839 C 0.78322 0.90524 0.72305 0.0
C840 C 0.74632 0.93631 0.66199 0.0
C841 C 0.76102 0.95827 0.65928 0.0
C842 C 0.77553 0.92337 0.70073 0.0
C843 C 0.78303 0.96206 0.67761 0.0
C844 C 0.79651 0.91304 0.74935 0.0
C845 C 0.78258 0.86306 0.73838 0.0
N846 N 0.78952 0.94485 0.69785 0.0
N847 N 0.7768 0.88056 0.71834 0.0
H848 H 0.87985 0.82511 0.72107 0.0
H849 H -0.00031 0.77883 0.62062 0.0
H850 H 0.9369 0.77279 0.75181 0.0
H851 H 0.96409 0.85154 0.61153 0.0
H852 H 0.97365 0.77337 0.66566 0.0
H853 H 0.90737 0.83231 0.67744 0.0
C854 C 0.89819 0.81517 0.71857 0.0
C855 C 0.90621 0.79835 0.73994 0.0
C856 C 0.97164 0.79055 0.65385 0.0
C857 C 0.93749 0.80625 0.69021 0.0
C858 C 0.98637 0.79363 0.62809 0.0
C859 C 0.984 0.81567 0.61231 0.0
C860 C 0.95406 0.80941 0.66359 0.0
C861 C 0.96656 0.8343 0.62309 0.0
C862 C 0.9139 0.81936 0.69384 0.0
C863 C 0.93017 0.78603 0.73587 0.0
N864 N 0.95205 0.83066 0.64795 0.0
N865 N 0.94489 0.79004 0.71131 0.0
H866 H 0.32815 0.0449 0.66128 0.0
H867 H 0.34272 0.10524 0.50224 0.0
H868 H 0.32998 -0.00083 0.57849 0.0
H869 H 0.30104 0.14139 0.57634 0.0
H870 H 0.34923 0.06819 0.53229 0.0
H871 H 0.329 0.08253 0.6323 0.0
C872 C 0.32869 0.04265 0.63706 0.0
C873 C 0.32851 0.01862 0.62242 0.0
C874 C 0.3389 0.08439 0.54196 0.0
C875 C 0.33041 0.06187 0.5892 0.0
C876 C 0.33534 0.10552 0.52496 0.0
C877 C 0.32121 0.12627 0.53684 0.0
C878 C 0.32878 0.08438 0.57116 0.0
C879 C 0.31187 0.12566 0.5663 0.0
C880 C 0.32939 0.06421 0.62058 0.0
C881 C 0.33023 0.01715 0.59091 0.0
N882 N 0.31586 0.10508 0.58247 0.0
N883 N 0.33104 0.03848 0.57535 0.0
H884 H 0.17842 0.47026 0.67922 0.0
H885 H 0.09109 0.36276 0.59807 0.0
H886 H 0.18184 0.39151 0.69782 0.0
H887 H 0.07456 0.44167 0.58968 0.0
H888 H 0.12556 0.37386 0.63344 0.0
H889 H 0.14146 0.46115 0.64529 0.0
C890 C 0.17133 0.45112 0.6763 0.0
C891 C 0.18313 0.43165 0.69157 0.0
C892 C 0.11442 0.38884 0.62402 0.0
C893 C 0.14113 0.42113 0.65282 0.0
C894 C 0.09471 0.38251 0.60364 0.0
C895 C 0.0799 0.40132 0.59075 0.0
C896 C 0.1197 0.41425 0.63159 0.0
C897 C 0.0855 0.42656 0.5991 0.0
C898 C 0.15022 0.44597 0.65706 0.0
C899 C 0.17311 0.40722 0.68703 0.0
N900 N 0.10509 0.43234 0.61892 0.0
N901 N 0.15286 0.40269 0.66803 0.0
H902 H 0.71966 0.1278 0.7974 0.0
H903 H 0.67015 0.07322 0.63756 0.0
H904 H 0.7173 0.17012 0.71727 0.0
H905 H 0.71033 0.02893 0.70121 0.0
H906 H 0.67035 0.10916 0.67442 0.0
H907 H 0.69999 0.09209 0.76907 0.0
C908 C 0.71479 0.12981 0.77405 0.0
C909 C 0.72083 0.15199 0.75966 0.0
C910 C 0.67831 0.09129 0.68063 0.0
C911 C 0.69743 0.11144 0.72758 0.0
C912 C 0.67796 0.07081 0.65978 0.0
C913 C 0.69014 0.04827 0.66665 0.0
C914 C 0.69076 0.08896 0.70838 0.0
C915 C 0.70064 0.04609 0.69534 0.0
C916 C 0.70333 0.10947 0.75804 0.0
C917 C 0.71306 0.15362 0.72958 0.0
N918 N 0.70095 0.0663 0.71516 0.0
N919 N 0.70205 0.13353 0.7145 0.0
H920 H 0.82938 0.38228 0.42775 0.0
H921 H 0.97587 0.34029 0.45837 0.0
H922 H 0.86667 0.31707 0.38531 0.0
H923 H 0.94299 0.40885 0.49792 0.0
H924 H 0.93656 0.3337 0.42872 0.0
H925 H 0.87108 0.39444 0.45103 0.0
C926 C 0.84634 0.37065 0.42308 0.0
C927 C 0.84443 0.34857 0.40453 0.0
C928 C 0.93788 0.3503 0.4437 0.0
C929 C 0.89215 0.36238 0.43109 0.0
C930 C 0.96037 0.35406 0.46074 0.0
C931 C 0.96264 0.37504 0.4809 0.0
C932 C 0.91721 0.36748 0.44695 0.0
C933 C 0.94201 0.39238 0.4827 0.0
C934 C 0.87015 0.37766 0.4363 0.0
C935 C 0.86715 0.33441 0.39905 0.0
N936 N 0.91999 0.38808 0.46616 0.0
N937 N 0.88991 0.34145 0.41243 0.0
H938 H 0.77036 0.87224 0.41217 0.0
H939 H 0.67796 0.93561 0.5391 0.0
H940 H 0.69827 0.83894 0.43976 0.0
H941 H 0.75706 0.95911 0.52374 0.0
H942 H 0.68316 0.90229 0.49964 0.0
H943 H 0.76397 0.90654 0.45002 0.0
C944 C 0.75315 0.8722 0.42617 0.0
C945 C 0.73488 0.85269 0.42294 0.0
C946 C 0.69934 0.91478 0.50493 0.0
C947 C 0.7274 0.89183 0.46625 0.0
C948 C 0.69635 0.93386 0.52735 0.0
C949 C 0.71713 0.95012 0.53481 0.0
C950 C 0.72319 0.91212 0.48972 0.0
C951 C 0.74054 0.94694 0.51887 0.0
C952 C 0.74956 0.8917 0.44784 0.0
C953 C 0.71302 0.85345 0.44181 0.0
N954 N 0.74292 0.92834 0.4971 0.0
N955 N 0.70984 0.87274 0.46262 0.0
H956 H 0.12937 0.86573 0.33061 0.0
H957 H 0.0687 0.88944 0.49434 0.0
H958 H 0.15991 0.92091 0.39543 0.0
H959 H 0.06399 0.81779 0.44482 0.0
H960 H 0.09539 0.90556 0.45409 0.0
H961 H 0.09827 0.85224 0.36833 0.0
C962 C 0.12929 0.87516 0.35269 0.0
C963 C 0.14725 0.89432 0.36008 0.0
C964 C 0.08838 0.88635 0.45204 0.0
C965 C 0.11183 0.8792 0.40304 0.0
C966 C 0.07308 0.87718 0.4749 0.0
C967 C 0.06427 0.85219 0.47299 0.0
C968 C 0.09451 0.87055 0.42689 0.0
C969 C 0.07058 0.83711 0.44731 0.0
C970 C 0.1117 0.86739 0.37419 0.0
C971 C 0.14651 0.90588 0.38902 0.0
N972 N 0.08527 0.84653 0.42522 0.0
N973 N 0.12906 0.89818 0.40946 0.0
H974 H 0.25777 0.34122 0.34492 0.0
H975 H 0.32392 0.21427 0.39512 0.0
H976 H 0.2826 0.28303 0.28053 0.0
H977 H 0.26816 0.25622 0.44981 0.0
H978 H 0.31622 0.243 0.3546 0.0
H979 H 0.26862 0.31374 0.38552 0.0
C980 C 0.26567 0.32268 0.33939 0.0
C981 C 0.26931 0.31432 0.3094 0.0
C982 C 0.30581 0.24591 0.37556 0.0
C983 C 0.28192 0.28291 0.35565 0.0
C984 C 0.31032 0.22968 0.39873 0.0
C985 C 0.29661 0.23286 0.42582 0.0
C986 C 0.28787 0.26569 0.37982 0.0
C987 C 0.27905 0.25302 0.42923 0.0
C988 C 0.27174 0.307 0.36251 0.0
C989 C 0.27938 0.29006 0.3034 0.0
N990 N 0.27526 0.26871 0.40655 0.0
N991 N 0.2855 0.27521 0.32635 0.0
H992 H 0.72704 0.85833 0.94754 0.0
H993 H 0.57461 0.84364 0.95108 0.0
H994 H 0.68336 0.82654 0.87207 0.0
H995 H 0.6137 0.90124 0.00574 0.0
H996 H 0.61466 0.83643 0.92256 0.0
H997 H 0.68644 0.8743 0.96973 0.0
C998 C 0.70904 0.85507 0.93532 0.0
C999 C 0.70869 0.84071 0.908 0.0
C1000 C 0.61443 0.85086 0.94055 0.0
C1001 C 0.66209 0.85846 0.93376 0.0
C1002 C 0.59161 0.85491 0.95692 0.0
C1003 C 0.59091 0.87296 0.98089 0.0
C1004 C 0.63692 0.86458 0.94859 0.0
C1005 C 0.61344 0.88715 0.98738 0.0
C1006 C 0.68584 0.86411 0.94813 0.0
C1007 C 0.6846 0.83688 0.89352 0.0
N1008 N 0.63571 0.88239 0.9716 0.0
N1009 N 0.66227 0.84537 0.90677 0.0
H1010 H 0.32538 0.8151 0.82968 0.0
H1011 H 0.22469 0.72582 0.91087 0.0
H1012 H 0.24522 0.80618 0.80214 0.0
H1013 H 0.30279 0.74135 0.9425 0.0
H1014 H 0.23174 0.7544 0.87032 0.0
H1015 H 0.31761 0.78683 0.8701 0.0
C1016 C 0.30618 0.807 0.83196 0.0
C1017 C 0.28595 0.81296 0.81238 0.0
C1018 C 0.24729 0.75159 0.88621 0.0
C1019 C 0.27678 0.78075 0.859 0.0
C1020 C 0.24326 0.7353 0.9094 0.0
C1021 C 0.26317 0.73114 0.93017 0.0
C1022 C 0.27143 0.76372 0.88367 0.0
C1023 C 0.28685 0.74394 0.92708 0.0
C1024 C 0.30169 0.79101 0.85522 0.0
C1025 C 0.26133 0.80227 0.81684 0.0
N1026 N 0.29032 0.75955 0.90426 0.0
N1027 N 0.25745 0.78665 0.83963 0.0
H1028 H 0.42846 0.36084 0.82487 0.0
H1029 H 0.507 0.38894 0.97789 0.0
H1030 H 0.41136 0.42367 0.88645 0.0
H1031 H 0.49766 0.31413 0.93733 0.0
H1032 H 0.48019 0.40542 0.93785 0.0
H1033 H 0.46218 0.34702 0.85959 0.0
C1034 C 0.43213 0.3719 0.84548 0.0
C1035 C 0.41711 0.3933 0.85299 0.0
C1036 C 0.48426 0.38544 0.93762 0.0
C1037 C 0.45552 0.37781 0.89248 0.0
C1038 C 0.49965 0.37604 0.96034 0.0
C1039 C 0.5044 0.3501 0.96106 0.0
C1040 C 0.47391 0.36884 0.91522 0.0
C1041 C 0.49428 0.33423 0.93778 0.0
C1042 C 0.4512 0.36396 0.8653 0.0
C1043 C 0.42243 0.40694 0.88002 0.0
N1044 N 0.47949 0.34385 0.91581 0.0
N1045 N 0.44121 0.39897 0.89882 0.0
H1046 H 0.83798 0.31373 0.97155 0.0
H1047 H 0.80771 0.45871 0.00282 0.0
H1048 H 0.80949 0.36193 0.90375 0.0
H1049 H 0.86198 0.41967 0.05775 0.0
H1050 H 0.80683 0.42245 0.96727 0.0
H1051 H 0.84572 0.35114 0.00477 0.0
C1052 C 0.83343 0.3321 0.96357 0.0
C1053 C 0.82263 0.33457 0.93492 0.0
C1054 C 0.81919 0.42183 0.98689 0.0
C1055 C 0.83129 0.3773 0.97286 0.0
C1056 C 0.81968 0.44252 0.00719 0.0
C1057 C 0.83491 0.4421 0.0332 0.0
C1058 C 0.83362 0.40025 0.9929 0.0
C1059 C 0.85011 0.42071 0.0378 0.0
C1060 C 0.83788 0.35342 0.98255 0.0
C1061 C 0.81706 0.35892 0.92591 0.0
N1062 N 0.8488 0.40039 0.01801 0.0
N1063 N 0.82127 0.37923 0.94486 0.0
H1064 H 0.6549 0.33489 0.24102 0.0
H1065 H 0.56521 0.27402 0.10966 0.0
H1066 H 0.63427 0.25623 0.23261 0.0
H1067 H 0.58866 0.35205 0.11429 0.0
H1068 H 0.58913 0.26776 0.1558 0.0
H1069 H 0.62931 0.34216 0.19599 0.0
C1070 C 0.6448 0.31919 0.22985 0.0
C1071 C 0.64672 0.29491 0.24061 0.0
C1072 C 0.58906 0.28627 0.14679 0.0
C1073 C 0.61763 0.30304 0.1889 0.0
C1074 C 0.57536 0.28989 0.12039 0.0
C1075 C 0.57493 0.31362 0.10799 0.0
C1076 C 0.60249 0.30651 0.16106 0.0
C1077 C 0.58847 0.33343 0.123 0.0
C1078 C 0.63034 0.32332 0.20404 0.0
C1079 C 0.63358 0.2752 0.22494 0.0
N1080 N 0.60172 0.32943 0.14874 0.0
N1081 N 0.61961 0.2797 0.19992 0.0
H1082 H 0.8505 0.65885 0.25801 0.0
H1083 H 0.79389 0.5325 0.17943 0.0
H1084 H 0.77525 0.62646 0.27539 0.0
H1085 H 0.8689 0.56214 0.15624 0.0
H1086 H 0.79074 0.56387 0.22058 0.0
H1087 H 0.86117 0.62135 0.22606 0.0
C1088 C 0.83638 0.64379 0.25552 0.0
C1089 C 0.8119 0.64596 0.26951 0.0
C1090 C 0.80806 0.56356 0.20678 0.0
C1091 C 0.82407 0.60306 0.2332 0.0
C1092 C 0.80984 0.54562 0.18323 0.0
C1093 C 0.83151 0.54503 0.16424 0.0
C1094 C 0.82789 0.58151 0.21121 0.0
C1095 C 0.85183 0.56213 0.17042 0.0
C1096 C 0.84254 0.62237 0.23737 0.0
C1097 C 0.79454 0.62567 0.26569 0.0
N1098 N 0.84934 0.58006 0.19318 0.0
N1099 N 0.8009 0.6053 0.2478 0.0
H1100 H 0.36495 0.97081 0.15448 0.0
H1101 H 0.46569 0.86448 0.10301 0.0
H1102 H 0.37657 0.90337 0.20251 0.0
H1103 H 0.47763 0.94175 0.08134 0.0
H1104 H 0.43038 0.87791 0.1366 0.0
H1105 H 0.40392 0.96029 0.12443 0.0
C1106 C 0.37583 0.95394 0.15882 0.0
C1107 C 0.36765 0.93798 0.18106 0.0
C1108 C 0.44082 0.89198 0.12466 0.0
C1109 C 0.41172 0.92572 0.14671 0.0
C1110 C 0.46089 0.88431 0.10539 0.0
C1111 C 0.47455 0.90204 0.08934 0.0
C1112 C 0.43396 0.91751 0.12755 0.0
C1113 C 0.46761 0.92751 0.09341 0.0
C1114 C 0.39804 0.94801 0.14181 0.0
C1115 C 0.38239 0.91634 0.18586 0.0
N1116 N 0.44755 0.9345 0.11191 0.0
N1117 N 0.40353 0.91072 0.16862 0.0
H1118 H 0.1837 0.50498 0.08889 0.0
H1119 H 0.26662 0.63083 0.07187 0.0
H1120 H 0.24982 0.52764 0.14358 0.0
H1121 H 0.203 0.61024 0.01232 0.0
H1122 H 0.25818 0.59389 0.09987 0.0
H1123 H 0.18839 0.54367 0.06155 0.0
C1124 C 0.19915 0.51805 0.09518 0.0
C1125 C 0.21626 0.51309 0.11878 0.0
C1126 C 0.24593 0.59735 0.08076 0.0
C1127 C 0.2216 0.55734 0.08777 0.0
C1128 C 0.25075 0.61854 0.06468 0.0
C1129 C 0.23561 0.6236 0.03952 0.0
C1130 C 0.22585 0.58078 0.07169 0.0
C1131 C 0.21516 0.60703 0.03157 0.0
C1132 C 0.20172 0.54016 0.07966 0.0
C1133 C 0.2358 0.5308 0.12605 0.0
N1134 N 0.21096 0.58621 0.04751 0.0
N1135 N 0.23791 0.552 0.11064 0.0
H1136 H 0.36542 0.37978 0.15604 0.0
H1137 H 0.44601 0.27182 0.06605 0.0
H1138 H 0.33727 0.30341 0.14454 0.0
H1139 H 0.47309 0.34771 0.08581 0.0
H1140 H 0.40625 0.28187 0.09486 0.0
H1141 H 0.40546 0.36716 0.13101 0.0
C1142 C 0.3678 0.3602 0.14868 0.0
C1143 C 0.34796 0.3426 0.15272 0.0
C1144 C 0.42101 0.29622 0.09288 0.0
C1145 C 0.39385 0.32804 0.12301 0.0
C1146 C 0.44364 0.29051 0.07644 0.0
C1147 C 0.46286 0.30897 0.07337 0.0
C1148 C 0.4177 0.32051 0.10622 0.0
C1149 C 0.45882 0.33286 0.08737 0.0
C1150 C 0.39067 0.35303 0.13406 0.0
C1151 C 0.35199 0.31766 0.14175 0.0
N1152 N 0.43676 0.3379 0.10305 0.0
N1153 N 0.37449 0.3111 0.12729 0.0
H1154 H 0.76741 0.39939 0.29226 0.0
H1155 H 0.73582 0.44625 0.12884 0.0
H1156 H 0.71712 0.35759 0.2304 0.0
H1157 H 0.80682 0.46339 0.17748 0.0
H1158 H 0.72195 0.41997 0.16979 0.0
H1159 H 0.77467 0.43019 0.25426 0.0
C1160 C 0.75759 0.39695 0.27082 0.0
C1161 C 0.74187 0.37589 0.26426 0.0
C1162 C 0.74049 0.42963 0.17139 0.0
C1163 C 0.75012 0.41083 0.22081 0.0
C1164 C 0.74836 0.44458 0.14816 0.0
C1165 C 0.77261 0.45668 0.1497 0.0
C1166 C 0.75677 0.42738 0.19643 0.0
C1167 C 0.78815 0.45404 0.1752 0.0
C1168 C 0.76186 0.41438 0.24912 0.0
C1169 C 0.72969 0.37346 0.23608 0.0
N1170 N 0.77994 0.43974 0.19757 0.0
N1171 N 0.73415 0.39071 0.21526 0.0
H1172 H 0.61973 0.80026 0.2329 0.0
H1173 H 0.55574 0.78393 0.07017 0.0
H1174 H 0.64492 0.74306 0.16741 0.0
H1175 H 0.56126 0.85561 0.11951 0.0
H1176 H 0.58056 0.7646 0.10997 0.0
H1177 H 0.58973 0.81649 0.19572 0.0
C1178 C 0.61855 0.79087 0.21083 0.0
C1179 C 0.63472 0.77034 0.20307 0.0
C1180 C 0.57619 0.78452 0.11205 0.0
C1181 C 0.60069 0.78874 0.16066 0.0
C1182 C 0.562 0.79554 0.08948 0.0
C1183 C 0.55662 0.82143 0.09152 0.0
C1184 C 0.58456 0.79943 0.13704 0.0
C1185 C 0.56521 0.83563 0.11695 0.0
C1186 C 0.60165 0.80024 0.18963 0.0
C1187 C 0.63279 0.75901 0.17411 0.0
N1188 N 0.57871 0.82443 0.1388 0.0
N1189 N 0.61604 0.76836 0.15388 0.0
H1190 H 0.23584 0.78672 0.22012 0.0
H1191 H 0.22479 0.74657 0.04683 0.0
H1192 H 0.20778 0.83794 0.15512 0.0
H1193 H 0.2887 0.72238 0.1012 0.0
H1194 H 0.21007 0.77437 0.08897 0.0
H1195 H 0.24689 0.75661 0.17891 0.0
C1196 C 0.23173 0.79167 0.19739 0.0
C1197 C 0.22098 0.81522 0.19139 0.0
C1198 C 0.22728 0.76291 0.09159 0.0
C1199 C 0.23298 0.78041 0.14428 0.0
C1200 C 0.23567 0.74709 0.06765 0.0
C1201 C 0.25809 0.73234 0.07054 0.0
C1202 C 0.24102 0.76345 0.11878 0.0
C1203 C 0.27148 0.73367 0.09799 0.0
C1204 C 0.23802 0.7744 0.17392 0.0
C1205 C 0.21554 0.82003 0.16127 0.0
N1206 N 0.26263 0.74885 0.12119 0.0
N1207 N 0.22161 0.80281 0.13891 0.0
H1208 H 0.42119 0.91698 0.82431 0.0
H1209 H 0.45204 0.83145 0.96132 0.0
H1210 H 0.36667 0.86262 0.85566 0.0
H1211 H 0.49049 0.90239 0.94942 0.0
H1212 H 0.42317 0.8398 0.91935 0.0
H1213 H 0.44954 0.90921 0.86702 0.0
C1214 C 0.41525 0.9034 0.84023 0.0
C1215 C 0.39164 0.8904 0.83658 0.0
C1216 C 0.4379 0.85354 0.92601 0.0
C1217 C 0.42389 0.88132 0.88519 0.0
C1218 C 0.45446 0.84874 0.94983 0.0
C1219 C 0.47369 0.86626 0.95886 0.0
C1220 C 0.44084 0.87583 0.91084 0.0
C1221 C 0.47587 0.88841 0.94326 0.0
C1222 C 0.43133 0.89907 0.86461 0.0
C1223 C 0.38466 0.87314 0.85789 0.0
N1224 N 0.45973 0.8925 0.91989 0.0
N1225 N 0.40083 0.86895 0.88122 0.0
H1226 H 0.34345 0.55047 0.82807 0.0
H1227 H 0.34366 0.62223 0.9896 0.0
H1228 H 0.35159 0.51174 0.91014 0.0
H1229 H 0.30054 0.64645 0.9133 0.0
H1230 H 0.36065 0.58644 0.95836 0.0
H1231 H 0.34238 0.59058 0.85728 0.0
C1232 C 0.34575 0.55047 0.85219 0.0
C1233 C 0.34743 0.5278 0.86679 0.0
C1234 C 0.34789 0.59994 0.94843 0.0
C1235 C 0.346 0.57351 0.90022 0.0
C1236 C 0.33836 0.62036 0.9661 0.0
C1237 C 0.32057 0.63704 0.95392 0.0
C1238 C 0.33993 0.59671 0.91838 0.0
C1239 C 0.31405 0.63378 0.92351 0.0
C1240 C 0.34494 0.57333 0.86882 0.0
C1241 C 0.34998 0.52885 0.89813 0.0
N1242 N 0.32366 0.61392 0.90678 0.0
N1243 N 0.34896 0.55137 0.9139 0.0
H1244 H 0.7243 0.25264 0.94828 0.0
H1245 H 0.56975 0.23802 0.96133 0.0
H1246 H 0.67741 0.219 0.87676 0.0
H1247 H 0.61486 0.29524 0.00968 0.0
H1248 H 0.60998 0.22226 0.93703 0.0
H1249 H 0.68497 0.25892 0.97863 0.0
C1250 C 0.70578 0.2461 0.93924 0.0
C1251 C 0.70398 0.23553 0.90993 0.0
C1252 C 0.61096 0.23813 0.95316 0.0
C1253 C 0.65905 0.24282 0.94428 0.0
C1254 C 0.58811 0.24708 0.96699 0.0
C1255 C 0.58902 0.26814 0.98717 0.0
C1256 C 0.63476 0.25006 0.96014 0.0
C1257 C 0.61326 0.2792 0.99387 0.0
C1258 C 0.68336 0.24986 0.95643 0.0
C1259 C 0.67949 0.22755 0.89916 0.0
N1260 N 0.63515 0.27003 0.98039 0.0
N1261 N 0.65789 0.23151 0.91627 0.0
H1262 H 0.79873 0.67852 0.97687 0.0
H1263 H 0.84651 0.54314 0.01847 0.0
H1264 H 0.85564 0.63714 0.92331 0.0
H1265 H 0.76938 0.57051 0.04025 0.0
H1266 H 0.85297 0.57907 0.98716 0.0
H1267 H 0.79065 0.64086 0.00487 0.0
C1268 C 0.80965 0.6615 0.97123 0.0
C1269 C 0.828 0.66083 0.94801 0.0
C1270 C 0.83458 0.57706 0.99861 0.0
C1271 C 0.81887 0.6179 0.97971 0.0
C1272 C 0.83089 0.55664 0.01651 0.0
C1273 C 0.80739 0.55392 0.03199 0.0
C1274 C 0.81484 0.59513 0.99671 0.0
C1275 C 0.78775 0.57188 0.0286 0.0
C1276 C 0.80487 0.64003 0.98696 0.0
C1277 C 0.84136 0.6383 0.94114 0.0
N1278 N 0.79204 0.59193 0.01158 0.0
N1279 N 0.8367 0.61772 0.95714 0.0
loop_
_geom_bond_atom_site_label_1
_geom_bond_atom_site_label_2
_geom_bond_distance
_geom_bond_site_symmetry_2
_ccdc_geom_bond_type
H0 O26 0.856 . S
H1 O29 0.854 . S
H2 C37 0.930 . S
H3 C38 0.930 . S
H4 C40 0.930 . S
H5 C41 0.930 . S
H6 C43 0.931 . S
H7 C44 0.930 . S
H8 C46 0.930 . S
H9 C47 0.929 . S
H10 C49 0.930 . S
H11 C50 0.931 . S
H12 C52 0.930 . S
H13 C53 0.929 . S
H14 C55 0.931 . S
H15 C56 0.930 . S
H16 C58 0.930 . S
H17 C59 0.932 . S
H18 C61 0.930 . S
H19 C62 0.929 . S
H20 C64 0.931 . S
H21 C65 0.930 . S
H22 C67 0.929 . S
H23 C68 0.931 . S
H24 C70 0.930 . S
H25 C71 0.929 . S
O26 H0 0.856 . S
O26 C72 1.300 . S
O27 C72 1.209 . S
O28 C73 1.199 . S
O29 H1 0.854 . S
O29 C73 1.297 . S
C30 C31 1.404 . S
C30 C35 1.397 . S
C30 C36 1.492 . S
C31 C30 1.404 . S
C31 C32 1.396 . S
C31 C42 1.492 . S
C32 C31 1.396 . S
C32 C33 1.397 . S
C32 C48 1.509 . S
C33 C32 1.397 . S
C33 C34 1.412 . S
C33 C54 1.485 . S
C34 C33 1.412 . S
C34 C35 1.388 . S
C34 C60 1.490 . S
C35 C30 1.397 . S
C35 C34 1.388 . S
C35 C66 1.519 . S
C36 C30 1.492 . S
C36 C37 1.363 . S
C36 C41 1.390 . S
C37 H2 0.930 . S
C37 C36 1.363 . S
C37 C38 1.372 . S
C38 H3 0.930 . S
C38 C37 1.372 . S
C38 C39 1.383 . S
C39 C38 1.383 . S
C39 C40 1.395 . S
C40 H4 0.930 . S
C40 C39 1.395 . S
C40 C41 1.362 . S
C41 H5 0.930 . S
C41 C36 1.390 . S
C41 C40 1.362 . S
C42 C31 1.492 . S
C42 C43 1.377 . S
C42 C47 1.397 . S
C43 H6 0.931 . S
C43 C42 1.377 . S
C43 C44 1.376 . S
C44 H7 0.930 . S
C44 C43 1.376 . S
C44 C45 1.376 . S
C45 C44 1.376 . S
C45 C46 1.378 . S
C45 C72 1.486 . S
C46 H8 0.930 . S
C46 C45 1.378 . S
C46 C47 1.376 . S
C47 H9 0.929 . S
C47 C42 1.397 . S
C47 C46 1.376 . S
C48 C32 1.509 . S
C48 C49 1.391 . S
C48 C53 1.386 . S
C49 H10 0.930 . S
C49 C48 1.391 . S
C49 C50 1.375 . S
C50 H11 0.931 . S
C50 C49 1.375 . S
C50 C51 1.375 . S
C51 C50 1.375 . S
C51 C52 1.361 . S
C52 H12 0.930 . S
C52 C51 1.361 . S
C52 C53 1.399 . S
C53 H13 0.929 . S
C53 C48 1.386 . S
C53 C52 1.399 . S
C54 C33 1.485 . S
C54 C55 1.394 . S
C54 C59 1.360 . S
C55 H14 0.931 . S
C55 C54 1.394 . S
C55 C56 1.372 . S
C56 H15 0.930 . S
C56 C55 1.372 . S
C56 C57 1.397 . S
C57 C56 1.397 . S
C57 C58 1.390 . S
C57 C73 1.476 . S
C58 H16 0.930 . S
C58 C57 1.390 . S
C58 C59 1.366 . S
C59 H17 0.932 . S
C59 C54 1.360 . S
C59 C58 1.366 . S
C60 C34 1.490 . S
C60 C61 1.380 . S
C60 C65 1.386 . S
C61 H18 0.930 . S
C61 C60 1.380 . S
C61 C62 1.381 . S
C62 H19 0.929 . S
C62 C61 1.381 . S
C62 C63 1.371 . S
C63 C62 1.371 . S
C63 C64 1.380 . S
C64 H20 0.931 . S
C64 C63 1.380 . S
C64 C65 1.387 . S
C65 H21 0.930 . S
C65 C60 1.386 . S
C65 C64 1.387 . S
C66 C35 1.519 . S
C66 C67 1.377 . S
C66 C71 1.361 . S
C67 H22 0.929 . S
C67 C66 1.377 . S
C67 C68 1.386 . S
C68 H23 0.931 . S
C68 C67 1.386 . S
C68 C69 1.363 . S
C69 C68 1.363 . S
C69 C70 1.385 . S
C70 H24 0.930 . S
C70 C69 1.385 . S
C70 C71 1.396 . S
C71 H25 0.929 . S
C71 C66 1.361 . S
C71 C70 1.396 . S
C72 O26 1.300 . S
C72 O27 1.209 . S
C72 C45 1.486 . S
C73 O28 1.199 . S
C73 O29 1.297 . S
C73 C57 1.476 . S
H74 O100 0.856 . S
H75 O103 0.854 . S
H76 C111 0.930 . S
H77 C112 0.930 . S
H78 C114 0.930 . S
H79 C115 0.930 . S
H80 C117 0.931 . S
H81 C118 0.930 . S
H82 C120 0.930 . S
H83 C121 0.929 . S
H84 C123 0.930 . S
H85 C124 0.931 . S
H86 C126 0.930 . S
H87 C127 0.929 . S
H88 C129 0.931 . S
H89 C130 0.930 . S
H90 C132 0.930 . S
H91 C133 0.932 . S
H92 C135 0.930 . S
H93 C136 0.929 . S
H94 C138 0.931 . S
H95 C139 0.930 . S
H96 C141 0.929 . S
H97 C142 0.931 . S
H98 C144 0.930 . S
H99 C145 0.929 . S
O100 H74 0.856 . S
O100 C146 1.300 . S
O101 C146 1.209 . S
O102 C147 1.199 . S
O103 H75 0.854 . S
O103 C147 1.297 . S
C104 C105 1.404 . S
C104 C109 1.397 . S
C104 C110 1.492 . S
C105 C104 1.404 . S
C105 C106 1.396 . S
C105 C116 1.492 . S
C106 C105 1.396 . S
C106 C107 1.397 . S
C106 C122 1.509 . S
C107 C106 1.397 . S
C107 C108 1.412 . S
C107 C128 1.485 . S
C108 C107 1.412 . S
C108 C109 1.388 . S
C108 C134 1.490 . S
C109 C104 1.397 . S
C109 C108 1.388 . S
C109 C140 1.519 . S
C110 C104 1.492 . S
C110 C111 1.363 . S
C110 C115 1.390 . S
C111 H76 0.930 . S
C111 C110 1.363 . S
C111 C112 1.372 . S
C112 H77 0.930 . S
C112 C111 1.372 . S
C112 C113 1.383 . S
C113 C112 1.383 . S
C113 C114 1.395 . S
C114 H78 0.930 . S
C114 C113 1.395 . S
C114 C115 1.362 . S
C115 H79 0.930 . S
C115 C110 1.390 . S
C115 C114 1.362 . S
C116 C105 1.492 . S
C116 C117 1.377 . S
C116 C121 1.397 . S
C117 H80 0.931 . S
C117 C116 1.377 . S
C117 C118 1.376 . S
C118 H81 0.930 . S
C118 C117 1.376 . S
C118 C119 1.376 . S
C119 C118 1.376 . S
C119 C120 1.378 . S
C119 C146 1.486 . S
C120 H82 0.930 . S
C120 C119 1.378 . S
C120 C121 1.376 . S
C121 H83 0.929 . S
C121 C116 1.397 . S
C121 C120 1.376 . S
C122 C106 1.509 . S
C122 C123 1.391 . S
C122 C127 1.386 . S
C123 H84 0.930 . S
C123 C122 1.391 . S
C123 C124 1.375 . S
C124 H85 0.931 . S
C124 C123 1.375 . S
C124 C125 1.375 . S
C125 C124 1.375 . S
C125 C126 1.361 . S
C126 H86 0.930 . S
C126 C125 1.361 . S
C126 C127 1.399 . S
C127 H87 0.929 . S
C127 C122 1.386 . S
C127 C126 1.399 . S
C128 C107 1.485 . S
C128 C129 1.394 . S
C128 C133 1.360 . S
C129 H88 0.931 . S
C129 C128 1.394 . S
C129 C130 1.372 . S
C130 H89 0.930 . S
C130 C129 1.372 . S
C130 C131 1.397 . S
C131 C130 1.397 . S
C131 C132 1.390 . S
C131 C147 1.476 . S
C132 H90 0.930 . S
C132 C131 1.390 . S
C132 C133 1.366 . S
C133 H91 0.932 . S
C133 C128 1.360 . S
C133 C132 1.366 . S
C134 C108 1.490 . S
C134 C135 1.380 . S
C134 C139 1.386 . S
C135 H92 0.930 . S
C135 C134 1.380 . S
C135 C136 1.381 . S
C136 H93 0.929 . S
C136 C135 1.381 . S
C136 C137 1.371 . S
C137 C136 1.371 . S
C137 C138 1.380 . S
C138 H94 0.931 . S
C138 C137 1.380 . S
C138 C139 1.387 . S
C139 H95 0.930 . S
C139 C134 1.386 . S
C139 C138 1.387 . S
C140 C109 1.519 . S
C140 C141 1.377 . S
C140 C145 1.361 . S
C141 H96 0.929 . S
C141 C140 1.377 . S
C141 C142 1.386 . S
C142 H97 0.931 . S
C142 C141 1.386 . S
C142 C143 1.363 . S
C143 C142 1.363 . S
C143 C144 1.385 . S
C144 H98 0.930 . S
C144 C143 1.385 . S
C144 C145 1.396 . S
C145 H99 0.929 . S
C145 C140 1.361 . S
C145 C144 1.396 . S
C146 O100 1.300 . S
C146 O101 1.209 . S
C146 C119 1.486 . S
C147 O102 1.199 . S
C147 O103 1.297 . S
C147 C131 1.476 . S
H148 O174 0.856 . S
H149 O177 0.854 . S
H150 C185 0.930 . S
H151 C186 0.930 . S
H152 C188 0.930 . S
H153 C189 0.930 . S
H154 C191 0.931 . S
H155 C192 0.930 . S
H156 C194 0.930 . S
H157 C195 0.929 . S
H158 C197 0.930 . S
H159 C198 0.931 . S
H160 C200 0.930 . S
H161 C201 0.929 . S
H162 C203 0.931 . S
H163 C204 0.930 . S
H164 C206 0.930 . S
H165 C207 0.932 . S
H166 C209 0.930 . S
H167 C210 0.929 . S
H168 C212 0.931 . S
H169 C213 0.930 . S
H170 C215 0.929 . S
H171 C216 0.931 . S
H172 C218 0.930 . S
H173 C219 0.929 . S
O174 H148 0.856 . S
O174 C220 1.300 . S
O175 C220 1.209 . S
O176 C221 1.199 . S
O177 H149 0.854 . S
O177 C221 1.297 . S
C178 C179 1.404 . S
C178 C183 1.397 . S
C178 C184 1.492 . S
C179 C178 1.404 . S
C179 C180 1.396 . S
C179 C190 1.492 . S
C180 C179 1.396 . S
C180 C181 1.397 . S
C180 C196 1.509 . S
C181 C180 1.397 . S
C181 C182 1.412 . S
C181 C202 1.485 . S
C182 C181 1.412 . S
C182 C183 1.388 . S
C182 C208 1.490 . S
C183 C178 1.397 . S
C183 C182 1.388 . S
C183 C214 1.519 . S
C184 C178 1.492 . S
C184 C185 1.363 . S
C184 C189 1.390 . S
C185 H150 0.930 . S
C185 C184 1.363 . S
C185 C186 1.372 . S
C186 H151 0.930 . S
C186 C185 1.372 . S
C186 C187 1.383 . S
C187 C186 1.383 . S
C187 C188 1.395 . S
C188 H152 0.930 . S
C188 C187 1.395 . S
C188 C189 1.362 . S
C189 H153 0.930 . S
C189 C184 1.390 . S
C189 C188 1.362 . S
C190 C179 1.492 . S
C190 C191 1.377 . S
C190 C195 1.397 . S
C191 H154 0.931 . S
C191 C190 1.377 . S
C191 C192 1.376 . S
C192 H155 0.930 . S
C192 C191 1.376 . S
C192 C193 1.376 . S
C193 C192 1.376 . S
C193 C194 1.378 . S
C193 C220 1.486 . S
C194 H156 0.930 . S
C194 C193 1.378 . S
C194 C195 1.376 . S
C195 H157 0.929 . S
C195 C190 1.397 . S
C195 C194 1.376 . S
C196 C180 1.509 . S
C196 C197 1.391 . S
C196 C201 1.386 . S
C197 H158 0.930 . S
C197 C196 1.391 . S
C197 C198 1.375 . S
C198 H159 0.931 . S
C198 C197 1.375 . S
C198 C199 1.375 . S
C199 C198 1.375 . S
C199 C200 1.361 . S
C200 H160 0.930 . S
C200 C199 1.361 . S
C200 C201 1.399 . S
C201 H161 0.929 . S
C201 C196 1.386 . S
C201 C200 1.399 . S
C202 C181 1.485 . S
C202 C203 1.394 . S
C202 C207 1.360 . S
C203 H162 0.931 . S
C203 C202 1.394 . S
C203 C204 1.372 . S
C204 H163 0.930 . S
C204 C203 1.372 . S
C204 C205 1.397 . S
C205 C204 1.397 . S
C205 C206 1.390 . S
C205 C221 1.476 . S
C206 H164 0.930 . S
C206 C205 1.390 . S
C206 C207 1.366 . S
C207 H165 0.932 . S
C207 C202 1.360 . S
C207 C206 1.366 . S
C208 C182 1.490 . S
C208 C209 1.380 . S
C208 C213 1.386 . S
C209 H166 0.930 . S
C209 C208 1.380 . S
C209 C210 1.381 . S
C210 H167 0.929 . S
C210 C209 1.381 . S
C210 C211 1.371 . S
C211 C210 1.371 . S
C211 C212 1.380 . S
C212 H168 0.931 . S
C212 C211 1.380 . S
C212 C213 1.387 . S
C213 H169 0.930 . S
C213 C208 1.386 . S
C213 C212 1.387 . S
C214 C183 1.519 . S
C214 C215 1.377 . S
C214 C219 1.361 . S
C215 H170 0.929 . S
C215 C214 1.377 . S
C215 C216 1.386 . S
C216 H171 0.931 . S
C216 C215 1.386 . S
C216 C217 1.363 . S
C217 C216 1.363 . S
C217 C218 1.385 . S
C218 H172 0.930 . S
C218 C217 1.385 . S
C218 C219 1.396 . S
C219 H173 0.929 . S
C219 C214 1.361 . S
C219 C218 1.396 . S
C220 O174 1.300 . S
C220 O175 1.209 . S
C220 C193 1.486 . S
C221 O176 1.199 . S
C221 O177 1.297 . S
C221 C205 1.476 . S
H222 O248 0.856 . S
H223 O251 0.854 . S
H224 C259 0.930 . S
H225 C260 0.930 . S
H226 C262 0.930 . S
H227 C263 0.930 . S
H228 C265 0.931 . S
H229 C266 0.930 . S
H230 C268 0.930 . S
H231 C269 0.929 . S
H232 C271 0.930 . S
H233 C272 0.931 . S
H234 C274 0.930 . S
H235 C275 0.929 . S
H236 C277 0.931 . S
H237 C278 0.930 . S
H238 C280 0.930 . S
H239 C281 0.932 . S
H240 C283 0.930 . S
H241 C284 0.929 . S
H242 C286 0.931 . S
H243 C287 0.930 . S
H244 C289 0.929 . S
H245 C290 0.931 . S
H246 C292 0.930 . S
H247 C293 0.929 . S
O248 H222 0.856 . S
O248 C294 1.300 . S
O249 C294 1.209 . S
O250 C295 1.199 . S
O251 H223 0.854 . S
O251 C295 1.297 . S
C252 C253 1.404 . S
C252 C257 1.397 . S
C252 C258 1.492 . S
C253 C252 1.404 . S
C253 C254 1.396 . S
C253 C264 1.492 . S
C254 C253 1.396 . S
C254 C255 1.397 . S
C254 C270 1.509 . S
C255 C254 1.397 . S
C255 C256 1.412 . S
C255 C276 1.485 . S
C256 C255 1.412 . S
C256 C257 1.388 . S
C256 C282 1.490 . S
C257 C252 1.397 . S
C257 C256 1.388 . S
C257 C288 1.519 . S
C258 C252 1.492 . S
C258 C259 1.363 . S
C258 C263 1.390 . S
C259 H224 0.930 . S
C259 C258 1.363 . S
C259 C260 1.372 . S
C260 H225 0.930 . S
C260 C259 1.372 . S
C260 C261 1.383 . S
C261 C260 1.383 . S
C261 C262 1.395 . S
C262 H226 0.930 . S
C262 C261 1.395 . S
C262 C263 1.362 . S
C263 H227 0.930 . S
C263 C258 1.390 . S
C263 C262 1.362 . S
C264 C253 1.492 . S
C264 C265 1.377 . S
C264 C269 1.397 . S
C265 H228 0.931 . S
C265 C264 1.377 . S
C265 C266 1.376 . S
C266 H229 0.930 . S
C266 C265 1.376 . S
C266 C267 1.376 1_565 S
C267 C266 1.376 1_545 S
C267 C268 1.378 . S
C267 C294 1.486 . S
C268 H230 0.930 . S
C268 C267 1.378 . S
C268 C269 1.376 1_545 S
C269 H231 0.929 . S
C269 C264 1.397 . S
C269 C268 1.376 1_565 S
C270 C254 1.509 . S
C270 C271 1.391 . S
C270 C275 1.386 . S
C271 H232 0.930 . S
C271 C270 1.391 . S
C271 C272 1.375 . S
C272 H233 0.931 . S
C272 C271 1.375 . S
C272 C273 1.375 . S
C273 C272 1.375 . S
C273 C274 1.361 . S
C274 H234 0.930 . S
C274 C273 1.361 . S
C274 C275 1.399 . S
C275 H235 0.929 . S
C275 C270 1.386 . S
C275 C274 1.399 . S
C276 C255 1.485 . S
C276 C277 1.394 . S
C276 C281 1.360 . S
C277 H236 0.931 . S
C277 C276 1.394 . S
C277 C278 1.372 . S
C278 H237 0.930 . S
C278 C277 1.372 . S
C278 C279 1.397 . S
C279 C278 1.397 . S
C279 C280 1.390 . S
C279 C295 1.476 . S
C280 H238 0.930 . S
C280 C279 1.390 . S
C280 C281 1.366 . S
C281 H239 0.932 . S
C281 C276 1.360 . S
C281 C280 1.366 . S
C282 C256 1.490 . S
C282 C283 1.380 . S
C282 C287 1.386 . S
C283 H240 0.930 . S
C283 C282 1.380 . S
C283 C284 1.381 . S
C284 H241 0.929 . S
C284 C283 1.381 . S
C284 C285 1.371 . S
C285 C284 1.371 . S
C285 C286 1.380 . S
C286 H242 0.931 . S
C286 C285 1.380 . S
C286 C287 1.387 . S
C287 H243 0.930 . S
C287 C282 1.386 . S
C287 C286 1.387 . S
C288 C257 1.519 . S
C288 C289 1.377 . S
C288 C293 1.361 . S
C289 H244 0.929 . S
C289 C288 1.377 . S
C289 C290 1.386 . S
C290 H245 0.931 . S
C290 C289 1.386 . S
C290 C291 1.363 . S
C291 C290 1.363 . S
C291 C292 1.385 . S
C292 H246 0.930 . S
C292 C291 1.385 . S
C292 C293 1.396 . S
C293 H247 0.929 . S
C293 C288 1.361 . S
C293 C292 1.396 . S
C294 O248 1.300 . S
C294 O249 1.209 . S
C294 C267 1.486 . S
C295 O250 1.199 . S
C295 O251 1.297 . S
C295 C279 1.476 . S
H296 O322 0.856 . S
H297 O325 0.854 . S
H298 C333 0.930 . S
H299 C334 0.930 . S
H300 C336 0.930 . S
H301 C337 0.930 . S
H302 C339 0.931 . S
H303 C340 0.930 . S
H304 C342 0.930 . S
H305 C343 0.929 . S
H306 C345 0.930 . S
H307 C346 0.931 . S
H308 C348 0.930 . S
H309 C349 0.929 . S
H310 C351 0.931 . S
H311 C352 0.930 . S
H312 C354 0.930 . S
H313 C355 0.932 . S
H314 C357 0.930 . S
H315 C358 0.929 . S
H316 C360 0.931 . S
H317 C361 0.930 . S
H318 C363 0.929 . S
H319 C364 0.931 . S
H320 C366 0.930 . S
H321 C367 0.929 . S
O322 H296 0.856 . S
O322 C368 1.297 1_545 S
O323 C368 1.197 1_545 S
O324 C369 1.199 . S
O325 H297 0.854 . S
O325 C369 1.297 . S
C326 C327 1.404 . S
C326 C331 1.397 . S
C326 C332 1.492 . S
C327 C326 1.404 . S
C327 C328 1.396 . S
C327 C338 1.492 . S
C328 C327 1.396 . S
C328 C329 1.397 . S
C328 C344 1.509 . S
C329 C328 1.397 . S
C329 C330 1.412 . S
C329 C350 1.485 . S
C330 C329 1.412 . S
C330 C331 1.388 . S
C330 C356 1.490 . S
C331 C326 1.397 . S
C331 C330 1.388 . S
C331 C362 1.519 . S
C332 C326 1.492 . S
C332 C333 1.363 . S
C332 C337 1.390 . S
C333 H298 0.930 . S
C333 C332 1.363 . S
C333 C334 1.372 . S
C334 H299 0.930 . S
C334 C333 1.372 . S
C334 C335 1.383 . S
C335 C334 1.383 . S
C335 C336 1.395 . S
C336 H300 0.930 . S
C336 C335 1.395 . S
C336 C337 1.362 . S
C337 H301 0.930 . S
C337 C332 1.390 . S
C337 C336 1.362 . S
C338 C327 1.492 . S
C338 C339 1.377 . S
C338 C343 1.397 . S
C339 H302 0.931 . S
C339 C338 1.377 . S
C339 C340 1.376 . S
C340 H303 0.930 . S
C340 C339 1.376 . S
C340 C341 1.376 . S
C341 C340 1.376 . S
C341 C342 1.378 . S
C341 C368 1.502 . S
C342 H304 0.930 . S
C342 C341 1.378 . S
C342 C343 1.376 . S
C343 H305 0.929 . S
C343 C338 1.397 . S
C343 C342 1.376 . S
C344 C328 1.509 . S
C344 C345 1.391 . S
C344 C349 1.386 . S
C345 H306 0.930 . S
C345 C344 1.391 . S
C345 C346 1.375 . S
C346 H307 0.931 . S
C346 C345 1.375 . S
C346 C347 1.375 1_565 S
C347 C346 1.375 1_545 S
C347 C348 1.361 . S
C348 H308 0.930 . S
C348 C347 1.361 . S
C348 C349 1.399 1_545 S
C349 H309 0.929 . S
C349 C344 1.386 . S
C349 C348 1.399 1_565 S
C350 C329 1.485 . S
C350 C351 1.394 . S
C350 C355 1.360 . S
C351 H310 0.931 . S
C351 C350 1.394 . S
C351 C352 1.372 . S
C352 H311 0.930 . S
C352 C351 1.372 . S
C352 C353 1.397 . S
C353 C352 1.397 . S
C353 C354 1.390 . S
C353 C369 1.476 . S
C354 H312 0.930 . S
C354 C353 1.390 . S
C354 C355 1.366 . S
C355 H313 0.932 . S
C355 C350 1.360 . S
C355 C354 1.366 . S
C356 C330 1.490 . S
C356 C357 1.380 . S
C356 C361 1.386 . S
C357 H314 0.930 . S
C357 C356 1.380 . S
C357 C358 1.381 . S
C358 H315 0.929 . S
C358 C357 1.381 . S
C358 C359 1.371 . S
C359 C358 1.371 . S
C359 C360 1.380 . S
C360 H316 0.931 . S
C360 C359 1.380 . S
C360 C361 1.387 . S
C361 H317 0.930 . S
C361 C356 1.386 . S
C361 C360 1.387 . S
C362 C331 1.519 . S
C362 C363 1.377 . S
C362 C367 1.361 . S
C363 H318 0.929 . S
C363 C362 1.377 . S
C363 C364 1.386 . S
C364 H319 0.931 . S
C364 C363 1.386 . S
C364 C365 1.363 . S
C365 C364 1.363 . S
C365 C366 1.385 . S
C366 H320 0.930 . S
C366 C365 1.385 . S
C366 C367 1.396 . S
C367 H321 0.929 . S
C367 C362 1.361 . S
C367 C366 1.396 . S
C368 O322 1.297 1_565 S
C368 O323 1.197 1_565 S
C368 C341 1.502 . S
C369 O324 1.199 . S
C369 O325 1.297 . S
C369 C353 1.476 . S
H370 O396 0.856 . S
H371 O399 0.854 . S
H372 C407 0.930 . S
H373 C408 0.930 . S
H374 C410 0.930 . S
H375 C411 0.930 . S
H376 C413 0.931 . S
H377 C414 0.930 . S
H378 C416 0.930 . S
H379 C417 0.929 . S
H380 C419 0.930 . S
H381 C420 0.931 . S
H382 C422 0.930 . S
H383 C423 0.929 . S
H384 C425 0.931 . S
H385 C426 0.930 . S
H386 C428 0.930 . S
H387 C429 0.932 . S
H388 C431 0.930 . S
H389 C432 0.929 . S
H390 C434 0.931 . S
H391 C435 0.930 . S
H392 C437 0.929 . S
H393 C438 0.931 . S
H394 C440 0.930 . S
H395 C441 0.929 . S
O396 H370 0.856 . S
O396 C442 1.300 . S
O397 C442 1.209 . S
O398 C443 1.199 . S
O399 H371 0.854 . S
O399 C443 1.297 . S
C400 C401 1.404 . S
C400 C405 1.397 . S
C400 C406 1.492 . S
C401 C400 1.404 . S
C401 C402 1.396 . S
C401 C412 1.492 . S
C402 C401 1.396 . S
C402 C403 1.397 . S
C402 C418 1.509 . S
C403 C402 1.397 . S
C403 C404 1.412 . S
C403 C424 1.485 . S
C404 C403 1.412 . S
C404 C405 1.388 . S
C404 C430 1.490 . S
C405 C400 1.397 . S
C405 C404 1.388 . S
C405 C436 1.519 . S
C406 C400 1.492 . S
C406 C407 1.363 . S
C406 C411 1.390 . S
C407 H372 0.930 . S
C407 C406 1.363 . S
C407 C408 1.372 . S
C408 H373 0.930 . S
C408 C407 1.372 . S
C408 C409 1.383 . S
C409 C408 1.383 . S
C409 C410 1.395 . S
C410 H374 0.930 . S
C410 C409 1.395 . S
C410 C411 1.362 . S
C411 H375 0.930 . S
C411 C406 1.390 . S
C411 C410 1.362 . S
C412 C401 1.492 . S
C412 C413 1.377 . S
C412 C417 1.397 . S
C413 H376 0.931 . S
C413 C412 1.377 . S
C413 C414 1.376 . S
C414 H377 0.930 . S
C414 C413 1.376 . S
C414 C415 1.376 . S
C415 C414 1.376 . S
C415 C416 1.378 . S
C415 C442 1.486 . S
C416 H378 0.930 . S
C416 C415 1.378 . S
C416 C417 1.376 . S
C417 H379 0.929 . S
C417 C412 1.397 . S
C417 C416 1.376 . S
C418 C402 1.509 . S
C418 C419 1.391 . S
C418 C423 1.386 . S
C419 H380 0.930 . S
C419 C418 1.391 . S
C419 C420 1.375 . S
C420 H381 0.931 . S
C420 C419 1.375 . S
C420 C421 1.375 . S
C421 C420 1.375 . S
C421 C422 1.361 . S
C422 H382 0.930 . S
C422 C421 1.361 . S
C422 C423 1.399 . S
C423 H383 0.929 . S
C423 C418 1.386 . S
C423 C422 1.399 . S
C424 C403 1.485 . S
C424 C425 1.394 . S
C424 C429 1.360 . S
C425 H384 0.931 . S
C425 C424 1.394 . S
C425 C426 1.372 . S
C426 H385 0.930 . S
C426 C425 1.372 . S
C426 C427 1.397 . S
C427 C426 1.397 . S
C427 C428 1.390 . S
C427 C443 1.476 . S
C428 H386 0.930 . S
C428 C427 1.390 . S
C428 C429 1.366 . S
C429 H387 0.932 . S
C429 C424 1.360 . S
C429 C428 1.366 . S
C430 C404 1.490 . S
C430 C431 1.380 . S
C430 C435 1.386 . S
C431 H388 0.930 . S
C431 C430 1.380 . S
C431 C432 1.381 . S
C432 H389 0.929 . S
C432 C431 1.381 . S
C432 C433 1.371 . S
C433 C432 1.371 . S
C433 C434 1.380 . S
C434 H390 0.931 . S
C434 C433 1.380 . S
C434 C435 1.387 . S
C435 H391 0.930 . S
C435 C430 1.386 . S
C435 C434 1.387 . S
C436 C405 1.519 . S
C436 C437 1.377 . S
C436 C441 1.361 . S
C437 H392 0.929 . S
C437 C436 1.377 . S
C437 C438 1.386 . S
C438 H393 0.931 . S
C438 C437 1.386 . S
C438 C439 1.363 . S
C439 C438 1.363 . S
C439 C440 1.385 . S
C440 H394 0.930 . S
C440 C439 1.385 . S
C440 C441 1.396 . S
C441 H395 0.929 . S
C441 C436 1.361 . S
C441 C440 1.396 . S
C442 O396 1.300 . S
C442 O397 1.209 . S
C442 C415 1.486 . S
C443 O398 1.199 . S
C443 O399 1.297 . S
C443 C427 1.476 . S
H444 O470 0.856 . S
H445 O473 0.854 . S
H446 C481 0.930 . S
H447 C482 0.930 . S
H448 C484 0.930 . S
H449 C485 0.930 . S
H450 C487 0.931 . S
H451 C488 0.930 . S
H452 C490 0.930 . S
H453 C491 0.929 . S
H454 C493 0.930 . S
H455 C494 0.931 . S
H456 C496 0.930 . S
H457 C497 0.929 . S
H458 C499 0.931 . S
H459 C500 0.930 . S
H460 C502 0.930 . S
H461 C503 0.932 . S
H462 C505 0.930 . S
H463 C506 0.929 . S
H464 C508 0.931 . S
H465 C509 0.930 . S
H466 C511 0.929 . S
H467 C512 0.931 . S
H468 C514 0.930 . S
H469 C515 0.929 . S
O470 H444 0.856 . S
O470 C516 1.300 . S
O471 C516 1.209 . S
O472 C517 1.199 . S
O473 H445 0.854 . S
O473 C517 1.297 . S
C474 C475 1.404 . S
C474 C479 1.397 . S
C474 C480 1.492 . S
C475 C474 1.404 . S
C475 C476 1.396 . S
C475 C486 1.492 . S
C476 C475 1.396 . S
C476 C477 1.397 . S
C476 C492 1.509 . S
C477 C476 1.397 . S
C477 C478 1.412 . S
C477 C498 1.485 . S
C478 C477 1.412 . S
C478 C479 1.388 . S
C478 C504 1.490 . S
C479 C474 1.397 . S
C479 C478 1.388 . S
C479 C510 1.519 . S
C480 C474 1.492 . S
C480 C481 1.363 . S
C480 C485 1.390 . S
C481 H446 0.930 . S
C481 C480 1.363 . S
C481 C482 1.372 . S
C482 H447 0.930 . S
C482 C481 1.372 . S
C482 C483 1.383 . S
C483 C482 1.383 . S
C483 C484 1.395 . S
C484 H448 0.930 . S
C484 C483 1.395 . S
C484 C485 1.362 . S
C485 H449 0.930 . S
C485 C480 1.390 . S
C485 C484 1.362 . S
C486 C475 1.492 . S
C486 C487 1.377 . S
C486 C491 1.397 . S
C487 H450 0.931 . S
C487 C486 1.377 . S
C487 C488 1.376 . S
C488 H451 0.930 . S
C488 C487 1.376 . S
C488 C489 1.376 . S
C489 C488 1.376 . S
C489 C490 1.378 . S
C489 C516 1.486 . S
C490 H452 0.930 . S
C490 C489 1.378 . S
C490 C491 1.376 . S
C491 H453 0.929 . S
C491 C486 1.397 . S
C491 C490 1.376 . S
C492 C476 1.509 . S
C492 C493 1.391 . S
C492 C497 1.386 . S
C493 H454 0.930 . S
C493 C492 1.391 . S
C493 C494 1.375 . S
C494 H455 0.931 . S
C494 C493 1.375 . S
C494 C495 1.375 . S
C495 C494 1.375 . S
C495 C496 1.361 . S
C496 H456 0.930 . S
C496 C495 1.361 . S
C496 C497 1.399 . S
C497 H457 0.929 . S
C497 C492 1.386 . S
C497 C496 1.399 . S
C498 C477 1.485 . S
C498 C499 1.394 . S
C498 C503 1.360 . S
C499 H458 0.931 . S
C499 C498 1.394 . S
C499 C500 1.372 . S
C500 H459 0.930 . S
C500 C499 1.372 . S
C500 C501 1.397 . S
C501 C500 1.397 . S
C501 C502 1.390 . S
C501 C517 1.476 . S
C502 H460 0.930 . S
C502 C501 1.390 . S
C502 C503 1.366 . S
C503 H461 0.932 . S
C503 C498 1.360 . S
C503 C502 1.366 . S
C504 C478 1.490 . S
C504 C505 1.380 . S
C504 C509 1.386 . S
C505 H462 0.930 . S
C505 C504 1.380 . S
C505 C506 1.381 . S
C506 H463 0.929 . S
C506 C505 1.381 . S
C506 C507 1.371 . S
C507 C506 1.371 . S
C507 C508 1.380 . S
C508 H464 0.931 . S
C508 C507 1.380 . S
C508 C509 1.387 . S
C509 H465 0.930 . S
C509 C504 1.386 . S
C509 C508 1.387 . S
C510 C479 1.519 . S
C510 C511 1.377 . S
C510 C515 1.361 . S
C511 H466 0.929 . S
C511 C510 1.377 . S
C511 C512 1.386 . S
C512 H467 0.931 . S
C512 C511 1.386 . S
C512 C513 1.363 . S
C513 C512 1.363 . S
C513 C514 1.385 . S
C514 H468 0.930 . S
C514 C513 1.385 . S
C514 C515 1.396 . S
C515 H469 0.929 . S
C515 C510 1.361 . S
C515 C514 1.396 . S
C516 O470 1.300 . S
C516 O471 1.209 . S
C516 C489 1.486 . S
C517 O472 1.199 . S
C517 O473 1.297 . S
C517 C501 1.476 . S
H518 O544 0.856 . S
H519 O547 0.854 . S
H520 C555 0.930 . S
H521 C556 0.930 . S
H522 C558 0.930 . S
H523 C559 0.930 . S
H524 C561 0.931 . S
H525 C562 0.930 . S
H526 C564 0.930 . S
H527 C565 0.929 . S
H528 C567 0.930 . S
H529 C568 0.931 . S
H530 C570 0.930 . S
H531 C571 0.929 . S
H532 C573 0.931 . S
H533 C574 0.930 . S
H534 C576 0.930 . S
H535 C577 0.932 . S
H536 C579 0.930 . S
H537 C580 0.929 . S
H538 C582 0.931 . S
H539 C583 0.930 . S
H540 C585 0.929 . S
H541 C586 0.931 . S
H542 C588 0.930 . S
H543 C589 0.929 . S
O544 H518 0.856 . S
O544 C590 1.300 . S
O545 C590 1.209 . S
O546 C591 1.199 . S
O547 H519 0.854 . S
O547 C591 1.297 . S
C548 C549 1.404 . S
C548 C553 1.397 . S
C548 C554 1.492 . S
C549 C548 1.404 . S
C549 C550 1.396 . S
C549 C560 1.492 . S
C550 C549 1.396 . S
C550 C551 1.397 . S
C550 C566 1.509 . S
C551 C550 1.397 . S
C551 C552 1.412 . S
C551 C572 1.485 . S
C552 C551 1.412 . S
C552 C553 1.388 . S
C552 C578 1.490 . S
C553 C548 1.397 . S
C553 C552 1.388 . S
C553 C584 1.519 . S
C554 C548 1.492 . S
C554 C555 1.363 . S
C554 C559 1.390 . S
C555 H520 0.930 . S
C555 C554 1.363 . S
C555 C556 1.372 . S
C556 H521 0.930 . S
C556 C555 1.372 . S
C556 C557 1.383 . S
C557 C556 1.383 . S
C557 C558 1.395 . S
C558 H522 0.930 . S
C558 C557 1.395 . S
C558 C559 1.362 . S
C559 H523 0.930 . S
C559 C554 1.390 . S
C559 C558 1.362 . S
C560 C549 1.492 . S
C560 C561 1.377 . S
C560 C565 1.397 . S
C561 H524 0.931 . S
C561 C560 1.377 . S
C561 C562 1.376 . S
C562 H525 0.930 . S
C562 C561 1.376 . S
C562 C563 1.376 . S
C563 C562 1.376 . S
C563 C564 1.378 . S
C563 C590 1.486 . S
C564 H526 0.930 . S
C564 C563 1.378 . S
C564 C565 1.376 . S
C565 H527 0.929 . S
C565 C560 1.397 . S
C565 C564 1.376 . S
C566 C550 1.509 . S
C566 C567 1.391 . S
C566 C571 1.386 . S
C567 H528 0.930 . S
C567 C566 1.391 . S
C567 C568 1.375 . S
C568 H529 0.931 . S
C568 C567 1.375 . S
C568 C569 1.375 . S
C569 C568 1.375 . S
C569 C570 1.361 . S
C570 H530 0.930 . S
C570 C569 1.361 . S
C570 C571 1.399 . S
C571 H531 0.929 . S
C571 C566 1.386 . S
C571 C570 1.399 . S
C572 C551 1.485 . S
C572 C573 1.394 . S
C572 C577 1.360 . S
C573 H532 0.931 . S
C573 C572 1.394 . S
C573 C574 1.372 . S
C574 H533 0.930 . S
C574 C573 1.372 . S
C574 C575 1.397 . S
C575 C574 1.397 . S
C575 C576 1.390 . S
C575 C591 1.476 . S
C576 H534 0.930 . S
C576 C575 1.390 . S
C576 C577 1.366 . S
C577 H535 0.932 . S
C577 C572 1.360 . S
C577 C576 1.366 . S
C578 C552 1.490 . S
C578 C579 1.380 . S
C578 C583 1.386 . S
C579 H536 0.930 . S
C579 C578 1.380 . S
C579 C580 1.381 . S
C580 H537 0.929 . S
C580 C579 1.381 . S
C580 C581 1.371 . S
C581 C580 1.371 . S
C581 C582 1.380 . S
C582 H538 0.931 . S
C582 C581 1.380 . S
C582 C583 1.387 . S
C583 H539 0.930 . S
C583 C578 1.386 . S
C583 C582 1.387 . S
C584 C553 1.519 . S
C584 C585 1.377 . S
C584 C589 1.361 . S
C585 H540 0.929 . S
C585 C584 1.377 . S
C585 C586 1.386 . S
C586 H541 0.931 . S
C586 C585 1.386 . S
C586 C587 1.363 . S
C587 C586 1.363 . S
C587 C588 1.385 . S
C588 H542 0.930 . S
C588 C587 1.385 . S
C588 C589 1.396 . S
C589 H543 0.929 . S
C589 C584 1.361 . S
C589 C588 1.396 . S
C590 O544 1.300 . S
C590 O545 1.209 . S
C590 C563 1.486 . S
C591 O546 1.199 . S
C591 O547 1.297 . S
C591 C575 1.476 . S
C592 O594 1.247 . S
C592 O596 1.258 . S
C593 O600 1.247 . S
C593 O601 1.258 . S
O594 C592 1.247 . S
O594 Zn595 2.028 . S
Zn595 O594 2.028 . S
Zn595 O599 2.035 1_655 S
Zn595 O601 2.035 1_655 S
Zn595 O602 2.028 . S
O596 C592 1.258 . S
O596 Zn597 2.035 1_655 S
Zn597 O596 2.035 1_455 S
Zn597 O598 2.028 . S
Zn597 O600 2.028 . S
Zn597 O603 2.035 1_455 S
O598 Zn597 2.028 . S
O598 C604 1.247 . S
O599 Zn595 2.035 1_455 S
O599 C604 1.258 . S
O600 C593 1.247 . S
O600 Zn597 2.028 . S
O601 C593 1.258 . S
O601 Zn595 2.035 1_455 S
O602 Zn595 2.028 . S
O602 C605 1.247 . S
O603 Zn597 2.035 1_655 S
O603 C605 1.258 . S
C604 O598 1.247 . S
C604 O599 1.258 . S
C605 O602 1.247 . S
C605 O603 1.258 . S
C606 O608 1.247 . S
C606 O610 1.258 . S
C607 O614 1.247 . S
C607 O615 1.258 . S
O608 C606 1.247 . S
O608 Zn609 2.028 . S
Zn609 O608 2.028 . S
Zn609 O613 2.035 1_545 S
Zn609 O615 2.035 1_545 S
Zn609 O616 2.028 . S
O610 C606 1.258 . S
O610 Zn611 2.035 . S
Zn611 O610 2.035 . S
Zn611 O612 2.028 1_545 S
Zn611 O614 2.028 1_545 S
Zn611 O617 2.035 . S
O612 Zn611 2.028 1_565 S
O612 C618 1.247 . S
O613 Zn609 2.035 1_565 S
O613 C618 1.258 . S
O614 C607 1.247 . S
O614 Zn611 2.028 1_565 S
O615 C607 1.258 . S
O615 Zn609 2.035 1_565 S
O616 Zn609 2.028 . S
O616 C619 1.247 . S
O617 Zn611 2.035 . S
O617 C619 1.258 . S
C618 O612 1.247 . S
C618 O613 1.258 . S
C619 O616 1.247 . S
C619 O617 1.258 . S
C620 O622 1.247 . S
C620 O624 1.258 . S
C621 O628 1.247 . S
C621 O629 1.258 . S
O622 C620 1.247 . S
O622 Zn623 2.028 . S
Zn623 O622 2.028 . S
Zn623 O627 2.035 . S
Zn623 O629 2.035 . S
Zn623 O630 2.028 . S
O624 C620 1.258 . S
O624 Zn625 2.035 . S
Zn625 O624 2.035 . S
Zn625 O626 2.028 . S
Zn625 O628 2.028 . S
Zn625 O631 2.035 . S
O626 Zn625 2.028 . S
O626 C632 1.247 . S
O627 Zn623 2.035 . S
O627 C632 1.258 . S
O628 C621 1.247 . S
O628 Zn625 2.028 . S
O629 C621 1.258 . S
O629 Zn623 2.035 . S
O630 Zn623 2.028 . S
O630 C633 1.247 . S
O631 Zn625 2.035 . S
O631 C633 1.258 . S
C632 O626 1.247 . S
C632 O627 1.258 . S
C633 O630 1.247 . S
C633 O631 1.258 . S
C634 O636 1.247 . S
C634 O638 1.258 . S
C635 O642 1.247 . S
C635 O643 1.258 . S
O636 C634 1.247 . S
O636 Zn637 2.028 . S
Zn637 O636 2.028 . S
Zn637 O641 2.035 . S
Zn637 O643 2.035 . S
Zn637 O644 2.028 . S
O638 C634 1.258 . S
O638 Zn639 2.035 . S
Zn639 O638 2.035 . S
Zn639 O640 2.028 . S
Zn639 O642 2.028 . S
Zn639 O645 2.035 . S
O640 Zn639 2.028 . S
O640 C646 1.247 . S
O641 Zn637 2.035 . S
O641 C646 1.258 . S
O642 C635 1.247 . S
O642 Zn639 2.028 . S
O643 C635 1.258 . S
O643 Zn637 2.035 . S
O644 Zn637 2.028 . S
O644 C647 1.247 . S
O645 Zn639 2.035 . S
O645 C647 1.258 . S
C646 O640 1.247 . S
C646 O641 1.258 . S
C647 O644 1.247 . S
C647 O645 1.258 . S
C648 O650 1.247 . S
C648 O652 1.258 . S
C649 O656 1.247 . S
C649 O657 1.258 . S
O650 C648 1.247 . S
O650 Zn651 2.028 . S
Zn651 O650 2.028 . S
Zn651 O655 2.035 . S
Zn651 O657 2.035 1_554 S
Zn651 O658 2.028 1_554 S
O652 C648 1.258 . S
O652 Zn653 2.035 . S
Zn653 O652 2.035 . S
Zn653 O654 2.028 . S
Zn653 O656 2.028 1_554 S
Zn653 O659 2.035 1_554 S
O654 Zn653 2.028 . S
O654 C660 1.247 . S
O655 Zn651 2.035 . S
O655 C660 1.258 . S
O656 C649 1.247 . S
O656 Zn653 2.028 1_556 S
O657 C649 1.258 . S
O657 Zn651 2.035 1_556 S
O658 Zn651 2.028 1_556 S
O658 C661 1.247 . S
O659 Zn653 2.035 1_556 S
O659 C661 1.258 . S
C660 O654 1.247 . S
C660 O655 1.258 . S
C661 O658 1.247 . S
C661 O659 1.258 . S
C662 O664 1.247 . S
C662 O666 1.258 . S
C663 O670 1.247 . S
C663 O671 1.258 . S
O664 C662 1.247 . S
O664 Zn665 2.028 . S
Zn665 O664 2.028 . S
Zn665 O669 2.035 . S
Zn665 O671 2.035 1_554 S
Zn665 O672 2.028 1_554 S
O666 C662 1.258 . S
O666 Zn667 2.035 . S
Zn667 O666 2.035 . S
Zn667 O668 2.028 . S
Zn667 O670 2.028 1_554 S
Zn667 O673 2.035 1_554 S
O668 Zn667 2.028 . S
O668 C674 1.247 . S
O669 Zn665 2.035 . S
O669 C674 1.258 . S
O670 C663 1.247 . S
O670 Zn667 2.028 1_556 S
O671 C663 1.258 . S
O671 Zn665 2.035 1_556 S
O672 Zn665 2.028 1_556 S
O672 C675 1.247 . S
O673 Zn667 2.035 1_556 S
O673 C675 1.258 . S
C674 O668 1.247 . S
C674 O669 1.258 . S
C675 O672 1.247 . S
C675 O673 1.258 . S
C676 O678 1.248 . S
C676 O680 1.259 . S
C677 O684 1.247 . S
C677 O685 1.258 . S
O678 C676 1.248 . S
O678 Zn679 2.028 . S
Zn679 O678 2.028 . S
Zn679 O683 2.035 . S
Zn679 O685 2.035 . S
Zn679 O686 2.028 . S
O680 C676 1.259 . S
O680 Zn681 2.035 . S
Zn681 O680 2.035 . S
Zn681 O682 2.028 1_554 S
Zn681 O684 2.028 . S
Zn681 O687 2.035 . S
O682 Zn681 2.028 1_556 S
O682 C688 1.247 . S
O683 Zn679 2.035 . S
O683 C688 1.258 1_554 S
O684 C677 1.247 . S
O684 Zn681 2.028 . S
O685 C677 1.258 . S
O685 Zn679 2.035 . S
O686 Zn679 2.028 . S
O686 C689 1.247 . S
O687 Zn681 2.035 . S
O687 C689 1.258 . S
C688 O682 1.247 . S
C688 O683 1.258 1_556 S
C689 O686 1.247 . S
C689 O687 1.258 . S
C690 O692 1.247 . S
C690 O694 1.258 . S
C691 O698 1.247 . S
C691 O699 1.258 . S
O692 C690 1.247 . S
O692 Zn693 2.028 . S
Zn693 O692 2.028 . S
Zn693 O697 2.035 . S
Zn693 O699 2.035 . S
Zn693 O700 2.028 . S
O694 C690 1.258 . S
O694 Zn695 2.035 . S
Zn695 O694 2.035 . S
Zn695 O696 2.028 . S
Zn695 O698 2.028 . S
Zn695 O701 2.035 . S
O696 Zn695 2.028 . S
O696 C702 1.247 . S
O697 Zn693 2.035 . S
O697 C702 1.258 . S
O698 C691 1.247 . S
O698 Zn695 2.028 . S
O699 C691 1.258 . S
O699 Zn693 2.035 . S
O700 Zn693 2.028 . S
O700 C703 1.247 . S
O701 Zn695 2.035 . S
O701 C703 1.258 . S
C702 O696 1.247 . S
C702 O697 1.258 . S
C703 O700 1.247 . S
C703 O701 1.258 . S
H704 C710 0.930 . S
H705 C714 0.930 . S
H706 C719 0.929 . S
H707 C717 0.929 . S
H708 C712 0.929 . S
H709 C718 0.929 . S
C710 H704 0.930 . S
C710 C711 1.367 . S
C710 C718 1.378 . S
C711 C710 1.367 . S
C711 C719 1.433 . S
C712 H708 0.929 . S
C712 C714 1.378 . S
C712 C716 1.350 . S
C713 C716 1.463 . S
C713 C718 1.350 . S
C713 N721 1.427 . S
C714 H705 0.930 . S
C714 C712 1.378 . S
C714 C715 1.367 . S
C715 C714 1.367 . S
C715 C717 1.433 . S
C716 C712 1.350 . S
C716 C713 1.463 . S
C716 N720 1.427 . S
C717 H707 0.929 . S
C717 C715 1.433 . S
C717 N720 1.384 . S
C718 H709 0.929 . S
C718 C710 1.378 . S
C718 C713 1.350 . S
C719 H706 0.929 . S
C719 C711 1.433 . S
C719 N721 1.384 . S
N720 C716 1.427 . S
N720 C717 1.384 . S
N721 C713 1.427 . S
N721 C719 1.384 . S
H722 C728 0.930 . S
H723 C732 0.930 . S
H724 C737 0.929 . S
H725 C735 0.929 . S
H726 C730 0.929 . S
H727 C736 0.929 . S
C728 H722 0.930 . S
C728 C729 1.367 . S
C728 C736 1.378 . S
C729 C728 1.367 . S
C729 C737 1.433 . S
C730 H726 0.929 . S
C730 C732 1.378 . S
C730 C734 1.350 . S
C731 C734 1.463 . S
C731 C736 1.350 . S
C731 N739 1.427 . S
C732 H723 0.930 . S
C732 C730 1.378 . S
C732 C733 1.367 . S
C733 C732 1.367 . S
C733 C735 1.433 . S
C734 C730 1.350 . S
C734 C731 1.463 . S
C734 N738 1.427 . S
C735 H725 0.929 . S
C735 C733 1.433 . S
C735 N738 1.384 . S
C736 H727 0.929 . S
C736 C728 1.378 . S
C736 C731 1.350 . S
C737 H724 0.929 . S
C737 C729 1.433 . S
C737 N739 1.384 . S
N738 C734 1.427 . S
N738 C735 1.384 . S
N739 C731 1.427 . S
N739 C737 1.384 . S
H740 C746 0.930 . S
H741 C750 0.930 . S
H742 C755 0.929 . S
H743 C753 0.929 . S
H744 C748 0.929 . S
H745 C754 0.929 . S
C746 H740 0.930 . S
C746 C747 1.367 . S
C746 C754 1.378 . S
C747 C746 1.367 . S
C747 C755 1.433 . S
C748 H744 0.929 . S
C748 C750 1.378 . S
C748 C752 1.350 . S
C749 C752 1.463 . S
C749 C754 1.350 . S
C749 N757 1.427 . S
C750 H741 0.930 . S
C750 C748 1.378 . S
C750 C751 1.367 . S
C751 C750 1.367 . S
C751 C753 1.433 . S
C752 C748 1.350 . S
C752 C749 1.463 . S
C752 N756 1.427 . S
C753 H743 0.929 . S
C753 C751 1.433 . S
C753 N756 1.384 . S
C754 H745 0.929 . S
C754 C746 1.378 . S
C754 C749 1.350 . S
C755 H742 0.929 . S
C755 C747 1.433 . S
C755 N757 1.384 . S
N756 C752 1.427 . S
N756 C753 1.384 . S
N757 C749 1.427 . S
N757 C755 1.384 . S
H758 C764 0.930 . S
H759 C768 0.930 . S
H760 C773 0.929 . S
H761 C771 0.929 . S
H762 C766 0.929 . S
H763 C772 0.929 . S
C764 H758 0.930 . S
C764 C765 1.367 . S
C764 C772 1.378 1_565 S
C765 C764 1.367 . S
C765 C773 1.433 1_565 S
C766 H762 0.929 . S
C766 C768 1.378 . S
C766 C770 1.350 . S
C767 C770 1.463 . S
C767 C772 1.350 . S
C767 N775 1.427 . S
C768 H759 0.930 . S
C768 C766 1.378 . S
C768 C769 1.367 . S
C769 C768 1.367 . S
C769 C771 1.433 . S
C770 C766 1.350 . S
C770 C767 1.463 . S
C770 N774 1.427 . S
C771 H761 0.929 . S
C771 C769 1.433 . S
C771 N774 1.384 . S
C772 H763 0.929 . S
C772 C764 1.378 1_545 S
C772 C767 1.350 . S
C773 H760 0.929 . S
C773 C765 1.433 1_545 S
C773 N775 1.384 . S
N774 C770 1.427 . S
N774 C771 1.384 . S
N775 C767 1.427 . S
N775 C773 1.384 . S
H776 C782 0.930 . S
H777 C786 0.930 . S
H778 C791 0.929 . S
H779 C789 0.929 . S
H780 C784 0.929 . S
H781 C790 0.929 . S
C782 H776 0.930 . S
C782 C783 1.367 . S
C782 C790 1.378 . S
C783 C782 1.367 . S
C783 C791 1.433 . S
C784 H780 0.929 . S
C784 C786 1.378 . S
C784 C788 1.350 . S
C785 C788 1.463 . S
C785 C790 1.350 . S
C785 N793 1.427 . S
C786 H777 0.930 . S
C786 C784 1.378 . S
C786 C787 1.367 . S
C787 C786 1.367 . S
C787 C789 1.433 . S
C788 C784 1.350 . S
C788 C785 1.463 . S
C788 N792 1.427 . S
C789 H779 0.929 . S
C789 C787 1.433 . S
C789 N792 1.384 . S
C790 H781 0.929 . S
C790 C782 1.378 . S
C790 C785 1.350 . S
C791 H778 0.929 . S
C791 C783 1.433 . S
C791 N793 1.384 . S
N792 C788 1.427 . S
N792 C789 1.384 . S
N793 C785 1.427 . S
N793 C791 1.384 . S
H794 C800 0.930 . S
H795 C804 0.930 . S
H796 C809 0.929 . S
H797 C807 0.929 . S
H798 C802 0.929 . S
H799 C808 0.929 . S
C800 H794 0.930 . S
C800 C801 1.367 . S
C800 C808 1.378 . S
C801 C800 1.367 . S
C801 C809 1.433 . S
C802 H798 0.929 . S
C802 C804 1.378 . S
C802 C806 1.350 . S
C803 C806 1.463 . S
C803 C808 1.350 . S
C803 N811 1.427 . S
C804 H795 0.930 . S
C804 C802 1.378 . S
C804 C805 1.367 . S
C805 C804 1.367 . S
C805 C807 1.433 . S
C806 C802 1.350 . S
C806 C803 1.463 . S
C806 N810 1.427 . S
C807 H797 0.929 . S
C807 C805 1.433 . S
C807 N810 1.384 . S
C808 H799 0.929 . S
C808 C800 1.378 . S
C808 C803 1.350 . S
C809 H796 0.929 . S
C809 C801 1.433 . S
C809 N811 1.384 . S
N810 C806 1.427 . S
N810 C807 1.384 . S
N811 C803 1.427 . S
N811 C809 1.384 . S
H812 C818 0.930 . S
H813 C822 0.930 . S
H814 C827 0.929 . S
H815 C825 0.929 . S
H816 C820 0.929 . S
H817 C826 0.929 . S
C818 H812 0.930 . S
C818 C819 1.367 . S
C818 C826 1.378 . S
C819 C818 1.367 . S
C819 C827 1.433 . S
C820 H816 0.929 . S
C820 C822 1.378 . S
C820 C824 1.350 . S
C821 C824 1.463 . S
C821 C826 1.350 . S
C821 N829 1.427 . S
C822 H813 0.930 . S
C822 C820 1.378 . S
C822 C823 1.367 . S
C823 C822 1.367 . S
C823 C825 1.433 . S
C824 C820 1.350 . S
C824 C821 1.463 . S
C824 N828 1.427 . S
C825 H815 0.929 . S
C825 C823 1.433 . S
C825 N828 1.384 . S
C826 H817 0.929 . S
C826 C818 1.378 . S
C826 C821 1.350 . S
C827 H814 0.929 . S
C827 C819 1.433 . S
C827 N829 1.384 . S
N828 C824 1.427 . S
N828 C825 1.384 . S
N829 C821 1.427 . S
N829 C827 1.384 . S
H830 C836 0.930 . S
H831 C840 0.930 . S
H832 C845 0.929 . S
H833 C843 0.929 . S
H834 C838 0.929 . S
H835 C844 0.929 . S
C836 H830 0.930 . S
C836 C837 1.367 . S
C836 C844 1.378 . S
C837 C836 1.367 . S
C837 C845 1.433 . S
C838 H834 0.929 . S
C838 C840 1.378 . S
C838 C842 1.350 . S
C839 C842 1.463 . S
C839 C844 1.350 . S
C839 N847 1.427 . S
C840 H831 0.930 . S
C840 C838 1.378 . S
C840 C841 1.367 . S
C841 C840 1.367 . S
C841 C843 1.433 . S
C842 C838 1.350 . S
C842 C839 1.463 . S
C842 N846 1.427 . S
C843 H833 0.929 . S
C843 C841 1.433 . S
C843 N846 1.384 . S
C844 H835 0.929 . S
C844 C836 1.378 . S
C844 C839 1.350 . S
C845 H832 0.929 . S
C845 C837 1.433 . S
C845 N847 1.384 . S
N846 C842 1.427 . S
N846 C843 1.384 . S
N847 C839 1.427 . S
N847 C845 1.384 . S
H848 C854 0.930 . S
H849 C858 0.930 1_455 S
H850 C863 0.929 . S
H851 C861 0.929 . S
H852 C856 0.929 . S
H853 C862 0.929 . S
C854 H848 0.930 . S
C854 C855 1.367 . S
C854 C862 1.378 . S
C855 C854 1.367 . S
C855 C863 1.433 . S
C856 H852 0.929 . S
C856 C858 1.378 . S
C856 C860 1.350 . S
C857 C860 1.463 . S
C857 C862 1.350 . S
C857 N865 1.427 . S
C858 H849 0.930 1_655 S
C858 C856 1.378 . S
C858 C859 1.367 . S
C859 C858 1.367 . S
C859 C861 1.433 . S
C860 C856 1.350 . S
C860 C857 1.463 . S
C860 N864 1.427 . S
C861 H851 0.929 . S
C861 C859 1.433 . S
C861 N864 1.384 . S
C862 H853 0.929 . S
C862 C854 1.378 . S
C862 C857 1.350 . S
C863 H850 0.929 . S
C863 C855 1.433 . S
C863 N865 1.384 . S
N864 C860 1.427 . S
N864 C861 1.384 . S
N865 C857 1.427 . S
N865 C863 1.384 . S
H866 C872 0.930 . S
H867 C876 0.930 . S
H868 C881 0.929 . S
H869 C879 0.929 . S
H870 C874 0.929 . S
H871 C880 0.929 . S
C872 H866 0.930 . S
C872 C873 1.367 . S
C872 C880 1.378 . S
C873 C872 1.367 . S
C873 C881 1.433 . S
C874 H870 0.929 . S
C874 C876 1.378 . S
C874 C878 1.350 . S
C875 C878 1.463 . S
C875 C880 1.350 . S
C875 N883 1.427 . S
C876 H867 0.930 . S
C876 C874 1.378 . S
C876 C877 1.367 . S
C877 C876 1.367 . S
C877 C879 1.433 . S
C878 C874 1.350 . S
C878 C875 1.463 . S
C878 N882 1.427 . S
C879 H869 0.929 . S
C879 C877 1.433 . S
C879 N882 1.384 . S
C880 H871 0.929 . S
C880 C872 1.378 . S
C880 C875 1.350 . S
C881 H868 0.929 . S
C881 C873 1.433 . S
C881 N883 1.384 . S
N882 C878 1.427 . S
N882 C879 1.384 . S
N883 C875 1.427 . S
N883 C881 1.384 . S
H884 C890 0.930 . S
H885 C894 0.930 . S
H886 C899 0.929 . S
H887 C897 0.929 . S
H888 C892 0.929 . S
H889 C898 0.929 . S
C890 H884 0.930 . S
C890 C891 1.367 . S
C890 C898 1.378 . S
C891 C890 1.367 . S
C891 C899 1.433 . S
C892 H888 0.929 . S
C892 C894 1.378 . S
C892 C896 1.350 . S
C893 C896 1.463 . S
C893 C898 1.350 . S
C893 N901 1.427 . S
C894 H885 0.930 . S
C894 C892 1.378 . S
C894 C895 1.367 . S
C895 C894 1.367 . S
C895 C897 1.433 . S
C896 C892 1.350 . S
C896 C893 1.463 . S
C896 N900 1.427 . S
C897 H887 0.929 . S
C897 C895 1.433 . S
C897 N900 1.384 . S
C898 H889 0.929 . S
C898 C890 1.378 . S
C898 C893 1.350 . S
C899 H886 0.929 . S
C899 C891 1.433 . S
C899 N901 1.384 . S
N900 C896 1.427 . S
N900 C897 1.384 . S
N901 C893 1.427 . S
N901 C899 1.384 . S
H902 C908 0.930 . S
H903 C912 0.930 . S
H904 C917 0.929 . S
H905 C915 0.929 . S
H906 C910 0.929 . S
H907 C916 0.929 . S
C908 H902 0.930 . S
C908 C909 1.367 . S
C908 C916 1.378 . S
C909 C908 1.367 . S
C909 C917 1.433 . S
C910 H906 0.929 . S
C910 C912 1.378 . S
C910 C914 1.350 . S
C911 C914 1.463 . S
C911 C916 1.350 . S
C911 N919 1.427 . S
C912 H903 0.930 . S
C912 C910 1.378 . S
C912 C913 1.367 . S
C913 C912 1.367 . S
C913 C915 1.433 . S
C914 C910 1.350 . S
C914 C911 1.463 . S
C914 N918 1.427 . S
C915 H905 0.929 . S
C915 C913 1.433 . S
C915 N918 1.384 . S
C916 H907 0.929 . S
C916 C908 1.378 . S
C916 C911 1.350 . S
C917 H904 0.929 . S
C917 C909 1.433 . S
C917 N919 1.384 . S
N918 C914 1.427 . S
N918 C915 1.384 . S
N919 C911 1.427 . S
N919 C917 1.384 . S
H920 C926 0.930 . S
H921 C930 0.930 . S
H922 C935 0.929 . S
H923 C933 0.929 . S
H924 C928 0.929 . S
H925 C934 0.929 . S
C926 H920 0.930 . S
C926 C927 1.367 . S
C926 C934 1.378 . S
C927 C926 1.367 . S
C927 C935 1.433 . S
C928 H924 0.929 . S
C928 C930 1.378 . S
C928 C932 1.350 . S
C929 C932 1.463 . S
C929 C934 1.350 . S
C929 N937 1.427 . S
C930 H921 0.930 . S
C930 C928 1.378 . S
C930 C931 1.367 . S
C931 C930 1.367 . S
C931 C933 1.433 . S
C932 C928 1.350 . S
C932 C929 1.463 . S
C932 N936 1.427 . S
C933 H923 0.929 . S
C933 C931 1.433 . S
C933 N936 1.384 . S
C934 H925 0.929 . S
C934 C926 1.378 . S
C934 C929 1.350 . S
C935 H922 0.929 . S
C935 C927 1.433 . S
C935 N937 1.384 . S
N936 C932 1.427 . S
N936 C933 1.384 . S
N937 C929 1.427 . S
N937 C935 1.384 . S
H938 C944 0.930 . S
H939 C948 0.930 . S
H940 C953 0.929 . S
H941 C951 0.929 . S
H942 C946 0.929 . S
H943 C952 0.929 . S
C944 H938 0.930 . S
C944 C945 1.367 . S
C944 C952 1.378 . S
C945 C944 1.367 . S
C945 C953 1.433 . S
C946 H942 0.929 . S
C946 C948 1.378 . S
C946 C950 1.350 . S
C947 C950 1.463 . S
C947 C952 1.350 . S
C947 N955 1.427 . S
C948 H939 0.930 . S
C948 C946 1.378 . S
C948 C949 1.367 . S
C949 C948 1.367 . S
C949 C951 1.433 . S
C950 C946 1.350 . S
C950 C947 1.463 . S
C950 N954 1.427 . S
C951 H941 0.929 . S
C951 C949 1.433 . S
C951 N954 1.384 . S
C952 H943 0.929 . S
C952 C944 1.378 . S
C952 C947 1.350 . S
C953 H940 0.929 . S
C953 C945 1.433 . S
C953 N955 1.384 . S
N954 C950 1.427 . S
N954 C951 1.384 . S
N955 C947 1.427 . S
N955 C953 1.384 . S
H956 C962 0.930 . S
H957 C966 0.930 . S
H958 C971 0.929 . S
H959 C969 0.929 . S
H960 C964 0.929 . S
H961 C970 0.929 . S
C962 H956 0.930 . S
C962 C963 1.367 . S
C962 C970 1.378 . S
C963 C962 1.367 . S
C963 C971 1.433 . S
C964 H960 0.929 . S
C964 C966 1.378 . S
C964 C968 1.350 . S
C965 C968 1.463 . S
C965 C970 1.350 . S
C965 N973 1.427 . S
C966 H957 0.930 . S
C966 C964 1.378 . S
C966 C967 1.367 . S
C967 C966 1.367 . S
C967 C969 1.433 . S
C968 C964 1.350 . S
C968 C965 1.463 . S
C968 N972 1.427 . S
C969 H959 0.929 . S
C969 C967 1.433 . S
C969 N972 1.384 . S
C970 H961 0.929 . S
C970 C962 1.378 . S
C970 C965 1.350 . S
C971 H958 0.929 . S
C971 C963 1.433 . S
C971 N973 1.384 . S
N972 C968 1.427 . S
N972 C969 1.384 . S
N973 C965 1.427 . S
N973 C971 1.384 . S
H974 C980 0.930 . S
H975 C984 0.930 . S
H976 C989 0.929 . S
H977 C987 0.929 . S
H978 C982 0.929 . S
H979 C988 0.929 . S
C980 H974 0.930 . S
C980 C981 1.367 . S
C980 C988 1.378 . S
C981 C980 1.367 . S
C981 C989 1.433 . S
C982 H978 0.929 . S
C982 C984 1.378 . S
C982 C986 1.350 . S
C983 C986 1.463 . S
C983 C988 1.350 . S
C983 N991 1.427 . S
C984 H975 0.930 . S
C984 C982 1.378 . S
C984 C985 1.367 . S
C985 C984 1.367 . S
C985 C987 1.433 . S
C986 C982 1.350 . S
C986 C983 1.463 . S
C986 N990 1.427 . S
C987 H977 0.929 . S
C987 C985 1.433 . S
C987 N990 1.384 . S
C988 H979 0.929 . S
C988 C980 1.378 . S
C988 C983 1.350 . S
C989 H976 0.929 . S
C989 C981 1.433 . S
C989 N991 1.384 . S
N990 C986 1.427 . S
N990 C987 1.384 . S
N991 C983 1.427 . S
N991 C989 1.384 . S
H992 C998 0.930 . S
H993 C1002 0.930 . S
H994 C1007 0.929 . S
H995 C1005 0.929 . S
H996 C1000 0.929 . S
H997 C1006 0.929 . S
C998 H992 0.930 . S
C998 C999 1.367 . S
C998 C1006 1.378 . S
C999 C998 1.367 . S
C999 C1007 1.433 . S
C1000 H996 0.929 . S
C1000 C1002 1.378 . S
C1000 C1004 1.350 . S
C1001 C1004 1.463 . S
C1001 C1006 1.350 . S
C1001 N1009 1.427 . S
C1002 H993 0.930 . S
C1002 C1000 1.378 . S
C1002 C1003 1.367 . S
C1003 C1002 1.367 . S
C1003 C1005 1.433 . S
C1004 C1000 1.350 . S
C1004 C1001 1.463 . S
C1004 N1008 1.427 . S
C1005 H995 0.929 . S
C1005 C1003 1.433 . S
C1005 N1008 1.384 . S
C1006 H997 0.929 . S
C1006 C998 1.378 . S
C1006 C1001 1.350 . S
C1007 H994 0.929 . S
C1007 C999 1.433 . S
C1007 N1009 1.384 . S
N1008 C1004 1.427 . S
N1008 C1005 1.384 . S
N1009 C1001 1.427 . S
N1009 C1007 1.384 . S
H1010 C1016 0.930 . S
H1011 C1020 0.930 . S
H1012 C1025 0.929 . S
H1013 C1023 0.929 . S
H1014 C1018 0.929 . S
H1015 C1024 0.929 . S
C1016 H1010 0.930 . S
C1016 C1017 1.367 . S
C1016 C1024 1.378 . S
C1017 C1016 1.367 . S
C1017 C1025 1.433 . S
C1018 H1014 0.929 . S
C1018 C1020 1.378 . S
C1018 C1022 1.350 . S
C1019 C1022 1.463 . S
C1019 C1024 1.350 . S
C1019 N1027 1.427 . S
C1020 H1011 0.930 . S
C1020 C1018 1.378 . S
C1020 C1021 1.367 . S
C1021 C1020 1.367 . S
C1021 C1023 1.433 . S
C1022 C1018 1.350 . S
C1022 C1019 1.463 . S
C1022 N1026 1.427 . S
C1023 H1013 0.929 . S
C1023 C1021 1.433 . S
C1023 N1026 1.384 . S
C1024 H1015 0.929 . S
C1024 C1016 1.378 . S
C1024 C1019 1.350 . S
C1025 H1012 0.929 . S
C1025 C1017 1.433 . S
C1025 N1027 1.384 . S
N1026 C1022 1.427 . S
N1026 C1023 1.384 . S
N1027 C1019 1.427 . S
N1027 C1025 1.384 . S
H1028 C1034 0.930 . S
H1029 C1038 0.930 . S
H1030 C1043 0.929 . S
H1031 C1041 0.929 . S
H1032 C1036 0.929 . S
H1033 C1042 0.929 . S
C1034 H1028 0.930 . S
C1034 C1035 1.367 . S
C1034 C1042 1.378 . S
C1035 C1034 1.367 . S
C1035 C1043 1.433 . S
C1036 H1032 0.929 . S
C1036 C1038 1.378 . S
C1036 C1040 1.350 . S
C1037 C1040 1.463 . S
C1037 C1042 1.350 . S
C1037 N1045 1.427 . S
C1038 H1029 0.930 . S
C1038 C1036 1.378 . S
C1038 C1039 1.367 . S
C1039 C1038 1.367 . S
C1039 C1041 1.433 . S
C1040 C1036 1.350 . S
C1040 C1037 1.463 . S
C1040 N1044 1.427 . S
C1041 H1031 0.929 . S
C1041 C1039 1.433 . S
C1041 N1044 1.384 . S
C1042 H1033 0.929 . S
C1042 C1034 1.378 . S
C1042 C1037 1.350 . S
C1043 H1030 0.929 . S
C1043 C1035 1.433 . S
C1043 N1045 1.384 . S
N1044 C1040 1.427 . S
N1044 C1041 1.384 . S
N1045 C1037 1.427 . S
N1045 C1043 1.384 . S
H1046 C1052 0.930 . S
H1047 C1056 0.930 . S
H1048 C1061 0.929 . S
H1049 C1059 0.929 . S
H1050 C1054 0.900 1_556 S
H1051 C1060 0.955 . S
C1052 H1046 0.930 . S
C1052 C1053 1.367 . S
C1052 C1060 1.362 1_556 S
C1053 C1052 1.367 . S
C1053 C1061 1.433 . S
C1054 H1050 0.900 1_554 S
C1054 C1056 1.396 . S
C1054 C1058 1.361 . S
C1055 C1058 1.463 1_556 S
C1055 C1060 1.340 1_556 S
C1055 N1063 1.427 . S
C1056 H1047 0.930 . S
C1056 C1054 1.396 . S
C1056 C1057 1.367 . S
C1057 C1056 1.367 . S
C1057 C1059 1.433 . S
C1058 C1054 1.361 . S
C1058 C1055 1.463 1_554 S
C1058 N1062 1.427 . S
C1059 H1049 0.929 . S
C1059 C1057 1.433 . S
C1059 N1062 1.384 . S
C1060 H1051 0.955 . S
C1060 C1052 1.362 1_554 S
C1060 C1055 1.340 1_554 S
C1061 H1048 0.929 . S
C1061 C1053 1.433 . S
C1061 N1063 1.384 . S
N1062 C1058 1.427 . S
N1062 C1059 1.384 . S
N1063 C1055 1.427 . S
N1063 C1061 1.384 . S
H1064 C1070 0.930 . S
H1065 C1074 0.930 . S
H1066 C1079 0.929 . S
H1067 C1077 0.929 . S
H1068 C1072 0.929 . S
H1069 C1078 0.929 . S
C1070 H1064 0.930 . S
C1070 C1071 1.367 . S
C1070 C1078 1.378 . S
C1071 C1070 1.367 . S
C1071 C1079 1.433 . S
C1072 H1068 0.929 . S
C1072 C1074 1.378 . S
C1072 C1076 1.350 . S
C1073 C1076 1.463 . S
C1073 C1078 1.350 . S
C1073 N1081 1.427 . S
C1074 H1065 0.930 . S
C1074 C1072 1.378 . S
C1074 C1075 1.367 . S
C1075 C1074 1.367 . S
C1075 C1077 1.433 . S
C1076 C1072 1.350 . S
C1076 C1073 1.463 . S
C1076 N1080 1.427 . S
C1077 H1067 0.929 . S
C1077 C1075 1.433 . S
C1077 N1080 1.384 . S
C1078 H1069 0.929 . S
C1078 C1070 1.378 . S
C1078 C1073 1.350 . S
C1079 H1066 0.929 . S
C1079 C1071 1.433 . S
C1079 N1081 1.384 . S
N1080 C1076 1.427 . S
N1080 C1077 1.384 . S
N1081 C1073 1.427 . S
N1081 C1079 1.384 . S
H1082 C1088 0.930 . S
H1083 C1092 0.930 . S
H1084 C1097 0.929 . S
H1085 C1095 0.929 . S
H1086 C1090 0.929 . S
H1087 C1096 0.929 . S
C1088 H1082 0.930 . S
C1088 C1089 1.367 . S
C1088 C1096 1.378 . S
C1089 C1088 1.367 . S
C1089 C1097 1.433 . S
C1090 H1086 0.929 . S
C1090 C1092 1.378 . S
C1090 C1094 1.350 . S
C1091 C1094 1.463 . S
C1091 C1096 1.350 . S
C1091 N1099 1.427 . S
C1092 H1083 0.930 . S
C1092 C1090 1.378 . S
C1092 C1093 1.367 . S
C1093 C1092 1.367 . S
C1093 C1095 1.433 . S
C1094 C1090 1.350 . S
C1094 C1091 1.463 . S
C1094 N1098 1.427 . S
C1095 H1085 0.929 . S
C1095 C1093 1.433 . S
C1095 N1098 1.384 . S
C1096 H1087 0.929 . S
C1096 C1088 1.378 . S
C1096 C1091 1.350 . S
C1097 H1084 0.929 . S
C1097 C1089 1.433 . S
C1097 N1099 1.384 . S
N1098 C1094 1.427 . S
N1098 C1095 1.384 . S
N1099 C1091 1.427 . S
N1099 C1097 1.384 . S
H1100 C1106 0.930 . S
H1101 C1110 0.930 . S
H1102 C1115 0.929 . S
H1103 C1113 0.929 . S
H1104 C1108 0.929 . S
H1105 C1114 0.929 . S
C1106 H1100 0.930 . S
C1106 C1107 1.367 . S
C1106 C1114 1.378 . S
C1107 C1106 1.367 . S
C1107 C1115 1.433 . S
C1108 H1104 0.929 . S
C1108 C1110 1.378 . S
C1108 C1112 1.350 . S
C1109 C1112 1.463 . S
C1109 C1114 1.350 . S
C1109 N1117 1.427 . S
C1110 H1101 0.930 . S
C1110 C1108 1.378 . S
C1110 C1111 1.367 . S
C1111 C1110 1.367 . S
C1111 C1113 1.433 . S
C1112 C1108 1.350 . S
C1112 C1109 1.463 . S
C1112 N1116 1.427 . S
C1113 H1103 0.929 . S
C1113 C1111 1.433 . S
C1113 N1116 1.384 . S
C1114 H1105 0.929 . S
C1114 C1106 1.378 . S
C1114 C1109 1.350 . S
C1115 H1102 0.929 . S
C1115 C1107 1.433 . S
C1115 N1117 1.384 . S
N1116 C1112 1.427 . S
N1116 C1113 1.384 . S
N1117 C1109 1.427 . S
N1117 C1115 1.384 . S
H1118 C1124 0.930 . S
H1119 C1128 0.930 . S
H1120 C1133 0.929 . S
H1121 C1131 0.929 . S
H1122 C1126 0.929 . S
H1123 C1132 0.929 . S
C1124 H1118 0.930 . S
C1124 C1125 1.367 . S
C1124 C1132 1.378 . S
C1125 C1124 1.367 . S
C1125 C1133 1.433 . S
C1126 H1122 0.929 . S
C1126 C1128 1.378 . S
C1126 C1130 1.350 . S
C1127 C1130 1.463 . S
C1127 C1132 1.350 . S
C1127 N1135 1.427 . S
C1128 H1119 0.930 . S
C1128 C1126 1.378 . S
C1128 C1129 1.367 . S
C1129 C1128 1.367 . S
C1129 C1131 1.433 . S
C1130 C1126 1.350 . S
C1130 C1127 1.463 . S
C1130 N1134 1.427 . S
C1131 H1121 0.929 . S
C1131 C1129 1.433 . S
C1131 N1134 1.384 . S
C1132 H1123 0.929 . S
C1132 C1124 1.378 . S
C1132 C1127 1.350 . S
C1133 H1120 0.929 . S
C1133 C1125 1.433 . S
C1133 N1135 1.384 . S
N1134 C1130 1.427 . S
N1134 C1131 1.384 . S
N1135 C1127 1.427 . S
N1135 C1133 1.384 . S
H1136 C1142 0.930 . S
H1137 C1146 0.930 . S
H1138 C1151 0.929 . S
H1139 C1149 0.929 . S
H1140 C1144 0.929 . S
H1141 C1150 0.929 . S
C1142 H1136 0.930 . S
C1142 C1143 1.367 . S
C1142 C1150 1.378 . S
C1143 C1142 1.367 . S
C1143 C1151 1.433 . S
C1144 H1140 0.929 . S
C1144 C1146 1.378 . S
C1144 C1148 1.350 . S
C1145 C1148 1.463 . S
C1145 C1150 1.350 . S
C1145 N1153 1.427 . S
C1146 H1137 0.930 . S
C1146 C1144 1.378 . S
C1146 C1147 1.367 . S
C1147 C1146 1.367 . S
C1147 C1149 1.433 . S
C1148 C1144 1.350 . S
C1148 C1145 1.463 . S
C1148 N1152 1.427 . S
C1149 H1139 0.929 . S
C1149 C1147 1.433 . S
C1149 N1152 1.384 . S
C1150 H1141 0.929 . S
C1150 C1142 1.378 . S
C1150 C1145 1.350 . S
C1151 H1138 0.929 . S
C1151 C1143 1.433 . S
C1151 N1153 1.384 . S
N1152 C1148 1.427 . S
N1152 C1149 1.384 . S
N1153 C1145 1.427 . S
N1153 C1151 1.384 . S
H1154 C1160 0.930 . S
H1155 C1164 0.930 . S
H1156 C1169 0.929 . S
H1157 C1167 0.929 . S
H1158 C1162 0.929 . S
H1159 C1168 0.929 . S
C1160 H1154 0.930 . S
C1160 C1161 1.367 . S
C1160 C1168 1.378 . S
C1161 C1160 1.367 . S
C1161 C1169 1.433 . S
C1162 H1158 0.929 . S
C1162 C1164 1.378 . S
C1162 C1166 1.350 . S
C1163 C1166 1.463 . S
C1163 C1168 1.350 . S
C1163 N1171 1.427 . S
C1164 H1155 0.930 . S
C1164 C1162 1.378 . S
C1164 C1165 1.367 . S
C1165 C1164 1.367 . S
C1165 C1167 1.433 . S
C1166 C1162 1.350 . S
C1166 C1163 1.463 . S
C1166 N1170 1.427 . S
C1167 H1157 0.929 . S
C1167 C1165 1.433 . S
C1167 N1170 1.384 . S
C1168 H1159 0.929 . S
C1168 C1160 1.378 . S
C1168 C1163 1.350 . S
C1169 H1156 0.929 . S
C1169 C1161 1.433 . S
C1169 N1171 1.384 . S
N1170 C1166 1.427 . S
N1170 C1167 1.384 . S
N1171 C1163 1.427 . S
N1171 C1169 1.384 . S
H1172 C1178 0.930 . S
H1173 C1182 0.930 . S
H1174 C1187 0.929 . S
H1175 C1185 0.929 . S
H1176 C1180 0.929 . S
H1177 C1186 0.929 . S
C1178 H1172 0.930 . S
C1178 C1179 1.367 . S
C1178 C1186 1.378 . S
C1179 C1178 1.367 . S
C1179 C1187 1.433 . S
C1180 H1176 0.929 . S
C1180 C1182 1.378 . S
C1180 C1184 1.350 . S
C1181 C1184 1.463 . S
C1181 C1186 1.350 . S
C1181 N1189 1.427 . S
C1182 H1173 0.930 . S
C1182 C1180 1.378 . S
C1182 C1183 1.367 . S
C1183 C1182 1.367 . S
C1183 C1185 1.433 . S
C1184 C1180 1.350 . S
C1184 C1181 1.463 . S
C1184 N1188 1.427 . S
C1185 H1175 0.929 . S
C1185 C1183 1.433 . S
C1185 N1188 1.384 . S
C1186 H1177 0.929 . S
C1186 C1178 1.378 . S
C1186 C1181 1.350 . S
C1187 H1174 0.929 . S
C1187 C1179 1.433 . S
C1187 N1189 1.384 . S
N1188 C1184 1.427 . S
N1188 C1185 1.384 . S
N1189 C1181 1.427 . S
N1189 C1187 1.384 . S
H1190 C1196 0.930 . S
H1191 C1200 0.930 . S
H1192 C1205 0.929 . S
H1193 C1203 0.929 . S
H1194 C1198 0.929 . S
H1195 C1204 0.929 . S
C1196 H1190 0.930 . S
C1196 C1197 1.367 . S
C1196 C1204 1.378 . S
C1197 C1196 1.367 . S
C1197 C1205 1.433 . S
C1198 H1194 0.929 . S
C1198 C1200 1.378 . S
C1198 C1202 1.350 . S
C1199 C1202 1.463 . S
C1199 C1204 1.350 . S
C1199 N1207 1.427 . S
C1200 H1191 0.930 . S
C1200 C1198 1.378 . S
C1200 C1201 1.367 . S
C1201 C1200 1.367 . S
C1201 C1203 1.433 . S
C1202 C1198 1.350 . S
C1202 C1199 1.463 . S
C1202 N1206 1.427 . S
C1203 H1193 0.929 . S
C1203 C1201 1.433 . S
C1203 N1206 1.384 . S
C1204 H1195 0.929 . S
C1204 C1196 1.378 . S
C1204 C1199 1.350 . S
C1205 H1192 0.929 . S
C1205 C1197 1.433 . S
C1205 N1207 1.384 . S
N1206 C1202 1.427 . S
N1206 C1203 1.384 . S
N1207 C1199 1.427 . S
N1207 C1205 1.384 . S
H1208 C1214 0.930 . S
H1209 C1218 0.930 . S
H1210 C1223 0.929 . S
H1211 C1221 0.929 . S
H1212 C1216 0.929 . S
H1213 C1222 0.929 . S
C1214 H1208 0.930 . S
C1214 C1215 1.367 . S
C1214 C1222 1.378 . S
C1215 C1214 1.367 . S
C1215 C1223 1.433 . S
C1216 H1212 0.929 . S
C1216 C1218 1.378 . S
C1216 C1220 1.350 . S
C1217 C1220 1.463 . S
C1217 C1222 1.350 . S
C1217 N1225 1.427 . S
C1218 H1209 0.930 . S
C1218 C1216 1.378 . S
C1218 C1219 1.367 . S
C1219 C1218 1.367 . S
C1219 C1221 1.433 . S
C1220 C1216 1.350 . S
C1220 C1217 1.463 . S
C1220 N1224 1.427 . S
C1221 H1211 0.929 . S
C1221 C1219 1.433 . S
C1221 N1224 1.384 . S
C1222 H1213 0.929 . S
C1222 C1214 1.378 . S
C1222 C1217 1.350 . S
C1223 H1210 0.929 . S
C1223 C1215 1.433 . S
C1223 N1225 1.384 . S
N1224 C1220 1.427 . S
N1224 C1221 1.384 . S
N1225 C1217 1.427 . S
N1225 C1223 1.384 . S
H1226 C1232 0.930 . S
H1227 C1236 0.930 . S
H1228 C1241 0.929 . S
H1229 C1239 0.929 . S
H1230 C1234 0.929 . S
H1231 C1240 0.929 . S
C1232 H1226 0.930 . S
C1232 C1233 1.367 . S
C1232 C1240 1.378 . S
C1233 C1232 1.367 . S
C1233 C1241 1.433 . S
C1234 H1230 0.929 . S
C1234 C1236 1.378 . S
C1234 C1238 1.350 . S
C1235 C1238 1.463 . S
C1235 C1240 1.350 . S
C1235 N1243 1.427 . S
C1236 H1227 0.930 . S
C1236 C1234 1.378 . S
C1236 C1237 1.367 . S
C1237 C1236 1.367 . S
C1237 C1239 1.433 . S
C1238 C1234 1.350 . S
C1238 C1235 1.463 . S
C1238 N1242 1.427 . S
C1239 H1229 0.929 . S
C1239 C1237 1.433 . S
C1239 N1242 1.384 . S
C1240 H1231 0.929 . S
C1240 C1232 1.378 . S
C1240 C1235 1.350 . S
C1241 H1228 0.929 . S
C1241 C1233 1.433 . S
C1241 N1243 1.384 . S
N1242 C1238 1.427 . S
N1242 C1239 1.384 . S
N1243 C1235 1.427 . S
N1243 C1241 1.384 . S
H1244 C1250 0.930 . S
H1245 C1254 0.930 . S
H1246 C1259 0.929 . S
H1247 C1257 0.929 . S
H1248 C1252 0.929 . S
H1249 C1258 0.929 . S
C1250 H1244 0.930 . S
C1250 C1251 1.367 . S
C1250 C1258 1.378 . S
C1251 C1250 1.367 . S
C1251 C1259 1.433 . S
C1252 H1248 0.929 . S
C1252 C1254 1.378 . S
C1252 C1256 1.350 . S
C1253 C1256 1.463 . S
C1253 C1258 1.350 . S
C1253 N1261 1.427 . S
C1254 H1245 0.930 . S
C1254 C1252 1.378 . S
C1254 C1255 1.367 . S
C1255 C1254 1.367 . S
C1255 C1257 1.433 . S
C1256 C1252 1.350 . S
C1256 C1253 1.463 . S
C1256 N1260 1.427 . S
C1257 H1247 0.929 . S
C1257 C1255 1.433 . S
C1257 N1260 1.384 . S
C1258 H1249 0.929 . S
C1258 C1250 1.378 . S
C1258 C1253 1.350 . S
C1259 H1246 0.929 . S
C1259 C1251 1.433 . S
C1259 N1261 1.384 . S
N1260 C1256 1.427 . S
N1260 C1257 1.384 . S
N1261 C1253 1.427 . S
N1261 C1259 1.384 . S
H1262 C1268 0.930 . S
H1263 C1272 0.930 . S
H1264 C1277 0.929 . S
H1265 C1275 0.929 . S
H1266 C1270 0.929 1_556 S
H1267 C1276 0.929 . S
C1268 H1262 0.930 . S
C1268 C1269 1.367 . S
C1268 C1276 1.378 . S
C1269 C1268 1.367 . S
C1269 C1277 1.433 . S
C1270 H1266 0.929 1_554 S
C1270 C1272 1.378 . S
C1270 C1274 1.350 . S
C1271 C1274 1.463 1_556 S
C1271 C1276 1.350 . S
C1271 N1279 1.427 . S
C1272 H1263 0.930 . S
C1272 C1270 1.378 . S
C1272 C1273 1.367 . S
C1273 C1272 1.367 . S
C1273 C1275 1.433 . S
C1274 C1270 1.350 . S
C1274 C1271 1.463 1_554 S
C1274 N1278 1.427 . S
C1275 H1265 0.929 . S
C1275 C1273 1.433 . S
C1275 N1278 1.384 . S
C1276 H1267 0.929 . S
C1276 C1268 1.378 . S
C1276 C1271 1.350 . S
C1277 H1264 0.929 . S
C1277 C1269 1.433 . S
C1277 N1279 1.384 . S
N1278 C1274 1.427 . S
N1278 C1275 1.384 . S
N1279 C1271 1.427 . S
N1279 C1277 1.384 . S
C715 C593 1.691 . S
C711 C39 1.643 . S
C733 C619 1.662 . S
C729 C125 1.646 . S
C751 C633 2.208 1_655 S
C747 C217 2.125 . S
C769 C635 1.950 . S
C765 C261 1.853 . S
C783 C359 1.476 . S
C787 C632 1.505 . S
C805 C634 1.559 . S
C801 C433 1.451 . S
C823 C592 1.545 . S
C819 C495 1.569 . S
C841 C618 1.698 . S
C837 C587 1.707 . S
C859 C620 1.740 1_655 S
C855 C557 1.740 . S
C877 C646 1.129 . S
C873 C347 1.141 . S
C895 C604 1.120 . S
C891 C421 1.124 . S
C913 C606 1.648 . S
C909 C507 1.622 . S
C931 C605 1.517 . S
C927 C137 1.518 . S
C949 C607 1.607 . S
C945 C187 1.572 . S
C967 C621 2.607 . S
C963 C291 2.562 . S
C985 C647 2.094 . S
C981 C69 2.101 . S
C1003 C649 1.460 . S
C999 C581 1.471 . S
C1017 C365 2.053 . S
C1021 C675 2.031 . S
C1035 C439 2.457 . S
C1039 C688 2.446 . S
C1053 C483 1.516 . S
C1057 C691 1.537 . S
C1071 C113 1.754 . S
C1075 C689 1.771 . S
C1089 C211 1.636 . S
C1093 C690 1.676 . S
C1107 C273 1.331 . S
C1111 C648 1.376 . S
C1129 C674 1.172 . S
C1125 C51 1.174 . S
C1147 C677 1.601 . S
C1143 C63 1.557 . S
C1161 C143 1.753 . S
C1165 C702 1.747 . S
C1179 C199 1.798 . S
C1183 C660 1.804 . S
C1197 C285 1.433 . S
C1201 C662 1.517 . S
C1219 C661 1.626 . S
C1215 C335 1.605 . S
C1237 C663 2.001 . S
C1233 C409 1.883 . S
C1251 C513 1.999 . S
C1255 C676 2.004 1_556 S
C1273 C703 1.637 . S
C1269 C569 1.638 . S
