# Generated by pormake.
# Topology pyr, (3,6)-cn, num edge types: 1
# Building blocks:
#     Node 0, Type 0, BuildingBlock: INOVEN_clean_linker_0, # of connection points: 3
#     Node 1, Type 0, BuildingBlock: INOVEN_clean_linker_0, # of connection points: 3
#     Node 2, Type 0, BuildingBlock: INOVEN_clean_linker_0, # of connection points: 3
#     Node 3, Type 0, BuildingBlock: INOVEN_clean_linker_0, # of connection points: 3
#     Node 4, Type 0, BuildingBlock: INOVEN_clean_linker_0, # of connection points: 3
#     Node 5, Type 0, BuildingBlock: INOVEN_clean_linker_0, # of connection points: 3
#     Node 6, Type 0, BuildingBlock: INOVEN_clean_linker_0, # of connection points: 3
#     Node 7, Type 0, BuildingBlock: INOVEN_clean_linker_0, # of connection points: 3
#     Node 8, Type 1, BuildingBlock: VOLQOD_clean_sbu_1, # of connection points: 6
#     Node 9, Type 1, BuildingBlock: VOLQOD_clean_sbu_1, # of connection points: 6
#     Node 10, Type 1, BuildingBlock: VOLQOD_clean_sbu_1, # of connection points: 6
#     Node 11, Type 1, BuildingBlock: VOLQOD_clean_sbu_1, # of connection points: 6
#     Edge 12, Type (0, 1), BuildingBlock: OJICUG_clean_linker_0, # of connection points: 2
#     Edge 13, Type (0, 1), BuildingBlock: OJICUG_clean_linker_0, # of connection points: 2
#     Edge 14, Type (0, 1), BuildingBlock: OJICUG_clean_linker_0, # of connection points: 2
#     Edge 15, Type (0, 1), BuildingBlock: OJICUG_clean_linker_0, # of connection points: 2
#     Edge 16, Type (0, 1), BuildingBlock: OJICUG_clean_linker_0, # of connection points: 2
#     Edge 17, Type (0, 1), BuildingBlock: OJICUG_clean_linker_0, # of connection points: 2
#     Edge 18, Type (0, 1), BuildingBlock: OJICUG_clean_linker_0, # of connection points: 2
#     Edge 19, Type (0, 1), BuildingBlock: OJICUG_clean_linker_0, # of connection points: 2
#     Edge 20, Type (0, 1), BuildingBlock: OJICUG_clean_linker_0, # of connection points: 2
#     Edge 21, Type (0, 1), BuildingBlock: OJICUG_clean_linker_0, # of connection points: 2
#     Edge 22, Type (0, 1), BuildingBlock: OJICUG_clean_linker_0, # of connection points: 2
#     Edge 23, Type (0, 1), BuildingBlock: OJICUG_clean_linker_0, # of connection points: 2
#     Edge 24, Type (0, 1), BuildingBlock: OJICUG_clean_linker_0, # of connection points: 2
#     Edge 25, Type (0, 1), BuildingBlock: OJICUG_clean_linker_0, # of connection points: 2
#     Edge 26, Type (0, 1), BuildingBlock: OJICUG_clean_linker_0, # of connection points: 2
#     Edge 27, Type (0, 1), BuildingBlock: OJICUG_clean_linker_0, # of connection points: 2
#     Edge 28, Type (0, 1), BuildingBlock: OJICUG_clean_linker_0, # of connection points: 2
#     Edge 29, Type (0, 1), BuildingBlock: OJICUG_clean_linker_0, # of connection points: 2
#     Edge 30, Type (0, 1), BuildingBlock: OJICUG_clean_linker_0, # of connection points: 2
#     Edge 31, Type (0, 1), BuildingBlock: OJICUG_clean_linker_0, # of connection points: 2
#     Edge 32, Type (0, 1), BuildingBlock: OJICUG_clean_linker_0, # of connection points: 2
#     Edge 33, Type (0, 1), BuildingBlock: OJICUG_clean_linker_0, # of connection points: 2
#     Edge 34, Type (0, 1), BuildingBlock: OJICUG_clean_linker_0, # of connection points: 2
#     Edge 35, Type (0, 1), BuildingBlock: OJICUG_clean_linker_0, # of connection points: 2
# Relax obj value: 0.106
# Max RMSD: 0.184
# Mean RMSD: 0.144
data_MOF--net-pry--node1-VOLQOD_clean_sbu_1--node2-INOVEN_clean_linker_0--edge1-OJICUG_clean_linker_0
_symmetry_space_group_name_H-M    P1
_symmetry_Int_Tables_number       1
_symmetry_cell_setting            triclinic
loop_
_symmetry_equiv_pos_as_xyz
'x, y, z'
_cell_length_a     26.471783
_cell_length_b     27.081149
_cell_length_c     28.378753
_cell_angle_alpha  90.431471
_cell_angle_beta   90.781549
_cell_angle_gamma 95.611587
loop_
_atom_site_label
_atom_site_type_symbol
_atom_site_fract_x
_atom_site_fract_y
_atom_site_fract_z
_atom_type_partial_charge
H0 H 0.06851 0.16903 0.20246 0.0
H1 H 0.18951 0.07464 0.20638 0.0
H2 H 0.17269 0.17148 0.08798 0.0
N3 N 0.09423 0.21553 0.12488 0.0
N4 N 0.10974 0.23877 0.08925 0.0
C5 C 0.10081 0.15467 0.18593 0.0
C6 C 0.1261 0.11824 0.20865 0.0
C7 C 0.11822 0.1749 0.1433 0.0
C8 C 0.16041 0.15672 0.12171 0.0
C9 C 0.18658 0.11983 0.14366 0.0
C10 C 0.16929 0.10158 0.18776 0.0
H11 H 0.39829 0.87524 0.59904 0.0
H12 H 0.47758 0.86029 0.7305 0.0
H13 H 0.38369 0.98049 0.70951 0.0
N14 N 0.35014 0.94908 0.62297 0.0
N15 N 0.3292 0.98694 0.63306 0.0
C16 C 0.40921 0.88882 0.63413 0.0
C17 C 0.43969 0.86194 0.663 0.0
C18 C 0.3891 0.93108 0.65063 0.0
C19 C 0.40164 0.94907 0.69622 0.0
C20 C 0.43424 0.92437 0.72565 0.0
C21 C 0.45348 0.88071 0.70833 0.0
H22 H 0.51816 0.374 0.94283 0.0
H23 H 0.66226 0.36101 0.01189 0.0
H24 H 0.63597 0.49365 0.93749 0.0
N25 N 0.54824 0.45472 0.89741 0.0
N26 N 0.56726 0.49142 0.87536 0.0
C27 C 0.5556 0.38988 0.95401 0.0
C28 C 0.58706 0.36225 0.98151 0.0
C29 C 0.57369 0.43621 0.93672 0.0
C30 C 0.62205 0.45749 0.95067 0.0
C31 C 0.6544 0.43057 0.97768 0.0
C32 C 0.63646 0.38311 0.99344 0.0
H33 H 0.82293 0.58271 0.39922 0.0
H34 H 0.85102 0.6997 0.50377 0.0
H35 H 0.94534 0.69679 0.3831 0.0
N36 N 0.89722 0.61485 0.34304 0.0
N37 N 0.92944 0.63698 0.31705 0.0
C38 C 0.84561 0.61488 0.41362 0.0
C39 C 0.83171 0.63769 0.45583 0.0
C40 C 0.88684 0.63551 0.38758 0.0
C41 C 0.91436 0.67943 0.40364 0.0
C42 C 0.90061 0.70307 0.44467 0.0
C43 C 0.86084 0.68112 0.47174 0.0
H44 H 0.88891 0.98992 0.84878 0.0
H45 H 0.97436 0.86425 0.82397 0.0
H46 H 0.89322 0.87677 0.95279 0.0
N47 N 0.8479 0.95761 0.92722 0.0
N48 N 0.82246 0.9342 0.9579 0.0
C49 C 0.90289 0.95553 0.8599 0.0
C50 C 0.93396 0.93004 0.8302 0.0
C51 C 0.88706 0.93594 0.90323 0.0
C52 C 0.90563 0.89218 0.91927 0.0
C53 C 0.93793 0.86662 0.89131 0.0
C54 C 0.9513 0.88522 0.84638 0.0
H55 H 0.55417 0.1521 0.36567 0.0
H56 H 0.67347 0.05584 0.36279 0.0
H57 H 0.66849 0.16374 0.47492 0.0
N58 N 0.5845 0.2023 0.44096 0.0
N59 N 0.59382 0.22121 0.48074 0.0
C60 C 0.58716 0.13821 0.38204 0.0
C61 C 0.61132 0.10099 0.35955 0.0
C62 C 0.60697 0.16033 0.42388 0.0
C63 C 0.65171 0.14477 0.44393 0.0
C64 C 0.67673 0.10741 0.42172 0.0
C65 C 0.6553 0.08506 0.38011 0.0
H66 H 0.46427 0.67895 0.17264 0.0
H67 H 0.34792 0.68903 0.0671 0.0
H68 H 0.33235 0.57303 0.1698 0.0
N69 N 0.41943 0.60435 0.21765 0.0
N70 N 0.38942 0.5872 0.24817 0.0
C71 C 0.42957 0.66341 0.15512 0.0
C72 C 0.40969 0.68836 0.11725 0.0
C73 C 0.40205 0.62197 0.17424 0.0
C74 C 0.35501 0.60388 0.15397 0.0
C75 C 0.33653 0.62709 0.11411 0.0
C76 C 0.3642 0.66896 0.09559 0.0
H77 H 0.01293 0.39317 0.61985 0.0
H78 H 0.14863 0.3671 0.54486 0.0
H79 H 0.14423 0.49901 0.62813 0.0
N80 N 0.05427 0.47042 0.6671 0.0
N81 N 0.08148 0.49865 0.69391 0.0
C82 C 0.05082 0.40555 0.60813 0.0
C83 C 0.07691 0.3752 0.57857 0.0
C84 C 0.07526 0.44945 0.62692 0.0
C85 C 0.12469 0.46556 0.61275 0.0
C86 C 0.15113 0.43612 0.58295 0.0
C87 C 0.12714 0.39098 0.56592 0.0
O88 O 0.98732 0.1419 0.56417 0.0
Zn89 Zn 0.96126 0.06915 0.55752 0.0
O90 O 0.00708 0.03608 0.51633 0.0
Zn91 Zn 0.97208 0.01367 0.45814 0.0
Zn92 Zn 0.0661 0.08027 0.49938 0.0
Zn93 Zn 0.03143 0.98078 0.54974 0.0
O94 O 0.96205 0.93911 0.45699 0.0
O95 O 0.00418 0.91647 0.52031 0.0
O96 O 0.89118 0.06887 0.52706 0.0
O97 O 0.90314 0.03892 0.45533 0.0
O98 O 0.01072 0.0368 0.39959 0.0
O99 O 0.07971 0.07922 0.42962 0.0
O100 O 0.12972 0.06385 0.5332 0.0
O101 O 0.95536 0.03667 0.62258 0.0
O102 O 0.10721 0.98549 0.55246 0.0
O103 O 0.00855 0.97848 0.61676 0.0
C104 C 0.02253 0.16817 0.54297 0.0
C105 C 0.97681 0.90566 0.48383 0.0
C106 C 0.05365 0.06168 0.39422 0.0
C107 C 0.87519 0.05814 0.48525 0.0
C108 C 0.14067 0.02227 0.54886 0.0
C109 C 0.97789 0.00154 0.64065 0.0
O110 O 0.05358 0.14896 0.51626 0.0
O111 O 0.49632 0.13076 0.99756 0.0
Zn112 Zn 0.4623 0.0611 0.0032 0.0
O113 O 0.50355 0.02291 0.04514 0.0
Zn114 Zn 0.52332 0.96587 0.01092 0.0
Zn115 Zn 0.5658 0.06253 0.0658 0.0
Zn116 Zn 0.46478 0.00039 0.10064 0.0
O117 O 0.49564 0.90294 0.03942 0.0
O118 O 0.45559 0.92573 0.10302 0.0
O119 O 0.4541 0.02955 0.93674 0.0
O120 O 0.49751 0.96388 0.94478 0.0
O121 O 0.59847 0.96461 0.00948 0.0
O122 O 0.62954 0.03717 0.03995 0.0
O123 O 0.57282 0.06312 0.13636 0.0
O124 O 0.39322 0.06853 0.03278 0.0
O125 O 0.5005 0.02435 0.16133 0.0
O126 O 0.39574 0.02587 0.09938 0.0
C127 C 0.53479 0.15418 0.01794 0.0
C128 C 0.46996 0.89224 0.07596 0.0
C129 C 0.63585 0.99576 0.02052 0.0
C130 C 0.47087 0.99051 0.9198 0.0
C131 C 0.54387 0.04769 0.1697 0.0
C132 C 0.37276 0.05257 0.07099 0.0
O133 O 0.56357 0.13274 0.04577 0.0
O134 O 0.54965 0.55616 0.6612 0.0
Zn135 Zn 0.54748 0.58254 0.59562 0.0
O136 O 0.50065 0.53835 0.55703 0.0
Zn137 Zn 0.53481 0.51593 0.5019 0.0
Zn138 Zn 0.47461 0.47947 0.59214 0.0
Zn139 Zn 0.44485 0.57542 0.53787 0.0
O140 O 0.5003 0.53446 0.4421 0.0
O141 O 0.43979 0.57897 0.46763 0.0
O142 O 0.61733 0.59056 0.56737 0.0
O143 O 0.60732 0.54463 0.50188 0.0
O144 O 0.53644 0.44235 0.5012 0.0
O145 O 0.50419 0.41675 0.56959 0.0
O146 O 0.39801 0.46815 0.58552 0.0
O147 O 0.52393 0.65073 0.60434 0.0
O148 O 0.37895 0.53954 0.55543 0.0
O149 O 0.44936 0.64389 0.56725 0.0
C150 C 0.52355 0.52145 0.6826 0.0
C151 C 0.46295 0.55961 0.43426 0.0
C152 C 0.52551 0.40808 0.53079 0.0
C153 C 0.63489 0.57294 0.5299 0.0
C154 C 0.36542 0.49672 0.57156 0.0
C155 C 0.48316 0.66888 0.59239 0.0
O156 O 0.49223 0.49037 0.66067 0.0
O157 O 0.96298 0.53476 0.11553 0.0
Zn158 Zn 0.96591 0.503 0.05151 0.0
O159 O 0.0015 0.54901 0.00761 0.0
Zn160 Zn 0.9569 0.56336 0.95557 0.0
Zn161 Zn 0.02491 0.61136 0.03912 0.0
Zn162 Zn 0.05927 0.51855 0.9833 0.0
O163 O 0.98273 0.54028 0.8942 0.0
O164 O 0.06106 0.5237 0.9132 0.0
O165 O 0.89333 0.4868 0.03051 0.0
O166 O 0.88655 0.5308 0.96529 0.0
O167 O 0.95518 0.63699 0.94655 0.0
O168 O 0.00731 0.67181 0.00189 0.0
O169 O 0.10022 0.61491 0.05123 0.0
O170 O -0.00094 0.43863 0.05687 0.0
O171 O 0.12427 0.55123 0.01035 0.0
O172 O 0.05832 0.44677 0.00218 0.0
C173 C 0.97373 0.57925 0.12992 0.0
C174 C 0.02675 0.53002 0.8826 0.0
C175 C 0.97823 0.67544 0.96608 0.0
C176 C 0.86707 0.50112 0.9962 0.0
C177 C 0.13452 0.58839 0.03764 0.0
C178 C 0.03421 0.42107 0.03357 0.0
O179 O 0.99461 0.61268 0.10322 0.0
C180 C 0.14217 0.10096 0.29407 0.0
C181 C 0.10842 0.09971 0.25537 0.0
H182 H 0.1513 0.09035 0.36833 0.0
C183 C 0.057 0.08339 0.26218 0.0
H184 H 0.18192 0.11373 0.28988 0.0
C185 C 0.03949 0.0694 0.30694 0.0
C186 C 0.07287 0.07235 0.34606 0.0
H187 H 0.03021 0.08191 0.23288 0.0
H188 H -0.0005 0.05775 0.31113 0.0
C189 C 0.12452 0.08784 0.339 0.0
C190 C 0.44959 0.90776 0.81181 0.0
C191 C 0.44425 0.94196 0.77543 0.0
H192 H 0.46195 0.89636 0.88536 0.0
C193 C 0.44648 0.99285 0.78751 0.0
H194 H 0.44667 0.86828 0.80467 0.0
C195 C 0.45352 0.00886 0.8345 0.0
C196 C 0.45968 0.9745 0.87036 0.0
H197 H 0.44333 0.02057 0.76063 0.0
H198 H 0.4555 0.04817 0.84256 0.0
C199 C 0.45772 0.92386 0.85842 0.0
C200 C 0.57436 0.54355 0.80684 0.0
C201 C 0.54831 0.50419 0.83075 0.0
H202 H 0.58739 0.57994 0.74101 0.0
C203 C 0.5105 0.47312 0.80689 0.0
H204 H 0.60391 0.56742 0.82475 0.0
C205 C 0.50136 0.47963 0.75893 0.0
C206 C 0.52985 0.51723 0.73412 0.0
H207 H 0.48996 0.4422 0.82454 0.0
H208 H 0.47326 0.45409 0.74104 0.0
C209 C 0.56526 0.55016 0.75891 0.0
C210 C 0.97395 0.65089 0.24437 0.0
C211 C 0.94068 0.6201 0.27152 0.0
H212 H 0.01039 0.66246 0.17825 0.0
C213 C 0.91861 0.57484 0.2526 0.0
H214 H 0.99113 0.68585 0.25873 0.0
C215 C 0.92972 0.56106 0.20656 0.0
C216 C 0.9625 0.5926 0.1789 0.0
H217 H 0.89274 0.55044 0.2731 0.0
H218 H 0.91211 0.52618 0.19244 0.0
C219 C 0.98466 0.63753 0.19841 0.0
C220 C 0.2449 0.05258 0.12947 0.0
C221 C 0.23256 0.10136 0.12156 0.0
H222 H 0.29873 -0.00079 0.12006 0.0
C223 C 0.26548 0.13254 0.09347 0.0
H224 H 0.22017 0.02664 0.14949 0.0
C225 C 0.30967 0.11584 0.07492 0.0
C226 C 0.32282 0.068 0.08493 0.0
H227 H 0.25831 0.17056 0.08698 0.0
H228 H 0.33478 0.14122 0.05461 0.0
C229 C 0.28975 0.03645 0.11205 0.0
C230 C 0.25855 0.96185 0.57841 0.0
C231 C 0.2859 -0.00165 0.60683 0.0
H232 H 0.19093 0.94116 0.53808 0.0
C233 C 0.26721 0.04464 0.61251 0.0
H234 H 0.27176 0.92558 0.57354 0.0
C235 C 0.22105 0.05388 0.59121 0.0
C236 C 0.1926 0.01628 0.56511 0.0
H237 H 0.28765 0.07299 0.63446 0.0
H238 H 0.20636 0.08932 0.59719 0.0
C239 C 0.21216 0.97061 0.55821 0.0
C240 C 0.73536 0.44274 0.02575 0.0
C241 C 0.70875 0.44924 0.98342 0.0
H242 H 0.80646 0.45408 0.0631 0.0
C243 C 0.7349 0.47238 0.94544 0.0
H244 H 0.71624 0.42514 0.05563 0.0
C245 C 0.78609 0.48939 0.94983 0.0
C246 C 0.81273 0.48302 0.99206 0.0
H247 H 0.71607 0.47666 0.91181 0.0
H248 H 0.80493 0.50694 0.91976 0.0
C249 C 0.78694 0.45937 0.03 0.0
C250 C 0.76489 0.56924 0.47815 0.0
C251 C 0.78376 0.61969 0.48003 0.0
H252 H 0.70239 0.51502 0.492 0.0
C253 C 0.75438 0.65355 0.5024 0.0
H254 H 0.78663 0.54175 0.4624 0.0
C255 C 0.70721 0.63766 0.52117 0.0
C256 C 0.68753 0.58797 0.51662 0.0
H257 H 0.76638 0.69288 0.50368 0.0
H258 H 0.68486 0.66479 0.53681 0.0
C259 C 0.71687 0.55373 0.49551 0.0
C260 C 0.10785 0.30742 0.03468 0.0
C261 C 0.08701 0.28125 0.07328 0.0
H262 H 0.10757 0.37182 0.99149 0.0
C263 C 0.04615 0.29948 0.09694 0.0
H264 H 0.13931 0.29398 0.01608 0.0
C265 C 0.0278 0.34399 0.08303 0.0
C266 C 0.04996 0.37132 0.04532 0.0
H267 H 0.02913 0.28007 0.12689 0.0
H268 H 0.99718 0.35762 0.10271 0.0
C269 C 0.08963 0.35196 0.02078 0.0
C270 C 0.58608 0.2884 0.0347 0.0
C271 C 0.57098 0.30949 0.99231 0.0
H272 H 0.58678 0.22258 0.07584 0.0
C273 C 0.5427 0.27902 0.95896 0.0
H274 H 0.6073 0.31084 0.06139 0.0
C275 C 0.53001 0.22878 0.96773 0.0
C276 C 0.5463 0.20764 0.0095 0.0
H277 H 0.53153 0.29345 0.92533 0.0
H278 H 0.50873 0.20621 0.94115 0.0
C279 C 0.57425 0.23789 0.04302 0.0
C280 C 0.94202 0.76802 0.49979 0.0
C281 C 0.92275 0.75414 0.45488 0.0
H282 H 0.97523 0.82717 0.54404 0.0
C283 C 0.92264 0.78994 0.41933 0.0
H284 H 0.94233 0.74094 0.52767 0.0
C285 C 0.94087 0.83903 0.42859 0.0
C286 C 0.95998 0.85321 0.47352 0.0
H287 H 0.90729 0.78016 0.38453 0.0
H288 H 0.93965 0.86592 0.40062 0.0
C289 C 0.96096 0.81718 0.50895 0.0
C290 C 0.41418 0.78056 0.62283 0.0
C291 C 0.45187 0.8121 0.64652 0.0
H292 H 0.3946 0.71183 0.58676 0.0
C293 C 0.5003 0.79586 0.65289 0.0
H294 H 0.376 0.79113 0.61836 0.0
C295 C 0.51091 0.74953 0.635 0.0
C296 C 0.47328 0.71865 0.61037 0.0
H297 H 0.53013 0.81925 0.67092 0.0
H298 H 0.54861 0.73803 0.64029 0.0
C299 C 0.42481 0.73481 0.60473 0.0
C300 C 0.99251 0.94275 0.76061 0.0
C301 C 0.94585 0.94931 0.78178 0.0
H302 H 0.03914 0.9541 0.69978 0.0
C303 C 0.91033 0.97451 0.75609 0.0
H304 H 0.02125 0.92439 0.77923 0.0
C305 C 0.92128 0.99288 0.71101 0.0
C306 C 0.96751 0.98551 0.68978 0.0
H307 H 0.87336 0.9793 0.77026 0.0
H308 H 0.89285 0.01152 0.6922 0.0
C309 C 0.00299 0.96023 0.7151 0.0
C310 C 0.62905 0.08327 0.2752 0.0
C311 C 0.59402 0.08313 0.31194 0.0
H312 H 0.64064 0.07253 0.20159 0.0
C313 C 0.54241 0.06921 0.302 0.0
H314 H 0.66897 0.09443 0.28173 0.0
C315 C 0.52611 0.05628 0.256 0.0
C316 C 0.56103 0.05796 0.21899 0.0
H317 H 0.51467 0.06878 0.32974 0.0
H318 H 0.48603 0.04632 0.24924 0.0
C319 C 0.61272 0.07112 0.22923 0.0
C320 C 0.45874 0.56755 0.30148 0.0
C321 C 0.40739 0.57457 0.29325 0.0
H322 H 0.51655 0.55698 0.35299 0.0
C323 C 0.37428 0.57436 0.33119 0.0
H324 H 0.48504 0.56744 0.27259 0.0
C325 C 0.3925 0.56979 0.37714 0.0
C326 C 0.44403 0.56409 0.38564 0.0
H327 H 0.33473 0.57994 0.32531 0.0
H328 H 0.36625 0.57079 0.40602 0.0
C329 C 0.47677 0.56178 0.34737 0.0
C330 C 0.01402 0.50359 0.75214 0.0
C331 C 0.06466 0.51398 0.73813 0.0
H332 H 0.9622 0.5011 0.80964 0.0
C333 C 0.10142 0.53335 0.77081 0.0
H334 H 0.98498 0.48851 0.72734 0.0
C335 C 0.08887 0.53913 0.81783 0.0
C336 C 0.03888 0.52668 0.8325 0.0
H337 H 0.14057 0.54119 0.76034 0.0
H338 H 0.11844 0.55255 0.84285 0.0
C339 C 0.00112 0.51051 0.79909 0.0
C340 C 0.76971 0.00262 0.97468 0.0
C341 C 0.78 0.95282 0.97916 0.0
H342 H 0.71562 0.0557 0.98567 0.0
C343 C 0.74496 0.91909 0.00142 0.0
H344 H 0.79641 0.02943 0.95773 0.0
C345 C 0.69862 0.93366 0.01616 0.0
C346 C 0.68723 0.98277 0.01011 0.0
H347 H 0.75244 0.88067 0.00505 0.0
H348 H 0.67115 0.90623 0.03136 0.0
C349 C 0.72373 0.01764 0.99071 0.0
C350 C 0.7392 0.09287 0.48745 0.0
C351 C 0.72729 0.09448 0.43901 0.0
H352 H 0.79521 0.08007 0.54028 0.0
C353 C 0.76464 0.08422 0.40648 0.0
H354 H 0.71137 0.10028 0.51353 0.0
C355 C 0.81199 0.07176 0.42173 0.0
C356 C 0.82397 0.07008 0.47001 0.0
H357 H 0.75777 0.08657 0.3689 0.0
H358 H 0.83962 0.06435 0.39543 0.0
C359 C 0.78715 0.08103 0.50279 0.0
C360 C 0.27675 0.58874 0.05276 0.0
C361 C 0.28483 0.61354 0.09609 0.0
H362 H 0.22225 0.5611 0.0001 0.0
C363 C 0.2438 0.63068 0.1198 0.0
H364 H 0.30836 0.57613 0.03371 0.0
C365 C 0.19502 0.62344 0.10021 0.0
C366 C 0.18653 0.59835 0.05688 0.0
H367 H 0.24976 0.65069 0.15294 0.0
H368 H 0.16391 0.63699 0.11927 0.0
C369 C 0.22776 0.58062 0.03351 0.0
C370 C 0.24135 0.41593 0.58532 0.0
C371 C 0.20579 0.44987 0.57547 0.0
H372 H 0.31994 0.4042 0.59248 0.0
C373 C 0.223 0.49859 0.56316 0.0
H374 H 0.22894 0.37829 0.59563 0.0
C375 C 0.27482 0.5135 0.56163 0.0
C376 C 0.3106 0.48005 0.57272 0.0
H377 H 0.19627 0.5254 0.55545 0.0
H378 H 0.28672 0.55157 0.55242 0.0
C379 C 0.29336 0.43093 0.5841 0.0
C380 C 0.94398 0.77523 0.88099 0.0
C381 C 0.9537 0.81855 0.90841 0.0
H382 H 0.94342 0.69614 0.87789 0.0
C383 C 0.9738 0.81481 0.95427 0.0
H384 H 0.92798 0.77691 0.84577 0.0
C385 C 0.98299 0.7686 0.9727 0.0
C386 C 0.97136 0.72497 0.94597 0.0
H387 H 0.98162 0.84766 0.9762 0.0
H388 H -0.00218 0.76695 0.00836 0.0
C389 C 0.95234 0.72894 0.89967 0.0
C390 C 0.43294 0.77523 0.14314 0.0
C391 C 0.43011 0.73942 0.1069 0.0
H392 H 0.44707 0.8521 0.16154 0.0
C393 C 0.44145 0.7538 0.06066 0.0
H394 H 0.42338 0.76486 0.17897 0.0
C395 C 0.45531 0.80359 0.05074 0.0
C396 C 0.45681 0.83968 0.08681 0.0
H397 H 0.4389 0.72667 0.03227 0.0
H398 H 0.46356 0.81399 0.01466 0.0
C399 C 0.44583 0.82506 0.13312 0.0
C400 C 0.06489 0.30291 0.52284 0.0
C401 C 0.0551 0.32409 0.56665 0.0
H402 H 0.06215 0.23671 0.48114 0.0
C403 C 0.02914 0.29436 0.60087 0.0
H404 H 0.08388 0.325 0.49545 0.0
C405 C 0.01582 0.2439 0.59232 0.0
C406 C 0.02906 0.22227 0.5498 0.0
H407 H 0.02161 0.30927 0.63529 0.0
H408 H -0.00213 0.22137 0.61996 0.0
C409 C 0.05237 0.25242 0.51464 0.0
C410 C 0.57277 0.28056 0.5412 0.0
C411 C 0.57308 0.26581 0.49372 0.0
H412 H 0.55598 0.33704 0.59074 0.0
C413 C 0.55501 0.29693 0.45916 0.0
H414 H 0.58671 0.25716 0.56825 0.0
C415 C 0.53851 0.34247 0.47171 0.0
C416 C 0.53877 0.35771 0.51911 0.0
H417 H 0.55507 0.28683 0.42217 0.0
H418 H 0.52603 0.36612 0.44412 0.0
C419 C 0.55506 0.32595 0.55397 0.0
loop_
_geom_bond_atom_site_label_1
_geom_bond_atom_site_label_2
_geom_bond_distance
_geom_bond_site_symmetry_2
_ccdc_geom_bond_type
H0 C5 0.929 . S
H1 C10 0.931 . S
H2 C8 0.930 . S
N3 N4 1.234 . S
N3 C7 1.453 . S
N4 N3 1.234 . S
C5 H0 0.929 . S
C5 C6 1.373 . S
C5 C7 1.368 . S
C6 C5 1.373 . S
C6 C10 1.397 . S
C7 N3 1.453 . S
C7 C5 1.368 . S
C7 C8 1.373 . S
C8 H2 0.930 . S
C8 C7 1.373 . S
C8 C9 1.371 . S
C9 C8 1.371 . S
C9 C10 1.383 . S
C10 H1 0.931 . S
C10 C6 1.397 . S
C10 C9 1.383 . S
H11 C16 0.929 . S
H12 C21 0.931 . S
H13 C19 0.930 . S
N14 N15 1.234 . S
N14 C18 1.453 . S
N15 N14 1.234 . S
C16 H11 0.929 . S
C16 C17 1.373 . S
C16 C18 1.368 . S
C17 C16 1.373 . S
C17 C21 1.397 . S
C18 N14 1.453 . S
C18 C16 1.368 . S
C18 C19 1.373 . S
C19 H13 0.930 . S
C19 C18 1.373 . S
C19 C20 1.371 . S
C20 C19 1.371 . S
C20 C21 1.383 . S
C21 H12 0.931 . S
C21 C17 1.397 . S
C21 C20 1.383 . S
H22 C27 0.929 . S
H23 C32 0.927 1_554 S
H24 C30 0.930 . S
N25 N26 1.234 . S
N25 C29 1.453 . S
N26 N25 1.234 . S
C27 H22 0.929 . S
C27 C28 1.373 . S
C27 C29 1.368 . S
C28 C27 1.373 . S
C28 C32 1.397 . S
C29 N25 1.453 . S
C29 C27 1.368 . S
C29 C30 1.373 . S
C30 H24 0.930 . S
C30 C29 1.373 . S
C30 C31 1.371 . S
C31 C30 1.371 . S
C31 C32 1.383 . S
C32 H23 0.927 1_556 S
C32 C28 1.397 . S
C32 C31 1.383 . S
H33 C38 0.929 . S
H34 C43 0.931 . S
H35 C41 0.930 . S
N36 N37 1.234 . S
N36 C40 1.453 . S
N37 N36 1.234 . S
C38 H33 0.929 . S
C38 C39 1.373 . S
C38 C40 1.368 . S
C39 C38 1.373 . S
C39 C43 1.397 . S
C40 N36 1.453 . S
C40 C38 1.368 . S
C40 C41 1.373 . S
C41 H35 0.930 . S
C41 C40 1.373 . S
C41 C42 1.371 . S
C42 C41 1.371 . S
C42 C43 1.383 . S
C43 H34 0.931 . S
C43 C39 1.397 . S
C43 C42 1.383 . S
H44 C49 0.929 . S
H45 C54 0.931 . S
H46 C52 0.930 . S
N47 N48 1.234 1_545 S
N47 C51 1.453 1_545 S
N48 N47 1.234 1_565 S
C49 H44 0.929 . S
C49 C50 1.373 1_545 S
C49 C51 1.368 1_545 S
C50 C49 1.373 1_565 S
C50 C54 1.397 . S
C51 N47 1.453 1_565 S
C51 C49 1.368 1_565 S
C51 C52 1.373 . S
C52 H46 0.930 . S
C52 C51 1.373 . S
C52 C53 1.371 . S
C53 C52 1.371 . S
C53 C54 1.383 . S
C54 H45 0.931 . S
C54 C50 1.397 . S
C54 C53 1.383 . S
H55 C60 0.929 . S
H56 C65 0.931 . S
H57 C63 0.930 . S
N58 N59 1.234 . S
N58 C62 1.453 . S
N59 N58 1.234 . S
C60 H55 0.929 . S
C60 C61 1.373 . S
C60 C62 1.368 . S
C61 C60 1.373 . S
C61 C65 1.397 . S
C62 N58 1.453 . S
C62 C60 1.368 . S
C62 C63 1.373 . S
C63 H57 0.930 . S
C63 C62 1.373 . S
C63 C64 1.371 . S
C64 C63 1.371 . S
C64 C65 1.383 . S
C65 H56 0.931 . S
C65 C61 1.397 . S
C65 C64 1.383 . S
H66 C71 0.929 . S
H67 C76 0.931 . S
H68 C74 0.930 . S
N69 N70 1.234 . S
N69 C73 1.453 . S
N70 N69 1.234 . S
C71 H66 0.929 . S
C71 C72 1.373 . S
C71 C73 1.368 . S
C72 C71 1.373 . S
C72 C76 1.397 . S
C73 N69 1.453 . S
C73 C71 1.368 . S
C73 C74 1.373 . S
C74 H68 0.930 . S
C74 C73 1.373 . S
C74 C75 1.371 . S
C75 C74 1.371 . S
C75 C76 1.383 . S
C76 H67 0.931 . S
C76 C72 1.397 . S
C76 C75 1.383 . S
H77 C82 0.929 . S
H78 C87 0.931 . S
H79 C85 0.930 . S
N80 N81 1.234 . S
N80 C84 1.453 . S
N81 N80 1.234 . S
C82 H77 0.929 . S
C82 C83 1.373 . S
C82 C84 1.368 . S
C83 C82 1.373 . S
C83 C87 1.397 . S
C84 N80 1.453 . S
C84 C82 1.368 . S
C84 C85 1.373 . S
C85 H79 0.930 . S
C85 C84 1.373 . S
C85 C86 1.371 . S
C86 C85 1.371 . S
C86 C87 1.383 . S
C87 H78 0.931 . S
C87 C83 1.397 . S
C87 C86 1.383 . S
O88 Zn89 1.953 . S
O88 C104 1.225 1_655 S
Zn89 O88 1.953 . S
Zn89 O90 1.949 1_655 S
Zn89 O96 1.919 . S
Zn89 O101 1.924 . S
O90 Zn89 1.949 1_455 S
O90 Zn91 1.923 1_455 S
O90 Zn92 1.950 . S
O90 Zn93 1.945 1_545 S
Zn91 O90 1.923 1_655 S
Zn91 O94 1.933 1_545 S
Zn91 O97 1.941 . S
Zn91 O98 1.965 1_655 S
Zn92 O90 1.950 . S
Zn92 O99 1.938 . S
Zn92 O100 1.906 . S
Zn92 O110 1.953 . S
Zn93 O90 1.945 1_565 S
Zn93 O95 1.932 1_455 S
Zn93 O102 1.977 . S
Zn93 O103 1.910 1_455 S
O94 Zn91 1.933 1_565 S
O94 C105 1.226 . S
O95 Zn93 1.932 1_655 S
O95 C105 1.307 . S
O96 Zn89 1.919 . S
O96 C107 1.253 . S
O97 Zn91 1.941 . S
O97 C107 1.283 . S
O98 Zn91 1.965 1_455 S
O98 C106 1.303 . S
O99 Zn92 1.938 . S
O99 C106 1.247 . S
O100 Zn92 1.906 . S
O100 C108 1.304 1_545 S
O101 Zn89 1.924 . S
O101 C109 1.311 . S
O102 Zn93 1.977 . S
O102 C108 1.272 . S
O103 Zn93 1.910 1_655 S
O103 C109 1.231 1_565 S
C104 O88 1.225 1_455 S
C104 O110 1.298 . S
C105 O94 1.226 . S
C105 O95 1.307 . S
C106 O98 1.303 . S
C106 O99 1.247 . S
C107 O96 1.253 . S
C107 O97 1.283 . S
C108 O100 1.304 1_565 S
C108 O102 1.272 . S
C109 O101 1.311 . S
C109 O103 1.231 1_545 S
O110 Zn92 1.953 . S
O110 C104 1.298 . S
O111 Zn112 1.953 1_556 S
O111 C127 1.225 1_556 S
Zn112 O111 1.953 1_554 S
Zn112 O113 1.949 . S
Zn112 O119 1.919 1_554 S
Zn112 O124 1.924 . S
O113 Zn112 1.949 . S
O113 Zn114 1.923 1_545 S
O113 Zn115 1.950 . S
O113 Zn116 1.945 . S
Zn114 O113 1.923 1_565 S
Zn114 O117 1.933 . S
Zn114 O120 1.941 1_554 S
Zn114 O121 1.965 . S
Zn115 O113 1.950 . S
Zn115 O122 1.938 . S
Zn115 O123 1.906 . S
Zn115 O133 1.953 . S
Zn116 O113 1.945 . S
Zn116 O118 1.932 1_545 S
Zn116 O125 1.977 . S
Zn116 O126 1.910 . S
O117 Zn114 1.933 . S
O117 C128 1.226 . S
O118 Zn116 1.932 1_565 S
O118 C128 1.307 . S
O119 Zn112 1.919 1_556 S
O119 C130 1.253 1_545 S
O120 Zn114 1.941 1_556 S
O120 C130 1.283 . S
O121 Zn114 1.965 . S
O121 C129 1.303 1_565 S
O122 Zn115 1.938 . S
O122 C129 1.247 . S
O123 Zn115 1.906 . S
O123 C131 1.304 . S
O124 Zn112 1.924 . S
O124 C132 1.311 . S
O125 Zn116 1.977 . S
O125 C131 1.272 . S
O126 Zn116 1.910 . S
O126 C132 1.231 . S
C127 O111 1.225 1_554 S
C127 O133 1.298 . S
C128 O117 1.226 . S
C128 O118 1.307 . S
C129 O121 1.303 1_545 S
C129 O122 1.247 . S
C130 O119 1.253 1_565 S
C130 O120 1.283 . S
C131 O123 1.304 . S
C131 O125 1.272 . S
C132 O124 1.311 . S
C132 O126 1.231 . S
O133 Zn115 1.953 . S
O133 C127 1.298 . S
O134 Zn135 1.953 . S
O134 C150 1.225 . S
Zn135 O134 1.953 . S
Zn135 O136 1.949 . S
Zn135 O142 1.919 . S
Zn135 O147 1.924 . S
O136 Zn135 1.949 . S
O136 Zn137 1.923 . S
O136 Zn138 1.950 . S
O136 Zn139 1.945 . S
Zn137 O136 1.923 . S
Zn137 O140 1.933 . S
Zn137 O143 1.941 . S
Zn137 O144 1.965 . S
Zn138 O136 1.950 . S
Zn138 O145 1.938 . S
Zn138 O146 1.906 . S
Zn138 O156 1.953 . S
Zn139 O136 1.945 . S
Zn139 O141 1.932 . S
Zn139 O148 1.977 . S
Zn139 O149 1.910 . S
O140 Zn137 1.933 . S
O140 C151 1.226 . S
O141 Zn139 1.932 . S
O141 C151 1.307 . S
O142 Zn135 1.919 . S
O142 C153 1.253 . S
O143 Zn137 1.941 . S
O143 C153 1.283 . S
O144 Zn137 1.965 . S
O144 C152 1.303 . S
O145 Zn138 1.938 . S
O145 C152 1.247 . S
O146 Zn138 1.906 . S
O146 C154 1.304 . S
O147 Zn135 1.924 . S
O147 C155 1.311 . S
O148 Zn139 1.977 . S
O148 C154 1.272 . S
O149 Zn139 1.910 . S
O149 C155 1.231 . S
C150 O134 1.225 . S
C150 O156 1.298 . S
C151 O140 1.226 . S
C151 O141 1.307 . S
C152 O144 1.303 . S
C152 O145 1.247 . S
C153 O142 1.253 . S
C153 O143 1.283 . S
C154 O146 1.304 . S
C154 O148 1.272 . S
C155 O147 1.311 . S
C155 O149 1.231 . S
O156 Zn138 1.953 . S
O156 C150 1.298 . S
O157 Zn158 1.953 . S
O157 C173 1.225 . S
Zn158 O157 1.953 . S
Zn158 O159 1.949 1_655 S
Zn158 O165 1.919 . S
Zn158 O170 1.924 . S
O159 Zn158 1.949 1_455 S
O159 Zn160 1.923 1_454 S
O159 Zn161 1.950 . S
O159 Zn162 1.945 1_554 S
Zn160 O159 1.923 1_656 S
Zn160 O163 1.933 1_655 S
Zn160 O166 1.941 . S
Zn160 O167 1.965 . S
Zn161 O159 1.950 . S
Zn161 O168 1.938 . S
Zn161 O169 1.906 . S
Zn161 O179 1.953 . S
Zn162 O159 1.945 1_556 S
Zn162 O164 1.932 . S
Zn162 O171 1.977 1_556 S
Zn162 O172 1.910 1_556 S
O163 Zn160 1.933 1_455 S
O163 C174 1.226 . S
O164 Zn162 1.932 . S
O164 C174 1.307 . S
O165 Zn158 1.919 . S
O165 C176 1.253 1_554 S
O166 Zn160 1.941 . S
O166 C176 1.283 . S
O167 Zn160 1.965 . S
O167 C175 1.303 . S
O168 Zn161 1.938 . S
O168 C175 1.247 1_454 S
O169 Zn161 1.906 . S
O169 C177 1.304 . S
O170 Zn158 1.924 . S
O170 C178 1.311 1_655 S
O171 Zn162 1.977 1_554 S
O171 C177 1.272 . S
O172 Zn162 1.910 1_554 S
O172 C178 1.231 . S
C173 O157 1.225 . S
C173 O179 1.298 1_655 S
C174 O163 1.226 . S
C174 O164 1.307 . S
C175 O167 1.303 . S
C175 O168 1.247 1_656 S
C176 O165 1.253 1_556 S
C176 O166 1.283 . S
C177 O169 1.304 . S
C177 O171 1.272 . S
C178 O170 1.311 1_455 S
C178 O172 1.231 . S
O179 Zn161 1.953 . S
O179 C173 1.298 1_455 S
C180 C181 1.387 . S
C180 H184 0.950 . S
C180 C189 1.390 . S
C181 C180 1.387 . S
C181 C183 1.387 . S
H182 C189 0.950 . S
C183 C181 1.387 . S
C183 C185 1.390 . S
C183 H187 0.950 . S
H184 C180 0.950 . S
C185 C183 1.390 . S
C185 C186 1.387 . S
C185 H188 0.950 . S
C186 C185 1.387 . S
C186 C189 1.387 . S
H187 C183 0.950 . S
H188 C185 0.950 . S
C189 C180 1.390 . S
C189 H182 0.950 . S
C189 C186 1.387 . S
C190 C191 1.387 . S
C190 H194 0.950 . S
C190 C199 1.390 . S
C191 C190 1.387 . S
C191 C193 1.387 . S
H192 C199 0.950 . S
C193 C191 1.387 . S
C193 C195 1.390 . S
C193 H197 0.950 . S
H194 C190 0.950 . S
C195 C193 1.390 . S
C195 C196 1.387 . S
C195 H198 0.950 1_565 S
C196 C195 1.387 . S
C196 C199 1.387 . S
H197 C193 0.950 . S
H198 C195 0.950 1_545 S
C199 C190 1.390 . S
C199 H192 0.950 . S
C199 C196 1.387 . S
C200 C201 1.387 . S
C200 H204 0.950 . S
C200 C209 1.390 . S
C201 C200 1.387 . S
C201 C203 1.387 . S
H202 C209 0.950 . S
C203 C201 1.387 . S
C203 C205 1.390 . S
C203 H207 0.950 . S
H204 C200 0.950 . S
C205 C203 1.390 . S
C205 C206 1.387 . S
C205 H208 0.950 . S
C206 C205 1.387 . S
C206 C209 1.387 . S
H207 C203 0.950 . S
H208 C205 0.950 . S
C209 C200 1.390 . S
C209 H202 0.950 . S
C209 C206 1.387 . S
C210 C211 1.387 . S
C210 H214 0.950 . S
C210 C219 1.390 . S
C211 C210 1.387 . S
C211 C213 1.387 . S
H212 C219 0.950 . S
C213 C211 1.387 . S
C213 C215 1.390 . S
C213 H217 0.950 . S
H214 C210 0.950 . S
C215 C213 1.390 . S
C215 C216 1.387 . S
C215 H218 0.950 . S
C216 C215 1.387 . S
C216 C219 1.387 . S
H217 C213 0.950 . S
H218 C215 0.950 . S
C219 C210 1.390 . S
C219 H212 0.950 . S
C219 C216 1.387 . S
C220 C221 1.387 . S
C220 H224 0.950 . S
C220 C229 1.390 . S
C221 C220 1.387 . S
C221 C223 1.387 . S
H222 C229 0.950 . S
C223 C221 1.387 . S
C223 C225 1.390 . S
C223 H227 0.950 . S
H224 C220 0.950 . S
C225 C223 1.390 . S
C225 C226 1.387 . S
C225 H228 0.950 . S
C226 C225 1.387 . S
C226 C229 1.387 . S
H227 C223 0.950 . S
H228 C225 0.950 . S
C229 C220 1.390 . S
C229 H222 0.950 . S
C229 C226 1.387 . S
C230 C231 1.387 . S
C230 H234 0.950 . S
C230 C239 1.390 . S
C231 C230 1.387 . S
C231 C233 1.387 . S
H232 C239 0.950 . S
C233 C231 1.387 . S
C233 C235 1.389 1_565 S
C233 H237 0.950 1_565 S
H234 C230 0.950 . S
C235 C233 1.389 1_545 S
C235 C236 1.384 1_545 S
C235 H238 0.954 . S
C236 C235 1.384 1_565 S
C236 C239 1.387 . S
H237 C233 0.950 1_545 S
H238 C235 0.954 . S
C239 C230 1.390 . S
C239 H232 0.950 . S
C239 C236 1.387 . S
C240 C241 1.387 . S
C240 H244 0.950 1_556 S
C240 C249 1.390 . S
C241 C240 1.387 . S
C241 C243 1.387 . S
H242 C249 0.950 1_554 S
C243 C241 1.387 . S
C243 C245 1.390 . S
C243 H247 0.950 . S
H244 C240 0.950 1_554 S
C245 C243 1.390 . S
C245 C246 1.387 . S
C245 H248 0.950 . S
C246 C245 1.387 . S
C246 C249 1.387 . S
H247 C243 0.950 . S
H248 C245 0.950 . S
C249 C240 1.390 . S
C249 H242 0.950 1_556 S
C249 C246 1.387 . S
C250 C251 1.387 . S
C250 H254 0.950 . S
C250 C259 1.390 . S
C251 C250 1.387 . S
C251 C253 1.387 . S
H252 C259 0.950 . S
C253 C251 1.387 . S
C253 C255 1.390 . S
C253 H257 0.950 . S
H254 C250 0.950 . S
C255 C253 1.390 . S
C255 C256 1.387 . S
C255 H258 0.950 . S
C256 C255 1.387 . S
C256 C259 1.387 . S
H257 C253 0.950 . S
H258 C255 0.950 . S
C259 C250 1.390 . S
C259 H252 0.950 . S
C259 C256 1.387 . S
C260 C261 1.387 . S
C260 H264 0.950 . S
C260 C269 1.390 . S
C261 C260 1.387 . S
C261 C263 1.387 . S
H262 C269 0.950 . S
C263 C261 1.387 . S
C263 C265 1.390 . S
C263 H267 0.950 . S
H264 C260 0.950 . S
C265 C263 1.390 . S
C265 C266 1.387 . S
C265 H268 0.950 . S
C266 C265 1.387 . S
C266 C269 1.387 . S
H267 C263 0.950 . S
H268 C265 0.950 . S
C269 C260 1.390 . S
C269 H262 0.950 . S
C269 C266 1.387 . S
C270 C271 1.387 1_554 S
C270 H274 0.950 . S
C270 C279 1.390 . S
C271 C270 1.387 1_556 S
C271 C273 1.387 . S
H272 C279 0.950 . S
C273 C271 1.387 . S
C273 C275 1.390 . S
C273 H277 0.950 . S
H274 C270 0.950 . S
C275 C273 1.390 . S
C275 C276 1.387 . S
C275 H278 0.950 . S
C276 C275 1.387 . S
C276 C279 1.387 1_556 S
H277 C273 0.950 . S
H278 C275 0.950 . S
C279 C270 1.390 . S
C279 H272 0.950 . S
C279 C276 1.387 1_554 S
C280 C281 1.387 . S
C280 H284 0.950 . S
C280 C289 1.390 . S
C281 C280 1.387 . S
C281 C283 1.387 . S
H282 C289 0.950 . S
C283 C281 1.387 . S
C283 C285 1.390 . S
C283 H287 0.950 . S
H284 C280 0.950 . S
C285 C283 1.390 . S
C285 C286 1.387 . S
C285 H288 0.950 . S
C286 C285 1.387 . S
C286 C289 1.387 . S
H287 C283 0.950 . S
H288 C285 0.950 . S
C289 C280 1.390 . S
C289 H282 0.950 . S
C289 C286 1.387 . S
C290 C291 1.387 . S
C290 H294 0.950 . S
C290 C299 1.390 . S
C291 C290 1.387 . S
C291 C293 1.387 . S
H292 C299 0.950 . S
C293 C291 1.387 . S
C293 C295 1.390 . S
C293 H297 0.950 . S
H294 C290 0.950 . S
C295 C293 1.390 . S
C295 C296 1.387 . S
C295 H298 0.950 . S
C296 C295 1.387 . S
C296 C299 1.387 . S
H297 C293 0.950 . S
H298 C295 0.950 . S
C299 C290 1.390 . S
C299 H292 0.950 . S
C299 C296 1.387 . S
C300 C301 1.387 1_455 S
C300 H304 0.953 . S
C300 C309 1.388 1_565 S
C301 C300 1.387 1_655 S
C301 C303 1.387 . S
H302 C309 0.950 . S
C303 C301 1.387 . S
C303 C305 1.390 1_565 S
C303 H307 0.950 . S
H304 C300 0.953 . S
C305 C303 1.390 1_545 S
C305 C306 1.387 . S
C305 H308 0.950 . S
C306 C305 1.387 . S
C306 C309 1.387 1_655 S
H307 C303 0.950 . S
H308 C305 0.950 . S
C309 C300 1.388 1_545 S
C309 H302 0.950 . S
C309 C306 1.387 1_455 S
C310 C311 1.387 . S
C310 H314 0.950 . S
C310 C319 1.390 . S
C311 C310 1.387 . S
C311 C313 1.387 . S
H312 C319 0.950 . S
C313 C311 1.387 . S
C313 C315 1.390 . S
C313 H317 0.950 1_545 S
H314 C310 0.950 . S
C315 C313 1.390 . S
C315 C316 1.387 . S
C315 H318 0.950 1_545 S
C316 C315 1.387 . S
C316 C319 1.387 . S
H317 C313 0.950 1_565 S
H318 C315 0.950 1_565 S
C319 C310 1.390 . S
C319 H312 0.950 . S
C319 C316 1.387 . S
C320 C321 1.387 . S
C320 H324 0.950 . S
C320 C329 1.390 . S
C321 C320 1.387 . S
C321 C323 1.387 . S
H322 C329 0.950 . S
C323 C321 1.387 . S
C323 C325 1.390 . S
C323 H327 0.950 . S
H324 C320 0.950 . S
C325 C323 1.390 . S
C325 C326 1.387 . S
C325 H328 0.950 . S
C326 C325 1.387 . S
C326 C329 1.387 . S
H327 C323 0.950 . S
H328 C325 0.950 . S
C329 C320 1.390 . S
C329 H322 0.950 . S
C329 C326 1.387 . S
C330 C331 1.387 . S
C330 H334 0.950 . S
C330 C339 1.390 . S
C331 C330 1.387 . S
C331 C333 1.387 . S
H332 C339 0.950 . S
C333 C331 1.387 . S
C333 C335 1.390 . S
C333 H337 0.950 . S
H334 C330 0.950 . S
C335 C333 1.390 . S
C335 C336 1.387 . S
C335 H338 0.950 . S
C336 C335 1.387 . S
C336 C339 1.387 . S
H337 C333 0.950 . S
H338 C335 0.950 . S
C339 C330 1.390 . S
C339 H332 0.950 . S
C339 C336 1.387 . S
C340 C341 1.387 . S
C340 H344 0.950 . S
C340 C349 1.390 . S
C341 C340 1.387 . S
C341 C343 1.387 1_546 S
H342 C349 0.950 . S
C343 C341 1.387 1_564 S
C343 C345 1.390 . S
C343 H347 0.950 . S
H344 C340 0.950 . S
C345 C343 1.390 . S
C345 C346 1.387 1_565 S
C345 H348 0.950 . S
C346 C345 1.387 1_545 S
C346 C349 1.387 1_554 S
H347 C343 0.950 . S
H348 C345 0.950 . S
C349 C340 1.390 . S
C349 H342 0.950 . S
C349 C346 1.387 1_556 S
C350 C351 1.387 . S
C350 H354 0.950 . S
C350 C359 1.390 . S
C351 C350 1.387 . S
C351 C353 1.387 . S
H352 C359 0.950 . S
C353 C351 1.387 . S
C353 C355 1.390 . S
C353 H357 0.950 . S
H354 C350 0.950 . S
C355 C353 1.390 . S
C355 C356 1.387 . S
C355 H358 0.950 . S
C356 C355 1.387 . S
C356 C359 1.387 . S
H357 C353 0.950 . S
H358 C355 0.950 . S
C359 C350 1.390 . S
C359 H352 0.950 . S
C359 C356 1.387 . S
C360 C361 1.387 . S
C360 H364 0.950 . S
C360 C369 1.390 . S
C361 C360 1.387 . S
C361 C363 1.387 . S
H362 C369 0.950 1_556 S
C363 C361 1.387 . S
C363 C365 1.390 . S
C363 H367 0.950 . S
H364 C360 0.950 . S
C365 C363 1.390 . S
C365 C366 1.387 . S
C365 H368 0.950 . S
C366 C365 1.387 . S
C366 C369 1.387 . S
H367 C363 0.950 . S
H368 C365 0.950 . S
C369 C360 1.390 . S
C369 H362 0.950 1_554 S
C369 C366 1.387 . S
C370 C371 1.387 . S
C370 H374 0.950 . S
C370 C379 1.390 . S
C371 C370 1.387 . S
C371 C373 1.387 . S
H372 C379 0.950 . S
C373 C371 1.387 . S
C373 C375 1.390 . S
C373 H377 0.950 . S
H374 C370 0.950 . S
C375 C373 1.390 . S
C375 C376 1.387 . S
C375 H378 0.950 . S
C376 C375 1.387 . S
C376 C379 1.387 . S
H377 C373 0.950 . S
H378 C375 0.950 . S
C379 C370 1.390 . S
C379 H372 0.950 . S
C379 C376 1.387 . S
C380 C381 1.387 . S
C380 H384 0.950 . S
C380 C389 1.390 . S
C381 C380 1.387 . S
C381 C383 1.387 . S
H382 C389 0.950 . S
C383 C381 1.387 . S
C383 C385 1.390 1_556 S
C383 H387 0.950 1_656 S
H384 C380 0.950 . S
C385 C383 1.390 1_554 S
C385 C386 1.387 1_554 S
C385 H388 0.950 1_655 S
C386 C385 1.387 1_556 S
C386 C389 1.387 . S
H387 C383 0.950 1_454 S
H388 C385 0.950 1_455 S
C389 C380 1.390 . S
C389 H382 0.950 . S
C389 C386 1.387 . S
C390 C391 1.387 . S
C390 H394 0.950 . S
C390 C399 1.390 . S
C391 C390 1.387 . S
C391 C393 1.387 . S
H392 C399 0.950 . S
C393 C391 1.387 . S
C393 C395 1.390 . S
C393 H397 0.950 . S
H394 C390 0.950 . S
C395 C393 1.390 . S
C395 C396 1.387 . S
C395 H398 0.950 . S
C396 C395 1.387 . S
C396 C399 1.387 . S
H397 C393 0.950 . S
H398 C395 0.950 . S
C399 C390 1.390 . S
C399 H392 0.950 . S
C399 C396 1.387 . S
C400 C401 1.387 . S
C400 H404 0.950 . S
C400 C409 1.390 . S
C401 C400 1.387 . S
C401 C403 1.387 . S
H402 C409 0.950 . S
C403 C401 1.387 . S
C403 C405 1.390 . S
C403 H407 0.950 . S
H404 C400 0.950 . S
C405 C403 1.390 . S
C405 C406 1.387 . S
C405 H408 0.950 . S
C406 C405 1.387 . S
C406 C409 1.387 . S
H407 C403 0.950 . S
H408 C405 0.950 . S
C409 C400 1.390 . S
C409 H402 0.950 . S
C409 C406 1.387 . S
C410 C411 1.387 . S
C410 H414 0.950 . S
C410 C419 1.390 . S
C411 C410 1.387 . S
C411 C413 1.387 . S
H412 C419 0.950 . S
C413 C411 1.387 . S
C413 C415 1.390 . S
C413 H417 0.950 . S
H414 C410 0.950 . S
C415 C413 1.390 . S
C415 C416 1.387 . S
C415 H418 0.950 . S
C416 C415 1.387 . S
C416 C419 1.387 . S
H417 C413 0.950 . S
H418 C415 0.950 . S
C419 C410 1.390 . S
C419 H412 0.950 . S
C419 C416 1.387 . S
C181 C6 1.725 . S
C186 C106 1.686 . S
C191 C20 1.854 . S
C196 C130 1.789 . S
C206 C150 1.168 . S
C201 N26 1.152 . S
C211 N37 1.354 . S
C216 C173 1.385 . S
C226 C132 1.955 . S
C221 C9 1.991 . S
C236 C108 1.428 . S
C231 N15 1.515 . S
C246 C176 1.507 . S
C241 C31 1.569 . S
C256 C153 1.436 . S
C251 C39 1.474 . S
C261 N4 1.531 . S
C266 C178 1.473 . S
C276 C127 1.672 1_556 S
C271 C28 1.644 . S
C281 C42 1.406 . S
C286 C105 1.417 . S
C291 C17 1.598 . S
C296 C155 1.555 . S
C306 C109 1.860 . S
C301 C50 1.847 . S
C311 C61 1.640 . S
C316 C131 1.672 . S
C321 N70 1.564 . S
C326 C151 1.600 . S
C331 N81 1.430 . S
C336 C174 1.478 . S
C341 N48 1.416 1_545 S
C346 C129 1.421 . S
C356 C107 1.829 . S
C351 C64 1.810 . S
C366 C177 1.408 . S
C361 C75 1.470 . S
C376 C154 1.421 . S
C371 C86 1.429 . S
C381 C53 1.956 . S
C386 C175 1.919 . S
C396 C128 1.344 . S
C391 C72 1.326 . S
C406 C104 1.610 . S
C401 C83 1.591 . S
C411 N59 1.690 . S
C416 C152 1.676 . S
