# Generated by pormake.
# Topology ant, (3,6)-cn, num edge types: 1
# Building blocks:
#     Node 0, Type 0, BuildingBlock: ESEHIV_clean_linker_0, # of connection points: 3
#     Node 1, Type 0, BuildingBlock: ESEHIV_clean_linker_0, # of connection points: 3
#     Node 2, Type 0, BuildingBlock: ESEHIV_clean_linker_0, # of connection points: 3
#     Node 3, Type 0, BuildingBlock: ESEHIV_clean_linker_0, # of connection points: 3
#     Node 4, Type 0, BuildingBlock: ESEHIV_clean_linker_0, # of connection points: 3
#     Node 5, Type 0, BuildingBlock: ESEHIV_clean_linker_0, # of connection points: 3
#     Node 6, Type 0, BuildingBlock: ESEHIV_clean_linker_0, # of connection points: 3
#     Node 7, Type 0, BuildingBlock: ESEHIV_clean_linker_0, # of connection points: 3
#     Node 8, Type 1, BuildingBlock: MIDCAF_clean_sbu_0, # of connection points: 6
#     Node 9, Type 1, BuildingBlock: MIDCAF_clean_sbu_0, # of connection points: 6
#     Node 10, Type 1, BuildingBlock: MIDCAF_clean_sbu_0, # of connection points: 6
#     Node 11, Type 1, BuildingBlock: MIDCAF_clean_sbu_0, # of connection points: 6
#     Edge 12, Type (0, 1), BuildingBlock: ZUJKAS_clean_linker_0, # of connection points: 2
#     Edge 13, Type (0, 1), BuildingBlock: ZUJKAS_clean_linker_0, # of connection points: 2
#     Edge 14, Type (0, 1), BuildingBlock: ZUJKAS_clean_linker_0, # of connection points: 2
#     Edge 15, Type (0, 1), BuildingBlock: ZUJKAS_clean_linker_0, # of connection points: 2
#     Edge 16, Type (0, 1), BuildingBlock: ZUJKAS_clean_linker_0, # of connection points: 2
#     Edge 17, Type (0, 1), BuildingBlock: ZUJKAS_clean_linker_0, # of connection points: 2
#     Edge 18, Type (0, 1), BuildingBlock: ZUJKAS_clean_linker_0, # of connection points: 2
#     Edge 19, Type (0, 1), BuildingBlock: ZUJKAS_clean_linker_0, # of connection points: 2
#     Edge 20, Type (0, 1), BuildingBlock: ZUJKAS_clean_linker_0, # of connection points: 2
#     Edge 21, Type (0, 1), BuildingBlock: ZUJKAS_clean_linker_0, # of connection points: 2
#     Edge 22, Type (0, 1), BuildingBlock: ZUJKAS_clean_linker_0, # of connection points: 2
#     Edge 23, Type (0, 1), BuildingBlock: ZUJKAS_clean_linker_0, # of connection points: 2
#     Edge 24, Type (0, 1), BuildingBlock: ZUJKAS_clean_linker_0, # of connection points: 2
#     Edge 25, Type (0, 1), BuildingBlock: ZUJKAS_clean_linker_0, # of connection points: 2
#     Edge 26, Type (0, 1), BuildingBlock: ZUJKAS_clean_linker_0, # of connection points: 2
#     Edge 27, Type (0, 1), BuildingBlock: ZUJKAS_clean_linker_0, # of connection points: 2
#     Edge 28, Type (0, 1), BuildingBlock: ZUJKAS_clean_linker_0, # of connection points: 2
#     Edge 29, Type (0, 1), BuildingBlock: ZUJKAS_clean_linker_0, # of connection points: 2
#     Edge 30, Type (0, 1), BuildingBlock: ZUJKAS_clean_linker_0, # of connection points: 2
#     Edge 31, Type (0, 1), BuildingBlock: ZUJKAS_clean_linker_0, # of connection points: 2
#     Edge 32, Type (0, 1), BuildingBlock: ZUJKAS_clean_linker_0, # of connection points: 2
#     Edge 33, Type (0, 1), BuildingBlock: ZUJKAS_clean_linker_0, # of connection points: 2
#     Edge 34, Type (0, 1), BuildingBlock: ZUJKAS_clean_linker_0, # of connection points: 2
#     Edge 35, Type (0, 1), BuildingBlock: ZUJKAS_clean_linker_0, # of connection points: 2
# Relax obj value: 0.104
# Max RMSD: 0.160
# Mean RMSD: 0.105
data_MOF--net-ant--node1-MIDCAF_clean_sbu_0--node2-ESEHIV_clean_linker_0--edge1-ZUJKAS_clean_linker_0
_symmetry_space_group_name_H-M    P1
_symmetry_Int_Tables_number       1
_symmetry_cell_setting            triclinic
loop_
_symmetry_equiv_pos_as_xyz
'x, y, z'
_cell_length_a     34.650997
_cell_length_b     34.417419
_cell_length_c     94.855275
_cell_angle_alpha  90.23704
_cell_angle_beta   93.689568
_cell_angle_gamma 90.004661
loop_
_atom_site_label
_atom_site_type_symbol
_atom_site_fract_x
_atom_site_fract_y
_atom_site_fract_z
_atom_type_partial_charge
H0 H 0.18409 0.27126 0.04543 0.0
H1 H 0.22324 0.15347 0.04995 0.0
H2 H 0.24463 0.23456 0.08423 0.0
C3 C 0.19807 0.24872 0.05187 0.0
C4 C 0.2137 0.25773 0.06554 0.0
C5 C 0.20146 0.21128 0.04616 0.0
C6 C 0.22117 0.18263 0.05421 0.0
C7 C 0.23682 0.19073 0.06794 0.0
C8 C 0.23286 0.22832 0.0736 0.0
H9 H 0.99605 0.81039 0.29054 0.0
H10 H 0.11916 0.82578 0.29559 0.0
H11 H 0.05179 0.82565 0.33209 0.0
C12 C 0.02191 0.81604 0.29728 0.0
C13 C 0.01928 0.81876 0.31199 0.0
C14 C 0.05779 0.81837 0.29126 0.0
C15 C 0.09134 0.82412 0.30015 0.0
C16 C 0.08961 0.82638 0.31489 0.0
C17 C 0.0534 0.82364 0.32074 0.0
H18 H 0.70257 0.76255 0.54042 0.0
H19 H 0.72421 0.64258 0.5501 0.0
H20 H 0.75343 0.73059 0.58136 0.0
C21 C 0.71335 0.74045 0.54777 0.0
C22 C 0.72785 0.75142 0.5614 0.0
C23 C 0.71226 0.70128 0.54356 0.0
C24 C 0.72625 0.67293 0.55314 0.0
C25 C 0.74149 0.68302 0.56676 0.0
C26 C 0.74172 0.72242 0.5709 0.0
H27 H 0.50596 0.30562 0.78786 0.0
H28 H 0.62961 0.31519 0.79111 0.0
H29 H 0.56668 0.31818 0.82873 0.0
C30 C 0.53265 0.30989 0.79427 0.0
C31 C 0.53172 0.31312 0.80905 0.0
C32 C 0.56781 0.31014 0.78773 0.0
C33 C 0.60242 0.31394 0.79614 0.0
C34 C 0.60252 0.3163 0.81094 0.0
C35 C 0.56693 0.31629 0.81734 0.0
H36 H 0.04112 0.65622 0.94366 0.0
H37 H 0.06711 0.77563 0.95314 0.0
H38 H 0.02492 0.74229 0.91108 0.0
C39 C 0.04151 0.68632 0.94035 0.0
C40 C 0.03002 0.69593 0.92632 0.0
C41 C 0.05528 0.71475 0.95003 0.0
C42 C 0.05752 0.75347 0.94556 0.0
C43 C 0.04682 0.76391 0.93151 0.0
C44 C 0.03298 0.73482 0.92195 0.0
H45 H 0.63266 0.82308 0.19999 0.0
H46 H 0.75475 0.80033 0.2047 0.0
H47 H 0.69929 0.81805 0.16329 0.0
C48 C 0.66027 0.81955 0.19537 0.0
C49 C 0.66205 0.82206 0.18066 0.0
C50 C 0.69344 0.81131 0.20413 0.0
C51 C 0.72905 0.80722 0.19805 0.0
C52 C 0.7315 0.80971 0.18336 0.0
C53 C 0.69771 0.81645 0.17465 0.0
H54 H 0.51497 0.14836 0.44346 0.0
H55 H 0.5491 0.26677 0.45168 0.0
H56 H 0.49702 0.2338 0.41085 0.0
C57 C 0.5166 0.17834 0.44007 0.0
C58 C 0.50348 0.18799 0.42624 0.0
C59 C 0.53339 0.20638 0.44931 0.0
C60 C 0.53633 0.24489 0.44459 0.0
C61 C 0.52326 0.25533 0.43075 0.0
C62 C 0.50727 0.2264 0.42154 0.0
H63 H 0.14594 0.30028 0.70062 0.0
H64 H 0.27001 0.30269 0.70183 0.0
H65 H 0.20382 0.30369 0.66185 0.0
C66 C 0.17242 0.30155 0.69516 0.0
C67 C 0.17039 0.30243 0.68031 0.0
C68 C 0.20817 0.30146 0.70302 0.0
C69 C 0.24227 0.30289 0.69585 0.0
C70 C 0.24101 0.30371 0.68103 0.0
C71 C 0.20494 0.30351 0.67329 0.0
Zn72 Zn 0.22717 0.69368 0.14226 0.0
Zn73 Zn 0.15381 0.78642 0.1063 0.0
Zn74 Zn 0.19157 0.74023 0.12335 0.0
C75 C 0.17003 0.71988 0.09096 0.0
C76 C 0.21909 0.82694 0.11549 0.0
O77 O 0.15889 0.73969 0.1426 0.0
O78 O 0.19264 0.70289 0.15798 0.0
C79 C 0.20922 0.64814 0.11839 0.0
O80 O 0.18083 0.7074 0.10338 0.0
O81 O 0.15961 0.75471 0.08914 0.0
O82 O 0.18622 0.83269 0.1094 0.0
O83 O 0.22817 0.79315 0.12054 0.0
O84 O 0.22262 0.64534 0.13104 0.0
O85 O 0.19693 0.68119 0.1135 0.0
O86 O 0.24985 0.76574 0.12842 0.0
O87 O 0.27778 0.72077 0.14224 0.0
C88 C 0.27982 0.75228 0.13555 0.0
O89 O 0.13446 0.75501 0.13172 0.0
O90 O 0.10311 0.78768 0.11455 0.0
C91 C 0.16414 0.72495 0.15505 0.0
C92 C 0.10354 0.77205 0.12655 0.0
Zn93 Zn 0.52375 0.69126 0.35584 0.0
Zn94 Zn 0.59962 0.77626 0.38855 0.0
Zn95 Zn 0.56137 0.73482 0.37265 0.0
C96 C 0.54104 0.82294 0.37822 0.0
C97 C 0.65034 0.75807 0.36955 0.0
O98 O 0.55795 0.67604 0.38262 0.0
O99 O 0.54153 0.6406 0.36374 0.0
C100 C 0.47076 0.74378 0.36504 0.0
O101 O 0.52701 0.78884 0.37546 0.0
O102 O 0.57606 0.82642 0.38253 0.0
O103 O 0.65248 0.76552 0.3826 0.0
O104 O 0.61728 0.74957 0.36323 0.0
O105 O 0.47139 0.70958 0.3602 0.0
O106 O 0.50269 0.76092 0.36907 0.0
O107 O 0.59193 0.7329 0.35292 0.0
O108 O 0.54545 0.70984 0.33817 0.0
C109 C 0.57857 0.72481 0.34026 0.0
O110 O 0.57247 0.70284 0.39278 0.0
O111 O 0.5847 0.75365 0.40659 0.0
C112 C 0.5523 0.64252 0.37669 0.0
C113 C 0.57788 0.71779 0.40522 0.0
Zn114 Zn 0.66306 0.28119 0.60096 0.0
Zn115 Zn 0.72332 0.18294 0.63757 0.0
Zn116 Zn 0.69574 0.23245 0.61906 0.0
C117 C 0.78308 0.23549 0.63177 0.0
C118 C 0.70269 0.13894 0.61397 0.0
O119 O 0.63906 0.25066 0.62655 0.0
O120 O 0.61262 0.28756 0.6095 0.0
C121 C 0.73085 0.3166 0.61121 0.0
O122 O 0.75487 0.25362 0.62516 0.0
O123 O 0.7773 0.2029 0.63735 0.0
O124 O 0.71042 0.13467 0.62705 0.0
O125 O 0.69867 0.17345 0.60876 0.0
O126 O 0.70075 0.32335 0.60344 0.0
O127 O 0.73538 0.28367 0.61758 0.0
O128 O 0.68517 0.2008 0.5987 0.0
O129 O 0.66604 0.24812 0.58412 0.0
C130 C 0.67518 0.21304 0.58617 0.0
O131 O 0.66055 0.23378 0.63786 0.0
O132 O 0.69194 0.19633 0.65362 0.0
C133 C 0.61034 0.27085 0.62124 0.0
C134 C 0.66461 0.21954 0.65043 0.0
Zn135 Zn 0.0374 0.19781 0.85301 0.0
Zn136 Zn 0.11067 0.28454 0.88704 0.0
Zn137 Zn 0.073 0.24132 0.8707 0.0
C138 C 0.08698 0.22561 0.90351 0.0
C139 C 0.05099 0.32922 0.87572 0.0
O140 O 0.10629 0.23863 0.85164 0.0
O141 O 0.0625 0.21526 0.83585 0.0
C142 C 0.06325 0.14948 0.8748 0.0
O143 O 0.08131 0.21027 0.89114 0.0
O144 O 0.09558 0.26108 0.90481 0.0
O145 O 0.08516 0.33362 0.88089 0.0
O146 O 0.03809 0.29498 0.87251 0.0
O147 O 0.05344 0.14766 0.86176 0.0
O148 O 0.06874 0.18297 0.88079 0.0
O149 O 0.01399 0.26693 0.86619 0.0
O150 O 0.98436 0.21642 0.85598 0.0
C151 C 0.98266 0.25005 0.86126 0.0
O152 O 0.13028 0.25586 0.86212 0.0
O153 O 0.16403 0.27534 0.88139 0.0
C154 C 0.09536 0.23008 0.83876 0.0
C155 C 0.16281 0.26594 0.86851 0.0
H156 H 0.15099 0.3063 0.06308 0.0
H157 H 0.14788 0.37481 0.06984 0.0
H158 H 0.26549 0.36922 0.08756 0.0
H159 H 0.26929 0.30094 0.08039 0.0
H160 H 0.15718 0.41134 0.09561 0.0
H161 H 0.26933 0.46093 0.06066 0.0
H162 H 0.24766 0.41329 0.05911 0.0
H163 H 0.28571 0.42292 0.07248 0.0
C164 C 0.17631 0.31968 0.06835 0.0
C165 C 0.21058 0.2982 0.07103 0.0
C166 C 0.17439 0.35882 0.07227 0.0
C167 C 0.20671 0.37744 0.07891 0.0
C168 C 0.24047 0.35573 0.08213 0.0
H169 H 0.26509 0.59367 0.11808 0.0
H170 H 0.26173 0.52996 0.10665 0.0
C171 C 0.24244 0.31653 0.0782 0.0
C172 C 0.205 0.41949 0.08252 0.0
H173 H 0.24964 0.5066 0.07778 0.0
C174 C 0.17709 0.43227 0.09159 0.0
C175 C 0.23075 0.44686 0.07715 0.0
C176 C 0.2598 0.43545 0.0667 0.0
C177 C 0.17543 0.47131 0.09596 0.0
C178 C 0.20203 0.49839 0.09096 0.0
C179 C 0.22921 0.48582 0.08157 0.0
C180 C 0.20475 0.53881 0.09649 0.0
C181 C 0.14634 0.48296 0.10637 0.0
C182 C 0.17424 0.56551 0.09423 0.0
C183 C 0.17622 0.60222 0.10076 0.0
C184 C 0.20871 0.61263 0.10957 0.0
C185 C 0.23971 0.5864 0.11131 0.0
C186 C 0.23785 0.55001 0.10478 0.0
H187 H 0.13223 0.45737 0.11096 0.0
H188 H 0.16041 0.50052 0.1151 0.0
H189 H 0.12352 0.50109 0.10093 0.0
H190 H 0.14853 0.55756 0.08777 0.0
H191 H 0.15161 0.6215 0.09959 0.0
H192 H 0.95028 0.8507 0.30226 0.0
H193 H 0.88652 0.84107 0.31138 0.0
H194 H 0.9374 0.7683 0.34448 0.0
H195 H 1.00124 0.77749 0.33536 0.0
H196 H 0.84695 0.7707 0.31448 0.0
H197 H 0.87344 0.84625 0.36597 0.0
H198 H 0.90472 0.85203 0.35162 0.0
H199 H 0.90858 0.80958 0.36261 0.0
C200 C 0.94793 0.83264 0.31149 0.0
C201 C 0.98092 0.81491 0.31809 0.0
C202 C 0.91148 0.82726 0.3167 0.0
C203 C 0.90725 0.80431 0.32869 0.0
C204 C 0.9401 0.78676 0.33538 0.0
H205 H 0.72056 0.7287 0.37769 0.0
H206 H 0.78168 0.73891 0.36666 0.0
C207 C 0.9766 0.79212 0.33017 0.0
C208 C 0.86834 0.79777 0.33394 0.0
H209 H 0.8157 0.80919 0.36287 0.0
C210 C 0.83996 0.77931 0.32502 0.0
C211 C 0.8593 0.80914 0.34768 0.0
C212 C 0.88795 0.83068 0.3575 0.0
C213 C 0.80315 0.77082 0.32965 0.0
C214 C 0.79432 0.78166 0.34348 0.0
C215 C 0.82254 0.80068 0.3523 0.0
C216 C 0.75644 0.77284 0.34926 0.0
C217 C 0.77451 0.74923 0.31985 0.0
C218 C 0.72179 0.78826 0.34309 0.0
C219 C 0.68675 0.7822 0.34936 0.0
C220 C 0.68589 0.7606 0.36185 0.0
C221 C 0.72045 0.74499 0.36793 0.0
C222 C 0.75534 0.7509 0.36167 0.0
H223 H 0.78876 0.73483 0.31106 0.0
H224 H 0.75891 0.72688 0.32569 0.0
H225 H 0.75291 0.77007 0.31517 0.0
H226 H 0.72201 0.80607 0.33371 0.0
H227 H 0.66061 0.79551 0.34473 0.0
H228 H 0.78505 0.61995 0.56044 0.0
H229 H 0.79846 0.56255 0.57485 0.0
H230 H 0.74675 0.61789 0.6099 0.0
H231 H 0.73111 0.67488 0.59518 0.0
H232 H 0.83736 0.54391 0.59935 0.0
H233 H 0.67934 0.52352 0.60425 0.0
H234 H 0.69802 0.55958 0.59279 0.0
H235 H 0.69907 0.56798 0.61154 0.0
C236 C 0.77649 0.62001 0.57122 0.0
C237 C 0.756 0.65162 0.57652 0.0
C238 C 0.78458 0.58725 0.57952 0.0
C239 C 0.77273 0.58537 0.59336 0.0
C240 C 0.75523 0.6182 0.59912 0.0
H241 H 0.73805 0.36291 0.63428 0.0
H242 H 0.75875 0.43103 0.63398 0.0
C243 C 0.7467 0.65098 0.59074 0.0
C244 C 0.77573 0.54772 0.60104 0.0
H245 H 0.72022 0.4742 0.61288 0.0
C246 C 0.81182 0.52892 0.60254 0.0
C247 C 0.74242 0.52799 0.60519 0.0
C248 C 0.70246 0.54554 0.60328 0.0
C249 C 0.81517 0.49047 0.60745 0.0
C250 C 0.78162 0.47029 0.61094 0.0
C251 C 0.74599 0.48984 0.61029 0.0
C252 C 0.78114 0.42761 0.61324 0.0
C253 C 0.85438 0.47136 0.60847 0.0
C254 C 0.78869 0.40256 0.60202 0.0
C255 C 0.7769 0.36372 0.6022 0.0
C256 C 0.75776 0.34925 0.61366 0.0
C257 C 0.75373 0.37318 0.6255 0.0
C258 C 0.76523 0.41217 0.62528 0.0
H259 H 0.87789 0.49323 0.60998 0.0
H260 H 0.8569 0.45029 0.61732 0.0
H261 H 0.8586 0.45539 0.5985 0.0
H262 H 0.8001 0.41389 0.59249 0.0
H263 H 0.77927 0.3461 0.5928 0.0
H264 H 0.62404 0.36206 0.83412 0.0
H265 H 0.68841 0.36616 0.84667 0.0
H266 H 0.73012 0.27708 0.81943 0.0
H267 H 0.66643 0.27245 0.80708 0.0
H268 H 0.73532 0.30716 0.86089 0.0
H269 H 0.80652 0.36807 0.81537 0.0
H270 H 0.75467 0.36865 0.81653 0.0
H271 H 0.77847 0.32559 0.81065 0.0
C272 C 0.64689 0.34314 0.83092 0.0
C273 C 0.64026 0.31739 0.81944 0.0
C274 C 0.68366 0.34567 0.83804 0.0
C275 C 0.7143 0.32264 0.83374 0.0
C276 C 0.70722 0.29592 0.82267 0.0
H277 H 0.9142 0.21438 0.86392 0.0
H278 H 0.84968 0.24171 0.8602 0.0
C279 C 0.67073 0.29332 0.81562 0.0
C280 C 0.75383 0.32553 0.84072 0.0
H281 H 0.84812 0.33498 0.83285 0.0
C282 C 0.75998 0.3141 0.85487 0.0
C283 C 0.78602 0.33549 0.83301 0.0
C284 C 0.78112 0.35055 0.81809 0.0
C285 C 0.79762 0.30912 0.86109 0.0
C286 C 0.8298 0.31514 0.85287 0.0
C287 C 0.82357 0.32991 0.83914 0.0
C288 C 0.86917 0.30077 0.85739 0.0
C289 C 0.80248 0.29615 0.87627 0.0
C290 C 0.90201 0.32477 0.85704 0.0
C291 C 0.93934 0.30898 0.85913 0.0
C292 C 0.94427 0.26891 0.86138 0.0
C293 C 0.91134 0.24539 0.86222 0.0
C294 C 0.87432 0.26109 0.86024 0.0
H295 H 0.77852 0.30722 0.88241 0.0
H296 H 0.80167 0.26394 0.87664 0.0
H297 H 0.83042 0.30623 0.88141 0.0
H298 H 0.89878 0.3554 0.85465 0.0
H299 H 0.96414 0.32762 0.85814 0.0
H300 H 0.98267 0.63436 0.93108 0.0
H301 H 0.97233 0.57634 0.91644 0.0
H302 H 0.03605 0.62862 0.88385 0.0
H303 H 0.04835 0.68605 0.89876 0.0
H304 H 0.94182 0.55663 0.88959 0.0
H305 H 0.10114 0.53427 0.89491 0.0
H306 H 0.07734 0.57076 0.90489 0.0
H307 H 0.08598 0.57902 0.88665 0.0
C308 C 0.99436 0.63365 0.92076 0.0
C309 C 0.01722 0.66447 0.91625 0.0
C310 C 0.98804 0.60059 0.91234 0.0
C311 C 0.00418 0.59777 0.8992 0.0
C312 C 0.02403 0.62988 0.8941 0.0
H313 H 0.05891 0.38486 0.8563 0.0
H314 H 0.03782 0.45235 0.85838 0.0
C315 C 0.03072 0.66287 0.90259 0.0
C316 C 0.00404 0.55973 0.89176 0.0
H317 H 0.06431 0.48667 0.88273 0.0
C318 C 0.96858 0.54146 0.88791 0.0
C319 C 0.03898 0.53978 0.88971 0.0
C320 C 0.07803 0.55669 0.89435 0.0
C321 C 0.9672 0.5036 0.88222 0.0
C322 C 0.00215 0.48352 0.88046 0.0
C323 C 0.0375 0.50226 0.88392 0.0
C324 C 0.00365 0.44193 0.8763 0.0
C325 C 0.92846 0.4853 0.87828 0.0
C326 C 0.98957 0.41321 0.88514 0.0
C327 C 1.00121 0.37446 0.8838 0.0
C328 C 0.02719 0.3642 0.87368 0.0
C329 C 0.03834 0.39215 0.86403 0.0
C330 C 0.02645 0.4307 0.86527 0.0
H331 H 0.90584 0.5077 0.87601 0.0
H332 H 0.92987 0.46603 0.8689 0.0
H333 H 0.91958 0.46751 0.88724 0.0
H334 H 0.97265 0.42122 0.89391 0.0
H335 H 0.993 0.35343 0.89153 0.0
H336 H 0.74956 0.76014 0.16217 0.0
H337 H 0.81378 0.74746 0.15366 0.0
H338 H 0.86281 0.83492 0.18222 0.0
H339 H 0.79907 0.84653 0.19107 0.0
H340 H 0.86147 0.79047 0.14065 0.0
H341 H 0.93584 0.74805 0.19148 0.0
H342 H 0.88407 0.75394 0.18937 0.0
H343 H 0.91505 0.79549 0.19273 0.0
C344 C 0.77412 0.77666 0.16658 0.0
C345 C 0.76951 0.80413 0.17732 0.0
C346 C 0.81079 0.76928 0.16178 0.0
C347 C 0.84342 0.78945 0.16758 0.0
C348 C 0.83846 0.81791 0.17796 0.0
H349 H 0.05228 0.8312 0.12661 0.0
H350 H 0.99007 0.83272 0.13726 0.0
C351 C 0.80197 0.82485 0.18289 0.0
C352 C 0.8823 0.78213 0.16232 0.0
H353 H 0.97705 0.76597 0.17302 0.0
C354 C 0.8866 0.78463 0.14774 0.0
C355 C 0.91514 0.77367 0.1715 0.0
C356 C 0.91221 0.76719 0.18712 0.0
C357 C 0.92288 0.78052 0.14216 0.0
C358 C 0.9561 0.77506 0.15144 0.0
C359 C 0.95169 0.77085 0.16595 0.0
C360 C 0.9956 0.77513 0.14624 0.0
C361 C 0.92516 0.78197 0.12632 0.0
C362 C 0.02047 0.74315 0.14847 0.0
C363 C 0.0565 0.74247 0.14253 0.0
C364 C 0.06807 0.77384 0.13436 0.0
C365 C 0.04385 0.80643 0.13272 0.0
C366 C 0.00821 0.80724 0.13873 0.0
H367 H 0.89726 0.77337 0.12074 0.0
H368 H 0.93163 0.81215 0.12315 0.0
H369 H 0.94826 0.76258 0.12277 0.0
H370 H 0.01148 0.71824 0.15439 0.0
H371 H 0.07458 0.71692 0.14388 0.0
H372 H 0.50821 0.3218 0.44546 0.0
H373 H 0.51484 0.38922 0.43788 0.0
H374 H 0.55273 0.3495 0.39788 0.0
H375 H 0.54628 0.28199 0.40539 0.0
H376 H 0.57916 0.42976 0.42956 0.0
H377 H 0.46444 0.42312 0.3861 0.0
H378 H 0.47013 0.38608 0.39949 0.0
H379 H 0.50067 0.38622 0.38485 0.0
C380 C 0.51812 0.32738 0.43506 0.0
C381 C 0.52657 0.2964 0.42601 0.0
C382 C 0.52181 0.36596 0.43074 0.0
C383 C 0.5338 0.37447 0.41725 0.0
C384 C 0.54263 0.34367 0.40823 0.0
H385 H 0.57633 0.57347 0.36681 0.0
H386 H 0.57397 0.51011 0.37816 0.0
C387 C 0.53887 0.30506 0.41253 0.0
C388 C 0.53716 0.41549 0.41259 0.0
H389 H 0.50524 0.47874 0.38678 0.0
C390 C 0.5628 0.44062 0.42027 0.0
C391 C 0.51553 0.42974 0.40055 0.0
C392 C 0.48586 0.40504 0.39234 0.0
C393 C 0.5685 0.47913 0.41587 0.0
C394 C 0.54771 0.4929 0.40358 0.0
C395 C 0.5214 0.46805 0.39614 0.0
C396 C 0.55378 0.53229 0.39774 0.0
C397 C 0.59759 0.50438 0.42412 0.0
C398 C 0.54405 0.56611 0.4051 0.0
C399 C 0.54553 0.60264 0.39861 0.0
C400 C 0.55663 0.60574 0.38466 0.0
C401 C 0.56769 0.57199 0.37758 0.0
C402 C 0.56632 0.53574 0.38404 0.0
H403 H 0.61662 0.4872 0.43162 0.0
H404 H 0.61588 0.5203 0.41687 0.0
H405 H 0.58206 0.52621 0.43027 0.0
H406 H 0.53361 0.56411 0.41559 0.0
H407 H 0.5359 0.62802 0.40417 0.0
H408 H 0.10899 0.25613 0.68537 0.0
H409 H 0.04423 0.2571 0.67367 0.0
H410 H 0.0795 0.34639 0.64546 0.0
H411 H 0.14476 0.34594 0.6573 0.0
H412 H 0.99424 0.32454 0.67119 0.0
H413 H 0.0271 0.26043 0.61926 0.0
H414 H 0.0595 0.25505 0.63482 0.0
H415 H 0.05585 0.30089 0.62593 0.0
C416 C 0.10305 0.2761 0.67671 0.0
C417 C 0.13197 0.30121 0.67235 0.0
C418 C 0.06603 0.27653 0.67001 0.0
C419 C 0.05706 0.30181 0.65872 0.0
C420 C 0.08595 0.32641 0.65408 0.0
H421 H 0.80635 0.31198 0.63335 0.0
H422 H 0.8728 0.33647 0.6374 0.0
C423 C 0.1232 0.32604 0.66083 0.0
C424 C 0.01703 0.30241 0.65218 0.0
H425 H 0.96175 0.2707 0.62332 0.0
C426 C 0.98704 0.31349 0.66062 0.0
C427 C 0.00791 0.28793 0.63841 0.0
C428 C 0.03911 0.27516 0.62902 0.0
C429 C 0.94806 0.30854 0.65594 0.0
C430 C 0.93888 0.29247 0.64238 0.0
C431 C 0.9689 0.28326 0.63366 0.0
C432 C 0.89906 0.27935 0.63804 0.0
C433 C 0.91712 0.31813 0.6659 0.0
C434 C 0.89194 0.23941 0.63655 0.0
C435 C 0.85429 0.22561 0.63408 0.0
C436 C 0.82283 0.25144 0.63293 0.0
C437 C 0.83002 0.29156 0.63387 0.0
C438 C 0.86792 0.30548 0.63638 0.0
H439 H 0.92941 0.32514 0.67672 0.0
H440 H 0.90037 0.34366 0.66185 0.0
H441 H 0.89673 0.2934 0.66657 0.0
H442 H 0.91546 0.21871 0.63782 0.0
H443 H 0.84973 0.1945 0.63334 0.0
H444 H 0.30491 0.34878 0.68668 0.0
H445 H 0.3678 0.34315 0.6765 0.0
H446 H 0.3236 0.24993 0.64952 0.0
H447 H 0.2604 0.25592 0.65953 0.0
H448 H 0.41648 0.28151 0.67724 0.0
H449 H 0.3734 0.31929 0.62165 0.0
H450 H 0.34218 0.32754 0.63587 0.0
H451 H 0.34605 0.27983 0.62826 0.0
C452 C 0.30854 0.32737 0.67846 0.0
C453 C 0.27776 0.3029 0.67384 0.0
C454 C 0.34446 0.32413 0.67268 0.0
C455 C 0.35035 0.29634 0.66217 0.0
C456 C 0.31952 0.27213 0.65741 0.0
H457 H 0.57725 0.21739 0.63803 0.0
H458 H 0.51501 0.22285 0.64882 0.0
C459 C 0.28342 0.27559 0.66311 0.0
C460 C 0.38914 0.29202 0.65656 0.0
H461 H 0.43682 0.29445 0.62621 0.0
C462 C 0.421 0.28443 0.66608 0.0
C463 C 0.39502 0.29623 0.64203 0.0
C464 C 0.36244 0.30654 0.63137 0.0
C465 C 0.45856 0.28085 0.66147 0.0
C466 C 0.46423 0.28409 0.64688 0.0
C467 C 0.43238 0.2917 0.63738 0.0
C468 C 0.50305 0.28115 0.64121 0.0
C469 C 0.4919 0.27474 0.67228 0.0
C470 C 0.5168 0.31182 0.63322 0.0
C471 C 0.55201 0.30858 0.62697 0.0
C472 C 0.57436 0.27469 0.62866 0.0
C473 C 0.56091 0.24412 0.6368 0.0
C474 C 0.52543 0.24726 0.64299 0.0
H475 H 0.48415 0.28295 0.68308 0.0
H476 H 0.50009 0.24357 0.67243 0.0
H477 H 0.51754 0.29191 0.66962 0.0
H478 H 0.50001 0.3382 0.63169 0.0
H479 H 0.56169 0.33259 0.62074 0.0
H480 H 0.63231 0.77767 0.15868 0.0
H481 H 0.56725 0.78157 0.14711 0.0
H482 H 0.54493 0.885 0.17115 0.0
H483 H 0.60951 0.88017 0.18311 0.0
H484 H 0.49021 0.83535 0.17386 0.0
H485 H 0.51207 0.84374 0.1169 0.0
H486 H 0.53776 0.80303 0.12456 0.0
H487 H 0.55106 0.85163 0.13016 0.0
C488 C 0.61385 0.80181 0.16118 0.0
C489 C 0.62584 0.82859 0.17178 0.0
C490 C 0.57669 0.8042 0.15451 0.0
C491 C 0.55115 0.83393 0.15808 0.0
C492 C 0.56401 0.86186 0.16816 0.0
H493 H 0.2966 0.82995 0.13927 0.0
H494 H 0.36157 0.85903 0.14285 0.0
C495 C 0.6009 0.85913 0.17498 0.0
C496 C 0.50976 0.83284 0.15276 0.0
H497 H 0.45016 0.81727 0.12313 0.0
C498 C 0.48143 0.83248 0.16273 0.0
C499 C 0.49805 0.8292 0.13822 0.0
C500 C 0.52639 0.83236 0.12686 0.0
C501 C 0.44228 0.82601 0.15867 0.0
C502 C 0.43105 0.81978 0.14426 0.0
C503 C 0.4589 0.82208 0.13419 0.0
C504 C 0.39195 0.80493 0.13988 0.0
C505 C 0.41347 0.82339 0.1699 0.0
C506 C 0.38772 0.76537 0.13665 0.0
C507 C 0.35101 0.74893 0.13467 0.0
C508 C 0.31774 0.77181 0.13569 0.0
C509 C 0.32182 0.8119 0.13818 0.0
C510 C 0.35881 0.8284 0.14033 0.0
H511 H 0.42735 0.82649 0.18074 0.0
H512 H 0.3915 0.84666 0.16825 0.0
H513 H 0.39812 0.79506 0.16911 0.0
H514 H 0.41289 0.74677 0.13632 0.0
H515 H 0.34861 0.71794 0.13273 0.0
H516 H 0.51375 0.27401 0.83298 0.0
H517 H 0.45 0.26693 0.84247 0.0
H518 H 0.39999 0.34007 0.80935 0.0
H519 H 0.46357 0.34794 0.79994 0.0
H520 H 0.3973 0.32644 0.85131 0.0
H521 H 0.33463 0.23868 0.8061 0.0
H522 H 0.38611 0.24543 0.80946 0.0
H523 H 0.35695 0.28374 0.80161 0.0
C524 C 0.48933 0.28909 0.82783 0.0
C525 C 0.4938 0.31129 0.81562 0.0
C526 C 0.45286 0.28476 0.83321 0.0
C527 C 0.42016 0.30231 0.82643 0.0
C528 C 0.42469 0.32552 0.81454 0.0
H529 H 0.17424 0.29832 0.84282 0.0
H530 H 0.23641 0.30725 0.83209 0.0
C531 C 0.46109 0.32999 0.80919 0.0
C532 C 0.38132 0.29655 0.83185 0.0
H533 H 0.29227 0.25674 0.82356 0.0
C534 C 0.37436 0.31111 0.84527 0.0
C535 C 0.35132 0.27691 0.82387 0.0
C536 C 0.35751 0.25998 0.80949 0.0
C537 C 0.33813 0.30679 0.85093 0.0
C538 C 0.30834 0.28634 0.8431 0.0
C539 C 0.31514 0.27223 0.82958 0.0
C540 C 0.27032 0.27858 0.84896 0.0
C541 C 0.33195 0.32491 0.86513 0.0
C542 C 0.26858 0.25839 0.86173 0.0
C543 C 0.2333 0.25333 0.86782 0.0
C544 C 0.1989 0.2675 0.86109 0.0
C545 C 0.20031 0.28644 0.84805 0.0
C546 C 0.23578 0.29178 0.84199 0.0
H547 H 0.35263 0.34904 0.8676 0.0
H548 H 0.30207 0.3363 0.86555 0.0
H549 H 0.3367 0.3026 0.87347 0.0
H550 H 0.29466 0.24707 0.86713 0.0
H551 H 0.23292 0.23869 0.8779 0.0
H552 H 0.15262 0.87281 0.3115 0.0
H553 H 0.2167 0.86781 0.32388 0.0
H554 H 0.17369 0.78021 0.35117 0.0
H555 H 0.10971 0.7845 0.3387 0.0
H556 H 0.246 0.87052 0.35475 0.0
H557 H 0.2596 0.72794 0.32764 0.0
H558 H 0.22376 0.76355 0.32191 0.0
H559 H 0.21693 0.73448 0.33722 0.0
C560 C 0.15667 0.85286 0.32027 0.0
C561 C 0.1262 0.82867 0.324 0.0
C562 C 0.19321 0.85028 0.32739 0.0
C563 C 0.19997 0.82341 0.33834 0.0
C564 C 0.16904 0.80104 0.3427 0.0
H565 H 0.4055 0.71378 0.37449 0.0
H566 H 0.33975 0.73841 0.37017 0.0
C567 C 0.13245 0.80367 0.33561 0.0
C568 C 0.24006 0.81543 0.34401 0.0
H569 H 0.31077 0.74662 0.34364 0.0
C570 C 0.26027 0.84344 0.35239 0.0
C571 C 0.25864 0.78027 0.34075 0.0
C572 C 0.23888 0.74986 0.3313 0.0
C573 C 0.2984 0.83663 0.35793 0.0
C574 C 0.31681 0.80123 0.35476 0.0
C575 C 0.29657 0.7736 0.34621 0.0
C576 C 0.35695 0.7914 0.36008 0.0
C577 C 0.31829 0.86695 0.36734 0.0
C578 C 0.38878 0.81377 0.35641 0.0
C579 C 0.42663 0.79992 0.35912 0.0
C580 C 0.43297 0.76332 0.36533 0.0
C581 C 0.4013 0.74216 0.36972 0.0
C582 C 0.36374 0.75617 0.36722 0.0
H583 H 0.29718 0.88709 0.37183 0.0
H584 H 0.33596 0.85325 0.37615 0.0
H585 H 0.33785 0.88439 0.36105 0.0
H586 H 0.38434 0.84065 0.35064 0.0
H587 H 0.4506 0.81639 0.35542 0.0
H588 H 0.74935 0.81425 0.5461 0.0
H589 H 0.7434 0.88316 0.55207 0.0
H590 H 0.69973 0.85232 0.59206 0.0
H591 H 0.70498 0.7832 0.58606 0.0
H592 H 0.65434 0.9091 0.57573 0.0
H593 H 0.81051 0.9479 0.58132 0.0
H594 H 0.79423 0.92279 0.56537 0.0
H595 H 0.79378 0.89829 0.58203 0.0
C596 C 0.73859 0.82211 0.55619 0.0
C597 C 0.72757 0.7932 0.5656 0.0
C598 C 0.73548 0.86153 0.55962 0.0
C599 C 0.72137 0.87289 0.57254 0.0
C600 C 0.71082 0.84416 0.58205 0.0
H601 H 0.67386 0.06999 0.62168 0.0
H602 H 0.6753 0.00818 0.60918 0.0
C603 C 0.71411 0.80469 0.57866 0.0
C604 C 0.71626 0.91468 0.57597 0.0
H605 H 0.76584 0.99858 0.584 0.0
C606 C 0.6787 0.92871 0.57747 0.0
C607 C 0.748 0.94041 0.578 0.0
C608 C 0.78899 0.92672 0.57671 0.0
C609 C 0.67211 0.96753 0.58128 0.0
C610 C 0.70397 0.99285 0.58395 0.0
C611 C 0.74142 0.97923 0.5819 0.0
C612 C 0.69951 0.0317 0.59056 0.0
C613 C 0.63104 0.98103 0.58253 0.0
C614 C 0.71274 0.06579 0.58428 0.0
C615 C 0.71196 0.10154 0.59149 0.0
C616 C 0.69842 0.10347 0.60513 0.0
C617 C 0.68434 0.06947 0.61116 0.0
C618 C 0.68489 0.03408 0.60398 0.0
H619 H 0.61039 0.96346 0.5757 0.0
H620 H 0.62324 0.97751 0.59362 0.0
H621 H 0.62759 0.01211 0.57962 0.0
H622 H 0.72449 0.06455 0.57398 0.0
H623 H 0.72369 0.12712 0.58671 0.0
H624 H 0.22072 0.16662 0.09432 0.0
H625 H 0.24152 0.10595 0.10584 0.0
H626 H 0.31533 0.08179 0.07192 0.0
H627 H 0.2937 0.14191 0.06022 0.0
H628 H 0.26747 0.0243 0.07515 0.0
H629 H 0.33341 0.06128 0.12798 0.0
H630 H 0.28708 0.08401 0.125 0.0
H631 H 0.32596 0.09707 0.11419 0.0
C632 C 0.24232 0.14895 0.08958 0.0
C633 C 0.25547 0.15881 0.07636 0.0
C634 C 0.2544 0.11433 0.0962 0.0
C635 C 0.28037 0.08933 0.08985 0.0
C636 C 0.2954 0.10056 0.07707 0.0
H637 H 0.28928 0.83672 0.10424 0.0
H638 H 0.31863 0.90023 0.09962 0.0
C639 C 0.283 0.13488 0.07038 0.0
C640 C 0.28682 0.04912 0.09524 0.0
H641 H 0.30589 0.99633 0.12533 0.0
C642 C 0.27692 0.01814 0.08603 0.0
C643 C 0.29908 0.04099 0.10945 0.0
C644 C 0.31237 0.07265 0.11967 0.0
C645 C 0.27621 0.97965 0.09082 0.0
C646 C 0.28638 0.97168 0.10522 0.0
C647 C 0.29834 1.00239 0.11429 0.0
C648 C 0.27802 0.93316 0.11134 0.0
C649 C 0.26171 0.94827 0.08062 0.0
C650 C 0.24772 0.93045 0.12039 0.0
C651 C 0.23135 0.89447 0.1231 0.0
C652 C 0.24525 0.86053 0.11694 0.0
C653 C 0.27836 0.86255 0.1092 0.0
C654 C 0.29483 0.8988 0.10646 0.0
H655 H 0.2497 0.96032 0.07041 0.0
H656 H 0.28594 0.92859 0.07838 0.0
H657 H 0.23888 0.93069 0.08526 0.0
H658 H 0.23433 0.95647 0.12431 0.0
H659 H 0.20564 0.89354 0.12902 0.0
H660 H 0.5295 0.16441 0.40109 0.0
H661 H 0.51333 0.1036 0.3886 0.0
H662 H 0.42586 0.07994 0.41781 0.0
H663 H 0.44312 0.14005 0.43059 0.0
H664 H 0.47386 0.02253 0.41736 0.0
H665 H 0.43201 0.05772 0.36185 0.0
H666 H 0.47705 0.08053 0.36727 0.0
H667 H 0.43374 0.09415 0.37564 0.0
C668 C 0.50595 0.14683 0.40451 0.0
C669 C 0.48756 0.15676 0.41678 0.0
C670 C 0.49652 0.11212 0.39733 0.0
C671 C 0.46802 0.08719 0.40214 0.0
C672 C 0.44783 0.09864 0.41385 0.0
H673 H 0.46659 0.83398 0.38585 0.0
H674 H 0.43561 0.89733 0.38952 0.0
C675 C 0.45764 0.13298 0.42113 0.0
C676 C 0.46398 0.04681 0.39654 0.0
H677 H 0.45988 0.99323 0.36607 0.0
C678 C 0.46964 0.01608 0.40616 0.0
C679 C 0.45845 0.03823 0.38194 0.0
C680 C 0.44956 0.06947 0.37112 0.0
C681 C 0.4729 0.97751 0.40156 0.0
C682 C 0.46999 0.96923 0.38691 0.0
C683 C 0.46199 0.99958 0.3773 0.0
C684 C 0.48223 0.93095 0.3815 0.0
C685 C 0.48244 0.94632 0.41239 0.0
C686 C 0.51732 0.92885 0.37497 0.0
C687 C 0.53477 0.89303 0.37286 0.0
C688 C 0.51734 0.85852 0.3771 0.0
C689 C 0.48046 0.86019 0.38241 0.0
C690 C 0.46295 0.89632 0.3846 0.0
H691 H 0.48829 0.95846 0.42319 0.0
H692 H 0.45776 0.92586 0.41265 0.0
H693 H 0.50818 0.92952 0.40954 0.0
H694 H 0.53269 0.95511 0.37248 0.0
H695 H 0.56315 0.89248 0.36868 0.0
H696 H 0.9981 0.80553 0.91317 0.0
H697 H 0.00528 0.87273 0.9055 0.0
H698 H 0.10994 0.88366 0.93237 0.0
H699 H 0.10434 0.81598 0.93944 0.0
H700 H 0.00664 0.94012 0.92016 0.0
H701 H 0.14621 0.92108 0.89543 0.0
H702 H 0.11792 0.88047 0.90086 0.0
H703 H 0.14807 0.9072 0.91366 0.0
C704 C 0.02303 0.82196 0.91727 0.0
C705 C 0.05072 0.80507 0.92688 0.0
C706 C 0.02688 0.86056 0.91299 0.0
C707 C 0.05845 0.88316 0.9182 0.0
C708 C 0.08576 0.86665 0.92797 0.0
H709 H 0.05768 0.13689 0.90331 0.0
H710 H 0.06045 0.07428 0.91563 0.0
C711 C 0.08217 0.82798 0.93215 0.0
C712 C 0.06261 0.92398 0.91343 0.0
H713 H 0.12275 0.98534 0.89702 0.0
C714 C 0.03206 0.95007 0.91512 0.0
C715 C 0.09572 0.93689 0.90679 0.0
C716 C 0.12869 0.90989 0.90394 0.0
C717 C 0.03337 0.98845 0.91015 0.0
C718 C 0.06662 1.00143 0.90361 0.0
C719 C 0.09747 0.97553 0.90218 0.0
C720 C 0.06836 0.04018 0.89678 0.0
C721 C 0.99845 0.01414 0.9114 0.0
C722 C 0.07364 0.04211 0.88227 0.0
C723 C 0.07316 0.07778 0.87536 0.0
C724 C 0.06739 0.11257 0.88277 0.0
C725 C 0.06311 0.11082 0.89739 0.0
C726 C 0.06392 0.07493 0.90437 0.0
H727 H 0.97237 0.99715 0.91374 0.0
H728 H 0.00438 0.03525 0.92014 0.0
H729 H 0.99193 0.03071 0.90151 0.0
H730 H 0.0772 0.0158 0.87617 0.0
H731 H 0.07669 0.078 0.86409 0.0
H732 H 0.2345 0.17128 0.02502 0.0
H733 H 0.20766 0.16068 0.00075 0.0
H734 H 0.10295 0.21965 0.01067 0.0
H735 H 0.12964 0.2306 0.03487 0.0
H736 H 0.13801 0.12515 0.98857 0.0
H737 H 0.14447 0.28382 0.97849 0.0
H738 H 0.16869 0.26162 0.99381 0.0
H739 H 0.11758 0.27101 0.99335 0.0
C740 C 0.20557 0.18155 0.02206 0.0
C741 C 0.18436 0.20228 0.03177 0.0
C742 C 0.19028 0.17542 0.00821 0.0
C743 C 0.15357 0.18985 0.00389 0.0
C744 C 0.13162 0.20888 0.01375 0.0
H745 H 0.03545 0.23284 0.92337 0.0
H746 H 0.04648 0.21423 0.94815 0.0
C747 C 0.14695 0.21524 0.02754 0.0
C748 C 0.13935 0.18773 0.98884 0.0
H749 H 0.11415 0.24501 0.96051 0.0
C750 C 0.1327 0.15128 0.9824 0.0
C751 C 0.13288 0.22189 0.98081 0.0
C752 C 0.1416 0.2618 0.98689 0.0
C753 C 0.1189 0.14822 0.96814 0.0
C754 C 0.11196 0.18246 0.96022 0.0
C755 C 0.11891 0.21877 0.96668 0.0
C756 C 0.09903 0.18225 0.94502 0.0
C757 C 0.11142 0.10858 0.96172 0.0
C758 C 0.1237 0.1685 0.93492 0.0
C759 C 0.11704 0.1787 0.92069 0.0
C760 C 0.08583 0.2029 0.91651 0.0
C761 C 0.05934 0.21364 0.92638 0.0
C762 C 0.06574 0.20317 0.94052 0.0
H763 H 0.10887 0.08599 0.96994 0.0
H764 H 0.08458 0.10862 0.95466 0.0
H765 H 0.13585 0.10056 0.95528 0.0
H766 H 0.14993 0.15297 0.93818 0.0
H767 H 0.13822 0.17085 0.91325 0.0
H768 H 0.11249 0.77735 0.27791 0.0
H769 H 0.11788 0.76871 0.25257 0.0
H770 H 0.01415 0.83591 0.24405 0.0
H771 H 0.00906 0.846 0.2695 0.0
H772 H 0.02444 0.75465 0.22906 0.0
H773 H 0.1413 0.86362 0.22434 0.0
H774 H 0.14674 0.83171 0.23933 0.0
H775 H 0.10752 0.86585 0.23808 0.0
C776 C 0.09108 0.79088 0.2707 0.0
C777 C 0.06058 0.8128 0.27578 0.0
C778 C 0.09406 0.78561 0.25622 0.0
C779 C 0.06653 0.80186 0.24651 0.0
C780 C 0.03565 0.82318 0.25144 0.0
H781 H 0.12629 0.79371 0.15822 0.0
H782 H 0.09227 0.8151 0.17875 0.0
C783 C 0.03276 0.82877 0.26597 0.0
C784 C 0.07074 0.79641 0.23123 0.0
H785 H 0.13153 0.81804 0.20552 0.0
C786 C 0.04734 0.76898 0.22379 0.0
C787 C 0.1003 0.81553 0.22439 0.0
C788 C 0.12532 0.84609 0.23187 0.0
C789 C 0.05443 0.75842 0.20986 0.0
C790 C 0.08583 0.77555 0.20337 0.0
C791 C 0.10754 0.80482 0.21053 0.0
C792 C 0.09969 0.76069 0.18993 0.0
C793 C 0.02902 0.72826 0.20235 0.0
C794 C 0.11457 0.72284 0.18934 0.0
C795 C 0.13403 0.71061 0.17766 0.0
C796 C 0.13878 0.73596 0.16635 0.0
C797 C 0.12246 0.77332 0.16668 0.0
C798 C 0.10316 0.78563 0.17841 0.0
H799 H 0.99995 0.72731 0.20664 0.0
H800 H 0.02562 0.73399 0.19082 0.0
H801 H 0.04251 0.69922 0.20391 0.0
H802 H 0.11294 0.7034 0.19823 0.0
H803 H 0.14648 0.68173 0.1777 0.0
H804 H 0.73982 0.64597 0.52587 0.0
H805 H 0.71352 0.6275 0.50224 0.0
H806 H 0.62301 0.71269 0.50494 0.0
H807 H 0.64802 0.73013 0.5288 0.0
H808 H 0.59677 0.64136 0.49327 0.0
H809 H 0.72681 0.69512 0.46771 0.0
H810 H 0.73522 0.65897 0.48116 0.0
H811 H 0.71823 0.70632 0.48583 0.0
C812 C 0.71402 0.66045 0.52152 0.0
C813 C 0.69621 0.6898 0.52921 0.0
C814 C 0.69924 0.65006 0.50796 0.0
C815 C 0.66663 0.66908 0.50177 0.0
C816 C 0.6483 0.69772 0.50951 0.0
H817 H 0.54403 0.73343 0.42935 0.0
H818 H 0.56215 0.70674 0.45258 0.0
C819 C 0.66291 0.708 0.52309 0.0
C820 C 0.65229 0.66062 0.48701 0.0
H821 H 0.67474 0.67354 0.45285 0.0
C822 C 0.61399 0.64781 0.48442 0.0
C823 C 0.67495 0.66859 0.47547 0.0
C824 C 0.71599 0.68327 0.47759 0.0
C825 C 0.59713 0.64471 0.47059 0.0
C826 C 0.619 0.65518 0.45912 0.0
C827 C 0.65807 0.66534 0.46167 0.0
C828 C 0.60062 0.66305 0.44488 0.0
C829 C 0.55567 0.63156 0.46841 0.0
C830 C 0.61532 0.64662 0.43273 0.0
C831 C 0.60473 0.66187 0.41935 0.0
C832 C 0.57979 0.69398 0.41807 0.0
C833 C 0.56301 0.7084 0.4301 0.0
C834 C 0.57321 0.69299 0.44338 0.0
H835 H 0.54793 0.61156 0.47695 0.0
H836 H 0.53638 0.65725 0.4687 0.0
H837 H 0.5502 0.6167 0.45806 0.0
H838 H 0.63682 0.62377 0.43368 0.0
H839 H 0.61846 0.65073 0.41022 0.0
H840 H 0.51946 0.342 0.76669 0.0
H841 H 0.52228 0.33332 0.74106 0.0
H842 H 0.6211 0.25817 0.74804 0.0
H843 H 0.61807 0.26583 0.77353 0.0
H844 H 0.62697 0.32522 0.72799 0.0
H845 H 0.49911 0.22874 0.7172 0.0
H846 H 0.49472 0.2714 0.72808 0.0
H847 H 0.52394 0.23153 0.73452 0.0
C848 C 0.5415 0.32326 0.76276 0.0
C849 C 0.56872 0.30482 0.77217 0.0
C850 C 0.54308 0.31843 0.74814 0.0
C851 C 0.57184 0.29506 0.74272 0.0
C852 C 0.59876 0.27642 0.75205 0.0
H853 H 0.64371 0.177 0.6727 0.0
H854 H 0.61217 0.20033 0.69343 0.0
C855 C 0.59714 0.28108 0.76661 0.0
C856 C 0.57523 0.29062 0.72733 0.0
H857 H 0.53955 0.23901 0.69857 0.0
C858 C 0.60745 0.30709 0.72143 0.0
C859 C 0.54968 0.26683 0.71891 0.0
C860 C 0.51487 0.24837 0.72491 0.0
C861 C 0.61592 0.2989 0.70747 0.0
C862 C 0.59125 0.27379 0.69918 0.0
C863 C 0.55808 0.25861 0.70491 0.0
C864 C 0.60289 0.2586 0.68546 0.0
C865 C 0.65256 0.31512 0.702 0.0
C866 C 0.60677 0.28329 0.67389 0.0
C867 C 0.625 0.27002 0.66202 0.0
C868 C 0.63932 0.23185 0.66158 0.0
C869 C 0.63309 0.2066 0.6728 0.0
C870 C 0.61487 0.21981 0.6846 0.0
H871 H 0.671 0.32989 0.71041 0.0
H872 H 0.66969 0.29158 0.69735 0.0
H873 H 0.64503 0.33656 0.69356 0.0
H874 H 0.59743 0.31327 0.67433 0.0
H875 H 0.62977 0.29022 0.65359 0.0
H876 H 0.01992 0.66471 0.96752 0.0
H877 H 0.04119 0.64657 0.99172 0.0
H878 H 0.1403 0.72174 0.99001 0.0
H879 H 0.11981 0.73931 0.96569 0.0
H880 H 0.15548 0.6447 0.00249 0.0
H881 H 0.03358 0.72399 0.02521 0.0
H882 H 0.02124 0.68917 0.01146 0.0
H883 H 0.04727 0.73239 0.00744 0.0
C884 C 0.04645 0.67709 0.97225 0.0
C885 C 0.06805 0.70369 0.96472 0.0
C886 C 0.05844 0.66682 0.98608 0.0
C887 C 0.09215 0.68302 0.99265 0.0
C888 C 0.11418 0.70894 0.9851 0.0
H889 H 0.2166 0.72158 0.06937 0.0
H890 H 0.19905 0.69924 0.04538 0.0
C891 C 0.10221 0.71928 0.97128 0.0
C892 C 0.10361 0.67465 0.00762 0.0
H893 H 0.07918 0.69511 0.04107 0.0
C894 C 0.13864 0.65525 0.01096 0.0
C895 C 0.08136 0.68813 0.01861 0.0
C896 C 0.04387 0.70981 0.0156 0.0
C897 C 0.15259 0.65002 0.02507 0.0
C898 C 0.13133 0.66535 0.03605 0.0
C899 C 0.09541 0.6831 0.03267 0.0
C900 C 0.14762 0.66845 0.05088 0.0
C901 C 0.19018 0.62861 0.02803 0.0
C902 C 0.1253 0.65767 0.06209 0.0
C903 C 0.13524 0.67082 0.07582 0.0
C904 C 0.16788 0.69442 0.07852 0.0
C905 C 0.19194 0.70241 0.06757 0.0
C906 C 0.18191 0.68954 0.05384 0.0
H907 H 0.19459 0.6065 0.01972 0.0
H908 H 0.21451 0.64958 0.02799 0.0
H909 H 0.19123 0.614 0.03847 0.0
H910 H 0.0985 0.64182 0.06004 0.0
H911 H 0.11548 0.66564 0.08401 0.0
H912 H 0.63839 0.76947 0.2166 0.0
H913 H 0.63319 0.75732 0.24173 0.0
H914 H 0.73714 0.82363 0.25151 0.0
H915 H 0.74207 0.83688 0.22627 0.0
H916 H 0.68929 0.72081 0.26106 0.0
H917 H 0.6549 0.87299 0.27624 0.0
H918 H 0.65067 0.85663 0.2581 0.0
H919 H 0.69753 0.86492 0.26674 0.0
C920 C 0.65988 0.78197 0.22409 0.0
C921 C 0.6904 0.80452 0.21946 0.0
C922 C 0.6571 0.77464 0.23843 0.0
C923 C 0.68466 0.78975 0.24845 0.0
C924 C 0.71541 0.81202 0.24393 0.0
H925 H 0.65502 0.71198 0.33623 0.0
H926 H 0.68965 0.72936 0.31527 0.0
C927 C 0.71827 0.81935 0.22952 0.0
C928 C 0.68028 0.78223 0.2636 0.0
H929 H 0.65043 0.825 0.29352 0.0
C930 C 0.68151 0.7436 0.26829 0.0
C931 C 0.6702 0.81215 0.27293 0.0
C932 C 0.66797 0.85404 0.26832 0.0
C933 C 0.67072 0.73378 0.28183 0.0
C934 C 0.65874 0.7635 0.2909 0.0
C935 C 0.65973 0.80237 0.28651 0.0
C936 C 0.63951 0.75448 0.30398 0.0
C937 C 0.66977 0.69152 0.28598 0.0
C938 C 0.6001 0.76314 0.30456 0.0
C939 C 0.58055 0.75342 0.31643 0.0
C940 C 0.60016 0.73532 0.32801 0.0
C941 C 0.63962 0.72666 0.3275 0.0
C942 C 0.65927 0.73631 0.31554 0.0
H943 H 0.67513 0.67182 0.27701 0.0
H944 H 0.69239 0.68608 0.29457 0.0
H945 H 0.64134 0.68408 0.29003 0.0
H946 H 0.58428 0.77689 0.2957 0.0
H947 H 0.55004 0.76021 0.31658 0.0
H948 H 0.50112 0.15617 0.46763 0.0
H949 H 0.5273 0.1361 0.49103 0.0
H950 H 0.62566 0.2112 0.48723 0.0
H951 H 0.60063 0.23012 0.46357 0.0
H952 H 0.64536 0.1374 0.49835 0.0
H953 H 0.52509 0.20506 0.52599 0.0
H954 H 0.51118 0.17005 0.51252 0.0
H955 H 0.5329 0.21513 0.50775 0.0
C956 C 0.52853 0.16816 0.47171 0.0
C957 C 0.54866 0.19499 0.46374 0.0
C958 C 0.54327 0.15687 0.48513 0.0
C959 C 0.57819 0.17248 0.49093 0.0
C960 C 0.5986 0.19886 0.48296 0.0
H961 H 0.71287 0.22103 0.56253 0.0
H962 H 0.69172 0.19537 0.53936 0.0
C963 C 0.584 0.21003 0.4695 0.0
C964 C 0.59307 0.16258 0.50547 0.0
H965 H 0.57523 0.17678 0.54005 0.0
C966 C 0.62982 0.1455 0.50748 0.0
C967 C 0.57256 0.17271 0.51738 0.0
C968 C 0.53338 0.192 0.51589 0.0
C969 C 0.64736 0.13997 0.52109 0.0
C970 C 0.62784 0.15233 0.53296 0.0
C971 C 0.59009 0.16705 0.53096 0.0
C972 C 0.64803 0.15739 0.54711 0.0
C973 C 0.68709 0.12203 0.52263 0.0
C974 C 0.63166 0.14344 0.55931 0.0
C975 C 0.64403 0.15809 0.57265 0.0
C976 C 0.67252 0.18709 0.57384 0.0
C977 C 0.69123 0.19825 0.56183 0.0
C978 C 0.67919 0.18345 0.54858 0.0
H979 H 0.69139 0.10113 0.51391 0.0
H980 H 0.70917 0.14524 0.52206 0.0
H981 H 0.69201 0.10677 0.53288 0.0
H982 H 0.60736 0.12359 0.5584 0.0
H983 H 0.62885 0.14959 0.58179 0.0
H984 H 0.25792 0.25755 0.72006 0.0
H985 H 0.25689 0.24798 0.74556 0.0
H986 H 0.15982 0.32608 0.74677 0.0
H987 H 0.16194 0.33747 0.72145 0.0
H988 H 0.2124 0.33576 0.76965 0.0
H989 H 0.17508 0.17945 0.76142 0.0
H990 H 0.21975 0.19506 0.75467 0.0
H991 H 0.17465 0.21346 0.74701 0.0
C992 C 0.23688 0.27337 0.72579 0.0
C993 C 0.20969 0.29797 0.71867 0.0
C994 C 0.23607 0.26749 0.74035 0.0
C995 C 0.20778 0.28567 0.748 0.0
C996 C 0.18176 0.31155 0.74105 0.0
H997 H 0.0742 0.2744 0.81635 0.0
H998 H 0.11178 0.28927 0.79607 0.0
C999 C 0.18274 0.31771 0.72654 0.0
C1000 C 0.20336 0.2763 0.76303 0.0
H1001 H 0.17428 0.20386 0.78446 0.0
C1002 C 0.20473 0.30678 0.77294 0.0
C1003 C 0.19349 0.23839 0.76733 0.0
C1004 C 0.19032 0.20469 0.75707 0.0
C1005 C 0.1945 0.30074 0.78684 0.0
C1006 C 0.18258 0.26341 0.79085 0.0
C1007 C 0.1837 0.2324 0.78128 0.0
C1008 C 0.16248 0.25738 0.80391 0.0
C1009 C 0.19475 0.33462 0.79697 0.0
C1010 C 0.17865 0.23437 0.81496 0.0
C1011 C 0.15722 0.22608 0.82662 0.0
C1012 C 0.11939 0.24033 0.82717 0.0
C1013 C 0.10344 0.26334 0.81612 0.0
C1014 C 0.12491 0.27202 0.80463 0.0
H1015 H 0.21369 0.35849 0.79364 0.0
H1016 H 0.16492 0.34615 0.79732 0.0
H1017 H 0.20463 0.32535 0.80781 0.0
H1018 H 0.20749 0.22251 0.81446 0.0
H1019 H 0.16978 0.20795 0.83502 0.0
loop_
_geom_bond_atom_site_label_1
_geom_bond_atom_site_label_2
_geom_bond_distance
_geom_bond_site_symmetry_2
_ccdc_geom_bond_type
H0 C3 0.931 . S
H1 C6 0.928 . S
H2 C8 0.930 . S
C3 H0 0.931 . S
C3 C4 1.413 . S
C3 C5 1.360 . S
C4 C3 1.413 . S
C4 C8 1.429 . S
C5 C3 1.360 . S
C5 C6 1.372 . S
C6 H1 0.928 . S
C6 C5 1.372 . S
C6 C7 1.404 . S
C7 C6 1.404 . S
C7 C8 1.391 . S
C8 H2 0.930 . S
C8 C4 1.429 . S
C8 C7 1.391 . S
H9 C12 0.931 . S
H10 C15 0.928 . S
H11 C17 0.930 . S
C12 H9 0.931 . S
C12 C13 1.413 . S
C12 C14 1.360 . S
C13 C12 1.413 . S
C13 C17 1.429 . S
C14 C12 1.360 . S
C14 C15 1.372 . S
C15 H10 0.928 . S
C15 C14 1.372 . S
C15 C16 1.404 . S
C16 C15 1.404 . S
C16 C17 1.391 . S
C17 H11 0.930 . S
C17 C13 1.429 . S
C17 C16 1.391 . S
H18 C21 0.931 . S
H19 C24 0.928 . S
H20 C26 0.930 . S
C21 H18 0.931 . S
C21 C22 1.413 . S
C21 C23 1.360 . S
C22 C21 1.413 . S
C22 C26 1.429 . S
C23 C21 1.360 . S
C23 C24 1.372 . S
C24 H19 0.928 . S
C24 C23 1.372 . S
C24 C25 1.404 . S
C25 C24 1.404 . S
C25 C26 1.391 . S
C26 H20 0.930 . S
C26 C22 1.429 . S
C26 C25 1.391 . S
H27 C30 0.931 . S
H28 C33 0.928 . S
H29 C35 0.930 . S
C30 H27 0.931 . S
C30 C31 1.413 . S
C30 C32 1.360 . S
C31 C30 1.413 . S
C31 C35 1.429 . S
C32 C30 1.360 . S
C32 C33 1.372 . S
C33 H28 0.928 . S
C33 C32 1.372 . S
C33 C34 1.404 . S
C34 C33 1.404 . S
C34 C35 1.391 . S
C35 H29 0.930 . S
C35 C31 1.429 . S
C35 C34 1.391 . S
H36 C39 0.931 . S
H37 C42 0.928 . S
H38 C44 0.930 . S
C39 H36 0.931 . S
C39 C40 1.413 . S
C39 C41 1.360 . S
C40 C39 1.413 . S
C40 C44 1.429 . S
C41 C39 1.360 . S
C41 C42 1.372 . S
C42 H37 0.928 . S
C42 C41 1.372 . S
C42 C43 1.404 . S
C43 C42 1.404 . S
C43 C44 1.391 . S
C44 H38 0.930 . S
C44 C40 1.429 . S
C44 C43 1.391 . S
H45 C48 0.931 . S
H46 C51 0.928 . S
H47 C53 0.930 . S
C48 H45 0.931 . S
C48 C49 1.413 . S
C48 C50 1.360 . S
C49 C48 1.413 . S
C49 C53 1.429 . S
C50 C48 1.360 . S
C50 C51 1.372 . S
C51 H46 0.928 . S
C51 C50 1.372 . S
C51 C52 1.404 . S
C52 C51 1.404 . S
C52 C53 1.391 . S
C53 H47 0.930 . S
C53 C49 1.429 . S
C53 C52 1.391 . S
H54 C57 0.931 . S
H55 C60 0.928 . S
H56 C62 0.930 . S
C57 H54 0.931 . S
C57 C58 1.413 . S
C57 C59 1.360 . S
C58 C57 1.413 . S
C58 C62 1.429 . S
C59 C57 1.360 . S
C59 C60 1.372 . S
C60 H55 0.928 . S
C60 C59 1.372 . S
C60 C61 1.404 . S
C61 C60 1.404 . S
C61 C62 1.391 . S
C62 H56 0.930 . S
C62 C58 1.429 . S
C62 C61 1.391 . S
H63 C66 0.931 . S
H64 C69 0.928 . S
H65 C71 0.930 . S
C66 H63 0.931 . S
C66 C67 1.413 . S
C66 C68 1.360 . S
C67 C66 1.413 . S
C67 C71 1.429 . S
C68 C66 1.360 . S
C68 C69 1.372 . S
C69 H64 0.928 . S
C69 C68 1.372 . S
C69 C70 1.404 . S
C70 C69 1.404 . S
C70 C71 1.391 . S
C71 H65 0.930 . S
C71 C67 1.429 . S
C71 C70 1.391 . S
Zn72 O78 1.920 . S
Zn72 O84 1.898 . S
Zn72 O87 1.905 . S
Zn73 O81 1.905 . S
Zn73 O82 1.898 . S
Zn73 O90 1.920 . S
Zn74 O77 2.080 . S
Zn74 O80 2.114 . S
Zn74 O83 2.120 . S
Zn74 O85 2.120 . S
Zn74 O86 2.114 . S
Zn74 O89 2.080 . S
C75 O80 1.166 . S
C75 O81 1.182 . S
C76 O82 1.167 . S
C76 O83 1.299 . S
O77 Zn74 2.080 . S
O77 C91 1.305 . S
O78 Zn72 1.920 . S
O78 C91 1.234 . S
C79 O84 1.167 . S
C79 O85 1.299 . S
O80 Zn74 2.114 . S
O80 C75 1.166 . S
O81 Zn73 1.905 . S
O81 C75 1.182 . S
O82 Zn73 1.898 . S
O82 C76 1.167 . S
O83 Zn74 2.120 . S
O83 C76 1.299 . S
O84 Zn72 1.898 . S
O84 C79 1.167 . S
O85 Zn74 2.120 . S
O85 C79 1.299 . S
O86 Zn74 2.114 . S
O86 C88 1.166 . S
O87 Zn72 1.905 . S
O87 C88 1.182 . S
C88 O86 1.166 . S
C88 O87 1.182 . S
O89 Zn74 2.080 . S
O89 C92 1.305 . S
O90 Zn73 1.920 . S
O90 C92 1.234 . S
C91 O77 1.305 . S
C91 O78 1.234 . S
C92 O89 1.305 . S
C92 O90 1.234 . S
Zn93 O99 1.920 . S
Zn93 O105 1.898 . S
Zn93 O108 1.905 . S
Zn94 O102 1.905 . S
Zn94 O103 1.898 . S
Zn94 O111 1.920 . S
Zn95 O98 2.080 . S
Zn95 O101 2.114 . S
Zn95 O104 2.120 . S
Zn95 O106 2.120 . S
Zn95 O107 2.114 . S
Zn95 O110 2.080 . S
C96 O101 1.166 . S
C96 O102 1.182 . S
C97 O103 1.167 . S
C97 O104 1.299 . S
O98 Zn95 2.080 . S
O98 C112 1.305 . S
O99 Zn93 1.920 . S
O99 C112 1.234 . S
C100 O105 1.167 . S
C100 O106 1.299 . S
O101 Zn95 2.114 . S
O101 C96 1.166 . S
O102 Zn94 1.905 . S
O102 C96 1.182 . S
O103 Zn94 1.898 . S
O103 C97 1.167 . S
O104 Zn95 2.120 . S
O104 C97 1.299 . S
O105 Zn93 1.898 . S
O105 C100 1.167 . S
O106 Zn95 2.120 . S
O106 C100 1.299 . S
O107 Zn95 2.114 . S
O107 C109 1.166 . S
O108 Zn93 1.905 . S
O108 C109 1.182 . S
C109 O107 1.166 . S
C109 O108 1.182 . S
O110 Zn95 2.080 . S
O110 C113 1.305 . S
O111 Zn94 1.920 . S
O111 C113 1.234 . S
C112 O98 1.305 . S
C112 O99 1.234 . S
C113 O110 1.305 . S
C113 O111 1.234 . S
Zn114 O120 1.920 . S
Zn114 O126 1.898 . S
Zn114 O129 1.905 . S
Zn115 O123 1.905 . S
Zn115 O124 1.898 . S
Zn115 O132 1.920 . S
Zn116 O119 2.080 . S
Zn116 O122 2.114 . S
Zn116 O125 2.120 . S
Zn116 O127 2.120 . S
Zn116 O128 2.114 . S
Zn116 O131 2.080 . S
C117 O122 1.166 . S
C117 O123 1.182 . S
C118 O124 1.167 . S
C118 O125 1.299 . S
O119 Zn116 2.080 . S
O119 C133 1.305 . S
O120 Zn114 1.920 . S
O120 C133 1.234 . S
C121 O126 1.167 . S
C121 O127 1.299 . S
O122 Zn116 2.114 . S
O122 C117 1.166 . S
O123 Zn115 1.905 . S
O123 C117 1.182 . S
O124 Zn115 1.898 . S
O124 C118 1.167 . S
O125 Zn116 2.120 . S
O125 C118 1.299 . S
O126 Zn114 1.898 . S
O126 C121 1.167 . S
O127 Zn116 2.120 . S
O127 C121 1.299 . S
O128 Zn116 2.114 . S
O128 C130 1.166 . S
O129 Zn114 1.905 . S
O129 C130 1.182 . S
C130 O128 1.166 . S
C130 O129 1.182 . S
O131 Zn116 2.080 . S
O131 C134 1.305 . S
O132 Zn115 1.920 . S
O132 C134 1.234 . S
C133 O119 1.305 . S
C133 O120 1.234 . S
C134 O131 1.305 . S
C134 O132 1.234 . S
Zn135 O141 1.920 . S
Zn135 O147 1.898 . S
Zn135 O150 1.905 . S
Zn136 O144 1.905 . S
Zn136 O145 1.898 . S
Zn136 O153 1.920 . S
Zn137 O140 2.080 . S
Zn137 O143 2.114 . S
Zn137 O146 2.120 . S
Zn137 O148 2.120 . S
Zn137 O149 2.114 . S
Zn137 O152 2.080 . S
C138 O143 1.166 . S
C138 O144 1.182 . S
C139 O145 1.167 . S
C139 O146 1.299 . S
O140 Zn137 2.080 . S
O140 C154 1.305 . S
O141 Zn135 1.920 . S
O141 C154 1.234 . S
C142 O147 1.167 . S
C142 O148 1.299 . S
O143 Zn137 2.114 . S
O143 C138 1.166 . S
O144 Zn136 1.905 . S
O144 C138 1.182 . S
O145 Zn136 1.898 . S
O145 C139 1.167 . S
O146 Zn137 2.120 . S
O146 C139 1.299 . S
O147 Zn135 1.898 . S
O147 C142 1.167 . S
O148 Zn137 2.120 . S
O148 C142 1.299 . S
O149 Zn137 2.114 . S
O149 C151 1.166 . S
O150 Zn135 1.905 . S
O150 C151 1.182 . S
C151 O149 1.166 . S
C151 O150 1.182 . S
O152 Zn137 2.080 . S
O152 C155 1.305 . S
O153 Zn136 1.920 . S
O153 C155 1.234 . S
C154 O140 1.305 . S
C154 O141 1.234 . S
C155 O152 1.305 . S
C155 O153 1.234 . S
H156 C164 0.929 . S
H157 C166 0.930 . S
H158 C168 0.930 . S
H159 C171 0.929 . S
H160 C174 0.930 . S
H161 C176 0.960 . S
H162 C176 0.960 . S
H163 C176 0.960 . S
C164 H156 0.929 . S
C164 C165 1.377 . S
C164 C166 1.384 . S
C165 C164 1.377 . S
C165 C171 1.390 . S
C166 H157 0.930 . S
C166 C164 1.384 . S
C166 C167 1.372 . S
C167 C166 1.372 . S
C167 C168 1.400 . S
C167 C172 1.490 . S
C168 H158 0.930 . S
C168 C167 1.400 . S
C168 C171 1.386 . S
H169 C185 0.930 . S
H170 C186 0.931 . S
C171 H159 0.929 . S
C171 C165 1.390 . S
C171 C168 1.386 . S
C172 C167 1.490 . S
C172 C174 1.395 . S
C172 C175 1.403 . S
H173 C179 0.930 . S
C174 H160 0.930 . S
C174 C172 1.395 . S
C174 C177 1.403 . S
C175 C172 1.403 . S
C175 C176 1.524 . S
C175 C179 1.400 . S
C176 H161 0.960 . S
C176 H162 0.960 . S
C176 H163 0.960 . S
C176 C175 1.524 . S
C177 C174 1.403 . S
C177 C178 1.392 . S
C177 C181 1.495 . S
C178 C177 1.392 . S
C178 C179 1.385 . S
C178 C180 1.478 . S
C179 H173 0.930 . S
C179 C175 1.400 . S
C179 C178 1.385 . S
C180 C178 1.478 . S
C180 C182 1.381 . S
C180 C186 1.383 . S
C181 C177 1.495 . S
C181 H187 0.959 . S
C181 H188 0.961 . S
C181 H189 0.960 . S
C182 C180 1.381 . S
C182 C183 1.394 . S
C182 H190 0.930 . S
C183 C182 1.394 . S
C183 C184 1.383 . S
C183 H191 0.929 . S
C184 C183 1.383 . S
C184 C185 1.377 . S
C185 H169 0.930 . S
C185 C184 1.377 . S
C185 C186 1.379 . S
C186 H170 0.931 . S
C186 C180 1.383 . S
C186 C185 1.379 . S
H187 C181 0.959 . S
H188 C181 0.961 . S
H189 C181 0.960 . S
H190 C182 0.930 . S
H191 C183 0.929 . S
H192 C200 0.929 . S
H193 C202 0.930 . S
H194 C204 0.936 . S
H195 C207 0.929 . S
H196 C210 0.930 . S
H197 C212 0.960 . S
H198 C212 0.960 . S
H199 C212 0.960 . S
C200 H192 0.929 . S
C200 C201 1.377 . S
C200 C202 1.384 1_455 S
C201 C200 1.377 . S
C201 C207 1.390 . S
C202 H193 0.930 . S
C202 C200 1.384 1_655 S
C202 C203 1.372 . S
C203 C202 1.372 . S
C203 C204 1.415 . S
C203 C208 1.490 . S
C204 H194 0.936 . S
C204 C203 1.415 . S
C204 C207 1.365 1_655 S
H205 C221 0.930 . S
H206 C222 0.931 . S
C207 H195 0.929 . S
C207 C201 1.390 . S
C207 C204 1.365 1_455 S
C208 C203 1.490 . S
C208 C210 1.395 . S
C208 C211 1.403 . S
H209 C215 0.930 . S
C210 H196 0.930 . S
C210 C208 1.395 . S
C210 C213 1.403 . S
C211 C208 1.403 . S
C211 C212 1.524 . S
C211 C215 1.400 . S
C212 H197 0.960 . S
C212 H198 0.960 . S
C212 H199 0.960 . S
C212 C211 1.524 . S
C213 C210 1.403 . S
C213 C214 1.392 . S
C213 C217 1.495 . S
C214 C213 1.392 . S
C214 C215 1.385 . S
C214 C216 1.478 . S
C215 H209 0.930 . S
C215 C211 1.400 . S
C215 C214 1.385 . S
C216 C214 1.478 . S
C216 C218 1.381 . S
C216 C222 1.383 . S
C217 C213 1.495 . S
C217 H223 0.959 . S
C217 H224 0.961 . S
C217 H225 0.960 . S
C218 C216 1.381 . S
C218 C219 1.394 . S
C218 H226 0.930 . S
C219 C218 1.394 . S
C219 C220 1.383 . S
C219 H227 0.929 . S
C220 C219 1.383 . S
C220 C221 1.377 . S
C221 H205 0.930 . S
C221 C220 1.377 . S
C221 C222 1.379 . S
C222 H206 0.931 . S
C222 C216 1.383 . S
C222 C221 1.379 . S
H223 C217 0.959 . S
H224 C217 0.961 . S
H225 C217 0.960 . S
H226 C218 0.930 . S
H227 C219 0.929 . S
H228 C236 0.929 . S
H229 C238 0.930 . S
H230 C240 0.930 . S
H231 C243 0.929 . S
H232 C246 0.930 . S
H233 C248 0.960 . S
H234 C248 0.960 . S
H235 C248 0.960 . S
C236 H228 0.929 . S
C236 C237 1.377 . S
C236 C238 1.384 . S
C237 C236 1.377 . S
C237 C243 1.390 . S
C238 H229 0.930 . S
C238 C236 1.384 . S
C238 C239 1.372 . S
C239 C238 1.372 . S
C239 C240 1.400 . S
C239 C244 1.490 . S
C240 H230 0.930 . S
C240 C239 1.400 . S
C240 C243 1.386 . S
H241 C257 0.930 . S
H242 C258 0.931 . S
C243 H231 0.929 . S
C243 C237 1.390 . S
C243 C240 1.386 . S
C244 C239 1.490 . S
C244 C246 1.395 . S
C244 C247 1.403 . S
H245 C251 0.930 . S
C246 H232 0.930 . S
C246 C244 1.395 . S
C246 C249 1.403 . S
C247 C244 1.403 . S
C247 C248 1.524 . S
C247 C251 1.400 . S
C248 H233 0.960 . S
C248 H234 0.960 . S
C248 H235 0.960 . S
C248 C247 1.524 . S
C249 C246 1.403 . S
C249 C250 1.392 . S
C249 C253 1.495 . S
C250 C249 1.392 . S
C250 C251 1.385 . S
C250 C252 1.478 . S
C251 H245 0.930 . S
C251 C247 1.400 . S
C251 C250 1.385 . S
C252 C250 1.478 . S
C252 C254 1.381 . S
C252 C258 1.383 . S
C253 C249 1.495 . S
C253 H259 0.959 . S
C253 H260 0.961 . S
C253 H261 0.960 . S
C254 C252 1.381 . S
C254 C255 1.394 . S
C254 H262 0.930 . S
C255 C254 1.394 . S
C255 C256 1.383 . S
C255 H263 0.929 . S
C256 C255 1.383 . S
C256 C257 1.377 . S
C257 H241 0.930 . S
C257 C256 1.377 . S
C257 C258 1.379 . S
C258 H242 0.931 . S
C258 C252 1.383 . S
C258 C257 1.379 . S
H259 C253 0.959 . S
H260 C253 0.961 . S
H261 C253 0.960 . S
H262 C254 0.930 . S
H263 C255 0.929 . S
H264 C272 0.929 . S
H265 C274 0.930 . S
H266 C276 0.930 . S
H267 C279 0.929 . S
H268 C282 0.930 . S
H269 C284 0.960 . S
H270 C284 0.960 . S
H271 C284 0.960 . S
C272 H264 0.929 . S
C272 C273 1.377 . S
C272 C274 1.384 . S
C273 C272 1.377 . S
C273 C279 1.390 . S
C274 H265 0.930 . S
C274 C272 1.384 . S
C274 C275 1.372 . S
C275 C274 1.372 . S
C275 C276 1.400 . S
C275 C280 1.490 . S
C276 H266 0.930 . S
C276 C275 1.400 . S
C276 C279 1.386 . S
H277 C293 0.930 . S
H278 C294 0.931 . S
C279 H267 0.929 . S
C279 C273 1.390 . S
C279 C276 1.386 . S
C280 C275 1.490 . S
C280 C282 1.395 . S
C280 C283 1.403 . S
H281 C287 0.930 . S
C282 H268 0.930 . S
C282 C280 1.395 . S
C282 C285 1.403 . S
C283 C280 1.403 . S
C283 C284 1.524 . S
C283 C287 1.400 . S
C284 H269 0.960 . S
C284 H270 0.960 . S
C284 H271 0.960 . S
C284 C283 1.524 . S
C285 C282 1.403 . S
C285 C286 1.392 . S
C285 C289 1.495 . S
C286 C285 1.392 . S
C286 C287 1.385 . S
C286 C288 1.478 . S
C287 H281 0.930 . S
C287 C283 1.400 . S
C287 C286 1.385 . S
C288 C286 1.478 . S
C288 C290 1.381 . S
C288 C294 1.383 . S
C289 C285 1.495 . S
C289 H295 0.959 . S
C289 H296 0.961 . S
C289 H297 0.960 . S
C290 C288 1.381 . S
C290 C291 1.394 . S
C290 H298 0.930 . S
C291 C290 1.394 . S
C291 C292 1.383 1_655 S
C291 H299 0.929 1_655 S
C292 C291 1.383 1_455 S
C292 C293 1.377 1_455 S
C293 H277 0.930 . S
C293 C292 1.377 1_655 S
C293 C294 1.379 . S
C294 H278 0.931 . S
C294 C288 1.383 . S
C294 C293 1.379 . S
H295 C289 0.959 . S
H296 C289 0.961 . S
H297 C289 0.960 . S
H298 C290 0.930 . S
H299 C291 0.929 1_455 S
H300 C308 0.929 1_655 S
H301 C310 0.930 . S
H302 C312 0.930 . S
H303 C315 0.929 . S
H304 C318 0.930 . S
H305 C320 0.960 . S
H306 C320 0.960 . S
H307 C320 0.960 . S
C308 H300 0.929 1_455 S
C308 C309 1.377 . S
C308 C310 1.384 . S
C309 C308 1.377 . S
C309 C315 1.390 . S
C310 H301 0.930 . S
C310 C308 1.384 . S
C310 C311 1.372 . S
C311 C310 1.372 . S
C311 C312 1.400 . S
C311 C316 1.490 . S
C312 H302 0.930 . S
C312 C311 1.400 . S
C312 C315 1.386 . S
H313 C329 0.930 . S
H314 C330 0.931 . S
C315 H303 0.929 . S
C315 C309 1.390 . S
C315 C312 1.386 . S
C316 C311 1.490 . S
C316 C318 1.395 . S
C316 C319 1.403 . S
H317 C323 0.930 . S
C318 H304 0.930 . S
C318 C316 1.395 . S
C318 C321 1.403 . S
C319 C316 1.403 . S
C319 C320 1.524 . S
C319 C323 1.400 . S
C320 H305 0.960 . S
C320 H306 0.960 . S
C320 H307 0.960 . S
C320 C319 1.524 . S
C321 C318 1.403 . S
C321 C322 1.392 . S
C321 C325 1.495 . S
C322 C321 1.392 . S
C322 C323 1.385 . S
C322 C324 1.478 . S
C323 H317 0.930 . S
C323 C319 1.400 . S
C323 C322 1.385 . S
C324 C322 1.478 . S
C324 C326 1.381 . S
C324 C330 1.383 . S
C325 C321 1.495 . S
C325 H331 0.959 . S
C325 H332 0.961 . S
C325 H333 0.960 . S
C326 C324 1.381 . S
C326 C327 1.394 . S
C326 H334 0.930 . S
C327 C326 1.394 . S
C327 C328 1.383 . S
C327 H335 0.929 . S
C328 C327 1.383 . S
C328 C329 1.377 . S
C329 H313 0.930 . S
C329 C328 1.377 . S
C329 C330 1.379 . S
C330 H314 0.931 . S
C330 C324 1.383 . S
C330 C329 1.379 . S
H331 C325 0.959 . S
H332 C325 0.961 . S
H333 C325 0.960 . S
H334 C326 0.930 . S
H335 C327 0.929 . S
H336 C344 0.929 . S
H337 C346 0.930 . S
H338 C348 0.930 . S
H339 C351 0.929 . S
H340 C354 0.930 . S
H341 C356 0.960 . S
H342 C356 0.960 . S
H343 C356 0.960 . S
C344 H336 0.929 . S
C344 C345 1.377 . S
C344 C346 1.384 . S
C345 C344 1.377 . S
C345 C351 1.390 . S
C346 H337 0.930 . S
C346 C344 1.384 . S
C346 C347 1.372 . S
C347 C346 1.372 . S
C347 C348 1.400 . S
C347 C352 1.490 . S
C348 H338 0.930 . S
C348 C347 1.400 . S
C348 C351 1.386 . S
H349 C365 0.930 1_455 S
H350 C366 0.931 . S
C351 H339 0.929 . S
C351 C345 1.390 . S
C351 C348 1.386 . S
C352 C347 1.490 . S
C352 C354 1.395 . S
C352 C355 1.403 . S
H353 C359 0.930 . S
C354 H340 0.930 . S
C354 C352 1.395 . S
C354 C357 1.403 . S
C355 C352 1.403 . S
C355 C356 1.524 . S
C355 C359 1.400 . S
C356 H341 0.960 . S
C356 H342 0.960 . S
C356 H343 0.960 . S
C356 C355 1.524 . S
C357 C354 1.403 . S
C357 C358 1.392 . S
C357 C361 1.495 . S
C358 C357 1.392 . S
C358 C359 1.385 . S
C358 C360 1.478 . S
C359 H353 0.930 . S
C359 C355 1.400 . S
C359 C358 1.385 . S
C360 C358 1.478 . S
C360 C362 1.381 . S
C360 C366 1.383 . S
C361 C357 1.495 . S
C361 H367 0.959 . S
C361 H368 0.961 . S
C361 H369 0.960 . S
C362 C360 1.381 . S
C362 C363 1.394 . S
C362 H370 0.930 . S
C363 C362 1.394 . S
C363 C364 1.383 1_655 S
C363 H371 0.929 . S
C364 C363 1.383 1_455 S
C364 C365 1.377 1_455 S
C365 H349 0.930 1_655 S
C365 C364 1.377 1_655 S
C365 C366 1.379 . S
C366 H350 0.931 . S
C366 C360 1.383 . S
C366 C365 1.379 . S
H367 C361 0.959 . S
H368 C361 0.961 . S
H369 C361 0.960 . S
H370 C362 0.930 . S
H371 C363 0.929 . S
H372 C380 0.929 . S
H373 C382 0.930 . S
H374 C384 0.930 . S
H375 C387 0.929 . S
H376 C390 0.930 . S
H377 C392 0.960 . S
H378 C392 0.960 . S
H379 C392 0.960 . S
C380 H372 0.929 . S
C380 C381 1.377 . S
C380 C382 1.384 . S
C381 C380 1.377 . S
C381 C387 1.390 . S
C382 H373 0.930 . S
C382 C380 1.384 . S
C382 C383 1.372 . S
C383 C382 1.372 . S
C383 C384 1.400 . S
C383 C388 1.490 . S
C384 H374 0.930 . S
C384 C383 1.400 . S
C384 C387 1.386 . S
H385 C401 0.930 . S
H386 C402 0.931 . S
C387 H375 0.929 . S
C387 C381 1.390 . S
C387 C384 1.386 . S
C388 C383 1.490 . S
C388 C390 1.395 . S
C388 C391 1.403 . S
H389 C395 0.930 . S
C390 H376 0.930 . S
C390 C388 1.395 . S
C390 C393 1.403 . S
C391 C388 1.403 . S
C391 C392 1.524 . S
C391 C395 1.400 . S
C392 H377 0.960 . S
C392 H378 0.960 . S
C392 H379 0.960 . S
C392 C391 1.524 . S
C393 C390 1.403 . S
C393 C394 1.392 . S
C393 C397 1.495 . S
C394 C393 1.392 . S
C394 C395 1.385 . S
C394 C396 1.478 . S
C395 H389 0.930 . S
C395 C391 1.400 . S
C395 C394 1.385 . S
C396 C394 1.478 . S
C396 C398 1.381 . S
C396 C402 1.383 . S
C397 C393 1.495 . S
C397 H403 0.959 . S
C397 H404 0.961 . S
C397 H405 0.960 . S
C398 C396 1.381 . S
C398 C399 1.394 . S
C398 H406 0.930 . S
C399 C398 1.394 . S
C399 C400 1.383 . S
C399 H407 0.929 . S
C400 C399 1.383 . S
C400 C401 1.377 . S
C401 H385 0.930 . S
C401 C400 1.377 . S
C401 C402 1.379 . S
C402 H386 0.931 . S
C402 C396 1.383 . S
C402 C401 1.379 . S
H403 C397 0.959 . S
H404 C397 0.961 . S
H405 C397 0.960 . S
H406 C398 0.930 . S
H407 C399 0.929 . S
H408 C416 0.929 . S
H409 C418 0.930 1_655 S
H410 C420 0.930 . S
H411 C423 0.929 . S
H412 C426 0.930 . S
H413 C428 0.960 . S
H414 C428 0.960 . S
H415 C428 0.960 . S
C416 H408 0.929 . S
C416 C417 1.377 . S
C416 C418 1.384 . S
C417 C416 1.377 . S
C417 C423 1.390 . S
C418 H409 0.930 1_455 S
C418 C416 1.384 . S
C418 C419 1.372 1_455 S
C419 C418 1.372 1_655 S
C419 C420 1.400 1_655 S
C419 C424 1.490 . S
C420 H410 0.930 . S
C420 C419 1.400 1_455 S
C420 C423 1.386 . S
H421 C437 0.930 . S
H422 C438 0.931 . S
C423 H411 0.929 . S
C423 C417 1.390 . S
C423 C420 1.386 . S
C424 C419 1.490 . S
C424 C426 1.395 . S
C424 C427 1.403 . S
H425 C431 0.930 . S
C426 H412 0.930 . S
C426 C424 1.395 . S
C426 C429 1.403 . S
C427 C424 1.403 . S
C427 C428 1.524 . S
C427 C431 1.400 . S
C428 H413 0.960 . S
C428 H414 0.960 . S
C428 H415 0.960 . S
C428 C427 1.524 . S
C429 C426 1.403 . S
C429 C430 1.392 . S
C429 C433 1.495 . S
C430 C429 1.392 . S
C430 C431 1.385 . S
C430 C432 1.478 . S
C431 H425 0.930 . S
C431 C427 1.400 . S
C431 C430 1.385 . S
C432 C430 1.478 . S
C432 C434 1.381 . S
C432 C438 1.383 . S
C433 C429 1.495 . S
C433 H439 0.959 . S
C433 H440 0.961 . S
C433 H441 0.960 . S
C434 C432 1.381 . S
C434 C435 1.394 . S
C434 H442 0.930 . S
C435 C434 1.394 . S
C435 C436 1.383 . S
C435 H443 0.929 . S
C436 C435 1.383 . S
C436 C437 1.377 . S
C437 H421 0.930 . S
C437 C436 1.377 . S
C437 C438 1.379 . S
C438 H422 0.931 . S
C438 C432 1.383 . S
C438 C437 1.379 . S
H439 C433 0.959 . S
H440 C433 0.961 . S
H441 C433 0.960 . S
H442 C434 0.930 . S
H443 C435 0.929 . S
H444 C452 0.929 . S
H445 C454 0.930 . S
H446 C456 0.930 . S
H447 C459 0.929 . S
H448 C462 0.930 . S
H449 C464 0.960 . S
H450 C464 0.960 . S
H451 C464 0.960 . S
C452 H444 0.929 . S
C452 C453 1.377 . S
C452 C454 1.384 . S
C453 C452 1.377 . S
C453 C459 1.390 . S
C454 H445 0.930 . S
C454 C452 1.384 . S
C454 C455 1.372 . S
C455 C454 1.372 . S
C455 C456 1.400 . S
C455 C460 1.490 . S
C456 H446 0.930 . S
C456 C455 1.400 . S
C456 C459 1.386 . S
H457 C473 0.930 . S
H458 C474 0.931 . S
C459 H447 0.929 . S
C459 C453 1.390 . S
C459 C456 1.386 . S
C460 C455 1.490 . S
C460 C462 1.395 . S
C460 C463 1.403 . S
H461 C467 0.930 . S
C462 H448 0.930 . S
C462 C460 1.395 . S
C462 C465 1.403 . S
C463 C460 1.403 . S
C463 C464 1.524 . S
C463 C467 1.400 . S
C464 H449 0.960 . S
C464 H450 0.960 . S
C464 H451 0.960 . S
C464 C463 1.524 . S
C465 C462 1.403 . S
C465 C466 1.392 . S
C465 C469 1.495 . S
C466 C465 1.392 . S
C466 C467 1.385 . S
C466 C468 1.478 . S
C467 H461 0.930 . S
C467 C463 1.400 . S
C467 C466 1.385 . S
C468 C466 1.478 . S
C468 C470 1.381 . S
C468 C474 1.383 . S
C469 C465 1.495 . S
C469 H475 0.959 . S
C469 H476 0.961 . S
C469 H477 0.960 . S
C470 C468 1.381 . S
C470 C471 1.394 . S
C470 H478 0.930 . S
C471 C470 1.394 . S
C471 C472 1.383 . S
C471 H479 0.929 . S
C472 C471 1.383 . S
C472 C473 1.377 . S
C473 H457 0.930 . S
C473 C472 1.377 . S
C473 C474 1.379 . S
C474 H458 0.931 . S
C474 C468 1.383 . S
C474 C473 1.379 . S
H475 C469 0.959 . S
H476 C469 0.961 . S
H477 C469 0.960 . S
H478 C470 0.930 . S
H479 C471 0.929 . S
H480 C488 0.929 . S
H481 C490 0.930 . S
H482 C492 0.930 . S
H483 C495 0.929 . S
H484 C498 0.930 . S
H485 C500 0.960 . S
H486 C500 0.960 . S
H487 C500 0.960 . S
C488 H480 0.929 . S
C488 C489 1.377 . S
C488 C490 1.384 . S
C489 C488 1.377 . S
C489 C495 1.390 . S
C490 H481 0.930 . S
C490 C488 1.384 . S
C490 C491 1.372 . S
C491 C490 1.372 . S
C491 C492 1.400 . S
C491 C496 1.490 . S
C492 H482 0.930 . S
C492 C491 1.400 . S
C492 C495 1.386 . S
H493 C509 0.930 . S
H494 C510 0.931 . S
C495 H483 0.929 . S
C495 C489 1.390 . S
C495 C492 1.386 . S
C496 C491 1.490 . S
C496 C498 1.395 . S
C496 C499 1.403 . S
H497 C503 0.930 . S
C498 H484 0.930 . S
C498 C496 1.395 . S
C498 C501 1.403 . S
C499 C496 1.403 . S
C499 C500 1.524 . S
C499 C503 1.400 . S
C500 H485 0.960 . S
C500 H486 0.960 . S
C500 H487 0.960 . S
C500 C499 1.524 . S
C501 C498 1.403 . S
C501 C502 1.392 . S
C501 C505 1.495 . S
C502 C501 1.392 . S
C502 C503 1.385 . S
C502 C504 1.478 . S
C503 H497 0.930 . S
C503 C499 1.400 . S
C503 C502 1.385 . S
C504 C502 1.478 . S
C504 C506 1.381 . S
C504 C510 1.383 . S
C505 C501 1.495 . S
C505 H511 0.959 . S
C505 H512 0.961 . S
C505 H513 0.960 . S
C506 C504 1.381 . S
C506 C507 1.394 . S
C506 H514 0.930 . S
C507 C506 1.394 . S
C507 C508 1.383 . S
C507 H515 0.929 . S
C508 C507 1.383 . S
C508 C509 1.377 . S
C509 H493 0.930 . S
C509 C508 1.377 . S
C509 C510 1.379 . S
C510 H494 0.931 . S
C510 C504 1.383 . S
C510 C509 1.379 . S
H511 C505 0.959 . S
H512 C505 0.961 . S
H513 C505 0.960 . S
H514 C506 0.930 . S
H515 C507 0.929 . S
H516 C524 0.929 . S
H517 C526 0.930 . S
H518 C528 0.930 . S
H519 C531 0.929 . S
H520 C534 0.930 . S
H521 C536 0.960 . S
H522 C536 0.960 . S
H523 C536 0.960 . S
C524 H516 0.929 . S
C524 C525 1.377 . S
C524 C526 1.384 . S
C525 C524 1.377 . S
C525 C531 1.390 . S
C526 H517 0.930 . S
C526 C524 1.384 . S
C526 C527 1.372 . S
C527 C526 1.372 . S
C527 C528 1.400 . S
C527 C532 1.490 . S
C528 H518 0.930 . S
C528 C527 1.400 . S
C528 C531 1.386 . S
H529 C545 0.930 . S
H530 C546 0.931 . S
C531 H519 0.929 . S
C531 C525 1.390 . S
C531 C528 1.386 . S
C532 C527 1.490 . S
C532 C534 1.395 . S
C532 C535 1.403 . S
H533 C539 0.930 . S
C534 H520 0.930 . S
C534 C532 1.395 . S
C534 C537 1.403 . S
C535 C532 1.403 . S
C535 C536 1.524 . S
C535 C539 1.400 . S
C536 H521 0.960 . S
C536 H522 0.960 . S
C536 H523 0.960 . S
C536 C535 1.524 . S
C537 C534 1.403 . S
C537 C538 1.392 . S
C537 C541 1.495 . S
C538 C537 1.392 . S
C538 C539 1.385 . S
C538 C540 1.478 . S
C539 H533 0.930 . S
C539 C535 1.400 . S
C539 C538 1.385 . S
C540 C538 1.478 . S
C540 C542 1.381 . S
C540 C546 1.383 . S
C541 C537 1.495 . S
C541 H547 0.959 . S
C541 H548 0.961 . S
C541 H549 0.960 . S
C542 C540 1.381 . S
C542 C543 1.394 . S
C542 H550 0.930 . S
C543 C542 1.394 . S
C543 C544 1.383 . S
C543 H551 0.929 . S
C544 C543 1.383 . S
C544 C545 1.377 . S
C545 H529 0.930 . S
C545 C544 1.377 . S
C545 C546 1.379 . S
C546 H530 0.931 . S
C546 C540 1.383 . S
C546 C545 1.379 . S
H547 C541 0.959 . S
H548 C541 0.961 . S
H549 C541 0.960 . S
H550 C542 0.930 . S
H551 C543 0.929 . S
H552 C560 0.929 . S
H553 C562 0.930 . S
H554 C564 0.930 . S
H555 C567 0.929 . S
H556 C570 0.930 . S
H557 C572 0.960 . S
H558 C572 0.960 . S
H559 C572 0.960 . S
C560 H552 0.929 . S
C560 C561 1.377 . S
C560 C562 1.384 . S
C561 C560 1.377 . S
C561 C567 1.390 . S
C562 H553 0.930 . S
C562 C560 1.384 . S
C562 C563 1.372 . S
C563 C562 1.372 . S
C563 C564 1.400 . S
C563 C568 1.490 . S
C564 H554 0.930 . S
C564 C563 1.400 . S
C564 C567 1.386 . S
H565 C581 0.930 . S
H566 C582 0.931 . S
C567 H555 0.929 . S
C567 C561 1.390 . S
C567 C564 1.386 . S
C568 C563 1.490 . S
C568 C570 1.395 . S
C568 C571 1.403 . S
H569 C575 0.930 . S
C570 H556 0.930 . S
C570 C568 1.395 . S
C570 C573 1.403 . S
C571 C568 1.403 . S
C571 C572 1.524 . S
C571 C575 1.400 . S
C572 H557 0.960 . S
C572 H558 0.960 . S
C572 H559 0.960 . S
C572 C571 1.524 . S
C573 C570 1.403 . S
C573 C574 1.392 . S
C573 C577 1.495 . S
C574 C573 1.392 . S
C574 C575 1.385 . S
C574 C576 1.478 . S
C575 H569 0.930 . S
C575 C571 1.400 . S
C575 C574 1.385 . S
C576 C574 1.478 . S
C576 C578 1.381 . S
C576 C582 1.383 . S
C577 C573 1.495 . S
C577 H583 0.959 . S
C577 H584 0.961 . S
C577 H585 0.960 . S
C578 C576 1.381 . S
C578 C579 1.394 . S
C578 H586 0.930 . S
C579 C578 1.394 . S
C579 C580 1.383 . S
C579 H587 0.929 . S
C580 C579 1.383 . S
C580 C581 1.377 . S
C581 H565 0.930 . S
C581 C580 1.377 . S
C581 C582 1.379 . S
C582 H566 0.931 . S
C582 C576 1.383 . S
C582 C581 1.379 . S
H583 C577 0.959 . S
H584 C577 0.961 . S
H585 C577 0.960 . S
H586 C578 0.930 . S
H587 C579 0.929 . S
H588 C596 0.929 . S
H589 C598 0.930 . S
H590 C600 0.930 . S
H591 C603 0.929 . S
H592 C606 0.930 . S
H593 C608 0.960 . S
H594 C608 0.960 . S
H595 C608 0.960 . S
C596 H588 0.929 . S
C596 C597 1.377 . S
C596 C598 1.384 . S
C597 C596 1.377 . S
C597 C603 1.390 . S
C598 H589 0.930 . S
C598 C596 1.384 . S
C598 C599 1.372 . S
C599 C598 1.372 . S
C599 C600 1.400 . S
C599 C604 1.490 . S
C600 H590 0.930 . S
C600 C599 1.400 . S
C600 C603 1.386 . S
H601 C617 0.930 . S
H602 C618 0.931 . S
C603 H591 0.929 . S
C603 C597 1.390 . S
C603 C600 1.386 . S
C604 C599 1.490 . S
C604 C606 1.395 . S
C604 C607 1.403 . S
H605 C611 0.930 . S
C606 H592 0.930 . S
C606 C604 1.395 . S
C606 C609 1.403 . S
C607 C604 1.403 . S
C607 C608 1.524 . S
C607 C611 1.400 . S
C608 H593 0.960 . S
C608 H594 0.960 . S
C608 H595 0.960 . S
C608 C607 1.524 . S
C609 C606 1.403 . S
C609 C610 1.392 1_565 S
C609 C613 1.483 1_565 S
C610 C609 1.392 1_545 S
C610 C611 1.385 1_545 S
C610 C612 1.478 . S
C611 H605 0.930 . S
C611 C607 1.400 . S
C611 C610 1.385 1_565 S
C612 C610 1.478 . S
C612 C614 1.381 . S
C612 C618 1.383 . S
C613 C609 1.483 1_545 S
C613 H619 0.941 1_545 S
C613 H620 0.968 . S
C613 H621 0.983 . S
C614 C612 1.381 . S
C614 C615 1.394 . S
C614 H622 0.930 . S
C615 C614 1.394 . S
C615 C616 1.383 . S
C615 H623 0.929 . S
C616 C615 1.383 . S
C616 C617 1.377 . S
C617 H601 0.930 . S
C617 C616 1.377 . S
C617 C618 1.379 . S
C618 H602 0.931 . S
C618 C612 1.383 . S
C618 C617 1.379 . S
H619 C613 0.941 1_565 S
H620 C613 0.968 . S
H621 C613 0.983 . S
H622 C614 0.930 . S
H623 C615 0.929 . S
H624 C632 0.929 . S
H625 C634 0.930 . S
H626 C636 0.930 . S
H627 C639 0.929 . S
H628 C642 0.930 . S
H629 C644 0.960 . S
H630 C644 0.960 . S
H631 C644 0.960 . S
C632 H624 0.929 . S
C632 C633 1.377 . S
C632 C634 1.384 . S
C633 C632 1.377 . S
C633 C639 1.390 . S
C634 H625 0.930 . S
C634 C632 1.384 . S
C634 C635 1.372 . S
C635 C634 1.372 . S
C635 C636 1.400 . S
C635 C640 1.490 . S
C636 H626 0.930 . S
C636 C635 1.400 . S
C636 C639 1.386 . S
H637 C653 0.930 . S
H638 C654 0.931 . S
C639 H627 0.929 . S
C639 C633 1.390 . S
C639 C636 1.386 . S
C640 C635 1.490 . S
C640 C642 1.395 . S
C640 C643 1.403 . S
H641 C647 0.930 1_565 S
C642 H628 0.930 . S
C642 C640 1.395 . S
C642 C645 1.403 1_545 S
C643 C640 1.403 . S
C643 C644 1.524 . S
C643 C647 1.400 . S
C644 H629 0.960 . S
C644 H630 0.960 . S
C644 H631 0.960 . S
C644 C643 1.524 . S
C645 C642 1.403 1_565 S
C645 C646 1.392 . S
C645 C649 1.495 . S
C646 C645 1.392 . S
C646 C647 1.385 1_565 S
C646 C648 1.478 . S
C647 H641 0.930 1_545 S
C647 C643 1.400 . S
C647 C646 1.385 1_545 S
C648 C646 1.478 . S
C648 C650 1.381 . S
C648 C654 1.383 . S
C649 C645 1.495 . S
C649 H655 0.959 . S
C649 H656 0.961 . S
C649 H657 0.960 . S
C650 C648 1.381 . S
C650 C651 1.394 . S
C650 H658 0.930 . S
C651 C650 1.394 . S
C651 C652 1.383 . S
C651 H659 0.929 . S
C652 C651 1.383 . S
C652 C653 1.377 . S
C653 H637 0.930 . S
C653 C652 1.377 . S
C653 C654 1.379 . S
C654 H638 0.931 . S
C654 C648 1.383 . S
C654 C653 1.379 . S
H655 C649 0.959 . S
H656 C649 0.961 . S
H657 C649 0.960 . S
H658 C650 0.930 . S
H659 C651 0.929 . S
H660 C668 0.929 . S
H661 C670 0.930 . S
H662 C672 0.930 . S
H663 C675 0.929 . S
H664 C678 0.930 . S
H665 C680 0.960 . S
H666 C680 0.960 . S
H667 C680 0.960 . S
C668 H660 0.929 . S
C668 C669 1.377 . S
C668 C670 1.384 . S
C669 C668 1.377 . S
C669 C675 1.390 . S
C670 H661 0.930 . S
C670 C668 1.384 . S
C670 C671 1.372 . S
C671 C670 1.372 . S
C671 C672 1.400 . S
C671 C676 1.490 . S
C672 H662 0.930 . S
C672 C671 1.400 . S
C672 C675 1.386 . S
H673 C689 0.930 . S
H674 C690 0.931 . S
C675 H663 0.929 . S
C675 C669 1.390 . S
C675 C672 1.386 . S
C676 C671 1.490 . S
C676 C678 1.395 . S
C676 C679 1.403 . S
H677 C683 0.930 . S
C678 H664 0.930 . S
C678 C676 1.395 . S
C678 C681 1.403 1_545 S
C679 C676 1.403 . S
C679 C680 1.524 . S
C679 C683 1.400 1_545 S
C680 H665 0.960 . S
C680 H666 0.960 . S
C680 H667 0.960 . S
C680 C679 1.524 . S
C681 C678 1.403 1_565 S
C681 C682 1.392 . S
C681 C685 1.495 . S
C682 C681 1.392 . S
C682 C683 1.385 . S
C682 C684 1.478 . S
C683 H677 0.930 . S
C683 C679 1.400 1_565 S
C683 C682 1.385 . S
C684 C682 1.478 . S
C684 C686 1.381 . S
C684 C690 1.383 . S
C685 C681 1.495 . S
C685 H691 0.959 . S
C685 H692 0.961 . S
C685 H693 0.960 . S
C686 C684 1.381 . S
C686 C687 1.394 . S
C686 H694 0.930 . S
C687 C686 1.394 . S
C687 C688 1.383 . S
C687 H695 0.929 . S
C688 C687 1.383 . S
C688 C689 1.377 . S
C689 H673 0.930 . S
C689 C688 1.377 . S
C689 C690 1.379 . S
C690 H674 0.931 . S
C690 C684 1.383 . S
C690 C689 1.379 . S
H691 C685 0.959 . S
H692 C685 0.961 . S
H693 C685 0.960 . S
H694 C686 0.930 . S
H695 C687 0.929 . S
H696 C704 0.929 . S
H697 C706 0.930 . S
H698 C708 0.930 . S
H699 C711 0.929 . S
H700 C714 0.930 . S
H701 C716 0.960 . S
H702 C716 0.960 . S
H703 C716 0.960 . S
C704 H696 0.929 . S
C704 C705 1.377 . S
C704 C706 1.384 . S
C705 C704 1.377 . S
C705 C711 1.390 . S
C706 H697 0.930 . S
C706 C704 1.384 . S
C706 C707 1.372 . S
C707 C706 1.372 . S
C707 C708 1.400 . S
C707 C712 1.490 . S
C708 H698 0.930 . S
C708 C707 1.400 . S
C708 C711 1.386 . S
H709 C725 0.930 . S
H710 C726 0.931 . S
C711 H699 0.929 . S
C711 C705 1.390 . S
C711 C708 1.386 . S
C712 C707 1.490 . S
C712 C714 1.395 . S
C712 C715 1.403 . S
H713 C719 0.930 . S
C714 H700 0.930 . S
C714 C712 1.395 . S
C714 C717 1.403 . S
C715 C712 1.403 . S
C715 C716 1.524 . S
C715 C719 1.400 . S
C716 H701 0.960 . S
C716 H702 0.960 . S
C716 H703 0.960 . S
C716 C715 1.524 . S
C717 C714 1.403 . S
C717 C718 1.392 1_565 S
C717 C721 1.495 1_565 S
C718 C717 1.392 1_545 S
C718 C719 1.385 1_545 S
C718 C720 1.478 . S
C719 H713 0.930 . S
C719 C715 1.400 . S
C719 C718 1.385 1_565 S
C720 C718 1.478 . S
C720 C722 1.381 . S
C720 C726 1.383 . S
C721 C717 1.495 1_545 S
C721 H727 0.959 1_445 S
C721 H728 0.961 . S
C721 H729 0.960 . S
C722 C720 1.381 . S
C722 C723 1.394 . S
C722 H730 0.930 . S
C723 C722 1.394 . S
C723 C724 1.383 . S
C723 H731 0.929 . S
C724 C723 1.383 . S
C724 C725 1.377 . S
C725 H709 0.930 . S
C725 C724 1.377 . S
C725 C726 1.379 . S
C726 H710 0.931 . S
C726 C720 1.383 . S
C726 C725 1.379 . S
H727 C721 0.959 1_665 S
H728 C721 0.961 . S
H729 C721 0.960 . S
H730 C722 0.930 . S
H731 C723 0.929 . S
H732 C740 0.929 . S
H733 C742 0.930 . S
H734 C744 0.930 . S
H735 C747 0.929 . S
H736 C750 0.930 . S
H737 C752 0.960 . S
H738 C752 0.960 . S
H739 C752 0.960 . S
C740 H732 0.929 . S
C740 C741 1.377 . S
C740 C742 1.384 . S
C741 C740 1.377 . S
C741 C747 1.390 . S
C742 H733 0.930 . S
C742 C740 1.384 . S
C742 C743 1.372 . S
C743 C742 1.372 . S
C743 C744 1.400 . S
C743 C748 1.490 1_554 S
C744 H734 0.930 . S
C744 C743 1.400 . S
C744 C747 1.386 . S
H745 C761 0.930 . S
H746 C762 0.931 . S
C747 H735 0.929 . S
C747 C741 1.390 . S
C747 C744 1.386 . S
C748 C743 1.490 1_556 S
C748 C750 1.395 . S
C748 C751 1.403 . S
H749 C755 0.930 . S
C750 H736 0.930 . S
C750 C748 1.395 . S
C750 C753 1.403 . S
C751 C748 1.403 . S
C751 C752 1.524 . S
C751 C755 1.400 . S
C752 H737 0.960 . S
C752 H738 0.960 . S
C752 H739 0.960 . S
C752 C751 1.524 . S
C753 C750 1.403 . S
C753 C754 1.392 . S
C753 C757 1.495 . S
C754 C753 1.392 . S
C754 C755 1.385 . S
C754 C756 1.478 . S
C755 H749 0.930 . S
C755 C751 1.400 . S
C755 C754 1.385 . S
C756 C754 1.478 . S
C756 C758 1.381 . S
C756 C762 1.383 . S
C757 C753 1.495 . S
C757 H763 0.959 . S
C757 H764 0.961 . S
C757 H765 0.960 . S
C758 C756 1.381 . S
C758 C759 1.394 . S
C758 H766 0.930 . S
C759 C758 1.394 . S
C759 C760 1.383 . S
C759 H767 0.929 . S
C760 C759 1.383 . S
C760 C761 1.377 . S
C761 H745 0.930 . S
C761 C760 1.377 . S
C761 C762 1.379 . S
C762 H746 0.931 . S
C762 C756 1.383 . S
C762 C761 1.379 . S
H763 C757 0.959 . S
H764 C757 0.961 . S
H765 C757 0.960 . S
H766 C758 0.930 . S
H767 C759 0.929 . S
H768 C776 0.929 . S
H769 C778 0.930 . S
H770 C780 0.930 . S
H771 C783 0.929 . S
H772 C786 0.930 . S
H773 C788 0.960 . S
H774 C788 0.960 . S
H775 C788 0.960 . S
C776 H768 0.929 . S
C776 C777 1.377 . S
C776 C778 1.384 . S
C777 C776 1.377 . S
C777 C783 1.390 . S
C778 H769 0.930 . S
C778 C776 1.384 . S
C778 C779 1.372 . S
C779 C778 1.372 . S
C779 C780 1.400 . S
C779 C784 1.490 . S
C780 H770 0.930 . S
C780 C779 1.400 . S
C780 C783 1.386 . S
H781 C797 0.930 . S
H782 C798 0.931 . S
C783 H771 0.929 . S
C783 C777 1.390 . S
C783 C780 1.386 . S
C784 C779 1.490 . S
C784 C786 1.395 . S
C784 C787 1.403 . S
H785 C791 0.930 . S
C786 H772 0.930 . S
C786 C784 1.395 . S
C786 C789 1.403 . S
C787 C784 1.403 . S
C787 C788 1.524 . S
C787 C791 1.400 . S
C788 H773 0.960 . S
C788 H774 0.960 . S
C788 H775 0.960 . S
C788 C787 1.524 . S
C789 C786 1.403 . S
C789 C790 1.392 . S
C789 C793 1.495 . S
C790 C789 1.392 . S
C790 C791 1.385 . S
C790 C792 1.478 . S
C791 H785 0.930 . S
C791 C787 1.400 . S
C791 C790 1.385 . S
C792 C790 1.478 . S
C792 C794 1.381 . S
C792 C798 1.383 . S
C793 C789 1.495 . S
C793 H799 0.959 . S
C793 H800 0.961 . S
C793 H801 0.960 . S
C794 C792 1.381 . S
C794 C795 1.394 . S
C794 H802 0.930 . S
C795 C794 1.394 . S
C795 C796 1.383 . S
C795 H803 0.929 . S
C796 C795 1.383 . S
C796 C797 1.377 . S
C797 H781 0.930 . S
C797 C796 1.377 . S
C797 C798 1.379 . S
C798 H782 0.931 . S
C798 C792 1.383 . S
C798 C797 1.379 . S
H799 C793 0.959 . S
H800 C793 0.961 . S
H801 C793 0.960 . S
H802 C794 0.930 . S
H803 C795 0.929 . S
H804 C812 0.929 . S
H805 C814 0.930 . S
H806 C816 0.930 . S
H807 C819 0.929 . S
H808 C822 0.930 . S
H809 C824 0.960 . S
H810 C824 0.960 . S
H811 C824 0.960 . S
C812 H804 0.929 . S
C812 C813 1.377 . S
C812 C814 1.384 . S
C813 C812 1.377 . S
C813 C819 1.390 . S
C814 H805 0.930 . S
C814 C812 1.384 . S
C814 C815 1.372 . S
C815 C814 1.372 . S
C815 C816 1.400 . S
C815 C820 1.490 . S
C816 H806 0.930 . S
C816 C815 1.400 . S
C816 C819 1.386 . S
H817 C833 0.930 . S
H818 C834 0.931 . S
C819 H807 0.929 . S
C819 C813 1.390 . S
C819 C816 1.386 . S
C820 C815 1.490 . S
C820 C822 1.395 . S
C820 C823 1.403 . S
H821 C827 0.930 . S
C822 H808 0.930 . S
C822 C820 1.395 . S
C822 C825 1.403 . S
C823 C820 1.403 . S
C823 C824 1.524 . S
C823 C827 1.400 . S
C824 H809 0.960 . S
C824 H810 0.960 . S
C824 H811 0.960 . S
C824 C823 1.524 . S
C825 C822 1.403 . S
C825 C826 1.392 . S
C825 C829 1.495 . S
C826 C825 1.392 . S
C826 C827 1.385 . S
C826 C828 1.478 . S
C827 H821 0.930 . S
C827 C823 1.400 . S
C827 C826 1.385 . S
C828 C826 1.478 . S
C828 C830 1.381 . S
C828 C834 1.383 . S
C829 C825 1.495 . S
C829 H835 0.959 . S
C829 H836 0.961 . S
C829 H837 0.960 . S
C830 C828 1.381 . S
C830 C831 1.394 . S
C830 H838 0.930 . S
C831 C830 1.394 . S
C831 C832 1.383 . S
C831 H839 0.929 . S
C832 C831 1.383 . S
C832 C833 1.377 . S
C833 H817 0.930 . S
C833 C832 1.377 . S
C833 C834 1.379 . S
C834 H818 0.931 . S
C834 C828 1.383 . S
C834 C833 1.379 . S
H835 C829 0.959 . S
H836 C829 0.961 . S
H837 C829 0.960 . S
H838 C830 0.930 . S
H839 C831 0.929 . S
H840 C848 0.929 . S
H841 C850 0.930 . S
H842 C852 0.930 . S
H843 C855 0.929 . S
H844 C858 0.930 . S
H845 C860 0.960 . S
H846 C860 0.960 . S
H847 C860 0.960 . S
C848 H840 0.929 . S
C848 C849 1.377 . S
C848 C850 1.384 . S
C849 C848 1.377 . S
C849 C855 1.390 . S
C850 H841 0.930 . S
C850 C848 1.384 . S
C850 C851 1.372 . S
C851 C850 1.372 . S
C851 C852 1.400 . S
C851 C856 1.490 . S
C852 H842 0.930 . S
C852 C851 1.400 . S
C852 C855 1.386 . S
H853 C869 0.930 . S
H854 C870 0.931 . S
C855 H843 0.929 . S
C855 C849 1.390 . S
C855 C852 1.386 . S
C856 C851 1.490 . S
C856 C858 1.395 . S
C856 C859 1.403 . S
H857 C863 0.930 . S
C858 H844 0.930 . S
C858 C856 1.395 . S
C858 C861 1.403 . S
C859 C856 1.403 . S
C859 C860 1.524 . S
C859 C863 1.400 . S
C860 H845 0.960 . S
C860 H846 0.960 . S
C860 H847 0.960 . S
C860 C859 1.524 . S
C861 C858 1.403 . S
C861 C862 1.392 . S
C861 C865 1.495 . S
C862 C861 1.392 . S
C862 C863 1.385 . S
C862 C864 1.478 . S
C863 H857 0.930 . S
C863 C859 1.400 . S
C863 C862 1.385 . S
C864 C862 1.478 . S
C864 C866 1.381 . S
C864 C870 1.383 . S
C865 C861 1.495 . S
C865 H871 0.959 . S
C865 H872 0.961 . S
C865 H873 0.960 . S
C866 C864 1.381 . S
C866 C867 1.394 . S
C866 H874 0.930 . S
C867 C866 1.394 . S
C867 C868 1.383 . S
C867 H875 0.929 . S
C868 C867 1.383 . S
C868 C869 1.377 . S
C869 H853 0.930 . S
C869 C868 1.377 . S
C869 C870 1.379 . S
C870 H854 0.931 . S
C870 C864 1.383 . S
C870 C869 1.379 . S
H871 C865 0.959 . S
H872 C865 0.961 . S
H873 C865 0.960 . S
H874 C866 0.930 . S
H875 C867 0.929 . S
H876 C884 0.929 . S
H877 C886 0.930 . S
H878 C888 0.930 . S
H879 C891 0.929 . S
H880 C894 0.930 . S
H881 C896 0.960 . S
H882 C896 0.960 . S
H883 C896 0.960 . S
C884 H876 0.929 . S
C884 C885 1.377 . S
C884 C886 1.384 . S
C885 C884 1.377 . S
C885 C891 1.390 . S
C886 H877 0.930 . S
C886 C884 1.384 . S
C886 C887 1.372 . S
C887 C886 1.372 . S
C887 C888 1.400 . S
C887 C892 1.490 1_556 S
C888 H878 0.930 . S
C888 C887 1.400 . S
C888 C891 1.386 . S
H889 C905 0.930 . S
H890 C906 0.931 . S
C891 H879 0.929 . S
C891 C885 1.390 . S
C891 C888 1.386 . S
C892 C887 1.490 1_554 S
C892 C894 1.395 . S
C892 C895 1.403 . S
H893 C899 0.930 . S
C894 H880 0.930 . S
C894 C892 1.395 . S
C894 C897 1.403 . S
C895 C892 1.403 . S
C895 C896 1.524 . S
C895 C899 1.400 . S
C896 H881 0.960 . S
C896 H882 0.960 . S
C896 H883 0.960 . S
C896 C895 1.524 . S
C897 C894 1.403 . S
C897 C898 1.392 . S
C897 C901 1.495 . S
C898 C897 1.392 . S
C898 C899 1.385 . S
C898 C900 1.478 . S
C899 H893 0.930 . S
C899 C895 1.400 . S
C899 C898 1.385 . S
C900 C898 1.478 . S
C900 C902 1.381 . S
C900 C906 1.383 . S
C901 C897 1.495 . S
C901 H907 0.959 . S
C901 H908 0.961 . S
C901 H909 0.960 . S
C902 C900 1.381 . S
C902 C903 1.394 . S
C902 H910 0.930 . S
C903 C902 1.394 . S
C903 C904 1.383 . S
C903 H911 0.929 . S
C904 C903 1.383 . S
C904 C905 1.377 . S
C905 H889 0.930 . S
C905 C904 1.377 . S
C905 C906 1.379 . S
C906 H890 0.931 . S
C906 C900 1.383 . S
C906 C905 1.379 . S
H907 C901 0.959 . S
H908 C901 0.961 . S
H909 C901 0.960 . S
H910 C902 0.930 . S
H911 C903 0.929 . S
H912 C920 0.929 . S
H913 C922 0.930 . S
H914 C924 0.930 . S
H915 C927 0.929 . S
H916 C930 0.930 . S
H917 C932 0.960 . S
H918 C932 0.960 . S
H919 C932 0.960 . S
C920 H912 0.929 . S
C920 C921 1.377 . S
C920 C922 1.384 . S
C921 C920 1.377 . S
C921 C927 1.390 . S
C922 H913 0.930 . S
C922 C920 1.384 . S
C922 C923 1.372 . S
C923 C922 1.372 . S
C923 C924 1.400 . S
C923 C928 1.490 . S
C924 H914 0.930 . S
C924 C923 1.400 . S
C924 C927 1.386 . S
H925 C941 0.930 . S
H926 C942 0.931 . S
C927 H915 0.929 . S
C927 C921 1.390 . S
C927 C924 1.386 . S
C928 C923 1.490 . S
C928 C930 1.395 . S
C928 C931 1.403 . S
H929 C935 0.930 . S
C930 H916 0.930 . S
C930 C928 1.395 . S
C930 C933 1.403 . S
C931 C928 1.403 . S
C931 C932 1.524 . S
C931 C935 1.400 . S
C932 H917 0.960 . S
C932 H918 0.960 . S
C932 H919 0.960 . S
C932 C931 1.524 . S
C933 C930 1.403 . S
C933 C934 1.392 . S
C933 C937 1.495 . S
C934 C933 1.392 . S
C934 C935 1.385 . S
C934 C936 1.478 . S
C935 H929 0.930 . S
C935 C931 1.400 . S
C935 C934 1.385 . S
C936 C934 1.478 . S
C936 C938 1.381 . S
C936 C942 1.383 . S
C937 C933 1.495 . S
C937 H943 0.959 . S
C937 H944 0.961 . S
C937 H945 0.960 . S
C938 C936 1.381 . S
C938 C939 1.394 . S
C938 H946 0.930 . S
C939 C938 1.394 . S
C939 C940 1.383 . S
C939 H947 0.929 . S
C940 C939 1.383 . S
C940 C941 1.377 . S
C941 H925 0.930 . S
C941 C940 1.377 . S
C941 C942 1.379 . S
C942 H926 0.931 . S
C942 C936 1.383 . S
C942 C941 1.379 . S
H943 C937 0.959 . S
H944 C937 0.961 . S
H945 C937 0.960 . S
H946 C938 0.930 . S
H947 C939 0.929 . S
H948 C956 0.929 . S
H949 C958 0.930 . S
H950 C960 0.930 . S
H951 C963 0.929 . S
H952 C966 0.930 . S
H953 C968 0.960 . S
H954 C968 0.960 . S
H955 C968 0.960 . S
C956 H948 0.929 . S
C956 C957 1.377 . S
C956 C958 1.384 . S
C957 C956 1.377 . S
C957 C963 1.390 . S
C958 H949 0.930 . S
C958 C956 1.384 . S
C958 C959 1.372 . S
C959 C958 1.372 . S
C959 C960 1.400 . S
C959 C964 1.490 . S
C960 H950 0.930 . S
C960 C959 1.400 . S
C960 C963 1.386 . S
H961 C977 0.930 . S
H962 C978 0.931 . S
C963 H951 0.929 . S
C963 C957 1.390 . S
C963 C960 1.386 . S
C964 C959 1.490 . S
C964 C966 1.395 . S
C964 C967 1.403 . S
H965 C971 0.930 . S
C966 H952 0.930 . S
C966 C964 1.395 . S
C966 C969 1.403 . S
C967 C964 1.403 . S
C967 C968 1.524 . S
C967 C971 1.400 . S
C968 H953 0.960 . S
C968 H954 0.960 . S
C968 H955 0.960 . S
C968 C967 1.524 . S
C969 C966 1.403 . S
C969 C970 1.392 . S
C969 C973 1.495 . S
C970 C969 1.392 . S
C970 C971 1.385 . S
C970 C972 1.478 . S
C971 H965 0.930 . S
C971 C967 1.400 . S
C971 C970 1.385 . S
C972 C970 1.478 . S
C972 C974 1.381 . S
C972 C978 1.383 . S
C973 C969 1.495 . S
C973 H979 0.959 . S
C973 H980 0.961 . S
C973 H981 0.960 . S
C974 C972 1.381 . S
C974 C975 1.394 . S
C974 H982 0.930 . S
C975 C974 1.394 . S
C975 C976 1.383 . S
C975 H983 0.929 . S
C976 C975 1.383 . S
C976 C977 1.377 . S
C977 H961 0.930 . S
C977 C976 1.377 . S
C977 C978 1.379 . S
C978 H962 0.931 . S
C978 C972 1.383 . S
C978 C977 1.379 . S
H979 C973 0.959 . S
H980 C973 0.961 . S
H981 C973 0.960 . S
H982 C974 0.930 . S
H983 C975 0.929 . S
H984 C992 0.929 . S
H985 C994 0.930 . S
H986 C996 0.930 . S
H987 C999 0.929 . S
H988 C1002 0.930 . S
H989 C1004 0.960 . S
H990 C1004 0.960 . S
H991 C1004 0.960 . S
C992 H984 0.929 . S
C992 C993 1.377 . S
C992 C994 1.384 . S
C993 C992 1.377 . S
C993 C999 1.390 . S
C994 H985 0.930 . S
C994 C992 1.384 . S
C994 C995 1.372 . S
C995 C994 1.372 . S
C995 C996 1.400 . S
C995 C1000 1.490 . S
C996 H986 0.930 . S
C996 C995 1.400 . S
C996 C999 1.386 . S
H997 C1013 0.930 . S
H998 C1014 0.931 . S
C999 H987 0.929 . S
C999 C993 1.390 . S
C999 C996 1.386 . S
C1000 C995 1.490 . S
C1000 C1002 1.395 . S
C1000 C1003 1.403 . S
H1001 C1007 0.930 . S
C1002 H988 0.930 . S
C1002 C1000 1.395 . S
C1002 C1005 1.403 . S
C1003 C1000 1.403 . S
C1003 C1004 1.524 . S
C1003 C1007 1.400 . S
C1004 H989 0.960 . S
C1004 H990 0.960 . S
C1004 H991 0.960 . S
C1004 C1003 1.524 . S
C1005 C1002 1.403 . S
C1005 C1006 1.392 . S
C1005 C1009 1.495 . S
C1006 C1005 1.392 . S
C1006 C1007 1.385 . S
C1006 C1008 1.478 . S
C1007 H1001 0.930 . S
C1007 C1003 1.400 . S
C1007 C1006 1.385 . S
C1008 C1006 1.478 . S
C1008 C1010 1.381 . S
C1008 C1014 1.383 . S
C1009 C1005 1.495 . S
C1009 H1015 0.959 . S
C1009 H1016 0.961 . S
C1009 H1017 0.960 . S
C1010 C1008 1.381 . S
C1010 C1011 1.394 . S
C1010 H1018 0.930 . S
C1011 C1010 1.394 . S
C1011 C1012 1.383 . S
C1011 H1019 0.929 . S
C1012 C1011 1.383 . S
C1012 C1013 1.377 . S
C1013 H997 0.930 . S
C1013 C1012 1.377 . S
C1013 C1014 1.379 . S
C1014 H998 0.931 . S
C1014 C1008 1.383 . S
C1014 C1013 1.379 . S
H1015 C1009 0.959 . S
H1016 C1009 0.961 . S
H1017 C1009 0.960 . S
H1018 C1010 0.930 . S
H1019 C1011 0.929 . S
C184 C79 1.447 . S
C165 C4 1.545 . S
C220 C97 1.311 . S
C201 C13 1.352 . S
C237 C25 1.296 . S
C256 C121 1.205 . S
C292 C151 1.246 . S
C273 C34 1.359 . S
C328 C139 1.232 . S
C309 C40 1.309 . S
C345 C52 1.344 . S
C364 C92 1.240 . S
C381 C61 1.539 . S
C400 C112 1.468 . S
C417 C67 1.382 . S
C436 C117 1.194 . S
C453 C70 1.334 . S
C472 C133 1.300 . S
C489 C49 1.391 . S
C508 C88 1.176 . S
C544 C155 1.249 . S
C525 C31 1.353 . S
C580 C100 1.240 . S
C561 C16 1.360 . S
C597 C22 1.538 . S
C616 C118 1.465 . S
C633 C7 1.310 . S
C652 C76 1.158 . S
C688 C96 1.149 . S
C669 C58 1.300 . S
C724 C142 1.412 . S
C705 C43 1.550 . S
C760 C138 1.340 . S
C741 C5 1.465 . S
C796 C91 1.315 . S
C777 C14 1.424 . S
C813 C23 1.446 . S
C832 C113 1.323 . S
C849 C32 1.449 . S
C868 C134 1.331 . S
C904 C75 1.349 . S
C885 C41 1.471 . S
C921 C50 1.474 . S
C940 C109 1.342 . S
C976 C130 1.365 . S
C957 C59 1.493 . S
C1012 C154 1.372 . S
C993 C68 1.450 . S
