# Generated by pormake.
# Topology anh, (6,3)-cn, num edge types: 1
# Building blocks:
#     Node 0, Type 0, BuildingBlock: VOLQOD_clean_sbu_1, # of connection points: 6
#     Node 1, Type 0, BuildingBlock: VOLQOD_clean_sbu_1, # of connection points: 6
#     Node 2, Type 0, BuildingBlock: VOLQOD_clean_sbu_1, # of connection points: 6
#     Node 3, Type 1, BuildingBlock: VETTIZ_charged_linker_0, # of connection points: 3
#     Node 4, Type 1, BuildingBlock: VETTIZ_charged_linker_0, # of connection points: 3
#     Node 5, Type 1, BuildingBlock: VETTIZ_charged_linker_0, # of connection points: 3
#     Node 6, Type 1, BuildingBlock: VETTIZ_charged_linker_0, # of connection points: 3
#     Node 7, Type 1, BuildingBlock: VETTIZ_charged_linker_0, # of connection points: 3
#     Node 8, Type 1, BuildingBlock: VETTIZ_charged_linker_0, # of connection points: 3
#     Edge 9, Type (0, 1), BuildingBlock: MIFKUJ_clean_linker_0, # of connection points: 2
#     Edge 10, Type (0, 1), BuildingBlock: MIFKUJ_clean_linker_0, # of connection points: 2
#     Edge 11, Type (0, 1), BuildingBlock: MIFKUJ_clean_linker_0, # of connection points: 2
#     Edge 12, Type (0, 1), BuildingBlock: MIFKUJ_clean_linker_0, # of connection points: 2
#     Edge 13, Type (0, 1), BuildingBlock: MIFKUJ_clean_linker_0, # of connection points: 2
#     Edge 14, Type (0, 1), BuildingBlock: MIFKUJ_clean_linker_0, # of connection points: 2
#     Edge 15, Type (0, 1), BuildingBlock: MIFKUJ_clean_linker_0, # of connection points: 2
#     Edge 16, Type (0, 1), BuildingBlock: MIFKUJ_clean_linker_0, # of connection points: 2
#     Edge 17, Type (0, 1), BuildingBlock: MIFKUJ_clean_linker_0, # of connection points: 2
#     Edge 18, Type (0, 1), BuildingBlock: MIFKUJ_clean_linker_0, # of connection points: 2
#     Edge 19, Type (0, 1), BuildingBlock: MIFKUJ_clean_linker_0, # of connection points: 2
#     Edge 20, Type (0, 1), BuildingBlock: MIFKUJ_clean_linker_0, # of connection points: 2
#     Edge 21, Type (0, 1), BuildingBlock: MIFKUJ_clean_linker_0, # of connection points: 2
#     Edge 22, Type (0, 1), BuildingBlock: MIFKUJ_clean_linker_0, # of connection points: 2
#     Edge 23, Type (0, 1), BuildingBlock: MIFKUJ_clean_linker_0, # of connection points: 2
#     Edge 24, Type (0, 1), BuildingBlock: MIFKUJ_clean_linker_0, # of connection points: 2
#     Edge 25, Type (0, 1), BuildingBlock: MIFKUJ_clean_linker_0, # of connection points: 2
#     Edge 26, Type (0, 1), BuildingBlock: MIFKUJ_clean_linker_0, # of connection points: 2
# Relax obj value: 0.169
# Max RMSD: 0.231
# Mean RMSD: 0.117
data_MOF--net-anh--node1-VOLQOD_clean_sbu_1--node2-VETTIZ_charged_linker_0--edge1-MIFKUJ_clean_linker_0
_symmetry_space_group_name_H-M    P1
_symmetry_Int_Tables_number       1
_symmetry_cell_setting            triclinic
loop_
_symmetry_equiv_pos_as_xyz
'x, y, z'
_cell_length_a     42.558633
_cell_length_b     42.50481
_cell_length_c     92.131933
_cell_angle_alpha  90.168884
_cell_angle_beta   89.833472
_cell_angle_gamma 120.12173
loop_
_atom_site_label
_atom_site_type_symbol
_atom_site_fract_x
_atom_site_fract_y
_atom_site_fract_z
_atom_type_partial_charge
O0 O 0.01228 0.54386 0.19149 0.0
Zn1 Zn 0.01107 0.55267 0.17009 0.0
O2 O 0.01102 0.51381 0.15856 0.0
Zn3 Zn 0.96627 0.48844 0.14743 0.0
Zn4 Zn 0.01448 0.47946 0.17145 0.0
Zn5 Zn 0.0521 0.53418 0.1452 0.0
O6 O 0.97601 0.48975 0.12602 0.0
O7 O 0.0354 0.52795 0.12444 0.0
O8 O 0.96734 0.55791 0.16589 0.0
O9 O 0.93769 0.51361 0.14986 0.0
O10 O 0.93464 0.43666 0.15412 0.0
O11 O 0.96933 0.43065 0.17053 0.0
O12 O 0.05654 0.47271 0.16638 0.0
O13 O 0.05601 0.60037 0.16586 0.0
O14 O 0.0812 0.50902 0.14737 0.0
O15 O 0.08551 0.58748 0.14911 0.0
C16 C 0.01685 0.52079 0.19858 0.0
C17 C 0.00459 0.50829 0.11847 0.0
C18 C 0.93985 0.41758 0.16339 0.0
C19 C 0.94069 0.5402 0.15732 0.0
C20 C 0.08027 0.48582 0.15634 0.0
C21 C 0.08325 0.61012 0.15752 0.0
O22 O 0.01941 0.49562 0.19216 0.0
O23 O 0.45189 -0.00339 0.47215 0.0
Zn24 Zn 0.44783 -0.00252 0.49396 0.0
O25 O 0.49008 -0.00045 0.50344 0.0
Zn26 Zn 0.51708 0.04405 0.51463 0.0
Zn27 Zn 0.52137 0.99615 0.48875 0.0
Zn28 Zn 0.47432 0.95984 0.51695 0.0
O29 O 0.51896 0.03576 0.5361 0.0
O30 O 0.4831 0.97608 0.53761 0.0
O31 O 0.44346 0.04128 0.49908 0.0
O32 O 0.49212 0.07258 0.51299 0.0
O33 O 0.56744 0.07499 0.50673 0.0
O34 O 0.5708 0.04069 0.48924 0.0
O35 O 0.52669 0.95212 0.4916 0.0
O36 O 0.40192 0.95175 0.49958 0.0
O37 O 0.49994 0.93246 0.51308 0.0
O38 O 0.42136 0.92485 0.51481 0.0
C39 C 0.47482 0.995 0.46373 0.0
C40 C 0.50226 0.00689 0.54363 0.0
C41 C 0.58499 0.06992 0.49667 0.0
C42 C 0.46376 0.06893 0.50685 0.0
C43 C 0.51816 0.93088 0.50243 0.0
C44 C 0.39588 0.92521 0.50778 0.0
O45 O 0.50221 0.99411 0.46872 0.0
O46 O 0.49747 0.49083 0.80208 0.0
Zn47 Zn 0.4904 0.48306 0.82364 0.0
O48 O 0.53172 0.52146 0.83426 0.0
Zn49 Zn 0.51459 0.54477 0.84772 0.0
Zn50 Zn 0.56595 0.55741 0.82056 0.0
Zn51 Zn 0.55603 0.50108 0.84538 0.0
O52 O 0.52395 0.53841 0.8685 0.0
O53 O 0.55052 0.50512 0.86688 0.0
O54 O 0.44313 0.48042 0.82899 0.0
O55 O 0.46091 0.5229 0.84603 0.0
O56 O 0.53546 0.59732 0.84312 0.0
O57 O 0.56609 0.60469 0.82267 0.0
O58 O 0.61676 0.56696 0.82368 0.0
O59 O 0.48584 0.4345 0.82776 0.0
O60 O 0.60929 0.52703 0.84078 0.0
O61 O 0.53433 0.44788 0.84115 0.0
C62 C 0.52372 0.51388 0.79431 0.0
C63 C 0.53757 0.52103 0.87446 0.0
C64 C 0.55383 0.61694 0.83246 0.0
C65 C 0.43603 0.49823 0.83827 0.0
C66 C 0.62961 0.55248 0.83208 0.0
C67 C 0.50573 0.42484 0.83449 0.0
O68 O 0.55207 0.54009 0.79999 0.0
C69 C 0.59967 0.1051 0.22297 0.0
C70 C 0.62933 0.13063 0.2312 0.0
C71 C 0.62543 0.13207 0.24634 0.0
C72 C 0.56304 0.08282 0.24482 0.0
C73 C 0.56689 0.08172 0.22996 0.0
C74 C 0.53251 0.05367 0.22273 0.0
H75 H 0.35872 0.91706 0.22852 0.0
C76 C 0.52544 0.05497 0.24861 0.0
C77 C 0.50737 0.03802 0.2357 0.0
H78 H 0.42319 0.96029 0.18954 0.0
H79 H 0.47332 0.00488 0.20375 0.0
H80 H 0.4222 0.92039 0.2483 0.0
H81 H 0.38214 0.99466 0.24285 0.0
H82 H 0.39264 0.99555 0.26131 0.0
H83 H 0.35788 0.95368 0.25326 0.0
H84 H 0.37839 0.91084 0.25469 0.0
H85 H 0.41856 0.93585 0.26559 0.0
C86 C 0.54012 0.02524 0.21544 0.0
C87 C 0.51987 0.07343 0.21215 0.0
C88 C 0.48612 0.03291 0.30144 0.0
C89 C 0.45318 0.00878 0.30837 0.0
C90 C 0.42289 0.98545 0.29977 0.0
C91 C 0.42555 0.98571 0.2846 0.0
C92 C 0.45885 0.00955 0.27789 0.0
C93 C 0.48828 0.03294 0.28629 0.0
C94 C 0.52131 0.0569 0.2773 0.0
C95 C 0.50699 0.04366 0.26211 0.0
C96 C 0.47047 0.01579 0.26253 0.0
C97 C 0.5517 0.04865 0.28146 0.0
C98 C 0.53127 0.09697 0.27971 0.0
C99 C 0.38346 0.93644 0.22301 0.0
C100 C 0.38701 0.93501 0.20787 0.0
C101 C 0.41991 0.96044 0.2012 0.0
C102 C 0.44897 0.98643 0.20948 0.0
C103 C 0.44521 0.98705 0.22462 0.0
C104 C 0.41274 0.96258 0.23112 0.0
C105 C 0.41366 0.96738 0.24733 0.0
C106 C 0.45217 -0.00139 0.24948 0.0
C107 C 0.47051 0.00983 0.23614 0.0
C108 C 0.40768 0.93181 0.25447 0.0
C109 C 0.385 0.97813 0.25154 0.0
H110 H 0.59124 0.11055 0.26476 0.0
H111 H 0.60168 0.1038 0.21128 0.0
H112 H 0.52759 0.10105 0.21624 0.0
H113 H 0.49002 0.05946 0.21099 0.0
H114 H 0.5324 0.07671 0.20126 0.0
H115 H 0.55839 0.01987 0.22231 0.0
H116 H 0.55356 0.03503 0.20473 0.0
H117 H 0.51547 -0.00158 0.21401 0.0
H118 H 0.5101 0.05094 0.30766 0.0
H119 H 0.397 0.96701 0.30477 0.0
H120 H 0.4016 0.96718 0.27869 0.0
H121 H 0.54028 0.01896 0.28315 0.0
H122 H 0.5653 0.06274 0.29169 0.0
H123 H 0.57248 0.0562 0.27292 0.0
H124 H 0.50663 0.09898 0.28195 0.0
H125 H 0.5436 0.1141 0.27001 0.0
H126 H 0.54994 0.10924 0.28907 0.0
H127 H 0.64803 0.15146 0.2529 0.0
C128 C 0.59248 0.10825 0.2532 0.0
C129 C 0.48907 0.58867 0.55107 0.0
C130 C 0.48385 0.61431 0.55866 0.0
C131 C 0.48141 0.61252 0.57393 0.0
C132 C 0.49074 0.56075 0.57374 0.0
C133 C 0.49255 0.56243 0.55877 0.0
C134 C 0.49957 0.53428 0.55219 0.0
H135 H 0.51591 0.38626 0.56026 0.0
C136 C 0.49696 0.53103 0.57828 0.0
C137 C 0.50223 0.5156 0.5657 0.0
H138 H 0.5155 0.4402 0.52054 0.0
H139 H 0.51344 0.48715 0.53435 0.0
H140 H 0.5734 0.45979 0.57654 0.0
H141 H 0.45663 0.39685 0.57795 0.0
H142 H 0.47367 0.40731 0.59584 0.0
H143 H 0.48595 0.38087 0.58441 0.0
H144 H 0.55012 0.42023 0.58778 0.0
H145 H 0.56068 0.46472 0.59417 0.0
C146 C 0.5362 0.55405 0.54383 0.0
C147 C 0.46616 0.50871 0.54276 0.0
C148 C 0.49766 0.50311 0.63176 0.0
C149 C 0.50532 0.47897 0.63918 0.0
C150 C 0.51323 0.45543 0.63124 0.0
C151 C 0.51324 0.45576 0.61602 0.0
C152 C 0.50567 0.48019 0.60872 0.0
C153 C 0.49841 0.50358 0.61658 0.0
C154 C 0.49337 0.52931 0.60702 0.0
C155 C 0.49852 0.51732 0.59212 0.0
C156 C 0.50528 0.48826 0.59317 0.0
C157 C 0.52359 0.56867 0.61064 0.0
C158 C 0.45423 0.52211 0.60923 0.0
C159 C 0.51601 0.40853 0.55454 0.0
C160 C 0.51526 0.40921 0.53926 0.0
C161 C 0.51525 0.43862 0.53228 0.0
C162 C 0.5141 0.4659 0.54034 0.0
C163 C 0.51292 0.46383 0.55556 0.0
C164 C 0.51493 0.43611 0.56245 0.0
C165 C 0.51437 0.4391 0.57874 0.0
C166 C 0.50987 0.47219 0.5804 0.0
C167 C 0.50881 0.48622 0.56678 0.0
C168 C 0.55136 0.44608 0.58473 0.0
C169 C 0.48106 0.40421 0.58466 0.0
H170 H 0.48286 0.58583 0.59314 0.0
H171 H 0.49187 0.5898 0.53936 0.0
H172 H 0.4406 0.50489 0.54772 0.0
H173 H 0.46184 0.48093 0.54179 0.0
H174 H 0.4684 0.52011 0.53173 0.0
H175 H 0.55518 0.58077 0.5489 0.0
H176 H 0.5321 0.55925 0.53238 0.0
H177 H 0.55112 0.53896 0.54404 0.0
H178 H 0.49224 0.52199 0.63765 0.0
H179 H 0.51926 0.43669 0.63683 0.0
H180 H 0.51927 0.43713 0.61054 0.0
H181 H 0.54921 0.56946 0.6138 0.0
H182 H 0.51542 0.58005 0.61981 0.0
H183 H 0.53123 0.58723 0.60127 0.0
H184 H 0.43467 0.49244 0.6102 0.0
H185 H 0.44439 0.53126 0.6 0.0
H186 H 0.45219 0.53541 0.6193 0.0
H187 H 0.47729 0.63203 0.57999 0.0
C188 C 0.4847 0.58575 0.58152 0.0
C189 C 0.08959 0.48294 0.87752 0.0
C190 C 0.10823 0.46985 0.88585 0.0
C191 C 0.10147 0.46473 0.90089 0.0
C192 C 0.0601 0.48799 0.89928 0.0
C193 C 0.06579 0.49189 0.88445 0.0
C194 C 0.04467 0.50733 0.87736 0.0
H195 H 0.92661 0.56906 0.88422 0.0
C196 C 0.03537 0.5015 0.90322 0.0
C197 C 0.02618 0.51286 0.89043 0.0
H198 H 0.97204 0.55371 0.84464 0.0
H199 H 0.00822 0.53527 0.85862 0.0
H200 H 0.91119 0.49642 0.89914 0.0
H201 H 0.00137 0.60573 0.9027 0.0
H202 H 0.99317 0.58683 0.92017 0.0
H203 H 0.95833 0.59186 0.91115 0.0
H204 H 0.90786 0.53204 0.90824 0.0
H205 H 0.9228 0.50472 0.91759 0.0
C206 C 0.017 0.47832 0.86677 0.0
C207 C 0.07195 0.54388 0.8701 0.0
C208 C 0.00265 0.50325 0.95609 0.0
C209 C 0.98161 0.51557 0.96325 0.0
C210 C 0.96439 0.53045 0.955 0.0
C211 C 0.96801 0.53291 0.93985 0.0
C212 C 0.98919 0.52048 0.93286 0.0
C213 C 0.00611 0.50603 0.941 0.0
C214 C 0.02829 0.49505 0.93183 0.0
C215 C 0.02175 0.50511 0.91681 0.0
C216 C -0.00119 0.51989 0.91748 0.0
C217 C 0.01218 0.45344 0.93346 0.0
C218 C 0.0686 0.51842 0.9365 0.0
C219 C 0.9444 0.56175 0.87857 0.0
C220 C 0.94621 0.56229 0.86334 0.0
C221 C 0.97025 0.55342 0.85637 0.0
C222 C 0.9909 0.54242 0.86451 0.0
C223 C 0.98742 0.54035 0.87973 0.0
C224 C 0.96487 0.55053 0.88649 0.0
C225 C 0.964 0.54627 0.90269 0.0
C226 C 0.98908 0.53096 0.90456 0.0
C227 C 0.00279 0.5276 0.89111 0.0
C228 C 0.92446 0.51865 0.90729 0.0
C229 C 0.97975 0.58448 0.90966 0.0
H230 H 0.07395 0.4696 0.91913 0.0
H231 H 0.0944 0.48739 0.86596 0.0
H232 H 0.09661 0.55922 0.87694 0.0
H233 H 0.06098 0.56236 0.86877 0.0
H234 H 0.08083 0.53933 0.85934 0.0
H235 H 0.00665 0.4504 0.8711 0.0
H236 H 0.02967 0.47983 0.85605 0.0
H237 H 0.99247 0.48052 0.86519 0.0
H238 H 0.01684 0.49235 0.96214 0.0
H239 H 0.9479 0.53996 0.96027 0.0
H240 H 0.95419 0.54442 0.93417 0.0
H241 H 0.98214 0.43929 0.93481 0.0
H242 H 0.02351 0.44704 0.94312 0.0
H243 H 0.01653 0.44074 0.92377 0.0
H244 H 0.07506 0.54632 0.93968 0.0
H245 H 0.08792 0.52266 0.92768 0.0
H246 H 0.07463 0.50619 0.94597 0.0
H247 H 0.11508 0.45413 0.90749 0.0
C248 C 0.07753 0.4737 0.90763 0.0
C249 C 0.92589 0.39508 0.44021 0.0
C250 C 0.9002 0.36532 0.43209 0.0
C251 C 0.90365 0.3657 0.41687 0.0
C252 C 0.95666 0.42606 0.41808 0.0
C253 C 0.95375 0.42496 0.43303 0.0
C254 C 0.98275 0.45899 0.44012 0.0
H255 H 0.12609 0.62879 0.43399 0.0
C256 C 0.98772 0.46184 0.41408 0.0
C257 C 0.00317 0.48111 0.42694 0.0
H258 H 0.07561 0.56808 0.47311 0.0
H259 H 0.03341 0.51671 0.45881 0.0
H260 H 0.12521 0.56226 0.41661 0.0
H261 H 0.05169 0.60419 0.41676 0.0
H262 H 0.05588 0.59332 0.39872 0.0
H263 H 0.0954 0.62778 0.40814 0.0
H264 H 0.13658 0.6051 0.40854 0.0
H265 H 0.11236 0.56305 0.39856 0.0
C266 C 0.00643 0.44883 0.44961 0.0
C267 C 0.96397 0.47669 0.44857 0.0
C268 C 0.01603 0.49595 0.36103 0.0
C269 C 0.04173 0.52782 0.35394 0.0
C270 C 0.0666 0.5579 0.36228 0.0
C271 C 0.06588 0.55619 0.37748 0.0
C272 C 0.03985 0.52414 0.38441 0.0
C273 C 0.01551 0.49474 0.37618 0.0
C274 C 0.9892 0.46322 0.38535 0.0
C275 C 0.00191 0.47843 0.40045 0.0
C276 C 0.03156 0.51409 0.39986 0.0
C277 C -0.00533 0.43048 0.38213 0.0
C278 C 0.95041 0.45614 0.38218 0.0
C279 C 0.10571 0.60448 0.43944 0.0
C280 C 0.10405 0.60243 0.45469 0.0
C281 C 0.0776 0.57015 0.46139 0.0
C282 C 0.05301 0.5404 0.45306 0.0
C283 C 0.05484 0.5429 0.43784 0.0
C284 C 0.08097 0.57445 0.43126 0.0
C285 C 0.07901 0.57185 0.41496 0.0
C286 C 0.04741 0.53347 0.41288 0.0
C287 C 0.03334 0.51688 0.42633 0.0
C288 C 0.11516 0.57599 0.40924 0.0
C289 C 0.0703 0.60086 0.40922 0.0
H290 H 0.93273 0.39496 0.39819 0.0
H291 H 0.92423 0.39521 0.45195 0.0
H292 H 0.94016 0.47381 0.44244 0.0
H293 H 0.98165 0.50625 0.45018 0.0
H294 H 0.95403 0.46356 0.45931 0.0
H295 H 0.00681 0.42463 0.44519 0.0
H296 H -0.00407 0.44232 0.4609 0.0
H297 H 0.03533 0.47045 0.44984 0.0
H298 H -0.00383 0.4726 0.35492 0.0
H299 H 0.08679 0.58267 0.35703 0.0
H300 H 0.08552 0.57992 0.38324 0.0
H301 H 0.02376 0.43977 0.37992 0.0
H302 H 0.97882 0.41504 0.37247 0.0
H303 H 0.98739 0.41169 0.39142 0.0
H304 H 0.9507 0.48217 0.3804 0.0
H305 H 0.93137 0.44304 0.39129 0.0
H306 H 0.93898 0.43921 0.37228 0.0
H307 H 0.88402 0.34299 0.41041 0.0
C308 C 0.93177 0.39597 0.40981 0.0
C309 C 0.4344 0.87463 0.7842 0.0
C310 C 0.43569 0.84721 0.77609 0.0
C311 C 0.43049 0.84593 0.76094 0.0
C312 C 0.42859 0.90182 0.76201 0.0
C313 C 0.43079 0.90154 0.77696 0.0
C314 C 0.43145 0.93401 0.78383 0.0
H315 H 0.45518 0.10222 0.77579 0.0
C316 C 0.42992 0.93587 0.75773 0.0
C317 C 0.43107 0.95464 0.77047 0.0
H318 H 0.43755 0.04248 0.81569 0.0
H319 H 0.42825 0.98954 0.80203 0.0
H320 H 0.50454 0.07538 0.7601 0.0
H321 H 0.39006 0.03769 0.75866 0.0
H322 H 0.4024 0.03219 0.74104 0.0
H323 H 0.4225 0.07721 0.74886 0.0
H324 H 0.48598 0.10042 0.7516 0.0
H325 H 0.49103 0.06647 0.74185 0.0
C326 C 0.46727 0.95533 0.79252 0.0
C327 C 0.39655 0.9205 0.79309 0.0
C328 C 0.4465 0.97256 0.70461 0.0
C329 C 0.45242 0.00423 0.69743 0.0
C330 C 0.45238 0.03235 0.70555 0.0
C331 C 0.44713 0.02923 0.72061 0.0
C332 C 0.44213 -0.00223 0.72767 0.0
C333 C 0.44144 0.96992 0.71966 0.0
C334 C 0.43617 0.93869 0.72901 0.0
C335 C 0.43365 0.95235 0.74397 0.0
C336 C 0.43753 0.98707 0.7431 0.0
C337 C 0.4704 0.93493 0.72733 0.0
C338 C 0.40012 0.90438 0.72455 0.0
C339 C 0.44945 0.07771 0.78156 0.0
C340 C 0.44775 0.07643 0.79677 0.0
C341 C 0.43922 0.04392 0.80395 0.0
C342 C 0.43395 0.0134 0.79602 0.0
C343 C 0.43716 0.01558 0.78079 0.0
C344 C 0.44384 0.04708 0.77382 0.0
C345 C 0.44496 0.04422 0.75761 0.0
C346 C 0.43831 0.00589 0.75595 0.0
C347 C 0.43441 0.98949 0.76955 0.0
C348 C 0.48345 0.07317 0.75238 0.0
C349 C 0.41361 0.04826 0.75109 0.0
H350 H 0.424 0.8711 0.74229 0.0
H351 H 0.43825 0.87641 0.79585 0.0
H352 H 0.37393 0.8944 0.78885 0.0
H353 H 0.38592 0.93951 0.79281 0.0
H354 H 0.40126 0.91591 0.80454 0.0
H355 H 0.49057 0.9577 0.78611 0.0
H356 H 0.46586 0.94127 0.80285 0.0
H357 H 0.47433 0.98345 0.79509 0.0
H358 H 0.44671 0.95059 0.6987 0.0
H359 H 0.4563 0.05678 0.70025 0.0
H360 H 0.4476 0.05165 0.72618 0.0
H361 H 0.49543 0.96217 0.72711 0.0
H362 H 0.46945 0.92075 0.71705 0.0
H363 H 0.47441 0.9205 0.7364 0.0
H364 H 0.3801 0.91176 0.72046 0.0
H365 H 0.38631 0.88599 0.73381 0.0
H366 H 0.40466 0.88902 0.71582 0.0
H367 H 0.43038 0.82454 0.75448 0.0
C368 C 0.42683 0.87301 0.75387 0.0
C369 C 0.59101 0.5009 0.11767 0.0
C370 C 0.62475 0.51367 0.11071 0.0
C371 C 0.62592 0.51284 0.09542 0.0
C372 C 0.56063 0.48507 0.09429 0.0
C373 C 0.55938 0.48679 0.10925 0.0
C374 C 0.52121 0.4724 0.11475 0.0
H375 H 0.34316 0.40391 0.09932 0.0
C376 C 0.52324 0.46843 0.08873 0.0
C377 C 0.4999 0.46093 0.10063 0.0
H378 H 0.39589 0.43814 0.14109 0.0
H379 H 0.45267 0.44991 0.13037 0.0
H380 H 0.40007 0.46867 0.08297 0.0
H381 H 0.38804 0.36247 0.08767 0.0
H382 H 0.39852 0.37543 0.06937 0.0
H383 H 0.3575 0.37083 0.07718 0.0
H384 H 0.36691 0.43018 0.07285 0.0
H385 H 0.4127 0.45842 0.06629 0.0
C386 C 0.51933 0.50409 0.12228 0.0
C387 C 0.51126 0.43942 0.1247 0.0
C388 C 0.50134 0.45203 0.03447 0.0
C389 C 0.47003 0.43952 0.02593 0.0
C390 C 0.43596 0.42546 0.03277 0.0
C391 C 0.43324 0.42451 0.04795 0.0
C392 C 0.46499 0.43828 0.05636 0.0
C393 C 0.49823 0.45136 0.04959 0.0
C394 C 0.52919 0.46595 0.06017 0.0
C395 C 0.50909 0.45968 0.07444 0.0
C396 C 0.47158 0.44346 0.07216 0.0
C397 C 0.55466 0.50705 0.05699 0.0
C398 C 0.54754 0.44247 0.05887 0.0
C399 C 0.36686 0.41372 0.1062 0.0
C400 C 0.36511 0.42053 0.12103 0.0
C401 C 0.39645 0.43259 0.12964 0.0
C402 C 0.42951 0.43986 0.12335 0.0
C403 C 0.43128 0.43534 0.1083 0.0
C404 C 0.40007 0.42178 0.10005 0.0
C405 C 0.40716 0.4206 0.08414 0.0
C406 C 0.4479 0.4362 0.08413 0.0
C407 C 0.46192 0.44468 0.0983 0.0
C408 C 0.396 0.44546 0.07602 0.0
C409 C 0.38664 0.38033 0.07919 0.0
H410 H 0.59701 0.49842 0.07565 0.0
H411 H 0.58914 0.50118 0.12939 0.0
H412 H 0.5213 0.42196 0.11998 0.0
H413 H 0.48168 0.42142 0.12601 0.0
H414 H 0.52373 0.44847 0.1356 0.0
H415 H 0.53856 0.53066 0.11719 0.0
H416 H 0.52647 0.50595 0.13396 0.0
H417 H 0.49246 0.50189 0.12123 0.0
H418 H 0.52796 0.46356 0.02951 0.0
H419 H 0.41147 0.41549 0.02636 0.0
H420 H 0.4066 0.41379 0.05254 0.0
H421 H 0.53938 0.51946 0.05225 0.0
H422 H 0.57639 0.51141 0.04917 0.0
H423 H 0.56721 0.52321 0.06691 0.0
H424 H 0.52688 0.41334 0.05715 0.0
H425 H 0.56215 0.4428 0.0688 0.0
H426 H 0.56665 0.45132 0.04953 0.0
H427 H 0.65156 0.52336 0.08973 0.0
C428 C 0.59414 0.49848 0.08721 0.0
H429 H 0.09609 0.44773 0.1761 0.0
H430 H 0.13979 0.42654 0.17337 0.0
H431 H 0.16758 0.4739 0.13061 0.0
H432 H 0.12438 0.49538 0.13324 0.0
H433 H 0.15369 0.4013 0.13216 0.0
H434 H 0.22211 0.5176 0.15731 0.0
H435 H 0.23303 0.55978 0.17762 0.0
H436 H 0.23549 0.48358 0.20744 0.0
H437 H 0.22409 0.44072 0.1873 0.0
H438 H 0.32344 0.44394 0.108 0.0
H439 H 0.26962 0.44284 0.11741 0.0
H440 H 0.27821 0.39449 0.1572 0.0
H441 H 0.33244 0.39484 0.14765 0.0
H442 H 0.26635 0.45277 0.16159 0.0
H443 H 0.21093 0.34217 0.13533 0.0
H444 H 0.20109 0.30082 0.11483 0.0
H445 H 0.17354 0.36468 0.08729 0.0
H446 H 0.18375 0.40677 0.10755 0.0
C447 C 0.11152 0.45363 0.16612 0.0
C448 C 0.10684 0.47329 0.15489 0.0
C449 C 0.13644 0.44153 0.1646 0.0
C450 C 0.15675 0.44867 0.15179 0.0
C451 C 0.15197 0.46804 0.14055 0.0
C452 C 0.12743 0.48047 0.14211 0.0
C453 C 0.18348 0.4365 0.14997 0.0
C454 C 0.17832 0.41244 0.13859 0.0
C455 C 0.21479 0.44998 0.15877 0.0
C456 C 0.22177 0.47578 0.17084 0.0
C457 C 0.22464 0.50971 0.16822 0.0
C458 C 0.23099 0.53377 0.17969 0.0
C459 C 0.23481 0.52431 0.19382 0.0
C460 C 0.23243 0.49083 0.1965 0.0
C461 C 0.22604 0.46665 0.18506 0.0
C462 C 0.31357 0.43227 0.11863 0.0
C463 C 0.33187 0.41883 0.12697 0.0
C464 C 0.28283 0.43182 0.12402 0.0
C465 C 0.26957 0.41795 0.13788 0.0
C466 C 0.28794 0.40501 0.14642 0.0
C467 C 0.31887 0.40532 0.14097 0.0
C468 C 0.2373 0.41875 0.14336 0.0
C469 C 0.24127 0.44064 0.15543 0.0
C470 C 0.20474 0.40313 0.13522 0.0
C471 C 0.19822 0.37772 0.12298 0.0
C472 C 0.20297 0.34754 0.12488 0.0
C473 C 0.19731 0.32395 0.1133 0.0
C474 C 0.18672 0.33013 0.09977 0.0
C475 C 0.18171 0.3599 0.09779 0.0
C476 C 0.18737 0.3836 0.10933 0.0
H477 H 0.18236 0.31184 0.09081 0.0
H478 H 0.23973 0.54298 0.20269 0.0
H479 H 0.61621 0.14165 0.50415 0.0
H480 H 0.67246 0.1922 0.49452 0.0
H481 H 0.69154 0.1168 0.46996 0.0
H482 H 0.63533 0.06603 0.47951 0.0
H483 H 0.75421 0.17188 0.48247 0.0
H484 H 0.65464 0.15785 0.45351 0.0
H485 H 0.5962 0.15385 0.44777 0.0
H486 H 0.63515 0.2608 0.4653 0.0
H487 H 0.69365 0.2652 0.4714 0.0
H488 H 0.87385 0.29256 0.42811 0.0
H489 H 0.82242 0.24218 0.44072 0.0
H490 H 0.80572 0.31905 0.46538 0.0
H491 H 0.85672 0.36934 0.45275 0.0
H492 H 0.74271 0.26369 0.45339 0.0
H493 H 0.84375 0.27792 0.48153 0.0
H494 H 0.9032 0.28248 0.48538 0.0
H495 H 0.86174 0.17487 0.46811 0.0
H496 H 0.80214 0.16988 0.46395 0.0
C497 C 0.63268 0.13573 0.49691 0.0
C498 C 0.62124 0.09987 0.49251 0.0
C499 C 0.66467 0.16465 0.49136 0.0
C500 C 0.68577 0.15813 0.48141 0.0
C501 C 0.67548 0.12229 0.4776 0.0
C502 C 0.64334 0.09337 0.48304 0.0
C503 C 0.71752 0.18874 0.47436 0.0
C504 C 0.75171 0.19181 0.476 0.0
C505 C 0.71414 0.21491 0.46612 0.0
C506 C 0.67841 0.21169 0.46305 0.0
C507 C 0.65058 0.18032 0.45633 0.0
C508 C 0.6175 0.17804 0.45296 0.0
C509 C 0.61204 0.20712 0.45611 0.0
C510 C 0.6395 0.23838 0.4628 0.0
C511 C 0.67259 0.24074 0.46625 0.0
C512 C 0.85907 0.29858 0.43619 0.0
C513 C 0.86923 0.33472 0.43952 0.0
C514 C 0.82999 0.26991 0.44344 0.0
C515 C 0.81064 0.27706 0.45405 0.0
C516 C 0.8205 0.31309 0.45727 0.0
C517 C 0.84968 0.34171 0.45011 0.0
C518 C 0.7794 0.24697 0.46155 0.0
C519 C 0.74525 0.24393 0.45995 0.0
C520 C 0.78283 0.22081 0.46976 0.0
C521 C 0.81859 0.22368 0.47229 0.0
C522 C 0.8474 0.25535 0.47843 0.0
C523 C 0.8811 0.25799 0.4807 0.0
C524 C 0.88627 0.22902 0.47696 0.0
C525 C 0.85771 0.19731 0.47098 0.0
C526 C 0.82395 0.19455 0.46868 0.0
H527 H 0.91239 0.23112 0.47872 0.0
H528 H 0.58652 0.20542 0.45338 0.0
H529 H 0.53043 0.65132 0.85095 0.0
H530 H 0.51679 0.69875 0.84447 0.0
H531 H 0.56589 0.70916 0.80244 0.0
H532 H 0.57979 0.66174 0.80878 0.0
H533 H 0.57402 0.77581 0.81396 0.0
H534 H 0.48111 0.64959 0.80523 0.0
H535 H 0.44291 0.58642 0.81371 0.0
H536 H 0.39365 0.62202 0.84559 0.0
H537 H 0.43211 0.68558 0.83746 0.0
H538 H 0.48222 0.8262 0.76558 0.0
H539 H 0.50539 0.7916 0.77802 0.0
H540 H 0.439 0.78009 0.81533 0.0
H541 H 0.41441 0.8137 0.80268 0.0
H542 H 0.43994 0.71754 0.80943 0.0
H543 H 0.52686 0.84307 0.8159 0.0
H544 H 0.56725 0.90664 0.80839 0.0
H545 H 0.62846 0.87352 0.7817 0.0
H546 H 0.58806 0.80963 0.78887 0.0
C547 C 0.53936 0.66441 0.84048 0.0
C548 C 0.55534 0.65208 0.83022 0.0
C549 C 0.53156 0.69155 0.83682 0.0
C550 C 0.53962 0.70669 0.82288 0.0
C551 C 0.5593 0.69752 0.81323 0.0
C552 C 0.56712 0.67032 0.81687 0.0
C553 C 0.52258 0.72727 0.81754 0.0
C554 C 0.54476 0.76318 0.81291 0.0
C555 C 0.48432 0.71074 0.8165 0.0
C556 C 0.45977 0.67236 0.82085 0.0
C557 C 0.46222 0.64396 0.81408 0.0
C558 C 0.44059 0.60811 0.81884 0.0
C559 C 0.4161 0.60027 0.83026 0.0
C560 C 0.41282 0.6282 0.8368 0.0
C561 C 0.4345 0.66413 0.83212 0.0
C562 C 0.47179 0.8156 0.77629 0.0
C563 C 0.44647 0.82275 0.78315 0.0
C564 C 0.48547 0.79625 0.78346 0.0
C565 C 0.47448 0.78402 0.7977 0.0
C566 C 0.44805 0.78965 0.80438 0.0
C567 C 0.4342 0.80898 0.79718 0.0
C568 C 0.49142 0.76612 0.8056 0.0
C569 C 0.46918 0.73055 0.81067 0.0
C570 C 0.52964 0.78304 0.8071 0.0
C571 C 0.55425 0.8215 0.80285 0.0
C572 C 0.54877 0.8493 0.80835 0.0
C573 C 0.57169 0.8854 0.80416 0.0
C574 C 0.60036 0.89411 0.79455 0.0
C575 C 0.60622 0.86673 0.78914 0.0
C576 C 0.58335 0.83056 0.79327 0.0
H577 H 0.61808 0.92208 0.79132 0.0
H578 H 0.39952 0.57253 0.83398 0.0
H579 H 0.92275 0.57912 0.17617 0.0
H580 H 0.87385 0.59353 0.17313 0.0
H581 H 0.84786 0.53998 0.13143 0.0
H582 H 0.89579 0.52534 0.13439 0.0
H583 H 0.84996 0.60735 0.13145 0.0
H584 H 0.80133 0.49427 0.16028 0.0
H585 H 0.80018 0.46073 0.18228 0.0
H586 H 0.78323 0.53438 0.20867 0.0
H587 H 0.7847 0.56858 0.1868 0.0
H588 H 0.67978 0.50036 0.10519 0.0
H589 H 0.73732 0.52433 0.11784 0.0
H590 H 0.70428 0.57908 0.14849 0.0
H591 H 0.64638 0.55604 0.13545 0.0
H592 H 0.73728 0.53596 0.16029 0.0
H593 H 0.76435 0.63388 0.12858 0.0
H594 H 0.76302 0.66292 0.10565 0.0
H595 H 0.82001 0.61667 0.08408 0.0
H596 H 0.82119 0.58685 0.1068 0.0
C597 C 0.90671 0.57075 0.16632 0.0
C598 C 0.91284 0.55086 0.15556 0.0
C599 C 0.87891 0.57899 0.16462 0.0
C600 C 0.85744 0.56788 0.15204 0.0
C601 C 0.86432 0.549 0.14117 0.0
C602 C 0.89154 0.54038 0.14294 0.0
C603 C 0.82607 0.57337 0.15019 0.0
C604 C 0.82544 0.59236 0.13789 0.0
C605 C 0.79456 0.55479 0.15889 0.0
C606 C 0.79363 0.53422 0.17197 0.0
C607 C 0.79766 0.50345 0.17079 0.0
C608 C 0.79689 0.4843 0.18322 0.0
C609 C 0.79178 0.4955 0.19687 0.0
C610 C 0.7873 0.52581 0.1981 0.0
C611 C 0.7881 0.54508 0.18569 0.0
C612 C 0.68477 0.51791 0.11448 0.0
C613 C 0.65873 0.52683 0.11914 0.0
C614 C 0.71761 0.53141 0.12175 0.0
C615 C 0.72514 0.55389 0.13392 0.0
C616 C 0.6989 0.56195 0.13903 0.0
C617 C 0.66588 0.54863 0.13162 0.0
C618 C 0.76073 0.56814 0.14106 0.0
C619 C 0.76219 0.55276 0.1543 0.0
C620 C 0.79305 0.58994 0.13317 0.0
C621 C 0.79286 0.60813 0.11944 0.0
C622 C 0.77645 0.62975 0.11894 0.0
C623 C 0.77573 0.64636 0.10597 0.0
C624 C 0.79144 0.64166 0.09342 0.0
C625 C 0.80792 0.62035 0.09381 0.0
C626 C 0.8087 0.60365 0.10675 0.0
H627 H 0.79083 0.65452 0.08338 0.0
H628 H 0.79117 0.48064 0.20648 0.0
H629 H 0.33541 0.91342 0.49288 0.0
H630 H 0.27919 0.85565 0.48986 0.0
H631 H 0.31745 0.80495 0.52007 0.0
H632 H 0.37399 0.86252 0.52305 0.0
H633 H 0.29991 0.77058 0.49487 0.0
H634 H 0.24228 0.811 0.528 0.0
H635 H 0.22497 0.85312 0.53896 0.0
H636 H 0.17042 0.85199 0.49967 0.0
H637 H 0.18784 0.81028 0.48838 0.0
H638 H 0.14126 0.60175 0.47868 0.0
H639 H 0.18519 0.65406 0.49295 0.0
H640 H 0.16926 0.72598 0.46491 0.0
H641 H 0.12476 0.67379 0.4508 0.0
H642 H 0.17258 0.74462 0.49369 0.0
H643 H 0.23858 0.71185 0.4598 0.0
H644 H 0.2583 0.67194 0.44852 0.0
H645 H 0.29951 0.66088 0.48952 0.0
H646 H 0.27935 0.70016 0.50112 0.0
C647 C 0.33156 0.89023 0.49915 0.0
C648 C 0.3594 0.89245 0.50803 0.0
C649 C 0.29926 0.85725 0.4975 0.0
C650 C 0.29414 0.82606 0.50478 0.0
C651 C 0.3209 0.82875 0.51437 0.0
C652 C 0.35321 0.86169 0.51603 0.0
C653 C 0.26352 0.79001 0.50072 0.0
C654 C 0.2719 0.76447 0.495 0.0
C655 C 0.2272 0.78253 0.50058 0.0
C656 C 0.21657 0.80762 0.50731 0.0
C657 C 0.22683 0.81993 0.52165 0.0
C658 C 0.21695 0.84371 0.52793 0.0
C659 C 0.19665 0.85526 0.52001 0.0
C660 C 0.18614 0.84301 0.5058 0.0
C661 C 0.19596 0.81925 0.49946 0.0
C662 C 0.1468 0.62869 0.47569 0.0
C663 C 0.12982 0.63381 0.46358 0.0
C664 C 0.17196 0.65848 0.4838 0.0
C665 C 0.18054 0.69378 0.4799 0.0
C666 C 0.16291 0.69888 0.46807 0.0
C667 C 0.13784 0.66914 0.45994 0.0
C668 C 0.20924 0.72575 0.48762 0.0
C669 C 0.20048 0.75046 0.49395 0.0
C670 C 0.24533 0.73257 0.48833 0.0
C671 C 0.25682 0.70839 0.48139 0.0
C672 C 0.25135 0.70048 0.46646 0.0
C673 C 0.26271 0.67805 0.46 0.0
C674 C 0.27996 0.66371 0.46832 0.0
C675 C 0.28597 0.67184 0.48311 0.0
C676 C 0.27454 0.69414 0.48963 0.0
H677 H 0.28882 0.64643 0.46328 0.0
H678 H 0.18903 0.87367 0.52489 0.0
H679 H 0.54225 0.39421 0.84703 0.0
H680 H 0.52975 0.33179 0.84423 0.0
H681 H 0.43498 0.30561 0.81865 0.0
H682 H 0.44736 0.36799 0.82122 0.0
H683 H 0.47183 0.26186 0.84984 0.0
H684 H 0.43716 0.25852 0.78929 0.0
H685 H 0.44902 0.30126 0.76914 0.0
H686 H 0.54977 0.37934 0.7889 0.0
H687 H 0.53874 0.33687 0.80903 0.0
H688 H 0.40534 0.08454 0.81706 0.0
H689 H 0.41493 0.14217 0.8273 0.0
H690 H 0.51773 0.1999 0.80485 0.0
H691 H 0.5078 0.14274 0.79442 0.0
H692 H 0.47676 0.22783 0.79867 0.0
H693 H 0.5126 0.19153 0.842 0.0
H694 H 0.50546 0.15079 0.86231 0.0
H695 H 0.41179 0.1546 0.87728 0.0
H696 H 0.41808 0.19499 0.85694 0.0
C697 C 0.51849 0.3751 0.84094 0.0
C698 C 0.49615 0.38626 0.83413 0.0
C699 C 0.51126 0.33938 0.83946 0.0
C700 C 0.48169 0.31433 0.83113 0.0
C701 C 0.45814 0.32475 0.82502 0.0
C702 C 0.46535 0.36044 0.82647 0.0
C703 C 0.47777 0.27868 0.82749 0.0
C704 C 0.47274 0.25421 0.83867 0.0
C705 C 0.47965 0.26919 0.81293 0.0
C706 C 0.4869 0.29468 0.80073 0.0
C707 C 0.46189 0.28476 0.78929 0.0
C708 C 0.46847 0.30894 0.77788 0.0
C709 C 0.50006 0.34304 0.77777 0.0
C710 C 0.52524 0.35297 0.78903 0.0
C711 C 0.51883 0.32888 0.80045 0.0
C712 C 0.43027 0.10954 0.81461 0.0
C713 C 0.4557 0.10953 0.80488 0.0
C714 C 0.43576 0.14234 0.82046 0.0
C715 C 0.46698 0.1753 0.81677 0.0
C716 C 0.49332 0.17482 0.80773 0.0
C717 C 0.48768 0.14226 0.8018 0.0
C718 C 0.47079 0.21065 0.82101 0.0
C719 C 0.47565 0.23516 0.80988 0.0
C720 C 0.46941 0.22026 0.83561 0.0
C721 C 0.4656 0.19599 0.84785 0.0
C722 C 0.49029 0.18343 0.84955 0.0
C723 C 0.48644 0.16046 0.86108 0.0
C724 C 0.45813 0.15004 0.87106 0.0
C725 C 0.43368 0.16265 0.86954 0.0
C726 C 0.43739 0.18562 0.85801 0.0
H727 H 0.4552 0.13225 0.87998 0.0
H728 H 0.50507 0.36174 0.76894 0.0
H729 H 0.50246 0.8801 0.48148 0.0
H730 H 0.50079 0.82189 0.48485 0.0
H731 H 0.55007 0.85771 0.52703 0.0
H732 H 0.55072 0.91507 0.52387 0.0
H733 H 0.57267 0.81367 0.51111 0.0
H734 H 0.46397 0.81933 0.52539 0.0
H735 H 0.41182 0.82768 0.52016 0.0
H736 H 0.37239 0.74142 0.48872 0.0
H737 H 0.42484 0.73311 0.49356 0.0
H738 H 0.52031 0.68627 0.5656 0.0
H739 H 0.52828 0.73682 0.55047 0.0
H740 H 0.45788 0.66119 0.51795 0.0
H741 H 0.4489 0.61028 0.53327 0.0
H742 H 0.44569 0.71784 0.52179 0.0
H743 H 0.54629 0.70215 0.51227 0.0
H744 H 0.59761 0.69291 0.51804 0.0
H745 H 0.65189 0.79606 0.53993 0.0
H746 H 0.60062 0.80568 0.53451 0.0
C747 C 0.51416 0.87589 0.4912 0.0
C748 C 0.52666 0.90162 0.50246 0.0
C749 C 0.51308 0.84276 0.49312 0.0
C750 C 0.52508 0.83566 0.50622 0.0
C751 C 0.54083 0.86289 0.51684 0.0
C752 C 0.54116 0.89551 0.51506 0.0
C753 C 0.51633 0.7986 0.5101 0.0
C754 C 0.54496 0.79249 0.51333 0.0
C755 C 0.48001 0.77085 0.51261 0.0
C756 C 0.44864 0.77603 0.50965 0.0
C757 C 0.44444 0.80246 0.51723 0.0
C758 C 0.41479 0.80714 0.51436 0.0
C759 C 0.3889 0.78522 0.50406 0.0
C760 C 0.39257 0.75851 0.49664 0.0
C761 C 0.42228 0.75384 0.49943 0.0
C762 C 0.50584 0.68037 0.5554 0.0
C763 C 0.48417 0.64441 0.55056 0.0
C764 C 0.5108 0.70923 0.54668 0.0
C765 C 0.49439 0.70261 0.53296 0.0
C766 C 0.47111 0.66675 0.52843 0.0
C767 C 0.4661 0.63782 0.53716 0.0
C768 C 0.50219 0.73344 0.52338 0.0
C769 C 0.47337 0.73834 0.5191 0.0
C770 C 0.53833 0.75998 0.51983 0.0
C771 C 0.56948 0.75455 0.52303 0.0
C772 C 0.56906 0.72277 0.51839 0.0
C773 C 0.59816 0.71747 0.5216 0.0
C774 C 0.62798 0.74387 0.52936 0.0
C775 C 0.62878 0.77564 0.53391 0.0
C776 C 0.59972 0.78106 0.53076 0.0
H777 H 0.65048 0.73971 0.53183 0.0
H778 H 0.36594 0.78884 0.50188 0.0
H779 H 0.67957 0.59335 0.81114 0.0
H780 H 0.74445 0.61231 0.81067 0.0
H781 H 0.73281 0.55972 0.85191 0.0
H782 H 0.66851 0.54061 0.85245 0.0
H783 H 0.79441 0.62973 0.85015 0.0
H784 H 0.72956 0.51621 0.82157 0.0
H785 H 0.69246 0.48093 0.80063 0.0
H786 H 0.77187 0.55918 0.77141 0.0
H787 H 0.80923 0.59512 0.79223 0.0
H788 H 0.8742 0.53306 0.86798 0.0
H789 H 0.83283 0.54888 0.85628 0.0
H790 H 0.91874 0.62294 0.82782 0.0
H791 H 0.96108 0.6075 0.83979 0.0
H792 H 0.83586 0.56677 0.81634 0.0
H793 H 0.90886 0.66947 0.84673 0.0
H794 H 0.94441 0.69915 0.86874 0.0
H795 H 0.84897 0.63944 0.89502 0.0
H796 H 0.81296 0.60897 0.8732 0.0
C797 C 0.69098 0.58609 0.82015 0.0
C798 C 0.66892 0.56534 0.83182 0.0
C799 C 0.72795 0.59693 0.81984 0.0
C800 C 0.74328 0.58748 0.83127 0.0
C801 C 0.72146 0.56749 0.84303 0.0
C802 C 0.68465 0.55636 0.84328 0.0
C803 C 0.78156 0.59636 0.83101 0.0
C804 C 0.80391 0.61672 0.84257 0.0
C805 C 0.79426 0.58023 0.82086 0.0
C806 C 0.77189 0.55855 0.80842 0.0
C807 C 0.73894 0.52601 0.81068 0.0
C808 C 0.7179 0.50588 0.79884 0.0
C809 C 0.72974 0.51788 0.7847 0.0
C810 C 0.76269 0.54997 0.78237 0.0
C811 C 0.7838 0.57022 0.79418 0.0
C812 C 0.88439 0.5527 0.85923 0.0
C813 C 0.92098 0.56963 0.85498 0.0
C814 C 0.86068 0.56148 0.85249 0.0
C815 C 0.87297 0.58726 0.84133 0.0
C816 C 0.90897 0.60298 0.83645 0.0
C817 C 0.93298 0.59418 0.84327 0.0
C818 C 0.84779 0.59872 0.83586 0.0
C819 C 0.82757 0.58186 0.82335 0.0
C820 C 0.83697 0.6181 0.84514 0.0
C821 C 0.85823 0.63695 0.85831 0.0
C822 C 0.89549 0.66256 0.85721 0.0
C823 C 0.91572 0.67953 0.86966 0.0
C824 C 0.89896 0.67119 0.88327 0.0
C825 C 0.86191 0.64593 0.88447 0.0
C826 C 0.84155 0.62886 0.87205 0.0
H827 H 0.91468 0.68432 0.8929 0.0
H828 H 0.71342 0.50226 0.77554 0.0
H829 H 0.14882 0.63972 0.14344 0.0
H830 H 0.20206 0.69974 0.14745 0.0
H831 H 0.141 0.72566 0.17781 0.0
H832 H 0.08758 0.66604 0.17378 0.0
H833 H 0.18651 0.78436 0.16099 0.0
H834 H 0.19265 0.69227 0.18986 0.0
H835 H 0.19307 0.63497 0.19337 0.0
H836 H 0.28709 0.6742 0.16596 0.0
H837 H 0.28691 0.73158 0.16213 0.0
H838 H 0.31411 0.90961 0.21064 0.0
H839 H 0.26457 0.85885 0.19769 0.0
H840 H 0.34222 0.84531 0.17221 0.0
H841 H 0.39195 0.89513 0.18554 0.0
H842 H 0.29197 0.78241 0.18282 0.0
H843 H 0.29111 0.87869 0.15693 0.0
H844 H 0.29066 0.93602 0.15375 0.0
H845 H 0.18752 0.88991 0.17543 0.0
H846 H 0.18757 0.83243 0.17893 0.0
C847 C 0.14651 0.65838 0.1508 0.0
C848 C 0.11405 0.64788 0.15844 0.0
C849 C 0.17699 0.69264 0.15308 0.0
C850 C 0.17555 0.71686 0.16308 0.0
C851 C 0.14265 0.7073 0.17007 0.0
C852 C 0.11219 0.6731 0.1678 0.0
C853 C 0.20886 0.75084 0.16724 0.0
C854 C 0.20959 0.78405 0.1658 0.0
C855 C 0.23923 0.75036 0.17318 0.0
C856 C 0.23951 0.71601 0.17557 0.0
C857 C 0.21325 0.68856 0.18449 0.0
C858 C 0.21346 0.65609 0.18655 0.0
C859 C 0.24002 0.6509 0.17985 0.0
C860 C 0.26649 0.67823 0.17111 0.0
C861 C 0.26635 0.71073 0.169 0.0
C862 C 0.32066 0.89586 0.20227 0.0
C863 C 0.35697 0.90632 0.19916 0.0
C864 C 0.29231 0.86714 0.19475 0.0
C865 C 0.29971 0.84857 0.18386 0.0
C866 C 0.33593 0.85942 0.18052 0.0
C867 C 0.3643 0.88806 0.18807 0.0
C868 C 0.26957 0.81611 0.1768 0.0
C869 C 0.26933 0.78305 0.17774 0.0
C870 C 0.23971 0.81681 0.17041 0.0
C871 C 0.23947 0.8513 0.16828 0.0
C872 C 0.26845 0.88084 0.16111 0.0
C873 C 0.26824 0.91336 0.15924 0.0
C874 C 0.23911 0.91663 0.1644 0.0
C875 C 0.21007 0.88734 0.17143 0.0
C876 C 0.21015 0.85476 0.17335 0.0
H877 H 0.239 0.94183 0.16294 0.0
H878 H 0.24015 0.62576 0.18147 0.0
H879 H 0.42609 0.08777 0.48802 0.0
H880 H 0.42682 0.14602 0.48781 0.0
H881 H 0.48641 0.17623 0.52807 0.0
H882 H 0.48578 0.11871 0.52841 0.0
H883 H 0.41096 0.18941 0.51219 0.0
H884 H 0.56603 0.25387 0.51809 0.0
H885 H 0.61256 0.23738 0.51229 0.0
H886 H 0.54887 0.17316 0.47621 0.0
H887 H 0.50287 0.19064 0.48134 0.0
H888 H 0.54936 0.37005 0.54375 0.0
H889 H 0.53559 0.31294 0.53209 0.0
H890 H 0.46012 0.32136 0.50343 0.0
H891 H 0.47237 0.37756 0.51551 0.0
H892 H 0.53847 0.28902 0.50559 0.0
H893 H 0.38598 0.23575 0.4998 0.0
H894 H 0.33848 0.24699 0.50968 0.0
H895 H 0.39713 0.2841 0.5498 0.0
H896 H 0.44466 0.27263 0.54021 0.0
C897 C 0.43833 0.10644 0.49702 0.0
C898 C 0.45652 0.09919 0.50809 0.0
C899 C 0.4387 0.13954 0.49688 0.0
C900 C 0.45724 0.16533 0.50779 0.0
C901 C 0.47237 0.15663 0.51949 0.0
C902 C 0.4721 0.12387 0.51963 0.0
C903 C 0.46534 0.20309 0.5064 0.0
C904 C 0.43849 0.21135 0.51025 0.0
C905 C 0.50155 0.23133 0.50416 0.0
C906 C 0.53076 0.22334 0.50019 0.0
C907 C 0.56223 0.23674 0.50876 0.0
C908 C 0.58856 0.22723 0.50559 0.0
C909 C 0.58369 0.20422 0.4939 0.0
C910 C 0.55272 0.19109 0.48523 0.0
C911 C 0.52655 0.20088 0.48824 0.0
C912 C 0.52997 0.35985 0.53492 0.0
C913 C 0.51156 0.37801 0.53071 0.0
C914 C 0.52245 0.32746 0.52815 0.0
C915 C 0.49648 0.31275 0.51704 0.0
C916 C 0.47995 0.33211 0.5121 0.0
C917 C 0.48723 0.36437 0.51896 0.0
C918 C 0.48429 0.27549 0.51183 0.0
C919 C 0.51052 0.26731 0.50683 0.0
C920 C 0.44764 0.24728 0.51325 0.0
C921 C 0.41905 0.25383 0.51921 0.0
C922 C 0.38865 0.24625 0.51074 0.0
C923 C 0.36174 0.25265 0.51629 0.0
C924 C 0.36487 0.2664 0.53034 0.0
C925 C 0.39481 0.2736 0.5389 0.0
C926 C 0.42174 0.26717 0.53341 0.0
H927 H 0.34403 0.27138 0.53461 0.0
H928 H 0.60391 0.19657 0.49155 0.0
H929 H 0.3757 0.45388 0.82189 0.0
H930 H 0.31271 0.43839 0.82672 0.0
H931 H 0.34814 0.50739 0.8646 0.0
H932 H 0.41064 0.52325 0.85989 0.0
H933 H 0.28878 0.43374 0.86903 0.0
H934 H 0.32813 0.53907 0.8364 0.0
H935 H 0.3506 0.57042 0.81289 0.0
H936 H 0.26185 0.48087 0.79092 0.0
H937 H 0.23886 0.44903 0.81428 0.0
H938 H 0.17536 0.49101 0.89647 0.0
H939 H 0.22304 0.48332 0.88543 0.0
H940 H 0.15346 0.42835 0.84889 0.0
H941 H 0.10525 0.43624 0.85996 0.0
H942 H 0.22025 0.47744 0.84 0.0
H943 H 0.17237 0.37972 0.87308 0.0
H944 H 0.14822 0.34749 0.89623 0.0
H945 H 0.2506 0.41707 0.91688 0.0
H946 H 0.27524 0.45012 0.89391 0.0
C947 C 0.37003 0.46584 0.83121 0.0
C948 C 0.39815 0.48962 0.84056 0.0
C949 C 0.33413 0.45702 0.83391 0.0
C950 C 0.32599 0.47165 0.84604 0.0
C951 C 0.354 0.4957 0.85523 0.0
C952 C 0.38973 0.50478 0.85249 0.0
C953 C 0.28831 0.46158 0.84965 0.0
C954 C 0.27363 0.44314 0.86271 0.0
C955 C 0.26808 0.47244 0.84101 0.0
C956 C 0.28209 0.49151 0.82702 0.0
C957 C 0.31364 0.52596 0.82653 0.0
C958 C 0.32641 0.54384 0.81325 0.0
C959 C 0.30782 0.52755 0.80043 0.0
C960 C 0.27629 0.49342 0.80085 0.0
C961 C 0.26334 0.47548 0.8141 0.0
C962 C 0.16991 0.47671 0.8862 0.0
C963 C 0.13644 0.46384 0.87915 0.0
C964 C 0.19719 0.47232 0.8799 0.0
C965 C 0.19152 0.45457 0.86648 0.0
C966 C 0.15824 0.44187 0.85931 0.0
C967 C 0.13084 0.44645 0.86561 0.0
C968 C 0.22143 0.45122 0.85985 0.0
C969 C 0.23468 0.46697 0.84619 0.0
C970 C 0.24018 0.43741 0.86787 0.0
C971 C 0.22563 0.41749 0.88174 0.0
C972 C 0.18969 0.38831 0.88257 0.0
C973 C 0.17591 0.36987 0.89567 0.0
C974 C 0.19785 0.38024 0.90802 0.0
C975 C 0.23365 0.40905 0.9073 0.0
C976 C 0.24756 0.4276 0.89423 0.0
H977 H 0.18713 0.36594 0.91815 0.0
H978 H 0.31776 0.54143 0.79017 0.0
H979 H 0.94444 0.36487 0.17846 0.0
H980 H 0.89429 0.30811 0.18783 0.0
H981 H 0.81765 0.33111 0.16671 0.0
H982 H 0.86769 0.3874 0.15697 0.0
H983 H 0.84711 0.30348 0.20648 0.0
H984 H 0.73804 0.25448 0.16074 0.0
H985 H 0.73531 0.2513 0.13401 0.0
H986 H 0.83659 0.25215 0.13269 0.0
H987 H 0.83969 0.25481 0.15941 0.0
H988 H 0.67056 0.20392 0.23518 0.0
H989 H 0.72629 0.24642 0.2224 0.0
H990 H 0.72197 0.15734 0.1981 0.0
H991 H 0.66572 0.1148 0.21068 0.0
H992 H 0.73718 0.21087 0.18061 0.0
H993 H 0.78339 0.19988 0.22609 0.0
H994 H 0.78926 0.19995 0.25271 0.0
H995 H 0.81942 0.31264 0.25427 0.0
H996 H 0.81305 0.3131 0.2277 0.0
C997 C 0.91693 0.35747 0.17556 0.0
C998 C 0.91 0.38076 0.16707 0.0
C999 C 0.88829 0.32504 0.18094 0.0
C1000 C 0.8522 0.31533 0.178 0.0
C1001 C 0.84527 0.3377 0.16895 0.0
C1002 C 0.87393 0.36998 0.16342 0.0
C1003 C 0.82195 0.28406 0.1856 0.0
C1004 C 0.82319 0.28306 0.20081 0.0
C1005 C 0.79102 0.25705 0.17819 0.0
C1006 C 0.78922 0.25514 0.1621 0.0
C1007 C 0.75965 0.25381 0.15476 0.0
C1008 C 0.75805 0.25214 0.1396 0.0
C1009 C 0.7858 0.25163 0.13165 0.0
C1010 C 0.81517 0.25269 0.13885 0.0
C1011 C 0.81689 0.25434 0.154 0.0
C1012 C 0.68176 0.1934 0.22723 0.0
C1013 C 0.66395 0.15611 0.22394 0.0
C1014 C 0.71361 0.21767 0.21995 0.0
C1015 C 0.72858 0.20501 0.20942 0.0
C1016 C 0.7109 0.16771 0.20617 0.0
C1017 C 0.67882 0.14347 0.21335 0.0
C1018 C 0.76204 0.23091 0.2015 0.0
C1019 C 0.76132 0.23101 0.18625 0.0
C1020 C 0.79385 0.25664 0.20886 0.0
C1021 C 0.79742 0.25641 0.22489 0.0
C1022 C 0.79093 0.22459 0.23212 0.0
C1023 C 0.79439 0.22455 0.2472 0.0
C1024 C 0.80461 0.25624 0.25518 0.0
C1025 C 0.81143 0.28808 0.24808 0.0
C1026 C 0.80791 0.28824 0.23301 0.0
H1027 H 0.80732 0.25616 0.26685 0.0
H1028 H 0.78452 0.25035 0.11992 0.0
H1029 H 0.05821 0.54903 0.09889 0.0
H1030 H 0.05246 0.55134 0.07261 0.0
H1031 H 0.939 0.46961 0.07545 0.0
H1032 H 0.94426 0.46758 0.10177 0.0
H1033 H 0.03556 0.50265 0.05194 0.0
H1034 H 0.89167 0.48592 0.04967 0.0
H1035 H 0.85226 0.50003 0.06473 0.0
H1036 H 0.94616 0.58736 0.08525 0.0
H1037 H 0.98613 0.57412 0.07018 0.0
H1038 H 0.9699 0.45899 0.98074 0.0
H1039 H 0.97136 0.45825 0.00725 0.0
H1040 H 0.98841 0.5672 0.00852 0.0
H1041 H 0.98698 0.56813 0.98195 0.0
H1042 H 0.94231 0.5251 0.02989 0.0
H1043 H 0.05945 0.55527 0.01168 0.0
H1044 H 0.10258 0.54715 0.99643 0.0
H1045 H 0.06989 0.44472 0.017 0.0
H1046 H 0.02612 0.45197 0.03223 0.0
C1047 C 0.03202 0.53144 0.09394 0.0
C1048 C 0.00165 0.50823 0.10246 0.0
C1049 C 0.02881 0.53279 0.07891 0.0
C1050 C -0.00479 0.51101 0.0721 0.0
C1051 C 0.96504 0.48716 0.08052 0.0
C1052 C 0.96817 0.4859 0.09556 0.0
C1053 C 0.99183 0.51314 0.05618 0.0
C1054 C 0.01514 0.50752 0.04714 0.0
C1055 C 0.96565 0.52022 0.04991 0.0
C1056 C 0.94186 0.52875 0.05889 0.0
C1057 C 0.9039 0.50822 0.05736 0.0
C1058 C 0.88147 0.51606 0.0659 0.0
C1059 C 0.89669 0.54449 0.07597 0.0
C1060 C 0.93439 0.56525 0.07748 0.0
C1061 C 0.95695 0.55756 0.06895 0.0
C1062 C 0.97382 0.48273 0.98667 0.0
C1063 C 0.97874 0.51378 0.97928 0.0
C1064 C 0.97455 0.48224 0.0018 0.0
C1065 C 0.98056 0.51288 0.00981 0.0
C1066 C 0.98377 0.54329 0.00251 0.0
C1067 C 0.9829 0.54376 0.98735 0.0
C1068 C 0.98554 0.51387 0.02573 0.0
C1069 C 0.96261 0.52012 0.03474 0.0
C1070 C 0.01266 0.50826 0.032 0.0
C1071 C 0.03929 0.50402 0.023 0.0
C1072 C 0.06129 0.5309 0.01288 0.0
C1073 C 0.08586 0.52647 0.00425 0.0
C1074 C 0.08891 0.4954 0.00572 0.0
C1075 C 0.06746 0.46875 0.01586 0.0
C1076 C 0.04279 0.47302 0.02451 0.0
H1077 H 0.10795 0.49201 -0.00098 0.0
H1078 H 0.87927 0.55049 0.08259 0.0
H1079 H 0.52441 0.00534 0.44272 0.0
H1080 H 0.51791 0.00766 0.41653 0.0
H1081 H 0.40828 0.98634 0.42241 0.0
H1082 H 0.41496 0.98506 0.44872 0.0
H1083 H 0.47643 0.96033 0.39753 0.0
H1084 H 0.38762 0.02821 0.39581 0.0
H1085 H 0.37674 0.07056 0.41045 0.0
H1086 H 0.48392 0.11739 0.42849 0.0
H1087 H 0.49559 0.07568 0.41382 0.0
H1088 H 0.41669 0.94848 0.32561 0.0
H1089 H 0.41612 0.94571 0.35206 0.0
H1090 H 0.48547 0.06227 0.3541 0.0
H1091 H 0.48448 0.06553 0.32767 0.0
H1092 H 0.43749 0.04113 0.37501 0.0
H1093 H 0.51995 0.00446 0.35708 0.0
H1094 H 0.53924 0.96853 0.34238 0.0
H1095 H 0.45971 0.87072 0.36357 0.0
H1096 H 0.43961 0.90604 0.37828 0.0
C1097 C 0.49886 0.00109 0.43846 0.0
C1098 C 0.47024 0.99515 0.44782 0.0
C1099 C 0.49517 0.00236 0.42347 0.0
C1100 C 0.46275 -0.00247 0.4175 0.0
C1101 C 0.43381 0.99082 0.42678 0.0
C1102 C 0.43761 0.98995 0.44182 0.0
C1103 C 0.45947 -0.00042 0.40154 0.0
C1104 C 0.46778 0.97791 0.39262 0.0
C1105 C 0.44886 0.02302 0.3951 0.0
C1106 C 0.44229 0.04854 0.40383 0.0
C1107 C 0.40889 0.04763 0.40287 0.0
C1108 C 0.40259 0.07151 0.41117 0.0
C1109 C 0.42957 0.09656 0.42043 0.0
C1110 C 0.46298 0.09788 0.42136 0.0
C1111 C 0.46944 0.0741 0.41306 0.0
C1112 C 0.43119 0.97364 0.33166 0.0
C1113 C 0.45089 0.00722 0.32448 0.0
C1114 C 0.43117 0.97195 0.3468 0.0
C1115 C 0.45131 0.00371 0.35505 0.0
C1116 C 0.46989 0.03738 0.34796 0.0
C1117 C 0.46964 0.03915 0.33283 0.0
C1118 C 0.45427 0.00174 0.37103 0.0
C1119 C 0.44586 0.02336 0.37994 0.0
C1120 C 0.46596 0.97916 0.37746 0.0
C1121 C 0.47802 0.95784 0.36867 0.0
C1122 C 0.5064 0.97525 0.35853 0.0
C1123 C 0.5175 0.95501 0.35021 0.0
C1124 C 0.50064 0.91735 0.35201 0.0
C1125 C 0.4727 0.89988 0.36217 0.0
C1126 C 0.46145 0.92 0.37051 0.0
H1127 H 0.50928 0.90172 0.34556 0.0
H1128 H 0.42462 0.11499 0.42686 0.0
H1129 H 0.57975 0.53936 0.77497 0.0
H1130 H 0.57608 0.53162 0.74866 0.0
H1131 H 0.45895 0.4727 0.75128 0.0
H1132 H 0.46257 0.47881 0.77771 0.0
H1133 H 0.47786 0.44041 0.73294 0.0
H1134 H 0.51044 0.56444 0.73955 0.0
H1135 H 0.5458 0.62722 0.74883 0.0
H1136 H 0.64096 0.64069 0.72692 0.0
H1137 H 0.60627 0.57779 0.71766 0.0
H1138 H 0.45201 0.47104 0.65775 0.0
H1139 H 0.45479 0.47467 0.68437 0.0
H1140 H 0.56403 0.49298 0.68312 0.0
H1141 H 0.56103 0.48845 0.65651 0.0
H1142 H 0.54857 0.54557 0.70027 0.0
H1143 H 0.51084 0.41812 0.69365 0.0
H1144 H 0.471 0.35653 0.68388 0.0
H1145 H 0.37925 0.35205 0.70544 0.0
H1146 H 0.41849 0.41389 0.71516 0.0
C1147 C 0.55322 0.52485 0.76992 0.0
C1148 C 0.52144 0.50985 0.77837 0.0
C1149 C 0.55114 0.52058 0.75487 0.0
C1150 C 0.51722 0.50218 0.74792 0.0
C1151 C 0.48544 0.48704 0.75637 0.0
C1152 C 0.48753 0.49063 0.77146 0.0
C1153 C 0.51491 0.49832 0.73187 0.0
C1154 C 0.493 0.46356 0.72584 0.0
C1155 C 0.53488 0.52838 0.72251 0.0
C1156 C 0.55583 0.56627 0.72803 0.0
C1157 C 0.53897 0.5807 0.7368 0.0
C1158 C 0.55888 0.61632 0.74204 0.0
C1159 C 0.59562 0.6379 0.7385 0.0
C1160 C 0.61251 0.62393 0.72967 0.0
C1161 C 0.59273 0.5883 0.72441 0.0
C1162 C 0.47645 0.47554 0.66321 0.0
C1163 C 0.50628 0.47936 0.65519 0.0
C1164 C 0.47799 0.47756 0.67834 0.0
C1165 C 0.5096 0.48406 0.68561 0.0
C1166 C 0.53943 0.48789 0.67763 0.0
C1167 C 0.53763 0.48513 0.66251 0.0
C1168 C 0.51183 0.48787 0.70154 0.0
C1169 C 0.53358 0.5226 0.70748 0.0
C1170 C 0.49109 0.45801 0.71078 0.0
C1171 C 0.46753 0.42079 0.70499 0.0
C1172 C 0.48211 0.40416 0.69618 0.0
C1173 C 0.45965 0.36917 0.69068 0.0
C1174 C 0.42259 0.35043 0.694 0.0
C1175 C 0.40794 0.36661 0.70286 0.0
C1176 C 0.43029 0.40162 0.70838 0.0
H1177 H 0.40525 0.32333 0.68973 0.0
H1178 H 0.61099 0.66547 0.74257 0.0
H1179 H 0.54244 0.06683 0.56086 0.0
H1180 H 0.53821 0.07087 0.58728 0.0
H1181 H 0.45845 0.95659 0.58895 0.0
H1182 H 0.46255 0.95211 0.56273 0.0
H1183 H 0.43689 0.00133 0.60295 0.0
H1184 H 0.54031 0.98321 0.60066 0.0
H1185 H 0.60171 -0.0021 0.59293 0.0
H1186 H 0.64698 0.10293 0.61311 0.0
H1187 H 0.58573 0.08904 0.6208 0.0
H1188 H 0.41738 0.95289 0.67642 0.0
H1189 H 0.42982 0.95862 0.65039 0.0
H1190 H 0.51459 0.0701 0.65644 0.0
H1191 H 0.50305 0.0642 0.68263 0.0
H1192 H 0.53625 0.03435 0.63841 0.0
H1193 H 0.43481 0.05221 0.6422 0.0
H1194 H 0.37394 0.0391 0.64997 0.0
H1195 H 0.32544 0.93768 0.62681 0.0
H1196 H 0.38608 0.94993 0.61906 0.0
C1197 C 0.52432 0.04248 0.56688 0.0
C1198 C 0.50272 0.00918 0.55967 0.0
C1199 C 0.52199 0.04485 0.58195 0.0
C1200 C 0.49793 0.01403 0.59 0.0
C1201 C 0.47705 0.98068 0.58289 0.0
C1202 C 0.47957 0.97819 0.56789 0.0
C1203 C 0.49299 0.01655 0.60575 0.0
C1204 C 0.4585 0.00824 0.61074 0.0
C1205 C 0.52161 0.02688 0.61578 0.0
C1206 C 0.5584 0.03527 0.61114 0.0
C1207 C 0.56331 0.00959 0.60332 0.0
C1208 C 0.59809 0.01773 0.59898 0.0
C1209 C 0.62821 0.05138 0.60248 0.0
C1210 C 0.62362 0.07691 0.61038 0.0
C1211 C 0.58888 0.06891 0.61474 0.0
C1212 C 0.43881 0.97857 0.67223 0.0
C1213 C 0.45918 0.00812 0.68157 0.0
C1214 C 0.44568 0.9819 0.65735 0.0
C1215 C 0.47284 0.01492 0.65148 0.0
C1216 C 0.4934 0.04444 0.66076 0.0
C1217 C 0.48655 0.04112 0.67568 0.0
C1218 C 0.47985 0.01822 0.63566 0.0
C1219 C 0.5147 0.02777 0.63064 0.0
C1220 C 0.45163 0.00934 0.62555 0.0
C1221 C 0.41505 0.00187 0.63014 0.0
C1222 C 0.41119 0.02697 0.63885 0.0
C1223 C 0.37672 0.01972 0.64324 0.0
C1224 C 0.34585 0.98754 0.63892 0.0
C1225 C 0.34938 0.96259 0.63016 0.0
C1226 C 0.3838 0.96969 0.62576 0.0
H1227 H 0.31918 0.98198 0.64232 0.0
H1228 H 0.65512 0.05763 0.59911 0.0
H1229 H 0.5046 0.54412 0.89383 0.0
H1230 H 0.49476 0.53055 0.91967 0.0
H1231 H 0.55532 0.47422 0.91719 0.0
H1232 H 0.5647 0.48702 0.8912 0.0
H1233 H 0.493 0.43421 0.93107 0.0
H1234 H 0.59034 0.55727 0.9341 0.0
H1235 H 0.62323 0.62308 0.92899 0.0
H1236 H 0.53624 0.63283 0.94798 0.0
H1237 H 0.50258 0.56695 0.95303 0.0
H1238 H 0.50927 0.42125 0.00784 0.0
H1239 H 0.52039 0.43433 0.98185 0.0
H1240 H 0.45059 0.48079 0.98219 0.0
H1241 H 0.4395 0.46791 0.00819 0.0
H1242 H 0.51845 0.52573 0.96959 0.0
H1243 H 0.42129 0.40192 0.96635 0.0
H1244 H 0.38944 0.33622 0.97164 0.0
H1245 H 0.47807 0.32833 0.95326 0.0
H1246 H 0.51071 0.39413 0.94805 0.0
C1247 C 0.51629 0.52927 0.89879 0.0
C1248 C 0.53538 0.51658 0.89042 0.0
C1249 C 0.5107 0.52162 0.91359 0.0
C1250 C 0.52448 0.50154 0.92037 0.0
C1251 C 0.5444 0.48969 0.91215 0.0
C1252 C 0.54985 0.49717 0.89731 0.0
C1253 C 0.51643 0.49132 0.93586 0.0
C1254 C 0.49912 0.45429 0.93953 0.0
C1255 C 0.52361 0.51745 0.94683 0.0
C1256 C 0.54378 0.5571 0.94382 0.0
C1257 C 0.57808 0.57339 0.93708 0.0
C1258 C 0.5969 0.61072 0.93421 0.0
C1259 C 0.5818 0.63211 0.93813 0.0
C1260 C 0.54788 0.61622 0.94494 0.0
C1261 C 0.52894 0.57889 0.94782 0.0
C1262 C 0.49604 0.43392 0.00231 0.0
C1263 C 0.47351 0.44356 0.00998 0.0
C1264 C 0.50229 0.44124 0.9875 0.0
C1265 C 0.48625 0.45847 0.98015 0.0
C1266 C 0.46316 0.46745 0.9877 0.0
C1267 C 0.45662 0.45982 0.00249 0.0
C1268 C 0.49502 0.46872 0.96473 0.0
C1269 C 0.51246 0.50574 0.96111 0.0
C1270 C 0.48817 0.44262 0.95382 0.0
C1271 C 0.46861 0.40304 0.95695 0.0
C1272 C 0.43415 0.38625 0.96356 0.0
C1273 C 0.41592 0.34897 0.96652 0.0
C1274 C 0.43177 0.32813 0.96283 0.0
C1275 C 0.46585 0.34452 0.95613 0.0
C1276 C 0.48421 0.3818 0.95316 0.0
H1277 H 0.4176 0.29927 0.96512 0.0
H1278 H 0.59641 0.661 0.9359 0.0
H1279 H 0.01916 0.47229 0.21729 0.0
H1280 H 0.02302 0.4759 0.2437 0.0
H1281 H 0.02355 0.57761 0.24265 0.0
H1282 H 0.01986 0.57441 0.21612 0.0
H1283 H 0.07607 0.57935 0.26081 0.0
H1284 H 0.9483 0.50304 0.25253 0.0
H1285 H 0.8934 0.45126 0.24202 0.0
H1286 H 0.91879 0.37658 0.2629 0.0
H1287 H 0.97418 0.42795 0.27337 0.0
H1288 H 0.04686 0.58293 0.33703 0.0
H1289 H 0.04327 0.58403 0.31054 0.0
H1290 H 0.03326 0.47793 0.30824 0.0
H1291 H 0.03655 0.4766 0.3347 0.0
H1292 H 0.98378 0.48047 0.29168 0.0
H1293 H 0.11242 0.55544 0.29895 0.0
H1294 H 0.16833 0.60648 0.3092 0.0
H1295 H 0.14238 0.68265 0.29008 0.0
H1296 H 0.08602 0.63201 0.27988 0.0
C1297 C 0.02008 0.49547 0.22264 0.0
C1298 C 0.01912 0.52304 0.21459 0.0
C1299 C 0.02213 0.49738 0.23774 0.0
C1300 C 0.02319 0.52682 0.24509 0.0
C1301 C 0.02265 0.55462 0.23713 0.0
C1302 C 0.02043 0.55267 0.222 0.0
C1303 C 0.02533 0.52864 0.2611 0.0
C1304 C 0.05562 0.55807 0.2676 0.0
C1305 C -0.001 0.50038 0.26987 0.0
C1306 C 0.9656 0.46939 0.26363 0.0
C1307 C 0.94236 0.47559 0.25479 0.0
C1308 C 0.91111 0.4463 0.24885 0.0
C1309 C 0.90266 0.41065 0.25176 0.0
C1310 C 0.92539 0.40421 0.26064 0.0
C1311 C 0.9567 0.43341 0.26659 0.0
C1312 C 0.0444 0.5601 0.33085 0.0
C1313 C 0.04195 0.52967 0.3379 0.0
C1314 C 0.04231 0.56072 0.31573 0.0
C1315 C 0.03819 0.53113 0.30743 0.0
C1316 C 0.03626 0.50097 0.31445 0.0
C1317 C 0.03813 0.50024 0.32955 0.0
C1318 C 0.0348 0.53099 0.29143 0.0
C1319 C 0.00418 0.50187 0.28492 0.0
C1320 C 0.06094 0.55943 0.28266 0.0
C1321 C 0.0948 0.58992 0.28879 0.0
C1322 C 0.11847 0.58306 0.29704 0.0
C1323 C 0.15028 0.61192 0.30282 0.0
C1324 C 0.15885 0.64778 0.30033 0.0
C1325 C 0.13567 0.65486 0.29202 0.0
C1326 C 0.10381 0.62609 0.28623 0.0
H1327 H 0.18349 0.67009 0.30481 0.0
H1328 H 0.87845 0.38801 0.24716 0.0
loop_
_geom_bond_atom_site_label_1
_geom_bond_atom_site_label_2
_geom_bond_distance
_geom_bond_site_symmetry_2
_ccdc_geom_bond_type
O0 Zn1 1.952 . S
O0 C16 1.225 1_655 S
Zn1 O0 1.952 . S
Zn1 O2 1.936 1_655 S
Zn1 O8 1.941 . S
Zn1 O13 1.915 1_655 S
O2 Zn1 1.936 1_455 S
O2 Zn3 1.923 1_455 S
O2 Zn4 1.950 . S
O2 Zn5 1.945 . S
Zn3 O2 1.923 1_655 S
Zn3 O6 1.933 . S
Zn3 O9 1.941 . S
Zn3 O10 1.965 . S
Zn4 O2 1.950 . S
Zn4 O11 1.938 1_455 S
Zn4 O12 1.906 . S
Zn4 O22 1.953 . S
Zn5 O2 1.945 . S
Zn5 O7 1.932 . S
Zn5 O14 1.977 . S
Zn5 O15 1.910 . S
O6 Zn3 1.933 . S
O6 C17 1.226 1_655 S
O7 Zn5 1.932 . S
O7 C17 1.307 . S
O8 Zn1 1.941 . S
O8 C19 1.253 . S
O9 Zn3 1.941 . S
O9 C19 1.283 . S
O10 Zn3 1.965 . S
O10 C18 1.303 . S
O11 Zn4 1.938 1_655 S
O11 C18 1.247 . S
O12 Zn4 1.906 . S
O12 C20 1.304 . S
O13 Zn1 1.915 1_455 S
O13 C21 1.311 . S
O14 Zn5 1.977 . S
O14 C20 1.272 . S
O15 Zn5 1.910 . S
O15 C21 1.231 . S
C16 O0 1.225 1_455 S
C16 O22 1.298 . S
C17 O6 1.226 1_455 S
C17 O7 1.307 . S
C18 O10 1.303 . S
C18 O11 1.247 . S
C19 O8 1.253 . S
C19 O9 1.283 . S
C20 O12 1.304 . S
C20 O14 1.272 . S
C21 O13 1.311 . S
C21 O15 1.231 . S
O22 Zn4 1.953 . S
O22 C16 1.298 . S
O23 Zn24 1.953 . S
O23 C39 1.225 . S
Zn24 O23 1.953 . S
Zn24 O25 1.949 . S
Zn24 O31 1.919 . S
Zn24 O36 1.924 1_545 S
O25 Zn24 1.949 . S
O25 Zn26 1.923 . S
O25 Zn27 1.950 1_545 S
O25 Zn28 1.945 1_545 S
Zn26 O25 1.923 . S
Zn26 O29 1.933 . S
Zn26 O32 1.941 . S
Zn26 O33 1.965 . S
Zn27 O25 1.950 1_565 S
Zn27 O34 1.938 1_565 S
Zn27 O35 1.906 . S
Zn27 O45 1.953 . S
Zn28 O25 1.945 1_565 S
Zn28 O30 1.932 . S
Zn28 O37 1.977 . S
Zn28 O38 1.910 . S
O29 Zn26 1.933 . S
O29 C40 1.226 . S
O30 Zn28 1.932 . S
O30 C40 1.307 1_565 S
O31 Zn24 1.919 . S
O31 C42 1.253 . S
O32 Zn26 1.941 . S
O32 C42 1.283 . S
O33 Zn26 1.965 . S
O33 C41 1.303 . S
O34 Zn27 1.938 1_545 S
O34 C41 1.247 . S
O35 Zn27 1.906 . S
O35 C43 1.304 . S
O36 Zn24 1.924 1_565 S
O36 C44 1.311 . S
O37 Zn28 1.977 . S
O37 C43 1.272 . S
O38 Zn28 1.910 . S
O38 C44 1.231 . S
C39 O23 1.225 . S
C39 O45 1.298 1_545 S
C40 O29 1.226 . S
C40 O30 1.307 1_545 S
C41 O33 1.303 . S
C41 O34 1.247 . S
C42 O31 1.253 . S
C42 O32 1.283 . S
C43 O35 1.304 . S
C43 O37 1.272 . S
C44 O36 1.311 . S
C44 O38 1.231 . S
O45 Zn27 1.953 . S
O45 C39 1.298 1_565 S
O46 Zn47 1.953 . S
O46 C62 1.225 . S
Zn47 O46 1.953 . S
Zn47 O48 1.949 . S
Zn47 O54 1.919 . S
Zn47 O59 1.924 . S
O48 Zn47 1.949 . S
O48 Zn49 1.923 . S
O48 Zn50 1.950 . S
O48 Zn51 1.945 . S
Zn49 O48 1.923 . S
Zn49 O52 1.933 . S
Zn49 O55 1.941 . S
Zn49 O56 1.965 . S
Zn50 O48 1.950 . S
Zn50 O57 1.938 . S
Zn50 O58 1.906 . S
Zn50 O68 1.953 . S
Zn51 O48 1.945 . S
Zn51 O53 1.932 . S
Zn51 O60 1.977 . S
Zn51 O61 1.910 . S
O52 Zn49 1.933 . S
O52 C63 1.226 . S
O53 Zn51 1.932 . S
O53 C63 1.307 . S
O54 Zn47 1.919 . S
O54 C65 1.253 . S
O55 Zn49 1.941 . S
O55 C65 1.283 . S
O56 Zn49 1.965 . S
O56 C64 1.303 . S
O57 Zn50 1.938 . S
O57 C64 1.247 . S
O58 Zn50 1.906 . S
O58 C66 1.304 . S
O59 Zn47 1.924 . S
O59 C67 1.311 . S
O60 Zn51 1.977 . S
O60 C66 1.272 . S
O61 Zn51 1.910 . S
O61 C67 1.231 . S
C62 O46 1.225 . S
C62 O68 1.298 . S
C63 O52 1.226 . S
C63 O53 1.307 . S
C64 O56 1.303 . S
C64 O57 1.247 . S
C65 O54 1.253 . S
C65 O55 1.283 . S
C66 O58 1.304 . S
C66 O60 1.272 . S
C67 O59 1.311 . S
C67 O61 1.231 . S
O68 Zn50 1.953 . S
O68 C62 1.298 . S
C69 C70 1.391 . S
C69 C73 1.391 . S
C69 H111 0.948 . S
C70 C69 1.391 . S
C70 C71 1.391 . S
C71 C70 1.391 . S
C71 H127 0.947 . S
C71 C128 1.392 . S
C72 C73 1.391 . S
C72 C76 1.397 . S
C72 C128 1.419 . S
C73 C69 1.391 . S
C73 C72 1.391 . S
C73 C74 1.399 . S
C74 C73 1.399 . S
C74 C77 1.396 . S
C74 C86 1.453 . S
C74 C87 1.684 . S
H75 C99 0.948 . S
C76 C72 1.397 . S
C76 C77 1.394 . S
C76 C95 1.723 . S
C77 C74 1.396 . S
C77 C76 1.394 . S
C77 C107 1.723 1_545 S
H78 C101 0.947 . S
H79 C102 0.948 . S
H80 C108 0.982 . S
H81 C109 0.979 . S
H82 C109 0.980 . S
H83 C109 0.983 . S
H84 C108 0.979 . S
H85 C108 0.977 . S
C86 C74 1.453 . S
C86 H115 0.982 . S
C86 H116 0.979 . S
C86 H117 0.977 1_545 S
C87 C74 1.684 . S
C87 H112 0.979 . S
C87 H113 0.980 . S
C87 H114 0.983 . S
C88 C89 1.391 . S
C88 C93 1.391 . S
C88 H118 0.948 . S
C89 C88 1.391 . S
C89 C90 1.391 1_545 S
C90 C89 1.391 1_565 S
C90 C91 1.392 . S
C90 H119 0.947 . S
C91 C90 1.392 . S
C91 C92 1.416 1_565 S
C91 H120 0.948 . S
C92 C91 1.416 1_545 S
C92 C93 1.395 . S
C92 C96 1.397 . S
C93 C88 1.391 . S
C93 C92 1.395 . S
C93 C94 1.399 . S
C94 C93 1.399 . S
C94 C95 1.396 . S
C94 C97 1.453 . S
C94 C98 1.684 . S
C95 C76 1.723 . S
C95 C94 1.396 . S
C95 C96 1.394 . S
C96 C92 1.397 . S
C96 C95 1.394 . S
C96 C106 1.723 1_545 S
C97 C94 1.453 . S
C97 H121 0.982 . S
C97 H122 0.979 . S
C97 H123 0.977 . S
C98 C94 1.684 . S
C98 H124 0.979 . S
C98 H125 0.980 . S
C98 H126 0.983 . S
C99 H75 0.948 . S
C99 C100 1.391 . S
C99 C104 1.391 . S
C100 C99 1.391 . S
C100 C101 1.391 . S
C101 H78 0.947 . S
C101 C100 1.391 . S
C101 C102 1.392 . S
C102 H79 0.948 . S
C102 C101 1.392 . S
C102 C103 1.419 . S
C103 C102 1.419 . S
C103 C104 1.391 . S
C103 C107 1.397 . S
C104 C99 1.391 . S
C104 C103 1.391 . S
C104 C105 1.399 . S
C105 C104 1.399 . S
C105 C106 1.396 . S
C105 C108 1.453 . S
C105 C109 1.684 . S
C106 C96 1.723 1_565 S
C106 C105 1.396 . S
C106 C107 1.394 . S
C107 C77 1.723 1_565 S
C107 C103 1.397 . S
C107 C106 1.394 . S
C108 H80 0.982 . S
C108 H84 0.979 . S
C108 H85 0.977 . S
C108 C105 1.453 . S
C109 H81 0.979 . S
C109 H82 0.980 . S
C109 H83 0.983 . S
C109 C105 1.684 . S
H110 C128 0.948 . S
H111 C69 0.948 . S
H112 C87 0.979 . S
H113 C87 0.980 . S
H114 C87 0.983 . S
H115 C86 0.982 . S
H116 C86 0.979 . S
H117 C86 0.977 1_565 S
H118 C88 0.948 . S
H119 C90 0.947 . S
H120 C91 0.948 . S
H121 C97 0.982 . S
H122 C97 0.979 . S
H123 C97 0.977 . S
H124 C98 0.979 . S
H125 C98 0.980 . S
H126 C98 0.983 . S
H127 C71 0.947 . S
C128 C71 1.392 . S
C128 C72 1.419 . S
C128 H110 0.948 . S
C129 C130 1.391 . S
C129 C133 1.391 . S
C129 H171 0.948 . S
C130 C129 1.391 . S
C130 C131 1.391 . S
C131 C130 1.391 . S
C131 H187 0.947 . S
C131 C188 1.392 . S
C132 C133 1.391 . S
C132 C136 1.397 . S
C132 C188 1.419 . S
C133 C129 1.391 . S
C133 C132 1.391 . S
C133 C134 1.399 . S
C134 C133 1.399 . S
C134 C137 1.396 . S
C134 C146 1.453 . S
C134 C147 1.684 . S
H135 C159 0.948 . S
C136 C132 1.397 . S
C136 C137 1.394 . S
C136 C155 1.723 . S
C137 C134 1.396 . S
C137 C136 1.394 . S
C137 C167 1.723 . S
H138 C161 0.947 . S
H139 C162 0.948 . S
H140 C168 0.982 . S
H141 C169 0.979 . S
H142 C169 0.980 . S
H143 C169 0.983 . S
H144 C168 0.979 . S
H145 C168 0.977 . S
C146 C134 1.453 . S
C146 H175 0.982 . S
C146 H176 0.979 . S
C146 H177 0.977 . S
C147 C134 1.684 . S
C147 H172 0.979 . S
C147 H173 0.980 . S
C147 H174 0.983 . S
C148 C149 1.391 . S
C148 C153 1.391 . S
C148 H178 0.948 . S
C149 C148 1.391 . S
C149 C150 1.391 . S
C150 C149 1.391 . S
C150 C151 1.392 . S
C150 H179 0.947 . S
C151 C150 1.392 . S
C151 C152 1.419 . S
C151 H180 0.948 . S
C152 C151 1.419 . S
C152 C153 1.391 . S
C152 C156 1.397 . S
C153 C148 1.391 . S
C153 C152 1.391 . S
C153 C154 1.399 . S
C154 C153 1.399 . S
C154 C155 1.396 . S
C154 C157 1.453 . S
C154 C158 1.684 . S
C155 C136 1.723 . S
C155 C154 1.396 . S
C155 C156 1.394 . S
C156 C152 1.397 . S
C156 C155 1.394 . S
C156 C166 1.723 . S
C157 C154 1.453 . S
C157 H181 0.982 . S
C157 H182 0.979 . S
C157 H183 0.977 . S
C158 C154 1.684 . S
C158 H184 0.979 . S
C158 H185 0.980 . S
C158 H186 0.983 . S
C159 H135 0.948 . S
C159 C160 1.391 . S
C159 C164 1.391 . S
C160 C159 1.391 . S
C160 C161 1.391 . S
C161 H138 0.947 . S
C161 C160 1.391 . S
C161 C162 1.392 . S
C162 H139 0.948 . S
C162 C161 1.392 . S
C162 C163 1.419 . S
C163 C162 1.419 . S
C163 C164 1.391 . S
C163 C167 1.397 . S
C164 C159 1.391 . S
C164 C163 1.391 . S
C164 C165 1.399 . S
C165 C164 1.399 . S
C165 C166 1.396 . S
C165 C168 1.453 . S
C165 C169 1.684 . S
C166 C156 1.723 . S
C166 C165 1.396 . S
C166 C167 1.394 . S
C167 C137 1.723 . S
C167 C163 1.397 . S
C167 C166 1.394 . S
C168 H140 0.982 . S
C168 H144 0.979 . S
C168 H145 0.977 . S
C168 C165 1.453 . S
C169 H141 0.979 . S
C169 H142 0.980 . S
C169 H143 0.983 . S
C169 C165 1.684 . S
H170 C188 0.948 . S
H171 C129 0.948 . S
H172 C147 0.979 . S
H173 C147 0.980 . S
H174 C147 0.983 . S
H175 C146 0.982 . S
H176 C146 0.979 . S
H177 C146 0.977 . S
H178 C148 0.948 . S
H179 C150 0.947 . S
H180 C151 0.948 . S
H181 C157 0.982 . S
H182 C157 0.979 . S
H183 C157 0.977 . S
H184 C158 0.979 . S
H185 C158 0.980 . S
H186 C158 0.983 . S
H187 C131 0.947 . S
C188 C131 1.392 . S
C188 C132 1.419 . S
C188 H170 0.948 . S
C189 C190 1.391 . S
C189 C193 1.391 . S
C189 H231 0.948 . S
C190 C189 1.391 . S
C190 C191 1.391 . S
C191 C190 1.391 . S
C191 H247 0.947 . S
C191 C248 1.392 . S
C192 C193 1.391 . S
C192 C196 1.397 . S
C192 C248 1.419 . S
C193 C189 1.391 . S
C193 C192 1.391 . S
C193 C194 1.399 . S
C194 C193 1.399 . S
C194 C197 1.396 . S
C194 C206 1.453 . S
C194 C207 1.684 . S
H195 C219 0.948 . S
C196 C192 1.397 . S
C196 C197 1.394 . S
C196 C215 1.723 . S
C197 C194 1.396 . S
C197 C196 1.394 . S
C197 C227 1.723 1_455 S
H198 C221 0.947 . S
H199 C222 0.948 . S
H200 C228 0.982 . S
H201 C229 0.979 . S
H202 C229 0.980 . S
H203 C229 0.983 . S
H204 C228 0.979 . S
H205 C228 0.977 . S
C206 C194 1.453 . S
C206 H235 0.982 . S
C206 H236 0.979 . S
C206 H237 0.977 . S
C207 C194 1.684 . S
C207 H232 0.979 . S
C207 H233 0.980 . S
C207 H234 0.983 . S
C208 C209 1.391 . S
C208 C213 1.391 . S
C208 H238 0.948 . S
C209 C208 1.391 . S
C209 C210 1.391 1_455 S
C210 C209 1.391 1_655 S
C210 C211 1.392 . S
C210 H239 0.947 . S
C211 C210 1.392 . S
C211 C212 1.419 1_655 S
C211 H240 0.948 . S
C212 C211 1.419 1_455 S
C212 C213 1.391 . S
C212 C216 1.397 . S
C213 C208 1.391 . S
C213 C212 1.391 . S
C213 C214 1.399 . S
C214 C213 1.399 . S
C214 C215 1.396 . S
C214 C217 1.453 . S
C214 C218 1.684 . S
C215 C196 1.723 . S
C215 C214 1.396 . S
C215 C216 1.394 . S
C216 C212 1.397 . S
C216 C215 1.394 . S
C216 C226 1.723 1_455 S
C217 C214 1.453 . S
C217 H241 0.982 . S
C217 H242 0.979 . S
C217 H243 0.977 . S
C218 C214 1.684 . S
C218 H244 0.979 . S
C218 H245 0.980 . S
C218 H246 0.983 . S
C219 H195 0.948 . S
C219 C220 1.391 . S
C219 C224 1.391 . S
C220 C219 1.391 . S
C220 C221 1.391 . S
C221 H198 0.947 . S
C221 C220 1.391 . S
C221 C222 1.392 . S
C222 H199 0.948 . S
C222 C221 1.392 . S
C222 C223 1.419 . S
C223 C222 1.419 . S
C223 C224 1.391 . S
C223 C227 1.397 . S
C224 C219 1.391 . S
C224 C223 1.391 . S
C224 C225 1.399 . S
C225 C224 1.399 . S
C225 C226 1.396 . S
C225 C228 1.453 . S
C225 C229 1.684 . S
C226 C216 1.723 1_655 S
C226 C225 1.396 . S
C226 C227 1.394 . S
C227 C197 1.723 1_655 S
C227 C223 1.397 . S
C227 C226 1.394 . S
C228 H200 0.982 . S
C228 H204 0.979 . S
C228 H205 0.977 . S
C228 C225 1.453 . S
C229 H201 0.979 . S
C229 H202 0.980 . S
C229 H203 0.983 . S
C229 C225 1.684 . S
H230 C248 0.948 . S
H231 C189 0.948 . S
H232 C207 0.979 . S
H233 C207 0.980 . S
H234 C207 0.983 . S
H235 C206 0.982 . S
H236 C206 0.979 . S
H237 C206 0.977 . S
H238 C208 0.948 . S
H239 C210 0.947 . S
H240 C211 0.948 . S
H241 C217 0.982 . S
H242 C217 0.979 . S
H243 C217 0.977 . S
H244 C218 0.979 . S
H245 C218 0.980 . S
H246 C218 0.983 . S
H247 C191 0.947 . S
C248 C191 1.392 . S
C248 C192 1.419 . S
C248 H230 0.948 . S
C249 C250 1.391 . S
C249 C253 1.391 . S
C249 H291 0.948 . S
C250 C249 1.391 . S
C250 C251 1.391 . S
C251 C250 1.391 . S
C251 H307 0.947 . S
C251 C308 1.392 . S
C252 C253 1.391 . S
C252 C256 1.397 . S
C252 C308 1.419 . S
C253 C249 1.391 . S
C253 C252 1.391 . S
C253 C254 1.399 . S
C254 C253 1.399 . S
C254 C257 1.396 . S
C254 C266 1.453 . S
C254 C267 1.684 . S
H255 C279 0.948 . S
C256 C252 1.397 . S
C256 C257 1.394 . S
C256 C275 1.723 . S
C257 C254 1.396 . S
C257 C256 1.394 . S
C257 C287 1.723 1_655 S
H258 C281 0.947 . S
H259 C282 0.948 . S
H260 C288 0.982 . S
H261 C289 0.979 . S
H262 C289 0.980 . S
H263 C289 0.983 . S
H264 C288 0.979 . S
H265 C288 0.977 . S
C266 C254 1.453 . S
C266 H295 0.982 1_655 S
C266 H296 0.979 . S
C266 H297 0.977 1_655 S
C267 C254 1.684 . S
C267 H292 0.979 . S
C267 H293 0.980 . S
C267 H294 0.983 . S
C268 C269 1.391 1_655 S
C268 C273 1.391 . S
C268 H298 0.948 . S
C269 C268 1.391 1_455 S
C269 C270 1.391 . S
C270 C269 1.391 . S
C270 C271 1.392 . S
C270 H299 0.947 . S
C271 C270 1.392 . S
C271 C272 1.419 . S
C271 H300 0.948 . S
C272 C271 1.419 . S
C272 C273 1.391 1_455 S
C272 C276 1.397 . S
C273 C268 1.391 . S
C273 C272 1.391 1_655 S
C273 C274 1.399 . S
C274 C273 1.399 . S
C274 C275 1.396 . S
C274 C277 1.453 . S
C274 C278 1.684 . S
C275 C256 1.723 . S
C275 C274 1.396 . S
C275 C276 1.394 1_655 S
C276 C272 1.397 . S
C276 C275 1.394 1_455 S
C276 C286 1.723 . S
C277 C274 1.453 . S
C277 H301 0.982 . S
C277 H302 0.979 . S
C277 H303 0.977 . S
C278 C274 1.684 . S
C278 H304 0.979 . S
C278 H305 0.980 . S
C278 H306 0.983 . S
C279 H255 0.948 . S
C279 C280 1.391 . S
C279 C284 1.391 . S
C280 C279 1.391 . S
C280 C281 1.391 . S
C281 H258 0.947 . S
C281 C280 1.391 . S
C281 C282 1.392 . S
C282 H259 0.948 . S
C282 C281 1.392 . S
C282 C283 1.419 . S
C283 C282 1.419 . S
C283 C284 1.391 . S
C283 C287 1.397 . S
C284 C279 1.391 . S
C284 C283 1.391 . S
C284 C285 1.399 . S
C285 C284 1.399 . S
C285 C286 1.396 . S
C285 C288 1.453 . S
C285 C289 1.684 . S
C286 C276 1.723 . S
C286 C285 1.396 . S
C286 C287 1.394 . S
C287 C257 1.723 1_455 S
C287 C283 1.397 . S
C287 C286 1.394 . S
C288 H260 0.982 . S
C288 H264 0.979 . S
C288 H265 0.977 . S
C288 C285 1.453 . S
C289 H261 0.979 . S
C289 H262 0.980 . S
C289 H263 0.983 . S
C289 C285 1.684 . S
H290 C308 0.948 . S
H291 C249 0.948 . S
H292 C267 0.979 . S
H293 C267 0.980 . S
H294 C267 0.983 . S
H295 C266 0.982 1_455 S
H296 C266 0.979 . S
H297 C266 0.977 1_455 S
H298 C268 0.948 . S
H299 C270 0.947 . S
H300 C271 0.948 . S
H301 C277 0.982 . S
H302 C277 0.979 . S
H303 C277 0.977 . S
H304 C278 0.979 . S
H305 C278 0.980 . S
H306 C278 0.983 . S
H307 C251 0.947 . S
C308 C251 1.392 . S
C308 C252 1.419 . S
C308 H290 0.948 . S
C309 C310 1.391 . S
C309 C313 1.391 . S
C309 H351 0.948 . S
C310 C309 1.391 . S
C310 C311 1.391 . S
C311 C310 1.391 . S
C311 H367 0.947 . S
C311 C368 1.392 . S
C312 C313 1.391 . S
C312 C316 1.397 . S
C312 C368 1.419 . S
C313 C309 1.391 . S
C313 C312 1.391 . S
C313 C314 1.399 . S
C314 C313 1.399 . S
C314 C317 1.396 . S
C314 C326 1.453 . S
C314 C327 1.684 . S
H315 C339 0.948 . S
C316 C312 1.397 . S
C316 C317 1.394 . S
C316 C335 1.723 . S
C317 C314 1.396 . S
C317 C316 1.394 . S
C317 C347 1.723 1_565 S
H318 C341 0.947 . S
H319 C342 0.948 . S
H320 C348 0.982 . S
H321 C349 0.979 . S
H322 C349 0.980 . S
H323 C349 0.983 . S
H324 C348 0.979 . S
H325 C348 0.977 . S
C326 C314 1.453 . S
C326 H355 0.982 1_565 S
C326 H356 0.979 . S
C326 H357 0.977 1_565 S
C327 C314 1.684 . S
C327 H352 0.979 . S
C327 H353 0.980 . S
C327 H354 0.983 . S
C328 C329 1.391 1_565 S
C328 C333 1.391 . S
C328 H358 0.948 . S
C329 C328 1.391 1_545 S
C329 C330 1.391 . S
C330 C329 1.391 . S
C330 C331 1.392 . S
C330 H359 0.947 . S
C331 C330 1.392 . S
C331 C332 1.419 . S
C331 H360 0.948 . S
C332 C331 1.419 . S
C332 C333 1.391 1_545 S
C332 C336 1.397 . S
C333 C328 1.391 . S
C333 C332 1.391 1_565 S
C333 C334 1.399 . S
C334 C333 1.399 . S
C334 C335 1.396 . S
C334 C337 1.453 . S
C334 C338 1.684 . S
C335 C316 1.723 . S
C335 C334 1.396 . S
C335 C336 1.394 1_565 S
C336 C332 1.397 . S
C336 C335 1.394 1_545 S
C336 C346 1.723 . S
C337 C334 1.453 . S
C337 H361 0.982 . S
C337 H362 0.979 . S
C337 H363 0.977 . S
C338 C334 1.684 . S
C338 H364 0.979 . S
C338 H365 0.980 . S
C338 H366 0.983 . S
C339 H315 0.948 . S
C339 C340 1.391 . S
C339 C344 1.391 . S
C340 C339 1.391 . S
C340 C341 1.391 . S
C341 H318 0.947 . S
C341 C340 1.391 . S
C341 C342 1.392 . S
C342 H319 0.948 . S
C342 C341 1.392 . S
C342 C343 1.419 . S
C343 C342 1.419 . S
C343 C344 1.391 . S
C343 C347 1.397 . S
C344 C339 1.391 . S
C344 C343 1.391 . S
C344 C345 1.399 . S
C345 C344 1.399 . S
C345 C346 1.396 . S
C345 C348 1.453 . S
C345 C349 1.684 . S
C346 C336 1.723 . S
C346 C345 1.396 . S
C346 C347 1.394 . S
C347 C317 1.723 1_545 S
C347 C343 1.397 . S
C347 C346 1.394 . S
C348 H320 0.982 . S
C348 H324 0.979 . S
C348 H325 0.977 . S
C348 C345 1.453 . S
C349 H321 0.979 . S
C349 H322 0.980 . S
C349 H323 0.983 . S
C349 C345 1.684 . S
H350 C368 0.948 . S
H351 C309 0.948 . S
H352 C327 0.979 . S
H353 C327 0.980 . S
H354 C327 0.983 . S
H355 C326 0.982 1_545 S
H356 C326 0.979 . S
H357 C326 0.977 1_545 S
H358 C328 0.948 . S
H359 C330 0.947 . S
H360 C331 0.948 . S
H361 C337 0.982 . S
H362 C337 0.979 . S
H363 C337 0.977 . S
H364 C338 0.979 . S
H365 C338 0.980 . S
H366 C338 0.983 . S
H367 C311 0.947 . S
C368 C311 1.392 . S
C368 C312 1.419 . S
C368 H350 0.948 . S
C369 C370 1.391 . S
C369 C373 1.391 . S
C369 H411 0.948 . S
C370 C369 1.391 . S
C370 C371 1.391 . S
C371 C370 1.391 . S
C371 H427 0.947 . S
C371 C428 1.392 . S
C372 C373 1.391 . S
C372 C376 1.397 . S
C372 C428 1.419 . S
C373 C369 1.391 . S
C373 C372 1.391 . S
C373 C374 1.399 . S
C374 C373 1.399 . S
C374 C377 1.396 . S
C374 C386 1.453 . S
C374 C387 1.684 . S
H375 C399 0.948 . S
C376 C372 1.397 . S
C376 C377 1.394 . S
C376 C395 1.723 . S
C377 C374 1.396 . S
C377 C376 1.394 . S
C377 C407 1.723 . S
H378 C401 0.947 . S
H379 C402 0.948 . S
H380 C408 0.982 . S
H381 C409 0.979 . S
H382 C409 0.980 . S
H383 C409 0.983 . S
H384 C408 0.979 . S
H385 C408 0.977 . S
C386 C374 1.453 . S
C386 H415 0.982 . S
C386 H416 0.979 . S
C386 H417 0.977 . S
C387 C374 1.684 . S
C387 H412 0.979 . S
C387 H413 0.980 . S
C387 H414 0.983 . S
C388 C389 1.391 . S
C388 C393 1.391 . S
C388 H418 0.948 . S
C389 C388 1.391 . S
C389 C390 1.391 . S
C390 C389 1.391 . S
C390 C391 1.392 . S
C390 H419 0.947 . S
C391 C390 1.392 . S
C391 C392 1.419 . S
C391 H420 0.948 . S
C392 C391 1.419 . S
C392 C393 1.391 . S
C392 C396 1.397 . S
C393 C388 1.391 . S
C393 C392 1.391 . S
C393 C394 1.399 . S
C394 C393 1.399 . S
C394 C395 1.396 . S
C394 C397 1.453 . S
C394 C398 1.684 . S
C395 C376 1.723 . S
C395 C394 1.396 . S
C395 C396 1.394 . S
C396 C392 1.397 . S
C396 C395 1.394 . S
C396 C406 1.723 . S
C397 C394 1.453 . S
C397 H421 0.982 . S
C397 H422 0.979 . S
C397 H423 0.977 . S
C398 C394 1.684 . S
C398 H424 0.979 . S
C398 H425 0.980 . S
C398 H426 0.983 . S
C399 H375 0.948 . S
C399 C400 1.391 . S
C399 C404 1.391 . S
C400 C399 1.391 . S
C400 C401 1.391 . S
C401 H378 0.947 . S
C401 C400 1.391 . S
C401 C402 1.392 . S
C402 H379 0.948 . S
C402 C401 1.392 . S
C402 C403 1.419 . S
C403 C402 1.419 . S
C403 C404 1.391 . S
C403 C407 1.397 . S
C404 C399 1.391 . S
C404 C403 1.391 . S
C404 C405 1.399 . S
C405 C404 1.399 . S
C405 C406 1.396 . S
C405 C408 1.453 . S
C405 C409 1.684 . S
C406 C396 1.723 . S
C406 C405 1.396 . S
C406 C407 1.394 . S
C407 C377 1.723 . S
C407 C403 1.397 . S
C407 C406 1.394 . S
C408 H380 0.982 . S
C408 H384 0.979 . S
C408 H385 0.977 . S
C408 C405 1.453 . S
C409 H381 0.979 . S
C409 H382 0.980 . S
C409 H383 0.983 . S
C409 C405 1.684 . S
H410 C428 0.948 . S
H411 C369 0.948 . S
H412 C387 0.979 . S
H413 C387 0.980 . S
H414 C387 0.983 . S
H415 C386 0.982 . S
H416 C386 0.979 . S
H417 C386 0.977 . S
H418 C388 0.948 . S
H419 C390 0.947 . S
H420 C391 0.948 . S
H421 C397 0.982 . S
H422 C397 0.979 . S
H423 C397 0.977 . S
H424 C398 0.979 . S
H425 C398 0.980 . S
H426 C398 0.983 . S
H427 C371 0.947 . S
C428 C371 1.392 . S
C428 C372 1.419 . S
C428 H410 0.948 . S
H429 C447 0.951 . S
H430 C449 0.951 . S
H431 C451 0.950 . S
H432 C452 0.950 . S
H433 C454 0.950 . S
H434 C457 0.950 . S
H435 C458 0.950 . S
H436 C460 0.950 . S
H437 C461 0.950 . S
H438 C462 0.951 . S
H439 C464 0.951 . S
H440 C466 0.950 . S
H441 C467 0.950 . S
H442 C469 0.950 . S
H443 C472 0.950 . S
H444 C473 0.950 . S
H445 C475 0.950 . S
H446 C476 0.950 . S
C447 H429 0.951 . S
C447 C448 1.366 . S
C447 C449 1.388 . S
C448 C447 1.366 . S
C448 C452 1.385 . S
C449 H430 0.951 . S
C449 C447 1.388 . S
C449 C450 1.366 . S
C450 C449 1.366 . S
C450 C451 1.414 . S
C450 C453 1.499 . S
C451 H431 0.950 . S
C451 C450 1.414 . S
C451 C452 1.374 . S
C452 H432 0.950 . S
C452 C448 1.385 . S
C452 C451 1.374 . S
C453 C450 1.499 . S
C453 C454 1.373 . S
C453 C455 1.389 . S
C454 H433 0.950 . S
C454 C453 1.373 . S
C454 C470 1.377 . S
C455 C453 1.389 . S
C455 C456 1.524 . S
C455 C469 1.377 . S
C456 C455 1.524 . S
C456 C457 1.397 . S
C456 C461 1.363 . S
C457 H434 0.950 . S
C457 C456 1.397 . S
C457 C458 1.334 . S
C458 H435 0.950 . S
C458 C457 1.334 . S
C458 C459 1.287 . S
C459 C458 1.287 . S
C459 C460 1.524 . S
C459 H478 0.913 . S
C460 H436 0.950 . S
C460 C459 1.524 . S
C460 C461 1.415 . S
C461 H437 0.950 . S
C461 C456 1.363 . S
C461 C460 1.415 . S
C462 H438 0.951 . S
C462 C463 1.366 . S
C462 C464 1.388 . S
C463 C462 1.366 . S
C463 C467 1.385 . S
C464 H439 0.951 . S
C464 C462 1.388 . S
C464 C465 1.366 . S
C465 C464 1.366 . S
C465 C466 1.414 . S
C465 C468 1.499 . S
C466 H440 0.950 . S
C466 C465 1.414 . S
C466 C467 1.374 . S
C467 H441 0.950 . S
C467 C463 1.385 . S
C467 C466 1.374 . S
C468 C465 1.499 . S
C468 C469 1.373 . S
C468 C470 1.389 . S
C469 H442 0.950 . S
C469 C455 1.377 . S
C469 C468 1.373 . S
C470 C454 1.377 . S
C470 C468 1.389 . S
C470 C471 1.524 . S
C471 C470 1.524 . S
C471 C472 1.397 . S
C471 C476 1.363 . S
C472 H443 0.950 . S
C472 C471 1.397 . S
C472 C473 1.334 . S
C473 H444 0.950 . S
C473 C472 1.334 . S
C473 C474 1.287 . S
C474 C473 1.287 . S
C474 C475 1.524 . S
C474 H477 0.999 . S
C475 H445 0.950 . S
C475 C474 1.524 . S
C475 C476 1.415 . S
C476 H446 0.950 . S
C476 C471 1.363 . S
C476 C475 1.415 . S
H477 C474 0.999 . S
H478 C459 0.913 . S
H479 C497 0.951 . S
H480 C499 0.951 . S
H481 C501 0.950 . S
H482 C502 0.950 . S
H483 C504 0.950 . S
H484 C507 0.950 . S
H485 C508 0.950 . S
H486 C510 0.950 . S
H487 C511 0.950 . S
H488 C512 0.951 . S
H489 C514 0.951 . S
H490 C516 0.950 . S
H491 C517 0.950 . S
H492 C519 0.950 . S
H493 C522 0.950 . S
H494 C523 0.950 . S
H495 C525 0.950 . S
H496 C526 0.950 . S
C497 H479 0.951 . S
C497 C498 1.366 . S
C497 C499 1.388 . S
C498 C497 1.366 . S
C498 C502 1.385 . S
C499 H480 0.951 . S
C499 C497 1.388 . S
C499 C500 1.366 . S
C500 C499 1.366 . S
C500 C501 1.414 . S
C500 C503 1.499 . S
C501 H481 0.950 . S
C501 C500 1.414 . S
C501 C502 1.374 . S
C502 H482 0.950 . S
C502 C498 1.385 . S
C502 C501 1.374 . S
C503 C500 1.499 . S
C503 C504 1.373 . S
C503 C505 1.389 . S
C504 H483 0.950 . S
C504 C503 1.373 . S
C504 C520 1.377 . S
C505 C503 1.389 . S
C505 C506 1.524 . S
C505 C519 1.377 . S
C506 C505 1.524 . S
C506 C507 1.397 . S
C506 C511 1.363 . S
C507 H484 0.950 . S
C507 C506 1.397 . S
C507 C508 1.334 . S
C508 H485 0.950 . S
C508 C507 1.334 . S
C508 C509 1.287 . S
C509 C508 1.287 . S
C509 C510 1.524 . S
C509 H528 0.913 . S
C510 H486 0.950 . S
C510 C509 1.524 . S
C510 C511 1.415 . S
C511 H487 0.950 . S
C511 C506 1.363 . S
C511 C510 1.415 . S
C512 H488 0.951 . S
C512 C513 1.366 . S
C512 C514 1.388 . S
C513 C512 1.366 . S
C513 C517 1.385 . S
C514 H489 0.951 . S
C514 C512 1.388 . S
C514 C515 1.366 . S
C515 C514 1.366 . S
C515 C516 1.414 . S
C515 C518 1.499 . S
C516 H490 0.950 . S
C516 C515 1.414 . S
C516 C517 1.374 . S
C517 H491 0.950 . S
C517 C513 1.385 . S
C517 C516 1.374 . S
C518 C515 1.499 . S
C518 C519 1.373 . S
C518 C520 1.389 . S
C519 H492 0.950 . S
C519 C505 1.377 . S
C519 C518 1.373 . S
C520 C504 1.377 . S
C520 C518 1.389 . S
C520 C521 1.524 . S
C521 C520 1.524 . S
C521 C522 1.397 . S
C521 C526 1.363 . S
C522 H493 0.950 . S
C522 C521 1.397 . S
C522 C523 1.334 . S
C523 H494 0.950 . S
C523 C522 1.334 . S
C523 C524 1.287 . S
C524 C523 1.287 . S
C524 C525 1.524 . S
C524 H527 0.999 . S
C525 H495 0.950 . S
C525 C524 1.524 . S
C525 C526 1.415 . S
C526 H496 0.950 . S
C526 C521 1.363 . S
C526 C525 1.415 . S
H527 C524 0.999 . S
H528 C509 0.913 . S
H529 C547 0.951 . S
H530 C549 0.951 . S
H531 C551 0.950 . S
H532 C552 0.950 . S
H533 C554 0.950 . S
H534 C557 0.950 . S
H535 C558 0.950 . S
H536 C560 0.950 . S
H537 C561 0.950 . S
H538 C562 0.951 . S
H539 C564 0.951 . S
H540 C566 0.950 . S
H541 C567 0.950 . S
H542 C569 0.950 . S
H543 C572 0.950 . S
H544 C573 0.950 . S
H545 C575 0.950 . S
H546 C576 0.950 . S
C547 H529 0.951 . S
C547 C548 1.366 . S
C547 C549 1.388 . S
C548 C547 1.366 . S
C548 C552 1.385 . S
C549 H530 0.951 . S
C549 C547 1.388 . S
C549 C550 1.366 . S
C550 C549 1.366 . S
C550 C551 1.414 . S
C550 C553 1.499 . S
C551 H531 0.950 . S
C551 C550 1.414 . S
C551 C552 1.374 . S
C552 H532 0.950 . S
C552 C548 1.385 . S
C552 C551 1.374 . S
C553 C550 1.499 . S
C553 C554 1.373 . S
C553 C555 1.389 . S
C554 H533 0.950 . S
C554 C553 1.373 . S
C554 C570 1.377 . S
C555 C553 1.389 . S
C555 C556 1.524 . S
C555 C569 1.377 . S
C556 C555 1.524 . S
C556 C557 1.397 . S
C556 C561 1.363 . S
C557 H534 0.950 . S
C557 C556 1.397 . S
C557 C558 1.334 . S
C558 H535 0.950 . S
C558 C557 1.334 . S
C558 C559 1.287 . S
C559 C558 1.287 . S
C559 C560 1.524 . S
C559 H578 0.913 . S
C560 H536 0.950 . S
C560 C559 1.524 . S
C560 C561 1.415 . S
C561 H537 0.950 . S
C561 C556 1.363 . S
C561 C560 1.415 . S
C562 H538 0.951 . S
C562 C563 1.366 . S
C562 C564 1.388 . S
C563 C562 1.366 . S
C563 C567 1.385 . S
C564 H539 0.951 . S
C564 C562 1.388 . S
C564 C565 1.366 . S
C565 C564 1.366 . S
C565 C566 1.414 . S
C565 C568 1.499 . S
C566 H540 0.950 . S
C566 C565 1.414 . S
C566 C567 1.374 . S
C567 H541 0.950 . S
C567 C563 1.385 . S
C567 C566 1.374 . S
C568 C565 1.499 . S
C568 C569 1.373 . S
C568 C570 1.389 . S
C569 H542 0.950 . S
C569 C555 1.377 . S
C569 C568 1.373 . S
C570 C554 1.377 . S
C570 C568 1.389 . S
C570 C571 1.524 . S
C571 C570 1.524 . S
C571 C572 1.397 . S
C571 C576 1.363 . S
C572 H543 0.950 . S
C572 C571 1.397 . S
C572 C573 1.334 . S
C573 H544 0.950 . S
C573 C572 1.334 . S
C573 C574 1.287 . S
C574 C573 1.287 . S
C574 C575 1.524 . S
C574 H577 0.999 . S
C575 H545 0.950 . S
C575 C574 1.524 . S
C575 C576 1.415 . S
C576 H546 0.950 . S
C576 C571 1.363 . S
C576 C575 1.415 . S
H577 C574 0.999 . S
H578 C559 0.913 . S
H579 C597 0.951 . S
H580 C599 0.951 . S
H581 C601 0.950 . S
H582 C602 0.950 . S
H583 C604 0.950 . S
H584 C607 0.950 . S
H585 C608 0.950 . S
H586 C610 0.950 . S
H587 C611 0.950 . S
H588 C612 0.951 . S
H589 C614 0.951 . S
H590 C616 0.950 . S
H591 C617 0.950 . S
H592 C619 0.950 . S
H593 C622 0.950 . S
H594 C623 0.950 . S
H595 C625 0.950 . S
H596 C626 0.950 . S
C597 H579 0.951 . S
C597 C598 1.366 . S
C597 C599 1.388 . S
C598 C597 1.366 . S
C598 C602 1.385 . S
C599 H580 0.951 . S
C599 C597 1.388 . S
C599 C600 1.366 . S
C600 C599 1.366 . S
C600 C601 1.414 . S
C600 C603 1.499 . S
C601 H581 0.950 . S
C601 C600 1.414 . S
C601 C602 1.374 . S
C602 H582 0.950 . S
C602 C598 1.385 . S
C602 C601 1.374 . S
C603 C600 1.499 . S
C603 C604 1.373 . S
C603 C605 1.389 . S
C604 H583 0.950 . S
C604 C603 1.373 . S
C604 C620 1.377 . S
C605 C603 1.389 . S
C605 C606 1.524 . S
C605 C619 1.377 . S
C606 C605 1.524 . S
C606 C607 1.397 . S
C606 C611 1.363 . S
C607 H584 0.950 . S
C607 C606 1.397 . S
C607 C608 1.334 . S
C608 H585 0.950 . S
C608 C607 1.334 . S
C608 C609 1.287 . S
C609 C608 1.287 . S
C609 C610 1.524 . S
C609 H628 0.913 . S
C610 H586 0.950 . S
C610 C609 1.524 . S
C610 C611 1.415 . S
C611 H587 0.950 . S
C611 C606 1.363 . S
C611 C610 1.415 . S
C612 H588 0.951 . S
C612 C613 1.366 . S
C612 C614 1.388 . S
C613 C612 1.366 . S
C613 C617 1.385 . S
C614 H589 0.951 . S
C614 C612 1.388 . S
C614 C615 1.366 . S
C615 C614 1.366 . S
C615 C616 1.414 . S
C615 C618 1.499 . S
C616 H590 0.950 . S
C616 C615 1.414 . S
C616 C617 1.374 . S
C617 H591 0.950 . S
C617 C613 1.385 . S
C617 C616 1.374 . S
C618 C615 1.499 . S
C618 C619 1.373 . S
C618 C620 1.389 . S
C619 H592 0.950 . S
C619 C605 1.377 . S
C619 C618 1.373 . S
C620 C604 1.377 . S
C620 C618 1.389 . S
C620 C621 1.524 . S
C621 C620 1.524 . S
C621 C622 1.397 . S
C621 C626 1.363 . S
C622 H593 0.950 . S
C622 C621 1.397 . S
C622 C623 1.334 . S
C623 H594 0.950 . S
C623 C622 1.334 . S
C623 C624 1.287 . S
C624 C623 1.287 . S
C624 C625 1.524 . S
C624 H627 0.999 . S
C625 H595 0.950 . S
C625 C624 1.524 . S
C625 C626 1.415 . S
C626 H596 0.950 . S
C626 C621 1.363 . S
C626 C625 1.415 . S
H627 C624 0.999 . S
H628 C609 0.913 . S
H629 C647 0.951 . S
H630 C649 0.951 . S
H631 C651 0.950 . S
H632 C652 0.950 . S
H633 C654 0.950 . S
H634 C657 0.950 . S
H635 C658 0.950 . S
H636 C660 0.950 . S
H637 C661 0.950 . S
H638 C662 0.951 . S
H639 C664 0.951 . S
H640 C666 0.950 . S
H641 C667 0.950 . S
H642 C669 0.950 . S
H643 C672 0.950 . S
H644 C673 0.950 . S
H645 C675 0.950 . S
H646 C676 0.950 . S
C647 H629 0.951 . S
C647 C648 1.366 . S
C647 C649 1.388 . S
C648 C647 1.366 . S
C648 C652 1.385 . S
C649 H630 0.951 . S
C649 C647 1.388 . S
C649 C650 1.366 . S
C650 C649 1.366 . S
C650 C651 1.414 . S
C650 C653 1.499 . S
C651 H631 0.950 . S
C651 C650 1.414 . S
C651 C652 1.374 . S
C652 H632 0.950 . S
C652 C648 1.385 . S
C652 C651 1.374 . S
C653 C650 1.499 . S
C653 C654 1.373 . S
C653 C655 1.389 . S
C654 H633 0.950 . S
C654 C653 1.373 . S
C654 C670 1.377 . S
C655 C653 1.389 . S
C655 C656 1.524 . S
C655 C669 1.377 . S
C656 C655 1.524 . S
C656 C657 1.397 . S
C656 C661 1.363 . S
C657 H634 0.950 . S
C657 C656 1.397 . S
C657 C658 1.334 . S
C658 H635 0.950 . S
C658 C657 1.334 . S
C658 C659 1.287 . S
C659 C658 1.287 . S
C659 C660 1.524 . S
C659 H678 0.913 . S
C660 H636 0.950 . S
C660 C659 1.524 . S
C660 C661 1.415 . S
C661 H637 0.950 . S
C661 C656 1.363 . S
C661 C660 1.415 . S
C662 H638 0.951 . S
C662 C663 1.366 . S
C662 C664 1.388 . S
C663 C662 1.366 . S
C663 C667 1.385 . S
C664 H639 0.951 . S
C664 C662 1.388 . S
C664 C665 1.366 . S
C665 C664 1.366 . S
C665 C666 1.414 . S
C665 C668 1.499 . S
C666 H640 0.950 . S
C666 C665 1.414 . S
C666 C667 1.374 . S
C667 H641 0.950 . S
C667 C663 1.385 . S
C667 C666 1.374 . S
C668 C665 1.499 . S
C668 C669 1.373 . S
C668 C670 1.389 . S
C669 H642 0.950 . S
C669 C655 1.377 . S
C669 C668 1.373 . S
C670 C654 1.377 . S
C670 C668 1.389 . S
C670 C671 1.524 . S
C671 C670 1.524 . S
C671 C672 1.397 . S
C671 C676 1.363 . S
C672 H643 0.950 . S
C672 C671 1.397 . S
C672 C673 1.334 . S
C673 H644 0.950 . S
C673 C672 1.334 . S
C673 C674 1.287 . S
C674 C673 1.287 . S
C674 C675 1.524 . S
C674 H677 0.999 . S
C675 H645 0.950 . S
C675 C674 1.524 . S
C675 C676 1.415 . S
C676 H646 0.950 . S
C676 C671 1.363 . S
C676 C675 1.415 . S
H677 C674 0.999 . S
H678 C659 0.913 . S
H679 C697 0.951 . S
H680 C699 0.951 . S
H681 C701 0.950 . S
H682 C702 0.950 . S
H683 C704 0.950 . S
H684 C707 0.950 . S
H685 C708 0.950 . S
H686 C710 0.950 . S
H687 C711 0.950 . S
H688 C712 0.951 . S
H689 C714 0.951 . S
H690 C716 0.950 . S
H691 C717 0.950 . S
H692 C719 0.950 . S
H693 C722 0.950 . S
H694 C723 0.950 . S
H695 C725 0.950 . S
H696 C726 0.950 . S
C697 H679 0.951 . S
C697 C698 1.366 . S
C697 C699 1.388 . S
C698 C697 1.366 . S
C698 C702 1.385 . S
C699 H680 0.951 . S
C699 C697 1.388 . S
C699 C700 1.366 . S
C700 C699 1.366 . S
C700 C701 1.414 . S
C700 C703 1.499 . S
C701 H681 0.950 . S
C701 C700 1.414 . S
C701 C702 1.374 . S
C702 H682 0.950 . S
C702 C698 1.385 . S
C702 C701 1.374 . S
C703 C700 1.499 . S
C703 C704 1.373 . S
C703 C705 1.389 . S
C704 H683 0.950 . S
C704 C703 1.373 . S
C704 C720 1.377 . S
C705 C703 1.389 . S
C705 C706 1.524 . S
C705 C719 1.377 . S
C706 C705 1.524 . S
C706 C707 1.397 . S
C706 C711 1.363 . S
C707 H684 0.950 . S
C707 C706 1.397 . S
C707 C708 1.334 . S
C708 H685 0.950 . S
C708 C707 1.334 . S
C708 C709 1.287 . S
C709 C708 1.287 . S
C709 C710 1.524 . S
C709 H728 0.913 . S
C710 H686 0.950 . S
C710 C709 1.524 . S
C710 C711 1.415 . S
C711 H687 0.950 . S
C711 C706 1.363 . S
C711 C710 1.415 . S
C712 H688 0.951 . S
C712 C713 1.366 . S
C712 C714 1.388 . S
C713 C712 1.366 . S
C713 C717 1.385 . S
C714 H689 0.951 . S
C714 C712 1.388 . S
C714 C715 1.366 . S
C715 C714 1.366 . S
C715 C716 1.414 . S
C715 C718 1.499 . S
C716 H690 0.950 . S
C716 C715 1.414 . S
C716 C717 1.374 . S
C717 H691 0.950 . S
C717 C713 1.385 . S
C717 C716 1.374 . S
C718 C715 1.499 . S
C718 C719 1.373 . S
C718 C720 1.389 . S
C719 H692 0.950 . S
C719 C705 1.377 . S
C719 C718 1.373 . S
C720 C704 1.377 . S
C720 C718 1.389 . S
C720 C721 1.524 . S
C721 C720 1.524 . S
C721 C722 1.397 . S
C721 C726 1.363 . S
C722 H693 0.950 . S
C722 C721 1.397 . S
C722 C723 1.334 . S
C723 H694 0.950 . S
C723 C722 1.334 . S
C723 C724 1.287 . S
C724 C723 1.287 . S
C724 C725 1.524 . S
C724 H727 0.999 . S
C725 H695 0.950 . S
C725 C724 1.524 . S
C725 C726 1.415 . S
C726 H696 0.950 . S
C726 C721 1.363 . S
C726 C725 1.415 . S
H727 C724 0.999 . S
H728 C709 0.913 . S
H729 C747 0.951 . S
H730 C749 0.951 . S
H731 C751 0.950 . S
H732 C752 0.950 . S
H733 C754 0.950 . S
H734 C757 0.950 . S
H735 C758 0.950 . S
H736 C760 0.950 . S
H737 C761 0.950 . S
H738 C762 0.951 . S
H739 C764 0.951 . S
H740 C766 0.950 . S
H741 C767 0.950 . S
H742 C769 0.950 . S
H743 C772 0.950 . S
H744 C773 0.950 . S
H745 C775 0.950 . S
H746 C776 0.950 . S
C747 H729 0.951 . S
C747 C748 1.366 . S
C747 C749 1.388 . S
C748 C747 1.366 . S
C748 C752 1.385 . S
C749 H730 0.951 . S
C749 C747 1.388 . S
C749 C750 1.366 . S
C750 C749 1.366 . S
C750 C751 1.414 . S
C750 C753 1.499 . S
C751 H731 0.950 . S
C751 C750 1.414 . S
C751 C752 1.374 . S
C752 H732 0.950 . S
C752 C748 1.385 . S
C752 C751 1.374 . S
C753 C750 1.499 . S
C753 C754 1.373 . S
C753 C755 1.389 . S
C754 H733 0.950 . S
C754 C753 1.373 . S
C754 C770 1.377 . S
C755 C753 1.389 . S
C755 C756 1.524 . S
C755 C769 1.377 . S
C756 C755 1.524 . S
C756 C757 1.397 . S
C756 C761 1.363 . S
C757 H734 0.950 . S
C757 C756 1.397 . S
C757 C758 1.334 . S
C758 H735 0.950 . S
C758 C757 1.334 . S
C758 C759 1.287 . S
C759 C758 1.287 . S
C759 C760 1.524 . S
C759 H778 0.913 . S
C760 H736 0.950 . S
C760 C759 1.524 . S
C760 C761 1.415 . S
C761 H737 0.950 . S
C761 C756 1.363 . S
C761 C760 1.415 . S
C762 H738 0.951 . S
C762 C763 1.366 . S
C762 C764 1.388 . S
C763 C762 1.366 . S
C763 C767 1.385 . S
C764 H739 0.951 . S
C764 C762 1.388 . S
C764 C765 1.366 . S
C765 C764 1.366 . S
C765 C766 1.414 . S
C765 C768 1.499 . S
C766 H740 0.950 . S
C766 C765 1.414 . S
C766 C767 1.374 . S
C767 H741 0.950 . S
C767 C763 1.385 . S
C767 C766 1.374 . S
C768 C765 1.499 . S
C768 C769 1.373 . S
C768 C770 1.389 . S
C769 H742 0.950 . S
C769 C755 1.377 . S
C769 C768 1.373 . S
C770 C754 1.377 . S
C770 C768 1.389 . S
C770 C771 1.524 . S
C771 C770 1.524 . S
C771 C772 1.397 . S
C771 C776 1.363 . S
C772 H743 0.950 . S
C772 C771 1.397 . S
C772 C773 1.334 . S
C773 H744 0.950 . S
C773 C772 1.334 . S
C773 C774 1.287 . S
C774 C773 1.287 . S
C774 C775 1.524 . S
C774 H777 0.999 . S
C775 H745 0.950 . S
C775 C774 1.524 . S
C775 C776 1.415 . S
C776 H746 0.950 . S
C776 C771 1.363 . S
C776 C775 1.415 . S
H777 C774 0.999 . S
H778 C759 0.913 . S
H779 C797 0.951 . S
H780 C799 0.951 . S
H781 C801 0.950 . S
H782 C802 0.950 . S
H783 C804 0.950 . S
H784 C807 0.950 . S
H785 C808 0.950 . S
H786 C810 0.950 . S
H787 C811 0.950 . S
H788 C812 0.951 . S
H789 C814 0.951 . S
H790 C816 0.950 . S
H791 C817 0.950 . S
H792 C819 0.950 . S
H793 C822 0.950 . S
H794 C823 0.950 . S
H795 C825 0.950 . S
H796 C826 0.950 . S
C797 H779 0.951 . S
C797 C798 1.366 . S
C797 C799 1.388 . S
C798 C797 1.366 . S
C798 C802 1.385 . S
C799 H780 0.951 . S
C799 C797 1.388 . S
C799 C800 1.366 . S
C800 C799 1.366 . S
C800 C801 1.414 . S
C800 C803 1.499 . S
C801 H781 0.950 . S
C801 C800 1.414 . S
C801 C802 1.374 . S
C802 H782 0.950 . S
C802 C798 1.385 . S
C802 C801 1.374 . S
C803 C800 1.499 . S
C803 C804 1.373 . S
C803 C805 1.389 . S
C804 H783 0.950 . S
C804 C803 1.373 . S
C804 C820 1.377 . S
C805 C803 1.389 . S
C805 C806 1.524 . S
C805 C819 1.377 . S
C806 C805 1.524 . S
C806 C807 1.397 . S
C806 C811 1.363 . S
C807 H784 0.950 . S
C807 C806 1.397 . S
C807 C808 1.334 . S
C808 H785 0.950 . S
C808 C807 1.334 . S
C808 C809 1.287 . S
C809 C808 1.287 . S
C809 C810 1.524 . S
C809 H828 0.913 . S
C810 H786 0.950 . S
C810 C809 1.524 . S
C810 C811 1.415 . S
C811 H787 0.950 . S
C811 C806 1.363 . S
C811 C810 1.415 . S
C812 H788 0.951 . S
C812 C813 1.366 . S
C812 C814 1.388 . S
C813 C812 1.366 . S
C813 C817 1.385 . S
C814 H789 0.951 . S
C814 C812 1.388 . S
C814 C815 1.366 . S
C815 C814 1.366 . S
C815 C816 1.414 . S
C815 C818 1.499 . S
C816 H790 0.950 . S
C816 C815 1.414 . S
C816 C817 1.374 . S
C817 H791 0.950 . S
C817 C813 1.385 . S
C817 C816 1.374 . S
C818 C815 1.499 . S
C818 C819 1.373 . S
C818 C820 1.389 . S
C819 H792 0.950 . S
C819 C805 1.377 . S
C819 C818 1.373 . S
C820 C804 1.377 . S
C820 C818 1.389 . S
C820 C821 1.524 . S
C821 C820 1.524 . S
C821 C822 1.397 . S
C821 C826 1.363 . S
C822 H793 0.950 . S
C822 C821 1.397 . S
C822 C823 1.334 . S
C823 H794 0.950 . S
C823 C822 1.334 . S
C823 C824 1.287 . S
C824 C823 1.287 . S
C824 C825 1.524 . S
C824 H827 0.999 . S
C825 H795 0.950 . S
C825 C824 1.524 . S
C825 C826 1.415 . S
C826 H796 0.950 . S
C826 C821 1.363 . S
C826 C825 1.415 . S
H827 C824 0.999 . S
H828 C809 0.913 . S
H829 C847 0.951 . S
H830 C849 0.951 . S
H831 C851 0.950 . S
H832 C852 0.950 . S
H833 C854 0.950 . S
H834 C857 0.950 . S
H835 C858 0.950 . S
H836 C860 0.950 . S
H837 C861 0.950 . S
H838 C862 0.951 . S
H839 C864 0.951 . S
H840 C866 0.950 . S
H841 C867 0.950 . S
H842 C869 0.950 . S
H843 C872 0.950 . S
H844 C873 0.950 . S
H845 C875 0.950 . S
H846 C876 0.950 . S
C847 H829 0.951 . S
C847 C848 1.366 . S
C847 C849 1.388 . S
C848 C847 1.366 . S
C848 C852 1.385 . S
C849 H830 0.951 . S
C849 C847 1.388 . S
C849 C850 1.366 . S
C850 C849 1.366 . S
C850 C851 1.414 . S
C850 C853 1.499 . S
C851 H831 0.950 . S
C851 C850 1.414 . S
C851 C852 1.374 . S
C852 H832 0.950 . S
C852 C848 1.385 . S
C852 C851 1.374 . S
C853 C850 1.499 . S
C853 C854 1.373 . S
C853 C855 1.389 . S
C854 H833 0.950 . S
C854 C853 1.373 . S
C854 C870 1.377 . S
C855 C853 1.389 . S
C855 C856 1.524 . S
C855 C869 1.377 . S
C856 C855 1.524 . S
C856 C857 1.397 . S
C856 C861 1.363 . S
C857 H834 0.950 . S
C857 C856 1.397 . S
C857 C858 1.334 . S
C858 H835 0.950 . S
C858 C857 1.334 . S
C858 C859 1.287 . S
C859 C858 1.287 . S
C859 C860 1.524 . S
C859 H878 0.913 . S
C860 H836 0.950 . S
C860 C859 1.524 . S
C860 C861 1.415 . S
C861 H837 0.950 . S
C861 C856 1.363 . S
C861 C860 1.415 . S
C862 H838 0.951 . S
C862 C863 1.366 . S
C862 C864 1.388 . S
C863 C862 1.366 . S
C863 C867 1.385 . S
C864 H839 0.951 . S
C864 C862 1.388 . S
C864 C865 1.366 . S
C865 C864 1.366 . S
C865 C866 1.414 . S
C865 C868 1.499 . S
C866 H840 0.950 . S
C866 C865 1.414 . S
C866 C867 1.374 . S
C867 H841 0.950 . S
C867 C863 1.385 . S
C867 C866 1.374 . S
C868 C865 1.499 . S
C868 C869 1.373 . S
C868 C870 1.389 . S
C869 H842 0.950 . S
C869 C855 1.377 . S
C869 C868 1.373 . S
C870 C854 1.377 . S
C870 C868 1.389 . S
C870 C871 1.524 . S
C871 C870 1.524 . S
C871 C872 1.397 . S
C871 C876 1.363 . S
C872 H843 0.950 . S
C872 C871 1.397 . S
C872 C873 1.334 . S
C873 H844 0.950 . S
C873 C872 1.334 . S
C873 C874 1.287 . S
C874 C873 1.287 . S
C874 C875 1.524 . S
C874 H877 0.999 . S
C875 H845 0.950 . S
C875 C874 1.524 . S
C875 C876 1.415 . S
C876 H846 0.950 . S
C876 C871 1.363 . S
C876 C875 1.415 . S
H877 C874 0.999 . S
H878 C859 0.913 . S
H879 C897 0.951 . S
H880 C899 0.951 . S
H881 C901 0.950 . S
H882 C902 0.950 . S
H883 C904 0.950 . S
H884 C907 0.950 . S
H885 C908 0.950 . S
H886 C910 0.950 . S
H887 C911 0.950 . S
H888 C912 0.951 . S
H889 C914 0.951 . S
H890 C916 0.950 . S
H891 C917 0.950 . S
H892 C919 0.950 . S
H893 C922 0.950 . S
H894 C923 0.950 . S
H895 C925 0.950 . S
H896 C926 0.950 . S
C897 H879 0.951 . S
C897 C898 1.366 . S
C897 C899 1.388 . S
C898 C897 1.366 . S
C898 C902 1.385 . S
C899 H880 0.951 . S
C899 C897 1.388 . S
C899 C900 1.366 . S
C900 C899 1.366 . S
C900 C901 1.414 . S
C900 C903 1.499 . S
C901 H881 0.950 . S
C901 C900 1.414 . S
C901 C902 1.374 . S
C902 H882 0.950 . S
C902 C898 1.385 . S
C902 C901 1.374 . S
C903 C900 1.499 . S
C903 C904 1.373 . S
C903 C905 1.389 . S
C904 H883 0.950 . S
C904 C903 1.373 . S
C904 C920 1.377 . S
C905 C903 1.389 . S
C905 C906 1.524 . S
C905 C919 1.377 . S
C906 C905 1.524 . S
C906 C907 1.397 . S
C906 C911 1.363 . S
C907 H884 0.950 . S
C907 C906 1.397 . S
C907 C908 1.334 . S
C908 H885 0.950 . S
C908 C907 1.334 . S
C908 C909 1.287 . S
C909 C908 1.287 . S
C909 C910 1.524 . S
C909 H928 0.913 . S
C910 H886 0.950 . S
C910 C909 1.524 . S
C910 C911 1.415 . S
C911 H887 0.950 . S
C911 C906 1.363 . S
C911 C910 1.415 . S
C912 H888 0.951 . S
C912 C913 1.366 . S
C912 C914 1.388 . S
C913 C912 1.366 . S
C913 C917 1.385 . S
C914 H889 0.951 . S
C914 C912 1.388 . S
C914 C915 1.366 . S
C915 C914 1.366 . S
C915 C916 1.414 . S
C915 C918 1.499 . S
C916 H890 0.950 . S
C916 C915 1.414 . S
C916 C917 1.374 . S
C917 H891 0.950 . S
C917 C913 1.385 . S
C917 C916 1.374 . S
C918 C915 1.499 . S
C918 C919 1.373 . S
C918 C920 1.389 . S
C919 H892 0.950 . S
C919 C905 1.377 . S
C919 C918 1.373 . S
C920 C904 1.377 . S
C920 C918 1.389 . S
C920 C921 1.524 . S
C921 C920 1.524 . S
C921 C922 1.397 . S
C921 C926 1.363 . S
C922 H893 0.950 . S
C922 C921 1.397 . S
C922 C923 1.334 . S
C923 H894 0.950 . S
C923 C922 1.334 . S
C923 C924 1.287 . S
C924 C923 1.287 . S
C924 C925 1.524 . S
C924 H927 0.999 . S
C925 H895 0.950 . S
C925 C924 1.524 . S
C925 C926 1.415 . S
C926 H896 0.950 . S
C926 C921 1.363 . S
C926 C925 1.415 . S
H927 C924 0.999 . S
H928 C909 0.913 . S
H929 C947 0.951 . S
H930 C949 0.951 . S
H931 C951 0.950 . S
H932 C952 0.950 . S
H933 C954 0.950 . S
H934 C957 0.950 . S
H935 C958 0.950 . S
H936 C960 0.950 . S
H937 C961 0.950 . S
H938 C962 0.951 . S
H939 C964 0.951 . S
H940 C966 0.950 . S
H941 C967 0.950 . S
H942 C969 0.950 . S
H943 C972 0.950 . S
H944 C973 0.950 . S
H945 C975 0.950 . S
H946 C976 0.950 . S
C947 H929 0.951 . S
C947 C948 1.366 . S
C947 C949 1.388 . S
C948 C947 1.366 . S
C948 C952 1.385 . S
C949 H930 0.951 . S
C949 C947 1.388 . S
C949 C950 1.366 . S
C950 C949 1.366 . S
C950 C951 1.414 . S
C950 C953 1.499 . S
C951 H931 0.950 . S
C951 C950 1.414 . S
C951 C952 1.374 . S
C952 H932 0.950 . S
C952 C948 1.385 . S
C952 C951 1.374 . S
C953 C950 1.499 . S
C953 C954 1.373 . S
C953 C955 1.389 . S
C954 H933 0.950 . S
C954 C953 1.373 . S
C954 C970 1.377 . S
C955 C953 1.389 . S
C955 C956 1.524 . S
C955 C969 1.377 . S
C956 C955 1.524 . S
C956 C957 1.397 . S
C956 C961 1.363 . S
C957 H934 0.950 . S
C957 C956 1.397 . S
C957 C958 1.334 . S
C958 H935 0.950 . S
C958 C957 1.334 . S
C958 C959 1.287 . S
C959 C958 1.287 . S
C959 C960 1.524 . S
C959 H978 0.913 . S
C960 H936 0.950 . S
C960 C959 1.524 . S
C960 C961 1.415 . S
C961 H937 0.950 . S
C961 C956 1.363 . S
C961 C960 1.415 . S
C962 H938 0.951 . S
C962 C963 1.366 . S
C962 C964 1.388 . S
C963 C962 1.366 . S
C963 C967 1.385 . S
C964 H939 0.951 . S
C964 C962 1.388 . S
C964 C965 1.366 . S
C965 C964 1.366 . S
C965 C966 1.414 . S
C965 C968 1.499 . S
C966 H940 0.950 . S
C966 C965 1.414 . S
C966 C967 1.374 . S
C967 H941 0.950 . S
C967 C963 1.385 . S
C967 C966 1.374 . S
C968 C965 1.499 . S
C968 C969 1.373 . S
C968 C970 1.389 . S
C969 H942 0.950 . S
C969 C955 1.377 . S
C969 C968 1.373 . S
C970 C954 1.377 . S
C970 C968 1.389 . S
C970 C971 1.524 . S
C971 C970 1.524 . S
C971 C972 1.397 . S
C971 C976 1.363 . S
C972 H943 0.950 . S
C972 C971 1.397 . S
C972 C973 1.334 . S
C973 H944 0.950 . S
C973 C972 1.334 . S
C973 C974 1.287 . S
C974 C973 1.287 . S
C974 C975 1.524 . S
C974 H977 0.999 . S
C975 H945 0.950 . S
C975 C974 1.524 . S
C975 C976 1.415 . S
C976 H946 0.950 . S
C976 C971 1.363 . S
C976 C975 1.415 . S
H977 C974 0.999 . S
H978 C959 0.913 . S
H979 C997 0.951 . S
H980 C999 0.951 . S
H981 C1001 0.950 . S
H982 C1002 0.950 . S
H983 C1004 0.950 . S
H984 C1007 0.950 . S
H985 C1008 0.950 . S
H986 C1010 0.950 . S
H987 C1011 0.950 . S
H988 C1012 0.951 . S
H989 C1014 0.951 . S
H990 C1016 0.950 . S
H991 C1017 0.950 . S
H992 C1019 0.950 . S
H993 C1022 0.950 . S
H994 C1023 0.950 . S
H995 C1025 0.950 . S
H996 C1026 0.950 . S
C997 H979 0.951 . S
C997 C998 1.366 . S
C997 C999 1.388 . S
C998 C997 1.366 . S
C998 C1002 1.385 . S
C999 H980 0.951 . S
C999 C997 1.388 . S
C999 C1000 1.366 . S
C1000 C999 1.366 . S
C1000 C1001 1.414 . S
C1000 C1003 1.499 . S
C1001 H981 0.950 . S
C1001 C1000 1.414 . S
C1001 C1002 1.374 . S
C1002 H982 0.950 . S
C1002 C998 1.385 . S
C1002 C1001 1.374 . S
C1003 C1000 1.499 . S
C1003 C1004 1.373 . S
C1003 C1005 1.389 . S
C1004 H983 0.950 . S
C1004 C1003 1.373 . S
C1004 C1020 1.377 . S
C1005 C1003 1.389 . S
C1005 C1006 1.524 . S
C1005 C1019 1.377 . S
C1006 C1005 1.524 . S
C1006 C1007 1.397 . S
C1006 C1011 1.363 . S
C1007 H984 0.950 . S
C1007 C1006 1.397 . S
C1007 C1008 1.334 . S
C1008 H985 0.950 . S
C1008 C1007 1.334 . S
C1008 C1009 1.287 . S
C1009 C1008 1.287 . S
C1009 C1010 1.524 . S
C1009 H1028 0.913 . S
C1010 H986 0.950 . S
C1010 C1009 1.524 . S
C1010 C1011 1.415 . S
C1011 H987 0.950 . S
C1011 C1006 1.363 . S
C1011 C1010 1.415 . S
C1012 H988 0.951 . S
C1012 C1013 1.366 . S
C1012 C1014 1.388 . S
C1013 C1012 1.366 . S
C1013 C1017 1.385 . S
C1014 H989 0.951 . S
C1014 C1012 1.388 . S
C1014 C1015 1.366 . S
C1015 C1014 1.366 . S
C1015 C1016 1.414 . S
C1015 C1018 1.499 . S
C1016 H990 0.950 . S
C1016 C1015 1.414 . S
C1016 C1017 1.374 . S
C1017 H991 0.950 . S
C1017 C1013 1.385 . S
C1017 C1016 1.374 . S
C1018 C1015 1.499 . S
C1018 C1019 1.373 . S
C1018 C1020 1.389 . S
C1019 H992 0.950 . S
C1019 C1005 1.377 . S
C1019 C1018 1.373 . S
C1020 C1004 1.377 . S
C1020 C1018 1.389 . S
C1020 C1021 1.524 . S
C1021 C1020 1.524 . S
C1021 C1022 1.397 . S
C1021 C1026 1.363 . S
C1022 H993 0.950 . S
C1022 C1021 1.397 . S
C1022 C1023 1.334 . S
C1023 H994 0.950 . S
C1023 C1022 1.334 . S
C1023 C1024 1.287 . S
C1024 C1023 1.287 . S
C1024 C1025 1.524 . S
C1024 H1027 0.999 . S
C1025 H995 0.950 . S
C1025 C1024 1.524 . S
C1025 C1026 1.415 . S
C1026 H996 0.950 . S
C1026 C1021 1.363 . S
C1026 C1025 1.415 . S
H1027 C1024 0.999 . S
H1028 C1009 0.913 . S
H1029 C1047 0.951 . S
H1030 C1049 0.951 . S
H1031 C1051 0.950 . S
H1032 C1052 0.950 . S
H1033 C1054 0.950 . S
H1034 C1057 0.950 . S
H1035 C1058 0.950 . S
H1036 C1060 0.950 . S
H1037 C1061 0.950 . S
H1038 C1062 0.951 . S
H1039 C1064 0.951 . S
H1040 C1066 0.950 . S
H1041 C1067 0.950 . S
H1042 C1069 0.950 . S
H1043 C1072 0.950 . S
H1044 C1073 0.950 . S
H1045 C1075 0.950 . S
H1046 C1076 0.950 . S
C1047 H1029 0.951 . S
C1047 C1048 1.366 . S
C1047 C1049 1.388 . S
C1048 C1047 1.366 . S
C1048 C1052 1.385 . S
C1049 H1030 0.951 . S
C1049 C1047 1.388 . S
C1049 C1050 1.366 . S
C1050 C1049 1.366 . S
C1050 C1051 1.414 . S
C1050 C1053 1.499 . S
C1051 H1031 0.950 . S
C1051 C1050 1.414 . S
C1051 C1052 1.374 . S
C1052 H1032 0.950 . S
C1052 C1048 1.385 . S
C1052 C1051 1.374 . S
C1053 C1050 1.499 . S
C1053 C1054 1.373 . S
C1053 C1055 1.389 1_455 S
C1054 H1033 0.950 . S
C1054 C1053 1.373 . S
C1054 C1070 1.377 . S
C1055 C1053 1.389 1_655 S
C1055 C1056 1.524 . S
C1055 C1069 1.377 . S
C1056 C1055 1.524 . S
C1056 C1057 1.397 . S
C1056 C1061 1.363 . S
C1057 H1034 0.950 . S
C1057 C1056 1.397 . S
C1057 C1058 1.334 . S
C1058 H1035 0.950 . S
C1058 C1057 1.334 . S
C1058 C1059 1.287 . S
C1059 C1058 1.287 . S
C1059 C1060 1.524 . S
C1059 H1078 0.913 . S
C1060 H1036 0.950 . S
C1060 C1059 1.524 . S
C1060 C1061 1.415 . S
C1061 H1037 0.950 . S
C1061 C1056 1.363 . S
C1061 C1060 1.415 . S
C1062 H1038 0.951 . S
C1062 C1063 1.366 . S
C1062 C1064 1.388 1_556 S
C1063 C1062 1.366 . S
C1063 C1067 1.385 . S
C1064 H1039 0.951 . S
C1064 C1062 1.388 1_554 S
C1064 C1065 1.366 . S
C1065 C1064 1.366 . S
C1065 C1066 1.414 . S
C1065 C1068 1.499 . S
C1066 H1040 0.950 . S
C1066 C1065 1.414 . S
C1066 C1067 1.374 1_554 S
C1067 H1041 0.950 . S
C1067 C1063 1.385 . S
C1067 C1066 1.374 1_556 S
C1068 C1065 1.499 . S
C1068 C1069 1.373 1_455 S
C1068 C1070 1.389 . S
C1069 H1042 0.950 . S
C1069 C1055 1.377 . S
C1069 C1068 1.373 1_655 S
C1070 C1054 1.377 . S
C1070 C1068 1.389 . S
C1070 C1071 1.524 . S
C1071 C1070 1.524 . S
C1071 C1072 1.397 . S
C1071 C1076 1.363 . S
C1072 H1043 0.950 . S
C1072 C1071 1.397 . S
C1072 C1073 1.334 . S
C1073 H1044 0.950 . S
C1073 C1072 1.334 . S
C1073 C1074 1.287 . S
C1074 C1073 1.287 . S
C1074 C1075 1.524 . S
C1074 H1077 0.999 . S
C1075 H1045 0.950 . S
C1075 C1074 1.524 . S
C1075 C1076 1.415 . S
C1076 H1046 0.950 . S
C1076 C1071 1.363 . S
C1076 C1075 1.415 . S
H1077 C1074 0.999 . S
H1078 C1059 0.913 . S
H1079 C1097 0.951 . S
H1080 C1099 0.951 . S
H1081 C1101 0.950 . S
H1082 C1102 0.950 . S
H1083 C1104 0.950 . S
H1084 C1107 0.950 . S
H1085 C1108 0.950 . S
H1086 C1110 0.950 . S
H1087 C1111 0.950 . S
H1088 C1112 0.951 . S
H1089 C1114 0.951 . S
H1090 C1116 0.950 . S
H1091 C1117 0.950 . S
H1092 C1119 0.950 . S
H1093 C1122 0.950 . S
H1094 C1123 0.950 . S
H1095 C1125 0.950 . S
H1096 C1126 0.950 . S
C1097 H1079 0.951 . S
C1097 C1098 1.366 . S
C1097 C1099 1.388 . S
C1098 C1097 1.366 . S
C1098 C1102 1.385 1_545 S
C1099 H1080 0.951 . S
C1099 C1097 1.388 . S
C1099 C1100 1.366 . S
C1100 C1099 1.366 . S
C1100 C1101 1.414 1_545 S
C1100 C1103 1.499 . S
C1101 H1081 0.950 . S
C1101 C1100 1.414 1_565 S
C1101 C1102 1.374 . S
C1102 H1082 0.950 . S
C1102 C1098 1.385 1_565 S
C1102 C1101 1.374 . S
C1103 C1100 1.499 . S
C1103 C1104 1.373 1_545 S
C1103 C1105 1.389 . S
C1104 H1083 0.950 . S
C1104 C1103 1.373 1_565 S
C1104 C1120 1.377 . S
C1105 C1103 1.389 . S
C1105 C1106 1.524 . S
C1105 C1119 1.377 . S
C1106 C1105 1.524 . S
C1106 C1107 1.397 . S
C1106 C1111 1.363 . S
C1107 H1084 0.950 . S
C1107 C1106 1.397 . S
C1107 C1108 1.334 . S
C1108 H1085 0.950 . S
C1108 C1107 1.334 . S
C1108 C1109 1.287 . S
C1109 C1108 1.287 . S
C1109 C1110 1.524 . S
C1109 H1128 0.913 . S
C1110 H1086 0.950 . S
C1110 C1109 1.524 . S
C1110 C1111 1.415 . S
C1111 H1087 0.950 . S
C1111 C1106 1.363 . S
C1111 C1110 1.415 . S
C1112 H1088 0.951 . S
C1112 C1113 1.366 1_565 S
C1112 C1114 1.388 . S
C1113 C1112 1.366 1_545 S
C1113 C1117 1.385 . S
C1114 H1089 0.951 . S
C1114 C1112 1.388 . S
C1114 C1115 1.366 1_565 S
C1115 C1114 1.366 1_545 S
C1115 C1116 1.414 . S
C1115 C1118 1.499 . S
C1116 H1090 0.950 . S
C1116 C1115 1.414 . S
C1116 C1117 1.374 . S
C1117 H1091 0.950 . S
C1117 C1113 1.385 . S
C1117 C1116 1.374 . S
C1118 C1115 1.499 . S
C1118 C1119 1.373 . S
C1118 C1120 1.389 1_545 S
C1119 H1092 0.950 . S
C1119 C1105 1.377 . S
C1119 C1118 1.373 . S
C1120 C1104 1.377 . S
C1120 C1118 1.389 1_565 S
C1120 C1121 1.524 . S
C1121 C1120 1.524 . S
C1121 C1122 1.397 . S
C1121 C1126 1.363 . S
C1122 H1093 0.950 . S
C1122 C1121 1.397 . S
C1122 C1123 1.334 . S
C1123 H1094 0.950 . S
C1123 C1122 1.334 . S
C1123 C1124 1.287 . S
C1124 C1123 1.287 . S
C1124 C1125 1.524 . S
C1124 H1127 0.999 . S
C1125 H1095 0.950 . S
C1125 C1124 1.524 . S
C1125 C1126 1.415 . S
C1126 H1096 0.950 . S
C1126 C1121 1.363 . S
C1126 C1125 1.415 . S
H1127 C1124 0.999 . S
H1128 C1109 0.913 . S
H1129 C1147 0.951 . S
H1130 C1149 0.951 . S
H1131 C1151 0.950 . S
H1132 C1152 0.950 . S
H1133 C1154 0.950 . S
H1134 C1157 0.950 . S
H1135 C1158 0.950 . S
H1136 C1160 0.950 . S
H1137 C1161 0.950 . S
H1138 C1162 0.951 . S
H1139 C1164 0.951 . S
H1140 C1166 0.950 . S
H1141 C1167 0.950 . S
H1142 C1169 0.950 . S
H1143 C1172 0.950 . S
H1144 C1173 0.950 . S
H1145 C1175 0.950 . S
H1146 C1176 0.950 . S
C1147 H1129 0.951 . S
C1147 C1148 1.366 . S
C1147 C1149 1.388 . S
C1148 C1147 1.366 . S
C1148 C1152 1.385 . S
C1149 H1130 0.951 . S
C1149 C1147 1.388 . S
C1149 C1150 1.366 . S
C1150 C1149 1.366 . S
C1150 C1151 1.414 . S
C1150 C1153 1.499 . S
C1151 H1131 0.950 . S
C1151 C1150 1.414 . S
C1151 C1152 1.374 . S
C1152 H1132 0.950 . S
C1152 C1148 1.385 . S
C1152 C1151 1.374 . S
C1153 C1150 1.499 . S
C1153 C1154 1.373 . S
C1153 C1155 1.389 . S
C1154 H1133 0.950 . S
C1154 C1153 1.373 . S
C1154 C1170 1.377 . S
C1155 C1153 1.389 . S
C1155 C1156 1.524 . S
C1155 C1169 1.377 . S
C1156 C1155 1.524 . S
C1156 C1157 1.397 . S
C1156 C1161 1.363 . S
C1157 H1134 0.950 . S
C1157 C1156 1.397 . S
C1157 C1158 1.334 . S
C1158 H1135 0.950 . S
C1158 C1157 1.334 . S
C1158 C1159 1.287 . S
C1159 C1158 1.287 . S
C1159 C1160 1.524 . S
C1159 H1178 0.913 . S
C1160 H1136 0.950 . S
C1160 C1159 1.524 . S
C1160 C1161 1.415 . S
C1161 H1137 0.950 . S
C1161 C1156 1.363 . S
C1161 C1160 1.415 . S
C1162 H1138 0.951 . S
C1162 C1163 1.366 . S
C1162 C1164 1.388 . S
C1163 C1162 1.366 . S
C1163 C1167 1.385 . S
C1164 H1139 0.951 . S
C1164 C1162 1.388 . S
C1164 C1165 1.366 . S
C1165 C1164 1.366 . S
C1165 C1166 1.414 . S
C1165 C1168 1.499 . S
C1166 H1140 0.950 . S
C1166 C1165 1.414 . S
C1166 C1167 1.374 . S
C1167 H1141 0.950 . S
C1167 C1163 1.385 . S
C1167 C1166 1.374 . S
C1168 C1165 1.499 . S
C1168 C1169 1.373 . S
C1168 C1170 1.389 . S
C1169 H1142 0.950 . S
C1169 C1155 1.377 . S
C1169 C1168 1.373 . S
C1170 C1154 1.377 . S
C1170 C1168 1.389 . S
C1170 C1171 1.524 . S
C1171 C1170 1.524 . S
C1171 C1172 1.397 . S
C1171 C1176 1.363 . S
C1172 H1143 0.950 . S
C1172 C1171 1.397 . S
C1172 C1173 1.334 . S
C1173 H1144 0.950 . S
C1173 C1172 1.334 . S
C1173 C1174 1.287 . S
C1174 C1173 1.287 . S
C1174 C1175 1.524 . S
C1174 H1177 0.999 . S
C1175 H1145 0.950 . S
C1175 C1174 1.524 . S
C1175 C1176 1.415 . S
C1176 H1146 0.950 . S
C1176 C1171 1.363 . S
C1176 C1175 1.415 . S
H1177 C1174 0.999 . S
H1178 C1159 0.913 . S
H1179 C1197 0.951 . S
H1180 C1199 0.951 . S
H1181 C1201 0.950 . S
H1182 C1202 0.950 . S
H1183 C1204 0.950 . S
H1184 C1207 0.950 . S
H1185 C1208 0.950 . S
H1186 C1210 0.950 1_545 S
H1187 C1211 0.950 . S
H1188 C1212 0.951 . S
H1189 C1214 0.951 . S
H1190 C1216 0.950 . S
H1191 C1217 0.950 . S
H1192 C1219 0.950 . S
H1193 C1222 0.950 . S
H1194 C1223 0.950 . S
H1195 C1225 0.950 1_565 S
H1196 C1226 0.938 1_565 S
C1197 H1179 0.951 . S
C1197 C1198 1.366 . S
C1197 C1199 1.388 . S
C1198 C1197 1.366 . S
C1198 C1202 1.385 1_545 S
C1199 H1180 0.951 . S
C1199 C1197 1.388 . S
C1199 C1200 1.366 . S
C1200 C1199 1.366 . S
C1200 C1201 1.414 1_545 S
C1200 C1203 1.499 . S
C1201 H1181 0.950 . S
C1201 C1200 1.414 1_565 S
C1201 C1202 1.374 . S
C1202 H1182 0.950 . S
C1202 C1198 1.385 1_565 S
C1202 C1201 1.374 . S
C1203 C1200 1.499 . S
C1203 C1204 1.374 . S
C1203 C1205 1.389 1_545 S
C1204 H1183 0.950 . S
C1204 C1203 1.374 . S
C1204 C1220 1.377 . S
C1205 C1203 1.389 1_565 S
C1205 C1206 1.524 . S
C1205 C1219 1.377 . S
C1206 C1205 1.524 . S
C1206 C1207 1.397 . S
C1206 C1211 1.363 1_565 S
C1207 H1184 0.950 . S
C1207 C1206 1.397 . S
C1207 C1208 1.334 . S
C1208 H1185 0.950 . S
C1208 C1207 1.334 . S
C1208 C1209 1.287 . S
C1209 C1208 1.287 . S
C1209 C1210 1.524 . S
C1209 H1228 0.913 . S
C1210 H1186 0.950 1_565 S
C1210 C1209 1.524 . S
C1210 C1211 1.415 1_565 S
C1211 H1187 0.950 . S
C1211 C1206 1.363 1_545 S
C1211 C1210 1.415 1_545 S
C1212 H1188 0.951 . S
C1212 C1213 1.366 . S
C1212 C1214 1.388 . S
C1213 C1212 1.366 . S
C1213 C1217 1.384 1_565 S
C1214 H1189 0.951 . S
C1214 C1212 1.388 . S
C1214 C1215 1.366 1_565 S
C1215 C1214 1.366 1_545 S
C1215 C1216 1.414 . S
C1215 C1218 1.499 . S
C1216 H1190 0.950 . S
C1216 C1215 1.414 . S
C1216 C1217 1.374 . S
C1217 H1191 0.950 . S
C1217 C1213 1.384 1_545 S
C1217 C1216 1.374 . S
C1218 C1215 1.499 . S
C1218 C1219 1.373 1_545 S
C1218 C1220 1.389 . S
C1219 H1192 0.950 . S
C1219 C1205 1.377 . S
C1219 C1218 1.373 1_565 S
C1220 C1204 1.377 . S
C1220 C1218 1.389 . S
C1220 C1221 1.524 . S
C1221 C1220 1.524 . S
C1221 C1222 1.397 . S
C1221 C1226 1.363 . S
C1222 H1193 0.950 . S
C1222 C1221 1.397 . S
C1222 C1223 1.334 . S
C1223 H1194 0.950 . S
C1223 C1222 1.334 . S
C1223 C1224 1.287 . S
C1224 C1223 1.287 . S
C1224 C1225 1.524 . S
C1224 H1227 0.999 . S
C1225 H1195 0.950 1_545 S
C1225 C1224 1.524 . S
C1225 C1226 1.427 . S
C1226 H1196 0.938 1_545 S
C1226 C1221 1.363 . S
C1226 C1225 1.427 . S
H1227 C1224 0.999 . S
H1228 C1209 0.913 . S
H1229 C1247 0.951 . S
H1230 C1249 0.951 . S
H1231 C1251 0.950 . S
H1232 C1252 0.950 . S
H1233 C1254 0.950 . S
H1234 C1257 0.950 . S
H1235 C1258 0.950 . S
H1236 C1260 0.950 . S
H1237 C1261 0.950 . S
H1238 C1262 0.951 . S
H1239 C1264 0.951 . S
H1240 C1266 0.950 . S
H1241 C1267 0.950 . S
H1242 C1269 0.950 . S
H1243 C1272 0.950 . S
H1244 C1273 0.950 . S
H1245 C1275 0.950 . S
H1246 C1276 0.950 . S
C1247 H1229 0.951 . S
C1247 C1248 1.366 . S
C1247 C1249 1.388 . S
C1248 C1247 1.366 . S
C1248 C1252 1.385 . S
C1249 H1230 0.951 . S
C1249 C1247 1.388 . S
C1249 C1250 1.366 . S
C1250 C1249 1.366 . S
C1250 C1251 1.414 . S
C1250 C1253 1.499 . S
C1251 H1231 0.950 . S
C1251 C1250 1.414 . S
C1251 C1252 1.374 . S
C1252 H1232 0.950 . S
C1252 C1248 1.385 . S
C1252 C1251 1.374 . S
C1253 C1250 1.499 . S
C1253 C1254 1.373 . S
C1253 C1255 1.389 . S
C1254 H1233 0.950 . S
C1254 C1253 1.373 . S
C1254 C1270 1.377 . S
C1255 C1253 1.389 . S
C1255 C1256 1.524 . S
C1255 C1269 1.377 . S
C1256 C1255 1.524 . S
C1256 C1257 1.397 . S
C1256 C1261 1.363 . S
C1257 H1234 0.950 . S
C1257 C1256 1.397 . S
C1257 C1258 1.334 . S
C1258 H1235 0.950 . S
C1258 C1257 1.334 . S
C1258 C1259 1.287 . S
C1259 C1258 1.287 . S
C1259 C1260 1.524 . S
C1259 H1278 0.913 . S
C1260 H1236 0.950 . S
C1260 C1259 1.524 . S
C1260 C1261 1.415 . S
C1261 H1237 0.950 . S
C1261 C1256 1.363 . S
C1261 C1260 1.415 . S
C1262 H1238 0.951 . S
C1262 C1263 1.366 . S
C1262 C1264 1.388 1_554 S
C1263 C1262 1.366 . S
C1263 C1267 1.385 . S
C1264 H1239 0.951 . S
C1264 C1262 1.388 1_556 S
C1264 C1265 1.366 . S
C1265 C1264 1.366 . S
C1265 C1266 1.414 . S
C1265 C1268 1.499 . S
C1266 H1240 0.950 . S
C1266 C1265 1.414 . S
C1266 C1267 1.374 1_556 S
C1267 H1241 0.950 . S
C1267 C1263 1.385 . S
C1267 C1266 1.374 1_554 S
C1268 C1265 1.499 . S
C1268 C1269 1.373 . S
C1268 C1270 1.389 . S
C1269 H1242 0.950 . S
C1269 C1255 1.377 . S
C1269 C1268 1.373 . S
C1270 C1254 1.377 . S
C1270 C1268 1.389 . S
C1270 C1271 1.524 . S
C1271 C1270 1.524 . S
C1271 C1272 1.397 . S
C1271 C1276 1.363 . S
C1272 H1243 0.950 . S
C1272 C1271 1.397 . S
C1272 C1273 1.334 . S
C1273 H1244 0.950 . S
C1273 C1272 1.334 . S
C1273 C1274 1.287 . S
C1274 C1273 1.287 . S
C1274 C1275 1.524 . S
C1274 H1277 0.999 . S
C1275 H1245 0.950 . S
C1275 C1274 1.524 . S
C1275 C1276 1.415 . S
C1276 H1246 0.950 . S
C1276 C1271 1.363 . S
C1276 C1275 1.415 . S
H1277 C1274 0.999 . S
H1278 C1259 0.913 . S
H1279 C1297 0.951 . S
H1280 C1299 0.951 . S
H1281 C1301 0.950 . S
H1282 C1302 0.950 . S
H1283 C1304 0.950 . S
H1284 C1307 0.950 . S
H1285 C1308 0.950 . S
H1286 C1310 0.950 . S
H1287 C1311 0.950 . S
H1288 C1312 0.951 . S
H1289 C1314 0.951 . S
H1290 C1316 0.950 . S
H1291 C1317 0.950 . S
H1292 C1319 0.950 . S
H1293 C1322 0.950 . S
H1294 C1323 0.950 . S
H1295 C1325 0.950 . S
H1296 C1326 0.950 . S
C1297 H1279 0.951 . S
C1297 C1298 1.366 1_655 S
C1297 C1299 1.388 . S
C1298 C1297 1.366 1_455 S
C1298 C1302 1.385 . S
C1299 H1280 0.951 . S
C1299 C1297 1.388 . S
C1299 C1300 1.366 1_655 S
C1300 C1299 1.366 1_455 S
C1300 C1301 1.414 . S
C1300 C1303 1.499 . S
C1301 H1281 0.950 . S
C1301 C1300 1.414 . S
C1301 C1302 1.374 . S
C1302 H1282 0.950 . S
C1302 C1298 1.385 . S
C1302 C1301 1.374 . S
C1303 C1300 1.499 . S
C1303 C1304 1.373 . S
C1303 C1305 1.389 1_455 S
C1304 H1283 0.950 . S
C1304 C1303 1.373 . S
C1304 C1320 1.377 . S
C1305 C1303 1.389 1_655 S
C1305 C1306 1.524 . S
C1305 C1319 1.377 . S
C1306 C1305 1.524 . S
C1306 C1307 1.397 . S
C1306 C1311 1.363 . S
C1307 H1284 0.950 . S
C1307 C1306 1.397 . S
C1307 C1308 1.334 . S
C1308 H1285 0.950 . S
C1308 C1307 1.334 . S
C1308 C1309 1.287 . S
C1309 C1308 1.287 . S
C1309 C1310 1.524 . S
C1309 H1328 0.913 . S
C1310 H1286 0.950 . S
C1310 C1309 1.524 . S
C1310 C1311 1.415 . S
C1311 H1287 0.950 . S
C1311 C1306 1.363 . S
C1311 C1310 1.415 . S
C1312 H1288 0.951 . S
C1312 C1313 1.366 . S
C1312 C1314 1.388 . S
C1313 C1312 1.366 . S
C1313 C1317 1.385 1_455 S
C1314 H1289 0.951 . S
C1314 C1312 1.388 . S
C1314 C1315 1.366 . S
C1315 C1314 1.366 . S
C1315 C1316 1.414 1_455 S
C1315 C1318 1.499 . S
C1316 H1290 0.950 . S
C1316 C1315 1.414 1_655 S
C1316 C1317 1.374 . S
C1317 H1291 0.950 . S
C1317 C1313 1.385 1_655 S
C1317 C1316 1.374 . S
C1318 C1315 1.499 . S
C1318 C1319 1.373 1_455 S
C1318 C1320 1.389 . S
C1319 H1292 0.950 . S
C1319 C1305 1.377 . S
C1319 C1318 1.373 1_655 S
C1320 C1304 1.377 . S
C1320 C1318 1.389 . S
C1320 C1321 1.524 . S
C1321 C1320 1.524 . S
C1321 C1322 1.397 . S
C1321 C1326 1.363 . S
C1322 H1293 0.950 . S
C1322 C1321 1.397 . S
C1322 C1323 1.334 . S
C1323 H1294 0.950 . S
C1323 C1322 1.334 . S
C1323 C1324 1.287 . S
C1324 C1323 1.287 . S
C1324 C1325 1.524 . S
C1324 H1327 0.999 . S
C1325 H1295 0.950 . S
C1325 C1324 1.524 . S
C1325 C1326 1.415 . S
C1326 H1296 0.950 . S
C1326 C1321 1.363 . S
C1326 C1325 1.415 . S
H1327 C1324 0.999 . S
H1328 C1309 0.913 . S
C448 C20 1.064 . S
C463 C400 1.084 . S
C498 C41 1.119 . S
C513 C250 1.082 . S
C548 C64 1.142 . S
C563 C310 1.107 . S
C598 C19 1.112 . S
C613 C370 1.110 . S
C663 C280 1.111 . S
C648 C44 1.114 . S
C713 C340 1.103 . S
C698 C67 1.100 . S
C748 C43 1.058 . S
C763 C130 1.050 . S
C798 C66 1.063 . S
C813 C220 1.083 . S
C848 C21 1.112 . S
C863 C100 1.110 . S
C913 C160 1.128 . S
C898 C42 1.105 . S
C963 C190 1.111 . S
C948 C65 1.112 . S
C998 C18 1.122 . S
C1013 C70 1.086 . S
C1063 C209 1.431 . S
C1048 C17 1.452 . S
C1098 C39 1.446 . S
C1113 C89 1.423 . S
C1148 C62 1.467 . S
C1163 C149 1.442 . S
C1213 C329 1.409 1_565 S
C1198 C40 1.430 . S
C1263 C389 1.431 . S
C1248 C63 1.451 . S
C1298 C16 1.446 . S
C1313 C269 1.424 . S
