# Generated by pormake.
# Topology pyr, (3,6)-cn, num edge types: 1
# Building blocks:
#     Node 0, Type 0, BuildingBlock: BETDAH_clean_linker_0, # of connection points: 3
#     Node 1, Type 0, BuildingBlock: BETDAH_clean_linker_0, # of connection points: 3
#     Node 2, Type 0, BuildingBlock: BETDAH_clean_linker_0, # of connection points: 3
#     Node 3, Type 0, BuildingBlock: BETDAH_clean_linker_0, # of connection points: 3
#     Node 4, Type 0, BuildingBlock: BETDAH_clean_linker_0, # of connection points: 3
#     Node 5, Type 0, BuildingBlock: BETDAH_clean_linker_0, # of connection points: 3
#     Node 6, Type 0, BuildingBlock: BETDAH_clean_linker_0, # of connection points: 3
#     Node 7, Type 0, BuildingBlock: BETDAH_clean_linker_0, # of connection points: 3
#     Node 8, Type 1, BuildingBlock: MIFKUJ_clean_sbu_0, # of connection points: 6
#     Node 9, Type 1, BuildingBlock: MIFKUJ_clean_sbu_0, # of connection points: 6
#     Node 10, Type 1, BuildingBlock: MIFKUJ_clean_sbu_0, # of connection points: 6
#     Node 11, Type 1, BuildingBlock: MIFKUJ_clean_sbu_0, # of connection points: 6
#     Edge 12, Type (0, 1), BuildingBlock: MIFKUJ_clean_linker_0, # of connection points: 2
#     Edge 13, Type (0, 1), BuildingBlock: MIFKUJ_clean_linker_0, # of connection points: 2
#     Edge 14, Type (0, 1), BuildingBlock: MIFKUJ_clean_linker_0, # of connection points: 2
#     Edge 15, Type (0, 1), BuildingBlock: MIFKUJ_clean_linker_0, # of connection points: 2
#     Edge 16, Type (0, 1), BuildingBlock: MIFKUJ_clean_linker_0, # of connection points: 2
#     Edge 17, Type (0, 1), BuildingBlock: MIFKUJ_clean_linker_0, # of connection points: 2
#     Edge 18, Type (0, 1), BuildingBlock: MIFKUJ_clean_linker_0, # of connection points: 2
#     Edge 19, Type (0, 1), BuildingBlock: MIFKUJ_clean_linker_0, # of connection points: 2
#     Edge 20, Type (0, 1), BuildingBlock: MIFKUJ_clean_linker_0, # of connection points: 2
#     Edge 21, Type (0, 1), BuildingBlock: MIFKUJ_clean_linker_0, # of connection points: 2
#     Edge 22, Type (0, 1), BuildingBlock: MIFKUJ_clean_linker_0, # of connection points: 2
#     Edge 23, Type (0, 1), BuildingBlock: MIFKUJ_clean_linker_0, # of connection points: 2
#     Edge 24, Type (0, 1), BuildingBlock: MIFKUJ_clean_linker_0, # of connection points: 2
#     Edge 25, Type (0, 1), BuildingBlock: MIFKUJ_clean_linker_0, # of connection points: 2
#     Edge 26, Type (0, 1), BuildingBlock: MIFKUJ_clean_linker_0, # of connection points: 2
#     Edge 27, Type (0, 1), BuildingBlock: MIFKUJ_clean_linker_0, # of connection points: 2
#     Edge 28, Type (0, 1), BuildingBlock: MIFKUJ_clean_linker_0, # of connection points: 2
#     Edge 29, Type (0, 1), BuildingBlock: MIFKUJ_clean_linker_0, # of connection points: 2
#     Edge 30, Type (0, 1), BuildingBlock: MIFKUJ_clean_linker_0, # of connection points: 2
#     Edge 31, Type (0, 1), BuildingBlock: MIFKUJ_clean_linker_0, # of connection points: 2
#     Edge 32, Type (0, 1), BuildingBlock: MIFKUJ_clean_linker_0, # of connection points: 2
#     Edge 33, Type (0, 1), BuildingBlock: MIFKUJ_clean_linker_0, # of connection points: 2
#     Edge 34, Type (0, 1), BuildingBlock: MIFKUJ_clean_linker_0, # of connection points: 2
#     Edge 35, Type (0, 1), BuildingBlock: MIFKUJ_clean_linker_0, # of connection points: 2
# Relax obj value: 0.054
# Max RMSD: 0.192
# Mean RMSD: 0.127
data_MOF--net-pyr--node1-MIFKUJ_clean_sbu_0--node2-BETDAH_clean_linker_0--edge1-MIFKUJ_clean_linker_0
_symmetry_space_group_name_H-M    P1
_symmetry_Int_Tables_number       1
_symmetry_cell_setting            triclinic
loop_
_symmetry_equiv_pos_as_xyz
'x, y, z'
_cell_length_a     49.306477
_cell_length_b     44.773327
_cell_length_c     50.419152
_cell_angle_alpha  86.462859
_cell_angle_beta   89.100552
_cell_angle_gamma 102.95184
loop_
_atom_site_label
_atom_site_type_symbol
_atom_site_fract_x
_atom_site_fract_y
_atom_site_fract_z
_atom_type_partial_charge
H0 H 0.20965 0.15763 0.22512 0.0
H1 H 0.21332 0.1992 0.14548 0.0
H2 H 0.15139 0.21239 0.20155 0.0
C3 C 0.20201 0.17189 0.21018 0.0
C4 C 0.17893 0.18417 0.21641 0.0
C5 C 0.21485 0.17729 0.18469 0.0
C6 C 0.20431 0.1954 0.16549 0.0
C7 C 0.18195 0.20856 0.1715 0.0
C8 C 0.16915 0.20288 0.197 0.0
N9 N 0.17222 0.22605 0.15081 0.0
C10 C 0.15752 0.24873 0.1542 0.0
H11 H 0.39006 0.8507 0.74072 0.0
H12 H 0.35317 0.92676 0.71762 0.0
H13 H 0.36428 0.86326 0.66043 0.0
C14 C 0.38043 0.86317 0.72589 0.0
C15 C 0.37748 0.85308 0.70001 0.0
C16 C 0.37184 0.88981 0.73252 0.0
C17 C 0.35952 0.90597 0.71301 0.0
C18 C 0.35651 0.89601 0.68715 0.0
C19 C 0.36575 0.86995 0.68075 0.0
N20 N 0.34748 0.91391 0.66644 0.0
C21 C 0.32101 0.91983 0.66595 0.0
H22 H 0.70296 0.34002 0.89468 0.0
H23 H 0.71568 0.38817 0.81707 0.0
H24 H 0.65714 0.30137 0.82844 0.0
C25 C 0.69777 0.34195 0.87393 0.0
C26 C 0.67794 0.31824 0.8637 0.0
C27 C 0.71209 0.36703 0.85716 0.0
C28 C 0.70513 0.36886 0.8302 0.0
C29 C 0.68528 0.34513 0.81993 0.0
C30 C 0.6723 0.31969 0.83657 0.0
N31 N 0.67872 0.34562 0.7927 0.0
C32 C 0.67609 0.37203 0.77804 0.0
H33 H 0.78241 0.73543 0.33802 0.0
H34 H 0.82195 0.72243 0.2642 0.0
H35 H 0.74609 0.6597 0.29202 0.0
C36 C 0.78289 0.72243 0.32064 0.0
C37 C 0.76181 0.69624 0.31758 0.0
C38 C 0.80448 0.73227 0.30139 0.0
C39 C 0.80538 0.71499 0.27914 0.0
C40 C 0.78395 0.68894 0.27573 0.0
C41 C 0.76226 0.68001 0.29476 0.0
N42 N 0.78291 0.67155 0.25309 0.0
C43 C 0.80604 0.66927 0.23805 0.0
H44 H 0.8761 0.84666 0.79451 0.0
H45 H 0.80974 0.84887 0.85065 0.0
H46 H 0.8182 0.90325 0.77647 0.0
C47 C 0.85797 0.85506 0.80004 0.0
C48 C 0.84878 0.87592 0.7824 0.0
C49 C 0.84398 0.84488 0.82467 0.0
C50 C 0.82074 0.85654 0.83183 0.0
C51 C 0.81144 0.87759 0.81428 0.0
C52 C 0.82541 0.88686 0.78973 0.0
N53 N 0.78811 0.89004 0.82017 0.0
C54 C 0.77247 0.88541 0.84389 0.0
H55 H 0.70679 0.156 0.33396 0.0
H56 H 0.73596 0.22356 0.3902 0.0
H57 H 0.66676 0.23153 0.34188 0.0
C58 C 0.70492 0.17648 0.34357 0.0
C59 C 0.68446 0.19232 0.33545 0.0
C60 C 0.7234 0.18729 0.36358 0.0
C61 C 0.72132 0.21433 0.37533 0.0
C62 C 0.70079 0.23001 0.36796 0.0
C63 C 0.68226 0.21898 0.34803 0.0
N64 N 0.70083 0.258 0.37968 0.0
C65 C 0.67715 0.26818 0.38641 0.0
H66 H 0.32182 0.69195 0.17854 0.0
H67 H 0.28393 0.62088 0.23781 0.0
H68 H 0.36248 0.68129 0.25217 0.0
C69 C 0.32238 0.67937 0.19753 0.0
C70 C 0.34494 0.68875 0.21403 0.0
C71 C 0.3 0.65513 0.20594 0.0
C72 C 0.30076 0.64 0.23104 0.0
C73 C 0.3231 0.64901 0.24771 0.0
C74 C 0.34528 0.67368 0.23927 0.0
N75 N 0.32187 0.63302 0.27301 0.0
C76 C 0.34379 0.63504 0.29021 0.0
H77 H 0.18915 0.33972 0.69691 0.0
H78 H 0.18334 0.42852 0.72179 0.0
H79 H 0.10915 0.36149 0.70673 0.0
C80 C 0.17671 0.35557 0.70257 0.0
C81 C 0.14762 0.34678 0.70166 0.0
C82 C 0.18992 0.38519 0.70932 0.0
C83 C 0.17354 0.40543 0.71688 0.0
C84 C 0.1444 0.39675 0.71594 0.0
C85 C 0.13163 0.36777 0.70784 0.0
N86 N 0.12762 0.41759 0.72122 0.0
C87 C 0.12948 0.43278 0.74448 0.0
Zn88 Zn 0.05103 0.03626 0.52507 0.0
Zn89 Zn 0.9812 0.01714 0.47376 0.0
C90 C 0.0577 0.0688 0.57202 0.0
O91 O 0.05846 0.04139 0.58242 0.0
C92 C 0.94627 0.97378 0.44363 0.0
O93 O 0.92755 0.98395 0.4571 0.0
O94 O 0.07986 0.01388 0.5391 0.0
O95 O 0.01122 0.01179 0.52966 0.0
O96 O 0.97099 0.9967 0.51064 0.0
C97 C 0.07646 0.98744 0.55114 0.0
O98 O 0.05127 0.96992 0.55432 0.0
O99 O 0.05411 0.07247 0.54723 0.0
C100 C 0.95334 0.05527 0.44144 0.0
O101 O 0.96772 0.04596 0.42275 0.0
O102 O 0.95654 0.04701 0.46558 0.0
O103 O 0.0218 0.0385 0.46916 0.0
O104 O 0.06248 0.05271 0.48735 0.0
O105 O 0.97192 0.98432 0.44765 0.0
C106 C 0.98597 0.99686 0.53098 0.0
C107 C 0.04747 0.05177 0.46701 0.0
Zn108 Zn 0.52253 0.99335 0.0223 0.0
Zn109 Zn 0.49184 0.03896 0.07702 0.0
C110 C 0.47702 0.97111 0.98756 0.0
O111 O 0.47055 0.94927 0.00672 0.0
C112 C 0.5314 0.08279 0.10574 0.0
O113 O 0.52689 0.10226 0.08664 0.0
O114 O 0.55501 0.97601 0.00987 0.0
O115 O 0.53918 0.03635 0.03217 0.0
O116 O 0.50626 0.06044 0.04157 0.0
C117 C 0.55122 0.95046 0.99911 0.0
O118 O 0.52569 0.93422 0.99718 0.0
O119 O 0.49771 0.99343 0.99029 0.0
C120 C 0.44117 0.04204 0.10636 0.0
O121 O 0.44707 0.01927 0.12113 0.0
O122 O 0.45689 0.05343 0.08629 0.0
O123 O 0.4836 0.99239 0.08079 0.0
O124 O 0.50166 0.96537 0.05235 0.0
O125 O 0.51932 0.05456 0.10529 0.0
C126 C 0.527 0.05812 0.02723 0.0
C127 C 0.487 0.96687 0.07304 0.0
Zn128 Zn 0.51262 0.50906 0.53727 0.0
Zn129 Zn 0.49732 0.55887 0.57412 0.0
C130 C 0.54098 0.55118 0.49746 0.0
O131 O 0.52126 0.53414 0.4842 0.0
C132 C 0.4648 0.52454 0.61687 0.0
O133 O 0.48384 0.54296 0.62982 0.0
O134 O 0.51982 0.47323 0.51761 0.0
O135 O 0.51829 0.50027 0.576 0.0
O136 O 0.5338 0.54861 0.58465 0.0
C137 C 0.53969 0.46095 0.52475 0.0
O138 O 0.55406 0.4709 0.54543 0.0
O139 O 0.54205 0.54527 0.52237 0.0
C140 C 0.46956 0.60397 0.58852 0.0
O141 O 0.45075 0.58605 0.57494 0.0
O142 O 0.49332 0.5976 0.59102 0.0
O143 O 0.4885 0.56529 0.53555 0.0
O144 O 0.4756 0.51663 0.52671 0.0
O145 O 0.46654 0.52597 0.59161 0.0
C146 C 0.53367 0.52032 0.58929 0.0
C147 C 0.47422 0.54447 0.52218 0.0
Zn148 Zn 0.997 0.58773 0.99294 0.0
Zn149 Zn 0.01266 0.53513 0.03001 0.0
C150 C 0.95946 0.55019 0.96123 0.0
O151 O 0.97814 0.56536 0.9435 0.0
C152 C 0.04867 0.56925 0.06467 0.0
O153 O 0.02814 0.55433 0.08068 0.0
O154 O 0.98932 0.62535 0.9726 0.0
O155 O 0.9976 0.59573 0.0317 0.0
O156 O 0.97869 0.54763 0.04439 0.0
C157 C 0.97318 0.64011 0.9832 0.0
O158 O 0.96382 0.63205 0.00772 0.0
O159 O 0.96317 0.55488 0.98567 0.0
C160 C 0.04138 0.49013 0.04627 0.0
O161 O 0.05877 0.50781 0.02875 0.0
O162 O 0.0177 0.49622 0.05036 0.0
O163 O 0.0155 0.5279 0.99126 0.0
O164 O 0.03053 0.57629 0.97658 0.0
O165 O 0.04653 0.56642 0.03981 0.0
C166 C 0.98156 0.57613 0.04749 0.0
C167 C 0.02969 0.54794 0.97447 0.0
H168 H 0.20182 0.18562 0.26548 0.0
H169 H 0.17841 0.16594 0.30823 0.0
H170 H 0.09979 0.14276 0.26943 0.0
H171 H 0.12308 0.16318 0.22671 0.0
H172 H 0.09214 0.16321 0.31639 0.0
H173 H 0.13881 0.08856 0.28463 0.0
H174 H 0.17891 0.07024 0.26756 0.0
H175 H 0.22236 0.09341 0.33924 0.0
H176 H 0.18267 0.11231 0.35658 0.0
H177 H 0.02257 0.05351 0.4187 0.0
H178 H 0.04378 0.07812 0.37631 0.0
H179 H 0.12228 0.10732 0.41413 0.0
H180 H 0.10132 0.08281 0.45643 0.0
H181 H 0.12914 0.08345 0.36737 0.0
H182 H 0.08156 0.15797 0.3989 0.0
H183 H 0.04088 0.17556 0.41553 0.0
H184 H 0.99813 0.15091 0.34378 0.0
H185 H 0.03845 0.13281 0.32686 0.0
C186 C 0.1795 0.1766 0.26615 0.0
C187 C 0.16431 0.17571 0.24274 0.0
C188 C 0.16614 0.16525 0.29056 0.0
C189 C 0.1374 0.15215 0.29202 0.0
C190 C 0.12198 0.1526 0.26885 0.0
C191 C 0.1353 0.16432 0.24444 0.0
C192 C 0.1237 0.1368 0.3174 0.0
C193 C 0.10005 0.14551 0.32735 0.0
C194 C 0.13415 0.11393 0.33199 0.0
C195 C 0.15786 0.1021 0.3218 0.0
C196 C 0.15698 0.0899 0.29669 0.0
C197 C 0.17963 0.07941 0.28697 0.0
C198 C 0.20319 0.08073 0.30228 0.0
C199 C 0.20411 0.09244 0.32739 0.0
C200 C 0.18153 0.10302 0.33718 0.0
C201 C 0.04429 0.06529 0.41803 0.0
C202 C 0.06013 0.0663 0.44106 0.0
C203 C 0.0564 0.07941 0.39378 0.0
C204 C 0.08459 0.09487 0.39206 0.0
C205 C 0.1005 0.09558 0.41494 0.0
C206 C 0.08842 0.08157 0.43916 0.0
C207 C 0.09772 0.11 0.36644 0.0
C208 C 0.12125 0.10116 0.3564 0.0
C209 C 0.08703 0.13256 0.35173 0.0
C210 C 0.06291 0.14376 0.36173 0.0
C211 C 0.06341 0.15611 0.38675 0.0
C212 C 0.04043 0.1662 0.39621 0.0
C213 C 0.01691 0.16427 0.38075 0.0
C214 C 0.01636 0.15235 0.35575 0.0
C215 C 0.03928 0.14221 0.3462 0.0
H216 H 0.99913 0.17206 0.38813 0.0
H217 H 0.22072 0.07262 0.29471 0.0
H218 H 0.3958 0.94853 0.74406 0.0
H219 H 0.41021 0.96706 0.78754 0.0
H220 H 0.37641 0.87665 0.82455 0.0
H221 H 0.36193 0.85798 0.7811 0.0
H222 H 0.36498 0.9251 0.85379 0.0
H223 H 0.44274 0.89585 0.81115 0.0
H224 H 0.47691 0.89732 0.77459 0.0
H225 H 0.50794 0.99405 0.7813 0.0
H226 H 0.47362 0.99324 0.81766 0.0
H227 H 0.43562 0.92335 0.97428 0.0
H228 H 0.41468 0.91484 0.9312 0.0
H229 H 0.464 0.00224 0.89956 0.0
H230 H 0.48571 0.01059 0.94268 0.0
H231 H 0.46648 0.96031 0.86641 0.0
H232 H 0.39205 0.98967 0.9114 0.0
H233 H 0.35758 0.98938 0.94742 0.0
H234 H 0.31978 0.89507 0.93605 0.0
H235 H 0.35427 0.89465 0.90019 0.0
C236 C 0.39098 0.93275 0.76153 0.0
C237 C 0.37779 0.90178 0.75918 0.0
C238 C 0.39938 0.94332 0.78632 0.0
C239 C 0.39457 0.92316 0.80923 0.0
C240 C 0.38033 0.89257 0.80712 0.0
C241 C 0.3722 0.88191 0.7823 0.0
C242 C 0.40576 0.93346 0.83515 0.0
C243 C 0.38717 0.9326 0.85668 0.0
C244 C 0.43466 0.94408 0.83864 0.0
C245 C 0.45541 0.94455 0.81691 0.0
C246 C 0.45669 0.91749 0.80467 0.0
C247 C 0.47611 0.91819 0.78401 0.0
C248 C 0.49453 0.94578 0.77557 0.0
C249 C 0.49362 0.97271 0.78783 0.0
C250 C 0.47419 0.97214 0.80847 0.0
C251 C 0.44184 0.941 0.9583 0.0
C252 C 0.46239 0.96768 0.962 0.0
C253 C 0.42968 0.93615 0.93362 0.0
C254 C 0.43745 0.95804 0.91209 0.0
C255 C 0.45759 0.98502 0.91585 0.0
C256 C 0.46992 0.98982 0.94055 0.0
C257 C 0.42574 0.95176 0.88538 0.0
C258 C 0.44425 0.95325 0.86362 0.0
C259 C 0.39672 0.94195 0.88166 0.0
C260 C 0.37591 0.94207 0.90323 0.0
C261 C 0.37653 0.96879 0.91671 0.0
C262 C 0.35695 0.96877 0.93708 0.0
C263 C 0.33654 0.94221 0.94406 0.0
C264 C 0.33562 0.91563 0.93064 0.0
C265 C 0.35516 0.91552 0.91026 0.0
H266 H 0.3214 0.94224 0.95983 0.0
H267 H 0.50956 0.94628 0.75958 0.0
H268 H 0.64908 0.41439 0.79335 0.0
H269 H 0.62946 0.44928 0.76375 0.0
H270 H 0.66678 0.4178 0.6959 0.0
H271 H 0.68663 0.38332 0.72555 0.0
H272 H 0.66675 0.47878 0.68841 0.0
H273 H 0.60174 0.38331 0.71632 0.0
H274 H 0.57497 0.34428 0.74921 0.0
H275 H 0.5359 0.41189 0.78033 0.0
H276 H 0.56274 0.45143 0.74781 0.0
H277 H 0.53542 0.46162 0.60523 0.0
H278 H 0.56343 0.44434 0.6397 0.0
H279 H 0.59874 0.53835 0.65598 0.0
H280 H 0.5707 0.55606 0.62112 0.0
H281 H 0.56342 0.45178 0.69219 0.0
H282 H 0.66754 0.54012 0.67502 0.0
H283 H 0.69395 0.57491 0.63897 0.0
H284 H 0.65401 0.51485 0.58096 0.0
H285 H 0.62768 0.47953 0.61667 0.0
C286 C 0.65368 0.41571 0.77217 0.0
C287 C 0.66926 0.39647 0.7615 0.0
C288 C 0.64244 0.43549 0.7553 0.0
C289 C 0.64641 0.43586 0.7276 0.0
C290 C 0.66355 0.41797 0.71719 0.0
C291 C 0.67481 0.39827 0.73406 0.0
C292 C 0.63012 0.45174 0.70933 0.0
C293 C 0.64416 0.47321 0.68942 0.0
C294 C 0.60064 0.4441 0.71039 0.0
C295 C 0.58449 0.42037 0.72989 0.0
C296 C 0.5876 0.38989 0.73033 0.0
C297 C 0.5724 0.36768 0.74887 0.0
C298 C 0.55382 0.37562 0.76691 0.0
C299 C 0.55035 0.40579 0.76639 0.0
C300 C 0.56555 0.4281 0.74791 0.0
C301 C 0.54911 0.47874 0.61607 0.0
C302 C 0.55083 0.51026 0.61038 0.0
C303 C 0.56505 0.46877 0.63586 0.0
C304 C 0.58318 0.49004 0.65036 0.0
C305 C 0.585 0.52158 0.64486 0.0
C306 C 0.56893 0.53163 0.625 0.0
C307 C 0.6 0.47871 0.67115 0.0
C308 C 0.58601 0.458 0.69154 0.0
C309 C 0.62946 0.48659 0.67014 0.0
C310 C 0.6454 0.50743 0.64851 0.0
C311 C 0.66446 0.53433 0.65457 0.0
C312 C 0.67941 0.55413 0.6342 0.0
C313 C 0.67558 0.54716 0.60769 0.0
C314 C 0.65687 0.5203 0.6015 0.0
C315 C 0.6419 0.5004 0.62179 0.0
H316 H 0.68715 0.56252 0.59195 0.0
H317 H 0.54206 0.35839 0.78124 0.0
H318 H 0.80768 0.61353 0.22348 0.0
H319 H 0.8419 0.60016 0.19343 0.0
H320 H 0.88648 0.69514 0.18556 0.0
H321 H 0.85168 0.70857 0.21551 0.0
H322 H 0.87871 0.67068 0.13792 0.0
H323 H 0.91307 0.64162 0.22158 0.0
H324 H 0.91004 0.61601 0.26659 0.0
H325 H 0.88324 0.52808 0.23422 0.0
H326 H 0.88574 0.55319 0.18904 0.0
H327 H 0.98892 0.63436 0.06368 0.0
H328 H 0.96273 0.65239 0.09838 0.0
H329 H 0.91333 0.56032 0.11472 0.0
H330 H 0.93991 0.54191 0.08039 0.0
H331 H 0.92735 0.58694 0.15966 0.0
H332 H 0.88953 0.6154 0.0769 0.0
H333 H 0.89045 0.64032 0.03177 0.0
H334 H 0.92207 0.72851 0.06217 0.0
H335 H 0.92182 0.70407 0.10743 0.0
C336 C 0.82498 0.63142 0.21548 0.0
C337 C 0.82739 0.66193 0.22165 0.0
C338 C 0.84455 0.62379 0.19846 0.0
C339 C 0.86696 0.64659 0.18755 0.0
C340 C 0.86941 0.67721 0.19389 0.0
C341 C 0.8497 0.68485 0.21095 0.0
C342 C 0.88688 0.6384 0.16852 0.0
C343 C 0.88983 0.65282 0.14281 0.0
C344 C 0.90077 0.61453 0.17476 0.0
C345 C 0.89942 0.59933 0.20192 0.0
C346 C 0.90635 0.61684 0.22407 0.0
C347 C 0.90476 0.60241 0.24962 0.0
C348 C 0.89641 0.57044 0.25327 0.0
C349 C 0.8897 0.55284 0.23137 0.0
C350 C 0.89124 0.56716 0.20578 0.0
C351 C 0.97252 0.61789 0.07469 0.0
C352 C 0.96633 0.58672 0.06917 0.0
C353 C 0.95752 0.62829 0.09446 0.0
C354 C 0.9358 0.6078 0.10884 0.0
C355 C 0.92999 0.57653 0.1038 0.0
C356 C 0.94514 0.56606 0.08415 0.0
C357 C 0.9189 0.61894 0.12895 0.0
C358 C 0.91651 0.60506 0.15485 0.0
C359 C 0.9054 0.6432 0.12283 0.0
C360 C 0.9059 0.65786 0.09553 0.0
C361 C 0.89694 0.64007 0.07393 0.0
C362 C 0.8973 0.65412 0.04834 0.0
C363 C 0.90628 0.68597 0.04413 0.0
C364 C 0.91509 0.70384 0.06548 0.0
C365 C 0.91486 0.6899 0.0911 0.0
H366 H 0.90633 0.69683 0.02435 0.0
H367 H 0.89517 0.55932 0.27307 0.0
H368 H 0.22241 0.11962 0.19954 0.0
H369 H 0.26095 0.09679 0.18683 0.0
H370 H 0.29947 0.18028 0.14076 0.0
H371 H 0.26143 0.20361 0.15385 0.0
H372 H 0.2978 0.12857 0.11315 0.0
H373 H 0.32556 0.16375 0.19909 0.0
H374 H 0.31895 0.16805 0.24717 0.0
H375 H 0.30722 0.07033 0.26089 0.0
H376 H 0.3134 0.06539 0.21281 0.0
H377 H 0.42966 0.09633 0.08733 0.0
H378 H 0.39134 0.11892 0.10094 0.0
H379 H 0.35988 0.03999 0.15532 0.0
H380 H 0.39876 0.0178 0.14245 0.0
H381 H 0.35725 0.08899 0.17884 0.0
H382 H 0.32896 0.05264 0.09398 0.0
H383 H 0.33365 0.04672 0.04593 0.0
H384 H 0.34412 0.14402 0.03 0.0
H385 H 0.33984 0.15057 0.07801 0.0
C386 C 0.23928 0.13336 0.18705 0.0
C387 C 0.23873 0.16352 0.17774 0.0
C388 C 0.26125 0.12018 0.1797 0.0
C389 C 0.28314 0.13686 0.1629 0.0
C390 C 0.28273 0.16694 0.15362 0.0
C391 C 0.26088 0.18019 0.16107 0.0
C392 C 0.30632 0.12284 0.15466 0.0
C393 C 0.31105 0.12025 0.12747 0.0
C394 C 0.32307 0.11122 0.17339 0.0
C395 C 0.31968 0.11418 0.20233 0.0
C396 C 0.32138 0.14315 0.21234 0.0
C397 C 0.31774 0.14571 0.23959 0.0
C398 C 0.31259 0.11947 0.25707 0.0
C399 C 0.31117 0.09063 0.24733 0.0
C400 C 0.31477 0.08794 0.22008 0.0
C401 C 0.4145 0.08368 0.10208 0.0
C402 C 0.41723 0.05519 0.11373 0.0
C403 C 0.39249 0.09659 0.10979 0.0
C404 C 0.37237 0.081 0.12892 0.0
C405 C 0.37507 0.05251 0.14053 0.0
C406 C 0.39728 0.03978 0.13308 0.0
C407 C 0.34886 0.09465 0.1372 0.0
C408 C 0.34403 0.09721 0.16444 0.0
C409 C 0.33181 0.10598 0.1185 0.0
C410 C 0.33434 0.10212 0.08961 0.0
C411 C 0.33247 0.0728 0.08025 0.0
C412 C 0.33502 0.06933 0.05302 0.0
C413 C 0.33925 0.09499 0.03493 0.0
C414 C 0.34087 0.12417 0.04404 0.0
C415 C 0.33836 0.12777 0.07125 0.0
H416 H 0.34122 0.09226 0.01386 0.0
H417 H 0.30976 0.12149 0.27816 0.0
H418 H 0.31159 0.97337 0.64604 0.0
H419 H 0.26733 0.98285 0.63036 0.0
H420 H 0.22603 0.89001 0.65683 0.0
H421 H 0.27069 0.88043 0.67201 0.0
H422 H 0.21178 0.90292 0.60796 0.0
H423 H 0.21467 0.95285 0.68901 0.0
H424 H 0.23505 0.98773 0.72306 0.0
H425 H 0.24404 0.06506 0.66626 0.0
H426 H 0.22404 0.0306 0.63174 0.0
H427 H 0.07761 0.93296 0.57887 0.0
H428 H 0.11714 0.91932 0.60165 0.0
H429 H 0.16919 0.00719 0.57484 0.0
H430 H 0.12997 0.02103 0.55219 0.0
H431 H 0.17486 0.99378 0.62758 0.0
H432 H 0.1752 0.94285 0.54601 0.0
H433 H 0.15468 0.90779 0.51211 0.0
H434 H 0.13902 0.83189 0.57089 0.0
H435 H 0.15914 0.8666 0.60523 0.0
C436 C 0.29289 0.95527 0.64898 0.0
C437 C 0.29423 0.92637 0.66046 0.0
C438 C 0.26761 0.96066 0.64006 0.0
C439 C 0.24318 0.93726 0.64266 0.0
C440 C 0.24453 0.90845 0.65468 0.0
C441 C 0.26991 0.90304 0.66352 0.0
C442 C 0.21678 0.94244 0.63131 0.0
C443 C 0.2034 0.92245 0.61269 0.0
C444 C 0.20607 0.96824 0.63701 0.0
C445 C 0.21804 0.98909 0.65773 0.0
C446 C 0.22117 0.97727 0.68372 0.0
C447 C 0.23263 0.99697 0.70312 0.0
C448 C 0.24089 0.02859 0.69682 0.0
C449 C 0.23765 0.04057 0.67111 0.0
C450 C 0.22621 0.02096 0.65163 0.0
C451 C 0.09752 0.94929 0.57766 0.0
C452 C 0.10059 0.97807 0.56365 0.0
C453 C 0.1201 0.94145 0.59068 0.0
C454 C 0.14616 0.96222 0.58991 0.0
C455 C 0.14928 0.99084 0.57579 0.0
C456 C 0.12682 0.99864 0.56272 0.0
C457 C 0.17019 0.95452 0.60405 0.0
C458 C 0.1831 0.97406 0.62315 0.0
C459 C 0.1804 0.92827 0.59886 0.0
C460 C 0.16838 0.90738 0.57824 0.0
C461 C 0.16717 0.91873 0.55175 0.0
C462 C 0.15565 0.89891 0.53245 0.0
C463 C 0.14547 0.86765 0.53936 0.0
C464 C 0.14687 0.85612 0.56558 0.0
C465 C 0.15834 0.87585 0.58496 0.0
H466 H 0.13657 0.85234 0.52439 0.0
H467 H 0.24975 0.0438 0.71186 0.0
H468 H 0.71537 0.39361 0.90499 0.0
H469 H 0.7565 0.42582 0.92362 0.0
H470 H 0.80347 0.42376 0.8511 0.0
H471 H 0.76276 0.39088 0.83269 0.0
H472 H 0.83115 0.40996 0.89351 0.0
H473 H 0.78352 0.48858 0.867 0.0
H474 H 0.74429 0.51434 0.86452 0.0
H475 H 0.74424 0.52012 0.94921 0.0
H476 H 0.78325 0.49398 0.95224 0.0
H477 H 0.9499 0.52813 0.91234 0.0
H478 H 0.90673 0.49712 0.89654 0.0
H479 H 0.86753 0.4955 0.97385 0.0
H480 H 0.91088 0.5266 0.98995 0.0
H481 H 0.83532 0.51055 0.93133 0.0
H482 H 0.88453 0.43284 0.95693 0.0
H483 H 0.92476 0.40858 0.95816 0.0
H484 H 0.92246 0.40243 0.87354 0.0
H485 H 0.88244 0.42706 0.87175 0.0
C486 C 0.73442 0.40018 0.89297 0.0
C487 C 0.73579 0.38965 0.86736 0.0
C488 C 0.75785 0.41877 0.90356 0.0
C489 C 0.78305 0.42726 0.88872 0.0
C490 C 0.78424 0.41747 0.8629 0.0
C491 C 0.76086 0.39893 0.8523 0.0
C492 C 0.8086 0.4449 0.90056 0.0
C493 C 0.83213 0.43213 0.90148 0.0
C494 C 0.80966 0.47344 0.91161 0.0
C495 C 0.7861 0.48899 0.90988 0.0
C496 C 0.77497 0.49506 0.88513 0.0
C497 C 0.75281 0.50979 0.88361 0.0
C498 C 0.74172 0.51877 0.9067 0.0
C499 C 0.75282 0.5131 0.93135 0.0
C500 C 0.77496 0.49834 0.93297 0.0
C501 C 0.93217 0.52104 0.92608 0.0
C502 C 0.9338 0.52975 0.95242 0.0
C503 C 0.90754 0.50327 0.91701 0.0
C504 C 0.88401 0.49394 0.93407 0.0
C505 C 0.88551 0.5025 0.96041 0.0
C506 C 0.9103 0.52007 0.9696 0.0
C507 C 0.85779 0.47566 0.92404 0.0
C508 C 0.83419 0.48829 0.92348 0.0
C509 C 0.85667 0.44707 0.91316 0.0
C510 C 0.88063 0.43205 0.91419 0.0
C511 C 0.89274 0.42654 0.93855 0.0
C512 C 0.91547 0.41267 0.93936 0.0
C513 C 0.9262 0.40403 0.91594 0.0
C514 C 0.91414 0.40916 0.89167 0.0
C515 C 0.89141 0.42304 0.89075 0.0
H516 H 0.94381 0.39331 0.9166 0.0
H517 H 0.72458 0.5302 0.90549 0.0
H518 H 0.76724 0.69259 0.37147 0.0
H519 H 0.73043 0.67457 0.40562 0.0
H520 H 0.66942 0.65746 0.3447 0.0
H521 H 0.706 0.67627 0.31048 0.0
H522 H 0.65171 0.6856 0.38579 0.0
H523 H 0.69318 0.59907 0.37436 0.0
H524 H 0.73185 0.57248 0.373 0.0
H525 H 0.74919 0.591 0.45432 0.0
H526 H 0.71082 0.61806 0.45605 0.0
H527 H 0.5399 0.57461 0.44652 0.0
H528 H 0.57821 0.60765 0.42029 0.0
H529 H 0.62971 0.6144 0.48906 0.0
H530 H 0.59138 0.58086 0.51548 0.0
H531 H 0.65489 0.59638 0.44811 0.0
H532 H 0.61093 0.67927 0.46081 0.0
H533 H 0.57429 0.70874 0.46157 0.0
H534 H 0.56169 0.69761 0.37836 0.0
H535 H 0.59828 0.66808 0.37709 0.0
C536 C 0.74593 0.68531 0.36537 0.0
C537 C 0.73949 0.68575 0.3383 0.0
C538 C 0.72499 0.6748 0.38488 0.0
C539 C 0.69728 0.66443 0.37764 0.0
C540 C 0.69071 0.66533 0.35067 0.0
C541 C 0.71164 0.67581 0.33116 0.0
C542 C 0.67508 0.65219 0.39809 0.0
C543 C 0.65222 0.66592 0.3993 0.0
C544 C 0.67632 0.6272 0.41624 0.0
C545 C 0.69935 0.61089 0.41523 0.0
C546 C 0.70539 0.5977 0.39188 0.0
C547 C 0.72722 0.58249 0.39106 0.0
C548 C 0.74303 0.58013 0.41354 0.0
C549 C 0.73697 0.59289 0.43691 0.0
C550 C 0.71517 0.60815 0.43783 0.0
C551 C 0.55924 0.58347 0.4562 0.0
C552 C 0.56279 0.57481 0.48296 0.0
C553 C 0.58106 0.60264 0.44122 0.0
C554 C 0.60681 0.6136 0.45272 0.0
C555 C 0.60998 0.6062 0.47981 0.0
C556 C 0.58808 0.58709 0.49488 0.0
C557 C 0.63114 0.62949 0.43565 0.0
C558 C 0.65445 0.61636 0.43494 0.0
C559 C 0.63027 0.65501 0.41794 0.0
C560 C 0.60726 0.67134 0.4189 0.0
C561 C 0.60015 0.68283 0.44274 0.0
C562 C 0.5795 0.69971 0.44322 0.0
C563 C 0.56575 0.70514 0.42 0.0
C564 C 0.57244 0.69349 0.3963 0.0
C565 C 0.59319 0.67677 0.39567 0.0
H566 H 0.54987 0.71834 0.42037 0.0
H567 H 0.75992 0.56835 0.41286 0.0
H568 H 0.17966 0.30316 0.1292 0.0
H569 H 0.15653 0.34515 0.1189 0.0
H570 H 0.08285 0.29455 0.1627 0.0
H571 H 0.10604 0.2519 0.17235 0.0
H572 H 0.06856 0.31572 0.1172 0.0
H573 H 0.1252 0.36195 0.18514 0.0
H574 H 0.16768 0.37916 0.21034 0.0
H575 H 0.20567 0.43806 0.14312 0.0
H576 H 0.16361 0.42087 0.11734 0.0
H577 H 0.0118 0.44892 0.08498 0.0
H578 H 0.028 0.40836 0.11094 0.0
H579 H 0.10733 0.43424 0.06862 0.0
H580 H 0.09151 0.47453 0.04287 0.0
H581 H 0.11335 0.42599 0.12208 0.0
H582 H 0.0584 0.37203 0.05301 0.0
H583 H 0.01529 0.35496 0.02862 0.0
H584 H 0.97309 0.31124 0.10074 0.0
H585 H 0.01589 0.32842 0.12563 0.0
C586 C 0.15872 0.30134 0.13706 0.0
C587 C 0.14462 0.27467 0.15174 0.0
C588 C 0.14552 0.32539 0.13128 0.0
C589 C 0.11802 0.32338 0.14036 0.0
C590 C 0.1041 0.29678 0.1556 0.0
C591 C 0.11734 0.27254 0.16124 0.0
C592 C 0.10339 0.34801 0.13194 0.0
C593 C 0.07806 0.33981 0.11891 0.0
C594 C 0.11578 0.37957 0.13384 0.0
C595 C 0.14125 0.38992 0.14923 0.0
C596 C 0.14268 0.37838 0.17564 0.0
C597 C 0.16669 0.38818 0.19004 0.0
C598 C 0.18938 0.40965 0.17832 0.0
C599 C 0.18809 0.42142 0.15217 0.0
C600 C 0.16415 0.41168 0.13766 0.0
C601 C 0.03264 0.44586 0.08117 0.0
C602 C 0.05029 0.4649 0.06175 0.0
C603 C 0.04187 0.42269 0.09602 0.0
C604 C 0.06888 0.41822 0.09167 0.0
C605 C 0.08646 0.43729 0.07238 0.0
C606 C 0.07728 0.46026 0.05755 0.0
C607 C 0.07914 0.39359 0.10678 0.0
C608 C 0.10362 0.40185 0.12102 0.0
C609 C 0.06587 0.36217 0.1062 0.0
C610 C 0.04021 0.35183 0.09122 0.0
C611 C 0.03985 0.359 0.0637 0.0
C612 C 0.0155 0.34926 0.04978 0.0
C613 C 0.99144 0.33212 0.06314 0.0
C614 C 0.99172 0.32459 0.09043 0.0
C615 C 0.01602 0.33431 0.10445 0.0
H616 H 0.9726 0.32459 0.05233 0.0
H617 H 0.20794 0.41721 0.18952 0.0
H618 H 0.6749 0.25773 0.85732 0.0
H619 H 0.64902 0.21358 0.88521 0.0
H620 H 0.62086 0.27492 0.93659 0.0
H621 H 0.64795 0.31912 0.90933 0.0
H622 H 0.63185 0.23082 0.9657 0.0
H623 H 0.57871 0.23472 0.88789 0.0
H624 H 0.5697 0.23708 0.83993 0.0
H625 H 0.59225 0.15059 0.83307 0.0
H626 H 0.60178 0.14791 0.88095 0.0
H627 H 0.5193 0.11688 0.0254 0.0
H628 H 0.54433 0.16103 0.99703 0.0
H629 H 0.59041 0.10327 0.95923 0.0
H630 H 0.56567 0.0589 0.98774 0.0
H631 H 0.56879 0.14549 0.92367 0.0
H632 H 0.62144 0.14404 0.00409 0.0
H633 H 0.62569 0.14252 0.0528 0.0
H634 H 0.59837 0.22692 0.05499 0.0
H635 H 0.59352 0.22868 0.00631 0.0
C636 C 0.66324 0.26166 0.87465 0.0
C637 C 0.66321 0.29167 0.88119 0.0
C638 C 0.64832 0.23649 0.89048 0.0
C639 C 0.63239 0.24084 0.91269 0.0
C640 C 0.63287 0.27092 0.91953 0.0
C641 C 0.6483 0.29613 0.90399 0.0
C642 C 0.61524 0.21405 0.92871 0.0
C643 C 0.61782 0.21242 0.95645 0.0
C644 C 0.59699 0.18978 0.91677 0.0
C645 C 0.59122 0.19126 0.88797 0.0
C646 C 0.58194 0.21631 0.87612 0.0
C647 C 0.57671 0.21769 0.84895 0.0
C648 C 0.58047 0.19404 0.83345 0.0
C649 C 0.58939 0.16891 0.8451 0.0
C650 C 0.59469 0.16744 0.87226 0.0
C651 C 0.53459 0.11347 0.01092 0.0
C652 C 0.54068 0.08444 0.00892 0.0
C653 C 0.5489 0.13874 0.9948 0.0
C654 C 0.56931 0.13536 0.97625 0.0
C655 C 0.57474 0.10626 0.97351 0.0
C656 C 0.5607 0.08102 0.98986 0.0
C657 C 0.58567 0.16242 0.96033 0.0
C658 C 0.58287 0.16403 0.93271 0.0
C659 C 0.60321 0.18695 0.97242 0.0
C660 C 0.60687 0.18633 0.00159 0.0
C661 C 0.61617 0.16217 0.01498 0.0
C662 C 0.6187 0.16128 0.04258 0.0
C663 C 0.61223 0.18456 0.057 0.0
C664 C 0.60334 0.20888 0.04381 0.0
C665 C 0.60072 0.20985 0.01621 0.0
H666 H 0.61414 0.18378 0.07837 0.0
H667 H 0.5764 0.19515 0.81242 0.0
H668 H 0.86141 0.74142 0.29935 0.0
H669 H 0.89501 0.7864 0.31375 0.0
H670 H 0.82786 0.83176 0.32687 0.0
H671 H 0.79468 0.78753 0.31197 0.0
H672 H 0.87315 0.8727 0.30947 0.0
H673 H 0.85 0.78745 0.37658 0.0
H674 H 0.84744 0.73421 0.39415 0.0
H675 H 0.93615 0.74805 0.38419 0.0
H676 H 0.93915 0.8013 0.3662 0.0
H677 H 0.8948 0.95681 0.42302 0.0
H678 H 0.87974 0.91933 0.39008 0.0
H679 H 0.96233 0.90225 0.38552 0.0
H680 H 0.9777 0.93998 0.4186 0.0
H681 H 0.92033 0.84891 0.39174 0.0
H682 H 0.94157 0.941 0.33552 0.0
H683 H 0.94061 0.99444 0.32143 0.0
H684 H 0.85206 0.96823 0.31331 0.0
H685 H 0.85232 0.9148 0.32806 0.0
C686 C 0.85407 0.7614 0.3046 0.0
C687 C 0.82548 0.76092 0.305 0.0
C688 C 0.87319 0.78696 0.31296 0.0
C689 C 0.86386 0.81221 0.32186 0.0
C690 C 0.83557 0.81257 0.32019 0.0
C691 C 0.81658 0.78719 0.31187 0.0
C692 C 0.88246 0.83678 0.33571 0.0
C693 C 0.88359 0.86756 0.32738 0.0
C694 C 0.89653 0.83006 0.35884 0.0
C695 C 0.89476 0.79815 0.36972 0.0
C696 C 0.86892 0.77905 0.37796 0.0
C697 C 0.86739 0.74889 0.38801 0.0
C698 C 0.89161 0.73771 0.3902 0.0
C699 C 0.91741 0.75671 0.38241 0.0
C700 C 0.91903 0.78687 0.37228 0.0
C701 C 0.90982 0.94515 0.41501 0.0
C702 C 0.93743 0.95127 0.42346 0.0
C703 C 0.90122 0.9239 0.39603 0.0
C704 C 0.92002 0.9083 0.38516 0.0
C705 C 0.94758 0.91423 0.39359 0.0
C706 C 0.95631 0.93576 0.41244 0.0
C707 C 0.91021 0.88476 0.36597 0.0
C708 C 0.91068 0.85418 0.37336 0.0
C709 C 0.8972 0.89169 0.34227 0.0
C710 C 0.89697 0.92383 0.33306 0.0
C711 C 0.92185 0.94664 0.33095 0.0
C712 C 0.92142 0.97697 0.32285 0.0
C713 C 0.89628 0.98474 0.31654 0.0
C714 C 0.87152 0.96218 0.31822 0.0
C715 C 0.8718 0.93187 0.32648 0.0
H716 H 0.89598 0.00823 0.31031 0.0
H717 H 0.89039 0.71437 0.39799 0.0
H718 H 0.35144 0.80694 0.67003 0.0
H719 H 0.36946 0.76407 0.65503 0.0
H720 H 0.44454 0.79445 0.69801 0.0
H721 H 0.42684 0.83792 0.71262 0.0
H722 H 0.45599 0.78099 0.64792 0.0
H723 H 0.39679 0.73124 0.72089 0.0
H724 H 0.3535 0.71633 0.74839 0.0
H725 H 0.31052 0.67149 0.68324 0.0
H726 H 0.35345 0.68653 0.65519 0.0
H727 H 0.5016 0.64369 0.62127 0.0
H728 H 0.48829 0.68553 0.64376 0.0
H729 H 0.40814 0.6651 0.6075 0.0
H730 H 0.42104 0.62325 0.58537 0.0
H731 H 0.40237 0.67291 0.65904 0.0
H732 H 0.46003 0.72683 0.58502 0.0
H733 H 0.50294 0.74223 0.55699 0.0
H734 H 0.54849 0.7793 0.6239 0.0
H735 H 0.5059 0.76374 0.65243 0.0
C736 C 0.37178 0.80448 0.67633 0.0
C737 C 0.38771 0.82582 0.69252 0.0
C738 C 0.38197 0.77983 0.66791 0.0
C739 C 0.40825 0.77587 0.67559 0.0
C740 C 0.42416 0.797 0.69192 0.0
C741 C 0.41392 0.82166 0.70044 0.0
C742 C 0.41937 0.75026 0.66571 0.0
C743 C 0.44454 0.75727 0.65078 0.0
C744 C 0.4042 0.71938 0.66904 0.0
C745 C 0.37832 0.71023 0.68587 0.0
C746 C 0.37806 0.71841 0.71235 0.0
C747 C 0.35359 0.7099 0.72805 0.0
C748 C 0.32927 0.69302 0.71756 0.0
C749 C 0.32938 0.68458 0.69134 0.0
C750 C 0.35378 0.69306 0.67554 0.0
C751 C 0.48119 0.64823 0.61802 0.0
C752 C 0.4624 0.63013 0.6015 0.0
C753 C 0.47364 0.67218 0.63084 0.0
C754 C 0.44724 0.67856 0.62723 0.0
C755 C 0.42856 0.66056 0.61068 0.0
C756 C 0.43605 0.63667 0.59795 0.0
C757 C 0.43868 0.7037 0.64077 0.0
C758 C 0.41398 0.69658 0.65643 0.0
C759 C 0.45426 0.73446 0.63805 0.0
C760 C 0.47986 0.74379 0.62093 0.0
C761 C 0.47925 0.73802 0.59381 0.0
C762 C 0.5035 0.74683 0.57782 0.0
C763 C 0.52845 0.76164 0.58868 0.0
C764 C 0.52917 0.76776 0.61553 0.0
C765 C 0.50498 0.75897 0.63162 0.0
H766 H 0.5472 0.76845 0.57626 0.0
H767 H 0.31035 0.68645 0.72975 0.0
H768 H 0.90504 0.89416 0.77239 0.0
H769 H 0.92935 0.9125 0.72974 0.0
H770 H 0.85058 0.90035 0.69109 0.0
H771 H 0.82615 0.88154 0.73362 0.0
H772 H 0.88939 0.879 0.66231 0.0
H773 H 0.88425 0.97051 0.70544 0.0
H774 H 0.89098 0.0052 0.74209 0.0
H775 H 0.97927 0.01264 0.73668 0.0
H776 H 0.97302 0.9776 0.70023 0.0
H777 H 0.9316 0.96753 0.54149 0.0
H778 H 0.90981 0.94523 0.58404 0.0
H779 H 0.98919 0.96905 0.6214 0.0
H780 H 0.011 0.99256 0.57897 0.0
H781 H 0.9513 0.98315 0.6515 0.0
H782 H 0.95703 0.89292 0.60751 0.0
H783 H 0.95051 0.85761 0.57131 0.0
H784 H 0.86191 0.84688 0.57855 0.0
H785 H 0.86791 0.88244 0.61458 0.0
C786 C 0.89291 0.89512 0.75477 0.0
C787 C 0.86365 0.8865 0.75641 0.0
C788 C 0.90682 0.90581 0.73044 0.0
C789 C 0.89177 0.90807 0.70725 0.0
C790 C 0.86261 0.89888 0.70873 0.0
C791 C 0.84867 0.88836 0.73307 0.0
C792 C 0.9064 0.92041 0.68153 0.0
C793 C 0.90271 0.90189 0.65982 0.0
C794 C 0.92432 0.94997 0.67849 0.0
C795 C 0.92813 0.97118 0.7003 0.0
C796 C 0.90508 0.97934 0.71221 0.0
C797 C 0.90881 0.9991 0.73292 0.0
C798 C 0.93553 0.01105 0.74176 0.0
C799 C 0.95858 0.00333 0.72984 0.0
C800 C 0.95496 0.98353 0.70915 0.0
C801 C 0.94454 0.96789 0.55868 0.0
C802 C 0.97316 0.98172 0.55668 0.0
C803 C 0.93202 0.95491 0.58305 0.0
C804 C 0.94787 0.95493 0.60596 0.0
C805 C 0.97649 0.9686 0.60403 0.0
C806 C 0.98899 0.9819 0.57968 0.0
C807 C 0.93436 0.94176 0.63208 0.0
C808 C 0.93817 0.96016 0.65391 0.0
C809 C 0.91664 0.912 0.63524 0.0
C810 C 0.91295 0.89057 0.61359 0.0
C811 C 0.93617 0.88321 0.60125 0.0
C812 C 0.93256 0.86312 0.58078 0.0
C813 C 0.90581 0.85007 0.57259 0.0
C814 C 0.88261 0.85703 0.5849 0.0
C815 C 0.88611 0.87712 0.60536 0.0
H816 H 0.90307 0.83452 0.55674 0.0
H817 H 0.93838 0.02635 0.75779 0.0
H818 H 0.65564 0.13399 0.32761 0.0
H819 H 0.62948 0.11597 0.28863 0.0
H820 H 0.64776 0.20856 0.25273 0.0
H821 H 0.67332 0.22676 0.29204 0.0
H822 H 0.59663 0.18196 0.24297 0.0
H823 H 0.68424 0.15336 0.23508 0.0
H824 H 0.72235 0.12936 0.24972 0.0
H825 H 0.66586 0.04084 0.25666 0.0
H826 H 0.6273 0.06439 0.24242 0.0
H827 H 0.56201 0.14097 0.11175 0.0
H828 H 0.58834 0.15997 0.15032 0.0
H829 H 0.56616 0.06927 0.18989 0.0
H830 H 0.54014 0.04998 0.15124 0.0
H831 H 0.6199 0.09565 0.19705 0.0
H832 H 0.53217 0.1257 0.20501 0.0
H833 H 0.49493 0.15067 0.18957 0.0
H834 H 0.55334 0.23789 0.18118 0.0
H835 H 0.59101 0.21335 0.19624 0.0
C836 C 0.65394 0.1505 0.31144 0.0
C837 C 0.66663 0.18176 0.31282 0.0
C838 C 0.6391 0.14017 0.2891 0.0
C839 C 0.63712 0.16077 0.2674 0.0
C840 C 0.64903 0.19217 0.26913 0.0
C841 C 0.66358 0.20257 0.29163 0.0
C842 C 0.62299 0.14955 0.2428 0.0
C843 C 0.60202 0.16336 0.23276 0.0
C844 C 0.62963 0.12495 0.22957 0.0
C845 C 0.65283 0.11069 0.23792 0.0
C846 C 0.67991 0.12881 0.2399 0.0
C847 C 0.70159 0.11528 0.24811 0.0
C848 C 0.69651 0.08361 0.25418 0.0
C849 C 0.66975 0.06538 0.25198 0.0
C850 C 0.64798 0.0788 0.24382 0.0
C851 C 0.5628 0.12501 0.12861 0.0
C852 C 0.54877 0.09397 0.12846 0.0
C853 C 0.57779 0.13595 0.15071 0.0
C854 C 0.57887 0.11617 0.17322 0.0
C855 C 0.56556 0.085 0.17281 0.0
C856 C 0.55064 0.07401 0.15068 0.0
C857 C 0.59351 0.12797 0.19736 0.0
C858 C 0.61459 0.11428 0.20728 0.0
C859 C 0.58712 0.15283 0.21034 0.0
C860 C 0.56444 0.16764 0.20151 0.0
C861 C 0.5371 0.15016 0.1997 0.0
C862 C 0.51592 0.16425 0.19105 0.0
C863 C 0.52178 0.19583 0.18434 0.0
C864 C 0.54883 0.21342 0.18635 0.0
C865 C 0.5701 0.19945 0.19496 0.0
H866 H 0.50535 0.20669 0.17763 0.0
H867 H 0.71333 0.07318 0.26054 0.0
H868 H 0.37587 0.594 0.2931 0.0
H869 H 0.40141 0.58111 0.33195 0.0
H870 H 0.37928 0.65472 0.3726 0.0
H871 H 0.35382 0.66767 0.33358 0.0
H872 H 0.43358 0.6478 0.38314 0.0
H873 H 0.33993 0.5859 0.38342 0.0
H874 H 0.30012 0.55096 0.36446 0.0
H875 H 0.3489 0.48336 0.35741 0.0
H876 H 0.38914 0.51811 0.376 0.0
H877 H 0.45322 0.5955 0.51456 0.0
H878 H 0.43172 0.61233 0.47468 0.0
H879 H 0.44167 0.53131 0.43694 0.0
H880 H 0.46159 0.51351 0.47739 0.0
H881 H 0.3944 0.54305 0.42435 0.0
H882 H 0.48843 0.60511 0.42509 0.0
H883 H 0.52641 0.63874 0.44771 0.0
H884 H 0.47665 0.7055 0.45409 0.0
H885 H 0.43827 0.67215 0.43175 0.0
C886 C 0.37721 0.6079 0.31008 0.0
C887 C 0.36319 0.63183 0.31058 0.0
C888 C 0.39161 0.60047 0.33225 0.0
C889 C 0.3919 0.61673 0.35523 0.0
C890 C 0.37931 0.64194 0.35504 0.0
C891 C 0.36484 0.64933 0.33283 0.0
C892 C 0.40295 0.6056 0.38017 0.0
C893 C 0.42496 0.62498 0.39226 0.0
C894 C 0.39183 0.57571 0.39189 0.0
C895 C 0.36762 0.55473 0.38083 0.0
C896 C 0.34223 0.56369 0.37762 0.0
C897 C 0.31958 0.5439 0.36698 0.0
C898 C 0.322 0.51499 0.35966 0.0
C899 C 0.34706 0.50578 0.36305 0.0
C900 C 0.3698 0.5255 0.37365 0.0
C901 C 0.45054 0.58116 0.49783 0.0
C902 C 0.45926 0.55334 0.49896 0.0
C903 C 0.43847 0.5909 0.47497 0.0
C904 C 0.43583 0.57355 0.45248 0.0
C905 C 0.44366 0.54521 0.45395 0.0
C906 C 0.45506 0.53506 0.47706 0.0
C907 C 0.42533 0.58506 0.42729 0.0
C908 C 0.4033 0.56577 0.41515 0.0
C909 C 0.43653 0.61497 0.41551 0.0
C910 C 0.46041 0.63603 0.42696 0.0
C911 C 0.48563 0.62701 0.43125 0.0
C912 C 0.50718 0.64596 0.44411 0.0
C913 C 0.50379 0.67408 0.45257 0.0
C914 C 0.47914 0.68363 0.44766 0.0
C915 C 0.45752 0.66476 0.43484 0.0
H916 H 0.52027 0.68852 0.46291 0.0
H917 H 0.30444 0.4997 0.35143 0.0
H918 H 0.11486 0.40253 0.79181 0.0
H919 H 0.10297 0.42455 0.8326 0.0
H920 H 0.12551 0.51536 0.79316 0.0
H921 H 0.13752 0.49321 0.75229 0.0
H922 H 0.14122 0.5133 0.84707 0.0
H923 H 0.06053 0.48049 0.79473 0.0
H924 H 0.02733 0.44395 0.76961 0.0
H925 H 0.00693 0.38292 0.83972 0.0
H926 H 0.04037 0.41889 0.86516 0.0
H927 H 0.05927 0.58341 0.9327 0.0
H928 H 0.08118 0.56569 0.89456 0.0
H929 H 0.05447 0.47206 0.92713 0.0
H930 H 0.03241 0.4894 0.96502 0.0
H931 H 0.0419 0.47745 0.87592 0.0
H932 H 0.12195 0.5098 0.92867 0.0
H933 H 0.15508 0.5459 0.9542 0.0
H934 H 0.17657 0.60731 0.88444 0.0
H935 H 0.14323 0.57176 0.85856 0.0
C936 C 0.11785 0.42724 0.79215 0.0
C937 C 0.12703 0.44635 0.76925 0.0
C938 C 0.111 0.43976 0.81533 0.0
C939 C 0.11307 0.47153 0.81574 0.0
C940 C 0.1238 0.49081 0.7932 0.0
C941 C 0.13061 0.47822 0.76996 0.0
C942 C 0.10167 0.4841 0.83882 0.0
C943 C 0.11945 0.50579 0.85326 0.0
C944 C 0.07335 0.47389 0.84702 0.0
C945 C 0.05318 0.45224 0.83177 0.0
C946 C 0.04915 0.45915 0.80473 0.0
C947 C 0.03026 0.43856 0.79044 0.0
C948 C 0.01509 0.41109 0.80304 0.0
C949 C 0.01874 0.40418 0.82997 0.0
C950 C 0.03765 0.42467 0.84434 0.0
C951 C 0.05821 0.55907 0.9318 0.0
C952 C 0.04399 0.53781 0.95184 0.0
C953 C 0.07085 0.54901 0.91007 0.0
C954 C 0.06956 0.51757 0.90811 0.0
C955 C 0.05567 0.49641 0.92824 0.0
C956 C 0.04307 0.5064 0.9499 0.0
C957 C 0.0815 0.50638 0.88455 0.0
C958 C 0.06371 0.48501 0.86985 0.0
C959 C 0.10978 0.51686 0.87624 0.0
C960 C 0.12986 0.53827 0.89174 0.0
C961 C 0.13355 0.53113 0.91882 0.0
C962 C 0.1524 0.55147 0.93335 0.0
C963 C 0.16786 0.57892 0.92097 0.0
C964 C 0.16455 0.58606 0.89401 0.0
C965 C 0.14569 0.56581 0.8794 0.0
H966 H 0.18246 0.59464 0.93225 0.0
H967 H 1.00046 0.39519 0.79195 0.0
H968 H 0.72269 0.84619 0.8533 0.0
H969 H 0.6858 0.85244 0.88435 0.0
H970 H 0.74089 0.93223 0.91291 0.0
H971 H 0.77786 0.92564 0.88208 0.0
H972 H 0.70787 0.89909 0.95332 0.0
H973 H 0.69565 0.94031 0.86505 0.0
H974 H 0.69036 0.93892 0.81656 0.0
H975 H 0.61644 0.86703 0.82855 0.0
H976 H 0.62152 0.86771 0.87715 0.0
H977 H 0.60688 0.97811 0.99938 0.0
H978 H 0.64543 0.96241 0.97714 0.0
H979 H 0.588 0.88386 0.94947 0.0
H980 H 0.54939 0.89945 0.97146 0.0
H981 H 0.62194 0.91418 0.90978 0.0
H982 H 0.63273 0.87529 0.99859 0.0
H983 H 0.63799 0.87767 0.04701 0.0
H984 H 0.71426 0.94598 0.03422 0.0
H985 H 0.70926 0.94434 0.98568 0.0
C986 C 0.72707 0.86449 0.86679 0.0
C987 C 0.75299 0.88532 0.86561 0.0
C988 C 0.70597 0.86822 0.88434 0.0
C989 C 0.71041 0.89312 0.90069 0.0
C990 C 0.73695 0.91288 0.90052 0.0
C991 C 0.75806 0.90909 0.88298 0.0
C992 C 0.68689 0.90003 0.91625 0.0
C993 C 0.68917 0.90263 0.94379 0.0
C994 C 0.66227 0.90423 0.90391 0.0
C995 C 0.65915 0.90383 0.87471 0.0
C996 C 0.6784 0.92404 0.85734 0.0
C997 C 0.67542 0.9234 0.82984 0.0
C998 C 0.65313 0.90283 0.81948 0.0
C999 C 0.63373 0.88291 0.8366 0.0
C1000 C 0.63664 0.88342 0.86412 0.0
C1001 C 0.60247 0.95734 0.98877 0.0
C1002 C 0.575 0.94007 0.9872 0.0
C1003 C 0.62457 0.94832 0.97614 0.0
C1004 C 0.61967 0.92182 0.96174 0.0
C1005 C 0.59232 0.90437 0.96045 0.0
C1006 C 0.57025 0.9133 0.97312 0.0
C1007 C 0.64279 0.91311 0.94692 0.0
C1008 C 0.6405 0.91036 0.91942 0.0
C1009 C 0.66737 0.90888 0.95932 0.0
C1010 C 0.67047 0.9099 0.98849 0.0
C1011 C 0.65051 0.89101 0.00609 0.0
C1012 C 0.65346 0.89219 0.03356 0.0
C1013 C 0.6764 0.91202 0.04368 0.0
C1014 C 0.69648 0.93066 0.02635 0.0
C1015 C 0.69361 0.92959 0.99885 0.0
H1016 H 0.67866 0.9129 0.06496 0.0
H1017 H 0.65085 0.90239 0.79818 0.0
H1018 H 0.73834 0.17371 0.41406 0.0
H1019 H 0.77687 0.1507 0.42768 0.0
H1020 H 0.79733 0.14183 0.34546 0.0
H1021 H 0.75852 0.16457 0.33172 0.0
H1022 H 0.80214 0.09181 0.37535 0.0
H1023 H 0.83392 0.20095 0.38027 0.0
H1024 H 0.83176 0.25216 0.39437 0.0
H1025 H 0.83382 0.22008 0.47619 0.0
H1026 H 0.83561 0.16853 0.46259 0.0
H1027 H 0.93919 0.07245 0.39159 0.0
H1028 H 0.9 0.09482 0.37919 0.0
H1029 H 0.87781 0.09712 0.46199 0.0
H1030 H 0.91716 0.07478 0.47467 0.0
H1031 H 0.87373 0.14993 0.43245 0.0
H1032 H 0.84248 0.04119 0.42774 0.0
H1033 H 0.84577 0.99021 0.41392 0.0
H1034 H 0.84331 0.02158 0.33197 0.0
H1035 H 0.84043 0.07294 0.3453 0.0
C1036 C 0.75103 0.16682 0.39888 0.0
C1037 C 0.74554 0.1712 0.3718 0.0
C1038 C 0.77307 0.15369 0.40668 0.0
C1039 C 0.79037 0.14505 0.38758 0.0
C1040 C 0.78434 0.14839 0.36056 0.0
C1041 C 0.76212 0.16133 0.35273 0.0
C1042 C 0.81512 0.1333 0.39577 0.0
C1043 C 0.81795 0.10472 0.38754 0.0
C1044 C 0.83551 0.14978 0.4122 0.0
C1045 C 0.83463 0.18081 0.42042 0.0
C1046 C 0.83372 0.20476 0.40128 0.0
C1047 C 0.83259 0.23386 0.40918 0.0
C1048 C 0.83259 0.23935 0.43616 0.0
C1049 C 0.83379 0.21578 0.4553 0.0
C1050 C 0.83489 0.18663 0.4475 0.0
C1051 C 0.92617 0.07794 0.40723 0.0
C1052 C 0.93123 0.07163 0.43415 0.0
C1053 C 0.90368 0.09062 0.40007 0.0
C1054 C 0.88574 0.09719 0.41966 0.0
C1055 C 0.89135 0.0921 0.44656 0.0
C1056 C 0.91383 0.07931 0.45376 0.0
C1057 C 0.86073 0.10859 0.41195 0.0
C1058 C 0.85787 0.13706 0.42027 0.0
C1059 C 0.84033 0.09202 0.39563 0.0
C1060 C 0.84147 0.06099 0.38751 0.0
C1061 C 0.8428 0.03728 0.40676 0.0
C1062 C 0.84458 0.00831 0.39902 0.0
C1063 C 0.84479 0.00267 0.37209 0.0
C1064 C 0.84316 0.02598 0.35283 0.0
C1065 C 0.84142 0.05503 0.36046 0.0
H1066 H 0.84613 0.98021 0.36619 0.0
H1067 H 0.83171 0.26189 0.44223 0.0
H1068 H 0.29909 0.65276 0.15161 0.0
H1069 H 0.2582 0.64035 0.124 0.0
H1070 H 0.20463 0.62467 0.19425 0.0
H1071 H 0.24509 0.63814 0.22194 0.0
H1072 H 0.19171 0.57819 0.15751 0.0
H1073 H 0.21144 0.68902 0.15973 0.0
H1074 H 0.24228 0.74068 0.15338 0.0
H1075 H 0.25232 0.72825 0.07033 0.0
H1076 H 0.22194 0.67624 0.0763 0.0
H1077 H 0.0588 0.57955 0.11654 0.0
H1078 H 0.10388 0.59682 0.13639 0.0
H1079 H 0.1441 0.61053 0.05863 0.0
H1080 H 0.0988 0.59316 0.03839 0.0
H1081 H 0.16686 0.65669 0.09434 0.0
H1082 H 0.14608 0.54786 0.09049 0.0
H1083 H 0.117 0.49527 0.09589 0.0
H1084 H 0.11074 0.50261 0.18016 0.0
H1085 H 0.13955 0.55548 0.17523 0.0
C1086 C 0.2786 0.64694 0.1612 0.0
C1087 C 0.27541 0.64645 0.18903 0.0
C1088 C 0.25532 0.63969 0.14539 0.0
C1089 C 0.2285 0.63167 0.15715 0.0
C1090 C 0.22522 0.63064 0.18487 0.0
C1091 C 0.24842 0.63818 0.20065 0.0
C1092 C 0.20363 0.62479 0.14068 0.0
C1093 C 0.18616 0.59538 0.14384 0.0
C1094 C 0.197 0.64703 0.12226 0.0
C1095 C 0.21466 0.6786 0.11852 0.0
C1096 C 0.22038 0.69721 0.14015 0.0
C1097 C 0.23777 0.72656 0.13662 0.0
C1098 C 0.24932 0.73771 0.11148 0.0
C1099 C 0.2434 0.71957 0.0898 0.0
C1100 C 0.22609 0.69015 0.09324 0.0
C1101 C 0.07712 0.58668 0.10355 0.0
C1102 C 0.07528 0.58461 0.07591 0.0
C1103 C 0.10287 0.59651 0.11495 0.0
C1104 C 0.12728 0.60441 0.09898 0.0
C1105 C 0.12544 0.60438 0.07125 0.0
C1106 C 0.09957 0.59445 0.05976 0.0
C1107 C 0.15462 0.61029 0.11168 0.0
C1108 C 0.17257 0.63941 0.10781 0.0
C1109 C 0.16191 0.58768 0.12929 0.0
C1110 C 0.14478 0.55577 0.13245 0.0
C1111 C 0.13833 0.53836 0.11016 0.0
C1112 C 0.12192 0.50848 0.11313 0.0
C1113 C 0.11192 0.49563 0.13833 0.0
C1114 C 0.11846 0.51261 0.16063 0.0
C1115 C 0.13487 0.54253 0.15777 0.0
H1116 H 0.09914 0.47253 0.14059 0.0
H1117 H 0.26281 0.76042 0.1088 0.0
H1118 H 0.22731 0.41836 0.74241 0.0
H1119 H 0.27753 0.43808 0.73397 0.0
H1120 H 0.27119 0.39656 0.65863 0.0
H1121 H 0.22151 0.37663 0.66708 0.0
H1122 H 0.31684 0.38914 0.68162 0.0
H1123 H 0.27157 0.47374 0.66452 0.0
H1124 H 0.24276 0.50972 0.67632 0.0
H1125 H 0.29849 0.54176 0.73834 0.0
H1126 H 0.32743 0.50565 0.7271 0.0
H1127 H 0.42318 0.48137 0.59694 0.0
H1128 H 0.38009 0.45341 0.61994 0.0
H1129 H 0.40711 0.49634 0.69217 0.0
H1130 H 0.4503 0.52436 0.66937 0.0
H1131 H 0.35453 0.50178 0.67868 0.0
H1132 H 0.40401 0.42201 0.68952 0.0
H1133 H 0.43273 0.38694 0.67545 0.0
H1134 H 0.36908 0.34649 0.62296 0.0
H1135 H 0.34013 0.38164 0.63641 0.0
C1136 C 0.23676 0.41335 0.72416 0.0
C1137 C 0.22053 0.39588 0.70546 0.0
C1138 C 0.2654 0.4246 0.71935 0.0
C1139 C 0.27809 0.419 0.69555 0.0
C1140 C 0.26195 0.401 0.67721 0.0
C1141 C 0.23351 0.38958 0.68209 0.0
C1142 C 0.30782 0.43293 0.68879 0.0
C1143 C 0.32507 0.41378 0.68091 0.0
C1144 C 0.3188 0.46501 0.68849 0.0
C1145 C 0.30145 0.48674 0.6952 0.0
C1146 C 0.27755 0.48829 0.6808 0.0
C1147 C 0.26122 0.50873 0.68737 0.0
C1148 C 0.26873 0.52794 0.70813 0.0
C1149 C 0.29265 0.52681 0.72231 0.0
C1150 C 0.30902 0.50637 0.71585 0.0
C1151 C 0.42014 0.48455 0.61781 0.0
C1152 C 0.44011 0.50516 0.6313 0.0
C1153 C 0.39556 0.46846 0.63095 0.0
C1154 C 0.39049 0.47273 0.65779 0.0
C1155 C 0.41067 0.49271 0.67148 0.0
C1156 C 0.43536 0.50862 0.65841 0.0
C1157 C 0.36325 0.45806 0.67084 0.0
C1158 C 0.34649 0.47708 0.67989 0.0
C1159 C 0.35266 0.42592 0.67194 0.0
C1160 C 0.36997 0.40463 0.66385 0.0
C1161 C 0.39621 0.4058 0.67482 0.0
C1162 C 0.41253 0.38587 0.66698 0.0
C1163 C 0.40276 0.36453 0.64829 0.0
C1164 C 0.37663 0.36304 0.63744 0.0
C1165 C 0.36024 0.38293 0.64519 0.0
H1166 H 0.41542 0.34913 0.64225 0.0
H1167 H 0.25607 0.54375 0.71317 0.0
H1168 H 0.84897 0.84412 0.87896 0.0
H1169 H 0.86915 0.80899 0.90748 0.0
H1170 H 0.88299 0.76005 0.8393 0.0
H1171 H 0.86177 0.79409 0.811 0.0
H1172 H 0.86648 0.72065 0.88013 0.0
H1173 H 0.93555 0.81501 0.86494 0.0
H1174 H 0.95425 0.87093 0.86489 0.0
H1175 H 0.94155 0.86673 0.94962 0.0
H1176 H 0.92241 0.81082 0.95012 0.0
H1177 H 0.97181 0.64843 0.92902 0.0
H1178 H 0.9489 0.68357 0.90341 0.0
H1179 H 0.92678 0.71963 0.97603 0.0
H1180 H 0.94954 0.68447 0.00175 0.0
H1181 H 0.94649 0.76527 0.93477 0.0
H1182 H 0.87925 0.66943 0.94928 0.0
H1183 H 0.86239 0.61335 0.94834 0.0
H1184 H 0.87349 0.62026 0.86337 0.0
H1185 H 0.89087 0.67638 0.86384 0.0
C1186 C 0.85586 0.82556 0.87013 0.0
C1187 C 0.85408 0.82222 0.84261 0.0
C1188 C 0.86767 0.80567 0.88642 0.0
C1189 C 0.87815 0.78221 0.87547 0.0
C1190 C 0.87528 0.77806 0.84822 0.0
C1191 C 0.86337 0.79778 0.832 0.0
C1192 C 0.89288 0.76255 0.89208 0.0
C1193 C 0.88413 0.73046 0.89186 0.0
C1194 C 0.91569 0.77522 0.90776 0.0
C1195 C 0.92727 0.8088 0.90753 0.0
C1196 C 0.93655 0.82606 0.88354 0.0
C1197 C 0.94726 0.85774 0.88343 0.0
C1198 C 0.94901 0.87239 0.90723 0.0
C1199 C 0.94013 0.85536 0.9312 0.0
C1200 C 0.92937 0.82368 0.93141 0.0
C1201 C 0.96241 0.66414 0.9395 0.0
C1202 C 0.96231 0.6636 0.96741 0.0
C1203 C 0.94918 0.68405 0.92487 0.0
C1204 C 0.93586 0.70393 0.93787 0.0
C1205 C 0.93682 0.70438 0.96564 0.0
C1206 C 0.94974 0.68423 0.98028 0.0
C1207 C 0.92017 0.72355 0.9226 0.0
C1208 C 0.92876 0.75555 0.92309 0.0
C1209 C 0.89738 0.7108 0.907 0.0
C1210 C 0.88663 0.67709 0.90662 0.0
C1211 C 0.87831 0.65898 0.93041 0.0
C1212 C 0.86863 0.62718 0.92996 0.0
C1213 C 0.86694 0.61324 0.90581 0.0
C1214 C 0.87485 0.63109 0.88206 0.0
C1215 C 0.8846 0.6629 0.8824 0.0
H1216 H 0.85944 0.58861 0.90551 0.0
H1217 H 0.95731 0.89692 0.90711 0.0
H1218 H 0.35716 0.74433 0.23515 0.0
H1219 H 0.38571 0.79222 0.21396 0.0
H1220 H 0.40953 0.74183 0.15069 0.0
H1221 H 0.38051 0.6941 0.17153 0.0
H1222 H 0.45376 0.79162 0.1685 0.0
H1223 H 0.35968 0.77005 0.13813 0.0
H1224 H 0.30856 0.75693 0.1441 0.0
H1225 H 0.31196 0.83915 0.18474 0.0
H1226 H 0.36322 0.85245 0.17943 0.0
H1227 H 0.48963 0.90792 0.06353 0.0
H1228 H 0.46885 0.86079 0.09035 0.0
H1229 H 0.43452 0.91332 0.14561 0.0
H1230 H 0.45497 0.96053 0.11884 0.0
H1231 H 0.39661 0.86274 0.13365 0.0
H1232 H 0.49138 0.88587 0.16111 0.0
H1233 H 0.54243 0.89822 0.15452 0.0
H1234 H 0.53788 0.81285 0.11853 0.0
H1235 H 0.48674 0.80017 0.12458 0.0
C1236 C 0.36922 0.74346 0.21718 0.0
C1237 C 0.36689 0.71574 0.20493 0.0
C1238 C 0.38535 0.77073 0.20505 0.0
C1239 C 0.39953 0.77046 0.18072 0.0
C1240 C 0.39881 0.74242 0.16951 0.0
C1241 C 0.38231 0.71526 0.18138 0.0
C1242 C 0.41245 0.79961 0.16551 0.0
C1243 C 0.44133 0.80713 0.1607 0.0
C1244 C 0.39613 0.81985 0.15563 0.0
C1245 C 0.36531 0.81204 0.15869 0.0
C1246 C 0.34955 0.78517 0.14859 0.0
C1247 C 0.32055 0.77773 0.1518 0.0
C1248 C 0.30703 0.79715 0.16486 0.0
C1249 C 0.32248 0.82409 0.17467 0.0
C1250 C 0.35151 0.8316 0.17157 0.0
C1251 C 0.47767 0.90952 0.08138 0.0
C1252 C 0.47408 0.93812 0.08904 0.0
C1253 C 0.4659 0.88253 0.09676 0.0
C1254 C 0.45043 0.88359 0.12016 0.0
C1255 C 0.44645 0.91199 0.12766 0.0
C1256 C 0.45822 0.93899 0.11232 0.0
C1257 C 0.4381 0.85504 0.13666 0.0
C1258 C 0.40919 0.84748 0.14162 0.0
C1259 C 0.45443 0.83475 0.14657 0.0
C1260 C 0.4852 0.8422 0.14308 0.0
C1261 C 0.50124 0.86983 0.15161 0.0
C1262 C 0.5302 0.87687 0.148 0.0
C1263 C 0.54339 0.85636 0.13605 0.0
C1264 C 0.52764 0.82872 0.12776 0.0
C1265 C 0.49867 0.82158 0.1313 0.0
H1266 H 0.56581 0.86186 0.13327 0.0
H1267 H 0.28457 0.79137 0.1673 0.0
H1268 H 0.15606 0.29097 0.71945 0.0
H1269 H 0.13683 0.24114 0.70177 0.0
H1270 H 0.09077 0.28464 0.64501 0.0
H1271 H 0.10931 0.33428 0.66323 0.0
H1272 H 0.06025 0.231 0.6625 0.0
H1273 H 0.1542 0.26826 0.62867 0.0
H1274 H 0.20486 0.2879 0.63172 0.0
H1275 H 0.21123 0.20483 0.67602 0.0
H1276 H 0.1605 0.1849 0.67359 0.0
H1277 H 0.04869 0.12602 0.55975 0.0
H1278 H 0.06016 0.17085 0.58634 0.0
H1279 H 0.09062 0.11679 0.64791 0.0
H1280 H 0.07893 0.07174 0.62164 0.0
H1281 H 0.12799 0.17327 0.63066 0.0
H1282 H 0.03296 0.13508 0.66056 0.0
H1283 H 0.98255 0.11642 0.65492 0.0
H1284 H 0.97874 0.20257 0.61449 0.0
H1285 H 0.02924 0.2216 0.61954 0.0
C1286 C 0.14163 0.28974 0.70336 0.0
C1287 C 0.13426 0.31637 0.69255 0.0
C1288 C 0.13072 0.26135 0.69324 0.0
C1289 C 0.11278 0.25927 0.67172 0.0
C1290 C 0.10458 0.2857 0.6616 0.0
C1291 C 0.11517 0.31402 0.67198 0.0
C1292 C 0.10364 0.22994 0.65888 0.0
C1293 C 0.07508 0.21852 0.65536 0.0
C1294 C 0.12297 0.21339 0.64988 0.0
C1295 C 0.15351 0.22524 0.6512 0.0
C1296 C 0.16637 0.25428 0.63923 0.0
C1297 C 0.1951 0.26545 0.64083 0.0
C1298 C 0.21125 0.24766 0.65412 0.0
C1299 C 0.1987 0.21861 0.66578 0.0
C1300 C 0.16996 0.20736 0.66429 0.0
C1301 C 0.0576 0.12361 0.57905 0.0
C1302 C 0.06296 0.0954 0.58861 0.0
C1303 C 0.06404 0.14918 0.59422 0.0
C1304 C 0.07613 0.14698 0.61906 0.0
C1305 C 0.08125 0.11882 0.62878 0.0
C1306 C 0.07448 0.09314 0.61379 0.0
C1307 C 0.08471 0.17453 0.63424 0.0
C1308 C 0.11319 0.18564 0.63808 0.0
C1309 C 0.06535 0.19097 0.64315 0.0
C1310 C 0.03494 0.17966 0.64022 0.0
C1311 C 0.02143 0.14996 0.65027 0.0
C1312 C 0.99282 0.13933 0.64722 0.0
C1313 C 0.97746 0.15827 0.6343 0.0
C1314 C 0.99067 0.18791 0.62447 0.0
C1315 C 0.01928 0.19864 0.62744 0.0
H1316 H 0.95532 0.15 0.63196 0.0
H1317 H 0.23349 0.25635 0.65534 0.0
H1318 H 0.66879 0.27314 0.43816 0.0
H1319 H 0.63814 0.30173 0.45864 0.0
H1320 H 0.60826 0.32327 0.38133 0.0
H1321 H 0.6398 0.29512 0.36074 0.0
H1322 H 0.62029 0.37303 0.4076 0.0
H1323 H 0.56601 0.27238 0.42869 0.0
H1324 H 0.55616 0.21783 0.4449 0.0
H1325 H 0.58107 0.24353 0.52304 0.0
H1326 H 0.59147 0.29824 0.50724 0.0
H1327 H 0.52468 0.44553 0.47431 0.0
H1328 H 0.54133 0.40876 0.44773 0.0
H1329 H 0.58986 0.38618 0.51329 0.0
H1330 H 0.57355 0.4229 0.53983 0.0
H1331 H 0.56113 0.33448 0.48848 0.0
H1332 H 0.62087 0.43473 0.46458 0.0
H1333 H 0.63023 0.48914 0.44795 0.0
H1334 H 0.59303 0.46303 0.37396 0.0
H1335 H 0.58309 0.40845 0.39032 0.0
C1336 C 0.65526 0.28352 0.42565 0.0
C1337 C 0.65625 0.28179 0.39803 0.0
C1338 C 0.63767 0.29977 0.43734 0.0
C1339 C 0.62046 0.31432 0.42163 0.0
C1340 C 0.62118 0.31211 0.3939 0.0
C1341 C 0.639 0.29593 0.38216 0.0
C1342 C 0.60334 0.33343 0.43422 0.0
C1343 C 0.60682 0.36433 0.4249 0.0
C1344 C 0.58601 0.32235 0.45705 0.0
C1345 C 0.57967 0.28944 0.46672 0.0
C1346 C 0.56957 0.2664 0.44929 0.0
C1347 C 0.56386 0.23545 0.45842 0.0
C1348 C 0.56802 0.22722 0.48497 0.0
C1349 C 0.57786 0.24994 0.50248 0.0
C1350 C 0.58362 0.28094 0.49345 0.0
C1351 C 0.53869 0.43251 0.48314 0.0
C1352 C 0.54788 0.4372 0.50916 0.0
C1353 C 0.54825 0.4116 0.4679 0.0
C1354 C 0.56695 0.39487 0.4785 0.0
C1355 C 0.57542 0.39882 0.50473 0.0
C1356 C 0.56615 0.41992 0.51984 0.0
C1357 C 0.57864 0.37399 0.46216 0.0
C1358 C 0.57415 0.34285 0.47084 0.0
C1359 C 0.59485 0.38478 0.43865 0.0
C1360 C 0.60092 0.41755 0.4288 0.0
C1361 C 0.61446 0.44061 0.44486 0.0
C1362 C 0.61992 0.47148 0.43546 0.0
C1363 C 0.61214 0.47954 0.40995 0.0
C1364 C 0.59898 0.45675 0.39374 0.0
C1365 C 0.59344 0.42585 0.40306 0.0
H1366 H 0.61639 0.50345 0.40271 0.0
H1367 H 0.5636 0.20324 0.49199 0.0
loop_
_geom_bond_atom_site_label_1
_geom_bond_atom_site_label_2
_geom_bond_distance
_geom_bond_site_symmetry_2
_ccdc_geom_bond_type
H0 C3 0.929 . S
H1 C6 0.929 . S
H2 C8 0.930 . S
C3 H0 0.929 . S
C3 C4 1.398 . S
C3 C5 1.396 . S
C4 C3 1.398 . S
C4 C8 1.407 . S
C5 C3 1.396 . S
C5 C6 1.394 . S
C6 H1 0.929 . S
C6 C5 1.394 . S
C6 C7 1.382 . S
C7 C6 1.382 . S
C7 C8 1.392 . S
C7 N9 1.420 . S
C8 H2 0.930 . S
C8 C4 1.407 . S
C8 C7 1.392 . S
N9 C7 1.420 . S
N9 C10 1.244 . S
C10 N9 1.244 . S
H11 C14 0.929 . S
H12 C17 0.929 . S
H13 C19 0.930 . S
C14 H11 0.929 . S
C14 C15 1.398 . S
C14 C16 1.396 . S
C15 C14 1.398 . S
C15 C19 1.407 . S
C16 C14 1.396 . S
C16 C17 1.394 . S
C17 H12 0.929 . S
C17 C16 1.394 . S
C17 C18 1.382 . S
C18 C17 1.382 . S
C18 C19 1.392 . S
C18 N20 1.420 . S
C19 H13 0.930 . S
C19 C15 1.407 . S
C19 C18 1.392 . S
N20 C18 1.420 . S
N20 C21 1.244 . S
C21 N20 1.244 . S
H22 C25 0.929 . S
H23 C28 0.929 . S
H24 C30 0.930 . S
C25 H22 0.929 . S
C25 C26 1.398 . S
C25 C27 1.396 . S
C26 C25 1.398 . S
C26 C30 1.407 . S
C27 C25 1.396 . S
C27 C28 1.394 . S
C28 H23 0.929 . S
C28 C27 1.394 . S
C28 C29 1.382 . S
C29 C28 1.382 . S
C29 C30 1.392 . S
C29 N31 1.420 . S
C30 H24 0.930 . S
C30 C26 1.407 . S
C30 C29 1.392 . S
N31 C29 1.420 . S
N31 C32 1.244 . S
C32 N31 1.244 . S
H33 C36 0.929 . S
H34 C39 0.929 . S
H35 C41 0.930 . S
C36 H33 0.929 . S
C36 C37 1.398 . S
C36 C38 1.396 . S
C37 C36 1.398 . S
C37 C41 1.407 . S
C38 C36 1.396 . S
C38 C39 1.394 . S
C39 H34 0.929 . S
C39 C38 1.394 . S
C39 C40 1.382 . S
C40 C39 1.382 . S
C40 C41 1.392 . S
C40 N42 1.420 . S
C41 H35 0.930 . S
C41 C37 1.407 . S
C41 C40 1.392 . S
N42 C40 1.420 . S
N42 C43 1.244 . S
C43 N42 1.244 . S
H44 C47 0.929 . S
H45 C50 0.929 . S
H46 C52 0.930 . S
C47 H44 0.929 . S
C47 C48 1.398 . S
C47 C49 1.396 . S
C48 C47 1.398 . S
C48 C52 1.407 . S
C49 C47 1.396 . S
C49 C50 1.394 . S
C50 H45 0.929 . S
C50 C49 1.394 . S
C50 C51 1.382 . S
C51 C50 1.382 . S
C51 C52 1.392 . S
C51 N53 1.420 . S
C52 H46 0.930 . S
C52 C48 1.407 . S
C52 C51 1.392 . S
N53 C51 1.420 . S
N53 C54 1.244 . S
C54 N53 1.244 . S
H55 C58 0.929 . S
H56 C61 0.929 . S
H57 C63 0.930 . S
C58 H55 0.929 . S
C58 C59 1.398 . S
C58 C60 1.396 . S
C59 C58 1.398 . S
C59 C63 1.407 . S
C60 C58 1.396 . S
C60 C61 1.394 . S
C61 H56 0.929 . S
C61 C60 1.394 . S
C61 C62 1.382 . S
C62 C61 1.382 . S
C62 C63 1.392 . S
C62 N64 1.420 . S
C63 H57 0.930 . S
C63 C59 1.407 . S
C63 C62 1.392 . S
N64 C62 1.420 . S
N64 C65 1.244 . S
C65 N64 1.244 . S
H66 C69 0.929 . S
H67 C72 0.929 . S
H68 C74 0.930 . S
C69 H66 0.929 . S
C69 C70 1.398 . S
C69 C71 1.396 . S
C70 C69 1.398 . S
C70 C74 1.407 . S
C71 C69 1.396 . S
C71 C72 1.394 . S
C72 H67 0.929 . S
C72 C71 1.394 . S
C72 C73 1.382 . S
C73 C72 1.382 . S
C73 C74 1.392 . S
C73 N75 1.420 . S
C74 H68 0.930 . S
C74 C70 1.407 . S
C74 C73 1.392 . S
N75 C73 1.420 . S
N75 C76 1.244 . S
C76 N75 1.244 . S
H77 C80 0.929 . S
H78 C83 0.929 . S
H79 C85 0.930 . S
C80 H77 0.929 . S
C80 C81 1.398 . S
C80 C82 1.396 . S
C81 C80 1.398 . S
C81 C85 1.407 . S
C82 C80 1.396 . S
C82 C83 1.394 . S
C83 H78 0.929 . S
C83 C82 1.394 . S
C83 C84 1.382 . S
C84 C83 1.382 . S
C84 C85 1.392 . S
C84 N86 1.420 . S
C85 H79 0.930 . S
C85 C81 1.407 . S
C85 C84 1.392 . S
N86 C84 1.420 . S
N86 C87 1.244 . S
C87 N86 1.244 . S
Zn88 O94 1.969 . S
Zn88 O95 1.965 1_545 S
Zn88 O99 2.024 . S
Zn88 O104 1.969 . S
Zn89 O96 1.969 1_545 S
Zn89 O102 1.969 . S
Zn89 O103 1.965 1_655 S
Zn89 O105 2.024 1_545 S
C90 O91 1.229 . S
C90 O99 1.058 . S
O91 C90 1.229 . S
C92 O93 1.229 . S
C92 O105 1.058 . S
O93 C92 1.229 . S
O94 Zn88 1.969 . S
O94 C97 1.267 1_545 S
O95 Zn88 1.965 1_565 S
O95 C106 1.260 1_455 S
O96 Zn89 1.969 1_565 S
O96 C106 1.258 . S
C97 O94 1.267 1_565 S
C97 O98 1.223 1_565 S
O98 C97 1.223 1_545 S
O99 Zn88 2.024 . S
O99 C90 1.058 . S
C100 O101 1.228 . S
C100 O102 1.267 . S
O101 C100 1.228 . S
O102 Zn89 1.969 . S
O102 C100 1.267 . S
O103 Zn89 1.965 1_455 S
O103 C107 1.260 . S
O104 Zn88 1.969 . S
O104 C107 1.258 . S
O105 Zn89 2.024 1_565 S
O105 C92 1.058 . S
C106 O95 1.260 1_655 S
C106 O96 1.258 . S
C107 O103 1.260 . S
C107 O104 1.258 . S
Zn108 O114 1.969 . S
Zn108 O115 1.965 1_565 S
Zn108 O119 2.024 1_554 S
Zn108 O124 1.969 . S
Zn109 O116 1.969 . S
Zn109 O122 1.969 . S
Zn109 O123 1.965 . S
Zn109 O125 2.024 . S
C110 O111 1.229 . S
C110 O119 1.058 . S
O111 C110 1.229 . S
C112 O113 1.229 . S
C112 O125 1.058 . S
O113 C112 1.229 . S
O114 Zn108 1.969 . S
O114 C117 1.267 1_554 S
O115 Zn108 1.965 1_545 S
O115 C126 1.260 . S
O116 Zn109 1.969 . S
O116 C126 1.258 . S
C117 O114 1.267 1_556 S
C117 O118 1.228 . S
O118 C117 1.228 . S
O119 Zn108 2.024 1_556 S
O119 C110 1.058 . S
C120 O121 1.228 . S
C120 O122 1.267 . S
O121 C120 1.228 . S
O122 Zn109 1.969 . S
O122 C120 1.267 . S
O123 Zn109 1.965 . S
O123 C127 1.260 1_545 S
O124 Zn108 1.969 . S
O124 C127 1.258 . S
O125 Zn109 2.024 . S
O125 C112 1.058 . S
C126 O115 1.260 . S
C126 O116 1.258 . S
C127 O123 1.260 1_565 S
C127 O124 1.258 . S
Zn128 O134 1.969 . S
Zn128 O135 1.965 . S
Zn128 O139 2.024 . S
Zn128 O144 1.969 . S
Zn129 O136 1.969 . S
Zn129 O142 1.969 . S
Zn129 O143 1.965 . S
Zn129 O145 2.024 . S
C130 O131 1.229 . S
C130 O139 1.058 . S
O131 C130 1.229 . S
C132 O133 1.229 . S
C132 O145 1.058 . S
O133 C132 1.229 . S
O134 Zn128 1.969 . S
O134 C137 1.267 . S
O135 Zn128 1.965 . S
O135 C146 1.260 . S
O136 Zn129 1.969 . S
O136 C146 1.258 . S
C137 O134 1.267 . S
C137 O138 1.228 . S
O138 C137 1.228 . S
O139 Zn128 2.024 . S
O139 C130 1.058 . S
C140 O141 1.228 . S
C140 O142 1.267 . S
O141 C140 1.228 . S
O142 Zn129 1.969 . S
O142 C140 1.267 . S
O143 Zn129 1.965 . S
O143 C147 1.260 . S
O144 Zn128 1.969 . S
O144 C147 1.258 . S
O145 Zn129 2.024 . S
O145 C132 1.058 . S
C146 O135 1.260 . S
C146 O136 1.258 . S
C147 O143 1.260 . S
C147 O144 1.258 . S
Zn148 O154 1.969 . S
Zn148 O155 1.960 1_656 S
Zn148 O159 2.024 . S
Zn148 O164 1.969 1_655 S
Zn149 O156 1.969 . S
Zn149 O162 1.969 . S
Zn149 O163 1.959 1_554 S
Zn149 O165 2.024 . S
C150 O151 1.229 . S
C150 O159 1.058 . S
O151 C150 1.229 . S
C152 O153 1.229 . S
C152 O165 1.058 . S
O153 C152 1.229 . S
O154 Zn148 1.969 . S
O154 C157 1.267 . S
O155 Zn148 1.960 1_454 S
O155 C166 1.260 1_455 S
O156 Zn149 1.969 . S
O156 C166 1.258 1_455 S
C157 O154 1.267 . S
C157 O158 1.228 . S
O158 C157 1.228 . S
O159 Zn148 2.024 . S
O159 C150 1.058 . S
C160 O161 1.228 . S
C160 O162 1.267 . S
O161 C160 1.228 . S
O162 Zn149 1.969 . S
O162 C160 1.267 . S
O163 Zn149 1.959 1_556 S
O163 C167 1.266 . S
O164 Zn148 1.969 1_455 S
O164 C167 1.258 . S
O165 Zn149 2.024 . S
O165 C152 1.058 . S
C166 O155 1.260 1_655 S
C166 O156 1.258 1_655 S
C167 O163 1.266 . S
C167 O164 1.258 . S
H168 C186 0.951 . S
H169 C188 0.951 . S
H170 C190 0.950 . S
H171 C191 0.950 . S
H172 C193 0.950 . S
H173 C196 0.950 . S
H174 C197 0.950 . S
H175 C199 0.950 . S
H176 C200 0.950 . S
H177 C201 0.951 . S
H178 C203 0.951 . S
H179 C205 0.950 . S
H180 C206 0.950 . S
H181 C208 0.950 . S
H182 C211 0.950 . S
H183 C212 0.950 . S
H184 C214 0.950 . S
H185 C215 0.950 . S
C186 H168 0.951 . S
C186 C187 1.366 . S
C186 C188 1.388 . S
C187 C186 1.366 . S
C187 C191 1.385 . S
C188 H169 0.951 . S
C188 C186 1.388 . S
C188 C189 1.366 . S
C189 C188 1.366 . S
C189 C190 1.414 . S
C189 C192 1.499 . S
C190 H170 0.950 . S
C190 C189 1.414 . S
C190 C191 1.374 . S
C191 H171 0.950 . S
C191 C187 1.385 . S
C191 C190 1.374 . S
C192 C189 1.499 . S
C192 C193 1.373 . S
C192 C194 1.389 . S
C193 H172 0.950 . S
C193 C192 1.373 . S
C193 C209 1.377 . S
C194 C192 1.389 . S
C194 C195 1.524 . S
C194 C208 1.377 . S
C195 C194 1.524 . S
C195 C196 1.397 . S
C195 C200 1.363 . S
C196 H173 0.950 . S
C196 C195 1.397 . S
C196 C197 1.334 . S
C197 H174 0.950 . S
C197 C196 1.334 . S
C197 C198 1.287 . S
C198 C197 1.287 . S
C198 C199 1.524 . S
C198 H217 0.913 . S
C199 H175 0.950 . S
C199 C198 1.524 . S
C199 C200 1.415 . S
C200 H176 0.950 . S
C200 C195 1.363 . S
C200 C199 1.415 . S
C201 H177 0.951 . S
C201 C202 1.366 . S
C201 C203 1.388 . S
C202 C201 1.366 . S
C202 C206 1.385 . S
C203 H178 0.951 . S
C203 C201 1.388 . S
C203 C204 1.366 . S
C204 C203 1.366 . S
C204 C205 1.414 . S
C204 C207 1.499 . S
C205 H179 0.950 . S
C205 C204 1.414 . S
C205 C206 1.374 . S
C206 H180 0.950 . S
C206 C202 1.385 . S
C206 C205 1.374 . S
C207 C204 1.499 . S
C207 C208 1.373 . S
C207 C209 1.389 . S
C208 H181 0.950 . S
C208 C194 1.377 . S
C208 C207 1.373 . S
C209 C193 1.377 . S
C209 C207 1.389 . S
C209 C210 1.524 . S
C210 C209 1.524 . S
C210 C211 1.397 . S
C210 C215 1.363 . S
C211 H182 0.950 . S
C211 C210 1.397 . S
C211 C212 1.334 . S
C212 H183 0.950 . S
C212 C211 1.334 . S
C212 C213 1.287 . S
C213 C212 1.287 . S
C213 C214 1.524 . S
C213 H216 0.999 . S
C214 H184 0.950 . S
C214 C213 1.524 . S
C214 C215 1.415 . S
C215 H185 0.950 . S
C215 C210 1.363 . S
C215 C214 1.415 . S
H216 C213 0.999 . S
H217 C198 0.913 . S
H218 C236 0.951 . S
H219 C238 0.951 . S
H220 C240 0.950 . S
H221 C241 0.950 . S
H222 C243 0.950 . S
H223 C246 0.950 . S
H224 C247 0.950 . S
H225 C249 0.950 . S
H226 C250 0.950 . S
H227 C251 0.951 . S
H228 C253 0.951 . S
H229 C255 0.950 . S
H230 C256 0.950 . S
H231 C258 0.950 . S
H232 C261 0.950 . S
H233 C262 0.950 1_545 S
H234 C264 0.950 . S
H235 C265 0.950 . S
C236 H218 0.951 . S
C236 C237 1.366 . S
C236 C238 1.388 . S
C237 C236 1.366 . S
C237 C241 1.385 . S
C238 H219 0.951 . S
C238 C236 1.388 . S
C238 C239 1.366 . S
C239 C238 1.366 . S
C239 C240 1.414 . S
C239 C242 1.499 . S
C240 H220 0.950 . S
C240 C239 1.414 . S
C240 C241 1.374 . S
C241 H221 0.950 . S
C241 C237 1.385 . S
C241 C240 1.374 . S
C242 C239 1.499 . S
C242 C243 1.373 . S
C242 C244 1.389 . S
C243 H222 0.950 . S
C243 C242 1.373 . S
C243 C259 1.377 . S
C244 C242 1.389 . S
C244 C245 1.524 . S
C244 C258 1.377 . S
C245 C244 1.524 . S
C245 C246 1.397 . S
C245 C250 1.363 . S
C246 H223 0.950 . S
C246 C245 1.397 . S
C246 C247 1.334 . S
C247 H224 0.950 . S
C247 C246 1.334 . S
C247 C248 1.287 . S
C248 C247 1.287 . S
C248 C249 1.524 . S
C248 H267 0.913 . S
C249 H225 0.950 . S
C249 C248 1.524 . S
C249 C250 1.415 . S
C250 H226 0.950 . S
C250 C245 1.363 . S
C250 C249 1.415 . S
C251 H227 0.951 . S
C251 C252 1.366 . S
C251 C253 1.388 . S
C252 C251 1.366 . S
C252 C256 1.385 . S
C253 H228 0.951 . S
C253 C251 1.388 . S
C253 C254 1.366 . S
C254 C253 1.366 . S
C254 C255 1.414 . S
C254 C257 1.499 . S
C255 H229 0.950 . S
C255 C254 1.414 . S
C255 C256 1.374 . S
C256 H230 0.950 . S
C256 C252 1.385 . S
C256 C255 1.374 . S
C257 C254 1.499 . S
C257 C258 1.373 . S
C257 C259 1.389 . S
C258 H231 0.950 . S
C258 C244 1.377 . S
C258 C257 1.373 . S
C259 C243 1.377 . S
C259 C257 1.389 . S
C259 C260 1.524 . S
C260 C259 1.524 . S
C260 C261 1.397 . S
C260 C265 1.363 . S
C261 H232 0.950 . S
C261 C260 1.397 . S
C261 C262 1.334 . S
C262 H233 0.950 1_565 S
C262 C261 1.334 . S
C262 C263 1.287 . S
C263 C262 1.287 . S
C263 C264 1.524 . S
C263 H266 0.999 . S
C264 H234 0.950 . S
C264 C263 1.524 . S
C264 C265 1.415 . S
C265 H235 0.950 . S
C265 C260 1.363 . S
C265 C264 1.415 . S
H266 C263 0.999 . S
H267 C248 0.913 . S
H268 C286 0.951 . S
H269 C288 0.951 . S
H270 C290 0.950 . S
H271 C291 0.950 . S
H272 C293 0.950 . S
H273 C296 0.950 . S
H274 C297 0.950 . S
H275 C299 0.950 . S
H276 C300 0.950 . S
H277 C301 0.951 . S
H278 C303 0.951 . S
H279 C305 0.950 . S
H280 C306 0.950 . S
H281 C308 0.950 . S
H282 C311 0.950 . S
H283 C312 0.950 . S
H284 C314 0.950 . S
H285 C315 0.950 . S
C286 H268 0.951 . S
C286 C287 1.366 . S
C286 C288 1.388 . S
C287 C286 1.366 . S
C287 C291 1.385 . S
C288 H269 0.951 . S
C288 C286 1.388 . S
C288 C289 1.366 . S
C289 C288 1.366 . S
C289 C290 1.414 . S
C289 C292 1.499 . S
C290 H270 0.950 . S
C290 C289 1.414 . S
C290 C291 1.374 . S
C291 H271 0.950 . S
C291 C287 1.385 . S
C291 C290 1.374 . S
C292 C289 1.499 . S
C292 C293 1.373 . S
C292 C294 1.389 . S
C293 H272 0.950 . S
C293 C292 1.373 . S
C293 C309 1.377 . S
C294 C292 1.389 . S
C294 C295 1.524 . S
C294 C308 1.377 . S
C295 C294 1.524 . S
C295 C296 1.397 . S
C295 C300 1.363 . S
C296 H273 0.950 . S
C296 C295 1.397 . S
C296 C297 1.334 . S
C297 H274 0.950 . S
C297 C296 1.334 . S
C297 C298 1.287 . S
C298 C297 1.287 . S
C298 C299 1.524 . S
C298 H317 0.913 . S
C299 H275 0.950 . S
C299 C298 1.524 . S
C299 C300 1.415 . S
C300 H276 0.950 . S
C300 C295 1.363 . S
C300 C299 1.415 . S
C301 H277 0.951 . S
C301 C302 1.366 . S
C301 C303 1.388 . S
C302 C301 1.366 . S
C302 C306 1.385 . S
C303 H278 0.951 . S
C303 C301 1.388 . S
C303 C304 1.366 . S
C304 C303 1.366 . S
C304 C305 1.414 . S
C304 C307 1.499 . S
C305 H279 0.950 . S
C305 C304 1.414 . S
C305 C306 1.374 . S
C306 H280 0.950 . S
C306 C302 1.385 . S
C306 C305 1.374 . S
C307 C304 1.499 . S
C307 C308 1.373 . S
C307 C309 1.389 . S
C308 H281 0.950 . S
C308 C294 1.377 . S
C308 C307 1.373 . S
C309 C293 1.377 . S
C309 C307 1.389 . S
C309 C310 1.524 . S
C310 C309 1.524 . S
C310 C311 1.397 . S
C310 C315 1.363 . S
C311 H282 0.950 . S
C311 C310 1.397 . S
C311 C312 1.334 . S
C312 H283 0.950 . S
C312 C311 1.334 . S
C312 C313 1.287 . S
C313 C312 1.287 . S
C313 C314 1.524 . S
C313 H316 0.999 . S
C314 H284 0.950 . S
C314 C313 1.524 . S
C314 C315 1.415 . S
C315 H285 0.950 . S
C315 C310 1.363 . S
C315 C314 1.415 . S
H316 C313 0.999 . S
H317 C298 0.913 . S
H318 C336 0.951 . S
H319 C338 0.951 . S
H320 C340 0.950 . S
H321 C341 0.950 . S
H322 C343 0.950 . S
H323 C346 0.950 . S
H324 C347 0.950 . S
H325 C349 0.950 . S
H326 C350 0.950 . S
H327 C351 0.951 1_455 S
H328 C353 0.951 . S
H329 C355 0.950 . S
H330 C356 0.950 . S
H331 C358 0.950 . S
H332 C361 0.950 . S
H333 C362 0.950 . S
H334 C364 0.950 1_455 S
H335 C365 0.950 . S
C336 H318 0.951 . S
C336 C337 1.366 . S
C336 C338 1.388 . S
C337 C336 1.366 . S
C337 C341 1.385 . S
C338 H319 0.951 . S
C338 C336 1.388 . S
C338 C339 1.366 . S
C339 C338 1.366 . S
C339 C340 1.414 . S
C339 C342 1.499 . S
C340 H320 0.950 . S
C340 C339 1.414 . S
C340 C341 1.374 . S
C341 H321 0.950 . S
C341 C337 1.385 . S
C341 C340 1.374 . S
C342 C339 1.499 . S
C342 C343 1.373 . S
C342 C344 1.389 . S
C343 H322 0.950 . S
C343 C342 1.373 . S
C343 C359 1.377 . S
C344 C342 1.389 . S
C344 C345 1.524 . S
C344 C358 1.377 . S
C345 C344 1.524 . S
C345 C346 1.397 . S
C345 C350 1.363 . S
C346 H323 0.950 . S
C346 C345 1.397 . S
C346 C347 1.334 . S
C347 H324 0.950 . S
C347 C346 1.334 . S
C347 C348 1.287 . S
C348 C347 1.287 . S
C348 C349 1.524 . S
C348 H367 0.913 . S
C349 H325 0.950 . S
C349 C348 1.524 . S
C349 C350 1.415 . S
C350 H326 0.950 . S
C350 C345 1.363 . S
C350 C349 1.415 . S
C351 H327 0.951 1_655 S
C351 C352 1.366 . S
C351 C353 1.388 . S
C352 C351 1.366 . S
C352 C356 1.385 . S
C353 H328 0.951 . S
C353 C351 1.388 . S
C353 C354 1.366 . S
C354 C353 1.366 . S
C354 C355 1.414 . S
C354 C357 1.499 . S
C355 H329 0.950 . S
C355 C354 1.414 . S
C355 C356 1.374 . S
C356 H330 0.950 . S
C356 C352 1.385 . S
C356 C355 1.374 . S
C357 C354 1.499 . S
C357 C358 1.373 . S
C357 C359 1.389 . S
C358 H331 0.950 . S
C358 C344 1.377 . S
C358 C357 1.373 . S
C359 C343 1.377 . S
C359 C357 1.389 . S
C359 C360 1.524 . S
C360 C359 1.524 . S
C360 C361 1.397 . S
C360 C365 1.363 . S
C361 H332 0.950 . S
C361 C360 1.397 . S
C361 C362 1.334 . S
C362 H333 0.950 . S
C362 C361 1.334 . S
C362 C363 1.287 . S
C363 C362 1.287 . S
C363 C364 1.524 . S
C363 H366 0.999 1_655 S
C364 H334 0.950 1_655 S
C364 C363 1.524 . S
C364 C365 1.415 . S
C365 H335 0.950 . S
C365 C360 1.363 . S
C365 C364 1.415 . S
H366 C363 0.999 1_455 S
H367 C348 0.913 . S
H368 C386 0.951 . S
H369 C388 0.951 . S
H370 C390 0.950 . S
H371 C391 0.950 . S
H372 C393 0.950 . S
H373 C396 0.950 . S
H374 C397 0.950 . S
H375 C399 0.950 . S
H376 C400 0.950 . S
H377 C401 0.951 . S
H378 C403 0.951 . S
H379 C405 0.950 . S
H380 C406 0.950 . S
H381 C408 0.950 . S
H382 C411 0.950 . S
H383 C412 0.950 . S
H384 C414 0.950 . S
H385 C415 0.950 . S
C386 H368 0.951 . S
C386 C387 1.366 . S
C386 C388 1.388 . S
C387 C386 1.366 . S
C387 C391 1.385 . S
C388 H369 0.951 . S
C388 C386 1.388 . S
C388 C389 1.366 . S
C389 C388 1.366 . S
C389 C390 1.414 . S
C389 C392 1.499 . S
C390 H370 0.950 . S
C390 C389 1.414 . S
C390 C391 1.374 . S
C391 H371 0.950 . S
C391 C387 1.385 . S
C391 C390 1.374 . S
C392 C389 1.499 . S
C392 C393 1.373 . S
C392 C394 1.389 . S
C393 H372 0.950 . S
C393 C392 1.373 . S
C393 C409 1.377 . S
C394 C392 1.389 . S
C394 C395 1.524 . S
C394 C408 1.377 . S
C395 C394 1.524 . S
C395 C396 1.397 . S
C395 C400 1.363 . S
C396 H373 0.950 . S
C396 C395 1.397 . S
C396 C397 1.334 . S
C397 H374 0.950 . S
C397 C396 1.334 . S
C397 C398 1.287 . S
C398 C397 1.287 . S
C398 C399 1.524 . S
C398 H417 0.913 . S
C399 H375 0.950 . S
C399 C398 1.524 . S
C399 C400 1.415 . S
C400 H376 0.950 . S
C400 C395 1.363 . S
C400 C399 1.415 . S
C401 H377 0.951 . S
C401 C402 1.366 . S
C401 C403 1.388 . S
C402 C401 1.366 . S
C402 C406 1.385 . S
C403 H378 0.951 . S
C403 C401 1.388 . S
C403 C404 1.366 . S
C404 C403 1.366 . S
C404 C405 1.414 . S
C404 C407 1.499 . S
C405 H379 0.950 . S
C405 C404 1.414 . S
C405 C406 1.374 . S
C406 H380 0.950 . S
C406 C402 1.385 . S
C406 C405 1.374 . S
C407 C404 1.499 . S
C407 C408 1.373 . S
C407 C409 1.389 . S
C408 H381 0.950 . S
C408 C394 1.377 . S
C408 C407 1.373 . S
C409 C393 1.377 . S
C409 C407 1.389 . S
C409 C410 1.524 . S
C410 C409 1.524 . S
C410 C411 1.397 . S
C410 C415 1.363 . S
C411 H382 0.950 . S
C411 C410 1.397 . S
C411 C412 1.334 . S
C412 H383 0.950 . S
C412 C411 1.334 . S
C412 C413 1.287 . S
C413 C412 1.287 . S
C413 C414 1.524 . S
C413 H416 0.999 . S
C414 H384 0.950 . S
C414 C413 1.524 . S
C414 C415 1.415 . S
C415 H385 0.950 . S
C415 C410 1.363 . S
C415 C414 1.415 . S
H416 C413 0.999 . S
H417 C398 0.913 . S
H418 C436 0.951 . S
H419 C438 0.951 . S
H420 C440 0.950 . S
H421 C441 0.950 . S
H422 C443 0.950 . S
H423 C446 0.950 . S
H424 C447 0.950 . S
H425 C449 0.950 . S
H426 C450 0.950 . S
H427 C451 0.951 . S
H428 C453 0.951 . S
H429 C455 0.950 1_545 S
H430 C456 0.975 . S
H431 C458 0.950 . S
H432 C461 0.950 . S
H433 C462 0.950 . S
H434 C464 0.950 . S
H435 C465 0.950 . S
C436 H418 0.951 . S
C436 C437 1.366 . S
C436 C438 1.388 . S
C437 C436 1.366 . S
C437 C441 1.385 . S
C438 H419 0.951 . S
C438 C436 1.388 . S
C438 C439 1.366 . S
C439 C438 1.366 . S
C439 C440 1.414 . S
C439 C442 1.499 . S
C440 H420 0.950 . S
C440 C439 1.414 . S
C440 C441 1.374 . S
C441 H421 0.950 . S
C441 C437 1.385 . S
C441 C440 1.374 . S
C442 C439 1.499 . S
C442 C443 1.373 . S
C442 C444 1.389 . S
C443 H422 0.950 . S
C443 C442 1.373 . S
C443 C459 1.377 . S
C444 C442 1.389 . S
C444 C445 1.524 . S
C444 C458 1.377 . S
C445 C444 1.524 . S
C445 C446 1.397 . S
C445 C450 1.363 1_565 S
C446 H423 0.950 . S
C446 C445 1.397 . S
C446 C447 1.334 . S
C447 H424 0.950 . S
C447 C446 1.334 . S
C447 C448 1.287 . S
C448 C447 1.287 . S
C448 C449 1.524 1_565 S
C448 H467 0.913 1_565 S
C449 H425 0.950 . S
C449 C448 1.524 1_545 S
C449 C450 1.415 . S
C450 H426 0.950 . S
C450 C445 1.363 1_545 S
C450 C449 1.415 . S
C451 H427 0.951 . S
C451 C452 1.366 . S
C451 C453 1.388 . S
C452 C451 1.366 . S
C452 C456 1.373 1_565 S
C453 H428 0.951 . S
C453 C451 1.388 . S
C453 C454 1.366 . S
C454 C453 1.366 . S
C454 C455 1.414 . S
C454 C457 1.499 . S
C455 H429 0.950 1_565 S
C455 C454 1.414 . S
C455 C456 1.361 1_565 S
C456 H430 0.975 . S
C456 C452 1.373 1_545 S
C456 C455 1.361 1_545 S
C457 C454 1.499 . S
C457 C458 1.373 . S
C457 C459 1.389 . S
C458 H431 0.950 . S
C458 C444 1.377 . S
C458 C457 1.373 . S
C459 C443 1.377 . S
C459 C457 1.389 . S
C459 C460 1.524 . S
C460 C459 1.524 . S
C460 C461 1.397 . S
C460 C465 1.363 . S
C461 H432 0.950 . S
C461 C460 1.397 . S
C461 C462 1.334 . S
C462 H433 0.950 . S
C462 C461 1.334 . S
C462 C463 1.287 . S
C463 C462 1.287 . S
C463 C464 1.524 . S
C463 H466 0.999 . S
C464 H434 0.950 . S
C464 C463 1.524 . S
C464 C465 1.415 . S
C465 H435 0.950 . S
C465 C460 1.363 . S
C465 C464 1.415 . S
H466 C463 0.999 . S
H467 C448 0.913 1_545 S
H468 C486 0.951 . S
H469 C488 0.951 . S
H470 C490 0.950 . S
H471 C491 0.950 . S
H472 C493 0.950 . S
H473 C496 0.950 . S
H474 C497 0.950 . S
H475 C499 0.950 . S
H476 C500 0.950 . S
H477 C501 0.951 . S
H478 C503 0.951 . S
H479 C505 0.950 . S
H480 C506 0.950 . S
H481 C508 0.950 . S
H482 C511 0.950 . S
H483 C512 0.950 1_554 S
H484 C514 0.950 . S
H485 C515 0.950 . S
C486 H468 0.951 . S
C486 C487 1.366 . S
C486 C488 1.388 . S
C487 C486 1.366 . S
C487 C491 1.385 . S
C488 H469 0.951 . S
C488 C486 1.388 . S
C488 C489 1.366 . S
C489 C488 1.366 . S
C489 C490 1.414 . S
C489 C492 1.499 . S
C490 H470 0.950 . S
C490 C489 1.414 . S
C490 C491 1.374 . S
C491 H471 0.950 . S
C491 C487 1.385 . S
C491 C490 1.374 . S
C492 C489 1.499 . S
C492 C493 1.373 . S
C492 C494 1.389 . S
C493 H472 0.950 . S
C493 C492 1.373 . S
C493 C509 1.377 . S
C494 C492 1.389 . S
C494 C495 1.524 . S
C494 C508 1.377 . S
C495 C494 1.524 . S
C495 C496 1.397 . S
C495 C500 1.363 . S
C496 H473 0.950 . S
C496 C495 1.397 . S
C496 C497 1.334 . S
C497 H474 0.950 . S
C497 C496 1.334 . S
C497 C498 1.287 . S
C498 C497 1.287 . S
C498 C499 1.524 . S
C498 H517 0.913 . S
C499 H475 0.950 . S
C499 C498 1.524 . S
C499 C500 1.415 . S
C500 H476 0.950 . S
C500 C495 1.363 . S
C500 C499 1.415 . S
C501 H477 0.951 . S
C501 C502 1.366 . S
C501 C503 1.388 . S
C502 C501 1.366 . S
C502 C506 1.385 . S
C503 H478 0.951 . S
C503 C501 1.388 . S
C503 C504 1.366 . S
C504 C503 1.366 . S
C504 C505 1.414 . S
C504 C507 1.499 . S
C505 H479 0.950 . S
C505 C504 1.414 . S
C505 C506 1.374 . S
C506 H480 0.950 . S
C506 C502 1.385 . S
C506 C505 1.374 . S
C507 C504 1.499 . S
C507 C508 1.373 . S
C507 C509 1.389 . S
C508 H481 0.950 . S
C508 C494 1.377 . S
C508 C507 1.373 . S
C509 C493 1.377 . S
C509 C507 1.389 . S
C509 C510 1.524 . S
C510 C509 1.524 . S
C510 C511 1.397 . S
C510 C515 1.363 . S
C511 H482 0.950 . S
C511 C510 1.397 . S
C511 C512 1.334 . S
C512 H483 0.950 1_556 S
C512 C511 1.334 . S
C512 C513 1.287 . S
C513 C512 1.287 . S
C513 C514 1.524 . S
C513 H516 1.015 . S
C514 H484 0.950 . S
C514 C513 1.524 . S
C514 C515 1.415 . S
C515 H485 0.950 . S
C515 C510 1.363 . S
C515 C514 1.415 . S
H516 C513 1.015 . S
H517 C498 0.913 . S
H518 C536 0.951 . S
H519 C538 0.951 . S
H520 C540 0.950 . S
H521 C541 0.950 . S
H522 C543 0.950 . S
H523 C546 0.950 . S
H524 C547 0.950 . S
H525 C549 0.950 . S
H526 C550 0.950 . S
H527 C551 0.951 . S
H528 C553 0.951 . S
H529 C555 0.950 . S
H530 C556 0.950 . S
H531 C558 0.950 . S
H532 C561 0.950 . S
H533 C562 0.950 . S
H534 C564 0.950 . S
H535 C565 0.950 . S
C536 H518 0.951 . S
C536 C537 1.366 . S
C536 C538 1.388 . S
C537 C536 1.366 . S
C537 C541 1.385 . S
C538 H519 0.951 . S
C538 C536 1.388 . S
C538 C539 1.366 . S
C539 C538 1.366 . S
C539 C540 1.414 . S
C539 C542 1.499 . S
C540 H520 0.950 . S
C540 C539 1.414 . S
C540 C541 1.374 . S
C541 H521 0.950 . S
C541 C537 1.385 . S
C541 C540 1.374 . S
C542 C539 1.499 . S
C542 C543 1.373 . S
C542 C544 1.389 . S
C543 H522 0.950 . S
C543 C542 1.373 . S
C543 C559 1.377 . S
C544 C542 1.389 . S
C544 C545 1.524 . S
C544 C558 1.377 . S
C545 C544 1.524 . S
C545 C546 1.397 . S
C545 C550 1.363 . S
C546 H523 0.950 . S
C546 C545 1.397 . S
C546 C547 1.334 . S
C547 H524 0.950 . S
C547 C546 1.334 . S
C547 C548 1.287 . S
C548 C547 1.287 . S
C548 C549 1.524 . S
C548 H567 0.913 . S
C549 H525 0.950 . S
C549 C548 1.524 . S
C549 C550 1.415 . S
C550 H526 0.950 . S
C550 C545 1.363 . S
C550 C549 1.415 . S
C551 H527 0.951 . S
C551 C552 1.366 . S
C551 C553 1.388 . S
C552 C551 1.366 . S
C552 C556 1.385 . S
C553 H528 0.951 . S
C553 C551 1.388 . S
C553 C554 1.366 . S
C554 C553 1.366 . S
C554 C555 1.414 . S
C554 C557 1.499 . S
C555 H529 0.950 . S
C555 C554 1.414 . S
C555 C556 1.374 . S
C556 H530 0.950 . S
C556 C552 1.385 . S
C556 C555 1.374 . S
C557 C554 1.499 . S
C557 C558 1.373 . S
C557 C559 1.389 . S
C558 H531 0.950 . S
C558 C544 1.377 . S
C558 C557 1.373 . S
C559 C543 1.377 . S
C559 C557 1.389 . S
C559 C560 1.524 . S
C560 C559 1.524 . S
C560 C561 1.397 . S
C560 C565 1.363 . S
C561 H532 0.950 . S
C561 C560 1.397 . S
C561 C562 1.334 . S
C562 H533 0.950 . S
C562 C561 1.334 . S
C562 C563 1.287 . S
C563 C562 1.287 . S
C563 C564 1.524 . S
C563 H566 0.999 . S
C564 H534 0.950 . S
C564 C563 1.524 . S
C564 C565 1.415 . S
C565 H535 0.950 . S
C565 C560 1.363 . S
C565 C564 1.415 . S
H566 C563 0.999 . S
H567 C548 0.913 . S
H568 C586 0.951 . S
H569 C588 0.951 . S
H570 C590 0.950 . S
H571 C591 0.950 . S
H572 C593 0.950 . S
H573 C596 0.950 . S
H574 C597 0.950 . S
H575 C599 0.950 . S
H576 C600 0.950 . S
H577 C601 0.951 . S
H578 C603 0.951 . S
H579 C605 0.950 . S
H580 C606 0.950 . S
H581 C608 0.950 . S
H582 C611 0.950 . S
H583 C612 0.950 . S
H584 C614 0.950 . S
H585 C615 0.950 . S
C586 H568 0.951 . S
C586 C587 1.366 . S
C586 C588 1.388 . S
C587 C586 1.366 . S
C587 C591 1.385 . S
C588 H569 0.951 . S
C588 C586 1.388 . S
C588 C589 1.366 . S
C589 C588 1.366 . S
C589 C590 1.414 . S
C589 C592 1.499 . S
C590 H570 0.950 . S
C590 C589 1.414 . S
C590 C591 1.374 . S
C591 H571 0.950 . S
C591 C587 1.385 . S
C591 C590 1.374 . S
C592 C589 1.499 . S
C592 C593 1.373 . S
C592 C594 1.389 . S
C593 H572 0.950 . S
C593 C592 1.373 . S
C593 C609 1.377 . S
C594 C592 1.389 . S
C594 C595 1.524 . S
C594 C608 1.377 . S
C595 C594 1.524 . S
C595 C596 1.397 . S
C595 C600 1.363 . S
C596 H573 0.950 . S
C596 C595 1.397 . S
C596 C597 1.334 . S
C597 H574 0.950 . S
C597 C596 1.334 . S
C597 C598 1.287 . S
C598 C597 1.287 . S
C598 C599 1.524 . S
C598 H617 0.913 . S
C599 H575 0.950 . S
C599 C598 1.524 . S
C599 C600 1.415 . S
C600 H576 0.950 . S
C600 C595 1.363 . S
C600 C599 1.415 . S
C601 H577 0.951 . S
C601 C602 1.366 . S
C601 C603 1.388 . S
C602 C601 1.366 . S
C602 C606 1.385 . S
C603 H578 0.951 . S
C603 C601 1.388 . S
C603 C604 1.366 . S
C604 C603 1.366 . S
C604 C605 1.414 . S
C604 C607 1.499 . S
C605 H579 0.950 . S
C605 C604 1.414 . S
C605 C606 1.374 . S
C606 H580 0.950 . S
C606 C602 1.385 . S
C606 C605 1.374 . S
C607 C604 1.499 . S
C607 C608 1.373 . S
C607 C609 1.389 . S
C608 H581 0.950 . S
C608 C594 1.377 . S
C608 C607 1.373 . S
C609 C593 1.377 . S
C609 C607 1.389 . S
C609 C610 1.524 . S
C610 C609 1.524 . S
C610 C611 1.397 . S
C610 C615 1.363 . S
C611 H582 0.950 . S
C611 C610 1.397 . S
C611 C612 1.334 . S
C612 H583 0.950 . S
C612 C611 1.334 . S
C612 C613 1.287 . S
C613 C612 1.287 . S
C613 C614 1.524 . S
C613 H616 0.999 1_455 S
C614 H584 0.950 . S
C614 C613 1.524 . S
C614 C615 1.415 . S
C615 H585 0.950 . S
C615 C610 1.363 . S
C615 C614 1.415 . S
H616 C613 0.999 1_655 S
H617 C598 0.913 . S
H618 C636 0.951 . S
H619 C638 0.951 . S
H620 C640 0.950 . S
H621 C641 0.950 . S
H622 C643 0.950 . S
H623 C646 0.950 . S
H624 C647 0.950 . S
H625 C649 0.950 . S
H626 C650 0.950 . S
H627 C651 0.951 1_554 S
H628 C653 0.951 . S
H629 C655 0.950 . S
H630 C656 0.950 . S
H631 C658 0.950 . S
H632 C661 0.950 1_556 S
H633 C662 0.950 . S
H634 C664 0.950 . S
H635 C665 0.950 . S
C636 H618 0.951 . S
C636 C637 1.366 . S
C636 C638 1.388 . S
C637 C636 1.366 . S
C637 C641 1.385 . S
C638 H619 0.951 . S
C638 C636 1.388 . S
C638 C639 1.366 . S
C639 C638 1.366 . S
C639 C640 1.414 . S
C639 C642 1.499 . S
C640 H620 0.950 . S
C640 C639 1.414 . S
C640 C641 1.374 . S
C641 H621 0.950 . S
C641 C637 1.385 . S
C641 C640 1.374 . S
C642 C639 1.499 . S
C642 C643 1.373 . S
C642 C644 1.389 . S
C643 H622 0.950 . S
C643 C642 1.373 . S
C643 C659 1.377 . S
C644 C642 1.389 . S
C644 C645 1.524 . S
C644 C658 1.377 . S
C645 C644 1.524 . S
C645 C646 1.397 . S
C645 C650 1.363 . S
C646 H623 0.950 . S
C646 C645 1.397 . S
C646 C647 1.334 . S
C647 H624 0.950 . S
C647 C646 1.334 . S
C647 C648 1.287 . S
C648 C647 1.287 . S
C648 C649 1.524 . S
C648 H667 0.913 . S
C649 H625 0.950 . S
C649 C648 1.524 . S
C649 C650 1.415 . S
C650 H626 0.950 . S
C650 C645 1.363 . S
C650 C649 1.415 . S
C651 H627 0.951 1_556 S
C651 C652 1.366 . S
C651 C653 1.388 . S
C652 C651 1.366 . S
C652 C656 1.385 . S
C653 H628 0.951 . S
C653 C651 1.388 . S
C653 C654 1.366 . S
C654 C653 1.366 . S
C654 C655 1.414 . S
C654 C657 1.499 . S
C655 H629 0.950 . S
C655 C654 1.414 . S
C655 C656 1.374 . S
C656 H630 0.950 . S
C656 C652 1.385 . S
C656 C655 1.374 . S
C657 C654 1.499 . S
C657 C658 1.373 . S
C657 C659 1.389 . S
C658 H631 0.950 . S
C658 C644 1.377 . S
C658 C657 1.373 . S
C659 C643 1.377 . S
C659 C657 1.389 . S
C659 C660 1.524 . S
C660 C659 1.524 . S
C660 C661 1.397 1_556 S
C660 C665 1.363 . S
C661 H632 0.950 1_554 S
C661 C660 1.397 1_554 S
C661 C662 1.334 . S
C662 H633 0.950 . S
C662 C661 1.334 . S
C662 C663 1.287 . S
C663 C662 1.287 . S
C663 C664 1.524 . S
C663 H666 0.999 . S
C664 H634 0.950 . S
C664 C663 1.524 . S
C664 C665 1.415 1_554 S
C665 H635 0.950 . S
C665 C660 1.363 . S
C665 C664 1.415 1_556 S
H666 C663 0.999 . S
H667 C648 0.913 . S
H668 C686 0.951 . S
H669 C688 0.951 . S
H670 C690 0.950 . S
H671 C691 0.950 . S
H672 C693 0.950 . S
H673 C696 0.950 . S
H674 C697 0.950 . S
H675 C699 0.950 . S
H676 C700 0.950 . S
H677 C701 0.951 . S
H678 C703 0.951 . S
H679 C705 0.950 . S
H680 C706 0.950 . S
H681 C708 0.950 . S
H682 C711 0.950 . S
H683 C712 0.950 . S
H684 C714 0.950 . S
H685 C715 0.950 . S
C686 H668 0.951 . S
C686 C687 1.366 . S
C686 C688 1.388 . S
C687 C686 1.366 . S
C687 C691 1.385 . S
C688 H669 0.951 . S
C688 C686 1.388 . S
C688 C689 1.366 . S
C689 C688 1.366 . S
C689 C690 1.414 . S
C689 C692 1.499 . S
C690 H670 0.950 . S
C690 C689 1.414 . S
C690 C691 1.374 . S
C691 H671 0.950 . S
C691 C687 1.385 . S
C691 C690 1.374 . S
C692 C689 1.499 . S
C692 C693 1.373 . S
C692 C694 1.389 . S
C693 H672 0.950 . S
C693 C692 1.373 . S
C693 C709 1.377 . S
C694 C692 1.389 . S
C694 C695 1.524 . S
C694 C708 1.377 . S
C695 C694 1.524 . S
C695 C696 1.397 . S
C695 C700 1.363 . S
C696 H673 0.950 . S
C696 C695 1.397 . S
C696 C697 1.334 . S
C697 H674 0.950 . S
C697 C696 1.334 . S
C697 C698 1.287 . S
C698 C697 1.287 . S
C698 C699 1.524 . S
C698 H717 0.913 . S
C699 H675 0.950 . S
C699 C698 1.524 . S
C699 C700 1.415 . S
C700 H676 0.950 . S
C700 C695 1.363 . S
C700 C699 1.415 . S
C701 H677 0.951 . S
C701 C702 1.366 . S
C701 C703 1.388 . S
C702 C701 1.366 . S
C702 C706 1.385 . S
C703 H678 0.951 . S
C703 C701 1.388 . S
C703 C704 1.366 . S
C704 C703 1.366 . S
C704 C705 1.414 . S
C704 C707 1.499 . S
C705 H679 0.950 . S
C705 C704 1.414 . S
C705 C706 1.374 . S
C706 H680 0.950 . S
C706 C702 1.385 . S
C706 C705 1.374 . S
C707 C704 1.499 . S
C707 C708 1.373 . S
C707 C709 1.389 . S
C708 H681 0.950 . S
C708 C694 1.377 . S
C708 C707 1.373 . S
C709 C693 1.377 . S
C709 C707 1.389 . S
C709 C710 1.524 . S
C710 C709 1.524 . S
C710 C711 1.397 . S
C710 C715 1.363 . S
C711 H682 0.950 . S
C711 C710 1.397 . S
C711 C712 1.334 . S
C712 H683 0.950 . S
C712 C711 1.334 . S
C712 C713 1.287 . S
C713 C712 1.287 . S
C713 C714 1.524 . S
C713 H716 0.999 . S
C714 H684 0.950 . S
C714 C713 1.524 . S
C714 C715 1.415 . S
C715 H685 0.950 . S
C715 C710 1.363 . S
C715 C714 1.415 . S
H716 C713 0.999 . S
H717 C698 0.913 . S
H718 C736 0.951 . S
H719 C738 0.951 . S
H720 C740 0.950 . S
H721 C741 0.950 . S
H722 C743 0.950 . S
H723 C746 0.950 . S
H724 C747 0.950 . S
H725 C749 0.950 . S
H726 C750 0.950 . S
H727 C751 0.951 . S
H728 C753 0.951 . S
H729 C755 0.950 . S
H730 C756 0.950 . S
H731 C758 0.950 . S
H732 C761 0.950 . S
H733 C762 0.950 . S
H734 C764 0.950 . S
H735 C765 0.950 . S
C736 H718 0.951 . S
C736 C737 1.366 . S
C736 C738 1.388 . S
C737 C736 1.366 . S
C737 C741 1.385 . S
C738 H719 0.951 . S
C738 C736 1.388 . S
C738 C739 1.366 . S
C739 C738 1.366 . S
C739 C740 1.414 . S
C739 C742 1.499 . S
C740 H720 0.950 . S
C740 C739 1.414 . S
C740 C741 1.374 . S
C741 H721 0.950 . S
C741 C737 1.385 . S
C741 C740 1.374 . S
C742 C739 1.499 . S
C742 C743 1.373 . S
C742 C744 1.389 . S
C743 H722 0.950 . S
C743 C742 1.373 . S
C743 C759 1.377 . S
C744 C742 1.389 . S
C744 C745 1.524 . S
C744 C758 1.377 . S
C745 C744 1.524 . S
C745 C746 1.397 . S
C745 C750 1.363 . S
C746 H723 0.950 . S
C746 C745 1.397 . S
C746 C747 1.334 . S
C747 H724 0.950 . S
C747 C746 1.334 . S
C747 C748 1.287 . S
C748 C747 1.287 . S
C748 C749 1.524 . S
C748 H767 0.913 . S
C749 H725 0.950 . S
C749 C748 1.524 . S
C749 C750 1.415 . S
C750 H726 0.950 . S
C750 C745 1.363 . S
C750 C749 1.415 . S
C751 H727 0.951 . S
C751 C752 1.366 . S
C751 C753 1.388 . S
C752 C751 1.366 . S
C752 C756 1.385 . S
C753 H728 0.951 . S
C753 C751 1.388 . S
C753 C754 1.366 . S
C754 C753 1.366 . S
C754 C755 1.414 . S
C754 C757 1.499 . S
C755 H729 0.950 . S
C755 C754 1.414 . S
C755 C756 1.374 . S
C756 H730 0.950 . S
C756 C752 1.385 . S
C756 C755 1.374 . S
C757 C754 1.499 . S
C757 C758 1.373 . S
C757 C759 1.389 . S
C758 H731 0.950 . S
C758 C744 1.377 . S
C758 C757 1.373 . S
C759 C743 1.377 . S
C759 C757 1.389 . S
C759 C760 1.524 . S
C760 C759 1.524 . S
C760 C761 1.397 . S
C760 C765 1.363 . S
C761 H732 0.950 . S
C761 C760 1.397 . S
C761 C762 1.334 . S
C762 H733 0.950 . S
C762 C761 1.334 . S
C762 C763 1.287 . S
C763 C762 1.287 . S
C763 C764 1.524 . S
C763 H766 0.999 . S
C764 H734 0.950 . S
C764 C763 1.524 . S
C764 C765 1.415 . S
C765 H735 0.950 . S
C765 C760 1.363 . S
C765 C764 1.415 . S
H766 C763 0.999 . S
H767 C748 0.913 . S
H768 C786 0.951 . S
H769 C788 0.951 . S
H770 C790 0.950 . S
H771 C791 0.950 . S
H772 C793 0.950 . S
H773 C796 0.950 . S
H774 C797 0.950 . S
H775 C799 0.950 1_545 S
H776 C800 0.950 . S
H777 C801 0.951 . S
H778 C803 0.951 . S
H779 C805 0.950 . S
H780 C806 0.950 . S
H781 C808 0.950 . S
H782 C811 0.950 . S
H783 C812 0.950 . S
H784 C814 0.950 . S
H785 C815 0.950 . S
C786 H768 0.951 . S
C786 C787 1.366 . S
C786 C788 1.388 . S
C787 C786 1.366 . S
C787 C791 1.385 . S
C788 H769 0.951 . S
C788 C786 1.388 . S
C788 C789 1.366 . S
C789 C788 1.366 . S
C789 C790 1.414 . S
C789 C792 1.499 . S
C790 H770 0.950 . S
C790 C789 1.414 . S
C790 C791 1.374 . S
C791 H771 0.950 . S
C791 C787 1.385 . S
C791 C790 1.374 . S
C792 C789 1.499 . S
C792 C793 1.373 . S
C792 C794 1.389 . S
C793 H772 0.950 . S
C793 C792 1.373 . S
C793 C809 1.377 . S
C794 C792 1.389 . S
C794 C795 1.524 . S
C794 C808 1.377 . S
C795 C794 1.524 . S
C795 C796 1.397 . S
C795 C800 1.363 . S
C796 H773 0.950 . S
C796 C795 1.397 . S
C796 C797 1.334 . S
C797 H774 0.950 . S
C797 C796 1.334 . S
C797 C798 1.287 . S
C798 C797 1.287 . S
C798 C799 1.524 . S
C798 H817 0.913 1_565 S
C799 H775 0.950 1_565 S
C799 C798 1.524 . S
C799 C800 1.415 . S
C800 H776 0.950 . S
C800 C795 1.363 . S
C800 C799 1.415 . S
C801 H777 0.951 . S
C801 C802 1.366 . S
C801 C803 1.388 . S
C802 C801 1.366 . S
C802 C806 1.385 . S
C803 H778 0.951 . S
C803 C801 1.388 . S
C803 C804 1.366 . S
C804 C803 1.366 . S
C804 C805 1.414 . S
C804 C807 1.499 . S
C805 H779 0.950 . S
C805 C804 1.414 . S
C805 C806 1.374 . S
C806 H780 0.950 . S
C806 C802 1.385 . S
C806 C805 1.374 . S
C807 C804 1.499 . S
C807 C808 1.373 . S
C807 C809 1.389 . S
C808 H781 0.950 . S
C808 C794 1.377 . S
C808 C807 1.373 . S
C809 C793 1.377 . S
C809 C807 1.389 . S
C809 C810 1.524 . S
C810 C809 1.524 . S
C810 C811 1.397 . S
C810 C815 1.363 . S
C811 H782 0.950 . S
C811 C810 1.397 . S
C811 C812 1.334 . S
C812 H783 0.950 . S
C812 C811 1.334 . S
C812 C813 1.287 . S
C813 C812 1.287 . S
C813 C814 1.524 . S
C813 H816 0.999 . S
C814 H784 0.950 . S
C814 C813 1.524 . S
C814 C815 1.415 . S
C815 H785 0.950 . S
C815 C810 1.363 . S
C815 C814 1.415 . S
H816 C813 0.999 . S
H817 C798 0.913 1_545 S
H818 C836 0.951 . S
H819 C838 0.951 . S
H820 C840 0.950 . S
H821 C841 0.950 . S
H822 C843 0.950 . S
H823 C846 0.950 . S
H824 C847 0.950 . S
H825 C849 0.950 . S
H826 C850 0.950 . S
H827 C851 0.951 . S
H828 C853 0.951 . S
H829 C855 0.950 . S
H830 C856 0.950 . S
H831 C858 0.950 . S
H832 C861 0.950 . S
H833 C862 0.950 . S
H834 C864 0.950 . S
H835 C865 0.950 . S
C836 H818 0.951 . S
C836 C837 1.366 . S
C836 C838 1.388 . S
C837 C836 1.366 . S
C837 C841 1.385 . S
C838 H819 0.951 . S
C838 C836 1.388 . S
C838 C839 1.366 . S
C839 C838 1.366 . S
C839 C840 1.414 . S
C839 C842 1.499 . S
C840 H820 0.950 . S
C840 C839 1.414 . S
C840 C841 1.374 . S
C841 H821 0.950 . S
C841 C837 1.385 . S
C841 C840 1.374 . S
C842 C839 1.499 . S
C842 C843 1.373 . S
C842 C844 1.389 . S
C843 H822 0.950 . S
C843 C842 1.373 . S
C843 C859 1.377 . S
C844 C842 1.389 . S
C844 C845 1.524 . S
C844 C858 1.377 . S
C845 C844 1.524 . S
C845 C846 1.397 . S
C845 C850 1.363 . S
C846 H823 0.950 . S
C846 C845 1.397 . S
C846 C847 1.334 . S
C847 H824 0.950 . S
C847 C846 1.334 . S
C847 C848 1.287 . S
C848 C847 1.287 . S
C848 C849 1.524 . S
C848 H867 0.913 . S
C849 H825 0.950 . S
C849 C848 1.524 . S
C849 C850 1.415 . S
C850 H826 0.950 . S
C850 C845 1.363 . S
C850 C849 1.415 . S
C851 H827 0.951 . S
C851 C852 1.366 . S
C851 C853 1.388 . S
C852 C851 1.366 . S
C852 C856 1.385 . S
C853 H828 0.951 . S
C853 C851 1.388 . S
C853 C854 1.366 . S
C854 C853 1.366 . S
C854 C855 1.414 . S
C854 C857 1.499 . S
C855 H829 0.950 . S
C855 C854 1.414 . S
C855 C856 1.374 . S
C856 H830 0.950 . S
C856 C852 1.385 . S
C856 C855 1.374 . S
C857 C854 1.499 . S
C857 C858 1.373 . S
C857 C859 1.389 . S
C858 H831 0.950 . S
C858 C844 1.377 . S
C858 C857 1.373 . S
C859 C843 1.377 . S
C859 C857 1.389 . S
C859 C860 1.524 . S
C860 C859 1.524 . S
C860 C861 1.397 . S
C860 C865 1.363 . S
C861 H832 0.950 . S
C861 C860 1.397 . S
C861 C862 1.334 . S
C862 H833 0.950 . S
C862 C861 1.334 . S
C862 C863 1.287 . S
C863 C862 1.287 . S
C863 C864 1.524 . S
C863 H866 0.999 . S
C864 H834 0.950 . S
C864 C863 1.524 . S
C864 C865 1.415 . S
C865 H835 0.950 . S
C865 C860 1.363 . S
C865 C864 1.415 . S
H866 C863 0.999 . S
H867 C848 0.913 . S
H868 C886 0.951 . S
H869 C888 0.951 . S
H870 C890 0.950 . S
H871 C891 0.950 . S
H872 C893 0.950 . S
H873 C896 0.950 . S
H874 C897 0.950 . S
H875 C899 0.950 . S
H876 C900 0.950 . S
H877 C901 0.951 . S
H878 C903 0.951 . S
H879 C905 0.950 . S
H880 C906 0.950 . S
H881 C908 0.950 . S
H882 C911 0.950 . S
H883 C912 0.950 . S
H884 C914 0.950 . S
H885 C915 0.950 . S
C886 H868 0.951 . S
C886 C887 1.366 . S
C886 C888 1.388 . S
C887 C886 1.366 . S
C887 C891 1.385 . S
C888 H869 0.951 . S
C888 C886 1.388 . S
C888 C889 1.366 . S
C889 C888 1.366 . S
C889 C890 1.414 . S
C889 C892 1.499 . S
C890 H870 0.950 . S
C890 C889 1.414 . S
C890 C891 1.374 . S
C891 H871 0.950 . S
C891 C887 1.385 . S
C891 C890 1.374 . S
C892 C889 1.499 . S
C892 C893 1.373 . S
C892 C894 1.389 . S
C893 H872 0.950 . S
C893 C892 1.373 . S
C893 C909 1.377 . S
C894 C892 1.389 . S
C894 C895 1.524 . S
C894 C908 1.377 . S
C895 C894 1.524 . S
C895 C896 1.397 . S
C895 C900 1.363 . S
C896 H873 0.950 . S
C896 C895 1.397 . S
C896 C897 1.334 . S
C897 H874 0.950 . S
C897 C896 1.334 . S
C897 C898 1.287 . S
C898 C897 1.287 . S
C898 C899 1.524 . S
C898 H917 0.913 . S
C899 H875 0.950 . S
C899 C898 1.524 . S
C899 C900 1.415 . S
C900 H876 0.950 . S
C900 C895 1.363 . S
C900 C899 1.415 . S
C901 H877 0.951 . S
C901 C902 1.366 . S
C901 C903 1.388 . S
C902 C901 1.366 . S
C902 C906 1.385 . S
C903 H878 0.951 . S
C903 C901 1.388 . S
C903 C904 1.366 . S
C904 C903 1.366 . S
C904 C905 1.414 . S
C904 C907 1.499 . S
C905 H879 0.950 . S
C905 C904 1.414 . S
C905 C906 1.374 . S
C906 H880 0.950 . S
C906 C902 1.385 . S
C906 C905 1.374 . S
C907 C904 1.499 . S
C907 C908 1.373 . S
C907 C909 1.389 . S
C908 H881 0.950 . S
C908 C894 1.377 . S
C908 C907 1.373 . S
C909 C893 1.377 . S
C909 C907 1.389 . S
C909 C910 1.524 . S
C910 C909 1.524 . S
C910 C911 1.397 . S
C910 C915 1.363 . S
C911 H882 0.950 . S
C911 C910 1.397 . S
C911 C912 1.334 . S
C912 H883 0.950 . S
C912 C911 1.334 . S
C912 C913 1.287 . S
C913 C912 1.287 . S
C913 C914 1.524 . S
C913 H916 0.999 . S
C914 H884 0.950 . S
C914 C913 1.524 . S
C914 C915 1.415 . S
C915 H885 0.950 . S
C915 C910 1.363 . S
C915 C914 1.415 . S
H916 C913 0.999 . S
H917 C898 0.913 . S
H918 C936 0.951 . S
H919 C938 0.951 . S
H920 C940 0.950 . S
H921 C941 0.950 . S
H922 C943 0.950 . S
H923 C946 0.950 . S
H924 C947 0.950 . S
H925 C949 0.950 . S
H926 C950 0.950 . S
H927 C951 0.951 . S
H928 C953 0.951 . S
H929 C955 0.950 . S
H930 C956 0.950 . S
H931 C958 0.950 . S
H932 C961 0.950 . S
H933 C962 0.955 1_554 S
H934 C964 0.950 . S
H935 C965 0.950 . S
C936 H918 0.951 . S
C936 C937 1.366 . S
C936 C938 1.388 . S
C937 C936 1.366 . S
C937 C941 1.385 . S
C938 H919 0.951 . S
C938 C936 1.388 . S
C938 C939 1.366 . S
C939 C938 1.366 . S
C939 C940 1.414 . S
C939 C942 1.499 . S
C940 H920 0.950 . S
C940 C939 1.414 . S
C940 C941 1.374 . S
C941 H921 0.950 . S
C941 C937 1.385 . S
C941 C940 1.374 . S
C942 C939 1.499 . S
C942 C943 1.373 . S
C942 C944 1.389 . S
C943 H922 0.950 . S
C943 C942 1.373 . S
C943 C959 1.377 . S
C944 C942 1.389 . S
C944 C945 1.524 . S
C944 C958 1.377 . S
C945 C944 1.524 . S
C945 C946 1.397 . S
C945 C950 1.363 . S
C946 H923 0.950 . S
C946 C945 1.397 . S
C946 C947 1.334 . S
C947 H924 0.950 . S
C947 C946 1.334 . S
C947 C948 1.287 . S
C948 C947 1.287 . S
C948 C949 1.524 . S
C948 H967 0.913 . S
C949 H925 0.950 . S
C949 C948 1.524 . S
C949 C950 1.415 . S
C950 H926 0.950 . S
C950 C945 1.363 . S
C950 C949 1.415 . S
C951 H927 0.951 . S
C951 C952 1.366 . S
C951 C953 1.388 . S
C952 C951 1.366 . S
C952 C956 1.385 . S
C953 H928 0.951 . S
C953 C951 1.388 . S
C953 C954 1.366 . S
C954 C953 1.366 . S
C954 C955 1.414 . S
C954 C957 1.499 . S
C955 H929 0.950 . S
C955 C954 1.414 . S
C955 C956 1.374 . S
C956 H930 0.950 . S
C956 C952 1.385 . S
C956 C955 1.374 . S
C957 C954 1.499 . S
C957 C958 1.373 . S
C957 C959 1.389 . S
C958 H931 0.950 . S
C958 C944 1.377 . S
C958 C957 1.373 . S
C959 C943 1.377 . S
C959 C957 1.389 . S
C959 C960 1.524 . S
C960 C959 1.524 . S
C960 C961 1.397 . S
C960 C965 1.363 . S
C961 H932 0.950 . S
C961 C960 1.397 . S
C961 C962 1.334 . S
C962 H933 0.955 1_556 S
C962 C961 1.334 . S
C962 C963 1.287 . S
C963 C962 1.287 . S
C963 C964 1.524 . S
C963 H966 0.999 . S
C964 H934 0.950 . S
C964 C963 1.524 . S
C964 C965 1.415 . S
C965 H935 0.950 . S
C965 C960 1.363 . S
C965 C964 1.415 . S
H966 C963 0.999 . S
H967 C948 0.913 . S
H968 C986 0.951 . S
H969 C988 0.951 . S
H970 C990 0.950 . S
H971 C991 0.950 . S
H972 C993 0.950 . S
H973 C996 0.950 . S
H974 C997 0.950 . S
H975 C999 0.950 . S
H976 C1000 0.950 . S
H977 C1001 0.951 . S
H978 C1003 0.951 . S
H979 C1005 0.950 . S
H980 C1006 0.950 . S
H981 C1008 0.950 . S
H982 C1011 0.950 . S
H983 C1012 0.950 . S
H984 C1014 0.950 . S
H985 C1015 0.950 . S
C986 H968 0.951 . S
C986 C987 1.366 . S
C986 C988 1.388 . S
C987 C986 1.366 . S
C987 C991 1.385 . S
C988 H969 0.951 . S
C988 C986 1.388 . S
C988 C989 1.366 . S
C989 C988 1.366 . S
C989 C990 1.414 . S
C989 C992 1.499 . S
C990 H970 0.950 . S
C990 C989 1.414 . S
C990 C991 1.374 . S
C991 H971 0.950 . S
C991 C987 1.385 . S
C991 C990 1.374 . S
C992 C989 1.499 . S
C992 C993 1.373 . S
C992 C994 1.389 . S
C993 H972 0.950 . S
C993 C992 1.373 . S
C993 C1009 1.377 . S
C994 C992 1.389 . S
C994 C995 1.524 . S
C994 C1008 1.377 . S
C995 C994 1.524 . S
C995 C996 1.397 . S
C995 C1000 1.363 . S
C996 H973 0.950 . S
C996 C995 1.397 . S
C996 C997 1.334 . S
C997 H974 0.950 . S
C997 C996 1.334 . S
C997 C998 1.287 . S
C998 C997 1.287 . S
C998 C999 1.524 . S
C998 H1017 0.913 . S
C999 H975 0.950 . S
C999 C998 1.524 . S
C999 C1000 1.415 . S
C1000 H976 0.950 . S
C1000 C995 1.363 . S
C1000 C999 1.415 . S
C1001 H977 0.951 . S
C1001 C1002 1.366 . S
C1001 C1003 1.388 . S
C1002 C1001 1.366 . S
C1002 C1006 1.385 . S
C1003 H978 0.951 . S
C1003 C1001 1.388 . S
C1003 C1004 1.366 . S
C1004 C1003 1.366 . S
C1004 C1005 1.414 . S
C1004 C1007 1.499 . S
C1005 H979 0.950 . S
C1005 C1004 1.414 . S
C1005 C1006 1.374 . S
C1006 H980 0.950 . S
C1006 C1002 1.385 . S
C1006 C1005 1.374 . S
C1007 C1004 1.499 . S
C1007 C1008 1.373 . S
C1007 C1009 1.389 . S
C1008 H981 0.950 . S
C1008 C994 1.377 . S
C1008 C1007 1.373 . S
C1009 C993 1.377 . S
C1009 C1007 1.389 . S
C1009 C1010 1.524 . S
C1010 C1009 1.524 . S
C1010 C1011 1.397 . S
C1010 C1015 1.363 . S
C1011 H982 0.950 . S
C1011 C1010 1.397 . S
C1011 C1012 1.334 1_556 S
C1012 H983 0.950 . S
C1012 C1011 1.334 1_554 S
C1012 C1013 1.287 . S
C1013 C1012 1.287 . S
C1013 C1014 1.524 . S
C1013 H1016 0.999 . S
C1014 H984 0.950 . S
C1014 C1013 1.524 . S
C1014 C1015 1.415 1_554 S
C1015 H985 0.950 . S
C1015 C1010 1.363 . S
C1015 C1014 1.415 1_556 S
H1016 C1013 0.999 . S
H1017 C998 0.913 . S
H1018 C1036 0.951 . S
H1019 C1038 0.951 . S
H1020 C1040 0.950 . S
H1021 C1041 0.950 . S
H1022 C1043 0.950 . S
H1023 C1046 0.950 . S
H1024 C1047 0.950 . S
H1025 C1049 0.950 . S
H1026 C1050 0.950 . S
H1027 C1051 0.951 . S
H1028 C1053 0.951 . S
H1029 C1055 0.950 . S
H1030 C1056 0.950 . S
H1031 C1058 0.950 . S
H1032 C1061 0.950 . S
H1033 C1062 0.950 . S
H1034 C1064 0.950 . S
H1035 C1065 0.950 . S
C1036 H1018 0.951 . S
C1036 C1037 1.366 . S
C1036 C1038 1.388 . S
C1037 C1036 1.366 . S
C1037 C1041 1.385 . S
C1038 H1019 0.951 . S
C1038 C1036 1.388 . S
C1038 C1039 1.366 . S
C1039 C1038 1.366 . S
C1039 C1040 1.414 . S
C1039 C1042 1.499 . S
C1040 H1020 0.950 . S
C1040 C1039 1.414 . S
C1040 C1041 1.374 . S
C1041 H1021 0.950 . S
C1041 C1037 1.385 . S
C1041 C1040 1.374 . S
C1042 C1039 1.499 . S
C1042 C1043 1.373 . S
C1042 C1044 1.389 . S
C1043 H1022 0.950 . S
C1043 C1042 1.373 . S
C1043 C1059 1.377 . S
C1044 C1042 1.389 . S
C1044 C1045 1.524 . S
C1044 C1058 1.377 . S
C1045 C1044 1.524 . S
C1045 C1046 1.397 . S
C1045 C1050 1.363 . S
C1046 H1023 0.950 . S
C1046 C1045 1.397 . S
C1046 C1047 1.334 . S
C1047 H1024 0.950 . S
C1047 C1046 1.334 . S
C1047 C1048 1.287 . S
C1048 C1047 1.287 . S
C1048 C1049 1.524 . S
C1048 H1067 0.913 . S
C1049 H1025 0.950 . S
C1049 C1048 1.524 . S
C1049 C1050 1.415 . S
C1050 H1026 0.950 . S
C1050 C1045 1.363 . S
C1050 C1049 1.415 . S
C1051 H1027 0.951 . S
C1051 C1052 1.366 . S
C1051 C1053 1.388 . S
C1052 C1051 1.366 . S
C1052 C1056 1.385 . S
C1053 H1028 0.951 . S
C1053 C1051 1.388 . S
C1053 C1054 1.366 . S
C1054 C1053 1.366 . S
C1054 C1055 1.414 . S
C1054 C1057 1.499 . S
C1055 H1029 0.950 . S
C1055 C1054 1.414 . S
C1055 C1056 1.374 . S
C1056 H1030 0.950 . S
C1056 C1052 1.385 . S
C1056 C1055 1.374 . S
C1057 C1054 1.499 . S
C1057 C1058 1.373 . S
C1057 C1059 1.389 . S
C1058 H1031 0.950 . S
C1058 C1044 1.377 . S
C1058 C1057 1.373 . S
C1059 C1043 1.377 . S
C1059 C1057 1.389 . S
C1059 C1060 1.524 . S
C1060 C1059 1.524 . S
C1060 C1061 1.397 . S
C1060 C1065 1.363 . S
C1061 H1032 0.950 . S
C1061 C1060 1.397 . S
C1061 C1062 1.334 . S
C1062 H1033 0.950 . S
C1062 C1061 1.334 . S
C1062 C1063 1.287 . S
C1063 C1062 1.287 . S
C1063 C1064 1.524 . S
C1063 H1066 0.999 . S
C1064 H1034 0.950 . S
C1064 C1063 1.524 . S
C1064 C1065 1.415 . S
C1065 H1035 0.950 . S
C1065 C1060 1.363 . S
C1065 C1064 1.415 . S
H1066 C1063 0.999 . S
H1067 C1048 0.913 . S
H1068 C1086 0.951 . S
H1069 C1088 0.951 . S
H1070 C1090 0.950 . S
H1071 C1091 0.950 . S
H1072 C1093 0.950 . S
H1073 C1096 0.950 . S
H1074 C1097 0.950 . S
H1075 C1099 0.950 . S
H1076 C1100 0.950 . S
H1077 C1101 0.951 . S
H1078 C1103 0.951 . S
H1079 C1105 0.950 . S
H1080 C1106 0.950 . S
H1081 C1108 0.950 . S
H1082 C1111 0.950 . S
H1083 C1112 0.950 . S
H1084 C1114 0.950 . S
H1085 C1115 0.950 . S
C1086 H1068 0.951 . S
C1086 C1087 1.366 . S
C1086 C1088 1.388 . S
C1087 C1086 1.366 . S
C1087 C1091 1.385 . S
C1088 H1069 0.951 . S
C1088 C1086 1.388 . S
C1088 C1089 1.366 . S
C1089 C1088 1.366 . S
C1089 C1090 1.414 . S
C1089 C1092 1.499 . S
C1090 H1070 0.950 . S
C1090 C1089 1.414 . S
C1090 C1091 1.374 . S
C1091 H1071 0.950 . S
C1091 C1087 1.385 . S
C1091 C1090 1.374 . S
C1092 C1089 1.499 . S
C1092 C1093 1.373 . S
C1092 C1094 1.389 . S
C1093 H1072 0.950 . S
C1093 C1092 1.373 . S
C1093 C1109 1.377 . S
C1094 C1092 1.389 . S
C1094 C1095 1.524 . S
C1094 C1108 1.377 . S
C1095 C1094 1.524 . S
C1095 C1096 1.397 . S
C1095 C1100 1.363 . S
C1096 H1073 0.950 . S
C1096 C1095 1.397 . S
C1096 C1097 1.334 . S
C1097 H1074 0.950 . S
C1097 C1096 1.334 . S
C1097 C1098 1.287 . S
C1098 C1097 1.287 . S
C1098 C1099 1.524 . S
C1098 H1117 0.913 . S
C1099 H1075 0.950 . S
C1099 C1098 1.524 . S
C1099 C1100 1.415 . S
C1100 H1076 0.950 . S
C1100 C1095 1.363 . S
C1100 C1099 1.415 . S
C1101 H1077 0.951 . S
C1101 C1102 1.366 . S
C1101 C1103 1.388 . S
C1102 C1101 1.366 . S
C1102 C1106 1.385 . S
C1103 H1078 0.951 . S
C1103 C1101 1.388 . S
C1103 C1104 1.366 . S
C1104 C1103 1.366 . S
C1104 C1105 1.414 . S
C1104 C1107 1.499 . S
C1105 H1079 0.950 . S
C1105 C1104 1.414 . S
C1105 C1106 1.374 . S
C1106 H1080 0.950 . S
C1106 C1102 1.385 . S
C1106 C1105 1.374 . S
C1107 C1104 1.499 . S
C1107 C1108 1.373 . S
C1107 C1109 1.389 . S
C1108 H1081 0.950 . S
C1108 C1094 1.377 . S
C1108 C1107 1.373 . S
C1109 C1093 1.377 . S
C1109 C1107 1.389 . S
C1109 C1110 1.524 . S
C1110 C1109 1.524 . S
C1110 C1111 1.397 . S
C1110 C1115 1.363 . S
C1111 H1082 0.950 . S
C1111 C1110 1.397 . S
C1111 C1112 1.334 . S
C1112 H1083 0.950 . S
C1112 C1111 1.334 . S
C1112 C1113 1.287 . S
C1113 C1112 1.287 . S
C1113 C1114 1.524 . S
C1113 H1116 0.999 . S
C1114 H1084 0.950 . S
C1114 C1113 1.524 . S
C1114 C1115 1.415 . S
C1115 H1085 0.950 . S
C1115 C1110 1.363 . S
C1115 C1114 1.415 . S
H1116 C1113 0.999 . S
H1117 C1098 0.913 . S
H1118 C1136 0.951 . S
H1119 C1138 0.951 . S
H1120 C1140 0.950 . S
H1121 C1141 0.950 . S
H1122 C1143 0.950 . S
H1123 C1146 0.950 . S
H1124 C1147 0.950 . S
H1125 C1149 0.950 . S
H1126 C1150 0.950 . S
H1127 C1151 0.951 . S
H1128 C1153 0.951 . S
H1129 C1155 0.950 . S
H1130 C1156 0.950 . S
H1131 C1158 0.950 . S
H1132 C1161 0.950 . S
H1133 C1162 0.950 . S
H1134 C1164 0.950 . S
H1135 C1165 0.950 . S
C1136 H1118 0.951 . S
C1136 C1137 1.366 . S
C1136 C1138 1.388 . S
C1137 C1136 1.366 . S
C1137 C1141 1.385 . S
C1138 H1119 0.951 . S
C1138 C1136 1.388 . S
C1138 C1139 1.366 . S
C1139 C1138 1.366 . S
C1139 C1140 1.414 . S
C1139 C1142 1.499 . S
C1140 H1120 0.950 . S
C1140 C1139 1.414 . S
C1140 C1141 1.374 . S
C1141 H1121 0.950 . S
C1141 C1137 1.385 . S
C1141 C1140 1.374 . S
C1142 C1139 1.499 . S
C1142 C1143 1.373 . S
C1142 C1144 1.389 . S
C1143 H1122 0.950 . S
C1143 C1142 1.373 . S
C1143 C1159 1.377 . S
C1144 C1142 1.389 . S
C1144 C1145 1.524 . S
C1144 C1158 1.377 . S
C1145 C1144 1.524 . S
C1145 C1146 1.397 . S
C1145 C1150 1.363 . S
C1146 H1123 0.950 . S
C1146 C1145 1.397 . S
C1146 C1147 1.334 . S
C1147 H1124 0.950 . S
C1147 C1146 1.334 . S
C1147 C1148 1.287 . S
C1148 C1147 1.287 . S
C1148 C1149 1.524 . S
C1148 H1167 0.913 . S
C1149 H1125 0.950 . S
C1149 C1148 1.524 . S
C1149 C1150 1.415 . S
C1150 H1126 0.950 . S
C1150 C1145 1.363 . S
C1150 C1149 1.415 . S
C1151 H1127 0.951 . S
C1151 C1152 1.366 . S
C1151 C1153 1.388 . S
C1152 C1151 1.366 . S
C1152 C1156 1.385 . S
C1153 H1128 0.951 . S
C1153 C1151 1.388 . S
C1153 C1154 1.366 . S
C1154 C1153 1.366 . S
C1154 C1155 1.414 . S
C1154 C1157 1.499 . S
C1155 H1129 0.950 . S
C1155 C1154 1.414 . S
C1155 C1156 1.374 . S
C1156 H1130 0.950 . S
C1156 C1152 1.385 . S
C1156 C1155 1.374 . S
C1157 C1154 1.499 . S
C1157 C1158 1.373 . S
C1157 C1159 1.389 . S
C1158 H1131 0.950 . S
C1158 C1144 1.377 . S
C1158 C1157 1.373 . S
C1159 C1143 1.377 . S
C1159 C1157 1.389 . S
C1159 C1160 1.524 . S
C1160 C1159 1.524 . S
C1160 C1161 1.397 . S
C1160 C1165 1.363 . S
C1161 H1132 0.950 . S
C1161 C1160 1.397 . S
C1161 C1162 1.334 . S
C1162 H1133 0.950 . S
C1162 C1161 1.334 . S
C1162 C1163 1.287 . S
C1163 C1162 1.287 . S
C1163 C1164 1.524 . S
C1163 H1166 0.999 . S
C1164 H1134 0.950 . S
C1164 C1163 1.524 . S
C1164 C1165 1.415 . S
C1165 H1135 0.950 . S
C1165 C1160 1.363 . S
C1165 C1164 1.415 . S
H1166 C1163 0.999 . S
H1167 C1148 0.913 . S
H1168 C1186 0.951 . S
H1169 C1188 0.951 . S
H1170 C1190 0.950 . S
H1171 C1191 0.950 . S
H1172 C1193 0.950 . S
H1173 C1196 0.950 . S
H1174 C1197 0.950 . S
H1175 C1199 0.950 . S
H1176 C1200 0.950 . S
H1177 C1201 0.951 . S
H1178 C1203 0.951 . S
H1179 C1205 0.950 . S
H1180 C1206 0.950 . S
H1181 C1208 0.950 . S
H1182 C1211 0.950 . S
H1183 C1212 0.950 . S
H1184 C1214 0.950 . S
H1185 C1215 0.950 . S
C1186 H1168 0.951 . S
C1186 C1187 1.366 . S
C1186 C1188 1.388 . S
C1187 C1186 1.366 . S
C1187 C1191 1.385 . S
C1188 H1169 0.951 . S
C1188 C1186 1.388 . S
C1188 C1189 1.366 . S
C1189 C1188 1.366 . S
C1189 C1190 1.414 . S
C1189 C1192 1.499 . S
C1190 H1170 0.950 . S
C1190 C1189 1.414 . S
C1190 C1191 1.374 . S
C1191 H1171 0.950 . S
C1191 C1187 1.385 . S
C1191 C1190 1.374 . S
C1192 C1189 1.499 . S
C1192 C1193 1.373 . S
C1192 C1194 1.389 . S
C1193 H1172 0.950 . S
C1193 C1192 1.373 . S
C1193 C1209 1.377 . S
C1194 C1192 1.389 . S
C1194 C1195 1.524 . S
C1194 C1208 1.377 . S
C1195 C1194 1.524 . S
C1195 C1196 1.397 . S
C1195 C1200 1.363 . S
C1196 H1173 0.950 . S
C1196 C1195 1.397 . S
C1196 C1197 1.334 . S
C1197 H1174 0.950 . S
C1197 C1196 1.334 . S
C1197 C1198 1.287 . S
C1198 C1197 1.287 . S
C1198 C1199 1.524 . S
C1198 H1217 0.913 . S
C1199 H1175 0.950 . S
C1199 C1198 1.524 . S
C1199 C1200 1.415 . S
C1200 H1176 0.950 . S
C1200 C1195 1.363 . S
C1200 C1199 1.415 . S
C1201 H1177 0.951 . S
C1201 C1202 1.366 . S
C1201 C1203 1.388 . S
C1202 C1201 1.366 . S
C1202 C1206 1.385 . S
C1203 H1178 0.951 . S
C1203 C1201 1.388 . S
C1203 C1204 1.366 . S
C1204 C1203 1.366 . S
C1204 C1205 1.414 . S
C1204 C1207 1.499 . S
C1205 H1179 0.950 . S
C1205 C1204 1.414 . S
C1205 C1206 1.374 . S
C1206 H1180 0.950 . S
C1206 C1202 1.385 . S
C1206 C1205 1.374 . S
C1207 C1204 1.499 . S
C1207 C1208 1.373 . S
C1207 C1209 1.389 . S
C1208 H1181 0.950 . S
C1208 C1194 1.377 . S
C1208 C1207 1.373 . S
C1209 C1193 1.377 . S
C1209 C1207 1.389 . S
C1209 C1210 1.524 . S
C1210 C1209 1.524 . S
C1210 C1211 1.397 . S
C1210 C1215 1.363 . S
C1211 H1182 0.950 . S
C1211 C1210 1.397 . S
C1211 C1212 1.334 . S
C1212 H1183 0.950 . S
C1212 C1211 1.334 . S
C1212 C1213 1.287 . S
C1213 C1212 1.287 . S
C1213 C1214 1.524 . S
C1213 H1216 0.999 . S
C1214 H1184 0.950 . S
C1214 C1213 1.524 . S
C1214 C1215 1.415 . S
C1215 H1185 0.950 . S
C1215 C1210 1.363 . S
C1215 C1214 1.415 . S
H1216 C1213 0.999 . S
H1217 C1198 0.913 . S
H1218 C1236 0.951 . S
H1219 C1238 0.951 . S
H1220 C1240 0.950 . S
H1221 C1241 0.950 . S
H1222 C1243 0.950 . S
H1223 C1246 0.950 . S
H1224 C1247 0.950 . S
H1225 C1249 0.950 . S
H1226 C1250 0.950 . S
H1227 C1251 0.951 . S
H1228 C1253 0.951 . S
H1229 C1255 0.950 . S
H1230 C1256 0.950 . S
H1231 C1258 0.950 . S
H1232 C1261 0.950 . S
H1233 C1262 0.950 . S
H1234 C1264 0.950 . S
H1235 C1265 0.950 . S
C1236 H1218 0.951 . S
C1236 C1237 1.366 . S
C1236 C1238 1.388 . S
C1237 C1236 1.366 . S
C1237 C1241 1.385 . S
C1238 H1219 0.951 . S
C1238 C1236 1.388 . S
C1238 C1239 1.366 . S
C1239 C1238 1.366 . S
C1239 C1240 1.414 . S
C1239 C1242 1.499 . S
C1240 H1220 0.950 . S
C1240 C1239 1.414 . S
C1240 C1241 1.374 . S
C1241 H1221 0.950 . S
C1241 C1237 1.385 . S
C1241 C1240 1.374 . S
C1242 C1239 1.499 . S
C1242 C1243 1.373 . S
C1242 C1244 1.389 . S
C1243 H1222 0.950 . S
C1243 C1242 1.373 . S
C1243 C1259 1.377 . S
C1244 C1242 1.389 . S
C1244 C1245 1.524 . S
C1244 C1258 1.377 . S
C1245 C1244 1.524 . S
C1245 C1246 1.397 . S
C1245 C1250 1.363 . S
C1246 H1223 0.950 . S
C1246 C1245 1.397 . S
C1246 C1247 1.334 . S
C1247 H1224 0.950 . S
C1247 C1246 1.334 . S
C1247 C1248 1.287 . S
C1248 C1247 1.287 . S
C1248 C1249 1.524 . S
C1248 H1267 0.913 . S
C1249 H1225 0.950 . S
C1249 C1248 1.524 . S
C1249 C1250 1.415 . S
C1250 H1226 0.950 . S
C1250 C1245 1.363 . S
C1250 C1249 1.415 . S
C1251 H1227 0.951 . S
C1251 C1252 1.366 . S
C1251 C1253 1.388 . S
C1252 C1251 1.366 . S
C1252 C1256 1.385 . S
C1253 H1228 0.951 . S
C1253 C1251 1.388 . S
C1253 C1254 1.366 . S
C1254 C1253 1.366 . S
C1254 C1255 1.414 . S
C1254 C1257 1.499 . S
C1255 H1229 0.950 . S
C1255 C1254 1.414 . S
C1255 C1256 1.374 . S
C1256 H1230 0.950 . S
C1256 C1252 1.385 . S
C1256 C1255 1.374 . S
C1257 C1254 1.499 . S
C1257 C1258 1.373 . S
C1257 C1259 1.389 . S
C1258 H1231 0.950 . S
C1258 C1244 1.377 . S
C1258 C1257 1.373 . S
C1259 C1243 1.377 . S
C1259 C1257 1.389 . S
C1259 C1260 1.524 . S
C1260 C1259 1.524 . S
C1260 C1261 1.397 . S
C1260 C1265 1.363 . S
C1261 H1232 0.950 . S
C1261 C1260 1.397 . S
C1261 C1262 1.334 . S
C1262 H1233 0.950 . S
C1262 C1261 1.334 . S
C1262 C1263 1.287 . S
C1263 C1262 1.287 . S
C1263 C1264 1.524 . S
C1263 H1266 0.999 . S
C1264 H1234 0.950 . S
C1264 C1263 1.524 . S
C1264 C1265 1.415 . S
C1265 H1235 0.950 . S
C1265 C1260 1.363 . S
C1265 C1264 1.415 . S
H1266 C1263 0.999 . S
H1267 C1248 0.913 . S
H1268 C1286 0.951 . S
H1269 C1288 0.951 . S
H1270 C1290 0.950 . S
H1271 C1291 0.950 . S
H1272 C1293 0.950 . S
H1273 C1296 0.950 . S
H1274 C1297 0.950 . S
H1275 C1299 0.950 . S
H1276 C1300 0.950 . S
H1277 C1301 0.951 . S
H1278 C1303 0.951 . S
H1279 C1305 0.950 . S
H1280 C1306 0.950 . S
H1281 C1308 0.950 . S
H1282 C1311 0.950 . S
H1283 C1312 0.950 1_655 S
H1284 C1314 0.950 . S
H1285 C1315 0.950 . S
C1286 H1268 0.951 . S
C1286 C1287 1.366 . S
C1286 C1288 1.388 . S
C1287 C1286 1.366 . S
C1287 C1291 1.385 . S
C1288 H1269 0.951 . S
C1288 C1286 1.388 . S
C1288 C1289 1.366 . S
C1289 C1288 1.366 . S
C1289 C1290 1.414 . S
C1289 C1292 1.499 . S
C1290 H1270 0.950 . S
C1290 C1289 1.414 . S
C1290 C1291 1.374 . S
C1291 H1271 0.950 . S
C1291 C1287 1.385 . S
C1291 C1290 1.374 . S
C1292 C1289 1.499 . S
C1292 C1293 1.373 . S
C1292 C1294 1.389 . S
C1293 H1272 0.950 . S
C1293 C1292 1.373 . S
C1293 C1309 1.377 . S
C1294 C1292 1.389 . S
C1294 C1295 1.524 . S
C1294 C1308 1.377 . S
C1295 C1294 1.524 . S
C1295 C1296 1.397 . S
C1295 C1300 1.363 . S
C1296 H1273 0.950 . S
C1296 C1295 1.397 . S
C1296 C1297 1.334 . S
C1297 H1274 0.950 . S
C1297 C1296 1.334 . S
C1297 C1298 1.287 . S
C1298 C1297 1.287 . S
C1298 C1299 1.524 . S
C1298 H1317 0.913 . S
C1299 H1275 0.950 . S
C1299 C1298 1.524 . S
C1299 C1300 1.415 . S
C1300 H1276 0.950 . S
C1300 C1295 1.363 . S
C1300 C1299 1.415 . S
C1301 H1277 0.951 . S
C1301 C1302 1.366 . S
C1301 C1303 1.388 . S
C1302 C1301 1.366 . S
C1302 C1306 1.385 . S
C1303 H1278 0.951 . S
C1303 C1301 1.388 . S
C1303 C1304 1.366 . S
C1304 C1303 1.366 . S
C1304 C1305 1.414 . S
C1304 C1307 1.499 . S
C1305 H1279 0.950 . S
C1305 C1304 1.414 . S
C1305 C1306 1.374 . S
C1306 H1280 0.950 . S
C1306 C1302 1.385 . S
C1306 C1305 1.374 . S
C1307 C1304 1.499 . S
C1307 C1308 1.373 . S
C1307 C1309 1.389 . S
C1308 H1281 0.950 . S
C1308 C1294 1.377 . S
C1308 C1307 1.373 . S
C1309 C1293 1.377 . S
C1309 C1307 1.389 . S
C1309 C1310 1.524 . S
C1310 C1309 1.524 . S
C1310 C1311 1.397 . S
C1310 C1315 1.363 . S
C1311 H1282 0.950 . S
C1311 C1310 1.397 . S
C1311 C1312 1.334 . S
C1312 H1283 0.950 1_455 S
C1312 C1311 1.334 . S
C1312 C1313 1.287 1_455 S
C1313 C1312 1.287 1_655 S
C1313 C1314 1.524 1_655 S
C1313 H1316 0.999 . S
C1314 H1284 0.950 . S
C1314 C1313 1.524 1_455 S
C1314 C1315 1.415 . S
C1315 H1285 0.950 . S
C1315 C1310 1.363 . S
C1315 C1314 1.415 . S
H1316 C1313 0.999 . S
H1317 C1298 0.913 . S
H1318 C1336 0.951 . S
H1319 C1338 0.951 . S
H1320 C1340 0.950 . S
H1321 C1341 0.950 . S
H1322 C1343 0.950 . S
H1323 C1346 0.950 . S
H1324 C1347 0.950 . S
H1325 C1349 0.950 . S
H1326 C1350 0.950 . S
H1327 C1351 0.951 . S
H1328 C1353 0.951 . S
H1329 C1355 0.950 . S
H1330 C1356 0.950 . S
H1331 C1358 0.950 . S
H1332 C1361 0.950 . S
H1333 C1362 0.950 . S
H1334 C1364 0.950 . S
H1335 C1365 0.950 . S
C1336 H1318 0.951 . S
C1336 C1337 1.366 . S
C1336 C1338 1.388 . S
C1337 C1336 1.366 . S
C1337 C1341 1.385 . S
C1338 H1319 0.951 . S
C1338 C1336 1.388 . S
C1338 C1339 1.366 . S
C1339 C1338 1.366 . S
C1339 C1340 1.414 . S
C1339 C1342 1.499 . S
C1340 H1320 0.950 . S
C1340 C1339 1.414 . S
C1340 C1341 1.374 . S
C1341 H1321 0.950 . S
C1341 C1337 1.385 . S
C1341 C1340 1.374 . S
C1342 C1339 1.499 . S
C1342 C1343 1.373 . S
C1342 C1344 1.389 . S
C1343 H1322 0.950 . S
C1343 C1342 1.373 . S
C1343 C1359 1.377 . S
C1344 C1342 1.389 . S
C1344 C1345 1.524 . S
C1344 C1358 1.377 . S
C1345 C1344 1.524 . S
C1345 C1346 1.397 . S
C1345 C1350 1.363 . S
C1346 H1323 0.950 . S
C1346 C1345 1.397 . S
C1346 C1347 1.334 . S
C1347 H1324 0.950 . S
C1347 C1346 1.334 . S
C1347 C1348 1.287 . S
C1348 C1347 1.287 . S
C1348 C1349 1.524 . S
C1348 H1367 0.913 . S
C1349 H1325 0.950 . S
C1349 C1348 1.524 . S
C1349 C1350 1.415 . S
C1350 H1326 0.950 . S
C1350 C1345 1.363 . S
C1350 C1349 1.415 . S
C1351 H1327 0.951 . S
C1351 C1352 1.366 . S
C1351 C1353 1.388 . S
C1352 C1351 1.366 . S
C1352 C1356 1.385 . S
C1353 H1328 0.951 . S
C1353 C1351 1.388 . S
C1353 C1354 1.366 . S
C1354 C1353 1.366 . S
C1354 C1355 1.414 . S
C1354 C1357 1.499 . S
C1355 H1329 0.950 . S
C1355 C1354 1.414 . S
C1355 C1356 1.374 . S
C1356 H1330 0.950 . S
C1356 C1352 1.385 . S
C1356 C1355 1.374 . S
C1357 C1354 1.499 . S
C1357 C1358 1.373 . S
C1357 C1359 1.389 . S
C1358 H1331 0.950 . S
C1358 C1344 1.377 . S
C1358 C1357 1.373 . S
C1359 C1343 1.377 . S
C1359 C1357 1.389 . S
C1359 C1360 1.524 . S
C1360 C1359 1.524 . S
C1360 C1361 1.397 . S
C1360 C1365 1.363 . S
C1361 H1332 0.950 . S
C1361 C1360 1.397 . S
C1361 C1362 1.334 . S
C1362 H1333 0.950 . S
C1362 C1361 1.334 . S
C1362 C1363 1.287 . S
C1363 C1362 1.287 . S
C1363 C1364 1.524 . S
C1363 H1366 0.999 . S
C1364 H1334 0.950 . S
C1364 C1363 1.524 . S
C1364 C1365 1.415 . S
C1365 H1335 0.950 . S
C1365 C1360 1.363 . S
C1365 C1364 1.415 . S
H1366 C1363 0.999 . S
H1367 C1348 0.913 . S
C187 C4 1.652 . S
C202 C107 1.639 . S
C237 C16 1.604 . S
C252 C110 1.549 . S
C302 C146 1.226 . S
C287 C32 1.251 . S
C337 C43 1.478 . S
C352 C166 1.470 . S
C402 C120 2.231 . S
C387 C5 2.248 . S
C452 C97 1.284 . S
C437 C21 1.316 . S
C502 C150 1.353 . S
C487 C27 1.422 . S
C552 C130 1.222 . S
C537 C37 1.312 . S
C587 C10 1.371 . S
C602 C160 1.317 . S
C652 C126 1.770 1_556 S
C637 C26 1.793 . S
C687 C38 1.414 . S
C702 C92 1.372 . S
C737 C15 1.502 . S
C752 C140 1.447 . S
C802 C106 1.758 . S
C787 C48 1.764 . S
C837 C59 1.355 . S
C852 C112 1.297 . S
C887 C76 1.603 . S
C902 C147 1.578 . S
C937 C87 1.281 . S
C952 C167 1.254 . S
C987 C54 1.556 . S
C1002 C117 1.519 . S
C1052 C100 2.071 . S
C1037 C60 2.078 . S
C1102 C152 1.354 . S
C1087 C71 1.469 . S
C1152 C132 1.202 . S
C1137 C82 1.242 . S
C1187 C49 1.637 . S
C1202 C157 1.562 . S
C1252 C127 1.307 . S
C1237 C70 1.320 . S
C1302 C90 1.744 . S
C1287 C81 1.801 . S
C1337 C65 1.320 . S
C1352 C137 1.284 . S
