# Generated by pormake.
# Topology nom, (4,4)-cn, num edge types: 1
# Building blocks:
#     Node 0, Type 0, BuildingBlock: NAHDIM_clean_linker_0, # of connection points: 4
#     Node 1, Type 0, BuildingBlock: NAHDIM_clean_linker_0, # of connection points: 4
#     Node 2, Type 0, BuildingBlock: NAHDIM_clean_linker_0, # of connection points: 4
#     Node 3, Type 0, BuildingBlock: NAHDIM_clean_linker_0, # of connection points: 4
#     Node 4, Type 0, BuildingBlock: NAHDIM_clean_linker_0, # of connection points: 4
#     Node 5, Type 0, BuildingBlock: NAHDIM_clean_linker_0, # of connection points: 4
#     Node 6, Type 1, BuildingBlock: QUQFOY_clean_sbu_1, # of connection points: 4
#     Node 7, Type 1, BuildingBlock: QUQFOY_clean_sbu_1, # of connection points: 4
#     Node 8, Type 1, BuildingBlock: QUQFOY_clean_sbu_1, # of connection points: 4
#     Node 9, Type 1, BuildingBlock: QUQFOY_clean_sbu_1, # of connection points: 4
#     Node 10, Type 1, BuildingBlock: QUQFOY_clean_sbu_1, # of connection points: 4
#     Node 11, Type 1, BuildingBlock: QUQFOY_clean_sbu_1, # of connection points: 4
#     Edge 12, Type (0, 1), None
#     Edge 13, Type (0, 1), None
#     Edge 14, Type (0, 1), None
#     Edge 15, Type (0, 1), None
#     Edge 16, Type (0, 1), None
#     Edge 17, Type (0, 1), None
#     Edge 18, Type (0, 1), None
#     Edge 19, Type (0, 1), None
#     Edge 20, Type (0, 1), None
#     Edge 21, Type (0, 1), None
#     Edge 22, Type (0, 1), None
#     Edge 23, Type (0, 1), None
#     Edge 24, Type (0, 1), None
#     Edge 25, Type (0, 1), None
#     Edge 26, Type (0, 1), None
#     Edge 27, Type (0, 1), None
#     Edge 28, Type (0, 1), None
#     Edge 29, Type (0, 1), None
#     Edge 30, Type (0, 1), None
#     Edge 31, Type (0, 1), None
#     Edge 32, Type (0, 1), None
#     Edge 33, Type (0, 1), None
#     Edge 34, Type (0, 1), None
#     Edge 35, Type (0, 1), None
# Relax obj value: 0.088
# Max RMSD: 0.167
# Mean RMSD: 0.150
data_MOF--net-nom--node1-QUQFOY_clean_sbu_1--node2-NAHDIM_clean_linker_0--edge1-none
_symmetry_space_group_name_H-M    P1
_symmetry_Int_Tables_number       1
_symmetry_cell_setting            triclinic
loop_
_symmetry_equiv_pos_as_xyz
'x, y, z'
_cell_length_a     36.706068
_cell_length_b     36.876201
_cell_length_c     39.93779
_cell_angle_alpha  90.192468
_cell_angle_beta   90.175761
_cell_angle_gamma 119.99934
loop_
_atom_site_label
_atom_site_type_symbol
_atom_site_fract_x
_atom_site_fract_y
_atom_site_fract_z
_atom_type_partial_charge
C0 C 0.26581 0.63906 0.18895 0.0
C1 C 0.26481 0.65753 0.22307 0.0
C2 C 0.19135 0.63803 0.23471 0.0
C3 C 0.17612 0.59522 0.24054 0.0
C4 C 0.13469 0.56907 0.25144 0.0
C5 C 0.10814 0.5861 0.25679 0.0
C6 C 0.12321 0.62898 0.2505 0.0
C7 C 0.16459 0.6543 0.23936 0.0
C8 C 0.1193 0.52329 0.25746 0.0
C9 C 0.0957 0.64813 0.25587 0.0
C10 C 0.90598 0.50458 0.10425 0.0
C11 C 0.86719 0.47313 0.12408 0.0
C12 C 0.90225 0.46673 0.17466 0.0
C13 C 0.91328 0.5059 0.18882 0.0
C14 C 0.94066 0.5215 0.21648 0.0
C15 C 0.95734 0.49752 0.23024 0.0
C16 C 0.94501 0.45742 0.21688 0.0
C17 C 0.91735 0.44246 0.18939 0.0
C18 C 0.95267 0.56412 0.23049 0.0
C19 C 0.96209 0.43096 0.23099 0.0
C20 C 0.83034 0.40755 0.43347 0.0
C21 C 0.85091 0.45087 0.43795 0.0
C22 C 0.89124 0.47661 0.42492 0.0
C23 C 0.91211 0.45816 0.40834 0.0
C24 C 0.89193 0.41397 0.4051 0.0
C25 C 0.85084 0.38917 0.4172 0.0
C26 C 0.91141 0.52346 0.42904 0.0
C27 C 0.91372 0.39283 0.38912 0.0
C28 C 0.22945 0.6504 0.47008 0.0
C29 C 0.2047 0.61551 0.49534 0.0
C30 C 0.13167 0.58951 0.4788 0.0
C31 C 0.10607 0.60662 0.47191 0.0
C32 C 0.07232 0.58709 0.44924 0.0
C33 C 0.06345 0.54892 0.43379 0.0
C34 C 0.08793 0.53032 0.44198 0.0
C35 C 0.12188 0.55085 0.46437 0.0
C36 C 0.04677 0.60773 0.44118 0.0
C37 C 0.07859 0.48908 0.42663 0.0
C38 C 0.06483 0.55927 0.26956 0.0
C39 C 0.03191 0.54087 0.24635 0.0
C40 C 0.99027 0.51579 0.25669 0.0
C41 C 0.98102 0.50855 0.29121 0.0
C42 C 0.93949 0.48398 0.30257 0.0
C43 C 0.93089 0.47665 0.33661 0.0
C44 C 0.96352 0.49325 0.36058 0.0
C45 C 0.95531 0.4851 0.3952 0.0
C46 C 0.98853 0.50321 0.4183 0.0
C47 C 0.02987 0.52954 0.4079 0.0
C48 C 0.03877 0.53745 0.37342 0.0
C49 C 0.08011 0.5635 0.36212 0.0
C50 C 0.0887 0.57073 0.32815 0.0
C51 C 0.05629 0.55237 0.30415 0.0
C52 C 0.01427 0.52663 0.31499 0.0
C53 C 0.00551 0.51903 0.34968 0.0
C54 C 0.72749 0.31855 0.44517 0.0
C55 C 0.75602 0.35889 0.42618 0.0
O56 O 0.23124 0.66473 0.2244 0.0
O57 O 0.16515 0.61091 0.49965 0.0
O58 O 0.79105 0.38385 0.44577 0.0
O59 O 0.87802 0.45146 0.1466 0.0
H60 H 0.26264 0.63595 0.24336 0.0
H61 H 0.26895 0.66082 0.16851 0.0
H62 H 0.29267 0.63319 0.18779 0.0
H63 H 0.23635 0.60884 0.18478 0.0
H64 H 0.19615 0.5819 0.23649 0.0
H65 H 0.1765 0.68725 0.23457 0.0
H66 H 0.08998 0.50374 0.2429 0.0
H67 H 0.14298 0.51431 0.25037 0.0
H68 H 0.11165 0.51611 0.28436 0.0
H69 H 0.1126 0.68232 0.25091 0.0
H70 H 0.06783 0.63268 0.23905 0.0
H71 H 0.08405 0.64276 0.28203 0.0
H72 H 0.85366 0.49016 0.13739 0.0
H73 H 0.89757 0.52249 0.08659 0.0
H74 H 0.93079 0.52748 0.12132 0.0
H75 H 0.91921 0.48799 0.08988 0.0
H76 H 0.90124 0.52479 0.17819 0.0
H77 H 0.90835 0.41212 0.17855 0.0
H78 H 0.9484 0.56236 0.25807 0.0
H79 H 0.98644 0.58615 0.22545 0.0
H80 H 0.93381 0.57703 0.21931 0.0
H81 H 0.94896 0.40019 0.21806 0.0
H82 H 0.99688 0.44786 0.22862 0.0
H83 H 0.95463 0.42549 0.25806 0.0
H84 H 0.76513 0.35015 0.4022 0.0
H85 H 0.83482 0.46456 0.45105 0.0
H86 H 0.83491 0.3554 0.4146 0.0
H87 H 0.9269 0.53969 0.40549 0.0
H88 H 0.88821 0.53298 0.43638 0.0
H89 H 0.93589 0.53413 0.4489 0.0
H90 H 0.89715 0.35868 0.39425 0.0
H91 H 0.91475 0.39717 0.3616 0.0
H92 H 0.94665 0.407 0.39834 0.0
H93 H 0.2028 0.58629 0.48577 0.0
H94 H 0.26159 0.65509 0.46685 0.0
H95 H 0.21327 0.64176 0.44536 0.0
H96 H 0.23195 0.68031 0.47857 0.0
H97 H 0.11347 0.63611 0.4836 0.0
H98 H 0.14021 0.53626 0.47075 0.0
H99 H 0.04768 0.61347 0.41383 0.0
H100 H 0.01344 0.58651 0.44805 0.0
H101 H 0.05839 0.63796 0.45468 0.0
H102 H 0.09833 0.47704 0.43759 0.0
H103 H 0.04493 0.46537 0.43021 0.0
H104 H 0.08439 0.49299 0.39926 0.0
H105 H 0.03878 0.54627 0.21983 0.0
H106 H 0.9132 0.47012 0.28523 0.0
H107 H 0.8983 0.45762 0.34388 0.0
H108 H 0.98207 0.49702 0.44481 0.0
H109 H 0.10639 0.57849 0.37938 0.0
H110 H 0.12116 0.5909 0.32097 0.0
H111 H 0.71633 0.32561 0.46883 0.0
H112 H 0.69987 0.29708 0.42953 0.0
H113 H 0.74518 0.30226 0.45139 0.0
C114 C 0.35856 0.79472 0.64246 0.0
C115 C 0.34623 0.78814 0.60535 0.0
C116 C 0.35591 0.85542 0.58514 0.0
C117 C 0.40018 0.87687 0.58475 0.0
C118 C 0.42308 0.91801 0.57269 0.0
C119 C 0.40136 0.93819 0.56104 0.0
C120 C 0.35691 0.91713 0.56222 0.0
C121 C 0.33481 0.87596 0.5742 0.0
C122 C 0.47049 0.93978 0.57196 0.0
C123 C 0.33277 0.93792 0.55037 0.0
C124 C 0.58401 0.28022 0.62205 0.0
C125 C 0.57813 0.23703 0.62978 0.0
C126 C 0.51755 0.16898 0.61437 0.0
C127 C 0.47527 0.1499 0.60481 0.0
C128 C 0.45584 0.11156 0.58747 0.0
C129 C 0.47939 0.09184 0.57974 0.0
C130 C 0.52128 0.10944 0.59151 0.0
C131 C 0.53992 0.14778 0.60887 0.0
C132 C 0.41085 0.09322 0.57585 0.0
C133 C 0.54689 0.0886 0.58443 0.0
C134 C 0.53934 0.21164 0.39081 0.0
C135 C 0.49544 0.18537 0.38946 0.0
C136 C 0.47714 0.14222 0.395 0.0
C137 C 0.50328 0.12504 0.40163 0.0
C138 C 0.54749 0.15075 0.39979 0.0
C139 C 0.56497 0.19386 0.3943 0.0
C140 C 0.42983 0.11541 0.39591 0.0
C141 C 0.57621 0.13319 0.40597 0.0
C142 C 0.35931 0.80148 0.35146 0.0
C143 C 0.39839 0.83076 0.3312 0.0
C144 C 0.41133 0.90129 0.34102 0.0
C145 C 0.38597 0.91923 0.34538 0.0
C146 C 0.39882 0.95427 0.3663 0.0
C147 C 0.4384 0.97212 0.38259 0.0
C148 C 0.46514 0.9554 0.37682 0.0
C149 C 0.45133 0.92015 0.35603 0.0
C150 C 0.36977 0.97162 0.37165 0.0
C151 C 0.50804 0.97444 0.39304 0.0
C152 C 0.42498 0.98076 0.54648 0.0
C153 C 0.44064 0.01529 0.56816 0.0
C154 C 0.46229 0.05613 0.55579 0.0
C155 C 0.468 0.06289 0.52089 0.0
C156 C 0.48855 0.10357 0.50761 0.0
C157 C 0.49379 0.11 0.47331 0.0
C158 C 0.47934 0.07603 0.45086 0.0
C159 C 0.48463 0.08237 0.41589 0.0
C160 C 0.47093 0.04808 0.39427 0.0
C161 C 0.45126 0.0072 0.40669 0.0
C162 C 0.44453 0.00018 0.44154 0.0
C163 C 0.42374 0.95946 0.45481 0.0
C164 C 0.41725 0.95297 0.48912 0.0
C165 C 0.43151 0.98695 0.51155 0.0
C166 C 0.45281 0.02819 0.49873 0.0
C167 C 0.45894 0.03479 0.46369 0.0
C168 C 0.52541 0.27076 0.43555 0.0
C169 C 0.53944 0.27771 0.39877 0.0
O170 O 0.33225 0.81522 0.5958 0.0
O171 O 0.39654 0.86603 0.32208 0.0
O172 O 0.55801 0.25412 0.3904 0.0
O173 O 0.53554 0.20787 0.62832 0.0
H174 H 0.37368 0.793 0.59021 0.0
H175 H 0.38439 0.82728 0.64696 0.0
H176 H 0.33128 0.7891 0.65815 0.0
H177 H 0.36972 0.77303 0.65035 0.0
H178 H 0.41722 0.8619 0.5937 0.0
H179 H 0.30073 0.85936 0.57482 0.0
H180 H 0.48386 0.96859 0.58761 0.0
H181 H 0.48275 0.91956 0.5813 0.0
H182 H 0.48172 0.94946 0.54596 0.0
H183 H 0.29849 0.91846 0.55516 0.0
H184 H 0.34482 0.96868 0.5631 0.0
H185 H 0.33757 0.94388 0.52306 0.0
H186 H 0.59601 0.23061 0.61046 0.0
H187 H 0.57234 0.28024 0.59636 0.0
H188 H 0.56622 0.28851 0.64003 0.0
H189 H 0.61788 0.30446 0.62336 0.0
H190 H 0.45797 0.16603 0.60981 0.0
H191 H 0.57208 0.16126 0.61759 0.0
H192 H 0.3924 0.05965 0.58282 0.0
H193 H 0.39555 0.11001 0.5867 0.0
H194 H 0.41002 0.09499 0.54814 0.0
H195 H 0.57787 0.10447 0.59743 0.0
H196 H 0.52931 0.05536 0.59237 0.0
H197 H 0.55231 0.08894 0.55706 0.0
H198 H 0.51188 0.26954 0.38231 0.0
H199 H 0.47523 0.19851 0.38543 0.0
H200 H 0.59883 0.21423 0.39457 0.0
H201 H 0.41969 0.10474 0.42194 0.0
H202 H 0.4139 0.13256 0.38716 0.0
H203 H 0.41936 0.08711 0.38002 0.0
H204 H 0.60935 0.15583 0.39936 0.0
H205 H 0.57503 0.12514 0.43286 0.0
H206 H 0.56544 0.10396 0.39122 0.0
H207 H 0.42641 0.83903 0.34713 0.0
H208 H 0.36003 0.77271 0.35848 0.0
H209 H 0.35845 0.81748 0.37481 0.0
H210 H 0.33017 0.7925 0.33682 0.0
H211 H 0.35545 0.90483 0.33318 0.0
H212 H 0.47193 0.90758 0.35139 0.0
H213 H 0.36263 0.97092 0.39873 0.0
H214 H 0.38555 0.00482 0.36359 0.0
H215 H 0.33973 0.95376 0.35756 0.0
H216 H 0.52631 0.95976 0.38404 0.0
H217 H 0.52621 0.00856 0.38788 0.0
H218 H 0.50449 0.97056 0.4206 0.0
H219 H 0.43593 0.01034 0.59492 0.0
H220 H 0.50064 0.13105 0.52352 0.0
H221 H 0.50959 0.14208 0.46473 0.0
H222 H 0.47547 0.05323 0.36751 0.0
H223 H 0.41204 0.93209 0.4388 0.0
H224 H 0.40101 0.92093 0.49783 0.0
H225 H 0.55233 0.27754 0.45234 0.0
H226 H 0.51272 0.29147 0.44264 0.0
H227 H 0.50014 0.238 0.43974 0.0
C228 C 0.66079 0.3684 0.80746 0.0
C229 C 0.63355 0.35932 0.77611 0.0
C230 C 0.58712 0.38889 0.77079 0.0
C231 C 0.61677 0.431 0.76463 0.0
C232 C 0.60398 0.45858 0.75222 0.0
C233 C 0.56082 0.44344 0.74546 0.0
C234 C 0.53103 0.40093 0.75164 0.0
C235 C 0.54458 0.37443 0.76476 0.0
C236 C 0.63637 0.50394 0.74675 0.0
C237 C 0.48477 0.3835 0.7447 0.0
C238 C 0.42852 0.52548 0.89523 0.0
C239 C 0.42188 0.55505 0.87227 0.0
C240 C 0.46737 0.56013 0.82507 0.0
C241 C 0.44087 0.51988 0.81175 0.0
C242 C 0.4546 0.504 0.78569 0.0
C243 C 0.49557 0.52881 0.77267 0.0
C244 C 0.52188 0.56969 0.78542 0.0
C245 C 0.5073 0.58485 0.81135 0.0
C246 C 0.4255 0.4605 0.77232 0.0
C247 C 0.56562 0.59713 0.77192 0.0
C248 C 0.41733 0.58223 0.57252 0.0
C249 C 0.40254 0.53927 0.5732 0.0
C250 C 0.428 0.52353 0.58468 0.0
C251 C 0.46981 0.55171 0.59497 0.0
C252 C 0.48558 0.59539 0.59327 0.0
C253 C 0.45903 0.61028 0.58235 0.0
C254 C 0.4101 0.47673 0.58597 0.0
C255 C 0.53041 0.62626 0.60308 0.0
C256 C 0.6865 0.47674 0.50866 0.0
C257 C 0.65392 0.47279 0.48238 0.0
C258 C 0.59624 0.46508 0.51877 0.0
C259 C 0.55628 0.43653 0.53076 0.0
C260 C 0.53673 0.44813 0.55536 0.0
C261 C 0.55804 0.48933 0.56855 0.0
C262 C 0.59824 0.51863 0.55622 0.0
C263 C 0.61679 0.50637 0.53125 0.0
C264 C 0.49339 0.41636 0.56732 0.0
C265 C 0.62168 0.56293 0.56958 0.0
C266 C 0.54619 0.47197 0.733 0.0
C267 C 0.53016 0.4886 0.7564 0.0
C268 C 0.51138 0.51172 0.74628 0.0
C269 C 0.50776 0.51796 0.71179 0.0
C270 C 0.48668 0.53872 0.70064 0.0
C271 C 0.48255 0.54396 0.66663 0.0
C272 C 0.50046 0.5298 0.64248 0.0
C273 C 0.49653 0.53508 0.60785 0.0
C274 C 0.51586 0.52183 0.58458 0.0
C275 C 0.53807 0.50212 0.59482 0.0
C276 C 0.54079 0.49488 0.62928 0.0
C277 C 0.56112 0.47335 0.64044 0.0
C278 C 0.56254 0.46537 0.67434 0.0
C279 C 0.54501 0.47993 0.69849 0.0
C280 C 0.52526 0.50259 0.68786 0.0
C281 C 0.52236 0.50928 0.65319 0.0
C282 C 0.41415 0.66235 0.5377 0.0
C283 C 0.39315 0.6333 0.56746 0.0
O284 O 0.59804 0.36173 0.78385 0.0
O285 O 0.61368 0.45122 0.49559 0.0
O286 O 0.39047 0.595 0.56168 0.0
O287 O 0.45617 0.5762 0.85125 0.0
H288 H 0.65296 0.3824 0.75663 0.0
H289 H 0.67023 0.40018 0.81716 0.0
H290 H 0.64309 0.34516 0.8273 0.0
H291 H 0.68979 0.3673 0.80155 0.0
H292 H 0.64965 0.44259 0.77031 0.0
H293 H 0.52196 0.34197 0.77 0.0
H294 H 0.62761 0.52432 0.76105 0.0
H295 H 0.66842 0.51126 0.75457 0.0
H296 H 0.63707 0.51171 0.71985 0.0
H297 H 0.46639 0.34891 0.74736 0.0
H298 H 0.47214 0.39759 0.76252 0.0
H299 H 0.48002 0.39183 0.71899 0.0
H300 H 0.39255 0.53701 0.85732 0.0
H301 H 0.40098 0.50803 0.91187 0.0
H302 H 0.4322 0.50209 0.88031 0.0
H303 H 0.45723 0.54349 0.91088 0.0
H304 H 0.40961 0.50048 0.82165 0.0
H305 H 0.52743 0.61595 0.82155 0.0
H306 H 0.42296 0.46125 0.74465 0.0
H307 H 0.43875 0.44003 0.77827 0.0
H308 H 0.39348 0.44644 0.78319 0.0
H309 H 0.58228 0.62815 0.78462 0.0
H310 H 0.58439 0.58131 0.77514 0.0
H311 H 0.5639 0.60205 0.74468 0.0
H312 H 0.41161 0.6486 0.59055 0.0
H313 H 0.37049 0.51796 0.56521 0.0
H314 H 0.47119 0.64369 0.58119 0.0
H315 H 0.41467 0.46739 0.61135 0.0
H316 H 0.37603 0.4591 0.57965 0.0
H317 H 0.42709 0.46757 0.56797 0.0
H318 H 0.53908 0.65906 0.59734 0.0
H319 H 0.53472 0.62388 0.63034 0.0
H320 H 0.55233 0.61869 0.58978 0.0
H321 H 0.66111 0.50448 0.47423 0.0
H322 H 0.71889 0.49566 0.49868 0.0
H323 H 0.68457 0.49254 0.53169 0.0
H324 H 0.68098 0.44524 0.51567 0.0
H325 H 0.54046 0.40487 0.52084 0.0
H326 H 0.64739 0.52918 0.5219 0.0
H327 H 0.49474 0.41009 0.59433 0.0
H328 H 0.47174 0.42902 0.56453 0.0
H329 H 0.48016 0.38628 0.55331 0.0
H330 H 0.65363 0.58138 0.5587 0.0
H331 H 0.60363 0.57895 0.56379 0.0
H332 H 0.62463 0.56258 0.59724 0.0
H333 H 0.53162 0.4828 0.78286 0.0
H334 H 0.47259 0.55061 0.71808 0.0
H335 H 0.46542 0.55962 0.65954 0.0
H336 H 0.51298 0.52632 0.55806 0.0
H337 H 0.5756 0.46185 0.62302 0.0
H338 H 0.57796 0.44802 0.68141 0.0
H339 H 0.39534 0.6487 0.51448 0.0
H340 H 0.4173 0.69351 0.54244 0.0
H341 H 0.44609 0.66694 0.53371 0.0
C342 C 0.25236 0.60092 0.98427 0.0
C343 C 0.2606 0.5886 0.94964 0.0
C344 C 0.19261 0.52936 0.93107 0.0
C345 C 0.17233 0.55261 0.92522 0.0
C346 C 0.13107 0.53315 0.91249 0.0
C347 C 0.1098 0.48976 0.90523 0.0
C348 C 0.13002 0.46629 0.91123 0.0
C349 C 0.17111 0.48643 0.92421 0.0
C350 C 0.1102 0.55896 0.90658 0.0
C351 C 0.10828 0.41996 0.90371 0.0
C352 C 0.77142 0.30385 0.96215 0.0
C353 C 0.80814 0.34703 0.97152 0.0
C354 C 0.88119 0.36622 0.96172 0.0
C355 C 0.90479 0.34692 0.95477 0.0
C356 C 0.94199 0.36755 0.93612 0.0
C357 C 0.95617 0.40879 0.92483 0.0
C358 C 0.93409 0.42961 0.93402 0.0
C359 C 0.89674 0.40807 0.95238 0.0
C360 C 0.96513 0.34467 0.92721 0.0
C361 C 0.94911 0.47406 0.9233 0.0
C362 C 0.832 0.34027 0.73151 0.0
C363 C 0.85972 0.3243 0.73136 0.0
C364 C 0.90253 0.35012 0.73899 0.0
C365 C 0.91813 0.3929 0.7465 0.0
C366 C 0.89105 0.40977 0.74421 0.0
C367 C 0.84825 0.38315 0.7367 0.0
C368 C 0.93073 0.33126 0.7406 0.0
C369 C 0.90689 0.45545 0.75139 0.0
C370 C 0.24379 0.57928 0.69712 0.0
C371 C 0.21285 0.58473 0.67487 0.0
C372 C 0.14286 0.52586 0.68597 0.0
C373 C 0.12531 0.48296 0.69147 0.0
C374 C 0.08985 0.46116 0.71189 0.0
C375 C 0.07116 0.48286 0.72654 0.0
C376 C 0.08735 0.52579 0.71948 0.0
C377 C 0.12303 0.54686 0.69919 0.0
C378 C 0.07306 0.41528 0.7186 0.0
C379 C 0.0674 0.54954 0.73395 0.0
C380 C 0.06667 0.46894 0.89077 0.0
C381 C 0.03257 0.44986 0.91268 0.0
C382 C 0.99126 0.42842 0.90055 0.0
C383 C 0.98353 0.42563 0.86565 0.0
C384 C 0.94239 0.40325 0.85262 0.0
C385 C 0.93502 0.40074 0.81832 0.0
C386 C 0.96846 0.42076 0.79561 0.0
C387 C 0.96118 0.41842 0.76064 0.0
C388 C 0.99509 0.43899 0.73876 0.0
C389 C 0.03641 0.46145 0.7509 0.0
C390 C 0.04433 0.46344 0.78577 0.0
C391 C 0.08557 0.48487 0.79877 0.0
C392 C 0.093 0.4866 0.8331 0.0
C393 C 0.0595 0.46727 0.85581 0.0
C394 C 0.01774 0.44549 0.84325 0.0
C395 C 0.01017 0.44332 0.80819 0.0
C396 C 0.76831 0.25981 0.76786 0.0
C397 C 0.76678 0.27217 0.73139 0.0
O398 O 0.23249 0.54665 0.94343 0.0
O399 O 0.17848 0.54584 0.66748 0.0
O400 O 0.78954 0.31536 0.72799 0.0
O401 O 0.8435 0.34346 0.97708 0.0
H402 H 0.25795 0.60875 0.93023 0.0
H403 H 0.22021 0.59654 0.9854 0.0
H404 H 0.25527 0.58134 0.00404 0.0
H405 H 0.2752 0.63442 0.9896 0.0
H406 H 0.18825 0.58581 0.93059 0.0
H407 H 0.18688 0.46871 0.92888 0.0
H408 H 0.07988 0.54508 0.92023 0.0
H409 H 0.13022 0.59202 0.91482 0.0
H410 H 0.10304 0.55853 0.87951 0.0
H411 H 0.12865 0.40633 0.90913 0.0
H412 H 0.07926 0.40337 0.91891 0.0
H413 H 0.09872 0.41427 0.87694 0.0
H414 H 0.81258 0.36814 0.95013 0.0
H415 H 0.77886 0.29258 0.93874 0.0
H416 H 0.76546 0.28082 0.9823 0.0
H417 H 0.7424 0.30557 0.95781 0.0
H418 H 0.89293 0.3149 0.96273 0.0
H419 H 0.87955 0.42381 0.95909 0.0
H420 H 0.96573 0.34161 0.89958 0.0
H421 H 0.99824 0.36299 0.93604 0.0
H422 H 0.9504 0.31293 0.9384 0.0
H423 H 0.93158 0.48756 0.93587 0.0
H424 H 0.98318 0.49412 0.92892 0.0
H425 H 0.94489 0.47477 0.89582 0.0
H426 H 0.77944 0.25702 0.71461 0.0
H427 H 0.84809 0.29148 0.72632 0.0
H428 H 0.82692 0.39545 0.73623 0.0
H429 H 0.94245 0.33348 0.76662 0.0
H430 H 0.91428 0.29787 0.73266 0.0
H431 H 0.95851 0.34914 0.72432 0.0
H432 H 0.88329 0.46475 0.74481 0.0
H433 H 0.91458 0.4618 0.77845 0.0
H434 H 0.93623 0.47523 0.7372 0.0
H435 H 0.2035 0.60496 0.68873 0.0
H436 H 0.27204 0.61016 0.70256 0.0
H437 H 0.22854 0.56487 0.72126 0.0
H438 H 0.25376 0.5586 0.6848 0.0
H439 H 0.14036 0.46686 0.68056 0.0
H440 H 0.13507 0.57957 0.69355 0.0
H441 H 0.07423 0.4103 0.7459 0.0
H442 H 0.03962 0.39703 0.71057 0.0
H443 H 0.09115 0.40292 0.70529 0.0
H444 H 0.08161 0.58185 0.72395 0.0
H445 H 0.03313 0.53263 0.72839 0.0
H446 H 0.07123 0.5514 0.7616 0.0
H447 H 0.03826 0.45149 0.93947 0.0
H448 H 0.91531 0.38722 0.86875 0.0
H449 H 0.90266 0.38295 0.8099 0.0
H450 H 0.98929 0.43717 0.71199 0.0
H451 H 0.11263 0.50045 0.78257 0.0
H452 H 0.12539 0.50344 0.84159 0.0
H453 H 0.75677 0.27558 0.78509 0.0
H454 H 0.74848 0.22535 0.77089 0.0
H455 H 0.80085 0.26875 0.7754 0.0
C456 C 0.41387 0.75257 0.84439 0.0
C457 C 0.43034 0.76148 0.88037 0.0
C458 C 0.47932 0.83584 0.89358 0.0
C459 C 0.44937 0.84862 0.89794 0.0
C460 C 0.46116 0.88832 0.91132 0.0
C461 C 0.50375 0.91596 0.91991 0.0
C462 C 0.53411 0.90363 0.91452 0.0
C463 C 0.5214 0.8637 0.90144 0.0
C464 C 0.42817 0.9008 0.91635 0.0
C465 C 0.58 0.93262 0.92263 0.0
C466 C 0.52078 0.10148 0.76936 0.0
C467 C 0.56435 0.13065 0.78432 0.0
C468 C 0.5582 0.11699 0.84393 0.0
C469 C 0.58878 0.10545 0.84943 0.0
C470 C 0.58505 0.07921 0.87616 0.0
C471 C 0.54984 0.06405 0.89761 0.0
C472 C 0.51988 0.07712 0.89288 0.0
C473 C 0.52489 0.10406 0.86632 0.0
C474 C 0.61822 0.06693 0.88101 0.0
C475 C 0.48179 0.06143 0.91508 0.0
C476 C 0.65251 0.19312 0.10062 0.0
C477 C 0.6714 0.16974 0.09178 0.0
C478 C 0.64768 0.12933 0.07828 0.0
C479 C 0.60365 0.11147 0.07441 0.0
C480 C 0.5841 0.13465 0.08397 0.0
C481 C 0.6088 0.17541 0.09691 0.0
C482 C 0.66969 0.10568 0.06827 0.0
C483 C 0.53715 0.11615 0.08076 0.0
C484 C 0.47619 0.79102 0.14065 0.0
C485 C 0.46275 0.81967 0.15768 0.0
C486 C 0.50887 0.89237 0.14235 0.0
C487 C 0.55075 0.91609 0.13239 0.0
C488 C 0.56341 0.94953 0.11004 0.0
C489 C 0.53347 0.96001 0.09817 0.0
C490 C 0.49147 0.93748 0.10967 0.0
C491 C 0.47957 0.90379 0.13162 0.0
C492 C 0.60859 0.97323 0.09876 0.0
C493 C 0.45907 0.94869 0.09843 0.0
C494 C 0.51701 0.95808 0.93407 0.0
C495 C 0.52576 0.99051 0.9118 0.0
C496 C 0.54242 0.03179 0.92303 0.0
C497 C 0.55148 0.0413 0.95747 0.0
C498 C 0.57095 0.08276 0.96943 0.0
C499 C 0.58002 0.0917 0.00337 0.0
C500 C 0.56917 0.05943 0.02672 0.0
C501 C 0.57828 0.06809 0.06125 0.0
C502 C 0.56581 0.03512 0.08387 0.0
C503 C 0.54565 0.99352 0.07286 0.0
C504 C 0.53797 0.98434 0.03827 0.0
C505 C 0.51972 0.94299 0.02615 0.0
C506 C 0.5128 0.9343 0.99206 0.0
C507 C 0.52338 0.96655 0.9688 0.0
C508 C 0.54118 0.00839 0.98049 0.0
C509 C 0.54923 0.01738 0.01521 0.0
C510 C 0.66094 0.27737 0.1443 0.0
C511 C 0.67192 0.26634 0.11033 0.0
O512 O 0.46948 0.79751 0.88139 0.0
O513 O 0.49771 0.85895 0.16256 0.0
O514 O 0.67742 0.232 0.11357 0.0
O515 O 0.55998 0.14029 0.81711 0.0
H516 H 0.40733 0.76444 0.89649 0.0
H517 H 0.41066 0.77913 0.83494 0.0
H518 H 0.43591 0.7485 0.82787 0.0
H519 H 0.38246 0.72375 0.84326 0.0
H520 H 0.41694 0.82813 0.89063 0.0
H521 H 0.54436 0.85382 0.89753 0.0
H522 H 0.43529 0.92797 0.90018 0.0
H523 H 0.396 0.87491 0.91027 0.0
H524 H 0.42883 0.91073 0.94273 0.0
H525 H 0.60004 0.91942 0.91479 0.0
H526 H 0.59133 0.96319 0.91002 0.0
H527 H 0.58392 0.93868 0.95001 0.0
H528 H 0.58288 0.11431 0.78284 0.0
H529 H 0.52355 0.09364 0.74294 0.0
H530 H 0.50493 0.07187 0.7838 0.0
H531 H 0.50092 0.11639 0.77025 0.0
H532 H 0.6155 0.11687 0.83281 0.0
H533 H 0.50182 0.11373 0.86205 0.0
H534 H 0.62765 0.07004 0.90779 0.0
H535 H 0.60508 0.03361 0.87368 0.0
H536 H 0.64664 0.08628 0.86569 0.0
H537 H 0.46037 0.07293 0.90701 0.0
H538 H 0.46401 0.02666 0.91496 0.0
H539 H 0.49197 0.07189 0.94124 0.0
H540 H 0.64638 0.26003 0.09211 0.0
H541 H 0.70509 0.18359 0.0951 0.0
H542 H 0.59381 0.19291 0.10474 0.0
H543 H 0.66146 0.09435 0.04202 0.0
H544 H 0.70445 0.12518 0.07049 0.0
H545 H 0.65891 0.07784 0.0845 0.0
H546 H 0.52657 0.13783 0.08995 0.0
H547 H 0.52757 0.10837 0.05412 0.0
H548 H 0.52076 0.08655 0.09514 0.0
H549 H 0.43912 0.82107 0.14103 0.0
H550 H 0.44859 0.75921 0.13683 0.0
H551 H 0.48997 0.8039 0.11577 0.0
H552 H 0.50019 0.78859 0.15599 0.0
H553 H 0.57325 0.90746 0.14139 0.0
H554 H 0.4475 0.88659 0.14055 0.0
H555 H 0.6101 0.97477 0.071 0.0
H556 H 0.62359 0.00581 0.10847 0.0
H557 H 0.62698 0.95871 0.10782 0.0
H558 H 0.42899 0.93101 0.11224 0.0
H559 H 0.47133 0.98275 0.10203 0.0
H560 H 0.45257 0.94173 0.07129 0.0
H561 H 0.52009 0.9836 0.88523 0.0
H562 H 0.57978 0.10878 0.95259 0.0
H563 H 0.59534 0.12421 0.01113 0.0
H564 H 0.57261 0.04199 0.11034 0.0
H565 H 0.51092 0.91687 0.04285 0.0
H566 H 0.49884 0.90192 0.98416 0.0
H567 H 0.68636 0.28463 0.16285 0.0
H568 H 0.65641 0.30488 0.14201 0.0
H569 H 0.63124 0.25051 0.15363 0.0
C570 C 0.66417 0.42336 0.99366 0.0
C571 C 0.68432 0.43955 0.02809 0.0
C572 C 0.67752 0.50059 0.04337 0.0
C573 C 0.6341 0.47846 0.05001 0.0
C574 C 0.61417 0.4987 0.06447 0.0
C575 C 0.63804 0.54186 0.07232 0.0
C576 C 0.68136 0.56453 0.06455 0.0
C577 C 0.70048 0.54354 0.05007 0.0
C578 C 0.56775 0.47382 0.072 0.0
C579 C 0.70763 0.61068 0.07233 0.0
C580 C 0.46749 0.7176 0.036 0.0
C581 C 0.46833 0.6782 0.02523 0.0
C582 C 0.52662 0.66515 0.03564 0.0
C583 C 0.56958 0.68606 0.0431 0.0
C584 C 0.58823 0.66526 0.05863 0.0
C585 C 0.56319 0.62233 0.06652 0.0
C586 C 0.52024 0.60029 0.05706 0.0
C587 C 0.50236 0.6219 0.04157 0.0
C588 C 0.6343 0.68952 0.06785 0.0
C589 C 0.49297 0.55425 0.06441 0.0
C590 C 0.51411 0.66616 0.2738 0.0
C591 C 0.55747 0.68855 0.26839 0.0
C592 C 0.57859 0.66896 0.25503 0.0
C593 C 0.55562 0.62575 0.2472 0.0
C594 C 0.5121 0.60238 0.25422 0.0
C595 C 0.49175 0.62279 0.26755 0.0
C596 C 0.62513 0.69465 0.24823 0.0
C597 C 0.48694 0.55606 0.24674 0.0
C598 C 0.72877 0.45696 0.28853 0.0
C599 C 0.69074 0.45867 0.30223 0.0
C600 C 0.67807 0.51608 0.28811 0.0
C601 C 0.69986 0.55809 0.27864 0.0
C602 C 0.6796 0.57603 0.26123 0.0
C603 C 0.6363 0.55126 0.25342 0.0
C604 C 0.6135 0.5093 0.26446 0.0
C605 C 0.63456 0.49217 0.28192 0.0
C606 C 0.70465 0.62113 0.25038 0.0
C607 C 0.56708 0.4824 0.25718 0.0
C608 C 0.61823 0.56271 0.09043 0.0
C609 C 0.60011 0.58169 0.07172 0.0
C610 C 0.58092 0.60166 0.0875 0.0
C611 C 0.5794 0.60258 0.12287 0.0
C612 C 0.55995 0.62206 0.13951 0.0
C613 C 0.55876 0.62299 0.17427 0.0
C614 C 0.57717 0.6047 0.19382 0.0
C615 C 0.57636 0.60576 0.22921 0.0
C616 C 0.59555 0.58791 0.24795 0.0
C617 C 0.61547 0.56862 0.23221 0.0
C618 C 0.61603 0.56666 0.19683 0.0
C619 C 0.63525 0.54696 0.18021 0.0
C620 C 0.63587 0.54545 0.14541 0.0
C621 C 0.61747 0.56377 0.12584 0.0
C622 C 0.5979 0.58372 0.14208 0.0
C623 C 0.59698 0.58497 0.1776 0.0
C624 C 0.43228 0.65773 0.317 0.0
C625 C 0.45294 0.6752 0.28319 0.0
O626 O 0.69853 0.48205 0.03059 0.0
O627 O 0.70007 0.5 0.30321 0.0
O628 O 0.49534 0.68766 0.28492 0.0
O629 O 0.5099 0.68785 0.02304 0.0
H630 H 0.66098 0.42163 0.0479 0.0
H631 H 0.6368 0.42809 0.99028 0.0
H632 H 0.68716 0.44032 0.97343 0.0
H633 H 0.65288 0.38932 0.99131 0.0
H634 H 0.61553 0.44545 0.0441 0.0
H635 H 0.73381 0.56048 0.0445 0.0
H636 H 0.55127 0.48876 0.05996 0.0
H637 H 0.55317 0.44087 0.06313 0.0
H638 H 0.5629 0.47382 0.09943 0.0
H639 H 0.74056 0.62418 0.06355 0.0
H640 H 0.6934 0.62784 0.06034 0.0
H641 H 0.70804 0.61576 0.09978 0.0
H642 H 0.4509 0.65417 0.04469 0.0
H643 H 0.48278 0.72825 0.06094 0.0
H644 H 0.48464 0.74332 0.01776 0.0
H645 H 0.43452 0.71097 0.03795 0.0
H646 H 0.5882 0.71923 0.0378 0.0
H647 H 0.46947 0.60498 0.03443 0.0
H648 H 0.65059 0.67327 0.0579 0.0
H649 H 0.65006 0.722 0.05804 0.0
H650 H 0.63777 0.69093 0.09553 0.0
H651 H 0.46093 0.54094 0.05343 0.0
H652 H 0.5079 0.5367 0.05438 0.0
H653 H 0.49009 0.54951 0.09192 0.0
H654 H 0.43667 0.65103 0.26338 0.0
H655 H 0.57458 0.72184 0.27381 0.0
H656 H 0.45846 0.60472 0.27286 0.0
H657 H 0.63071 0.69498 0.22089 0.0
H658 H 0.63885 0.72748 0.25723 0.0
H659 H 0.64185 0.68019 0.26062 0.0
H660 H 0.45393 0.54179 0.25552 0.0
H661 H 0.48664 0.55083 0.21932 0.0
H662 H 0.50198 0.53976 0.25886 0.0
H663 H 0.66422 0.43944 0.28479 0.0
H664 H 0.72245 0.42417 0.28823 0.0
H665 H 0.73513 0.46894 0.26246 0.0
H666 H 0.7573 0.4766 0.30396 0.0
H667 H 0.73323 0.57651 0.28413 0.0
H668 H 0.61691 0.46021 0.29065 0.0
H669 H 0.70557 0.62262 0.22261 0.0
H670 H 0.68915 0.63864 0.25923 0.0
H671 H 0.73746 0.63687 0.2601 0.0
H672 H 0.55361 0.45059 0.26806 0.0
H673 H 0.54993 0.49763 0.26743 0.0
H674 H 0.56175 0.47934 0.22968 0.0
H675 H 0.6011 0.58105 0.04458 0.0
H676 H 0.54534 0.63681 0.12588 0.0
H677 H 0.54331 0.63842 0.18558 0.0
H678 H 0.59514 0.5892 0.27509 0.0
H679 H 0.65002 0.5324 0.1939 0.0
H680 H 0.65113 0.52985 0.13407 0.0
H681 H 0.44737 0.6819 0.33697 0.0
H682 H 0.39819 0.64732 0.31583 0.0
H683 H 0.43566 0.63034 0.32367 0.0
O684 O 0.62332 0.4306 0.43294 0.0
Cd685 Cd 0.61813 0.39438 0.39156 0.0
Cd686 Cd 0.7007 0.42091 0.4048 0.0
O687 O 0.68959 0.45034 0.44423 0.0
O688 O 0.55826 0.34928 0.38656 0.0
O689 O 0.61025 0.33766 0.40014 0.0
C690 C 0.57072 0.32324 0.39429 0.0
C691 C 0.73376 0.38278 0.41809 0.0
C692 C 0.65575 0.45009 0.45146 0.0
C693 C 0.67923 0.4403 0.33673 0.0
O694 O 0.7079 0.44456 0.35701 0.0
O695 O 0.64091 0.42167 0.34559 0.0
O696 O 0.75467 0.42304 0.41601 0.0
O697 O 0.69394 0.36386 0.41161 0.0
O698 O 0.25161 0.59188 0.62462 0.0
Cd699 Cd 0.28199 0.6159 0.57977 0.0
Cd700 Cd 0.25901 0.67476 0.5923 0.0
O701 O 0.23212 0.63884 0.63422 0.0
O702 O 0.31704 0.58962 0.57029 0.0
O703 O 0.3439 0.65754 0.57943 0.0
C704 C 0.34964 0.62656 0.57257 0.0
C705 C 0.31181 0.74382 0.59969 0.0
C706 C 0.23344 0.60637 0.64286 0.0
C707 C 0.22756 0.6263 0.52831 0.0
O708 O 0.22846 0.65499 0.54667 0.0
O709 O 0.24665 0.60706 0.53709 0.0
O710 O 0.2727 0.73352 0.60189 0.0
O711 O 0.32079 0.71491 0.59307 0.0
O712 O 0.61277 0.17339 0.74208 0.0
Cd713 Cd 0.64963 0.22487 0.71274 0.0
Cd714 Cd 0.5987 0.25116 0.73838 0.0
O715 O 0.57715 0.19871 0.76805 0.0
O716 O 0.70083 0.27283 0.73384 0.0
O717 O 0.70182 0.22259 0.70383 0.0
C718 C 0.72167 0.25607 0.72183 0.0
C719 C 0.62026 0.31639 0.76246 0.0
C720 C 0.58628 0.16998 0.76404 0.0
C721 C 0.59479 0.23697 0.66412 0.0
O722 O 0.57795 0.24347 0.68946 0.0
O723 O 0.62577 0.23089 0.66751 0.0
O724 O 0.58092 0.28864 0.75974 0.0
O725 O 0.64767 0.30679 0.75205 0.0
O726 O 0.4659 0.68314 0.96555 0.0
Cd727 Cd 0.44114 0.67214 0.91785 0.0
Cd728 Cd 0.37292 0.607 0.94791 0.0
O729 O 0.40969 0.63258 0.99035 0.0
O730 O 0.46978 0.72626 0.89306 0.0
O731 O 0.40229 0.6937 0.9069 0.0
C732 C 0.43431 0.72567 0.89385 0.0
C733 C 0.30449 0.59553 0.9486 0.0
C734 C 0.44704 0.66343 0.99181 0.0
C735 C 0.41652 0.58608 0.89328 0.0
O736 O 0.38725 0.57261 0.91488 0.0
O737 O 0.44141 0.62518 0.88973 0.0
O738 O 0.31373 0.57002 0.96327 0.0
O739 O 0.33404 0.62748 0.93341 0.0
O740 O 0.79266 0.34373 0.03005 0.0
Cd741 Cd 0.77342 0.35642 0.07478 0.0
Cd742 Cd 0.77758 0.4217 0.03972 0.0
O743 O 0.79295 0.39472 0.00087 0.0
O744 O 0.74732 0.30341 0.10088 0.0
O745 O 0.71159 0.33296 0.0818 0.0
C746 C 0.71187 0.30238 0.09719 0.0
C747 C 0.7209 0.43254 0.03261 0.0
C748 C 0.7979 0.36304 0.00261 0.0
C749 C 0.83378 0.44265 0.10038 0.0
O750 O 0.82227 0.45645 0.07578 0.0
O751 O 0.8175 0.40348 0.10502 0.0
O752 O 0.75705 0.45788 0.01973 0.0
O753 O 0.71694 0.40099 0.0495 0.0
O754 O 0.46354 0.79727 0.21396 0.0
Cd755 Cd 0.44079 0.76904 0.25973 0.0
Cd756 Cd 0.36702 0.76138 0.23596 0.0
O757 O 0.40358 0.78953 0.19447 0.0
O758 O 0.47917 0.74984 0.27747 0.0
O759 O 0.41294 0.70665 0.26244 0.0
C760 C 0.44827 0.71206 0.27384 0.0
C761 C 0.30481 0.69825 0.22854 0.0
C762 C 0.4424 0.8018 0.19072 0.0
C763 C 0.4011 0.80881 0.30041 0.0
O764 O 0.37245 0.79639 0.27814 0.0
O765 O 0.43108 0.80112 0.29779 0.0
O766 O 0.30715 0.73333 0.22089 0.0
O767 O 0.33807 0.69895 0.24 0.0
loop_
_geom_bond_atom_site_label_1
_geom_bond_atom_site_label_2
_geom_bond_distance
_geom_bond_site_symmetry_2
_ccdc_geom_bond_type
C0 C1 1.560 . S
C0 H61 0.959 . S
C0 H62 0.959 . S
C0 H63 0.960 . S
C1 C0 1.560 . S
C1 O56 1.426 . S
C1 H60 0.980 . S
C2 C3 1.407 . S
C2 C7 1.418 . S
C2 O56 1.334 . S
C3 C2 1.407 . S
C3 C4 1.360 . S
C3 H64 0.929 . S
C4 C3 1.360 . S
C4 C5 1.401 . S
C4 C8 1.527 . S
C5 C4 1.401 . S
C5 C6 1.405 . S
C5 C38 1.587 . S
C6 C5 1.405 . S
C6 C7 1.332 . S
C6 C9 1.496 . S
C7 C2 1.418 . S
C7 C6 1.332 . S
C7 H65 0.929 . S
C8 C4 1.527 . S
C8 H66 0.959 . S
C8 H67 0.961 . S
C8 H68 0.961 . S
C9 C6 1.496 . S
C9 H69 0.960 . S
C9 H70 0.960 . S
C9 H71 0.961 . S
C10 C11 1.517 . S
C10 H73 0.961 . S
C10 H74 0.960 . S
C10 H75 0.959 . S
C11 C10 1.517 . S
C11 O59 1.468 . S
C11 H72 0.980 . S
C12 C13 1.349 . S
C12 C17 1.367 . S
C12 O59 1.408 . S
C13 C12 1.349 . S
C13 C14 1.407 . S
C13 H76 0.930 . S
C14 C13 1.407 . S
C14 C15 1.449 . S
C14 C18 1.535 . S
C15 C14 1.449 . S
C15 C16 1.384 . S
C15 C40 1.553 1_655 S
C16 C15 1.384 . S
C16 C17 1.364 . S
C16 C19 1.450 . S
C17 C12 1.367 . S
C17 C16 1.364 . S
C17 H77 0.931 . S
C18 C14 1.535 . S
C18 H78 0.959 1_655 S
C18 H79 0.961 1_655 S
C18 H80 0.959 . S
C19 C16 1.450 . S
C19 H81 0.960 . S
C19 H82 0.960 1_655 S
C19 H83 0.960 . S
C20 C21 1.309 . S
C20 C25 1.304 . S
C20 O58 1.435 . S
C21 C20 1.309 . S
C21 C22 1.476 . S
C21 H85 0.930 . S
C22 C21 1.476 . S
C22 C23 1.400 . S
C22 C26 1.567 . S
C23 C22 1.400 . S
C23 C24 1.373 . S
C23 C45 1.432 . S
C24 C23 1.373 . S
C24 C25 1.339 . S
C24 C27 1.530 . S
C25 C20 1.304 . S
C25 C24 1.339 . S
C25 H86 0.930 . S
C26 C22 1.567 . S
C26 H87 0.961 . S
C26 H88 0.960 . S
C26 H89 0.958 . S
C27 C24 1.530 . S
C27 H90 0.961 . S
C27 H91 0.960 . S
C27 H92 0.960 . S
C28 C29 1.530 . S
C28 H94 0.961 . S
C28 H95 0.961 . S
C28 H96 0.959 . S
C29 C28 1.530 . S
C29 O57 1.412 . S
C29 H93 0.980 . S
C30 C31 1.288 . S
C30 C35 1.377 . S
C30 O57 1.393 . S
C31 C30 1.288 . S
C31 C32 1.369 . S
C31 H97 0.932 . S
C32 C31 1.369 . S
C32 C33 1.398 . S
C32 C36 1.527 . S
C33 C32 1.398 . S
C33 C34 1.380 . S
C33 C47 1.497 . S
C34 C33 1.380 . S
C34 C35 1.383 . S
C34 C37 1.603 . S
C35 C30 1.377 . S
C35 C34 1.383 . S
C35 H98 0.929 . S
C36 C32 1.527 . S
C36 H99 0.961 . S
C36 H100 0.959 . S
C36 H101 0.959 . S
C37 C34 1.603 . S
C37 H102 0.960 . S
C37 H103 0.962 . S
C37 H104 0.961 . S
C38 C5 1.587 . S
C38 C39 1.360 . S
C38 C51 1.412 . S
C39 C38 1.360 . S
C39 C40 1.365 . S
C39 H105 0.929 . S
C40 C15 1.553 1_455 S
C40 C39 1.365 . S
C40 C41 1.404 . S
C41 C40 1.404 . S
C41 C42 1.395 1_455 S
C41 C52 1.451 . S
C42 C41 1.395 1_655 S
C42 C43 1.322 . S
C42 H106 0.930 . S
C43 C42 1.322 . S
C43 C44 1.459 . S
C43 H107 0.929 . S
C44 C43 1.459 . S
C44 C45 1.445 . S
C44 C53 1.395 1_655 S
C45 C23 1.432 . S
C45 C44 1.445 . S
C45 C46 1.370 . S
C46 C45 1.370 . S
C46 C47 1.438 1_655 S
C46 H108 0.930 . S
C47 C33 1.497 . S
C47 C46 1.438 1_455 S
C47 C48 1.360 . S
C48 C47 1.360 . S
C48 C49 1.401 . S
C48 C53 1.446 . S
C49 C48 1.401 . S
C49 C50 1.347 . S
C49 H109 0.929 . S
C50 C49 1.347 . S
C50 C51 1.455 . S
C50 H110 0.930 . S
C51 C38 1.412 . S
C51 C50 1.455 . S
C51 C52 1.331 . S
C52 C41 1.451 . S
C52 C51 1.331 . S
C52 C53 1.497 . S
C53 C44 1.395 1_455 S
C53 C48 1.446 . S
C53 C52 1.497 . S
C54 C55 1.582 . S
C54 H111 0.962 . S
C54 H112 0.959 . S
C54 H113 0.958 . S
C55 C54 1.582 . S
C55 O58 1.458 . S
C55 H84 0.980 . S
O56 C1 1.426 . S
O56 C2 1.334 . S
O57 C29 1.412 . S
O57 C30 1.393 . S
O58 C20 1.435 . S
O58 C55 1.458 . S
O59 C11 1.468 . S
O59 C12 1.408 . S
H60 C1 0.980 . S
H61 C0 0.959 . S
H62 C0 0.959 . S
H63 C0 0.960 . S
H64 C3 0.929 . S
H65 C7 0.929 . S
H66 C8 0.959 . S
H67 C8 0.961 . S
H68 C8 0.961 . S
H69 C9 0.960 . S
H70 C9 0.960 . S
H71 C9 0.961 . S
H72 C11 0.980 . S
H73 C10 0.961 . S
H74 C10 0.960 . S
H75 C10 0.959 . S
H76 C13 0.930 . S
H77 C17 0.931 . S
H78 C18 0.959 1_455 S
H79 C18 0.961 1_455 S
H80 C18 0.959 . S
H81 C19 0.960 . S
H82 C19 0.960 1_455 S
H83 C19 0.960 . S
H84 C55 0.980 . S
H85 C21 0.930 . S
H86 C25 0.930 . S
H87 C26 0.961 . S
H88 C26 0.960 . S
H89 C26 0.958 . S
H90 C27 0.961 . S
H91 C27 0.960 . S
H92 C27 0.960 . S
H93 C29 0.980 . S
H94 C28 0.961 . S
H95 C28 0.961 . S
H96 C28 0.959 . S
H97 C31 0.932 . S
H98 C35 0.929 . S
H99 C36 0.961 . S
H100 C36 0.959 . S
H101 C36 0.959 . S
H102 C37 0.960 . S
H103 C37 0.962 . S
H104 C37 0.961 . S
H105 C39 0.929 . S
H106 C42 0.930 . S
H107 C43 0.929 . S
H108 C46 0.930 . S
H109 C49 0.929 . S
H110 C50 0.930 . S
H111 C54 0.962 . S
H112 C54 0.959 . S
H113 C54 0.958 . S
C114 C115 1.560 . S
C114 H175 0.959 . S
C114 H176 0.959 . S
C114 H177 0.960 . S
C115 C114 1.560 . S
C115 O170 1.426 . S
C115 H174 0.980 . S
C116 C117 1.407 . S
C116 C121 1.418 . S
C116 O170 1.334 . S
C117 C116 1.407 . S
C117 C118 1.360 . S
C117 H178 0.929 . S
C118 C117 1.360 . S
C118 C119 1.401 . S
C118 C122 1.527 . S
C119 C118 1.401 . S
C119 C120 1.405 . S
C119 C152 1.587 . S
C120 C119 1.405 . S
C120 C121 1.332 . S
C120 C123 1.496 . S
C121 C116 1.418 . S
C121 C120 1.332 . S
C121 H179 0.929 . S
C122 C118 1.527 . S
C122 H180 0.959 . S
C122 H181 0.961 . S
C122 H182 0.961 . S
C123 C120 1.496 . S
C123 H183 0.960 . S
C123 H184 0.960 . S
C123 H185 0.961 . S
C124 C125 1.517 . S
C124 H187 0.961 . S
C124 H188 0.960 . S
C124 H189 0.959 . S
C125 C124 1.517 . S
C125 O173 1.468 . S
C125 H186 0.980 . S
C126 C127 1.349 . S
C126 C131 1.367 . S
C126 O173 1.408 . S
C127 C126 1.349 . S
C127 C128 1.407 . S
C127 H190 0.930 . S
C128 C127 1.407 . S
C128 C129 1.449 . S
C128 C132 1.535 . S
C129 C128 1.449 . S
C129 C130 1.384 . S
C129 C154 1.553 . S
C130 C129 1.384 . S
C130 C131 1.364 . S
C130 C133 1.450 . S
C131 C126 1.367 . S
C131 C130 1.364 . S
C131 H191 0.931 . S
C132 C128 1.535 . S
C132 H192 0.959 . S
C132 H193 0.961 . S
C132 H194 0.959 . S
C133 C130 1.450 . S
C133 H195 0.960 . S
C133 H196 0.960 . S
C133 H197 0.960 . S
C134 C135 1.309 . S
C134 C139 1.304 . S
C134 O172 1.435 . S
C135 C134 1.309 . S
C135 C136 1.476 . S
C135 H199 0.930 . S
C136 C135 1.476 . S
C136 C137 1.400 . S
C136 C140 1.567 . S
C137 C136 1.400 . S
C137 C138 1.373 . S
C137 C159 1.432 . S
C138 C137 1.373 . S
C138 C139 1.339 . S
C138 C141 1.530 . S
C139 C134 1.304 . S
C139 C138 1.339 . S
C139 H200 0.930 . S
C140 C136 1.567 . S
C140 H201 0.961 . S
C140 H202 0.960 . S
C140 H203 0.958 . S
C141 C138 1.530 . S
C141 H204 0.961 . S
C141 H205 0.960 . S
C141 H206 0.960 . S
C142 C143 1.530 . S
C142 H208 0.961 . S
C142 H209 0.961 . S
C142 H210 0.959 . S
C143 C142 1.530 . S
C143 O171 1.412 . S
C143 H207 0.980 . S
C144 C145 1.288 . S
C144 C149 1.377 . S
C144 O171 1.393 . S
C145 C144 1.288 . S
C145 C146 1.369 . S
C145 H211 0.932 . S
C146 C145 1.369 . S
C146 C147 1.398 . S
C146 C150 1.527 1_565 S
C147 C146 1.398 . S
C147 C148 1.380 . S
C147 C161 1.497 1_565 S
C148 C147 1.380 . S
C148 C149 1.383 . S
C148 C151 1.603 . S
C149 C144 1.377 . S
C149 C148 1.383 . S
C149 H212 0.929 . S
C150 C146 1.527 1_545 S
C150 H213 0.961 . S
C150 H214 0.959 . S
C150 H215 0.959 1_545 S
C151 C148 1.603 . S
C151 H216 0.960 . S
C151 H217 0.962 . S
C151 H218 0.961 . S
C152 C119 1.587 . S
C152 C153 1.360 . S
C152 C165 1.412 . S
C153 C152 1.360 . S
C153 C154 1.365 1_565 S
C153 H219 0.929 . S
C154 C129 1.553 . S
C154 C153 1.365 1_545 S
C154 C155 1.404 . S
C155 C154 1.404 . S
C155 C156 1.395 . S
C155 C166 1.451 . S
C156 C155 1.395 . S
C156 C157 1.322 . S
C156 H220 0.930 . S
C157 C156 1.322 . S
C157 C158 1.459 . S
C157 H221 0.929 . S
C158 C157 1.459 . S
C158 C159 1.445 . S
C158 C167 1.395 . S
C159 C137 1.432 . S
C159 C158 1.445 . S
C159 C160 1.370 . S
C160 C159 1.370 . S
C160 C161 1.438 . S
C160 H222 0.930 . S
C161 C147 1.497 1_545 S
C161 C160 1.438 . S
C161 C162 1.360 1_545 S
C162 C161 1.360 1_565 S
C162 C163 1.401 . S
C162 C167 1.446 1_565 S
C163 C162 1.401 . S
C163 C164 1.347 . S
C163 H223 0.929 . S
C164 C163 1.347 . S
C164 C165 1.455 . S
C164 H224 0.930 . S
C165 C152 1.412 . S
C165 C164 1.455 . S
C165 C166 1.331 1_565 S
C166 C155 1.451 . S
C166 C165 1.331 1_545 S
C166 C167 1.497 . S
C167 C158 1.395 . S
C167 C162 1.446 1_545 S
C167 C166 1.497 . S
C168 C169 1.582 . S
C168 H225 0.962 . S
C168 H226 0.959 . S
C168 H227 0.958 . S
C169 C168 1.582 . S
C169 O172 1.458 . S
C169 H198 0.980 . S
O170 C115 1.426 . S
O170 C116 1.334 . S
O171 C143 1.412 . S
O171 C144 1.393 . S
O172 C134 1.435 . S
O172 C169 1.458 . S
O173 C125 1.468 . S
O173 C126 1.408 . S
H174 C115 0.980 . S
H175 C114 0.959 . S
H176 C114 0.959 . S
H177 C114 0.960 . S
H178 C117 0.929 . S
H179 C121 0.929 . S
H180 C122 0.959 . S
H181 C122 0.961 . S
H182 C122 0.961 . S
H183 C123 0.960 . S
H184 C123 0.960 . S
H185 C123 0.961 . S
H186 C125 0.980 . S
H187 C124 0.961 . S
H188 C124 0.960 . S
H189 C124 0.959 . S
H190 C127 0.930 . S
H191 C131 0.931 . S
H192 C132 0.959 . S
H193 C132 0.961 . S
H194 C132 0.959 . S
H195 C133 0.960 . S
H196 C133 0.960 . S
H197 C133 0.960 . S
H198 C169 0.980 . S
H199 C135 0.930 . S
H200 C139 0.930 . S
H201 C140 0.961 . S
H202 C140 0.960 . S
H203 C140 0.958 . S
H204 C141 0.961 . S
H205 C141 0.960 . S
H206 C141 0.960 . S
H207 C143 0.980 . S
H208 C142 0.961 . S
H209 C142 0.961 . S
H210 C142 0.959 . S
H211 C145 0.932 . S
H212 C149 0.929 . S
H213 C150 0.961 . S
H214 C150 0.959 . S
H215 C150 0.959 1_565 S
H216 C151 0.960 . S
H217 C151 0.962 . S
H218 C151 0.961 . S
H219 C153 0.929 . S
H220 C156 0.930 . S
H221 C157 0.929 . S
H222 C160 0.930 . S
H223 C163 0.929 . S
H224 C164 0.930 . S
H225 C168 0.962 . S
H226 C168 0.959 . S
H227 C168 0.958 . S
C228 C229 1.560 . S
C228 H289 0.959 . S
C228 H290 0.959 . S
C228 H291 0.960 . S
C229 C228 1.560 . S
C229 O284 1.426 . S
C229 H288 0.980 . S
C230 C231 1.407 . S
C230 C235 1.418 . S
C230 O284 1.334 . S
C231 C230 1.407 . S
C231 C232 1.360 . S
C231 H292 0.929 . S
C232 C231 1.360 . S
C232 C233 1.401 . S
C232 C236 1.527 . S
C233 C232 1.401 . S
C233 C234 1.405 . S
C233 C266 1.587 . S
C234 C233 1.405 . S
C234 C235 1.332 . S
C234 C237 1.496 . S
C235 C230 1.418 . S
C235 C234 1.332 . S
C235 H293 0.929 . S
C236 C232 1.527 . S
C236 H294 0.959 . S
C236 H295 0.961 . S
C236 H296 0.961 . S
C237 C234 1.496 . S
C237 H297 0.960 . S
C237 H298 0.960 . S
C237 H299 0.961 . S
C238 C239 1.517 . S
C238 H301 0.961 . S
C238 H302 0.960 . S
C238 H303 0.959 . S
C239 C238 1.517 . S
C239 O287 1.468 . S
C239 H300 0.980 . S
C240 C241 1.349 . S
C240 C245 1.367 . S
C240 O287 1.408 . S
C241 C240 1.349 . S
C241 C242 1.407 . S
C241 H304 0.930 . S
C242 C241 1.407 . S
C242 C243 1.449 . S
C242 C246 1.535 . S
C243 C242 1.449 . S
C243 C244 1.384 . S
C243 C268 1.553 . S
C244 C243 1.384 . S
C244 C245 1.364 . S
C244 C247 1.450 . S
C245 C240 1.367 . S
C245 C244 1.364 . S
C245 H305 0.931 . S
C246 C242 1.535 . S
C246 H306 0.959 . S
C246 H307 0.961 . S
C246 H308 0.959 . S
C247 C244 1.450 . S
C247 H309 0.960 . S
C247 H310 0.960 . S
C247 H311 0.960 . S
C248 C249 1.309 . S
C248 C253 1.304 . S
C248 O286 1.435 . S
C249 C248 1.309 . S
C249 C250 1.476 . S
C249 H313 0.930 . S
C250 C249 1.476 . S
C250 C251 1.400 . S
C250 C254 1.567 . S
C251 C250 1.400 . S
C251 C252 1.373 . S
C251 C273 1.432 . S
C252 C251 1.373 . S
C252 C253 1.339 . S
C252 C255 1.530 . S
C253 C248 1.304 . S
C253 C252 1.339 . S
C253 H314 0.930 . S
C254 C250 1.567 . S
C254 H315 0.961 . S
C254 H316 0.960 . S
C254 H317 0.958 . S
C255 C252 1.530 . S
C255 H318 0.961 . S
C255 H319 0.960 . S
C255 H320 0.960 . S
C256 C257 1.530 . S
C256 H322 0.961 . S
C256 H323 0.961 . S
C256 H324 0.959 . S
C257 C256 1.530 . S
C257 O285 1.412 . S
C257 H321 0.980 . S
C258 C259 1.288 . S
C258 C263 1.377 . S
C258 O285 1.393 . S
C259 C258 1.288 . S
C259 C260 1.369 . S
C259 H325 0.932 . S
C260 C259 1.369 . S
C260 C261 1.398 . S
C260 C264 1.527 . S
C261 C260 1.398 . S
C261 C262 1.380 . S
C261 C275 1.497 . S
C262 C261 1.380 . S
C262 C263 1.383 . S
C262 C265 1.603 . S
C263 C258 1.377 . S
C263 C262 1.383 . S
C263 H326 0.929 . S
C264 C260 1.527 . S
C264 H327 0.961 . S
C264 H328 0.959 . S
C264 H329 0.959 . S
C265 C262 1.603 . S
C265 H330 0.960 . S
C265 H331 0.962 . S
C265 H332 0.961 . S
C266 C233 1.587 . S
C266 C267 1.360 . S
C266 C279 1.412 . S
C267 C266 1.360 . S
C267 C268 1.365 . S
C267 H333 0.929 . S
C268 C243 1.553 . S
C268 C267 1.365 . S
C268 C269 1.404 . S
C269 C268 1.404 . S
C269 C270 1.395 . S
C269 C280 1.451 . S
C270 C269 1.395 . S
C270 C271 1.322 . S
C270 H334 0.930 . S
C271 C270 1.322 . S
C271 C272 1.459 . S
C271 H335 0.929 . S
C272 C271 1.459 . S
C272 C273 1.445 . S
C272 C281 1.395 . S
C273 C251 1.432 . S
C273 C272 1.445 . S
C273 C274 1.370 . S
C274 C273 1.370 . S
C274 C275 1.438 . S
C274 H336 0.930 . S
C275 C261 1.497 . S
C275 C274 1.438 . S
C275 C276 1.360 . S
C276 C275 1.360 . S
C276 C277 1.401 . S
C276 C281 1.446 . S
C277 C276 1.401 . S
C277 C278 1.347 . S
C277 H337 0.929 . S
C278 C277 1.347 . S
C278 C279 1.455 . S
C278 H338 0.930 . S
C279 C266 1.412 . S
C279 C278 1.455 . S
C279 C280 1.331 . S
C280 C269 1.451 . S
C280 C279 1.331 . S
C280 C281 1.497 . S
C281 C272 1.395 . S
C281 C276 1.446 . S
C281 C280 1.497 . S
C282 C283 1.582 . S
C282 H339 0.962 . S
C282 H340 0.959 . S
C282 H341 0.958 . S
C283 C282 1.582 . S
C283 O286 1.458 . S
C283 H312 0.980 . S
O284 C229 1.426 . S
O284 C230 1.334 . S
O285 C257 1.412 . S
O285 C258 1.393 . S
O286 C248 1.435 . S
O286 C283 1.458 . S
O287 C239 1.468 . S
O287 C240 1.408 . S
H288 C229 0.980 . S
H289 C228 0.959 . S
H290 C228 0.959 . S
H291 C228 0.960 . S
H292 C231 0.929 . S
H293 C235 0.929 . S
H294 C236 0.959 . S
H295 C236 0.961 . S
H296 C236 0.961 . S
H297 C237 0.960 . S
H298 C237 0.960 . S
H299 C237 0.961 . S
H300 C239 0.980 . S
H301 C238 0.961 . S
H302 C238 0.960 . S
H303 C238 0.959 . S
H304 C241 0.930 . S
H305 C245 0.931 . S
H306 C246 0.959 . S
H307 C246 0.961 . S
H308 C246 0.959 . S
H309 C247 0.960 . S
H310 C247 0.960 . S
H311 C247 0.960 . S
H312 C283 0.980 . S
H313 C249 0.930 . S
H314 C253 0.930 . S
H315 C254 0.961 . S
H316 C254 0.960 . S
H317 C254 0.958 . S
H318 C255 0.961 . S
H319 C255 0.960 . S
H320 C255 0.960 . S
H321 C257 0.980 . S
H322 C256 0.961 . S
H323 C256 0.961 . S
H324 C256 0.959 . S
H325 C259 0.932 . S
H326 C263 0.929 . S
H327 C264 0.961 . S
H328 C264 0.959 . S
H329 C264 0.959 . S
H330 C265 0.960 . S
H331 C265 0.962 . S
H332 C265 0.961 . S
H333 C267 0.929 . S
H334 C270 0.930 . S
H335 C271 0.929 . S
H336 C274 0.930 . S
H337 C277 0.929 . S
H338 C278 0.930 . S
H339 C282 0.962 . S
H340 C282 0.959 . S
H341 C282 0.958 . S
C342 C343 1.560 . S
C342 H403 0.959 . S
C342 H404 0.959 . S
C342 H405 0.960 . S
C343 C342 1.560 . S
C343 O398 1.426 . S
C343 H402 0.980 . S
C344 C345 1.407 . S
C344 C349 1.418 . S
C344 O398 1.334 . S
C345 C344 1.407 . S
C345 C346 1.360 . S
C345 H406 0.929 . S
C346 C345 1.360 . S
C346 C347 1.401 . S
C346 C350 1.527 . S
C347 C346 1.401 . S
C347 C348 1.405 . S
C347 C380 1.587 . S
C348 C347 1.405 . S
C348 C349 1.332 . S
C348 C351 1.496 . S
C349 C344 1.418 . S
C349 C348 1.332 . S
C349 H407 0.929 . S
C350 C346 1.527 . S
C350 H408 0.959 . S
C350 H409 0.961 . S
C350 H410 0.961 . S
C351 C348 1.496 . S
C351 H411 0.960 . S
C351 H412 0.960 . S
C351 H413 0.961 . S
C352 C353 1.517 . S
C352 H415 0.961 . S
C352 H416 0.960 . S
C352 H417 0.959 . S
C353 C352 1.517 . S
C353 O401 1.468 . S
C353 H414 0.980 . S
C354 C355 1.349 . S
C354 C359 1.367 . S
C354 O401 1.408 1_556 S
C355 C354 1.349 . S
C355 C356 1.407 . S
C355 H418 0.930 . S
C356 C355 1.407 . S
C356 C357 1.449 . S
C356 C360 1.535 . S
C357 C356 1.449 . S
C357 C358 1.384 . S
C357 C382 1.553 1_655 S
C358 C357 1.384 . S
C358 C359 1.364 . S
C358 C361 1.450 . S
C359 C354 1.367 . S
C359 C358 1.364 . S
C359 H419 0.931 . S
C360 C356 1.535 . S
C360 H420 0.959 1_655 S
C360 H421 0.961 1_655 S
C360 H422 0.959 . S
C361 C358 1.450 . S
C361 H423 0.960 . S
C361 H424 0.960 1_655 S
C361 H425 0.960 . S
C362 C363 1.309 . S
C362 C367 1.304 . S
C362 O400 1.435 . S
C363 C362 1.309 . S
C363 C364 1.476 . S
C363 H427 0.930 . S
C364 C363 1.476 . S
C364 C365 1.400 . S
C364 C368 1.567 . S
C365 C364 1.400 . S
C365 C366 1.373 . S
C365 C387 1.432 . S
C366 C365 1.373 . S
C366 C367 1.339 . S
C366 C369 1.530 . S
C367 C362 1.304 . S
C367 C366 1.339 . S
C367 H428 0.930 . S
C368 C364 1.567 . S
C368 H429 0.961 . S
C368 H430 0.960 . S
C368 H431 0.958 . S
C369 C366 1.530 . S
C369 H432 0.961 . S
C369 H433 0.960 . S
C369 H434 0.960 . S
C370 C371 1.530 . S
C370 H436 0.961 . S
C370 H437 0.961 . S
C370 H438 0.959 . S
C371 C370 1.530 . S
C371 O399 1.412 . S
C371 H435 0.980 . S
C372 C373 1.288 . S
C372 C377 1.377 . S
C372 O399 1.393 . S
C373 C372 1.288 . S
C373 C374 1.369 . S
C373 H439 0.932 . S
C374 C373 1.369 . S
C374 C375 1.398 . S
C374 C378 1.527 . S
C375 C374 1.398 . S
C375 C376 1.380 . S
C375 C389 1.497 . S
C376 C375 1.380 . S
C376 C377 1.383 . S
C376 C379 1.603 . S
C377 C372 1.377 . S
C377 C376 1.383 . S
C377 H440 0.929 . S
C378 C374 1.527 . S
C378 H441 0.961 . S
C378 H442 0.959 . S
C378 H443 0.959 . S
C379 C376 1.603 . S
C379 H444 0.960 . S
C379 H445 0.962 . S
C379 H446 0.961 . S
C380 C347 1.587 . S
C380 C381 1.360 . S
C380 C393 1.412 . S
C381 C380 1.360 . S
C381 C382 1.365 . S
C381 H447 0.929 . S
C382 C357 1.553 1_455 S
C382 C381 1.365 . S
C382 C383 1.404 . S
C383 C382 1.404 . S
C383 C384 1.395 1_455 S
C383 C394 1.451 . S
C384 C383 1.395 1_655 S
C384 C385 1.322 . S
C384 H448 0.930 . S
C385 C384 1.322 . S
C385 C386 1.459 . S
C385 H449 0.929 . S
C386 C385 1.459 . S
C386 C387 1.445 . S
C386 C395 1.395 1_655 S
C387 C365 1.432 . S
C387 C386 1.445 . S
C387 C388 1.370 . S
C388 C387 1.370 . S
C388 C389 1.438 1_655 S
C388 H450 0.930 . S
C389 C375 1.497 . S
C389 C388 1.438 1_455 S
C389 C390 1.360 . S
C390 C389 1.360 . S
C390 C391 1.401 . S
C390 C395 1.446 . S
C391 C390 1.401 . S
C391 C392 1.347 . S
C391 H451 0.929 . S
C392 C391 1.347 . S
C392 C393 1.455 . S
C392 H452 0.930 . S
C393 C380 1.412 . S
C393 C392 1.455 . S
C393 C394 1.331 . S
C394 C383 1.451 . S
C394 C393 1.331 . S
C394 C395 1.497 . S
C395 C386 1.395 1_455 S
C395 C390 1.446 . S
C395 C394 1.497 . S
C396 C397 1.582 . S
C396 H453 0.962 . S
C396 H454 0.959 . S
C396 H455 0.958 . S
C397 C396 1.582 . S
C397 O400 1.458 . S
C397 H426 0.980 . S
O398 C343 1.426 . S
O398 C344 1.334 . S
O399 C371 1.412 . S
O399 C372 1.393 . S
O400 C362 1.435 . S
O400 C397 1.458 . S
O401 C353 1.468 . S
O401 C354 1.408 1_554 S
H402 C343 0.980 . S
H403 C342 0.959 . S
H404 C342 0.959 . S
H405 C342 0.960 . S
H406 C345 0.929 . S
H407 C349 0.929 . S
H408 C350 0.959 . S
H409 C350 0.961 . S
H410 C350 0.961 . S
H411 C351 0.960 . S
H412 C351 0.960 . S
H413 C351 0.961 . S
H414 C353 0.980 . S
H415 C352 0.961 . S
H416 C352 0.960 . S
H417 C352 0.959 . S
H418 C355 0.930 . S
H419 C359 0.931 . S
H420 C360 0.959 1_455 S
H421 C360 0.961 1_455 S
H422 C360 0.959 . S
H423 C361 0.960 . S
H424 C361 0.960 1_455 S
H425 C361 0.960 . S
H426 C397 0.980 . S
H427 C363 0.930 . S
H428 C367 0.930 . S
H429 C368 0.961 . S
H430 C368 0.960 . S
H431 C368 0.958 . S
H432 C369 0.961 . S
H433 C369 0.960 . S
H434 C369 0.960 . S
H435 C371 0.980 . S
H436 C370 0.961 . S
H437 C370 0.961 . S
H438 C370 0.959 . S
H439 C373 0.932 . S
H440 C377 0.929 . S
H441 C378 0.961 . S
H442 C378 0.959 . S
H443 C378 0.959 . S
H444 C379 0.960 . S
H445 C379 0.962 . S
H446 C379 0.961 . S
H447 C381 0.929 . S
H448 C384 0.930 . S
H449 C385 0.929 . S
H450 C388 0.930 . S
H451 C391 0.929 . S
H452 C392 0.930 . S
H453 C396 0.962 . S
H454 C396 0.959 . S
H455 C396 0.958 . S
C456 C457 1.560 . S
C456 H517 0.959 . S
C456 H518 0.959 . S
C456 H519 0.960 . S
C457 C456 1.560 . S
C457 O512 1.426 . S
C457 H516 0.980 . S
C458 C459 1.407 . S
C458 C463 1.418 . S
C458 O512 1.334 . S
C459 C458 1.407 . S
C459 C460 1.360 . S
C459 H520 0.929 . S
C460 C459 1.360 . S
C460 C461 1.401 . S
C460 C464 1.527 . S
C461 C460 1.401 . S
C461 C462 1.405 . S
C461 C494 1.587 . S
C462 C461 1.405 . S
C462 C463 1.332 . S
C462 C465 1.496 . S
C463 C458 1.418 . S
C463 C462 1.332 . S
C463 H521 0.929 . S
C464 C460 1.527 . S
C464 H522 0.959 . S
C464 H523 0.961 . S
C464 H524 0.961 . S
C465 C462 1.496 . S
C465 H525 0.960 . S
C465 H526 0.960 . S
C465 H527 0.961 . S
C466 C467 1.517 . S
C466 H529 0.961 . S
C466 H530 0.960 . S
C466 H531 0.959 . S
C467 C466 1.517 . S
C467 O515 1.468 . S
C467 H528 0.980 . S
C468 C469 1.349 . S
C468 C473 1.367 . S
C468 O515 1.408 . S
C469 C468 1.349 . S
C469 C470 1.407 . S
C469 H532 0.930 . S
C470 C469 1.407 . S
C470 C471 1.449 . S
C470 C474 1.535 . S
C471 C470 1.449 . S
C471 C472 1.384 . S
C471 C496 1.553 . S
C472 C471 1.384 . S
C472 C473 1.364 . S
C472 C475 1.450 . S
C473 C468 1.367 . S
C473 C472 1.364 . S
C473 H533 0.931 . S
C474 C470 1.535 . S
C474 H534 0.959 . S
C474 H535 0.961 . S
C474 H536 0.959 . S
C475 C472 1.450 . S
C475 H537 0.960 . S
C475 H538 0.960 . S
C475 H539 0.960 . S
C476 C477 1.309 . S
C476 C481 1.304 . S
C476 O514 1.435 . S
C477 C476 1.309 . S
C477 C478 1.476 . S
C477 H541 0.930 . S
C478 C477 1.476 . S
C478 C479 1.400 . S
C478 C482 1.567 . S
C479 C478 1.400 . S
C479 C480 1.373 . S
C479 C501 1.432 . S
C480 C479 1.373 . S
C480 C481 1.339 . S
C480 C483 1.530 . S
C481 C476 1.304 . S
C481 C480 1.339 . S
C481 H542 0.930 . S
C482 C478 1.567 . S
C482 H543 0.961 . S
C482 H544 0.960 . S
C482 H545 0.958 . S
C483 C480 1.530 . S
C483 H546 0.961 . S
C483 H547 0.960 . S
C483 H548 0.960 . S
C484 C485 1.530 . S
C484 H550 0.961 . S
C484 H551 0.961 . S
C484 H552 0.959 . S
C485 C484 1.530 . S
C485 O513 1.412 . S
C485 H549 0.980 . S
C486 C487 1.288 . S
C486 C491 1.377 . S
C486 O513 1.393 . S
C487 C486 1.288 . S
C487 C488 1.369 . S
C487 H553 0.932 . S
C488 C487 1.369 . S
C488 C489 1.398 . S
C488 C492 1.527 1_565 S
C489 C488 1.398 . S
C489 C490 1.380 . S
C489 C503 1.497 1_565 S
C490 C489 1.380 . S
C490 C491 1.383 . S
C490 C493 1.603 . S
C491 C486 1.377 . S
C491 C490 1.383 . S
C491 H554 0.929 . S
C492 C488 1.527 1_545 S
C492 H555 0.961 . S
C492 H556 0.959 . S
C492 H557 0.959 1_545 S
C493 C490 1.603 . S
C493 H558 0.960 . S
C493 H559 0.962 . S
C493 H560 0.961 . S
C494 C461 1.587 . S
C494 C495 1.360 . S
C494 C507 1.412 . S
C495 C494 1.360 . S
C495 C496 1.365 1_565 S
C495 H561 0.929 . S
C496 C471 1.553 . S
C496 C495 1.365 1_545 S
C496 C497 1.404 . S
C497 C496 1.404 . S
C497 C498 1.395 . S
C497 C508 1.451 . S
C498 C497 1.395 . S
C498 C499 1.322 . S
C498 H562 0.930 . S
C499 C498 1.322 . S
C499 C500 1.459 1_556 S
C499 H563 0.929 . S
C500 C499 1.459 1_554 S
C500 C501 1.445 . S
C500 C509 1.395 . S
C501 C479 1.432 . S
C501 C500 1.445 . S
C501 C502 1.370 . S
C502 C501 1.370 . S
C502 C503 1.438 . S
C502 H564 0.930 . S
C503 C489 1.497 1_545 S
C503 C502 1.438 . S
C503 C504 1.360 1_545 S
C504 C503 1.360 1_565 S
C504 C505 1.401 . S
C504 C509 1.446 1_565 S
C505 C504 1.401 . S
C505 C506 1.347 1_554 S
C505 H565 0.929 . S
C506 C505 1.347 1_556 S
C506 C507 1.455 . S
C506 H566 0.930 . S
C507 C494 1.412 . S
C507 C506 1.455 . S
C507 C508 1.331 1_565 S
C508 C497 1.451 . S
C508 C507 1.331 1_545 S
C508 C509 1.497 1_556 S
C509 C500 1.395 . S
C509 C504 1.446 1_545 S
C509 C508 1.497 1_554 S
C510 C511 1.582 . S
C510 H567 0.962 . S
C510 H568 0.959 . S
C510 H569 0.958 . S
C511 C510 1.582 . S
C511 O514 1.458 . S
C511 H540 0.980 . S
O512 C457 1.426 . S
O512 C458 1.334 . S
O513 C485 1.412 . S
O513 C486 1.393 . S
O514 C476 1.435 . S
O514 C511 1.458 . S
O515 C467 1.468 . S
O515 C468 1.408 . S
H516 C457 0.980 . S
H517 C456 0.959 . S
H518 C456 0.959 . S
H519 C456 0.960 . S
H520 C459 0.929 . S
H521 C463 0.929 . S
H522 C464 0.959 . S
H523 C464 0.961 . S
H524 C464 0.961 . S
H525 C465 0.960 . S
H526 C465 0.960 . S
H527 C465 0.961 . S
H528 C467 0.980 . S
H529 C466 0.961 . S
H530 C466 0.960 . S
H531 C466 0.959 . S
H532 C469 0.930 . S
H533 C473 0.931 . S
H534 C474 0.959 . S
H535 C474 0.961 . S
H536 C474 0.959 . S
H537 C475 0.960 . S
H538 C475 0.960 . S
H539 C475 0.960 . S
H540 C511 0.980 . S
H541 C477 0.930 . S
H542 C481 0.930 . S
H543 C482 0.961 . S
H544 C482 0.960 . S
H545 C482 0.958 . S
H546 C483 0.961 . S
H547 C483 0.960 . S
H548 C483 0.960 . S
H549 C485 0.980 . S
H550 C484 0.961 . S
H551 C484 0.961 . S
H552 C484 0.959 . S
H553 C487 0.932 . S
H554 C491 0.929 . S
H555 C492 0.961 . S
H556 C492 0.959 . S
H557 C492 0.959 1_565 S
H558 C493 0.960 . S
H559 C493 0.962 . S
H560 C493 0.961 . S
H561 C495 0.929 . S
H562 C498 0.930 . S
H563 C499 0.929 . S
H564 C502 0.930 . S
H565 C505 0.929 . S
H566 C506 0.930 . S
H567 C510 0.962 . S
H568 C510 0.959 . S
H569 C510 0.958 . S
C570 C571 1.560 . S
C570 H631 0.959 . S
C570 H632 0.959 . S
C570 H633 0.960 . S
C571 C570 1.560 . S
C571 O626 1.426 . S
C571 H630 0.980 . S
C572 C573 1.407 . S
C572 C577 1.418 . S
C572 O626 1.334 . S
C573 C572 1.407 . S
C573 C574 1.360 . S
C573 H634 0.929 . S
C574 C573 1.360 . S
C574 C575 1.401 . S
C574 C578 1.527 . S
C575 C574 1.401 . S
C575 C576 1.405 . S
C575 C608 1.587 . S
C576 C575 1.405 . S
C576 C577 1.332 . S
C576 C579 1.496 . S
C577 C572 1.418 . S
C577 C576 1.332 . S
C577 H635 0.929 . S
C578 C574 1.527 . S
C578 H636 0.959 . S
C578 H637 0.961 . S
C578 H638 0.961 . S
C579 C576 1.496 . S
C579 H639 0.960 . S
C579 H640 0.960 . S
C579 H641 0.961 . S
C580 C581 1.517 . S
C580 H643 0.961 . S
C580 H644 0.960 . S
C580 H645 0.959 . S
C581 C580 1.517 . S
C581 O629 1.468 . S
C581 H642 0.980 . S
C582 C583 1.349 1_556 S
C582 C587 1.367 1_556 S
C582 O629 1.408 . S
C583 C582 1.349 1_554 S
C583 C584 1.407 . S
C583 H646 0.930 1_554 S
C584 C583 1.407 . S
C584 C585 1.449 . S
C584 C588 1.535 . S
C585 C584 1.449 . S
C585 C586 1.384 . S
C585 C610 1.553 . S
C586 C585 1.384 . S
C586 C587 1.364 . S
C586 C589 1.450 . S
C587 C582 1.367 1_554 S
C587 C586 1.364 . S
C587 H647 0.931 . S
C588 C584 1.535 . S
C588 H648 0.959 . S
C588 H649 0.961 . S
C588 H650 0.959 . S
C589 C586 1.450 . S
C589 H651 0.960 . S
C589 H652 0.960 . S
C589 H653 0.960 . S
C590 C591 1.309 . S
C590 C595 1.304 . S
C590 O628 1.435 . S
C591 C590 1.309 . S
C591 C592 1.476 . S
C591 H655 0.930 . S
C592 C591 1.476 . S
C592 C593 1.400 . S
C592 C596 1.567 . S
C593 C592 1.400 . S
C593 C594 1.373 . S
C593 C615 1.432 . S
C594 C593 1.373 . S
C594 C595 1.339 . S
C594 C597 1.530 . S
C595 C590 1.304 . S
C595 C594 1.339 . S
C595 H656 0.930 . S
C596 C592 1.567 . S
C596 H657 0.961 . S
C596 H658 0.960 . S
C596 H659 0.958 . S
C597 C594 1.530 . S
C597 H660 0.961 . S
C597 H661 0.960 . S
C597 H662 0.960 . S
C598 C599 1.530 . S
C598 H664 0.961 . S
C598 H665 0.961 . S
C598 H666 0.959 . S
C599 C598 1.530 . S
C599 O627 1.412 . S
C599 H663 0.980 . S
C600 C601 1.288 . S
C600 C605 1.377 . S
C600 O627 1.393 . S
C601 C600 1.288 . S
C601 C602 1.369 . S
C601 H667 0.932 . S
C602 C601 1.369 . S
C602 C603 1.398 . S
C602 C606 1.527 . S
C603 C602 1.398 . S
C603 C604 1.380 . S
C603 C617 1.497 . S
C604 C603 1.380 . S
C604 C605 1.383 . S
C604 C607 1.603 . S
C605 C600 1.377 . S
C605 C604 1.383 . S
C605 H668 0.929 . S
C606 C602 1.527 . S
C606 H669 0.961 . S
C606 H670 0.959 . S
C606 H671 0.959 . S
C607 C604 1.603 . S
C607 H672 0.960 . S
C607 H673 0.962 . S
C607 H674 0.961 . S
C608 C575 1.587 . S
C608 C609 1.360 . S
C608 C621 1.412 . S
C609 C608 1.360 . S
C609 C610 1.365 . S
C609 H675 0.929 . S
C610 C585 1.553 . S
C610 C609 1.365 . S
C610 C611 1.404 . S
C611 C610 1.404 . S
C611 C612 1.395 . S
C611 C622 1.451 . S
C612 C611 1.395 . S
C612 C613 1.322 . S
C612 H676 0.930 . S
C613 C612 1.322 . S
C613 C614 1.459 . S
C613 H677 0.929 . S
C614 C613 1.459 . S
C614 C615 1.445 . S
C614 C623 1.395 . S
C615 C593 1.432 . S
C615 C614 1.445 . S
C615 C616 1.370 . S
C616 C615 1.370 . S
C616 C617 1.438 . S
C616 H678 0.930 . S
C617 C603 1.497 . S
C617 C616 1.438 . S
C617 C618 1.360 . S
C618 C617 1.360 . S
C618 C619 1.401 . S
C618 C623 1.446 . S
C619 C618 1.401 . S
C619 C620 1.347 . S
C619 H679 0.929 . S
C620 C619 1.347 . S
C620 C621 1.455 . S
C620 H680 0.930 . S
C621 C608 1.412 . S
C621 C620 1.455 . S
C621 C622 1.331 . S
C622 C611 1.451 . S
C622 C621 1.331 . S
C622 C623 1.497 . S
C623 C614 1.395 . S
C623 C618 1.446 . S
C623 C622 1.497 . S
C624 C625 1.582 . S
C624 H681 0.962 . S
C624 H682 0.959 . S
C624 H683 0.958 . S
C625 C624 1.582 . S
C625 O628 1.458 . S
C625 H654 0.980 . S
O626 C571 1.426 . S
O626 C572 1.334 . S
O627 C599 1.412 . S
O627 C600 1.393 . S
O628 C590 1.435 . S
O628 C625 1.458 . S
O629 C581 1.468 . S
O629 C582 1.408 . S
H630 C571 0.980 . S
H631 C570 0.959 . S
H632 C570 0.959 . S
H633 C570 0.960 . S
H634 C573 0.929 . S
H635 C577 0.929 . S
H636 C578 0.959 . S
H637 C578 0.961 . S
H638 C578 0.961 . S
H639 C579 0.960 . S
H640 C579 0.960 . S
H641 C579 0.961 . S
H642 C581 0.980 . S
H643 C580 0.961 . S
H644 C580 0.960 . S
H645 C580 0.959 . S
H646 C583 0.930 1_556 S
H647 C587 0.931 . S
H648 C588 0.959 . S
H649 C588 0.961 . S
H650 C588 0.959 . S
H651 C589 0.960 . S
H652 C589 0.960 . S
H653 C589 0.960 . S
H654 C625 0.980 . S
H655 C591 0.930 . S
H656 C595 0.930 . S
H657 C596 0.961 . S
H658 C596 0.960 . S
H659 C596 0.958 . S
H660 C597 0.961 . S
H661 C597 0.960 . S
H662 C597 0.960 . S
H663 C599 0.980 . S
H664 C598 0.961 . S
H665 C598 0.961 . S
H666 C598 0.959 . S
H667 C601 0.932 . S
H668 C605 0.929 . S
H669 C606 0.961 . S
H670 C606 0.959 . S
H671 C606 0.959 . S
H672 C607 0.960 . S
H673 C607 0.962 . S
H674 C607 0.961 . S
H675 C609 0.929 . S
H676 C612 0.930 . S
H677 C613 0.929 . S
H678 C616 0.930 . S
H679 C619 0.929 . S
H680 C620 0.930 . S
H681 C624 0.962 . S
H682 C624 0.959 . S
H683 C624 0.958 . S
O684 Cd685 2.223 . S
O684 C692 1.315 . S
Cd685 O684 2.223 . S
Cd685 O688 2.297 . S
Cd685 O689 2.439 . S
Cd685 O695 2.240 . S
Cd686 O687 2.240 . S
Cd686 O694 2.223 . S
Cd686 O696 2.297 . S
Cd686 O697 2.439 . S
O687 Cd686 2.240 . S
O687 C692 1.279 . S
O688 Cd685 2.297 . S
O688 C690 1.247 . S
O689 Cd685 2.439 . S
O689 C690 1.208 . S
C690 O688 1.247 . S
C690 O689 1.208 . S
C691 O696 1.247 . S
C691 O697 1.208 . S
C692 O684 1.315 . S
C692 O687 1.279 . S
C693 O694 1.315 . S
C693 O695 1.279 . S
O694 Cd686 2.223 . S
O694 C693 1.315 . S
O695 Cd685 2.240 . S
O695 C693 1.279 . S
O696 Cd686 2.297 . S
O696 C691 1.247 . S
O697 Cd686 2.439 . S
O697 C691 1.208 . S
O698 Cd699 2.223 . S
O698 C706 1.315 . S
Cd699 O698 2.223 . S
Cd699 O702 2.297 . S
Cd699 O703 2.439 . S
Cd699 O709 2.240 . S
Cd700 O701 2.240 . S
Cd700 O708 2.223 . S
Cd700 O710 2.297 . S
Cd700 O711 2.439 . S
O701 Cd700 2.240 . S
O701 C706 1.279 . S
O702 Cd699 2.297 . S
O702 C704 1.247 . S
O703 Cd699 2.439 . S
O703 C704 1.208 . S
C704 O702 1.247 . S
C704 O703 1.208 . S
C705 O710 1.247 . S
C705 O711 1.208 . S
C706 O698 1.315 . S
C706 O701 1.279 . S
C707 O708 1.315 . S
C707 O709 1.279 . S
O708 Cd700 2.223 . S
O708 C707 1.315 . S
O709 Cd699 2.240 . S
O709 C707 1.279 . S
O710 Cd700 2.297 . S
O710 C705 1.247 . S
O711 Cd700 2.439 . S
O711 C705 1.208 . S
O712 Cd713 2.223 . S
O712 C720 1.315 . S
Cd713 O712 2.223 . S
Cd713 O716 2.297 . S
Cd713 O717 2.439 . S
Cd713 O723 2.240 . S
Cd714 O715 2.240 . S
Cd714 O722 2.223 . S
Cd714 O724 2.297 . S
Cd714 O725 2.439 . S
O715 Cd714 2.240 . S
O715 C720 1.279 . S
O716 Cd713 2.297 . S
O716 C718 1.247 . S
O717 Cd713 2.439 . S
O717 C718 1.208 . S
C718 O716 1.247 . S
C718 O717 1.208 . S
C719 O724 1.247 . S
C719 O725 1.208 . S
C720 O712 1.315 . S
C720 O715 1.279 . S
C721 O722 1.315 . S
C721 O723 1.279 . S
O722 Cd714 2.223 . S
O722 C721 1.315 . S
O723 Cd713 2.240 . S
O723 C721 1.279 . S
O724 Cd714 2.297 . S
O724 C719 1.247 . S
O725 Cd714 2.439 . S
O725 C719 1.208 . S
O726 Cd727 2.223 . S
O726 C734 1.315 . S
Cd727 O726 2.223 . S
Cd727 O730 2.297 . S
Cd727 O731 2.439 . S
Cd727 O737 2.240 . S
Cd728 O729 2.240 . S
Cd728 O736 2.223 . S
Cd728 O738 2.297 . S
Cd728 O739 2.439 . S
O729 Cd728 2.240 . S
O729 C734 1.279 . S
O730 Cd727 2.297 . S
O730 C732 1.247 . S
O731 Cd727 2.439 . S
O731 C732 1.208 . S
C732 O730 1.247 . S
C732 O731 1.208 . S
C733 O738 1.247 . S
C733 O739 1.208 . S
C734 O726 1.315 . S
C734 O729 1.279 . S
C735 O736 1.315 . S
C735 O737 1.279 . S
O736 Cd728 2.223 . S
O736 C735 1.315 . S
O737 Cd727 2.240 . S
O737 C735 1.279 . S
O738 Cd728 2.297 . S
O738 C733 1.247 . S
O739 Cd728 2.439 . S
O739 C733 1.208 . S
O740 Cd741 2.223 . S
O740 C748 1.315 . S
Cd741 O740 2.223 . S
Cd741 O744 2.297 . S
Cd741 O745 2.439 . S
Cd741 O751 2.240 . S
Cd742 O743 2.240 . S
Cd742 O750 2.223 . S
Cd742 O752 2.297 . S
Cd742 O753 2.439 . S
O743 Cd742 2.240 . S
O743 C748 1.279 . S
O744 Cd741 2.297 . S
O744 C746 1.247 . S
O745 Cd741 2.439 . S
O745 C746 1.208 . S
C746 O744 1.247 . S
C746 O745 1.208 . S
C747 O752 1.247 . S
C747 O753 1.208 . S
C748 O740 1.315 . S
C748 O743 1.279 . S
C749 O750 1.315 . S
C749 O751 1.279 . S
O750 Cd742 2.223 . S
O750 C749 1.315 . S
O751 Cd741 2.240 . S
O751 C749 1.279 . S
O752 Cd742 2.297 . S
O752 C747 1.247 . S
O753 Cd742 2.439 . S
O753 C747 1.208 . S
O754 Cd755 2.223 . S
O754 C762 1.315 . S
Cd755 O754 2.223 . S
Cd755 O758 2.297 . S
Cd755 O759 2.439 . S
Cd755 O765 2.240 . S
Cd756 O757 2.240 . S
Cd756 O764 2.223 . S
Cd756 O766 2.297 . S
Cd756 O767 2.439 . S
O757 Cd756 2.240 . S
O757 C762 1.279 . S
O758 Cd755 2.297 . S
O758 C760 1.247 . S
O759 Cd755 2.439 . S
O759 C760 1.208 . S
C760 O758 1.247 . S
C760 O759 1.208 . S
C761 O766 1.247 . S
C761 O767 1.208 . S
C762 O754 1.315 . S
C762 O757 1.279 . S
C763 O764 1.315 . S
C763 O765 1.279 . S
O764 Cd756 2.223 . S
O764 C763 1.315 . S
O765 Cd755 2.240 . S
O765 C763 1.279 . S
O766 Cd756 2.297 . S
O766 C761 1.247 . S
O767 Cd756 2.439 . S
O767 C761 1.208 . S
C761 C1 3.234 . S
C169 C690 1.179 . S
C283 C704 3.716 . S
C397 C718 0.861 . S
C732 C457 3.173 . S
C571 C747 1.923 . S
C115 C705 1.954 . S
C229 C719 3.113 . S
C343 C733 2.068 . S
C746 C511 3.571 . S
C760 C625 1.118 . S
C691 C55 3.716 . S
C29 C707 0.930 . S
C125 C721 2.044 . S
C735 C239 1.294 . S
C353 C748 2.086 . S
C762 C485 0.886 . S
C693 C599 2.949 . S
C763 C143 2.885 . S
C257 C692 0.956 . S
C706 C371 2.910 . S
C467 C720 1.384 . S
C581 C734 1.996 . S
C11 C749 1.277 . S
