# Generated by pormake.
# Topology pyr, (3,6)-cn, num edge types: 1
# Building blocks:
#     Node 0, Type 0, BuildingBlock: MIDCAF_clean_linker_0, # of connection points: 3
#     Node 1, Type 0, BuildingBlock: MIDCAF_clean_linker_0, # of connection points: 3
#     Node 2, Type 0, BuildingBlock: MIDCAF_clean_linker_0, # of connection points: 3
#     Node 3, Type 0, BuildingBlock: MIDCAF_clean_linker_0, # of connection points: 3
#     Node 4, Type 0, BuildingBlock: MIDCAF_clean_linker_0, # of connection points: 3
#     Node 5, Type 0, BuildingBlock: MIDCAF_clean_linker_0, # of connection points: 3
#     Node 6, Type 0, BuildingBlock: MIDCAF_clean_linker_0, # of connection points: 3
#     Node 7, Type 0, BuildingBlock: MIDCAF_clean_linker_0, # of connection points: 3
#     Node 8, Type 1, BuildingBlock: PAMTUU_clean_sbu_0, # of connection points: 6
#     Node 9, Type 1, BuildingBlock: PAMTUU_clean_sbu_0, # of connection points: 6
#     Node 10, Type 1, BuildingBlock: PAMTUU_clean_sbu_0, # of connection points: 6
#     Node 11, Type 1, BuildingBlock: PAMTUU_clean_sbu_0, # of connection points: 6
#     Edge 12, Type (0, 1), BuildingBlock: XUDNAN_clean_linker_2, # of connection points: 2
#     Edge 13, Type (0, 1), BuildingBlock: XUDNAN_clean_linker_2, # of connection points: 2
#     Edge 14, Type (0, 1), BuildingBlock: XUDNAN_clean_linker_2, # of connection points: 2
#     Edge 15, Type (0, 1), BuildingBlock: XUDNAN_clean_linker_2, # of connection points: 2
#     Edge 16, Type (0, 1), BuildingBlock: XUDNAN_clean_linker_2, # of connection points: 2
#     Edge 17, Type (0, 1), BuildingBlock: XUDNAN_clean_linker_2, # of connection points: 2
#     Edge 18, Type (0, 1), BuildingBlock: XUDNAN_clean_linker_2, # of connection points: 2
#     Edge 19, Type (0, 1), BuildingBlock: XUDNAN_clean_linker_2, # of connection points: 2
#     Edge 20, Type (0, 1), BuildingBlock: XUDNAN_clean_linker_2, # of connection points: 2
#     Edge 21, Type (0, 1), BuildingBlock: XUDNAN_clean_linker_2, # of connection points: 2
#     Edge 22, Type (0, 1), BuildingBlock: XUDNAN_clean_linker_2, # of connection points: 2
#     Edge 23, Type (0, 1), BuildingBlock: XUDNAN_clean_linker_2, # of connection points: 2
#     Edge 24, Type (0, 1), BuildingBlock: XUDNAN_clean_linker_2, # of connection points: 2
#     Edge 25, Type (0, 1), BuildingBlock: XUDNAN_clean_linker_2, # of connection points: 2
#     Edge 26, Type (0, 1), BuildingBlock: XUDNAN_clean_linker_2, # of connection points: 2
#     Edge 27, Type (0, 1), BuildingBlock: XUDNAN_clean_linker_2, # of connection points: 2
#     Edge 28, Type (0, 1), BuildingBlock: XUDNAN_clean_linker_2, # of connection points: 2
#     Edge 29, Type (0, 1), BuildingBlock: XUDNAN_clean_linker_2, # of connection points: 2
#     Edge 30, Type (0, 1), BuildingBlock: XUDNAN_clean_linker_2, # of connection points: 2
#     Edge 31, Type (0, 1), BuildingBlock: XUDNAN_clean_linker_2, # of connection points: 2
#     Edge 32, Type (0, 1), BuildingBlock: XUDNAN_clean_linker_2, # of connection points: 2
#     Edge 33, Type (0, 1), BuildingBlock: XUDNAN_clean_linker_2, # of connection points: 2
#     Edge 34, Type (0, 1), BuildingBlock: XUDNAN_clean_linker_2, # of connection points: 2
#     Edge 35, Type (0, 1), BuildingBlock: XUDNAN_clean_linker_2, # of connection points: 2
# Relax obj value: 0.087
# Max RMSD: 0.125
# Mean RMSD: 0.052
data_MOF--net-pyr--node1-PAMTUU_clean_sbu_0--node2-MIDCAF_clean_linker_0--edge1-XUDNAN_clean_linker_2
_symmetry_space_group_name_H-M    P1
_symmetry_Int_Tables_number       1
_symmetry_cell_setting            triclinic
loop_
_symmetry_equiv_pos_as_xyz
'x, y, z'
_cell_length_a     46.234313
_cell_length_b     47.789697
_cell_length_c     46.377827
_cell_angle_alpha  90.052853
_cell_angle_beta   89.381808
_cell_angle_gamma 99.799459
loop_
_atom_site_label
_atom_site_type_symbol
_atom_site_fract_x
_atom_site_fract_y
_atom_site_fract_z
_atom_type_partial_charge
C0 C 0.28439 0.24842 0.32077 0.0
C1 C 0.29702 0.22631 0.33255 0.0
C2 C 0.32043 0.21723 0.31776 0.0
C3 C 0.32954 0.22852 0.29073 0.0
H4 H 0.38712 0.2219 0.22238 0.0
H5 H 0.41892 0.1966 0.19368 0.0
H6 H 0.37981 0.22198 0.11578 0.0
H7 H 0.34904 0.2479 0.1441 0.0
H8 H 0.29473 0.275 0.14596 0.0
H9 H 0.25502 0.29174 0.12075 0.0
H10 H 0.22302 0.32062 0.20135 0.0
H11 H 0.26277 0.30387 0.22683 0.0
H12 H 0.2821 0.27561 0.28464 0.0
H13 H 0.26617 0.25576 0.33154 0.0
H14 H 0.33081 0.20045 0.32651 0.0
H15 H 0.34666 0.21999 0.27932 0.0
N16 N 0.34162 0.24628 0.2317 0.0
N17 N 0.32534 0.26459 0.18915 0.0
N18 N 0.3019 0.27097 0.23304 0.0
C19 C 0.34427 0.25035 0.20274 0.0
C20 C 0.3042 0.27509 0.20409 0.0
C21 C 0.32057 0.25667 0.24706 0.0
C22 C 0.36541 0.2369 0.18561 0.0
C23 C 0.38559 0.22236 0.19911 0.0
C24 C 0.4037 0.2077 0.18267 0.0
C25 C 0.40192 0.20718 0.15241 0.0
C26 C 0.38223 0.2223 0.13898 0.0
C27 C 0.36435 0.23708 0.15533 0.0
C28 C 0.28188 0.28792 0.18851 0.0
C29 C 0.27949 0.28519 0.15837 0.0
C30 C 0.25662 0.29459 0.14389 0.0
C31 C 0.23586 0.30723 0.15914 0.0
C32 C 0.23883 0.31102 0.18906 0.0
C33 C 0.26153 0.30133 0.20364 0.0
C34 C 0.31524 0.24899 0.27785 0.0
C35 C 0.29339 0.25963 0.29371 0.0
C36 C 0.14363 0.84736 0.67235 0.0
C37 C 0.14701 0.84706 0.64223 0.0
C38 C 0.16091 0.82614 0.62945 0.0
C39 C 0.1721 0.80648 0.64652 0.0
H40 H 0.21921 0.74008 0.64199 0.0
H41 H 0.24514 0.70409 0.62139 0.0
H42 H 0.25915 0.67393 0.707 0.0
H43 H 0.23328 0.70955 0.72758 0.0
H44 H 0.26195 0.78362 0.76083 0.0
H45 H 0.28147 0.80702 0.80439 0.0
H46 H 0.19517 0.82498 0.82649 0.0
H47 H 0.17656 0.8037 0.78108 0.0
H48 H 0.15292 0.82928 0.71266 0.0
H49 H 0.13312 0.86334 0.68277 0.0
H50 H 0.1635 0.82525 0.60624 0.0
H51 H 0.18339 0.79113 0.63599 0.0
N52 N 0.19558 0.76678 0.68327 0.0
N53 N 0.21796 0.75923 0.72704 0.0
N54 N 0.1912 0.79646 0.72287 0.0
C55 C 0.21168 0.75142 0.69936 0.0
C56 C 0.20768 0.78157 0.73895 0.0
C57 C 0.18508 0.78923 0.69497 0.0
C58 C 0.2244 0.72785 0.68645 0.0
C59 C 0.22742 0.72547 0.65638 0.0
C60 C 0.24236 0.70498 0.64457 0.0
C61 C 0.25419 0.68626 0.66259 0.0
C62 C 0.25001 0.68785 0.69254 0.0
C63 C 0.23539 0.70846 0.70434 0.0
C64 C 0.21783 0.79204 0.7676 0.0
C65 C 0.24712 0.79231 0.77523 0.0
C66 C 0.25825 0.80561 0.80052 0.0
C67 C 0.24009 0.81823 0.81935 0.0
C68 C 0.2102 0.81636 0.81234 0.0
C69 C 0.19934 0.80388 0.78646 0.0
C70 C 0.16995 0.80758 0.67676 0.0
C71 C 0.15511 0.82792 0.68945 0.0
C72 C 0.64476 0.26874 0.90372 0.0
C73 C 0.61902 0.25285 0.89198 0.0
C74 C 0.60645 0.26528 0.86852 0.0
C75 C 0.61932 0.2919 0.8569 0.0
H76 H 0.61617 0.34664 0.78466 0.0
H77 H 0.59629 0.36462 0.74128 0.0
H78 H 0.65602 0.44381 0.74973 0.0
H79 H 0.67617 0.42571 0.79347 0.0
H80 H 0.7374 0.42165 0.83421 0.0
H81 H 0.78225 0.4467 0.85545 0.0
H82 H 0.76746 0.39245 0.93045 0.0
H83 H 0.72308 0.3665 0.90838 0.0
H84 H 0.67758 0.3065 0.90175 0.0
H85 H 0.65551 0.26026 0.92153 0.0
H86 H 0.58635 0.25448 0.85897 0.0
H87 H 0.60876 0.30018 0.83883 0.0
N88 N 0.64821 0.34698 0.83153 0.0
N89 N 0.68619 0.38671 0.8321 0.0
N90 N 0.68455 0.3508 0.86717 0.0
C91 C 0.66115 0.37244 0.81966 0.0
C92 C 0.69814 0.37613 0.85587 0.0
C93 C 0.65963 0.33589 0.85533 0.0
C94 C 0.6482 0.38436 0.79303 0.0
C95 C 0.6252 0.36795 0.77755 0.0
C96 C 0.61373 0.37837 0.75233 0.0
C97 C 0.62443 0.40585 0.74135 0.0
C98 C 0.64686 0.42268 0.75724 0.0
C99 C 0.65864 0.41209 0.78241 0.0
C100 C 0.72603 0.39192 0.86939 0.0
C101 C 0.74355 0.41496 0.85525 0.0
C102 C 0.76949 0.42961 0.86776 0.0
C103 C 0.77898 0.42227 0.89526 0.0
C104 C 0.76156 0.39896 0.90928 0.0
C105 C 0.73572 0.38406 0.89657 0.0
C106 C 0.64534 0.30751 0.86825 0.0
C107 C 0.65764 0.29545 0.8921 0.0
C108 C 0.76647 0.65786 0.40029 0.0
C109 C 0.75761 0.62818 0.40197 0.0
C110 C 0.77411 0.6112 0.38578 0.0
C111 C 0.79939 0.6236 0.36971 0.0
H112 H 0.8642 0.61464 0.29855 0.0
H113 H 0.8838 0.59549 0.25465 0.0
H114 H 0.93688 0.67714 0.2378 0.0
H115 H 0.91774 0.69615 0.28157 0.0
H116 H 0.93313 0.7375 0.35589 0.0
H117 H 0.95105 0.78213 0.3819 0.0
H118 H 0.86161 0.78951 0.40331 0.0
H119 H 0.84422 0.74533 0.37871 0.0
H120 H 0.79751 0.693 0.38473 0.0
H121 H 0.75411 0.67196 0.41144 0.0
H122 H 0.76815 0.5883 0.38634 0.0
H123 H 0.812 0.60988 0.35831 0.0
N124 N 0.85042 0.65563 0.33293 0.0
N125 N 0.88797 0.69612 0.33069 0.0
N126 N 0.8498 0.69368 0.36484 0.0
C127 C 0.87573 0.66981 0.32017 0.0
C128 C 0.87506 0.7082 0.35319 0.0
C129 C 0.83722 0.66756 0.3553 0.0
C130 C 0.88907 0.65722 0.29401 0.0
C131 C 0.88026 0.62854 0.28569 0.0
C132 C 0.89169 0.6174 0.26045 0.0
C133 C 0.91198 0.63461 0.24223 0.0
C134 C 0.92117 0.66308 0.2509 0.0
C135 C 0.91016 0.67407 0.27628 0.0
C136 C 0.88712 0.73723 0.36542 0.0
C137 C 0.91735 0.74884 0.36597 0.0
C138 C 0.92764 0.77457 0.38094 0.0
C139 C 0.908 0.78952 0.39563 0.0
C140 C 0.87779 0.77852 0.39342 0.0
C141 C 0.86767 0.75297 0.37895 0.0
C142 C 0.80893 0.6533 0.3695 0.0
C143 C 0.79157 0.67008 0.38466 0.0
C144 C 0.66003 0.86179 0.86888 0.0
C145 C 0.64974 0.85814 0.8974 0.0
C146 C 0.65014 0.83218 0.9114 0.0
C147 C 0.66206 0.81068 0.89751 0.0
H148 H 0.72449 0.76037 0.91883 0.0
H149 H 0.76025 0.7407 0.94736 0.0
H150 H 0.78856 0.70048 0.87111 0.0
H151 H 0.75266 0.71957 0.84271 0.0
H152 H 0.75254 0.75296 0.78431 0.0
H153 H 0.77777 0.76991 0.7397 0.0
H154 H 0.72094 0.83226 0.73099 0.0
H155 H 0.69578 0.81566 0.77569 0.0
H156 H 0.67988 0.84403 0.83305 0.0
H157 H 0.65971 0.88159 0.85762 0.0
H158 H 0.64232 0.82897 0.93345 0.0
H159 H 0.66306 0.79123 0.90914 0.0
N160 N 0.70127 0.77532 0.87205 0.0
N161 N 0.72439 0.76007 0.83112 0.0
N162 N 0.69492 0.79502 0.82676 0.0
C163 C 0.71887 0.75835 0.85995 0.0
C164 C 0.71239 0.7782 0.81431 0.0
C165 C 0.68901 0.79355 0.85552 0.0
C166 C 0.736 0.74195 0.87834 0.0
C167 C 0.73784 0.74678 0.90825 0.0
C168 C 0.75848 0.73569 0.9246 0.0
C169 C 0.77751 0.71939 0.91142 0.0
C170 C 0.77415 0.71283 0.88198 0.0
C171 C 0.75363 0.72397 0.86563 0.0
C172 C 0.72261 0.78344 0.78407 0.0
C173 C 0.74487 0.76981 0.77258 0.0
C174 C 0.75927 0.7794 0.74688 0.0
C175 C 0.75166 0.80274 0.73222 0.0
C176 C 0.72758 0.81454 0.7422 0.0
C177 C 0.71315 0.80496 0.76782 0.0
C178 C 0.67324 0.81465 0.86921 0.0
C179 C 0.67141 0.84018 0.85481 0.0
C180 C 0.8342 0.21185 0.21948 0.0
C181 C 0.81289 0.22316 0.20398 0.0
C182 C 0.80232 0.24685 0.21523 0.0
C183 C 0.81139 0.25781 0.24218 0.0
H184 H 0.77299 0.29235 0.31081 0.0
H185 H 0.73817 0.31535 0.33771 0.0
H186 H 0.79788 0.32809 0.40947 0.0
H187 H 0.83223 0.30414 0.38296 0.0
H188 H 0.86221 0.24817 0.39231 0.0
H189 H 0.88886 0.22077 0.42283 0.0
H190 H 0.92567 0.18593 0.34753 0.0
H191 H 0.89779 0.21277 0.3166 0.0
H192 H 0.85888 0.21284 0.25831 0.0
H193 H 0.84304 0.19381 0.21119 0.0
H194 H 0.78566 0.25592 0.20405 0.0
H195 H 0.80178 0.27531 0.25064 0.0
N196 N 0.82126 0.27219 0.3018 0.0
N197 N 0.84349 0.26624 0.34593 0.0
N198 N 0.85595 0.24177 0.30508 0.0
C199 C 0.82449 0.27855 0.33024 0.0
C200 C 0.85933 0.24787 0.33361 0.0
C201 C 0.83708 0.25403 0.28896 0.0
C202 C 0.80526 0.29609 0.34485 0.0
C203 C 0.77889 0.30039 0.33217 0.0
C204 C 0.75893 0.31371 0.3476 0.0
C205 C 0.76503 0.32331 0.37594 0.0
C206 C 0.79213 0.32034 0.38798 0.0
C207 C 0.81193 0.30676 0.37269 0.0
C208 C 0.87777 0.23272 0.3519 0.0
C209 C 0.87612 0.2349 0.38208 0.0
C210 C 0.89165 0.21924 0.3997 0.0
C211 C 0.90962 0.2012 0.38771 0.0
C212 C 0.91177 0.19936 0.3575 0.0
C213 C 0.89594 0.2149 0.33977 0.0
C214 C 0.83122 0.24531 0.25858 0.0
C215 C 0.84333 0.22283 0.24647 0.0
C216 C 0.26495 0.61316 0.18207 0.0
C217 C 0.25298 0.62395 0.15729 0.0
C218 C 0.26695 0.6508 0.14725 0.0
C219 C 0.29212 0.66582 0.16095 0.0
H220 H 0.34911 0.74461 0.1602 0.0
H221 H 0.37215 0.79054 0.14045 0.0
H222 H 0.45039 0.78532 0.18873 0.0
H223 H 0.42687 0.74033 0.2093 0.0
H224 H 0.42594 0.68722 0.2563 0.0
H225 H 0.44872 0.66604 0.29619 0.0
H226 H 0.36767 0.60908 0.31325 0.0
H227 H 0.34476 0.63003 0.27272 0.0
H228 H 0.29835 0.61873 0.21451 0.0
H229 H 0.25484 0.59295 0.19114 0.0
H230 H 0.25893 0.66001 0.12824 0.0
H231 H 0.30218 0.68613 0.15204 0.0
N232 N 0.34576 0.69585 0.1883 0.0
N233 N 0.38299 0.69846 0.22291 0.0
N234 N 0.34421 0.6594 0.22278 0.0
C235 C 0.37117 0.71017 0.19974 0.0
C236 C 0.36969 0.67316 0.23486 0.0
C237 C 0.33207 0.67044 0.19937 0.0
C238 C 0.38579 0.7384 0.18684 0.0
C239 C 0.37124 0.75327 0.16673 0.0
C240 C 0.38467 0.77981 0.15511 0.0
C241 C 0.41335 0.79261 0.16292 0.0
C242 C 0.42806 0.77723 0.18249 0.0
C243 C 0.41454 0.75094 0.19432 0.0
C244 C 0.3833 0.66048 0.26063 0.0
C245 C 0.41271 0.67029 0.26847 0.0
C246 C 0.42591 0.65801 0.29157 0.0
C247 C 0.41026 0.63564 0.30839 0.0
C248 C 0.38056 0.62633 0.30122 0.0
C249 C 0.36744 0.6383 0.27765 0.0
C250 C 0.30439 0.65471 0.18537 0.0
C251 C 0.29006 0.62817 0.19577 0.0
C252 C 0.1298 0.27921 0.63448 0.0
C253 C 0.11961 0.25373 0.6495 0.0
C254 C 0.11796 0.25543 0.67994 0.0
C255 C 0.12794 0.28137 0.69468 0.0
H256 H 0.10894 0.3553 0.76103 0.0
H257 H 0.09181 0.38014 0.80273 0.0
H258 H 0.17465 0.43744 0.80327 0.0
H259 H 0.19118 0.41347 0.76174 0.0
H260 H 0.24655 0.40728 0.70944 0.0
H261 H 0.2912 0.42559 0.68111 0.0
H262 H 0.24923 0.38712 0.60466 0.0
H263 H 0.20598 0.36824 0.63274 0.0
H264 H 0.14849 0.32331 0.63625 0.0
H265 H 0.13068 0.27942 0.61113 0.0
H266 H 0.11026 0.23647 0.69246 0.0
H267 H 0.12768 0.28154 0.71802 0.0
N268 N 0.1467 0.34394 0.71881 0.0
N269 N 0.18681 0.38205 0.71577 0.0
N270 N 0.18009 0.34715 0.67983 0.0
C271 C 0.16201 0.36877 0.7301 0.0
C272 C 0.19596 0.3714 0.69052 0.0
C273 C 0.1558 0.33298 0.69352 0.0
C274 C 0.15153 0.38231 0.75727 0.0
C275 C 0.12358 0.37316 0.77009 0.0
C276 C 0.11371 0.38744 0.79429 0.0
C277 C 0.13139 0.41146 0.80663 0.0
C278 C 0.15969 0.41975 0.79434 0.0
C279 C 0.16941 0.40568 0.77028 0.0
C280 C 0.22257 0.38573 0.67366 0.0
C281 C 0.2469 0.40289 0.68654 0.0
C282 C 0.27258 0.41349 0.67018 0.0
C283 C 0.27457 0.40741 0.64042 0.0
C284 C 0.24948 0.39156 0.62756 0.0
C285 C 0.22427 0.38078 0.6438 0.0
C286 C 0.13991 0.30627 0.67935 0.0
C287 C 0.1399 0.30471 0.64901 0.0
Tb288 Tb 0.03923 0.02625 0.49447 0.0
Tb289 Tb 0.99448 1.01594 0.54987 0.0
C290 C 0.98912 0.97176 0.49678 0.0
C291 C 0.10273 0.05495 0.44773 0.0
C292 C 0.15516 0.09344 0.43801 0.0
C293 C 0.1402 0.07846 0.41493 0.0
C294 C 0.1142 0.0594 0.41978 0.0
C295 C 0.11781 0.06924 0.47099 0.0
C296 C 0.14385 0.08839 0.46617 0.0
C297 C 0.074 0.03704 0.45206 0.0
O298 O 0.99742 0.03779 0.48278 0.0
O299 O 0.98745 0.05361 0.5271 0.0
O300 O 0.02751 0.05171 0.56458 0.0
O301 O 0.05159 0.0644 0.52142 0.0
O302 O 0.9511 1.01468 0.56407 0.0
O303 O 0.9849 1.00672 0.59352 0.0
O304 O 0.02429 0.98572 0.5537 0.0
O305 O 0.06329 1.01144 0.52956 0.0
O306 O 0.01534 0.98309 0.48695 0.0
O307 O 0.97604 0.98419 0.5175 0.0
C308 C 0.98564 0.05521 0.49912 0.0
O309 O 0.07324 1.01505 0.46884 0.0
O310 O 0.05259 0.05078 0.45777 0.0
C311 C 0.04634 0.06953 0.54889 0.0
C312 C 0.93663 0.98148 0.6008 0.0
C313 C 0.89618 0.93446 0.6208 0.0
C314 C 0.88829 0.96159 0.61933 0.0
C315 C 0.90837 0.98485 0.60956 0.0
C316 C 0.94456 0.9544 0.60163 0.0
C317 C 0.92452 0.93108 0.61169 0.0
C318 C 0.95685 1.00634 0.58984 0.0
C319 C 0.05238 0.99092 0.54731 0.0
H320 H 0.14797 0.08223 0.39293 0.0
H321 H 0.10264 0.0487 0.40159 0.0
H322 H 0.10912 0.06602 0.49274 0.0
H323 H 0.15495 0.09944 0.48439 0.0
H324 H 0.86648 0.96489 0.62554 0.0
H325 H 0.90174 1.00552 0.60865 0.0
H326 H 0.96621 0.95128 0.59459 0.0
H327 H 0.9314 0.91056 0.61276 0.0
Tb328 Tb 0.54128 0.03432 0.05263 0.0
Tb329 Tb 0.49076 1.01328 1.00534 0.0
C330 C 0.55138 0.99421 1.00234 0.0
C331 C 0.60884 0.06759 0.09255 0.0
C332 C 0.66398 0.10234 0.09925 0.0
C333 C 0.65095 0.09875 0.07189 0.0
C334 C 0.62351 0.08144 0.06855 0.0
C335 C 0.62184 0.07087 0.11968 0.0
C336 C 0.64908 0.0881 0.12305 0.0
C337 C 0.57954 0.05045 0.09028 0.0
O338 O 0.54699 0.06974 1.02128 0.0
O339 O 0.52146 0.0471 0.983 0.0
O340 O 0.48385 0.05294 0.02452 0.0
O341 O 0.49978 0.04373 0.06867 0.0
O342 O 0.47655 0.99597 0.96502 0.0
O343 O 0.44676 1.01172 0.99488 0.0
O344 O 0.47768 0.98416 0.04198 0.0
O345 O 0.52083 0.99168 0.0673 0.0
O346 O 0.56243 0.01756 1.016 0.0
O347 O 0.52297 0.98536 1.00154 0.0
C348 C 0.53933 0.06919 0.99385 0.0
O349 O 0.55841 0.06417 0.08382 0.0
O350 O 0.57763 0.02658 0.07622 0.0
C351 C 0.48463 0.0578 0.05219 0.0
C352 C 0.42602 0.97397 0.96429 0.0
C353 C 0.37745 0.93401 0.94634 0.0
C354 C 0.37602 0.94921 0.97207 0.0
C355 C 0.40004 0.96896 0.98099 0.0
C356 C 0.42795 0.95769 0.93932 0.0
C357 C 0.40393 0.93775 0.93052 0.0
C358 C 0.44933 0.99839 0.97067 0.0
C359 C 0.49453 0.97677 0.06249 0.0
H360 H 0.66189 0.10935 0.05314 0.0
H361 H 0.61361 0.07912 0.04742 0.0
H362 H 0.61065 0.06047 0.13843 0.0
H363 H 0.65804 0.09089 0.14454 0.0
H364 H 0.35593 0.94656 0.98476 0.0
H365 H 0.39771 0.98114 1.00032 0.0
H366 H 0.44754 0.96129 0.92589 0.0
H367 H 0.40552 0.92649 0.91043 0.0
Tb368 Tb 0.5196 0.4875 0.5004 0.0
Tb369 Tb 0.51436 0.54168 0.54099 0.0
C370 C 0.49306 0.53975 0.47534 0.0
C371 C 0.54915 0.42928 0.4653 0.0
C372 C 0.59808 0.40275 0.45455 0.0
C373 C 0.57477 0.39991 0.43493 0.0
C374 C 0.55046 0.41307 0.4403 0.0
C375 C 0.57226 0.43205 0.48503 0.0
C376 C 0.59646 0.41878 0.47977 0.0
C377 C 0.52469 0.44478 0.46978 0.0
O378 O 0.56429 0.51185 0.49831 0.0
O379 O 0.55646 0.55412 0.51829 0.0
O380 O 0.54201 0.51801 0.56747 0.0
O381 O 0.53532 0.47595 0.5425 0.0
O382 O 0.51256 0.58528 0.54422 0.0
O383 O 0.50944 0.55891 0.58204 0.0
O384 O 0.47634 0.51024 0.55354 0.0
O385 O 0.47309 0.48156 0.51377 0.0
O386 O 0.50835 0.51936 0.4707 0.0
O387 O 0.48797 0.54758 0.50203 0.0
C388 C 0.57312 0.53897 0.50389 0.0
O389 O 0.51295 0.44315 0.4955 0.0
O390 O 0.5293 0.47073 0.46025 0.0
C391 C 0.54469 0.49095 0.56548 0.0
C392 C 0.47808 0.59274 0.5806 0.0
C393 C 0.42262 0.60459 0.59747 0.0
C394 C 0.44081 0.59447 0.61764 0.0
C395 C 0.46833 0.58877 0.60932 0.0
C396 C 0.46018 0.60359 0.56055 0.0
C397 C 0.43276 0.60957 0.56897 0.0
C398 C 0.50558 0.58321 0.57152 0.0
C399 C 0.46192 0.48953 0.53814 0.0
H400 H 0.57531 0.38748 0.41545 0.0
H401 H 0.53289 0.41092 0.42476 0.0
H402 H 0.5718 0.44486 0.50427 0.0
H403 H 0.61425 0.42165 0.49509 0.0
H404 H 0.43374 0.59091 0.63988 0.0
H405 H 0.4817 0.58055 0.62523 0.0
H406 H 0.46697 0.60683 0.53821 0.0
H407 H 0.41913 0.61732 0.55299 0.0
Tb408 Tb 0.02254 0.55389 1.00712 0.0
Tb409 Tb 0.01404 0.4932 0.03876 0.0
C410 C 0.04882 0.50339 0.97817 0.0
C411 C 1.00059 0.6172 0.97791 0.0
C412 C 0.95362 0.64674 0.96984 0.0
C413 C 0.98278 0.66052 0.9656 0.0
C414 C 1.00615 0.64578 0.96956 0.0
C415 C 0.97156 0.6035 0.98232 0.0
C416 C 0.94828 0.61807 0.97819 0.0
C417 C 0.02473 0.60171 0.98351 0.0
O418 O 0.98408 0.52855 0.98654 0.0
O419 O 0.97062 0.49295 1.01961 0.0
O420 O 0.99965 0.52259 0.07111 0.0
O421 O 0.98852 0.55567 0.03977 0.0
O422 O 1.00436 0.44856 0.03717 0.0
O423 O 0.01479 0.47035 0.07725 0.0
O424 O 0.06037 0.51201 0.04558 0.0
O425 O 0.05771 0.55891 0.03931 0.0
O426 O 0.05236 0.53091 0.98328 0.0
O427 O 0.03194 0.48536 0.99536 0.0
C428 C 0.96498 0.50688 0.99638 0.0
O429 O 0.02995 0.59834 1.01069 0.0
O430 O 0.02386 0.57811 0.96919 0.0
C431 C 0.9877 0.54525 0.06602 0.0
C432 C 0.03223 0.4276 0.07026 0.0
C433 C 0.07383 0.39299 0.08333 0.0
C434 C 0.04366 0.38182 0.08422 0.0
C435 C 0.02298 0.39908 0.07783 0.0
C436 C 0.06234 0.43859 0.06868 0.0
C437 C 0.08296 0.42149 0.07533 0.0
C438 C 1.01058 0.44591 0.0642 0.0
C439 C 0.07147 0.53907 0.04931 0.0
H440 H 0.98748 0.68257 0.95899 0.0
H441 H 0.02847 0.65669 0.96632 0.0
H442 H 0.96691 0.58156 0.98929 0.0
H443 H 0.9261 0.60703 0.98204 0.0
H444 H 0.03606 0.35994 0.09046 0.0
H445 H 0.9998 0.39026 0.07903 0.0
H446 H 0.06987 0.46046 0.0625 0.0
H447 H 0.10608 0.43053 0.07409 0.0
H448 H 0.28357 0.16895 0.33809 0.0
H449 H 0.27687 0.24734 0.38279 0.0
H450 H 0.24521 0.22007 0.42 0.0
H451 H 0.21252 0.13937 0.34493 0.0
H452 H 0.21791 0.10323 0.34999 0.0
H453 H 0.24495 0.12779 0.33066 0.0
H454 H 0.28526 0.11789 0.36576 0.0
H455 H 0.25835 0.0929 0.3851 0.0
H456 H 0.28013 0.12192 0.40404 0.0
H457 H 0.20806 0.18534 0.44734 0.0
H458 H 0.16851 0.14642 0.46216 0.0
H459 H 0.20023 0.09067 0.39986 0.0
C460 C 0.27657 0.18028 0.3564 0.0
C461 C 0.28297 0.21021 0.35778 0.0
C462 C 0.27231 0.22439 0.38143 0.0
C463 C 0.25446 0.20906 0.40272 0.0
C464 C 0.24768 0.1796 0.40011 0.0
C465 C 0.25867 0.16534 0.37766 0.0
C466 C 0.24526 0.13417 0.37757 0.0
C467 C 0.22921 0.12567 0.34912 0.0
C468 C 0.26865 0.11563 0.38348 0.0
C469 C 0.22396 0.13333 0.40263 0.0
C470 C 0.22605 0.15958 0.41575 0.0
C471 C 0.20672 0.16453 0.4377 0.0
C472 C 0.18435 0.14225 0.44604 0.0
C473 C 0.18134 0.11546 0.43224 0.0
C474 C 0.20196 0.11089 0.41081 0.0
H475 H 0.28819 0.81081 0.85196 0.0
H476 H 0.22217 0.86518 0.84389 0.0
H477 H 0.24649 0.89613 0.88169 0.0
H478 H 0.30461 0.82253 0.92951 0.0
H479 H 0.34343 0.82406 0.9235 0.0
H480 H 0.31741 0.80235 0.90062 0.0
H481 H 0.34234 0.82854 0.8556 0.0
H482 H 0.36833 0.85032 0.87827 0.0
H483 H 0.34634 0.86669 0.85362 0.0
H484 H 0.28071 0.92457 0.91579 0.0
H485 H 0.32401 0.94992 0.94114 0.0
H486 H 0.37065 0.88026 0.92334 0.0
C487 C 0.27853 0.82904 0.85812 0.0
C488 C 0.25287 0.8351 0.84474 0.0
C489 C 0.24115 0.85923 0.85409 0.0
C490 C 0.25498 0.87721 0.87555 0.0
C491 C 0.28073 0.87109 0.88738 0.0
C492 C 0.29251 0.84767 0.8789 0.0
C493 C 0.32244 0.84797 0.89203 0.0
C494 C 0.32193 0.82273 0.91265 0.0
C495 C 0.34625 0.84842 0.86848 0.0
C496 C 0.32609 0.87577 0.90836 0.0
C497 C 0.3014 0.88835 0.90603 0.0
C498 C 0.3 0.91476 0.91812 0.0
C499 C 0.32466 0.92895 0.93255 0.0
C500 C 0.35055 0.91692 0.93434 0.0
C501 C 0.35107 0.88982 0.9224 0.0
H502 H 0.6109 0.45942 0.72434 0.0
H503 H 0.61295 0.37447 0.6921 0.0
H504 H 0.59439 0.38767 0.64544 0.0
H505 H 0.54345 0.46841 0.68783 0.0
H506 H 0.55526 0.50545 0.67948 0.0
H507 H 0.56952 0.49013 0.71066 0.0
H508 H 0.62244 0.50709 0.69195 0.0
H509 H 0.60833 0.52245 0.6607 0.0
H510 H 0.63268 0.497 0.6563 0.0
H511 H 0.5756 0.4092 0.60167 0.0
H512 H 0.5563 0.43681 0.56424 0.0
H513 H 0.56398 0.50927 0.62201 0.0
C514 C 0.6076 0.44362 0.70742 0.0
C515 C 0.61343 0.41554 0.71258 0.0
C516 C 0.60842 0.39582 0.68948 0.0
C517 C 0.59797 0.40323 0.66257 0.0
C518 C 0.59221 0.43067 0.65835 0.0
C519 C 0.5967 0.45066 0.68009 0.0
C520 C 0.58787 0.47849 0.6695 0.0
C521 C 0.56252 0.48607 0.68798 0.0
C522 C 0.61441 0.5027 0.66963 0.0
C523 C 0.57784 0.47095 0.63854 0.0
C524 C 0.58079 0.44319 0.6328 0.0
C525 C 0.57317 0.43093 0.60606 0.0
C526 C 0.56209 0.44705 0.5847 0.0
C527 C 0.55823 0.47561 0.58951 0.0
C528 C 0.56653 0.48767 0.61714 0.0
H529 H 0.93168 0.58326 0.22783 0.0
H530 H 0.91485 0.66199 0.19033 0.0
H531 H 0.93085 0.64697 0.14281 0.0
H532 H 0.99769 0.57975 0.18503 0.0
H533 H 0.99039 0.54171 0.18077 0.0
H534 H 0.9767 0.55779 0.21212 0.0
H535 H 0.92401 0.5328 0.20064 0.0
H536 H 0.93754 0.51667 0.16923 0.0
H537 H 0.90885 0.53765 0.1657 0.0
H538 H 0.94795 0.62379 0.0987 0.0
H539 H 0.96775 0.59561 0.06149 0.0
H540 H 0.97683 0.53128 0.12532 0.0
C541 C 0.93123 0.59727 0.20958 0.0
C542 C 0.92189 0.62411 0.2133 0.0
C543 C 0.92206 0.64165 0.18859 0.0
C544 C 0.93102 0.63317 0.16127 0.0
C545 C 0.94022 0.60694 0.1584 0.0
C546 C 0.94067 0.58924 0.18186 0.0
C547 C 0.95261 0.56252 0.1725 0.0
C548 C 0.98104 0.56031 0.18857 0.0
C549 C 0.92937 0.53582 0.17731 0.0
C550 C 0.95868 0.56801 0.14023 0.0
C551 C 0.95103 0.59375 0.13274 0.0
C552 C 0.95409 0.60366 0.10443 0.0
C553 C 0.96541 0.58725 0.08324 0.0
C554 C 0.97411 0.56087 0.0899 0.0
C555 C 0.97051 0.5512 0.11912 0.0
H556 H 0.41486 0.15435 0.16487 0.0
H557 H 0.4281 0.22074 0.09974 0.0
H558 H 0.4514 0.18978 0.06769 0.0
H559 H 0.48525 0.12939 0.15066 0.0
H560 H 0.46939 0.09282 0.15738 0.0
H561 H 0.4551 0.12081 0.17588 0.0
H562 H 0.40316 0.1009 0.1569 0.0
H563 H 0.41732 0.07311 0.13803 0.0
H564 H 0.39766 0.09649 0.11863 0.0
H565 H 0.46834 0.15045 0.04099 0.0
H566 H 0.48346 0.10658 1.02287 0.0
H567 H 0.46312 0.06663 0.10634 0.0
C568 C 0.42332 0.16271 0.14419 0.0
C569 C 0.41932 0.18993 0.13474 0.0
C570 C 0.43032 0.19978 0.10726 0.0
C571 C 0.44377 0.18243 0.08895 0.0
C572 C 0.44654 0.15546 0.09861 0.0
C573 C 0.43718 0.1458 0.12575 0.0
C574 C 0.44245 0.1157 0.13056 0.0
C575 C 0.46436 0.11463 0.15507 0.0
C576 C 0.41342 0.09536 0.13637 0.0
C577 C 0.45563 0.10978 0.10161 0.0
C578 C 0.45759 0.133 0.08349 0.0
C579 C 0.46733 0.13226 0.05507 0.0
C580 C 0.47561 0.10718 0.04493 0.0
C581 C 0.47442 0.08333 0.06328 0.0
C582 C 0.46445 0.0847 0.09202 0.0
H583 H 0.09452 0.86656 0.64489 0.0
H584 H 0.17831 0.87833 0.59958 0.0
H585 H 0.16363 0.91714 0.57104 0.0
H586 H 0.05118 0.87919 0.58348 0.0
H587 H 0.02691 0.89744 0.60417 0.0
H588 H 0.04413 0.87068 0.62105 0.0
H589 H 0.06572 0.90699 0.66004 0.0
H590 H 0.04869 0.93388 0.64317 0.0
H591 H 0.08772 0.9402 0.64913 0.0
H592 H 0.14045 0.95545 0.54847 0.0
H593 H 0.10895 0.98847 0.53087 0.0
H594 H 0.03976 0.951 0.59017 0.0
C595 C 0.10975 0.87736 0.62897 0.0
C596 C 0.13752 0.86947 0.62437 0.0
C597 C 0.15679 0.88386 0.60318 0.0
C598 C 0.14874 0.90604 0.58703 0.0
C599 C 0.12128 0.91342 0.59222 0.0
C600 C 0.10196 0.89936 0.61248 0.0
C601 C 0.07354 0.91111 0.61343 0.0
C602 C 0.0474 0.88824 0.60502 0.0
C603 C 0.06864 0.9238 0.64321 0.0
C604 C 0.07995 0.93402 0.5906 0.0
C605 C 0.10769 0.93513 0.57879 0.0
C606 C 0.11864 0.95473 0.55748 0.0
C607 C 0.10061 0.97346 0.5477 0.0
C608 C 0.07187 0.97231 0.5591 0.0
C609 C 0.06159 0.95239 0.58096 0.0
H610 H 0.81892 0.40509 0.93486 0.0
H611 H 0.80143 0.47936 0.88852 0.0
H612 H 0.84575 0.50753 0.90893 0.0
H613 H 0.84546 0.4439 1.00031 0.0
H614 H 0.87325 0.42257 1.00722 0.0
H615 H 0.84023 0.40741 0.98863 0.0
H616 H 0.87141 0.39326 0.94614 0.0
H617 H 0.90451 0.4084 0.96459 0.0
H618 H 0.89797 0.42006 0.92866 0.0
H619 H 0.89323 0.52828 0.93304 0.0
H620 H 0.93878 0.5403 0.9607 0.0
H621 H 0.92593 0.45463 0.99516 0.0
C622 C 0.82413 0.42732 0.92907 0.0
C623 C 0.80623 0.43942 0.90921 0.0
C624 C 0.81462 0.46878 0.90263 0.0
C625 C 0.83987 0.48528 0.91447 0.0
C626 C 0.85697 0.47265 0.93347 0.0
C627 C 0.84938 0.44439 0.94102 0.0
C628 C 0.8717 0.43638 0.96236 0.0
C629 C 0.85676 0.42701 0.99135 0.0
C630 C 0.88732 0.41314 0.94968 0.0
C631 C 0.893 0.46447 0.96542 0.0
C632 C 0.884 0.48499 0.94835 0.0
C633 C 0.90028 0.51237 0.94661 0.0
C634 C 0.92635 0.51902 0.96251 0.0
C635 C 0.93629 0.49867 0.98052 0.0
C636 C 0.91902 0.47093 0.98201 0.0
H637 H 0.71299 0.58026 0.39484 0.0
H638 H 0.74473 0.64773 0.45528 0.0
H639 H 0.70257 0.63155 0.48718 0.0
H640 H 0.63609 0.58208 0.40426 0.0
H641 H 0.62432 0.54417 0.40274 0.0
H642 H 0.65746 0.56027 0.38426 0.0
H643 H 0.68677 0.52748 0.41183 0.0
H644 H 0.65368 0.51124 0.43035 0.0
H645 H 0.68541 0.52673 0.45069 0.0
H646 H 0.6555 0.61062 0.51176 0.0
H647 H 0.60787 0.58421 0.52871 0.0
H648 H 0.60583 0.52751 0.45536 0.0
C649 C 0.71127 0.59145 0.41492 0.0
C650 C 0.73235 0.61587 0.42192 0.0
C651 C 0.72884 0.62963 0.44862 0.0
C652 C 0.70492 0.62041 0.46719 0.0
C653 C 0.68435 0.59693 0.45939 0.0
C654 C 0.68731 0.58232 0.43409 0.0
C655 C 0.66159 0.55772 0.43117 0.0
C656 C 0.64382 0.56128 0.40399 0.0
C657 C 0.67252 0.52909 0.431 0.0
C658 C 0.64374 0.5611 0.45854 0.0
C659 C 0.65739 0.584 0.47435 0.0
C660 C 0.6448 0.59244 0.49971 0.0
C661 C 0.61759 0.57728 0.50918 0.0
C662 C 0.60297 0.5535 0.49372 0.0
C663 C 0.61655 0.54523 0.46807 0.0
H664 H 0.21469 0.35724 0.16372 0.0
H665 H 0.19985 0.27553 0.12064 0.0
H666 H 0.15668 0.28847 0.09628 0.0
H667 H 0.13924 0.36236 0.17607 0.0
H668 H 0.14432 0.40001 0.16924 0.0
H669 H 0.17417 0.38437 0.183 0.0
H670 H 0.20709 0.40538 0.13999 0.0
H671 H 0.17733 0.42112 0.12611 0.0
H672 H 0.19461 0.39778 0.10366 0.0
H673 H 0.11411 0.30975 0.07802 0.0
H674 H 0.07681 0.33901 0.06512 0.0
H675 H 0.12028 0.407 0.11946 0.0
C676 C 0.20229 0.34209 0.1492 0.0
C677 C 0.21052 0.31541 0.14402 0.0
C678 C 0.19401 0.2962 0.12465 0.0
C679 C 0.16941 0.3033 0.11085 0.0
C680 C 0.1618 0.32975 0.11652 0.0
C681 C 0.17788 0.34893 0.13505 0.0
C682 C 0.16525 0.37607 0.13719 0.0
C683 C 0.15514 0.38097 0.16822 0.0
C684 C 0.18739 0.40159 0.12607 0.0
C685 C 0.13943 0.36906 0.11716 0.0
C686 C 0.13771 0.3422 0.10554 0.0
C687 C 0.1153 0.33087 0.08688 0.0
C688 C 0.09417 0.34753 0.07979 0.0
C689 C 0.09582 0.37524 0.0912 0.0
C690 C 0.11874 0.38602 0.11013 0.0
H691 H 0.61704 0.23001 0.94853 0.0
H692 H 0.59135 0.20709 0.86066 0.0
H693 H 0.56912 0.15935 0.87713 0.0
H694 H 0.63543 0.16101 0.9681 0.0
H695 H 0.62131 0.16148 1.00444 0.0
H696 H 0.6353 0.19439 0.98622 0.0
H697 H 0.58599 0.21172 0.99543 0.0
H698 H 0.57187 0.17887 1.01368 0.0
H699 H 0.55232 0.19022 0.98362 0.0
H700 H 0.54884 0.11333 0.90273 0.0
H701 H 0.53254 0.07298 0.93534 0.0
H702 H 0.5714 0.12318 1.00755 0.0
C703 C 0.60693 0.21498 0.93262 0.0
C704 C 0.6059 0.22318 0.90302 0.0
C705 C 0.59209 0.20231 0.88342 0.0
C706 C 0.57949 0.17475 0.89258 0.0
C707 C 0.58066 0.16759 0.92166 0.0
C708 C 0.59408 0.18704 0.94148 0.0
C709 C 0.59208 0.17353 0.97156 0.0
C710 C 0.62286 0.17255 0.98327 0.0
C711 C 0.57452 0.18954 0.9923 0.0
C712 C 0.57548 0.14358 0.96549 0.0
C713 C 0.56916 0.14076 0.93648 0.0
C714 C 0.55378 0.11539 0.92546 0.0
C715 C 0.54453 0.0924 0.94434 0.0
C716 C 0.55052 0.09434 0.97432 0.0
C717 C 0.56643 0.12056 0.98485 0.0
H718 H 0.95561 0.83519 0.38854 0.0
H719 H 0.8838 0.80265 0.44709 0.0
H720 H 0.89638 0.84486 0.47747 0.0
H721 H 1.00642 0.86584 0.4454 0.0
H722 H 0.02215 0.89655 0.42448 0.0
H723 H 1.00781 0.86367 0.40661 0.0
H724 H 0.97389 0.88962 0.37628 0.0
H725 H 0.98804 0.92253 0.39415 0.0
H726 H 0.94911 0.9094 0.3943 0.0
H727 H 0.91502 0.89132 0.50152 0.0
H728 H 0.94046 0.93754 0.51897 0.0
H729 H 1.00257 0.9415 0.44756 0.0
C730 C 0.94264 0.8368 0.40784 0.0
C731 C 0.91806 0.81531 0.41467 0.0
C732 C 0.90203 0.81874 0.44042 0.0
C733 C 0.90918 0.84274 0.45816 0.0
C734 C 0.93286 0.86362 0.45052 0.0
C735 C 0.94964 0.8609 0.42616 0.0
C736 C 0.97417 0.88673 0.42341 0.0
C737 C 1.00444 0.87765 0.42507 0.0
C738 C 0.97112 0.90303 0.39536 0.0
C739 C 0.96834 0.90427 0.44986 0.0
C740 C 0.94425 0.89042 0.46502 0.0
C741 C 0.934 0.90227 0.48984 0.0
C742 C 0.94866 0.92879 0.49958 0.0
C743 C 0.97371 0.94366 0.48487 0.0
C744 C 0.98361 0.93093 0.45954 0.0
H745 H 0.29843 0.69847 0.62273 0.0
H746 H 0.25312 0.63041 0.67669 0.0
H747 H 0.28912 0.60016 0.66212 0.0
H748 H 0.32099 0.65247 0.5643 0.0
H749 H 0.35589 0.67542 0.55939 0.0
H750 H 0.3242 0.69006 0.57084 0.0
H751 H 0.35271 0.71227 0.61541 0.0
H752 H 0.38432 0.6975 0.60431 0.0
H753 H 0.3685 0.68972 0.6397 0.0
H754 H 0.3331 0.57966 0.64637 0.0
H755 H 0.38124 0.56985 0.62944 0.0
H756 H 0.39773 0.65128 0.58567 0.0
C757 C 0.2955 0.67686 0.63069 0.0
C758 C 0.27291 0.66667 0.65067 0.0
C759 C 0.27033 0.6386 0.66137 0.0
C760 C 0.29057 0.62125 0.65312 0.0
C761 C 0.31312 0.63225 0.63404 0.0
C762 C 0.31555 0.65932 0.62273 0.0
C763 C 0.34316 0.66695 0.60455 0.0
C764 C 0.3356 0.67148 0.57289 0.0
C765 C 0.36336 0.69315 0.61674 0.0
C766 C 0.35636 0.64031 0.60814 0.0
C767 C 0.33856 0.62043 0.62499 0.0
C768 C 0.34702 0.59489 0.63283 0.0
C769 C 0.37446 0.5896 0.62331 0.0
C770 C 0.3931 0.60979 0.60621 0.0
C771 C 0.38369 0.63528 0.5983 0.0
H772 H 0.77243 0.8592 0.72858 0.0
H773 H 0.77654 0.77924 0.68577 0.0
H774 H 0.81326 0.80431 0.65106 0.0
H775 H 0.78093 0.90431 0.6648 0.0
H776 H 0.80331 0.93318 0.68341 0.0
H777 H 0.77589 0.90901 0.70299 0.0
H778 H 0.81571 0.89831 0.73833 0.0
H779 H 0.84327 0.92224 0.71876 0.0
H780 H 0.84778 0.88591 0.7243 0.0
H781 H 0.85111 0.83871 0.62221 0.0
H782 H 0.88646 0.87884 0.60208 0.0
H783 H 0.85807 0.93488 0.66624 0.0
C784 C 0.78043 0.84702 0.71144 0.0
C785 C 0.77131 0.81739 0.70948 0.0
C786 C 0.78315 0.80204 0.68743 0.0
C787 C 0.80393 0.81609 0.66767 0.0
C788 C 0.81271 0.84538 0.67049 0.0
C789 C 0.80126 0.86059 0.69187 0.0
C790 C 0.81532 0.89152 0.69154 0.0
C791 C 0.7925 0.91063 0.6853 0.0
C792 C 0.83148 0.89997 0.71991 0.0
C793 C 0.83658 0.89146 0.66664 0.0
C794 C 0.83475 0.86476 0.65461 0.0
C795 C 0.85267 0.85969 0.63148 0.0
C796 C 0.87284 0.88257 0.62034 0.0
C797 C 0.875 0.9101 0.63248 0.0
C798 C 0.85663 0.91432 0.65603 0.0
H799 H 0.7959 0.16615 0.19705 0.0
H800 H 0.79642 0.24666 0.15384 0.0
H801 H 0.76411 0.22215 0.11621 0.0
H802 H 0.79048 0.12035 0.1295 0.0
H803 H 0.76658 0.09214 0.14801 0.0
H804 H 0.79474 0.11498 0.16759 0.0
H805 H 0.75535 0.12694 0.20355 0.0
H806 H 0.7271 0.10455 0.18401 0.0
H807 H 0.72447 0.1413 0.19008 0.0
H808 H 0.72458 0.19064 0.08919 0.0
H809 H 0.68197 0.15499 0.07508 0.0
H810 H 0.70899 0.09464 0.13464 0.0
C811 C 0.7904 0.17847 0.17895 0.0
C812 C 0.79886 0.20828 0.17828 0.0
C813 C 0.79016 0.22379 0.15481 0.0
C814 C 0.77198 0.21002 0.13323 0.0
C815 C 0.76301 0.1807 0.13523 0.0
C816 C 0.77232 0.16506 0.15732 0.0
C817 C 0.75674 0.13454 0.1568 0.0
C818 C 0.77843 0.11431 0.15006 0.0
C819 C 0.73992 0.12639 0.18528 0.0
C820 C 0.73601 0.13582 0.13203 0.0
C821 C 0.7403 0.16244 0.11946 0.0
C822 C 0.72154 0.16949 0.09831 0.0
C823 C 0.69741 0.14906 0.09036 0.0
C824 C 0.69213 0.12199 0.10373 0.0
C825 C 0.71237 0.11515 0.12405 0.0
H826 H 0.39336 0.61951 0.36607 0.0
H827 H 0.46319 0.61803 0.30314 0.0
H828 H 0.49049 0.59474 0.33858 0.0
H829 H 0.44218 0.63468 0.42826 0.0
H830 H 0.41814 0.61274 0.45318 0.0
H831 H 0.40304 0.62885 0.42296 0.0
H832 H 0.37661 0.57952 0.40643 0.0
H833 H 0.39158 0.56327 0.43664 0.0
H834 H 0.39761 0.55147 0.40048 0.0
H835 H 0.51038 0.57026 0.3798 0.0
H836 H 0.52276 0.54803 0.42467 0.0
H837 H 0.4428 0.56612 0.46497 0.0
C838 C 0.41436 0.61419 0.35974 0.0
C839 C 0.42594 0.62094 0.33132 0.0
C840 C 0.4537 0.61361 0.32444 0.0
C841 C 0.46945 0.60017 0.34456 0.0
C842 C 0.4577 0.5941 0.37217 0.0
C843 C 0.43089 0.60101 0.38003 0.0
C844 C 0.42402 0.59248 0.41167 0.0
C845 C 0.4217 0.61875 0.43011 0.0
C846 C 0.39577 0.57037 0.41393 0.0
C847 C 0.45095 0.5795 0.42014 0.0
C848 C 0.46986 0.58063 0.3967 0.0
C849 C 0.49575 0.56945 0.39827 0.0
C850 C 0.50259 0.5567 0.4241 0.0
C851 C 0.48408 0.55511 0.44892 0.0
C852 C 0.45781 0.56708 0.44678 0.0
H853 H 0.09369 0.39437 0.85481 0.0
H854 H 0.14353 0.46935 0.81383 0.0
H855 H 0.12895 0.49898 0.85272 0.0
H856 H 0.03286 0.4291 0.87961 0.0
H857 H 0.02766 0.41021 0.9134 0.0
H858 H 0.04202 0.39402 0.88247 0.0
H859 H 0.08733 0.38668 0.91184 0.0
H860 H 0.07315 0.40295 0.94282 0.0
H861 H 0.10935 0.41675 0.92898 0.0
H862 H 0.10979 0.52159 0.89616 0.0
H863 H 0.08599 0.53571 0.94013 0.0
H864 H 0.0463 0.44779 0.95526 0.0
C865 C 0.10146 0.41703 0.85389 0.0
C866 C 0.12055 0.42904 0.83089 0.0
C867 C 0.12983 0.45899 0.8311 0.0
C868 C 0.1214 0.47627 0.8532 0.0
C869 C 0.10322 0.46382 0.87554 0.0
C870 C 0.09313 0.43491 0.8761 0.0
C871 C 0.07351 0.4274 0.90288 0.0
C872 C 0.04215 0.41441 0.89406 0.0
C873 C 0.08662 0.40724 0.92281 0.0
C874 C 0.07426 0.45654 0.91711 0.0
C875 C 0.09167 0.47711 0.90077 0.0
C876 C 0.09607 0.50559 0.90904 0.0
C877 C 0.08233 0.51344 0.93434 0.0
C878 C 0.06401 0.49314 0.95179 0.0
C879 C 0.06012 0.46408 0.9428 0.0
H880 H 0.59731 0.85856 0.92533 0.0
H881 H 0.68064 0.91137 0.90406 0.0
H882 H 0.66507 0.95176 0.9298 0.0
H883 H 0.55365 0.913 0.91498 0.0
H884 H 0.52847 0.90115 0.94415 0.0
H885 H 0.5467 0.87606 0.92525 0.0
H886 H 0.56704 0.86082 0.97358 0.0
H887 H 0.54885 0.88588 0.99263 0.0
H888 H 0.58785 0.88734 0.99635 0.0
H889 H 0.64078 0.986 0.95831 0.0
H890 H 0.60802 1.01297 0.98494 0.0
H891 H 0.53946 0.93858 0.98542 0.0
C892 C 0.61226 0.87862 0.92632 0.0
C893 C 0.64016 0.88201 0.91291 0.0
C894 C 0.65912 0.90855 0.91419 0.0
C895 C 0.65053 0.93149 0.92882 0.0
C896 C 0.62281 0.92756 0.94176 0.0
C897 C 0.60384 0.90188 0.94045 0.0
C898 C 0.57481 0.90368 0.95514 0.0
C899 C 0.54941 0.89815 0.93359 0.0
C900 C 0.56933 0.88321 0.98096 0.0
C901 C 0.58046 0.93434 0.96492 0.0
C902 C 0.60839 0.94764 0.95726 0.0
C903 C 0.61881 0.97587 0.96434 0.0
C904 C 0.60009 0.99098 0.97951 0.0
C905 C 0.57119 0.9779 0.98708 0.0
C906 C 0.56136 0.9492 0.97969 0.0
H907 H 0.91881 0.14606 0.37982 0.0
H908 H 0.93578 0.21716 0.43929 0.0
H909 H 0.95663 0.18722 0.47383 0.0
H910 H 0.89869 0.09193 0.43111 0.0
H911 H 0.91705 0.06615 0.41344 0.0
H912 H 0.90416 0.0932 0.39254 0.0
H913 H 0.95647 0.10947 0.37154 0.0
H914 H 0.96947 0.08221 0.39209 0.0
H915 H 0.98686 0.11876 0.39573 0.0
H916 H 0.97166 0.14916 0.50345 0.0
H917 H 0.98578 0.10631 0.5246 0.0
H918 H 0.96309 0.06035 0.44493 0.0
C919 C 0.92747 0.15556 0.39982 0.0
C920 C 0.92521 0.18393 0.40694 0.0
C921 C 0.93654 0.19533 0.43357 0.0
C922 C 0.94862 0.17855 0.45329 0.0
C923 C 0.94973 0.15053 0.44592 0.0
C924 C 0.94002 0.1392 0.41966 0.0
C925 C 0.9439 0.10839 0.41725 0.0
C926 C 0.91418 0.08877 0.41336 0.0
C927 C 0.96546 0.10449 0.3927 0.0
C928 C 0.95684 0.10411 0.44649 0.0
C929 C 0.95975 0.1287 0.4627 0.0
C930 C 0.96984 0.12986 0.49088 0.0
C931 C 0.97757 0.10532 0.50276 0.0
C932 C 0.97551 0.08004 0.48637 0.0
C933 C 0.96504 0.07947 0.45784 0.0
H934 H 0.20645 0.64235 0.12778 0.0
H935 H 0.24014 0.56585 0.15024 0.0
H936 H 0.19852 0.53699 0.12565 0.0
H937 H 0.12928 0.6126 0.13635 0.0
H938 H 0.11757 0.63129 0.10605 0.0
H939 H 0.15004 0.64641 0.12547 0.0
H940 H 0.18038 0.64999 0.07803 0.0
H941 H 0.14798 0.63486 0.05846 0.0
H942 H 0.18039 0.61863 0.0564 0.0
H943 H 0.1528 0.51553 0.09827 0.0
H944 H 0.10696 0.50357 0.07094 0.0
H945 H 0.1015 0.59313 0.06478 0.0
C946 C 0.20527 0.61955 0.12745 0.0
C947 C 0.22701 0.6067 0.1416 0.0
C948 C 0.22393 0.5766 0.14045 0.0
C949 C 0.20028 0.55985 0.12619 0.0
C950 C 0.17935 0.57312 0.11277 0.0
C951 C 0.18156 0.60231 0.11323 0.0
C952 C 0.15578 0.61105 0.0971 0.0
C953 C 0.13706 0.62624 0.11746 0.0
C954 C 0.1668 0.62974 0.07094 0.0
C955 C 0.13884 0.58227 0.08755 0.0
C956 C 0.15295 0.56072 0.09686 0.0
C957 C 0.14165 0.53232 0.09091 0.0
C958 C 0.11538 0.52569 0.07524 0.0
C959 C 0.10012 0.54719 0.06538 0.0
C960 C 0.11236 0.57599 0.07174 0.0
H961 H 0.31827 0.4566 0.64358 0.0
H962 H 0.2957 0.37709 0.59699 0.0
H963 H 0.33892 0.39033 0.56573 0.0
H964 H 0.3469 0.50018 0.58234 0.0
H965 H 0.37702 0.52072 0.60143 0.0
H966 H 0.34383 0.50592 0.6206 0.0
H967 H 0.37355 0.48025 0.65575 0.0
H968 H 0.4069 0.49531 0.63699 0.0
H969 H 0.39755 0.45738 0.64161 0.0
H970 H 0.38421 0.41206 0.538 0.0
H971 H 0.4304 0.43932 0.51853 0.0
H972 H 0.42701 0.50423 0.58346 0.0
C973 C 0.32244 0.44187 0.62693 0.0
C974 C 0.30258 0.4159 0.62268 0.0
C975 C 0.30947 0.39747 0.60047 0.0
C976 C 0.33432 0.40471 0.58255 0.0
C977 C 0.3529 0.43049 0.58689 0.0
C978 C 0.34757 0.44874 0.60871 0.0
C979 C 0.37179 0.47489 0.60886 0.0
C980 C 0.35911 0.50203 0.60296 0.0
C981 C 0.38844 0.47708 0.63751 0.0
C982 C 0.39139 0.46833 0.58383 0.0
C983 C 0.37982 0.44268 0.57137 0.0
C984 C 0.39352 0.43213 0.54771 0.0
C985 C 0.41983 0.44791 0.53666 0.0
C986 C 0.43273 0.47406 0.54924 0.0
C987 C 0.41799 0.48433 0.5732 0.0
H988 H 0.7985 0.66897 0.90957 0.0
H989 H 0.81415 0.75287 0.9482 0.0
H990 H 0.85985 0.74258 0.96956 0.0
H991 H 0.82912 0.63176 0.9686 0.0
H992 H 0.84494 0.60916 0.94403 0.0
H993 H 0.81188 0.62207 0.9345 0.0
H994 H 0.83699 0.64321 0.88726 0.0
H995 H 0.87018 0.63064 0.89675 0.0
H996 H 0.87115 0.66777 0.88911 0.0
H997 H 0.90634 0.72505 0.98246 0.0
H998 H 0.94847 0.69999 0.98891 0.0
H999 H 0.90255 0.62797 0.94131 0.0
C1000 C 0.81132 0.68502 0.92287 0.0
C1001 C 0.80267 0.71166 0.92735 0.0
C1002 C 0.82005 0.73211 0.94491 0.0
C1003 C 0.84616 0.72655 0.95697 0.0
C1004 C 0.85447 0.70038 0.95142 0.0
C1005 C 0.83739 0.67981 0.93509 0.0
C1006 C 0.85189 0.65393 0.93126 0.0
C1007 C 0.83335 0.62768 0.94545 0.0
C1008 C 0.85791 0.64859 0.8992 0.0
C1009 C 0.88009 0.66343 0.94742 0.0
C1010 C 0.88116 0.69024 0.95897 0.0
C1011 C 0.90563 0.70392 0.97379 0.0
C1012 C 0.92952 0.68966 0.97713 0.0
C1013 C 0.92868 0.66204 0.96571 0.0
C1014 C 0.90361 0.64889 0.95067 0.0
H1015 H 0.40552 0.82054 0.11015 0.0
H1016 H 0.45364 0.833 0.19047 0.0
H1017 H 0.47846 0.87947 0.17334 0.0
H1018 H 0.46369 0.85567 0.06329 0.0
H1019 H 0.44 0.8725 0.0409 0.0
H1020 H 0.42584 0.83947 0.05881 0.0
H1021 H 0.38492 0.86253 0.0827 0.0
H1022 H 0.39896 0.89562 0.06484 0.0
H1023 H 0.3947 0.89456 0.10352 0.0
H1024 H 0.49983 0.92475 0.14757 0.0
H1025 H 0.51432 0.96618 0.11595 0.0
H1026 H 0.45127 0.92833 0.05239 0.0
C1027 C 0.4211 0.83299 0.12435 0.0
C1028 C 0.42768 0.82197 0.15178 0.0
C1029 C 0.44847 0.83967 0.16913 0.0
C1030 C 0.46266 0.86659 0.15965 0.0
C1031 C 0.45595 0.87646 0.13266 0.0
C1032 C 0.43548 0.86038 0.11526 0.0
C1033 C 0.43226 0.87659 0.08726 0.0
C1034 C 0.44097 0.86007 0.06101 0.0
C1035 C 0.40084 0.88268 0.08441 0.0
C1036 C 0.45418 0.90412 0.09168 0.0
C1037 C 0.46764 0.90332 0.11806 0.0
C1038 C 0.48924 0.9256 0.12697 0.0
C1039 C 0.49742 0.9492 0.10867 0.0
C1040 C 0.48404 0.95108 0.08147 0.0
C1041 C 0.46185 0.92801 0.07307 0.0
H1042 H 0.07468 0.20585 0.65767 0.0
H1043 H 0.15032 0.23754 0.60345 0.0
H1044 H 0.13998 0.19474 0.57351 0.0
H1045 H 0.08385 0.13067 0.65441 0.0
H1046 H 0.04503 0.11714 0.65321 0.0
H1047 H 0.05815 0.15024 0.67122 0.0
H1048 H 0.02493 0.17547 0.63929 0.0
H1049 H 1.01177 0.14246 0.62116 0.0
H1050 H 0.02794 0.17326 0.6006 0.0
H1051 H 0.12097 0.14956 0.54744 0.0
H1052 H 0.09555 0.104 0.52834 0.0
H1053 H 0.03243 0.09813 0.59899 0.0
C1054 C 0.08922 0.20369 0.63967 0.0
C1055 C 0.11316 0.22587 0.63292 0.0
C1056 C 0.13142 0.2217 0.60897 0.0
C1057 C 0.12585 0.19716 0.59178 0.0
C1058 C 0.10194 0.1762 0.59856 0.0
C1059 C 0.08396 0.17895 0.62203 0.0
C1060 C 0.05963 0.15289 0.62408 0.0
C1061 C 0.0618 0.13678 0.65242 0.0
C1062 C 0.02927 0.16154 0.62111 0.0
C1063 C 0.06674 0.13536 0.59808 0.0
C1064 C 0.09127 0.14943 0.58372 0.0
C1065 C 0.10185 0.13828 0.55867 0.0
C1066 C 0.08713 0.11222 0.54789 0.0
C1067 C 0.06193 0.09694 0.56202 0.0
C1068 C 0.05178 0.10885 0.58769 0.0
H1069 H 0.7265 0.35777 0.35803 0.0
H1070 H 0.75205 0.31421 0.43337 0.0
H1071 H 0.71339 0.33124 0.46202 0.0
H1072 H 0.7073 0.41887 0.39542 0.0
H1073 H 0.67628 0.42077 0.37274 0.0
H1074 H 0.70734 0.40677 0.35859 0.0
H1075 H 0.67294 0.36035 0.3441 0.0
H1076 H 0.64181 0.37415 0.35831 0.0
H1077 H 0.64956 0.34062 0.3711 0.0
H1078 H 0.67077 0.35141 0.48214 0.0
H1079 H 0.62697 0.3733 0.49212 0.0
H1080 H 0.62828 0.40237 0.40341 0.0
C1081 C 0.72402 0.35178 0.38055 0.0
C1082 C 0.74257 0.3348 0.39343 0.0
C1083 C 0.73862 0.32769 0.42308 0.0
C1084 C 0.71655 0.33708 0.43952 0.0
C1085 C 0.6985 0.35349 0.42605 0.0
C1086 C 0.70198 0.3608 0.39725 0.0
C1087 C 0.67901 0.37787 0.38775 0.0
C1088 C 0.69335 0.40785 0.37806 0.0
C1089 C 0.65969 0.36231 0.36391 0.0
C1090 C 0.66189 0.37872 0.41564 0.0
C1091 C 0.6736 0.3647 0.43752 0.0
C1092 C 0.66146 0.36255 0.46522 0.0
C1093 C 0.63667 0.37511 0.4707 0.0
C1094 C 0.62423 0.38947 0.44854 0.0
C1095 C 0.63711 0.39124 0.42069 0.0
loop_
_geom_bond_atom_site_label_1
_geom_bond_atom_site_label_2
_geom_bond_distance
_geom_bond_site_symmetry_2
_ccdc_geom_bond_type
C0 C1 1.384 . S
C0 H13 0.947 . S
C0 C35 1.382 . S
C1 C0 1.384 . S
C1 C2 1.378 . S
C2 C1 1.378 . S
C2 C3 1.378 . S
C2 H14 0.952 . S
C3 C2 1.378 . S
C3 H15 0.950 . S
C3 C34 1.383 . S
H4 C23 0.947 . S
H5 C24 0.946 . S
H6 C26 0.953 . S
H7 C27 0.945 . S
H8 C29 0.952 . S
H9 C30 0.949 . S
H10 C32 0.950 . S
H11 C33 0.948 . S
H12 C35 0.951 . S
H13 C0 0.947 . S
H14 C2 0.952 . S
H15 C3 0.950 . S
N16 C19 1.382 . S
N16 C21 1.363 . S
N17 C19 1.371 . S
N17 C20 1.372 . S
N18 C20 1.361 . S
N18 C21 1.377 . S
C19 N16 1.382 . S
C19 N17 1.371 . S
C19 C22 1.480 . S
C20 N17 1.372 . S
C20 N18 1.361 . S
C20 C28 1.457 . S
C21 N16 1.363 . S
C21 N18 1.377 . S
C21 C34 1.479 . S
C22 C19 1.480 . S
C22 C23 1.383 . S
C22 C27 1.385 . S
C23 H4 0.947 . S
C23 C22 1.383 . S
C23 C24 1.388 . S
C24 H5 0.946 . S
C24 C23 1.388 . S
C24 C25 1.384 . S
C25 C24 1.384 . S
C25 C26 1.377 . S
C26 H6 0.953 . S
C26 C25 1.377 . S
C26 C27 1.369 . S
C27 H7 0.945 . S
C27 C22 1.385 . S
C27 C26 1.369 . S
C28 C20 1.457 . S
C28 C29 1.372 . S
C28 C33 1.364 . S
C29 H8 0.952 . S
C29 C28 1.372 . S
C29 C30 1.389 . S
C30 H9 0.949 . S
C30 C29 1.389 . S
C30 C31 1.387 . S
C31 C30 1.387 . S
C31 C32 1.372 . S
C32 H10 0.950 . S
C32 C31 1.372 . S
C32 C33 1.379 . S
C33 H11 0.948 . S
C33 C28 1.364 . S
C33 C32 1.379 . S
C34 C3 1.383 . S
C34 C21 1.479 . S
C34 C35 1.398 . S
C35 C0 1.382 . S
C35 H12 0.951 . S
C35 C34 1.398 . S
C36 C37 1.384 . S
C36 H49 0.947 . S
C36 C71 1.382 . S
C37 C36 1.384 . S
C37 C38 1.378 . S
C38 C37 1.378 . S
C38 C39 1.378 . S
C38 H50 0.952 . S
C39 C38 1.378 . S
C39 H51 0.950 . S
C39 C70 1.383 . S
H40 C59 0.947 . S
H41 C60 0.946 . S
H42 C62 0.953 . S
H43 C63 0.945 . S
H44 C65 0.952 . S
H45 C66 0.949 . S
H46 C68 0.950 . S
H47 C69 0.948 . S
H48 C71 0.951 . S
H49 C36 0.947 . S
H50 C38 0.952 . S
H51 C39 0.950 . S
N52 C55 1.382 . S
N52 C57 1.363 . S
N53 C55 1.371 . S
N53 C56 1.372 . S
N54 C56 1.361 . S
N54 C57 1.377 . S
C55 N52 1.382 . S
C55 N53 1.371 . S
C55 C58 1.480 . S
C56 N53 1.372 . S
C56 N54 1.361 . S
C56 C64 1.457 . S
C57 N52 1.363 . S
C57 N54 1.377 . S
C57 C70 1.479 . S
C58 C55 1.480 . S
C58 C59 1.383 . S
C58 C63 1.385 . S
C59 H40 0.947 . S
C59 C58 1.383 . S
C59 C60 1.388 . S
C60 H41 0.946 . S
C60 C59 1.388 . S
C60 C61 1.384 . S
C61 C60 1.384 . S
C61 C62 1.377 . S
C62 H42 0.953 . S
C62 C61 1.377 . S
C62 C63 1.369 . S
C63 H43 0.945 . S
C63 C58 1.385 . S
C63 C62 1.369 . S
C64 C56 1.457 . S
C64 C65 1.372 . S
C64 C69 1.364 . S
C65 H44 0.952 . S
C65 C64 1.372 . S
C65 C66 1.389 . S
C66 H45 0.949 . S
C66 C65 1.389 . S
C66 C67 1.387 . S
C67 C66 1.387 . S
C67 C68 1.372 . S
C68 H46 0.950 . S
C68 C67 1.372 . S
C68 C69 1.379 . S
C69 H47 0.948 . S
C69 C64 1.364 . S
C69 C68 1.379 . S
C70 C39 1.383 . S
C70 C57 1.479 . S
C70 C71 1.398 . S
C71 C36 1.382 . S
C71 H48 0.951 . S
C71 C70 1.398 . S
C72 C73 1.384 . S
C72 H85 0.947 . S
C72 C107 1.382 . S
C73 C72 1.384 . S
C73 C74 1.378 . S
C74 C73 1.378 . S
C74 C75 1.378 . S
C74 H86 0.952 . S
C75 C74 1.378 . S
C75 H87 0.950 . S
C75 C106 1.383 . S
H76 C95 0.947 . S
H77 C96 0.946 . S
H78 C98 0.953 . S
H79 C99 0.945 . S
H80 C101 0.952 . S
H81 C102 0.949 . S
H82 C104 0.950 . S
H83 C105 0.948 . S
H84 C107 0.951 . S
H85 C72 0.947 . S
H86 C74 0.952 . S
H87 C75 0.950 . S
N88 C91 1.382 . S
N88 C93 1.363 . S
N89 C91 1.371 . S
N89 C92 1.372 . S
N90 C92 1.361 . S
N90 C93 1.377 . S
C91 N88 1.382 . S
C91 N89 1.371 . S
C91 C94 1.480 . S
C92 N89 1.372 . S
C92 N90 1.361 . S
C92 C100 1.457 . S
C93 N88 1.363 . S
C93 N90 1.377 . S
C93 C106 1.479 . S
C94 C91 1.480 . S
C94 C95 1.383 . S
C94 C99 1.385 . S
C95 H76 0.947 . S
C95 C94 1.383 . S
C95 C96 1.388 . S
C96 H77 0.946 . S
C96 C95 1.388 . S
C96 C97 1.384 . S
C97 C96 1.384 . S
C97 C98 1.377 . S
C98 H78 0.953 . S
C98 C97 1.377 . S
C98 C99 1.369 . S
C99 H79 0.945 . S
C99 C94 1.385 . S
C99 C98 1.369 . S
C100 C92 1.457 . S
C100 C101 1.372 . S
C100 C105 1.364 . S
C101 H80 0.952 . S
C101 C100 1.372 . S
C101 C102 1.389 . S
C102 H81 0.949 . S
C102 C101 1.389 . S
C102 C103 1.387 . S
C103 C102 1.387 . S
C103 C104 1.372 . S
C104 H82 0.950 . S
C104 C103 1.372 . S
C104 C105 1.379 . S
C105 H83 0.948 . S
C105 C100 1.364 . S
C105 C104 1.379 . S
C106 C75 1.383 . S
C106 C93 1.479 . S
C106 C107 1.398 . S
C107 C72 1.382 . S
C107 H84 0.951 . S
C107 C106 1.398 . S
C108 C109 1.384 . S
C108 H121 0.947 . S
C108 C143 1.382 . S
C109 C108 1.384 . S
C109 C110 1.378 . S
C110 C109 1.378 . S
C110 C111 1.378 . S
C110 H122 0.952 . S
C111 C110 1.378 . S
C111 H123 0.950 . S
C111 C142 1.383 . S
H112 C131 0.947 . S
H113 C132 0.946 . S
H114 C134 0.953 . S
H115 C135 0.945 . S
H116 C137 0.952 . S
H117 C138 0.949 . S
H118 C140 0.950 . S
H119 C141 0.948 . S
H120 C143 0.951 . S
H121 C108 0.947 . S
H122 C110 0.952 . S
H123 C111 0.950 . S
N124 C127 1.382 . S
N124 C129 1.363 . S
N125 C127 1.371 . S
N125 C128 1.372 . S
N126 C128 1.361 . S
N126 C129 1.377 . S
C127 N124 1.382 . S
C127 N125 1.371 . S
C127 C130 1.480 . S
C128 N125 1.372 . S
C128 N126 1.361 . S
C128 C136 1.457 . S
C129 N124 1.363 . S
C129 N126 1.377 . S
C129 C142 1.479 . S
C130 C127 1.480 . S
C130 C131 1.383 . S
C130 C135 1.385 . S
C131 H112 0.947 . S
C131 C130 1.383 . S
C131 C132 1.388 . S
C132 H113 0.946 . S
C132 C131 1.388 . S
C132 C133 1.384 . S
C133 C132 1.384 . S
C133 C134 1.377 . S
C134 H114 0.953 . S
C134 C133 1.377 . S
C134 C135 1.369 . S
C135 H115 0.945 . S
C135 C130 1.385 . S
C135 C134 1.369 . S
C136 C128 1.457 . S
C136 C137 1.372 . S
C136 C141 1.364 . S
C137 H116 0.952 . S
C137 C136 1.372 . S
C137 C138 1.389 . S
C138 H117 0.949 . S
C138 C137 1.389 . S
C138 C139 1.387 . S
C139 C138 1.387 . S
C139 C140 1.372 . S
C140 H118 0.950 . S
C140 C139 1.372 . S
C140 C141 1.379 . S
C141 H119 0.948 . S
C141 C136 1.364 . S
C141 C140 1.379 . S
C142 C111 1.383 . S
C142 C129 1.479 . S
C142 C143 1.398 . S
C143 C108 1.382 . S
C143 H120 0.951 . S
C143 C142 1.398 . S
C144 C145 1.384 . S
C144 H157 0.947 . S
C144 C179 1.382 . S
C145 C144 1.384 . S
C145 C146 1.378 . S
C146 C145 1.378 . S
C146 C147 1.378 . S
C146 H158 0.952 . S
C147 C146 1.378 . S
C147 H159 0.950 . S
C147 C178 1.383 . S
H148 C167 0.947 . S
H149 C168 0.946 . S
H150 C170 0.953 . S
H151 C171 0.945 . S
H152 C173 0.952 . S
H153 C174 0.949 . S
H154 C176 0.950 . S
H155 C177 0.948 . S
H156 C179 0.951 . S
H157 C144 0.947 . S
H158 C146 0.952 . S
H159 C147 0.950 . S
N160 C163 1.382 . S
N160 C165 1.363 . S
N161 C163 1.371 . S
N161 C164 1.372 . S
N162 C164 1.361 . S
N162 C165 1.377 . S
C163 N160 1.382 . S
C163 N161 1.371 . S
C163 C166 1.480 . S
C164 N161 1.372 . S
C164 N162 1.361 . S
C164 C172 1.457 . S
C165 N160 1.363 . S
C165 N162 1.377 . S
C165 C178 1.479 . S
C166 C163 1.480 . S
C166 C167 1.383 . S
C166 C171 1.385 . S
C167 H148 0.947 . S
C167 C166 1.383 . S
C167 C168 1.388 . S
C168 H149 0.946 . S
C168 C167 1.388 . S
C168 C169 1.384 . S
C169 C168 1.384 . S
C169 C170 1.377 . S
C170 H150 0.953 . S
C170 C169 1.377 . S
C170 C171 1.369 . S
C171 H151 0.945 . S
C171 C166 1.385 . S
C171 C170 1.369 . S
C172 C164 1.457 . S
C172 C173 1.372 . S
C172 C177 1.364 . S
C173 H152 0.952 . S
C173 C172 1.372 . S
C173 C174 1.389 . S
C174 H153 0.949 . S
C174 C173 1.389 . S
C174 C175 1.387 . S
C175 C174 1.387 . S
C175 C176 1.372 . S
C176 H154 0.950 . S
C176 C175 1.372 . S
C176 C177 1.379 . S
C177 H155 0.948 . S
C177 C172 1.364 . S
C177 C176 1.379 . S
C178 C147 1.383 . S
C178 C165 1.479 . S
C178 C179 1.398 . S
C179 C144 1.382 . S
C179 H156 0.951 . S
C179 C178 1.398 . S
C180 C181 1.384 . S
C180 H193 0.947 . S
C180 C215 1.382 . S
C181 C180 1.384 . S
C181 C182 1.378 . S
C182 C181 1.378 . S
C182 C183 1.378 . S
C182 H194 0.952 . S
C183 C182 1.378 . S
C183 H195 0.950 . S
C183 C214 1.383 . S
H184 C203 0.947 . S
H185 C204 0.946 . S
H186 C206 0.953 . S
H187 C207 0.945 . S
H188 C209 0.952 . S
H189 C210 0.949 . S
H190 C212 0.950 . S
H191 C213 0.948 . S
H192 C215 0.951 . S
H193 C180 0.947 . S
H194 C182 0.952 . S
H195 C183 0.950 . S
N196 C199 1.382 . S
N196 C201 1.363 . S
N197 C199 1.371 . S
N197 C200 1.372 . S
N198 C200 1.361 . S
N198 C201 1.377 . S
C199 N196 1.382 . S
C199 N197 1.371 . S
C199 C202 1.480 . S
C200 N197 1.372 . S
C200 N198 1.361 . S
C200 C208 1.457 . S
C201 N196 1.363 . S
C201 N198 1.377 . S
C201 C214 1.479 . S
C202 C199 1.480 . S
C202 C203 1.383 . S
C202 C207 1.385 . S
C203 H184 0.947 . S
C203 C202 1.383 . S
C203 C204 1.388 . S
C204 H185 0.946 . S
C204 C203 1.388 . S
C204 C205 1.384 . S
C205 C204 1.384 . S
C205 C206 1.377 . S
C206 H186 0.953 . S
C206 C205 1.377 . S
C206 C207 1.369 . S
C207 H187 0.945 . S
C207 C202 1.385 . S
C207 C206 1.369 . S
C208 C200 1.457 . S
C208 C209 1.372 . S
C208 C213 1.364 . S
C209 H188 0.952 . S
C209 C208 1.372 . S
C209 C210 1.389 . S
C210 H189 0.949 . S
C210 C209 1.389 . S
C210 C211 1.387 . S
C211 C210 1.387 . S
C211 C212 1.372 . S
C212 H190 0.950 . S
C212 C211 1.372 . S
C212 C213 1.379 . S
C213 H191 0.948 . S
C213 C208 1.364 . S
C213 C212 1.379 . S
C214 C183 1.383 . S
C214 C201 1.479 . S
C214 C215 1.398 . S
C215 C180 1.382 . S
C215 H192 0.951 . S
C215 C214 1.398 . S
C216 C217 1.384 . S
C216 H229 0.947 . S
C216 C251 1.382 . S
C217 C216 1.384 . S
C217 C218 1.378 . S
C218 C217 1.378 . S
C218 C219 1.378 . S
C218 H230 0.952 . S
C219 C218 1.378 . S
C219 H231 0.950 . S
C219 C250 1.383 . S
H220 C239 0.947 . S
H221 C240 0.946 . S
H222 C242 0.953 . S
H223 C243 0.945 . S
H224 C245 0.952 . S
H225 C246 0.949 . S
H226 C248 0.950 . S
H227 C249 0.948 . S
H228 C251 0.951 . S
H229 C216 0.947 . S
H230 C218 0.952 . S
H231 C219 0.950 . S
N232 C235 1.382 . S
N232 C237 1.363 . S
N233 C235 1.371 . S
N233 C236 1.372 . S
N234 C236 1.361 . S
N234 C237 1.377 . S
C235 N232 1.382 . S
C235 N233 1.371 . S
C235 C238 1.480 . S
C236 N233 1.372 . S
C236 N234 1.361 . S
C236 C244 1.457 . S
C237 N232 1.363 . S
C237 N234 1.377 . S
C237 C250 1.479 . S
C238 C235 1.480 . S
C238 C239 1.383 . S
C238 C243 1.385 . S
C239 H220 0.947 . S
C239 C238 1.383 . S
C239 C240 1.388 . S
C240 H221 0.946 . S
C240 C239 1.388 . S
C240 C241 1.384 . S
C241 C240 1.384 . S
C241 C242 1.377 . S
C242 H222 0.953 . S
C242 C241 1.377 . S
C242 C243 1.369 . S
C243 H223 0.945 . S
C243 C238 1.385 . S
C243 C242 1.369 . S
C244 C236 1.457 . S
C244 C245 1.372 . S
C244 C249 1.364 . S
C245 H224 0.952 . S
C245 C244 1.372 . S
C245 C246 1.389 . S
C246 H225 0.949 . S
C246 C245 1.389 . S
C246 C247 1.387 . S
C247 C246 1.387 . S
C247 C248 1.372 . S
C248 H226 0.950 . S
C248 C247 1.372 . S
C248 C249 1.379 . S
C249 H227 0.948 . S
C249 C244 1.364 . S
C249 C248 1.379 . S
C250 C219 1.383 . S
C250 C237 1.479 . S
C250 C251 1.398 . S
C251 C216 1.382 . S
C251 H228 0.951 . S
C251 C250 1.398 . S
C252 C253 1.384 . S
C252 H265 0.947 . S
C252 C287 1.382 . S
C253 C252 1.384 . S
C253 C254 1.378 . S
C254 C253 1.378 . S
C254 C255 1.378 . S
C254 H266 0.952 . S
C255 C254 1.378 . S
C255 H267 0.950 . S
C255 C286 1.383 . S
H256 C275 0.947 . S
H257 C276 0.946 . S
H258 C278 0.953 . S
H259 C279 0.945 . S
H260 C281 0.952 . S
H261 C282 0.949 . S
H262 C284 0.950 . S
H263 C285 0.948 . S
H264 C287 0.951 . S
H265 C252 0.947 . S
H266 C254 0.952 . S
H267 C255 0.950 . S
N268 C271 1.382 . S
N268 C273 1.363 . S
N269 C271 1.371 . S
N269 C272 1.372 . S
N270 C272 1.361 . S
N270 C273 1.377 . S
C271 N268 1.382 . S
C271 N269 1.371 . S
C271 C274 1.480 . S
C272 N269 1.372 . S
C272 N270 1.361 . S
C272 C280 1.457 . S
C273 N268 1.363 . S
C273 N270 1.377 . S
C273 C286 1.479 . S
C274 C271 1.480 . S
C274 C275 1.383 . S
C274 C279 1.385 . S
C275 H256 0.947 . S
C275 C274 1.383 . S
C275 C276 1.388 . S
C276 H257 0.946 . S
C276 C275 1.388 . S
C276 C277 1.384 . S
C277 C276 1.384 . S
C277 C278 1.377 . S
C278 H258 0.953 . S
C278 C277 1.377 . S
C278 C279 1.369 . S
C279 H259 0.945 . S
C279 C274 1.385 . S
C279 C278 1.369 . S
C280 C272 1.457 . S
C280 C281 1.372 . S
C280 C285 1.364 . S
C281 H260 0.952 . S
C281 C280 1.372 . S
C281 C282 1.389 . S
C282 H261 0.949 . S
C282 C281 1.389 . S
C282 C283 1.387 . S
C283 C282 1.387 . S
C283 C284 1.372 . S
C284 H262 0.950 . S
C284 C283 1.372 . S
C284 C285 1.379 . S
C285 H263 0.948 . S
C285 C280 1.364 . S
C285 C284 1.379 . S
C286 C255 1.383 . S
C286 C273 1.479 . S
C286 C287 1.398 . S
C287 C252 1.382 . S
C287 H264 0.951 . S
C287 C286 1.398 . S
Tb288 C297 2.764 . S
Tb288 O298 2.309 1_455 S
Tb288 O301 2.303 . S
Tb288 O305 2.322 1_545 S
Tb288 O306 2.349 1_545 S
Tb288 O309 2.415 . S
Tb288 O310 2.399 . S
Tb289 O299 2.343 . S
Tb289 O300 2.374 . S
Tb289 O302 2.389 1_545 S
Tb289 O303 2.396 1_545 S
Tb289 O304 2.308 1_645 S
Tb289 O307 2.284 1_545 S
Tb289 C318 2.748 1_545 S
C290 O306 1.261 1_655 S
C290 O307 1.257 . S
C291 C294 1.358 . S
C291 C295 1.332 . S
C291 C297 1.504 . S
C292 C293 1.373 . S
C292 C296 1.308 . S
C293 C292 1.373 . S
C293 C294 1.429 . S
C293 H320 0.932 . S
C294 C291 1.358 . S
C294 C293 1.429 . S
C294 H321 0.930 . S
C295 C291 1.332 . S
C295 C296 1.394 . S
C295 H322 0.932 . S
C296 C292 1.308 . S
C296 C295 1.394 . S
C296 H323 0.929 . S
C297 Tb288 2.764 . S
C297 C291 1.504 . S
C297 O309 1.239 . S
C297 O310 1.263 . S
O298 Tb288 2.309 1_655 S
O298 C308 1.252 . S
O299 Tb289 2.343 . S
O299 C308 1.257 . S
O300 Tb289 2.374 . S
O300 C311 1.261 1_655 S
O301 Tb288 2.303 . S
O301 C311 1.257 . S
O302 Tb289 2.389 1_565 S
O302 C318 1.239 . S
O303 Tb289 2.396 1_565 S
O303 C318 1.263 . S
O304 Tb289 2.308 1_465 S
O304 C319 1.236 . S
O305 Tb288 2.322 1_565 S
O305 C319 1.257 . S
O306 Tb288 2.349 1_565 S
O306 C290 1.261 1_455 S
O307 Tb289 2.284 1_565 S
O307 C290 1.257 . S
C308 O298 1.252 . S
C308 O299 1.257 . S
O309 Tb288 2.415 . S
O309 C297 1.239 . S
O310 Tb288 2.399 . S
O310 C297 1.263 . S
C311 O300 1.261 1_455 S
C311 O301 1.257 . S
C312 C315 1.358 . S
C312 C316 1.332 . S
C312 C318 1.504 . S
C313 C314 1.373 . S
C313 C317 1.308 . S
C314 C313 1.373 . S
C314 C315 1.429 . S
C314 H324 0.932 . S
C315 C312 1.358 . S
C315 C314 1.429 . S
C315 H325 0.930 . S
C316 C312 1.332 . S
C316 C317 1.394 . S
C316 H326 0.932 . S
C317 C313 1.308 . S
C317 C316 1.394 . S
C317 H327 0.929 . S
C318 Tb289 2.748 1_565 S
C318 O302 1.239 . S
C318 O303 1.263 . S
C318 C312 1.504 . S
C319 O304 1.236 . S
C319 O305 1.257 . S
H320 C293 0.932 . S
H321 C294 0.930 . S
H322 C295 0.932 . S
H323 C296 0.929 . S
H324 C314 0.932 . S
H325 C315 0.930 . S
H326 C316 0.932 . S
H327 C317 0.929 . S
Tb328 C337 2.764 . S
Tb328 O338 2.325 1_554 S
Tb328 O341 2.303 . S
Tb328 O345 2.322 1_545 S
Tb328 O346 2.360 1_545 S
Tb328 O349 2.415 . S
Tb328 O350 2.399 . S
Tb329 O339 2.290 1_565 S
Tb329 O340 2.325 1_566 S
Tb329 O342 2.449 . S
Tb329 O343 2.410 . S
Tb329 O344 2.354 1_556 S
Tb329 O347 2.322 . S
Tb329 C358 2.790 . S
C330 O346 1.248 1_556 S
C330 O347 1.257 . S
C331 C334 1.358 . S
C331 C335 1.332 . S
C331 C337 1.504 . S
C332 C333 1.373 . S
C332 C336 1.308 . S
C333 C332 1.373 . S
C333 C334 1.429 . S
C333 H360 0.932 . S
C334 C331 1.358 . S
C334 C333 1.429 . S
C334 H361 0.930 . S
C335 C331 1.332 . S
C335 C336 1.394 . S
C335 H362 0.932 . S
C336 C332 1.308 . S
C336 C335 1.394 . S
C336 H363 0.929 . S
C337 Tb328 2.764 . S
C337 C331 1.504 . S
C337 O349 1.239 . S
C337 O350 1.263 . S
O338 Tb328 2.325 1_556 S
O338 C348 1.236 . S
O339 Tb329 2.290 1_545 S
O339 C348 1.257 . S
O340 Tb329 2.325 1_544 S
O340 C351 1.261 . S
O341 Tb328 2.303 . S
O341 C351 1.257 . S
O342 Tb329 2.449 . S
O342 C358 1.239 . S
O343 Tb329 2.410 . S
O343 C358 1.263 . S
O344 Tb329 2.354 1_554 S
O344 C359 1.236 . S
O345 Tb328 2.322 1_565 S
O345 C359 1.257 . S
O346 Tb328 2.360 1_565 S
O346 C330 1.248 1_554 S
O347 Tb329 2.322 . S
O347 C330 1.257 . S
C348 O338 1.236 . S
C348 O339 1.257 . S
O349 Tb328 2.415 . S
O349 C337 1.239 . S
O350 Tb328 2.399 . S
O350 C337 1.263 . S
C351 O340 1.261 . S
C351 O341 1.257 . S
C352 C355 1.358 . S
C352 C356 1.332 . S
C352 C358 1.504 . S
C353 C354 1.373 . S
C353 C357 1.308 . S
C354 C353 1.373 . S
C354 C355 1.429 . S
C354 H364 0.932 . S
C355 C352 1.358 . S
C355 C354 1.429 . S
C355 H365 0.930 . S
C356 C352 1.332 . S
C356 C357 1.394 . S
C356 H366 0.932 . S
C357 C353 1.308 . S
C357 C356 1.394 . S
C357 H367 0.929 . S
C358 Tb329 2.790 . S
C358 O342 1.239 . S
C358 O343 1.263 . S
C358 C352 1.504 . S
C359 O344 1.236 . S
C359 O345 1.257 . S
H360 C333 0.932 . S
H361 C334 0.930 . S
H362 C335 0.932 . S
H363 C336 0.929 . S
H364 C354 0.932 . S
H365 C355 0.930 . S
H366 C356 0.932 . S
H367 C357 0.929 . S
Tb368 C377 2.764 . S
Tb368 O378 2.325 . S
Tb368 O381 2.303 . S
Tb368 O385 2.322 . S
Tb368 O386 2.349 . S
Tb368 O389 2.415 . S
Tb368 O390 2.399 . S
Tb369 O379 2.322 . S
Tb369 O380 2.349 . S
Tb369 O382 2.415 . S
Tb369 O383 2.399 . S
Tb369 O384 2.325 . S
Tb369 O387 2.303 . S
Tb369 C398 2.764 . S
C370 O386 1.261 . S
C370 O387 1.257 . S
C371 C374 1.358 . S
C371 C375 1.332 . S
C371 C377 1.504 . S
C372 C373 1.373 . S
C372 C376 1.308 . S
C373 C372 1.373 . S
C373 C374 1.429 . S
C373 H400 0.932 . S
C374 C371 1.358 . S
C374 C373 1.429 . S
C374 H401 0.930 . S
C375 C371 1.332 . S
C375 C376 1.394 . S
C375 H402 0.932 . S
C376 C372 1.308 . S
C376 C375 1.394 . S
C376 H403 0.929 . S
C377 Tb368 2.764 . S
C377 C371 1.504 . S
C377 O389 1.239 . S
C377 O390 1.263 . S
O378 Tb368 2.325 . S
O378 C388 1.236 . S
O379 Tb369 2.322 . S
O379 C388 1.257 . S
O380 Tb369 2.349 . S
O380 C391 1.261 . S
O381 Tb368 2.303 . S
O381 C391 1.257 . S
O382 Tb369 2.415 . S
O382 C398 1.239 . S
O383 Tb369 2.399 . S
O383 C398 1.263 . S
O384 Tb369 2.325 . S
O384 C399 1.236 . S
O385 Tb368 2.322 . S
O385 C399 1.257 . S
O386 Tb368 2.349 . S
O386 C370 1.261 . S
O387 Tb369 2.303 . S
O387 C370 1.257 . S
C388 O378 1.236 . S
C388 O379 1.257 . S
O389 Tb368 2.415 . S
O389 C377 1.239 . S
O390 Tb368 2.399 . S
O390 C377 1.263 . S
C391 O380 1.261 . S
C391 O381 1.257 . S
C392 C395 1.358 . S
C392 C396 1.332 . S
C392 C398 1.504 . S
C393 C394 1.373 . S
C393 C397 1.308 . S
C394 C393 1.373 . S
C394 C395 1.429 . S
C394 H404 0.932 . S
C395 C392 1.358 . S
C395 C394 1.429 . S
C395 H405 0.930 . S
C396 C392 1.332 . S
C396 C397 1.394 . S
C396 H406 0.932 . S
C397 C393 1.308 . S
C397 C396 1.394 . S
C397 H407 0.929 . S
C398 Tb369 2.764 . S
C398 O382 1.239 . S
C398 O383 1.263 . S
C398 C392 1.504 . S
C399 O384 1.236 . S
C399 O385 1.257 . S
H400 C373 0.932 . S
H401 C374 0.930 . S
H402 C375 0.932 . S
H403 C376 0.929 . S
H404 C394 0.932 . S
H405 C395 0.930 . S
H406 C396 0.932 . S
H407 C397 0.929 . S
Tb408 C417 2.764 1_455 S
Tb408 O418 2.325 1_455 S
Tb408 O421 2.303 1_456 S
Tb408 O425 2.322 1_556 S
Tb408 O426 2.349 . S
Tb408 O429 2.415 1_455 S
Tb408 O430 2.399 1_455 S
Tb409 O419 2.322 1_455 S
Tb409 O420 2.349 1_455 S
Tb409 O422 2.415 . S
Tb409 O423 2.399 . S
Tb409 O424 2.325 . S
Tb409 O427 2.303 1_554 S
Tb409 C438 2.764 . S
C410 O426 1.261 . S
C410 O427 1.257 . S
C411 C414 1.358 . S
C411 C415 1.332 . S
C411 C417 1.504 . S
C412 C413 1.373 . S
C412 C416 1.308 . S
C413 C412 1.373 . S
C413 C414 1.429 . S
C413 H440 0.932 . S
C414 C411 1.358 . S
C414 C413 1.429 . S
C414 H441 0.930 . S
C415 C411 1.332 . S
C415 C416 1.394 . S
C415 H442 0.932 . S
C416 C412 1.308 . S
C416 C415 1.394 . S
C416 H443 0.929 . S
C417 Tb408 2.764 1_655 S
C417 C411 1.504 . S
C417 O429 1.239 . S
C417 O430 1.263 . S
O418 Tb408 2.325 1_655 S
O418 C428 1.236 . S
O419 Tb409 2.322 1_655 S
O419 C428 1.257 1_554 S
O420 Tb409 2.349 1_655 S
O420 C431 1.261 . S
O421 Tb408 2.303 1_654 S
O421 C431 1.257 . S
O422 Tb409 2.415 . S
O422 C438 1.239 . S
O423 Tb409 2.399 . S
O423 C438 1.263 . S
O424 Tb409 2.325 . S
O424 C439 1.236 . S
O425 Tb408 2.322 1_554 S
O425 C439 1.257 . S
O426 Tb408 2.349 . S
O426 C410 1.261 . S
O427 Tb409 2.303 1_556 S
O427 C410 1.257 . S
C428 O418 1.236 . S
C428 O419 1.257 1_556 S
O429 Tb408 2.415 1_655 S
O429 C417 1.239 . S
O430 Tb408 2.399 1_655 S
O430 C417 1.263 . S
C431 O420 1.261 . S
C431 O421 1.257 . S
C432 C435 1.358 . S
C432 C436 1.332 . S
C432 C438 1.504 . S
C433 C434 1.373 . S
C433 C437 1.308 . S
C434 C433 1.373 . S
C434 C435 1.429 . S
C434 H444 0.932 . S
C435 C432 1.358 . S
C435 C434 1.429 . S
C435 H445 0.930 . S
C436 C432 1.332 . S
C436 C437 1.394 . S
C436 H446 0.932 . S
C437 C433 1.308 . S
C437 C436 1.394 . S
C437 H447 0.929 . S
C438 Tb409 2.764 . S
C438 O422 1.239 . S
C438 O423 1.263 . S
C438 C432 1.504 . S
C439 O424 1.236 . S
C439 O425 1.257 . S
H440 C413 0.932 . S
H441 C414 0.930 . S
H442 C415 0.932 . S
H443 C416 0.929 . S
H444 C434 0.932 . S
H445 C435 0.930 . S
H446 C436 0.932 . S
H447 C437 0.929 . S
H448 C460 0.930 . S
H449 C462 0.930 . S
H450 C463 0.930 . S
H451 C467 0.959 . S
H452 C467 0.959 . S
H453 C467 0.961 . S
H454 C468 0.960 . S
H455 C468 0.961 . S
H456 C468 0.959 . S
H457 C471 0.929 . S
H458 C472 0.931 . S
H459 C474 0.930 . S
C460 H448 0.930 . S
C460 C461 1.399 . S
C460 C465 1.399 . S
C461 C460 1.399 . S
C461 C462 1.376 . S
C462 H449 0.930 . S
C462 C461 1.376 . S
C462 C463 1.388 . S
C463 H450 0.930 . S
C463 C462 1.388 . S
C463 C464 1.390 . S
C464 C463 1.390 . S
C464 C465 1.394 . S
C464 C470 1.465 . S
C465 C460 1.399 . S
C465 C464 1.394 . S
C465 C466 1.516 . S
C466 C465 1.516 . S
C466 C467 1.502 . S
C466 C468 1.561 . S
C466 C469 1.526 . S
C467 H451 0.959 . S
C467 H452 0.959 . S
C467 H453 0.961 . S
C467 C466 1.502 . S
C468 H454 0.960 . S
C468 H455 0.961 . S
C468 H456 0.959 . S
C468 C466 1.561 . S
C469 C466 1.526 . S
C469 C470 1.396 . S
C469 C474 1.390 . S
C470 C464 1.465 . S
C470 C469 1.396 . S
C470 C471 1.399 . S
C471 H457 0.929 . S
C471 C470 1.399 . S
C471 C472 1.385 . S
C472 H458 0.931 . S
C472 C471 1.385 . S
C472 C473 1.389 . S
C473 C472 1.389 . S
C473 C474 1.387 . S
C474 H459 0.930 . S
C474 C469 1.390 . S
C474 C473 1.387 . S
H475 C487 0.930 . S
H476 C489 0.930 . S
H477 C490 0.930 . S
H478 C494 0.959 . S
H479 C494 0.959 . S
H480 C494 0.961 . S
H481 C495 0.960 . S
H482 C495 0.961 . S
H483 C495 0.959 . S
H484 C498 0.929 . S
H485 C499 0.931 . S
H486 C501 0.930 . S
C487 H475 0.930 . S
C487 C488 1.399 . S
C487 C492 1.399 . S
C488 C487 1.399 . S
C488 C489 1.376 . S
C489 H476 0.930 . S
C489 C488 1.376 . S
C489 C490 1.388 . S
C490 H477 0.930 . S
C490 C489 1.388 . S
C490 C491 1.390 . S
C491 C490 1.390 . S
C491 C492 1.394 . S
C491 C497 1.465 . S
C492 C487 1.399 . S
C492 C491 1.394 . S
C492 C493 1.516 . S
C493 C492 1.516 . S
C493 C494 1.502 . S
C493 C495 1.561 . S
C493 C496 1.526 . S
C494 H478 0.959 . S
C494 H479 0.959 . S
C494 H480 0.961 . S
C494 C493 1.502 . S
C495 H481 0.960 . S
C495 H482 0.961 . S
C495 H483 0.959 . S
C495 C493 1.561 . S
C496 C493 1.526 . S
C496 C497 1.396 . S
C496 C501 1.390 . S
C497 C491 1.465 . S
C497 C496 1.396 . S
C497 C498 1.399 . S
C498 H484 0.929 . S
C498 C497 1.399 . S
C498 C499 1.385 . S
C499 H485 0.931 . S
C499 C498 1.385 . S
C499 C500 1.389 . S
C500 C499 1.389 . S
C500 C501 1.387 . S
C501 H486 0.930 . S
C501 C496 1.390 . S
C501 C500 1.387 . S
H502 C514 0.930 . S
H503 C516 0.930 . S
H504 C517 0.930 . S
H505 C521 0.959 . S
H506 C521 0.959 . S
H507 C521 0.961 . S
H508 C522 0.960 . S
H509 C522 0.961 . S
H510 C522 0.959 . S
H511 C525 0.929 . S
H512 C526 0.931 . S
H513 C528 0.930 . S
C514 H502 0.930 . S
C514 C515 1.399 . S
C514 C519 1.399 . S
C515 C514 1.399 . S
C515 C516 1.376 . S
C516 H503 0.930 . S
C516 C515 1.376 . S
C516 C517 1.388 . S
C517 H504 0.930 . S
C517 C516 1.388 . S
C517 C518 1.390 . S
C518 C517 1.390 . S
C518 C519 1.394 . S
C518 C524 1.465 . S
C519 C514 1.399 . S
C519 C518 1.394 . S
C519 C520 1.516 . S
C520 C519 1.516 . S
C520 C521 1.502 . S
C520 C522 1.561 . S
C520 C523 1.526 . S
C521 H505 0.959 . S
C521 H506 0.959 . S
C521 H507 0.961 . S
C521 C520 1.502 . S
C522 H508 0.960 . S
C522 H509 0.961 . S
C522 H510 0.959 . S
C522 C520 1.561 . S
C523 C520 1.526 . S
C523 C524 1.396 . S
C523 C528 1.390 . S
C524 C518 1.465 . S
C524 C523 1.396 . S
C524 C525 1.399 . S
C525 H511 0.929 . S
C525 C524 1.399 . S
C525 C526 1.385 . S
C526 H512 0.931 . S
C526 C525 1.385 . S
C526 C527 1.389 . S
C527 C526 1.389 . S
C527 C528 1.387 . S
C528 H513 0.930 . S
C528 C523 1.390 . S
C528 C527 1.387 . S
H529 C541 0.930 . S
H530 C543 0.930 . S
H531 C544 0.930 . S
H532 C548 0.959 . S
H533 C548 0.959 . S
H534 C548 0.961 . S
H535 C549 0.960 . S
H536 C549 0.961 . S
H537 C549 0.959 . S
H538 C552 0.929 . S
H539 C553 0.931 . S
H540 C555 0.930 . S
C541 H529 0.930 . S
C541 C542 1.399 . S
C541 C546 1.399 . S
C542 C541 1.399 . S
C542 C543 1.376 . S
C543 H530 0.930 . S
C543 C542 1.376 . S
C543 C544 1.388 . S
C544 H531 0.930 . S
C544 C543 1.388 . S
C544 C545 1.390 . S
C545 C544 1.390 . S
C545 C546 1.394 . S
C545 C551 1.465 . S
C546 C541 1.399 . S
C546 C545 1.394 . S
C546 C547 1.516 . S
C547 C546 1.516 . S
C547 C548 1.502 . S
C547 C549 1.561 . S
C547 C550 1.526 . S
C548 H532 0.959 . S
C548 H533 0.959 . S
C548 H534 0.961 . S
C548 C547 1.502 . S
C549 H535 0.960 . S
C549 H536 0.961 . S
C549 H537 0.959 . S
C549 C547 1.561 . S
C550 C547 1.526 . S
C550 C551 1.396 . S
C550 C555 1.390 . S
C551 C545 1.465 . S
C551 C550 1.396 . S
C551 C552 1.399 . S
C552 H538 0.929 . S
C552 C551 1.399 . S
C552 C553 1.385 . S
C553 H539 0.931 . S
C553 C552 1.385 . S
C553 C554 1.389 . S
C554 C553 1.389 . S
C554 C555 1.387 . S
C555 H540 0.930 . S
C555 C550 1.390 . S
C555 C554 1.387 . S
H556 C568 0.930 . S
H557 C570 0.930 . S
H558 C571 0.930 . S
H559 C575 0.959 . S
H560 C575 0.959 . S
H561 C575 0.961 . S
H562 C576 0.960 . S
H563 C576 0.961 . S
H564 C576 0.959 . S
H565 C579 0.929 . S
H566 C580 0.931 . S
H567 C582 0.930 . S
C568 H556 0.930 . S
C568 C569 1.399 . S
C568 C573 1.399 . S
C569 C568 1.399 . S
C569 C570 1.376 . S
C570 H557 0.930 . S
C570 C569 1.376 . S
C570 C571 1.388 . S
C571 H558 0.930 . S
C571 C570 1.388 . S
C571 C572 1.390 . S
C572 C571 1.390 . S
C572 C573 1.394 . S
C572 C578 1.465 . S
C573 C568 1.399 . S
C573 C572 1.394 . S
C573 C574 1.516 . S
C574 C573 1.516 . S
C574 C575 1.502 . S
C574 C576 1.561 . S
C574 C577 1.526 . S
C575 H559 0.959 . S
C575 H560 0.959 . S
C575 H561 0.961 . S
C575 C574 1.502 . S
C576 H562 0.960 . S
C576 H563 0.961 . S
C576 H564 0.959 . S
C576 C574 1.561 . S
C577 C574 1.526 . S
C577 C578 1.396 . S
C577 C582 1.390 . S
C578 C572 1.465 . S
C578 C577 1.396 . S
C578 C579 1.399 . S
C579 H565 0.929 . S
C579 C578 1.399 . S
C579 C580 1.385 . S
C580 H566 0.931 . S
C580 C579 1.385 . S
C580 C581 1.389 . S
C581 C580 1.389 . S
C581 C582 1.387 . S
C582 H567 0.930 . S
C582 C577 1.390 . S
C582 C581 1.387 . S
H583 C595 0.930 . S
H584 C597 0.930 . S
H585 C598 0.930 . S
H586 C602 0.959 . S
H587 C602 0.959 . S
H588 C602 0.961 . S
H589 C603 0.960 . S
H590 C603 0.961 . S
H591 C603 0.959 . S
H592 C606 0.929 . S
H593 C607 0.931 . S
H594 C609 0.930 . S
C595 H583 0.930 . S
C595 C596 1.399 . S
C595 C600 1.399 . S
C596 C595 1.399 . S
C596 C597 1.376 . S
C597 H584 0.930 . S
C597 C596 1.376 . S
C597 C598 1.388 . S
C598 H585 0.930 . S
C598 C597 1.388 . S
C598 C599 1.390 . S
C599 C598 1.390 . S
C599 C600 1.394 . S
C599 C605 1.465 . S
C600 C595 1.399 . S
C600 C599 1.394 . S
C600 C601 1.516 . S
C601 C600 1.516 . S
C601 C602 1.502 . S
C601 C603 1.561 1_455 S
C601 C604 1.526 . S
C602 H586 0.959 . S
C602 H587 0.959 . S
C602 H588 0.961 . S
C602 C601 1.502 . S
C603 H589 0.960 . S
C603 H590 0.961 . S
C603 H591 0.959 . S
C603 C601 1.561 1_655 S
C604 C601 1.526 . S
C604 C605 1.396 . S
C604 C609 1.390 . S
C605 C599 1.465 . S
C605 C604 1.396 . S
C605 C606 1.399 . S
C606 H592 0.929 . S
C606 C605 1.399 . S
C606 C607 1.385 . S
C607 H593 0.931 . S
C607 C606 1.385 . S
C607 C608 1.389 . S
C608 C607 1.389 . S
C608 C609 1.387 . S
C609 H594 0.930 . S
C609 C604 1.390 . S
C609 C608 1.387 . S
H610 C622 0.930 . S
H611 C624 0.930 . S
H612 C625 0.930 . S
H613 C629 0.959 . S
H614 C629 0.959 . S
H615 C629 0.961 . S
H616 C630 0.960 . S
H617 C630 0.961 . S
H618 C630 0.959 . S
H619 C633 0.929 . S
H620 C634 0.931 . S
H621 C636 0.930 . S
C622 H610 0.930 . S
C622 C623 1.399 . S
C622 C627 1.399 . S
C623 C622 1.399 . S
C623 C624 1.376 . S
C624 H611 0.930 . S
C624 C623 1.376 . S
C624 C625 1.388 . S
C625 H612 0.930 . S
C625 C624 1.388 . S
C625 C626 1.390 . S
C626 C625 1.390 . S
C626 C627 1.394 . S
C626 C632 1.465 . S
C627 C622 1.399 . S
C627 C626 1.394 . S
C627 C628 1.516 . S
C628 C627 1.516 . S
C628 C629 1.502 . S
C628 C630 1.561 . S
C628 C631 1.526 . S
C629 H613 0.959 . S
C629 H614 0.959 . S
C629 H615 0.961 . S
C629 C628 1.502 . S
C630 H616 0.960 . S
C630 H617 0.961 . S
C630 H618 0.959 . S
C630 C628 1.561 . S
C631 C628 1.526 . S
C631 C632 1.396 . S
C631 C636 1.390 . S
C632 C626 1.465 . S
C632 C631 1.396 . S
C632 C633 1.399 . S
C633 H619 0.929 . S
C633 C632 1.399 . S
C633 C634 1.385 . S
C634 H620 0.931 . S
C634 C633 1.385 . S
C634 C635 1.389 . S
C635 C634 1.389 . S
C635 C636 1.387 . S
C636 H621 0.930 . S
C636 C631 1.390 . S
C636 C635 1.387 . S
H637 C649 0.930 . S
H638 C651 0.930 . S
H639 C652 0.930 . S
H640 C656 0.959 . S
H641 C656 0.959 . S
H642 C656 0.961 . S
H643 C657 0.960 . S
H644 C657 0.961 . S
H645 C657 0.959 . S
H646 C660 0.929 . S
H647 C661 0.931 . S
H648 C663 0.930 . S
C649 H637 0.930 . S
C649 C650 1.399 . S
C649 C654 1.399 . S
C650 C649 1.399 . S
C650 C651 1.376 . S
C651 H638 0.930 . S
C651 C650 1.376 . S
C651 C652 1.388 . S
C652 H639 0.930 . S
C652 C651 1.388 . S
C652 C653 1.390 . S
C653 C652 1.390 . S
C653 C654 1.394 . S
C653 C659 1.465 . S
C654 C649 1.399 . S
C654 C653 1.394 . S
C654 C655 1.516 . S
C655 C654 1.516 . S
C655 C656 1.502 . S
C655 C657 1.561 . S
C655 C658 1.526 . S
C656 H640 0.959 . S
C656 H641 0.959 . S
C656 H642 0.961 . S
C656 C655 1.502 . S
C657 H643 0.960 . S
C657 H644 0.961 . S
C657 H645 0.959 . S
C657 C655 1.561 . S
C658 C655 1.526 . S
C658 C659 1.396 . S
C658 C663 1.390 . S
C659 C653 1.465 . S
C659 C658 1.396 . S
C659 C660 1.399 . S
C660 H646 0.929 . S
C660 C659 1.399 . S
C660 C661 1.385 . S
C661 H647 0.931 . S
C661 C660 1.385 . S
C661 C662 1.389 . S
C662 C661 1.389 . S
C662 C663 1.387 . S
C663 H648 0.930 . S
C663 C658 1.390 . S
C663 C662 1.387 . S
H664 C676 0.930 . S
H665 C678 0.930 . S
H666 C679 0.930 . S
H667 C683 0.959 . S
H668 C683 0.959 . S
H669 C683 0.961 . S
H670 C684 0.960 . S
H671 C684 0.961 . S
H672 C684 0.959 . S
H673 C687 0.929 . S
H674 C688 0.931 . S
H675 C690 0.930 . S
C676 H664 0.930 . S
C676 C677 1.399 . S
C676 C681 1.399 . S
C677 C676 1.399 . S
C677 C678 1.376 . S
C678 H665 0.930 . S
C678 C677 1.376 . S
C678 C679 1.388 . S
C679 H666 0.930 . S
C679 C678 1.388 . S
C679 C680 1.390 . S
C680 C679 1.390 . S
C680 C681 1.394 . S
C680 C686 1.465 . S
C681 C676 1.399 . S
C681 C680 1.394 . S
C681 C682 1.516 . S
C682 C681 1.516 . S
C682 C683 1.502 . S
C682 C684 1.561 . S
C682 C685 1.526 . S
C683 H667 0.959 . S
C683 H668 0.959 . S
C683 H669 0.961 . S
C683 C682 1.502 . S
C684 H670 0.960 . S
C684 H671 0.961 . S
C684 H672 0.959 . S
C684 C682 1.561 . S
C685 C682 1.526 . S
C685 C686 1.396 . S
C685 C690 1.390 . S
C686 C680 1.465 . S
C686 C685 1.396 . S
C686 C687 1.399 . S
C687 H673 0.929 . S
C687 C686 1.399 . S
C687 C688 1.385 . S
C688 H674 0.931 . S
C688 C687 1.385 . S
C688 C689 1.389 . S
C689 C688 1.389 . S
C689 C690 1.387 . S
C690 H675 0.930 . S
C690 C685 1.390 . S
C690 C689 1.387 . S
H691 C703 0.930 . S
H692 C705 0.930 . S
H693 C706 0.930 . S
H694 C710 0.959 . S
H695 C710 0.959 1_554 S
H696 C710 0.961 . S
H697 C711 0.960 . S
H698 C711 0.961 . S
H699 C711 0.959 . S
H700 C714 0.929 . S
H701 C715 0.931 . S
H702 C717 0.930 . S
C703 H691 0.930 . S
C703 C704 1.399 . S
C703 C708 1.399 . S
C704 C703 1.399 . S
C704 C705 1.376 . S
C705 H692 0.930 . S
C705 C704 1.376 . S
C705 C706 1.388 . S
C706 H693 0.930 . S
C706 C705 1.388 . S
C706 C707 1.390 . S
C707 C706 1.390 . S
C707 C708 1.394 . S
C707 C713 1.465 . S
C708 C703 1.399 . S
C708 C707 1.394 . S
C708 C709 1.516 . S
C709 C708 1.516 . S
C709 C710 1.502 . S
C709 C711 1.561 . S
C709 C712 1.526 . S
C710 H694 0.959 . S
C710 H695 0.959 1_556 S
C710 H696 0.961 . S
C710 C709 1.502 . S
C711 H697 0.960 . S
C711 H698 0.961 . S
C711 H699 0.959 . S
C711 C709 1.561 . S
C712 C709 1.526 . S
C712 C713 1.396 . S
C712 C717 1.390 . S
C713 C707 1.465 . S
C713 C712 1.396 . S
C713 C714 1.399 . S
C714 H700 0.929 . S
C714 C713 1.399 . S
C714 C715 1.385 . S
C715 H701 0.931 . S
C715 C714 1.385 . S
C715 C716 1.389 . S
C716 C715 1.389 . S
C716 C717 1.387 . S
C717 H702 0.930 . S
C717 C712 1.390 . S
C717 C716 1.387 . S
H718 C730 0.930 . S
H719 C732 0.930 . S
H720 C733 0.930 . S
H721 C737 0.959 . S
H722 C737 0.959 . S
H723 C737 0.961 . S
H724 C738 0.960 . S
H725 C738 0.961 . S
H726 C738 0.959 . S
H727 C741 0.929 . S
H728 C742 0.931 . S
H729 C744 0.930 . S
C730 H718 0.930 . S
C730 C731 1.399 . S
C730 C735 1.399 . S
C731 C730 1.399 . S
C731 C732 1.376 . S
C732 H719 0.930 . S
C732 C731 1.376 . S
C732 C733 1.388 . S
C733 H720 0.930 . S
C733 C732 1.388 . S
C733 C734 1.390 . S
C734 C733 1.390 . S
C734 C735 1.394 . S
C734 C740 1.465 . S
C735 C730 1.399 . S
C735 C734 1.394 . S
C735 C736 1.516 . S
C736 C735 1.516 . S
C736 C737 1.502 . S
C736 C738 1.561 . S
C736 C739 1.526 . S
C737 H721 0.959 . S
C737 H722 0.959 . S
C737 H723 0.961 . S
C737 C736 1.502 . S
C738 H724 0.960 . S
C738 H725 0.961 . S
C738 H726 0.959 . S
C738 C736 1.561 . S
C739 C736 1.526 . S
C739 C740 1.396 . S
C739 C744 1.390 . S
C740 C734 1.465 . S
C740 C739 1.396 . S
C740 C741 1.399 . S
C741 H727 0.929 . S
C741 C740 1.399 . S
C741 C742 1.385 . S
C742 H728 0.931 . S
C742 C741 1.385 . S
C742 C743 1.389 . S
C743 C742 1.389 . S
C743 C744 1.387 . S
C744 H729 0.930 . S
C744 C739 1.390 . S
C744 C743 1.387 . S
H745 C757 0.930 . S
H746 C759 0.930 . S
H747 C760 0.930 . S
H748 C764 0.959 . S
H749 C764 0.959 . S
H750 C764 0.961 . S
H751 C765 0.960 . S
H752 C765 0.961 . S
H753 C765 0.959 . S
H754 C768 0.929 . S
H755 C769 0.931 . S
H756 C771 0.930 . S
C757 H745 0.930 . S
C757 C758 1.399 . S
C757 C762 1.399 . S
C758 C757 1.399 . S
C758 C759 1.376 . S
C759 H746 0.930 . S
C759 C758 1.376 . S
C759 C760 1.388 . S
C760 H747 0.930 . S
C760 C759 1.388 . S
C760 C761 1.390 . S
C761 C760 1.390 . S
C761 C762 1.394 . S
C761 C767 1.465 . S
C762 C757 1.399 . S
C762 C761 1.394 . S
C762 C763 1.516 . S
C763 C762 1.516 . S
C763 C764 1.502 . S
C763 C765 1.561 . S
C763 C766 1.526 . S
C764 H748 0.959 . S
C764 H749 0.959 . S
C764 H750 0.961 . S
C764 C763 1.502 . S
C765 H751 0.960 . S
C765 H752 0.961 . S
C765 H753 0.959 . S
C765 C763 1.561 . S
C766 C763 1.526 . S
C766 C767 1.396 . S
C766 C771 1.390 . S
C767 C761 1.465 . S
C767 C766 1.396 . S
C767 C768 1.399 . S
C768 H754 0.929 . S
C768 C767 1.399 . S
C768 C769 1.385 . S
C769 H755 0.931 . S
C769 C768 1.385 . S
C769 C770 1.389 . S
C770 C769 1.389 . S
C770 C771 1.387 . S
C771 H756 0.930 . S
C771 C766 1.390 . S
C771 C770 1.387 . S
H772 C784 0.930 . S
H773 C786 0.930 . S
H774 C787 0.930 . S
H775 C791 0.959 . S
H776 C791 0.959 . S
H777 C791 0.961 . S
H778 C792 0.960 . S
H779 C792 0.961 . S
H780 C792 0.959 . S
H781 C795 0.929 . S
H782 C796 0.931 . S
H783 C798 0.930 . S
C784 H772 0.930 . S
C784 C785 1.399 . S
C784 C789 1.399 . S
C785 C784 1.399 . S
C785 C786 1.376 . S
C786 H773 0.930 . S
C786 C785 1.376 . S
C786 C787 1.388 . S
C787 H774 0.930 . S
C787 C786 1.388 . S
C787 C788 1.390 . S
C788 C787 1.390 . S
C788 C789 1.394 . S
C788 C794 1.465 . S
C789 C784 1.399 . S
C789 C788 1.394 . S
C789 C790 1.516 . S
C790 C789 1.516 . S
C790 C791 1.502 . S
C790 C792 1.561 . S
C790 C793 1.526 . S
C791 H775 0.959 . S
C791 H776 0.959 . S
C791 H777 0.961 . S
C791 C790 1.502 . S
C792 H778 0.960 . S
C792 H779 0.961 . S
C792 H780 0.959 . S
C792 C790 1.561 . S
C793 C790 1.526 . S
C793 C794 1.396 . S
C793 C798 1.390 . S
C794 C788 1.465 . S
C794 C793 1.396 . S
C794 C795 1.399 . S
C795 H781 0.929 . S
C795 C794 1.399 . S
C795 C796 1.385 . S
C796 H782 0.931 . S
C796 C795 1.385 . S
C796 C797 1.389 . S
C797 C796 1.389 . S
C797 C798 1.387 . S
C798 H783 0.930 . S
C798 C793 1.390 . S
C798 C797 1.387 . S
H799 C811 0.930 . S
H800 C813 0.930 . S
H801 C814 0.930 . S
H802 C818 0.959 . S
H803 C818 0.959 . S
H804 C818 0.961 . S
H805 C819 0.960 . S
H806 C819 0.961 . S
H807 C819 0.959 . S
H808 C822 0.929 . S
H809 C823 0.931 . S
H810 C825 0.930 . S
C811 H799 0.930 . S
C811 C812 1.399 . S
C811 C816 1.399 . S
C812 C811 1.399 . S
C812 C813 1.376 . S
C813 H800 0.930 . S
C813 C812 1.376 . S
C813 C814 1.388 . S
C814 H801 0.930 . S
C814 C813 1.388 . S
C814 C815 1.390 . S
C815 C814 1.390 . S
C815 C816 1.394 . S
C815 C821 1.465 . S
C816 C811 1.399 . S
C816 C815 1.394 . S
C816 C817 1.516 . S
C817 C816 1.516 . S
C817 C818 1.502 . S
C817 C819 1.561 . S
C817 C820 1.526 . S
C818 H802 0.959 . S
C818 H803 0.959 . S
C818 H804 0.961 . S
C818 C817 1.502 . S
C819 H805 0.960 . S
C819 H806 0.961 . S
C819 H807 0.959 . S
C819 C817 1.561 . S
C820 C817 1.526 . S
C820 C821 1.396 . S
C820 C825 1.390 . S
C821 C815 1.465 . S
C821 C820 1.396 . S
C821 C822 1.399 . S
C822 H808 0.929 . S
C822 C821 1.399 . S
C822 C823 1.385 . S
C823 H809 0.931 . S
C823 C822 1.385 . S
C823 C824 1.389 . S
C824 C823 1.389 . S
C824 C825 1.387 . S
C825 H810 0.930 . S
C825 C820 1.390 . S
C825 C824 1.387 . S
H826 C838 0.930 . S
H827 C840 0.930 . S
H828 C841 0.930 . S
H829 C845 0.959 . S
H830 C845 0.959 . S
H831 C845 0.961 . S
H832 C846 0.960 . S
H833 C846 0.961 . S
H834 C846 0.959 . S
H835 C849 0.929 . S
H836 C850 0.931 . S
H837 C852 0.930 . S
C838 H826 0.930 . S
C838 C839 1.399 . S
C838 C843 1.399 . S
C839 C838 1.399 . S
C839 C840 1.376 . S
C840 H827 0.930 . S
C840 C839 1.376 . S
C840 C841 1.388 . S
C841 H828 0.930 . S
C841 C840 1.388 . S
C841 C842 1.390 . S
C842 C841 1.390 . S
C842 C843 1.394 . S
C842 C848 1.465 . S
C843 C838 1.399 . S
C843 C842 1.394 . S
C843 C844 1.516 . S
C844 C843 1.516 . S
C844 C845 1.502 . S
C844 C846 1.561 . S
C844 C847 1.526 . S
C845 H829 0.959 . S
C845 H830 0.959 . S
C845 H831 0.961 . S
C845 C844 1.502 . S
C846 H832 0.960 . S
C846 H833 0.961 . S
C846 H834 0.959 . S
C846 C844 1.561 . S
C847 C844 1.526 . S
C847 C848 1.396 . S
C847 C852 1.390 . S
C848 C842 1.465 . S
C848 C847 1.396 . S
C848 C849 1.399 . S
C849 H835 0.929 . S
C849 C848 1.399 . S
C849 C850 1.385 . S
C850 H836 0.931 . S
C850 C849 1.385 . S
C850 C851 1.389 . S
C851 C850 1.389 . S
C851 C852 1.387 . S
C852 H837 0.930 . S
C852 C847 1.390 . S
C852 C851 1.387 . S
H853 C865 0.930 . S
H854 C867 0.930 . S
H855 C868 0.930 . S
H856 C872 0.959 . S
H857 C872 0.959 . S
H858 C872 0.961 . S
H859 C873 0.960 . S
H860 C873 0.961 . S
H861 C873 0.959 . S
H862 C876 0.929 . S
H863 C877 0.931 . S
H864 C879 0.930 . S
C865 H853 0.930 . S
C865 C866 1.399 . S
C865 C870 1.399 . S
C866 C865 1.399 . S
C866 C867 1.376 . S
C867 H854 0.930 . S
C867 C866 1.376 . S
C867 C868 1.388 . S
C868 H855 0.930 . S
C868 C867 1.388 . S
C868 C869 1.390 . S
C869 C868 1.390 . S
C869 C870 1.394 . S
C869 C875 1.465 . S
C870 C865 1.399 . S
C870 C869 1.394 . S
C870 C871 1.516 . S
C871 C870 1.516 . S
C871 C872 1.502 . S
C871 C873 1.561 . S
C871 C874 1.526 . S
C872 H856 0.959 . S
C872 H857 0.959 . S
C872 H858 0.961 . S
C872 C871 1.502 . S
C873 H859 0.960 . S
C873 H860 0.961 . S
C873 H861 0.959 . S
C873 C871 1.561 . S
C874 C871 1.526 . S
C874 C875 1.396 . S
C874 C879 1.390 . S
C875 C869 1.465 . S
C875 C874 1.396 . S
C875 C876 1.399 . S
C876 H862 0.929 . S
C876 C875 1.399 . S
C876 C877 1.385 . S
C877 H863 0.931 . S
C877 C876 1.385 . S
C877 C878 1.389 . S
C878 C877 1.389 . S
C878 C879 1.387 . S
C879 H864 0.930 . S
C879 C874 1.390 . S
C879 C878 1.387 . S
H880 C892 0.930 . S
H881 C894 0.930 . S
H882 C895 0.930 . S
H883 C899 0.959 . S
H884 C899 0.959 . S
H885 C899 0.961 . S
H886 C900 0.960 . S
H887 C900 0.961 . S
H888 C900 0.959 . S
H889 C903 0.929 . S
H890 C904 0.931 . S
H891 C906 0.930 . S
C892 H880 0.930 . S
C892 C893 1.399 . S
C892 C897 1.399 . S
C893 C892 1.399 . S
C893 C894 1.376 . S
C894 H881 0.930 . S
C894 C893 1.376 . S
C894 C895 1.388 . S
C895 H882 0.930 . S
C895 C894 1.388 . S
C895 C896 1.390 . S
C896 C895 1.390 . S
C896 C897 1.394 . S
C896 C902 1.465 . S
C897 C892 1.399 . S
C897 C896 1.394 . S
C897 C898 1.516 . S
C898 C897 1.516 . S
C898 C899 1.502 . S
C898 C900 1.561 . S
C898 C901 1.526 . S
C899 H883 0.959 . S
C899 H884 0.959 . S
C899 H885 0.961 . S
C899 C898 1.502 . S
C900 H886 0.960 . S
C900 H887 0.961 . S
C900 H888 0.959 . S
C900 C898 1.561 . S
C901 C898 1.526 . S
C901 C902 1.396 . S
C901 C906 1.390 . S
C902 C896 1.465 . S
C902 C901 1.396 . S
C902 C903 1.399 . S
C903 H889 0.929 . S
C903 C902 1.399 . S
C903 C904 1.385 . S
C904 H890 0.931 . S
C904 C903 1.385 . S
C904 C905 1.389 . S
C905 C904 1.389 . S
C905 C906 1.387 . S
C906 H891 0.930 . S
C906 C901 1.390 . S
C906 C905 1.387 . S
H907 C919 0.930 . S
H908 C921 0.930 . S
H909 C922 0.930 . S
H910 C926 0.959 . S
H911 C926 0.959 . S
H912 C926 0.961 . S
H913 C927 0.960 . S
H914 C927 0.961 . S
H915 C927 0.959 . S
H916 C930 0.929 . S
H917 C931 0.931 . S
H918 C933 0.930 . S
C919 H907 0.930 . S
C919 C920 1.399 . S
C919 C924 1.399 . S
C920 C919 1.399 . S
C920 C921 1.376 . S
C921 H908 0.930 . S
C921 C920 1.376 . S
C921 C922 1.388 . S
C922 H909 0.930 . S
C922 C921 1.388 . S
C922 C923 1.390 . S
C923 C922 1.390 . S
C923 C924 1.394 . S
C923 C929 1.465 . S
C924 C919 1.399 . S
C924 C923 1.394 . S
C924 C925 1.516 . S
C925 C924 1.516 . S
C925 C926 1.502 . S
C925 C927 1.561 . S
C925 C928 1.526 . S
C926 H910 0.959 . S
C926 H911 0.959 . S
C926 H912 0.961 . S
C926 C925 1.502 . S
C927 H913 0.960 . S
C927 H914 0.961 . S
C927 H915 0.959 . S
C927 C925 1.561 . S
C928 C925 1.526 . S
C928 C929 1.396 . S
C928 C933 1.390 . S
C929 C923 1.465 . S
C929 C928 1.396 . S
C929 C930 1.399 . S
C930 H916 0.929 . S
C930 C929 1.399 . S
C930 C931 1.385 . S
C931 H917 0.931 . S
C931 C930 1.385 . S
C931 C932 1.389 . S
C932 C931 1.389 . S
C932 C933 1.387 . S
C933 H918 0.930 . S
C933 C928 1.390 . S
C933 C932 1.387 . S
H934 C946 0.930 . S
H935 C948 0.930 . S
H936 C949 0.930 . S
H937 C953 0.959 . S
H938 C953 0.959 . S
H939 C953 0.961 . S
H940 C954 0.960 . S
H941 C954 0.961 1_556 S
H942 C954 0.959 . S
H943 C957 0.929 . S
H944 C958 0.931 . S
H945 C960 0.930 . S
C946 H934 0.930 . S
C946 C947 1.399 . S
C946 C951 1.399 . S
C947 C946 1.399 . S
C947 C948 1.376 . S
C948 H935 0.930 . S
C948 C947 1.376 . S
C948 C949 1.388 . S
C949 H936 0.930 . S
C949 C948 1.388 . S
C949 C950 1.390 . S
C950 C949 1.390 . S
C950 C951 1.394 . S
C950 C956 1.465 . S
C951 C946 1.399 . S
C951 C950 1.394 . S
C951 C952 1.516 . S
C952 C951 1.516 . S
C952 C953 1.502 . S
C952 C954 1.561 . S
C952 C955 1.526 . S
C953 H937 0.959 . S
C953 H938 0.959 . S
C953 H939 0.961 . S
C953 C952 1.502 . S
C954 H940 0.960 . S
C954 H941 0.961 1_554 S
C954 H942 0.959 . S
C954 C952 1.561 . S
C955 C952 1.526 . S
C955 C956 1.396 . S
C955 C960 1.390 . S
C956 C950 1.465 . S
C956 C955 1.396 . S
C956 C957 1.399 . S
C957 H943 0.929 . S
C957 C956 1.399 . S
C957 C958 1.385 . S
C958 H944 0.931 . S
C958 C957 1.385 . S
C958 C959 1.389 . S
C959 C958 1.389 . S
C959 C960 1.387 . S
C960 H945 0.930 . S
C960 C955 1.390 . S
C960 C959 1.387 . S
H961 C973 0.930 . S
H962 C975 0.930 . S
H963 C976 0.930 . S
H964 C980 0.959 . S
H965 C980 0.959 . S
H966 C980 0.961 . S
H967 C981 0.960 . S
H968 C981 0.961 . S
H969 C981 0.959 . S
H970 C984 0.929 . S
H971 C985 0.931 . S
H972 C987 0.930 . S
C973 H961 0.930 . S
C973 C974 1.399 . S
C973 C978 1.399 . S
C974 C973 1.399 . S
C974 C975 1.376 . S
C975 H962 0.930 . S
C975 C974 1.376 . S
C975 C976 1.388 . S
C976 H963 0.930 . S
C976 C975 1.388 . S
C976 C977 1.390 . S
C977 C976 1.390 . S
C977 C978 1.394 . S
C977 C983 1.465 . S
C978 C973 1.399 . S
C978 C977 1.394 . S
C978 C979 1.516 . S
C979 C978 1.516 . S
C979 C980 1.502 . S
C979 C981 1.561 . S
C979 C982 1.526 . S
C980 H964 0.959 . S
C980 H965 0.959 . S
C980 H966 0.961 . S
C980 C979 1.502 . S
C981 H967 0.960 . S
C981 H968 0.961 . S
C981 H969 0.959 . S
C981 C979 1.561 . S
C982 C979 1.526 . S
C982 C983 1.396 . S
C982 C987 1.390 . S
C983 C977 1.465 . S
C983 C982 1.396 . S
C983 C984 1.399 . S
C984 H970 0.929 . S
C984 C983 1.399 . S
C984 C985 1.385 . S
C985 H971 0.931 . S
C985 C984 1.385 . S
C985 C986 1.389 . S
C986 C985 1.389 . S
C986 C987 1.387 . S
C987 H972 0.930 . S
C987 C982 1.390 . S
C987 C986 1.387 . S
H988 C1000 0.930 . S
H989 C1002 0.930 . S
H990 C1003 0.930 . S
H991 C1007 0.959 . S
H992 C1007 0.959 . S
H993 C1007 0.961 . S
H994 C1008 0.960 . S
H995 C1008 0.961 . S
H996 C1008 0.959 . S
H997 C1011 0.929 . S
H998 C1012 0.931 . S
H999 C1014 0.930 . S
C1000 H988 0.930 . S
C1000 C1001 1.399 . S
C1000 C1005 1.399 . S
C1001 C1000 1.399 . S
C1001 C1002 1.376 . S
C1002 H989 0.930 . S
C1002 C1001 1.376 . S
C1002 C1003 1.388 . S
C1003 H990 0.930 . S
C1003 C1002 1.388 . S
C1003 C1004 1.390 . S
C1004 C1003 1.390 . S
C1004 C1005 1.394 . S
C1004 C1010 1.465 . S
C1005 C1000 1.399 . S
C1005 C1004 1.394 . S
C1005 C1006 1.516 . S
C1006 C1005 1.516 . S
C1006 C1007 1.502 . S
C1006 C1008 1.561 . S
C1006 C1009 1.526 . S
C1007 H991 0.959 . S
C1007 H992 0.959 . S
C1007 H993 0.961 . S
C1007 C1006 1.502 . S
C1008 H994 0.960 . S
C1008 H995 0.961 . S
C1008 H996 0.959 . S
C1008 C1006 1.561 . S
C1009 C1006 1.526 . S
C1009 C1010 1.396 . S
C1009 C1014 1.390 . S
C1010 C1004 1.465 . S
C1010 C1009 1.396 . S
C1010 C1011 1.399 . S
C1011 H997 0.929 . S
C1011 C1010 1.399 . S
C1011 C1012 1.385 . S
C1012 H998 0.931 . S
C1012 C1011 1.385 . S
C1012 C1013 1.389 . S
C1013 C1012 1.389 . S
C1013 C1014 1.387 . S
C1014 H999 0.930 . S
C1014 C1009 1.390 . S
C1014 C1013 1.387 . S
H1015 C1027 0.930 . S
H1016 C1029 0.930 . S
H1017 C1030 0.930 . S
H1018 C1034 0.959 . S
H1019 C1034 0.959 . S
H1020 C1034 0.961 . S
H1021 C1035 0.960 . S
H1022 C1035 0.961 1_556 S
H1023 C1035 0.959 . S
H1024 C1038 0.929 . S
H1025 C1039 0.931 . S
H1026 C1041 0.930 . S
C1027 H1015 0.930 . S
C1027 C1028 1.399 . S
C1027 C1032 1.399 . S
C1028 C1027 1.399 . S
C1028 C1029 1.376 . S
C1029 H1016 0.930 . S
C1029 C1028 1.376 . S
C1029 C1030 1.388 . S
C1030 H1017 0.930 . S
C1030 C1029 1.388 . S
C1030 C1031 1.390 . S
C1031 C1030 1.390 . S
C1031 C1032 1.394 . S
C1031 C1037 1.465 . S
C1032 C1027 1.399 . S
C1032 C1031 1.394 . S
C1032 C1033 1.516 . S
C1033 C1032 1.516 . S
C1033 C1034 1.502 . S
C1033 C1035 1.561 . S
C1033 C1036 1.526 . S
C1034 H1018 0.959 . S
C1034 H1019 0.959 . S
C1034 H1020 0.961 . S
C1034 C1033 1.502 . S
C1035 H1021 0.960 . S
C1035 H1022 0.961 1_554 S
C1035 H1023 0.959 . S
C1035 C1033 1.561 . S
C1036 C1033 1.526 . S
C1036 C1037 1.396 . S
C1036 C1041 1.390 . S
C1037 C1031 1.465 . S
C1037 C1036 1.396 . S
C1037 C1038 1.399 . S
C1038 H1024 0.929 . S
C1038 C1037 1.399 . S
C1038 C1039 1.385 . S
C1039 H1025 0.931 . S
C1039 C1038 1.385 . S
C1039 C1040 1.389 . S
C1040 C1039 1.389 . S
C1040 C1041 1.387 . S
C1041 H1026 0.930 . S
C1041 C1036 1.390 . S
C1041 C1040 1.387 . S
H1042 C1054 0.930 . S
H1043 C1056 0.930 . S
H1044 C1057 0.930 . S
H1045 C1061 0.959 . S
H1046 C1061 0.959 1_655 S
H1047 C1061 0.961 . S
H1048 C1062 0.960 . S
H1049 C1062 0.961 . S
H1050 C1062 0.959 . S
H1051 C1065 0.929 . S
H1052 C1066 0.931 . S
H1053 C1068 0.930 . S
C1054 H1042 0.930 . S
C1054 C1055 1.399 . S
C1054 C1059 1.399 . S
C1055 C1054 1.399 . S
C1055 C1056 1.376 . S
C1056 H1043 0.930 . S
C1056 C1055 1.376 . S
C1056 C1057 1.388 . S
C1057 H1044 0.930 . S
C1057 C1056 1.388 . S
C1057 C1058 1.390 . S
C1058 C1057 1.390 . S
C1058 C1059 1.394 . S
C1058 C1064 1.465 . S
C1059 C1054 1.399 . S
C1059 C1058 1.394 . S
C1059 C1060 1.516 . S
C1060 C1059 1.516 . S
C1060 C1061 1.502 . S
C1060 C1062 1.561 . S
C1060 C1063 1.526 . S
C1061 H1045 0.959 . S
C1061 H1046 0.959 1_455 S
C1061 H1047 0.961 . S
C1061 C1060 1.502 . S
C1062 H1048 0.960 . S
C1062 H1049 0.961 . S
C1062 H1050 0.959 . S
C1062 C1060 1.561 . S
C1063 C1060 1.526 . S
C1063 C1064 1.396 . S
C1063 C1068 1.390 . S
C1064 C1058 1.465 . S
C1064 C1063 1.396 . S
C1064 C1065 1.399 . S
C1065 H1051 0.929 . S
C1065 C1064 1.399 . S
C1065 C1066 1.385 . S
C1066 H1052 0.931 . S
C1066 C1065 1.385 . S
C1066 C1067 1.389 . S
C1067 C1066 1.389 . S
C1067 C1068 1.387 . S
C1068 H1053 0.930 . S
C1068 C1063 1.390 . S
C1068 C1067 1.387 . S
H1069 C1081 0.930 . S
H1070 C1083 0.930 . S
H1071 C1084 0.930 . S
H1072 C1088 0.959 . S
H1073 C1088 0.959 . S
H1074 C1088 0.961 . S
H1075 C1089 0.960 . S
H1076 C1089 0.961 . S
H1077 C1089 0.959 . S
H1078 C1092 0.929 . S
H1079 C1093 0.931 . S
H1080 C1095 0.930 . S
C1081 H1069 0.930 . S
C1081 C1082 1.399 . S
C1081 C1086 1.399 . S
C1082 C1081 1.399 . S
C1082 C1083 1.376 . S
C1083 H1070 0.930 . S
C1083 C1082 1.376 . S
C1083 C1084 1.388 . S
C1084 H1071 0.930 . S
C1084 C1083 1.388 . S
C1084 C1085 1.390 . S
C1085 C1084 1.390 . S
C1085 C1086 1.394 . S
C1085 C1091 1.465 . S
C1086 C1081 1.399 . S
C1086 C1085 1.394 . S
C1086 C1087 1.516 . S
C1087 C1086 1.516 . S
C1087 C1088 1.502 . S
C1087 C1089 1.561 . S
C1087 C1090 1.526 . S
C1088 H1072 0.959 . S
C1088 H1073 0.959 . S
C1088 H1074 0.961 . S
C1088 C1087 1.502 . S
C1089 H1075 0.960 . S
C1089 H1076 0.961 . S
C1089 H1077 0.959 . S
C1089 C1087 1.561 . S
C1090 C1087 1.526 . S
C1090 C1091 1.396 . S
C1090 C1095 1.390 . S
C1091 C1085 1.465 . S
C1091 C1090 1.396 . S
C1091 C1092 1.399 . S
C1092 H1078 0.929 . S
C1092 C1091 1.399 . S
C1092 C1093 1.385 . S
C1093 H1079 0.931 . S
C1093 C1092 1.385 . S
C1093 C1094 1.389 . S
C1094 C1093 1.389 . S
C1094 C1095 1.387 . S
C1095 H1080 0.930 . S
C1095 C1090 1.390 . S
C1095 C1094 1.387 . S
C461 C1 0.950 . S
C473 C292 0.928 . S
C488 C67 1.207 . S
C500 C353 1.235 . S
C527 C391 2.504 . S
C515 C97 2.519 . S
C542 C133 2.350 . S
C554 C431 2.317 . S
C581 C351 1.286 . S
C569 C25 1.308 . S
C608 C319 2.132 . S
C596 C37 2.056 . S
C635 C428 1.724 . S
C623 C103 1.742 . S
C662 C388 1.855 . S
C650 C109 1.852 . S
C677 C31 1.068 . S
C689 C433 1.154 . S
C716 C348 2.364 . S
C704 C73 2.356 . S
C731 C139 2.188 . S
C743 C290 2.163 . S
C758 C61 1.522 . S
C770 C393 1.569 . S
C797 C313 0.905 . S
C785 C175 0.959 . S
C812 C181 1.213 . S
C824 C332 1.213 . S
C839 C247 2.574 . S
C851 C370 2.482 . S
C866 C277 2.327 . S
C878 C410 2.275 . S
C893 C145 1.188 . S
C905 C330 1.285 . S
C932 C308 2.132 . S
C920 C211 2.088 . S
C959 C439 1.708 . S
C947 C217 1.740 . S
C986 C399 1.845 . S
C974 C283 1.877 . S
C1001 C169 1.003 . S
C1013 C412 1.140 . S
C1040 C359 2.375 . S
C1028 C241 2.384 . S
C1067 C311 2.154 . S
C1055 C253 2.183 . S
C1082 C205 1.532 . S
C1094 C372 1.590 . S
