# Generated by pormake.
# Topology pyr, (3,6)-cn, num edge types: 1
# Building blocks:
#     Node 0, Type 0, BuildingBlock: KAKCAD_clean_linker_0, # of connection points: 3
#     Node 1, Type 0, BuildingBlock: KAKCAD_clean_linker_0, # of connection points: 3
#     Node 2, Type 0, BuildingBlock: KAKCAD_clean_linker_0, # of connection points: 3
#     Node 3, Type 0, BuildingBlock: KAKCAD_clean_linker_0, # of connection points: 3
#     Node 4, Type 0, BuildingBlock: KAKCAD_clean_linker_0, # of connection points: 3
#     Node 5, Type 0, BuildingBlock: KAKCAD_clean_linker_0, # of connection points: 3
#     Node 6, Type 0, BuildingBlock: KAKCAD_clean_linker_0, # of connection points: 3
#     Node 7, Type 0, BuildingBlock: KAKCAD_clean_linker_0, # of connection points: 3
#     Node 8, Type 1, BuildingBlock: BETFEN_clean_sbu_0, # of connection points: 6
#     Node 9, Type 1, BuildingBlock: BETFEN_clean_sbu_0, # of connection points: 6
#     Node 10, Type 1, BuildingBlock: BETFEN_clean_sbu_0, # of connection points: 6
#     Node 11, Type 1, BuildingBlock: BETFEN_clean_sbu_0, # of connection points: 6
#     Edge 12, Type (0, 1), BuildingBlock: OJICUG_clean_linker_0, # of connection points: 2
#     Edge 13, Type (0, 1), BuildingBlock: OJICUG_clean_linker_0, # of connection points: 2
#     Edge 14, Type (0, 1), BuildingBlock: OJICUG_clean_linker_0, # of connection points: 2
#     Edge 15, Type (0, 1), BuildingBlock: OJICUG_clean_linker_0, # of connection points: 2
#     Edge 16, Type (0, 1), BuildingBlock: OJICUG_clean_linker_0, # of connection points: 2
#     Edge 17, Type (0, 1), BuildingBlock: OJICUG_clean_linker_0, # of connection points: 2
#     Edge 18, Type (0, 1), BuildingBlock: OJICUG_clean_linker_0, # of connection points: 2
#     Edge 19, Type (0, 1), BuildingBlock: OJICUG_clean_linker_0, # of connection points: 2
#     Edge 20, Type (0, 1), BuildingBlock: OJICUG_clean_linker_0, # of connection points: 2
#     Edge 21, Type (0, 1), BuildingBlock: OJICUG_clean_linker_0, # of connection points: 2
#     Edge 22, Type (0, 1), BuildingBlock: OJICUG_clean_linker_0, # of connection points: 2
#     Edge 23, Type (0, 1), BuildingBlock: OJICUG_clean_linker_0, # of connection points: 2
#     Edge 24, Type (0, 1), BuildingBlock: OJICUG_clean_linker_0, # of connection points: 2
#     Edge 25, Type (0, 1), BuildingBlock: OJICUG_clean_linker_0, # of connection points: 2
#     Edge 26, Type (0, 1), BuildingBlock: OJICUG_clean_linker_0, # of connection points: 2
#     Edge 27, Type (0, 1), BuildingBlock: OJICUG_clean_linker_0, # of connection points: 2
#     Edge 28, Type (0, 1), BuildingBlock: OJICUG_clean_linker_0, # of connection points: 2
#     Edge 29, Type (0, 1), BuildingBlock: OJICUG_clean_linker_0, # of connection points: 2
#     Edge 30, Type (0, 1), BuildingBlock: OJICUG_clean_linker_0, # of connection points: 2
#     Edge 31, Type (0, 1), BuildingBlock: OJICUG_clean_linker_0, # of connection points: 2
#     Edge 32, Type (0, 1), BuildingBlock: OJICUG_clean_linker_0, # of connection points: 2
#     Edge 33, Type (0, 1), BuildingBlock: OJICUG_clean_linker_0, # of connection points: 2
#     Edge 34, Type (0, 1), BuildingBlock: OJICUG_clean_linker_0, # of connection points: 2
#     Edge 35, Type (0, 1), BuildingBlock: OJICUG_clean_linker_0, # of connection points: 2
# Relax obj value: 0.169
# Max RMSD: 0.259
# Mean RMSD: 0.125
data_MOF--net-pyr--node1-BETFEN_clean_sbu_0--node2-KAKCAD_clean_linker_0--edge1-OJICUG_clean_linker_0
_symmetry_space_group_name_H-M    P1
_symmetry_Int_Tables_number       1
_symmetry_cell_setting            triclinic
loop_
_symmetry_equiv_pos_as_xyz
'x, y, z'
_cell_length_a     35.454059
_cell_length_b     39.348275
_cell_length_c     35.782966
_cell_angle_alpha  91.609747
_cell_angle_beta   99.110806
_cell_angle_gamma 110.27472
loop_
_atom_site_label
_atom_site_type_symbol
_atom_site_fract_x
_atom_site_fract_y
_atom_site_fract_z
_atom_type_partial_charge
C0 C 0.32008 0.33897 0.42379 0.0
C1 C 0.32724 0.30946 0.44065 0.0
C2 C 0.34628 0.35962 0.40098 0.0
C3 C 0.38101 0.3519 0.39518 0.0
C4 C 0.39137 0.32607 0.41692 0.0
C5 C 0.36452 0.30474 0.43903 0.0
C6 C 0.40042 0.36486 0.36147 0.0
C7 C 0.39831 0.3968 0.34599 0.0
C8 C 0.40087 0.40198 0.30755 0.0
C9 C 0.41281 0.3778 0.28665 0.0
C10 C 0.41867 0.34741 0.30256 0.0
C11 C 0.41214 0.34106 0.3398 0.0
C12 C 0.42485 0.31901 0.27854 0.0
C13 C 0.40206 0.30785 0.24158 0.0
C14 C 0.45114 0.30095 0.29328 0.0
C15 C 0.45373 0.27177 0.27194 0.0
C16 C 0.43004 0.26001 0.23539 0.0
C17 C 0.38232 0.42674 0.28713 0.0
C18 C 0.34831 0.43206 0.29858 0.0
C19 C 0.39315 0.43974 0.25252 0.0
C20 C 0.36788 0.45334 0.22815 0.0
C21 C 0.33237 0.4557 0.23868 0.0
C22 C 0.32397 0.44673 0.2748 0.0
C23 C 0.40474 0.27882 0.22024 0.0
H24 H 0.2924 0.34429 0.42563 0.0
H25 H 0.33678 0.37922 0.38525 0.0
H26 H 0.41853 0.32012 0.4145 0.0
H27 H 0.37147 0.28259 0.45204 0.0
H28 H 0.39089 0.41601 0.36292 0.0
H29 H 0.41226 0.31554 0.35021 0.0
H30 H 0.41476 0.38088 0.25701 0.0
H31 H 0.38096 0.32069 0.22952 0.0
H32 H 0.46918 0.309 0.32162 0.0
H33 H 0.47331 0.25771 0.28456 0.0
H34 H 0.33802 0.42217 0.32443 0.0
H35 H 0.41976 0.43743 0.24308 0.0
H36 H 0.38656 0.27083 0.19197 0.0
H37 H 0.29648 0.44806 0.28335 0.0
H38 H 0.375 0.46041 0.2004 0.0
C39 C 0.32859 0.87331 0.83886 0.0
C40 C 0.36926 0.87532 0.84957 0.0
C41 C 0.30679 0.85855 0.80252 0.0
C42 C 0.32544 0.84612 0.77591 0.0
C43 C 0.36511 0.8458 0.78775 0.0
C44 C 0.38645 0.85972 0.82424 0.0
C45 C 0.30596 0.83737 0.73507 0.0
C46 C 0.28363 0.85774 0.71759 0.0
C47 C 0.27064 0.85383 0.67799 0.0
C48 C 0.28087 0.82957 0.6555 0.0
C49 C 0.3027 0.80871 0.67272 0.0
C50 C 0.31385 0.81187 0.71236 0.0
C51 C 0.31953 0.78725 0.65028 0.0
C52 C 0.31166 0.75048 0.65596 0.0
C53 C 0.35038 0.80533 0.63001 0.0
C54 C 0.37519 0.78769 0.61828 0.0
C55 C 0.36911 0.75159 0.62625 0.0
C56 C 0.24714 0.87588 0.66068 0.0
C57 C 0.21094 0.85947 0.63416 0.0
C58 C 0.25917 0.91301 0.67279 0.0
C59 C 0.23467 0.93295 0.65991 0.0
C60 C 0.19756 0.91619 0.63464 0.0
C61 C 0.18631 0.87941 0.62135 0.0
C62 C 0.33603 0.73268 0.64375 0.0
H63 H 0.3143 0.88499 0.85766 0.0
H64 H 0.27591 0.85833 0.79483 0.0
H65 H 0.38093 0.83685 0.76829 0.0
H66 H 0.41731 0.85985 0.83193 0.0
H67 H 0.27726 0.8776 0.73462 0.0
H68 H 0.33089 0.79575 0.72528 0.0
H69 H 0.27277 0.82753 0.62479 0.0
H70 H 0.28834 0.73624 0.672 0.0
H71 H 0.35735 0.83389 0.62588 0.0
H72 H 0.40029 0.80276 0.60456 0.0
H73 H 0.2009 0.8309 0.62442 0.0
H74 H 0.28723 0.9265 0.69286 0.0
H75 H 0.3308 0.70492 0.65047 0.0
H76 H 0.1582 0.86591 0.60136 0.0
H77 H 0.24416 0.96117 0.67076 0.0
C78 C 0.76388 0.42319 0.9252 0.0
C79 C 0.79591 0.40993 0.92526 0.0
C80 C 0.72553 0.40469 0.9027 0.0
C81 C 0.71849 0.37223 0.88072 0.0
C82 C 0.75049 0.35894 0.8809 0.0
C83 C 0.78904 0.37788 0.90265 0.0
C84 C 0.6775 0.35156 0.85845 0.0
C85 C 0.6599 0.36694 0.82905 0.0
C86 C 0.62103 0.3475 0.80728 0.0
C87 C 0.59944 0.31169 0.81625 0.0
C88 C 0.61713 0.29593 0.84629 0.0
C89 C 0.65624 0.3163 0.86671 0.0
C90 C 0.5962 0.25885 0.85844 0.0
C91 C 0.55819 0.24961 0.87032 0.0
C92 C 0.61796 0.235 0.86485 0.0
C93 C 0.60358 0.20416 0.88461 0.0
C94 C 0.5668 0.19593 0.89862 0.0
C95 C 0.60512 0.36571 0.77522 0.0
C96 C 0.61065 0.40287 0.78067 0.0
C97 C 0.58993 0.34836 0.73812 0.0
C98 C 0.58287 0.36825 0.70717 0.0
C99 C 0.59116 0.406 0.71257 0.0
C100 C 0.60404 0.42266 0.74996 0.0
C101 C 0.54363 0.2185 0.89011 0.0
H102 H 0.76861 0.44791 0.9424 0.0
H103 H 0.70114 0.41526 0.90304 0.0
H104 H 0.74564 0.33395 0.86413 0.0
H105 H 0.8133 0.36711 0.90243 0.0
H106 H 0.67733 0.39402 0.82248 0.0
H107 H 0.67004 0.30497 0.89003 0.0
H108 H 0.56938 0.29633 0.80013 0.0
H109 H 0.54091 0.26757 0.86637 0.0
H110 H 0.64727 0.24116 0.85598 0.0
H111 H 0.62187 0.18713 0.88961 0.0
H112 H 0.62159 0.41713 0.80883 0.0
H113 H 0.58555 0.31991 0.73272 0.0
H114 H 0.51519 0.2132 0.90039 0.0
H115 H 0.6097 0.45137 0.75549 0.0
H116 H 0.57274 0.35443 0.67882 0.0
C117 C 0.91458 0.58757 0.24705 0.0
C118 C 0.928 0.60806 0.21671 0.0
C119 C 0.90025 0.60176 0.27641 0.0
C120 C 0.89886 0.63724 0.27704 0.0
C121 C 0.91208 0.65767 0.24661 0.0
C122 C 0.92618 0.6434 0.21713 0.0
C123 C 0.8844 0.65297 0.30931 0.0
C124 C 0.85257 0.63058 0.32736 0.0
C125 C 0.84007 0.64493 0.35809 0.0
C126 C 0.85913 0.68218 0.37001 0.0
C127 C 0.88996 0.70563 0.3527 0.0
C128 C 0.90271 0.6906 0.32261 0.0
C129 C 0.90851 0.74544 0.36762 0.0
C130 C 0.88406 0.76328 0.38072 0.0
C131 C 0.95074 0.76522 0.372 0.0
C132 C 0.96797 0.80083 0.39036 0.0
C133 C 0.94368 0.81792 0.40534 0.0
C134 C 0.80721 0.62243 0.37887 0.0
C135 C 0.76825 0.59976 0.35965 0.0
C136 C 0.81322 0.62744 0.41887 0.0
C137 C 0.78104 0.61245 0.43877 0.0
C138 C 0.74147 0.59147 0.41959 0.0
C139 C 0.73585 0.58442 0.37974 0.0
C140 C 0.90124 0.79848 0.39949 0.0
H141 H 0.91473 0.56016 0.2481 0.0
H142 H 0.89091 0.58492 0.2991 0.0
H143 H 0.91127 0.68485 0.24522 0.0
H144 H 0.93638 0.66056 0.1949 0.0
H145 H 0.83767 0.60198 0.31777 0.0
H146 H 0.92701 0.70827 0.30964 0.0
H147 H 0.84974 0.6931 0.39354 0.0
H148 H 0.85127 0.74971 0.37719 0.0
H149 H 0.97081 0.75279 0.36241 0.0
H150 H 1.00059 0.81475 0.39299 0.0
H151 H 0.76223 0.59539 0.32893 0.0
H152 H 0.84284 0.64412 0.43492 0.0
H153 H 0.88097 0.8098 0.41043 0.0
H154 H 0.70592 0.5684 0.36383 0.0
H155 H 0.78712 0.61786 0.46939 0.0
C156 C 0.70441 0.70808 0.63111 0.0
C157 C 0.71085 0.74466 0.6251 0.0
C158 C 0.67833 0.69025 0.65571 0.0
C159 C 0.65907 0.709 0.67554 0.0
C160 C 0.66265 0.74447 0.66637 0.0
C161 C 0.68792 0.76189 0.64134 0.0
C162 C 0.64219 0.69518 0.71022 0.0
C163 C 0.66196 0.67697 0.73513 0.0
C164 C 0.65523 0.67334 0.77277 0.0
C165 C 0.62848 0.68849 0.7855 0.0
C166 C 0.60912 0.70741 0.76135 0.0
C167 C 0.61334 0.70765 0.72297 0.0
C168 C 0.59447 0.73453 0.77825 0.0
C169 C 0.57474 0.72759 0.80991 0.0
C170 C 0.60699 0.7701 0.76679 0.0
C171 C 0.603 0.79842 0.78808 0.0
C172 C 0.58643 0.79201 0.82138 0.0
C173 C 0.68178 0.65974 0.80021 0.0
C174 C 0.69265 0.63028 0.78926 0.0
C175 C 0.69952 0.67832 0.83644 0.0
C176 C 0.72855 0.66867 0.86042 0.0
C177 C 0.74103 0.64048 0.84868 0.0
C178 C 0.72198 0.6208 0.81318 0.0
C179 C 0.57066 0.75613 0.83127 0.0
H180 H 0.72124 0.69392 0.61845 0.0
H181 H 0.6754 0.66257 0.66103 0.0
H182 H 0.64911 0.76044 0.68099 0.0
H183 H 0.69239 0.79017 0.63764 0.0
H184 H 0.68584 0.66888 0.72668 0.0
H185 H 0.59745 0.72136 0.70414 0.0
H186 H 0.62553 0.68822 0.81515 0.0
H187 H 0.56444 0.70049 0.81932 0.0
H188 H 0.62284 0.77686 0.743 0.0
H189 H 0.61486 0.82578 0.77955 0.0
H190 H 0.67935 0.61522 0.76169 0.0
H191 H 0.6925 0.70151 0.84576 0.0
H192 H 0.55759 0.75049 0.85681 0.0
H193 H 0.73101 0.59909 0.80304 0.0
H194 H 0.74206 0.68403 0.88781 0.0
C195 C 0.68554 0.13384 0.26658 0.0
C196 C 0.68404 0.15696 0.23773 0.0
C197 C 0.70981 0.14769 0.30199 0.0
C198 C 0.73269 0.18501 0.30937 0.0
C199 C 0.73169 0.20819 0.28034 0.0
C200 C 0.7078 0.19413 0.2445 0.0
C201 C 0.75515 0.19942 0.3482 0.0
C202 C 0.77958 0.18201 0.36771 0.0
C203 C 0.79545 0.19106 0.40664 0.0
C204 C 0.78718 0.21859 0.42606 0.0
C205 C 0.76324 0.23677 0.40644 0.0
C206 C 0.74787 0.22729 0.36743 0.0
C207 C 0.7493 0.26238 0.42648 0.0
C208 C 0.72764 0.25121 0.45629 0.0
C209 C 0.75091 0.29528 0.41134 0.0
C210 C 0.72859 0.31514 0.42358 0.0
C211 C 0.7039 0.30234 0.451 0.0
C212 C 0.81908 0.17019 0.42639 0.0
C213 C 0.80491 0.13215 0.41911 0.0
C214 C 0.8573 0.18797 0.44961 0.0
C215 C 0.88179 0.16819 0.46357 0.0
C216 C 0.86838 0.13028 0.45467 0.0
C217 C 0.82928 0.11246 0.43295 0.0
C218 C 0.70504 0.271 0.46842 0.0
H219 H 0.66757 0.10503 0.26178 0.0
H220 H 0.70965 0.12934 0.32404 0.0
H221 H 0.7491 0.23709 0.28551 0.0
H222 H 0.70691 0.21233 0.22249 0.0
H223 H 0.78553 0.1607 0.35252 0.0
H224 H 0.7276 0.23976 0.35262 0.0
H225 H 0.79827 0.2251 0.45635 0.0
H226 H 0.72558 0.22573 0.46814 0.0
H227 H 0.76762 0.30456 0.38847 0.0
H228 H 0.72918 0.33966 0.41028 0.0
H229 H 0.77529 0.11766 0.40169 0.0
H230 H 0.86893 0.21726 0.45563 0.0
H231 H 0.68629 0.26035 0.48955 0.0
H232 H 0.81801 0.08341 0.42531 0.0
H233 H 0.91148 0.18265 0.48083 0.0
C234 C 0.26652 0.64296 0.18543 0.0
C235 C 0.26292 0.63338 0.14641 0.0
C236 C 0.30491 0.6604 0.20823 0.0
C237 C 0.34054 0.66923 0.19245 0.0
C238 C 0.33724 0.65906 0.15382 0.0
C239 C 0.29896 0.64103 0.13116 0.0
C240 C 0.38084 0.69107 0.21556 0.0
C241 C 0.39497 0.68011 0.2502 0.0
C242 C 0.43297 0.70105 0.27271 0.0
C243 C 0.45697 0.73403 0.25942 0.0
C244 C 0.44282 0.74536 0.22418 0.0
C245 C 0.40475 0.72342 0.20293 0.0
C246 C 0.46558 0.78 0.20823 0.0
C247 C 0.47917 0.81406 0.22941 0.0
C248 C 0.46744 0.77949 0.16915 0.0
C249 C 0.47938 0.81172 0.15118 0.0
C250 C 0.49062 0.84574 0.17172 0.0
C251 C 0.44628 0.68674 0.3092 0.0
C252 C 0.41722 0.66968 0.33194 0.0
C253 C 0.48582 0.68541 0.31917 0.0
C254 C 0.49496 0.66547 0.34933 0.0
C255 C 0.4647 0.64619 0.36997 0.0
C256 C 0.42613 0.6495 0.36148 0.0
C257 C 0.49176 0.8466 0.21138 0.0
H258 H 0.23967 0.63815 0.19826 0.0
H259 H 0.30668 0.66828 0.2379 0.0
H260 H 0.36437 0.66529 0.1411 0.0
H261 H 0.29773 0.63332 0.10159 0.0
H262 H 0.37644 0.65449 0.25913 0.0
H263 H 0.39288 0.73208 0.17654 0.0
H264 H 0.48619 0.75063 0.27621 0.0
H265 H 0.47783 0.81556 0.25942 0.0
H266 H 0.45774 0.75383 0.15194 0.0
H267 H 0.47906 0.80995 0.12086 0.0
H268 H 0.38673 0.67069 0.32589 0.0
H269 H 0.50897 0.698 0.30236 0.0
H270 H 0.50046 0.87235 0.22814 0.0
H271 H 0.4023 0.63555 0.37712 0.0
H272 H 0.52501 0.66348 0.35513 0.0
C273 C 0.15788 0.24437 0.67941 0.0
C274 C 0.11546 0.2248 0.67361 0.0
C275 C 0.17486 0.28001 0.69708 0.0
C276 C 0.15026 0.29833 0.70897 0.0
C277 C 0.108 0.27856 0.70446 0.0
C278 C 0.09097 0.24246 0.6873 0.0
C279 C 0.16893 0.33835 0.72339 0.0
C280 C 0.20149 0.36106 0.70747 0.0
C281 C 0.2221 0.39798 0.72031 0.0
C282 C 0.20772 0.41334 0.74891 0.0
C283 C 0.17414 0.39179 0.76549 0.0
C284 C 0.15527 0.35415 0.75225 0.0
C285 C 0.15921 0.40823 0.79689 0.0
C286 C 0.15933 0.4442 0.79722 0.0
C287 C 0.14438 0.38811 0.82698 0.0
C288 C 0.13029 0.40316 0.85589 0.0
C289 C 0.13008 0.43903 0.85607 0.0
C290 C 0.2592 0.41873 0.70346 0.0
C291 C 0.28713 0.4018 0.69732 0.0
C292 C 0.26522 0.45319 0.68985 0.0
C293 C 0.29687 0.46909 0.66902 0.0
C294 C 0.32317 0.45087 0.66107 0.0
C295 C 0.31824 0.4174 0.67646 0.0
C296 C 0.14498 0.45919 0.82601 0.0
H297 H 0.17837 0.23273 0.66941 0.0
H298 H 0.20769 0.29344 0.70085 0.0
H299 H 0.08777 0.29127 0.71316 0.0
H300 H 0.05835 0.22858 0.6847 0.0
H301 H 0.21094 0.34991 0.68412 0.0
H302 H 0.12989 0.33708 0.76439 0.0
H303 H 0.22358 0.4417 0.75909 0.0
H304 H 0.17001 0.46086 0.77478 0.0
H305 H 0.14401 0.36057 0.8286 0.0
H306 H 0.1189 0.38623 0.8779 0.0
H307 H 0.28433 0.37569 0.70796 0.0
H308 H 0.24443 0.4671 0.69383 0.0
H309 H 0.14604 0.48695 0.8248 0.0
H310 H 0.33835 0.40287 0.67207 0.0
H311 H 0.29968 0.49497 0.65784 0.0
Pr312 Pr 1.00159 1.00444 0.5625 0.0
Pr313 Pr 0.0597 0.03554 0.52123 0.0
C314 C 0.94804 0.96083 0.60229 0.0
C315 C 0.91652 0.92423 0.59847 0.0
C316 C 0.91225 0.90447 0.63044 0.0
C317 C 0.88078 0.87082 0.62845 0.0
C318 C 0.85282 0.8563 0.59439 0.0
C319 C 0.85797 0.87565 0.56198 0.0
C320 C 0.88971 0.90929 0.56394 0.0
C321 C 0.04252 0.07838 0.59169 0.0
C322 C 0.08911 0.99342 0.5848 0.0
C323 C 0.11233 0.0757 0.47854 0.0
C324 C 0.14113 0.11263 0.47691 0.0
C325 C 0.14812 0.12467 0.44137 0.0
C326 C 0.17676 0.1589 0.43877 0.0
C327 C 0.19903 0.1818 0.47175 0.0
C328 C 0.1917 0.16978 0.50746 0.0
C329 C 0.16278 0.13545 0.51003 0.0
C330 C 1.01793 0.96137 0.49302 0.0
C331 C 0.97428 0.04961 0.50106 0.0
O332 O 0.94006 0.98463 0.58092 0.0
O333 O 0.98588 0.96275 0.60563 0.0
O334 O 0.06046 0.05738 0.58258 0.0
O335 O 1.00351 0.06139 0.58616 0.0
O336 O 0.10306 0.02507 0.57133 0.0
O337 O 0.04944 0.97596 0.57902 0.0
O338 O 0.12238 0.05718 0.50546 0.0
O339 O 0.07352 0.0709 0.4724 0.0
O340 O 1.00057 0.98313 0.50113 0.0
O341 O 0.05708 0.97747 0.50014 0.0
O342 O 0.95966 1.01712 0.51265 0.0
O343 O 1.01405 0.06659 0.50744 0.0
H344 H 0.93265 0.91554 0.6573 0.0
H345 H 0.87732 0.85694 0.6541 0.0
H346 H 0.83708 0.86505 0.5353 0.0
H347 H 0.89274 0.92395 0.53875 0.0
H348 H 0.13184 0.10732 0.41556 0.0
H349 H 0.18217 0.16708 0.41086 0.0
H350 H 0.20822 0.18694 0.53331 0.0
H351 H 0.15763 0.1266 0.53779 0.0
Pr352 Pr 0.48838 0.0285 0.05064 0.0
Pr353 Pr 0.55897 0.02164 1.03091 0.0
C354 C 0.43184 0.03914 0.087 0.0
C355 C 0.43087 0.07119 0.10812 0.0
C356 C 0.46222 0.10495 0.10876 0.0
C357 C 0.46215 0.13545 0.12959 0.0
C358 C 0.43077 0.13269 0.15026 0.0
C359 C 0.39942 0.09868 0.14952 0.0
C360 C 0.39951 0.06815 0.12859 0.0
C361 C 0.51677 0.07622 0.99537 0.0
C362 C 0.57856 0.07942 0.10054 0.0
C363 C 0.61407 1.00951 0.99384 0.0
C364 C 0.61214 0.97732 0.97071 0.0
C365 C 0.58703 0.94244 0.97738 0.0
C366 C 0.58273 0.91207 0.95361 0.0
C367 C 0.60306 0.91605 0.92239 0.0
C368 C 0.62807 0.95117 0.9158 0.0
C369 C 0.6326 0.9815 0.93981 0.0
C370 C 0.53048 0.97415 0.0862 0.0
C371 C 0.46914 0.9703 0.98142 0.0
O372 O 0.45897 0.02591 0.10268 0.0
O373 O 0.43067 0.04101 0.05049 0.0
O374 O 0.53924 0.07155 1.0245 0.0
O375 O 0.47897 0.05563 0.99391 0.0
O376 O 0.59408 0.07409 0.07098 0.0
O377 O 0.54002 0.06088 0.10176 0.0
O378 O 0.58938 0.0257 0.97932 0.0
O379 O 0.6148 1.00636 1.03017 0.0
O380 O 0.5082 0.97848 0.05672 0.0
O381 O 0.56809 0.99556 0.08837 0.0
O382 O 0.45377 0.97548 1.01113 0.0
O383 O 0.50737 0.98944 0.97983 0.0
H384 H 0.48679 0.10766 0.09316 0.0
H385 H 0.48643 0.16127 0.12912 0.0
H386 H 0.37512 0.09552 0.16554 0.0
H387 H 0.3753 0.04217 0.1286 0.0
H388 H 0.57036 0.93872 1.00077 0.0
H389 H 0.56363 0.88549 0.95985 0.0
H390 H 0.64356 0.95539 0.89164 0.0
H391 H 0.65146 1.00829 0.93382 0.0
Pr392 Pr 0.55044 0.5586 0.56532 0.0
Pr393 Pr 0.51203 0.4873 0.51297 0.0
C394 C 0.56683 0.62359 0.60342 0.0
C395 C 0.54125 0.6443 0.612 0.0
C396 C 0.55313 0.68139 0.60635 0.0
C397 C 0.52629 0.70003 0.60888 0.0
C398 C 0.4871 0.68181 0.61714 0.0
C399 C 0.47618 0.64504 0.62451 0.0
C400 C 0.50288 0.62646 0.62178 0.0
C401 C 0.57353 0.5013 0.5938 0.0
C402 C 0.45431 0.50244 0.57107 0.0
C403 C 0.49843 0.41901 0.48505 0.0
C404 C 0.52555 0.39815 0.48391 0.0
C405 C 0.5172 0.37141 0.45403 0.0
C406 C 0.54526 0.35441 0.45029 0.0
C407 C 0.58235 0.3641 0.47628 0.0
C408 C 0.59006 0.39029 0.50681 0.0
C409 C 0.56197 0.40727 0.51051 0.0
C410 C 0.49028 0.54033 0.47295 0.0
C411 C 0.6048 0.54488 0.50394 0.0
O412 O 0.56919 0.61988 0.56755 0.0
O413 O 0.56255 0.59372 0.62025 0.0
O414 O 0.5384 0.49887 0.57714 0.0
O415 O 0.59864 0.5348 0.59589 0.0
O416 O 0.45757 0.47883 0.5458 0.0
O417 O 0.48343 0.53496 0.5805 0.0
O418 O 0.49161 0.42669 0.51856 0.0
O419 O 0.50545 0.44653 0.46427 0.0
O420 O 0.51154 0.54562 0.50594 0.0
O421 O 0.47608 0.50596 0.46139 0.0
O422 O 0.59796 0.57003 0.52412 0.0
O423 O 0.58022 0.51043 0.50132 0.0
H424 H 0.58257 0.6956 0.59862 0.0
H425 H 0.53569 0.72829 0.60293 0.0
H426 H 0.44672 0.63038 0.63193 0.0
H427 H 0.49301 0.59786 0.62634 0.0
H428 H 0.48951 0.36442 0.43298 0.0
H429 H 0.53819 0.33404 0.42671 0.0
H430 H 0.6185 0.39871 0.52701 0.0
H431 H 0.56929 0.42833 0.53347 0.0
Pr432 Pr 1.02243 0.55227 1.01013 0.0
Pr433 Pr 0.03477 0.49677 0.06053 0.0
C434 C 0.99439 0.59573 0.96557 0.0
C435 C 0.9568 0.60359 0.95461 0.0
C436 C 0.95808 0.63357 0.93407 0.0
C437 C 0.92216 0.63987 0.92051 0.0
C438 C 0.88421 0.61623 0.92727 0.0
C439 C 0.88322 0.58655 0.94867 0.0
C440 C 0.91928 0.58029 0.96228 0.0
C441 C 0.10227 0.57318 0.05116 0.0
C442 C 0.99297 0.55025 0.09572 0.0
C443 C 0.06522 0.45371 0.10334 0.0
C444 C 0.1068 0.45409 0.11601 0.0
C445 C 0.11306 0.42497 0.13422 0.0
C446 C 0.15273 0.42682 0.14904 0.0
C447 C 0.18647 0.4581 0.14637 0.0
C448 C 0.18017 0.48686 0.12729 0.0
C449 C 0.14059 0.48456 0.11165 0.0
C450 C 0.95512 0.47593 1.01933 0.0
C451 C 0.06563 0.4996 0.97548 0.0
O452 O 0.99278 0.5635 0.95369 0.0
O453 O 1.01413 0.60624 1.00039 0.0
O454 O 0.07021 0.55784 0.06418 0.0
O455 O 0.09382 0.58023 1.01628 0.0
O456 O 1.01569 0.53025 0.10504 0.0
O457 O 0.98593 0.55772 0.05984 0.0
O458 O 0.05762 0.48108 0.11755 0.0
O459 O 0.05068 0.44586 0.06703 0.0
O460 O 0.9873 0.49095 1.00643 0.0
O461 O 0.96332 0.46885 0.05423 0.0
O462 O 0.04348 0.52002 0.96598 0.0
O463 O 0.07185 0.49177 1.01127 0.0
H464 H 0.98678 0.65165 0.92769 0.0
H465 H 0.92402 0.66263 0.90363 0.0
H466 H 0.85458 0.56806 0.9547 0.0
H467 H 0.91782 0.55693 0.97813 0.0
H468 H 0.08731 0.40121 0.13769 0.0
H469 H 0.157 0.40443 0.16386 0.0
H470 H 0.20579 0.51112 0.12477 0.0
H471 H 0.13616 0.50682 0.09681 0.0
C472 C 0.3008 0.25997 0.48364 0.0
C473 C 0.29332 0.28042 0.45357 0.0
H474 H 0.27671 0.21263 0.5131 0.0
C475 C 0.25342 0.27007 0.43247 0.0
H476 H 0.33102 0.26734 0.50069 0.0
C477 C 0.22244 0.23917 0.43984 0.0
C478 C 0.23046 0.21752 0.46829 0.0
H479 H 0.2464 0.28459 0.40868 0.0
H480 H 0.19242 0.23147 0.42227 0.0
C481 C 0.26961 0.22883 0.49097 0.0
C482 C 0.43593 0.91925 0.88429 0.0
C483 C 0.39524 0.89719 0.88486 0.0
H484 H 0.49095 0.95912 0.91417 0.0
C485 C 0.37936 0.89833 0.91831 0.0
H486 H 0.44903 0.91985 0.85885 0.0
C487 C 0.40344 0.92168 0.95013 0.0
C488 C 0.44382 0.94412 0.94904 0.0
H489 H 0.34828 0.88143 0.91982 0.0
H490 H 0.3903 0.92242 0.97535 0.0
C491 C 0.45995 0.94219 0.91601 0.0
C492 C 0.55396 0.41734 0.64995 0.0
C493 C 0.58792 0.42864 0.67982 0.0
H494 H 0.52266 0.43131 0.59952 0.0
C495 C 0.61858 0.46281 0.67904 0.0
H496 H 0.52975 0.3913 0.64954 0.0
C497 C 0.61479 0.4855 0.65017 0.0
C498 C 0.57999 0.47499 0.62133 0.0
H499 H 0.64552 0.47226 0.70111 0.0
H500 H 0.63864 0.51188 0.65122 0.0
C501 C 0.5499 0.44033 0.62126 0.0
C502 C 0.93813 0.60201 0.14736 0.0
C503 C 0.94411 0.5929 0.1853 0.0
H504 H 0.94792 0.59598 0.08994 0.0
C505 C 0.96605 0.56919 0.19287 0.0
H506 H 0.92111 0.61968 0.13968 0.0
C507 C 0.98145 0.55548 0.16407 0.0
C508 C 0.97551 0.56463 0.12624 0.0
H509 H 0.97217 0.56161 0.22141 0.0
H510 H 0.99833 0.53767 0.17169 0.0
C511 C 0.95338 0.58811 0.11847 0.0
C512 C 0.46716 0.22122 0.21347 0.0
C513 C 0.43047 0.22747 0.2136 0.0
H514 H 0.49599 0.18625 0.19383 0.0
C515 C 0.39391 0.20214 0.19298 0.0
H516 H 0.49588 0.2403 0.22884 0.0
C517 C 0.39402 0.17144 0.17256 0.0
C518 C 0.43068 0.16522 0.17232 0.0
H519 H 0.36501 0.20582 0.19292 0.0
H520 H 0.36538 0.15278 0.15658 0.0
C521 C 0.46726 0.19044 0.19306 0.0
C522 C 0.18584 0.97284 0.61401 0.0
C523 C 0.17007 0.93668 0.62319 0.0
H524 H 0.17269 1.01931 0.59496 0.0
C525 C 0.12774 0.92024 0.62178 0.0
H526 H 0.2183 0.9862 0.61466 0.0
C527 C 0.10166 0.9392 0.61064 0.0
C528 C 0.11729 0.97502 0.60053 0.0
H529 H 0.11473 0.89268 0.62941 0.0
H530 H 0.06913 0.92547 0.60927 0.0
C531 C 0.15971 0.99181 0.60274 0.0
C532 C 0.84026 0.43374 0.98892 0.0
C533 C 0.83637 0.42898 0.94927 0.0
H534 H 0.8813 0.45196 0.04238 0.0
C535 C 0.87155 0.44105 0.93275 0.0
H536 H 0.81348 0.4245 1.00221 0.0
C537 C 0.91009 0.45731 0.95554 0.0
C538 C 0.91418 0.46092 0.9953 0.0
H539 H 0.86919 0.43774 0.90221 0.0
H540 H 0.93677 0.46619 0.94207 0.0
C541 C 0.87894 0.44925 1.01181 0.0
C542 C 0.67613 0.54372 0.43356 0.0
C543 C 0.70638 0.57879 0.44121 0.0
H544 H 0.62121 0.50522 0.44749 0.0
C545 C 0.70295 0.60211 0.47013 0.0
H546 H 0.67765 0.52483 0.41175 0.0
C547 C 0.67048 0.59098 0.49046 0.0
C548 C 0.64034 0.5559 0.48302 0.0
H549 H 0.72511 0.62947 0.4767 0.0
H550 H 0.66902 0.61009 0.51207 0.0
C551 C 0.64382 0.53235 0.45434 0.0
C552 C 0.28471 0.48857 0.21787 0.0
C553 C 0.30037 0.46133 0.21051 0.0
H554 H 0.23636 0.50929 0.20227 0.0
C555 C 0.28065 0.43531 0.17935 0.0
H556 H 0.29923 0.50859 0.24204 0.0
C557 C 0.2443 0.4351 0.15737 0.0
C558 C 0.2277 0.46139 0.16573 0.0
H559 H 0.29188 0.41371 0.17359 0.0
H560 H 0.22838 0.41367 0.1347 0.0
C561 C 0.24886 0.48889 0.19527 0.0
C562 C 0.58288 0.15775 0.9506 0.0
C563 C 0.55386 0.1649 0.92319 0.0
H564 H 0.59419 0.12463 0.99474 0.0
C565 C 0.5126 0.14227 0.91984 0.0
H566 H 0.61488 0.17477 0.95456 0.0
C567 C 0.50081 0.11342 0.94294 0.0
C568 C 0.52982 0.1065 0.9704 0.0
H569 H 0.48936 0.14655 0.89899 0.0
H570 H 0.46878 0.0966 0.93938 0.0
C571 C 0.57103 0.12906 0.97389 0.0
C572 C 0.94007 0.87864 0.42959 0.0
C573 C 0.96235 0.85506 0.42779 0.0
H574 H 0.93935 0.92995 0.45171 0.0
C575 C 1.00261 0.86712 0.44863 0.0
H576 H 0.90932 0.87124 0.41375 0.0
C577 C 1.01999 0.90128 0.46969 0.0
C578 C 0.99772 0.92459 0.47139 0.0
H579 H 1.02087 0.85003 0.4493 0.0
H580 H 0.0511 0.90937 0.48502 0.0
C581 C 0.95734 0.91266 0.45131 0.0
C582 C 0.44141 0.75402 0.6336 0.0
C583 C 0.39955 0.73489 0.62036 0.0
H584 H 0.50174 0.75212 0.6439 0.0
C585 C 0.38689 0.69882 0.60458 0.0
H586 H 0.45195 0.7817 0.64649 0.0
C587 C 0.41541 0.68194 0.60281 0.0
C588 C 0.4572 0.70061 0.61724 0.0
H589 H 0.35485 0.68356 0.59392 0.0
H590 H 0.40462 0.65415 0.59023 0.0
C591 C 0.46992 0.73704 0.63218 0.0
C592 C 0.74239 0.79457 0.58507 0.0
C593 C 0.74599 0.76714 0.60818 0.0
H594 H 0.7735 0.84435 0.56252 0.0
C595 C 0.78506 0.766 0.62113 0.0
H596 H 0.71265 0.79597 0.57446 0.0
C597 C 0.81993 0.79369 0.61427 0.0
C598 C 0.81643 0.82297 0.59419 0.0
H599 H 0.78894 0.7454 0.63922 0.0
H600 H 0.84971 0.79323 0.62649 0.0
C601 C 0.77727 0.82219 0.5781 0.0
C602 C 0.67171 0.14325 0.16728 0.0
C603 C 0.65642 0.14181 0.20126 0.0
H604 H 0.65885 0.12426 0.10827 0.0
C605 C 0.61484 0.12282 0.20105 0.0
H606 H 0.70379 0.15776 0.16701 0.0
C607 C 0.58918 0.10406 0.16772 0.0
C608 C 0.60478 0.1035 0.13407 0.0
H609 H 0.60247 0.12166 0.227 0.0
H610 H 0.55746 0.08881 0.16881 0.0
C611 C 0.64607 0.12401 0.13386 0.0
C612 C 0.44361 0.58405 0.39394 0.0
C613 C 0.47147 0.62008 0.39781 0.0
H614 H 0.42788 0.53105 0.41425 0.0
C615 C 0.50512 0.6303 0.42802 0.0
H616 H 0.41754 0.57511 0.37091 0.0
C617 C 0.51052 0.60504 0.4537 0.0
C618 C 0.48298 0.56879 0.44908 0.0
H619 H 0.52709 0.65785 0.43188 0.0
H620 H 0.53689 0.61355 0.4764 0.0
C621 C 0.44953 0.55875 0.41886 0.0
C622 C 0.11918 0.44585 0.925 0.0
C623 C 0.11425 0.4551 0.88704 0.0
H624 H 0.10868 0.45236 0.98205 0.0
C625 C 0.09362 0.47977 0.87908 0.0
H626 H 0.13519 0.42747 0.93299 0.0
C627 C 0.07836 0.49419 0.90751 0.0
C628 C 0.0832 0.48483 0.94534 0.0
H629 H 0.0884 0.48754 0.85048 0.0
H630 H 0.06243 0.51266 0.89962 0.0
C631 C 0.10411 0.46045 0.9535 0.0
C632 C 0.55648 0.82469 0.86293 0.0
C633 C 0.58994 0.82327 0.84747 0.0
H634 H 0.53394 0.85561 0.89787 0.0
C635 C 0.62768 0.85202 0.85731 0.0
H636 H 0.52706 0.80287 0.8557 0.0
C637 C 0.6319 0.88179 0.8818 0.0
C638 C 0.59837 0.88378 0.89684 0.0
H639 H 0.65422 0.85124 0.84641 0.0
H640 H 0.66168 0.90307 0.88927 0.0
C641 C 0.56057 0.8548 0.88719 0.0
C642 C 0.93739 0.12411 0.46483 0.0
C643 C 0.89551 0.10945 0.46646 0.0
H644 H 0.99495 0.11651 0.47388 0.0
C645 C 0.87952 0.07422 0.47813 0.0
H646 H 0.95058 0.15085 0.45525 0.0
C647 C 0.90483 0.05426 0.48816 0.0
C648 C 0.94676 0.06917 0.48698 0.0
H649 H 0.84749 0.06221 0.48009 0.0
H650 H 0.89164 0.02748 0.49765 0.0
C651 C 0.96274 0.10423 0.47505 0.0
C652 C 0.21556 0.62501 0.08344 0.0
C653 C 0.22185 0.61679 0.12151 0.0
H654 H 0.17311 0.61738 1.03134 0.0
C655 C 0.18824 0.59345 0.13576 0.0
H656 H 0.24026 0.64342 0.07148 0.0
C657 C 0.14944 0.57951 0.11295 0.0
C658 C 0.14343 0.58772 0.07502 0.0
H659 H 0.19179 0.58577 0.16456 0.0
H660 H 0.12415 0.562 0.12497 0.0
C661 C 0.1769 0.61039 0.06041 0.0
C662 C 0.38038 0.50239 0.63941 0.0
C663 C 0.35489 0.46544 0.6361 0.0
H664 H 0.43145 0.54311 0.62198 0.0
C665 C 0.36091 0.44172 0.60929 0.0
H666 H 0.3769 0.52158 0.65966 0.0
C667 C 0.39192 0.45408 0.58747 0.0
C668 C 0.41849 0.49068 0.59171 0.0
H669 H 0.34164 0.41323 0.60525 0.0
H670 H 0.39565 0.43449 0.56788 0.0
C671 C 0.41187 0.51475 0.61776 0.0
C672 C 0.77643 0.59817 0.8744 0.0
C673 C 0.77598 0.63365 0.87195 0.0
H674 H 0.81089 0.5648 0.89367 0.0
C675 C 0.81042 0.66303 0.89016 0.0
H676 H 0.75026 0.57488 0.86111 0.0
C677 C 0.84485 0.65722 0.90926 0.0
C678 C 0.84592 0.6219 0.91049 0.0
H679 H 0.81146 0.69077 0.88855 0.0
H680 H 0.87099 0.68055 0.92253 0.0
C681 C 0.81101 0.59236 0.89347 0.0
C682 C 0.47387 0.88085 0.1173 0.0
C683 C 0.49967 0.8797 0.15121 0.0
H684 H 0.46272 0.91151 0.0707 0.0
C685 C 0.53451 0.91075 0.16443 0.0
H686 H 0.44652 0.85762 0.10645 0.0
C687 C 0.54403 0.94152 0.14362 0.0
C688 C 0.51857 0.94238 0.10942 0.0
H689 H 0.5551 0.91086 0.19029 0.0
H690 H 0.57167 0.96459 0.15414 0.0
C691 C 0.48299 0.91185 0.09688 0.0
C692 C 0.11994 0.16363 0.65183 0.0
C693 C 0.0971 0.18687 0.65268 0.0
H694 H 0.12145 0.11195 0.63173 0.0
C695 C 0.05657 0.17362 0.63239 0.0
H696 H 0.1509 0.17182 0.66736 0.0
C697 C 0.0395 0.13873 0.61281 0.0
C698 C 0.06236 0.11583 0.61198 0.0
H699 H 0.03781 0.1903 0.63097 0.0
H700 H 1.00818 0.12977 0.59785 0.0
C701 C 0.103 0.12889 0.63147 0.0
C702 C 0.66612 0.32375 0.49508 0.0
C703 C 0.67398 0.31937 0.45829 0.0
H704 H 0.6308 0.34107 0.52966 0.0
C705 C 0.65147 0.32978 0.4277 0.0
H706 H 0.68299 0.31606 0.51923 0.0
C707 C 0.62182 0.34415 0.43365 0.0
C708 C 0.61377 0.34842 0.47034 0.0
H709 H 0.65616 0.32619 0.39889 0.0
H710 H 0.60541 0.35219 0.40943 0.0
C711 C 0.63641 0.33826 0.50106 0.0
loop_
_geom_bond_atom_site_label_1
_geom_bond_atom_site_label_2
_geom_bond_distance
_geom_bond_site_symmetry_2
_ccdc_geom_bond_type
C0 C1 1.386 . S
C0 C2 1.397 . S
C0 H24 0.931 . S
C1 C0 1.386 . S
C1 C5 1.397 . S
C2 C0 1.397 . S
C2 C3 1.384 . S
C2 H25 0.930 . S
C3 C2 1.384 . S
C3 C4 1.377 . S
C3 C6 1.481 . S
C4 C3 1.377 . S
C4 C5 1.389 . S
C4 H26 0.929 . S
C5 C1 1.397 . S
C5 C4 1.389 . S
C5 H27 0.931 . S
C6 C3 1.481 . S
C6 C7 1.387 . S
C6 C11 1.390 . S
C7 C6 1.387 . S
C7 C8 1.401 . S
C7 H28 0.930 . S
C8 C7 1.401 . S
C8 C9 1.376 . S
C8 C17 1.511 . S
C9 C8 1.376 . S
C9 C10 1.392 . S
C9 H30 0.931 . S
C10 C9 1.392 . S
C10 C11 1.361 . S
C10 C12 1.500 . S
C11 C6 1.390 . S
C11 C10 1.361 . S
C11 H29 0.931 . S
C12 C10 1.500 . S
C12 C13 1.371 . S
C12 C14 1.365 . S
C13 C12 1.371 . S
C13 C23 1.386 . S
C13 H31 0.931 . S
C14 C12 1.365 . S
C14 C15 1.409 . S
C14 H32 0.929 . S
C15 C14 1.409 . S
C15 C16 1.380 . S
C15 H33 0.930 . S
C16 C15 1.380 . S
C16 C23 1.357 . S
C17 C8 1.511 . S
C17 C18 1.341 . S
C17 C19 1.371 . S
C18 C17 1.341 . S
C18 C22 1.394 . S
C18 H34 0.930 . S
C19 C17 1.371 . S
C19 C20 1.392 . S
C19 H35 0.931 . S
C20 C19 1.392 . S
C20 C21 1.331 . S
C20 H38 0.932 . S
C21 C20 1.331 . S
C21 C22 1.336 . S
C22 C18 1.394 . S
C22 C21 1.336 . S
C22 H37 0.929 . S
C23 C13 1.386 . S
C23 C16 1.357 . S
C23 H36 0.928 . S
H24 C0 0.931 . S
H25 C2 0.930 . S
H26 C4 0.929 . S
H27 C5 0.931 . S
H28 C7 0.930 . S
H29 C11 0.931 . S
H30 C9 0.931 . S
H31 C13 0.931 . S
H32 C14 0.929 . S
H33 C15 0.930 . S
H34 C18 0.930 . S
H35 C19 0.931 . S
H36 C23 0.928 . S
H37 C22 0.929 . S
H38 C20 0.932 . S
C39 C40 1.386 . S
C39 C41 1.397 . S
C39 H63 0.931 . S
C40 C39 1.386 . S
C40 C44 1.397 . S
C41 C39 1.397 . S
C41 C42 1.384 . S
C41 H64 0.930 . S
C42 C41 1.384 . S
C42 C43 1.377 . S
C42 C45 1.481 . S
C43 C42 1.377 . S
C43 C44 1.389 . S
C43 H65 0.929 . S
C44 C40 1.397 . S
C44 C43 1.389 . S
C44 H66 0.931 . S
C45 C42 1.481 . S
C45 C46 1.387 . S
C45 C50 1.390 . S
C46 C45 1.387 . S
C46 C47 1.401 . S
C46 H67 0.930 . S
C47 C46 1.401 . S
C47 C48 1.376 . S
C47 C56 1.511 . S
C48 C47 1.376 . S
C48 C49 1.392 . S
C48 H69 0.931 . S
C49 C48 1.392 . S
C49 C50 1.361 . S
C49 C51 1.500 . S
C50 C45 1.390 . S
C50 C49 1.361 . S
C50 H68 0.931 . S
C51 C49 1.500 . S
C51 C52 1.371 . S
C51 C53 1.365 . S
C52 C51 1.371 . S
C52 C62 1.386 . S
C52 H70 0.931 . S
C53 C51 1.365 . S
C53 C54 1.409 . S
C53 H71 0.929 . S
C54 C53 1.409 . S
C54 C55 1.380 . S
C54 H72 0.930 . S
C55 C54 1.380 . S
C55 C62 1.357 . S
C56 C47 1.511 . S
C56 C57 1.341 . S
C56 C58 1.371 . S
C57 C56 1.341 . S
C57 C61 1.394 . S
C57 H73 0.930 . S
C58 C56 1.371 . S
C58 C59 1.392 . S
C58 H74 0.931 . S
C59 C58 1.392 . S
C59 C60 1.331 . S
C59 H77 0.932 . S
C60 C59 1.331 . S
C60 C61 1.336 . S
C61 C57 1.394 . S
C61 C60 1.336 . S
C61 H76 0.929 . S
C62 C52 1.386 . S
C62 C55 1.357 . S
C62 H75 0.928 . S
H63 C39 0.931 . S
H64 C41 0.930 . S
H65 C43 0.929 . S
H66 C44 0.931 . S
H67 C46 0.930 . S
H68 C50 0.931 . S
H69 C48 0.931 . S
H70 C52 0.931 . S
H71 C53 0.929 . S
H72 C54 0.930 . S
H73 C57 0.930 . S
H74 C58 0.931 . S
H75 C62 0.928 . S
H76 C61 0.929 . S
H77 C59 0.932 . S
C78 C79 1.386 . S
C78 C80 1.397 . S
C78 H102 0.931 . S
C79 C78 1.386 . S
C79 C83 1.397 . S
C80 C78 1.397 . S
C80 C81 1.384 . S
C80 H103 0.930 . S
C81 C80 1.384 . S
C81 C82 1.377 . S
C81 C84 1.481 . S
C82 C81 1.377 . S
C82 C83 1.389 . S
C82 H104 0.929 . S
C83 C79 1.397 . S
C83 C82 1.389 . S
C83 H105 0.931 . S
C84 C81 1.481 . S
C84 C85 1.387 . S
C84 C89 1.390 . S
C85 C84 1.387 . S
C85 C86 1.401 . S
C85 H106 0.930 . S
C86 C85 1.401 . S
C86 C87 1.376 . S
C86 C95 1.511 . S
C87 C86 1.376 . S
C87 C88 1.392 . S
C87 H108 0.931 . S
C88 C87 1.392 . S
C88 C89 1.361 . S
C88 C90 1.500 . S
C89 C84 1.390 . S
C89 C88 1.361 . S
C89 H107 0.931 . S
C90 C88 1.500 . S
C90 C91 1.371 . S
C90 C92 1.365 . S
C91 C90 1.371 . S
C91 C101 1.386 . S
C91 H109 0.931 . S
C92 C90 1.365 . S
C92 C93 1.409 . S
C92 H110 0.929 . S
C93 C92 1.409 . S
C93 C94 1.380 . S
C93 H111 0.930 . S
C94 C93 1.380 . S
C94 C101 1.357 . S
C95 C86 1.511 . S
C95 C96 1.341 . S
C95 C97 1.371 . S
C96 C95 1.341 . S
C96 C100 1.394 . S
C96 H112 0.930 . S
C97 C95 1.371 . S
C97 C98 1.392 . S
C97 H113 0.931 . S
C98 C97 1.392 . S
C98 C99 1.331 . S
C98 H116 0.932 . S
C99 C98 1.331 . S
C99 C100 1.336 . S
C100 C96 1.394 . S
C100 C99 1.336 . S
C100 H115 0.929 . S
C101 C91 1.386 . S
C101 C94 1.357 . S
C101 H114 0.928 . S
H102 C78 0.931 . S
H103 C80 0.930 . S
H104 C82 0.929 . S
H105 C83 0.931 . S
H106 C85 0.930 . S
H107 C89 0.931 . S
H108 C87 0.931 . S
H109 C91 0.931 . S
H110 C92 0.929 . S
H111 C93 0.930 . S
H112 C96 0.930 . S
H113 C97 0.931 . S
H114 C101 0.928 . S
H115 C100 0.929 . S
H116 C98 0.932 . S
C117 C118 1.386 . S
C117 C119 1.397 . S
C117 H141 0.931 . S
C118 C117 1.386 . S
C118 C122 1.397 . S
C119 C117 1.397 . S
C119 C120 1.384 . S
C119 H142 0.930 . S
C120 C119 1.384 . S
C120 C121 1.377 . S
C120 C123 1.481 . S
C121 C120 1.377 . S
C121 C122 1.389 . S
C121 H143 0.929 . S
C122 C118 1.397 . S
C122 C121 1.389 . S
C122 H144 0.931 . S
C123 C120 1.481 . S
C123 C124 1.387 . S
C123 C128 1.390 . S
C124 C123 1.387 . S
C124 C125 1.401 . S
C124 H145 0.930 . S
C125 C124 1.401 . S
C125 C126 1.376 . S
C125 C134 1.511 . S
C126 C125 1.376 . S
C126 C127 1.392 . S
C126 H147 0.931 . S
C127 C126 1.392 . S
C127 C128 1.361 . S
C127 C129 1.500 . S
C128 C123 1.390 . S
C128 C127 1.361 . S
C128 H146 0.931 . S
C129 C127 1.500 . S
C129 C130 1.371 . S
C129 C131 1.365 . S
C130 C129 1.371 . S
C130 C140 1.386 . S
C130 H148 0.931 . S
C131 C129 1.365 . S
C131 C132 1.409 . S
C131 H149 0.929 . S
C132 C131 1.409 . S
C132 C133 1.380 . S
C132 H150 0.930 . S
C133 C132 1.380 . S
C133 C140 1.357 . S
C134 C125 1.511 . S
C134 C135 1.341 . S
C134 C136 1.371 . S
C135 C134 1.341 . S
C135 C139 1.394 . S
C135 H151 0.930 . S
C136 C134 1.371 . S
C136 C137 1.392 . S
C136 H152 0.931 . S
C137 C136 1.392 . S
C137 C138 1.331 . S
C137 H155 0.932 . S
C138 C137 1.331 . S
C138 C139 1.336 . S
C139 C135 1.394 . S
C139 C138 1.336 . S
C139 H154 0.929 . S
C140 C130 1.386 . S
C140 C133 1.357 . S
C140 H153 0.928 . S
H141 C117 0.931 . S
H142 C119 0.930 . S
H143 C121 0.929 . S
H144 C122 0.931 . S
H145 C124 0.930 . S
H146 C128 0.931 . S
H147 C126 0.931 . S
H148 C130 0.931 . S
H149 C131 0.929 . S
H150 C132 0.930 . S
H151 C135 0.930 . S
H152 C136 0.931 . S
H153 C140 0.928 . S
H154 C139 0.929 . S
H155 C137 0.932 . S
C156 C157 1.386 . S
C156 C158 1.397 . S
C156 H180 0.931 . S
C157 C156 1.386 . S
C157 C161 1.397 . S
C158 C156 1.397 . S
C158 C159 1.384 . S
C158 H181 0.930 . S
C159 C158 1.384 . S
C159 C160 1.377 . S
C159 C162 1.481 . S
C160 C159 1.377 . S
C160 C161 1.389 . S
C160 H182 0.929 . S
C161 C157 1.397 . S
C161 C160 1.389 . S
C161 H183 0.931 . S
C162 C159 1.481 . S
C162 C163 1.387 . S
C162 C167 1.390 . S
C163 C162 1.387 . S
C163 C164 1.401 . S
C163 H184 0.930 . S
C164 C163 1.401 . S
C164 C165 1.376 . S
C164 C173 1.511 . S
C165 C164 1.376 . S
C165 C166 1.392 . S
C165 H186 0.931 . S
C166 C165 1.392 . S
C166 C167 1.361 . S
C166 C168 1.500 . S
C167 C162 1.390 . S
C167 C166 1.361 . S
C167 H185 0.931 . S
C168 C166 1.500 . S
C168 C169 1.371 . S
C168 C170 1.365 . S
C169 C168 1.371 . S
C169 C179 1.386 . S
C169 H187 0.931 . S
C170 C168 1.365 . S
C170 C171 1.409 . S
C170 H188 0.929 . S
C171 C170 1.409 . S
C171 C172 1.380 . S
C171 H189 0.930 . S
C172 C171 1.380 . S
C172 C179 1.357 . S
C173 C164 1.511 . S
C173 C174 1.341 . S
C173 C175 1.371 . S
C174 C173 1.341 . S
C174 C178 1.394 . S
C174 H190 0.930 . S
C175 C173 1.371 . S
C175 C176 1.392 . S
C175 H191 0.931 . S
C176 C175 1.392 . S
C176 C177 1.331 . S
C176 H194 0.932 . S
C177 C176 1.331 . S
C177 C178 1.336 . S
C178 C174 1.394 . S
C178 C177 1.336 . S
C178 H193 0.929 . S
C179 C169 1.386 . S
C179 C172 1.357 . S
C179 H192 0.928 . S
H180 C156 0.931 . S
H181 C158 0.930 . S
H182 C160 0.929 . S
H183 C161 0.931 . S
H184 C163 0.930 . S
H185 C167 0.931 . S
H186 C165 0.931 . S
H187 C169 0.931 . S
H188 C170 0.929 . S
H189 C171 0.930 . S
H190 C174 0.930 . S
H191 C175 0.931 . S
H192 C179 0.928 . S
H193 C178 0.929 . S
H194 C176 0.932 . S
C195 C196 1.386 . S
C195 C197 1.397 . S
C195 H219 0.931 . S
C196 C195 1.386 . S
C196 C200 1.397 . S
C197 C195 1.397 . S
C197 C198 1.384 . S
C197 H220 0.930 . S
C198 C197 1.384 . S
C198 C199 1.377 . S
C198 C201 1.481 . S
C199 C198 1.377 . S
C199 C200 1.389 . S
C199 H221 0.929 . S
C200 C196 1.397 . S
C200 C199 1.389 . S
C200 H222 0.931 . S
C201 C198 1.481 . S
C201 C202 1.387 . S
C201 C206 1.390 . S
C202 C201 1.387 . S
C202 C203 1.401 . S
C202 H223 0.930 . S
C203 C202 1.401 . S
C203 C204 1.376 . S
C203 C212 1.511 . S
C204 C203 1.376 . S
C204 C205 1.392 . S
C204 H225 0.931 . S
C205 C204 1.392 . S
C205 C206 1.361 . S
C205 C207 1.500 . S
C206 C201 1.390 . S
C206 C205 1.361 . S
C206 H224 0.931 . S
C207 C205 1.500 . S
C207 C208 1.371 . S
C207 C209 1.365 . S
C208 C207 1.371 . S
C208 C218 1.386 . S
C208 H226 0.931 . S
C209 C207 1.365 . S
C209 C210 1.409 . S
C209 H227 0.929 . S
C210 C209 1.409 . S
C210 C211 1.380 . S
C210 H228 0.930 . S
C211 C210 1.380 . S
C211 C218 1.357 . S
C212 C203 1.511 . S
C212 C213 1.341 . S
C212 C214 1.371 . S
C213 C212 1.341 . S
C213 C217 1.394 . S
C213 H229 0.930 . S
C214 C212 1.371 . S
C214 C215 1.392 . S
C214 H230 0.931 . S
C215 C214 1.392 . S
C215 C216 1.331 . S
C215 H233 0.932 . S
C216 C215 1.331 . S
C216 C217 1.336 . S
C217 C213 1.394 . S
C217 C216 1.336 . S
C217 H232 0.929 . S
C218 C208 1.386 . S
C218 C211 1.357 . S
C218 H231 0.928 . S
H219 C195 0.931 . S
H220 C197 0.930 . S
H221 C199 0.929 . S
H222 C200 0.931 . S
H223 C202 0.930 . S
H224 C206 0.931 . S
H225 C204 0.931 . S
H226 C208 0.931 . S
H227 C209 0.929 . S
H228 C210 0.930 . S
H229 C213 0.930 . S
H230 C214 0.931 . S
H231 C218 0.928 . S
H232 C217 0.929 . S
H233 C215 0.932 . S
C234 C235 1.386 . S
C234 C236 1.397 . S
C234 H258 0.931 . S
C235 C234 1.386 . S
C235 C239 1.397 . S
C236 C234 1.397 . S
C236 C237 1.384 . S
C236 H259 0.930 . S
C237 C236 1.384 . S
C237 C238 1.377 . S
C237 C240 1.481 . S
C238 C237 1.377 . S
C238 C239 1.389 . S
C238 H260 0.929 . S
C239 C235 1.397 . S
C239 C238 1.389 . S
C239 H261 0.931 . S
C240 C237 1.481 . S
C240 C241 1.387 . S
C240 C245 1.390 . S
C241 C240 1.387 . S
C241 C242 1.401 . S
C241 H262 0.930 . S
C242 C241 1.401 . S
C242 C243 1.376 . S
C242 C251 1.511 . S
C243 C242 1.376 . S
C243 C244 1.392 . S
C243 H264 0.931 . S
C244 C243 1.392 . S
C244 C245 1.361 . S
C244 C246 1.500 . S
C245 C240 1.390 . S
C245 C244 1.361 . S
C245 H263 0.931 . S
C246 C244 1.500 . S
C246 C247 1.371 . S
C246 C248 1.365 . S
C247 C246 1.371 . S
C247 C257 1.386 . S
C247 H265 0.931 . S
C248 C246 1.365 . S
C248 C249 1.409 . S
C248 H266 0.929 . S
C249 C248 1.409 . S
C249 C250 1.380 . S
C249 H267 0.930 . S
C250 C249 1.380 . S
C250 C257 1.357 . S
C251 C242 1.511 . S
C251 C252 1.341 . S
C251 C253 1.371 . S
C252 C251 1.341 . S
C252 C256 1.394 . S
C252 H268 0.930 . S
C253 C251 1.371 . S
C253 C254 1.392 . S
C253 H269 0.931 . S
C254 C253 1.392 . S
C254 C255 1.331 . S
C254 H272 0.932 . S
C255 C254 1.331 . S
C255 C256 1.336 . S
C256 C252 1.394 . S
C256 C255 1.336 . S
C256 H271 0.929 . S
C257 C247 1.386 . S
C257 C250 1.357 . S
C257 H270 0.928 . S
H258 C234 0.931 . S
H259 C236 0.930 . S
H260 C238 0.929 . S
H261 C239 0.931 . S
H262 C241 0.930 . S
H263 C245 0.931 . S
H264 C243 0.931 . S
H265 C247 0.931 . S
H266 C248 0.929 . S
H267 C249 0.930 . S
H268 C252 0.930 . S
H269 C253 0.931 . S
H270 C257 0.928 . S
H271 C256 0.929 . S
H272 C254 0.932 . S
C273 C274 1.386 . S
C273 C275 1.397 . S
C273 H297 0.931 . S
C274 C273 1.386 . S
C274 C278 1.397 . S
C275 C273 1.397 . S
C275 C276 1.384 . S
C275 H298 0.930 . S
C276 C275 1.384 . S
C276 C277 1.377 . S
C276 C279 1.481 . S
C277 C276 1.377 . S
C277 C278 1.389 . S
C277 H299 0.929 . S
C278 C274 1.397 . S
C278 C277 1.389 . S
C278 H300 0.931 . S
C279 C276 1.481 . S
C279 C280 1.387 . S
C279 C284 1.390 . S
C280 C279 1.387 . S
C280 C281 1.401 . S
C280 H301 0.930 . S
C281 C280 1.401 . S
C281 C282 1.376 . S
C281 C290 1.511 . S
C282 C281 1.376 . S
C282 C283 1.392 . S
C282 H303 0.931 . S
C283 C282 1.392 . S
C283 C284 1.361 . S
C283 C285 1.500 . S
C284 C279 1.390 . S
C284 C283 1.361 . S
C284 H302 0.931 . S
C285 C283 1.500 . S
C285 C286 1.371 . S
C285 C287 1.365 . S
C286 C285 1.371 . S
C286 C296 1.386 . S
C286 H304 0.931 . S
C287 C285 1.365 . S
C287 C288 1.409 . S
C287 H305 0.929 . S
C288 C287 1.409 . S
C288 C289 1.380 . S
C288 H306 0.930 . S
C289 C288 1.380 . S
C289 C296 1.357 . S
C290 C281 1.511 . S
C290 C291 1.341 . S
C290 C292 1.371 . S
C291 C290 1.341 . S
C291 C295 1.394 . S
C291 H307 0.930 . S
C292 C290 1.371 . S
C292 C293 1.392 . S
C292 H308 0.931 . S
C293 C292 1.392 . S
C293 C294 1.331 . S
C293 H311 0.932 . S
C294 C293 1.331 . S
C294 C295 1.336 . S
C295 C291 1.394 . S
C295 C294 1.336 . S
C295 H310 0.929 . S
C296 C286 1.386 . S
C296 C289 1.357 . S
C296 H309 0.928 . S
H297 C273 0.931 . S
H298 C275 0.930 . S
H299 C277 0.929 . S
H300 C278 0.931 . S
H301 C280 0.930 . S
H302 C284 0.931 . S
H303 C282 0.931 . S
H304 C286 0.931 . S
H305 C287 0.929 . S
H306 C288 0.930 . S
H307 C291 0.930 . S
H308 C292 0.931 . S
H309 C296 0.928 . S
H310 C295 0.929 . S
H311 C293 0.932 . S
Pr312 C314 2.880 . S
Pr312 O332 2.562 . S
Pr312 O333 2.490 . S
Pr312 O334 2.695 1_665 S
Pr312 O335 2.512 1_665 S
Pr312 O337 2.437 1_655 S
Pr312 O340 2.436 . S
Pr312 O342 2.438 1_565 S
Pr313 C323 2.880 . S
Pr313 O334 2.436 . S
Pr313 O336 2.438 1_545 S
Pr313 O338 2.562 . S
Pr313 O339 2.490 . S
Pr313 O340 2.695 1_445 S
Pr313 O341 2.512 1_545 S
Pr313 O343 2.437 1_455 S
C314 Pr312 2.880 . S
C314 C315 1.491 . S
C314 O332 1.254 . S
C314 O333 1.225 . S
C315 C314 1.491 . S
C315 C316 1.392 . S
C315 C320 1.356 . S
C316 C315 1.392 . S
C316 C317 1.368 . S
C316 H344 0.929 . S
C317 C316 1.368 . S
C317 C318 1.386 . S
C317 H345 0.929 . S
C318 C317 1.386 . S
C318 C319 1.373 . S
C319 C318 1.373 . S
C319 C320 1.409 . S
C319 H346 0.931 . S
C320 C315 1.356 . S
C320 C319 1.409 . S
C320 H347 0.930 . S
C321 O334 1.270 . S
C321 O335 1.248 . S
C322 O336 1.267 . S
C322 O337 1.278 . S
C323 Pr313 2.880 . S
C323 C324 1.491 . S
C323 O338 1.254 . S
C323 O339 1.225 . S
C324 C323 1.491 . S
C324 C325 1.392 . S
C324 C329 1.356 . S
C325 C324 1.392 . S
C325 C326 1.368 . S
C325 H348 0.929 . S
C326 C325 1.368 . S
C326 C327 1.386 . S
C326 H349 0.929 . S
C327 C326 1.386 . S
C327 C328 1.373 . S
C328 C327 1.373 . S
C328 C329 1.409 . S
C328 H350 0.931 . S
C329 C324 1.356 . S
C329 C328 1.409 . S
C329 H351 0.930 . S
C330 O340 1.270 . S
C330 O341 1.248 1_655 S
C331 O342 1.267 . S
C331 O343 1.278 . S
O332 Pr312 2.562 . S
O332 C314 1.254 . S
O333 Pr312 2.490 . S
O333 C314 1.225 . S
O334 Pr312 2.695 1_445 S
O334 Pr313 2.436 . S
O334 C321 1.270 . S
O335 Pr312 2.512 1_445 S
O335 C321 1.248 . S
O336 Pr313 2.438 1_565 S
O336 C322 1.267 . S
O337 Pr312 2.437 1_455 S
O337 C322 1.278 . S
O338 Pr313 2.562 . S
O338 C323 1.254 . S
O339 Pr313 2.490 . S
O339 C323 1.225 . S
O340 Pr312 2.436 . S
O340 Pr313 2.695 1_665 S
O340 C330 1.270 . S
O341 Pr313 2.512 1_565 S
O341 C330 1.248 1_455 S
O342 Pr312 2.438 1_545 S
O342 C331 1.267 . S
O343 Pr313 2.437 1_655 S
O343 C331 1.278 . S
H344 C316 0.929 . S
H345 C317 0.929 . S
H346 C319 0.931 . S
H347 C320 0.930 . S
H348 C325 0.929 . S
H349 C326 0.929 . S
H350 C328 0.931 . S
H351 C329 0.930 . S
Pr352 C354 2.880 . S
Pr352 O372 2.562 . S
Pr352 O373 2.490 . S
Pr352 O374 2.695 1_554 S
Pr352 O375 2.512 1_554 S
Pr352 O377 2.437 . S
Pr352 O380 2.436 1_545 S
Pr352 O382 2.438 1_544 S
Pr353 C363 2.861 1_554 S
Pr353 O374 2.426 1_564 S
Pr353 O376 2.456 1_565 S
Pr353 O378 2.537 1_554 S
Pr353 O379 2.480 1_554 S
Pr353 O380 2.712 . S
Pr353 O381 2.531 . S
Pr353 O383 2.427 1_554 S
C354 Pr352 2.880 . S
C354 C355 1.491 . S
C354 O372 1.254 . S
C354 O373 1.225 . S
C355 C354 1.491 . S
C355 C356 1.392 . S
C355 C360 1.356 . S
C356 C355 1.392 . S
C356 C357 1.368 . S
C356 H384 0.929 . S
C357 C356 1.368 . S
C357 C358 1.386 . S
C357 H385 0.929 . S
C358 C357 1.386 . S
C358 C359 1.373 . S
C359 C358 1.373 . S
C359 C360 1.409 . S
C359 H386 0.931 . S
C360 C355 1.356 . S
C360 C359 1.409 . S
C360 H387 0.930 . S
C361 O374 1.270 . S
C361 O375 1.248 . S
C362 O376 1.267 . S
C362 O377 1.278 . S
C363 Pr353 2.861 1_556 S
C363 C364 1.491 . S
C363 O378 1.254 . S
C363 O379 1.225 . S
C364 C363 1.491 . S
C364 C365 1.392 . S
C364 C369 1.356 . S
C365 C364 1.392 . S
C365 C366 1.368 . S
C365 H388 0.929 . S
C366 C365 1.368 . S
C366 C367 1.386 . S
C366 H389 0.929 . S
C367 C366 1.386 . S
C367 C368 1.373 . S
C368 C367 1.373 . S
C368 C369 1.409 . S
C368 H390 0.931 . S
C369 C364 1.356 . S
C369 C368 1.409 . S
C369 H391 0.930 . S
C370 O380 1.270 . S
C370 O381 1.248 . S
C371 O382 1.267 . S
C371 O383 1.278 . S
O372 Pr352 2.562 . S
O372 C354 1.254 . S
O373 Pr352 2.490 . S
O373 C354 1.225 . S
O374 Pr352 2.695 1_556 S
O374 Pr353 2.426 1_546 S
O374 C361 1.270 . S
O375 Pr352 2.512 1_556 S
O375 C361 1.248 . S
O376 Pr353 2.456 1_545 S
O376 C362 1.267 . S
O377 Pr352 2.437 . S
O377 C362 1.278 . S
O378 Pr353 2.537 1_556 S
O378 C363 1.254 . S
O379 Pr353 2.480 1_556 S
O379 C363 1.225 . S
O380 Pr352 2.436 1_565 S
O380 Pr353 2.712 . S
O380 C370 1.270 . S
O381 Pr353 2.531 . S
O381 C370 1.248 . S
O382 Pr352 2.438 1_566 S
O382 C371 1.267 . S
O383 Pr353 2.427 1_556 S
O383 C371 1.278 . S
H384 C356 0.929 . S
H385 C357 0.929 . S
H386 C359 0.931 . S
H387 C360 0.930 . S
H388 C365 0.929 . S
H389 C366 0.929 . S
H390 C368 0.931 . S
H391 C369 0.930 . S
Pr392 C394 2.880 . S
Pr392 O412 2.562 . S
Pr392 O413 2.490 . S
Pr392 O414 2.695 . S
Pr392 O415 2.512 . S
Pr392 O417 2.437 . S
Pr392 O420 2.436 . S
Pr392 O422 2.438 . S
Pr393 C403 2.880 . S
Pr393 O414 2.436 . S
Pr393 O416 2.438 . S
Pr393 O418 2.562 . S
Pr393 O419 2.490 . S
Pr393 O420 2.695 . S
Pr393 O421 2.512 . S
Pr393 O423 2.437 . S
C394 Pr392 2.880 . S
C394 C395 1.491 . S
C394 O412 1.254 . S
C394 O413 1.225 . S
C395 C394 1.491 . S
C395 C396 1.392 . S
C395 C400 1.356 . S
C396 C395 1.392 . S
C396 C397 1.368 . S
C396 H424 0.929 . S
C397 C396 1.368 . S
C397 C398 1.386 . S
C397 H425 0.929 . S
C398 C397 1.386 . S
C398 C399 1.373 . S
C399 C398 1.373 . S
C399 C400 1.409 . S
C399 H426 0.931 . S
C400 C395 1.356 . S
C400 C399 1.409 . S
C400 H427 0.930 . S
C401 O414 1.270 . S
C401 O415 1.248 . S
C402 O416 1.267 . S
C402 O417 1.278 . S
C403 Pr393 2.880 . S
C403 C404 1.491 . S
C403 O418 1.254 . S
C403 O419 1.225 . S
C404 C403 1.491 . S
C404 C405 1.392 . S
C404 C409 1.356 . S
C405 C404 1.392 . S
C405 C406 1.368 . S
C405 H428 0.929 . S
C406 C405 1.368 . S
C406 C407 1.386 . S
C406 H429 0.929 . S
C407 C406 1.386 . S
C407 C408 1.373 . S
C408 C407 1.373 . S
C408 C409 1.409 . S
C408 H430 0.931 . S
C409 C404 1.356 . S
C409 C408 1.409 . S
C409 H431 0.930 . S
C410 O420 1.270 . S
C410 O421 1.248 . S
C411 O422 1.267 . S
C411 O423 1.278 . S
O412 Pr392 2.562 . S
O412 C394 1.254 . S
O413 Pr392 2.490 . S
O413 C394 1.225 . S
O414 Pr392 2.695 . S
O414 Pr393 2.436 . S
O414 C401 1.270 . S
O415 Pr392 2.512 . S
O415 C401 1.248 . S
O416 Pr393 2.438 . S
O416 C402 1.267 . S
O417 Pr392 2.437 . S
O417 C402 1.278 . S
O418 Pr393 2.562 . S
O418 C403 1.254 . S
O419 Pr393 2.490 . S
O419 C403 1.225 . S
O420 Pr392 2.436 . S
O420 Pr393 2.695 . S
O420 C410 1.270 . S
O421 Pr393 2.512 . S
O421 C410 1.248 . S
O422 Pr392 2.438 . S
O422 C411 1.267 . S
O423 Pr393 2.437 . S
O423 C411 1.278 . S
H424 C396 0.929 . S
H425 C397 0.929 . S
H426 C399 0.931 . S
H427 C400 0.930 . S
H428 C405 0.929 . S
H429 C406 0.929 . S
H430 C408 0.931 . S
H431 C409 0.930 . S
Pr432 C434 2.880 . S
Pr432 O452 2.562 . S
Pr432 O453 2.490 . S
Pr432 O454 2.695 1_656 S
Pr432 O455 2.512 1_656 S
Pr432 O457 2.437 1_556 S
Pr432 O460 2.436 . S
Pr432 O462 2.438 1_655 S
Pr433 C443 2.880 . S
Pr433 O454 2.436 . S
Pr433 O456 2.438 1_455 S
Pr433 O458 2.562 . S
Pr433 O459 2.490 . S
Pr433 O460 2.695 1_454 S
Pr433 O461 2.512 1_454 S
Pr433 O463 2.437 1_554 S
C434 Pr432 2.880 . S
C434 C435 1.491 . S
C434 O452 1.254 . S
C434 O453 1.225 . S
C435 C434 1.491 . S
C435 C436 1.392 . S
C435 C440 1.356 . S
C436 C435 1.392 . S
C436 C437 1.368 . S
C436 H464 0.929 . S
C437 C436 1.368 . S
C437 C438 1.386 . S
C437 H465 0.929 . S
C438 C437 1.386 . S
C438 C439 1.373 . S
C439 C438 1.373 . S
C439 C440 1.409 . S
C439 H466 0.931 . S
C440 C435 1.356 . S
C440 C439 1.409 . S
C440 H467 0.930 . S
C441 O454 1.270 . S
C441 O455 1.248 . S
C442 O456 1.267 . S
C442 O457 1.278 . S
C443 Pr433 2.880 . S
C443 C444 1.491 . S
C443 O458 1.254 . S
C443 O459 1.225 . S
C444 C443 1.491 . S
C444 C445 1.392 . S
C444 C449 1.356 . S
C445 C444 1.392 . S
C445 C446 1.368 . S
C445 H468 0.929 . S
C446 C445 1.368 . S
C446 C447 1.386 . S
C446 H469 0.929 . S
C447 C446 1.386 . S
C447 C448 1.373 . S
C448 C447 1.373 . S
C448 C449 1.409 . S
C448 H470 0.931 . S
C449 C444 1.356 . S
C449 C448 1.409 . S
C449 H471 0.930 . S
C450 O460 1.270 . S
C450 O461 1.248 . S
C451 O462 1.267 . S
C451 O463 1.278 . S
O452 Pr432 2.562 . S
O452 C434 1.254 . S
O453 Pr432 2.490 . S
O453 C434 1.225 . S
O454 Pr432 2.695 1_454 S
O454 Pr433 2.436 . S
O454 C441 1.270 . S
O455 Pr432 2.512 1_454 S
O455 C441 1.248 . S
O456 Pr433 2.438 1_655 S
O456 C442 1.267 . S
O457 Pr432 2.437 1_554 S
O457 C442 1.278 . S
O458 Pr433 2.562 . S
O458 C443 1.254 . S
O459 Pr433 2.490 . S
O459 C443 1.225 . S
O460 Pr432 2.436 . S
O460 Pr433 2.695 1_656 S
O460 C450 1.270 . S
O461 Pr433 2.512 1_656 S
O461 C450 1.248 . S
O462 Pr432 2.438 1_455 S
O462 C451 1.267 . S
O463 Pr433 2.437 1_556 S
O463 C451 1.278 . S
H464 C436 0.929 . S
H465 C437 0.929 . S
H466 C439 0.931 . S
H467 C440 0.930 . S
H468 C445 0.929 . S
H469 C446 0.929 . S
H470 C448 0.931 . S
H471 C449 0.930 . S
C472 C473 1.387 . S
C472 H476 0.950 . S
C472 C481 1.390 . S
C473 C472 1.387 . S
C473 C475 1.387 . S
H474 C481 0.950 . S
C475 C473 1.387 . S
C475 C477 1.390 . S
C475 H479 0.950 . S
H476 C472 0.950 . S
C477 C475 1.390 . S
C477 C478 1.387 . S
C477 H480 0.950 . S
C478 C477 1.387 . S
C478 C481 1.387 . S
H479 C475 0.950 . S
H480 C477 0.950 . S
C481 C472 1.390 . S
C481 H474 0.950 . S
C481 C478 1.387 . S
C482 C483 1.387 . S
C482 H486 0.950 . S
C482 C491 1.390 . S
C483 C482 1.387 . S
C483 C485 1.387 . S
H484 C491 0.950 . S
C485 C483 1.387 . S
C485 C487 1.390 . S
C485 H489 0.950 . S
H486 C482 0.950 . S
C487 C485 1.390 . S
C487 C488 1.387 . S
C487 H490 0.950 . S
C488 C487 1.387 . S
C488 C491 1.387 . S
H489 C485 0.950 . S
H490 C487 0.950 . S
C491 C482 1.390 . S
C491 H484 0.950 . S
C491 C488 1.387 . S
C492 C493 1.387 . S
C492 H496 0.950 . S
C492 C501 1.390 . S
C493 C492 1.387 . S
C493 C495 1.387 . S
H494 C501 0.950 . S
C495 C493 1.387 . S
C495 C497 1.390 . S
C495 H499 0.950 . S
H496 C492 0.950 . S
C497 C495 1.390 . S
C497 C498 1.387 . S
C497 H500 0.950 . S
C498 C497 1.387 . S
C498 C501 1.387 . S
H499 C495 0.950 . S
H500 C497 0.950 . S
C501 C492 1.390 . S
C501 H494 0.950 . S
C501 C498 1.387 . S
C502 C503 1.387 . S
C502 H506 0.950 . S
C502 C511 1.390 . S
C503 C502 1.387 . S
C503 C505 1.387 . S
H504 C511 0.950 . S
C505 C503 1.387 . S
C505 C507 1.390 . S
C505 H509 0.950 . S
H506 C502 0.950 . S
C507 C505 1.390 . S
C507 C508 1.387 . S
C507 H510 0.950 . S
C508 C507 1.387 . S
C508 C511 1.387 . S
H509 C505 0.950 . S
H510 C507 0.950 . S
C511 C502 1.390 . S
C511 H504 0.950 . S
C511 C508 1.387 . S
C512 C513 1.387 . S
C512 H516 0.950 . S
C512 C521 1.390 . S
C513 C512 1.387 . S
C513 C515 1.387 . S
H514 C521 0.950 . S
C515 C513 1.387 . S
C515 C517 1.390 . S
C515 H519 0.950 . S
H516 C512 0.950 . S
C517 C515 1.390 . S
C517 C518 1.387 . S
C517 H520 0.950 . S
C518 C517 1.387 . S
C518 C521 1.387 . S
H519 C515 0.950 . S
H520 C517 0.950 . S
C521 C512 1.390 . S
C521 H514 0.950 . S
C521 C518 1.387 . S
C522 C523 1.387 . S
C522 H526 0.950 . S
C522 C531 1.390 . S
C523 C522 1.387 . S
C523 C525 1.387 . S
H524 C531 0.950 . S
C525 C523 1.387 . S
C525 C527 1.390 . S
C525 H529 0.950 . S
H526 C522 0.950 . S
C527 C525 1.390 . S
C527 C528 1.387 . S
C527 H530 0.950 . S
C528 C527 1.387 . S
C528 C531 1.387 . S
H529 C525 0.950 . S
H530 C527 0.950 . S
C531 C522 1.390 . S
C531 H524 0.950 . S
C531 C528 1.387 . S
C532 C533 1.387 . S
C532 H536 0.950 . S
C532 C541 1.390 . S
C533 C532 1.387 . S
C533 C535 1.387 . S
H534 C541 0.950 . S
C535 C533 1.387 . S
C535 C537 1.390 . S
C535 H539 0.950 . S
H536 C532 0.950 . S
C537 C535 1.390 . S
C537 C538 1.387 . S
C537 H540 0.950 . S
C538 C537 1.387 . S
C538 C541 1.387 . S
H539 C535 0.950 . S
H540 C537 0.950 . S
C541 C532 1.390 . S
C541 H534 0.950 . S
C541 C538 1.387 . S
C542 C543 1.387 . S
C542 H546 0.950 . S
C542 C551 1.390 . S
C543 C542 1.387 . S
C543 C545 1.387 . S
H544 C551 0.950 . S
C545 C543 1.387 . S
C545 C547 1.390 . S
C545 H549 0.950 . S
H546 C542 0.950 . S
C547 C545 1.390 . S
C547 C548 1.387 . S
C547 H550 0.950 . S
C548 C547 1.387 . S
C548 C551 1.387 . S
H549 C545 0.950 . S
H550 C547 0.950 . S
C551 C542 1.390 . S
C551 H544 0.950 . S
C551 C548 1.387 . S
C552 C553 1.387 . S
C552 H556 0.950 . S
C552 C561 1.390 . S
C553 C552 1.387 . S
C553 C555 1.387 . S
H554 C561 0.950 . S
C555 C553 1.387 . S
C555 C557 1.390 . S
C555 H559 0.950 . S
H556 C552 0.950 . S
C557 C555 1.390 . S
C557 C558 1.387 . S
C557 H560 0.950 . S
C558 C557 1.387 . S
C558 C561 1.387 . S
H559 C555 0.950 . S
H560 C557 0.950 . S
C561 C552 1.390 . S
C561 H554 0.950 . S
C561 C558 1.387 . S
C562 C563 1.387 . S
C562 H566 0.950 . S
C562 C571 1.390 . S
C563 C562 1.387 . S
C563 C565 1.387 . S
H564 C571 0.950 . S
C565 C563 1.387 . S
C565 C567 1.390 . S
C565 H569 0.950 . S
H566 C562 0.950 . S
C567 C565 1.390 . S
C567 C568 1.387 . S
C567 H570 0.950 . S
C568 C567 1.387 . S
C568 C571 1.387 . S
H569 C565 0.950 . S
H570 C567 0.950 . S
C571 C562 1.390 . S
C571 H564 0.950 . S
C571 C568 1.387 . S
C572 C573 1.387 . S
C572 H576 0.950 . S
C572 C581 1.390 . S
C573 C572 1.387 . S
C573 C575 1.387 . S
H574 C581 0.950 . S
C575 C573 1.387 . S
C575 C577 1.390 . S
C575 H579 0.950 . S
H576 C572 0.950 . S
C577 C575 1.390 . S
C577 C578 1.387 . S
C577 H580 0.950 . S
C578 C577 1.387 . S
C578 C581 1.387 . S
H579 C575 0.950 . S
H580 C577 0.950 . S
C581 C572 1.390 . S
C581 H574 0.950 . S
C581 C578 1.387 . S
C582 C583 1.387 . S
C582 H586 0.950 . S
C582 C591 1.390 . S
C583 C582 1.387 . S
C583 C585 1.387 . S
H584 C591 0.950 . S
C585 C583 1.387 . S
C585 C587 1.390 . S
C585 H589 0.950 . S
H586 C582 0.950 . S
C587 C585 1.390 . S
C587 C588 1.387 . S
C587 H590 0.950 . S
C588 C587 1.387 . S
C588 C591 1.387 . S
H589 C585 0.950 . S
H590 C587 0.950 . S
C591 C582 1.390 . S
C591 H584 0.950 . S
C591 C588 1.387 . S
C592 C593 1.387 . S
C592 H596 0.950 . S
C592 C601 1.390 . S
C593 C592 1.387 . S
C593 C595 1.387 . S
H594 C601 0.950 . S
C595 C593 1.387 . S
C595 C597 1.390 . S
C595 H599 0.950 . S
H596 C592 0.950 . S
C597 C595 1.390 . S
C597 C598 1.387 . S
C597 H600 0.950 . S
C598 C597 1.387 . S
C598 C601 1.387 . S
H599 C595 0.950 . S
H600 C597 0.950 . S
C601 C592 1.390 . S
C601 H594 0.950 . S
C601 C598 1.387 . S
C602 C603 1.387 . S
C602 H606 0.950 . S
C602 C611 1.390 . S
C603 C602 1.387 . S
C603 C605 1.387 . S
H604 C611 0.950 . S
C605 C603 1.387 . S
C605 C607 1.390 . S
C605 H609 0.950 . S
H606 C602 0.950 . S
C607 C605 1.390 . S
C607 C608 1.387 . S
C607 H610 0.950 . S
C608 C607 1.387 . S
C608 C611 1.387 . S
H609 C605 0.950 . S
H610 C607 0.950 . S
C611 C602 1.390 . S
C611 H604 0.950 . S
C611 C608 1.387 . S
C612 C613 1.387 . S
C612 H616 0.950 . S
C612 C621 1.390 . S
C613 C612 1.387 . S
C613 C615 1.387 . S
H614 C621 0.950 . S
C615 C613 1.387 . S
C615 C617 1.390 . S
C615 H619 0.950 . S
H616 C612 0.950 . S
C617 C615 1.390 . S
C617 C618 1.387 . S
C617 H620 0.950 . S
C618 C617 1.387 . S
C618 C621 1.387 . S
H619 C615 0.950 . S
H620 C617 0.950 . S
C621 C612 1.390 . S
C621 H614 0.950 . S
C621 C618 1.387 . S
C622 C623 1.387 . S
C622 H626 0.950 . S
C622 C631 1.390 . S
C623 C622 1.387 . S
C623 C625 1.387 . S
H624 C631 0.950 . S
C625 C623 1.387 . S
C625 C627 1.390 . S
C625 H629 0.950 . S
H626 C622 0.950 . S
C627 C625 1.390 . S
C627 C628 1.387 . S
C627 H630 0.950 . S
C628 C627 1.387 . S
C628 C631 1.387 . S
H629 C625 0.950 . S
H630 C627 0.950 . S
C631 C622 1.390 . S
C631 H624 0.950 . S
C631 C628 1.387 . S
C632 C633 1.387 . S
C632 H636 0.950 . S
C632 C641 1.390 . S
C633 C632 1.387 . S
C633 C635 1.387 . S
H634 C641 0.950 . S
C635 C633 1.387 . S
C635 C637 1.390 . S
C635 H639 0.950 . S
H636 C632 0.950 . S
C637 C635 1.390 . S
C637 C638 1.387 . S
C637 H640 0.950 . S
C638 C637 1.387 . S
C638 C641 1.387 . S
H639 C635 0.950 . S
H640 C637 0.950 . S
C641 C632 1.390 . S
C641 H634 0.950 . S
C641 C638 1.387 . S
C642 C643 1.387 . S
C642 H646 0.950 . S
C642 C651 1.390 . S
C643 C642 1.387 . S
C643 C645 1.387 . S
H644 C651 0.950 . S
C645 C643 1.387 . S
C645 C647 1.390 . S
C645 H649 0.950 . S
H646 C642 0.950 . S
C647 C645 1.390 . S
C647 C648 1.387 . S
C647 H650 0.950 . S
C648 C647 1.387 . S
C648 C651 1.387 . S
H649 C645 0.950 . S
H650 C647 0.950 . S
C651 C642 1.390 . S
C651 H644 0.950 . S
C651 C648 1.387 . S
C652 C653 1.387 . S
C652 H656 0.950 . S
C652 C661 1.390 . S
C653 C652 1.387 . S
C653 C655 1.387 . S
H654 C661 0.950 . S
C655 C653 1.387 . S
C655 C657 1.390 . S
C655 H659 0.950 . S
H656 C652 0.950 . S
C657 C655 1.390 . S
C657 C658 1.387 . S
C657 H660 0.950 . S
C658 C657 1.387 . S
C658 C661 1.387 . S
H659 C655 0.950 . S
H660 C657 0.950 . S
C661 C652 1.390 . S
C661 H654 0.950 . S
C661 C658 1.387 . S
C662 C663 1.387 . S
C662 H666 0.950 . S
C662 C671 1.390 . S
C663 C662 1.387 . S
C663 C665 1.387 . S
H664 C671 0.950 . S
C665 C663 1.387 . S
C665 C667 1.390 . S
C665 H669 0.950 . S
H666 C662 0.950 . S
C667 C665 1.390 . S
C667 C668 1.387 . S
C667 H670 0.950 . S
C668 C667 1.387 . S
C668 C671 1.387 . S
H669 C665 0.950 . S
H670 C667 0.950 . S
C671 C662 1.390 . S
C671 H664 0.950 . S
C671 C668 1.387 . S
C672 C673 1.387 . S
C672 H676 0.950 . S
C672 C681 1.390 . S
C673 C672 1.387 . S
C673 C675 1.387 . S
H674 C681 0.950 . S
C675 C673 1.387 . S
C675 C677 1.390 . S
C675 H679 0.950 . S
H676 C672 0.950 . S
C677 C675 1.390 . S
C677 C678 1.387 . S
C677 H680 0.950 . S
C678 C677 1.387 . S
C678 C681 1.387 . S
H679 C675 0.950 . S
H680 C677 0.950 . S
C681 C672 1.390 . S
C681 H674 0.950 . S
C681 C678 1.387 . S
C682 C683 1.387 . S
C682 H686 0.950 . S
C682 C691 1.390 . S
C683 C682 1.387 . S
C683 C685 1.387 . S
H684 C691 0.950 . S
C685 C683 1.387 . S
C685 C687 1.390 . S
C685 H689 0.950 . S
H686 C682 0.950 . S
C687 C685 1.390 . S
C687 C688 1.387 . S
C687 H690 0.950 . S
C688 C687 1.387 . S
C688 C691 1.387 . S
H689 C685 0.950 . S
H690 C687 0.950 . S
C691 C682 1.390 . S
C691 H684 0.950 . S
C691 C688 1.387 . S
C692 C693 1.387 . S
C692 H696 0.950 . S
C692 C701 1.390 . S
C693 C692 1.387 . S
C693 C695 1.387 . S
H694 C701 0.950 . S
C695 C693 1.387 . S
C695 C697 1.390 . S
C695 H699 0.950 . S
H696 C692 0.950 . S
C697 C695 1.390 . S
C697 C698 1.387 . S
C697 H700 0.950 . S
C698 C697 1.387 . S
C698 C701 1.387 . S
H699 C695 0.950 . S
H700 C697 0.950 . S
C701 C692 1.390 . S
C701 H694 0.950 . S
C701 C698 1.387 . S
C702 C703 1.387 . S
C702 H706 0.950 . S
C702 C711 1.390 . S
C703 C702 1.387 . S
C703 C705 1.387 . S
H704 C711 0.950 . S
C705 C703 1.387 . S
C705 C707 1.390 . S
C705 H709 0.950 . S
H706 C702 0.950 . S
C707 C705 1.390 . S
C707 C708 1.387 . S
C707 H710 0.950 . S
C708 C707 1.387 . S
C708 C711 1.387 . S
H709 C705 0.950 . S
H710 C707 0.950 . S
C711 C702 1.390 . S
C711 H704 0.950 . S
C711 C708 1.387 . S
C473 C1 1.380 . S
C478 C327 1.457 . S
C483 C40 1.700 . S
C488 C371 1.706 . S
C498 C401 2.395 . S
C493 C99 2.333 . S
C503 C118 2.779 . S
C508 C442 2.744 . S
C518 C358 1.054 . S
C513 C16 0.998 . S
C528 C322 2.539 . S
C523 C60 2.454 . S
C538 C450 1.266 . S
C533 C79 1.242 . S
C548 C411 2.414 . S
C543 C138 2.464 . S
C553 C21 1.596 . S
C558 C447 1.686 . S
C568 C361 2.162 . S
C563 C94 2.180 . S
C573 C133 2.083 . S
C578 C330 2.037 . S
C583 C55 2.073 . S
C588 C398 2.092 . S
C598 C318 1.459 . S
C593 C157 1.399 . S
C603 C196 1.686 . S
C608 C362 1.707 . S
C613 C255 2.344 . S
C618 C410 2.395 . S
C623 C289 2.770 . S
C628 C451 2.740 . S
C633 C172 0.991 . S
C638 C367 1.049 . S
C648 C331 2.540 . S
C643 C216 2.433 . S
C658 C441 1.265 . S
C653 C235 1.246 . S
C668 C402 2.406 . S
C663 C294 2.475 . S
C673 C177 1.638 . S
C678 C438 1.683 . S
C688 C370 2.162 . S
C683 C250 2.176 . S
C698 C321 2.039 . S
C693 C274 2.085 . S
C703 C211 2.080 . S
C708 C407 2.093 . S
