# Generated by pormake.
# Topology tsx, (6,3)-cn, num edge types: 1
# Building blocks:
#     Node 0, Type 0, BuildingBlock: MIDCAF_clean_sbu_0, # of connection points: 6
#     Node 1, Type 0, BuildingBlock: MIDCAF_clean_sbu_0, # of connection points: 6
#     Node 2, Type 1, BuildingBlock: PAMTOO_clean_linker_0, # of connection points: 3
#     Node 3, Type 1, BuildingBlock: PAMTOO_clean_linker_0, # of connection points: 3
#     Node 4, Type 1, BuildingBlock: PAMTOO_clean_linker_0, # of connection points: 3
#     Node 5, Type 1, BuildingBlock: PAMTOO_clean_linker_0, # of connection points: 3
#     Edge 6, Type (0, 1), BuildingBlock: ZUJKAS_clean_linker_0, # of connection points: 2
#     Edge 7, Type (0, 1), BuildingBlock: ZUJKAS_clean_linker_0, # of connection points: 2
#     Edge 8, Type (0, 1), BuildingBlock: ZUJKAS_clean_linker_0, # of connection points: 2
#     Edge 9, Type (0, 1), BuildingBlock: ZUJKAS_clean_linker_0, # of connection points: 2
#     Edge 10, Type (0, 1), BuildingBlock: ZUJKAS_clean_linker_0, # of connection points: 2
#     Edge 11, Type (0, 1), BuildingBlock: ZUJKAS_clean_linker_0, # of connection points: 2
#     Edge 12, Type (0, 1), BuildingBlock: ZUJKAS_clean_linker_0, # of connection points: 2
#     Edge 13, Type (0, 1), BuildingBlock: ZUJKAS_clean_linker_0, # of connection points: 2
#     Edge 14, Type (0, 1), BuildingBlock: ZUJKAS_clean_linker_0, # of connection points: 2
#     Edge 15, Type (0, 1), BuildingBlock: ZUJKAS_clean_linker_0, # of connection points: 2
#     Edge 16, Type (0, 1), BuildingBlock: ZUJKAS_clean_linker_0, # of connection points: 2
#     Edge 17, Type (0, 1), BuildingBlock: ZUJKAS_clean_linker_0, # of connection points: 2
# Relax obj value: 0.095
# Max RMSD: 0.163
# Mean RMSD: 0.130
data_MOF--net-tsx--node1-MIDCAF_clean_sbu_0--node2-PAMTOO_clean_linker_0--edge1-ZUJKAS_clean_linker_0
_symmetry_space_group_name_H-M    P1
_symmetry_Int_Tables_number       1
_symmetry_cell_setting            triclinic
loop_
_symmetry_equiv_pos_as_xyz
'x, y, z'
_cell_length_a     25.907064
_cell_length_b     26.939017
_cell_length_c     45.917894
_cell_angle_alpha  82.692784
_cell_angle_beta   95.047907
_cell_angle_gamma 89.931864
loop_
_atom_site_label
_atom_site_type_symbol
_atom_site_fract_x
_atom_site_fract_y
_atom_site_fract_z
_atom_type_partial_charge
Zn0 Zn 0.96866 0.02825 0.97668 0.0
Zn1 Zn 0.14891 0.99818 0.03799 0.0
Zn2 Zn 0.05853 0.01582 0.0075 0.0
C3 C 0.13917 0.10242 0.022 0.0
C4 C 0.15411 0.9486 0.98984 0.0
O5 O 0.99821 0.97415 0.03264 0.0
O6 O 0.92502 0.99044 0.00445 0.0
C7 C 1.00333 0.12354 0.98544 0.0
O8 O 0.09296 0.09063 0.01259 0.0
O9 O 0.17159 0.06867 0.03299 0.0
O10 O 0.18036 0.95334 0.01375 0.0
O11 O 0.1092 0.97005 0.98363 0.0
O12 O 0.96593 0.10188 0.97308 0.0
O13 O 0.0422 0.09804 0.99924 0.0
O14 O 0.06398 0.98369 0.96553 0.0
O15 O 0.98547 0.99556 0.94248 0.0
C16 C 0.0313 0.97927 0.94316 0.0
O17 O 0.04355 0.97819 0.05152 0.0
O18 O 0.12143 0.96999 0.07563 0.0
C19 C 0.94889 0.96833 0.02761 0.0
C20 C 0.0729 0.96516 0.07543 0.0
Zn21 Zn 0.65103 0.51038 0.54407 0.0
Zn22 Zn 0.48032 0.53761 0.4728 0.0
Zn23 Zn 0.56674 0.52527 0.50824 0.0
C24 C 0.55178 0.4902 0.44312 0.0
C25 C 0.51103 0.63266 0.48441 0.0
O26 O 0.54606 0.48517 0.55083 0.0
O27 O 0.62096 0.47112 0.57769 0.0
C28 C 0.67036 0.46494 0.49549 0.0
O29 O 0.58042 0.49357 0.46721 0.0
O30 O 0.50578 0.50681 0.43988 0.0
O31 O 0.47575 0.61115 0.47019 0.0
O32 O 0.54865 0.6071 0.49952 0.0
O33 O 0.69315 0.47468 0.51949 0.0
O34 O 0.62353 0.48084 0.48765 0.0
O35 O 0.59745 0.60056 0.5155 0.0
O36 O 0.66599 0.58149 0.54722 0.0
C37 C 0.63671 0.61409 0.53181 0.0
O38 O 0.50332 0.48333 0.52978 0.0
O39 O 0.43391 0.49731 0.49811 0.0
C40 C 0.57227 0.46742 0.5751 0.0
C41 C 0.45496 0.47619 0.52236 0.0
H42 H 0.11873 0.94054 0.37692 0.0
H43 H 0.99111 0.04185 0.38033 0.0
H44 H 0.10763 0.01629 0.45319 0.0
H45 H 1.00033 0.04022 0.47314 0.0
C46 C 0.98284 0.05207 0.45033 0.0
O47 O 0.02179 0.06546 0.43226 0.0
H48 H 0.96073 0.01986 0.44282 0.0
C49 C 0.09765 0.96523 0.38869 0.0
C50 C 0.11808 0.97449 0.41684 0.0
C51 C 0.05206 0.98947 0.37502 0.0
C52 C 0.02647 0.02286 0.39023 0.0
C53 C 0.04628 0.03219 0.41837 0.0
C54 C 0.0923 0.00845 0.43155 0.0
H55 H 0.14417 0.0695 0.64531 0.0
H56 H 0.01064 0.98119 0.62461 0.0
H57 H 0.07966 0.07328 0.55544 0.0
H58 H 0.96402 0.06064 0.53897 0.0
C59 C 0.95936 0.03317 0.55876 0.0
O60 O 1.00626 0.00896 0.56765 0.0
H61 H 0.94664 0.05421 0.57631 0.0
C62 C 0.11562 0.05683 0.62926 0.0
C63 C 0.11683 0.07536 0.59937 0.0
C64 C 0.07729 0.02332 0.63882 0.0
C65 C 0.04065 0.00695 0.61777 0.0
C66 C 0.04153 0.02507 0.58777 0.0
C67 C 0.07938 0.05939 0.57864 0.0
H68 H 0.62494 0.447 0.8725 0.0
H69 H 0.49194 0.54055 0.87708 0.0
H70 H 0.60986 0.52034 0.94948 0.0
H71 H 0.49498 0.53464 0.96795 0.0
C72 C 0.47979 0.5496 0.94511 0.0
O73 O 0.52111 0.56467 0.92917 0.0
H74 H 0.45788 0.5194 0.93522 0.0
C75 C 0.60325 0.47087 0.88448 0.0
C76 C 0.62369 0.48119 0.91245 0.0
C77 C 0.55568 0.49174 0.8715 0.0
C78 C 0.5284 0.52356 0.88682 0.0
C79 C 0.54751 0.53312 0.91504 0.0
C80 C 0.59489 0.51175 0.92793 0.0
H81 H 0.65493 0.54749 0.15192 0.0
H82 H 0.52386 0.45469 0.13373 0.0
H83 H 0.57546 0.56112 0.06489 0.0
H84 H 0.4594 0.54401 0.05364 0.0
C85 C 0.45888 0.51437 0.07279 0.0
O86 O 0.50724 0.49151 0.07821 0.0
H87 H 0.44932 0.5324 0.09222 0.0
C88 C 0.62521 0.53501 0.13645 0.0
C89 C 0.62028 0.55832 0.1072 0.0
C90 C 0.59089 0.49761 0.1464 0.0
C91 C 0.5507 0.48361 0.12658 0.0
C92 C 0.54516 0.50652 0.09727 0.0
C93 C 0.57987 0.54384 0.08761 0.0
H94 H 0.08882 0.18674 0.03418 0.0
H95 H 0.12807 0.26938 0.03828 0.0
H96 H 0.26963 0.21693 0.00897 0.0
H97 H 0.23127 0.13521 0.00528 0.0
H98 H 0.22478 0.27815 0.07665 0.0
H99 H 0.24431 0.358 0.96097 0.0
H100 H 0.19707 0.31098 0.97103 0.0
H101 H 0.26354 0.29329 0.96923 0.0
C102 C 0.12774 0.19356 0.02786 0.0
C103 C 0.15707 0.15475 0.01941 0.0
C104 C 0.15021 0.24053 0.03035 0.0
C105 C 0.20167 0.24939 0.02368 0.0
C106 C 0.22971 0.21128 0.0138 0.0
H107 H 0.46459 0.43625 0.03973 0.0
H108 H 0.39698 0.37647 0.02811 0.0
C109 C 0.20778 0.1645 0.01182 0.0
C110 C 0.22906 0.2958 0.02994 0.0
H111 H 0.30213 0.38946 0.99793 0.0
C112 C 0.24077 0.30332 0.05946 0.0
C113 C 0.25036 0.3281 0.00747 0.0
C114 C 0.23786 0.32257 0.97536 0.0
C115 C 0.27574 0.34035 0.06725 0.0
C116 C 0.29865 0.37157 0.0448 0.0
C117 C 0.28493 0.36545 0.01517 0.0
C118 C 0.33908 0.40874 0.05159 0.0
C119 C 0.29017 0.34359 0.09952 0.0
C120 C 0.32894 0.44739 0.06823 0.0
C121 C 0.36784 0.48104 0.07529 0.0
C122 C 0.41764 0.47686 0.0658 0.0
C123 C 0.4271 0.43946 0.04812 0.0
C124 C 0.38834 0.40556 0.04127 0.0
H125 H 0.27932 0.30931 0.11369 0.0
H126 H 0.33242 0.3494 0.10387 0.0
H127 H 0.26933 0.37579 0.10614 0.0
H128 H 0.29087 0.4517 0.07568 0.0
H129 H 0.35897 0.51046 0.08816 0.0
H130 H 0.24199 0.96279 0.9627 0.0
H131 H 0.29216 0.89823 0.9444 0.0
H132 H 0.16793 0.79389 0.95908 0.0
H133 H 0.11677 0.85956 0.97595 0.0
H134 H 0.32576 0.8211 0.98057 0.0
H135 H 0.21619 0.75004 0.88593 0.0
H136 H 0.19981 0.80853 0.89838 0.0
H137 H 0.17788 0.75019 0.9166 0.0
C138 C 0.22452 0.92674 0.96058 0.0
C139 C 0.17552 0.91605 0.97039 0.0
C140 C 0.25331 0.88972 0.95037 0.0
C141 C 0.23408 0.84095 0.95039 0.0
C142 C 0.18338 0.83132 0.95821 0.0
H143 H 0.43065 0.57626 0.99142 0.0
H144 H 0.36999 0.64611 0.99144 0.0
C145 C 0.15408 0.86883 0.96788 0.0
C146 C 0.26996 0.79918 0.94703 0.0
H147 H 0.28364 0.69581 0.91209 0.0
C148 C 0.31666 0.79413 0.96528 0.0
C149 C 0.25851 0.76393 0.92707 0.0
C150 C 0.21061 0.7687 0.90568 0.0
C151 C 0.35165 0.75466 0.96454 0.0
C152 C 0.33902 0.71797 0.9457 0.0
C153 C 0.29296 0.7235 0.92688 0.0
C154 C 0.37342 0.67388 0.94527 0.0
C155 C 0.40218 0.75313 0.98374 0.0
C156 C 0.39392 0.66496 0.91908 0.0
C157 C 0.42821 0.62478 0.919 0.0
C158 C 0.44305 0.59312 0.94519 0.0
C159 C 0.42102 0.60096 0.97113 0.0
C160 C 0.38646 0.64089 0.97115 0.0
H161 H 0.41258 0.79073 0.9898 0.0
H162 H 0.39835 0.72781 0.00445 0.0
H163 H 0.43441 0.73897 0.97252 0.0
H164 H 0.384 0.68955 0.89878 0.0
H165 H 0.44356 0.61871 0.89853 0.0
H166 H 0.98558 0.88177 0.06127 0.0
H167 H 0.93262 0.81079 0.07962 0.0
H168 H 0.79392 0.89947 0.05303 0.0
H169 H 0.84615 0.97007 0.03471 0.0
H170 H 0.84155 0.79909 0.11931 0.0
H171 H 0.79208 0.77908 0.00108 0.0
H172 H 0.84761 0.81364 0.01363 0.0
H173 H 0.78379 0.84078 0.01115 0.0
C174 C 0.94393 0.88664 0.06032 0.0
C175 C 0.91994 0.93125 0.04625 0.0
C176 C 0.91373 0.846 0.07063 0.0
C177 C 0.85939 0.84972 0.06705 0.0
C178 C 0.83577 0.89569 0.05558 0.0
H179 H 0.59784 0.64994 0.07507 0.0
H180 H 0.65741 0.71971 0.06549 0.0
C181 C 0.86572 0.93603 0.04522 0.0
C182 C 0.82692 0.80474 0.07218 0.0
H183 H 0.74646 0.72818 0.03573 0.0
C184 C 0.82103 0.78323 0.10111 0.0
C185 C 0.80014 0.78438 0.04832 0.0
C186 C 0.80634 0.80528 0.01674 0.0
C187 C 0.78779 0.74255 0.10683 0.0
C188 C 0.76067 0.72238 0.08292 0.0
C189 C 0.76712 0.7437 0.05401 0.0
C190 C 0.72519 0.67933 0.08742 0.0
C191 C 0.78079 0.72252 0.13843 0.0
C192 C 0.74387 0.63298 0.10191 0.0
C193 C 0.71005 0.59316 0.10727 0.0
C194 C 0.65684 0.59871 0.09806 0.0
C195 C 0.63861 0.64443 0.08229 0.0
C196 C 0.67253 0.68439 0.07701 0.0
H197 H 0.79322 0.74989 0.15375 0.0
H198 H 0.73971 0.71283 0.14122 0.0
H199 H 0.80475 0.68805 0.14486 0.0
H200 H 0.78458 0.62772 0.10935 0.0
H201 H 0.72544 0.5581 0.11902 0.0
H202 H 0.96453 0.1678 0.02824 0.0
H203 H 0.91602 0.24708 0.01951 0.0
H204 H 0.97571 0.27922 0.93447 0.0
H205 H 0.02251 0.1988 0.94278 0.0
H206 H 0.92305 0.35068 0.00158 0.0
H207 H 0.82297 0.25098 0.91437 0.0
H208 H 0.87145 0.221 0.94146 0.0
H209 H 0.89037 0.26193 0.91021 0.0
C210 C 0.96944 0.19309 0.00838 0.0
C211 C 0.99727 0.17752 0.9862 0.0
C212 C 0.94139 0.23825 0.0033 0.0
C213 C 0.94101 0.26834 0.97598 0.0
C214 C 0.9746 0.25601 0.95547 0.0
H215 H 0.71161 0.47963 0.88402 0.0
H216 H 0.79282 0.43495 0.90134 0.0
C217 C 1.00196 0.21044 0.96037 0.0
C218 C 0.89905 0.30637 0.96703 0.0
H219 H 0.79116 0.33085 0.91888 0.0
C220 C 0.89439 0.34663 0.98338 0.0
C221 C 0.86094 0.30043 0.94365 0.0
C222 C 0.86118 0.25605 0.92657 0.0
C223 C 0.8531 0.38149 0.9766 0.0
C224 C 0.81551 0.3756 0.95306 0.0
C225 C 0.82034 0.33552 0.93675 0.0
C226 C 0.76995 0.40962 0.94488 0.0
C227 C 0.85006 0.42448 0.99444 0.0
C228 C 0.73036 0.41105 0.96382 0.0
C229 C 0.68351 0.4364 0.95387 0.0
C230 C 0.67543 0.46026 0.92473 0.0
C231 C 0.71626 0.46084 0.90641 0.0
C232 C 0.76286 0.43565 0.91633 0.0
H233 H 0.88743 0.43004 0.00738 0.0
H234 H 0.83897 0.45971 0.9799 0.0
H235 H 0.81987 0.41665 0.01006 0.0
H236 H 0.73462 0.39047 0.98576 0.0
H237 H 0.65272 0.4351 0.96843 0.0
H238 H 0.68067 0.65599 0.5781 0.0
H239 H 0.72376 0.73647 0.5769 0.0
H240 H 0.67127 0.77218 0.48484 0.0
H241 H 0.62715 0.69107 0.48602 0.0
H242 H 0.80355 0.75451 0.53695 0.0
H243 H 0.65387 0.90659 0.52168 0.0
H244 H 0.64026 0.84365 0.53766 0.0
H245 H 0.64651 0.85683 0.4989 0.0
C246 C 0.67699 0.68154 0.55777 0.0
C247 C 0.65085 0.66719 0.5321 0.0
C248 C 0.70167 0.72751 0.55713 0.0
C249 C 0.70098 0.76018 0.53079 0.0
C250 C 0.67185 0.74768 0.50548 0.0
H251 H 0.9059 0.02107 0.50546 0.0
H252 H 0.84112 0.95725 0.49539 0.0
C253 C 0.64658 0.70145 0.50618 0.0
C254 C 0.73656 0.80338 0.52949 0.0
H255 H 0.74156 0.9307 0.52655 0.0
C256 C 0.78997 0.79307 0.53438 0.0
C257 C 0.71877 0.85359 0.5259 0.0
C258 C 0.66174 0.86627 0.52085 0.0
C259 C 0.82599 0.83141 0.5368 0.0
C260 C 0.80819 0.88144 0.53457 0.0
C261 C 0.75496 0.89219 0.52838 0.0
C262 C 0.84444 0.92217 0.5406 0.0
C263 C 0.88292 0.8181 0.54229 0.0
C264 C 0.8672 0.92375 0.56936 0.0
C265 C 0.90392 0.95999 0.57513 0.0
C266 C 0.91862 0.99526 0.55223 0.0
C267 C 0.89524 0.9942 0.52348 0.0
C268 C 0.85819 0.95799 0.51773 0.0
H269 H 0.89115 0.77995 0.53695 0.0
H270 H 0.90631 0.84546 0.52901 0.0
H271 H 0.89562 0.81925 0.56591 0.0
H272 H 0.85692 0.8965 0.5873 0.0
H273 H 0.92128 0.96025 0.59744 0.0
H274 H 0.77293 0.4612 0.48896 0.0
H275 H 0.82067 0.39258 0.47325 0.0
H276 H 0.6767 0.32082 0.4504 0.0
H277 H 0.62847 0.38993 0.46611 0.0
H278 H 0.80627 0.2948 0.50425 0.0
H279 H 0.76974 0.29877 0.38264 0.0
H280 H 0.76274 0.35393 0.4007 0.0
H281 H 0.71473 0.3061 0.40318 0.0
C282 C 0.75136 0.43161 0.47969 0.0
C283 C 0.69702 0.43086 0.47874 0.0
C284 C 0.77868 0.39241 0.47076 0.0
C285 C 0.75229 0.35158 0.46072 0.0
C286 C 0.69782 0.35229 0.45773 0.0
H287 H 0.87806 0.06022 0.4336 0.0
H288 H 0.82016 0.13181 0.4354 0.0
C289 C 0.67029 0.39183 0.46663 0.0
C290 C 0.78214 0.30571 0.45779 0.0
H291 H 0.82029 0.23124 0.40849 0.0
C292 C 0.80933 0.28089 0.4833 0.0
C293 C 0.78534 0.28726 0.43054 0.0
C294 C 0.7569 0.31285 0.40257 0.0
C295 C 0.84023 0.2385 0.48232 0.0
C296 C 0.84521 0.22104 0.45491 0.0
C297 C 0.81684 0.24498 0.42943 0.0
C298 C 0.88051 0.17856 0.45242 0.0
C299 C 0.86681 0.21249 0.51078 0.0
C300 C 0.93375 0.18133 0.46099 0.0
C301 C 0.96668 0.14045 0.46021 0.0
C302 C 0.94714 0.09628 0.45045 0.0
C303 C 0.89408 0.09387 0.44123 0.0
C304 C 0.86106 0.13473 0.44216 0.0
H305 H 0.84727 0.22106 0.53018 0.0
H306 H 0.86771 0.17126 0.51082 0.0
H307 H 0.90733 0.22563 0.51339 0.0
H308 H 0.94981 0.21507 0.46848 0.0
H309 H 1.00745 0.14319 0.46734 0.0
H310 H 0.35059 0.47532 0.5242 0.0
H311 H 0.29832 0.40597 0.54391 0.0
H312 H 0.43722 0.32316 0.5794 0.0
H313 H 0.49 0.39223 0.55887 0.0
H314 H 0.37314 0.27116 0.54392 0.0
H315 H 0.25863 0.34803 0.6243 0.0
H316 H 0.25513 0.38769 0.5897 0.0
H317 H 0.31636 0.37782 0.61154 0.0
C318 C 0.37004 0.44291 0.53689 0.0
C319 C 0.42443 0.43936 0.54013 0.0
C320 C 0.34006 0.40337 0.54833 0.0
C321 C 0.36378 0.35953 0.56339 0.0
C322 C 0.41812 0.35684 0.56803 0.0
H323 H 0.22076 0.07199 0.61569 0.0
H324 H 0.28325 0.13923 0.60697 0.0
C325 C 0.44825 0.39655 0.55657 0.0
C326 C 0.33186 0.31476 0.57079 0.0
H327 H 0.22374 0.27546 0.60415 0.0
C328 C 0.34102 0.27175 0.55751 0.0
C329 C 0.28979 0.3157 0.58838 0.0
C330 C 0.2797 0.35963 0.60453 0.0
C331 C 0.30798 0.23047 0.56039 0.0
C332 C 0.26491 0.23222 0.5771 0.0
C333 C 0.2565 0.27459 0.59103 0.0
C334 C 0.22812 0.19034 0.58049 0.0
C335 C 0.31822 0.18595 0.54476 0.0
C336 C 0.1766 0.19674 0.56823 0.0
C337 C 0.14086 0.15832 0.57307 0.0
C338 C 0.156 0.1132 0.59061 0.0
C339 C 0.20801 0.10648 0.60218 0.0
C340 C 0.24375 0.14472 0.59716 0.0
H341 H 0.34743 0.1941 0.52853 0.0
H342 H 0.33296 0.15423 0.56122 0.0
H343 H 0.28185 0.17387 0.53317 0.0
H344 H 0.16388 0.23181 0.55534 0.0
H345 H 0.10093 0.16471 0.56417 0.0
H346 H 0.53511 0.71329 0.44626 0.0
H347 H 0.48921 0.79409 0.43981 0.0
H348 H 0.41335 0.74814 0.51873 0.0
H349 H 0.46173 0.66948 0.52598 0.0
H350 H 0.39407 0.79579 0.42595 0.0
H351 H 0.4152 0.89172 0.52473 0.0
H352 H 0.45995 0.843 0.51931 0.0
H353 H 0.4005 0.8277 0.53609 0.0
C354 C 0.51118 0.72208 0.46316 0.0
C355 C 0.50247 0.68578 0.48686 0.0
C356 C 0.48441 0.76799 0.45934 0.0
C357 C 0.44743 0.77766 0.47872 0.0
C358 C 0.4424 0.74282 0.50382 0.0
H359 H 0.14019 0.87492 0.42365 0.0
H360 H 0.22372 0.83348 0.43955 0.0
C361 C 0.47011 0.69756 0.50799 0.0
C362 C 0.40696 0.81749 0.46966 0.0
H363 H 0.32886 0.89983 0.49684 0.0
C364 C 0.38093 0.8194 0.44134 0.0
C365 C 0.38953 0.84916 0.4893 0.0
C366 C 0.41831 0.85311 0.5189 0.0
C367 C 0.3364 0.84916 0.4329 0.0
C368 C 0.3158 0.87649 0.45365 0.0
C369 C 0.34372 0.8777 0.4812 0.0
C370 C 0.26408 0.90152 0.44741 0.0
C371 C 0.31142 0.85025 0.40184 0.0
C372 C 0.25807 0.95315 0.44831 0.0
C373 C 0.20985 0.97681 0.43973 0.0
C374 C 0.16712 0.94917 0.43002 0.0
C375 C 0.17269 0.89719 0.43063 0.0
C376 C 0.22048 0.87357 0.43953 0.0
H377 H 0.34032 0.84255 0.38643 0.0
H378 H 0.28166 0.8207 0.40138 0.0
H379 H 0.29246 0.88699 0.39371 0.0
H380 H 0.29103 0.97539 0.4546 0.0
H381 H 0.20655 0.01697 0.43941 0.0
H382 H 0.97819 0.99168 0.09139 0.0
H383 H 0.95332 0.98778 0.14195 0.0
H384 H 0.09356 0.90503 0.17435 0.0
H385 H 0.11872 0.90872 0.1241 0.0
H386 H 0.95803 0.89779 0.19866 0.0
H387 H 0.09322 0.05826 0.19965 0.0
H388 H 0.06053 0.04139 0.166 0.0
H389 H 0.11449 0.00447 0.18412 0.0
C390 C 1.00266 0.97085 0.10913 0.0
C391 C 0.05066 0.9509 0.10384 0.0
C392 C 0.98843 0.96879 0.138 0.0
C393 C 0.02188 0.94646 0.16176 0.0
C394 C 0.06732 0.92241 0.15623 0.0
H395 H 0.0504 0.90224 0.34988 0.0
H396 H 0.03282 0.89284 0.29779 0.0
C397 C 0.08167 0.92469 0.12752 0.0
C398 C 0.01467 0.95557 0.19221 0.0
H399 H 0.0644 0.02446 0.24515 0.0
C400 C 0.98071 0.92579 0.20886 0.0
C401 C 0.04387 0.99261 0.20518 0.0
C402 C 0.07992 0.02638 0.18788 0.0
C403 C 0.97664 0.93106 0.23869 0.0
C404 C 1.00798 0.96642 0.2521 0.0
C405 C 0.04037 0.99735 0.23496 0.0
C406 C 0.01072 0.97041 0.28417 0.0
C407 C 0.93894 0.89873 0.25552 0.0
C408 C 1.00435 0.01716 0.29398 0.0
C409 C 0.01556 0.02292 0.32369 0.0
C410 C 0.03349 0.982 0.34426 0.0
C411 C 0.0374 0.9347 0.33459 0.0
C412 C 0.0265 0.92906 0.30483 0.0
H413 H 0.90661 0.88685 0.24051 0.0
H414 H 0.9594 0.86445 0.26682 0.0
H415 H 0.92254 0.91862 0.27242 0.0
H416 H 0.99263 0.0497 0.2784 0.0
H417 H 0.01263 0.05998 0.33022 0.0
H418 H 0.12316 0.99244 0.91813 0.0
H419 H 0.13688 0.98148 0.86706 0.0
H420 H 0.98811 0.91088 0.85765 0.0
H421 H 0.97368 0.92294 0.90816 0.0
H422 H 0.12935 0.90281 0.82727 0.0
H423 H 0.97278 0.04756 0.80417 0.0
H424 H 1.00577 0.03128 0.84038 0.0
H425 H 0.95624 0.99137 0.82669 0.0
C426 C 0.09433 0.97295 0.90548 0.0
C427 C 0.04699 0.95931 0.91678 0.0
C428 C 0.10214 0.96676 0.87632 0.0
C429 C 0.06292 0.94642 0.85845 0.0
C430 C 0.01842 0.92741 0.87096 0.0
H431 H 0.0596 0.92955 0.66759 0.0
H432 H 0.05677 0.90566 0.72093 0.0
C433 C 0.01027 0.93427 0.8998 0.0
C434 C 0.06417 0.95285 0.826 0.0
H435 H 1.0044 0.0174 0.76328 0.0
C436 C 0.10198 0.92761 0.81319 0.0
C437 C 0.02873 0.98582 0.80779 0.0
C438 C 0.98883 0.01595 0.82037 0.0
C439 C 0.10523 0.93462 0.78248 0.0
C440 C 0.06944 0.9673 0.76434 0.0
C441 C 0.03149 0.99206 0.77724 0.0
C442 C 0.07288 0.98004 0.7322 0.0
C443 C 0.14778 0.90839 0.76974 0.0
C444 C 0.08158 0.02984 0.72089 0.0
C445 C 0.08246 0.04362 0.69065 0.0
C446 C 0.07479 0.00787 0.67093 0.0
C447 C 0.06555 0.95794 0.68223 0.0
C448 C 0.0646 0.94412 0.71268 0.0
H449 H 0.17769 0.89178 0.78708 0.0
H450 H 0.13085 0.87784 0.75802 0.0
H451 H 0.1668 0.93478 0.75353 0.0
H452 H 0.08747 0.05826 0.73553 0.0
H453 H 0.08863 0.08257 0.68269 0.0
H454 H 0.60619 0.39421 0.61862 0.0
H455 H 0.58082 0.38395 0.66895 0.0
H456 H 0.45758 0.4926 0.64297 0.0
H457 H 0.48203 0.5019 0.59224 0.0
H458 H 0.59281 0.47001 0.695 0.0
H459 H 0.39491 0.39529 0.70685 0.0
H460 H 0.43165 0.38487 0.67643 0.0
H461 H 0.4 0.44411 0.6767 0.0
C462 C 0.57225 0.41423 0.62337 0.0
C463 C 0.54643 0.44927 0.60172 0.0
C464 C 0.55778 0.40836 0.65213 0.0
C465 C 0.5176 0.43779 0.65979 0.0
C466 C 0.48828 0.46904 0.63752 0.0
H467 H 0.51641 0.5593 0.82528 0.0
H468 H 0.49741 0.54472 0.77383 0.0
C469 C 0.50235 0.47441 0.60852 0.0
C470 C 0.51433 0.44357 0.69125 0.0
H471 H 0.43528 0.43251 0.74752 0.0
C472 C 0.55842 0.46144 0.70648 0.0
C473 C 0.46927 0.43291 0.70608 0.0
C474 C 0.42131 0.41284 0.69082 0.0
C475 C 0.55882 0.46889 0.73608 0.0
C476 C 0.51384 0.45856 0.7509 0.0
C477 C 0.46955 0.44063 0.73588 0.0
C478 C 0.5139 0.46525 0.78232 0.0
C479 C 0.60745 0.48766 0.75151 0.0
C480 C 0.52825 0.4251 0.80404 0.0
C481 C 0.5394 0.43331 0.83335 0.0
C482 C 0.53634 0.48186 0.84139 0.0
C483 C 0.5188 0.52147 0.81981 0.0
C484 C 0.50786 0.51323 0.79045 0.0
H485 H 0.64017 0.49105 0.7373 0.0
H486 H 0.59967 0.52496 0.75817 0.0
H487 H 0.61937 0.46191 0.77185 0.0
H488 H 0.53352 0.38792 0.79805 0.0
H489 H 0.55215 0.40197 0.84958 0.0
H490 H 0.4973 0.43965 0.40378 0.0
H491 H 0.52369 0.41926 0.35715 0.0
H492 H 0.6775 0.47269 0.37884 0.0
H493 H 0.6504 0.49487 0.42551 0.0
H494 H 0.63498 0.5189 0.32757 0.0
H495 H 0.60807 0.31645 0.32598 0.0
H496 H 0.55169 0.34364 0.3379 0.0
H497 H 0.61289 0.34446 0.35983 0.0
C498 C 0.53716 0.44589 0.39897 0.0
C499 C 0.57184 0.4688 0.41825 0.0
C500 C 0.55243 0.43359 0.37242 0.0
C501 C 0.60284 0.44367 0.3646 0.0
C502 C 0.63856 0.46405 0.38458 0.0
H503 H 0.67999 0.46784 0.18072 0.0
H504 H 0.69031 0.44667 0.2344 0.0
C505 C 0.62317 0.47648 0.41128 0.0
C506 C 0.61441 0.44103 0.33375 0.0
H507 H 0.5951 0.36847 0.27795 0.0
C508 C 0.62778 0.48559 0.31691 0.0
C509 C 0.60489 0.39761 0.31976 0.0
C510 C 0.59414 0.34776 0.33695 0.0
C511 C 0.62819 0.48882 0.28622 0.0
C512 C 0.61496 0.44643 0.27206 0.0
C513 C 0.60456 0.40105 0.28894 0.0
C514 C 0.60836 0.45034 0.23958 0.0
C515 C 0.6399 0.5383 0.26883 0.0
C516 C 0.55868 0.45785 0.22481 0.0
C517 C 0.55261 0.47044 0.19419 0.0
C518 C 0.59623 0.47574 0.17793 0.0
C519 C 0.6457 0.46489 0.19271 0.0
C520 C 0.65171 0.45247 0.2233 0.0
H521 H 0.64677 0.56845 0.28308 0.0
H522 H 0.67492 0.5342 0.257 0.0
H523 H 0.60722 0.54987 0.25202 0.0
H524 H 0.52482 0.45658 0.23714 0.0
H525 H 0.51408 0.47886 0.18352 0.0
loop_
_geom_bond_atom_site_label_1
_geom_bond_atom_site_label_2
_geom_bond_distance
_geom_bond_site_symmetry_2
_ccdc_geom_bond_type
Zn0 O6 1.920 1_545 S
Zn0 O12 1.898 . S
Zn0 O15 1.905 1_545 S
Zn1 O9 1.905 . S
Zn1 O10 1.898 1_545 S
Zn1 O18 1.920 1_545 S
Zn2 O5 2.091 1_545 S
Zn2 O8 2.114 . S
Zn2 O11 2.120 1_545 S
Zn2 O13 2.120 1_455 S
Zn2 O14 2.114 1_554 S
Zn2 O17 2.080 . S
C3 O8 1.166 . S
C3 O9 1.182 . S
C4 O10 1.167 . S
C4 O11 1.299 . S
O5 Zn2 2.091 1_565 S
O5 C19 1.289 1_455 S
O6 Zn0 1.920 1_565 S
O6 C19 1.234 1_556 S
C7 O12 1.167 . S
C7 O13 1.299 1_556 S
O8 Zn2 2.114 . S
O8 C3 1.166 . S
O9 Zn1 1.905 . S
O9 C3 1.182 . S
O10 Zn1 1.898 1_565 S
O10 C4 1.167 . S
O11 Zn2 2.120 1_565 S
O11 C4 1.299 . S
O12 Zn0 1.898 . S
O12 C7 1.167 . S
O13 Zn2 2.120 1_655 S
O13 C7 1.299 1_554 S
O14 Zn2 2.114 1_556 S
O14 C16 1.166 1_545 S
O15 Zn0 1.905 1_565 S
O15 C16 1.182 1_655 S
C16 O14 1.166 1_565 S
C16 O15 1.182 1_455 S
O17 Zn2 2.080 . S
O17 C20 1.305 1_545 S
O18 Zn1 1.920 1_565 S
O18 C20 1.234 . S
C19 O5 1.289 1_655 S
C19 O6 1.234 1_554 S
C20 O17 1.305 1_565 S
C20 O18 1.234 . S
Zn21 O27 1.920 . S
Zn21 O33 1.898 . S
Zn21 O36 1.905 . S
Zn22 O30 1.905 . S
Zn22 O31 1.898 . S
Zn22 O39 1.920 . S
Zn23 O26 2.080 . S
Zn23 O29 2.114 . S
Zn23 O32 2.120 . S
Zn23 O34 2.120 . S
Zn23 O35 2.114 . S
Zn23 O38 2.080 . S
C24 O29 1.166 . S
C24 O30 1.182 . S
C25 O31 1.167 . S
C25 O32 1.299 . S
O26 Zn23 2.080 . S
O26 C40 1.305 . S
O27 Zn21 1.920 . S
O27 C40 1.234 . S
C28 O33 1.167 . S
C28 O34 1.299 . S
O29 Zn23 2.114 . S
O29 C24 1.166 . S
O30 Zn22 1.905 . S
O30 C24 1.182 . S
O31 Zn22 1.898 . S
O31 C25 1.167 . S
O32 Zn23 2.120 . S
O32 C25 1.299 . S
O33 Zn21 1.898 . S
O33 C28 1.167 . S
O34 Zn23 2.120 . S
O34 C28 1.299 . S
O35 Zn23 2.114 . S
O35 C37 1.166 . S
O36 Zn21 1.905 . S
O36 C37 1.182 . S
C37 O35 1.166 . S
C37 O36 1.182 . S
O38 Zn23 2.080 . S
O38 C41 1.305 . S
O39 Zn22 1.920 . S
O39 C41 1.234 . S
C40 O26 1.305 . S
C40 O27 1.234 . S
C41 O38 1.305 . S
C41 O39 1.234 . S
H42 C49 0.929 . S
H43 C52 0.930 . S
H44 C54 0.929 1_565 S
H45 C46 0.969 . S
C46 H45 0.969 . S
C46 O47 1.550 1_655 S
C46 H48 0.973 . S
O47 C46 1.550 1_455 S
O47 C53 1.412 . S
H48 C46 0.973 . S
C49 H42 0.929 . S
C49 C50 1.400 . S
C49 C51 1.364 1_565 S
C50 C49 1.400 . S
C50 C54 1.377 1_565 S
C51 C49 1.364 1_545 S
C51 C52 1.374 . S
C52 H43 0.930 . S
C52 C51 1.374 . S
C52 C53 1.383 . S
C53 O47 1.412 . S
C53 C52 1.383 . S
C53 C54 1.394 . S
C54 H44 0.929 1_545 S
C54 C50 1.377 1_545 S
C54 C53 1.394 . S
H55 C62 0.929 . S
H56 C65 0.930 1_565 S
H57 C67 0.929 . S
H58 C59 0.969 . S
C59 H58 0.969 . S
C59 O60 1.550 . S
C59 H61 0.973 . S
O60 C59 1.550 . S
O60 C66 1.412 1_565 S
H61 C59 0.973 . S
C62 H55 0.929 . S
C62 C63 1.400 . S
C62 C64 1.364 . S
C63 C62 1.400 . S
C63 C67 1.377 . S
C64 C62 1.364 . S
C64 C65 1.374 1_455 S
C65 H56 0.930 1_545 S
C65 C64 1.374 1_655 S
C65 C66 1.383 . S
C66 O60 1.412 1_545 S
C66 C65 1.383 . S
C66 C67 1.394 1_655 S
C67 H57 0.929 . S
C67 C63 1.377 . S
C67 C66 1.394 1_455 S
H68 C75 0.929 . S
H69 C78 0.930 . S
H70 C80 0.929 . S
H71 C72 0.969 . S
C72 H71 0.969 . S
C72 O73 1.550 . S
C72 H74 0.973 . S
O73 C72 1.550 . S
O73 C79 1.412 . S
H74 C72 0.973 . S
C75 H68 0.929 . S
C75 C76 1.400 . S
C75 C77 1.364 . S
C76 C75 1.400 . S
C76 C80 1.377 . S
C77 C75 1.364 . S
C77 C78 1.374 . S
C78 H69 0.930 . S
C78 C77 1.374 . S
C78 C79 1.383 . S
C79 O73 1.412 . S
C79 C78 1.383 . S
C79 C80 1.394 . S
C80 H70 0.929 . S
C80 C76 1.377 . S
C80 C79 1.394 . S
H81 C88 0.929 . S
H82 C91 0.930 . S
H83 C93 0.929 . S
H84 C85 0.969 . S
C85 H84 0.969 . S
C85 O86 1.550 . S
C85 H87 0.973 . S
O86 C85 1.550 . S
O86 C92 1.412 . S
H87 C85 0.973 . S
C88 H81 0.929 . S
C88 C89 1.400 . S
C88 C90 1.364 . S
C89 C88 1.400 . S
C89 C93 1.377 . S
C90 C88 1.364 . S
C90 C91 1.374 . S
C91 H82 0.930 . S
C91 C90 1.374 . S
C91 C92 1.383 . S
C92 O86 1.412 . S
C92 C91 1.383 . S
C92 C93 1.394 . S
C93 H83 0.929 . S
C93 C89 1.377 . S
C93 C92 1.394 . S
H94 C102 0.929 . S
H95 C104 0.930 . S
H96 C106 0.930 . S
H97 C109 0.929 . S
H98 C112 0.930 . S
H99 C114 0.960 . S
H100 C114 0.960 . S
H101 C114 0.960 . S
C102 H94 0.929 . S
C102 C103 1.377 . S
C102 C104 1.384 . S
C103 C102 1.377 . S
C103 C109 1.390 . S
C104 H95 0.930 . S
C104 C102 1.384 . S
C104 C105 1.372 . S
C105 C104 1.372 . S
C105 C106 1.400 . S
C105 C110 1.490 . S
C106 H96 0.930 . S
C106 C105 1.400 . S
C106 C109 1.386 . S
H107 C123 0.930 . S
H108 C124 0.931 . S
C109 H97 0.929 . S
C109 C103 1.390 . S
C109 C106 1.386 . S
C110 C105 1.490 . S
C110 C112 1.395 . S
C110 C113 1.403 . S
H111 C117 0.930 . S
C112 H98 0.930 . S
C112 C110 1.395 . S
C112 C115 1.403 . S
C113 C110 1.403 . S
C113 C114 1.524 1_554 S
C113 C117 1.400 . S
C114 H99 0.960 . S
C114 H100 0.960 . S
C114 H101 0.960 . S
C114 C113 1.524 1_556 S
C115 C112 1.403 . S
C115 C116 1.392 . S
C115 C119 1.495 . S
C116 C115 1.392 . S
C116 C117 1.385 . S
C116 C118 1.478 . S
C117 H111 0.930 . S
C117 C113 1.400 . S
C117 C116 1.385 . S
C118 C116 1.478 . S
C118 C120 1.381 . S
C118 C124 1.383 . S
C119 C115 1.495 . S
C119 H125 0.959 . S
C119 H126 0.961 . S
C119 H127 0.960 . S
C120 C118 1.381 . S
C120 C121 1.394 . S
C120 H128 0.930 . S
C121 C120 1.394 . S
C121 C122 1.383 . S
C121 H129 0.929 . S
C122 C121 1.383 . S
C122 C123 1.377 . S
C123 H107 0.930 . S
C123 C122 1.377 . S
C123 C124 1.379 . S
C124 H108 0.931 . S
C124 C118 1.383 . S
C124 C123 1.379 . S
H125 C119 0.959 . S
H126 C119 0.961 . S
H127 C119 0.960 . S
H128 C120 0.930 . S
H129 C121 0.929 . S
H130 C138 0.929 . S
H131 C140 0.930 . S
H132 C142 0.930 . S
H133 C145 0.929 . S
H134 C148 0.930 1_554 S
H135 C150 0.960 . S
H136 C150 0.960 . S
H137 C150 0.960 . S
C138 H130 0.929 . S
C138 C139 1.377 . S
C138 C140 1.384 . S
C139 C138 1.377 . S
C139 C145 1.390 1_556 S
C140 H131 0.930 . S
C140 C138 1.384 . S
C140 C141 1.372 . S
C141 C140 1.372 . S
C141 C142 1.400 . S
C141 C146 1.490 . S
C142 H132 0.930 . S
C142 C141 1.400 . S
C142 C145 1.386 1_556 S
H143 C159 0.930 . S
H144 C160 0.931 . S
C145 H133 0.929 . S
C145 C139 1.390 1_554 S
C145 C142 1.386 1_554 S
C146 C141 1.490 . S
C146 C148 1.395 . S
C146 C149 1.403 . S
H147 C153 0.930 . S
C148 H134 0.930 1_556 S
C148 C146 1.395 . S
C148 C151 1.403 . S
C149 C146 1.403 . S
C149 C150 1.524 . S
C149 C153 1.400 . S
C150 H135 0.960 . S
C150 H136 0.960 . S
C150 H137 0.960 . S
C150 C149 1.524 . S
C151 C148 1.403 . S
C151 C152 1.392 . S
C151 C155 1.495 1_556 S
C152 C151 1.392 . S
C152 C153 1.385 . S
C152 C154 1.478 . S
C153 H147 0.930 . S
C153 C149 1.400 . S
C153 C152 1.385 . S
C154 C152 1.478 . S
C154 C156 1.381 . S
C154 C160 1.383 . S
C155 C151 1.495 1_554 S
C155 H161 0.959 . S
C155 H162 0.961 . S
C155 H163 0.960 1_554 S
C156 C154 1.381 . S
C156 C157 1.394 . S
C156 H164 0.930 . S
C157 C156 1.394 . S
C157 C158 1.383 . S
C157 H165 0.929 . S
C158 C157 1.383 . S
C158 C159 1.377 . S
C159 H143 0.930 . S
C159 C158 1.377 . S
C159 C160 1.379 . S
C160 H144 0.931 . S
C160 C154 1.383 . S
C160 C159 1.379 . S
H161 C155 0.959 . S
H162 C155 0.961 . S
H163 C155 0.960 1_556 S
H164 C156 0.930 . S
H165 C157 0.929 . S
H166 C174 0.929 . S
H167 C176 0.930 . S
H168 C178 0.930 . S
H169 C181 0.929 . S
H170 C184 0.930 . S
H171 C186 0.960 . S
H172 C186 0.960 . S
H173 C186 0.960 . S
C174 H166 0.929 . S
C174 C175 1.377 . S
C174 C176 1.384 . S
C175 C174 1.377 . S
C175 C181 1.390 . S
C176 H167 0.930 . S
C176 C174 1.384 . S
C176 C177 1.372 . S
C177 C176 1.372 . S
C177 C178 1.400 . S
C177 C182 1.490 . S
C178 H168 0.930 . S
C178 C177 1.400 . S
C178 C181 1.386 . S
H179 C195 0.930 . S
H180 C196 0.931 . S
C181 H169 0.929 . S
C181 C175 1.390 . S
C181 C178 1.386 . S
C182 C177 1.490 . S
C182 C184 1.395 . S
C182 C185 1.403 . S
H183 C189 0.930 . S
C184 H170 0.930 . S
C184 C182 1.395 . S
C184 C187 1.403 . S
C185 C182 1.403 . S
C185 C186 1.524 1_554 S
C185 C189 1.400 . S
C186 H171 0.960 . S
C186 H172 0.960 . S
C186 H173 0.960 . S
C186 C185 1.524 1_556 S
C187 C184 1.403 . S
C187 C188 1.392 . S
C187 C191 1.495 . S
C188 C187 1.392 . S
C188 C189 1.385 . S
C188 C190 1.478 . S
C189 H183 0.930 . S
C189 C185 1.400 . S
C189 C188 1.385 . S
C190 C188 1.478 . S
C190 C192 1.381 . S
C190 C196 1.383 . S
C191 C187 1.495 . S
C191 H197 0.959 . S
C191 H198 0.961 . S
C191 H199 0.960 . S
C192 C190 1.381 . S
C192 C193 1.394 . S
C192 H200 0.930 . S
C193 C192 1.394 . S
C193 C194 1.383 . S
C193 H201 0.929 . S
C194 C193 1.383 . S
C194 C195 1.377 . S
C195 H179 0.930 . S
C195 C194 1.377 . S
C195 C196 1.379 . S
C196 H180 0.931 . S
C196 C190 1.383 . S
C196 C195 1.379 . S
H197 C191 0.959 . S
H198 C191 0.961 . S
H199 C191 0.960 . S
H200 C192 0.930 . S
H201 C193 0.929 . S
H202 C210 0.929 . S
H203 C212 0.930 1_554 S
H204 C214 0.930 . S
H205 C217 0.929 . S
H206 C220 0.930 1_554 S
H207 C222 0.960 . S
H208 C222 0.960 . S
H209 C222 0.960 . S
C210 H202 0.929 . S
C210 C211 1.377 1_554 S
C210 C212 1.384 1_554 S
C211 C210 1.377 1_556 S
C211 C217 1.390 . S
C212 H203 0.930 1_556 S
C212 C210 1.384 1_556 S
C212 C213 1.372 . S
C213 C212 1.372 . S
C213 C214 1.400 . S
C213 C218 1.490 . S
C214 H204 0.930 . S
C214 C213 1.400 . S
C214 C217 1.386 . S
H215 C231 0.930 . S
H216 C232 0.931 . S
C217 H205 0.929 . S
C217 C211 1.390 . S
C217 C214 1.386 . S
C218 C213 1.490 . S
C218 C220 1.395 . S
C218 C221 1.403 . S
H219 C225 0.930 . S
C220 H206 0.930 1_556 S
C220 C218 1.395 . S
C220 C223 1.403 . S
C221 C218 1.403 . S
C221 C222 1.524 . S
C221 C225 1.400 . S
C222 H207 0.960 . S
C222 H208 0.960 . S
C222 H209 0.960 . S
C222 C221 1.524 . S
C223 C220 1.403 . S
C223 C224 1.392 . S
C223 C227 1.495 1_556 S
C224 C223 1.392 . S
C224 C225 1.385 . S
C224 C226 1.478 . S
C225 H219 0.930 . S
C225 C221 1.400 . S
C225 C224 1.385 . S
C226 C224 1.478 . S
C226 C228 1.381 . S
C226 C232 1.383 . S
C227 C223 1.495 1_554 S
C227 H233 0.959 . S
C227 H234 0.961 . S
C227 H235 0.960 . S
C228 C226 1.381 . S
C228 C229 1.394 . S
C228 H236 0.930 . S
C229 C228 1.394 . S
C229 C230 1.383 . S
C229 H237 0.929 . S
C230 C229 1.383 . S
C230 C231 1.377 . S
C231 H215 0.930 . S
C231 C230 1.377 . S
C231 C232 1.379 . S
C232 H216 0.931 . S
C232 C226 1.383 . S
C232 C231 1.379 . S
H233 C227 0.959 . S
H234 C227 0.961 . S
H235 C227 0.960 . S
H236 C228 0.930 . S
H237 C229 0.929 . S
H238 C246 0.929 . S
H239 C248 0.930 . S
H240 C250 0.930 . S
H241 C253 0.929 . S
H242 C256 0.930 . S
H243 C258 0.960 . S
H244 C258 0.960 . S
H245 C258 0.960 . S
C246 H238 0.929 . S
C246 C247 1.377 . S
C246 C248 1.384 . S
C247 C246 1.377 . S
C247 C253 1.390 . S
C248 H239 0.930 . S
C248 C246 1.384 . S
C248 C249 1.372 . S
C249 C248 1.372 . S
C249 C250 1.400 . S
C249 C254 1.490 . S
C250 H240 0.930 . S
C250 C249 1.400 . S
C250 C253 1.386 . S
H251 C267 0.930 . S
H252 C268 0.931 . S
C253 H241 0.929 . S
C253 C247 1.390 . S
C253 C250 1.386 . S
C254 C249 1.490 . S
C254 C256 1.395 . S
C254 C257 1.403 . S
H255 C261 0.930 . S
C256 H242 0.930 . S
C256 C254 1.395 . S
C256 C259 1.403 . S
C257 C254 1.403 . S
C257 C258 1.524 . S
C257 C261 1.400 . S
C258 H243 0.960 . S
C258 H244 0.960 . S
C258 H245 0.960 . S
C258 C257 1.524 . S
C259 C256 1.403 . S
C259 C260 1.392 . S
C259 C263 1.495 . S
C260 C259 1.392 . S
C260 C261 1.385 . S
C260 C262 1.478 . S
C261 H255 0.930 . S
C261 C257 1.400 . S
C261 C260 1.385 . S
C262 C260 1.478 . S
C262 C264 1.381 . S
C262 C268 1.383 . S
C263 C259 1.495 . S
C263 H269 0.959 . S
C263 H270 0.961 . S
C263 H271 0.960 . S
C264 C262 1.381 . S
C264 C265 1.394 . S
C264 H272 0.930 . S
C265 C264 1.394 . S
C265 C266 1.383 . S
C265 H273 0.929 . S
C266 C265 1.383 . S
C266 C267 1.377 . S
C267 H251 0.930 . S
C267 C266 1.377 . S
C267 C268 1.379 . S
C268 H252 0.931 . S
C268 C262 1.383 . S
C268 C267 1.379 . S
H269 C263 0.959 . S
H270 C263 0.961 . S
H271 C263 0.960 . S
H272 C264 0.930 . S
H273 C265 0.929 . S
H274 C282 0.929 . S
H275 C284 0.930 . S
H276 C286 0.930 . S
H277 C289 0.929 . S
H278 C292 0.930 . S
H279 C294 0.960 . S
H280 C294 0.960 . S
H281 C294 0.960 . S
C282 H274 0.929 . S
C282 C283 1.377 . S
C282 C284 1.384 . S
C283 C282 1.377 . S
C283 C289 1.390 . S
C284 H275 0.930 . S
C284 C282 1.384 . S
C284 C285 1.372 . S
C285 C284 1.372 . S
C285 C286 1.400 . S
C285 C290 1.490 . S
C286 H276 0.930 . S
C286 C285 1.400 . S
C286 C289 1.386 . S
H287 C303 0.930 . S
H288 C304 0.931 . S
C289 H277 0.929 . S
C289 C283 1.390 . S
C289 C286 1.386 . S
C290 C285 1.490 . S
C290 C292 1.395 . S
C290 C293 1.403 . S
H291 C297 0.930 . S
C292 H278 0.930 . S
C292 C290 1.395 . S
C292 C295 1.403 . S
C293 C290 1.403 . S
C293 C294 1.524 . S
C293 C297 1.400 . S
C294 H279 0.960 . S
C294 H280 0.960 . S
C294 H281 0.960 . S
C294 C293 1.524 . S
C295 C292 1.403 . S
C295 C296 1.392 . S
C295 C299 1.495 . S
C296 C295 1.392 . S
C296 C297 1.385 . S
C296 C298 1.478 . S
C297 H291 0.930 . S
C297 C293 1.400 . S
C297 C296 1.385 . S
C298 C296 1.478 . S
C298 C300 1.381 . S
C298 C304 1.383 . S
C299 C295 1.495 . S
C299 H305 0.959 . S
C299 H306 0.961 . S
C299 H307 0.960 . S
C300 C298 1.381 . S
C300 C301 1.394 . S
C300 H308 0.930 . S
C301 C300 1.394 . S
C301 C302 1.383 . S
C301 H309 0.929 1_655 S
C302 C301 1.383 . S
C302 C303 1.377 . S
C303 H287 0.930 . S
C303 C302 1.377 . S
C303 C304 1.379 . S
C304 H288 0.931 . S
C304 C298 1.383 . S
C304 C303 1.379 . S
H305 C299 0.959 . S
H306 C299 0.961 . S
H307 C299 0.960 . S
H308 C300 0.930 . S
H309 C301 0.929 1_455 S
H310 C318 0.929 . S
H311 C320 0.930 . S
H312 C322 0.930 . S
H313 C325 0.929 . S
H314 C328 0.930 . S
H315 C330 0.960 . S
H316 C330 0.960 . S
H317 C330 0.960 . S
C318 H310 0.929 . S
C318 C319 1.377 . S
C318 C320 1.384 . S
C319 C318 1.377 . S
C319 C325 1.390 . S
C320 H311 0.930 . S
C320 C318 1.384 . S
C320 C321 1.372 . S
C321 C320 1.372 . S
C321 C322 1.400 . S
C321 C326 1.490 . S
C322 H312 0.930 . S
C322 C321 1.400 . S
C322 C325 1.386 . S
H323 C339 0.930 . S
H324 C340 0.931 . S
C325 H313 0.929 . S
C325 C319 1.390 . S
C325 C322 1.386 . S
C326 C321 1.490 . S
C326 C328 1.395 . S
C326 C329 1.403 . S
H327 C333 0.930 . S
C328 H314 0.930 . S
C328 C326 1.395 . S
C328 C331 1.403 . S
C329 C326 1.403 . S
C329 C330 1.524 . S
C329 C333 1.400 . S
C330 H315 0.960 . S
C330 H316 0.960 . S
C330 H317 0.960 . S
C330 C329 1.524 . S
C331 C328 1.403 . S
C331 C332 1.392 . S
C331 C335 1.495 . S
C332 C331 1.392 . S
C332 C333 1.385 . S
C332 C334 1.478 . S
C333 H327 0.930 . S
C333 C329 1.400 . S
C333 C332 1.385 . S
C334 C332 1.478 . S
C334 C336 1.381 . S
C334 C340 1.383 . S
C335 C331 1.495 . S
C335 H341 0.959 . S
C335 H342 0.961 . S
C335 H343 0.960 . S
C336 C334 1.381 . S
C336 C337 1.394 . S
C336 H344 0.930 . S
C337 C336 1.394 . S
C337 C338 1.383 . S
C337 H345 0.929 . S
C338 C337 1.383 . S
C338 C339 1.377 . S
C339 H323 0.930 . S
C339 C338 1.377 . S
C339 C340 1.379 . S
C340 H324 0.931 . S
C340 C334 1.383 . S
C340 C339 1.379 . S
H341 C335 0.959 . S
H342 C335 0.961 . S
H343 C335 0.960 . S
H344 C336 0.930 . S
H345 C337 0.929 . S
H346 C354 0.929 . S
H347 C356 0.930 . S
H348 C358 0.930 . S
H349 C361 0.929 . S
H350 C364 0.930 . S
H351 C366 0.960 . S
H352 C366 0.960 . S
H353 C366 0.960 . S
C354 H346 0.929 . S
C354 C355 1.377 . S
C354 C356 1.384 . S
C355 C354 1.377 . S
C355 C361 1.390 . S
C356 H347 0.930 . S
C356 C354 1.384 . S
C356 C357 1.372 . S
C357 C356 1.372 . S
C357 C358 1.400 . S
C357 C362 1.490 . S
C358 H348 0.930 . S
C358 C357 1.400 . S
C358 C361 1.386 . S
H359 C375 0.930 . S
H360 C376 0.931 . S
C361 H349 0.929 . S
C361 C355 1.390 . S
C361 C358 1.386 . S
C362 C357 1.490 . S
C362 C364 1.395 . S
C362 C365 1.403 . S
H363 C369 0.930 . S
C364 H350 0.930 . S
C364 C362 1.395 . S
C364 C367 1.403 . S
C365 C362 1.403 . S
C365 C366 1.524 . S
C365 C369 1.400 . S
C366 H351 0.960 . S
C366 H352 0.960 . S
C366 H353 0.960 . S
C366 C365 1.524 . S
C367 C364 1.403 . S
C367 C368 1.392 . S
C367 C371 1.495 . S
C368 C367 1.392 . S
C368 C369 1.385 . S
C368 C370 1.478 . S
C369 H363 0.930 . S
C369 C365 1.400 . S
C369 C368 1.385 . S
C370 C368 1.478 . S
C370 C372 1.381 . S
C370 C376 1.383 . S
C371 C367 1.495 . S
C371 H377 0.959 . S
C371 H378 0.961 . S
C371 H379 0.960 . S
C372 C370 1.381 . S
C372 C373 1.394 . S
C372 H380 0.930 . S
C373 C372 1.394 . S
C373 C374 1.383 . S
C373 H381 0.929 . S
C374 C373 1.383 . S
C374 C375 1.377 . S
C375 H359 0.930 . S
C375 C374 1.377 . S
C375 C376 1.379 . S
C376 H360 0.931 . S
C376 C370 1.383 . S
C376 C375 1.379 . S
H377 C371 0.959 . S
H378 C371 0.961 . S
H379 C371 0.960 . S
H380 C372 0.930 . S
H381 C373 0.929 . S
H382 C390 0.929 . S
H383 C392 0.930 . S
H384 C394 0.930 . S
H385 C397 0.929 . S
H386 C400 0.930 . S
H387 C402 0.960 . S
H388 C402 0.960 . S
H389 C402 0.960 . S
C390 H382 0.929 . S
C390 C391 1.377 1_545 S
C390 C392 1.384 . S
C391 C390 1.377 1_565 S
C391 C397 1.390 . S
C392 H383 0.930 . S
C392 C390 1.384 . S
C392 C393 1.372 1_545 S
C393 C392 1.372 1_565 S
C393 C394 1.400 . S
C393 C398 1.490 . S
C394 H384 0.930 . S
C394 C393 1.400 . S
C394 C397 1.386 . S
H395 C411 0.930 . S
H396 C412 0.931 . S
C397 H385 0.929 . S
C397 C391 1.390 . S
C397 C394 1.386 . S
C398 C393 1.490 . S
C398 C400 1.395 1_565 S
C398 C401 1.403 . S
H399 C405 0.930 . S
C400 H386 0.930 . S
C400 C398 1.395 1_545 S
C400 C403 1.403 . S
C401 C398 1.403 . S
C401 C402 1.524 . S
C401 C405 1.400 . S
C402 H387 0.960 . S
C402 H388 0.960 . S
C402 H389 0.960 . S
C402 C401 1.524 . S
C403 C400 1.403 . S
C403 C404 1.392 . S
C403 C407 1.495 . S
C404 C403 1.392 . S
C404 C405 1.385 1_545 S
C404 C406 1.478 . S
C405 H399 0.930 . S
C405 C401 1.400 . S
C405 C404 1.385 1_565 S
C406 C404 1.478 . S
C406 C408 1.381 . S
C406 C412 1.383 1_545 S
C407 C403 1.495 . S
C407 H413 0.959 1_455 S
C407 H414 0.961 1_455 S
C407 H415 0.960 . S
C408 C406 1.381 . S
C408 C409 1.394 . S
C408 H416 0.930 . S
C409 C408 1.394 . S
C409 C410 1.383 . S
C409 H417 0.929 . S
C410 C409 1.383 . S
C410 C411 1.377 1_545 S
C411 H395 0.930 . S
C411 C410 1.377 1_565 S
C411 C412 1.379 . S
C412 H396 0.931 . S
C412 C406 1.383 1_565 S
C412 C411 1.379 . S
H413 C407 0.959 1_655 S
H414 C407 0.961 1_655 S
H415 C407 0.960 . S
H416 C408 0.930 . S
H417 C409 0.929 . S
H418 C426 0.929 . S
H419 C428 0.930 . S
H420 C430 0.930 1_655 S
H421 C433 0.934 . S
H422 C436 0.930 . S
H423 C438 0.960 . S
H424 C438 0.960 . S
H425 C438 0.960 1_565 S
C426 H418 0.929 . S
C426 C427 1.377 1_545 S
C426 C428 1.384 . S
C427 C426 1.377 1_565 S
C427 C433 1.390 . S
C428 H419 0.930 . S
C428 C426 1.384 . S
C428 C429 1.372 . S
C429 C428 1.372 . S
C429 C430 1.400 1_545 S
C429 C434 1.490 . S
C430 H420 0.930 1_455 S
C430 C429 1.400 1_565 S
C430 C433 1.386 . S
H431 C447 0.930 1_655 S
H432 C448 0.931 1_655 S
C433 H421 0.934 . S
C433 C427 1.390 . S
C433 C430 1.386 . S
C434 C429 1.490 . S
C434 C436 1.395 . S
C434 C437 1.403 1_455 S
H435 C441 0.930 . S
C436 H422 0.930 . S
C436 C434 1.395 . S
C436 C439 1.403 . S
C437 C434 1.403 1_655 S
C437 C438 1.524 . S
C437 C441 1.400 . S
C438 H423 0.960 . S
C438 H424 0.960 . S
C438 H425 0.960 1_545 S
C438 C437 1.524 . S
C439 C436 1.403 . S
C439 C440 1.392 . S
C439 C443 1.495 . S
C440 C439 1.392 . S
C440 C441 1.385 1_455 S
C440 C442 1.478 . S
C441 H435 0.930 . S
C441 C437 1.400 . S
C441 C440 1.385 1_655 S
C442 C440 1.478 . S
C442 C444 1.381 . S
C442 C448 1.383 1_545 S
C443 C439 1.495 . S
C443 H449 0.959 . S
C443 H450 0.961 1_545 S
C443 H451 0.960 . S
C444 C442 1.381 . S
C444 C445 1.394 . S
C444 H452 0.930 . S
C445 C444 1.394 . S
C445 C446 1.383 . S
C445 H453 0.929 . S
C446 C445 1.383 . S
C446 C447 1.377 1_545 S
C447 H431 0.930 1_455 S
C447 C446 1.377 1_565 S
C447 C448 1.379 . S
C448 H432 0.931 1_455 S
C448 C442 1.383 1_565 S
C448 C447 1.379 . S
H449 C443 0.959 . S
H450 C443 0.961 1_565 S
H451 C443 0.960 . S
H452 C444 0.930 . S
H453 C445 0.929 . S
H454 C462 0.929 . S
H455 C464 0.930 . S
H456 C466 0.930 . S
H457 C469 0.929 . S
H458 C472 0.930 . S
H459 C474 0.960 . S
H460 C474 0.960 . S
H461 C474 0.960 . S
C462 H454 0.929 . S
C462 C463 1.377 . S
C462 C464 1.384 . S
C463 C462 1.377 . S
C463 C469 1.390 . S
C464 H455 0.930 . S
C464 C462 1.384 . S
C464 C465 1.372 . S
C465 C464 1.372 . S
C465 C466 1.400 . S
C465 C470 1.490 . S
C466 H456 0.930 . S
C466 C465 1.400 . S
C466 C469 1.386 . S
H467 C483 0.930 . S
H468 C484 0.931 . S
C469 H457 0.929 . S
C469 C463 1.390 . S
C469 C466 1.386 . S
C470 C465 1.490 . S
C470 C472 1.395 . S
C470 C473 1.403 . S
H471 C477 0.930 . S
C472 H458 0.930 . S
C472 C470 1.395 . S
C472 C475 1.403 . S
C473 C470 1.403 . S
C473 C474 1.524 . S
C473 C477 1.400 . S
C474 H459 0.960 . S
C474 H460 0.960 . S
C474 H461 0.960 . S
C474 C473 1.524 . S
C475 C472 1.403 . S
C475 C476 1.392 . S
C475 C479 1.495 . S
C476 C475 1.392 . S
C476 C477 1.385 . S
C476 C478 1.478 . S
C477 H471 0.930 . S
C477 C473 1.400 . S
C477 C476 1.385 . S
C478 C476 1.478 . S
C478 C480 1.381 . S
C478 C484 1.383 . S
C479 C475 1.495 . S
C479 H485 0.959 . S
C479 H486 0.961 . S
C479 H487 0.960 . S
C480 C478 1.381 . S
C480 C481 1.394 . S
C480 H488 0.930 . S
C481 C480 1.394 . S
C481 C482 1.383 . S
C481 H489 0.929 . S
C482 C481 1.383 . S
C482 C483 1.377 . S
C483 H467 0.930 . S
C483 C482 1.377 . S
C483 C484 1.379 . S
C484 H468 0.931 . S
C484 C478 1.383 . S
C484 C483 1.379 . S
H485 C479 0.959 . S
H486 C479 0.961 . S
H487 C479 0.960 . S
H488 C480 0.930 . S
H489 C481 0.929 . S
H490 C498 0.929 . S
H491 C500 0.930 . S
H492 C502 0.930 . S
H493 C505 0.929 . S
H494 C508 0.930 . S
H495 C510 0.960 . S
H496 C510 0.960 . S
H497 C510 0.960 . S
C498 H490 0.929 . S
C498 C499 1.377 . S
C498 C500 1.384 . S
C499 C498 1.377 . S
C499 C505 1.390 . S
C500 H491 0.930 . S
C500 C498 1.384 . S
C500 C501 1.372 . S
C501 C500 1.372 . S
C501 C502 1.400 . S
C501 C506 1.490 . S
C502 H492 0.930 . S
C502 C501 1.400 . S
C502 C505 1.386 . S
H503 C519 0.930 . S
H504 C520 0.931 . S
C505 H493 0.929 . S
C505 C499 1.390 . S
C505 C502 1.386 . S
C506 C501 1.490 . S
C506 C508 1.395 . S
C506 C509 1.403 . S
H507 C513 0.930 . S
C508 H494 0.930 . S
C508 C506 1.395 . S
C508 C511 1.403 . S
C509 C506 1.403 . S
C509 C510 1.524 . S
C509 C513 1.400 . S
C510 H495 0.960 . S
C510 H496 0.960 . S
C510 H497 0.960 . S
C510 C509 1.524 . S
C511 C508 1.403 . S
C511 C512 1.392 . S
C511 C515 1.495 . S
C512 C511 1.392 . S
C512 C513 1.385 . S
C512 C514 1.478 . S
C513 H507 0.930 . S
C513 C509 1.400 . S
C513 C512 1.385 . S
C514 C512 1.478 . S
C514 C516 1.381 . S
C514 C520 1.383 . S
C515 C511 1.495 . S
C515 H521 0.959 . S
C515 H522 0.961 . S
C515 H523 0.960 . S
C516 C514 1.381 . S
C516 C517 1.394 . S
C516 H524 0.930 . S
C517 C516 1.394 . S
C517 C518 1.383 . S
C517 H525 0.929 . S
C518 C517 1.383 . S
C518 C519 1.377 . S
C519 H503 0.930 . S
C519 C518 1.377 . S
C519 C520 1.379 . S
C520 H504 0.931 . S
C520 C514 1.383 . S
C520 C519 1.379 . S
H521 C515 0.959 . S
H522 C515 0.961 . S
H523 C515 0.960 . S
H524 C516 0.930 . S
H525 C517 0.929 . S
C122 C85 1.051 . S
C103 C3 1.068 . S
C139 C4 1.458 1_556 S
C158 C72 1.473 . S
C175 C19 1.591 . S
C194 C89 1.702 . S
C211 C7 1.138 . S
C230 C76 1.299 . S
C247 C37 1.049 . S
C266 C59 1.137 . S
C283 C28 1.457 . S
C302 C46 1.475 . S
C338 C63 1.718 . S
C319 C41 1.585 . S
C374 C50 1.271 . S
C355 C25 1.159 . S
C391 C20 1.316 . S
C410 C51 1.488 . S
C427 C16 1.355 . S
C446 C64 1.498 . S
C482 C77 1.468 . S
C463 C40 1.335 . S
C499 C24 1.353 . S
C518 C90 1.503 . S
