# Generated by pormake.
# Topology anh, (6,3)-cn, num edge types: 1
# Building blocks:
#     Node 0, Type 0, BuildingBlock: NUHQIS_clean_sbu_0, # of connection points: 6
#     Node 1, Type 0, BuildingBlock: NUHQIS_clean_sbu_0, # of connection points: 6
#     Node 2, Type 0, BuildingBlock: NUHQIS_clean_sbu_0, # of connection points: 6
#     Node 3, Type 1, BuildingBlock: QEWDON_clean_linker_0, # of connection points: 3
#     Node 4, Type 1, BuildingBlock: QEWDON_clean_linker_0, # of connection points: 3
#     Node 5, Type 1, BuildingBlock: QEWDON_clean_linker_0, # of connection points: 3
#     Node 6, Type 1, BuildingBlock: QEWDON_clean_linker_0, # of connection points: 3
#     Node 7, Type 1, BuildingBlock: QEWDON_clean_linker_0, # of connection points: 3
#     Node 8, Type 1, BuildingBlock: QEWDON_clean_linker_0, # of connection points: 3
#     Edge 9, Type (0, 1), BuildingBlock: XIVTED_clean_linker_0, # of connection points: 2
#     Edge 10, Type (0, 1), BuildingBlock: XIVTED_clean_linker_0, # of connection points: 2
#     Edge 11, Type (0, 1), BuildingBlock: XIVTED_clean_linker_0, # of connection points: 2
#     Edge 12, Type (0, 1), BuildingBlock: XIVTED_clean_linker_0, # of connection points: 2
#     Edge 13, Type (0, 1), BuildingBlock: XIVTED_clean_linker_0, # of connection points: 2
#     Edge 14, Type (0, 1), BuildingBlock: XIVTED_clean_linker_0, # of connection points: 2
#     Edge 15, Type (0, 1), BuildingBlock: XIVTED_clean_linker_0, # of connection points: 2
#     Edge 16, Type (0, 1), BuildingBlock: XIVTED_clean_linker_0, # of connection points: 2
#     Edge 17, Type (0, 1), BuildingBlock: XIVTED_clean_linker_0, # of connection points: 2
#     Edge 18, Type (0, 1), BuildingBlock: XIVTED_clean_linker_0, # of connection points: 2
#     Edge 19, Type (0, 1), BuildingBlock: XIVTED_clean_linker_0, # of connection points: 2
#     Edge 20, Type (0, 1), BuildingBlock: XIVTED_clean_linker_0, # of connection points: 2
#     Edge 21, Type (0, 1), BuildingBlock: XIVTED_clean_linker_0, # of connection points: 2
#     Edge 22, Type (0, 1), BuildingBlock: XIVTED_clean_linker_0, # of connection points: 2
#     Edge 23, Type (0, 1), BuildingBlock: XIVTED_clean_linker_0, # of connection points: 2
#     Edge 24, Type (0, 1), BuildingBlock: XIVTED_clean_linker_0, # of connection points: 2
#     Edge 25, Type (0, 1), BuildingBlock: XIVTED_clean_linker_0, # of connection points: 2
#     Edge 26, Type (0, 1), BuildingBlock: XIVTED_clean_linker_0, # of connection points: 2
# Relax obj value: 0.216
# Max RMSD: 0.137
# Mean RMSD: 0.120
data_MOF--net-anh--node1-NUHQIS_clean_sbu_0--node2-QEWDON_clean_linker_0--edge1-XIVTED_clean_linker_0
_symmetry_space_group_name_H-M    P1
_symmetry_Int_Tables_number       1
_symmetry_cell_setting            triclinic
loop_
_symmetry_equiv_pos_as_xyz
'x, y, z'
_cell_length_a     32.464007
_cell_length_b     32.336152
_cell_length_c     48.771887
_cell_angle_alpha  93.547665
_cell_angle_beta   95.598599
_cell_angle_gamma 120.02066
loop_
_atom_site_label
_atom_site_type_symbol
_atom_site_fract_x
_atom_site_fract_y
_atom_site_fract_z
_atom_type_partial_charge
Tb0 Tb 0.20846 0.64043 0.1665 0.0
Eu1 Eu 0.14976 0.69233 0.15126 0.0
C2 C 0.17453 0.68178 0.21215 0.0
C3 C 1.09369 0.57759 0.16033 0.0
C4 C 0.31624 0.6361 0.17741 0.0
C5 C 0.39789 0.6592 0.19592 0.0
C6 C 0.34826 0.62858 0.19468 0.0
C7 C 0.3342 0.67385 0.16102 0.0
C8 C 0.38353 0.70476 0.16252 0.0
C9 C 0.41605 0.69823 0.18023 0.0
C10 C 0.26493 0.61087 0.17973 0.0
O11 O 0.21397 0.65108 0.12262 0.0
O12 O 0.14338 0.64925 0.11179 0.0
O13 O 0.22566 0.74854 0.14437 0.0
O14 O 0.26289 0.71891 0.17235 0.0
C15 C 0.17873 0.64523 0.10406 0.0
O16 O 1.10014 0.70385 0.12367 0.0
O17 O 0.1241 0.73938 0.16588 0.0
O18 O 0.18249 0.71453 0.19586 0.0
O19 O 0.17449 0.64301 0.20268 0.0
O20 O 0.13381 0.57745 0.15737 0.0
O21 O 1.09435 0.61888 0.16276 0.0
C22 C 0.26529 0.75387 0.15848 0.0
O23 O 0.25376 0.63411 0.19744 0.0
O24 O 0.23548 0.59527 0.15631 0.0
C25 C 1.04049 0.69432 0.15059 0.0
C26 C 0.94992 0.61956 0.15963 0.0
C27 C 0.95753 0.63387 0.13302 0.0
C28 C 1.00231 0.67093 0.12857 0.0
C29 C 1.03212 0.68162 0.17752 0.0
C30 C 0.98725 0.64473 0.18197 0.0
C31 C 1.09022 0.72289 0.14454 0.0
H32 H 0.42194 0.6525 0.20933 0.0
H33 H 0.33494 0.60004 0.20777 0.0
H34 H 0.31 0.68076 0.14788 0.0
H35 H 0.39599 0.7347 0.15045 0.0
H36 H 0.92887 0.61622 0.11552 0.0
H37 H 1.00777 0.67964 0.10763 0.0
H38 H 1.06082 0.69842 0.19502 0.0
H39 H 0.98226 0.63485 0.20273 0.0
Tb40 Tb 0.70261 0.13855 0.4975 0.0
Eu41 Eu 0.58844 0.08228 0.47916 0.0
C42 C 0.63318 0.10128 0.5417 0.0
C43 C 0.64571 1.02322 0.49057 0.0
C44 C 0.81709 0.24186 0.50046 0.0
C45 C 0.83951 0.32566 0.51085 0.0
C46 C 0.8329 0.28276 0.5198 0.0
C47 C 0.81362 0.24647 0.47195 0.0
C48 C 0.81988 0.28907 0.46305 0.0
C49 C 0.83049 0.32837 0.4824 0.0
C50 C 0.79156 0.19347 0.50945 0.0
O51 O 0.69234 0.14878 0.45358 0.0
O52 O 0.61667 0.08448 0.43931 0.0
O53 O 0.61271 0.16032 0.47243 0.0
O54 O 0.68187 0.19409 0.50339 0.0
C55 C 0.65716 0.1194 0.43367 0.0
O56 O 0.52115 1.0192 0.45917 0.0
O57 O 0.52029 0.07953 0.48039 0.0
O58 O 0.60369 0.10688 0.52443 0.0
O59 O 0.67229 0.10475 0.53393 0.0
O60 O 0.68637 1.06335 0.48889 0.0
O61 O 0.60555 1.02421 0.49139 0.0
C62 C 0.6486 0.19852 0.48818 0.0
O63 O 0.76172 0.1886 0.5268 0.0
O64 O 0.772 0.15701 0.48975 0.0
C65 C 0.45519 1.0013 0.48305 0.0
C66 C 0.37433 0.93733 0.50661 0.0
C67 C 0.38814 0.92077 0.4839 0.0
C68 C 0.42798 0.95247 0.47218 0.0
C69 C 0.4429 1.01754 0.50664 0.0
C70 C 0.4027 0.98581 0.51826 0.0
C71 C 0.49477 1.03489 0.46889 0.0
H72 H 0.84913 0.35578 0.52629 0.0
H73 H 0.83598 0.28031 0.54188 0.0
H74 H 0.80161 0.21585 0.45636 0.0
H75 H 0.81254 0.28958 0.44097 0.0
H76 H 0.36648 0.88385 0.47405 0.0
H77 H 0.43657 0.93903 0.454 0.0
H78 H 0.46338 1.05498 0.51566 0.0
H79 H 0.39284 0.99949 0.53574 0.0
Tb80 Tb 0.73968 0.69536 0.82494 0.0
Eu81 Eu 0.6834 0.5799 0.82178 0.0
C82 C 0.71649 0.64524 0.87864 0.0
C83 C 0.80169 0.64226 0.82744 0.0
C84 C 0.75075 0.81056 0.83462 0.0
C85 C 0.68161 0.80286 0.85429 0.0
C86 C 0.7209 0.79605 0.85541 0.0
C87 C 0.74463 0.83778 0.81507 0.0
C88 C 0.70505 0.84415 0.8138 0.0
C89 C 0.6715 0.82378 0.83224 0.0
C90 C 0.77583 0.78479 0.82783 0.0
O91 O 0.73771 0.66725 0.78257 0.0
O92 O 0.66681 0.59704 0.77976 0.0
O93 O 0.62503 0.59804 0.82841 0.0
O94 O 0.6628 0.67647 0.8193 0.0
C95 C 0.69955 0.63056 0.7676 0.0
O96 O 0.66422 0.50991 0.80072 0.0
O97 O 0.63482 0.51438 0.8382 0.0
O98 O 0.71751 0.60913 0.8659 0.0
O99 O 0.71509 0.67804 0.8648 0.0
O100 O 0.79997 0.68167 0.83426 0.0
O101 O 0.76154 0.60081 0.81868 0.0
C102 C 0.62375 0.63745 0.82444 0.0
O103 O 0.78549 0.76408 0.84759 0.0
O104 O 0.75641 0.75582 0.80457 0.0
C105 C 0.64837 0.44923 0.83019 0.0
C106 C 0.65132 0.36822 0.84591 0.0
C107 C 0.66679 0.3861 0.82099 0.0
C108 C 0.66516 0.42604 0.81318 0.0
C109 C 0.6357 0.43326 0.85592 0.0
C110 C 0.63731 0.3932 0.86374 0.0
C111 C 0.6397 0.48657 0.81987 0.0
H112 H 0.65635 0.78695 0.8688 0.0
H113 H 0.72454 0.77475 0.87072 0.0
H114 H 0.76705 0.84918 0.79882 0.0
H115 H 0.69837 0.86126 0.7969 0.0
H116 H 0.67695 0.36727 0.80649 0.0
H117 H 0.67487 0.43725 0.79316 0.0
H118 H 0.62258 0.45038 0.86951 0.0
H119 H 0.62547 0.38044 0.88313 0.0
H120 H 0.70538 0.19375 0.22147 0.0
C121 C 0.67529 0.15962 0.21153 0.0
C122 C 0.64549 0.12678 0.22847 0.0
C123 C 0.66469 0.15001 0.18222 0.0
H124 H 0.58254 1.05794 0.22968 0.0
C125 C 0.60499 0.08287 0.2163 0.0
C126 C 0.59205 1.07051 0.18748 0.0
C127 C 0.62224 0.10446 0.17044 0.0
C128 C 0.69559 0.18902 0.16446 0.0
H129 H 0.61279 0.09457 0.1482 0.0
C130 C 0.74444 0.22848 0.17381 0.0
C131 C 0.76958 0.26565 0.15675 0.0
C132 C 0.67435 0.18858 0.13775 0.0
H133 H 0.63758 0.16158 0.12962 0.0
C134 C 0.6991 0.22395 0.12104 0.0
H135 H 0.7627 0.23087 0.19412 0.0
C136 C 0.74567 0.26184 0.13036 0.0
H137 H 0.76319 0.28885 0.11675 0.0
H138 H 0.68151 0.22244 0.10065 0.0
H139 H 0.65518 0.63438 0.55039 0.0
C140 C 0.65824 0.60494 0.54116 0.0
C141 C 0.6648 0.57536 0.55892 0.0
C142 C 0.65268 0.59519 0.512 0.0
H143 H 0.67161 0.5129 0.56164 0.0
C144 C 0.6666 0.53533 0.54765 0.0
C145 C 0.66159 0.52319 0.51889 0.0
C146 C 0.65456 0.55349 0.50111 0.0
C147 C 0.6414 0.62644 0.49354 0.0
H148 H 0.65155 0.54471 0.479 0.0
C149 C 0.65111 0.67451 0.50275 0.0
C150 C 0.63564 0.69984 0.48516 0.0
C151 C 0.61715 0.60635 0.4663 0.0
H152 H 0.60713 0.57022 0.45814 0.0
C153 C 0.60329 0.63141 0.44904 0.0
H154 H 0.6698 0.69207 0.52337 0.0
C155 C 0.61206 0.67709 0.4583 0.0
H156 H 0.59996 0.69484 0.44425 0.0
H157 H 0.58458 0.61472 0.42825 0.0
H158 H 0.22966 0.63024 0.88957 0.0
C159 C 0.2012 0.63557 0.88045 0.0
C160 C 0.16947 0.63723 0.89772 0.0
C161 C 0.19479 0.63785 0.8516 0.0
H162 H 1.10718 0.64421 0.89978 0.0
C163 C 0.13103 0.6424 0.88629 0.0
C164 C 0.12186 0.64445 0.85789 0.0
C165 C 0.15414 0.64226 0.8406 0.0
C166 C 0.22826 0.63211 0.83311 0.0
H167 H 0.14764 0.64498 0.81883 0.0
C168 C 0.27573 0.63999 0.84302 0.0
C169 C 0.30338 0.63085 0.82466 0.0
C170 C 0.21097 0.61551 0.80464 0.0
H171 H 0.1754 0.6069 0.79571 0.0
C172 C 0.23818 0.60774 0.78682 0.0
H173 H 0.29105 0.65262 0.86465 0.0
C174 C 0.28337 0.6151 0.79661 0.0
H175 H 0.30286 0.60792 0.78201 0.0
H176 H 0.22357 0.59495 0.76508 0.0
H177 H 0.96412 0.67924 0.36572 0.0
C178 C 0.99073 0.69656 0.38423 0.0
C179 C 1.03778 0.70587 0.38372 0.0
C180 C 0.97738 0.70768 0.40896 0.0
H181 H 1.10756 0.73365 0.40783 0.0
C182 C 1.07101 0.72582 0.40821 0.0
C183 C 1.05809 0.73729 0.43296 0.0
C184 C 1.01143 0.72893 0.43312 0.0
C185 C 0.92632 0.68854 0.41131 0.0
H186 H 1.00083 0.73633 0.45238 0.0
C187 C 0.8973 0.63898 0.41152 0.0
C188 C 0.8512 0.61934 0.41909 0.0
C189 C 0.90831 0.71887 0.41749 0.0
H190 H 0.93072 0.75748 0.41793 0.0
C191 C 0.8615 0.69931 0.42391 0.0
H192 H 0.91239 0.61611 0.40805 0.0
C193 C 0.83324 0.64978 0.42521 0.0
H194 H 0.79798 0.63545 0.43148 0.0
H195 H 0.84773 0.72278 0.42885 0.0
H196 H 0.45485 0.93833 0.70997 0.0
C197 C 0.47263 0.96843 0.72643 0.0
C198 C 0.51505 1.01058 0.72294 0.0
C199 C 0.45364 0.9646 0.75142 0.0
H200 H 0.57025 0.08153 0.74206 0.0
C201 C 0.53849 1.04834 0.74495 0.0
C202 C 0.52009 1.04462 0.77016 0.0
C203 C 0.47734 1.0027 0.77311 0.0
C204 C 0.4139 0.91834 0.757 0.0
H205 H 0.46343 0.99879 0.79271 0.0
C206 C 0.42412 0.8825 0.76294 0.0
C207 C 0.39142 0.84214 0.77439 0.0
C208 C 0.36923 0.91256 0.76113 0.0
H209 H 0.36112 0.9405 0.75715 0.0
C210 C 0.33546 0.87117 0.7714 0.0
H211 H 0.45954 0.88814 0.76091 0.0
C212 C 0.34686 0.8364 0.77861 0.0
H213 H 0.32163 0.80587 0.78797 0.0
H214 H 0.30121 0.86699 0.77482 0.0
H215 H 0.71738 0.72081 0.09377 0.0
C216 C 0.712 0.68736 0.10051 0.0
C217 C 0.69399 0.64609 0.08105 0.0
C218 C 0.72572 0.68662 0.12851 0.0
H219 H 0.67294 0.57098 0.07579 0.0
C220 C 0.68623 0.60284 0.09056 0.0
C221 C 0.69972 0.60143 0.11862 0.0
C222 C 0.71948 0.64383 0.13742 0.0
C223 C 0.74762 0.73095 0.14849 0.0
H224 H 0.73214 0.64447 0.15892 0.0
C225 C 0.72223 0.75478 0.15206 0.0
C226 C 0.73977 0.79415 0.17281 0.0
C227 C 0.79218 0.74797 0.16514 0.0
H228 H 0.81248 0.73004 0.16267 0.0
C229 C 0.81058 0.78811 0.18529 0.0
H230 H 0.68704 0.74046 0.13986 0.0
C231 C 0.78418 0.81078 0.18944 0.0
H232 H 0.7979 0.84058 0.20585 0.0
H233 H 0.8448 0.80091 0.19817 0.0
H234 H 0.46655 0.74174 0.1384 0.0
H235 H 0.71092 0.8011 0.22258 0.0
H236 H 0.48568 0.73212 0.22622 0.0
H237 H 0.69296 0.82415 0.13722 0.0
H238 H 0.63546 0.79791 0.22812 0.0
H239 H 0.55311 0.79104 0.14082 0.0
C240 C 0.48882 0.75056 0.15834 0.0
C241 C 0.46863 0.73174 0.18203 0.0
C242 C 0.6487 0.80521 0.2084 0.0
C243 C 0.56843 0.78754 0.18477 0.0
C244 C 0.69208 0.80758 0.20534 0.0
C245 C 0.70727 0.81167 0.17921 0.0
C246 C 0.62047 0.80637 0.18503 0.0
C247 C 0.68167 0.81987 0.15754 0.0
C248 C 0.53848 0.77879 0.15969 0.0
C249 C 0.49966 0.74437 0.2072 0.0
N250 N 0.63878 0.81568 0.1607 0.0
N251 N 0.54806 0.77077 0.20781 0.0
H252 H 0.79494 0.37984 0.50767 0.0
H253 H 0.83259 0.54082 0.38441 0.0
H254 H 0.85758 0.37044 0.43503 0.0
H255 H 0.81681 0.58354 0.46641 0.0
H256 H 0.81842 0.46432 0.39886 0.0
H257 H 0.78512 0.44397 0.48992 0.0
C258 C 0.80701 0.39139 0.48813 0.0
C259 C 0.82737 0.36966 0.4729 0.0
C260 C 0.81707 0.49 0.41355 0.0
C261 C 0.81448 0.44177 0.45213 0.0
C262 C 0.8246 0.53333 0.40522 0.0
C263 C 0.82653 0.5686 0.4244 0.0
C264 C 0.81159 0.48204 0.44126 0.0
C265 C 0.81571 0.55721 0.45105 0.0
C266 C 0.80073 0.42754 0.47789 0.0
C267 C 0.8412 0.38554 0.44739 0.0
N268 N 0.80958 0.51511 0.45893 0.0
N269 N 0.83446 0.42054 0.43783 0.0
H270 H 0.614 0.7875 0.78249 0.0
H271 H 0.41509 0.83853 0.82859 0.0
H272 H 0.6168 0.83914 0.86672 0.0
H273 H 0.41248 0.78221 0.7457 0.0
H274 H 0.47798 0.82166 0.84556 0.0
H275 H 0.53255 0.77198 0.77077 0.0
C276 C 0.59758 0.79625 0.79844 0.0
C277 C 0.62263 0.8161 0.82538 0.0
C278 C 0.46261 0.81151 0.8238 0.0
C279 C 0.52887 0.79769 0.81224 0.0
C280 C 0.42609 0.82028 0.81423 0.0
C281 C 0.40914 0.81197 0.78574 0.0
C282 C 0.48207 0.79464 0.80458 0.0
C283 C 0.42491 0.78911 0.76783 0.0
C284 C 0.55078 0.78672 0.79185 0.0
C285 C 0.59893 0.82468 0.84557 0.0
N286 N 0.46134 0.78221 0.77745 0.0
N287 N 0.55349 0.81608 0.83848 0.0
H288 H 0.89956 0.61794 0.20179 0.0
H289 H 0.68714 0.56491 0.16912 0.0
H290 H 0.89083 0.53212 0.12781 0.0
H291 H 0.72037 0.54106 0.08815 0.0
H292 H 0.73177 0.52843 0.18849 0.0
H293 H 0.81325 0.56992 0.19938 0.0
C294 C 0.87956 0.58772 0.18555 0.0
C295 C 0.90185 0.58081 0.16397 0.0
C296 C 0.72828 0.5302 0.16636 0.0
C297 C 0.80237 0.52601 0.16053 0.0
C298 C 0.70272 0.551 0.15524 0.0
C299 C 0.70355 0.56 0.12739 0.0
C300 C 0.7551 0.51933 0.14941 0.0
C301 C 0.72087 0.5377 0.11007 0.0
C302 C 0.82979 0.55979 0.18417 0.0
C303 C 0.87438 0.54039 0.14392 0.0
N304 N 0.74736 0.51979 0.12155 0.0
N305 N 0.82576 0.5154 0.14212 0.0
H306 H 0.33281 0.84219 0.51451 0.0
H307 H 1.08262 0.818 0.46805 0.0
H308 H 0.3063 0.96034 0.51615 0.0
H309 H 0.11568 0.7053 0.45524 0.0
H310 H 0.15519 0.86286 0.50261 0.0
H311 H 0.24637 0.78611 0.51101 0.0
C312 C 0.30888 0.85639 0.51496 0.0
C313 C 0.32646 0.90575 0.51461 0.0
C314 C 0.14591 0.82774 0.49277 0.0
C315 C 0.22783 0.84203 0.51014 0.0
C316 C 1.10449 0.80215 0.47311 0.0
C317 C 1.09426 0.75877 0.45827 0.0
C318 C 0.17713 0.80974 0.49734 0.0
C319 C 0.12334 0.73945 0.4657 0.0
C320 C 0.25956 0.82441 0.51296 0.0
C321 C 0.29419 0.92245 0.51596 0.0
N322 N 0.16403 0.76552 0.48434 0.0
N323 N 0.2462 0.89051 0.51286 0.0
H324 H 0.57322 0.29644 0.86454 0.0
H325 H 0.61703 0.10285 0.78785 0.0
H326 H 0.70721 0.32842 0.83683 0.0
H327 H 0.47913 0.07948 0.80421 0.0
H328 H 0.65652 0.17834 0.81927 0.0
H329 H 0.54662 0.21113 0.85791 0.0
C330 C 0.59782 0.28575 0.85796 0.0
C331 C 0.642 0.31956 0.85042 0.0
C332 C 0.61766 0.15618 0.8164 0.0
C333 C 0.61095 0.22171 0.84193 0.0
C334 C 0.59508 0.11332 0.7983 0.0
C335 C 0.54465 0.08554 0.79279 0.0
C336 C 0.58957 0.17141 0.82895 0.0
C337 C 0.51806 0.09993 0.80762 0.0
C338 C 0.58232 0.23684 0.8539 0.0
C339 C 0.6722 0.30336 0.842 0.0
N340 N 0.54082 0.14232 0.82464 0.0
N341 N 0.65563 0.25542 0.83731 0.0
H342 H 0.56843 0.93149 0.49237 0.0
H343 H 0.71819 0.7916 0.49612 0.0
H344 H 0.72163 1.00509 0.4923 0.0
H345 H 0.56416 0.72071 0.48976 0.0
H346 H 0.72203 0.87018 0.49867 0.0
H347 H 0.56774 0.85554 0.4945 0.0
C348 C 0.60211 0.93202 0.49283 0.0
C349 C 0.64514 0.97575 0.49205 0.0
C350 C 0.68739 0.83751 0.49717 0.0
C351 C 0.6446 0.88697 0.49468 0.0
C352 C 0.68526 0.79242 0.49611 0.0
C353 C 0.64083 0.7488 0.49336 0.0
C354 C 0.64475 0.83967 0.49538 0.0
C355 C 0.59938 0.75294 0.49241 0.0
C356 C 0.60166 0.8882 0.49407 0.0
C357 C 0.68737 0.97289 0.49277 0.0
N358 N 0.60236 0.79687 0.49336 0.0
N359 N 0.686 0.92979 0.49402 0.0
H360 H 0.89241 0.71675 0.85204 0.0
H361 H 1.04087 0.58289 0.81862 0.0
H362 H 0.82344 0.57273 0.80897 0.0
H363 H 1.09914 0.71221 0.87603 0.0
H364 H 0.96417 0.58237 0.81012 0.0
H365 H 0.96964 0.71904 0.85675 0.0
C366 C 0.89319 0.68552 0.84342 0.0
C367 C 0.85026 0.64442 0.83008 0.0
C368 C 0.99391 0.61126 0.82433 0.0
C369 C 0.94063 0.64705 0.8353 0.0
C370 C 1.0382 0.6119 0.82894 0.0
C371 C 1.07759 0.64804 0.84786 0.0
C372 C 0.9883 0.64725 0.83851 0.0
C373 C 1.07052 0.68378 0.86106 0.0
C374 C 0.93773 0.68687 0.84618 0.0
C375 C 0.85487 0.60533 0.81951 0.0
N376 N 1.02746 0.68247 0.85617 0.0
N377 N 0.89866 0.60768 0.82225 0.0
H378 H 0.28755 0.83848 0.13522 0.0
H379 H 0.57024 0.98094 0.20047 0.0
H380 H 0.35517 0.77746 0.18528 0.0
H381 H 0.5076 1.04837 0.15246 0.0
H382 H 0.49268 0.9054 0.19207 0.0
H383 H 0.36629 0.91336 0.13885 0.0
C384 C 0.31871 0.84046 0.14694 0.0
C385 C 0.31368 0.80063 0.15996 0.0
C386 C 0.49562 0.93633 0.18301 0.0
C387 C 0.4055 0.88769 0.16416 0.0
C388 C 0.54041 0.97978 0.18764 0.0
C389 C 0.54653 1.02182 0.17698 0.0
C390 C 0.45513 0.93373 0.16766 0.0
C391 C 0.50553 1.01725 0.1608 0.0
C392 C 0.364 0.88357 0.14899 0.0
C393 C 0.3563 0.80645 0.17479 0.0
N394 N 0.46195 0.97454 0.15685 0.0
N395 N 0.39965 0.84852 0.17644 0.0
H396 H 0.58441 0.22323 0.46248 0.0
H397 H 0.72956 0.49958 0.53659 0.0
H398 H 0.71875 0.28659 0.51772 0.0
H399 H 0.59757 0.44235 0.48002 0.0
H400 H 0.72699 0.42292 0.5278 0.0
H401 H 0.58891 0.30186 0.46675 0.0
C402 C 0.61498 0.25346 0.47549 0.0
C403 C 0.65109 0.2472 0.48983 0.0
C404 C 0.69867 0.4269 0.517 0.0
C405 C 0.65648 0.33889 0.49487 0.0
C406 C 0.7002 0.47115 0.52194 0.0
C407 C 0.66382 0.47844 0.50907 0.0
C408 C 0.66022 0.38817 0.49898 0.0
C409 C 0.62685 0.43933 0.49031 0.0
C410 C 0.61749 0.29868 0.47791 0.0
C411 C 0.68967 0.28865 0.50629 0.0
N412 N 0.62583 0.39621 0.48607 0.0
N413 N 0.69113 0.33195 0.50836 0.0
H414 H 0.53401 0.56184 0.83093 0.0
H415 H 0.3954 0.71246 0.83618 0.0
H416 H 0.60454 0.71292 0.82237 0.0
H417 H 0.32343 0.55794 0.82794 0.0
H418 H 0.47334 0.71547 0.83754 0.0
H419 H 0.45918 0.56176 0.83458 0.0
C420 C 0.53415 0.59525 0.82983 0.0
C421 C 0.57679 0.63751 0.82627 0.0
C422 C 0.44059 0.68093 0.83565 0.0
C423 C 0.48914 0.63772 0.83091 0.0
C424 C 0.39591 0.6792 0.83548 0.0
C425 C 0.35211 0.63489 0.83282 0.0
C426 C 0.44228 0.63806 0.83275 0.0
C427 C 0.35581 0.59307 0.83082 0.0
C428 C 0.49092 0.59513 0.83197 0.0
C429 C 0.57331 0.67936 0.82512 0.0
N430 N 0.39939 0.59569 0.83079 0.0
N431 N 0.53085 0.67842 0.82749 0.0
H432 H 1.0038 0.56466 0.1651 0.0
H433 H 0.86016 0.27413 0.16282 0.0
H434 H 1.07445 0.48244 0.15914 0.0
H435 H 0.79355 0.36024 0.16588 0.0
H436 H 0.93919 0.34854 0.16474 0.0
H437 H 0.92832 0.49053 0.16781 0.0
C438 C 1.00378 0.53115 0.16437 0.0
C439 C 1.04661 0.53085 0.16183 0.0
C440 C 0.90745 0.35134 0.1655 0.0
C441 C 0.95812 0.44367 0.16502 0.0
C442 C 0.86215 0.30864 0.16483 0.0
C443 C 0.81955 0.31032 0.16498 0.0
C444 C 0.91083 0.39674 0.16611 0.0
C445 C 0.82502 0.35665 0.16639 0.0
C446 C 0.96017 0.48837 0.16594 0.0
C447 C 1.04298 0.48527 0.16102 0.0
N448 N 0.86909 0.3973 0.16683 0.0
N449 N 1.00002 0.44404 0.16257 0.0
H450 H 1.10174 0.6022 0.06316 0.0
H451 H 0.25185 0.68049 0.9368 0.0
H452 H 0.25635 0.66982 0.07598 0.0
H453 H 1.09874 0.58182 0.92761 0.0
H454 H 0.25648 0.67721 0.98727 0.0
H455 H 1.10159 0.59503 0.01322 0.0
C456 C 0.13577 0.6153 0.05543 0.0
C457 C 0.17914 0.6368 0.07383 0.0
C458 C 0.22201 0.656 0.97411 0.0
C459 C 0.17936 0.62924 0.01618 0.0
C460 C 0.21936 0.65772 0.9453 0.0
C461 C 0.17469 0.63207 0.92793 0.0
C462 C 0.17967 0.62853 0.98557 0.0
C463 C 0.13378 0.60321 0.94017 0.0
C464 C 0.13567 0.61111 0.02682 0.0
C465 C 0.22207 0.65284 0.06253 0.0
N466 N 0.13722 0.60263 0.96809 0.0
N467 N 0.22119 0.6493 0.03438 0.0
H468 H 0.58226 0.09016 0.39271 0.0
H469 H 0.72871 0.15678 0.2652 0.0
H470 H 0.73753 0.16775 0.40708 0.0
H471 H 0.58151 0.12209 0.26185 0.0
H472 H 0.7361 0.16219 0.31639 0.0
H473 H 0.5838 0.10044 0.3441 0.0
C474 C 0.61692 0.10934 0.38563 0.0
C475 C 0.65987 0.12767 0.4041 0.0
C476 C 0.70249 0.15408 0.30438 0.0
C477 C 0.66187 0.13977 0.34766 0.0
C478 C 0.69832 0.15118 0.27525 0.0
C479 C 0.65417 0.1382 0.25928 0.0
C480 C 0.66214 0.14374 0.31738 0.0
C481 C 0.6159 0.13125 0.27329 0.0
C482 C 0.61775 0.11553 0.35772 0.0
C483 C 0.70356 0.15289 0.39353 0.0
N484 N 0.62064 0.13359 0.30136 0.0
N485 N 0.7035 0.15777 0.36586 0.0
H486 H 0.75544 0.69529 0.73375 0.0
H487 H 0.61661 0.51115 0.59435 0.0
H488 H 0.63124 0.55338 0.73094 0.0
H489 H 0.72031 0.6612 0.59331 0.0
H490 H 0.62441 0.52594 0.64479 0.0
H491 H 0.74607 0.68372 0.6828 0.0
C492 C 0.72619 0.66177 0.72248 0.0
C493 C 0.69416 0.62523 0.73674 0.0
C494 C 0.64542 0.55577 0.63361 0.0
C495 C 0.6834 0.61171 0.67845 0.0
C496 C 0.64114 0.54727 0.60479 0.0
C497 C 0.66807 0.58493 0.58959 0.0
C498 C 0.67721 0.60228 0.64759 0.0
C499 C 0.69875 0.63117 0.60422 0.0
C500 C 0.72081 0.65526 0.69338 0.0
C501 C 0.65686 0.58263 0.72096 0.0
N502 N 0.70276 0.6385 0.63243 0.0
N503 N 0.65271 0.57701 0.69279 0.0
H504 H 0.54434 1.06843 0.55579 0.0
H505 H 0.60895 1.04909 0.71388 0.0
H506 H 0.68589 0.09722 0.58879 0.0
H507 H 0.46427 0.98692 0.67079 0.0
H508 H 0.63959 1.06817 0.66952 0.0
H509 H 0.51657 1.04114 0.59894 0.0
C510 C 0.56989 1.06933 0.57222 0.0
C511 C 0.61785 0.08569 0.56867 0.0
C512 C 0.60115 1.04983 0.66979 0.0
C513 C 0.5856 1.05377 0.61863 0.0
C514 C 0.58362 1.0391 0.69505 0.0
C515 C 0.53394 1.01673 0.69604 0.0
C516 C 0.56877 1.03856 0.64544 0.0
C517 C 0.50275 1.00395 0.67103 0.0
C518 C 0.55371 1.05324 0.5969 0.0
C519 C 0.64874 0.08514 0.59071 0.0
N520 N 0.52072 1.01551 0.64685 0.0
N521 N 0.63215 1.06975 0.61495 0.0
H522 H 0.68175 0.56945 0.90878 0.0
H523 H 0.75139 0.72264 0.05431 0.0
H524 H 0.73815 0.72278 0.91562 0.0
H525 H 0.62919 0.5774 0.03803 0.0
H526 H 0.75273 0.7238 0.00462 0.0
H527 H 0.66994 0.57107 0.95756 0.0
C528 C 0.69198 0.6035 0.92061 0.0
C529 C 0.71129 0.64614 0.90829 0.0
C530 C 0.72528 0.69196 0.01199 0.0
C531 C 0.69782 0.64811 0.96385 0.0
C532 C 0.72406 0.69129 0.04043 0.0
C533 C 0.69021 0.64965 0.05068 0.0
C534 C 0.69328 0.6504 -0.00638 0.0
C535 C 0.65672 0.60989 0.03131 0.0
C536 C 0.68473 0.60427 0.9483 0.0
C537 C 0.72329 0.68915 0.92442 0.0
N538 N 0.65961 0.61096 0.00373 0.0
N539 N 0.71684 0.68916 0.95153 0.0
H540 H 0.14933 0.74645 0.22971 0.0
H541 H 1.0855 0.65726 0.3758 0.0
H542 H 0.15687 0.62393 0.25399 0.0
H543 H 1.02595 0.73258 0.33293 0.0
H544 H 0.1185 0.64907 0.33394 0.0
H545 H 0.11258 0.74799 0.27054 0.0
C546 C 0.14374 0.72007 0.24378 0.0
C547 C 0.15637 0.68499 0.2384 0.0
C548 C 1.09779 0.66692 0.33365 0.0
C549 C 0.11394 0.68667 0.28537 0.0
C550 C 1.07908 0.6717 0.35746 0.0
C551 C 1.05312 0.69577 0.35775 0.0
C552 C 1.09125 0.6872 0.3102 0.0
C553 C 1.04553 0.71358 0.33349 0.0
C554 C 0.12229 0.72077 0.26699 0.0
C555 C 0.14779 0.65163 0.25738 0.0
N556 N 1.06503 0.70945 0.31079 0.0
N557 N 0.12726 0.65341 0.28017 0.0
loop_
_geom_bond_atom_site_label_1
_geom_bond_atom_site_label_2
_geom_bond_distance
_geom_bond_site_symmetry_2
_ccdc_geom_bond_type
Tb0 C10 2.825 . S
Tb0 O11 2.347 . S
Tb0 O14 2.366 . S
Tb0 O19 2.418 . S
Tb0 O20 2.384 1_455 S
Tb0 O23 2.479 . S
Tb0 O24 2.471 . S
Eu1 O12 2.418 . S
Eu1 O13 2.384 . S
Eu1 O16 2.479 1_455 S
Eu1 O17 2.471 1_455 S
Eu1 O18 2.347 . S
Eu1 O21 2.366 1_455 S
Eu1 C31 2.825 1_455 S
C2 O18 1.259 . S
C2 O19 1.265 . S
C3 O20 1.255 . S
C3 O21 1.265 . S
C4 C6 1.380 . S
C4 C7 1.374 . S
C4 C10 1.507 . S
C5 C6 1.384 . S
C5 C9 1.387 . S
C5 H32 0.930 . S
C6 C4 1.380 . S
C6 C5 1.384 . S
C6 H33 0.931 . S
C7 C4 1.374 . S
C7 C8 1.390 . S
C7 H34 0.930 . S
C8 C7 1.390 . S
C8 C9 1.391 . S
C8 H35 0.930 . S
C9 C5 1.387 . S
C9 C8 1.391 . S
C10 Tb0 2.825 . S
C10 C4 1.507 . S
C10 O23 1.238 . S
C10 O24 1.247 . S
O11 Tb0 2.347 . S
O11 C15 1.259 . S
O12 Eu1 2.418 . S
O12 C15 1.265 . S
O13 Eu1 2.384 . S
O13 C22 1.255 . S
O14 Tb0 2.366 . S
O14 C22 1.265 . S
C15 O11 1.259 . S
C15 O12 1.265 . S
O16 Eu1 2.479 1_655 S
O16 C31 1.238 . S
O17 Eu1 2.471 1_655 S
O17 C31 1.247 . S
O18 Eu1 2.347 . S
O18 C2 1.259 . S
O19 Tb0 2.418 . S
O19 C2 1.265 . S
O20 Tb0 2.384 1_655 S
O20 C3 1.255 . S
O21 Eu1 2.366 1_655 S
O21 C3 1.265 . S
C22 O13 1.255 . S
C22 O14 1.265 . S
O23 Tb0 2.479 . S
O23 C10 1.238 . S
O24 Tb0 2.471 . S
O24 C10 1.247 . S
C25 C28 1.380 . S
C25 C29 1.374 . S
C25 C31 1.507 . S
C26 C27 1.387 . S
C26 C30 1.391 . S
C27 C26 1.387 . S
C27 C28 1.384 . S
C27 H36 0.930 . S
C28 C25 1.380 . S
C28 C27 1.384 . S
C28 H37 0.931 . S
C29 C25 1.374 . S
C29 C30 1.390 . S
C29 H38 0.930 . S
C30 C26 1.391 . S
C30 C29 1.390 . S
C30 H39 0.930 . S
C31 Eu1 2.825 1_655 S
C31 O16 1.238 . S
C31 O17 1.247 . S
C31 C25 1.507 . S
H32 C5 0.930 . S
H33 C6 0.931 . S
H34 C7 0.930 . S
H35 C8 0.930 . S
H36 C27 0.930 . S
H37 C28 0.931 . S
H38 C29 0.930 . S
H39 C30 0.930 . S
Tb40 C50 2.825 . S
Tb40 O51 2.347 . S
Tb40 O54 2.366 . S
Tb40 O59 2.418 . S
Tb40 O60 2.384 . S
Tb40 O63 2.479 . S
Tb40 O64 2.471 . S
Eu41 O52 2.418 . S
Eu41 O53 2.384 . S
Eu41 O56 2.479 1_545 S
Eu41 O57 2.471 1_545 S
Eu41 O58 2.347 . S
Eu41 O61 2.366 1_545 S
Eu41 C71 2.825 1_545 S
C42 O58 1.259 . S
C42 O59 1.265 . S
C43 O60 1.255 1_565 S
C43 O61 1.265 . S
C44 C46 1.380 . S
C44 C47 1.374 . S
C44 C50 1.507 . S
C45 C46 1.384 . S
C45 C49 1.387 . S
C45 H72 0.930 . S
C46 C44 1.380 . S
C46 C45 1.384 . S
C46 H73 0.931 . S
C47 C44 1.374 . S
C47 C48 1.390 . S
C47 H74 0.930 . S
C48 C47 1.390 . S
C48 C49 1.391 . S
C48 H75 0.930 . S
C49 C45 1.387 . S
C49 C48 1.391 . S
C50 Tb40 2.825 . S
C50 C44 1.507 . S
C50 O63 1.238 . S
C50 O64 1.247 . S
O51 Tb40 2.347 . S
O51 C55 1.259 . S
O52 Eu41 2.418 . S
O52 C55 1.265 . S
O53 Eu41 2.384 . S
O53 C62 1.255 . S
O54 Tb40 2.366 . S
O54 C62 1.265 . S
C55 O51 1.259 . S
C55 O52 1.265 . S
O56 Eu41 2.479 1_565 S
O56 C71 1.238 . S
O57 Eu41 2.471 1_565 S
O57 C71 1.247 . S
O58 Eu41 2.347 . S
O58 C42 1.259 . S
O59 Tb40 2.418 . S
O59 C42 1.265 . S
O60 Tb40 2.384 . S
O60 C43 1.255 1_545 S
O61 Eu41 2.366 1_565 S
O61 C43 1.265 . S
C62 O53 1.255 . S
C62 O54 1.265 . S
O63 Tb40 2.479 . S
O63 C50 1.238 . S
O64 Tb40 2.471 . S
O64 C50 1.247 . S
C65 C68 1.380 . S
C65 C69 1.374 . S
C65 C71 1.507 . S
C66 C67 1.387 . S
C66 C70 1.391 . S
C67 C66 1.387 . S
C67 C68 1.384 . S
C67 H76 0.930 . S
C68 C65 1.380 . S
C68 C67 1.384 . S
C68 H77 0.931 . S
C69 C65 1.374 . S
C69 C70 1.390 . S
C69 H78 0.930 . S
C70 C66 1.391 . S
C70 C69 1.390 . S
C70 H79 0.930 . S
C71 Eu41 2.825 1_565 S
C71 O56 1.238 . S
C71 O57 1.247 . S
C71 C65 1.507 . S
H72 C45 0.930 . S
H73 C46 0.931 . S
H74 C47 0.930 . S
H75 C48 0.930 . S
H76 C67 0.930 . S
H77 C68 0.931 . S
H78 C69 0.930 . S
H79 C70 0.930 . S
Tb80 C90 2.825 . S
Tb80 O91 2.347 . S
Tb80 O94 2.366 . S
Tb80 O99 2.418 . S
Tb80 O100 2.384 . S
Tb80 O103 2.479 . S
Tb80 O104 2.471 . S
Eu81 O92 2.418 . S
Eu81 O93 2.384 . S
Eu81 O96 2.479 . S
Eu81 O97 2.471 . S
Eu81 O98 2.347 . S
Eu81 O101 2.366 . S
Eu81 C111 2.825 . S
C82 O98 1.259 . S
C82 O99 1.265 . S
C83 O100 1.255 . S
C83 O101 1.265 . S
C84 C86 1.380 . S
C84 C87 1.374 . S
C84 C90 1.507 . S
C85 C86 1.384 . S
C85 C89 1.387 . S
C85 H112 0.930 . S
C86 C84 1.380 . S
C86 C85 1.384 . S
C86 H113 0.931 . S
C87 C84 1.374 . S
C87 C88 1.390 . S
C87 H114 0.930 . S
C88 C87 1.390 . S
C88 C89 1.391 . S
C88 H115 0.930 . S
C89 C85 1.387 . S
C89 C88 1.391 . S
C90 Tb80 2.825 . S
C90 C84 1.507 . S
C90 O103 1.238 . S
C90 O104 1.247 . S
O91 Tb80 2.347 . S
O91 C95 1.259 . S
O92 Eu81 2.418 . S
O92 C95 1.265 . S
O93 Eu81 2.384 . S
O93 C102 1.255 . S
O94 Tb80 2.366 . S
O94 C102 1.265 . S
C95 O91 1.259 . S
C95 O92 1.265 . S
O96 Eu81 2.479 . S
O96 C111 1.238 . S
O97 Eu81 2.471 . S
O97 C111 1.247 . S
O98 Eu81 2.347 . S
O98 C82 1.259 . S
O99 Tb80 2.418 . S
O99 C82 1.265 . S
O100 Tb80 2.384 . S
O100 C83 1.255 . S
O101 Eu81 2.366 . S
O101 C83 1.265 . S
C102 O93 1.255 . S
C102 O94 1.265 . S
O103 Tb80 2.479 . S
O103 C90 1.238 . S
O104 Tb80 2.471 . S
O104 C90 1.247 . S
C105 C108 1.380 . S
C105 C109 1.374 . S
C105 C111 1.507 . S
C106 C107 1.387 . S
C106 C110 1.391 . S
C107 C106 1.387 . S
C107 C108 1.384 . S
C107 H116 0.930 . S
C108 C105 1.380 . S
C108 C107 1.384 . S
C108 H117 0.931 . S
C109 C105 1.374 . S
C109 C110 1.390 . S
C109 H118 0.930 . S
C110 C106 1.391 . S
C110 C109 1.390 . S
C110 H119 0.930 . S
C111 Eu81 2.825 . S
C111 O96 1.238 . S
C111 O97 1.247 . S
C111 C105 1.507 . S
H112 C85 0.930 . S
H113 C86 0.931 . S
H114 C87 0.930 . S
H115 C88 0.930 . S
H116 C107 0.930 . S
H117 C108 0.931 . S
H118 C109 0.930 . S
H119 C110 0.930 . S
H120 C121 0.949 . S
C121 H120 0.949 . S
C121 C122 1.395 . S
C121 C123 1.391 . S
C122 C121 1.395 . S
C122 C125 1.390 . S
C123 C121 1.391 . S
C123 C127 1.387 . S
C123 C128 1.491 . S
H124 C125 0.950 1_565 S
C125 C122 1.390 . S
C125 H124 0.950 1_545 S
C125 C126 1.378 . S
C126 C125 1.378 . S
C126 C127 1.409 . S
C127 C123 1.387 . S
C127 C126 1.409 . S
C127 H129 0.951 . S
C128 C123 1.491 . S
C128 C130 1.382 . S
C128 C132 1.404 . S
H129 C127 0.951 . S
C130 C128 1.382 . S
C130 C131 1.390 . S
C130 H135 0.949 . S
C131 C130 1.390 . S
C131 C136 1.399 . S
C132 C128 1.404 . S
C132 H133 0.950 . S
C132 C134 1.375 . S
H133 C132 0.950 . S
C134 C132 1.375 . S
C134 C136 1.382 . S
C134 H138 0.950 . S
H135 C130 0.949 . S
C136 C131 1.399 . S
C136 C134 1.382 . S
C136 H137 0.952 . S
H137 C136 0.952 . S
H138 C134 0.950 . S
H139 C140 0.949 . S
C140 H139 0.949 . S
C140 C141 1.395 . S
C140 C142 1.391 . S
C141 C140 1.395 . S
C141 C144 1.390 . S
C142 C140 1.391 . S
C142 C146 1.387 . S
C142 C147 1.491 . S
H143 C144 0.950 . S
C144 C141 1.390 . S
C144 H143 0.950 . S
C144 C145 1.378 . S
C145 C144 1.378 . S
C145 C146 1.409 . S
C146 C142 1.387 . S
C146 C145 1.409 . S
C146 H148 0.951 . S
C147 C142 1.491 . S
C147 C149 1.382 . S
C147 C151 1.404 . S
H148 C146 0.951 . S
C149 C147 1.382 . S
C149 C150 1.390 . S
C149 H154 0.949 . S
C150 C149 1.390 . S
C150 C155 1.399 . S
C151 C147 1.404 . S
C151 H152 0.950 . S
C151 C153 1.375 . S
H152 C151 0.950 . S
C153 C151 1.375 . S
C153 C155 1.382 . S
C153 H157 0.950 . S
H154 C149 0.949 . S
C155 C150 1.399 . S
C155 C153 1.382 . S
C155 H156 0.952 . S
H156 C155 0.952 . S
H157 C153 0.950 . S
H158 C159 0.949 . S
C159 H158 0.949 . S
C159 C160 1.395 . S
C159 C161 1.391 . S
C160 C159 1.395 . S
C160 C163 1.390 1_455 S
C161 C159 1.391 . S
C161 C165 1.387 . S
C161 C166 1.491 . S
H162 C163 0.950 . S
C163 C160 1.390 1_655 S
C163 H162 0.950 . S
C163 C164 1.378 . S
C164 C163 1.378 . S
C164 C165 1.409 1_655 S
C165 C161 1.387 . S
C165 C164 1.409 1_455 S
C165 H167 0.951 1_455 S
C166 C161 1.491 . S
C166 C168 1.382 . S
C166 C170 1.404 . S
H167 C165 0.951 1_655 S
C168 C166 1.382 . S
C168 C169 1.390 . S
C168 H173 0.949 . S
C169 C168 1.390 . S
C169 C174 1.399 . S
C170 C166 1.404 . S
C170 H171 0.950 . S
C170 C172 1.375 . S
H171 C170 0.950 . S
C172 C170 1.375 . S
C172 C174 1.382 . S
C172 H176 0.950 . S
H173 C168 0.949 . S
C174 C169 1.399 . S
C174 C172 1.382 . S
C174 H175 0.952 . S
H175 C174 0.952 . S
H176 C172 0.950 . S
H177 C178 0.949 1_655 S
C178 H177 0.949 1_455 S
C178 C179 1.395 . S
C178 C180 1.391 . S
C179 C178 1.395 . S
C179 C182 1.390 . S
C180 C178 1.391 . S
C180 C184 1.387 . S
C180 C185 1.491 1_455 S
H181 C182 0.950 . S
C182 C179 1.390 . S
C182 H181 0.950 . S
C182 C183 1.378 . S
C183 C182 1.378 . S
C183 C184 1.409 . S
C184 C180 1.387 . S
C184 C183 1.409 . S
C184 H186 0.951 . S
C185 C180 1.491 1_655 S
C185 C187 1.382 . S
C185 C189 1.404 . S
H186 C184 0.951 . S
C187 C185 1.382 . S
C187 C188 1.390 . S
C187 H192 0.949 . S
C188 C187 1.390 . S
C188 C193 1.399 . S
C189 C185 1.404 . S
C189 H190 0.950 . S
C189 C191 1.375 . S
H190 C189 0.950 . S
C191 C189 1.375 . S
C191 C193 1.382 . S
C191 H195 0.950 . S
H192 C187 0.949 . S
C193 C188 1.399 . S
C193 C191 1.382 . S
C193 H194 0.952 . S
H194 C193 0.952 . S
H195 C191 0.950 . S
H196 C197 0.949 1_565 S
C197 H196 0.949 1_545 S
C197 C198 1.395 . S
C197 C199 1.391 . S
C198 C197 1.395 . S
C198 C201 1.390 . S
C199 C197 1.391 . S
C199 C203 1.387 . S
C199 C204 1.491 1_545 S
H200 C201 0.950 . S
C201 C198 1.390 . S
C201 H200 0.950 . S
C201 C202 1.378 . S
C202 C201 1.378 . S
C202 C203 1.409 . S
C203 C199 1.387 . S
C203 C202 1.409 . S
C203 H205 0.951 . S
C204 C199 1.491 1_565 S
C204 C206 1.382 . S
C204 C208 1.404 . S
H205 C203 0.951 . S
C206 C204 1.382 . S
C206 C207 1.390 . S
C206 H211 0.949 . S
C207 C206 1.390 . S
C207 C212 1.399 . S
C208 C204 1.404 . S
C208 H209 0.950 . S
C208 C210 1.375 . S
H209 C208 0.950 . S
C210 C208 1.375 . S
C210 C212 1.382 . S
C210 H214 0.950 . S
H211 C206 0.949 . S
C212 C207 1.399 . S
C212 C210 1.382 . S
C212 H213 0.952 . S
H213 C212 0.952 . S
H214 C210 0.950 . S
H215 C216 0.949 . S
C216 H215 0.949 . S
C216 C217 1.395 . S
C216 C218 1.391 . S
C217 C216 1.395 . S
C217 C220 1.390 . S
C218 C216 1.391 . S
C218 C222 1.387 . S
C218 C223 1.491 . S
H219 C220 0.950 . S
C220 C217 1.390 . S
C220 H219 0.950 . S
C220 C221 1.378 . S
C221 C220 1.378 . S
C221 C222 1.409 . S
C222 C218 1.387 . S
C222 C221 1.409 . S
C222 H224 0.951 . S
C223 C218 1.491 . S
C223 C225 1.382 . S
C223 C227 1.404 . S
H224 C222 0.951 . S
C225 C223 1.382 . S
C225 C226 1.390 . S
C225 H230 0.949 . S
C226 C225 1.390 . S
C226 C231 1.399 . S
C227 C223 1.404 . S
C227 H228 0.950 . S
C227 C229 1.375 . S
H228 C227 0.950 . S
C229 C227 1.375 . S
C229 C231 1.382 . S
C229 H233 0.950 . S
H230 C225 0.949 . S
C231 C226 1.399 . S
C231 C229 1.382 . S
C231 H232 0.952 . S
H232 C231 0.952 . S
H233 C229 0.950 . S
H234 C240 0.930 . S
H235 C244 0.930 . S
H236 C249 0.929 . S
H237 C247 0.929 . S
H238 C242 0.929 . S
H239 C248 0.929 . S
C240 H234 0.930 . S
C240 C241 1.367 . S
C240 C248 1.378 . S
C241 C240 1.367 . S
C241 C249 1.433 . S
C242 H238 0.929 . S
C242 C244 1.378 . S
C242 C246 1.350 . S
C243 C246 1.463 . S
C243 C248 1.350 . S
C243 N251 1.427 . S
C244 H235 0.930 . S
C244 C242 1.378 . S
C244 C245 1.367 . S
C245 C244 1.367 . S
C245 C247 1.433 . S
C246 C242 1.350 . S
C246 C243 1.463 . S
C246 N250 1.427 . S
C247 H237 0.929 . S
C247 C245 1.433 . S
C247 N250 1.384 . S
C248 H239 0.929 . S
C248 C240 1.378 . S
C248 C243 1.350 . S
C249 H236 0.929 . S
C249 C241 1.433 . S
C249 N251 1.384 . S
N250 C246 1.427 . S
N250 C247 1.384 . S
N251 C243 1.427 . S
N251 C249 1.384 . S
H252 C258 0.930 . S
H253 C262 0.930 . S
H254 C267 0.929 . S
H255 C265 0.929 . S
H256 C260 0.929 . S
H257 C266 0.929 . S
C258 H252 0.930 . S
C258 C259 1.367 . S
C258 C266 1.378 . S
C259 C258 1.367 . S
C259 C267 1.433 . S
C260 H256 0.929 . S
C260 C262 1.378 . S
C260 C264 1.350 . S
C261 C264 1.463 . S
C261 C266 1.350 . S
C261 N269 1.427 . S
C262 H253 0.930 . S
C262 C260 1.378 . S
C262 C263 1.367 . S
C263 C262 1.367 . S
C263 C265 1.433 . S
C264 C260 1.350 . S
C264 C261 1.463 . S
C264 N268 1.427 . S
C265 H255 0.929 . S
C265 C263 1.433 . S
C265 N268 1.384 . S
C266 H257 0.929 . S
C266 C258 1.378 . S
C266 C261 1.350 . S
C267 H254 0.929 . S
C267 C259 1.433 . S
C267 N269 1.384 . S
N268 C264 1.427 . S
N268 C265 1.384 . S
N269 C261 1.427 . S
N269 C267 1.384 . S
H270 C276 0.930 . S
H271 C280 0.930 . S
H272 C285 0.929 . S
H273 C283 0.929 . S
H274 C278 0.929 . S
H275 C284 0.929 . S
C276 H270 0.930 . S
C276 C277 1.367 . S
C276 C284 1.378 . S
C277 C276 1.367 . S
C277 C285 1.433 . S
C278 H274 0.929 . S
C278 C280 1.378 . S
C278 C282 1.350 . S
C279 C282 1.463 . S
C279 C284 1.350 . S
C279 N287 1.427 . S
C280 H271 0.930 . S
C280 C278 1.378 . S
C280 C281 1.367 . S
C281 C280 1.367 . S
C281 C283 1.433 . S
C282 C278 1.350 . S
C282 C279 1.463 . S
C282 N286 1.427 . S
C283 H273 0.929 . S
C283 C281 1.433 . S
C283 N286 1.384 . S
C284 H275 0.929 . S
C284 C276 1.378 . S
C284 C279 1.350 . S
C285 H272 0.929 . S
C285 C277 1.433 . S
C285 N287 1.384 . S
N286 C282 1.427 . S
N286 C283 1.384 . S
N287 C279 1.427 . S
N287 C285 1.384 . S
H288 C294 0.930 . S
H289 C298 0.930 . S
H290 C303 0.929 . S
H291 C301 0.929 . S
H292 C296 0.929 . S
H293 C302 0.929 . S
C294 H288 0.930 . S
C294 C295 1.367 . S
C294 C302 1.378 . S
C295 C294 1.367 . S
C295 C303 1.433 . S
C296 H292 0.929 . S
C296 C298 1.378 . S
C296 C300 1.350 . S
C297 C300 1.463 . S
C297 C302 1.350 . S
C297 N305 1.427 . S
C298 H289 0.930 . S
C298 C296 1.378 . S
C298 C299 1.367 . S
C299 C298 1.367 . S
C299 C301 1.433 . S
C300 C296 1.350 . S
C300 C297 1.463 . S
C300 N304 1.427 . S
C301 H291 0.929 . S
C301 C299 1.433 . S
C301 N304 1.384 . S
C302 H293 0.929 . S
C302 C294 1.378 . S
C302 C297 1.350 . S
C303 H290 0.929 . S
C303 C295 1.433 . S
C303 N305 1.384 . S
N304 C300 1.427 . S
N304 C301 1.384 . S
N305 C297 1.427 . S
N305 C303 1.384 . S
H306 C312 0.930 . S
H307 C316 0.930 . S
H308 C321 0.929 . S
H309 C319 0.929 . S
H310 C314 0.929 . S
H311 C320 0.929 . S
C312 H306 0.930 . S
C312 C313 1.367 . S
C312 C320 1.378 . S
C313 C312 1.367 . S
C313 C321 1.433 . S
C314 H310 0.929 . S
C314 C316 1.378 . S
C314 C318 1.350 . S
C315 C318 1.463 . S
C315 C320 1.350 . S
C315 N323 1.427 . S
C316 H307 0.930 . S
C316 C314 1.378 . S
C316 C317 1.367 . S
C317 C316 1.367 . S
C317 C319 1.433 . S
C318 C314 1.350 . S
C318 C315 1.463 . S
C318 N322 1.427 . S
C319 H309 0.929 . S
C319 C317 1.433 . S
C319 N322 1.384 . S
C320 H311 0.929 . S
C320 C312 1.378 . S
C320 C315 1.350 . S
C321 H308 0.929 . S
C321 C313 1.433 . S
C321 N323 1.384 . S
N322 C318 1.427 . S
N322 C319 1.384 . S
N323 C315 1.427 . S
N323 C321 1.384 . S
H324 C330 0.930 . S
H325 C334 0.930 . S
H326 C339 0.929 . S
H327 C337 0.929 . S
H328 C332 0.929 . S
H329 C338 0.929 . S
C330 H324 0.930 . S
C330 C331 1.367 . S
C330 C338 1.378 . S
C331 C330 1.367 . S
C331 C339 1.433 . S
C332 H328 0.929 . S
C332 C334 1.378 . S
C332 C336 1.350 . S
C333 C336 1.463 . S
C333 C338 1.350 . S
C333 N341 1.427 . S
C334 H325 0.930 . S
C334 C332 1.378 . S
C334 C335 1.367 . S
C335 C334 1.367 . S
C335 C337 1.433 . S
C336 C332 1.350 . S
C336 C333 1.463 . S
C336 N340 1.427 . S
C337 H327 0.929 . S
C337 C335 1.433 . S
C337 N340 1.384 . S
C338 H329 0.929 . S
C338 C330 1.378 . S
C338 C333 1.350 . S
C339 H326 0.929 . S
C339 C331 1.433 . S
C339 N341 1.384 . S
N340 C336 1.427 . S
N340 C337 1.384 . S
N341 C333 1.427 . S
N341 C339 1.384 . S
H342 C348 0.930 . S
H343 C352 0.930 . S
H344 C357 0.929 . S
H345 C355 0.929 . S
H346 C350 0.929 . S
H347 C356 0.929 . S
C348 H342 0.930 . S
C348 C349 1.367 . S
C348 C356 1.378 . S
C349 C348 1.367 . S
C349 C357 1.433 . S
C350 H346 0.929 . S
C350 C352 1.378 . S
C350 C354 1.350 . S
C351 C354 1.463 . S
C351 C356 1.350 . S
C351 N359 1.427 . S
C352 H343 0.930 . S
C352 C350 1.378 . S
C352 C353 1.367 . S
C353 C352 1.367 . S
C353 C355 1.433 . S
C354 C350 1.350 . S
C354 C351 1.463 . S
C354 N358 1.427 . S
C355 H345 0.929 . S
C355 C353 1.433 . S
C355 N358 1.384 . S
C356 H347 0.929 . S
C356 C348 1.378 . S
C356 C351 1.350 . S
C357 H344 0.929 . S
C357 C349 1.433 . S
C357 N359 1.384 . S
N358 C354 1.427 . S
N358 C355 1.384 . S
N359 C351 1.427 . S
N359 C357 1.384 . S
H360 C366 0.930 . S
H361 C370 0.930 . S
H362 C375 0.929 . S
H363 C373 0.929 . S
H364 C368 0.929 . S
H365 C374 0.929 . S
C366 H360 0.930 . S
C366 C367 1.367 . S
C366 C374 1.378 . S
C367 C366 1.367 . S
C367 C375 1.433 . S
C368 H364 0.929 . S
C368 C370 1.378 . S
C368 C372 1.350 . S
C369 C372 1.463 . S
C369 C374 1.350 . S
C369 N377 1.427 . S
C370 H361 0.930 . S
C370 C368 1.378 . S
C370 C371 1.367 . S
C371 C370 1.367 . S
C371 C373 1.433 . S
C372 C368 1.350 . S
C372 C369 1.463 . S
C372 N376 1.427 . S
C373 H363 0.929 . S
C373 C371 1.433 . S
C373 N376 1.384 . S
C374 H365 0.929 . S
C374 C366 1.378 . S
C374 C369 1.350 . S
C375 H362 0.929 . S
C375 C367 1.433 . S
C375 N377 1.384 . S
N376 C372 1.427 . S
N376 C373 1.384 . S
N377 C369 1.427 . S
N377 C375 1.384 . S
H378 C384 0.930 . S
H379 C388 0.930 . S
H380 C393 0.929 . S
H381 C391 0.929 . S
H382 C386 0.929 . S
H383 C392 0.929 . S
C384 H378 0.930 . S
C384 C385 1.367 . S
C384 C392 1.378 . S
C385 C384 1.367 . S
C385 C393 1.433 . S
C386 H382 0.929 . S
C386 C388 1.378 . S
C386 C390 1.350 . S
C387 C390 1.463 . S
C387 C392 1.350 . S
C387 N395 1.427 . S
C388 H379 0.930 . S
C388 C386 1.378 . S
C388 C389 1.367 . S
C389 C388 1.367 . S
C389 C391 1.433 . S
C390 C386 1.350 . S
C390 C387 1.463 . S
C390 N394 1.427 . S
C391 H381 0.929 . S
C391 C389 1.433 . S
C391 N394 1.384 . S
C392 H383 0.929 . S
C392 C384 1.378 . S
C392 C387 1.350 . S
C393 H380 0.929 . S
C393 C385 1.433 . S
C393 N395 1.384 . S
N394 C390 1.427 . S
N394 C391 1.384 . S
N395 C387 1.427 . S
N395 C393 1.384 . S
H396 C402 0.930 . S
H397 C406 0.930 . S
H398 C411 0.929 . S
H399 C409 0.929 . S
H400 C404 0.929 . S
H401 C410 0.929 . S
C402 H396 0.930 . S
C402 C403 1.367 . S
C402 C410 1.378 . S
C403 C402 1.367 . S
C403 C411 1.433 . S
C404 H400 0.929 . S
C404 C406 1.378 . S
C404 C408 1.350 . S
C405 C408 1.463 . S
C405 C410 1.350 . S
C405 N413 1.427 . S
C406 H397 0.930 . S
C406 C404 1.378 . S
C406 C407 1.367 . S
C407 C406 1.367 . S
C407 C409 1.433 . S
C408 C404 1.350 . S
C408 C405 1.463 . S
C408 N412 1.427 . S
C409 H399 0.929 . S
C409 C407 1.433 . S
C409 N412 1.384 . S
C410 H401 0.929 . S
C410 C402 1.378 . S
C410 C405 1.350 . S
C411 H398 0.929 . S
C411 C403 1.433 . S
C411 N413 1.384 . S
N412 C408 1.427 . S
N412 C409 1.384 . S
N413 C405 1.427 . S
N413 C411 1.384 . S
H414 C420 0.930 . S
H415 C424 0.930 . S
H416 C429 0.929 . S
H417 C427 0.929 . S
H418 C422 0.929 . S
H419 C428 0.929 . S
C420 H414 0.930 . S
C420 C421 1.367 . S
C420 C428 1.378 . S
C421 C420 1.367 . S
C421 C429 1.433 . S
C422 H418 0.929 . S
C422 C424 1.378 . S
C422 C426 1.350 . S
C423 C426 1.463 . S
C423 C428 1.350 . S
C423 N431 1.427 . S
C424 H415 0.930 . S
C424 C422 1.378 . S
C424 C425 1.367 . S
C425 C424 1.367 . S
C425 C427 1.433 . S
C426 C422 1.350 . S
C426 C423 1.463 . S
C426 N430 1.427 . S
C427 H417 0.929 . S
C427 C425 1.433 . S
C427 N430 1.384 . S
C428 H419 0.929 . S
C428 C420 1.378 . S
C428 C423 1.350 . S
C429 H416 0.929 . S
C429 C421 1.433 . S
C429 N431 1.384 . S
N430 C426 1.427 . S
N430 C427 1.384 . S
N431 C423 1.427 . S
N431 C429 1.384 . S
H432 C438 0.930 . S
H433 C442 0.930 . S
H434 C447 0.929 . S
H435 C445 0.929 . S
H436 C440 0.929 . S
H437 C446 0.929 . S
C438 H432 0.930 . S
C438 C439 1.367 . S
C438 C446 1.378 . S
C439 C438 1.367 . S
C439 C447 1.433 . S
C440 H436 0.929 . S
C440 C442 1.378 . S
C440 C444 1.350 . S
C441 C444 1.463 . S
C441 C446 1.350 . S
C441 N449 1.427 . S
C442 H433 0.930 . S
C442 C440 1.378 . S
C442 C443 1.367 . S
C443 C442 1.367 . S
C443 C445 1.433 . S
C444 C440 1.350 . S
C444 C441 1.463 . S
C444 N448 1.427 . S
C445 H435 0.929 . S
C445 C443 1.433 . S
C445 N448 1.384 . S
C446 H437 0.929 . S
C446 C438 1.378 . S
C446 C441 1.350 . S
C447 H434 0.929 . S
C447 C439 1.433 . S
C447 N449 1.384 . S
N448 C444 1.427 . S
N448 C445 1.384 . S
N449 C441 1.427 . S
N449 C447 1.384 . S
H450 C456 0.930 . S
H451 C460 0.930 . S
H452 C465 0.929 . S
H453 C463 0.929 . S
H454 C458 0.929 . S
H455 C464 0.929 . S
C456 H450 0.930 . S
C456 C457 1.367 1_655 S
C456 C464 1.378 . S
C457 C456 1.367 1_455 S
C457 C465 1.433 . S
C458 H454 0.929 . S
C458 C460 1.378 . S
C458 C462 1.350 . S
C459 C462 1.463 1_554 S
C459 C464 1.350 1_455 S
C459 N467 1.427 . S
C460 H451 0.930 . S
C460 C458 1.378 . S
C460 C461 1.367 . S
C461 C460 1.367 . S
C461 C463 1.433 1_455 S
C462 C458 1.350 . S
C462 C459 1.463 1_556 S
C462 N466 1.427 1_455 S
C463 H453 0.929 . S
C463 C461 1.433 1_655 S
C463 N466 1.384 . S
C464 H455 0.929 . S
C464 C456 1.378 . S
C464 C459 1.350 1_655 S
C465 H452 0.929 . S
C465 C457 1.433 . S
C465 N467 1.384 . S
N466 C462 1.427 1_655 S
N466 C463 1.384 . S
N467 C459 1.427 . S
N467 C465 1.384 . S
H468 C474 0.930 . S
H469 C478 0.930 . S
H470 C483 0.929 . S
H471 C481 0.929 . S
H472 C476 0.929 . S
H473 C482 0.929 . S
C474 H468 0.930 . S
C474 C475 1.367 . S
C474 C482 1.378 . S
C475 C474 1.367 . S
C475 C483 1.433 . S
C476 H472 0.929 . S
C476 C478 1.378 . S
C476 C480 1.350 . S
C477 C480 1.463 . S
C477 C482 1.350 . S
C477 N485 1.427 . S
C478 H469 0.930 . S
C478 C476 1.378 . S
C478 C479 1.367 . S
C479 C478 1.367 . S
C479 C481 1.433 . S
C480 C476 1.350 . S
C480 C477 1.463 . S
C480 N484 1.427 . S
C481 H471 0.929 . S
C481 C479 1.433 . S
C481 N484 1.384 . S
C482 H473 0.929 . S
C482 C474 1.378 . S
C482 C477 1.350 . S
C483 H470 0.929 . S
C483 C475 1.433 . S
C483 N485 1.384 . S
N484 C480 1.427 . S
N484 C481 1.384 . S
N485 C477 1.427 . S
N485 C483 1.384 . S
H486 C492 0.930 . S
H487 C496 0.930 . S
H488 C501 0.929 . S
H489 C499 0.929 . S
H490 C494 0.929 . S
H491 C500 0.929 . S
C492 H486 0.930 . S
C492 C493 1.367 . S
C492 C500 1.378 . S
C493 C492 1.367 . S
C493 C501 1.433 . S
C494 H490 0.929 . S
C494 C496 1.378 . S
C494 C498 1.350 . S
C495 C498 1.463 . S
C495 C500 1.350 . S
C495 N503 1.427 . S
C496 H487 0.930 . S
C496 C494 1.378 . S
C496 C497 1.367 . S
C497 C496 1.367 . S
C497 C499 1.433 . S
C498 C494 1.350 . S
C498 C495 1.463 . S
C498 N502 1.427 . S
C499 H489 0.929 . S
C499 C497 1.433 . S
C499 N502 1.384 . S
C500 H491 0.929 . S
C500 C492 1.378 . S
C500 C495 1.350 . S
C501 H488 0.929 . S
C501 C493 1.433 . S
C501 N503 1.384 . S
N502 C498 1.427 . S
N502 C499 1.384 . S
N503 C495 1.427 . S
N503 C501 1.384 . S
H504 C510 0.930 . S
H505 C514 0.930 1_565 S
H506 C519 0.929 . S
H507 C517 0.929 . S
H508 C512 0.927 1_565 S
H509 C518 0.929 . S
C510 H504 0.930 . S
C510 C511 1.367 . S
C510 C518 1.378 . S
C511 C510 1.367 . S
C511 C519 1.433 . S
C512 H508 0.927 1_545 S
C512 C514 1.378 . S
C512 C516 1.350 . S
C513 C516 1.463 . S
C513 C518 1.350 . S
C513 N521 1.427 . S
C514 H505 0.930 1_545 S
C514 C512 1.378 . S
C514 C515 1.367 . S
C515 C514 1.367 . S
C515 C517 1.433 . S
C516 C512 1.350 . S
C516 C513 1.463 . S
C516 N520 1.427 . S
C517 H507 0.929 . S
C517 C515 1.433 . S
C517 N520 1.384 . S
C518 H509 0.929 . S
C518 C510 1.378 . S
C518 C513 1.350 . S
C519 H506 0.929 . S
C519 C511 1.433 . S
C519 N521 1.384 . S
N520 C516 1.427 . S
N520 C517 1.384 . S
N521 C513 1.427 . S
N521 C519 1.384 . S
H522 C528 0.930 . S
H523 C532 0.930 . S
H524 C537 0.929 . S
H525 C535 0.929 . S
H526 C530 0.929 . S
H527 C536 0.929 . S
C528 H522 0.930 . S
C528 C529 1.367 . S
C528 C536 1.378 . S
C529 C528 1.367 . S
C529 C537 1.433 . S
C530 H526 0.929 . S
C530 C532 1.378 . S
C530 C534 1.352 . S
C531 C534 1.458 1_556 S
C531 C536 1.350 . S
C531 N539 1.427 . S
C532 H523 0.930 . S
C532 C530 1.378 . S
C532 C533 1.367 . S
C533 C532 1.367 . S
C533 C535 1.433 . S
C534 C530 1.352 . S
C534 C531 1.458 1_554 S
C534 N538 1.430 . S
C535 H525 0.929 . S
C535 C533 1.433 . S
C535 N538 1.384 . S
C536 H527 0.929 . S
C536 C528 1.378 . S
C536 C531 1.350 . S
C537 H524 0.929 . S
C537 C529 1.433 . S
C537 N539 1.384 . S
N538 C534 1.430 . S
N538 C535 1.384 . S
N539 C531 1.427 . S
N539 C537 1.384 . S
H540 C546 0.930 . S
H541 C550 0.930 . S
H542 C555 0.929 . S
H543 C553 0.929 . S
H544 C548 0.929 . S
H545 C554 0.929 . S
C546 H540 0.930 . S
C546 C547 1.367 . S
C546 C554 1.378 . S
C547 C546 1.367 . S
C547 C555 1.433 . S
C548 H544 0.929 . S
C548 C550 1.378 . S
C548 C552 1.350 . S
C549 C552 1.463 . S
C549 C554 1.350 . S
C549 N557 1.427 . S
C550 H541 0.930 . S
C550 C548 1.378 . S
C550 C551 1.367 . S
C551 C550 1.367 . S
C551 C553 1.433 . S
C552 C548 1.350 . S
C552 C549 1.463 . S
C552 N556 1.427 . S
C553 H543 0.929 . S
C553 C551 1.433 . S
C553 N556 1.384 . S
C554 H545 0.929 . S
C554 C546 1.378 . S
C554 C549 1.350 . S
C555 H542 0.929 . S
C555 C547 1.433 . S
C555 N557 1.384 . S
N556 C552 1.427 . S
N556 C553 1.384 . S
N557 C549 1.427 . S
N557 C555 1.384 . S
C241 C9 0.655 . S
C245 C226 0.676 . S
C259 C49 0.450 . S
C263 C188 0.567 . S
C277 C89 0.355 . S
C281 C207 0.489 . S
C295 C26 0.255 . S
C299 C221 0.306 . S
C317 C183 0.183 . S
C313 C66 0.258 . S
C335 C202 0.156 . S
C331 C106 0.339 . S
C349 C43 3.105 . S
C353 C150 3.015 . S
C367 C83 3.021 . S
C371 C164 2.976 . S
C385 C22 3.063 . S
C389 C126 3.014 1_565 S
C407 C145 3.005 . S
C403 C62 3.057 . S
C425 C169 3.034 . S
C421 C102 3.127 . S
C439 C3 3.104 . S
C443 C131 3.019 . S
C461 C160 1.722 . S
C457 C15 1.712 . S
C475 C55 1.744 . S
C479 C122 1.749 . S
C493 C95 1.734 . S
C497 C141 1.738 . S
C515 C198 1.344 . S
C511 C42 1.308 . S
C533 C217 1.338 . S
C529 C82 1.329 . S
C547 C2 1.290 . S
C551 C179 1.311 . S
