# Generated by pormake.
# Topology anh, (6,3)-cn, num edge types: 1
# Building blocks:
#     Node 0, Type 0, BuildingBlock: INOVEN_clean_sbu_0, # of connection points: 6
#     Node 1, Type 0, BuildingBlock: INOVEN_clean_sbu_0, # of connection points: 6
#     Node 2, Type 0, BuildingBlock: INOVEN_clean_sbu_0, # of connection points: 6
#     Node 3, Type 1, BuildingBlock: CUQRIR_clean_linker_1, # of connection points: 3
#     Node 4, Type 1, BuildingBlock: CUQRIR_clean_linker_1, # of connection points: 3
#     Node 5, Type 1, BuildingBlock: CUQRIR_clean_linker_1, # of connection points: 3
#     Node 6, Type 1, BuildingBlock: CUQRIR_clean_linker_1, # of connection points: 3
#     Node 7, Type 1, BuildingBlock: CUQRIR_clean_linker_1, # of connection points: 3
#     Node 8, Type 1, BuildingBlock: CUQRIR_clean_linker_1, # of connection points: 3
#     Edge 9, Type (0, 1), BuildingBlock: KIFKEQ_clean_linker_1, # of connection points: 2
#     Edge 10, Type (0, 1), BuildingBlock: KIFKEQ_clean_linker_1, # of connection points: 2
#     Edge 11, Type (0, 1), BuildingBlock: KIFKEQ_clean_linker_1, # of connection points: 2
#     Edge 12, Type (0, 1), BuildingBlock: KIFKEQ_clean_linker_1, # of connection points: 2
#     Edge 13, Type (0, 1), BuildingBlock: KIFKEQ_clean_linker_1, # of connection points: 2
#     Edge 14, Type (0, 1), BuildingBlock: KIFKEQ_clean_linker_1, # of connection points: 2
#     Edge 15, Type (0, 1), BuildingBlock: KIFKEQ_clean_linker_1, # of connection points: 2
#     Edge 16, Type (0, 1), BuildingBlock: KIFKEQ_clean_linker_1, # of connection points: 2
#     Edge 17, Type (0, 1), BuildingBlock: KIFKEQ_clean_linker_1, # of connection points: 2
#     Edge 18, Type (0, 1), BuildingBlock: KIFKEQ_clean_linker_1, # of connection points: 2
#     Edge 19, Type (0, 1), BuildingBlock: KIFKEQ_clean_linker_1, # of connection points: 2
#     Edge 20, Type (0, 1), BuildingBlock: KIFKEQ_clean_linker_1, # of connection points: 2
#     Edge 21, Type (0, 1), BuildingBlock: KIFKEQ_clean_linker_1, # of connection points: 2
#     Edge 22, Type (0, 1), BuildingBlock: KIFKEQ_clean_linker_1, # of connection points: 2
#     Edge 23, Type (0, 1), BuildingBlock: KIFKEQ_clean_linker_1, # of connection points: 2
#     Edge 24, Type (0, 1), BuildingBlock: KIFKEQ_clean_linker_1, # of connection points: 2
#     Edge 25, Type (0, 1), BuildingBlock: KIFKEQ_clean_linker_1, # of connection points: 2
#     Edge 26, Type (0, 1), BuildingBlock: KIFKEQ_clean_linker_1, # of connection points: 2
# Relax obj value: 0.200
# Max RMSD: 0.218
# Mean RMSD: 0.167
data_MOF--net-anh--node1-INOVEN_clean_sbu_0--node2-CUQRIR_clean_linker_1--edge1-KIFKEQ_clean_linker_1
_symmetry_space_group_name_H-M    P1
_symmetry_Int_Tables_number       1
_symmetry_cell_setting            triclinic
loop_
_symmetry_equiv_pos_as_xyz
'x, y, z'
_cell_length_a     30.325293
_cell_length_b     35.688382
_cell_length_c     47.538816
_cell_angle_alpha  88.792662
_cell_angle_beta   90.527962
_cell_angle_gamma 130.32557
loop_
_atom_site_label
_atom_site_type_symbol
_atom_site_fract_x
_atom_site_fract_y
_atom_site_fract_z
_atom_type_partial_charge
Gd0 Gd 0.12036 0.47879 0.14792 0.0
Gd1 Gd 1.05522 0.50825 0.14973 0.0
C2 C 0.18761 0.59619 0.15478 0.0
C3 C 0.19978 0.47244 0.14324 0.0
C4 C 0.25291 0.49699 0.15982 0.0
C5 C 0.26492 0.46878 0.17257 0.0
C6 C 0.28829 0.54733 0.16572 0.0
C7 C 0.34817 0.54119 0.19609 0.0
C8 C 0.33572 0.56932 0.18355 0.0
C9 C 0.31205 0.49062 0.19056 0.0
C10 C 0.08652 0.47556 0.20126 0.0
C11 C 0.98729 0.39089 0.14486 0.0
C12 C 0.9744 0.5124 0.15651 0.0
C13 C 0.91454 0.47967 0.1459 0.0
C14 C 0.90055 0.49472 0.12252 0.0
C15 C 0.87231 0.43199 0.1573 0.0
C16 C 0.80369 0.41497 0.12172 0.0
C17 C 0.81736 0.39992 0.1453 0.0
C18 C 0.8459 0.46274 0.11052 0.0
C19 C 0.09238 0.51423 0.09669 0.0
O20 O 0.19004 0.56308 0.14502 0.0
O21 O 0.13726 0.58174 0.16307 0.0
O22 O 0.15219 0.44046 0.15747 0.0
O23 O 0.1968 0.50026 0.12648 0.0
O24 O 0.08507 0.4421 0.19031 0.0
O25 O 0.10638 0.51007 0.18363 0.0
O26 O 0.9855 0.42468 0.15377 0.0
O27 O 1.03698 0.40465 0.13593 0.0
O28 O 1.01474 0.53838 0.13733 0.0
O29 O 0.98707 0.49386 0.17562 0.0
O30 O 0.09389 0.54744 0.10827 0.0
O31 O 0.07073 0.47818 0.11356 0.0
H32 H 0.23768 0.42977 0.16868 0.0
H33 H 0.27934 0.56976 0.15664 0.0
H34 H 0.36309 0.6084 0.18724 0.0
H35 H 0.32144 0.46819 0.1993 0.0
H36 H 0.93208 0.53127 0.11337 0.0
H37 H 0.8817 0.41925 0.17538 0.0
H38 H 0.78546 0.36355 0.15458 0.0
H39 H 0.83614 0.47613 0.09297 0.0
Gd40 Gd 0.70598 0.05768 0.46689 0.0
Gd41 Gd 0.6311 0.08162 0.45633 0.0
C42 C 0.56749 0.96842 0.4572 0.0
C43 C 0.75295 0.02217 0.48592 0.0
C44 C 0.73673 0.97475 0.49496 0.0
C45 C 0.76405 0.95941 0.48218 0.0
C46 C 0.69635 0.94547 0.51667 0.0
C47 C 0.71287 0.88723 0.51331 0.0
C48 C 0.68461 0.90217 0.52577 0.0
C49 C 0.75211 0.91611 0.49112 0.0
C50 C 0.70084 0.07619 0.41202 0.0
C51 C 0.7719 0.17225 0.46231 0.0
C52 C 0.58249 0.11722 0.4406 0.0
C53 C 0.58908 0.16077 0.4476 0.0
C54 C 0.54067 0.15415 0.45693 0.0
C55 C 0.64324 0.20844 0.44663 0.0
C56 C 0.60083 0.24171 0.46581 0.0
C57 C 0.64905 0.24854 0.45561 0.0
C58 C 0.54644 0.19414 0.46597 0.0
C59 C 0.63634 0.06253 0.51111 0.0
O60 O 0.61488 0.98249 0.47014 0.0
O61 O 0.56679 1.00166 0.44502 0.0
O62 O 0.74802 0.02764 0.45912 0.0
O63 O 0.7373 0.04113 0.50202 0.0
O64 O 0.74752 0.09035 0.42448 0.0
O65 O 0.65834 0.05122 0.42881 0.0
O66 O 0.72086 0.15806 0.45488 0.0
O67 O 0.77692 0.1396 0.47066 0.0
O68 O 0.56234 0.08451 0.46086 0.0
O69 O 0.62442 0.12457 0.42646 0.0
O70 O 0.5897 0.04785 0.49858 0.0
O71 O 0.67895 0.08853 0.49449 0.0
H72 H 0.79521 0.98127 0.46536 0.0
H73 H 0.67447 0.95632 0.5269 0.0
H74 H 0.65447 0.88111 0.54303 0.0
H75 H 0.77377 0.90531 0.48058 0.0
H76 H 0.49842 0.11777 0.45776 0.0
H77 H 0.68129 0.21463 0.43948 0.0
H78 H 0.69161 0.28463 0.45539 0.0
H79 H 0.50829 0.18773 0.47328 0.0
Gd80 Gd 0.63254 0.61599 0.84039 0.0
Gd81 Gd 0.55088 0.50969 0.84706 0.0
C82 C 0.48836 0.55946 0.84817 0.0
C83 C 0.6869 0.70485 0.82122 0.0
C84 C 0.67678 0.73932 0.81395 0.0
C85 C 0.7193 0.78913 0.82046 0.0
C86 C 0.62705 0.72407 0.79948 0.0
C87 C 0.66367 0.80849 0.79746 0.0
C88 C 0.62067 0.75834 0.79124 0.0
C89 C 0.71283 0.82329 0.81239 0.0
C90 C 0.6181 0.58535 0.89395 0.0
C91 C 0.69552 0.56614 0.84439 0.0
C92 C 0.499 0.41865 0.85966 0.0
C93 C 0.5104 0.38504 0.85316 0.0
C94 C 0.4691 0.34193 0.83829 0.0
C95 C 0.56298 0.3964 0.86028 0.0
C96 C 0.53342 0.32305 0.83675 0.0
C97 C 0.57436 0.36582 0.85215 0.0
C98 C 0.48042 0.31138 0.83015 0.0
C99 C 0.57044 0.54227 0.79311 0.0
O100 O 0.54216 0.59973 0.84006 0.0
O101 O 0.48186 0.51933 0.85493 0.0
O102 O 0.68549 0.69431 0.84789 0.0
O103 O 0.66279 0.66677 0.80513 0.0
O104 O 0.66773 0.62252 0.88323 0.0
O105 O 0.57777 0.56742 0.87636 0.0
O106 O 0.64031 0.52509 0.84919 0.0
O107 O 0.70382 0.60742 0.83864 0.0
O108 O 0.48444 0.43215 0.83827 0.0
O109 O 0.53468 0.45482 0.87675 0.0
O110 O 0.5197 0.50638 0.80315 0.0
O111 O 0.60817 0.55825 0.81178 0.0
H112 H 0.75815 0.80182 0.83145 0.0
H113 H 0.5934 0.68581 0.79427 0.0
H114 H 0.58193 0.74552 0.78011 0.0
H115 H 0.74714 0.86158 0.81727 0.0
H116 H 0.4283 0.33233 0.83244 0.0
H117 H 0.59568 0.42921 0.87185 0.0
H118 H 0.61529 0.37573 0.858 0.0
H119 H 0.4481 0.27924 0.818 0.0
C120 C 0.58909 0.99534 0.16551 0.0
N121 N 0.63033 0.03229 0.18281 0.0
N122 N 0.5512 0.95206 0.1802 0.0
C123 C 0.58742 1.00071 0.13424 0.0
C124 C 0.5707 0.96417 0.20693 0.0
N125 N 0.61838 1.01224 0.20851 0.0
C126 C 0.54188 0.92917 0.23183 0.0
H127 H 0.56509 0.01535 0.12959 0.0
H128 H 0.56335 0.96468 0.12393 0.0
H129 H 0.63193 0.02703 0.12546 0.0
H130 H 0.5626 0.91286 0.23548 0.0
H131 H 0.49512 0.899 0.22799 0.0
H132 H 0.54704 0.94858 0.25114 0.0
C133 C 0.65817 0.56035 0.54375 0.0
N134 N 0.65649 0.58416 0.56499 0.0
N135 N 0.64815 0.51959 0.55368 0.0
C136 C 0.66566 0.57508 0.51319 0.0
C137 C 0.6402 0.5194 0.58164 0.0
N138 N 0.64542 0.55868 0.58858 0.0
C139 C 0.62705 0.4806 0.60214 0.0
H140 H 0.62276 0.55884 0.50431 0.0
H141 H 0.68373 0.56146 0.50111 0.0
H142 H 0.69431 0.61566 0.51073 0.0
H143 H 0.64572 0.46414 0.59475 0.0
H144 H 0.57945 0.45104 0.6039 0.0
H145 H 0.64426 0.49621 0.6233 0.0
C146 C 0.09319 0.56272 0.84872 0.0
N147 N 0.12355 0.55333 0.86589 0.0
N148 N 1.04653 0.55508 0.86232 0.0
C149 C 0.10771 0.57766 0.8184 0.0
C150 C 1.0513 0.54157 0.88839 0.0
N151 N 0.0952 0.53995 0.89042 0.0
C152 C 1.01448 0.53283 0.9131 0.0
H153 H 0.1453 0.6176 0.81692 0.0
H154 H 0.07065 0.57035 0.80716 0.0
H155 H 0.1201 0.5578 0.80839 0.0
H156 H 0.99764 0.55248 0.91022 0.0
H157 H 1.03935 0.54526 0.93298 0.0
H158 H 0.97725 0.49287 0.91525 0.0
C159 C 0.16687 0.56943 0.44814 0.0
N160 N 0.1306 0.5317 0.43017 0.0
N161 N 0.21221 0.61052 0.43392 0.0
C162 C 0.15971 0.5656 0.4795 0.0
C163 C 0.20188 0.59649 0.40679 0.0
N164 N 0.15305 0.5491 0.40454 0.0
C165 C 0.23914 0.62961 0.38229 0.0
H166 H 0.12869 0.57094 0.4851 0.0
H167 H 0.20152 0.5942 0.48996 0.0
H168 H 0.14184 0.52858 0.48726 0.0
H169 H 0.2723 0.62606 0.37838 0.0
H170 H 0.26161 0.66862 0.38685 0.0
H171 H 0.21318 0.61916 0.36289 0.0
C172 C 0.6256 0.08707 0.76334 0.0
N173 N 0.63088 0.06449 0.74262 0.0
N174 N 0.61329 0.11478 0.7524 0.0
C175 C 0.62762 0.07888 0.79433 0.0
C176 C 0.61122 0.10823 0.72432 0.0
N177 N 0.62133 0.07738 0.71835 0.0
C178 C 0.60289 0.13448 0.70262 0.0
H179 H 0.6022 0.08534 0.80658 0.0
H180 H 0.67323 0.10499 0.8014 0.0
H181 H 0.61067 0.04094 0.79875 0.0
H182 H 0.61714 0.16971 0.71074 0.0
H183 H 0.55629 0.11086 0.69734 0.0
H184 H 0.62738 0.14197 0.68308 0.0
C185 C 0.57617 0.48004 0.14153 0.0
N186 N 0.57363 0.47303 0.11346 0.0
N187 N 0.57911 0.51867 0.14681 0.0
C188 C 0.58114 0.45219 0.16368 0.0
C189 C 0.57768 0.53467 0.12099 0.0
N190 N 0.57562 0.50758 0.10069 0.0
C191 C 0.57253 0.57347 0.11577 0.0
H192 H 0.53763 0.41626 0.16796 0.0
H193 H 0.59872 0.47278 0.18356 0.0
H194 H 0.60961 0.44501 0.15623 0.0
H195 H 0.61625 0.61027 0.11639 0.0
H196 H 0.54558 0.57163 0.13232 0.0
H197 H 0.55303 0.56916 0.09495 0.0
H198 H 0.36662 0.51222 0.24561 0.0
H199 H 0.45502 0.62394 0.17997 0.0
H200 H 0.4555 0.52672 0.25569 0.0
H201 H 0.54233 0.6375 0.18927 0.0
H202 H 0.49798 0.46045 0.18607 0.0
H203 H 0.46749 0.48726 0.22119 0.0
H204 H 0.61807 0.63871 0.20306 0.0
H205 H 0.6481 0.61058 0.16741 0.0
C206 C 0.40572 0.54138 0.2342 0.0
C207 C 0.40338 0.56497 0.21095 0.0
C208 C 0.45675 0.54989 0.24004 0.0
C209 C 0.50467 0.58041 0.22185 0.0
C210 C 0.5058 0.6122 0.20315 0.0
C211 C 0.45515 0.60423 0.19757 0.0
C212 C 0.52598 0.49925 0.19063 0.0
C213 C 0.57382 0.53366 0.17345 0.0
C214 C 0.50886 0.515 0.21102 0.0
C215 C 0.53883 0.56559 0.21403 0.0
C216 C 0.59283 0.59957 0.2005 0.0
C217 C 0.6099 0.58364 0.18001 0.0
H218 H 0.77852 0.25221 0.45212 0.0
H219 H 0.88644 0.21473 0.46731 0.0
H220 H 0.86457 0.33853 0.44578 0.0
H221 H 0.97257 0.30113 0.4613 0.0
H222 H 0.11292 0.44987 0.41627 0.0
H223 H 1.02693 0.36413 0.42516 0.0
H224 H 0.94742 0.41223 0.46871 0.0
H225 H 1.03368 0.49826 0.45908 0.0
C226 C 0.8205 0.26225 0.45429 0.0
C227 C 0.82492 0.22589 0.46016 0.0
C228 C 0.87019 0.31212 0.45081 0.0
C229 C 0.92618 0.32744 0.45285 0.0
C230 C 0.93053 0.29111 0.45912 0.0
C231 C 0.88085 0.24131 0.46281 0.0
C232 C 0.07694 0.44205 0.42765 0.0
C233 C 0.08012 0.48092 0.43686 0.0
C234 C 1.02767 0.39277 0.43305 0.0
C235 C 0.97958 0.38058 0.44775 0.0
C236 C 0.98302 0.41974 0.45711 0.0
C237 C 1.03269 0.46917 0.45185 0.0
H238 H 0.68999 0.88571 0.82708 0.0
H239 H 0.62459 0.81532 0.74678 0.0
H240 H 0.68382 0.94765 0.81169 0.0
H241 H 0.61898 0.87778 0.73114 0.0
H242 H 0.56049 0.97045 0.72549 0.0
H243 H 0.5681 0.9077 0.73762 0.0
H244 H 0.72842 0.01705 0.78086 0.0
H245 H 0.71949 0.07891 0.76903 0.0
C246 C 0.67474 0.88367 0.80602 0.0
C247 C 0.65801 0.84551 0.78817 0.0
C248 C 0.67136 0.91939 0.79711 0.0
C249 C 0.65141 0.91824 0.77 0.0
C250 C 0.63402 0.87972 0.75224 0.0
C251 C 0.6372 0.8438 0.76122 0.0
C252 C 0.59772 0.98092 0.73714 0.0
C253 C 0.63934 0.02927 0.74644 0.0
C254 C 0.60218 0.94508 0.74416 0.0
C255 C 0.64854 0.95695 0.76059 0.0
C256 C 0.69138 1.00609 0.76879 0.0
C257 C 0.6867 0.0417 0.76186 0.0
H258 H 0.7673 0.39823 0.06694 0.0
H259 H 0.70452 0.36404 0.15264 0.0
H260 H 0.67989 0.38269 0.0515 0.0
H261 H 0.6179 0.34841 0.1374 0.0
H262 H 0.657 0.49952 0.07718 0.0
H263 H 0.68509 0.45159 0.06645 0.0
H264 H 0.53367 0.32592 0.11045 0.0
H265 H 0.50482 0.37461 0.12034 0.0
C266 C 0.73362 0.38513 0.08226 0.0
C267 C 0.74375 0.3847 0.11114 0.0
C268 C 0.6834 0.37584 0.07339 0.0
C269 C 0.64341 0.3666 0.09339 0.0
C270 C 0.64824 0.35622 0.12142 0.0
C271 C 0.69839 0.3655 0.13029 0.0
C272 C 0.62808 0.46091 0.08312 0.0
C273 C 0.57967 0.44086 0.10008 0.0
C274 C 0.64389 0.43308 0.0769 0.0
C275 C 0.61216 0.38509 0.08816 0.0
C276 C 0.55926 0.36295 0.1018 0.0
C277 C 0.54305 0.39078 0.10767 0.0
H278 H 0.55536 0.88826 0.47541 0.0
H279 H 0.45907 0.92647 0.43727 0.0
H280 H 0.46937 0.80119 0.4739 0.0
H281 H 0.3733 0.83952 0.43562 0.0
H282 H 0.21305 0.68045 0.45581 0.0
H283 H 0.29849 0.76684 0.46383 0.0
H284 H 0.40917 0.73589 0.44036 0.0
H285 H 0.32363 0.65001 0.4326 0.0
C286 C 0.51593 0.87823 0.46668 0.0
C287 C 0.51467 0.91484 0.45635 0.0
C288 C 0.46643 0.82806 0.46573 0.0
C289 C 0.4138 0.81277 0.45467 0.0
C290 C 0.41248 0.8495 0.44466 0.0
C291 C 0.46207 0.89961 0.44538 0.0
C292 C 0.25579 0.69209 0.45318 0.0
C293 C 0.26177 0.6584 0.44403 0.0
C294 C 0.30485 0.74172 0.45734 0.0
C295 C 0.36128 0.75893 0.4526 0.0
C296 C 0.36689 0.72438 0.44456 0.0
C297 C 0.31789 0.67502 0.44017 0.0
H298 H 0.63646 0.35169 0.81697 0.0
H299 H 0.45942 0.22222 0.83428 0.0
H300 H 0.65584 0.30012 0.79887 0.0
H301 H 0.47876 0.17082 0.81592 0.0
H302 H 0.51703 0.10392 0.74841 0.0
H303 H 0.49832 0.15371 0.77055 0.0
H304 H 0.66405 0.23781 0.81189 0.0
H305 H 0.68268 0.18806 0.78906 0.0
C306 C 0.60181 0.31221 0.8173 0.0
C307 C 0.5462 0.29131 0.827 0.0
C308 C 0.61297 0.28259 0.80688 0.0
C309 C 0.56881 0.23125 0.80576 0.0
C310 C 0.51357 0.21027 0.81598 0.0
C311 C 0.50245 0.23983 0.82649 0.0
C312 C 0.54922 0.13303 0.7623 0.0
C313 C 0.60129 0.1424 0.76701 0.0
C314 C 0.53845 0.16133 0.77517 0.0
C315 C 0.57967 0.19989 0.79305 0.0
C316 C 0.63159 0.20877 0.79804 0.0
C317 C 0.64216 0.18016 0.78523 0.0
H318 H 0.61059 0.79843 0.53099 0.0
H319 H 0.79223 0.87437 0.51926 0.0
H320 H 0.59466 0.72522 0.54736 0.0
H321 H 0.7758 0.80069 0.53391 0.0
H322 H 0.7441 0.67595 0.58156 0.0
H323 H 0.75523 0.74942 0.57278 0.0
H324 H 0.59077 0.66099 0.52984 0.0
H325 H 0.57898 0.58745 0.54038 0.0
C326 C 0.64717 0.79963 0.53196 0.0
C327 C 0.70267 0.84238 0.52364 0.0
C328 C 0.63791 0.7574 0.54104 0.0
C329 C 0.68389 0.75683 0.54198 0.0
C330 C 0.73941 0.79978 0.53392 0.0
C331 C 0.7487 0.84196 0.52502 0.0
C332 C 0.70967 0.67232 0.57117 0.0
C333 C 0.66021 0.62633 0.56217 0.0
C334 C 0.71636 0.71439 0.56559 0.0
C335 C 0.67408 0.71138 0.55039 0.0
C336 C 0.62387 0.6648 0.54193 0.0
C337 C 0.61708 0.62273 0.54779 0.0
H338 H 0.81918 0.64263 0.83712 0.0
H339 H 0.69726 0.48742 0.85421 0.0
H340 H 0.89879 0.64077 0.83912 0.0
H341 H 0.77598 0.48507 0.85624 0.0
H342 H 0.92694 0.48045 0.86421 0.0
H343 H 0.84874 0.48318 0.85991 0.0
H344 H 0.97331 0.63796 0.84022 0.0
H345 H 1.05186 0.63461 0.84474 0.0
C346 C 0.8082 0.60753 0.84134 0.0
C347 C 0.74837 0.56525 0.84547 0.0
C348 C 0.85549 0.60632 0.84254 0.0
C349 C 0.84799 0.56268 0.84798 0.0
C350 C 0.78786 0.52046 0.85203 0.0
C351 C 0.74074 0.52171 0.85084 0.0
C352 C 0.93853 0.5153 0.85825 0.0
C353 C 0.9986 0.55673 0.85404 0.0
C354 C 0.89211 0.51717 0.85596 0.0
C355 C 0.90056 0.56094 0.84956 0.0
C356 C 0.96104 0.60258 0.84512 0.0
C357 C 1.00778 0.60066 0.84738 0.0
H358 H 0.29785 0.64015 0.13644 0.0
H359 H 0.20023 0.67414 0.17594 0.0
H360 H 0.38551 0.72604 0.13942 0.0
H361 H 0.28806 0.76037 0.17878 0.0
H362 H 0.44882 0.92167 0.15996 0.0
H363 H 0.36056 0.8363 0.15202 0.0
H364 H 0.45393 0.78629 0.1734 0.0
H365 H 0.54132 0.87142 0.1811 0.0
C366 C 0.29494 0.66572 0.146 0.0
C367 C 0.24152 0.64946 0.1563 0.0
C368 C 0.34555 0.71536 0.14767 0.0
C369 C 0.34459 0.75079 0.15943 0.0
C370 C 0.2909 0.73466 0.1693 0.0
C371 C 0.24032 0.68488 0.16783 0.0
C372 C 0.4505 0.89236 0.16224 0.0
C373 C 0.50219 0.90327 0.17071 0.0
C374 C 0.39976 0.84329 0.1581 0.0
C375 C 0.39945 0.80375 0.16214 0.0
C376 C 0.45206 0.81527 0.16971 0.0
C377 C 0.50239 0.86415 0.17409 0.0
H378 H 0.66497 0.33576 0.44423 0.0
H379 H 0.55216 0.24246 0.51354 0.0
H380 H 0.67573 0.40423 0.46355 0.0
H381 H 0.56328 0.31063 0.53296 0.0
H382 H 0.5494 0.42708 0.54778 0.0
H383 H 0.53682 0.36014 0.5246 0.0
H384 H 0.71862 0.46 0.50263 0.0
H385 H 0.72998 0.52689 0.52541 0.0
C386 C 0.64272 0.32995 0.46366 0.0
C387 C 0.6074 0.28357 0.47725 0.0
C388 C 0.64893 0.36918 0.47475 0.0
C389 C 0.6201 0.36294 0.49974 0.0
C390 C 0.58509 0.31656 0.51335 0.0
C391 C 0.57874 0.27741 0.50223 0.0
C392 C 0.58623 0.43442 0.53766 0.0
C393 C 0.64047 0.48169 0.5381 0.0
C394 C 0.57935 0.39624 0.5246 0.0
C395 C 0.62683 0.40452 0.51191 0.0
C396 C 0.68099 0.45239 0.51189 0.0
C397 C 0.68769 0.49063 0.52491 0.0
H398 H 0.4787 0.63314 0.8339 0.0
H399 H 0.37061 0.4852 0.86657 0.0
H400 H 0.39699 0.63222 0.83665 0.0
H401 H 0.28907 0.48389 0.86937 0.0
H402 H 0.13731 0.48576 0.88297 0.0
H403 H 0.21917 0.48814 0.87923 0.0
H404 H 0.31422 0.62497 0.83275 0.0
H405 H 0.23149 0.62276 0.83713 0.0
C406 C 0.43781 0.59987 0.84178 0.0
C407 C 0.43475 0.55929 0.84995 0.0
C408 C 0.38914 0.59921 0.84337 0.0
C409 C 0.33225 0.55795 0.85343 0.0
C410 C 0.32959 0.51747 0.86158 0.0
C411 C 0.37808 0.51808 0.85987 0.0
C412 C 0.17529 0.517 0.87193 0.0
C413 C 0.17422 0.55397 0.8606 0.0
C414 C 0.22407 0.5183 0.8695 0.0
C415 C 0.27761 0.55687 0.85555 0.0
C416 C 0.27639 0.59388 0.84393 0.0
C417 C 0.22713 0.59247 0.84624 0.0
H418 H 0.97728 0.30859 0.13961 0.0
H419 H 0.87541 0.35106 0.15576 0.0
H420 H 0.89137 0.22215 0.14705 0.0
H421 H 0.78989 0.26509 0.16341 0.0
H422 H 0.63308 0.10035 0.15364 0.0
H423 H 0.71821 0.18586 0.14214 0.0
H424 H 0.82739 0.16443 0.18423 0.0
H425 H 0.74233 0.07902 0.19505 0.0
C426 C 0.93656 0.29963 0.1445 0.0
C427 C 0.93383 0.33736 0.14704 0.0
C428 C 0.88711 0.24984 0.14905 0.0
C429 C 0.83302 0.23594 0.15604 0.0
C430 C 0.83016 0.27372 0.15785 0.0
C431 C 0.87963 0.32342 0.15356 0.0
C432 C 0.67538 0.11391 0.16016 0.0
C433 C 0.68079 0.08277 0.17529 0.0
C434 C 0.72435 0.16317 0.15381 0.0
C435 C 0.78042 0.18275 0.16217 0.0
C436 C 0.78552 0.15109 0.17705 0.0
C437 C 0.73656 0.10208 0.18357 0.0
H438 H 0.07082 0.44101 0.06365 0.0
H439 H 0.13985 0.59129 0.0606 0.0
H440 H 0.08415 0.44432 0.01246 0.0
H441 H 0.15192 0.59448 0.01008 0.0
H442 H 0.19126 0.6047 0.92081 0.0
H443 H 0.20176 0.59643 0.97122 0.0
H444 H 1.04079 0.44636 0.97054 0.0
H445 H 1.03224 0.45486 0.9201 0.0
C446 C 0.08926 0.4748 0.05211 0.0
C447 C 0.10384 0.51573 0.06616 0.0
C448 C 0.09676 0.47674 0.02276 0.0
C449 C 0.11935 0.51976 0.00689 0.0
C450 C 0.13553 0.56098 0.02136 0.0
C451 C 0.12795 0.55898 0.05046 0.0
C452 C 0.15977 0.56944 0.93133 0.0
C453 C 0.11102 0.53044 0.91672 0.0
C454 C 0.16503 0.56477 0.9603 0.0
C455 C 0.12131 0.52105 0.97531 0.0
C456 C 0.07545 0.48055 0.95992 0.0
C457 C 0.07049 0.48524 0.93097 0.0
H458 H 0.78399 0.10916 0.37251 0.0
H459 H 0.60621 0.04631 0.3817 0.0
H460 H 0.77357 0.10483 0.32136 0.0
H461 H 0.59585 0.04221 0.33045 0.0
H462 H 0.68899 1.00782 0.23966 0.0
H463 H 0.71607 0.03286 0.28868 0.0
H464 H 0.6314 0.09419 0.28542 0.0
H465 H 0.60525 0.06933 0.23611 0.0
C466 C 0.74286 0.09492 0.36358 0.0
C467 C 0.69571 0.07762 0.38109 0.0
C468 C 0.73691 0.09238 0.3343 0.0
C469 C 0.6839 0.07311 0.32186 0.0
C470 C 0.63743 0.05771 0.33938 0.0
C471 C 0.6432 0.05973 0.36871 0.0
C472 C 0.67835 0.02836 0.24925 0.0
C473 C 0.64612 0.03756 0.23427 0.0
C474 C 0.69346 0.0425 0.27726 0.0
C475 C 0.67555 0.06526 0.29098 0.0
C476 C 0.6455 0.07646 0.27547 0.0
C477 C 0.63119 0.06292 0.24727 0.0
H478 H 0.67313 0.58804 0.76602 0.0
H479 H 0.49616 0.52419 0.75211 0.0
H480 H 0.69093 0.59945 0.71551 0.0
H481 H 0.51444 0.53843 0.70159 0.0
H482 H 0.54311 0.50174 0.61507 0.0
H483 H 0.52542 0.50454 0.66451 0.0
H484 H 0.70339 0.63798 0.67297 0.0
H485 H 0.72113 0.63197 0.6239 0.0
C486 C 0.63838 0.57745 0.75209 0.0
C487 C 0.58307 0.55458 0.76285 0.0
C488 C 0.64862 0.58438 0.72306 0.0
C489 C 0.60402 0.56951 0.70414 0.0
C490 C 0.54951 0.54917 0.71527 0.0
C491 C 0.53902 0.54127 0.74426 0.0
C492 C 0.57783 0.53209 0.62754 0.0
C493 C 0.63312 0.56702 0.61578 0.0
C494 C 0.56786 0.53404 0.65588 0.0
C495 C 0.61301 0.57146 0.67309 0.0
C496 C 0.66771 0.60811 0.66066 0.0
C497 C 0.67778 0.6055 0.63237 0.0
H498 H 0.54994 0.98882 0.54441 0.0
H499 H 0.72804 0.12228 0.5469 0.0
H500 H 0.54749 0.9822 0.59549 0.0
H501 H 0.72507 0.11757 0.59844 0.0
H502 H 0.71079 0.09189 0.69278 0.0
H503 H 0.71764 0.08073 0.64259 0.0
H504 H 0.54131 0.02161 0.63136 0.0
H505 H 0.53477 0.031 0.68124 0.0
C506 C 0.58873 0.01672 0.55601 0.0
C507 C 0.6389 0.05641 0.54178 0.0
C508 C 0.58729 1.01317 0.58535 0.0
C509 C 0.63561 0.04994 0.60137 0.0
C510 C 0.68702 0.08835 0.58696 0.0
C511 C 0.68876 0.09131 0.55741 0.0
C512 C 0.67327 0.07513 0.6795 0.0
C513 C 0.62229 0.06233 0.69061 0.0
C514 C 0.67727 0.06935 0.65073 0.0
C515 C 0.63023 0.05062 0.63262 0.0
C516 C 0.57832 0.03546 0.64441 0.0
C517 C 0.57442 0.04103 0.67302 0.0
H518 H 0.51625 0.5204 0.92289 0.0
H519 H 0.70165 0.61485 0.93183 0.0
H520 H 0.50427 0.49915 0.97313 0.0
H521 H 0.68993 0.59255 0.98154 0.0
H522 H 0.65489 0.59346 0.07356 0.0
H523 H 0.66287 0.60975 0.02304 0.0
H524 H 0.5151 0.45687 0.00964 0.0
H525 H 0.50589 0.44161 0.0607 0.0
C526 C 0.55431 0.53619 0.93558 0.0
C527 C 0.60988 0.56976 0.92369 0.0
C528 C 0.54751 0.52383 0.96427 0.0
C529 C 0.59619 0.54462 0.98143 0.0
C530 C 0.65158 0.57681 0.96911 0.0
C531 C 0.65833 0.58942 0.9406 0.0
C532 C 0.62375 0.56366 0.05974 0.0
C533 C 0.57948 0.51651 0.0708 0.0
C534 C 0.62871 0.57268 0.03082 0.0
C535 C 0.58984 0.53451 0.01224 0.0
C536 C 0.54539 0.48715 0.02338 0.0
C537 C 0.5403 0.47826 0.05247 0.0
H538 H 0.09936 0.54777 0.23018 0.0
H539 H 1.06761 0.41171 0.24172 0.0
H540 H 0.10365 0.55674 0.28141 0.0
H541 H 0.07237 0.4209 0.29262 0.0
H542 H 0.06914 0.53933 0.37647 0.0
H543 H 1.04272 0.51571 0.32699 0.0
H544 H 0.15747 0.48345 0.3241 0.0
H545 H 0.18409 0.50799 0.37323 0.0
C546 C 0.09264 0.51958 0.24366 0.0
C547 C 0.08374 0.47934 0.23199 0.0
C548 C 0.09476 0.52453 0.27293 0.0
C549 C 0.08858 0.48957 0.29097 0.0
C550 C 0.07774 0.44856 0.27923 0.0
C551 C 0.07496 0.44334 0.25009 0.0
C552 C 0.08694 0.52559 0.36531 0.0
C553 C 0.12754 0.52433 0.37845 0.0
C554 C 0.07255 0.51273 0.33705 0.0
C555 C 0.09816 0.49787 0.32169 0.0
C556 C 0.13654 0.49421 0.33547 0.0
C557 C 0.15156 0.50788 0.36351 0.0
loop_
_geom_bond_atom_site_label_1
_geom_bond_atom_site_label_2
_geom_bond_distance
_geom_bond_site_symmetry_2
_ccdc_geom_bond_type
Gd0 C3 2.818 . S
Gd0 O20 2.377 . S
Gd0 O22 2.448 . S
Gd0 O23 2.506 . S
Gd0 O24 2.435 . S
Gd0 O25 2.717 1_455 S
Gd0 O27 2.395 1_455 S
Gd0 O31 2.327 . S
Gd1 C12 2.818 . S
Gd1 O21 2.395 1_655 S
Gd1 O25 2.327 . S
Gd1 O26 2.377 . S
Gd1 O28 2.448 . S
Gd1 O29 2.506 . S
Gd1 O30 2.435 . S
Gd1 O31 2.717 1_655 S
C2 O20 1.240 . S
C2 O21 1.240 . S
C3 Gd0 2.818 . S
C3 C4 1.510 . S
C3 O22 1.249 . S
C3 O23 1.252 . S
C4 C3 1.510 . S
C4 C5 1.404 . S
C4 C6 1.352 . S
C5 C4 1.404 . S
C5 C9 1.389 . S
C5 H32 0.930 . S
C6 C4 1.352 . S
C6 C8 1.374 . S
C6 H33 0.931 . S
C7 C8 1.359 . S
C7 C9 1.364 . S
C8 C6 1.374 . S
C8 C7 1.359 . S
C8 H34 0.931 . S
C9 C5 1.389 . S
C9 C7 1.364 . S
C9 H35 0.931 . S
C10 O24 1.256 . S
C10 O25 1.257 1_455 S
C11 O26 1.240 . S
C11 O27 1.240 . S
C12 Gd1 2.818 . S
C12 C13 1.510 . S
C12 O28 1.249 . S
C12 O29 1.252 . S
C13 C12 1.510 . S
C13 C14 1.404 . S
C13 C15 1.352 . S
C14 C13 1.404 . S
C14 C18 1.389 . S
C14 H36 0.930 . S
C15 C13 1.352 . S
C15 C17 1.374 . S
C15 H37 0.931 . S
C16 C17 1.359 . S
C16 C18 1.364 . S
C17 C15 1.374 . S
C17 C16 1.359 . S
C17 H38 0.931 . S
C18 C14 1.389 . S
C18 C16 1.364 . S
C18 H39 0.931 . S
C19 O30 1.256 1_455 S
C19 O31 1.257 . S
O20 Gd0 2.377 . S
O20 C2 1.240 . S
O21 Gd1 2.395 1_455 S
O21 C2 1.240 . S
O22 Gd0 2.448 . S
O22 C3 1.249 . S
O23 Gd0 2.506 . S
O23 C3 1.252 . S
O24 Gd0 2.435 . S
O24 C10 1.256 . S
O25 Gd0 2.717 1_655 S
O25 Gd1 2.327 . S
O25 C10 1.257 1_655 S
O26 Gd1 2.377 . S
O26 C11 1.240 . S
O27 Gd0 2.395 1_655 S
O27 C11 1.240 . S
O28 Gd1 2.448 . S
O28 C12 1.249 . S
O29 Gd1 2.506 . S
O29 C12 1.252 . S
O30 Gd1 2.435 . S
O30 C19 1.256 1_655 S
O31 Gd0 2.327 . S
O31 Gd1 2.717 1_455 S
O31 C19 1.257 . S
H32 C5 0.930 . S
H33 C6 0.931 . S
H34 C8 0.931 . S
H35 C9 0.931 . S
H36 C14 0.930 . S
H37 C15 0.931 . S
H38 C17 0.931 . S
H39 C18 0.931 . S
Gd40 C43 2.818 1_545 S
Gd40 O60 2.377 1_545 S
Gd40 O62 2.448 1_545 S
Gd40 O63 2.506 1_545 S
Gd40 O64 2.435 . S
Gd40 O65 2.717 . S
Gd40 O67 2.395 . S
Gd40 O71 2.327 . S
Gd41 C52 2.818 . S
Gd41 O61 2.395 1_545 S
Gd41 O65 2.327 . S
Gd41 O66 2.377 . S
Gd41 O68 2.448 . S
Gd41 O69 2.506 . S
Gd41 O70 2.435 . S
Gd41 O71 2.717 . S
C42 O60 1.240 . S
C42 O61 1.240 . S
C43 Gd40 2.818 1_565 S
C43 C44 1.510 . S
C43 O62 1.249 . S
C43 O63 1.252 . S
C44 C43 1.510 . S
C44 C45 1.404 . S
C44 C46 1.352 . S
C45 C44 1.404 . S
C45 C49 1.389 . S
C45 H72 0.930 . S
C46 C44 1.352 . S
C46 C48 1.374 . S
C46 H73 0.931 . S
C47 C48 1.359 . S
C47 C49 1.364 . S
C48 C46 1.374 . S
C48 C47 1.359 . S
C48 H74 0.931 . S
C49 C45 1.389 . S
C49 C47 1.364 . S
C49 H75 0.931 . S
C50 O64 1.256 . S
C50 O65 1.257 . S
C51 O66 1.240 . S
C51 O67 1.240 . S
C52 Gd41 2.818 . S
C52 C53 1.510 . S
C52 O68 1.249 . S
C52 O69 1.252 . S
C53 C52 1.510 . S
C53 C54 1.404 . S
C53 C55 1.352 . S
C54 C53 1.404 . S
C54 C58 1.389 . S
C54 H76 0.930 . S
C55 C53 1.352 . S
C55 C57 1.374 . S
C55 H77 0.931 . S
C56 C57 1.359 . S
C56 C58 1.364 . S
C57 C55 1.374 . S
C57 C56 1.359 . S
C57 H78 0.931 . S
C58 C54 1.389 . S
C58 C56 1.364 . S
C58 H79 0.931 . S
C59 O70 1.256 . S
C59 O71 1.257 . S
O60 Gd40 2.377 1_565 S
O60 C42 1.240 . S
O61 Gd41 2.395 1_565 S
O61 C42 1.240 . S
O62 Gd40 2.448 1_565 S
O62 C43 1.249 . S
O63 Gd40 2.506 1_565 S
O63 C43 1.252 . S
O64 Gd40 2.435 . S
O64 C50 1.256 . S
O65 Gd40 2.717 . S
O65 Gd41 2.327 . S
O65 C50 1.257 . S
O66 Gd41 2.377 . S
O66 C51 1.240 . S
O67 Gd40 2.395 . S
O67 C51 1.240 . S
O68 Gd41 2.448 . S
O68 C52 1.249 . S
O69 Gd41 2.506 . S
O69 C52 1.252 . S
O70 Gd41 2.435 . S
O70 C59 1.256 . S
O71 Gd40 2.327 . S
O71 Gd41 2.717 . S
O71 C59 1.257 . S
H72 C45 0.930 . S
H73 C46 0.931 . S
H74 C48 0.931 . S
H75 C49 0.931 . S
H76 C54 0.930 . S
H77 C55 0.931 . S
H78 C57 0.931 . S
H79 C58 0.931 . S
Gd80 C83 2.818 . S
Gd80 O100 2.377 . S
Gd80 O102 2.448 . S
Gd80 O103 2.506 . S
Gd80 O104 2.435 . S
Gd80 O105 2.717 . S
Gd80 O107 2.395 . S
Gd80 O111 2.327 . S
Gd81 C92 2.818 . S
Gd81 O101 2.395 . S
Gd81 O105 2.327 . S
Gd81 O106 2.377 . S
Gd81 O108 2.448 . S
Gd81 O109 2.506 . S
Gd81 O110 2.435 . S
Gd81 O111 2.717 . S
C82 O100 1.240 . S
C82 O101 1.240 . S
C83 Gd80 2.818 . S
C83 C84 1.510 . S
C83 O102 1.249 . S
C83 O103 1.252 . S
C84 C83 1.510 . S
C84 C85 1.404 . S
C84 C86 1.352 . S
C85 C84 1.404 . S
C85 C89 1.389 . S
C85 H112 0.930 . S
C86 C84 1.352 . S
C86 C88 1.374 . S
C86 H113 0.931 . S
C87 C88 1.359 . S
C87 C89 1.364 . S
C88 C86 1.374 . S
C88 C87 1.359 . S
C88 H114 0.931 . S
C89 C85 1.389 . S
C89 C87 1.364 . S
C89 H115 0.931 . S
C90 O104 1.256 . S
C90 O105 1.257 . S
C91 O106 1.240 . S
C91 O107 1.240 . S
C92 Gd81 2.818 . S
C92 C93 1.510 . S
C92 O108 1.249 . S
C92 O109 1.252 . S
C93 C92 1.510 . S
C93 C94 1.404 . S
C93 C95 1.352 . S
C94 C93 1.404 . S
C94 C98 1.389 . S
C94 H116 0.930 . S
C95 C93 1.352 . S
C95 C97 1.374 . S
C95 H117 0.931 . S
C96 C97 1.359 . S
C96 C98 1.364 . S
C97 C95 1.374 . S
C97 C96 1.359 . S
C97 H118 0.931 . S
C98 C94 1.389 . S
C98 C96 1.364 . S
C98 H119 0.931 . S
C99 O110 1.256 . S
C99 O111 1.257 . S
O100 Gd80 2.377 . S
O100 C82 1.240 . S
O101 Gd81 2.395 . S
O101 C82 1.240 . S
O102 Gd80 2.448 . S
O102 C83 1.249 . S
O103 Gd80 2.506 . S
O103 C83 1.252 . S
O104 Gd80 2.435 . S
O104 C90 1.256 . S
O105 Gd80 2.717 . S
O105 Gd81 2.327 . S
O105 C90 1.257 . S
O106 Gd81 2.377 . S
O106 C91 1.240 . S
O107 Gd80 2.395 . S
O107 C91 1.240 . S
O108 Gd81 2.448 . S
O108 C92 1.249 . S
O109 Gd81 2.506 . S
O109 C92 1.252 . S
O110 Gd81 2.435 . S
O110 C99 1.256 . S
O111 Gd80 2.327 . S
O111 Gd81 2.717 . S
O111 C99 1.257 . S
H112 C85 0.930 . S
H113 C86 0.931 . S
H114 C88 0.931 . S
H115 C89 0.931 . S
H116 C94 0.930 . S
H117 C95 0.931 . S
H118 C97 0.931 . S
H119 C98 0.931 . S
C120 N121 1.317 1_565 S
C120 N122 1.348 . S
C120 C123 1.485 1_565 S
N121 C120 1.317 1_545 S
N121 N125 1.370 . S
N122 C120 1.348 . S
N122 C124 1.346 . S
C123 C120 1.485 1_545 S
C123 H127 0.960 . S
C123 H128 0.961 1_545 S
C123 H129 0.960 . S
C124 N122 1.346 . S
C124 N125 1.307 1_565 S
C124 C126 1.486 . S
N125 N121 1.370 . S
N125 C124 1.307 1_545 S
C126 C124 1.486 . S
C126 H130 0.960 . S
C126 H131 0.960 . S
C126 H132 0.959 . S
H127 C123 0.960 . S
H128 C123 0.961 1_565 S
H129 C123 0.960 . S
H130 C126 0.960 . S
H131 C126 0.960 . S
H132 C126 0.959 . S
C133 N134 1.317 . S
C133 N135 1.348 . S
C133 C136 1.485 . S
N134 C133 1.317 . S
N134 N138 1.370 . S
N135 C133 1.348 . S
N135 C137 1.346 . S
C136 C133 1.485 . S
C136 H140 0.960 . S
C136 H141 0.961 . S
C136 H142 0.960 . S
C137 N135 1.346 . S
C137 N138 1.307 . S
C137 C139 1.486 . S
N138 N134 1.370 . S
N138 C137 1.307 . S
C139 C137 1.486 . S
C139 H143 0.960 . S
C139 H144 0.960 . S
C139 H145 0.959 . S
H140 C136 0.960 . S
H141 C136 0.961 . S
H142 C136 0.960 . S
H143 C139 0.960 . S
H144 C139 0.960 . S
H145 C139 0.959 . S
C146 N147 1.317 . S
C146 N148 1.348 . S
C146 C149 1.485 . S
N147 C146 1.317 . S
N147 N151 1.370 . S
N148 C146 1.348 . S
N148 C150 1.346 . S
C149 C146 1.485 . S
C149 H153 0.960 . S
C149 H154 0.961 . S
C149 H155 0.960 . S
C150 N148 1.346 . S
C150 N151 1.307 . S
C150 C152 1.486 1_455 S
N151 N147 1.370 . S
N151 C150 1.307 . S
C152 C150 1.486 1_655 S
C152 H156 0.960 . S
C152 H157 0.960 . S
C152 H158 0.959 1_655 S
H153 C149 0.960 . S
H154 C149 0.961 . S
H155 C149 0.960 . S
H156 C152 0.960 . S
H157 C152 0.960 . S
H158 C152 0.959 1_455 S
C159 N160 1.317 . S
C159 N161 1.348 . S
C159 C162 1.485 . S
N160 C159 1.317 . S
N160 N164 1.370 . S
N161 C159 1.348 . S
N161 C163 1.346 . S
C162 C159 1.485 . S
C162 H166 0.960 . S
C162 H167 0.961 . S
C162 H168 0.960 . S
C163 N161 1.346 . S
C163 N164 1.307 . S
C163 C165 1.486 . S
N164 N160 1.370 . S
N164 C163 1.307 . S
C165 C163 1.486 . S
C165 H169 0.960 . S
C165 H170 0.960 . S
C165 H171 0.959 . S
H166 C162 0.960 . S
H167 C162 0.961 . S
H168 C162 0.960 . S
H169 C165 0.960 . S
H170 C165 0.960 . S
H171 C165 0.959 . S
C172 N173 1.317 . S
C172 N174 1.348 . S
C172 C175 1.485 . S
N173 C172 1.317 . S
N173 N177 1.370 . S
N174 C172 1.348 . S
N174 C176 1.346 . S
C175 C172 1.485 . S
C175 H179 0.960 . S
C175 H180 0.961 . S
C175 H181 0.960 . S
C176 N174 1.346 . S
C176 N177 1.307 . S
C176 C178 1.486 . S
N177 N173 1.370 . S
N177 C176 1.307 . S
C178 C176 1.486 . S
C178 H182 0.960 . S
C178 H183 0.960 . S
C178 H184 0.959 . S
H179 C175 0.960 . S
H180 C175 0.961 . S
H181 C175 0.960 . S
H182 C178 0.960 . S
H183 C178 0.960 . S
H184 C178 0.959 . S
C185 N186 1.317 . S
C185 N187 1.348 . S
C185 C188 1.485 . S
N186 C185 1.317 . S
N186 N190 1.370 . S
N187 C185 1.348 . S
N187 C189 1.346 . S
C188 C185 1.485 . S
C188 H192 0.960 . S
C188 H193 0.961 . S
C188 H194 0.960 . S
C189 N187 1.346 . S
C189 N190 1.307 . S
C189 C191 1.486 . S
N190 N186 1.370 . S
N190 C189 1.307 . S
C191 C189 1.486 . S
C191 H195 0.960 . S
C191 H196 0.960 . S
C191 H197 0.959 . S
H192 C188 0.960 . S
H193 C188 0.961 . S
H194 C188 0.960 . S
H195 C191 0.960 . S
H196 C191 0.960 . S
H197 C191 0.959 . S
H198 C206 0.950 . S
H199 C211 0.950 . S
H200 C208 0.950 . S
H201 C210 0.950 . S
H202 C212 0.950 . S
H203 C214 0.950 . S
H204 C216 0.950 . S
H205 C217 0.950 . S
C206 H198 0.950 . S
C206 C207 1.386 . S
C206 C208 1.391 . S
C207 C206 1.386 . S
C207 C211 1.393 . S
C208 H200 0.950 . S
C208 C206 1.391 . S
C208 C209 1.400 . S
C209 C208 1.400 . S
C209 C210 1.398 . S
C209 C215 1.491 . S
C210 H201 0.950 . S
C210 C209 1.398 . S
C210 C211 1.391 . S
C211 H199 0.950 . S
C211 C207 1.393 . S
C211 C210 1.391 . S
C212 H202 0.950 . S
C212 C213 1.386 . S
C212 C214 1.391 . S
C213 C212 1.386 . S
C213 C217 1.393 . S
C214 H203 0.950 . S
C214 C212 1.391 . S
C214 C215 1.400 . S
C215 C209 1.491 . S
C215 C214 1.400 . S
C215 C216 1.398 . S
C216 H204 0.950 . S
C216 C215 1.398 . S
C216 C217 1.391 . S
C217 H205 0.950 . S
C217 C213 1.393 . S
C217 C216 1.391 . S
H218 C226 0.950 . S
H219 C231 0.950 . S
H220 C228 0.950 . S
H221 C230 0.950 . S
H222 C232 0.950 . S
H223 C234 0.950 . S
H224 C236 0.950 . S
H225 C237 0.950 . S
C226 H218 0.950 . S
C226 C227 1.386 . S
C226 C228 1.391 . S
C227 C226 1.386 . S
C227 C231 1.393 . S
C228 H220 0.950 . S
C228 C226 1.391 . S
C228 C229 1.400 . S
C229 C228 1.400 . S
C229 C230 1.398 . S
C229 C235 1.491 . S
C230 H221 0.950 . S
C230 C229 1.398 . S
C230 C231 1.391 . S
C231 H219 0.950 . S
C231 C227 1.393 . S
C231 C230 1.391 . S
C232 H222 0.950 . S
C232 C233 1.386 . S
C232 C234 1.391 . S
C233 C232 1.386 . S
C233 C237 1.393 . S
C234 H223 0.950 . S
C234 C232 1.391 . S
C234 C235 1.400 . S
C235 C229 1.491 . S
C235 C234 1.400 . S
C235 C236 1.398 . S
C236 H224 0.950 . S
C236 C235 1.398 . S
C236 C237 1.391 . S
C237 H225 0.950 . S
C237 C233 1.393 . S
C237 C236 1.391 . S
H238 C246 0.950 . S
H239 C251 0.950 . S
H240 C248 0.950 . S
H241 C250 0.950 . S
H242 C252 0.950 . S
H243 C254 0.950 . S
H244 C256 0.950 . S
H245 C257 0.950 1_545 S
C246 H238 0.950 . S
C246 C247 1.386 . S
C246 C248 1.391 . S
C247 C246 1.386 . S
C247 C251 1.393 . S
C248 H240 0.950 . S
C248 C246 1.391 . S
C248 C249 1.400 . S
C249 C248 1.400 . S
C249 C250 1.398 . S
C249 C255 1.491 . S
C250 H241 0.950 . S
C250 C249 1.398 . S
C250 C251 1.391 . S
C251 H239 0.950 . S
C251 C247 1.393 . S
C251 C250 1.391 . S
C252 H242 0.950 . S
C252 C253 1.386 . S
C252 C254 1.391 . S
C253 C252 1.386 . S
C253 C257 1.393 . S
C254 H243 0.950 . S
C254 C252 1.391 . S
C254 C255 1.400 . S
C255 C249 1.491 . S
C255 C254 1.400 . S
C255 C256 1.398 . S
C256 H244 0.950 . S
C256 C255 1.398 . S
C256 C257 1.391 . S
C257 H245 0.950 1_565 S
C257 C253 1.393 . S
C257 C256 1.391 . S
H258 C266 0.950 . S
H259 C271 0.950 . S
H260 C268 0.950 . S
H261 C270 0.950 . S
H262 C272 0.950 . S
H263 C274 0.950 . S
H264 C276 0.950 . S
H265 C277 0.950 . S
C266 H258 0.950 . S
C266 C267 1.386 . S
C266 C268 1.391 . S
C267 C266 1.386 . S
C267 C271 1.393 . S
C268 H260 0.950 . S
C268 C266 1.391 . S
C268 C269 1.400 . S
C269 C268 1.400 . S
C269 C270 1.398 . S
C269 C275 1.491 . S
C270 H261 0.950 . S
C270 C269 1.398 . S
C270 C271 1.391 . S
C271 H259 0.950 . S
C271 C267 1.393 . S
C271 C270 1.391 . S
C272 H262 0.950 . S
C272 C273 1.386 . S
C272 C274 1.391 . S
C273 C272 1.386 . S
C273 C277 1.393 . S
C274 H263 0.950 . S
C274 C272 1.391 . S
C274 C275 1.400 . S
C275 C269 1.491 . S
C275 C274 1.400 . S
C275 C276 1.398 . S
C276 H264 0.950 . S
C276 C275 1.398 . S
C276 C277 1.391 . S
C277 H265 0.950 . S
C277 C273 1.393 . S
C277 C276 1.391 . S
H278 C286 0.950 . S
H279 C291 0.950 . S
H280 C288 0.950 . S
H281 C290 0.950 . S
H282 C292 0.950 . S
H283 C294 0.950 . S
H284 C296 0.950 . S
H285 C297 0.950 . S
C286 H278 0.950 . S
C286 C287 1.386 . S
C286 C288 1.391 . S
C287 C286 1.386 . S
C287 C291 1.393 . S
C288 H280 0.950 . S
C288 C286 1.391 . S
C288 C289 1.400 . S
C289 C288 1.400 . S
C289 C290 1.398 . S
C289 C295 1.491 . S
C290 H281 0.950 . S
C290 C289 1.398 . S
C290 C291 1.391 . S
C291 H279 0.950 . S
C291 C287 1.393 . S
C291 C290 1.391 . S
C292 H282 0.950 . S
C292 C293 1.386 . S
C292 C294 1.391 . S
C293 C292 1.386 . S
C293 C297 1.393 . S
C294 H283 0.950 . S
C294 C292 1.391 . S
C294 C295 1.400 . S
C295 C289 1.491 . S
C295 C294 1.400 . S
C295 C296 1.398 . S
C296 H284 0.950 . S
C296 C295 1.398 . S
C296 C297 1.391 . S
C297 H285 0.950 . S
C297 C293 1.393 . S
C297 C296 1.391 . S
H298 C306 0.950 . S
H299 C311 0.950 . S
H300 C308 0.950 . S
H301 C310 0.950 . S
H302 C312 0.950 . S
H303 C314 0.950 . S
H304 C316 0.950 . S
H305 C317 0.950 . S
C306 H298 0.950 . S
C306 C307 1.386 . S
C306 C308 1.391 . S
C307 C306 1.386 . S
C307 C311 1.393 . S
C308 H300 0.950 . S
C308 C306 1.391 . S
C308 C309 1.400 . S
C309 C308 1.400 . S
C309 C310 1.398 . S
C309 C315 1.491 . S
C310 H301 0.950 . S
C310 C309 1.398 . S
C310 C311 1.391 . S
C311 H299 0.950 . S
C311 C307 1.393 . S
C311 C310 1.391 . S
C312 H302 0.950 . S
C312 C313 1.386 . S
C312 C314 1.391 . S
C313 C312 1.386 . S
C313 C317 1.393 . S
C314 H303 0.950 . S
C314 C312 1.391 . S
C314 C315 1.400 . S
C315 C309 1.491 . S
C315 C314 1.400 . S
C315 C316 1.398 . S
C316 H304 0.950 . S
C316 C315 1.398 . S
C316 C317 1.391 . S
C317 H305 0.950 . S
C317 C313 1.393 . S
C317 C316 1.391 . S
H318 C326 0.950 . S
H319 C331 0.950 . S
H320 C328 0.950 . S
H321 C330 0.950 . S
H322 C332 0.950 . S
H323 C334 0.950 . S
H324 C336 0.950 . S
H325 C337 0.950 . S
C326 H318 0.950 . S
C326 C327 1.386 . S
C326 C328 1.391 . S
C327 C326 1.386 . S
C327 C331 1.393 . S
C328 H320 0.950 . S
C328 C326 1.391 . S
C328 C329 1.400 . S
C329 C328 1.400 . S
C329 C330 1.398 . S
C329 C335 1.491 . S
C330 H321 0.950 . S
C330 C329 1.398 . S
C330 C331 1.391 . S
C331 H319 0.950 . S
C331 C327 1.393 . S
C331 C330 1.391 . S
C332 H322 0.950 . S
C332 C333 1.386 . S
C332 C334 1.391 . S
C333 C332 1.386 . S
C333 C337 1.393 . S
C334 H323 0.950 . S
C334 C332 1.391 . S
C334 C335 1.400 . S
C335 C329 1.491 . S
C335 C334 1.400 . S
C335 C336 1.398 . S
C336 H324 0.950 . S
C336 C335 1.398 . S
C336 C337 1.391 . S
C337 H325 0.950 . S
C337 C333 1.393 . S
C337 C336 1.391 . S
H338 C346 0.950 . S
H339 C351 0.950 . S
H340 C348 0.950 . S
H341 C350 0.950 . S
H342 C352 0.950 . S
H343 C354 0.950 . S
H344 C356 0.950 . S
H345 C357 0.950 . S
C346 H338 0.950 . S
C346 C347 1.386 . S
C346 C348 1.391 . S
C347 C346 1.386 . S
C347 C351 1.393 . S
C348 H340 0.950 . S
C348 C346 1.391 . S
C348 C349 1.400 . S
C349 C348 1.400 . S
C349 C350 1.398 . S
C349 C355 1.491 . S
C350 H341 0.950 . S
C350 C349 1.398 . S
C350 C351 1.391 . S
C351 H339 0.950 . S
C351 C347 1.393 . S
C351 C350 1.391 . S
C352 H342 0.950 . S
C352 C353 1.386 . S
C352 C354 1.391 . S
C353 C352 1.386 . S
C353 C357 1.393 . S
C354 H343 0.950 . S
C354 C352 1.391 . S
C354 C355 1.400 . S
C355 C349 1.491 . S
C355 C354 1.400 . S
C355 C356 1.398 . S
C356 H344 0.950 . S
C356 C355 1.398 . S
C356 C357 1.391 . S
C357 H345 0.950 . S
C357 C353 1.393 . S
C357 C356 1.391 . S
H358 C366 0.950 . S
H359 C371 0.950 . S
H360 C368 0.950 . S
H361 C370 0.950 . S
H362 C372 0.950 . S
H363 C374 0.950 . S
H364 C376 0.950 . S
H365 C377 0.950 . S
C366 H358 0.950 . S
C366 C367 1.386 . S
C366 C368 1.391 . S
C367 C366 1.386 . S
C367 C371 1.393 . S
C368 H360 0.950 . S
C368 C366 1.391 . S
C368 C369 1.400 . S
C369 C368 1.400 . S
C369 C370 1.398 . S
C369 C375 1.491 . S
C370 H361 0.950 . S
C370 C369 1.398 . S
C370 C371 1.391 . S
C371 H359 0.950 . S
C371 C367 1.393 . S
C371 C370 1.391 . S
C372 H362 0.950 . S
C372 C373 1.386 . S
C372 C374 1.391 . S
C373 C372 1.386 . S
C373 C377 1.393 . S
C374 H363 0.950 . S
C374 C372 1.391 . S
C374 C375 1.400 . S
C375 C369 1.491 . S
C375 C374 1.400 . S
C375 C376 1.398 . S
C376 H364 0.950 . S
C376 C375 1.398 . S
C376 C377 1.391 . S
C377 H365 0.950 . S
C377 C373 1.393 . S
C377 C376 1.391 . S
H378 C386 0.950 . S
H379 C391 0.950 . S
H380 C388 0.950 . S
H381 C390 0.950 . S
H382 C392 0.950 . S
H383 C394 0.950 . S
H384 C396 0.950 . S
H385 C397 0.950 . S
C386 H378 0.950 . S
C386 C387 1.386 . S
C386 C388 1.391 . S
C387 C386 1.386 . S
C387 C391 1.393 . S
C388 H380 0.950 . S
C388 C386 1.391 . S
C388 C389 1.400 . S
C389 C388 1.400 . S
C389 C390 1.398 . S
C389 C395 1.491 . S
C390 H381 0.950 . S
C390 C389 1.398 . S
C390 C391 1.391 . S
C391 H379 0.950 . S
C391 C387 1.393 . S
C391 C390 1.391 . S
C392 H382 0.950 . S
C392 C393 1.386 . S
C392 C394 1.391 . S
C393 C392 1.386 . S
C393 C397 1.393 . S
C394 H383 0.950 . S
C394 C392 1.391 . S
C394 C395 1.400 . S
C395 C389 1.491 . S
C395 C394 1.400 . S
C395 C396 1.398 . S
C396 H384 0.950 . S
C396 C395 1.398 . S
C396 C397 1.391 . S
C397 H385 0.950 . S
C397 C393 1.393 . S
C397 C396 1.391 . S
H398 C406 0.950 . S
H399 C411 0.950 . S
H400 C408 0.950 . S
H401 C410 0.950 . S
H402 C412 0.950 . S
H403 C414 0.950 . S
H404 C416 0.950 . S
H405 C417 0.950 . S
C406 H398 0.950 . S
C406 C407 1.386 . S
C406 C408 1.391 . S
C407 C406 1.386 . S
C407 C411 1.393 . S
C408 H400 0.950 . S
C408 C406 1.391 . S
C408 C409 1.400 . S
C409 C408 1.400 . S
C409 C410 1.398 . S
C409 C415 1.491 . S
C410 H401 0.950 . S
C410 C409 1.398 . S
C410 C411 1.391 . S
C411 H399 0.950 . S
C411 C407 1.393 . S
C411 C410 1.391 . S
C412 H402 0.950 . S
C412 C413 1.386 . S
C412 C414 1.391 . S
C413 C412 1.386 . S
C413 C417 1.393 . S
C414 H403 0.950 . S
C414 C412 1.391 . S
C414 C415 1.400 . S
C415 C409 1.491 . S
C415 C414 1.400 . S
C415 C416 1.398 . S
C416 H404 0.950 . S
C416 C415 1.398 . S
C416 C417 1.391 . S
C417 H405 0.950 . S
C417 C413 1.393 . S
C417 C416 1.391 . S
H418 C426 0.950 . S
H419 C431 0.950 . S
H420 C428 0.950 . S
H421 C430 0.950 . S
H422 C432 0.950 . S
H423 C434 0.950 . S
H424 C436 0.950 . S
H425 C437 0.950 . S
C426 H418 0.950 . S
C426 C427 1.386 . S
C426 C428 1.391 . S
C427 C426 1.386 . S
C427 C431 1.393 . S
C428 H420 0.950 . S
C428 C426 1.391 . S
C428 C429 1.400 . S
C429 C428 1.400 . S
C429 C430 1.398 . S
C429 C435 1.491 . S
C430 H421 0.950 . S
C430 C429 1.398 . S
C430 C431 1.391 . S
C431 H419 0.950 . S
C431 C427 1.393 . S
C431 C430 1.391 . S
C432 H422 0.950 . S
C432 C433 1.386 . S
C432 C434 1.391 . S
C433 C432 1.386 . S
C433 C437 1.393 . S
C434 H423 0.950 . S
C434 C432 1.391 . S
C434 C435 1.400 . S
C435 C429 1.491 . S
C435 C434 1.400 . S
C435 C436 1.398 . S
C436 H424 0.950 . S
C436 C435 1.398 . S
C436 C437 1.391 . S
C437 H425 0.950 . S
C437 C433 1.393 . S
C437 C436 1.391 . S
H438 C446 0.948 . S
H439 C451 0.950 . S
H440 C448 0.950 1_655 S
H441 C450 0.950 . S
H442 C452 0.950 . S
H443 C454 0.950 . S
H444 C456 0.950 . S
H445 C457 0.950 . S
C446 H438 0.948 . S
C446 C447 1.389 1_655 S
C446 C448 1.390 1_655 S
C447 C446 1.389 1_455 S
C447 C451 1.393 . S
C448 H440 0.950 1_455 S
C448 C446 1.390 1_455 S
C448 C449 1.400 . S
C449 C448 1.400 . S
C449 C450 1.398 . S
C449 C455 1.491 1_554 S
C450 H441 0.950 . S
C450 C449 1.398 . S
C450 C451 1.391 . S
C451 H439 0.950 . S
C451 C447 1.393 . S
C451 C450 1.391 . S
C452 H442 0.950 . S
C452 C453 1.386 . S
C452 C454 1.391 . S
C453 C452 1.386 . S
C453 C457 1.393 . S
C454 H443 0.950 . S
C454 C452 1.391 . S
C454 C455 1.400 . S
C455 C449 1.491 1_556 S
C455 C454 1.400 . S
C455 C456 1.398 . S
C456 H444 0.950 . S
C456 C455 1.398 . S
C456 C457 1.391 . S
C457 H445 0.950 . S
C457 C453 1.393 . S
C457 C456 1.391 . S
H458 C466 0.950 . S
H459 C471 0.950 . S
H460 C468 0.950 . S
H461 C470 0.950 . S
H462 C472 0.950 . S
H463 C474 0.950 . S
H464 C476 0.950 . S
H465 C477 0.950 . S
C466 H458 0.950 . S
C466 C467 1.386 . S
C466 C468 1.391 . S
C467 C466 1.386 . S
C467 C471 1.393 1_545 S
C468 H460 0.950 . S
C468 C466 1.391 . S
C468 C469 1.400 . S
C469 C468 1.400 . S
C469 C470 1.398 1_545 S
C469 C475 1.491 . S
C470 H461 0.950 . S
C470 C469 1.398 1_565 S
C470 C471 1.391 . S
C471 H459 0.950 . S
C471 C467 1.393 1_565 S
C471 C470 1.391 . S
C472 H462 0.950 . S
C472 C473 1.386 1_565 S
C472 C474 1.391 . S
C473 C472 1.386 1_545 S
C473 C477 1.393 . S
C474 H463 0.950 . S
C474 C472 1.391 . S
C474 C475 1.400 1_565 S
C475 C469 1.491 . S
C475 C474 1.400 1_545 S
C475 C476 1.398 . S
C476 H464 0.950 . S
C476 C475 1.398 . S
C476 C477 1.391 . S
C477 H465 0.950 . S
C477 C473 1.393 . S
C477 C476 1.391 . S
H478 C486 0.950 . S
H479 C491 0.950 . S
H480 C488 0.950 . S
H481 C490 0.950 . S
H482 C492 0.950 . S
H483 C494 0.950 . S
H484 C496 0.950 . S
H485 C497 0.950 . S
C486 H478 0.950 . S
C486 C487 1.386 . S
C486 C488 1.391 . S
C487 C486 1.386 . S
C487 C491 1.393 . S
C488 H480 0.950 . S
C488 C486 1.391 . S
C488 C489 1.400 . S
C489 C488 1.400 . S
C489 C490 1.398 . S
C489 C495 1.491 . S
C490 H481 0.950 . S
C490 C489 1.398 . S
C490 C491 1.391 . S
C491 H479 0.950 . S
C491 C487 1.393 . S
C491 C490 1.391 . S
C492 H482 0.950 . S
C492 C493 1.386 . S
C492 C494 1.391 . S
C493 C492 1.386 . S
C493 C497 1.393 . S
C494 H483 0.950 . S
C494 C492 1.391 . S
C494 C495 1.400 . S
C495 C489 1.491 . S
C495 C494 1.400 . S
C495 C496 1.398 . S
C496 H484 0.950 . S
C496 C495 1.398 . S
C496 C497 1.391 . S
C497 H485 0.950 . S
C497 C493 1.393 . S
C497 C496 1.391 . S
H498 C506 0.950 1_565 S
H499 C511 0.950 . S
H500 C508 0.950 1_565 S
H501 C510 0.950 . S
H502 C512 0.950 . S
H503 C514 0.950 . S
H504 C516 0.950 1_565 S
H505 C517 0.950 1_565 S
C506 H498 0.950 1_545 S
C506 C507 1.386 . S
C506 C508 1.391 . S
C507 C506 1.386 . S
C507 C511 1.393 . S
C508 H500 0.950 1_545 S
C508 C506 1.391 . S
C508 C509 1.400 . S
C509 C508 1.400 . S
C509 C510 1.398 . S
C509 C515 1.491 . S
C510 H501 0.950 . S
C510 C509 1.398 . S
C510 C511 1.391 . S
C511 H499 0.950 . S
C511 C507 1.393 . S
C511 C510 1.391 . S
C512 H502 0.950 . S
C512 C513 1.386 . S
C512 C514 1.391 . S
C513 C512 1.386 . S
C513 C517 1.393 . S
C514 H503 0.950 . S
C514 C512 1.391 . S
C514 C515 1.400 . S
C515 C509 1.491 . S
C515 C514 1.400 . S
C515 C516 1.398 . S
C516 H504 0.950 1_545 S
C516 C515 1.398 . S
C516 C517 1.391 . S
C517 H505 0.950 1_545 S
C517 C513 1.393 . S
C517 C516 1.391 . S
H518 C526 0.950 . S
H519 C531 0.950 . S
H520 C528 0.950 . S
H521 C530 0.950 . S
H522 C532 0.950 . S
H523 C534 0.950 . S
H524 C536 0.950 1_556 S
H525 C537 0.950 . S
C526 H518 0.950 . S
C526 C527 1.386 . S
C526 C528 1.391 . S
C527 C526 1.386 . S
C527 C531 1.393 . S
C528 H520 0.950 . S
C528 C526 1.391 . S
C528 C529 1.400 . S
C529 C528 1.400 . S
C529 C530 1.398 . S
C529 C535 1.491 . S
C530 H521 0.950 . S
C530 C529 1.398 . S
C530 C531 1.391 . S
C531 H519 0.950 . S
C531 C527 1.393 . S
C531 C530 1.391 . S
C532 H522 0.950 . S
C532 C533 1.386 . S
C532 C534 1.391 . S
C533 C532 1.386 . S
C533 C537 1.393 . S
C534 H523 0.950 . S
C534 C532 1.391 . S
C534 C535 1.400 1_554 S
C535 C529 1.491 . S
C535 C534 1.400 1_556 S
C535 C536 1.398 1_556 S
C536 H524 0.950 1_554 S
C536 C535 1.398 1_554 S
C536 C537 1.391 . S
C537 H525 0.950 . S
C537 C533 1.393 . S
C537 C536 1.391 . S
H538 C546 0.950 . S
H539 C551 0.950 . S
H540 C548 0.950 . S
H541 C550 0.950 . S
H542 C552 0.950 . S
H543 C554 0.950 . S
H544 C556 0.950 . S
H545 C557 0.950 . S
C546 H538 0.950 . S
C546 C547 1.386 1_455 S
C546 C548 1.391 . S
C547 C546 1.386 1_655 S
C547 C551 1.393 . S
C548 H540 0.950 . S
C548 C546 1.391 . S
C548 C549 1.400 . S
C549 C548 1.400 . S
C549 C550 1.398 1_455 S
C549 C555 1.491 . S
C550 H541 0.950 . S
C550 C549 1.398 1_655 S
C550 C551 1.391 . S
C551 H539 0.950 . S
C551 C547 1.393 . S
C551 C550 1.391 . S
C552 H542 0.950 . S
C552 C553 1.386 1_655 S
C552 C554 1.391 . S
C553 C552 1.386 1_455 S
C553 C557 1.393 . S
C554 H543 0.950 . S
C554 C552 1.391 . S
C554 C555 1.400 1_655 S
C555 C549 1.491 . S
C555 C554 1.400 1_455 S
C555 C556 1.398 . S
C556 H544 0.950 . S
C556 C555 1.398 . S
C556 C557 1.391 . S
C557 H545 0.950 . S
C557 C553 1.393 . S
C557 C556 1.391 . S
C207 C7 0.395 . S
C213 N187 0.310 . S
C227 C51 1.802 . S
C233 N160 1.800 1_655 S
C247 C87 1.166 . S
C253 N173 1.172 1_565 S
C267 C16 0.751 . S
C273 N186 0.738 . S
C293 N161 1.987 . S
C287 C42 2.002 . S
C313 N174 1.370 . S
C307 C96 1.368 . S
C327 C47 1.080 . S
C333 N134 1.079 . S
C347 C91 2.836 . S
C353 N148 2.789 1_655 S
C367 C2 2.023 . S
C373 N122 2.017 . S
C393 N135 1.426 . S
C387 C56 1.399 . S
C413 N147 3.263 . S
C407 C82 3.237 . S
C427 C11 1.803 . S
C433 N121 1.806 . S
C453 N151 1.749 . S
C447 C19 1.717 . S
C467 C50 1.456 . S
C473 N125 1.474 . S
C487 C99 1.494 . S
C493 N138 1.590 . S
C513 N177 1.530 . S
C507 C59 1.488 . S
C533 N190 1.259 . S
C527 C90 1.282 . S
C547 C10 1.448 1_655 S
C553 N164 1.458 . S
