# Generated by pormake.
# Topology pts, (4,4)-cn, num edge types: 1
# Building blocks:
#     Node 0, Type 0, BuildingBlock: GIZVER_clean_linker_0, # of connection points: 4
#     Node 1, Type 0, BuildingBlock: GIZVER_clean_linker_0, # of connection points: 4
#     Node 2, Type 1, BuildingBlock: UXUYUI_clean_sbu_0, # of connection points: 4
#     Node 3, Type 1, BuildingBlock: UXUYUI_clean_sbu_0, # of connection points: 4
#     Edge 4, Type (0, 1), BuildingBlock: FUNLAD_clean_linker_0, # of connection points: 2
#     Edge 5, Type (0, 1), BuildingBlock: FUNLAD_clean_linker_0, # of connection points: 2
#     Edge 6, Type (0, 1), BuildingBlock: FUNLAD_clean_linker_0, # of connection points: 2
#     Edge 7, Type (0, 1), BuildingBlock: FUNLAD_clean_linker_0, # of connection points: 2
#     Edge 8, Type (0, 1), BuildingBlock: FUNLAD_clean_linker_0, # of connection points: 2
#     Edge 9, Type (0, 1), BuildingBlock: FUNLAD_clean_linker_0, # of connection points: 2
#     Edge 10, Type (0, 1), BuildingBlock: FUNLAD_clean_linker_0, # of connection points: 2
#     Edge 11, Type (0, 1), BuildingBlock: FUNLAD_clean_linker_0, # of connection points: 2
# Relax obj value: 0.010
# Max RMSD: 0.058
# Mean RMSD: 0.057
data_MOF--net-pts--node1-UXUYUI_clean_sbu_0--node2-GIZVER_clean_linker_0--edge1-FUNLAD_clean_linker_0
_symmetry_space_group_name_H-M    P1
_symmetry_Int_Tables_number       1
_symmetry_cell_setting            triclinic
loop_
_symmetry_equiv_pos_as_xyz
'x, y, z'
_cell_length_a     36.039414
_cell_length_b     36.01517
_cell_length_c     47.505841
_cell_angle_alpha  90.249908
_cell_angle_beta   89.796154
_cell_angle_gamma 90.118912
loop_
_atom_site_label
_atom_site_type_symbol
_atom_site_fract_x
_atom_site_fract_y
_atom_site_fract_z
_atom_type_partial_charge
H0 H 0.55695 0.08114 0.03809 0.0
H1 H 0.57177 0.0867 0.94811 0.0
H2 H 0.65749 0.04101 2e-05 0.0
H3 H 0.52101 0.12551 0.00806 0.0
H4 H 0.52331 0.12238 0.97066 0.0
H5 H 0.48309 0.08203 0.03552 0.0
H6 H 0.39841 0.0232 -0.01001 0.0
H7 H 0.48865 0.07416 0.94511 0.0
C8 C 0.57318 0.07492 0.01941 0.0
C9 C 0.60845 0.05885 0.02215 0.0
C10 C 0.55941 0.08434 -0.00733 0.0
C11 C 0.58149 0.0779 0.96859 0.0
C12 C 0.61719 0.06279 0.97123 0.0
C13 C 0.62978 0.05232 -0.00208 0.0
C14 C 0.52346 0.10551 -0.00977 0.0
C15 C 0.4902 0.07995 -0.00963 0.0
C16 C 0.47214 0.07137 0.01585 0.0
C17 C 0.43915 0.05049 0.0159 0.0
C18 C 0.42488 0.03756 -0.00978 0.0
C19 C 0.44233 0.04603 0.96459 0.0
C20 C 0.4753 0.06691 0.96482 0.0
H21 H 0.08064 0.56637 0.44557 0.0
H22 H 0.0724 0.56497 0.53605 0.0
H23 H 0.0309 0.65811 0.48964 0.0
H24 H 0.11903 0.52412 0.47326 0.0
H25 H 0.11691 0.52449 0.51078 0.0
H26 H 0.07526 0.48679 0.44546 0.0
H27 H 0.01623 0.40086 0.48934 0.0
H28 H 0.07021 0.48782 0.53609 0.0
C29 C 0.07125 0.57907 0.46505 0.0
C30 C 0.05387 0.61393 0.46447 0.0
C31 C 0.07771 0.56108 0.49081 0.0
C32 C 0.06659 0.57828 0.51612 0.0
C33 C 0.04913 0.61312 0.51581 0.0
C34 C 0.04254 0.63037 0.48989 0.0
C35 C 0.09955 0.5254 0.49147 0.0
C36 C 0.0743 0.49191 0.49082 0.0
C37 C 0.0649 0.47516 0.46499 0.0
C38 C 0.04357 0.44249 0.46438 0.0
C39 C 0.03104 0.42711 0.48975 0.0
C40 C 0.04083 0.44295 0.5157 0.0
C41 C 0.06207 0.4757 0.51611 0.0
Li42 Li 0.02727 0.06003 0.25952 0.0
Li43 Li 0.02419 0.99034 0.25385 0.0
Li44 Li 0.05258 0.02872 0.21815 0.0
Li45 Li 0.98673 0.02756 0.22377 0.0
C46 C 0.10445 1.01394 0.25621 0.0
N47 N 0.17817 0.99495 0.24911 0.0
C48 C 0.11424 0.97733 0.24977 0.0
C49 C 0.13218 0.04089 0.25905 0.0
C50 C 0.15166 0.96829 0.24628 0.0
C51 C 0.16929 0.03073 0.25538 0.0
C52 C 0.97231 1.00941 0.29006 0.0
C53 C 0.94018 0.96022 0.31448 0.0
N54 N 0.95033 0.97555 0.33952 0.0
C55 C 0.98235 0.0247 0.31604 0.0
C56 C 0.95094 0.97696 0.28926 0.0
C57 C 0.97097 1.00717 0.3408 0.0
C58 C 1.00206 0.12632 0.28375 0.0
N59 N 0.03078 0.10194 0.28375 0.0
C60 C 0.06528 0.14107 0.31488 0.0
C61 C 0.06178 0.10833 0.29922 0.0
C62 C 0.03637 0.16731 0.3149 0.0
C63 C 1.0042 0.15923 0.29933 0.0
H64 H 0.97772 0.1204 0.27123 0.0
H65 H 0.08404 0.08831 0.29904 0.0
C66 C 0.01915 0.91241 0.25962 0.0
N67 N 0.02756 0.9443 0.27363 0.0
C68 C 0.01972 0.87838 0.27352 0.0
C69 C 0.03927 0.91032 0.3158 0.0
C70 C 0.03816 0.94382 0.30107 0.0
C71 C 0.02955 0.87705 0.30206 0.0
H72 H 1.01203 0.91333 0.2376 0.0
H73 H 0.04521 0.96955 0.31161 0.0
C74 C 0.03397 0.09712 0.20104 0.0
N75 N 0.06531 0.14731 0.16403 0.0
C76 C 0.03439 0.08959 0.17215 0.0
C77 C 0.04927 0.13031 0.21109 0.0
C78 C 0.05046 0.11526 0.15379 0.0
C79 C 0.06501 0.1553 0.19204 0.0
C80 C 0.9974 0.9719 0.19161 0.0
C81 C 1.00513 0.98026 0.16348 0.0
C82 C 0.96608 0.95061 0.19822 0.0
C83 C 0.98139 0.9672 0.14244 0.0
C84 C 0.94297 0.93816 0.17659 0.0
N85 N 0.95105 0.94663 0.14938 0.0
C86 C 0.10386 0.99881 0.17896 0.0
C87 C 0.1181 0.0602 0.19342 0.0
C88 C 0.13665 0.99691 0.16327 0.0
N89 N 0.09509 0.0302 0.19351 0.0
C90 C 0.1512 0.0595 0.17807 0.0
C91 C 0.16097 0.02746 0.16283 0.0
H92 H 0.08601 0.97473 0.18033 0.0
H93 H 0.1115 0.08425 0.20611 0.0
C94 C 0.90878 0.01979 0.22162 0.0
N95 N 0.9388 0.0309 0.2064 0.0
C96 C 0.87347 0.01973 0.20963 0.0
C97 C 0.90027 0.04382 0.16674 0.0
C98 C 0.93514 0.04319 0.17952 0.0
C99 C 0.8689 0.03167 0.18178 0.0
H100 H 0.91224 1.01066 0.24303 0.0
H101 H 0.95933 0.05189 0.16782 0.0
O102 O 0.06786 0.02352 0.25881 0.0
O103 O 0.98368 0.02589 0.26558 0.0
O104 O 0.01839 0.07236 0.21939 0.0
O105 O 0.01986 0.98514 0.21259 0.0
H106 H 0.09318 0.95622 0.24701 0.0
H107 H 0.12515 0.06952 0.26339 0.0
H108 H 0.1596 0.94011 0.24114 0.0
H109 H 0.191 0.05136 0.2573 0.0
H110 H 0.92393 0.93494 0.31415 0.0
H111 H 0.99895 0.0497 0.31713 0.0
H112 H 0.94335 0.96437 0.26938 0.0
H113 H 0.97864 0.01866 0.36105 0.0
H114 H 0.09079 0.14608 0.32625 0.0
H115 H 0.98088 0.17812 0.29909 0.0
H116 H 1.0128 0.85332 0.26198 0.0
H117 H 0.04687 0.91055 0.33784 0.0
H118 H 0.02303 0.06395 0.16401 0.0
H119 H 0.04921 0.13666 0.23335 0.0
H120 H 0.05123 0.10964 0.13141 0.0
H121 H 0.07706 0.18103 0.19954 0.0
H122 H 0.02898 0.99694 0.15789 0.0
H123 H 0.95917 0.94446 0.21988 0.0
H124 H 0.987 0.97358 0.12061 0.0
H125 H 0.91848 0.92195 0.18145 0.0
H126 H 0.14345 0.97135 0.15234 0.0
H127 H 0.16907 0.0837 0.17831 0.0
H128 H 0.84996 1.01062 0.22209 0.0
H129 H 0.89803 0.05292 0.14512 0.0
Li130 Li 0.99704 0.03063 0.75929 0.0
Li131 Li 0.06559 0.02811 0.75771 0.0
Li132 Li 0.02868 0.06365 0.72229 0.0
Li133 Li 0.03002 0.99535 0.72068 0.0
C134 C 0.02088 0.09118 0.78658 0.0
N135 N 0.99536 0.1288 0.8336 0.0
C136 C 0.04016 0.08893 0.81199 0.0
C137 C 0.9888 0.11283 0.78502 0.0
C138 C 0.02678 0.10812 0.83554 0.0
C139 C 0.97628 0.13154 0.80904 0.0
C140 C 0.04224 0.95791 0.77844 0.0
C141 C 0.07944 0.90292 0.78454 0.0
N142 N 0.06726 0.90031 0.81159 0.0
C143 C 0.02974 0.95438 0.80619 0.0
C144 C 0.06698 0.93173 0.76742 0.0
C145 C 0.04284 0.92519 0.82265 0.0
C146 C 0.92014 0.02709 0.77009 0.0
N147 N 0.95378 0.03014 0.78278 0.0
C148 C 0.92485 0.03313 0.82808 0.0
C149 C 0.95667 0.03277 0.81124 0.0
C150 C 0.88963 0.03028 0.81558 0.0
C151 C 0.88758 0.02714 0.78614 0.0
H152 H 0.91856 0.02449 0.74746 0.0
H153 H 0.98367 0.03492 0.8209 0.0
C154 C 0.13921 0.04894 0.76613 0.0
N155 N 0.11136 0.02882 0.77802 0.0
C156 C 0.17389 0.0512 0.77901 0.0
C157 C 0.15058 1.01244 0.81652 0.0
C158 C 0.1163 1.01094 0.80288 0.0
C159 C 0.17998 0.03278 0.80458 0.0
H160 H 0.13446 0.06321 0.74648 0.0
H161 H 0.09361 0.99596 0.8124 0.0
C162 C 0.96658 0.04547 0.69732 0.0
N163 N 0.92865 0.08062 0.65466 0.0
C164 C 0.96842 0.03169 0.66982 0.0
C165 C 0.94518 0.07689 0.70321 0.0
C166 C 0.94908 0.0499 0.64852 0.0
C167 C 0.92631 0.09436 0.68132 0.0
C168 C 0.10084 0.01584 0.7009 0.0
C169 C 0.10867 0.0287 0.6738 0.0
C170 C 0.12299 0.98815 0.71262 0.0
C171 C 0.13808 1.01307 0.65864 0.0
C172 C 0.15218 0.97325 0.69682 0.0
N173 N 0.15902 0.98588 0.67036 0.0
C174 C 0.02754 0.14113 0.71422 0.0
C175 C 0.03099 0.10642 0.67181 0.0
C176 C 0.02845 0.17442 0.6993 0.0
N177 N 0.02877 0.10804 0.70037 0.0
C178 C 0.0322 0.13907 0.65603 0.0
C179 C 0.03107 0.17368 0.66981 0.0
H180 H 0.02642 0.14175 0.73692 0.0
H181 H 0.03199 0.07978 0.66129 0.0
C182 C 1.01151 0.92108 0.70957 0.0
N183 N 0.02796 0.95148 0.69806 0.0
C184 C 1.00944 0.88782 0.69443 0.0
C185 C 0.04033 0.918 0.6555 0.0
C186 C 0.04193 0.95065 0.67145 0.0
C187 C 0.02403 0.88595 0.66701 0.0
H188 H 0.99994 0.92269 0.73057 0.0
H189 H 0.05406 0.97536 0.66248 0.0
O190 O 0.03351 0.07249 0.76333 0.0
O191 O 0.0296 0.98635 0.76203 0.0
O192 O 0.9858 0.02839 0.71837 0.0
O193 O 0.07201 0.03077 0.71596 0.0
H194 H 0.0651 0.07245 0.81356 0.0
H195 H 0.97354 0.11487 0.76553 0.0
H196 H 0.04134 0.10652 0.85537 0.0
H197 H 0.95137 0.14819 0.80818 0.0
H198 H 0.09867 0.88255 0.77628 0.0
H199 H 1.01032 0.97408 0.81501 0.0
H200 H 0.07618 0.9333 0.74579 0.0
H201 H 0.03358 0.92231 0.84422 0.0
H202 H 0.92788 0.03615 0.85065 0.0
H203 H 0.86113 0.0243 0.77559 0.0
H204 H 0.19578 0.06698 0.76893 0.0
H205 H 0.15377 0.99844 0.8365 0.0
H206 H 0.9848 1.00736 0.66493 0.0
H207 H 0.94342 0.08784 0.7244 0.0
H208 H 0.95039 0.03966 0.6271 0.0
H209 H 0.90984 0.11885 0.68553 0.0
H210 H 0.0921 0.05036 0.66448 0.0
H211 H 0.11801 0.97855 0.73379 0.0
H212 H 0.14428 0.02259 0.63758 0.0
H213 H 0.16947 0.95176 0.70564 0.0
H214 H 0.02811 0.20046 0.71079 0.0
H215 H 0.03391 0.13726 0.6333 0.0
H216 H 0.99603 0.86402 0.70394 0.0
H217 H 0.05203 0.91779 0.63447 0.0
C218 C 0.39837 1.01204 0.04726 0.0
C219 C 0.41655 0.04586 0.04189 0.0
C220 C 0.37127 1.00965 0.06829 0.0
C221 C 0.36158 0.04118 0.08428 0.0
C222 C 0.38188 0.07411 0.08046 0.0
C223 C 0.40901 0.07652 0.05939 0.0
C224 C 0.32941 0.04119 0.10403 0.0
C225 C 0.29916 0.01972 0.09984 0.0
C226 C 0.26444 0.02201 0.11687 0.0
C227 C 0.23171 1.00703 0.10548 0.0
C228 C 0.19823 1.00884 0.12032 0.0
C229 C 0.19664 0.02559 0.14705 0.0
H230 H 0.28767 0.04921 0.15384 0.0
C231 C 0.22945 0.04017 0.1587 0.0
C232 C 0.26302 0.03831 0.14385 0.0
H233 H 0.22931 0.05251 0.17953 0.0
H234 H 0.40416 0.98774 0.03448 0.0
H235 H 0.35742 0.9833 0.07147 0.0
H236 H 0.37537 0.09867 0.09276 0.0
H237 H 0.42241 0.10302 0.05572 0.0
H238 H 0.32926 0.06208 0.12054 0.0
H239 H 0.29853 1.00131 0.08167 0.0
H240 H 0.23191 0.99418 0.08481 0.0
H241 H 0.17345 0.99757 0.11065 0.0
C242 C 0.06273 0.41279 0.5599 0.0
C243 C 0.03336 0.42174 0.54181 0.0
C244 C 0.05785 0.38624 0.58098 0.0
C245 C 0.02342 0.36828 0.5844 0.0
C246 C 0.99332 0.3795 0.56785 0.0
C247 C 0.99831 0.40572 0.54654 0.0
C248 C 0.01869 0.33639 0.60381 0.0
C249 C 0.04573 0.3111 0.60757 0.0
C250 C 0.04076 0.2762 0.62376 0.0
C251 C 0.06343 0.24571 0.61713 0.0
C252 C 0.05987 0.21233 0.63177 0.0
C253 C 0.03384 0.20882 0.65368 0.0
H254 H 0.99732 0.29591 0.65192 0.0
C255 C 1.01134 0.23943 0.66055 0.0
C256 C 0.0147 0.27279 0.64574 0.0
H257 H 0.991 0.23755 0.67733 0.0
H258 H 0.09008 0.42459 0.55667 0.0
H259 H 0.08132 0.37901 0.594 0.0
H260 H 0.9664 0.36644 0.57033 0.0
H261 H 0.97517 0.41232 0.53296 0.0
H262 H 0.99121 0.33149 0.61249 0.0
H263 H 0.07186 0.31451 0.59638 0.0
H264 H 0.08391 0.24764 0.60045 0.0
H265 H 0.07803 0.18947 0.62627 0.0
C266 C 0.64673 0.02122 0.05526 0.0
C267 C 0.62608 0.05348 0.05001 0.0
C268 C 0.67134 0.0198 0.07788 0.0
C269 C 0.67567 0.05066 0.09591 0.0
C270 C 0.65285 0.08179 0.09184 0.0
C271 C 0.62818 0.08316 0.06919 0.0
C272 C 0.70674 0.05345 0.11644 0.0
C273 C 0.72672 0.02419 0.12537 0.0
C274 C 0.76191 0.02806 0.1414 0.0
C275 C 0.77394 0.9984 0.1581 0.0
C276 C 0.80832 0.99986 0.17162 0.0
C277 C 0.83173 0.03084 0.16836 0.0
H278 H 0.77752 0.08222 0.12499 0.0
C279 C 0.81971 0.06059 0.15171 0.0
C280 C 0.7852 0.05927 0.13837 0.0
H281 H 0.83707 0.08489 0.14888 0.0
H282 H 0.64558 0.99792 0.04078 0.0
H283 H 0.68853 0.9954 0.07979 0.0
H284 H 0.65556 0.10598 0.10533 0.0
H285 H 0.61291 0.10855 0.0655 0.0
H286 H 0.71431 0.08113 0.12359 0.0
H287 H 0.71747 0.99617 0.12063 0.0
H288 H 0.75686 0.97381 0.16045 0.0
H289 H 0.81702 0.97628 0.18401 0.0
C290 C 1.00851 0.6546 0.54499 0.0
C291 C 0.0415 0.63415 0.54215 0.0
C292 C 1.00445 0.68065 0.56664 0.0
C293 C 0.03346 0.68698 0.58582 0.0
C294 C 0.06505 0.66426 0.58445 0.0
C295 C 0.06914 0.63816 0.56274 0.0
C296 C 0.03251 0.71834 0.60629 0.0
C297 C 0.01541 0.75069 0.60046 0.0
C298 C 0.01765 0.7846 0.61839 0.0
C299 C 1.01019 0.81911 0.60599 0.0
C300 C 1.01236 0.85189 0.62171 0.0
C301 C 0.02174 0.85097 0.65037 0.0
H302 H 0.03165 0.75752 0.65778 0.0
C303 C 0.02864 0.8164 0.66298 0.0
C304 C 0.02659 0.78354 0.6472 0.0
H305 H 0.03601 0.81475 0.68502 0.0
H306 H 0.98642 0.65152 0.52974 0.0
H307 H 0.97899 0.69649 0.56778 0.0
H308 H 0.08758 0.66818 0.59922 0.0
H309 H 0.09492 0.6229 0.56107 0.0
H310 H 0.04957 0.71602 0.62498 0.0
H311 H 1.0014 0.75364 0.58039 0.0
H312 H 1.00291 0.8208 0.58392 0.0
H313 H 1.00624 0.87796 0.61145 0.0
C314 C 0.41643 0.06494 0.91795 0.0
C315 C 0.42284 0.03705 0.93793 0.0
C316 C 0.39146 0.05896 0.8959 0.0
C317 C 0.3724 0.02492 0.89346 0.0
C318 C 0.38125 0.9961 0.91204 0.0
C319 C 0.40601 1.00215 0.93417 0.0
C320 C 0.34168 0.01911 0.87306 0.0
C321 C 0.31932 0.04689 0.86462 0.0
C322 C 0.28492 0.04147 0.84778 0.0
C323 C 0.2694 0.07239 0.83435 0.0
C324 C 0.23571 0.06945 0.82004 0.0
C325 C 0.21648 0.03549 0.81898 0.0
H326 H 0.2761 0.98297 0.85718 0.0
C327 C 0.23205 1.00441 0.83226 0.0
C328 C 0.26583 1.00732 0.84654 0.0
H329 H 0.21805 0.97777 0.83169 0.0
H330 H 0.429 0.09213 0.92029 0.0
H331 H 0.38646 0.08139 0.88132 0.0
H332 H 0.36745 0.96943 0.91039 0.0
H333 H 0.41078 0.98002 0.9491 0.0
H334 H 0.33567 0.99072 0.86684 0.0
H335 H 0.32546 0.07515 0.87119 0.0
H336 H 0.28318 0.09915 0.83522 0.0
H337 H 0.22427 0.09409 0.81041 0.0
C338 C 0.07006 0.4092 0.42277 0.0
C339 C 0.03874 0.42084 0.43808 0.0
C340 C 0.06672 0.38204 0.40181 0.0
C341 C 0.03189 0.36633 0.39564 0.0
C342 C 1.00024 0.38016 0.40937 0.0
C343 C 1.00367 0.40684 0.43069 0.0
C344 C 0.02817 0.33405 0.37633 0.0
C345 C 0.05291 0.30605 0.37638 0.0
C346 C 0.04783 0.271 0.36027 0.0
C347 C 0.06313 0.23816 0.37091 0.0
C348 C 0.059 0.20454 0.35646 0.0
C349 C 0.04002 0.20304 0.33066 0.0
H350 H 0.01752 0.29468 0.32529 0.0
C351 C 0.02507 0.23614 0.31983 0.0
C352 C 0.02882 0.26971 0.33449 0.0
H353 H 1.01106 0.23633 0.29971 0.0
H354 H 0.09744 0.41939 0.4282 0.0
H355 H 0.0915 0.37254 0.39105 0.0
H356 H 0.97308 0.36874 0.40477 0.0
H357 H 0.97913 0.41541 0.44222 0.0
H358 H 1.00261 0.3313 0.36444 0.0
H359 H 0.07635 0.30745 0.3907 0.0
H360 H 0.07794 0.2384 0.39073 0.0
H361 H 0.07043 0.17967 0.36574 0.0
C362 C 0.67988 0.07457 0.95079 0.0
C363 C 0.64347 0.06142 0.9471 0.0
C364 C 0.70621 0.07075 0.92949 0.0
C365 C 0.69688 0.05362 0.90384 0.0
C366 C 0.65994 0.04247 0.89939 0.0
C367 C 0.63339 0.04621 0.92092 0.0
C368 C 0.72559 0.04741 0.88179 0.0
C369 C 0.76083 0.03889 0.88868 0.0
C370 C 0.79183 0.03451 0.86825 0.0
C371 C 0.82348 0.01498 0.8768 0.0
C372 C 0.85476 1.01289 0.85947 0.0
C373 C 0.85539 0.03072 0.83321 0.0
H374 H 0.76844 0.06775 0.83466 0.0
C375 C 0.82342 0.04976 0.82438 0.0
C376 C 0.79194 0.05166 0.8417 0.0
H377 H 0.8231 0.06427 0.80446 0.0
H378 H 0.68818 0.08759 0.9704 0.0
H379 H 0.73397 0.08121 0.9332 0.0
H380 H 0.65193 0.02978 0.8796 0.0
H381 H 0.60542 0.03617 0.91744 0.0
H382 H 0.71726 0.04851 0.85987 0.0
H383 H 0.76748 0.0343 0.9107 0.0
H384 H 0.8242 1.00157 0.89716 0.0
H385 H 0.87857 0.99741 0.86676 0.0
C386 C 0.01898 0.65633 0.43239 0.0
C387 C 0.05115 0.63576 0.43811 0.0
C388 C 0.01876 0.6827 0.41092 0.0
C389 C 0.05078 0.68895 0.39449 0.0
C390 C 0.08224 0.66688 0.39924 0.0
C391 C 0.08241 0.64044 0.42073 0.0
C392 C 0.05375 0.72066 0.37456 0.0
C393 C 0.02426 0.73865 0.36386 0.0
C394 C 0.02745 0.77331 0.34711 0.0
C395 C 0.9987 0.78264 0.32861 0.0
C396 C 0.99963 0.81605 0.31377 0.0
C397 C 0.02914 0.8412 0.3174 0.0
H398 H 0.07922 0.79284 0.36541 0.0
C399 C 0.05787 0.832 0.33601 0.0
C400 C 0.05709 0.79844 0.35071 0.0
H401 H 0.08103 0.85076 0.3392 0.0
H402 H 0.99445 0.65322 0.44543 0.0
H403 H 0.99411 0.6994 0.40849 0.0
H404 H 0.10732 0.67114 0.38702 0.0
H405 H 0.10777 0.62534 0.42483 0.0
H406 H 0.08152 0.72981 0.3689 0.0
H407 H 0.99654 0.72765 0.36716 0.0
H408 H 0.97529 0.76409 0.32574 0.0
H409 H 0.97679 0.82257 0.29989 0.0
loop_
_geom_bond_atom_site_label_1
_geom_bond_atom_site_label_2
_geom_bond_distance
_geom_bond_site_symmetry_2
_ccdc_geom_bond_type
H0 C8 0.930 . S
H1 C11 0.930 . S
H2 C13 0.921 1_565 S
H3 C14 0.970 . S
H4 C14 0.970 1_556 S
H5 C16 0.930 . S
H6 C18 0.930 1_565 S
H7 C20 0.930 . S
C8 H0 0.930 . S
C8 C9 1.382 . S
C8 C10 1.426 . S
C9 C8 1.382 . S
C9 C13 1.389 . S
C10 C8 1.426 . S
C10 C11 1.375 1_554 S
C10 C14 1.532 . S
C11 H1 0.930 . S
C11 C10 1.375 1_556 S
C11 C12 1.416 . S
C12 C11 1.416 . S
C12 C13 1.371 1_556 S
C13 H2 0.921 1_545 S
C13 C9 1.389 . S
C13 C12 1.371 1_554 S
C14 H3 0.970 . S
C14 H4 0.970 1_554 S
C14 C10 1.532 . S
C14 C15 1.500 . S
C15 C14 1.500 . S
C15 C16 1.393 . S
C15 C20 1.393 1_554 S
C16 H5 0.930 . S
C16 C15 1.393 . S
C16 C17 1.407 . S
C17 C16 1.407 . S
C17 C18 1.386 . S
C18 H6 0.930 1_545 S
C18 C17 1.386 . S
C18 C19 1.372 1_554 S
C19 C18 1.372 1_556 S
C19 C20 1.387 . S
C20 H7 0.930 . S
C20 C15 1.393 1_556 S
C20 C19 1.387 . S
H21 C29 0.930 . S
H22 C32 0.930 . S
H23 C34 0.921 1_655 S
H24 C35 0.970 . S
H25 C35 0.970 . S
H26 C37 0.930 . S
H27 C39 0.930 1_655 S
H28 C41 0.930 . S
C29 H21 0.930 . S
C29 C30 1.382 . S
C29 C31 1.426 . S
C30 C29 1.382 . S
C30 C34 1.389 . S
C31 C29 1.426 . S
C31 C32 1.375 . S
C31 C35 1.532 . S
C32 H22 0.930 . S
C32 C31 1.375 . S
C32 C33 1.416 . S
C33 C32 1.416 . S
C33 C34 1.371 . S
C34 H23 0.921 1_455 S
C34 C30 1.389 . S
C34 C33 1.371 . S
C35 H24 0.970 . S
C35 H25 0.970 . S
C35 C31 1.532 . S
C35 C36 1.499 . S
C36 C35 1.499 . S
C36 C37 1.370 . S
C36 C41 1.415 . S
C37 H26 0.930 . S
C37 C36 1.370 . S
C37 C38 1.407 . S
C38 C37 1.407 . S
C38 C39 1.365 . S
C39 H27 0.930 1_455 S
C39 C38 1.365 . S
C39 C40 1.393 . S
C40 C39 1.393 . S
C40 C41 1.387 . S
C41 H28 0.930 . S
C41 C36 1.415 . S
C41 C40 1.387 . S
Li42 N59 1.990 . S
Li42 O102 1.956 . S
Li42 O103 1.970 1_455 S
Li42 O104 1.961 . S
Li43 N67 1.990 . S
Li43 O102 1.970 1_565 S
Li43 O103 1.956 1_465 S
Li43 O105 1.961 . S
Li44 N89 1.990 . S
Li44 O102 1.961 . S
Li44 O104 1.956 . S
Li44 O105 1.970 1_545 S
Li45 N95 1.990 . S
Li45 O103 1.961 . S
Li45 O104 1.970 1_655 S
Li45 O105 1.956 1_645 S
C46 C48 1.348 1_545 S
C46 C49 1.356 . S
C46 O102 1.325 . S
N47 C50 1.325 . S
N47 C51 1.279 . S
C48 C46 1.348 1_565 S
C48 C50 1.352 1_565 S
C48 H106 0.929 . S
C49 C46 1.356 . S
C49 C51 1.358 . S
C49 H107 0.930 . S
C50 N47 1.325 . S
C50 C48 1.352 1_545 S
C50 H108 0.919 1_545 S
C51 N47 1.279 . S
C51 C49 1.358 . S
C51 H109 0.930 . S
C52 C55 1.348 . S
C52 C56 1.356 1_545 S
C52 O103 1.325 . S
C53 N54 1.279 1_565 S
C53 C56 1.358 . S
C53 H110 0.930 . S
N54 C53 1.279 1_545 S
N54 C57 1.314 . S
C55 C52 1.348 . S
C55 C57 1.353 . S
C55 H111 0.929 . S
C56 C52 1.356 1_565 S
C56 C53 1.358 . S
C56 H112 0.930 . S
C57 N54 1.314 . S
C57 C55 1.353 . S
C57 H113 0.930 . S
C58 N59 1.317 . S
C58 C63 1.353 1_455 S
C58 H64 0.927 1_455 S
N59 Li42 1.990 . S
N59 C58 1.317 . S
N59 C61 1.279 . S
C60 C61 1.358 . S
C60 C62 1.356 . S
C60 H114 0.930 . S
C61 N59 1.279 . S
C61 C60 1.358 . S
C61 H65 0.930 . S
C62 C60 1.356 . S
C62 C63 1.348 1_455 S
C63 C58 1.353 1_655 S
C63 C62 1.348 1_655 S
C63 H115 0.929 . S
H64 C58 0.927 1_655 S
H65 C61 0.930 . S
C66 N67 1.314 . S
C66 C68 1.353 . S
C66 H72 0.930 . S
N67 Li43 1.990 . S
N67 C66 1.314 . S
N67 C70 1.279 1_455 S
C68 C66 1.353 . S
C68 C71 1.348 . S
C68 H116 0.929 . S
C69 C70 1.358 . S
C69 C71 1.356 1_655 S
C69 H117 0.930 . S
C70 N67 1.279 1_655 S
C70 C69 1.358 . S
C70 H73 0.930 . S
C71 C68 1.348 . S
C71 C69 1.356 1_455 S
H72 C66 0.930 . S
H73 C70 0.930 . S
C74 C76 1.348 1_455 S
C74 C77 1.356 . S
C74 O104 1.325 . S
N75 C78 1.325 . S
N75 C79 1.279 . S
C76 C74 1.348 1_655 S
C76 C78 1.352 1_655 S
C76 H118 0.929 . S
C77 C74 1.356 . S
C77 C79 1.358 . S
C77 H119 0.930 . S
C78 N75 1.325 . S
C78 C76 1.352 1_455 S
C78 H120 0.919 1_455 S
C79 N75 1.279 . S
C79 C77 1.358 . S
C79 H121 0.930 . S
C80 C81 1.348 . S
C80 C82 1.356 1_455 S
C80 O105 1.325 . S
C81 C80 1.348 . S
C81 C83 1.353 . S
C81 H122 0.929 . S
C82 C80 1.356 1_655 S
C82 C84 1.358 . S
C82 H123 0.930 . S
C83 C81 1.353 . S
C83 N85 1.314 . S
C83 H124 0.930 . S
C84 C82 1.358 . S
C84 N85 1.279 1_655 S
C84 H125 0.930 . S
N85 C83 1.314 . S
N85 C84 1.279 1_455 S
C86 C88 1.353 1_545 S
C86 N89 1.317 . S
C86 H92 0.927 1_545 S
C87 N89 1.279 . S
C87 C90 1.358 . S
C87 H93 0.930 . S
C88 C86 1.353 1_565 S
C88 C91 1.348 1_565 S
C88 H126 0.929 . S
N89 Li44 1.990 . S
N89 C86 1.317 . S
N89 C87 1.279 . S
C90 C87 1.358 . S
C90 C91 1.356 . S
C90 H127 0.930 . S
C91 C88 1.348 1_545 S
C91 C90 1.356 . S
H92 C86 0.927 1_565 S
H93 C87 0.930 . S
C94 N95 1.314 . S
C94 C96 1.353 . S
C94 H100 0.930 . S
N95 Li45 1.990 . S
N95 C94 1.314 . S
N95 C98 1.279 1_545 S
C96 C94 1.353 . S
C96 C99 1.348 . S
C96 H128 0.929 . S
C97 C98 1.358 . S
C97 C99 1.356 1_565 S
C97 H129 0.930 . S
C98 N95 1.279 1_565 S
C98 C97 1.358 . S
C98 H101 0.930 . S
C99 C96 1.348 . S
C99 C97 1.356 1_545 S
H100 C94 0.930 . S
H101 C98 0.930 . S
O102 Li42 1.956 . S
O102 Li43 1.970 1_545 S
O102 Li44 1.961 . S
O102 C46 1.325 . S
O103 Li42 1.970 1_655 S
O103 Li43 1.956 1_645 S
O103 Li45 1.961 . S
O103 C52 1.325 . S
O104 Li42 1.961 . S
O104 Li44 1.956 . S
O104 Li45 1.970 1_455 S
O104 C74 1.325 . S
O105 Li43 1.961 . S
O105 Li44 1.970 1_565 S
O105 Li45 1.956 1_465 S
O105 C80 1.325 . S
H106 C48 0.929 . S
H107 C49 0.930 . S
H108 C50 0.919 1_565 S
H109 C51 0.930 . S
H110 C53 0.930 . S
H111 C55 0.929 . S
H112 C56 0.930 . S
H113 C57 0.930 . S
H114 C60 0.930 . S
H115 C63 0.929 . S
H116 C68 0.929 . S
H117 C69 0.930 . S
H118 C76 0.929 . S
H119 C77 0.930 . S
H120 C78 0.919 1_655 S
H121 C79 0.930 . S
H122 C81 0.929 . S
H123 C82 0.930 . S
H124 C83 0.930 . S
H125 C84 0.930 . S
H126 C88 0.929 . S
H127 C90 0.930 . S
H128 C96 0.929 . S
H129 C97 0.930 . S
Li130 N147 1.990 . S
Li130 O190 1.956 1_655 S
Li130 O191 1.970 1_645 S
Li130 O192 1.961 . S
Li131 N155 1.990 . S
Li131 O190 1.970 . S
Li131 O191 1.956 1_545 S
Li131 O193 1.961 . S
Li132 N177 1.990 . S
Li132 O190 1.961 . S
Li132 O192 1.956 1_455 S
Li132 O193 1.970 . S
Li133 N183 1.990 . S
Li133 O191 1.961 . S
Li133 O192 1.970 1_465 S
Li133 O193 1.956 1_565 S
C134 C136 1.348 . S
C134 C137 1.356 1_455 S
C134 O190 1.325 . S
N135 C138 1.314 . S
N135 C139 1.279 1_455 S
C136 C134 1.348 . S
C136 C138 1.353 . S
C136 H194 0.929 . S
C137 C134 1.356 1_655 S
C137 C139 1.358 . S
C137 H195 0.930 . S
C138 N135 1.314 . S
C138 C136 1.353 . S
C138 H196 0.930 . S
C139 N135 1.279 1_655 S
C139 C137 1.358 . S
C139 H197 0.930 . S
C140 C143 1.348 1_455 S
C140 C144 1.356 . S
C140 O191 1.325 . S
C141 N142 1.279 . S
C141 C144 1.358 . S
C141 H198 0.930 . S
N142 C141 1.279 . S
N142 C145 1.314 1_455 S
C143 C140 1.348 1_655 S
C143 C145 1.353 . S
C143 H199 0.929 . S
C144 C140 1.356 . S
C144 C141 1.358 . S
C144 H200 0.930 . S
C145 N142 1.314 1_655 S
C145 C143 1.353 . S
C145 H201 0.930 . S
C146 N147 1.298 1_565 S
C146 C151 1.355 . S
C146 H152 0.946 . S
N147 Li130 1.990 . S
N147 C146 1.298 1_545 S
N147 C149 1.279 . S
C148 C149 1.358 . S
C148 C150 1.356 . S
C148 H202 0.930 . S
C149 N147 1.279 . S
C149 C148 1.358 . S
C149 H153 0.930 . S
C150 C148 1.356 . S
C150 C151 1.348 1_545 S
C151 C146 1.355 . S
C151 C150 1.348 1_565 S
C151 H203 0.929 . S
H152 C146 0.946 . S
H153 C149 0.930 . S
C154 N155 1.314 . S
C154 C156 1.353 . S
C154 H160 0.930 . S
N155 Li131 1.990 . S
N155 C154 1.314 . S
N155 C158 1.279 1_545 S
C156 C154 1.353 . S
C156 C159 1.348 . S
C156 H204 0.929 . S
C157 C158 1.358 . S
C157 C159 1.356 1_565 S
C157 H205 0.930 . S
C158 N155 1.279 1_565 S
C158 C157 1.358 . S
C158 H161 0.930 . S
C159 C156 1.348 . S
C159 C157 1.356 1_545 S
H160 C154 0.930 . S
H161 C158 0.930 . S
C162 C164 1.348 1_545 S
C162 C165 1.356 . S
C162 O192 1.325 . S
N163 C166 1.314 1_545 S
N163 C167 1.279 . S
C164 C162 1.348 1_565 S
C164 C166 1.353 . S
C164 H206 0.929 . S
C165 C162 1.356 . S
C165 C167 1.358 . S
C165 H207 0.930 . S
C166 N163 1.314 1_565 S
C166 C164 1.353 . S
C166 H208 0.930 . S
C167 N163 1.279 . S
C167 C165 1.358 . S
C167 H209 0.930 . S
C168 C169 1.348 . S
C168 C170 1.356 1_545 S
C168 O193 1.325 . S
C169 C168 1.348 . S
C169 C171 1.353 . S
C169 H210 0.929 . S
C170 C168 1.356 1_565 S
C170 C172 1.358 . S
C170 H211 0.930 . S
C171 C169 1.353 . S
C171 N173 1.314 . S
C171 H212 0.930 . S
C172 C170 1.358 . S
C172 N173 1.279 1_565 S
C172 H213 0.930 . S
N173 C171 1.314 . S
N173 C172 1.279 1_545 S
C174 C176 1.353 . S
C174 N177 1.314 . S
C174 H180 0.930 . S
C175 N177 1.279 1_655 S
C175 C178 1.358 . S
C175 H181 0.930 . S
C176 C174 1.353 . S
C176 C179 1.348 . S
C176 H214 0.929 . S
N177 Li132 1.990 . S
N177 C174 1.314 . S
N177 C175 1.279 1_455 S
C178 C175 1.358 . S
C178 C179 1.356 1_655 S
C178 H215 0.930 . S
C179 C176 1.348 . S
C179 C178 1.356 1_455 S
H180 C174 0.930 . S
H181 C175 0.930 . S
C182 N183 1.298 1_655 S
C182 C184 1.355 . S
C182 H188 0.946 . S
N183 Li133 1.990 . S
N183 C182 1.298 1_455 S
N183 C186 1.279 . S
C184 C182 1.355 . S
C184 C187 1.348 1_655 S
C184 H216 0.929 . S
C185 C186 1.358 . S
C185 C187 1.356 . S
C185 H217 0.930 . S
C186 N183 1.279 . S
C186 C185 1.358 . S
C186 H189 0.930 . S
C187 C184 1.348 1_455 S
C187 C185 1.356 . S
H188 C182 0.946 . S
H189 C186 0.930 . S
O190 Li130 1.956 1_455 S
O190 Li131 1.970 . S
O190 Li132 1.961 . S
O190 C134 1.325 . S
O191 Li130 1.970 1_465 S
O191 Li131 1.956 1_565 S
O191 Li133 1.961 . S
O191 C140 1.325 . S
O192 Li130 1.961 . S
O192 Li132 1.956 1_655 S
O192 Li133 1.970 1_645 S
O192 C162 1.325 . S
O193 Li131 1.961 . S
O193 Li132 1.970 . S
O193 Li133 1.956 1_545 S
O193 C168 1.325 . S
H194 C136 0.929 . S
H195 C137 0.930 . S
H196 C138 0.930 . S
H197 C139 0.930 . S
H198 C141 0.930 . S
H199 C143 0.929 . S
H200 C144 0.930 . S
H201 C145 0.930 . S
H202 C148 0.930 . S
H203 C151 0.929 . S
H204 C156 0.929 . S
H205 C157 0.930 . S
H206 C164 0.929 . S
H207 C165 0.930 . S
H208 C166 0.930 . S
H209 C167 0.930 . S
H210 C169 0.929 . S
H211 C170 0.930 . S
H212 C171 0.930 . S
H213 C172 0.930 . S
H214 C176 0.929 . S
H215 C178 0.930 . S
H216 C184 0.929 . S
H217 C185 0.930 . S
C218 C219 1.386 1_565 S
C218 C220 1.383 . S
C218 H234 0.951 . S
C219 C218 1.386 1_545 S
C219 C223 1.383 . S
C220 C218 1.383 . S
C220 C221 1.402 1_565 S
C220 H235 0.951 . S
C221 C220 1.402 1_545 S
C221 C222 1.375 . S
C221 C224 1.481 . S
C222 C221 1.375 . S
C222 C223 1.367 . S
C222 H236 0.951 . S
C223 C219 1.383 . S
C223 C222 1.367 . S
C223 H237 0.950 . S
C224 C221 1.481 . S
C224 C225 1.297 . S
C224 H238 0.950 . S
C225 C224 1.297 . S
C225 C226 1.479 . S
C225 H239 0.950 1_545 S
C226 C225 1.479 . S
C226 C227 1.375 1_545 S
C226 C232 1.404 . S
C227 C226 1.375 1_565 S
C227 C228 1.369 . S
C227 H240 0.950 . S
C228 C227 1.369 . S
C228 C229 1.392 1_565 S
C228 H241 0.951 . S
C229 C228 1.392 1_545 S
C229 C231 1.384 . S
H230 C232 0.949 . S
C231 C229 1.384 . S
C231 C232 1.385 . S
C231 H233 0.950 . S
C232 C226 1.404 . S
C232 H230 0.949 . S
C232 C231 1.385 . S
H233 C231 0.950 . S
H234 C218 0.951 . S
H235 C220 0.951 . S
H236 C222 0.951 . S
H237 C223 0.950 . S
H238 C224 0.950 . S
H239 C225 0.950 1_565 S
H240 C227 0.950 . S
H241 C228 0.951 . S
C242 C243 1.386 . S
C242 C244 1.383 . S
C242 H258 0.951 . S
C243 C242 1.386 . S
C243 C247 1.383 . S
C244 C242 1.383 . S
C244 C245 1.402 . S
C244 H259 0.951 . S
C245 C244 1.402 . S
C245 C246 1.371 1_455 S
C245 C248 1.481 . S
C246 C245 1.371 1_655 S
C246 C247 1.367 1_655 S
C246 H260 0.955 . S
C247 C243 1.383 . S
C247 C246 1.367 1_455 S
C247 H261 0.949 1_455 S
C248 C245 1.481 . S
C248 C249 1.297 . S
C248 H262 0.950 . S
C249 C248 1.297 . S
C249 C250 1.479 . S
C249 H263 0.950 . S
C250 C249 1.479 . S
C250 C251 1.375 . S
C250 C256 1.404 . S
C251 C250 1.375 . S
C251 C252 1.369 . S
C251 H264 0.950 . S
C252 C251 1.369 . S
C252 C253 1.392 . S
C252 H265 0.951 . S
C253 C252 1.392 . S
C253 C255 1.384 . S
H254 C256 0.949 . S
C255 C253 1.384 . S
C255 C256 1.385 . S
C255 H257 0.950 1_455 S
C256 C250 1.404 . S
C256 H254 0.949 . S
C256 C255 1.385 . S
H257 C255 0.950 1_655 S
H258 C242 0.951 . S
H259 C244 0.951 . S
H260 C246 0.955 . S
H261 C247 0.949 1_655 S
H262 C248 0.950 . S
H263 C249 0.950 . S
H264 C251 0.950 . S
H265 C252 0.951 . S
C266 C267 1.386 . S
C266 C268 1.383 . S
C266 H282 0.951 1_545 S
C267 C266 1.386 . S
C267 C271 1.383 . S
C268 C266 1.383 . S
C268 C269 1.402 . S
C268 H283 0.951 1_545 S
C269 C268 1.402 . S
C269 C270 1.375 . S
C269 C272 1.481 . S
C270 C269 1.375 . S
C270 C271 1.367 . S
C270 H284 0.951 . S
C271 C267 1.383 . S
C271 C270 1.367 . S
C271 H285 0.950 . S
C272 C269 1.481 . S
C272 C273 1.297 . S
C272 H286 0.950 . S
C273 C272 1.297 . S
C273 C274 1.480 . S
C273 H287 0.950 1_545 S
C274 C273 1.480 . S
C274 C275 1.375 1_545 S
C274 C280 1.404 . S
C275 C274 1.375 1_565 S
C275 C276 1.369 . S
C275 H288 0.950 . S
C276 C275 1.369 . S
C276 C277 1.392 1_565 S
C276 H289 0.951 . S
C277 C276 1.392 1_545 S
C277 C279 1.384 . S
H278 C280 0.949 . S
C279 C277 1.384 . S
C279 C280 1.385 . S
C279 H281 0.950 . S
C280 C274 1.404 . S
C280 H278 0.949 . S
C280 C279 1.385 . S
H281 C279 0.950 . S
H282 C266 0.951 1_565 S
H283 C268 0.951 1_565 S
H284 C270 0.951 . S
H285 C271 0.950 . S
H286 C272 0.950 . S
H287 C273 0.950 1_565 S
H288 C275 0.950 . S
H289 C276 0.951 . S
C290 C291 1.386 1_655 S
C290 C292 1.383 . S
C290 H306 0.951 . S
C291 C290 1.386 1_455 S
C291 C295 1.383 . S
C292 C290 1.383 . S
C292 C293 1.402 1_655 S
C292 H307 0.951 . S
C293 C292 1.402 1_455 S
C293 C294 1.375 . S
C293 C296 1.481 . S
C294 C293 1.375 . S
C294 C295 1.367 . S
C294 H308 0.951 . S
C295 C291 1.383 . S
C295 C294 1.367 . S
C295 H309 0.950 . S
C296 C293 1.481 . S
C296 C297 1.297 1_455 S
C296 H310 0.950 . S
C297 C296 1.297 1_655 S
C297 C298 1.479 . S
C297 H311 0.950 . S
C298 C297 1.479 . S
C298 C299 1.375 . S
C298 C304 1.404 1_655 S
C299 C298 1.375 . S
C299 C300 1.369 . S
C299 H312 0.950 . S
C300 C299 1.369 . S
C300 C301 1.392 1_655 S
C300 H313 0.951 . S
C301 C300 1.392 1_455 S
C301 C303 1.384 . S
H302 C304 0.949 . S
C303 C301 1.384 . S
C303 C304 1.385 . S
C303 H305 0.950 . S
C304 C298 1.404 1_455 S
C304 H302 0.949 . S
C304 C303 1.385 . S
H305 C303 0.950 . S
H306 C290 0.951 . S
H307 C292 0.951 . S
H308 C294 0.951 . S
H309 C295 0.950 . S
H310 C296 0.950 . S
H311 C297 0.950 . S
H312 C299 0.950 . S
H313 C300 0.951 . S
C314 C315 1.386 . S
C314 C316 1.383 . S
C314 H330 0.951 . S
C315 C314 1.386 . S
C315 C319 1.383 1_545 S
C316 C314 1.383 . S
C316 C317 1.402 . S
C316 H331 0.951 . S
C317 C316 1.402 . S
C317 C318 1.375 1_545 S
C317 C320 1.478 1_545 S
C318 C317 1.375 1_565 S
C318 C319 1.367 . S
C318 H332 0.951 . S
C319 C315 1.383 1_565 S
C319 C318 1.367 . S
C319 H333 0.950 . S
C320 C317 1.478 1_565 S
C320 C321 1.284 1_565 S
C320 H334 0.967 . S
C321 C320 1.284 1_545 S
C321 C322 1.479 . S
C321 H335 0.950 . S
C322 C321 1.479 . S
C322 C323 1.375 . S
C322 C328 1.404 1_545 S
C323 C322 1.375 . S
C323 C324 1.369 . S
C323 H336 0.950 . S
C324 C323 1.369 . S
C324 C325 1.392 . S
C324 H337 0.951 . S
C325 C324 1.392 . S
C325 C327 1.384 1_545 S
H326 C328 0.949 . S
C327 C325 1.384 1_565 S
C327 C328 1.385 . S
C327 H329 0.950 . S
C328 C322 1.404 1_565 S
C328 H326 0.949 . S
C328 C327 1.385 . S
H329 C327 0.950 . S
H330 C314 0.951 . S
H331 C316 0.951 . S
H332 C318 0.951 . S
H333 C319 0.950 . S
H334 C320 0.967 . S
H335 C321 0.950 . S
H336 C323 0.950 . S
H337 C324 0.951 . S
C338 C339 1.386 . S
C338 C340 1.383 . S
C338 H354 0.951 . S
C339 C338 1.386 . S
C339 C343 1.383 1_455 S
C340 C338 1.383 . S
C340 C341 1.402 . S
C340 H355 0.951 . S
C341 C340 1.402 . S
C341 C342 1.375 1_455 S
C341 C344 1.481 1_455 S
C342 C341 1.375 1_655 S
C342 C343 1.367 . S
C342 H356 0.951 . S
C343 C339 1.383 1_655 S
C343 C342 1.367 . S
C343 H357 0.950 . S
C344 C341 1.481 1_655 S
C344 C345 1.297 1_655 S
C344 H358 0.950 . S
C345 C344 1.297 1_455 S
C345 C346 1.479 . S
C345 H359 0.950 . S
C346 C345 1.479 . S
C346 C347 1.375 . S
C346 C352 1.404 1_455 S
C347 C346 1.375 . S
C347 C348 1.369 . S
C347 H360 0.950 . S
C348 C347 1.369 . S
C348 C349 1.392 . S
C348 H361 0.951 . S
C349 C348 1.392 . S
C349 C351 1.384 1_455 S
H350 C352 0.949 . S
C351 C349 1.384 1_655 S
C351 C352 1.385 . S
C351 H353 0.950 . S
C352 C346 1.404 1_655 S
C352 H350 0.949 . S
C352 C351 1.385 . S
H353 C351 0.950 . S
H354 C338 0.951 . S
H355 C340 0.951 . S
H356 C342 0.951 . S
H357 C343 0.950 . S
H358 C344 0.950 . S
H359 C345 0.950 . S
H360 C347 0.950 . S
H361 C348 0.951 . S
C362 C363 1.386 . S
C362 C364 1.383 . S
C362 H378 0.951 . S
C363 C362 1.386 . S
C363 C367 1.383 1_545 S
C364 C362 1.383 . S
C364 C365 1.402 . S
C364 H379 0.951 . S
C365 C364 1.402 . S
C365 C366 1.375 1_545 S
C365 C368 1.481 1_545 S
C366 C365 1.375 1_565 S
C366 C367 1.367 . S
C366 H380 0.951 . S
C367 C363 1.383 1_565 S
C367 C366 1.367 . S
C367 H381 0.950 . S
C368 C365 1.481 1_565 S
C368 C369 1.297 1_565 S
C368 H382 0.950 . S
C369 C368 1.297 1_545 S
C369 C370 1.479 . S
C369 H383 0.950 . S
C370 C369 1.479 . S
C370 C371 1.375 . S
C370 C376 1.404 1_545 S
C371 C370 1.375 . S
C371 C372 1.369 . S
C371 H384 0.950 . S
C372 C371 1.369 . S
C372 C373 1.392 . S
C372 H385 0.951 . S
C373 C372 1.392 . S
C373 C375 1.384 1_545 S
H374 C376 0.949 . S
C375 C373 1.384 1_565 S
C375 C376 1.385 . S
C375 H377 0.950 . S
C376 C370 1.404 1_565 S
C376 H374 0.949 . S
C376 C375 1.385 . S
H377 C375 0.950 . S
H378 C362 0.951 . S
H379 C364 0.951 . S
H380 C366 0.951 . S
H381 C367 0.950 . S
H382 C368 0.950 . S
H383 C369 0.950 . S
H384 C371 0.950 . S
H385 C372 0.951 . S
C386 C387 1.386 1_655 S
C386 C388 1.383 . S
C386 H402 0.951 . S
C387 C386 1.386 1_455 S
C387 C391 1.383 . S
C388 C386 1.383 . S
C388 C389 1.402 1_655 S
C388 H403 0.951 . S
C389 C388 1.402 1_455 S
C389 C390 1.375 . S
C389 C392 1.481 . S
C390 C389 1.375 . S
C390 C391 1.367 . S
C390 H404 0.951 . S
C391 C387 1.383 . S
C391 C390 1.367 . S
C391 H405 0.950 . S
C392 C389 1.481 . S
C392 C393 1.297 . S
C392 H406 0.950 . S
C393 C392 1.297 . S
C393 C394 1.479 . S
C393 H407 0.950 1_455 S
C394 C393 1.479 . S
C394 C395 1.375 1_455 S
C394 C400 1.404 . S
C395 C394 1.375 1_655 S
C395 C396 1.369 . S
C395 H408 0.950 . S
C396 C395 1.369 . S
C396 C397 1.392 1_655 S
C396 H409 0.951 . S
C397 C396 1.392 1_455 S
C397 C399 1.384 . S
H398 C400 0.949 . S
C399 C397 1.384 . S
C399 C400 1.385 . S
C399 H401 0.950 . S
C400 C394 1.404 . S
C400 H398 0.949 . S
C400 C399 1.385 . S
H401 C399 0.950 . S
H402 C386 0.951 . S
H403 C388 0.951 . S
H404 C390 0.951 . S
H405 C391 0.950 . S
H406 C392 0.950 . S
H407 C393 0.950 1_655 S
H408 C395 0.950 . S
H409 C396 0.951 . S
C229 C91 1.545 . S
C219 C17 1.456 . S
C253 C179 1.541 . S
C243 C40 1.509 . S
C277 C99 1.556 . S
C267 C9 1.457 . S
C301 C187 1.545 . S
C291 C33 1.482 . S
C325 C159 1.534 . S
C315 C19 1.507 . S
C349 C62 1.560 . S
C339 C38 1.494 . S
C373 C150 1.553 . S
C363 C12 1.484 . S
C387 C30 1.451 . S
C397 C71 1.559 . S
