# Generated by pormake.
# Topology zzz, (3,6)-cn, num edge types: 1
# Building blocks:
#     Node 0, Type 0, BuildingBlock: PAMTOO_clean_linker_0, # of connection points: 3
#     Node 1, Type 0, BuildingBlock: PAMTOO_clean_linker_0, # of connection points: 3
#     Node 2, Type 0, BuildingBlock: PAMTOO_clean_linker_0, # of connection points: 3
#     Node 3, Type 0, BuildingBlock: PAMTOO_clean_linker_0, # of connection points: 3
#     Node 4, Type 0, BuildingBlock: PAMTOO_clean_linker_0, # of connection points: 3
#     Node 5, Type 0, BuildingBlock: PAMTOO_clean_linker_0, # of connection points: 3
#     Node 6, Type 0, BuildingBlock: PAMTOO_clean_linker_0, # of connection points: 3
#     Node 7, Type 0, BuildingBlock: PAMTOO_clean_linker_0, # of connection points: 3
#     Node 8, Type 1, BuildingBlock: GEDQOX_clean_sbu_0, # of connection points: 6
#     Node 9, Type 1, BuildingBlock: GEDQOX_clean_sbu_0, # of connection points: 6
#     Node 10, Type 1, BuildingBlock: GEDQOX_clean_sbu_0, # of connection points: 6
#     Node 11, Type 1, BuildingBlock: GEDQOX_clean_sbu_0, # of connection points: 6
#     Edge 12, Type (0, 1), BuildingBlock: KIFKEQ_clean_linker_1, # of connection points: 2
#     Edge 13, Type (0, 1), BuildingBlock: KIFKEQ_clean_linker_1, # of connection points: 2
#     Edge 14, Type (0, 1), BuildingBlock: KIFKEQ_clean_linker_1, # of connection points: 2
#     Edge 15, Type (0, 1), BuildingBlock: KIFKEQ_clean_linker_1, # of connection points: 2
#     Edge 16, Type (0, 1), BuildingBlock: KIFKEQ_clean_linker_1, # of connection points: 2
#     Edge 17, Type (0, 1), BuildingBlock: KIFKEQ_clean_linker_1, # of connection points: 2
#     Edge 18, Type (0, 1), BuildingBlock: KIFKEQ_clean_linker_1, # of connection points: 2
#     Edge 19, Type (0, 1), BuildingBlock: KIFKEQ_clean_linker_1, # of connection points: 2
#     Edge 20, Type (0, 1), BuildingBlock: KIFKEQ_clean_linker_1, # of connection points: 2
#     Edge 21, Type (0, 1), BuildingBlock: KIFKEQ_clean_linker_1, # of connection points: 2
#     Edge 22, Type (0, 1), BuildingBlock: KIFKEQ_clean_linker_1, # of connection points: 2
#     Edge 23, Type (0, 1), BuildingBlock: KIFKEQ_clean_linker_1, # of connection points: 2
#     Edge 24, Type (0, 1), BuildingBlock: KIFKEQ_clean_linker_1, # of connection points: 2
#     Edge 25, Type (0, 1), BuildingBlock: KIFKEQ_clean_linker_1, # of connection points: 2
#     Edge 26, Type (0, 1), BuildingBlock: KIFKEQ_clean_linker_1, # of connection points: 2
#     Edge 27, Type (0, 1), BuildingBlock: KIFKEQ_clean_linker_1, # of connection points: 2
#     Edge 28, Type (0, 1), BuildingBlock: KIFKEQ_clean_linker_1, # of connection points: 2
#     Edge 29, Type (0, 1), BuildingBlock: KIFKEQ_clean_linker_1, # of connection points: 2
#     Edge 30, Type (0, 1), BuildingBlock: KIFKEQ_clean_linker_1, # of connection points: 2
#     Edge 31, Type (0, 1), BuildingBlock: KIFKEQ_clean_linker_1, # of connection points: 2
#     Edge 32, Type (0, 1), BuildingBlock: KIFKEQ_clean_linker_1, # of connection points: 2
#     Edge 33, Type (0, 1), BuildingBlock: KIFKEQ_clean_linker_1, # of connection points: 2
#     Edge 34, Type (0, 1), BuildingBlock: KIFKEQ_clean_linker_1, # of connection points: 2
#     Edge 35, Type (0, 1), BuildingBlock: KIFKEQ_clean_linker_1, # of connection points: 2
# Relax obj value: 0.128
# Max RMSD: 0.181
# Mean RMSD: 0.085
data_MOF--net-zzz--node1-GEDQOX_clean_sbu_0--node2-PAMTOO_clean_linker_0--edge1-KIFKEQ_clean_linker_1
_symmetry_space_group_name_H-M    P1
_symmetry_Int_Tables_number       1
_symmetry_cell_setting            triclinic
loop_
_symmetry_equiv_pos_as_xyz
'x, y, z'
_cell_length_a     55.08421
_cell_length_b     53.80363
_cell_length_c     17.246939
_cell_angle_alpha  80.048328
_cell_angle_beta   88.941165
_cell_angle_gamma 99.503982
loop_
_atom_site_label
_atom_site_type_symbol
_atom_site_fract_x
_atom_site_fract_y
_atom_site_fract_z
_atom_type_partial_charge
H0 H 0.84699 0.53639 0.23149 0.0
H1 H 0.79033 0.53164 0.06394 0.0
H2 H 0.77959 0.56382 0.27162 0.0
H3 H 0.73788 0.52474 0.2326 0.0
C4 C 0.73926 0.5304 0.16723 0.0
O5 O 0.75885 0.55019 0.14513 0.0
H6 H 0.74249 0.51337 0.14253 0.0
C7 C 0.8287 0.53927 0.2137 0.0
C8 C 0.81441 0.55088 0.25991 0.0
C9 C 0.82034 0.53248 0.14292 0.0
C10 C 0.79701 0.53687 0.11861 0.0
C11 C 0.78201 0.54758 0.16605 0.0
C12 C 0.79096 0.5551 0.23592 0.0
H13 H 0.04745 0.8356 0.30903 0.0
H14 H 0.05414 0.78275 0.15263 0.0
H15 H 0.02159 0.75509 0.38788 0.0
H16 H 0.01241 0.7439 0.1633 0.0
C17 C 0.01637 0.73014 0.21563 0.0
O18 O 0.03579 0.74144 0.25467 0.0
H19 H 0.99953 0.72527 0.25555 0.0
C20 C 0.04518 0.81605 0.29838 0.0
C21 C 0.03398 0.79612 0.35743 0.0
C22 C 0.05229 0.81155 0.22461 0.0
C23 C 0.0487 0.7864 0.20975 0.0
C24 C 0.03791 0.76583 0.26872 0.0
C25 C 0.03017 0.77078 0.34258 0.0
H26 H 0.7149 0.02156 0.20466 0.0
H27 H 0.77585 0.02575 0.04105 0.0
H28 H 0.78145 0.99615 0.28755 0.0
H29 H 0.8018 0.98363 0.06936 0.0
C30 C 0.81153 0.98709 0.1235 0.0
O31 O 0.80509 1.00829 0.14819 0.0
H32 H 0.8059 0.96987 0.1701 0.0
C33 C 0.73358 0.01864 0.19318 0.0
C34 C 0.74689 1.00826 0.25541 0.0
C35 C 0.74373 0.02472 0.11599 0.0
C36 C 0.76776 0.02086 0.10061 0.0
C37 C 0.78143 1.01063 0.16256 0.0
C38 C 0.77086 1.00398 0.23988 0.0
H39 H 0.49788 0.73005 0.46318 0.0
H40 H 0.51243 0.80639 0.32786 0.0
H41 H 0.54439 0.78997 0.55271 0.0
H42 H 0.53904 0.85241 0.49982 0.0
C43 C 0.52945 0.84536 0.44969 0.0
O44 O 0.54047 0.82587 0.42983 0.0
H45 H 0.50982 0.83829 0.47025 0.0
C46 C 0.50583 0.75013 0.4581 0.0
C47 C 0.52084 0.75788 0.51734 0.0
C48 C 0.50271 0.76731 0.38941 0.0
C49 C 0.51434 0.79291 0.38096 0.0
C50 C 0.52896 0.80119 0.44026 0.0
C51 C 0.53251 0.78363 0.50809 0.0
H52 H 0.21743 0.52838 0.62829 0.0
H53 H 0.2815 0.54756 0.7584 0.0
H54 H 0.28575 0.50574 0.5681 0.0
H55 H 0.31332 0.48803 0.70322 0.0
C56 C 0.31777 0.50588 0.72822 0.0
O57 O 0.31057 0.52595 0.67784 0.0
H58 H 0.30739 0.50267 0.78611 0.0
C59 C 0.23678 0.52793 0.63801 0.0
C60 C 0.25003 0.51538 0.5915 0.0
C61 C 0.24791 0.53966 0.69763 0.0
C62 C 0.27282 0.53891 0.71139 0.0
C63 C 0.28654 0.52676 0.66434 0.0
C64 C 0.27518 0.51526 0.60377 0.0
H65 H 0.02398 0.23578 0.54586 0.0
H66 H 0.01525 0.28977 0.69665 0.0
H67 H 0.0487 0.31624 0.4621 0.0
H68 H 0.0689 0.35016 0.58404 0.0
C69 C 0.05327 0.34317 0.62829 0.0
O70 O 0.0336 0.33066 0.59291 0.0
H71 H 0.0594 0.32948 0.677 0.0
C72 C 0.02596 0.25546 0.55512 0.0
C73 C 0.03719 0.27516 0.49549 0.0
C74 C 0.0181 0.26043 0.62747 0.0
C75 C 0.02122 0.28578 0.64055 0.0
C76 C 0.03201 0.3061 0.58083 0.0
C77 C 0.04023 0.30072 0.5081 0.0
H78 H 0.34935 0.04979 0.62187 0.0
H79 H 0.28938 0.0489 0.78584 0.0
H80 H 0.28336 0.07628 0.53813 0.0
H81 H 0.25873 0.10398 0.64177 0.0
C82 C 0.25431 0.08861 0.69459 0.0
O83 O 0.26017 0.06606 0.67795 0.0
H84 H 0.26545 0.09461 0.74351 0.0
C85 C 0.33086 0.05325 0.63324 0.0
C86 C 0.31762 0.06355 0.57065 0.0
C87 C 0.32096 0.04814 0.71071 0.0
C88 C 0.29726 0.05297 0.72605 0.0
C89 C 0.28359 0.06291 0.66365 0.0
C90 C 0.29391 0.06852 0.58605 0.0
H91 H 0.57048 0.34566 0.37608 0.0
H92 H 0.5604 0.26959 0.51219 0.0
H93 H 0.52513 0.28365 0.29186 0.0
H94 H 0.49652 0.23323 0.4152 0.0
C95 C 0.51168 0.23678 0.45565 0.0
O96 O 0.53303 0.24825 0.4114 0.0
H97 H 0.50596 0.24956 0.49444 0.0
C98 C 0.56295 0.32542 0.38227 0.0
C99 C 0.54762 0.31682 0.32495 0.0
C100 C 0.56744 0.30867 0.45001 0.0
C101 C 0.55708 0.2827 0.45983 0.0
C102 C 0.54208 0.27359 0.40244 0.0
C103 C 0.53698 0.29071 0.33556 0.0
Nd104 Nd 0.0229 0.02695 0.84775 0.0
Nd105 Nd 0.04702 0.04757 1.00057 0.0
C106 C 0.99927 0.99762 0.75437 0.0
C107 C 1.00115 0.97331 0.72709 0.0
C108 C 0.98066 0.96003 0.69578 0.0
C109 C 0.98216 0.93729 0.668 0.0
C110 C 1.00425 0.92722 0.67088 0.0
C111 C 0.02469 0.94045 0.70362 0.0
C112 C 0.02316 0.96325 0.73129 0.0
C113 C 0.07076 0.05235 0.82841 0.0
C114 C 0.05056 0.98905 0.98068 0.0
C115 C 0.07544 0.07681 0.08315 0.0
C116 C 0.07229 0.09941 0.11827 0.0
C117 C 0.0917 0.11202 0.15604 0.0
C118 C 0.08898 0.13394 0.18709 0.0
C119 C 0.06678 0.14385 0.18071 0.0
C120 C 0.04739 0.13103 0.14248 0.0
C121 C 0.0501 0.10905 0.11196 0.0
C122 C 0.99671 0.03117 0.02615 0.0
C123 C 0.01669 0.08346 0.87325 0.0
O124 O 0.99273 0.99591 0.82875 0.0
O125 O 0.01673 0.0172 0.729 0.0
O126 O 0.05505 0.05364 0.77301 0.0
O127 O 0.0613 0.037 0.88922 0.0
O128 O 0.03732 0.99231 0.91743 0.0
O129 O 0.05776 1.00748 0.02173 0.0
O130 O 0.07656 0.08052 1.00585 0.0
O131 O 0.06177 0.0549 0.11504 0.0
O132 O 0.01082 0.03924 0.07938 0.0
O133 O 0.00991 0.03163 0.96565 0.0
O134 O 0.03438 0.08206 0.92403 0.0
O135 O 1.00664 0.06377 0.84108 0.0
H136 H 0.96345 0.96733 0.69239 0.0
H137 H 0.96591 0.92754 0.64454 0.0
H138 H 0.04209 0.93354 0.70621 0.0
H139 H 0.03924 0.97317 0.7552 0.0
H140 H 0.109 0.10493 0.16152 0.0
H141 H 0.10421 0.14291 0.21701 0.0
H142 H 0.03015 0.13814 0.1351 0.0
H143 H 0.03489 0.09963 0.08292 0.0
Nd144 Nd 0.53321 0.01731 0.86123 0.0
Nd145 Nd 0.53135 0.05497 0.96836 0.0
C146 C 0.54567 0.98147 0.78854 0.0
C147 C 0.56886 0.97772 0.7512 0.0
C148 C 0.59124 0.981 0.78916 0.0
C149 C 0.61339 0.97992 0.74986 0.0
C150 C 0.61367 0.97558 0.67169 0.0
C151 C 0.5911 0.97153 0.63484 0.0
C152 C 0.56896 0.97258 0.67424 0.0
C153 C 0.52734 0.06497 0.78481 0.0
C154 C 0.58521 0.0502 0.91113 0.0
C155 C 0.51898 0.09091 0.04074 0.0
C156 C 0.49569 0.09486 0.07672 0.0
C157 C 0.47346 0.09126 0.03812 0.0
C158 C 0.45115 0.09229 0.0765 0.0
C159 C 0.45058 0.09692 0.15431 0.0
C160 C 0.47301 0.10138 0.19167 0.0
C161 C 0.49531 0.10035 0.15323 0.0
C162 C 0.53716 1.00727 0.04514 0.0
C163 C 0.47935 0.02221 0.91795 0.0
O164 O 0.5447 0.97951 0.86529 0.0
O165 O 0.53587 1.00062 0.75293 0.0
O166 O 0.51595 0.04371 0.76726 0.0
O167 O 0.54193 0.06076 0.83938 0.0
O168 O 0.57404 0.02966 0.88584 0.0
O169 O 0.57261 0.06592 0.93841 0.0
O170 O 0.52036 0.093 0.96398 0.0
O171 O 0.52836 0.07151 0.07678 0.0
O172 O 0.54866 0.02859 0.06198 0.0
O173 O 0.52252 1.01145 0.9906 0.0
O174 O 0.49054 0.04276 0.94312 0.0
O175 O 0.49193 1.00639 0.89113 0.0
H176 H 0.59175 0.985 0.84859 0.0
H177 H 0.63034 0.98282 0.78044 0.0
H178 H 0.59059 0.96854 0.57436 0.0
H179 H 0.55196 0.97013 0.64365 0.0
H180 H 0.47318 0.08701 0.979 0.0
H181 H 0.43429 0.08906 0.04562 0.0
H182 H 0.47328 0.10462 0.25192 0.0
H183 H 0.5122 0.10305 0.18426 0.0
Nd184 Nd 0.51643 0.53904 0.98375 0.0
Nd185 Nd 0.55005 0.53306 0.85114 0.0
C186 C 0.48243 0.55315 0.06873 0.0
C187 C 0.47962 0.57882 0.08127 0.0
C188 C 0.45933 0.58282 0.12471 0.0
C189 C 0.45755 0.60752 0.13732 0.0
C190 C 0.47591 0.62855 0.10556 0.0
C191 C 0.49567 0.62432 0.05964 0.0
C192 C 0.49774 0.5997 0.04916 0.0
C193 C 0.56528 0.54429 0.01803 0.0
C194 C 0.53815 0.58924 0.84395 0.0
C195 C 0.58519 0.52049 0.76679 0.0
C196 C 0.59121 0.49599 0.75344 0.0
C197 C 0.61383 0.49507 0.71662 0.0
C198 C 0.61923 0.47173 0.70221 0.0
C199 C 0.60209 0.44898 0.72495 0.0
C200 C 0.57973 0.44999 0.76399 0.0
C201 C 0.57432 0.47331 0.77784 0.0
C202 C 0.50088 0.52741 0.81904 0.0
C203 C 0.52785 0.48259 0.98925 0.0
O204 O 0.47928 0.54909 0.99671 0.0
O205 O 0.50189 0.54494 0.09862 0.0
O206 O 0.54738 0.53308 0.06838 0.0
O207 O 0.55715 0.55356 0.95327 0.0
O208 O 0.52046 0.57778 0.89723 0.0
O209 O 0.555 0.57673 0.82209 0.0
O210 O 0.58794 0.52499 0.83845 0.0
O211 O 0.5647 0.52635 0.73753 0.0
O212 O 0.51842 0.53895 0.76758 0.0
O213 O 0.5096 0.51827 0.88266 0.0
O214 O 0.54553 0.49384 0.9355 0.0
O215 O 0.51118 0.4953 0.01148 0.0
H216 H 0.4452 0.56684 0.15011 0.0
H217 H 0.44225 0.60996 0.17392 0.0
H218 H 0.50989 0.63997 0.03269 0.0
H219 H 0.51378 0.59695 0.01676 0.0
H220 H 0.62714 0.51243 0.69803 0.0
H221 H 0.63664 0.4715 0.67236 0.0
H222 H 0.56596 0.43292 0.781 0.0
H223 H 0.55672 0.47373 0.80618 0.0
Nd224 Nd 0.02939 0.5587 0.83848 0.0
Nd225 Nd 0.04049 0.51638 0.99382 0.0
C226 C 0.0116 0.59603 0.75065 0.0
C227 C 0.98927 0.59497 0.70495 0.0
C228 C 0.98213 0.61732 0.66447 0.0
C229 C 0.96017 0.6159 0.62425 0.0
C230 C 0.94494 0.59209 0.62469 0.0
C231 C 0.95239 0.56978 0.66507 0.0
C232 C 0.97432 0.57121 0.70455 0.0
C233 C 0.03082 0.51034 0.802 0.0
C234 C 0.9835 0.51862 0.94702 0.0
C235 C 0.05743 0.47793 0.07857 0.0
C236 C 0.07901 0.47761 0.12755 0.0
C237 C 0.08939 0.45537 0.1466 0.0
C238 C 0.11093 0.45576 0.18878 0.0
C239 C 0.12246 0.47847 0.21235 0.0
C240 C 0.11177 0.50064 0.19328 0.0
C241 C 0.09038 0.50024 0.15101 0.0
C242 C 0.03966 0.5645 0.03223 0.0
C243 C 0.08633 0.55692 0.8865 0.0
O244 O 1.00741 0.58991 0.82719 0.0
O245 O 0.0292 0.58534 0.72498 0.0
O246 O 0.0283 0.5302 0.74989 0.0
O247 O 0.03219 0.51743 0.86782 0.0
O248 O 0.99118 0.53933 0.89309 0.0
O249 O 0.99851 0.50529 0.98916 0.0
O250 O 0.06269 0.48537 1.0028 0.0
O251 O 0.03947 0.48816 0.1043 0.0
O252 O 0.04292 0.54455 0.08284 0.0
O253 O 0.03703 0.55778 0.96586 0.0
O254 O 0.07868 0.53599 0.93966 0.0
O255 O 0.0713 0.57026 0.84441 0.0
H256 H 0.9934 0.63584 0.66451 0.0
H257 H 0.95491 0.63343 0.59391 0.0
H258 H 0.9414 0.5511 0.66539 0.0
H259 H 0.97959 0.55372 0.73525 0.0
H260 H 0.08105 0.43782 0.12795 0.0
H261 H 0.11876 0.4384 0.20172 0.0
H262 H 0.11978 0.51835 0.21162 0.0
H263 H 0.08281 0.51772 0.13606 0.0
H264 H 0.23182 0.09006 0.83731 0.0
H265 H 0.21581 0.07867 0.60096 0.0
H266 H 0.18772 0.084 0.87171 0.0
H267 H 0.17167 0.07178 0.6354 0.0
H268 H 0.09458 0.08238 0.69654 0.0
H269 H 0.13891 0.09304 0.66605 0.0
H270 H 0.15187 0.05146 0.89502 0.0
H271 H 0.10755 0.04155 0.9261 0.0
C272 C 0.2188 0.0862 0.79281 0.0
C273 C 0.22714 0.08491 0.71638 0.0
C274 C 0.19353 0.08257 0.81255 0.0
C275 C 0.17603 0.07745 0.75637 0.0
C276 C 0.18453 0.07615 0.67986 0.0
C277 C 0.20978 0.07989 0.66013 0.0
C278 C 0.10695 0.07581 0.74064 0.0
C279 C 0.09762 0.06102 0.81348 0.0
C280 C 0.13237 0.08171 0.72297 0.0
C281 C 0.14906 0.07286 0.77761 0.0
C282 C 0.13966 0.05881 0.85166 0.0
C283 C 0.11422 0.05302 0.86945 0.0
H284 H 0.52177 0.2269 0.61248 0.0
H285 H 0.51083 0.19063 0.40876 0.0
H286 H 0.52608 0.18587 0.69321 0.0
H287 H 0.51583 0.1497 0.48826 0.0
H288 H 0.49661 0.07598 0.66728 0.0
H289 H 0.49374 0.11753 0.58921 0.0
H290 H 0.5517 0.15346 0.71921 0.0
H291 H 0.55405 0.11166 0.799 0.0
C292 C 0.52039 0.21009 0.58506 0.0
C293 C 0.51545 0.21174 0.50487 0.0
C294 C 0.52305 0.18662 0.63106 0.0
C295 C 0.52104 0.1643 0.59766 0.0
C296 C 0.51692 0.16629 0.51658 0.0
C297 C 0.51419 0.18973 0.47079 0.0
C298 C 0.50874 0.09275 0.67926 0.0
C299 C 0.52563 0.09054 0.73902 0.0
C300 C 0.50723 0.11661 0.63404 0.0
C301 C 0.52265 0.13894 0.64711 0.0
C302 C 0.53939 0.13674 0.70775 0.0
C303 C 0.54085 0.11279 0.75328 0.0
H304 H 0.34157 0.5198 0.85679 0.0
H305 H 0.35546 0.50434 0.62443 0.0
H306 H 0.3858 0.52604 0.87769 0.0
H307 H 0.39977 0.51024 0.64522 0.0
H308 H 0.4794 0.54574 0.68454 0.0
H309 H 0.43542 0.54225 0.66123 0.0
H310 H 0.41828 0.50007 0.89801 0.0
H311 H 0.46223 0.50384 0.92134 0.0
C312 C 0.35416 0.5178 0.81015 0.0
C313 C 0.34515 0.51133 0.7393 0.0
C314 C 0.37947 0.5212 0.82222 0.0
C315 C 0.39638 0.51841 0.76345 0.0
C316 C 0.38733 0.51271 0.69157 0.0
C317 C 0.36199 0.50922 0.67966 0.0
C318 C 0.46621 0.53571 0.73151 0.0
C319 C 0.47424 0.52503 0.80471 0.0
C320 C 0.441 0.53362 0.71809 0.0
C321 C 0.42325 0.5209 0.77773 0.0
C322 C 0.43139 0.5103 0.85108 0.0
C323 C 0.45658 0.5123 0.86434 0.0
H324 H 0.06875 0.3604 0.76284 0.0
H325 H 0.02452 0.37852 0.5641 0.0
H326 H 0.0626 0.39954 0.80841 0.0
H327 H 0.01757 0.41728 0.61065 0.0
H328 H 0.03514 0.49892 0.65635 0.0
H329 H 0.03893 0.45826 0.61875 0.0
H330 H 0.03532 0.42289 0.86442 0.0
H331 H 0.03198 0.46426 0.90197 0.0
C332 C 0.05721 0.37249 0.72981 0.0
C333 C 0.04673 0.366 0.6606 0.0
C334 C 0.05361 0.39498 0.75611 0.0
C335 C 0.03959 0.41186 0.71353 0.0
C336 C 0.02879 0.4051 0.64477 0.0
C337 C 0.0325 0.38265 0.61835 0.0
C338 C 0.03518 0.4825 0.7026 0.0
C339 C 0.03345 0.48496 0.7823 0.0
C340 C 0.03713 0.45898 0.6809 0.0
C341 C 0.03724 0.43694 0.73818 0.0
C342 C 0.03556 0.43939 0.81835 0.0
C343 C 0.03365 0.46312 0.84013 0.0
H344 H 0.83746 1.01438 0.99031 0.0
H345 H 0.84722 0.97061 0.21823 0.0
H346 H 0.88221 0.02365 0.96398 0.0
H347 H 0.89183 0.97923 0.19181 0.0
H348 H 0.96912 0.02686 0.16043 0.0
H349 H 0.92466 1.01515 0.18139 0.0
H350 H 0.91858 1.00497 0.93896 0.0
H351 H 0.96343 0.01743 0.91766 0.0
C352 C 0.84925 1.00649 0.03422 0.0
C353 C 0.83897 0.99158 0.10588 0.0
C354 C 0.87483 1.01165 0.0191 0.0
C355 C 0.89067 1.00218 0.07571 0.0
C356 C 0.88024 0.98709 0.14721 0.0
C357 C 0.8547 0.98198 0.16227 0.0
C358 C 0.95833 0.02198 0.11163 0.0
C359 C 0.96974 0.02288 0.03752 0.0
C360 C 0.93281 1.0151 0.12379 0.0
C361 C 0.91797 1.00892 0.06208 0.0
C362 C 0.92943 1.00977 0.98768 0.0
C363 C 0.9551 0.01667 0.97554 0.0
H364 H 0.49221 0.86211 0.36161 0.0
H365 H 0.57091 0.87761 0.38207 0.0
H366 H 0.49496 0.89976 0.25766 0.0
H367 H 0.57398 0.91489 0.27638 0.0
H368 H 0.56519 0.99707 0.17061 0.0
H369 H 0.56395 0.95681 0.26093 0.0
H370 H 0.50861 0.91979 0.12448 0.0
H371 H 0.5095 0.96061 0.03468 0.0
C372 C 0.51015 0.87345 0.34302 0.0
C373 C 0.53133 0.8672 0.38049 0.0
C374 C 0.51178 0.89494 0.28301 0.0
C375 C 0.53468 0.91061 0.25881 0.0
C376 C 0.55597 0.90362 0.29441 0.0
C377 C 0.5543 0.8822 0.35457 0.0
C378 C 0.55285 0.98032 0.15954 0.0
C379 C 0.53732 0.98206 0.09582 0.0
C380 C 0.55226 0.9571 0.2111 0.0
C381 C 0.53618 0.9349 0.20031 0.0
C382 C 0.521 0.93653 0.13531 0.0
C383 C 0.52159 0.95986 0.08354 0.0
H384 H 0.71953 0.52815 0.02308 0.0
H385 H 0.70541 0.55004 0.24639 0.0
H386 H 0.67831 0.53496 0.9831 0.0
H387 H 0.66436 0.55717 0.20658 0.0
H388 H 0.58388 0.52706 0.15762 0.0
H389 H 0.62683 0.52777 0.18881 0.0
H390 H 0.64955 0.56601 0.95106 0.0
H391 H 0.60615 0.56526 0.91971 0.0
C392 C 0.70769 0.53482 0.06298 0.0
C393 C 0.71538 0.53807 0.13837 0.0
C394 C 0.68415 0.53883 0.04007 0.0
C395 C 0.66786 0.54623 0.09212 0.0
C396 C 0.67624 0.55096 0.16571 0.0
C397 C 0.69976 0.54702 0.18843 0.0
C398 C 0.59801 0.53581 0.11204 0.0
C399 C 0.59163 0.54604 0.03614 0.0
C400 C 0.62268 0.53637 0.1301 0.0
C401 C 0.6417 0.54707 0.07262 0.0
C402 C 0.63534 0.5575 0.99658 0.0
C403 C 0.61053 0.55713 0.97865 0.0
H404 H 1.00515 0.6802 0.29259 0.0
H405 H 0.04024 0.72597 0.07758 0.0
H406 H 0.01107 0.64128 0.24546 0.0
H407 H 0.04683 0.687 0.03034 0.0
H408 H 0.03094 0.60945 0.93884 0.0
H409 H 0.02627 0.64966 0.98213 0.0
H410 H 0.04097 0.6168 0.21969 0.0
H411 H 0.04468 0.57688 0.17703 0.0
C412 C 0.01441 0.68191 0.23547 0.0
C413 C 0.02207 0.70614 0.18866 0.0
C414 C 0.01792 0.65957 0.20829 0.0
C415 C 0.02942 0.66075 0.1336 0.0
C416 C 0.03755 0.68515 0.08746 0.0
C417 C 0.03401 0.70753 0.1148 0.0
C418 C 0.03298 0.61086 1.00022 0.0
C419 C 0.03779 0.58976 0.05449 0.0
C420 C 0.03054 0.63401 0.02516 0.0
C421 C 0.03294 0.63661 0.10498 0.0
C422 C 0.03836 0.61556 0.15832 0.0
C423 C 0.04068 0.59259 0.13355 0.0
H424 H 0.03985 0.24444 0.76213 0.0
H425 H 0.97667 0.2253 0.62683 0.0
H426 H 0.03355 0.20064 0.83437 0.0
H427 H 0.96958 0.18152 0.7008 0.0
H428 H 0.01882 0.12095 0.96124 0.0
H429 H 0.01171 0.16459 0.92017 0.0
H430 H 0.99095 0.14704 0.69255 0.0
H431 H 0.9972 0.10299 0.7353 0.0
C432 C 0.02382 0.23114 0.75095 0.0
C433 C 0.00872 0.23814 0.68933 0.0
C434 C 0.02021 0.20592 0.79199 0.0
C435 C 1.00131 0.18729 0.77232 0.0
C436 C 0.98466 0.19515 0.71616 0.0
C437 C 0.98843 0.22031 0.67473 0.0
C438 C 0.01237 0.12632 0.9028 0.0
C439 C 0.00892 0.10866 0.85099 0.0
C440 C 0.00836 0.15139 0.87918 0.0
C441 C 1.00109 0.15957 0.80265 0.0
C442 C 0.99627 0.14143 0.75231 0.0
C443 C 0.99999 0.11617 0.77648 0.0
H444 H 0.34804 0.07623 0.80415 0.0
H445 H 0.3305 0.99991 0.75293 0.0
H446 H 0.38352 0.06476 0.8753 0.0
H447 H 0.3654 0.98773 0.82714 0.0
H448 H 0.45093 0.9957 0.82125 0.0
H449 H 0.40804 0.99742 0.79415 0.0
H450 H 0.40341 0.04217 0.97786 0.0
H451 H 0.44664 0.04105 1.0029 0.0
C452 C 0.35117 0.05661 0.81168 0.0
C453 C 0.3366 0.03887 0.77392 0.0
C454 C 0.37153 0.04995 0.85238 0.0
C455 C 0.37764 0.02535 0.85612 0.0
C456 C 0.3616 1.00697 0.82407 0.0
C457 C 0.3414 1.01377 0.78262 0.0
C458 C 0.44059 1.00538 0.85706 0.0
C459 C 0.45226 0.01863 0.91313 0.0
C460 C 0.41587 1.0063 0.84186 0.0
C461 C 0.40221 0.02025 0.8831 0.0
C462 C 0.41346 0.03177 0.94363 0.0
C463 C 0.43824 0.03108 0.95816 0.0
H464 H 0.61466 0.33388 0.44277 0.0
H465 H 0.5493 0.30941 0.59618 0.0
H466 H 0.63134 0.36374 0.52799 0.0
H467 H 0.56513 0.33999 0.67944 0.0
H468 H 0.59305 0.40042 0.81251 0.0
H469 H 0.59236 0.36024 0.76395 0.0
H470 H 0.61859 0.40315 0.53369 0.0
H471 H 0.61968 0.44281 0.58248 0.0
C472 C 0.6043 0.33433 0.4964 0.0
C473 C 0.5807 0.31962 0.51303 0.0
C474 C 0.61367 0.35159 0.54474 0.0
C475 C 0.59929 0.35486 0.60933 0.0
C476 C 0.57681 0.33802 0.63048 0.0
C477 C 0.56766 0.32045 0.58279 0.0
C478 C 0.59914 0.40112 0.75197 0.0
C479 C 0.60615 0.42475 0.70102 0.0
C480 C 0.59874 0.37814 0.72415 0.0
C481 C 0.60517 0.37836 0.64468 0.0
C482 C 0.61388 0.40205 0.59555 0.0
C483 C 0.61443 0.42494 0.62346 0.0
H484 H 0.22537 0.5176 0.83875 0.0
H485 H 0.2333 0.58588 0.66188 0.0
H486 H 0.18866 0.52866 0.89498 0.0
H487 H 0.19706 0.59795 0.71982 0.0
H488 H 0.11115 0.57995 0.74715 0.0
H489 H 0.1548 0.58246 0.71491 0.0
H490 H 0.16617 0.55305 0.95878 0.0
H491 H 0.12229 0.54941 0.98969 0.0
C492 C 0.21991 0.53571 0.81466 0.0
C493 C 0.23217 0.55104 0.74676 0.0
C494 C 0.19878 0.54213 0.84663 0.0
C495 C 0.18951 0.56409 0.81132 0.0
C496 C 0.20328 0.58063 0.74758 0.0
C497 C 0.22428 0.57401 0.71513 0.0
C498 C 0.12312 0.57464 0.7941 0.0
C499 C 0.11327 0.56413 0.87054 0.0
C500 C 0.14825 0.57616 0.77583 0.0
C501 C 0.16413 0.56755 0.83399 0.0
C502 C 0.15449 0.5592 0.91197 0.0
C503 C 0.12933 0.55727 0.92985 0.0
H504 H 0.09273 0.84795 0.22557 0.0
H505 H 0.03005 0.82695 0.09016 0.0
H506 H 0.09818 0.89191 0.15342 0.0
H507 H 0.03487 0.8709 0.01924 0.0
H508 H 0.04936 0.95145 0.89244 0.0
H509 H 0.05668 0.90795 0.93388 0.0
H510 H 0.07418 0.92472 0.16467 0.0
H511 H 0.06749 0.96861 0.12231 0.0
C512 C 0.08075 0.85259 0.17801 0.0
C513 C 0.061 0.83418 0.1631 0.0
C514 C 0.08359 0.87782 0.13761 0.0
C515 C 0.0666 0.88512 0.08194 0.0
C516 C 0.04837 0.86601 0.06151 0.0
C517 C 0.04565 0.84072 0.1017 0.0
C518 C 0.05502 0.94599 0.95187 0.0
C519 C 0.05752 0.96346 1.00451 0.0
C520 C 0.0592 0.92097 0.97558 0.0
C521 C 0.06585 0.91269 0.05273 0.0
C522 C 0.06942 0.9305 0.10437 0.0
C523 C 0.0654 0.95565 0.08038 0.0
H524 H 0.73431 0.073 0.07358 0.0
H525 H 0.71652 0.9966 0.02316 0.0
H526 H 0.69938 0.0852 0.99947 0.0
H527 H 0.68104 1.00809 0.9521 0.0
H528 H 0.61375 0.07696 1.00697 0.0
H529 H 0.65673 0.07548 0.03309 0.0
H530 H 0.66116 0.03064 0.84952 0.0
H531 H 0.61783 0.03147 0.82553 0.0
C532 C 0.72335 0.05913 0.04407 0.0
C533 C 0.72807 0.034 0.05295 0.0
C534 C 0.70315 0.06594 1.00267 0.0
C535 C 0.68705 0.04754 0.97086 0.0
C536 C 0.69308 0.02291 0.97481 0.0
C537 C 0.71343 0.01624 0.01547 0.0
C538 C 0.62406 0.06731 0.97098 0.0
C539 C 0.61231 0.05393 0.9153 0.0
C540 C 0.64883 0.06654 0.9856 0.0
C541 C 0.66246 0.05263 0.94414 0.0
C542 C 0.65113 0.04102 0.8839 0.0
C543 C 0.62629 0.04155 0.86997 0.0
H544 H 0.45899 0.73443 0.39437 0.0
H545 H 0.51928 0.77616 0.23561 0.0
H546 H 0.44777 0.70569 0.30128 0.0
H547 H 0.50754 0.74795 0.14129 0.0
H548 H 0.51556 0.66302 0.13299 0.0
H549 H 0.51603 0.70356 0.17454 0.0
H550 H 0.43667 0.69341 0.17034 0.0
H551 H 0.43612 0.65259 0.12497 0.0
C552 C 0.46916 0.73812 0.33802 0.0
C553 C 0.49044 0.757 0.32316 0.0
C554 C 0.46261 0.72178 0.28438 0.0
C555 C 0.47723 0.72417 0.21507 0.0
C556 C 0.49627 0.7454 0.19515 0.0
C557 C 0.50288 0.76169 0.24892 0.0
C558 C 0.49816 0.66965 0.13781 0.0
C559 C 0.47579 0.65441 0.12515 0.0
C560 C 0.49847 0.69307 0.16168 0.0
C561 C 0.4764 0.70187 0.17483 0.0
C562 C 0.45397 0.68711 0.16035 0.0
C563 C 0.45367 0.66365 0.13521 0.0
H564 H 0.84317 0.55626 1.00304 0.0
H565 H 0.83708 0.4873 0.17665 0.0
H566 H 0.88041 0.54663 0.94521 0.0
H567 H 0.87369 0.47665 0.11688 0.0
H568 H 0.94711 0.52697 0.8459 0.0
H569 H 0.90336 0.52327 0.8789 0.0
H570 H 0.91568 0.49265 0.12108 0.0
H571 H 0.95916 0.49527 0.08673 0.0
C572 C 0.84922 0.53839 0.0263 0.0
C573 C 0.83737 0.52249 0.09393 0.0
C574 C 0.87063 0.53278 0.99334 0.0
C575 C 0.88045 0.511 0.02711 0.0
C576 C 0.86709 0.49389 0.09047 0.0
C577 C 0.84592 0.49974 0.12406 0.0
C578 C 0.94031 0.51889 0.90581 0.0
C579 C 0.95659 0.51167 0.96402 0.0
C580 C 0.91522 0.51692 0.92489 0.0
C581 C 0.90588 0.50811 1.00302 0.0
C582 C 0.92199 0.49928 0.06005 0.0
C583 C 0.94704 0.50086 0.04057 0.0
H584 H 0.08227 0.26434 0.46228 0.0
H585 H 0.00997 0.2647 0.372 0.0
H586 H 0.0906 0.23514 0.37493 0.0
H587 H 0.01822 0.23585 0.28336 0.0
H588 H 0.02537 0.1536 0.25344 0.0
H589 H 0.0204 0.19069 0.31104 0.0
H590 H 0.09623 0.22427 0.24477 0.0
H591 H 0.10119 0.18714 0.18588 0.0
C592 C 0.06869 0.25928 0.4205 0.0
C593 C 0.04568 0.26725 0.42272 0.0
C594 C 0.07331 0.24227 0.3709 0.0
C595 C 0.05491 0.23266 0.3229 0.0
C596 C 0.03267 0.24241 0.32052 0.0
C597 C 0.02809 0.25941 0.37004 0.0
C598 C 0.04093 0.16902 0.24963 0.0
C599 C 0.0637 0.16714 0.21462 0.0
C600 C 0.03805 0.19045 0.28275 0.0
C601 C 0.05785 0.21073 0.28229 0.0
C602 C 0.0806 0.209 0.24686 0.0
C603 C 0.08347 0.18757 0.21333 0.0
H604 H 0.329 0.11005 0.47339 0.0
H605 H 0.33439 0.03027 0.49068 0.0
H606 H 0.35756 0.12073 0.35688 0.0
H607 H 0.36291 0.04068 0.37567 0.0
H608 H 0.43912 0.12727 0.25755 0.0
H609 H 0.4021 0.12066 0.34336 0.0
H610 H 0.37062 0.05673 0.2355 0.0
H611 H 0.40799 0.06268 0.15191 0.0
C612 C 0.33569 0.09476 0.45059 0.0
C613 C 0.32955 0.06937 0.49055 0.0
C614 C 0.35223 0.10085 0.38462 0.0
C615 C 0.3627 0.08159 0.35731 0.0
C616 C 0.35506 0.05598 0.39436 0.0
C617 C 0.33875 0.04997 0.46038 0.0
C618 C 0.42424 0.1119 0.25179 0.0
C619 C 0.42671 0.09531 0.19849 0.0
C620 C 0.40285 0.10832 0.30026 0.0
C621 C 0.38342 0.08806 0.29665 0.0
C622 C 0.38535 0.07235 0.24037 0.0
C623 C 0.40672 0.07592 0.1919 0.0
H624 H 0.58102 0.35059 0.22506 0.0
H625 H 0.50279 0.3273 0.27506 0.0
H626 H 0.57382 0.38838 0.13486 0.0
H627 H 0.49529 0.36511 0.18271 0.0
H628 H 0.55625 0.4494 0.94743 0.0
H629 H 0.55826 0.40615 0.0137 0.0
H630 H 0.50125 0.4109 0.18328 0.0
H631 H 0.49868 0.45404 0.11516 0.0
C632 C 0.56219 0.35325 0.21483 0.0
C633 C 0.54247 0.33603 0.25709 0.0
C634 C 0.558 0.37491 0.16286 0.0
C635 C 0.53395 0.38002 0.15169 0.0
C636 C 0.51408 0.36198 0.19066 0.0
C637 C 0.5183 0.34013 0.24268 0.0
C638 C 0.54388 0.44118 0.99821 0.0
C639 C 0.52743 0.45539 0.02622 0.0
C640 C 0.54513 0.41633 0.03655 0.0
C641 C 0.53011 0.40501 0.10451 0.0
C642 C 0.51294 0.41882 0.1307 0.0
C643 C 0.51158 0.44369 0.09193 0.0
H644 H 0.26158 0.52202 0.43309 0.0
H645 H 0.20795 0.4805 0.61478 0.0
H646 H 0.23422 0.50825 0.33228 0.0
H647 H 0.18038 0.46751 0.51552 0.0
H648 H 0.13425 0.44149 0.3296 0.0
H649 H 0.16952 0.4446 0.41263 0.0
H650 H 0.19686 0.52077 0.28405 0.0
H651 H 0.1625 0.51702 0.19822 0.0
C652 C 0.24424 0.5094 0.45135 0.0
C653 C 0.23673 0.50251 0.53145 0.0
C654 C 0.22842 0.50176 0.3938 0.0
C655 C 0.20486 0.48707 0.41552 0.0
C656 C 0.19835 0.4786 0.49613 0.0
C657 C 0.21411 0.48618 0.55326 0.0
C658 C 0.14811 0.45864 0.31768 0.0
C659 C 0.14525 0.47917 0.25791 0.0
C660 C 0.16825 0.46054 0.3659 0.0
C661 C 0.18597 0.48308 0.35593 0.0
C662 C 0.18378 0.50303 0.29337 0.0
C663 C 0.16376 0.50105 0.24486 0.0
H664 H 0.06277 0.81103 0.47246 0.0
H665 H 0.98775 0.80161 0.40167 0.0
H666 H 0.05348 0.83974 0.55962 0.0
H667 H 0.97803 0.82996 0.49025 0.0
H668 H 0.98397 0.91287 0.53764 0.0
H669 H 0.98813 0.87548 0.48048 0.0
H670 H 0.03305 0.85003 0.67091 0.0
H671 H 0.02888 0.88765 0.72835 0.0
C672 C 0.04392 0.81401 0.47899 0.0
C673 C 0.02589 0.80368 0.43135 0.0
C674 C 0.03858 0.83072 0.5285 0.0
C675 C 0.01507 0.83769 0.53123 0.0
C676 C 0.99647 0.8255 0.48864 0.0
C677 C 1.00185 0.80876 0.43912 0.0
C678 C 0.99439 0.89913 0.56834 0.0
C679 C 1.0061 0.90349 0.63783 0.0
C680 C 0.99672 0.87751 0.53551 0.0
C681 C 0.01084 0.85945 0.57099 0.0
C682 C 0.02223 0.86356 0.64126 0.0
C683 C 0.0199 0.88525 0.67417 0.0
H684 H 0.73144 0.04137 0.33855 0.0
H685 H 0.73394 0.96123 0.34892 0.0
H686 H 0.70268 0.03099 0.45291 0.0
H687 H 0.70513 0.95054 0.46488 0.0
H688 H 0.6242 0.94569 0.5657 0.0
H689 H 0.66108 0.95188 0.47961 0.0
H690 H 0.69421 1.0142 0.59164 0.0
H691 H 0.65694 1.00878 0.6753 0.0
C692 C 0.72641 0.02155 0.36731 0.0
C693 C 0.7349 1.0021 0.33543 0.0
C694 C 0.70995 1.01555 0.43294 0.0
C695 C 0.70141 0.98989 0.4679 0.0
C696 C 0.71114 0.97048 0.43881 0.0
C697 C 0.72783 0.97655 0.37318 0.0
C698 C 0.63938 0.96065 0.57223 0.0
C699 C 0.6374 0.97694 0.62682 0.0
C700 C 0.66071 0.96396 0.52358 0.0
C701 C 0.6806 0.98365 0.52832 0.0
C702 C 0.67913 0.99905 0.58579 0.0
C703 C 0.6578 0.99576 0.63435 0.0
H704 H 0.48645 0.72335 0.6118 0.0
H705 H 0.56504 0.74646 0.57071 0.0
H706 H 0.49268 0.68453 0.69862 0.0
H707 H 0.57155 0.70768 0.66019 0.0
H708 H 0.50803 0.62137 0.88214 0.0
H709 H 0.50645 0.66495 0.81895 0.0
H710 H 0.56619 0.66239 0.65619 0.0
H711 H 0.56851 0.61892 0.72222 0.0
C712 C 0.50514 0.72043 0.62334 0.0
C713 C 0.52524 0.73793 0.58437 0.0
C714 C 0.50877 0.69815 0.67343 0.0
C715 C 0.53266 0.69271 0.68623 0.0
C716 C 0.55289 0.71101 0.65082 0.0
C717 C 0.54921 0.73343 0.60054 0.0
C718 C 0.52114 0.63014 0.83376 0.0
C719 C 0.53837 0.61647 0.80735 0.0
C720 C 0.5201 0.6552 0.79693 0.0
C721 C 0.53602 0.66728 0.73173 0.0
C722 C 0.5538 0.65391 0.70674 0.0
C723 C 0.555 0.62884 0.74423 0.0
H724 H 0.82693 0.52057 0.38963 0.0
H725 H 0.8281 0.59964 0.28613 0.0
H726 H 0.85519 0.53365 0.48783 0.0
H727 H 0.85641 0.61306 0.38518 0.0
H728 H 0.9368 0.61726 0.47771 0.0
H729 H 0.90013 0.60999 0.40195 0.0
H730 H 0.86365 0.55518 0.59949 0.0
H731 H 0.90035 0.5624 0.67509 0.0
C732 C 0.83255 0.54082 0.39006 0.0
C733 C 0.82526 0.55912 0.331 0.0
C734 C 0.84878 0.54838 0.4462 0.0
C735 C 0.85827 0.57443 0.44403 0.0
C736 C 0.84964 0.59283 0.38791 0.0
C737 C 0.8332 0.58522 0.33195 0.0
C738 C 0.92077 0.60408 0.50556 0.0
C739 C 0.92164 0.59014 0.58203 0.0
C740 C 0.89968 0.59996 0.46221 0.0
C741 C 0.87897 0.58184 0.49442 0.0
C742 C 0.87941 0.56895 0.57244 0.0
C743 C 0.90047 0.57304 0.61568 0.0
loop_
_geom_bond_atom_site_label_1
_geom_bond_atom_site_label_2
_geom_bond_distance
_geom_bond_site_symmetry_2
_ccdc_geom_bond_type
H0 C7 0.929 . S
H1 C10 0.930 . S
H2 C12 0.929 . S
H3 C4 0.969 . S
C4 H3 0.969 . S
C4 O5 1.550 1_556 S
C4 H6 0.973 . S
O5 C4 1.550 1_554 S
O5 C11 1.412 . S
H6 C4 0.973 . S
C7 H0 0.929 . S
C7 C8 1.400 . S
C7 C9 1.364 1_554 S
C8 C7 1.400 . S
C8 C12 1.377 . S
C9 C7 1.364 1_556 S
C9 C10 1.374 . S
C10 H1 0.930 . S
C10 C9 1.374 . S
C10 C11 1.383 1_556 S
C11 O5 1.412 . S
C11 C10 1.383 1_554 S
C11 C12 1.394 . S
C12 H2 0.929 . S
C12 C8 1.377 . S
C12 C11 1.394 . S
H13 C20 0.929 . S
H14 C23 0.930 . S
H15 C25 0.929 . S
H16 C17 0.969 . S
C17 H16 0.969 . S
C17 O18 1.550 1_455 S
C17 H19 0.973 1_455 S
O18 C17 1.550 1_655 S
O18 C24 1.416 . S
H19 C17 0.973 1_655 S
C20 H13 0.929 . S
C20 C21 1.400 . S
C20 C22 1.364 . S
C21 C20 1.400 . S
C21 C25 1.377 . S
C22 C20 1.364 . S
C22 C23 1.374 . S
C23 H14 0.930 . S
C23 C22 1.374 . S
C23 C24 1.389 . S
C24 O18 1.416 . S
C24 C23 1.389 . S
C24 C25 1.397 . S
C25 H15 0.929 . S
C25 C21 1.377 . S
C25 C24 1.397 . S
H26 C33 0.929 . S
H27 C36 0.930 1_556 S
H28 C38 0.929 . S
H29 C30 0.969 . S
C30 H29 0.969 . S
C30 O31 1.550 . S
C30 H32 0.973 1_554 S
O31 C30 1.550 . S
O31 C37 1.412 . S
H32 C30 0.973 1_556 S
C33 H26 0.929 . S
C33 C34 1.400 . S
C33 C35 1.364 . S
C34 C33 1.400 . S
C34 C38 1.377 . S
C35 C33 1.364 . S
C35 C36 1.374 . S
C36 H27 0.930 1_554 S
C36 C35 1.374 . S
C36 C37 1.383 . S
C37 O31 1.412 . S
C37 C36 1.383 . S
C37 C38 1.394 . S
C38 H28 0.929 . S
C38 C34 1.377 . S
C38 C37 1.394 . S
H39 C46 0.929 . S
H40 C49 0.930 . S
H41 C51 0.929 . S
H42 C43 0.969 . S
C43 H42 0.969 . S
C43 O44 1.550 . S
C43 H45 0.973 . S
O44 C43 1.550 . S
O44 C50 1.412 . S
H45 C43 0.973 . S
C46 H39 0.929 . S
C46 C47 1.400 . S
C46 C48 1.364 . S
C47 C46 1.400 . S
C47 C51 1.377 . S
C48 C46 1.364 . S
C48 C49 1.374 . S
C49 H40 0.930 . S
C49 C48 1.374 . S
C49 C50 1.383 . S
C50 O44 1.412 . S
C50 C49 1.383 . S
C50 C51 1.394 . S
C51 H41 0.929 . S
C51 C47 1.377 . S
C51 C50 1.394 . S
H52 C59 0.929 . S
H53 C62 0.930 . S
H54 C64 0.929 . S
H55 C56 0.969 . S
C56 H55 0.969 . S
C56 O57 1.550 . S
C56 H58 0.973 . S
O57 C56 1.550 . S
O57 C63 1.412 . S
H58 C56 0.973 . S
C59 H52 0.929 . S
C59 C60 1.400 . S
C59 C61 1.364 . S
C60 C59 1.400 . S
C60 C64 1.377 . S
C61 C59 1.364 . S
C61 C62 1.374 . S
C62 H53 0.930 . S
C62 C61 1.374 . S
C62 C63 1.383 . S
C63 O57 1.412 . S
C63 C62 1.383 . S
C63 C64 1.394 . S
C64 H54 0.929 . S
C64 C60 1.377 . S
C64 C63 1.394 . S
H65 C72 0.929 . S
H66 C75 0.930 . S
H67 C77 0.929 . S
H68 C69 0.969 . S
C69 H68 0.969 . S
C69 O70 1.550 . S
C69 H71 0.973 . S
O70 C69 1.550 . S
O70 C76 1.412 . S
H71 C69 0.973 . S
C72 H65 0.929 . S
C72 C73 1.400 . S
C72 C74 1.364 . S
C73 C72 1.400 . S
C73 C77 1.377 . S
C74 C72 1.364 . S
C74 C75 1.374 . S
C75 H66 0.930 . S
C75 C74 1.374 . S
C75 C76 1.383 . S
C76 O70 1.412 . S
C76 C75 1.383 . S
C76 C77 1.394 . S
C77 H67 0.929 . S
C77 C73 1.377 . S
C77 C76 1.394 . S
H78 C85 0.929 . S
H79 C88 0.930 . S
H80 C90 0.929 . S
H81 C82 0.969 . S
C82 H81 0.969 . S
C82 O83 1.550 . S
C82 H84 0.973 . S
O83 C82 1.550 . S
O83 C89 1.412 . S
H84 C82 0.973 . S
C85 H78 0.929 . S
C85 C86 1.400 . S
C85 C87 1.364 . S
C86 C85 1.400 . S
C86 C90 1.377 . S
C87 C85 1.364 . S
C87 C88 1.374 . S
C88 H79 0.930 . S
C88 C87 1.374 . S
C88 C89 1.383 . S
C89 O83 1.412 . S
C89 C88 1.383 . S
C89 C90 1.394 . S
C90 H80 0.929 . S
C90 C86 1.377 . S
C90 C89 1.394 . S
H91 C98 0.929 . S
H92 C101 0.930 . S
H93 C103 0.929 . S
H94 C95 0.969 . S
C95 H94 0.969 . S
C95 O96 1.550 . S
C95 H97 0.973 . S
O96 C95 1.550 . S
O96 C102 1.412 . S
H97 C95 0.973 . S
C98 H91 0.929 . S
C98 C99 1.400 . S
C98 C100 1.364 . S
C99 C98 1.400 . S
C99 C103 1.377 . S
C100 C98 1.364 . S
C100 C101 1.374 . S
C101 H92 0.930 . S
C101 C100 1.374 . S
C101 C102 1.383 . S
C102 O96 1.412 . S
C102 C101 1.383 . S
C102 C103 1.394 . S
C103 H93 0.929 . S
C103 C99 1.377 . S
C103 C102 1.394 . S
Nd104 C106 2.836 1_545 S
Nd104 O124 2.482 1_445 S
Nd104 O125 2.492 1_545 S
Nd104 O126 2.487 . S
Nd104 O127 2.682 . S
Nd104 O128 2.410 1_545 S
Nd104 O133 2.414 1_455 S
Nd104 O135 2.424 . S
Nd105 C115 2.836 . S
Nd105 O127 2.414 1_554 S
Nd105 O129 2.424 1_545 S
Nd105 O130 2.500 . S
Nd105 O131 2.492 . S
Nd105 O132 2.487 1_455 S
Nd105 O133 2.682 1_454 S
Nd105 O134 2.410 1_554 S
C106 Nd104 2.836 1_565 S
C106 C107 1.498 . S
C106 O124 1.226 1_455 S
C106 O125 1.239 . S
C107 C106 1.498 . S
C107 C108 1.366 1_455 S
C107 C112 1.407 . S
C108 C107 1.366 1_655 S
C108 C109 1.392 . S
C108 H136 0.930 . S
C109 C108 1.392 . S
C109 C110 1.398 1_655 S
C109 H137 0.929 . S
C110 C109 1.398 1_455 S
C110 C111 1.352 . S
C111 C110 1.352 . S
C111 C112 1.384 . S
C111 H138 0.930 . S
C112 C107 1.407 . S
C112 C111 1.384 . S
C112 H139 0.929 . S
C113 O126 1.241 . S
C113 O127 1.273 . S
C114 O128 1.251 . S
C114 O129 1.268 1_556 S
C115 Nd105 2.836 . S
C115 C116 1.498 . S
C115 O130 1.258 . S
C115 O131 1.239 . S
C116 C115 1.498 . S
C116 C117 1.366 . S
C116 C121 1.407 . S
C117 C116 1.366 . S
C117 C118 1.392 . S
C117 H140 0.930 . S
C118 C117 1.392 . S
C118 C119 1.398 . S
C118 H141 0.929 . S
C119 C118 1.398 . S
C119 C120 1.352 . S
C120 C119 1.352 . S
C120 C121 1.384 . S
C120 H142 0.930 . S
C121 C116 1.407 . S
C121 C120 1.384 . S
C121 H143 0.929 . S
C122 O132 1.241 1_556 S
C122 O133 1.273 . S
C123 O134 1.251 . S
C123 O135 1.268 . S
O124 Nd104 2.482 1_665 S
O124 C106 1.226 1_655 S
O125 Nd104 2.492 1_565 S
O125 C106 1.239 . S
O126 Nd104 2.487 . S
O126 C113 1.241 . S
O127 Nd104 2.682 . S
O127 Nd105 2.414 1_556 S
O127 C113 1.273 . S
O128 Nd104 2.410 1_565 S
O128 C114 1.251 . S
O129 Nd105 2.424 1_565 S
O129 C114 1.268 1_554 S
O130 Nd105 2.500 . S
O130 C115 1.258 . S
O131 Nd105 2.492 . S
O131 C115 1.239 . S
O132 Nd105 2.487 1_655 S
O132 C122 1.241 1_554 S
O133 Nd104 2.414 1_655 S
O133 Nd105 2.682 1_656 S
O133 C122 1.273 . S
O134 Nd105 2.410 1_556 S
O134 C123 1.251 . S
O135 Nd104 2.424 . S
O135 C123 1.268 . S
H136 C108 0.930 . S
H137 C109 0.929 . S
H138 C111 0.930 . S
H139 C112 0.929 . S
H140 C117 0.930 . S
H141 C118 0.929 . S
H142 C120 0.930 . S
H143 C121 0.929 . S
Nd144 C146 2.836 1_545 S
Nd144 O164 2.500 1_545 S
Nd144 O165 2.492 . S
Nd144 O166 2.487 . S
Nd144 O167 2.682 . S
Nd144 O168 2.410 . S
Nd144 O173 2.414 1_545 S
Nd144 O175 2.424 . S
Nd145 C155 2.836 . S
Nd145 O167 2.414 1_554 S
Nd145 O169 2.424 1_554 S
Nd145 O170 2.500 . S
Nd145 O171 2.492 . S
Nd145 O172 2.487 1_545 S
Nd145 O173 2.682 1_544 S
Nd145 O174 2.410 1_554 S
C146 Nd144 2.836 1_565 S
C146 C147 1.498 . S
C146 O164 1.258 . S
C146 O165 1.239 1_565 S
C147 C146 1.498 . S
C147 C148 1.366 . S
C147 C152 1.407 . S
C148 C147 1.366 . S
C148 C149 1.392 . S
C148 H176 0.930 . S
C149 C148 1.392 . S
C149 C150 1.398 . S
C149 H177 0.929 . S
C150 C149 1.398 . S
C150 C151 1.352 . S
C151 C150 1.352 . S
C151 C152 1.384 . S
C151 H178 0.930 . S
C152 C147 1.407 . S
C152 C151 1.384 . S
C152 H179 0.929 1_565 S
C153 O166 1.241 . S
C153 O167 1.273 . S
C154 O168 1.251 . S
C154 O169 1.268 . S
C155 Nd145 2.836 . S
C155 C156 1.498 . S
C155 O170 1.258 . S
C155 O171 1.239 . S
C156 C155 1.498 . S
C156 C157 1.366 . S
C156 C161 1.407 . S
C157 C156 1.366 . S
C157 C158 1.392 . S
C157 H180 0.930 . S
C158 C157 1.392 . S
C158 C159 1.398 . S
C158 H181 0.929 . S
C159 C158 1.398 . S
C159 C160 1.352 . S
C160 C159 1.352 . S
C160 C161 1.384 . S
C160 H182 0.930 . S
C161 C156 1.407 . S
C161 C160 1.384 . S
C161 H183 0.929 . S
C162 O172 1.241 . S
C162 O173 1.273 1_554 S
C163 O174 1.251 . S
C163 O175 1.268 . S
O164 Nd144 2.500 1_565 S
O164 C146 1.258 . S
O165 Nd144 2.492 . S
O165 C146 1.239 1_545 S
O166 Nd144 2.487 . S
O166 C153 1.241 . S
O167 Nd144 2.682 . S
O167 Nd145 2.414 1_556 S
O167 C153 1.273 . S
O168 Nd144 2.410 . S
O168 C154 1.251 . S
O169 Nd145 2.424 1_556 S
O169 C154 1.268 . S
O170 Nd145 2.500 . S
O170 C155 1.258 . S
O171 Nd145 2.492 . S
O171 C155 1.239 . S
O172 Nd145 2.487 1_565 S
O172 C162 1.241 . S
O173 Nd144 2.414 1_565 S
O173 Nd145 2.682 1_566 S
O173 C162 1.273 1_556 S
O174 Nd145 2.410 1_556 S
O174 C163 1.251 . S
O175 Nd144 2.424 . S
O175 C163 1.268 . S
H176 C148 0.930 . S
H177 C149 0.929 . S
H178 C151 0.930 . S
H179 C152 0.929 1_545 S
H180 C157 0.930 . S
H181 C158 0.929 . S
H182 C160 0.930 . S
H183 C161 0.929 . S
Nd184 C186 2.836 . S
Nd184 O204 2.500 . S
Nd184 O205 2.492 . S
Nd184 O206 2.487 1_554 S
Nd184 O207 2.682 1_554 S
Nd184 O208 2.410 1_554 S
Nd184 O213 2.414 1_554 S
Nd184 O215 2.424 . S
Nd185 C195 2.836 . S
Nd185 O207 2.414 . S
Nd185 O209 2.424 . S
Nd185 O210 2.500 . S
Nd185 O211 2.492 . S
Nd185 O212 2.487 . S
Nd185 O213 2.682 . S
Nd185 O214 2.410 . S
C186 Nd184 2.836 . S
C186 C187 1.498 . S
C186 O204 1.258 . S
C186 O205 1.239 . S
C187 C186 1.498 . S
C187 C188 1.366 . S
C187 C192 1.407 . S
C188 C187 1.366 . S
C188 C189 1.392 . S
C188 H216 0.930 . S
C189 C188 1.392 . S
C189 C190 1.398 . S
C189 H217 0.929 . S
C190 C189 1.398 . S
C190 C191 1.352 . S
C191 C190 1.352 . S
C191 C192 1.384 . S
C191 H218 0.930 . S
C192 C187 1.407 . S
C192 C191 1.384 . S
C192 H219 0.929 . S
C193 O206 1.241 . S
C193 O207 1.273 . S
C194 O208 1.251 . S
C194 O209 1.268 . S
C195 Nd185 2.836 . S
C195 C196 1.498 . S
C195 O210 1.258 . S
C195 O211 1.239 . S
C196 C195 1.498 . S
C196 C197 1.366 . S
C196 C201 1.407 . S
C197 C196 1.366 . S
C197 C198 1.392 . S
C197 H220 0.930 . S
C198 C197 1.392 . S
C198 C199 1.398 . S
C198 H221 0.929 . S
C199 C198 1.398 . S
C199 C200 1.352 . S
C200 C199 1.352 . S
C200 C201 1.384 . S
C200 H222 0.930 . S
C201 C196 1.407 . S
C201 C200 1.384 . S
C201 H223 0.929 . S
C202 O212 1.241 . S
C202 O213 1.273 . S
C203 O214 1.251 . S
C203 O215 1.268 1_556 S
O204 Nd184 2.500 . S
O204 C186 1.258 . S
O205 Nd184 2.492 . S
O205 C186 1.239 . S
O206 Nd184 2.487 1_556 S
O206 C193 1.241 . S
O207 Nd184 2.682 1_556 S
O207 Nd185 2.414 . S
O207 C193 1.273 . S
O208 Nd184 2.410 1_556 S
O208 C194 1.251 . S
O209 Nd185 2.424 . S
O209 C194 1.268 . S
O210 Nd185 2.500 . S
O210 C195 1.258 . S
O211 Nd185 2.492 . S
O211 C195 1.239 . S
O212 Nd185 2.487 . S
O212 C202 1.241 . S
O213 Nd184 2.414 1_556 S
O213 Nd185 2.682 . S
O213 C202 1.273 . S
O214 Nd185 2.410 . S
O214 C203 1.251 . S
O215 Nd184 2.424 . S
O215 C203 1.268 1_554 S
H216 C188 0.930 . S
H217 C189 0.929 . S
H218 C191 0.930 . S
H219 C192 0.929 . S
H220 C197 0.930 . S
H221 C198 0.929 . S
H222 C200 0.930 . S
H223 C201 0.929 . S
Nd224 C226 2.836 1_455 S
Nd224 O244 2.500 1_455 S
Nd224 O245 2.492 1_455 S
Nd224 O246 2.487 . S
Nd224 O247 2.682 . S
Nd224 O248 2.410 1_455 S
Nd224 O253 2.414 . S
Nd224 O255 2.424 . S
Nd225 C235 2.836 . S
Nd225 O247 2.414 1_554 S
Nd225 O249 2.424 1_454 S
Nd225 O250 2.500 . S
Nd225 O251 2.492 . S
Nd225 O252 2.487 . S
Nd225 O253 2.682 1_554 S
Nd225 O254 2.410 1_554 S
C226 Nd224 2.836 1_655 S
C226 C227 1.498 . S
C226 O244 1.258 . S
C226 O245 1.239 . S
C227 C226 1.498 . S
C227 C228 1.366 . S
C227 C232 1.407 . S
C228 C227 1.366 . S
C228 C229 1.392 . S
C228 H256 0.930 . S
C229 C228 1.392 . S
C229 C230 1.398 . S
C229 H257 0.929 . S
C230 C229 1.398 . S
C230 C231 1.352 . S
C231 C230 1.352 . S
C231 C232 1.384 . S
C231 H258 0.930 . S
C232 C227 1.407 . S
C232 C231 1.384 . S
C232 H259 0.929 . S
C233 O246 1.241 . S
C233 O247 1.273 . S
C234 O248 1.251 . S
C234 O249 1.268 . S
C235 Nd225 2.836 . S
C235 C236 1.498 . S
C235 O250 1.258 . S
C235 O251 1.239 . S
C236 C235 1.498 . S
C236 C237 1.366 . S
C236 C241 1.407 . S
C237 C236 1.366 . S
C237 C238 1.392 . S
C237 H260 0.930 . S
C238 C237 1.392 . S
C238 C239 1.398 . S
C238 H261 0.929 . S
C239 C238 1.398 . S
C239 C240 1.352 . S
C240 C239 1.352 . S
C240 C241 1.384 . S
C240 H262 0.930 . S
C241 C236 1.407 . S
C241 C240 1.384 . S
C241 H263 0.929 . S
C242 O252 1.241 1_556 S
C242 O253 1.273 . S
C243 O254 1.251 . S
C243 O255 1.268 . S
O244 Nd224 2.500 1_655 S
O244 C226 1.258 . S
O245 Nd224 2.492 1_655 S
O245 C226 1.239 . S
O246 Nd224 2.487 . S
O246 C233 1.241 . S
O247 Nd224 2.682 . S
O247 Nd225 2.414 1_556 S
O247 C233 1.273 . S
O248 Nd224 2.410 1_655 S
O248 C234 1.251 . S
O249 Nd225 2.424 1_656 S
O249 C234 1.268 . S
O250 Nd225 2.500 . S
O250 C235 1.258 . S
O251 Nd225 2.492 . S
O251 C235 1.239 . S
O252 Nd225 2.487 . S
O252 C242 1.241 1_554 S
O253 Nd224 2.414 . S
O253 Nd225 2.682 1_556 S
O253 C242 1.273 . S
O254 Nd225 2.410 1_556 S
O254 C243 1.251 . S
O255 Nd224 2.424 . S
O255 C243 1.268 . S
H256 C228 0.930 . S
H257 C229 0.929 . S
H258 C231 0.930 . S
H259 C232 0.929 . S
H260 C237 0.930 . S
H261 C238 0.929 . S
H262 C240 0.930 . S
H263 C241 0.929 . S
H264 C272 0.950 . S
H265 C277 0.950 . S
H266 C274 0.950 . S
H267 C276 0.950 . S
H268 C278 0.950 . S
H269 C280 0.950 . S
H270 C282 0.950 . S
H271 C283 0.950 . S
C272 H264 0.950 . S
C272 C273 1.386 . S
C272 C274 1.391 . S
C273 C272 1.386 . S
C273 C277 1.393 . S
C274 H266 0.950 . S
C274 C272 1.391 . S
C274 C275 1.400 . S
C275 C274 1.400 . S
C275 C276 1.398 . S
C275 C281 1.491 . S
C276 H267 0.950 . S
C276 C275 1.398 . S
C276 C277 1.391 . S
C277 H265 0.950 . S
C277 C273 1.393 . S
C277 C276 1.391 . S
C278 H268 0.950 . S
C278 C279 1.386 . S
C278 C280 1.391 . S
C279 C278 1.386 . S
C279 C283 1.393 . S
C280 H269 0.950 . S
C280 C278 1.391 . S
C280 C281 1.400 . S
C281 C275 1.491 . S
C281 C280 1.400 . S
C281 C282 1.398 . S
C282 H270 0.950 . S
C282 C281 1.398 . S
C282 C283 1.391 . S
C283 H271 0.950 . S
C283 C279 1.393 . S
C283 C282 1.391 . S
H284 C292 0.950 . S
H285 C297 0.950 . S
H286 C294 0.950 . S
H287 C296 0.950 . S
H288 C298 0.950 . S
H289 C300 0.950 . S
H290 C302 0.950 . S
H291 C303 0.950 . S
C292 H284 0.950 . S
C292 C293 1.386 . S
C292 C294 1.391 . S
C293 C292 1.386 . S
C293 C297 1.393 . S
C294 H286 0.950 . S
C294 C292 1.391 . S
C294 C295 1.400 . S
C295 C294 1.400 . S
C295 C296 1.398 . S
C295 C301 1.491 . S
C296 H287 0.950 . S
C296 C295 1.398 . S
C296 C297 1.391 . S
C297 H285 0.950 . S
C297 C293 1.393 . S
C297 C296 1.391 . S
C298 H288 0.950 . S
C298 C299 1.386 . S
C298 C300 1.391 . S
C299 C298 1.386 . S
C299 C303 1.393 . S
C300 H289 0.950 . S
C300 C298 1.391 . S
C300 C301 1.400 . S
C301 C295 1.491 . S
C301 C300 1.400 . S
C301 C302 1.398 . S
C302 H290 0.950 . S
C302 C301 1.398 . S
C302 C303 1.391 . S
C303 H291 0.950 . S
C303 C299 1.393 . S
C303 C302 1.391 . S
H304 C312 0.950 . S
H305 C317 0.950 . S
H306 C314 0.950 . S
H307 C316 0.950 . S
H308 C318 0.950 . S
H309 C320 0.950 . S
H310 C322 0.950 . S
H311 C323 0.950 1_554 S
C312 H304 0.950 . S
C312 C313 1.386 . S
C312 C314 1.391 . S
C313 C312 1.386 . S
C313 C317 1.393 . S
C314 H306 0.950 . S
C314 C312 1.391 . S
C314 C315 1.400 . S
C315 C314 1.400 . S
C315 C316 1.398 . S
C315 C321 1.491 . S
C316 H307 0.950 . S
C316 C315 1.398 . S
C316 C317 1.391 . S
C317 H305 0.950 . S
C317 C313 1.393 . S
C317 C316 1.391 . S
C318 H308 0.950 . S
C318 C319 1.386 . S
C318 C320 1.391 . S
C319 C318 1.386 . S
C319 C323 1.393 . S
C320 H309 0.950 . S
C320 C318 1.391 . S
C320 C321 1.400 . S
C321 C315 1.491 . S
C321 C320 1.400 . S
C321 C322 1.398 . S
C322 H310 0.950 . S
C322 C321 1.398 . S
C322 C323 1.391 . S
C323 H311 0.950 1_556 S
C323 C319 1.393 . S
C323 C322 1.391 . S
H324 C332 0.950 . S
H325 C337 0.950 . S
H326 C334 0.950 . S
H327 C336 0.950 . S
H328 C338 0.950 1_655 S
H329 C340 0.940 1_655 S
H330 C342 0.950 . S
H331 C343 0.950 . S
C332 H324 0.950 . S
C332 C333 1.386 . S
C332 C334 1.391 . S
C333 C332 1.386 . S
C333 C337 1.393 . S
C334 H326 0.950 . S
C334 C332 1.391 . S
C334 C335 1.400 . S
C335 C334 1.400 . S
C335 C336 1.398 . S
C335 C341 1.491 . S
C336 H327 0.950 . S
C336 C335 1.398 . S
C336 C337 1.391 . S
C337 H325 0.950 . S
C337 C333 1.393 . S
C337 C336 1.391 . S
C338 H328 0.950 1_455 S
C338 C339 1.386 . S
C338 C340 1.391 . S
C339 C338 1.386 . S
C339 C343 1.393 . S
C340 H329 0.940 1_455 S
C340 C338 1.391 . S
C340 C341 1.400 . S
C341 C335 1.491 . S
C341 C340 1.400 . S
C341 C342 1.398 . S
C342 H330 0.950 . S
C342 C341 1.398 . S
C342 C343 1.391 . S
C343 H331 0.950 . S
C343 C339 1.393 . S
C343 C342 1.391 . S
H344 C352 0.950 . S
H345 C357 0.950 . S
H346 C354 0.950 . S
H347 C356 0.950 . S
H348 C358 0.950 1_554 S
H349 C360 0.925 1_545 S
H350 C362 0.950 . S
H351 C363 0.950 . S
C352 H344 0.950 . S
C352 C353 1.386 1_556 S
C352 C354 1.391 . S
C353 C352 1.386 1_554 S
C353 C357 1.393 . S
C354 H346 0.950 . S
C354 C352 1.391 . S
C354 C355 1.400 . S
C355 C354 1.400 . S
C355 C356 1.398 1_556 S
C355 C361 1.491 . S
C356 H347 0.950 . S
C356 C355 1.398 1_554 S
C356 C357 1.391 . S
C357 H345 0.950 . S
C357 C353 1.393 . S
C357 C356 1.391 . S
C358 H348 0.950 1_556 S
C358 C359 1.386 1_545 S
C358 C360 1.385 1_546 S
C359 C358 1.386 1_565 S
C359 C363 1.393 . S
C360 H349 0.925 1_565 S
C360 C358 1.385 1_564 S
C360 C361 1.433 1_554 S
C361 C355 1.491 . S
C361 C360 1.433 1_556 S
C361 C362 1.398 . S
C362 H350 0.950 . S
C362 C361 1.398 . S
C362 C363 1.391 . S
C363 H351 0.950 . S
C363 C359 1.393 . S
C363 C362 1.391 . S
H364 C372 0.950 . S
H365 C377 0.950 . S
H366 C374 0.950 . S
H367 C376 0.950 . S
H368 C378 0.950 . S
H369 C380 0.950 . S
H370 C382 0.950 . S
H371 C383 0.950 . S
C372 H364 0.950 . S
C372 C373 1.386 . S
C372 C374 1.391 . S
C373 C372 1.386 . S
C373 C377 1.393 . S
C374 H366 0.950 . S
C374 C372 1.391 . S
C374 C375 1.400 . S
C375 C374 1.400 . S
C375 C376 1.398 . S
C375 C381 1.491 . S
C376 H367 0.950 . S
C376 C375 1.398 . S
C376 C377 1.391 . S
C377 H365 0.950 . S
C377 C373 1.393 . S
C377 C376 1.391 . S
C378 H368 0.950 . S
C378 C379 1.386 . S
C378 C380 1.391 . S
C379 C378 1.386 . S
C379 C383 1.393 . S
C380 H369 0.950 . S
C380 C378 1.391 . S
C380 C381 1.400 . S
C381 C375 1.491 . S
C381 C380 1.400 . S
C381 C382 1.398 . S
C382 H370 0.950 . S
C382 C381 1.398 . S
C382 C383 1.391 . S
C383 H371 0.950 . S
C383 C379 1.393 . S
C383 C382 1.391 . S
H384 C392 0.950 . S
H385 C397 0.950 . S
H386 C394 0.950 . S
H387 C396 0.950 . S
H388 C398 0.950 1_554 S
H389 C400 0.950 1_554 S
H390 C402 0.950 . S
H391 C403 0.950 . S
C392 H384 0.950 . S
C392 C393 1.386 . S
C392 C394 1.391 . S
C393 C392 1.386 . S
C393 C397 1.393 1_556 S
C394 H386 0.950 . S
C394 C392 1.391 . S
C394 C395 1.400 . S
C395 C394 1.400 . S
C395 C396 1.398 1_556 S
C395 C401 1.491 . S
C396 H387 0.950 . S
C396 C395 1.398 1_554 S
C396 C397 1.391 . S
C397 H385 0.950 . S
C397 C393 1.393 1_554 S
C397 C396 1.391 . S
C398 H388 0.950 1_556 S
C398 C399 1.386 . S
C398 C400 1.391 . S
C399 C398 1.386 . S
C399 C403 1.393 . S
C400 H389 0.950 1_556 S
C400 C398 1.391 . S
C400 C401 1.400 . S
C401 C395 1.491 . S
C401 C400 1.400 . S
C401 C402 1.398 . S
C402 H390 0.950 . S
C402 C401 1.398 . S
C402 C403 1.391 . S
C403 H391 0.950 . S
C403 C399 1.393 . S
C403 C402 1.391 . S
H404 C412 0.950 . S
H405 C417 0.950 . S
H406 C414 0.950 . S
H407 C416 0.950 . S
H408 C418 0.950 . S
H409 C420 0.971 . S
H410 C422 0.950 . S
H411 C423 0.950 . S
C412 H404 0.950 . S
C412 C413 1.409 . S
C412 C414 1.391 . S
C413 C412 1.409 . S
C413 C417 1.383 1_454 S
C414 H406 0.950 . S
C414 C412 1.391 . S
C414 C415 1.400 . S
C415 C414 1.400 . S
C415 C416 1.398 1_454 S
C415 C421 1.491 1_554 S
C416 H407 0.950 . S
C416 C415 1.398 1_656 S
C416 C417 1.391 . S
C417 H405 0.950 . S
C417 C413 1.383 1_656 S
C417 C416 1.391 . S
C418 H408 0.950 . S
C418 C419 1.386 . S
C418 C420 1.391 . S
C419 C418 1.386 . S
C419 C423 1.393 1_556 S
C420 H409 0.971 . S
C420 C418 1.391 . S
C420 C421 1.400 . S
C421 C415 1.491 1_556 S
C421 C420 1.400 . S
C421 C422 1.398 1_556 S
C422 H410 0.950 . S
C422 C421 1.398 1_554 S
C422 C423 1.391 . S
C423 H411 0.950 . S
C423 C419 1.393 1_554 S
C423 C422 1.391 . S
H424 C432 0.950 . S
H425 C437 0.950 . S
H426 C434 0.950 . S
H427 C436 0.950 . S
H428 C438 0.950 1_655 S
H429 C440 0.950 . S
H430 C442 0.950 . S
H431 C443 0.950 . S
C432 H424 0.950 . S
C432 C433 1.386 . S
C432 C434 1.391 . S
C433 C432 1.386 . S
C433 C437 1.393 . S
C434 H426 0.950 . S
C434 C432 1.391 . S
C434 C435 1.400 . S
C435 C434 1.400 . S
C435 C436 1.398 . S
C435 C441 1.491 . S
C436 H427 0.950 . S
C436 C435 1.398 . S
C436 C437 1.391 . S
C437 H425 0.950 . S
C437 C433 1.393 . S
C437 C436 1.391 . S
C438 H428 0.950 1_455 S
C438 C439 1.386 . S
C438 C440 1.391 . S
C439 C438 1.386 . S
C439 C443 1.393 . S
C440 H429 0.950 . S
C440 C438 1.391 . S
C440 C441 1.400 . S
C441 C435 1.491 . S
C441 C440 1.400 . S
C441 C442 1.398 . S
C442 H430 0.950 . S
C442 C441 1.398 . S
C442 C443 1.391 . S
C443 H431 0.950 . S
C443 C439 1.393 . S
C443 C442 1.391 . S
H444 C452 0.950 . S
H445 C457 0.950 . S
H446 C454 0.950 . S
H447 C456 0.950 . S
H448 C458 0.950 . S
H449 C460 0.950 . S
H450 C462 0.950 . S
H451 C463 0.950 . S
C452 H444 0.950 . S
C452 C453 1.386 . S
C452 C454 1.391 . S
C453 C452 1.386 . S
C453 C457 1.393 . S
C454 H446 0.950 . S
C454 C452 1.391 . S
C454 C455 1.400 . S
C455 C454 1.400 . S
C455 C456 1.398 . S
C455 C461 1.491 . S
C456 H447 0.950 . S
C456 C455 1.398 . S
C456 C457 1.391 . S
C457 H445 0.950 . S
C457 C453 1.393 . S
C457 C456 1.391 . S
C458 H448 0.950 . S
C458 C459 1.386 . S
C458 C460 1.391 . S
C459 C458 1.386 . S
C459 C463 1.393 . S
C460 H449 0.950 . S
C460 C458 1.391 . S
C460 C461 1.400 . S
C461 C455 1.491 . S
C461 C460 1.400 . S
C461 C462 1.398 . S
C462 H450 0.950 . S
C462 C461 1.398 . S
C462 C463 1.391 . S
C463 H451 0.950 . S
C463 C459 1.393 . S
C463 C462 1.391 . S
H464 C472 0.950 . S
H465 C477 0.950 . S
H466 C474 0.950 . S
H467 C476 0.950 . S
H468 C478 0.950 . S
H469 C480 0.950 . S
H470 C482 0.950 . S
H471 C483 0.950 . S
C472 H464 0.950 . S
C472 C473 1.386 . S
C472 C474 1.391 . S
C473 C472 1.386 . S
C473 C477 1.393 . S
C474 H466 0.950 . S
C474 C472 1.391 . S
C474 C475 1.400 . S
C475 C474 1.400 . S
C475 C476 1.398 . S
C475 C481 1.491 . S
C476 H467 0.950 . S
C476 C475 1.398 . S
C476 C477 1.391 . S
C477 H465 0.950 . S
C477 C473 1.393 . S
C477 C476 1.391 . S
C478 H468 0.950 . S
C478 C479 1.386 . S
C478 C480 1.391 . S
C479 C478 1.386 . S
C479 C483 1.393 . S
C480 H469 0.950 . S
C480 C478 1.391 . S
C480 C481 1.400 . S
C481 C475 1.491 . S
C481 C480 1.400 . S
C481 C482 1.398 . S
C482 H470 0.950 . S
C482 C481 1.398 . S
C482 C483 1.391 . S
C483 H471 0.950 . S
C483 C479 1.393 . S
C483 C482 1.391 . S
H484 C492 0.950 1_554 S
H485 C497 0.950 . S
H486 C494 0.950 1_554 S
H487 C496 0.950 . S
H488 C498 0.950 . S
H489 C500 0.950 . S
H490 C502 0.945 1_554 S
H491 C503 0.950 1_554 S
C492 H484 0.950 1_556 S
C492 C493 1.386 . S
C492 C494 1.391 . S
C493 C492 1.386 . S
C493 C497 1.393 . S
C494 H486 0.950 1_556 S
C494 C492 1.391 . S
C494 C495 1.400 . S
C495 C494 1.400 . S
C495 C496 1.398 . S
C495 C501 1.491 . S
C496 H487 0.950 . S
C496 C495 1.398 . S
C496 C497 1.391 . S
C497 H485 0.950 . S
C497 C493 1.393 . S
C497 C496 1.391 . S
C498 H488 0.950 . S
C498 C499 1.386 . S
C498 C500 1.391 . S
C499 C498 1.386 . S
C499 C503 1.393 . S
C500 H489 0.950 . S
C500 C498 1.391 . S
C500 C501 1.400 . S
C501 C495 1.491 . S
C501 C500 1.400 . S
C501 C502 1.398 . S
C502 H490 0.945 1_556 S
C502 C501 1.398 . S
C502 C503 1.391 . S
C503 H491 0.950 1_556 S
C503 C499 1.393 . S
C503 C502 1.391 . S
H504 C512 0.950 . S
H505 C517 0.951 . S
H506 C514 0.950 . S
H507 C516 0.950 . S
H508 C518 0.950 . S
H509 C520 0.950 . S
H510 C522 0.950 . S
H511 C523 0.950 . S
C512 H504 0.950 . S
C512 C513 1.386 . S
C512 C514 1.391 . S
C513 C512 1.386 . S
C513 C517 1.393 1_554 S
C514 H506 0.950 . S
C514 C512 1.391 . S
C514 C515 1.400 . S
C515 C514 1.400 . S
C515 C516 1.398 1_554 S
C515 C521 1.491 1_554 S
C516 H507 0.950 . S
C516 C515 1.398 1_556 S
C516 C517 1.391 . S
C517 H505 0.951 . S
C517 C513 1.393 1_556 S
C517 C516 1.391 . S
C518 H508 0.950 . S
C518 C519 1.386 . S
C518 C520 1.391 . S
C519 C518 1.386 . S
C519 C523 1.393 1_556 S
C520 H509 0.950 . S
C520 C518 1.391 . S
C520 C521 1.400 . S
C521 C515 1.491 1_556 S
C521 C520 1.400 . S
C521 C522 1.398 1_556 S
C522 H510 0.950 . S
C522 C521 1.398 1_554 S
C522 C523 1.391 . S
C523 H511 0.950 . S
C523 C519 1.393 1_554 S
C523 C522 1.391 . S
H524 C532 0.950 . S
H525 C537 0.950 . S
H526 C534 0.950 . S
H527 C536 0.950 . S
H528 C538 0.950 1_554 S
H529 C540 0.950 . S
H530 C542 0.950 . S
H531 C543 0.950 . S
C532 H524 0.950 . S
C532 C533 1.386 1_556 S
C532 C534 1.391 . S
C533 C532 1.386 1_554 S
C533 C537 1.393 . S
C534 H526 0.950 . S
C534 C532 1.391 . S
C534 C535 1.400 . S
C535 C534 1.400 . S
C535 C536 1.398 1_556 S
C535 C541 1.491 . S
C536 H527 0.950 . S
C536 C535 1.398 1_554 S
C536 C537 1.391 . S
C537 H525 0.950 . S
C537 C533 1.393 . S
C537 C536 1.391 . S
C538 H528 0.950 1_556 S
C538 C539 1.386 1_565 S
C538 C540 1.391 1_556 S
C539 C538 1.386 1_545 S
C539 C543 1.393 . S
C540 H529 0.950 . S
C540 C538 1.391 1_554 S
C540 C541 1.400 1_554 S
C541 C535 1.491 . S
C541 C540 1.400 1_556 S
C541 C542 1.398 1_565 S
C542 H530 0.950 . S
C542 C541 1.398 1_545 S
C542 C543 1.391 . S
C543 H531 0.950 . S
C543 C539 1.393 . S
C543 C542 1.391 . S
H544 C552 0.950 . S
H545 C557 0.950 . S
H546 C554 0.950 . S
H547 C556 0.950 . S
H548 C558 0.950 . S
H549 C560 0.950 . S
H550 C562 0.950 . S
H551 C563 0.950 . S
C552 H544 0.950 . S
C552 C553 1.386 . S
C552 C554 1.391 . S
C553 C552 1.386 . S
C553 C557 1.393 . S
C554 H546 0.950 . S
C554 C552 1.391 . S
C554 C555 1.400 . S
C555 C554 1.400 . S
C555 C556 1.398 . S
C555 C561 1.491 . S
C556 H547 0.950 . S
C556 C555 1.398 . S
C556 C557 1.391 . S
C557 H545 0.950 . S
C557 C553 1.393 . S
C557 C556 1.391 . S
C558 H548 0.950 . S
C558 C559 1.386 . S
C558 C560 1.391 . S
C559 C558 1.386 . S
C559 C563 1.393 . S
C560 H549 0.950 . S
C560 C558 1.391 . S
C560 C561 1.400 . S
C561 C555 1.491 . S
C561 C560 1.400 . S
C561 C562 1.398 . S
C562 H550 0.950 . S
C562 C561 1.398 . S
C562 C563 1.391 . S
C563 H551 0.950 . S
C563 C559 1.393 . S
C563 C562 1.391 . S
H564 C572 0.950 1_554 S
H565 C577 0.950 . S
H566 C574 0.950 1_554 S
H567 C576 0.950 . S
H568 C578 0.950 . S
H569 C580 0.950 . S
H570 C582 0.950 1_554 S
H571 C583 0.950 1_554 S
C572 H564 0.950 1_556 S
C572 C573 1.386 . S
C572 C574 1.391 . S
C573 C572 1.386 . S
C573 C577 1.393 . S
C574 H566 0.950 1_556 S
C574 C572 1.391 . S
C574 C575 1.400 . S
C575 C574 1.400 . S
C575 C576 1.398 . S
C575 C581 1.491 . S
C576 H567 0.950 . S
C576 C575 1.398 . S
C576 C577 1.391 . S
C577 H565 0.950 . S
C577 C573 1.393 . S
C577 C576 1.391 . S
C578 H568 0.950 . S
C578 C579 1.386 . S
C578 C580 1.391 . S
C579 C578 1.386 . S
C579 C583 1.393 . S
C580 H569 0.950 . S
C580 C578 1.391 . S
C580 C581 1.400 . S
C581 C575 1.491 . S
C581 C580 1.400 . S
C581 C582 1.398 . S
C582 H570 0.950 1_556 S
C582 C581 1.398 . S
C582 C583 1.391 . S
C583 H571 0.950 1_556 S
C583 C579 1.393 . S
C583 C582 1.391 . S
H584 C592 0.950 . S
H585 C597 0.950 . S
H586 C594 0.950 . S
H587 C596 0.950 . S
H588 C598 0.950 . S
H589 C600 0.950 . S
H590 C602 0.950 . S
H591 C603 0.950 . S
C592 H584 0.950 . S
C592 C593 1.386 . S
C592 C594 1.391 . S
C593 C592 1.386 . S
C593 C597 1.393 . S
C594 H586 0.950 . S
C594 C592 1.391 . S
C594 C595 1.400 . S
C595 C594 1.400 . S
C595 C596 1.398 . S
C595 C601 1.491 . S
C596 H587 0.950 . S
C596 C595 1.398 . S
C596 C597 1.391 . S
C597 H585 0.950 . S
C597 C593 1.393 . S
C597 C596 1.391 . S
C598 H588 0.950 . S
C598 C599 1.386 . S
C598 C600 1.391 . S
C599 C598 1.386 . S
C599 C603 1.393 . S
C600 H589 0.950 . S
C600 C598 1.391 . S
C600 C601 1.400 . S
C601 C595 1.491 . S
C601 C600 1.400 . S
C601 C602 1.398 . S
C602 H590 0.950 . S
C602 C601 1.398 . S
C602 C603 1.391 . S
C603 H591 0.950 . S
C603 C599 1.393 . S
C603 C602 1.391 . S
H604 C612 0.950 . S
H605 C617 0.950 . S
H606 C614 0.950 . S
H607 C616 0.950 . S
H608 C618 0.950 . S
H609 C620 0.950 . S
H610 C622 0.950 . S
H611 C623 0.950 . S
C612 H604 0.950 . S
C612 C613 1.386 . S
C612 C614 1.391 . S
C613 C612 1.386 . S
C613 C617 1.393 . S
C614 H606 0.950 . S
C614 C612 1.391 . S
C614 C615 1.400 . S
C615 C614 1.400 . S
C615 C616 1.398 . S
C615 C621 1.491 . S
C616 H607 0.950 . S
C616 C615 1.398 . S
C616 C617 1.391 . S
C617 H605 0.950 . S
C617 C613 1.393 . S
C617 C616 1.391 . S
C618 H608 0.950 . S
C618 C619 1.386 . S
C618 C620 1.391 . S
C619 C618 1.386 . S
C619 C623 1.393 . S
C620 H609 0.950 . S
C620 C618 1.391 . S
C620 C621 1.400 . S
C621 C615 1.491 . S
C621 C620 1.400 . S
C621 C622 1.398 . S
C622 H610 0.950 . S
C622 C621 1.398 . S
C622 C623 1.391 . S
C623 H611 0.950 . S
C623 C619 1.393 . S
C623 C622 1.391 . S
H624 C632 0.950 . S
H625 C637 0.950 . S
H626 C634 0.950 . S
H627 C636 0.950 . S
H628 C638 0.950 1_556 S
H629 C640 0.950 . S
H630 C642 0.950 . S
H631 C643 0.950 . S
C632 H624 0.950 . S
C632 C633 1.386 . S
C632 C634 1.391 . S
C633 C632 1.386 . S
C633 C637 1.393 . S
C634 H626 0.950 . S
C634 C632 1.391 . S
C634 C635 1.400 . S
C635 C634 1.400 . S
C635 C636 1.398 . S
C635 C641 1.491 . S
C636 H627 0.950 . S
C636 C635 1.398 . S
C636 C637 1.391 . S
C637 H625 0.950 . S
C637 C633 1.393 . S
C637 C636 1.391 . S
C638 H628 0.950 1_554 S
C638 C639 1.386 . S
C638 C640 1.391 . S
C639 C638 1.386 . S
C639 C643 1.393 . S
C640 H629 0.950 . S
C640 C638 1.391 . S
C640 C641 1.400 . S
C641 C635 1.491 . S
C641 C640 1.400 . S
C641 C642 1.398 . S
C642 H630 0.950 . S
C642 C641 1.398 . S
C642 C643 1.391 . S
C643 H631 0.950 . S
C643 C639 1.393 . S
C643 C642 1.391 . S
H644 C652 0.950 . S
H645 C657 0.950 . S
H646 C654 0.950 . S
H647 C656 0.950 . S
H648 C658 0.950 . S
H649 C660 0.950 . S
H650 C662 0.950 . S
H651 C663 0.950 . S
C652 H644 0.950 . S
C652 C653 1.386 . S
C652 C654 1.391 . S
C653 C652 1.386 . S
C653 C657 1.393 . S
C654 H646 0.950 . S
C654 C652 1.391 . S
C654 C655 1.400 . S
C655 C654 1.400 . S
C655 C656 1.398 . S
C655 C661 1.491 . S
C656 H647 0.950 . S
C656 C655 1.398 . S
C656 C657 1.391 . S
C657 H645 0.950 . S
C657 C653 1.393 . S
C657 C656 1.391 . S
C658 H648 0.950 . S
C658 C659 1.386 . S
C658 C660 1.391 . S
C659 C658 1.386 . S
C659 C663 1.393 . S
C660 H649 0.950 . S
C660 C658 1.391 . S
C660 C661 1.400 . S
C661 C655 1.491 . S
C661 C660 1.400 . S
C661 C662 1.398 . S
C662 H650 0.950 . S
C662 C661 1.398 . S
C662 C663 1.391 . S
C663 H651 0.950 . S
C663 C659 1.393 . S
C663 C662 1.391 . S
H664 C672 0.950 . S
H665 C677 0.950 . S
H666 C674 0.950 . S
H667 C676 0.950 . S
H668 C678 0.950 . S
H669 C680 0.950 . S
H670 C682 0.950 . S
H671 C683 0.950 . S
C672 H664 0.950 . S
C672 C673 1.370 1_455 S
C672 C674 1.391 . S
C673 C672 1.370 1_655 S
C673 C677 1.410 . S
C674 H666 0.950 . S
C674 C672 1.391 . S
C674 C675 1.440 . S
C675 C674 1.440 . S
C675 C676 1.364 1_455 S
C675 C681 1.487 . S
C676 H667 0.950 . S
C676 C675 1.364 1_655 S
C676 C677 1.391 . S
C677 H665 0.950 . S
C677 C673 1.410 . S
C677 C676 1.391 . S
C678 H668 0.950 . S
C678 C679 1.386 1_655 S
C678 C680 1.391 . S
C679 C678 1.386 1_455 S
C679 C683 1.393 . S
C680 H669 0.950 . S
C680 C678 1.391 . S
C680 C681 1.400 1_655 S
C681 C675 1.487 . S
C681 C680 1.400 1_455 S
C681 C682 1.398 . S
C682 H670 0.950 . S
C682 C681 1.398 . S
C682 C683 1.391 . S
C683 H671 0.950 . S
C683 C679 1.393 . S
C683 C682 1.391 . S
H684 C692 0.950 . S
H685 C697 0.950 . S
H686 C694 0.950 . S
H687 C696 0.950 . S
H688 C698 0.950 . S
H689 C700 0.950 . S
H690 C702 0.950 . S
H691 C703 0.950 . S
C692 H684 0.950 . S
C692 C693 1.386 . S
C692 C694 1.391 . S
C693 C692 1.386 . S
C693 C697 1.393 . S
C694 H686 0.950 . S
C694 C692 1.391 . S
C694 C695 1.400 . S
C695 C694 1.400 . S
C695 C696 1.398 . S
C695 C701 1.491 . S
C696 H687 0.950 . S
C696 C695 1.398 . S
C696 C697 1.391 . S
C697 H685 0.950 . S
C697 C693 1.393 . S
C697 C696 1.391 . S
C698 H688 0.950 . S
C698 C699 1.386 . S
C698 C700 1.391 . S
C699 C698 1.386 . S
C699 C703 1.393 . S
C700 H689 0.950 . S
C700 C698 1.391 . S
C700 C701 1.400 . S
C701 C695 1.491 . S
C701 C700 1.400 . S
C701 C702 1.398 . S
C702 H690 0.950 . S
C702 C701 1.398 . S
C702 C703 1.391 . S
C703 H691 0.950 . S
C703 C699 1.393 . S
C703 C702 1.391 . S
H704 C712 0.950 . S
H705 C717 0.950 . S
H706 C714 0.950 . S
H707 C716 0.950 . S
H708 C718 0.950 . S
H709 C720 0.950 . S
H710 C722 0.950 . S
H711 C723 0.950 . S
C712 H704 0.950 . S
C712 C713 1.386 . S
C712 C714 1.391 . S
C713 C712 1.386 . S
C713 C717 1.393 . S
C714 H706 0.950 . S
C714 C712 1.391 . S
C714 C715 1.400 . S
C715 C714 1.400 . S
C715 C716 1.398 . S
C715 C721 1.491 . S
C716 H707 0.950 . S
C716 C715 1.398 . S
C716 C717 1.391 . S
C717 H705 0.950 . S
C717 C713 1.393 . S
C717 C716 1.391 . S
C718 H708 0.950 . S
C718 C719 1.386 . S
C718 C720 1.391 . S
C719 C718 1.386 . S
C719 C723 1.393 . S
C720 H709 0.950 . S
C720 C718 1.391 . S
C720 C721 1.400 . S
C721 C715 1.491 . S
C721 C720 1.400 . S
C721 C722 1.398 . S
C722 H710 0.950 . S
C722 C721 1.398 . S
C722 C723 1.391 . S
C723 H711 0.950 . S
C723 C719 1.393 . S
C723 C722 1.391 . S
H724 C732 0.950 . S
H725 C737 0.950 . S
H726 C734 0.950 . S
H727 C736 0.950 . S
H728 C738 0.950 . S
H729 C740 0.950 . S
H730 C742 0.950 . S
H731 C743 0.950 . S
C732 H724 0.950 . S
C732 C733 1.386 . S
C732 C734 1.391 . S
C733 C732 1.386 . S
C733 C737 1.393 . S
C734 H726 0.950 . S
C734 C732 1.391 . S
C734 C735 1.400 . S
C735 C734 1.400 . S
C735 C736 1.398 . S
C735 C741 1.491 . S
C736 H727 0.950 . S
C736 C735 1.398 . S
C736 C737 1.391 . S
C737 H725 0.950 . S
C737 C733 1.393 . S
C737 C736 1.391 . S
C738 H728 0.950 . S
C738 C739 1.386 . S
C738 C740 1.391 . S
C739 C738 1.386 . S
C739 C743 1.393 . S
C740 H729 0.950 . S
C740 C738 1.391 . S
C740 C741 1.400 . S
C741 C735 1.491 . S
C741 C740 1.400 . S
C741 C742 1.398 . S
C742 H730 0.950 . S
C742 C741 1.398 . S
C742 C743 1.391 . S
C743 H731 0.950 . S
C743 C739 1.393 . S
C743 C742 1.391 . S
C273 C82 1.700 . S
C279 C113 1.666 . S
C299 C153 1.309 . S
C293 C95 1.221 . S
C319 C202 1.331 . S
C313 C56 1.349 . S
C339 C233 1.662 . S
C333 C69 1.692 . S
C359 C122 1.662 1_565 S
C353 C30 1.591 . S
C373 C43 1.260 . S
C379 C162 1.314 . S
C393 C4 1.311 . S
C399 C193 1.323 . S
C413 C17 1.646 . S
C419 C242 1.655 . S
C439 C123 0.941 . S
C433 C74 0.917 . S
C459 C163 1.487 . S
C453 C87 1.343 . S
C479 C199 0.786 . S
C473 C100 0.763 . S
C493 C61 1.041 . S
C499 C243 1.130 . S
C513 C22 0.888 1_455 S
C519 C114 0.942 . S
C539 C154 1.491 . S
C533 C35 1.355 . S
C559 C190 0.770 . S
C553 C48 0.781 . S
C573 C9 1.015 . S
C579 C234 1.131 . S
C593 C73 1.621 . S
C599 C119 1.662 . S
C613 C86 1.425 . S
C619 C159 1.413 . S
C639 C203 1.934 1_554 S
C633 C99 1.804 . S
C659 C239 1.419 . S
C653 C60 1.436 . S
C673 C21 1.618 . S
C679 C110 1.665 . S
C699 C150 1.429 . S
C693 C34 1.415 . S
C719 C194 1.937 . S
C713 C47 1.782 . S
C733 C8 1.424 . S
C739 C230 1.432 . S
