# Generated by pormake.
# Topology cml, (3,6)-cn, num edge types: 1
# Building blocks:
#     Node 0, Type 0, BuildingBlock: BELTOD_clean_linker_0, # of connection points: 3
#     Node 1, Type 0, BuildingBlock: BELTOD_clean_linker_0, # of connection points: 3
#     Node 2, Type 0, BuildingBlock: BELTOD_clean_linker_0, # of connection points: 3
#     Node 3, Type 0, BuildingBlock: BELTOD_clean_linker_0, # of connection points: 3
#     Node 4, Type 0, BuildingBlock: BELTOD_clean_linker_0, # of connection points: 3
#     Node 5, Type 0, BuildingBlock: BELTOD_clean_linker_0, # of connection points: 3
#     Node 6, Type 0, BuildingBlock: BELTOD_clean_linker_0, # of connection points: 3
#     Node 7, Type 0, BuildingBlock: BELTOD_clean_linker_0, # of connection points: 3
#     Node 8, Type 1, BuildingBlock: IZENUY_clean_sbu_0, # of connection points: 6
#     Node 9, Type 1, BuildingBlock: IZENUY_clean_sbu_0, # of connection points: 6
#     Node 10, Type 1, BuildingBlock: IZENUY_clean_sbu_0, # of connection points: 6
#     Node 11, Type 1, BuildingBlock: IZENUY_clean_sbu_0, # of connection points: 6
#     Edge 12, Type (0, 1), BuildingBlock: KIFKEQ_clean_linker_1, # of connection points: 2
#     Edge 13, Type (0, 1), BuildingBlock: KIFKEQ_clean_linker_1, # of connection points: 2
#     Edge 14, Type (0, 1), BuildingBlock: KIFKEQ_clean_linker_1, # of connection points: 2
#     Edge 15, Type (0, 1), BuildingBlock: KIFKEQ_clean_linker_1, # of connection points: 2
#     Edge 16, Type (0, 1), BuildingBlock: KIFKEQ_clean_linker_1, # of connection points: 2
#     Edge 17, Type (0, 1), BuildingBlock: KIFKEQ_clean_linker_1, # of connection points: 2
#     Edge 18, Type (0, 1), BuildingBlock: KIFKEQ_clean_linker_1, # of connection points: 2
#     Edge 19, Type (0, 1), BuildingBlock: KIFKEQ_clean_linker_1, # of connection points: 2
#     Edge 20, Type (0, 1), BuildingBlock: KIFKEQ_clean_linker_1, # of connection points: 2
#     Edge 21, Type (0, 1), BuildingBlock: KIFKEQ_clean_linker_1, # of connection points: 2
#     Edge 22, Type (0, 1), BuildingBlock: KIFKEQ_clean_linker_1, # of connection points: 2
#     Edge 23, Type (0, 1), BuildingBlock: KIFKEQ_clean_linker_1, # of connection points: 2
#     Edge 24, Type (0, 1), BuildingBlock: KIFKEQ_clean_linker_1, # of connection points: 2
#     Edge 25, Type (0, 1), BuildingBlock: KIFKEQ_clean_linker_1, # of connection points: 2
#     Edge 26, Type (0, 1), BuildingBlock: KIFKEQ_clean_linker_1, # of connection points: 2
#     Edge 27, Type (0, 1), BuildingBlock: KIFKEQ_clean_linker_1, # of connection points: 2
#     Edge 28, Type (0, 1), BuildingBlock: KIFKEQ_clean_linker_1, # of connection points: 2
#     Edge 29, Type (0, 1), BuildingBlock: KIFKEQ_clean_linker_1, # of connection points: 2
#     Edge 30, Type (0, 1), BuildingBlock: KIFKEQ_clean_linker_1, # of connection points: 2
#     Edge 31, Type (0, 1), BuildingBlock: KIFKEQ_clean_linker_1, # of connection points: 2
#     Edge 32, Type (0, 1), BuildingBlock: KIFKEQ_clean_linker_1, # of connection points: 2
#     Edge 33, Type (0, 1), BuildingBlock: KIFKEQ_clean_linker_1, # of connection points: 2
#     Edge 34, Type (0, 1), BuildingBlock: KIFKEQ_clean_linker_1, # of connection points: 2
#     Edge 35, Type (0, 1), BuildingBlock: KIFKEQ_clean_linker_1, # of connection points: 2
# Relax obj value: 0.049
# Max RMSD: 0.063
# Mean RMSD: 0.061
data_MOF--net-cml--node1-IZENUY_clean_sbu_0--node2-BELTOD_clean_linker_0--edge1-KIFKEQ_clean_linker_1
_symmetry_space_group_name_H-M    P1
_symmetry_Int_Tables_number       1
_symmetry_cell_setting            triclinic
loop_
_symmetry_equiv_pos_as_xyz
'x, y, z'
_cell_length_a     41.031468
_cell_length_b     47.580664
_cell_length_c     43.77154
_cell_angle_alpha  89.608611
_cell_angle_beta   89.745832
_cell_angle_gamma 90.049575
loop_
_atom_site_label
_atom_site_type_symbol
_atom_site_fract_x
_atom_site_fract_y
_atom_site_fract_z
_atom_type_partial_charge
P0 P 0.32476 0.34855 0.97946 0.0
H1 H 0.37835 0.32412 0.01416 0.0
H2 H 0.39093 0.32304 0.06829 0.0
H3 H 0.29934 0.36425 0.08803 0.0
H4 H 0.28769 0.36637 0.0332 0.0
H5 H 0.29138 0.35003 0.92117 0.0
H6 H 0.24247 0.32665 0.90233 0.0
H7 H 0.2252 0.2917 0.99241 0.0
H8 H 0.27469 0.31415 0.01064 0.0
H9 H 0.38124 0.3846 0.97687 0.0
H10 H 0.27752 0.39352 0.96449 0.0
O11 O 0.35374 0.33131 0.9604 0.0
H12 H 0.38878 0.43441 0.96531 0.0
H13 H 0.28497 0.44358 0.95249 0.0
C14 C 0.33181 0.34485 0.01977 0.0
C15 C 0.36074 0.3326 0.03011 0.0
C16 C 0.36782 0.33186 0.06123 0.0
C17 C 0.34601 0.3433 0.08271 0.0
C18 C 0.31681 0.35541 0.07218 0.0
C19 C 0.30994 0.35639 0.04091 0.0
C20 C 0.28633 0.33432 0.96741 0.0
C21 C 0.27674 0.33766 0.93693 0.0
C22 C 0.24871 0.32434 0.92623 0.0
C23 C 0.22986 0.30728 0.94585 0.0
C24 C 0.23934 0.30442 0.97658 0.0
C25 C 0.26749 0.3176 0.98718 0.0
C26 C 0.329 0.38528 0.9707 0.0
C27 C 0.36009 0.39732 0.97155 0.0
C28 C 0.36431 0.42584 0.96528 0.0
C29 C 0.33742 0.44288 0.95805 0.0
C30 C 0.30611 0.43086 0.95777 0.0
C31 C 0.30188 0.40226 0.96444 0.0
P32 P 0.75138 0.5967 0.52739 0.0
H33 H 0.75553 0.57857 0.46328 0.0
H34 H 0.72237 0.54621 0.43305 0.0
H35 H 0.65866 0.53329 0.51065 0.0
H36 H 0.69147 0.56569 0.54055 0.0
H37 H 0.81331 0.62421 0.53769 0.0
H38 H 0.8442 0.65947 0.50929 0.0
H39 H 0.76673 0.66484 0.44281 0.0
H40 H 0.73514 0.63052 0.47259 0.0
H41 H 0.76049 0.59628 0.59372 0.0
H42 H 0.69202 0.63071 0.52914 0.0
O43 O 0.77932 0.575 0.54193 0.0
H44 H 0.72642 0.61226 0.63595 0.0
H45 H 0.65779 0.6472 0.57145 0.0
C46 C 0.72527 0.57548 0.50383 0.0
C47 C 0.73392 0.56939 0.47352 0.0
C48 C 0.71508 0.55079 0.4563 0.0
C49 C 0.68791 0.53732 0.46949 0.0
C50 C 0.67952 0.54332 0.49991 0.0
C51 C 0.6981 0.5621 0.51693 0.0
C52 C 0.7725 0.62402 0.50664 0.0
C53 C 0.80296 0.63299 0.51701 0.0
C54 C 0.82073 0.65305 0.50055 0.0
C55 C 0.80845 0.66453 0.47319 0.0
C56 C 0.77708 0.65642 0.46365 0.0
C57 C 0.7591 0.63655 0.48047 0.0
C58 C 0.72849 0.61196 0.55832 0.0
C59 C 0.73831 0.60764 0.58861 0.0
C60 C 0.71888 0.61699 0.6128 0.0
C61 C 0.68923 0.63085 0.60711 0.0
C62 C 0.68024 0.63624 0.57661 0.0
C63 C 0.69981 0.62697 0.55243 0.0
P64 P 0.74916 0.40074 0.02312 0.0
H65 H 0.76235 0.39769 0.08879 0.0
H66 H 0.7298 0.38118 0.13217 0.0
H67 H 0.65657 0.35047 0.07004 0.0
H68 H 0.68913 0.36755 0.02671 0.0
H69 H 0.81841 0.38749 0.01885 0.0
H70 H 0.84908 0.35264 0.99018 0.0
H71 H 0.75943 0.32129 0.95166 0.0
H72 H 0.72867 0.35624 0.98102 0.0
H73 H 0.69206 0.43377 0.039 0.0
H74 H 0.7453 0.41316 0.95703 0.0
O75 O 0.77564 0.42396 0.03705 0.0
H76 H 0.65591 0.46395 0.00955 0.0
H77 H 0.70859 0.44301 0.92706 0.0
C78 C 0.72784 0.3843 0.05459 0.0
C79 C 0.73949 0.38709 0.08447 0.0
C80 C 0.72094 0.37743 0.10929 0.0
C81 C 0.69039 0.36475 0.10462 0.0
C82 C 0.67973 0.36056 0.07445 0.0
C83 C 0.69837 0.37017 0.04966 0.0
C84 C 0.7713 0.37472 0.00171 0.0
C85 C 0.80528 0.37325 0.00415 0.0
C86 C 0.82285 0.35334 0.98759 0.0
C87 C 0.80679 0.33435 0.96831 0.0
C88 C 0.77255 0.33553 0.96638 0.0
C89 C 0.75496 0.35555 0.98301 0.0
C90 C 0.72075 0.42048 1.00012 0.0
C91 C 0.69549 0.4352 0.01449 0.0
C92 C 0.67476 0.45248 0.99756 0.0
C93 C 0.67903 0.4557 0.96581 0.0
C94 C 0.70461 0.44106 0.95146 0.0
C95 C 0.72542 0.42372 0.96852 0.0
P96 P 0.3191 0.64979 0.4816 0.0
H97 H 0.33345 0.62654 0.42176 0.0
H98 H 0.33988 0.57844 0.40364 0.0
H99 H 0.31054 0.54685 0.4924 0.0
H100 H 0.30425 0.59516 0.51041 0.0
H101 H 0.29657 0.70584 0.49644 0.0
H102 H 0.24863 0.73293 0.48138 0.0
H103 H 0.21301 0.6615 0.43087 0.0
H104 H 0.26041 0.63435 0.44687 0.0
H105 H 0.37823 0.63729 0.51457 0.0
H106 H 0.27912 0.65954 0.53695 0.0
O107 O 0.34927 0.66724 0.46419 0.0
H108 H 0.39152 0.63508 0.56888 0.0
H109 H 0.29239 0.65765 0.59151 0.0
C110 C 0.31922 0.61435 0.46758 0.0
C111 C 0.32806 0.60925 0.4372 0.0
C112 C 0.33144 0.58173 0.42682 0.0
C113 C 0.32595 0.55883 0.44669 0.0
C114 C 0.31538 0.56407 0.47671 0.0
C115 C 0.3118 0.59166 0.48701 0.0
C116 C 0.28191 0.66808 0.473 0.0
C117 C 0.27814 0.69593 0.48251 0.0
C118 C 0.25088 0.71145 0.47364 0.0
C119 C 0.22704 0.69946 0.45474 0.0
C120 C 0.23067 0.67129 0.44573 0.0
C121 C 0.2579 0.65574 0.45477 0.0
C122 C 0.32796 0.64918 0.52178 0.0
C123 C 0.3594 0.64188 0.53122 0.0
C124 C 0.36686 0.64039 0.56223 0.0
C125 C 0.34296 0.64621 0.58439 0.0
C126 C 0.31133 0.65335 0.57487 0.0
C127 C 0.30378 0.65452 0.54373 0.0
P128 P 0.81954 0.84911 0.98382 0.0
H129 H 0.84876 0.80804 0.02524 0.0
H130 H 0.85741 0.80769 0.08044 0.0
H131 H 0.80456 0.88588 0.0879 0.0
H132 H 0.79588 0.88601 0.03254 0.0
H133 H 0.79823 0.83166 0.9236 0.0
H134 H 0.74959 0.80693 0.9056 0.0
H135 H 0.71245 0.80329 0.99791 0.0
H136 H 0.76037 0.82899 0.01575 0.0
H137 H 0.86152 0.89451 0.0036 0.0
H138 H 0.78709 0.88282 0.93543 0.0
O139 O 0.85103 0.83165 0.96898 0.0
H140 H 0.87106 0.94214 0.98454 0.0
H141 H 0.79752 0.93017 0.91563 0.0
C142 C 0.82259 0.84748 0.0248 0.0
C143 C 0.83883 0.82499 0.03878 0.0
C144 C 0.8435 0.8247 0.07036 0.0
C145 C 0.83191 0.84691 0.08844 0.0
C146 C 0.81416 0.86871 0.07447 0.0
C147 C 0.80925 0.86882 0.04289 0.0
C148 C 0.78284 0.83233 0.97093 0.0
C149 C 0.77938 0.82594 0.93989 0.0
C150 C 0.7517 0.81185 0.92964 0.0
C151 C 0.72749 0.80331 0.95045 0.0
C152 C 0.73094 0.80968 0.98153 0.0
C153 C 0.7583 0.82437 0.99167 0.0
C154 C 0.82327 0.88513 0.97131 0.0
C155 C 0.84681 0.90231 0.98489 0.0
C156 C 0.85225 0.92953 0.97401 0.0
C157 C 0.83485 0.93981 0.94878 0.0
C158 C 0.81117 0.92268 0.93519 0.0
C159 C 0.80527 0.89557 0.94651 0.0
P160 P 0.25385 0.09508 0.51922 0.0
H161 H 0.26804 0.04196 0.48875 0.0
H162 H 0.23502 0.0105 0.45773 0.0
H163 H 0.15328 0.06718 0.46633 0.0
H164 H 0.18679 0.09884 0.49698 0.0
H165 H 0.28372 0.14768 0.53812 0.0
H166 H 0.31036 0.1857 0.50967 0.0
H167 H 0.28436 0.14573 0.42481 0.0
H168 H 0.25834 0.10759 0.45341 0.0
H169 H 0.24302 0.0671 0.57757 0.0
H170 H 0.21163 0.14347 0.53315 0.0
O171 O 0.28654 0.07736 0.53117 0.0
H172 H 0.21 0.07848 0.62227 0.0
H173 H 0.17903 0.15549 0.57823 0.0
C174 C 0.2296 0.0724 0.49569 0.0
C175 C 0.24302 0.04761 0.484 0.0
C176 C 0.22409 0.02962 0.46629 0.0
C177 C 0.19142 0.0362 0.45978 0.0
C178 C 0.17841 0.06158 0.47076 0.0
C179 C 0.1974 0.07956 0.48852 0.0
C180 C 0.26852 0.12508 0.49794 0.0
C181 C 0.28318 0.14743 0.51339 0.0
C182 C 0.29836 0.16918 0.49706 0.0
C183 C 0.29947 0.16879 0.46492 0.0
C184 C 0.28418 0.14656 0.44953 0.0
C185 C 0.26899 0.12484 0.4659 0.0
C186 C 0.23037 0.10476 0.55238 0.0
C187 C 0.22937 0.08657 0.57766 0.0
C188 C 0.21056 0.09318 0.60328 0.0
C189 C 0.1921 0.11808 0.60406 0.0
C190 C 0.19283 0.13611 0.57839 0.0
C191 C 0.21169 0.1294 0.5527 0.0
P192 P 0.25544 0.90518 0.02688 0.0
H193 H 0.26738 0.89228 0.09133 0.0
H194 H 0.23161 0.87721 0.133 0.0
H195 H 0.15208 0.86899 0.06919 0.0
H196 H 0.18791 0.88497 0.02779 0.0
H197 H 0.3129 0.90608 0.98799 0.0
H198 H 0.33994 0.8705 0.95709 0.0
H199 H 0.2635 0.81126 0.97992 0.0
H200 H 0.23711 0.84689 0.01154 0.0
H201 H 0.23853 0.96358 0.03776 0.0
H202 H 0.21915 0.90122 0.96919 0.0
O203 O 0.28585 0.92272 0.04335 0.0
H204 H 0.20478 0.99744 0.01014 0.0
H205 H 0.18569 0.93514 0.94106 0.0
C206 C 0.23011 0.89029 0.05659 0.0
C207 C 0.2423 0.88706 0.08627 0.0
C208 C 0.22183 0.87818 0.11008 0.0
C209 C 0.18879 0.87214 0.10459 0.0
C210 C 0.17718 0.87403 0.0744 0.0
C211 C 0.19767 0.88304 0.05065 0.0
C212 C 0.27343 0.87895 0.00259 0.0
C213 C 0.30196 0.88542 0.98632 0.0
C214 C 0.31722 0.86509 0.96837 0.0
C215 C 0.30404 0.83788 0.96608 0.0
C216 C 0.27467 0.83182 0.9816 0.0
C217 C 0.25946 0.85222 0.99964 0.0
C218 C 0.23186 0.93012 0.00519 0.0
C219 C 0.22736 0.95732 0.01649 0.0
C220 C 0.20812 0.97668 1.00061 0.0
C221 C 0.19272 0.9691 0.97324 0.0
C222 C 0.19708 0.94163 0.96214 0.0
C223 C 0.21642 0.92228 0.97805 0.0
P224 P 0.82131 0.15071 0.47689 0.0
H225 H 0.83034 0.12392 0.41794 0.0
H226 H 0.83622 0.07488 0.40281 0.0
H227 H 0.81702 0.04843 0.49581 0.0
H228 H 0.81117 0.09761 0.5108 0.0
H229 H 0.79576 0.20437 0.49703 0.0
H230 H 0.74667 0.23077 0.4841 0.0
H231 H 0.71502 0.16249 0.42667 0.0
H232 H 0.76364 0.13591 0.4405 0.0
H233 H 0.88465 0.15215 0.50606 0.0
H234 H 0.78385 0.15266 0.53431 0.0
O235 O 0.84938 0.1675 0.45594 0.0
H236 H 0.90162 0.15253 0.55943 0.0
H237 H 0.80067 0.15281 0.588 0.0
C238 C 0.82106 0.11442 0.46556 0.0
C239 C 0.82703 0.10755 0.435 0.0
C240 C 0.83011 0.07949 0.42635 0.0
C241 C 0.82729 0.05778 0.44818 0.0
C242 C 0.81972 0.06472 0.47857 0.0
C243 C 0.81638 0.09284 0.48714 0.0
C244 C 0.78309 0.16803 0.47015 0.0
C245 C 0.77791 0.19488 0.48214 0.0
C246 C 0.75 0.21006 0.47447 0.0
C247 C 0.72696 0.1988 0.45423 0.0
C248 C 0.73202 0.17162 0.44265 0.0
C249 C 0.75993 0.15641 0.45047 0.0
C250 C 0.83307 0.15301 0.5163 0.0
C251 C 0.86618 0.15266 0.5238 0.0
C252 C 0.87582 0.15263 0.5543 0.0
C253 C 0.85245 0.15269 0.5779 0.0
C254 C 0.8192 0.15315 0.5703 0.0
C255 C 0.80958 0.15307 0.53967 0.0
Fe256 Fe 0.99608 0.82043 0.32186 0.0
Fe257 Fe 0.99365 0.85416 0.38143 0.0
O258 O 0.99354 0.85312 0.34096 0.0
Fe259 Fe 0.99089 0.88484 0.31971 0.0
O260 O 0.95345 0.87364 0.30153 0.0
O261 O 0.97055 0.83132 0.28962 0.0
O262 O 0.95904 0.80768 0.34036 0.0
C263 C 0.95505 0.80623 0.36892 0.0
C264 C 0.0359 0.85254 0.28526 0.0
O265 O 0.97285 0.82037 0.38666 0.0
C266 C 0.0329 0.90069 0.36477 0.0
O267 O 0.02221 0.80374 0.35079 0.0
O268 O 0.03339 0.83771 0.38291 0.0
O269 O 0.01569 0.87248 0.28764 0.0
O270 O 0.03322 0.83078 0.30177 0.0
C271 C 0.94727 0.89367 0.36908 0.0
O272 O 0.01468 0.88803 0.38377 0.0
O273 O 0.02827 0.89825 0.33642 0.0
C274 C 0.04022 0.81429 0.37119 0.0
O275 O 0.95384 0.87088 0.38263 0.0
O276 O 0.96549 0.90292 0.34786 0.0
C277 C 0.95038 0.85126 0.2865 0.0
Fe278 Fe 0.99767 0.15065 0.88001 0.0
Fe279 Fe 0.99841 0.11712 0.82054 0.0
O280 O 0.99836 0.14981 0.83955 0.0
Fe281 Fe 0.99906 0.18161 0.81816 0.0
O282 O 0.03694 0.19239 0.83572 0.0
O283 O 0.02193 0.18291 0.88292 0.0
O284 O 0.03565 0.13124 0.88255 0.0
C285 C 0.04021 0.10733 0.87102 0.0
C286 C 0.95539 0.19342 0.86709 0.0
O287 O 0.02174 0.09841 0.85009 0.0
C288 C 0.95686 0.15085 0.78384 0.0
O289 O 0.97334 0.11848 0.88452 0.0
O290 O 0.95979 0.10717 0.83773 0.0
O291 O 0.97444 0.20152 0.84587 0.0
O292 O 0.9597 0.17007 0.88028 0.0
C293 C 0.04202 0.146 0.78497 0.0
O294 O 0.9752 0.12973 0.78755 0.0
O295 O 0.96128 0.173 0.79893 0.0
C296 C 0.95478 0.1058 0.86613 0.0
O297 O 0.03698 0.12491 0.80197 0.0
O298 O 0.02375 0.16744 0.78656 0.0
C299 C 0.04133 0.19448 0.86411 0.0
Fe300 Fe 0.49768 0.32151 0.32263 0.0
Fe301 Fe 0.49353 0.35527 0.38213 0.0
O302 O 0.49552 0.35426 0.34168 0.0
Fe303 Fe 0.4954 0.38617 0.32052 0.0
O304 O 0.45859 0.3764 0.30045 0.0
O305 O 0.47358 0.33308 0.28974 0.0
O306 O 0.4596 0.30962 0.33972 0.0
C307 C 0.45381 0.30856 0.368 0.0
C308 C 0.54005 0.35238 0.28721 0.0
O309 O 0.47128 0.32211 0.38652 0.0
C310 C 0.53521 0.40089 0.36761 0.0
O311 O 0.52214 0.30426 0.35242 0.0
O312 O 0.53254 0.33776 0.38542 0.0
O313 O 0.52105 0.37318 0.28943 0.0
O314 O 0.5359 0.33078 0.30369 0.0
C315 C 0.44944 0.39604 0.36776 0.0
O316 O 0.51549 0.38863 0.38555 0.0
O317 O 0.53248 0.39823 0.33906 0.0
C318 C 0.53937 0.31433 0.37369 0.0
O319 O 0.45435 0.37297 0.38137 0.0
O320 O 0.46928 0.40493 0.34764 0.0
C321 C 0.45476 0.35388 0.28582 0.0
Fe322 Fe 0.49283 0.64831 0.88335 0.0
Fe323 Fe 0.49106 0.61653 0.82271 0.0
O324 O 0.49332 0.64866 0.84281 0.0
Fe325 Fe 0.49594 0.681 0.82251 0.0
O326 O 0.5221 0.69809 0.85084 0.0
O327 O 0.53237 0.66501 0.88494 0.0
O328 O 0.5139 0.61444 0.88715 0.0
C329 C 0.53202 0.60105 0.86882 0.0
C330 C 0.45418 0.69579 0.86878 0.0
O331 O 0.52825 0.60357 0.84034 0.0
C332 C 0.45073 0.64914 0.78782 0.0
O333 O 0.4531 0.63157 0.88454 0.0
O334 O 0.46529 0.59885 0.85124 0.0
O335 O 0.45886 0.69413 0.84035 0.0
O336 O 0.47181 0.68206 0.88721 0.0
C337 C 0.53592 0.64853 0.78704 0.0
O338 O 0.45387 0.62713 0.80375 0.0
O339 O 0.47043 0.66949 0.79056 0.0
C340 C 0.44674 0.60852 0.87183 0.0
O341 O 0.51611 0.62833 0.79033 0.0
O342 O 0.53314 0.67042 0.80295 0.0
C343 C 0.53957 0.68798 0.87204 0.0
H344 H 0.21161 0.25343 0.95984 0.0
H345 H 0.18388 0.32516 0.90469 0.0
H346 H 0.16557 0.2271 0.94001 0.0
H347 H 0.13802 0.29845 0.88441 0.0
H348 H 0.0833 0.2283 0.83152 0.0
H349 H 0.12837 0.25632 0.85131 0.0
H350 H 0.1052 0.22833 0.94293 0.0
H351 H 0.06047 0.20023 0.92332 0.0
C352 C 0.19549 0.26373 0.94377 0.0
C353 C 0.20136 0.2915 0.93402 0.0
C354 C 0.16916 0.24857 0.93232 0.0
C355 C 0.14818 0.26074 0.91071 0.0
C356 C 0.15402 0.28845 0.90081 0.0
C357 C 0.18029 0.30371 0.91242 0.0
C358 C 0.08778 0.22818 0.85588 0.0
C359 C 0.06828 0.212 0.87583 0.0
C360 C 0.11347 0.24434 0.86721 0.0
C361 C 0.12031 0.24445 0.89865 0.0
C362 C 0.10072 0.22841 0.91856 0.0
C363 C 0.07497 0.21243 0.9073 0.0
H364 H 0.87439 0.66292 0.4638 0.0
H365 H 0.78866 0.71111 0.44022 0.0
H366 H 0.90842 0.69707 0.43706 0.0
H367 H 0.82305 0.74472 0.41227 0.0
H368 H 0.9026 0.78061 0.34173 0.0
H369 H 0.86548 0.74579 0.36484 0.0
H370 H 0.91924 0.75006 0.44919 0.0
H371 H 0.95575 0.78481 0.42662 0.0
C372 C 0.86272 0.68079 0.45301 0.0
C373 C 0.82872 0.68446 0.45475 0.0
C374 C 0.88227 0.70022 0.43748 0.0
C375 C 0.86834 0.72357 0.42281 0.0
C376 C 0.83432 0.72676 0.42329 0.0
C377 C 0.81468 0.70747 0.43926 0.0
C378 C 0.90639 0.7741 0.36521 0.0
C379 C 0.93213 0.78543 0.38232 0.0
C380 C 0.8851 0.75433 0.37842 0.0
C381 C 0.88969 0.7452 0.4087 0.0
C382 C 0.91536 0.75657 0.42572 0.0
C383 C 0.93616 0.77658 0.41279 0.0
H384 H 0.79263 0.27873 0.95837 0.0
H385 H 0.86435 0.34271 0.9379 0.0
H386 H 0.82562 0.24419 0.93112 0.0
H387 H 0.89782 0.30811 0.91183 0.0
H388 H 0.93948 0.24572 0.84532 0.0
H389 H 0.901 0.27913 0.86704 0.0
H390 H 0.87657 0.21928 0.93821 0.0
H391 H 0.91447 0.18562 0.91613 0.0
C392 C 0.8153 0.28548 0.94788 0.0
C393 C 0.82592 0.31346 0.95049 0.0
C394 C 0.83438 0.26562 0.93254 0.0
C395 C 0.86447 0.27331 0.91935 0.0
C396 C 0.87467 0.30146 0.9214 0.0
C397 C 0.85564 0.32125 0.93672 0.0
C398 C 0.92574 0.23957 0.86547 0.0
C399 C 0.93033 0.21302 0.87909 0.0
C400 C 0.90377 0.25881 0.87802 0.0
C401 C 0.88584 0.25202 0.90454 0.0
C402 C 0.8897 0.22515 0.91762 0.0
C403 C 0.91164 0.20588 0.90504 0.0
H404 H 0.16327 0.68334 0.44808 0.0
H405 H 0.22791 0.75432 0.43561 0.0
H406 H 0.11817 0.7112 0.428 0.0
H407 H 0.18274 0.78217 0.41597 0.0
H408 H 0.08612 0.83095 0.41252 0.0
H409 H 0.13081 0.80322 0.43352 0.0
H410 H 0.10163 0.73255 0.37858 0.0
H411 H 0.05675 0.76007 0.35777 0.0
C412 C 0.1679 0.70483 0.44097 0.0
C413 C 0.19922 0.71659 0.4435 0.0
C414 C 0.14206 0.72078 0.42949 0.0
C415 C 0.14694 0.74886 0.42041 0.0
C416 C 0.17814 0.76071 0.42319 0.0
C417 C 0.20399 0.74474 0.43453 0.0
C418 C 0.0892 0.80949 0.40491 0.0
C419 C 0.06779 0.79772 0.3835 0.0
C420 C 0.1149 0.79367 0.41684 0.0
C421 C 0.11966 0.76569 0.40775 0.0
C422 C 0.09832 0.75394 0.38632 0.0
C423 C 0.07274 0.76979 0.37425 0.0
H424 H 0.68323 0.81842 0.90735 0.0
H425 H 0.70878 0.75136 0.96945 0.0
H426 H 0.63699 0.79105 0.88916 0.0
H427 H 0.664 0.723 0.95012 0.0
H428 H 0.56411 0.68801 0.9298 0.0
H429 H 0.60824 0.71676 0.94948 0.0
H430 H 0.62254 0.75307 0.85947 0.0
H431 H 0.57697 0.72555 0.84051 0.0
C432 C 0.67894 0.79766 0.91688 0.0
C433 C 0.69926 0.78694 0.93981 0.0
C434 C 0.65267 0.78182 0.90632 0.0
C435 C 0.64665 0.75462 0.91799 0.0
C436 C 0.66729 0.744 0.94096 0.0
C437 C 0.6931 0.76012 0.95196 0.0
C438 C 0.57675 0.70217 0.91429 0.0
C439 C 0.56712 0.70464 0.88367 0.0
C440 C 0.60223 0.71857 0.9255 0.0
C441 C 0.61918 0.73736 0.90614 0.0
C442 C 0.6097 0.73941 0.87532 0.0
C443 C 0.58373 0.72346 0.86432 0.0
H444 H 0.34 0.16137 0.41579 0.0
H445 H 0.30161 0.2255 0.47533 0.0
H446 H 0.37431 0.19631 0.39042 0.0
H447 H 0.33598 0.26048 0.44992 0.0
H448 H 0.43403 0.30284 0.42726 0.0
H449 H 0.39411 0.27031 0.44831 0.0
H450 H 0.37504 0.23859 0.35789 0.0
H451 H 0.41564 0.27104 0.33667 0.0
C452 C 0.3384 0.18303 0.42309 0.0
C453 C 0.31818 0.1906 0.44773 0.0
C454 C 0.3581 0.20307 0.40852 0.0
C455 C 0.35806 0.23116 0.41826 0.0
C456 C 0.33702 0.23891 0.44221 0.0
C457 C 0.31733 0.21887 0.45678 0.0
C458 C 0.42131 0.28903 0.41175 0.0
C459 C 0.42826 0.28945 0.38026 0.0
C460 C 0.39816 0.27051 0.42385 0.0
C461 C 0.38131 0.25187 0.4048 0.0
C462 C 0.38784 0.25251 0.37322 0.0
C463 C 0.411 0.27118 0.36104 0.0
H464 H 0.33735 0.84295 0.91167 0.0
H465 H 0.31142 0.78242 0.9817 0.0
H466 H 0.37149 0.80785 0.88687 0.0
H467 H 0.3442 0.74702 0.95611 0.0
H468 H 0.44011 0.7056 0.9287 0.0
H469 H 0.40143 0.73871 0.94991 0.0
H470 H 0.37302 0.76389 0.85883 0.0
H471 H 0.41259 0.73093 0.83737 0.0
C472 C 0.33867 0.8221 0.92164 0.0
C473 C 0.32185 0.81566 0.94891 0.0
C474 C 0.35796 0.80185 0.90719 0.0
C475 C 0.36087 0.77465 0.91962 0.0
C476 C 0.34298 0.7679 0.94617 0.0
C477 C 0.32379 0.78813 0.96065 0.0
C478 C 0.42563 0.7181 0.91306 0.0
C479 C 0.42963 0.71562 0.88126 0.0
C480 C 0.40317 0.73698 0.92529 0.0
C481 C 0.38391 0.7539 0.90612 0.0
C482 C 0.38766 0.75134 0.87427 0.0
C483 C 0.41025 0.73238 0.86196 0.0
H484 H 0.66395 0.18144 0.44547 0.0
H485 H 0.72597 0.25476 0.43971 0.0
H486 H 0.6181 0.20932 0.42691 0.0
H487 H 0.68015 0.28258 0.42149 0.0
H488 H 0.58288 0.3294 0.41794 0.0
H489 H 0.62731 0.30132 0.43886 0.0
H490 H 0.60173 0.23303 0.37902 0.0
H491 H 0.55708 0.26084 0.35834 0.0
C492 C 0.66783 0.20346 0.44019 0.0
C493 C 0.69862 0.21586 0.44412 0.0
C494 C 0.64157 0.21942 0.42958 0.0
C495 C 0.64553 0.24814 0.42274 0.0
C496 C 0.67621 0.2606 0.427 0.0
C497 C 0.70245 0.24465 0.4375 0.0
C498 C 0.58665 0.30836 0.40929 0.0
C499 C 0.56637 0.29737 0.38647 0.0
C500 C 0.61221 0.29235 0.42118 0.0
C501 C 0.61798 0.26496 0.41061 0.0
C502 C 0.59763 0.25392 0.38792 0.0
C503 C 0.57217 0.26996 0.37593 0.0
H504 H 0.31213 0.47096 0.90901 0.0
H505 H 0.37534 0.48165 0.98668 0.0
H506 H 0.32937 0.51673 0.889 0.0
H507 H 0.3931 0.52699 0.96645 0.0
H508 H 0.41651 0.61134 0.92781 0.0
H509 H 0.38046 0.57597 0.95078 0.0
H510 H 0.38294 0.52879 0.86683 0.0
H511 H 0.41848 0.56399 0.84393 0.0
C512 C 0.32904 0.48342 0.92219 0.0
C513 C 0.3428 0.47262 0.94914 0.0
C514 C 0.33907 0.50952 0.91065 0.0
C515 C 0.36287 0.5253 0.92596 0.0
C516 C 0.37459 0.51545 0.95419 0.0
C517 C 0.3647 0.48934 0.96562 0.0
C518 C 0.40871 0.59374 0.91408 0.0
C519 C 0.42074 0.59017 0.88424 0.0
C520 C 0.38819 0.57346 0.92727 0.0
C521 C 0.37905 0.54951 0.91069 0.0
C522 C 0.38924 0.5471 0.88014 0.0
C523 C 0.40991 0.56715 0.8671 0.0
H524 H 0.66369 0.54183 0.41136 0.0
H525 H 0.66953 0.48519 0.48856 0.0
H526 H 0.62855 0.50828 0.38492 0.0
H527 H 0.63538 0.45146 0.46209 0.0
H528 H 0.54075 0.41642 0.42701 0.0
H529 H 0.57926 0.44867 0.44937 0.0
H530 H 0.62394 0.46224 0.36091 0.0
H531 H 0.5843 0.43015 0.33804 0.0
C532 C 0.65782 0.52203 0.42245 0.0
C533 C 0.66886 0.51628 0.45219 0.0
C534 C 0.63781 0.50277 0.40729 0.0
C535 C 0.62872 0.47732 0.42155 0.0
C536 C 0.64113 0.47116 0.45074 0.0
C537 C 0.66077 0.49044 0.46592 0.0
C538 C 0.55875 0.42615 0.41217 0.0
C539 C 0.5594 0.42059 0.38067 0.0
C540 C 0.58108 0.44457 0.42512 0.0
C541 C 0.60501 0.45785 0.40705 0.0
C542 C 0.6057 0.45248 0.37545 0.0
C543 C 0.58309 0.43402 0.36238 0.0
H544 H 0.61321 0.46276 0.97232 0.0
H545 H 0.6957 0.49245 0.91952 0.0
H546 H 0.57853 0.49735 0.94729 0.0
H547 H 0.66068 0.52689 0.89409 0.0
H548 H 0.57643 0.56844 0.83772 0.0
H549 H 0.61214 0.53201 0.85894 0.0
H550 H 0.57498 0.54932 0.9493 0.0
H551 H 0.53947 0.58535 0.9284 0.0
C552 C 0.62398 0.47665 0.95536 0.0
C553 C 0.65738 0.47501 0.94825 0.0
C554 C 0.60407 0.49646 0.94099 0.0
C555 C 0.61695 0.51507 0.91897 0.0
C556 C 0.65001 0.51273 0.91085 0.0
C557 C 0.67005 0.49295 0.92539 0.0
C558 C 0.57597 0.56449 0.86211 0.0
C559 C 0.55491 0.57975 0.88129 0.0
C560 C 0.59649 0.5437 0.87426 0.0
C561 C 0.59611 0.53759 0.90575 0.0
C562 C 0.57543 0.55316 0.92488 0.0
C563 C 0.5552 0.57398 0.91285 0.0
H564 H 0.35926 0.51883 0.47874 0.0
H565 H 0.31224 0.53378 0.39206 0.0
H566 H 0.38177 0.47509 0.45943 0.0
H567 H 0.3346 0.48978 0.37273 0.0
H568 H 0.42742 0.4431 0.33909 0.0
H569 H 0.39012 0.47812 0.35878 0.0
H570 H 0.37427 0.42742 0.43978 0.0
H571 H 0.41237 0.39227 0.42015 0.0
C572 C 0.3529 0.51235 0.45586 0.0
C573 C 0.33433 0.52994 0.43678 0.0
C574 C 0.36579 0.48721 0.44478 0.0
C575 C 0.36032 0.47912 0.4144 0.0
C576 C 0.33977 0.49572 0.39605 0.0
C577 C 0.32697 0.52089 0.40711 0.0
C578 C 0.41572 0.43918 0.36095 0.0
C579 C 0.42326 0.41509 0.37826 0.0
C580 C 0.39402 0.45918 0.37212 0.0
C581 C 0.37927 0.45563 0.40092 0.0
C582 C 0.38552 0.43087 0.41764 0.0
C583 C 0.40722 0.4107 0.40634 0.0
H584 H 0.85049 0.95147 0.88966 0.0
H585 H 0.83949 0.99004 0.978 0.0
H586 H 0.87388 0.99479 0.86931 0.0
H587 H 0.86147 0.034 0.95749 0.0
H588 H 0.94869 0.0868 0.92474 0.0
H589 H 0.91362 0.04962 0.94377 0.0
H590 H 0.8696 0.04237 0.85456 0.0
H591 H 0.90602 0.07897 0.83511 0.0
C592 C 0.8522 0.96958 0.90444 0.0
C593 C 0.84352 0.96744 0.93541 0.0
C594 C 0.8655 0.99449 0.8928 0.0
C595 C 0.87 0.01791 0.91183 0.0
C596 C 0.85917 0.01621 0.94235 0.0
C597 C 0.84638 0.99114 0.95409 0.0
C598 C 0.93129 0.07754 0.90921 0.0
C599 C 0.93045 0.08562 0.8783 0.0
C600 C 0.91089 0.05628 0.92022 0.0
C601 C 0.88875 0.0428 0.90072 0.0
C602 C 0.88677 0.05189 0.87011 0.0
C603 C 0.90752 0.07297 0.85898 0.0
H604 H 0.18896 0.9792 0.46663 0.0
H605 H 0.14671 0.04755 0.41484 0.0
H606 H 0.15315 0.94611 0.44105 0.0
H607 H 0.11009 0.01436 0.38978 0.0
H608 H 0.06844 0.94056 0.33306 0.0
H609 H 0.10888 0.97317 0.35383 0.0
H610 H 0.09414 0.93727 0.44372 0.0
H611 H 0.05432 0.90482 0.42322 0.0
C612 C 0.17228 0.98714 0.44953 0.0
C613 C 0.17064 0.01604 0.44284 0.0
C614 C 0.15153 0.9682 0.43508 0.0
C615 C 0.12864 0.97766 0.41356 0.0
C616 C 0.1276 0.00643 0.40614 0.0
C617 C 0.14831 0.02545 0.42073 0.0
C618 C 0.07399 0.9396 0.35721 0.0
C619 C 0.05805 0.92016 0.37649 0.0
C620 C 0.097 0.95834 0.36911 0.0
C621 C 0.10475 0.95771 0.40038 0.0
C622 C 0.08905 0.93805 0.41946 0.0
C623 C 0.06599 0.91957 0.4077 0.0
H624 H 0.13368 0.95954 0.94633 0.0
H625 H 0.20403 0.02517 0.96305 0.0
H626 H 0.09843 0.99338 0.92073 0.0
H627 H 0.16879 0.05907 0.93732 0.0
H628 H 0.07942 0.11615 0.92074 0.0
H629 H 0.1171 0.08301 0.94447 0.0
H630 H 0.0948 0.02192 0.87503 0.0
H631 H 0.05671 0.05472 0.85171 0.0
C632 C 0.14182 0.98112 0.9442 0.0
C633 C 0.17169 0.98962 0.95676 0.0
C634 C 0.1216 0.00055 0.92951 0.0
C635 C 0.13076 0.02898 0.92694 0.0
C636 C 0.16075 0.03744 0.93929 0.0
C637 C 0.18097 0.018 0.95402 0.0
C638 C 0.08267 0.0957 0.91044 0.0
C639 C 0.0648 0.08806 0.88444 0.0
C640 C 0.1044 0.07673 0.92397 0.0
C641 C 0.10883 0.0497 0.91179 0.0
C642 C 0.09155 0.04235 0.88536 0.0
C643 C 0.06982 0.06127 0.87187 0.0
H644 H 0.86504 0.02033 0.47951 0.0
H645 H 0.80815 0.02915 0.39724 0.0
H646 H 0.88645 0.97579 0.46122 0.0
H647 H 0.82932 0.98432 0.379 0.0
H648 H 0.91958 0.93779 0.3395 0.0
H649 H 0.88311 0.97287 0.36032 0.0
H650 H 0.8787 0.92689 0.44572 0.0
H651 H 0.91604 0.89168 0.42484 0.0
C652 C 0.85632 0.01232 0.45793 0.0
C653 C 0.83526 0.02843 0.43961 0.0
C654 C 0.86856 0.98672 0.44745 0.0
C655 C 0.85993 0.97666 0.41846 0.0
C656 C 0.83695 0.99178 0.40117 0.0
C657 C 0.82482 0.01743 0.4116 0.0
C658 C 0.91053 0.93489 0.3626 0.0
C659 C 0.9211 0.91218 0.38067 0.0
C660 C 0.88928 0.9549 0.37446 0.0
C661 C 0.87806 0.95278 0.40476 0.0
C662 C 0.88721 0.92925 0.42239 0.0
C663 C 0.90844 0.90903 0.41039 0.0
H664 H 0.37745 0.30241 0.11551 0.0
H665 H 0.33434 0.38478 0.12479 0.0
H666 H 0.39848 0.30538 0.16692 0.0
H667 H 0.35311 0.3868 0.17738 0.0
H668 H 0.43388 0.39732 0.24992 0.0
H669 H 0.40202 0.39411 0.2033 0.0
H670 H 0.38916 0.3049 0.2191 0.0
H671 H 0.42274 0.30805 0.26468 0.0
C672 C 0.37208 0.32105 0.12866 0.0
C673 C 0.35468 0.34356 0.1157 0.0
C674 C 0.38368 0.32257 0.1585 0.0
C675 C 0.3777 0.34643 0.17649 0.0
C676 C 0.35875 0.36831 0.16409 0.0
C677 C 0.34753 0.36697 0.134 0.0
C678 C 0.4238 0.37714 0.24359 0.0
C679 C 0.43112 0.35286 0.26059 0.0
C680 C 0.40534 0.37526 0.21691 0.0
C681 C 0.39329 0.34914 0.20703 0.0
C682 C 0.3988 0.32523 0.2254 0.0
C683 C 0.41784 0.32702 0.25166 0.0
H684 H 0.62328 0.62359 0.60941 0.0
H685 H 0.70436 0.65287 0.66322 0.0
H686 H 0.58695 0.63018 0.6529 0.0
H687 H 0.66795 0.65878 0.70714 0.0
H688 H 0.58256 0.68773 0.77082 0.0
H689 H 0.61976 0.68619 0.72687 0.0
H690 H 0.58076 0.60521 0.70213 0.0
H691 H 0.54378 0.60669 0.74546 0.0
C692 C 0.63329 0.63184 0.63038 0.0
C693 C 0.66677 0.63761 0.63283 0.0
C694 C 0.61252 0.6353 0.65543 0.0
C695 C 0.62465 0.64468 0.68358 0.0
C696 C 0.65787 0.65157 0.68575 0.0
C697 C 0.67874 0.64796 0.66067 0.0
C698 C 0.58204 0.66958 0.75603 0.0
C699 C 0.55999 0.64743 0.76163 0.0
C700 C 0.60338 0.66868 0.73093 0.0
C701 C 0.60289 0.64573 0.71082 0.0
C702 C 0.5813 0.62344 0.71681 0.0
C703 C 0.56022 0.62423 0.74187 0.0
H704 H 0.70623 0.34111 0.16023 0.0
H705 H 0.62514 0.37474 0.10908 0.0
H706 H 0.671 0.33618 0.20534 0.0
H707 H 0.59009 0.36922 0.15368 0.0
H708 H 0.55249 0.39478 0.2468 0.0
H709 H 0.58901 0.39472 0.20318 0.0
H710 H 0.62019 0.31064 0.22629 0.0
H711 H 0.58322 0.31054 0.27057 0.0
C712 C 0.68086 0.34715 0.15851 0.0
C713 C 0.66855 0.35844 0.13106 0.0
C714 C 0.66067 0.34412 0.18425 0.0
C715 C 0.62789 0.3526 0.18312 0.0
C716 C 0.61536 0.36285 0.15537 0.0
C717 C 0.6354 0.36571 0.12969 0.0
C718 C 0.5671 0.37621 0.24284 0.0
C719 C 0.5646 0.35254 0.26215 0.0
C720 C 0.58795 0.37616 0.21763 0.0
C721 C 0.60708 0.35252 0.211 0.0
C722 C 0.60565 0.32914 0.23083 0.0
C723 C 0.58447 0.32909 0.25613 0.0
H724 H 0.37672 0.60531 0.61441 0.0
H725 H 0.32881 0.685 0.62827 0.0
H726 H 0.39649 0.60611 0.66682 0.0
H727 H 0.34821 0.68563 0.68108 0.0
H728 H 0.43579 0.69301 0.74978 0.0
H729 H 0.40347 0.69157 0.70331 0.0
H730 H 0.37994 0.60452 0.72133 0.0
H731 H 0.41255 0.60578 0.76776 0.0
C732 C 0.37011 0.62283 0.62884 0.0
C733 C 0.35152 0.64522 0.61722 0.0
C734 C 0.38113 0.62316 0.65894 0.0
C735 C 0.37396 0.64598 0.67804 0.0
C736 C 0.3543 0.66788 0.66679 0.0
C737 C 0.34303 0.66743 0.63669 0.0
C738 C 0.42335 0.67366 0.74412 0.0
C739 C 0.42719 0.6494 0.76227 0.0
C740 C 0.40462 0.6729 0.71758 0.0
C741 C 0.38941 0.64785 0.70854 0.0
C742 C 0.39176 0.62402 0.72753 0.0
C743 C 0.41034 0.6248 0.75419 0.0
H744 H 0.82937 0.80474 0.13121 0.0
H745 H 0.855 0.89218 0.11938 0.0
H746 H 0.85123 0.80556 0.18299 0.0
H747 H 0.87744 0.89295 0.17072 0.0
H748 H 0.94017 0.80791 0.24727 0.0
H749 H 0.90529 0.80721 0.20278 0.0
H750 H 0.86952 0.89001 0.22512 0.0
H751 H 0.90539 0.89109 0.26947 0.0
C752 C 0.83942 0.82419 0.13982 0.0
C753 C 0.84073 0.84833 0.1212 0.0
C754 C 0.852 0.82467 0.16942 0.0
C755 C 0.86645 0.84923 0.18093 0.0
C756 C 0.86616 0.87376 0.16281 0.0
C757 C 0.85335 0.87332 0.13331 0.0
C758 C 0.92465 0.8259 0.24297 0.0
C759 C 0.92597 0.84973 0.26174 0.0
C760 C 0.90435 0.82538 0.21752 0.0
C761 C 0.88466 0.84861 0.21023 0.0
C762 C 0.88476 0.87194 0.22982 0.0
C763 C 0.90521 0.8725 0.25532 0.0
H764 H 0.13058 0.14061 0.60557 0.0
H765 H 0.2075 0.11061 0.66445 0.0
H766 H 0.09634 0.14926 0.6502 0.0
H767 H 0.17312 0.11905 0.70902 0.0
H768 H 0.08612 0.10385 0.77483 0.0
H769 H 0.12352 0.09898 0.7318 0.0
H770 H 0.09139 0.17895 0.69576 0.0
H771 H 0.05362 0.18374 0.7386 0.0
C772 C 0.14038 0.13622 0.62803 0.0
C773 C 0.17177 0.12477 0.63135 0.0
C774 C 0.12073 0.14117 0.65363 0.0
C775 C 0.13194 0.13474 0.68319 0.0
C776 C 0.16354 0.1238 0.68656 0.0
C777 C 0.18323 0.11894 0.66098 0.0
C778 C 0.08715 0.12051 0.75787 0.0
C779 C 0.06668 0.14411 0.76014 0.0
C780 C 0.10874 0.11778 0.73326 0.0
C781 C 0.11034 0.13852 0.71026 0.0
C782 C 0.09043 0.16242 0.71288 0.0
C783 C 0.06893 0.16523 0.73757 0.0
H784 H 0.2 0.84009 0.15617 0.0
H785 H 0.12623 0.8906 0.11199 0.0
H786 H 0.16427 0.83418 0.20063 0.0
H787 H 0.09026 0.88365 0.15558 0.0
H788 H 0.05184 0.89815 0.25054 0.0
H789 H 0.08889 0.90074 0.20735 0.0
H790 H 0.11278 0.81298 0.21937 0.0
H791 H 0.07574 0.81042 0.26341 0.0
C792 C 0.17611 0.84974 0.15581 0.0
C793 C 0.16612 0.86596 0.1305 0.0
C794 C 0.15553 0.84611 0.18117 0.0
C795 C 0.12454 0.8587 0.18182 0.0
C796 C 0.1142 0.87408 0.15609 0.0
C797 C 0.1347 0.87772 0.13084 0.0
C798 C 0.06498 0.87933 0.24414 0.0
C799 C 0.0605 0.85398 0.26032 0.0
C800 C 0.08612 0.8808 0.21917 0.0
C801 C 0.10339 0.85695 0.20951 0.0
C802 C 0.09984 0.83174 0.22624 0.0
C803 C 0.07858 0.83026 0.25142 0.0
H804 H 0.82929 0.18319 0.62633 0.0
H805 H 0.89942 0.11927 0.60245 0.0
H806 H 0.84865 0.18201 0.67921 0.0
H807 H 0.91929 0.11867 0.65464 0.0
H808 H 0.9336 0.1054 0.75357 0.0
H809 H 0.90313 0.10506 0.70604 0.0
H810 H 0.89845 0.19575 0.70715 0.0
H811 H 0.92844 0.1961 0.75525 0.0
C812 C 0.84866 0.16878 0.63244 0.0
C813 C 0.863 0.15145 0.61024 0.0
C814 C 0.85988 0.16826 0.6626 0.0
C815 C 0.88543 0.1502 0.67113 0.0
C816 C 0.89926 0.13254 0.64897 0.0
C817 C 0.88817 0.13314 0.61894 0.0
C818 C 0.92567 0.12528 0.74394 0.0
C819 C 0.93391 0.15081 0.75789 0.0
C820 C 0.90832 0.12507 0.71663 0.0
C821 C 0.89895 0.15039 0.70253 0.0
C822 C 0.90527 0.17588 0.71749 0.0
C823 C 0.92254 0.17608 0.745 0.0
loop_
_geom_bond_atom_site_label_1
_geom_bond_atom_site_label_2
_geom_bond_distance
_geom_bond_site_symmetry_2
_ccdc_geom_bond_type
P0 O11 1.490 . S
P0 C14 1.812 1_556 S
P0 C20 1.803 . S
P0 C26 1.819 . S
H1 C15 0.941 . S
H2 C16 0.939 . S
H3 C18 0.940 . S
H4 C19 0.940 . S
H5 C21 0.939 . S
H6 C22 0.942 . S
H7 C24 0.940 1_554 S
H8 C25 0.939 . S
H9 C27 0.941 . S
H10 C31 0.939 . S
O11 P0 1.490 . S
H12 C28 0.939 . S
H13 C30 0.940 . S
C14 P0 1.812 1_554 S
C14 C15 1.389 . S
C14 C19 1.391 . S
C15 H1 0.941 . S
C15 C14 1.389 . S
C15 C16 1.397 . S
C16 H2 0.939 . S
C16 C15 1.397 . S
C16 C17 1.378 . S
C17 C16 1.378 . S
C17 C18 1.378 . S
C18 H3 0.940 . S
C18 C17 1.378 . S
C18 C19 1.396 . S
C19 H4 0.940 . S
C19 C14 1.391 . S
C19 C18 1.396 . S
C20 P0 1.803 . S
C20 C21 1.378 . S
C20 C25 1.400 1_556 S
C21 H5 0.939 . S
C21 C20 1.378 . S
C21 C22 1.361 . S
C22 H6 0.942 . S
C22 C21 1.361 . S
C22 C23 1.369 . S
C23 C22 1.369 . S
C23 C24 1.404 . S
C24 H7 0.940 1_556 S
C24 C23 1.404 . S
C24 C25 1.389 1_556 S
C25 H8 0.939 . S
C25 C20 1.400 1_554 S
C25 C24 1.389 1_554 S
C26 P0 1.819 . S
C26 C27 1.391 . S
C26 C31 1.391 . S
C27 H9 0.941 . S
C27 C26 1.391 . S
C27 C28 1.396 . S
C28 H12 0.939 . S
C28 C27 1.396 . S
C28 C29 1.397 . S
C29 C28 1.397 . S
C29 C30 1.385 . S
C30 H13 0.940 . S
C30 C29 1.385 . S
C30 C31 1.388 . S
C31 H10 0.939 . S
C31 C26 1.391 . S
C31 C30 1.388 . S
P32 O43 1.490 . S
P32 C46 1.812 . S
P32 C52 1.803 . S
P32 C58 1.819 . S
H33 C47 0.941 . S
H34 C48 0.939 . S
H35 C50 0.940 . S
H36 C51 0.940 . S
H37 C53 0.939 . S
H38 C54 0.942 . S
H39 C56 0.940 . S
H40 C57 0.939 . S
H41 C59 0.941 . S
H42 C63 0.939 . S
O43 P32 1.490 . S
H44 C60 0.939 . S
H45 C62 0.940 . S
C46 P32 1.812 . S
C46 C47 1.389 . S
C46 C51 1.391 . S
C47 H33 0.941 . S
C47 C46 1.389 . S
C47 C48 1.397 . S
C48 H34 0.939 . S
C48 C47 1.397 . S
C48 C49 1.378 . S
C49 C48 1.378 . S
C49 C50 1.378 . S
C50 H35 0.940 . S
C50 C49 1.378 . S
C50 C51 1.396 . S
C51 H36 0.940 . S
C51 C46 1.391 . S
C51 C50 1.396 . S
C52 P32 1.803 . S
C52 C53 1.378 . S
C52 C57 1.400 . S
C53 H37 0.939 . S
C53 C52 1.378 . S
C53 C54 1.361 . S
C54 H38 0.942 . S
C54 C53 1.361 . S
C54 C55 1.369 . S
C55 C54 1.369 . S
C55 C56 1.404 . S
C56 H39 0.940 . S
C56 C55 1.404 . S
C56 C57 1.389 . S
C57 H40 0.939 . S
C57 C52 1.400 . S
C57 C56 1.389 . S
C58 P32 1.819 . S
C58 C59 1.391 . S
C58 C63 1.391 . S
C59 H41 0.941 . S
C59 C58 1.391 . S
C59 C60 1.396 . S
C60 H44 0.939 . S
C60 C59 1.396 . S
C60 C61 1.397 . S
C61 C60 1.397 . S
C61 C62 1.385 . S
C62 H45 0.940 . S
C62 C61 1.385 . S
C62 C63 1.388 . S
C63 H42 0.939 . S
C63 C58 1.391 . S
C63 C62 1.388 . S
P64 O75 1.490 . S
P64 C78 1.812 . S
P64 C84 1.803 . S
P64 C90 1.819 1_554 S
H65 C79 0.941 . S
H66 C80 0.939 . S
H67 C82 0.940 . S
H68 C83 0.940 . S
H69 C85 0.939 . S
H70 C86 0.942 . S
H71 C88 0.940 . S
H72 C89 0.930 1_554 S
H73 C91 0.941 . S
H74 C95 0.939 . S
O75 P64 1.490 . S
H76 C92 0.939 . S
H77 C94 0.940 . S
C78 P64 1.812 . S
C78 C79 1.389 . S
C78 C83 1.391 . S
C79 H65 0.941 . S
C79 C78 1.389 . S
C79 C80 1.397 . S
C80 H66 0.939 . S
C80 C79 1.397 . S
C80 C81 1.378 . S
C81 C80 1.378 . S
C81 C82 1.378 . S
C82 H67 0.940 . S
C82 C81 1.378 . S
C82 C83 1.396 . S
C83 H68 0.940 . S
C83 C78 1.391 . S
C83 C82 1.396 . S
C84 P64 1.803 . S
C84 C85 1.378 1_554 S
C84 C89 1.395 1_554 S
C85 H69 0.939 . S
C85 C84 1.378 1_556 S
C85 C86 1.361 . S
C86 H70 0.942 . S
C86 C85 1.361 . S
C86 C87 1.369 . S
C87 C86 1.369 . S
C87 C88 1.404 . S
C88 H71 0.940 . S
C88 C87 1.404 . S
C88 C89 1.403 . S
C89 H72 0.930 1_556 S
C89 C84 1.395 1_556 S
C89 C88 1.403 . S
C90 P64 1.819 1_556 S
C90 C91 1.391 1_556 S
C90 C95 1.391 . S
C91 H73 0.941 . S
C91 C90 1.391 1_554 S
C91 C92 1.396 1_554 S
C92 H76 0.939 . S
C92 C91 1.396 1_556 S
C92 C93 1.397 . S
C93 C92 1.397 . S
C93 C94 1.385 . S
C94 H77 0.940 . S
C94 C93 1.385 . S
C94 C95 1.388 . S
C95 H74 0.939 . S
C95 C90 1.391 . S
C95 C94 1.388 . S
P96 O107 1.490 . S
P96 C110 1.812 . S
P96 C116 1.803 . S
P96 C122 1.819 . S
H97 C111 0.941 . S
H98 C112 0.939 . S
H99 C114 0.940 . S
H100 C115 0.940 . S
H101 C117 0.939 . S
H102 C118 0.942 . S
H103 C120 0.940 . S
H104 C121 0.939 . S
H105 C123 0.941 . S
H106 C127 0.939 . S
O107 P96 1.490 . S
H108 C124 0.939 . S
H109 C126 0.940 . S
C110 P96 1.812 . S
C110 C111 1.389 . S
C110 C115 1.391 . S
C111 H97 0.941 . S
C111 C110 1.389 . S
C111 C112 1.397 . S
C112 H98 0.939 . S
C112 C111 1.397 . S
C112 C113 1.378 . S
C113 C112 1.378 . S
C113 C114 1.378 . S
C114 H99 0.940 . S
C114 C113 1.378 . S
C114 C115 1.396 . S
C115 H100 0.940 . S
C115 C110 1.391 . S
C115 C114 1.396 . S
C116 P96 1.803 . S
C116 C117 1.378 . S
C116 C121 1.400 . S
C117 H101 0.939 . S
C117 C116 1.378 . S
C117 C118 1.361 . S
C118 H102 0.942 . S
C118 C117 1.361 . S
C118 C119 1.369 . S
C119 C118 1.369 . S
C119 C120 1.404 . S
C120 H103 0.940 . S
C120 C119 1.404 . S
C120 C121 1.389 . S
C121 H104 0.939 . S
C121 C116 1.400 . S
C121 C120 1.389 . S
C122 P96 1.819 . S
C122 C123 1.391 . S
C122 C127 1.391 . S
C123 H105 0.941 . S
C123 C122 1.391 . S
C123 C124 1.396 . S
C124 H108 0.939 . S
C124 C123 1.396 . S
C124 C125 1.397 . S
C125 C124 1.397 . S
C125 C126 1.385 . S
C126 H109 0.940 . S
C126 C125 1.385 . S
C126 C127 1.388 . S
C127 H106 0.939 . S
C127 C122 1.391 . S
C127 C126 1.388 . S
P128 O139 1.490 . S
P128 C142 1.812 1_556 S
P128 C148 1.803 . S
P128 C154 1.819 . S
H129 C143 0.941 . S
H130 C144 0.939 . S
H131 C146 0.940 . S
H132 C147 0.940 . S
H133 C149 0.939 . S
H134 C150 0.942 . S
H135 C152 0.940 1_554 S
H136 C153 0.939 . S
H137 C155 0.941 . S
H138 C159 0.939 . S
O139 P128 1.490 . S
H140 C156 0.939 . S
H141 C158 0.940 . S
C142 P128 1.812 1_554 S
C142 C143 1.389 . S
C142 C147 1.391 . S
C143 H129 0.941 . S
C143 C142 1.389 . S
C143 C144 1.397 . S
C144 H130 0.939 . S
C144 C143 1.397 . S
C144 C145 1.378 . S
C145 C144 1.378 . S
C145 C146 1.378 . S
C146 H131 0.940 . S
C146 C145 1.378 . S
C146 C147 1.396 . S
C147 H132 0.940 . S
C147 C142 1.391 . S
C147 C146 1.396 . S
C148 P128 1.803 . S
C148 C149 1.378 . S
C148 C153 1.400 1_556 S
C149 H133 0.939 . S
C149 C148 1.378 . S
C149 C150 1.361 . S
C150 H134 0.942 . S
C150 C149 1.361 . S
C150 C151 1.369 . S
C151 C150 1.369 . S
C151 C152 1.404 . S
C152 H135 0.940 1_556 S
C152 C151 1.404 . S
C152 C153 1.389 1_556 S
C153 H136 0.939 . S
C153 C148 1.400 1_554 S
C153 C152 1.389 1_554 S
C154 P128 1.819 . S
C154 C155 1.391 . S
C154 C159 1.391 . S
C155 H137 0.941 . S
C155 C154 1.391 . S
C155 C156 1.396 . S
C156 H140 0.939 . S
C156 C155 1.396 . S
C156 C157 1.397 . S
C157 C156 1.397 . S
C157 C158 1.385 . S
C158 H141 0.940 . S
C158 C157 1.385 . S
C158 C159 1.388 . S
C159 H138 0.939 . S
C159 C154 1.391 . S
C159 C158 1.388 . S
P160 O171 1.490 . S
P160 C174 1.812 . S
P160 C180 1.803 . S
P160 C186 1.819 . S
H161 C175 0.941 . S
H162 C176 0.939 . S
H163 C178 0.940 . S
H164 C179 0.940 . S
H165 C181 0.939 . S
H166 C182 0.942 . S
H167 C184 0.940 . S
H168 C185 0.939 . S
H169 C187 0.941 . S
H170 C191 0.939 . S
O171 P160 1.490 . S
H172 C188 0.939 . S
H173 C190 0.940 . S
C174 P160 1.812 . S
C174 C175 1.389 . S
C174 C179 1.391 . S
C175 H161 0.941 . S
C175 C174 1.389 . S
C175 C176 1.397 . S
C176 H162 0.939 . S
C176 C175 1.397 . S
C176 C177 1.378 . S
C177 C176 1.378 . S
C177 C178 1.378 . S
C178 H163 0.940 . S
C178 C177 1.378 . S
C178 C179 1.396 . S
C179 H164 0.940 . S
C179 C174 1.391 . S
C179 C178 1.396 . S
C180 P160 1.803 . S
C180 C181 1.378 . S
C180 C185 1.400 . S
C181 H165 0.939 . S
C181 C180 1.378 . S
C181 C182 1.361 . S
C182 H166 0.942 . S
C182 C181 1.361 . S
C182 C183 1.369 . S
C183 C182 1.369 . S
C183 C184 1.404 . S
C184 H167 0.940 . S
C184 C183 1.404 . S
C184 C185 1.389 . S
C185 H168 0.939 . S
C185 C180 1.400 . S
C185 C184 1.389 . S
C186 P160 1.819 . S
C186 C187 1.391 . S
C186 C191 1.391 . S
C187 H169 0.941 . S
C187 C186 1.391 . S
C187 C188 1.396 . S
C188 H172 0.939 . S
C188 C187 1.396 . S
C188 C189 1.397 . S
C189 C188 1.397 . S
C189 C190 1.385 . S
C190 H173 0.940 . S
C190 C189 1.385 . S
C190 C191 1.388 . S
C191 H170 0.939 . S
C191 C186 1.391 . S
C191 C190 1.388 . S
P192 O203 1.490 . S
P192 C206 1.812 . S
P192 C212 1.803 . S
P192 C218 1.819 1_554 S
H193 C207 0.941 . S
H194 C208 0.939 . S
H195 C210 0.940 . S
H196 C211 0.940 . S
H197 C213 0.939 . S
H198 C214 0.942 . S
H199 C216 0.940 . S
H200 C217 0.930 1_554 S
H201 C219 0.941 . S
H202 C223 0.939 . S
O203 P192 1.490 . S
H204 C220 0.976 . S
H205 C222 0.940 . S
C206 P192 1.812 . S
C206 C207 1.389 . S
C206 C211 1.391 . S
C207 H193 0.941 . S
C207 C206 1.389 . S
C207 C208 1.397 . S
C208 H194 0.939 . S
C208 C207 1.397 . S
C208 C209 1.378 . S
C209 C208 1.378 . S
C209 C210 1.378 . S
C210 H195 0.940 . S
C210 C209 1.378 . S
C210 C211 1.396 . S
C211 H196 0.940 . S
C211 C206 1.391 . S
C211 C210 1.396 . S
C212 P192 1.803 . S
C212 C213 1.378 1_554 S
C212 C217 1.395 1_554 S
C213 H197 0.939 . S
C213 C212 1.378 1_556 S
C213 C214 1.361 . S
C214 H198 0.942 . S
C214 C213 1.361 . S
C214 C215 1.369 . S
C215 C214 1.369 . S
C215 C216 1.404 . S
C216 H199 0.940 . S
C216 C215 1.404 . S
C216 C217 1.403 . S
C217 H200 0.930 1_556 S
C217 C212 1.395 1_556 S
C217 C216 1.403 . S
C218 P192 1.819 1_556 S
C218 C219 1.391 1_556 S
C218 C223 1.391 . S
C219 H201 0.941 . S
C219 C218 1.391 1_554 S
C219 C220 1.396 1_554 S
C220 H204 0.976 . S
C220 C219 1.396 1_556 S
C220 C221 1.397 . S
C221 C220 1.397 . S
C221 C222 1.385 . S
C222 H205 0.940 . S
C222 C221 1.385 . S
C222 C223 1.388 . S
C223 H202 0.939 . S
C223 C218 1.391 . S
C223 C222 1.388 . S
P224 O235 1.490 . S
P224 C238 1.812 . S
P224 C244 1.803 . S
P224 C250 1.819 . S
H225 C239 0.941 . S
H226 C240 0.939 . S
H227 C242 0.940 . S
H228 C243 0.940 . S
H229 C245 0.939 . S
H230 C246 0.942 . S
H231 C248 0.940 . S
H232 C249 0.939 . S
H233 C251 0.941 . S
H234 C255 0.939 . S
O235 P224 1.490 . S
H236 C252 0.939 . S
H237 C254 0.940 . S
C238 P224 1.812 . S
C238 C239 1.389 . S
C238 C243 1.391 . S
C239 H225 0.941 . S
C239 C238 1.389 . S
C239 C240 1.397 . S
C240 H226 0.939 . S
C240 C239 1.397 . S
C240 C241 1.378 . S
C241 C240 1.378 . S
C241 C242 1.378 . S
C242 H227 0.940 . S
C242 C241 1.378 . S
C242 C243 1.396 . S
C243 H228 0.940 . S
C243 C238 1.391 . S
C243 C242 1.396 . S
C244 P224 1.803 . S
C244 C245 1.378 . S
C244 C249 1.400 . S
C245 H229 0.939 . S
C245 C244 1.378 . S
C245 C246 1.361 . S
C246 H230 0.942 . S
C246 C245 1.361 . S
C246 C247 1.369 . S
C247 C246 1.369 . S
C247 C248 1.404 . S
C248 H231 0.940 . S
C248 C247 1.404 . S
C248 C249 1.389 . S
C249 H232 0.939 . S
C249 C244 1.400 . S
C249 C248 1.389 . S
C250 P224 1.819 . S
C250 C251 1.391 . S
C250 C255 1.391 . S
C251 H233 0.941 . S
C251 C250 1.391 . S
C251 C252 1.396 . S
C252 H236 0.939 . S
C252 C251 1.396 . S
C252 C253 1.397 . S
C253 C252 1.397 . S
C253 C254 1.385 . S
C254 H237 0.940 . S
C254 C253 1.385 . S
C254 C255 1.388 . S
C255 H234 0.939 . S
C255 C250 1.391 . S
C255 C254 1.388 . S
Fe256 O258 1.918 . S
Fe256 O261 1.997 1_455 S
Fe256 O262 2.002 1_455 S
Fe256 O267 1.976 . S
Fe256 O270 1.996 . S
Fe257 O258 1.918 . S
Fe257 O265 1.997 1_455 S
Fe257 O268 1.996 . S
Fe257 O272 1.976 . S
Fe257 O275 2.002 1_455 S
O258 Fe256 1.918 . S
O258 Fe257 1.918 . S
O258 Fe259 1.918 . S
Fe259 O258 1.918 . S
Fe259 O260 2.002 1_455 S
Fe259 O269 1.976 . S
Fe259 O273 1.996 . S
Fe259 O276 1.997 1_455 S
O260 Fe259 2.002 1_655 S
O260 C277 1.295 . S
O261 Fe256 1.997 1_655 S
O261 C277 1.235 . S
O262 Fe256 2.002 1_655 S
O262 C263 1.295 . S
C263 O262 1.295 . S
C263 O265 1.235 . S
C264 O269 1.287 . S
C264 O270 1.255 . S
O265 Fe257 1.997 1_655 S
O265 C263 1.235 . S
C266 O272 1.287 . S
C266 O273 1.255 . S
O267 Fe256 1.976 . S
O267 C274 1.287 . S
O268 Fe257 1.996 . S
O268 C274 1.255 . S
O269 Fe259 1.976 . S
O269 C264 1.287 . S
O270 Fe256 1.996 . S
O270 C264 1.255 . S
C271 O275 1.295 . S
C271 O276 1.235 . S
O272 Fe257 1.976 . S
O272 C266 1.287 . S
O273 Fe259 1.996 . S
O273 C266 1.255 . S
C274 O267 1.287 . S
C274 O268 1.255 . S
O275 Fe257 2.002 1_655 S
O275 C271 1.295 . S
O276 Fe259 1.997 1_655 S
O276 C271 1.235 . S
C277 O260 1.295 . S
C277 O261 1.235 . S
Fe278 O280 1.919 . S
Fe278 O283 1.980 1_655 S
Fe278 O284 1.985 1_655 S
Fe278 O289 1.993 . S
Fe278 O292 2.012 . S
Fe279 O280 1.919 . S
Fe279 O287 1.980 1_655 S
Fe279 O290 2.012 . S
Fe279 O294 1.992 . S
Fe279 O297 1.986 1_655 S
O280 Fe278 1.919 . S
O280 Fe279 1.919 . S
O280 Fe281 1.919 . S
Fe281 O280 1.919 . S
Fe281 O282 1.986 1_655 S
Fe281 O291 1.992 . S
Fe281 O295 2.012 . S
Fe281 O298 1.980 1_655 S
O282 Fe281 1.986 1_455 S
O282 C299 1.295 . S
O283 Fe278 1.980 1_455 S
O283 C299 1.235 . S
O284 Fe278 1.985 1_455 S
O284 C285 1.295 . S
C285 O284 1.295 . S
C285 O287 1.235 . S
C286 O291 1.287 . S
C286 O292 1.255 . S
O287 Fe279 1.980 1_455 S
O287 C285 1.235 . S
C288 O294 1.287 . S
C288 O295 1.255 . S
O289 Fe278 1.993 . S
O289 C296 1.287 . S
O290 Fe279 2.012 . S
O290 C296 1.255 . S
O291 Fe281 1.992 . S
O291 C286 1.287 . S
O292 Fe278 2.012 . S
O292 C286 1.255 . S
C293 O297 1.295 . S
C293 O298 1.235 . S
O294 Fe279 1.992 . S
O294 C288 1.287 . S
O295 Fe281 2.012 . S
O295 C288 1.255 . S
C296 O289 1.287 . S
C296 O290 1.255 . S
O297 Fe279 1.986 1_455 S
O297 C293 1.295 . S
O298 Fe281 1.980 1_455 S
O298 C293 1.235 . S
C299 O282 1.295 . S
C299 O283 1.235 . S
Fe300 O302 1.918 . S
Fe300 O305 1.997 . S
Fe300 O306 2.002 . S
Fe300 O311 1.976 . S
Fe300 O314 1.996 . S
Fe301 O302 1.918 . S
Fe301 O309 1.997 . S
Fe301 O312 1.996 . S
Fe301 O316 1.976 . S
Fe301 O319 2.002 . S
O302 Fe300 1.918 . S
O302 Fe301 1.918 . S
O302 Fe303 1.918 . S
Fe303 O302 1.918 . S
Fe303 O304 2.002 . S
Fe303 O313 1.976 . S
Fe303 O317 1.996 . S
Fe303 O320 1.997 . S
O304 Fe303 2.002 . S
O304 C321 1.295 . S
O305 Fe300 1.997 . S
O305 C321 1.235 . S
O306 Fe300 2.002 . S
O306 C307 1.295 . S
C307 O306 1.295 . S
C307 O309 1.235 . S
C308 O313 1.287 . S
C308 O314 1.255 . S
O309 Fe301 1.997 . S
O309 C307 1.235 . S
C310 O316 1.287 . S
C310 O317 1.255 . S
O311 Fe300 1.976 . S
O311 C318 1.287 . S
O312 Fe301 1.996 . S
O312 C318 1.255 . S
O313 Fe303 1.976 . S
O313 C308 1.287 . S
O314 Fe300 1.996 . S
O314 C308 1.255 . S
C315 O319 1.295 . S
C315 O320 1.235 . S
O316 Fe301 1.976 . S
O316 C310 1.287 . S
O317 Fe303 1.996 . S
O317 C310 1.255 . S
C318 O311 1.287 . S
C318 O312 1.255 . S
O319 Fe301 2.002 . S
O319 C315 1.295 . S
O320 Fe303 1.997 . S
O320 C315 1.235 . S
C321 O304 1.295 . S
C321 O305 1.235 . S
Fe322 O324 1.918 . S
Fe322 O327 1.997 . S
Fe322 O328 2.002 . S
Fe322 O333 1.976 . S
Fe322 O336 1.996 . S
Fe323 O324 1.918 . S
Fe323 O331 1.997 . S
Fe323 O334 1.996 . S
Fe323 O338 1.976 . S
Fe323 O341 2.002 . S
O324 Fe322 1.918 . S
O324 Fe323 1.918 . S
O324 Fe325 1.918 . S
Fe325 O324 1.918 . S
Fe325 O326 2.002 . S
Fe325 O335 1.976 . S
Fe325 O339 1.996 . S
Fe325 O342 1.997 . S
O326 Fe325 2.002 . S
O326 C343 1.295 . S
O327 Fe322 1.997 . S
O327 C343 1.235 . S
O328 Fe322 2.002 . S
O328 C329 1.295 . S
C329 O328 1.295 . S
C329 O331 1.235 . S
C330 O335 1.287 . S
C330 O336 1.255 . S
O331 Fe323 1.997 . S
O331 C329 1.235 . S
C332 O338 1.287 . S
C332 O339 1.255 . S
O333 Fe322 1.976 . S
O333 C340 1.287 . S
O334 Fe323 1.996 . S
O334 C340 1.255 . S
O335 Fe325 1.976 . S
O335 C330 1.287 . S
O336 Fe322 1.996 . S
O336 C330 1.255 . S
C337 O341 1.295 . S
C337 O342 1.235 . S
O338 Fe323 1.976 . S
O338 C332 1.287 . S
O339 Fe325 1.996 . S
O339 C332 1.255 . S
C340 O333 1.287 . S
C340 O334 1.255 . S
O341 Fe323 2.002 . S
O341 C337 1.295 . S
O342 Fe325 1.997 . S
O342 C337 1.235 . S
C343 O326 1.295 . S
C343 O327 1.235 . S
H344 C352 0.950 . S
H345 C357 0.950 . S
H346 C354 0.950 . S
H347 C356 0.950 . S
H348 C358 0.950 . S
H349 C360 0.950 . S
H350 C362 0.950 . S
H351 C363 0.950 . S
C352 H344 0.950 . S
C352 C353 1.386 . S
C352 C354 1.391 . S
C353 C352 1.386 . S
C353 C357 1.393 . S
C354 H346 0.950 . S
C354 C352 1.391 . S
C354 C355 1.400 . S
C355 C354 1.400 . S
C355 C356 1.398 . S
C355 C361 1.491 . S
C356 H347 0.950 . S
C356 C355 1.398 . S
C356 C357 1.391 . S
C357 H345 0.950 . S
C357 C353 1.393 . S
C357 C356 1.391 . S
C358 H348 0.950 . S
C358 C359 1.386 . S
C358 C360 1.391 . S
C359 C358 1.386 . S
C359 C363 1.393 . S
C360 H349 0.950 . S
C360 C358 1.391 . S
C360 C361 1.400 . S
C361 C355 1.491 . S
C361 C360 1.400 . S
C361 C362 1.398 . S
C362 H350 0.950 . S
C362 C361 1.398 . S
C362 C363 1.391 . S
C363 H351 0.950 . S
C363 C359 1.393 . S
C363 C362 1.391 . S
H364 C372 0.950 . S
H365 C377 0.950 . S
H366 C374 0.950 . S
H367 C376 0.950 . S
H368 C378 0.950 . S
H369 C380 0.950 . S
H370 C382 0.950 . S
H371 C383 0.950 . S
C372 H364 0.950 . S
C372 C373 1.386 . S
C372 C374 1.391 . S
C373 C372 1.386 . S
C373 C377 1.393 . S
C374 H366 0.950 . S
C374 C372 1.391 . S
C374 C375 1.400 . S
C375 C374 1.400 . S
C375 C376 1.398 . S
C375 C381 1.491 . S
C376 H367 0.950 . S
C376 C375 1.398 . S
C376 C377 1.391 . S
C377 H365 0.950 . S
C377 C373 1.393 . S
C377 C376 1.391 . S
C378 H368 0.950 . S
C378 C379 1.386 . S
C378 C380 1.391 . S
C379 C378 1.386 . S
C379 C383 1.393 . S
C380 H369 0.950 . S
C380 C378 1.391 . S
C380 C381 1.400 . S
C381 C375 1.491 . S
C381 C380 1.400 . S
C381 C382 1.398 . S
C382 H370 0.950 . S
C382 C381 1.398 . S
C382 C383 1.391 . S
C383 H371 0.950 . S
C383 C379 1.393 . S
C383 C382 1.391 . S
H384 C392 0.950 . S
H385 C397 0.950 . S
H386 C394 0.950 . S
H387 C396 0.950 . S
H388 C398 0.950 . S
H389 C400 0.950 . S
H390 C402 0.950 . S
H391 C403 0.950 . S
C392 H384 0.950 . S
C392 C393 1.386 . S
C392 C394 1.391 . S
C393 C392 1.386 . S
C393 C397 1.393 . S
C394 H386 0.950 . S
C394 C392 1.391 . S
C394 C395 1.400 . S
C395 C394 1.400 . S
C395 C396 1.398 . S
C395 C401 1.491 . S
C396 H387 0.950 . S
C396 C395 1.398 . S
C396 C397 1.391 . S
C397 H385 0.950 . S
C397 C393 1.393 . S
C397 C396 1.391 . S
C398 H388 0.950 . S
C398 C399 1.386 . S
C398 C400 1.391 . S
C399 C398 1.386 . S
C399 C403 1.393 . S
C400 H389 0.950 . S
C400 C398 1.391 . S
C400 C401 1.400 . S
C401 C395 1.491 . S
C401 C400 1.400 . S
C401 C402 1.398 . S
C402 H390 0.950 . S
C402 C401 1.398 . S
C402 C403 1.391 . S
C403 H391 0.950 . S
C403 C399 1.393 . S
C403 C402 1.391 . S
H404 C412 0.950 . S
H405 C417 0.950 . S
H406 C414 0.950 . S
H407 C416 0.950 . S
H408 C418 0.950 . S
H409 C420 0.950 . S
H410 C422 0.950 . S
H411 C423 0.950 . S
C412 H404 0.950 . S
C412 C413 1.386 . S
C412 C414 1.391 . S
C413 C412 1.386 . S
C413 C417 1.393 . S
C414 H406 0.950 . S
C414 C412 1.391 . S
C414 C415 1.400 . S
C415 C414 1.400 . S
C415 C416 1.398 . S
C415 C421 1.491 . S
C416 H407 0.950 . S
C416 C415 1.398 . S
C416 C417 1.391 . S
C417 H405 0.950 . S
C417 C413 1.393 . S
C417 C416 1.391 . S
C418 H408 0.950 . S
C418 C419 1.386 . S
C418 C420 1.391 . S
C419 C418 1.386 . S
C419 C423 1.393 . S
C420 H409 0.950 . S
C420 C418 1.391 . S
C420 C421 1.400 . S
C421 C415 1.491 . S
C421 C420 1.400 . S
C421 C422 1.398 . S
C422 H410 0.950 . S
C422 C421 1.398 . S
C422 C423 1.391 . S
C423 H411 0.950 . S
C423 C419 1.393 . S
C423 C422 1.391 . S
H424 C432 0.950 . S
H425 C437 0.950 . S
H426 C434 0.950 . S
H427 C436 0.950 . S
H428 C438 0.950 . S
H429 C440 0.950 . S
H430 C442 0.950 . S
H431 C443 0.950 . S
C432 H424 0.950 . S
C432 C433 1.386 . S
C432 C434 1.391 . S
C433 C432 1.386 . S
C433 C437 1.393 . S
C434 H426 0.950 . S
C434 C432 1.391 . S
C434 C435 1.400 . S
C435 C434 1.400 . S
C435 C436 1.398 . S
C435 C441 1.491 . S
C436 H427 0.950 . S
C436 C435 1.398 . S
C436 C437 1.391 . S
C437 H425 0.950 . S
C437 C433 1.393 . S
C437 C436 1.391 . S
C438 H428 0.950 . S
C438 C439 1.386 . S
C438 C440 1.391 . S
C439 C438 1.386 . S
C439 C443 1.393 . S
C440 H429 0.950 . S
C440 C438 1.391 . S
C440 C441 1.400 . S
C441 C435 1.491 . S
C441 C440 1.400 . S
C441 C442 1.398 . S
C442 H430 0.950 . S
C442 C441 1.398 . S
C442 C443 1.391 . S
C443 H431 0.950 . S
C443 C439 1.393 . S
C443 C442 1.391 . S
H444 C452 0.950 . S
H445 C457 0.950 . S
H446 C454 0.950 . S
H447 C456 0.950 . S
H448 C458 0.950 . S
H449 C460 0.950 . S
H450 C462 0.950 . S
H451 C463 0.950 . S
C452 H444 0.950 . S
C452 C453 1.386 . S
C452 C454 1.391 . S
C453 C452 1.386 . S
C453 C457 1.393 . S
C454 H446 0.950 . S
C454 C452 1.391 . S
C454 C455 1.400 . S
C455 C454 1.400 . S
C455 C456 1.398 . S
C455 C461 1.491 . S
C456 H447 0.950 . S
C456 C455 1.398 . S
C456 C457 1.391 . S
C457 H445 0.950 . S
C457 C453 1.393 . S
C457 C456 1.391 . S
C458 H448 0.950 . S
C458 C459 1.386 . S
C458 C460 1.391 . S
C459 C458 1.386 . S
C459 C463 1.393 . S
C460 H449 0.950 . S
C460 C458 1.391 . S
C460 C461 1.400 . S
C461 C455 1.491 . S
C461 C460 1.400 . S
C461 C462 1.398 . S
C462 H450 0.950 . S
C462 C461 1.398 . S
C462 C463 1.391 . S
C463 H451 0.950 . S
C463 C459 1.393 . S
C463 C462 1.391 . S
H464 C472 0.950 . S
H465 C477 0.950 . S
H466 C474 0.950 . S
H467 C476 0.950 . S
H468 C478 0.950 . S
H469 C480 0.950 . S
H470 C482 0.950 . S
H471 C483 0.950 . S
C472 H464 0.950 . S
C472 C473 1.386 . S
C472 C474 1.391 . S
C473 C472 1.386 . S
C473 C477 1.393 . S
C474 H466 0.950 . S
C474 C472 1.391 . S
C474 C475 1.400 . S
C475 C474 1.400 . S
C475 C476 1.398 . S
C475 C481 1.491 . S
C476 H467 0.950 . S
C476 C475 1.398 . S
C476 C477 1.391 . S
C477 H465 0.950 . S
C477 C473 1.393 . S
C477 C476 1.391 . S
C478 H468 0.950 . S
C478 C479 1.386 . S
C478 C480 1.391 . S
C479 C478 1.386 . S
C479 C483 1.393 . S
C480 H469 0.950 . S
C480 C478 1.391 . S
C480 C481 1.400 . S
C481 C475 1.491 . S
C481 C480 1.400 . S
C481 C482 1.398 . S
C482 H470 0.950 . S
C482 C481 1.398 . S
C482 C483 1.391 . S
C483 H471 0.950 . S
C483 C479 1.393 . S
C483 C482 1.391 . S
H484 C492 0.950 . S
H485 C497 0.950 . S
H486 C494 0.950 . S
H487 C496 0.950 . S
H488 C498 0.950 . S
H489 C500 0.950 . S
H490 C502 0.950 . S
H491 C503 0.950 . S
C492 H484 0.950 . S
C492 C493 1.386 . S
C492 C494 1.391 . S
C493 C492 1.386 . S
C493 C497 1.393 . S
C494 H486 0.950 . S
C494 C492 1.391 . S
C494 C495 1.400 . S
C495 C494 1.400 . S
C495 C496 1.398 . S
C495 C501 1.491 . S
C496 H487 0.950 . S
C496 C495 1.398 . S
C496 C497 1.391 . S
C497 H485 0.950 . S
C497 C493 1.393 . S
C497 C496 1.391 . S
C498 H488 0.950 . S
C498 C499 1.386 . S
C498 C500 1.391 . S
C499 C498 1.386 . S
C499 C503 1.393 . S
C500 H489 0.950 . S
C500 C498 1.391 . S
C500 C501 1.400 . S
C501 C495 1.491 . S
C501 C500 1.400 . S
C501 C502 1.398 . S
C502 H490 0.950 . S
C502 C501 1.398 . S
C502 C503 1.391 . S
C503 H491 0.950 . S
C503 C499 1.393 . S
C503 C502 1.391 . S
H504 C512 0.950 . S
H505 C517 0.950 . S
H506 C514 0.950 . S
H507 C516 0.950 . S
H508 C518 0.950 . S
H509 C520 0.950 . S
H510 C522 0.950 . S
H511 C523 0.950 . S
C512 H504 0.950 . S
C512 C513 1.386 . S
C512 C514 1.391 . S
C513 C512 1.386 . S
C513 C517 1.393 . S
C514 H506 0.950 . S
C514 C512 1.391 . S
C514 C515 1.400 . S
C515 C514 1.400 . S
C515 C516 1.398 . S
C515 C521 1.491 . S
C516 H507 0.950 . S
C516 C515 1.398 . S
C516 C517 1.391 . S
C517 H505 0.950 . S
C517 C513 1.393 . S
C517 C516 1.391 . S
C518 H508 0.950 . S
C518 C519 1.386 . S
C518 C520 1.391 . S
C519 C518 1.386 . S
C519 C523 1.393 . S
C520 H509 0.950 . S
C520 C518 1.391 . S
C520 C521 1.400 . S
C521 C515 1.491 . S
C521 C520 1.400 . S
C521 C522 1.398 . S
C522 H510 0.950 . S
C522 C521 1.398 . S
C522 C523 1.391 . S
C523 H511 0.950 . S
C523 C519 1.393 . S
C523 C522 1.391 . S
H524 C532 0.950 . S
H525 C537 0.950 . S
H526 C534 0.950 . S
H527 C536 0.950 . S
H528 C538 0.950 . S
H529 C540 0.950 . S
H530 C542 0.950 . S
H531 C543 0.950 . S
C532 H524 0.950 . S
C532 C533 1.386 . S
C532 C534 1.391 . S
C533 C532 1.386 . S
C533 C537 1.393 . S
C534 H526 0.950 . S
C534 C532 1.391 . S
C534 C535 1.400 . S
C535 C534 1.400 . S
C535 C536 1.398 . S
C535 C541 1.491 . S
C536 H527 0.950 . S
C536 C535 1.398 . S
C536 C537 1.391 . S
C537 H525 0.950 . S
C537 C533 1.393 . S
C537 C536 1.391 . S
C538 H528 0.950 . S
C538 C539 1.386 . S
C538 C540 1.391 . S
C539 C538 1.386 . S
C539 C543 1.393 . S
C540 H529 0.950 . S
C540 C538 1.391 . S
C540 C541 1.400 . S
C541 C535 1.491 . S
C541 C540 1.400 . S
C541 C542 1.398 . S
C542 H530 0.950 . S
C542 C541 1.398 . S
C542 C543 1.391 . S
C543 H531 0.950 . S
C543 C539 1.393 . S
C543 C542 1.391 . S
H544 C552 0.950 . S
H545 C557 0.950 . S
H546 C554 0.950 . S
H547 C556 0.950 . S
H548 C558 0.950 . S
H549 C560 0.950 . S
H550 C562 0.950 . S
H551 C563 0.950 . S
C552 H544 0.950 . S
C552 C553 1.386 . S
C552 C554 1.391 . S
C553 C552 1.386 . S
C553 C557 1.393 . S
C554 H546 0.950 . S
C554 C552 1.391 . S
C554 C555 1.400 . S
C555 C554 1.400 . S
C555 C556 1.398 . S
C555 C561 1.491 . S
C556 H547 0.950 . S
C556 C555 1.398 . S
C556 C557 1.391 . S
C557 H545 0.950 . S
C557 C553 1.393 . S
C557 C556 1.391 . S
C558 H548 0.950 . S
C558 C559 1.386 . S
C558 C560 1.391 . S
C559 C558 1.386 . S
C559 C563 1.393 . S
C560 H549 0.950 . S
C560 C558 1.391 . S
C560 C561 1.400 . S
C561 C555 1.491 . S
C561 C560 1.400 . S
C561 C562 1.398 . S
C562 H550 0.950 . S
C562 C561 1.398 . S
C562 C563 1.391 . S
C563 H551 0.950 . S
C563 C559 1.393 . S
C563 C562 1.391 . S
H564 C572 0.950 . S
H565 C577 0.950 . S
H566 C574 0.950 . S
H567 C576 0.950 . S
H568 C578 0.950 . S
H569 C580 0.950 . S
H570 C582 0.950 . S
H571 C583 0.950 . S
C572 H564 0.950 . S
C572 C573 1.386 . S
C572 C574 1.391 . S
C573 C572 1.386 . S
C573 C577 1.393 . S
C574 H566 0.950 . S
C574 C572 1.391 . S
C574 C575 1.400 . S
C575 C574 1.400 . S
C575 C576 1.398 . S
C575 C581 1.491 . S
C576 H567 0.950 . S
C576 C575 1.398 . S
C576 C577 1.391 . S
C577 H565 0.950 . S
C577 C573 1.393 . S
C577 C576 1.391 . S
C578 H568 0.950 . S
C578 C579 1.386 . S
C578 C580 1.391 . S
C579 C578 1.386 . S
C579 C583 1.393 . S
C580 H569 0.950 . S
C580 C578 1.391 . S
C580 C581 1.400 . S
C581 C575 1.491 . S
C581 C580 1.400 . S
C581 C582 1.398 . S
C582 H570 0.950 . S
C582 C581 1.398 . S
C582 C583 1.391 . S
C583 H571 0.950 . S
C583 C579 1.393 . S
C583 C582 1.391 . S
H584 C592 0.950 . S
H585 C597 0.942 1_565 S
H586 C594 0.950 . S
H587 C596 0.950 . S
H588 C598 0.950 . S
H589 C600 0.950 . S
H590 C602 0.950 . S
H591 C603 0.950 . S
C592 H584 0.950 . S
C592 C593 1.386 . S
C592 C594 1.391 1_565 S
C593 C592 1.386 . S
C593 C597 1.375 1_565 S
C594 H586 0.950 . S
C594 C592 1.391 1_545 S
C594 C595 1.400 . S
C595 C594 1.400 . S
C595 C596 1.398 . S
C595 C601 1.491 . S
C596 H587 0.950 . S
C596 C595 1.398 . S
C596 C597 1.418 . S
C597 H585 0.942 1_545 S
C597 C593 1.375 1_545 S
C597 C596 1.418 . S
C598 H588 0.950 . S
C598 C599 1.386 . S
C598 C600 1.391 . S
C599 C598 1.386 . S
C599 C603 1.393 . S
C600 H589 0.950 . S
C600 C598 1.391 . S
C600 C601 1.400 . S
C601 C595 1.491 . S
C601 C600 1.400 . S
C601 C602 1.398 . S
C602 H590 0.950 . S
C602 C601 1.398 . S
C602 C603 1.391 . S
C603 H591 0.950 . S
C603 C599 1.393 . S
C603 C602 1.391 . S
H604 C612 0.950 . S
H605 C617 0.950 . S
H606 C614 0.950 . S
H607 C616 0.945 1_545 S
H608 C618 0.950 . S
H609 C620 0.950 . S
H610 C622 0.950 . S
H611 C623 0.950 . S
C612 H604 0.950 . S
C612 C613 1.386 1_565 S
C612 C614 1.391 . S
C613 C612 1.386 1_545 S
C613 C617 1.393 . S
C614 H606 0.950 . S
C614 C612 1.391 . S
C614 C615 1.400 . S
C615 C614 1.400 . S
C615 C616 1.398 . S
C615 C621 1.491 . S
C616 H607 0.945 1_565 S
C616 C615 1.398 . S
C616 C617 1.391 1_565 S
C617 H605 0.950 . S
C617 C613 1.393 . S
C617 C616 1.391 1_545 S
C618 H608 0.950 . S
C618 C619 1.386 . S
C618 C620 1.391 . S
C619 C618 1.386 . S
C619 C623 1.393 . S
C620 H609 0.950 . S
C620 C618 1.391 . S
C620 C621 1.400 . S
C621 C615 1.491 . S
C621 C620 1.400 . S
C621 C622 1.398 . S
C622 H610 0.950 . S
C622 C621 1.398 . S
C622 C623 1.391 . S
C623 H611 0.950 . S
C623 C619 1.393 . S
C623 C622 1.391 . S
H624 C632 0.950 . S
H625 C637 0.950 . S
H626 C634 0.950 . S
H627 C636 0.950 . S
H628 C638 0.950 . S
H629 C640 0.950 . S
H630 C642 0.950 . S
H631 C643 0.950 . S
C632 H624 0.950 . S
C632 C633 1.386 . S
C632 C634 1.391 1_565 S
C633 C632 1.386 . S
C633 C637 1.393 1_565 S
C634 H626 0.950 . S
C634 C632 1.391 1_545 S
C634 C635 1.400 . S
C635 C634 1.400 . S
C635 C636 1.398 . S
C635 C641 1.491 . S
C636 H627 0.950 . S
C636 C635 1.398 . S
C636 C637 1.391 . S
C637 H625 0.950 . S
C637 C633 1.393 1_545 S
C637 C636 1.391 . S
C638 H628 0.950 . S
C638 C639 1.386 . S
C638 C640 1.391 . S
C639 C638 1.386 . S
C639 C643 1.393 . S
C640 H629 0.950 . S
C640 C638 1.391 . S
C640 C641 1.400 . S
C641 C635 1.491 . S
C641 C640 1.400 . S
C641 C642 1.398 . S
C642 H630 0.950 . S
C642 C641 1.398 . S
C642 C643 1.391 . S
C643 H631 0.950 . S
C643 C639 1.393 . S
C643 C642 1.391 . S
H644 C652 0.950 . S
H645 C657 0.950 . S
H646 C654 0.950 . S
H647 C656 0.950 . S
H648 C658 0.950 . S
H649 C660 0.950 . S
H650 C662 0.950 . S
H651 C663 0.950 . S
C652 H644 0.950 . S
C652 C653 1.386 1_565 S
C652 C654 1.391 . S
C653 C652 1.386 1_545 S
C653 C657 1.393 . S
C654 H646 0.950 . S
C654 C652 1.391 . S
C654 C655 1.400 . S
C655 C654 1.400 . S
C655 C656 1.398 . S
C655 C661 1.491 . S
C656 H647 0.950 . S
C656 C655 1.398 . S
C656 C657 1.391 1_565 S
C657 H645 0.950 . S
C657 C653 1.393 . S
C657 C656 1.391 1_545 S
C658 H648 0.950 . S
C658 C659 1.386 . S
C658 C660 1.391 . S
C659 C658 1.386 . S
C659 C663 1.393 . S
C660 H649 0.950 . S
C660 C658 1.391 . S
C660 C661 1.400 . S
C661 C655 1.491 . S
C661 C660 1.400 . S
C661 C662 1.398 . S
C662 H650 0.950 . S
C662 C661 1.398 . S
C662 C663 1.391 . S
C663 H651 0.950 . S
C663 C659 1.393 . S
C663 C662 1.391 . S
H664 C672 0.950 . S
H665 C677 0.950 . S
H666 C674 0.950 . S
H667 C676 0.950 . S
H668 C678 0.950 . S
H669 C680 0.950 . S
H670 C682 0.950 . S
H671 C683 0.950 . S
C672 H664 0.950 . S
C672 C673 1.386 . S
C672 C674 1.391 . S
C673 C672 1.386 . S
C673 C677 1.393 . S
C674 H666 0.950 . S
C674 C672 1.391 . S
C674 C675 1.400 . S
C675 C674 1.400 . S
C675 C676 1.398 . S
C675 C681 1.491 . S
C676 H667 0.950 . S
C676 C675 1.398 . S
C676 C677 1.391 . S
C677 H665 0.950 . S
C677 C673 1.393 . S
C677 C676 1.391 . S
C678 H668 0.950 . S
C678 C679 1.386 . S
C678 C680 1.391 . S
C679 C678 1.386 . S
C679 C683 1.393 . S
C680 H669 0.950 . S
C680 C678 1.391 . S
C680 C681 1.400 . S
C681 C675 1.491 . S
C681 C680 1.400 . S
C681 C682 1.398 . S
C682 H670 0.950 . S
C682 C681 1.398 . S
C682 C683 1.391 . S
C683 H671 0.950 . S
C683 C679 1.393 . S
C683 C682 1.391 . S
H684 C692 0.950 . S
H685 C697 0.950 . S
H686 C694 0.950 . S
H687 C696 0.950 . S
H688 C698 0.950 . S
H689 C700 0.950 . S
H690 C702 0.950 . S
H691 C703 0.950 . S
C692 H684 0.950 . S
C692 C693 1.386 . S
C692 C694 1.391 . S
C693 C692 1.386 . S
C693 C697 1.393 . S
C694 H686 0.950 . S
C694 C692 1.391 . S
C694 C695 1.400 . S
C695 C694 1.400 . S
C695 C696 1.398 . S
C695 C701 1.491 . S
C696 H687 0.950 . S
C696 C695 1.398 . S
C696 C697 1.391 . S
C697 H685 0.950 . S
C697 C693 1.393 . S
C697 C696 1.391 . S
C698 H688 0.950 . S
C698 C699 1.386 . S
C698 C700 1.391 . S
C699 C698 1.386 . S
C699 C703 1.393 . S
C700 H689 0.950 . S
C700 C698 1.391 . S
C700 C701 1.400 . S
C701 C695 1.491 . S
C701 C700 1.400 . S
C701 C702 1.398 . S
C702 H690 0.950 . S
C702 C701 1.398 . S
C702 C703 1.391 . S
C703 H691 0.950 . S
C703 C699 1.393 . S
C703 C702 1.391 . S
H704 C712 0.950 . S
H705 C717 0.950 . S
H706 C714 0.950 . S
H707 C716 0.950 . S
H708 C718 0.950 . S
H709 C720 0.950 . S
H710 C722 0.950 . S
H711 C723 0.950 . S
C712 H704 0.950 . S
C712 C713 1.386 . S
C712 C714 1.391 . S
C713 C712 1.386 . S
C713 C717 1.393 . S
C714 H706 0.950 . S
C714 C712 1.391 . S
C714 C715 1.400 . S
C715 C714 1.400 . S
C715 C716 1.398 . S
C715 C721 1.491 . S
C716 H707 0.950 . S
C716 C715 1.398 . S
C716 C717 1.391 . S
C717 H705 0.950 . S
C717 C713 1.393 . S
C717 C716 1.391 . S
C718 H708 0.950 . S
C718 C719 1.386 . S
C718 C720 1.391 . S
C719 C718 1.386 . S
C719 C723 1.393 . S
C720 H709 0.950 . S
C720 C718 1.391 . S
C720 C721 1.400 . S
C721 C715 1.491 . S
C721 C720 1.400 . S
C721 C722 1.398 . S
C722 H710 0.950 . S
C722 C721 1.398 . S
C722 C723 1.391 . S
C723 H711 0.950 . S
C723 C719 1.393 . S
C723 C722 1.391 . S
H724 C732 0.950 . S
H725 C737 0.950 . S
H726 C734 0.950 . S
H727 C736 0.950 . S
H728 C738 0.950 . S
H729 C740 0.950 . S
H730 C742 0.950 . S
H731 C743 0.950 . S
C732 H724 0.950 . S
C732 C733 1.386 . S
C732 C734 1.391 . S
C733 C732 1.386 . S
C733 C737 1.393 . S
C734 H726 0.950 . S
C734 C732 1.391 . S
C734 C735 1.400 . S
C735 C734 1.400 . S
C735 C736 1.398 . S
C735 C741 1.491 . S
C736 H727 0.950 . S
C736 C735 1.398 . S
C736 C737 1.391 . S
C737 H725 0.950 . S
C737 C733 1.393 . S
C737 C736 1.391 . S
C738 H728 0.950 . S
C738 C739 1.386 . S
C738 C740 1.391 . S
C739 C738 1.386 . S
C739 C743 1.393 . S
C740 H729 0.950 . S
C740 C738 1.391 . S
C740 C741 1.400 . S
C741 C735 1.491 . S
C741 C740 1.400 . S
C741 C742 1.398 . S
C742 H730 0.950 . S
C742 C741 1.398 . S
C742 C743 1.391 . S
C743 H731 0.950 . S
C743 C739 1.393 . S
C743 C742 1.391 . S
H744 C752 0.950 . S
H745 C757 0.950 . S
H746 C754 0.950 . S
H747 C756 0.950 . S
H748 C758 0.950 . S
H749 C760 0.950 . S
H750 C762 0.950 . S
H751 C763 0.950 . S
C752 H744 0.950 . S
C752 C753 1.386 . S
C752 C754 1.391 . S
C753 C752 1.386 . S
C753 C757 1.393 . S
C754 H746 0.950 . S
C754 C752 1.391 . S
C754 C755 1.400 . S
C755 C754 1.400 . S
C755 C756 1.398 . S
C755 C761 1.491 . S
C756 H747 0.950 . S
C756 C755 1.398 . S
C756 C757 1.391 . S
C757 H745 0.950 . S
C757 C753 1.393 . S
C757 C756 1.391 . S
C758 H748 0.950 . S
C758 C759 1.386 . S
C758 C760 1.391 . S
C759 C758 1.386 . S
C759 C763 1.393 . S
C760 H749 0.950 . S
C760 C758 1.391 . S
C760 C761 1.400 . S
C761 C755 1.491 . S
C761 C760 1.400 . S
C761 C762 1.398 . S
C762 H750 0.950 . S
C762 C761 1.398 . S
C762 C763 1.391 . S
C763 H751 0.950 . S
C763 C759 1.393 . S
C763 C762 1.391 . S
H764 C772 0.950 . S
H765 C777 0.950 . S
H766 C774 0.950 . S
H767 C776 0.950 . S
H768 C778 0.950 . S
H769 C780 0.950 . S
H770 C782 0.950 . S
H771 C783 0.950 . S
C772 H764 0.950 . S
C772 C773 1.386 . S
C772 C774 1.391 . S
C773 C772 1.386 . S
C773 C777 1.393 . S
C774 H766 0.950 . S
C774 C772 1.391 . S
C774 C775 1.400 . S
C775 C774 1.400 . S
C775 C776 1.398 . S
C775 C781 1.491 . S
C776 H767 0.950 . S
C776 C775 1.398 . S
C776 C777 1.391 . S
C777 H765 0.950 . S
C777 C773 1.393 . S
C777 C776 1.391 . S
C778 H768 0.950 . S
C778 C779 1.386 . S
C778 C780 1.391 . S
C779 C778 1.386 . S
C779 C783 1.393 . S
C780 H769 0.950 . S
C780 C778 1.391 . S
C780 C781 1.400 . S
C781 C775 1.491 . S
C781 C780 1.400 . S
C781 C782 1.398 . S
C782 H770 0.950 . S
C782 C781 1.398 . S
C782 C783 1.391 . S
C783 H771 0.950 . S
C783 C779 1.393 . S
C783 C782 1.391 . S
H784 C792 0.950 . S
H785 C797 0.950 . S
H786 C794 0.950 . S
H787 C796 0.950 . S
H788 C798 0.950 . S
H789 C800 0.950 . S
H790 C802 0.950 . S
H791 C803 0.950 . S
C792 H784 0.950 . S
C792 C793 1.386 . S
C792 C794 1.391 . S
C793 C792 1.386 . S
C793 C797 1.393 . S
C794 H786 0.950 . S
C794 C792 1.391 . S
C794 C795 1.400 . S
C795 C794 1.400 . S
C795 C796 1.398 . S
C795 C801 1.491 . S
C796 H787 0.950 . S
C796 C795 1.398 . S
C796 C797 1.391 . S
C797 H785 0.950 . S
C797 C793 1.393 . S
C797 C796 1.391 . S
C798 H788 0.950 . S
C798 C799 1.386 . S
C798 C800 1.391 . S
C799 C798 1.386 . S
C799 C803 1.393 . S
C800 H789 0.950 . S
C800 C798 1.391 . S
C800 C801 1.400 . S
C801 C795 1.491 . S
C801 C800 1.400 . S
C801 C802 1.398 . S
C802 H790 0.950 . S
C802 C801 1.398 . S
C802 C803 1.391 . S
C803 H791 0.950 . S
C803 C799 1.393 . S
C803 C802 1.391 . S
H804 C812 0.950 . S
H805 C817 0.950 . S
H806 C814 0.950 . S
H807 C816 0.950 . S
H808 C818 0.950 . S
H809 C820 0.950 . S
H810 C822 0.950 . S
H811 C823 0.950 . S
C812 H804 0.950 . S
C812 C813 1.386 . S
C812 C814 1.391 . S
C813 C812 1.386 . S
C813 C817 1.393 . S
C814 H806 0.950 . S
C814 C812 1.391 . S
C814 C815 1.400 . S
C815 C814 1.400 . S
C815 C816 1.398 . S
C815 C821 1.491 . S
C816 H807 0.950 . S
C816 C815 1.398 . S
C816 C817 1.391 . S
C817 H805 0.950 . S
C817 C813 1.393 . S
C817 C816 1.391 . S
C818 H808 0.950 . S
C818 C819 1.386 . S
C818 C820 1.391 . S
C819 C818 1.386 . S
C819 C823 1.393 . S
C820 H809 0.950 . S
C820 C818 1.391 . S
C820 C821 1.400 . S
C821 C815 1.491 . S
C821 C820 1.400 . S
C821 C822 1.398 . S
C822 H810 0.950 . S
C822 C821 1.398 . S
C822 C823 1.391 . S
C823 H811 0.950 . S
C823 C819 1.393 . S
C823 C822 1.391 . S
C353 C23 1.518 . S
C359 C299 1.558 . S
C379 C263 1.502 . S
C373 C55 1.519 . S
C399 C286 1.539 . S
C393 C87 1.555 . S
C419 C274 1.501 . S
C413 C119 1.441 . S
C439 C343 1.548 . S
C433 C151 1.494 . S
C459 C307 1.502 . S
C453 C183 1.526 . S
C473 C215 1.549 . S
C479 C330 1.549 . S
C499 C318 1.501 . S
C493 C247 1.441 . S
C513 C29 1.465 . S
C519 C340 1.534 . S
C539 C310 1.464 . S
C533 C49 1.456 . S
C553 C93 1.555 . S
C559 C329 1.552 . S
C573 C113 1.445 . S
C579 C315 1.482 . S
C599 C296 1.532 . S
C593 C157 1.476 . S
C613 C177 1.462 . S
C619 C266 1.467 . S
C639 C285 1.557 . S
C633 C221 1.550 . S
C659 C271 1.482 . S
C653 C241 1.447 . S
C679 C321 1.506 . S
C673 C17 1.442 . S
C699 C337 1.504 . S
C693 C61 1.502 . S
C713 C81 1.480 . S
C719 C308 1.480 . S
C739 C332 1.480 . S
C733 C125 1.385 . S
C759 C277 1.502 . S
C753 C145 1.446 . S
C773 C189 1.503 . S
C779 C293 1.506 . S
C793 C209 1.480 . S
C799 C264 1.481 . S
C813 C253 1.411 . S
C819 C288 1.477 . S
