# Generated by pormake.
# Topology zzz, (3,6)-cn, num edge types: 1
# Building blocks:
#     Node 0, Type 0, BuildingBlock: INOVEN_clean_linker_0, # of connection points: 3
#     Node 1, Type 0, BuildingBlock: INOVEN_clean_linker_0, # of connection points: 3
#     Node 2, Type 0, BuildingBlock: INOVEN_clean_linker_0, # of connection points: 3
#     Node 3, Type 0, BuildingBlock: INOVEN_clean_linker_0, # of connection points: 3
#     Node 4, Type 0, BuildingBlock: INOVEN_clean_linker_0, # of connection points: 3
#     Node 5, Type 0, BuildingBlock: INOVEN_clean_linker_0, # of connection points: 3
#     Node 6, Type 0, BuildingBlock: INOVEN_clean_linker_0, # of connection points: 3
#     Node 7, Type 0, BuildingBlock: INOVEN_clean_linker_0, # of connection points: 3
#     Node 8, Type 1, BuildingBlock: JUFBIX_clean_sbu_0, # of connection points: 6
#     Node 9, Type 1, BuildingBlock: JUFBIX_clean_sbu_0, # of connection points: 6
#     Node 10, Type 1, BuildingBlock: JUFBIX_clean_sbu_0, # of connection points: 6
#     Node 11, Type 1, BuildingBlock: JUFBIX_clean_sbu_0, # of connection points: 6
#     Edge 12, Type (0, 1), BuildingBlock: EZIPEK_clean_linker_0, # of connection points: 2
#     Edge 13, Type (0, 1), BuildingBlock: EZIPEK_clean_linker_0, # of connection points: 2
#     Edge 14, Type (0, 1), BuildingBlock: EZIPEK_clean_linker_0, # of connection points: 2
#     Edge 15, Type (0, 1), BuildingBlock: EZIPEK_clean_linker_0, # of connection points: 2
#     Edge 16, Type (0, 1), BuildingBlock: EZIPEK_clean_linker_0, # of connection points: 2
#     Edge 17, Type (0, 1), BuildingBlock: EZIPEK_clean_linker_0, # of connection points: 2
#     Edge 18, Type (0, 1), BuildingBlock: EZIPEK_clean_linker_0, # of connection points: 2
#     Edge 19, Type (0, 1), BuildingBlock: EZIPEK_clean_linker_0, # of connection points: 2
#     Edge 20, Type (0, 1), BuildingBlock: EZIPEK_clean_linker_0, # of connection points: 2
#     Edge 21, Type (0, 1), BuildingBlock: EZIPEK_clean_linker_0, # of connection points: 2
#     Edge 22, Type (0, 1), BuildingBlock: EZIPEK_clean_linker_0, # of connection points: 2
#     Edge 23, Type (0, 1), BuildingBlock: EZIPEK_clean_linker_0, # of connection points: 2
#     Edge 24, Type (0, 1), BuildingBlock: EZIPEK_clean_linker_0, # of connection points: 2
#     Edge 25, Type (0, 1), BuildingBlock: EZIPEK_clean_linker_0, # of connection points: 2
#     Edge 26, Type (0, 1), BuildingBlock: EZIPEK_clean_linker_0, # of connection points: 2
#     Edge 27, Type (0, 1), BuildingBlock: EZIPEK_clean_linker_0, # of connection points: 2
#     Edge 28, Type (0, 1), BuildingBlock: EZIPEK_clean_linker_0, # of connection points: 2
#     Edge 29, Type (0, 1), BuildingBlock: EZIPEK_clean_linker_0, # of connection points: 2
#     Edge 30, Type (0, 1), BuildingBlock: EZIPEK_clean_linker_0, # of connection points: 2
#     Edge 31, Type (0, 1), BuildingBlock: EZIPEK_clean_linker_0, # of connection points: 2
#     Edge 32, Type (0, 1), BuildingBlock: EZIPEK_clean_linker_0, # of connection points: 2
#     Edge 33, Type (0, 1), BuildingBlock: EZIPEK_clean_linker_0, # of connection points: 2
#     Edge 34, Type (0, 1), BuildingBlock: EZIPEK_clean_linker_0, # of connection points: 2
#     Edge 35, Type (0, 1), BuildingBlock: EZIPEK_clean_linker_0, # of connection points: 2
# Relax obj value: 0.114
# Max RMSD: 0.174
# Mean RMSD: 0.084
data_MOF--net-zzz--node1-JUFBIX_clean_sbu_0--node2-INOVEN_clean_linker_0--edge1-EZIPEK_clean_linker_0
_symmetry_space_group_name_H-M    P1
_symmetry_Int_Tables_number       1
_symmetry_cell_setting            triclinic
loop_
_symmetry_equiv_pos_as_xyz
'x, y, z'
_cell_length_a     37.639209
_cell_length_b     37.664696
_cell_length_c     13.367669
_cell_angle_alpha  77.909258
_cell_angle_beta   89.302204
_cell_angle_gamma 91.645773
loop_
_atom_site_label
_atom_site_type_symbol
_atom_site_fract_x
_atom_site_fract_y
_atom_site_fract_z
_atom_type_partial_charge
H0 H 0.82591 0.52972 0.44979 0.0
H1 H 0.93459 0.50899 0.38109 0.0
H2 H 0.85339 0.49377 0.17294 0.0
N3 N 0.79848 0.51402 0.27671 0.0
N4 N 0.78935 0.50386 0.19716 0.0
C5 C 0.84523 0.52022 0.40158 0.0
C6 C 0.88153 0.51898 0.42837 0.0
C7 C 0.83442 0.51013 0.31005 0.0
C8 C 0.86044 0.49945 0.24649 0.0
C9 C 0.89637 0.4998 0.27154 0.0
C10 C 0.90652 0.50815 0.36356 0.0
H11 H 0.02875 0.74955 0.45477 0.0
H12 H 1.00142 0.86257 0.38575 0.0
H13 H 1.0033 0.80352 0.14845 0.0
N14 N 1.01666 0.73878 0.26083 0.0
N15 N 1.00272 0.73658 0.17768 0.0
C16 C 1.01846 0.7728 0.40269 0.0
C17 C 1.01429 0.80614 0.43492 0.0
C18 C 1.01131 0.77082 0.29984 0.0
C19 C 1.00389 0.80304 0.22977 0.0
C20 C 1.00194 0.8358 0.26092 0.0
C21 C 1.0028 0.83642 0.36405 0.0
H22 H 0.80681 1.0148 0.29351 0.0
H23 H 0.69371 0.02118 0.25505 0.0
H24 H 0.76098 0.02065 -0.00488 0.0
N25 N 0.82345 0.01737 0.09572 0.0
N26 N 0.8286 1.01669 0.00335 0.0
C27 C 0.78396 0.0171 0.24437 0.0
C28 C 0.74948 0.01786 0.28668 0.0
C29 C 0.78859 0.0187 0.13804 0.0
C30 C 0.75833 0.0204 0.07605 0.0
C31 C 0.72434 0.02127 0.11913 0.0
C32 C 0.7203 0.02074 0.22278 0.0
H33 H 0.54778 0.74098 0.33527 0.0
H34 H 0.54432 0.63381 0.27036 0.0
H35 H 0.54919 0.72612 0.02229 0.0
N36 N 0.5489 0.7774 0.13758 0.0
N37 N 0.54836 0.79094 0.04365 0.0
C38 C 0.54797 0.72344 0.28061 0.0
C39 C 0.54683 0.68521 0.31564 0.0
C40 C 0.54882 0.73879 0.17395 0.0
C41 C 0.54843 0.7153 0.10405 0.0
C42 C 0.54618 0.67758 0.13939 0.0
C43 C 0.54579 0.66314 0.244 0.0
H44 H 0.26621 0.4973 0.17537 0.0
H45 H 0.15758 0.52125 0.23329 0.0
H46 H 0.23184 0.5105 0.47537 0.0
N47 N 0.28961 0.50005 0.36488 0.0
N48 N 0.29667 0.50379 0.4534 0.0
C49 C 0.24553 0.50199 0.2277 0.0
C50 C 0.21033 0.50764 0.19339 0.0
C51 C 0.25384 0.50342 0.32993 0.0
C52 C 0.2264 0.50976 0.39642 0.0
C53 C 0.19195 0.51662 0.36104 0.0
C54 C 0.18436 0.51563 0.26025 0.0
H55 H 0.06174 0.29398 0.15096 0.0
H56 H 0.05117 0.17721 0.2473 0.0
H57 H 0.05875 0.24169 0.47222 0.0
N58 N 0.05944 0.30627 0.34779 0.0
N59 N 0.07305 0.3083 0.43144 0.0
C60 C 0.06017 0.26975 0.21115 0.0
C61 C 0.05776 0.23483 0.18661 0.0
C62 C 0.06082 0.2725 0.31554 0.0
C63 C 0.05886 0.24047 0.39191 0.0
C64 C 0.05448 0.20675 0.36665 0.0
C65 C 0.05398 0.20398 0.26523 0.0
H66 H 0.27387 0.03618 0.32206 0.0
H67 H 0.38585 0.03945 0.38236 0.0
H68 H 0.31167 1.01146 0.63236 0.0
N69 N 0.25225 0.02695 0.52114 0.0
N70 N 0.24615 0.02217 0.61542 0.0
C71 C 0.29539 0.03461 0.3757 0.0
C72 C 0.33114 0.03817 0.33964 0.0
C73 C 0.28792 0.02738 0.48256 0.0
C74 C 0.31645 0.02008 0.55067 0.0
C75 C 0.3515 0.02449 0.51338 0.0
C76 C 0.35837 0.03652 0.40968 0.0
H77 H 0.53445 0.28849 0.30014 0.0
H78 H 0.55006 0.39467 0.36702 0.0
H79 H 0.55629 0.30062 0.60859 0.0
N80 N 0.54212 0.25082 0.49357 0.0
N81 N 0.53982 0.23669 0.58709 0.0
C82 C 0.54046 0.30547 0.35427 0.0
C83 C 0.54244 0.34371 0.32101 0.0
C84 C 0.54546 0.28939 0.45872 0.0
C85 C 0.5527 0.31211 0.52816 0.0
C86 C 0.55388 0.34997 0.49476 0.0
C87 C 0.54931 0.36528 0.39189 0.0
Co88 Co 0.04405 0.03835 0.87005 0.0
C89 C 0.97147 0.0206 0.83785 0.0
Co90 Co 0.03418 1.00297 0.75716 0.0
C91 C 0.05829 0.10585 0.93749 0.0
C92 C 0.03372 0.06527 0.05645 0.0
N93 N 0.04718 0.07039 0.96029 0.0
N94 N 0.05196 0.12289 0.01488 0.0
C95 C 0.03655 0.09748 0.08998 0.0
H96 H 0.06946 0.11955 0.86411 0.0
H97 H 0.02099 0.04029 0.09769 0.0
C98 C 0.10682 0.02155 0.794 0.0
N99 N 0.03468 0.97237 0.66054 0.0
C100 C 0.02293 0.93763 0.66303 0.0
C101 C 0.0622 0.97723 0.5933 0.0
N102 N 0.04407 0.92007 0.60598 0.0
C103 C 0.06962 0.94524 0.56766 0.0
C104 C 0.03868 0.07514 0.66952 0.0
O105 O 0.09494 0.03831 0.85976 0.0
O106 O 0.08504 1.00464 0.74826 0.0
O107 O 0.03289 0.04408 0.64967 0.0
O108 O 0.04392 0.07844 0.7604 0.0
O109 O 0.98286 1.00262 0.77277 0.0
H110 H 0.07909 1.00143 0.57362 0.0
H111 H 1.00035 0.92534 0.7095 0.0
O112 O 0.99354 0.03869 0.88044 0.0
O113 O 0.0432 0.9958 0.97876 0.0
O114 O 0.03513 0.96227 0.86338 0.0
C115 C 0.03716 0.96482 0.95609 0.0
H116 H 0.02676 0.1023 0.16231 0.0
H117 H 0.09369 0.94084 0.52766 0.0
Co118 Co 0.52252 1.01392 0.87427 0.0
C119 C 0.54478 0.94317 0.8585 0.0
Co120 Co 0.55726 1.01103 0.73949 0.0
C121 C 0.46587 0.02796 0.02945 0.0
C122 C 0.46188 0.97923 0.97244 0.0
N123 N 0.48419 1.00818 0.9725 0.0
N124 N 0.43335 1.0122 0.06134 0.0
C125 C 0.43114 0.98213 0.02294 0.0
H126 H 0.47527 0.05393 0.04305 0.0
H127 H 0.46586 0.9583 0.92977 0.0
C128 C 0.53749 0.08193 0.75504 0.0
N129 N 0.59133 1.01327 0.63482 0.0
C130 C 0.62626 1.0052 0.64113 0.0
C131 C 0.58651 0.0274 0.53463 0.0
N132 N 0.64304 1.0137 0.54884 0.0
C133 C 0.61814 0.02765 0.48188 0.0
C134 C 0.48844 1.0083 0.69038 0.0
O135 O 0.51905 0.06615 0.83416 0.0
O136 O 0.55579 0.06277 0.70704 0.0
O137 O 0.51862 1.0082 0.64663 0.0
O138 O 0.48701 1.00925 0.78347 0.0
O139 O 0.55933 0.95889 0.77377 0.0
H140 H 0.56186 0.03806 0.50215 0.0
H141 H 0.63942 0.99422 0.71195 0.0
O142 O 0.52826 0.96208 0.91094 0.0
O143 O 0.55907 0.01951 0.96495 0.0
O144 O 0.59359 1.01444 0.8332 0.0
C145 C 0.58993 0.01841 0.92496 0.0
H146 H 0.4084 0.96339 0.0307 0.0
H147 H 0.62282 0.03812 0.40083 0.0
Co148 Co 0.5729 0.51483 0.82514 0.0
C149 C 0.5374 0.45983 0.9708 0.0
Co150 Co 0.51452 0.51219 0.81114 0.0
C151 C 0.63686 0.5145 0.94235 0.0
C152 C 0.64884 0.52345 0.78179 0.0
N153 N 0.62146 0.51774 0.84992 0.0
N154 N 0.6726 0.51785 0.93441 0.0
C155 C 0.68035 0.52354 0.83363 0.0
H156 H 0.62225 0.5094 0.01437 0.0
H157 H 0.64607 0.5271 0.69985 0.0
C158 C 0.54882 0.56765 0.66552 0.0
N159 N 0.46589 0.50959 0.78672 0.0
C160 C 0.45031 0.50721 0.69742 0.0
C161 C 0.43857 0.50969 0.85293 0.0
N162 N 0.41453 0.5062 0.70526 0.0
C163 C 0.40694 0.50761 0.80296 0.0
C164 C 0.53573 0.55982 0.92728 0.0
O165 O 0.57742 0.55347 0.70337 0.0
O166 O 0.51928 0.55318 0.70216 0.0
O167 O 0.50762 0.54462 0.90167 0.0
O168 O 0.56581 0.55008 0.90143 0.0
O169 O 0.50988 0.47132 0.92156 0.0
H170 H 0.44146 0.51115 0.93239 0.0
H171 H 0.4648 0.50614 0.62785 0.0
O172 O 0.56717 0.47641 0.94527 0.0
O173 O 0.57997 0.47921 0.74816 0.0
O174 O 0.52251 0.47974 0.72171 0.0
C175 C 0.5528 0.46691 0.70971 0.0
H176 H 0.70689 0.52715 0.80025 0.0
H177 H 0.38042 0.50719 0.83557 0.0
Co178 Co 0.04688 0.55367 0.80102 0.0
C179 C 0.10262 0.51342 0.90625 0.0
Co180 Co 0.04427 0.49467 0.80511 0.0
C181 C 0.02973 0.61551 0.88875 0.0
C182 C 0.07704 0.62601 0.79585 0.0
N183 N 0.04983 0.6015 0.82235 0.0
N184 N 0.0438 0.64687 0.90627 0.0
C185 C 0.07336 0.65395 0.84722 0.0
H186 H 1.00613 0.60228 0.92813 0.0
H187 H 0.09939 0.62278 0.74756 0.0
C188 C 0.98924 0.53561 0.69859 0.0
N189 N 0.04139 0.44666 0.78653 0.0
C190 C 0.06193 0.42952 0.72839 0.0
C191 C 1.01241 0.42473 0.81019 0.0
N192 N 0.04769 0.39679 0.71805 0.0
C193 C 1.01578 0.39508 0.76724 0.0
C194 C 1.00643 0.50889 0.96232 0.0
O195 O 1.00349 0.56245 0.72915 0.0
O196 O 1.00382 0.50491 0.71984 0.0
O197 O 1.01349 0.48276 0.92022 0.0
O198 O 0.02053 0.53999 0.92656 0.0
O199 O 0.08515 0.48536 0.8921 0.0
H200 H 0.98871 0.43137 0.84802 0.0
H201 H 0.08499 0.44285 0.68703 0.0
O202 O 0.09023 0.54432 0.86964 0.0
O203 O 0.07314 0.56634 0.67555 0.0
O204 O 0.07459 0.50716 0.69106 0.0
C205 C 0.08415 0.53888 0.64424 0.0
H206 H 0.09165 0.67683 0.84481 0.0
H207 H 0.99439 0.37546 0.76568 0.0
C208 C 0.19384 0.05559 0.65252 0.0
C209 C 0.21136 0.02239 0.65899 0.0
C210 C 0.1629 0.98971 0.76875 0.0
C211 C 0.14511 0.02289 0.7625 0.0
N212 N 0.14605 0.08839 0.71255 0.0
N213 N 0.21678 0.95943 0.73608 0.0
C214 C 0.16142 0.05619 0.70899 0.0
C215 C 0.19707 0.98995 0.72128 0.0
N216 N 0.20829 0.08648 0.59171 0.0
N217 N 0.14679 0.95785 0.81918 0.0
H218 H 0.24129 0.95872 0.69926 0.0
H219 H 0.21008 0.93559 0.78868 0.0
H220 H 0.12334 0.95692 0.86224 0.0
H221 H 0.15586 0.93227 0.8159 0.0
H222 H 0.19535 0.11096 0.57312 0.0
H223 H 0.23296 0.08719 0.55487 0.0
H224 H 0.15799 0.11378 0.68387 0.0
H225 H 0.12189 0.09011 0.74962 0.0
C226 C 0.54947 0.18519 0.72862 0.0
C227 C 0.53679 0.19831 0.62856 0.0
C228 C 0.52555 0.13557 0.6099 0.0
C229 C 0.53618 0.12212 0.71298 0.0
N230 N 0.55446 0.13502 0.87468 0.0
N231 N 0.50004 0.18574 0.49277 0.0
C232 C 0.54665 0.14726 0.77395 0.0
C233 C 0.52137 0.17354 0.57389 0.0
N234 N 0.56547 0.20921 0.77898 0.0
N235 N 0.51929 0.11248 0.54518 0.0
H236 H 0.49259 0.21267 0.47184 0.0
H237 H 0.48553 0.16839 0.45607 0.0
H238 H 0.51971 0.08433 0.56692 0.0
H239 H 0.51596 0.12166 0.46681 0.0
H240 H 0.57916 0.20147 0.84688 0.0
H241 H 0.56708 0.23713 0.74895 0.0
H242 H 0.55812 0.15205 0.92603 0.0
H243 H 0.55539 0.10759 0.90922 0.0
C244 C 0.34019 0.46987 0.56615 0.0
C245 C 0.33148 0.50155 0.49443 0.0
C246 C 0.38129 0.5353 0.55234 0.0
C247 C 0.38919 0.50381 0.62646 0.0
N248 N 0.38205 0.43961 0.69066 0.0
N249 N 0.34585 0.56251 0.40619 0.0
C250 C 0.37049 0.47051 0.62868 0.0
C251 C 0.35312 0.53359 0.48267 0.0
N252 N 0.31825 0.43974 0.57715 0.0
N253 N 0.39958 0.56713 0.55277 0.0
H254 H 0.32488 0.56173 0.35627 0.0
H255 H 0.3616 0.58619 0.38759 0.0
H256 H 0.42015 0.56892 0.6032 0.0
H257 H 0.39366 0.59205 0.50689 0.0
H258 H 0.32044 0.41672 0.63509 0.0
H259 H 0.29667 0.43852 0.52949 0.0
H260 H 0.37158 0.41372 0.69094 0.0
H261 H 0.40423 0.43973 0.73674 0.0
C262 C 0.08973 0.36264 0.49643 0.0
C263 C 0.06456 0.3347 0.48935 0.0
C264 C 0.03883 0.33948 0.6544 0.0
C265 C 0.05891 0.37202 0.65271 0.0
N266 N 0.1176 0.39802 0.6076 0.0
N267 N 1.01263 0.29867 0.55702 0.0
C268 C 0.08833 0.3799 0.58236 0.0
C269 C 0.03805 0.3243 0.56631 0.0
N270 N 0.11528 0.37199 0.42154 0.0
N271 N 0.02511 0.32002 0.745 0.0
H272 H 1.01139 0.28676 0.49334 0.0
H273 H 0.99102 0.2921 0.60775 0.0
H274 H 0.03087 0.32724 0.81447 0.0
H275 H 1.01287 0.29438 0.75274 0.0
H276 H 0.13316 0.3939 0.41654 0.0
H277 H 0.11656 0.35911 0.35962 0.0
H278 H 0.14055 0.40372 0.5622 0.0
H279 H 0.12128 0.40125 0.6824 0.0
C280 C 0.87033 0.03134 0.85598 0.0
C281 C 0.8633 1.01445 0.95992 0.0
C282 C 0.92622 1.00165 0.98285 0.0
C283 C 0.93368 1.01699 0.87716 0.0
N284 N 0.91154 0.0425 0.70987 0.0
N285 N 0.88222 0.97028 0.10514 0.0
C286 C 0.9052 0.03029 0.81233 0.0
C287 C 0.89052 0.99578 0.01865 0.0
N288 N 0.84375 0.04945 0.80032 0.0
N289 N 0.95293 0.99292 0.05084 0.0
H290 H 0.85609 0.96217 0.12746 0.0
H291 H 0.90102 0.95354 0.14595 0.0
H292 H 0.97961 0.99486 0.03025 0.0
H293 H 0.94846 0.98596 0.12977 0.0
H294 H 0.84748 0.06568 0.72752 0.0
H295 H 0.818 0.04976 0.83005 0.0
H296 H 0.89156 0.04934 0.65681 0.0
H297 H 0.93688 0.0438 0.67663 0.0
C298 C 0.57812 0.85189 0.00335 0.0
C299 C 0.54748 0.82914 0.00229 0.0
C300 C 0.51621 0.88041 0.89924 0.0
C301 C 0.54696 0.9032 0.89894 0.0
N302 N 0.60881 0.91012 0.93723 0.0
N303 N 0.4897 0.81925 0.93794 0.0
C304 C 0.57845 0.88874 0.94721 0.0
C305 C 0.51722 0.84281 0.94678 0.0
N306 N 0.60691 0.83799 0.0575 0.0
N307 N 0.48593 0.89488 0.85443 0.0
H308 H 0.48933 0.79193 0.97495 0.0
H309 H 0.46823 0.82599 0.89013 0.0
H310 H 0.4851 0.92145 0.81209 0.0
H311 H 0.4613 0.88124 0.86203 0.0
H312 H 0.62901 0.85345 0.07078 0.0
H313 H 0.60806 0.81071 0.09381 0.0
H314 H 0.63353 0.90099 0.96314 0.0
H315 H 0.60987 0.93704 0.89701 0.0
C316 C 0.74494 0.5435 0.10036 0.0
C317 C 0.75496 0.50867 0.15363 0.0
C318 C 0.70751 0.48001 0.07021 0.0
C319 C 0.69779 0.51477 0.01624 0.0
N320 N 0.70115 0.57955 -0.00493 0.0
N321 N 0.74294 0.44469 0.20459 0.0
C322 C 0.71453 0.54654 0.0368 0.0
C323 C 0.735 0.47724 0.14365 0.0
N324 N 0.76593 0.57327 0.10487 0.0
N325 N 0.69154 0.44977 0.04718 0.0
H326 H 0.76316 0.44245 0.25817 0.0
H327 H 0.72809 0.42072 0.20806 0.0
H328 H 0.67127 0.45119 -0.00589 0.0
H329 H 0.69942 0.42341 0.07611 0.0
H330 H 0.76249 0.59887 0.05901 0.0
H331 H 0.7883 0.57192 0.15053 0.0
H332 H 0.70988 0.60379 0.01373 0.0
H333 H 0.67909 0.58217 0.94779 0.0
C334 C 1.00055 0.72024 0.01197 0.0
C335 C 1.00914 0.71018 0.11719 0.0
C336 C 0.03946 0.65699 0.08374 0.0
C337 C 0.03105 0.66736 0.97857 0.0
N338 N 0.99838 0.70419 0.84508 0.0
N339 N 0.02577 0.66255 0.2577 0.0
C340 C 1.00986 0.69759 0.94365 0.0
C341 C 0.02562 0.67673 0.15501 0.0
N342 N 0.98458 0.75254 0.97695 0.0
N343 N 0.06125 0.62862 0.11481 0.0
H344 H 1.01219 0.67413 0.31058 0.0
H345 H 0.03513 0.63695 0.28922 0.0
H346 H 0.07094 0.61337 0.06443 0.0
H347 H 0.07162 0.62195 0.18799 0.0
H348 H 0.98138 0.76398 0.89983 0.0
H349 H 0.97581 0.76898 0.02553 0.0
H350 H 0.97999 0.72367 0.81626 0.0
H351 H 1.0055 0.68822 0.79343 0.0
C352 C 0.07871 0.14895 0.46151 0.0
C353 C 0.05047 0.17349 0.44637 0.0
C354 C 1.01406 0.13276 0.57629 0.0
C355 C 0.0415 0.10747 0.58751 0.0
N356 N 0.09732 0.08791 0.53024 0.0
N357 N 0.98987 0.18769 0.48628 0.0
C358 C 0.07306 0.11443 0.52673 0.0
C359 C 1.01795 0.16526 0.50235 0.0
N360 N 0.11135 0.15935 0.41701 0.0
N361 N 0.98358 0.1255 0.63464 0.0
H362 H 0.98973 0.21203 0.43198 0.0
H363 H 0.98973 0.21203 0.43198 0.0
H364 H 0.97895 0.10138 0.68859 0.0
H365 H 0.96295 0.14374 0.62851 0.0
H366 H 0.13405 0.14426 0.43413 0.0
H367 H 0.11663 0.18473 0.36951 0.0
H368 H 0.11882 0.08991 0.47942 0.0
H369 H 0.09469 0.06261 0.57964 0.0
C370 C 0.40323 0.98528 0.56493 0.0
C371 C 0.38257 1.01506 0.57843 0.0
C372 C 0.43312 0.04215 0.64822 0.0
C373 C 0.45417 1.01223 0.637 0.0
N374 N 0.45798 0.95257 0.60003 0.0
N375 N 0.37466 0.06658 0.65528 0.0
C376 C 0.43889 0.98293 0.59942 0.0
C377 C 0.39647 0.04162 0.62803 0.0
N378 N 0.38872 0.95985 0.51673 0.0
N379 N 0.44856 0.072 0.67443 0.0
H380 H 0.34766 0.06758 0.63916 0.0
H381 H 0.38241 0.08401 0.70266 0.0
H382 H 0.47531 0.07363 0.68927 0.0
H383 H 0.43588 0.0964 0.6715 0.0
H384 H 0.40323 0.9399 0.493 0.0
H385 H 0.36191 0.95951 0.49774 0.0
H386 H 0.44715 0.92858 0.58465 0.0
H387 H 0.48455 0.9507 0.62117 0.0
C388 C 0.58605 0.40079 0.55206 0.0
C389 C 0.55722 0.37505 0.5661 0.0
C390 C 0.53067 0.40512 0.69199 0.0
C391 C 0.5555 0.4348 0.66252 0.0
N392 N 0.60457 0.46275 0.55262 0.0
N393 N 0.49854 0.35646 0.63757 0.0
C394 C 0.58293 0.43305 0.59009 0.0
C395 C 0.52861 0.37801 0.63332 0.0
N396 N 0.61617 0.39445 0.50137 0.0
N397 N 0.50994 0.40181 0.77821 0.0
H398 H 0.49528 0.33645 0.5949 0.0
H399 H 0.47551 0.36077 0.67689 0.0
H400 H 0.51201 0.41967 0.82758 0.0
H401 H 0.49393 0.37883 0.80729 0.0
H402 H 0.63923 0.41076 0.49634 0.0
H403 H 0.61915 0.37078 0.47348 0.0
H404 H 0.62268 0.46383 0.49241 0.0
H405 H 0.60201 0.48762 0.57404 0.0
C406 C 0.16777 0.55542 0.47711 0.0
C407 C 0.1633 0.52563 0.42804 0.0
C408 C 0.10175 0.51788 0.4893 0.0
C409 C 0.10878 0.54167 0.55623 0.0
N410 N 0.15159 0.57908 0.62499 0.0
N411 N 0.12719 0.47367 0.40554 0.0
C412 C 0.14249 0.55983 0.55273 0.0
C413 C 0.13048 0.50557 0.43849 0.0
N414 N 0.1955 0.57991 0.45042 0.0
N415 N 0.06765 0.50653 0.47613 0.0
H416 H 0.14843 0.46201 0.37491 0.0
H417 H 0.10443 0.45682 0.4194 0.0
H418 H 0.0459 0.51597 0.51105 0.0
H419 H 0.06091 0.49115 0.42234 0.0
H420 H 0.19794 0.60366 0.47855 0.0
H421 H 0.21375 0.57858 0.39209 0.0
H422 H 0.17731 0.58938 0.63095 0.0
H423 H 0.13462 0.58193 0.68452 0.0
C424 C 0.98302 0.88771 0.12521 0.0
C425 C 1.00996 0.86972 0.18547 0.0
C426 C 0.05436 0.91568 0.10279 0.0
C427 C 0.02792 0.9322 0.03587 0.0
N428 N 0.96899 0.92689 0.9659 0.0
N429 N 0.07122 0.85948 0.21601 0.0
C430 C 0.99276 0.91623 0.04172 0.0
C431 C 0.04582 0.88197 0.1699 0.0
N432 N 0.94819 0.87764 0.14773 0.0
N433 N 0.0874 0.93179 0.10155 0.0
H434 H 0.09849 0.86421 0.20299 0.0
H435 H 0.09849 0.86421 0.20299 0.0
H436 H 0.09509 0.95554 0.04948 0.0
H437 H 0.10628 0.92303 0.15687 0.0
H438 H 0.9271 0.8925 0.11277 0.0
H439 H 0.94045 0.8562 0.20773 0.0
H440 H 0.94472 0.9133 0.96186 0.0
H441 H 0.97449 0.94715 0.90202 0.0
C442 C 0.67951 0.05258 -0.00279 0.0
C443 C 0.69159 0.02027 0.06003 0.0
C444 C 0.63357 0.99004 0.05235 0.0
C445 C 0.62252 0.02116 0.98234 0.0
N446 N 0.63569 0.08058 0.87715 0.0
N447 N 0.68322 0.9563 0.13217 0.0
C448 C 0.64575 0.05203 0.95138 0.0
C449 C 0.66947 0.98837 0.08303 0.0
N450 N 0.69964 0.08405 0.9847 0.0
N451 N 0.60975 0.96221 0.08986 0.0
H452 H 0.7097 0.95408 0.15427 0.0
H453 H 0.66952 0.93135 0.14225 0.0
H454 H 0.58329 0.96224 0.06771 0.0
H455 H 0.61539 0.94041 0.14886 0.0
H456 H 0.69042 0.10939 0.9499 0.0
H457 H 0.72492 0.08529 0.0151 0.0
H458 H 0.65301 0.10174 0.8423 0.0
H459 H 0.61036 0.08216 0.84612 0.0
C460 C 0.51487 0.64857 0.00854 0.0
C461 C 0.54482 0.65143 0.07037 0.0
C462 C 0.56197 0.5909 0.05613 0.0
C463 C 0.53513 0.58977 0.98332 0.0
N464 N 0.4916 0.62283 0.87076 0.0
N465 N 0.60245 0.62962 0.12634 0.0
C466 C 0.51301 0.62007 0.95363 0.0
C467 C 0.57037 0.62406 0.0845 0.0
N468 N 0.48756 0.67187 0.00505 0.0
N469 N 0.57843 0.55995 0.10174 0.0
H470 H 0.6097 0.65425 0.14577 0.0
H471 H 0.62292 0.6113 0.13106 0.0
H472 H 0.57066 0.53438 0.08964 0.0
H473 H 0.59647 0.5592 0.16066 0.0
H474 H 0.46364 0.66828 0.96937 0.0
H475 H 0.48751 0.69287 0.04488 0.0
H476 H 0.4778 0.64622 0.84128 0.0
H477 H 0.49033 0.60363 0.82503 0.0
C478 C 0.94808 0.47182 0.19888 0.0
C479 C 0.924 0.50046 0.19192 0.0
C480 C 0.95091 0.53111 0.02964 0.0
C481 C 0.97799 0.50506 0.04167 0.0
N482 N 1.00562 0.45359 0.1473 0.0
N483 N 0.90934 0.56228 0.11573 0.0
C484 C 0.97747 0.47601 0.12883 0.0
C485 C 0.92747 0.53159 0.11195 0.0
N486 N 0.94265 0.44067 0.27152 0.0
N487 N 0.94601 0.55429 0.93798 0.0
H488 H 0.89229 0.56452 0.17602 0.0
H489 H 0.91423 0.58686 0.06404 0.0
H490 H 0.96085 0.55368 0.87264 0.0
H491 H 0.92428 0.57106 0.92373 0.0
H492 H 0.95732 0.41747 0.27414 0.0
H493 H 0.9215 0.43709 0.32424 0.0
H494 H 1.00816 0.4342 0.2147 0.0
H495 H 0.02811 0.45659 0.0996 0.0
C496 C 0.09133 0.2111 0.05899 0.0
C497 C 0.0595 0.22692 0.08221 0.0
C498 C 0.02533 0.18259 0.00871 0.0
C499 C 0.05596 0.16125 0.01428 0.0
N500 N 0.1192 0.15649 0.03026 0.0
N501 N 0.99763 0.2352 0.0535 0.0
C502 C 0.0896 0.17644 0.03188 0.0
C503 C 0.02706 0.21573 0.04456 0.0
N504 N 0.12282 0.22813 0.07231 0.0
N505 N 0.99469 0.17024 0.97227 0.0
H506 H 0.99955 0.25947 0.07958 0.0
H507 H 0.97202 0.22772 0.03591 0.0
H508 H 0.99351 0.14608 0.94568 0.0
H509 H 0.97133 0.18456 0.96271 0.0
H510 H 0.14752 0.21936 0.05357 0.0
H511 H 0.12341 0.25298 0.09543 0.0
H512 H 0.14425 0.16436 0.0514 0.0
H513 H 0.11829 0.1311 0.0106 0.0
C514 C 0.35514 0.99736 0.24029 0.0
C515 C 0.34351 0.03275 0.23794 0.0
C516 C 0.38866 0.05575 0.10293 0.0
C517 C 0.40526 0.02158 0.12562 0.0
N518 N 0.40798 0.96291 0.23958 0.0
N519 N 0.3494 0.09665 0.16674 0.0
C520 C 0.38938 0.99317 0.20106 0.0
C521 C 0.36009 0.06232 0.16785 0.0
N522 N 0.33502 0.96806 0.28944 0.0
N523 N 0.39915 0.08124 0.01882 0.0
H524 H 0.32773 0.10145 0.21112 0.0
H525 H 0.36284 0.11982 0.12563 0.0
H526 H 0.41894 0.07673 0.96822 0.0
H527 H 0.38596 0.10541 -0.00526 0.0
H528 H 0.34175 0.94139 0.28953 0.0
H529 H 0.30999 0.97096 0.32073 0.0
H530 H 0.39838 0.94244 0.29961 0.0
H531 H 0.43459 0.96057 0.21979 0.0
C532 C 0.50572 0.3861 0.20035 0.0
C533 C 0.53563 0.36371 0.21457 0.0
C534 C 0.56108 0.39848 0.05255 0.0
C535 C 0.53538 0.42564 0.05165 0.0
N536 N 0.48479 0.44644 0.13445 0.0
N537 N 0.59299 0.34921 0.15553 0.0
C538 C 0.50763 0.4195 0.12707 0.0
C539 C 0.56347 0.36975 0.1402 0.0
N540 N 0.47605 0.37589 0.26042 0.0
N541 N 0.58238 0.39929 0.96858 0.0
H542 H 0.59498 0.32711 0.21673 0.0
H543 H 0.61608 0.3554 0.11069 0.0
H544 H 0.58018 0.41855 0.90077 0.0
H545 H 0.59933 0.37846 0.96215 0.0
H546 H 0.45222 0.38945 0.24877 0.0
H547 H 0.47446 0.35158 0.31507 0.0
H548 H 0.46637 0.44447 0.1943 0.0
H549 H 0.48658 0.47228 0.08749 0.0
C550 C 0.18539 0.5425 0.03706 0.0
C551 C 0.19851 0.50895 0.08671 0.0
C552 C 0.15771 0.47956 0.98466 0.0
C553 C 0.13704 0.51151 0.9642 0.0
N554 N 0.12969 0.57113 0.00587 0.0
N555 N 0.19746 0.4441 0.10571 0.0
C556 C 0.15073 0.54291 -0.00245 0.0
C557 C 0.18512 0.47696 0.05875 0.0
N558 N 0.20354 0.57383 0.04262 0.0
N559 N 0.15251 0.45247 0.93225 0.0
H560 H 0.21836 0.44186 0.15706 0.0
H561 H 0.18582 0.41953 0.09671 0.0
H562 H 0.13598 0.45484 0.86951 0.0
H563 H 0.16849 0.42989 0.94198 0.0
H564 H 0.19543 0.59928 0.00441 0.0
H565 H 0.22832 0.57338 0.07727 0.0
H566 H 0.13894 0.59345 0.03397 0.0
H567 H 0.1021 0.5694 0.00409 0.0
C568 C 0.06339 0.83752 0.49606 0.0
C569 C 0.03254 0.81573 0.52467 0.0
C570 C 0.02082 0.85423 0.6481 0.0
C571 C 0.04182 0.8831 0.58626 0.0
N572 N 0.07226 0.90018 0.41997 0.0
N573 N 0.98313 0.80102 0.64236 0.0
C574 C 0.06151 0.87427 0.50288 0.0
C575 C 1.0118 0.82304 0.60674 0.0
N576 N 0.08964 0.82595 0.44099 0.0
N577 N 1.01148 0.85511 0.74618 0.0
H578 H 0.97721 0.7778 0.61369 0.0
H579 H 0.96521 0.80683 0.69643 0.0
H580 H 0.02297 0.87396 0.78404 0.0
H581 H 0.99724 0.8338 0.79367 0.0
H582 H 0.11253 0.84188 0.41665 0.0
H583 H 0.08915 0.79947 0.42846 0.0
H584 H 0.08714 0.89427 0.35969 0.0
H585 H 0.06121 0.92577 0.4034 0.0
C586 C 0.72572 0.97992 0.44731 0.0
C587 C 0.74078 1.01395 0.39746 0.0
C588 C 0.701 0.04439 0.49661 0.0
C589 C 0.68025 1.01174 0.52372 0.0
N590 N 0.67423 0.94729 0.53822 0.0
N591 N 0.74928 0.07756 0.39003 0.0
C592 C 0.69368 0.97883 0.50596 0.0
C593 C 0.7312 0.04577 0.43029 0.0
N594 N 0.74099 0.94912 0.43149 0.0
N595 N 0.69055 0.07409 0.53143 0.0
H596 H 0.77172 0.07811 0.34287 0.0
H597 H 0.74232 0.10285 0.40226 0.0
H598 H 0.66835 0.07293 0.57978 0.0
H599 H 0.70473 0.09878 0.51837 0.0
H600 H 0.7327 0.923 0.46822 0.0
H601 H 0.76409 0.95039 0.38659 0.0
H602 H 0.68045 0.92269 0.51966 0.0
H603 H 0.65091 0.94615 0.58192 0.0
C604 C 0.51444 0.64122 0.45126 0.0
C605 C 0.54413 0.66537 0.42519 0.0
C606 C 0.57461 0.63028 0.57402 0.0
C607 C 0.54855 0.60141 0.58191 0.0
N608 N 0.49818 0.5778 0.5018 0.0
N609 N 0.60436 0.68158 0.46028 0.0
C610 C 0.51933 0.60657 0.51421 0.0
C611 C 0.57474 0.65976 0.48678 0.0
N612 N 0.4824 0.65024 0.40813 0.0
N613 N 0.59819 0.6307 0.65057 0.0
H614 H 0.60484 0.70399 0.39932 0.0
H615 H 0.62872 0.67611 0.4956 0.0
H616 H 0.59745 0.61152 0.71914 0.0
H617 H 0.61571 0.65262 0.65091 0.0
H618 H 0.4593 0.63429 0.42896 0.0
H619 H 0.47871 0.67544 0.35969 0.0
H620 H 0.47797 0.5802 0.44837 0.0
H621 H 0.50429 0.55098 0.53283 0.0
C622 C 0.91825 0.56361 0.49702 0.0
C623 C 0.89632 0.53165 0.51807 0.0
C624 C 0.92738 0.51151 0.67881 0.0
C625 C 0.95466 0.53848 0.64443 0.0
N626 N 0.97622 0.59048 0.51737 0.0
N627 N 0.878 0.47583 0.63163 0.0
C628 C 0.94975 0.56535 0.55401 0.0
C629 C 0.89973 0.50623 0.61123 0.0
N630 N 0.90967 0.59131 0.41853 0.0
N631 N 0.92785 0.4911 0.77615 0.0
H632 H 0.85663 0.47226 0.58532 0.0
H633 H 0.88202 0.45376 0.69141 0.0
H634 H 0.94733 0.49469 0.82817 0.0
H635 H 0.90718 0.47326 0.80848 0.0
H636 H 0.92288 0.6166 0.40308 0.0
H637 H 0.8869 0.58981 0.37548 0.0
H638 H 0.9756 0.60798 0.44595 0.0
H639 H 1.00021 0.59218 0.55424 0.0
loop_
_geom_bond_atom_site_label_1
_geom_bond_atom_site_label_2
_geom_bond_distance
_geom_bond_site_symmetry_2
_ccdc_geom_bond_type
H0 C5 0.929 . S
H1 C10 0.931 . S
H2 C8 0.930 . S
N3 N4 1.234 . S
N3 C7 1.453 . S
N4 N3 1.234 . S
C5 H0 0.929 . S
C5 C6 1.373 . S
C5 C7 1.368 . S
C6 C5 1.373 . S
C6 C10 1.397 . S
C7 N3 1.453 . S
C7 C5 1.368 . S
C7 C8 1.373 . S
C8 H2 0.930 . S
C8 C7 1.373 . S
C8 C9 1.371 . S
C9 C8 1.371 . S
C9 C10 1.383 . S
C10 H1 0.931 . S
C10 C6 1.397 . S
C10 C9 1.383 . S
H11 C16 0.929 . S
H12 C21 0.931 . S
H13 C19 0.930 1_556 S
N14 N15 1.234 . S
N14 C18 1.453 . S
N15 N14 1.234 . S
C16 H11 0.929 . S
C16 C17 1.373 . S
C16 C18 1.368 . S
C17 C16 1.373 . S
C17 C21 1.397 . S
C18 N14 1.453 . S
C18 C16 1.368 . S
C18 C19 1.373 . S
C19 H13 0.930 1_554 S
C19 C18 1.373 . S
C19 C20 1.371 . S
C20 C19 1.371 . S
C20 C21 1.383 . S
C21 H12 0.931 . S
C21 C17 1.397 . S
C21 C20 1.383 . S
H22 C27 0.929 . S
H23 C32 0.931 . S
H24 C30 0.930 . S
N25 N26 1.218 1_544 S
N25 C29 1.453 . S
N26 N25 1.218 1_566 S
C27 H22 0.929 . S
C27 C28 1.373 . S
C27 C29 1.368 . S
C28 C27 1.373 . S
C28 C32 1.397 1_545 S
C29 N25 1.453 . S
C29 C27 1.368 . S
C29 C30 1.373 1_554 S
C30 H24 0.930 . S
C30 C29 1.373 1_556 S
C30 C31 1.373 . S
C31 C30 1.373 . S
C31 C32 1.386 1_546 S
C32 H23 0.931 . S
C32 C28 1.397 1_565 S
C32 C31 1.386 1_564 S
H33 C38 0.929 . S
H34 C43 0.931 . S
H35 C41 0.930 . S
N36 N37 1.234 . S
N36 C40 1.453 . S
N37 N36 1.234 . S
C38 H33 0.929 . S
C38 C39 1.373 . S
C38 C40 1.368 . S
C39 C38 1.373 . S
C39 C43 1.397 . S
C40 N36 1.453 . S
C40 C38 1.368 . S
C40 C41 1.373 . S
C41 H35 0.930 . S
C41 C40 1.373 . S
C41 C42 1.371 . S
C42 C41 1.371 . S
C42 C43 1.383 . S
C43 H34 0.931 . S
C43 C39 1.397 . S
C43 C42 1.383 . S
H44 C49 0.929 . S
H45 C54 0.931 . S
H46 C52 0.930 . S
N47 N48 1.234 . S
N47 C51 1.453 . S
N48 N47 1.234 . S
C49 H44 0.929 . S
C49 C50 1.373 . S
C49 C51 1.368 . S
C50 C49 1.373 . S
C50 C54 1.397 . S
C51 N47 1.453 . S
C51 C49 1.368 . S
C51 C52 1.373 . S
C52 H46 0.930 . S
C52 C51 1.373 . S
C52 C53 1.371 . S
C53 C52 1.371 . S
C53 C54 1.383 . S
C54 H45 0.931 . S
C54 C50 1.397 . S
C54 C53 1.383 . S
H55 C60 0.929 . S
H56 C65 0.931 . S
H57 C63 0.930 . S
N58 N59 1.234 . S
N58 C62 1.453 . S
N59 N58 1.234 . S
C60 H55 0.929 . S
C60 C61 1.373 . S
C60 C62 1.368 . S
C61 C60 1.373 . S
C61 C65 1.397 . S
C62 N58 1.453 . S
C62 C60 1.368 . S
C62 C63 1.373 . S
C63 H57 0.930 . S
C63 C62 1.373 . S
C63 C64 1.371 . S
C64 C63 1.371 . S
C64 C65 1.383 . S
C65 H56 0.931 . S
C65 C61 1.397 . S
C65 C64 1.383 . S
H66 C71 0.929 . S
H67 C76 0.931 . S
H68 C74 0.930 . S
N69 N70 1.231 1_545 S
N69 C73 1.453 . S
N70 N69 1.231 1_565 S
C71 H66 0.929 . S
C71 C72 1.373 . S
C71 C73 1.368 . S
C72 C71 1.373 . S
C72 C76 1.397 1_545 S
C73 N69 1.453 . S
C73 C71 1.368 . S
C73 C74 1.373 . S
C74 H68 0.930 . S
C74 C73 1.373 . S
C74 C75 1.376 . S
C75 C74 1.376 . S
C75 C76 1.375 1_545 S
C76 H67 0.931 . S
C76 C72 1.397 1_565 S
C76 C75 1.375 1_565 S
H77 C82 0.929 . S
H78 C87 0.931 . S
H79 C85 0.930 . S
N80 N81 1.234 . S
N80 C84 1.453 . S
N81 N80 1.234 . S
C82 H77 0.929 . S
C82 C83 1.373 . S
C82 C84 1.368 . S
C83 C82 1.373 . S
C83 C87 1.397 . S
C84 N80 1.453 . S
C84 C82 1.368 . S
C84 C85 1.373 . S
C85 H79 0.930 . S
C85 C84 1.373 . S
C85 C86 1.371 . S
C86 C85 1.371 . S
C86 C87 1.383 . S
C87 H78 0.931 . S
C87 C83 1.397 . S
C87 C86 1.383 . S
Co88 N93 2.057 1_556 S
Co88 O105 2.021 . S
Co88 O108 2.062 . S
Co88 O112 2.117 1_455 S
Co88 O113 2.020 1_545 S
C89 O109 1.259 1_545 S
C89 O112 1.258 . S
Co90 N99 2.057 . S
Co90 O106 2.117 . S
Co90 O107 2.020 1_565 S
Co90 O109 2.021 1_455 S
Co90 O114 2.062 . S
C91 N93 1.316 . S
C91 N94 1.347 . S
C91 H96 0.931 . S
C92 N93 1.375 . S
C92 C95 1.350 . S
C92 H97 0.930 1_455 S
N93 Co88 2.057 1_554 S
N93 C91 1.316 . S
N93 C92 1.375 . S
N94 C91 1.347 . S
N94 C95 1.373 . S
C95 C92 1.350 . S
C95 N94 1.373 . S
C95 H116 0.931 . S
H96 C91 0.931 . S
H97 C92 0.930 1_655 S
C98 O105 1.259 1_565 S
C98 O106 1.258 . S
N99 Co90 2.057 . S
N99 C100 1.316 1_455 S
N99 C101 1.375 . S
C100 N99 1.316 1_655 S
C100 N102 1.347 . S
C100 H111 0.931 . S
C101 N99 1.375 . S
C101 C103 1.350 . S
C101 H110 0.930 . S
N102 C100 1.347 . S
N102 C103 1.373 1_655 S
C103 C101 1.350 . S
C103 N102 1.373 1_455 S
C103 H117 0.931 . S
C104 O107 1.256 . S
C104 O108 1.255 . S
O105 Co88 2.021 . S
O105 C98 1.259 1_545 S
O106 Co90 2.117 . S
O106 C98 1.258 . S
O107 Co90 2.020 1_545 S
O107 C104 1.256 . S
O108 Co88 2.062 . S
O108 C104 1.255 . S
O109 C89 1.259 1_565 S
O109 Co90 2.021 1_655 S
H110 C101 0.930 . S
H111 C100 0.931 . S
O112 Co88 2.117 1_655 S
O112 C89 1.258 . S
O113 Co88 2.020 1_565 S
O113 C115 1.256 . S
O114 Co90 2.062 . S
O114 C115 1.255 . S
C115 O113 1.256 . S
C115 O114 1.255 . S
H116 C95 0.931 . S
H117 C103 0.931 . S
Co118 N123 2.057 1_546 S
Co118 O135 2.021 . S
Co118 O138 2.062 . S
Co118 O142 2.117 1_545 S
Co118 O143 2.020 . S
C119 O139 1.259 . S
C119 O142 1.258 . S
Co120 N129 2.057 1_565 S
Co120 O136 2.117 1_565 S
Co120 O137 2.020 . S
Co120 O139 2.021 . S
Co120 O144 2.062 . S
C121 N123 1.316 1_545 S
C121 N124 1.347 . S
C121 H126 0.931 . S
C122 N123 1.375 . S
C122 C125 1.350 . S
C122 H127 0.930 . S
N123 Co118 2.057 1_564 S
N123 C121 1.316 1_565 S
N123 C122 1.375 . S
N124 C121 1.347 . S
N124 C125 1.373 1_545 S
C125 C122 1.350 . S
C125 N124 1.373 1_565 S
C125 H146 0.931 . S
H126 C121 0.931 . S
H127 C122 0.930 . S
C128 O135 1.259 . S
C128 O136 1.258 . S
N129 Co120 2.057 1_545 S
N129 C130 1.316 1_545 S
N129 C131 1.375 . S
C130 N129 1.316 1_565 S
C130 N132 1.347 . S
C130 H141 0.931 . S
C131 N129 1.375 . S
C131 C133 1.350 . S
C131 H140 0.930 . S
N132 C130 1.347 . S
N132 C133 1.373 1_565 S
C133 C131 1.350 . S
C133 N132 1.373 1_545 S
C133 H147 0.931 . S
C134 O137 1.256 . S
C134 O138 1.255 1_565 S
O135 Co118 2.021 . S
O135 C128 1.259 . S
O136 Co120 2.117 1_545 S
O136 C128 1.258 . S
O137 Co120 2.020 . S
O137 C134 1.256 . S
O138 Co118 2.062 . S
O138 C134 1.255 1_545 S
O139 C119 1.259 . S
O139 Co120 2.021 . S
H140 C131 0.930 . S
H141 C130 0.931 . S
O142 Co118 2.117 1_565 S
O142 C119 1.258 . S
O143 Co118 2.020 . S
O143 C145 1.256 . S
O144 Co120 2.062 . S
O144 C145 1.255 1_565 S
C145 O143 1.256 . S
C145 O144 1.255 1_545 S
H146 C125 0.931 . S
H147 C133 0.931 . S
Co148 N153 2.057 . S
Co148 O165 2.021 . S
Co148 O168 2.062 . S
Co148 O172 2.117 . S
Co148 O173 2.020 . S
C149 O169 1.259 . S
C149 O172 1.258 . S
Co150 N159 2.057 . S
Co150 O166 2.117 . S
Co150 O167 2.020 . S
Co150 O169 2.021 . S
Co150 O174 2.062 . S
C151 N153 1.316 . S
C151 N154 1.347 . S
C151 H156 0.931 . S
C152 N153 1.375 . S
C152 C155 1.350 1_556 S
C152 H157 0.930 1_556 S
N153 Co148 2.057 . S
N153 C151 1.316 . S
N153 C152 1.375 . S
N154 C151 1.347 . S
N154 C155 1.373 1_556 S
C155 C152 1.350 1_554 S
C155 N154 1.373 1_554 S
C155 H176 0.931 . S
H156 C151 0.931 . S
H157 C152 0.930 1_554 S
C158 O165 1.259 . S
C158 O166 1.258 . S
N159 Co150 2.057 . S
N159 C160 1.316 . S
N159 C161 1.375 . S
C160 N159 1.316 . S
C160 N162 1.347 . S
C160 H171 0.931 . S
C161 N159 1.375 . S
C161 C163 1.350 . S
C161 H170 0.930 . S
N162 C160 1.347 . S
N162 C163 1.373 . S
C163 C161 1.350 . S
C163 N162 1.373 . S
C163 H177 0.931 . S
C164 O167 1.256 . S
C164 O168 1.255 . S
O165 Co148 2.021 . S
O165 C158 1.259 . S
O166 Co150 2.117 . S
O166 C158 1.258 . S
O167 Co150 2.020 . S
O167 C164 1.256 . S
O168 Co148 2.062 . S
O168 C164 1.255 . S
O169 C149 1.259 . S
O169 Co150 2.021 . S
H170 C161 0.930 . S
H171 C160 0.931 . S
O172 Co148 2.117 . S
O172 C149 1.258 . S
O173 Co148 2.020 . S
O173 C175 1.256 . S
O174 Co150 2.062 . S
O174 C175 1.255 . S
C175 O173 1.256 . S
C175 O174 1.255 . S
H176 C155 0.931 . S
H177 C163 0.931 . S
Co178 N183 2.057 . S
Co178 O195 2.021 1_455 S
Co178 O198 2.062 1_455 S
Co178 O202 2.117 . S
Co178 O203 2.020 . S
C179 O199 1.259 . S
C179 O202 1.258 . S
Co180 N189 2.057 . S
Co180 O196 2.117 1_455 S
Co180 O197 2.020 1_455 S
Co180 O199 2.021 . S
Co180 O204 2.062 . S
C181 N183 1.316 . S
C181 N184 1.347 . S
C181 H186 0.931 1_455 S
C182 N183 1.375 . S
C182 C185 1.350 . S
C182 H187 0.930 . S
N183 Co178 2.057 . S
N183 C181 1.316 . S
N183 C182 1.375 . S
N184 C181 1.347 . S
N184 C185 1.373 . S
C185 C182 1.350 . S
C185 N184 1.373 . S
C185 H206 0.931 . S
H186 C181 0.931 1_655 S
H187 C182 0.930 . S
C188 O195 1.259 . S
C188 O196 1.258 . S
N189 Co180 2.057 . S
N189 C190 1.316 . S
N189 C191 1.375 1_455 S
C190 N189 1.316 . S
C190 N192 1.347 . S
C190 H201 0.931 . S
C191 N189 1.375 1_655 S
C191 C193 1.350 1_655 S
C191 H200 0.930 . S
N192 C190 1.347 . S
N192 C193 1.373 . S
C193 C191 1.350 1_455 S
C193 N192 1.373 . S
C193 H207 0.931 1_455 S
C194 O197 1.256 . S
C194 O198 1.255 . S
O195 Co178 2.021 1_655 S
O195 C188 1.259 . S
O196 Co180 2.117 1_655 S
O196 C188 1.258 . S
O197 Co180 2.020 1_655 S
O197 C194 1.256 . S
O198 Co178 2.062 1_655 S
O198 C194 1.255 . S
O199 C179 1.259 . S
O199 Co180 2.021 . S
H200 C191 0.930 . S
H201 C190 0.931 . S
O202 Co178 2.117 . S
O202 C179 1.258 . S
O203 Co178 2.020 . S
O203 C205 1.256 . S
O204 Co180 2.062 . S
O204 C205 1.255 . S
C205 O203 1.256 . S
C205 O204 1.255 . S
H206 C185 0.931 . S
H207 C193 0.931 1_655 S
C208 C209 1.363 1_545 S
C208 C214 1.379 . S
C208 N216 1.356 . S
C209 C208 1.363 1_565 S
C209 C215 1.363 . S
C210 C211 1.363 . S
C210 C215 1.379 . S
C210 N217 1.356 . S
C211 C210 1.363 . S
C211 C214 1.363 1_565 S
N212 C214 1.356 . S
N212 H224 0.984 . S
N212 H225 0.985 . S
N213 C215 1.356 . S
N213 H218 0.984 . S
N213 H219 0.985 . S
C214 C208 1.379 . S
C214 C211 1.363 1_545 S
C214 N212 1.356 . S
C215 C209 1.363 . S
C215 C210 1.379 . S
C215 N213 1.356 . S
N216 C208 1.356 . S
N216 H222 0.984 . S
N216 H223 0.984 . S
N217 C210 1.356 . S
N217 H220 0.984 . S
N217 H221 0.985 . S
H218 N213 0.984 . S
H219 N213 0.985 . S
H220 N217 0.984 . S
H221 N217 0.985 . S
H222 N216 0.984 . S
H223 N216 0.984 . S
H224 N212 0.984 . S
H225 N212 0.985 . S
C226 C227 1.363 . S
C226 C232 1.379 . S
C226 N234 1.356 . S
C227 C226 1.363 . S
C227 C233 1.363 . S
C228 C229 1.363 . S
C228 C233 1.379 . S
C228 N235 1.356 . S
C229 C228 1.363 . S
C229 C232 1.363 . S
N230 C232 1.356 . S
N230 H242 0.984 . S
N230 H243 0.985 . S
N231 C233 1.356 . S
N231 H236 0.984 . S
N231 H237 0.985 . S
C232 C226 1.379 . S
C232 C229 1.363 . S
C232 N230 1.356 . S
C233 C227 1.363 . S
C233 C228 1.379 . S
C233 N231 1.356 . S
N234 C226 1.356 . S
N234 H240 0.984 . S
N234 H241 0.984 . S
N235 C228 1.356 . S
N235 H238 0.984 . S
N235 H239 0.985 . S
H236 N231 0.984 . S
H237 N231 0.985 . S
H238 N235 0.984 . S
H239 N235 0.985 . S
H240 N234 0.984 . S
H241 N234 0.984 . S
H242 N230 0.984 . S
H243 N230 0.985 . S
C244 C245 1.363 . S
C244 C250 1.379 . S
C244 N252 1.356 . S
C245 C244 1.363 . S
C245 C251 1.363 . S
C246 C247 1.363 . S
C246 C251 1.379 . S
C246 N253 1.356 . S
C247 C246 1.363 . S
C247 C250 1.363 . S
N248 C250 1.356 . S
N248 H260 0.984 . S
N248 H261 0.985 . S
N249 C251 1.356 . S
N249 H254 0.984 . S
N249 H255 0.985 . S
C250 C244 1.379 . S
C250 C247 1.363 . S
C250 N248 1.356 . S
C251 C245 1.363 . S
C251 C246 1.379 . S
C251 N249 1.356 . S
N252 C244 1.356 . S
N252 H258 0.984 . S
N252 H259 0.984 . S
N253 C246 1.356 . S
N253 H256 0.984 . S
N253 H257 0.985 . S
H254 N249 0.984 . S
H255 N249 0.985 . S
H256 N253 0.984 . S
H257 N253 0.985 . S
H258 N252 0.984 . S
H259 N252 0.984 . S
H260 N248 0.984 . S
H261 N248 0.985 . S
C262 C263 1.363 . S
C262 C268 1.379 . S
C262 N270 1.356 . S
C263 C262 1.363 . S
C263 C269 1.363 . S
C264 C265 1.363 . S
C264 C269 1.379 . S
C264 N271 1.356 1_455 S
C265 C264 1.363 . S
C265 C268 1.363 . S
N266 C268 1.356 . S
N266 H278 0.984 . S
N266 H279 0.985 . S
N267 C269 1.356 . S
N267 H272 0.984 . S
N267 H273 0.985 . S
C268 C262 1.379 . S
C268 C265 1.363 . S
C268 N266 1.356 . S
C269 C263 1.363 . S
C269 C264 1.379 . S
C269 N267 1.356 . S
N270 C262 1.356 . S
N270 H276 0.984 . S
N270 H277 0.984 . S
N271 C264 1.356 1_655 S
N271 H274 0.984 . S
N271 H275 0.985 . S
H272 N267 0.984 . S
H273 N267 0.985 . S
H274 N271 0.984 . S
H275 N271 0.985 . S
H276 N270 0.984 . S
H277 N270 0.984 . S
H278 N266 0.984 . S
H279 N266 0.985 . S
C280 C281 1.363 . S
C280 C286 1.379 . S
C280 N288 1.356 . S
C281 C280 1.363 . S
C281 C287 1.363 1_545 S
C282 C283 1.363 1_565 S
C282 C287 1.379 . S
C282 N289 1.356 . S
C283 C282 1.363 1_545 S
C283 C286 1.363 . S
N284 C286 1.356 . S
N284 H296 0.984 . S
N284 H297 0.985 . S
N285 C287 1.356 1_554 S
N285 H290 0.984 . S
N285 H291 0.985 . S
C286 C280 1.379 . S
C286 C283 1.363 . S
C286 N284 1.356 . S
C287 C281 1.363 1_565 S
C287 C282 1.379 . S
C287 N285 1.356 1_556 S
N288 C280 1.356 . S
N288 H294 0.984 . S
N288 H295 0.984 . S
N289 C282 1.356 . S
N289 H292 0.984 . S
N289 H293 0.985 1_556 S
H290 N285 0.984 . S
H291 N285 0.985 . S
H292 N289 0.984 . S
H293 N289 0.985 1_554 S
H294 N288 0.984 . S
H295 N288 0.984 . S
H296 N284 0.984 . S
H297 N284 0.985 . S
C298 C299 1.363 . S
C298 C304 1.379 . S
C298 N306 1.356 . S
C299 C298 1.363 . S
C299 C305 1.363 1_554 S
C300 C301 1.363 . S
C300 C305 1.379 . S
C300 N307 1.356 . S
C301 C300 1.363 . S
C301 C304 1.363 1_556 S
N302 C304 1.356 . S
N302 H314 0.984 . S
N302 H315 0.985 1_554 S
N303 C305 1.356 . S
N303 H308 0.984 . S
N303 H309 0.985 . S
C304 C298 1.379 . S
C304 C301 1.363 1_554 S
C304 N302 1.356 . S
C305 C299 1.363 1_556 S
C305 C300 1.379 . S
C305 N303 1.356 . S
N306 C298 1.356 . S
N306 H312 0.984 . S
N306 H313 0.984 . S
N307 C300 1.356 . S
N307 H310 0.984 . S
N307 H311 0.985 . S
H308 N303 0.984 . S
H309 N303 0.985 . S
H310 N307 0.984 . S
H311 N307 0.985 . S
H312 N306 0.984 . S
H313 N306 0.984 . S
H314 N302 0.984 . S
H315 N302 0.985 1_556 S
C316 C317 1.363 . S
C316 C322 1.379 1_554 S
C316 N324 1.356 . S
C317 C316 1.363 . S
C317 C323 1.363 . S
C318 C319 1.363 1_554 S
C318 C323 1.379 . S
C318 N325 1.356 1_554 S
C319 C318 1.363 1_556 S
C319 C322 1.363 . S
N320 C322 1.356 . S
N320 H332 0.984 . S
N320 H333 0.985 . S
N321 C323 1.356 . S
N321 H326 0.984 . S
N321 H327 0.985 . S
C322 C316 1.379 1_556 S
C322 C319 1.363 . S
C322 N320 1.356 . S
C323 C317 1.363 . S
C323 C318 1.379 . S
C323 N321 1.356 . S
N324 C316 1.356 . S
N324 H330 0.984 . S
N324 H331 0.984 . S
N325 C318 1.356 1_556 S
N325 H328 0.984 . S
N325 H329 0.985 . S
H326 N321 0.984 . S
H327 N321 0.985 . S
H328 N325 0.984 . S
H329 N325 0.985 . S
H330 N324 0.984 . S
H331 N324 0.984 . S
H332 N320 0.984 . S
H333 N320 0.985 . S
C334 C335 1.363 1_556 S
C334 C340 1.379 . S
C334 N342 1.356 . S
C335 C334 1.363 1_554 S
C335 C341 1.363 . S
C336 C337 1.363 1_455 S
C336 C341 1.379 1_456 S
C336 N343 1.356 1_556 S
C337 C336 1.363 1_655 S
C337 C340 1.363 . S
N338 C340 1.356 . S
N338 H350 0.984 . S
N338 H351 0.985 . S
N339 C341 1.356 . S
N339 H344 0.984 . S
N339 H345 0.985 1_655 S
C340 C334 1.379 . S
C340 C337 1.363 . S
C340 N338 1.356 . S
C341 C335 1.363 . S
C341 C336 1.379 1_654 S
C341 N339 1.356 . S
N342 C334 1.356 . S
N342 H348 0.984 . S
N342 H349 0.984 . S
N343 C336 1.356 1_554 S
N343 H346 0.984 1_554 S
N343 H347 0.985 . S
H344 N339 0.984 . S
H345 N339 0.985 1_455 S
H346 N343 0.984 1_556 S
H347 N343 0.985 . S
H348 N342 0.984 . S
H349 N342 0.984 . S
H350 N338 0.984 . S
H351 N338 0.985 . S
C352 C353 1.363 . S
C352 C358 1.379 . S
C352 N360 1.356 . S
C353 C352 1.363 . S
C353 C359 1.363 . S
C354 C355 1.363 . S
C354 C359 1.379 . S
C354 N361 1.356 . S
C355 C354 1.363 . S
C355 C358 1.363 . S
N356 C358 1.356 . S
N356 H368 0.984 . S
N356 H369 0.985 . S
N357 C359 1.356 . S
N357 H362 0.984 . S
N357 H363 0.985 . S
C358 C352 1.379 . S
C358 C355 1.363 . S
C358 N356 1.356 . S
C359 C353 1.363 . S
C359 C354 1.379 . S
C359 N357 1.356 . S
N360 C352 1.356 . S
N360 H366 0.984 . S
N360 H367 0.984 . S
N361 C354 1.356 . S
N361 H364 0.984 1_455 S
N361 H365 0.985 1_455 S
H362 N357 0.984 . S
H363 N357 0.985 . S
H364 N361 0.984 1_655 S
H365 N361 0.985 1_655 S
H366 N360 0.984 . S
H367 N360 0.984 . S
H368 N356 0.984 . S
H369 N356 0.985 . S
C370 C371 1.378 . S
C370 C376 1.379 . S
C370 N378 1.356 . S
C371 C370 1.378 . S
C371 C377 1.350 1_565 S
C372 C373 1.363 1_545 S
C372 C377 1.379 . S
C372 N379 1.356 . S
C373 C372 1.363 1_565 S
C373 C376 1.363 . S
N374 C376 1.356 . S
N374 H386 0.984 . S
N374 H387 0.985 . S
N375 C377 1.356 . S
N375 H380 0.984 . S
N375 H381 0.985 . S
C376 C370 1.379 . S
C376 C373 1.363 . S
C376 N374 1.356 . S
C377 C371 1.350 1_545 S
C377 C372 1.379 . S
C377 N375 1.356 . S
N378 C370 1.356 . S
N378 H384 0.984 . S
N378 H385 0.984 . S
N379 C372 1.356 . S
N379 H382 0.984 . S
N379 H383 0.985 . S
H380 N375 0.984 . S
H381 N375 0.985 . S
H382 N379 0.984 . S
H383 N379 0.985 . S
H384 N378 0.984 . S
H385 N378 0.984 . S
H386 N374 0.984 . S
H387 N374 0.985 . S
C388 C389 1.363 . S
C388 C394 1.379 . S
C388 N396 1.356 . S
C389 C388 1.363 . S
C389 C395 1.363 . S
C390 C391 1.363 . S
C390 C395 1.379 . S
C390 N397 1.356 . S
C391 C390 1.363 . S
C391 C394 1.363 . S
N392 C394 1.356 . S
N392 H404 0.984 . S
N392 H405 0.985 . S
N393 C395 1.356 . S
N393 H398 0.984 . S
N393 H399 0.985 . S
C394 C388 1.379 . S
C394 C391 1.363 . S
C394 N392 1.356 . S
C395 C389 1.363 . S
C395 C390 1.379 . S
C395 N393 1.356 . S
N396 C388 1.356 . S
N396 H402 0.984 . S
N396 H403 0.984 . S
N397 C390 1.356 . S
N397 H400 0.984 . S
N397 H401 0.985 . S
H398 N393 0.984 . S
H399 N393 0.985 . S
H400 N397 0.984 . S
H401 N397 0.985 . S
H402 N396 0.984 . S
H403 N396 0.984 . S
H404 N392 0.984 . S
H405 N392 0.985 . S
C406 C407 1.363 . S
C406 C412 1.379 . S
C406 N414 1.356 . S
C407 C406 1.363 . S
C407 C413 1.363 . S
C408 C409 1.363 . S
C408 C413 1.379 . S
C408 N415 1.356 . S
C409 C408 1.363 . S
C409 C412 1.363 . S
N410 C412 1.356 . S
N410 H422 0.984 . S
N410 H423 0.985 . S
N411 C413 1.356 . S
N411 H416 0.984 . S
N411 H417 0.985 . S
C412 C406 1.379 . S
C412 C409 1.363 . S
C412 N410 1.356 . S
C413 C407 1.363 . S
C413 C408 1.379 . S
C413 N411 1.356 . S
N414 C406 1.356 . S
N414 H420 0.984 . S
N414 H421 0.984 . S
N415 C408 1.356 . S
N415 H418 0.984 . S
N415 H419 0.985 . S
H416 N411 0.984 . S
H417 N411 0.985 . S
H418 N415 0.984 . S
H419 N415 0.985 . S
H420 N414 0.984 . S
H421 N414 0.984 . S
H422 N410 0.984 . S
H423 N410 0.985 . S
C424 C425 1.363 . S
C424 C430 1.379 . S
C424 N432 1.356 . S
C425 C424 1.363 . S
C425 C431 1.363 1_556 S
C426 C427 1.363 1_554 S
C426 C431 1.379 1_455 S
C426 N433 1.356 . S
C427 C426 1.363 1_556 S
C427 C430 1.363 1_455 S
N428 C430 1.356 . S
N428 H440 0.984 . S
N428 H441 0.985 1_655 S
N429 C431 1.356 . S
N429 H434 0.984 . S
N429 H435 0.985 1_655 S
C430 C424 1.379 . S
C430 C427 1.363 1_655 S
C430 N428 1.356 . S
C431 C425 1.363 1_554 S
C431 C426 1.379 1_655 S
C431 N429 1.356 . S
N432 C424 1.356 . S
N432 H438 0.984 . S
N432 H439 0.984 . S
N433 C426 1.356 . S
N433 H436 0.984 . S
N433 H437 0.985 . S
H434 N429 0.984 . S
H435 N429 0.985 1_455 S
H436 N433 0.984 . S
H437 N433 0.985 . S
H438 N432 0.984 . S
H439 N432 0.984 . S
H440 N428 0.984 . S
H441 N428 0.985 1_455 S
C442 C443 1.366 . S
C442 C448 1.379 . S
C442 N450 1.356 . S
C443 C442 1.366 . S
C443 C449 1.364 1_546 S
C444 C445 1.363 1_564 S
C444 C449 1.379 . S
C444 N451 1.356 . S
C445 C444 1.363 1_546 S
C445 C448 1.363 . S
N446 C448 1.356 . S
N446 H458 0.984 . S
N446 H459 0.985 . S
N447 C449 1.356 . S
N447 H452 0.984 . S
N447 H453 0.985 . S
C448 C442 1.379 . S
C448 C445 1.363 . S
C448 N446 1.356 . S
C449 C443 1.364 1_564 S
C449 C444 1.379 . S
C449 N447 1.356 . S
N450 C442 1.356 . S
N450 H456 0.984 . S
N450 H457 0.984 . S
N451 C444 1.356 . S
N451 H454 0.984 . S
N451 H455 0.985 . S
H452 N447 0.984 . S
H453 N447 0.985 . S
H454 N451 0.984 . S
H455 N451 0.985 . S
H456 N450 0.984 . S
H457 N450 0.984 . S
H458 N446 0.984 . S
H459 N446 0.985 . S
C460 C461 1.363 1_556 S
C460 C466 1.379 . S
C460 N468 1.356 . S
C461 C460 1.363 1_554 S
C461 C467 1.363 . S
C462 C463 1.363 1_554 S
C462 C467 1.379 . S
C462 N469 1.356 . S
C463 C462 1.363 1_556 S
C463 C466 1.363 . S
N464 C466 1.356 . S
N464 H476 0.984 . S
N464 H477 0.985 . S
N465 C467 1.356 . S
N465 H470 0.984 . S
N465 H471 0.985 . S
C466 C460 1.379 . S
C466 C463 1.363 . S
C466 N464 1.356 . S
C467 C461 1.363 . S
C467 C462 1.379 . S
C467 N465 1.356 . S
N468 C460 1.356 . S
N468 H474 0.984 . S
N468 H475 0.984 . S
N469 C462 1.356 . S
N469 H472 0.984 . S
N469 H473 0.985 . S
H470 N465 0.984 . S
H471 N465 0.985 . S
H472 N469 0.984 . S
H473 N469 0.985 . S
H474 N468 0.984 . S
H475 N468 0.984 . S
H476 N464 0.984 . S
H477 N464 0.985 . S
C478 C479 1.363 . S
C478 C484 1.379 . S
C478 N486 1.356 . S
C479 C478 1.363 . S
C479 C485 1.363 1_554 S
C480 C481 1.363 . S
C480 C485 1.379 . S
C480 N487 1.356 . S
C481 C480 1.363 . S
C481 C484 1.363 1_556 S
N482 C484 1.356 . S
N482 H494 0.984 . S
N482 H495 0.985 . S
N483 C485 1.356 . S
N483 H488 0.984 1_556 S
N483 H489 0.985 . S
C484 C478 1.379 . S
C484 C481 1.363 1_554 S
C484 N482 1.356 . S
C485 C479 1.363 1_556 S
C485 C480 1.379 . S
C485 N483 1.356 . S
N486 C478 1.356 . S
N486 H492 0.984 . S
N486 H493 0.984 . S
N487 C480 1.356 . S
N487 H490 0.984 . S
N487 H491 0.985 . S
H488 N483 0.984 1_554 S
H489 N483 0.985 . S
H490 N487 0.984 . S
H491 N487 0.985 . S
H492 N486 0.984 . S
H493 N486 0.984 . S
H494 N482 0.984 . S
H495 N482 0.985 . S
C496 C497 1.363 . S
C496 C502 1.379 . S
C496 N504 1.356 . S
C497 C496 1.363 . S
C497 C503 1.363 . S
C498 C499 1.363 . S
C498 C503 1.379 . S
C498 N505 1.356 . S
C499 C498 1.363 . S
C499 C502 1.363 . S
N500 C502 1.356 . S
N500 H512 0.984 . S
N500 H513 0.985 . S
N501 C503 1.356 . S
N501 H506 0.984 . S
N501 H507 0.985 . S
C502 C496 1.379 . S
C502 C499 1.363 . S
C502 N500 1.356 . S
C503 C497 1.363 . S
C503 C498 1.379 . S
C503 N501 1.356 . S
N504 C496 1.356 . S
N504 H510 0.984 . S
N504 H511 0.984 . S
N505 C498 1.356 . S
N505 H508 0.984 . S
N505 H509 0.985 . S
H506 N501 0.984 . S
H507 N501 0.985 . S
H508 N505 0.984 . S
H509 N505 0.985 . S
H510 N504 0.984 . S
H511 N504 0.984 . S
H512 N500 0.984 . S
H513 N500 0.985 . S
C514 C515 1.363 1_565 S
C514 C520 1.379 . S
C514 N522 1.356 . S
C515 C514 1.363 1_545 S
C515 C521 1.363 . S
C516 C517 1.363 . S
C516 C521 1.379 . S
C516 N523 1.356 . S
C517 C516 1.363 . S
C517 C520 1.363 1_545 S
N518 C520 1.356 . S
N518 H530 0.984 . S
N518 H531 0.985 . S
N519 C521 1.356 . S
N519 H524 0.984 . S
N519 H525 0.985 . S
C520 C514 1.379 . S
C520 C517 1.363 1_565 S
C520 N518 1.356 . S
C521 C515 1.363 . S
C521 C516 1.379 . S
C521 N519 1.356 . S
N522 C514 1.356 . S
N522 H528 0.984 . S
N522 H529 0.984 . S
N523 C516 1.356 . S
N523 H526 0.984 . S
N523 H527 0.985 . S
H524 N519 0.984 . S
H525 N519 0.985 . S
H526 N523 0.984 . S
H527 N523 0.985 . S
H528 N522 0.984 . S
H529 N522 0.984 . S
H530 N518 0.984 . S
H531 N518 0.985 . S
C532 C533 1.363 . S
C532 C538 1.379 . S
C532 N540 1.356 . S
C533 C532 1.363 . S
C533 C539 1.363 . S
C534 C535 1.363 . S
C534 C539 1.379 . S
C534 N541 1.356 1_554 S
C535 C534 1.363 . S
C535 C538 1.363 . S
N536 C538 1.356 . S
N536 H548 0.984 . S
N536 H549 0.985 . S
N537 C539 1.356 . S
N537 H542 0.984 . S
N537 H543 0.985 . S
C538 C532 1.379 . S
C538 C535 1.363 . S
C538 N536 1.356 . S
C539 C533 1.363 . S
C539 C534 1.379 . S
C539 N537 1.356 . S
N540 C532 1.356 . S
N540 H546 0.984 . S
N540 H547 0.984 . S
N541 C534 1.356 1_556 S
N541 H544 0.984 . S
N541 H545 0.985 . S
H542 N537 0.984 . S
H543 N537 0.985 . S
H544 N541 0.984 . S
H545 N541 0.985 . S
H546 N540 0.984 . S
H547 N540 0.984 . S
H548 N536 0.984 . S
H549 N536 0.985 . S
C550 C551 1.363 . S
C550 C556 1.379 . S
C550 N558 1.356 . S
C551 C550 1.363 . S
C551 C557 1.363 . S
C552 C553 1.363 . S
C552 C557 1.379 . S
C552 N559 1.356 . S
C553 C552 1.363 . S
C553 C556 1.363 . S
N554 C556 1.356 . S
N554 H566 0.984 . S
N554 H567 0.985 . S
N555 C557 1.356 . S
N555 H560 0.984 . S
N555 H561 0.985 . S
C556 C550 1.379 . S
C556 C553 1.363 . S
C556 N554 1.356 . S
C557 C551 1.363 . S
C557 C552 1.379 . S
C557 N555 1.356 . S
N558 C550 1.356 . S
N558 H564 0.984 . S
N558 H565 0.984 . S
N559 C552 1.356 . S
N559 H562 0.984 1_554 S
N559 H563 0.985 1_554 S
H560 N555 0.984 . S
H561 N555 0.985 . S
H562 N559 0.984 1_556 S
H563 N559 0.985 1_556 S
H564 N558 0.984 . S
H565 N558 0.984 . S
H566 N554 0.984 . S
H567 N554 0.985 . S
C568 C569 1.363 . S
C568 C574 1.377 1_655 S
C568 N576 1.356 1_655 S
C569 C568 1.363 . S
C569 C575 1.363 . S
C570 C571 1.363 . S
C570 C575 1.379 . S
C570 N577 1.356 . S
C571 C570 1.363 . S
C571 C574 1.357 1_655 S
N572 C574 1.363 . S
N572 H584 0.984 . S
N572 H585 0.985 . S
N573 C575 1.356 . S
N573 H578 0.984 . S
N573 H579 0.985 . S
C574 C568 1.377 1_455 S
C574 C571 1.357 1_455 S
C574 N572 1.363 . S
C575 C569 1.363 . S
C575 C570 1.379 . S
C575 N573 1.356 . S
N576 C568 1.356 1_455 S
N576 H582 0.984 . S
N576 H583 0.984 1_455 S
N577 C570 1.356 . S
N577 H580 0.984 . S
N577 H581 0.985 . S
H578 N573 0.984 . S
H579 N573 0.985 . S
H580 N577 0.984 . S
H581 N577 0.985 . S
H582 N576 0.984 . S
H583 N576 0.984 1_655 S
H584 N572 0.984 . S
H585 N572 0.985 . S
C586 C587 1.363 . S
C586 C592 1.379 . S
C586 N594 1.356 . S
C587 C586 1.363 . S
C587 C593 1.363 1_565 S
C588 C589 1.363 1_545 S
C588 C593 1.379 . S
C588 N595 1.356 . S
C589 C588 1.363 1_565 S
C589 C592 1.363 . S
N590 C592 1.356 . S
N590 H602 0.984 . S
N590 H603 0.985 . S
N591 C593 1.356 . S
N591 H596 0.984 . S
N591 H597 0.985 . S
C592 C586 1.379 . S
C592 C589 1.363 . S
C592 N590 1.356 . S
C593 C587 1.363 1_545 S
C593 C588 1.379 . S
C593 N591 1.356 . S
N594 C586 1.356 . S
N594 H600 0.984 . S
N594 H601 0.984 . S
N595 C588 1.356 . S
N595 H598 0.984 . S
N595 H599 0.985 . S
H596 N591 0.984 . S
H597 N591 0.985 . S
H598 N595 0.984 . S
H599 N595 0.985 . S
H600 N594 0.984 . S
H601 N594 0.984 . S
H602 N590 0.984 . S
H603 N590 0.985 . S
C604 C605 1.363 . S
C604 C610 1.379 . S
C604 N612 1.356 . S
C605 C604 1.363 . S
C605 C611 1.363 . S
C606 C607 1.363 . S
C606 C611 1.379 . S
C606 N613 1.356 . S
C607 C606 1.363 . S
C607 C610 1.363 . S
N608 C610 1.356 . S
N608 H620 0.984 . S
N608 H621 0.985 . S
N609 C611 1.356 . S
N609 H614 0.984 . S
N609 H615 0.985 . S
C610 C604 1.379 . S
C610 C607 1.363 . S
C610 N608 1.356 . S
C611 C605 1.363 . S
C611 C606 1.379 . S
C611 N609 1.356 . S
N612 C604 1.356 . S
N612 H618 0.984 . S
N612 H619 0.984 . S
N613 C606 1.356 . S
N613 H616 0.984 . S
N613 H617 0.985 . S
H614 N609 0.984 . S
H615 N609 0.985 . S
H616 N613 0.984 . S
H617 N613 0.985 . S
H618 N612 0.984 . S
H619 N612 0.984 . S
H620 N608 0.984 . S
H621 N608 0.985 . S
C622 C623 1.363 . S
C622 C628 1.379 . S
C622 N630 1.356 . S
C623 C622 1.363 . S
C623 C629 1.363 . S
C624 C625 1.363 . S
C624 C629 1.379 . S
C624 N631 1.356 . S
C625 C624 1.363 . S
C625 C628 1.363 . S
N626 C628 1.356 . S
N626 H638 0.984 . S
N626 H639 0.987 . S
N627 C629 1.356 . S
N627 H632 0.984 . S
N627 H633 0.985 . S
C628 C622 1.379 . S
C628 C625 1.363 . S
C628 N626 1.356 . S
C629 C623 1.363 . S
C629 C624 1.379 . S
C629 N627 1.356 . S
N630 C622 1.356 . S
N630 H636 0.984 . S
N630 H637 0.984 . S
N631 C624 1.356 . S
N631 H634 0.984 . S
N631 H635 0.985 . S
H632 N627 0.984 . S
H633 N627 0.985 . S
H634 N631 0.984 . S
H635 N631 0.985 . S
H636 N630 0.984 . S
H637 N630 0.984 . S
H638 N626 0.984 . S
H639 N626 0.987 . S
C209 N70 1.702 . S
C211 C98 1.715 . S
C229 C128 1.796 . S
C227 N81 1.766 . S
C247 N162 1.373 . S
C245 N48 1.383 . S
C265 N192 1.481 . S
C263 N59 1.454 . S
C283 C89 1.715 . S
C281 N26 1.707 1_545 S
C299 N37 1.777 . S
C301 C119 1.799 . S
C317 N4 1.386 . S
C319 N154 1.373 . S
C335 N15 1.468 . S
C337 N184 1.481 1_655 S
C355 C104 0.735 . S
C353 C64 0.738 . S
C373 C134 1.106 . S
C371 C75 1.037 1_565 S
C391 C175 1.364 . S
C389 C86 1.327 . S
C407 C53 0.852 . S
C409 C205 0.851 . S
C425 C20 0.741 1_556 S
C427 C115 0.738 . S
C445 C145 1.105 . S
C443 C31 1.032 . S
C463 C164 1.364 . S
C461 C42 1.319 . S
C479 C9 0.850 . S
C481 C194 0.851 . S
C497 C61 1.472 . S
C499 N94 1.484 . S
C515 C72 1.429 . S
C517 N124 1.437 . S
C535 C149 1.666 1_554 S
C533 C83 1.640 . S
C553 C179 1.592 1_554 S
C551 C50 1.565 . S
C569 C17 1.460 . S
C571 N102 1.490 . S
C589 N132 1.437 . S
C587 C28 1.436 1_565 S
C607 C158 1.666 . S
C605 C39 1.634 . S
C623 C6 1.564 . S
C625 C188 1.592 . S
