# Generated by pormake.
# Topology anh, (6,3)-cn, num edge types: 1
# Building blocks:
#     Node 0, Type 0, BuildingBlock: CUKXOW_clean_sbu_0, # of connection points: 6
#     Node 1, Type 0, BuildingBlock: CUKXOW_clean_sbu_0, # of connection points: 6
#     Node 2, Type 0, BuildingBlock: CUKXOW_clean_sbu_0, # of connection points: 6
#     Node 3, Type 1, BuildingBlock: MIDCAF_clean_linker_0, # of connection points: 3
#     Node 4, Type 1, BuildingBlock: MIDCAF_clean_linker_0, # of connection points: 3
#     Node 5, Type 1, BuildingBlock: MIDCAF_clean_linker_0, # of connection points: 3
#     Node 6, Type 1, BuildingBlock: MIDCAF_clean_linker_0, # of connection points: 3
#     Node 7, Type 1, BuildingBlock: MIDCAF_clean_linker_0, # of connection points: 3
#     Node 8, Type 1, BuildingBlock: MIDCAF_clean_linker_0, # of connection points: 3
#     Edge 9, Type (0, 1), BuildingBlock: KIFKEQ_clean_linker_1, # of connection points: 2
#     Edge 10, Type (0, 1), BuildingBlock: KIFKEQ_clean_linker_1, # of connection points: 2
#     Edge 11, Type (0, 1), BuildingBlock: KIFKEQ_clean_linker_1, # of connection points: 2
#     Edge 12, Type (0, 1), BuildingBlock: KIFKEQ_clean_linker_1, # of connection points: 2
#     Edge 13, Type (0, 1), BuildingBlock: KIFKEQ_clean_linker_1, # of connection points: 2
#     Edge 14, Type (0, 1), BuildingBlock: KIFKEQ_clean_linker_1, # of connection points: 2
#     Edge 15, Type (0, 1), BuildingBlock: KIFKEQ_clean_linker_1, # of connection points: 2
#     Edge 16, Type (0, 1), BuildingBlock: KIFKEQ_clean_linker_1, # of connection points: 2
#     Edge 17, Type (0, 1), BuildingBlock: KIFKEQ_clean_linker_1, # of connection points: 2
#     Edge 18, Type (0, 1), BuildingBlock: KIFKEQ_clean_linker_1, # of connection points: 2
#     Edge 19, Type (0, 1), BuildingBlock: KIFKEQ_clean_linker_1, # of connection points: 2
#     Edge 20, Type (0, 1), BuildingBlock: KIFKEQ_clean_linker_1, # of connection points: 2
#     Edge 21, Type (0, 1), BuildingBlock: KIFKEQ_clean_linker_1, # of connection points: 2
#     Edge 22, Type (0, 1), BuildingBlock: KIFKEQ_clean_linker_1, # of connection points: 2
#     Edge 23, Type (0, 1), BuildingBlock: KIFKEQ_clean_linker_1, # of connection points: 2
#     Edge 24, Type (0, 1), BuildingBlock: KIFKEQ_clean_linker_1, # of connection points: 2
#     Edge 25, Type (0, 1), BuildingBlock: KIFKEQ_clean_linker_1, # of connection points: 2
#     Edge 26, Type (0, 1), BuildingBlock: KIFKEQ_clean_linker_1, # of connection points: 2
# Relax obj value: 0.134
# Max RMSD: 0.194
# Mean RMSD: 0.139
data_MOF--net-anh--node1-CUKXOW_clean_sbu_0--node2-MIDCAF_clean_linker_0--edge1-KIFKEQ_clean_linker_1
_symmetry_space_group_name_H-M    P1
_symmetry_Int_Tables_number       1
_symmetry_cell_setting            triclinic
loop_
_symmetry_equiv_pos_as_xyz
'x, y, z'
_cell_length_a     35.462688
_cell_length_b     34.460771
_cell_length_c     65.882456
_cell_angle_alpha  95.722831
_cell_angle_beta   89.968495
_cell_angle_gamma 115.12132
loop_
_atom_site_label
_atom_site_type_symbol
_atom_site_fract_x
_atom_site_fract_y
_atom_site_fract_z
_atom_type_partial_charge
Tb0 Tb 0.07654 0.53259 0.15144 0.0
C1 C 0.05053 0.48737 0.19194 0.0
Tb2 Tb 1.0159 0.43422 0.1489 0.0
O3 O 0.0266 0.54651 0.1393 0.0
O4 O 1.0118 0.49422 0.15586 0.0
O5 O 0.07889 0.51949 0.183 0.0
C6 C 0.94479 0.36298 0.14745 0.0
O7 O 0.02011 0.45345 0.18159 0.0
C8 C 0.09567 0.44689 0.14783 0.0
C9 C 0.04941 0.47743 0.10857 0.0
O10 O 0.97843 0.3701 0.15805 0.0
O11 O 0.95141 0.39576 0.13746 0.0
O12 O 0.06426 0.40895 0.14608 0.0
O13 O 0.07982 0.47342 0.14961 0.0
O14 O 0.01905 0.44592 0.1169 0.0
O15 O 0.07828 0.51174 0.11942 0.0
C16 C 0.14137 0.6098 0.15635 0.0
O17 O 0.13953 0.57677 0.14434 0.0
O18 O 0.10667 0.59937 0.16568 0.0
C19 C 0.99616 0.51286 0.14524 0.0
Tb20 Tb 0.50559 0.01766 0.5081 0.0
C21 C 0.5492 0.04831 0.46787 0.0
Tb22 Tb 0.5952 0.08647 0.51189 0.0
O23 O 0.4845 0.06234 0.49619 0.0
O24 O 0.53582 0.08507 0.51696 0.0
O25 O 0.51884 0.01649 0.47599 0.0
C26 C 0.66448 0.15901 0.51078 0.0
O27 O 0.57966 0.08052 0.47915 0.0
C28 C 0.5862 0.00762 0.51397 0.0
C29 C 0.55226 0.05411 0.55198 0.0
O30 O 0.66189 0.12029 0.50683 0.0
O31 O 0.62814 0.15684 0.51533 0.0
O32 O 0.61668 0.04146 0.52322 0.0
O33 O 0.56493 0.01927 0.50282 0.0
O34 O 0.58237 0.08649 0.54407 0.0
O35 O 0.52191 0.02215 0.54057 0.0
C36 C 0.43465 0.94703 0.50955 0.0
O37 O 0.43951 0.98626 0.5146 0.0
O38 O 0.4697 0.94753 0.50357 0.0
C39 C 0.51472 0.09634 0.50545 0.0
Tb40 Tb 0.54057 0.55796 0.83375 0.0
C41 C 0.58156 0.55447 0.87525 0.0
Tb42 Tb 0.62649 0.55863 0.83284 0.0
O43 O 0.51237 0.49074 0.8406 0.0
O44 O 0.5652 0.51379 0.82332 0.0
O45 O 0.55168 0.56156 0.86645 0.0
C46 C 0.68434 0.52876 0.83245 0.0
O47 O 0.61243 0.55075 0.86498 0.0
C48 C 0.62617 0.63511 0.83477 0.0
C49 C 0.58722 0.56614 0.79244 0.0
O50 O 0.6919 0.56896 0.83178 0.0
O51 O 0.64483 0.5062 0.83397 0.0
O52 O 0.65556 0.62653 0.82658 0.0
O53 O 0.60176 0.60286 0.84305 0.0
O54 O 0.61127 0.55036 0.8004 0.0
O55 O 0.5623 0.57819 0.80375 0.0
C56 C 0.47594 0.57632 0.82829 0.0
O57 O 0.48289 0.54689 0.81732 0.0
O58 O 0.50455 0.5945 0.84283 0.0
C59 C 0.54123 0.48194 0.83203 0.0
C60 C 0.38977 0.91407 0.20683 0.0
C61 C 0.39225 0.89294 0.18788 0.0
C62 C 0.43023 0.90825 0.17802 0.0
C63 C 0.46529 0.94367 0.18717 0.0
H64 H 0.58924 0.04314 0.17837 0.0
H65 H 0.64945 0.09186 0.16106 0.0
H66 H 0.68524 0.18422 0.21486 0.0
H67 H 0.62577 0.13591 0.23218 0.0
H68 H 0.59848 0.09406 0.27515 0.0
H69 H 0.60248 0.09796 0.31234 0.0
H70 H 0.48161 0.98969 0.31072 0.0
H71 H 0.4776 0.98526 0.27371 0.0
H72 H 0.42194 0.96376 0.23092 0.0
H73 H 0.36106 0.90272 0.21488 0.0
H74 H 0.43288 0.89254 0.16336 0.0
H75 H 0.4944 0.95438 0.17946 0.0
N76 N 0.53332 0.0243 0.20712 0.0
N77 N 0.56826 0.06127 0.23835 0.0
N78 N 0.50216 1.00391 0.2381 0.0
C79 C 0.56721 0.05621 0.21758 0.0
C80 C 0.53594 0.03505 0.24872 0.0
C81 C 0.50048 0.9983 0.21739 0.0
C82 C 0.60276 0.0856 0.20666 0.0
C83 C 0.60987 0.07393 0.18644 0.0
C84 C 0.64436 0.10166 0.17657 0.0
C85 C 0.6718 0.14182 0.18661 0.0
C86 C 0.66432 0.15365 0.20668 0.0
C87 C 0.63039 0.12578 0.21664 0.0
C88 C 0.53782 0.0392 0.27136 0.0
C89 C 0.57267 0.07116 0.28271 0.0
C90 C 0.57492 0.07355 0.30403 0.0
C91 C 0.54249 0.04393 0.31442 0.0
C92 C 0.5074 0.01251 0.30312 0.0
C93 C 0.50505 0.01019 0.28187 0.0
C94 C 0.46305 0.9637 0.2065 0.0
C95 C 0.42478 0.94884 0.21608 0.0
C96 C 0.4994 0.39745 0.52734 0.0
C97 C 0.52794 0.39439 0.5132 0.0
C98 C 0.55781 0.43246 0.50635 0.0
C99 C 0.56023 0.47287 0.51427 0.0
H100 H 0.51957 0.60219 0.51082 0.0
H101 H 0.52142 0.67071 0.50196 0.0
H102 H 0.61107 0.73917 0.55204 0.0
H103 H 0.60872 0.6716 0.56095 0.0
H104 H 0.54466 0.6141 0.60307 0.0
H105 H 0.54975 0.61652 0.64003 0.0
H106 H 0.57367 0.50293 0.63338 0.0
H107 H 0.56657 0.49943 0.59646 0.0
H108 H 0.48144 0.439 0.54724 0.0
H109 H 0.47635 0.36886 0.53311 0.0
H110 H 0.58009 0.43102 0.4954 0.0
H111 H 0.58479 0.50184 0.50958 0.0
N112 N 0.54845 0.55351 0.53291 0.0
N113 N 0.55879 0.59137 0.56571 0.0
N114 N 0.54377 0.5182 0.56228 0.0
C115 C 0.55695 0.59097 0.5451 0.0
C116 C 0.55231 0.55526 0.57441 0.0
C117 C 0.54178 0.51695 0.54164 0.0
C118 C 0.56351 0.63155 0.53675 0.0
C119 C 0.54027 0.63207 0.51958 0.0
C120 C 0.54125 0.67121 0.51457 0.0
C121 C 0.56558 0.71018 0.52665 0.0
C122 C 0.59105 0.70961 0.54281 0.0
C123 C 0.5899 0.67086 0.54784 0.0
C124 C 0.55515 0.55654 0.59685 0.0
C125 C 0.5509 0.58959 0.60953 0.0
C126 C 0.5541 0.59112 0.63074 0.0
C127 C 0.56227 0.56001 0.63977 0.0
C128 C 0.56659 0.52699 0.62702 0.0
C129 C 0.56274 0.52509 0.60582 0.0
C130 C 0.53336 0.47567 0.52941 0.0
C131 C 0.50233 0.43761 0.53547 0.0
C132 C 0.9037 0.41077 0.84944 0.0
C133 C 0.90159 0.42028 0.82931 0.0
C134 C 0.93741 0.43174 0.81781 0.0
C135 C 0.97557 0.43887 0.82704 0.0
H136 H 0.10265 0.50527 0.82013 0.0
H137 H 0.16824 0.54417 0.80411 0.0
H138 H 0.22949 0.59716 0.86366 0.0
H139 H 0.16432 0.55891 0.87967 0.0
H140 H 0.12315 0.51532 0.91811 0.0
H141 H 0.12392 0.51345 0.95495 0.0
H142 H 0.99741 0.41453 0.94989 0.0
H143 H 0.99651 0.41587 0.91302 0.0
H144 H 0.94247 0.41267 0.87455 0.0
H145 H 0.87695 0.40201 0.85889 0.0
H146 H 0.9366 0.43808 0.80208 0.0
H147 H 1.00318 0.45073 0.81819 0.0
N148 N 0.05407 0.47837 0.85008 0.0
N149 N 0.09251 0.4952 0.88119 0.0
N150 N 0.02159 0.44798 0.87924 0.0
C151 C 0.09076 0.49991 0.86105 0.0
C152 C 0.0581 0.4691 0.89038 0.0
C153 C 0.01932 0.45232 0.85907 0.0
C154 C 0.12855 0.52811 0.8512 0.0
C155 C 0.12991 0.52594 0.8298 0.0
C156 C 0.16737 0.54832 0.82059 0.0
C157 C 0.20395 0.57346 0.83263 0.0
C158 C 0.20173 0.57841 0.85396 0.0
C159 C 0.16445 0.55588 0.86315 0.0
C160 C 0.05967 0.46592 0.91257 0.0
C161 C 0.09557 0.49287 0.92478 0.0
C162 C 0.09598 0.49201 0.94591 0.0
C163 C 0.06065 0.46404 0.95527 0.0
C164 C 0.0252 0.43619 0.94306 0.0
C165 C 0.02467 0.43719 0.92193 0.0
C166 C 0.97838 0.43414 0.84786 0.0
C167 C 0.94163 0.41736 0.85857 0.0
C168 C 0.1571 0.68795 0.45459 0.0
C169 C 0.16652 0.68884 0.47537 0.0
C170 C 0.14292 0.65297 0.48564 0.0
C171 C 0.11052 0.61675 0.47523 0.0
H172 H 1.00319 0.50062 0.48241 0.0
H173 H 0.94593 0.44629 0.49898 0.0
H174 H 0.87893 0.39519 0.44062 0.0
H175 H 0.9355 0.44899 0.42408 0.0
H176 H 0.98724 0.46877 0.38437 0.0
H177 H 0.99026 0.45892 0.34741 0.0
H178 H 0.0984 0.5813 0.34958 0.0
H179 H 0.09605 0.59096 0.38656 0.0
H180 H 0.11919 0.65211 0.42809 0.0
H181 H 0.17514 0.71491 0.44621 0.0
H182 H 0.14957 0.65295 0.50168 0.0
H183 H 0.093 0.58938 0.48345 0.0
N184 N 0.03843 0.54673 0.45249 0.0
N185 N 1.00941 0.5068 0.42091 0.0
N186 N 0.06965 0.57149 0.42208 0.0
C187 C 1.00828 0.51165 0.44159 0.0
C188 C 0.04007 0.53647 0.41104 0.0
C189 C 0.06911 0.57691 0.44275 0.0
C190 C 0.97397 0.47918 0.45192 0.0
C191 C 0.97617 0.47787 0.47314 0.0
C192 C 0.94355 0.44672 0.48262 0.0
C193 C 0.90796 0.41679 0.47108 0.0
C194 C 0.90574 0.41826 0.44993 0.0
C195 C 0.93838 0.44895 0.44044 0.0
C196 C 0.04142 0.53066 0.38851 0.0
C197 C 1.01169 0.49364 0.37702 0.0
C198 C 1.01327 0.48804 0.3558 0.0
C199 C 0.04459 0.51931 0.34558 0.0
C200 C 0.07424 0.55634 0.35704 0.0
C201 C 0.07269 0.56196 0.37825 0.0
C202 C 0.10174 0.61562 0.4543 0.0
C203 C 0.12524 0.65175 0.44417 0.0
C204 C 0.5228 0.15997 0.81664 0.0
C205 C 0.55743 0.19432 0.82698 0.0
C206 C 0.59256 0.18721 0.8319 0.0
C207 C 0.59376 0.14752 0.82561 0.0
H208 H 0.61601 0.01235 0.83343 0.0
H209 H 0.62533 0.95048 0.84438 0.0
H210 H 0.54332 0.86798 0.79409 0.0
H211 H 0.53452 0.92902 0.78316 0.0
H212 H 0.58229 0.99186 0.7405 0.0
H213 H 0.57914 0.99177 0.70346 0.0
H214 H 0.53564 0.09168 0.71063 0.0
H215 H 0.53855 0.09185 0.74754 0.0
H216 H 0.49805 0.09601 0.80113 0.0
H217 H 0.49544 0.16418 0.81229 0.0
H218 H 0.61965 0.21279 0.84 0.0
H219 H 0.62205 0.14377 0.82846 0.0
N220 N 0.57027 0.04662 0.81107 0.0
N221 N 0.56857 0.01149 0.77826 0.0
N222 N 0.56128 0.07596 0.78165 0.0
C223 C 0.57174 0.0127 0.79891 0.0
C224 C 0.56365 0.0431 0.76952 0.0
C225 C 0.5647 0.07824 0.80227 0.0
C226 C 0.57466 0.97563 0.8074 0.0
C227 C 0.59962 0.98083 0.82495 0.0
C228 C 0.60517 0.94553 0.8311 0.0
C229 C 0.58502 0.90429 0.8201 0.0
C230 C 0.55898 0.8991 0.80303 0.0
C231 C 0.55414 0.93425 0.7967 0.0
C232 C 0.56075 0.04191 0.74702 0.0
C233 C 0.57187 0.01368 0.73419 0.0
C234 C 0.57032 0.01377 0.71299 0.0
C235 C 0.55716 0.04172 0.7042 0.0
C236 C 0.54553 0.06951 0.71699 0.0
C237 C 0.54747 0.06974 0.73815 0.0
C238 C 0.55996 0.11442 0.81422 0.0
C239 C 0.5242 0.12074 0.81025 0.0
C240 C 0.70019 0.53464 0.13395 0.0
C241 C 0.70242 0.49899 0.14174 0.0
C242 C 0.66434 0.46414 0.14539 0.0
C243 C 0.62556 0.46434 0.14054 0.0
H244 H 0.47175 0.45431 0.15194 0.0
H245 H 0.4031 0.45023 0.16169 0.0
H246 H 0.409 0.53445 0.1162 0.0
H247 H 0.47668 0.53949 0.10725 0.0
H248 H 0.49969 0.50761 0.06388 0.0
H249 H 0.50558 0.51706 0.02777 0.0
H250 H 0.62484 0.51128 0.02886 0.0
H251 H 0.6189 0.50123 0.06504 0.0
H252 H 0.66165 0.56177 0.12206 0.0
H253 H 0.72821 0.56183 0.13044 0.0
H254 H 0.6644 0.43618 0.15153 0.0
H255 H 0.59704 0.4361 0.14239 0.0
N256 N 0.55048 0.49432 0.13087 0.0
N257 N 0.52162 0.498 0.09931 0.0
N258 N 0.58752 0.4987 0.10072 0.0
C259 C 0.51825 0.49555 0.11972 0.0
C260 C 0.55571 0.49934 0.08966 0.0
C261 C 0.58547 0.49601 0.12115 0.0
C262 C 0.47998 0.49715 0.12877 0.0
C263 C 0.45868 0.47272 0.14446 0.0
C264 C 0.41898 0.46998 0.14983 0.0
C265 C 0.39983 0.49192 0.13976 0.0
C266 C 0.42229 0.51754 0.12468 0.0
C267 C 0.4614 0.52015 0.11937 0.0
C268 C 0.55888 0.50374 0.06747 0.0
C269 C 0.52718 0.50818 0.05648 0.0
C270 C 0.53063 0.51389 0.03577 0.0
C271 C 0.56578 0.51518 0.02549 0.0
C272 C 0.59722 0.5101 0.03633 0.0
C273 C 0.59387 0.50454 0.05711 0.0
C274 C 0.6239 0.49941 0.13197 0.0
C275 C 0.66175 0.53473 0.12913 0.0
H276 H 0.16545 0.52258 0.15951 0.0
H277 H 0.12777 0.39001 0.13542 0.0
H278 H 0.23854 0.53427 0.15976 0.0
H279 H 0.20034 0.40154 0.13486 0.0
H280 H 0.33127 0.42015 0.14979 0.0
H281 H 0.25964 0.41086 0.15326 0.0
H282 H 0.29638 0.54259 0.14103 0.0
H283 H 0.36819 0.55266 0.13904 0.0
C284 C 0.17283 0.49611 0.15395 0.0
C285 C 0.14068 0.45548 0.14729 0.0
C286 C 0.21492 0.5027 0.15406 0.0
C287 C 0.22616 0.46887 0.14738 0.0
C288 C 0.19361 0.42835 0.14059 0.0
C289 C 0.1517 0.42176 0.14068 0.0
C290 C 0.32438 0.44749 0.14827 0.0
C291 C 0.35612 0.48706 0.14388 0.0
C292 C 0.28281 0.44194 0.14991 0.0
C293 C 0.27128 0.47568 0.1471 0.0
C294 C 0.30335 0.51567 0.14342 0.0
C295 C 0.34489 0.5213 0.14197 0.0
H296 H 0.67089 0.24085 0.51558 0.0
H297 H 0.74207 0.16719 0.50148 0.0
H298 H 0.7314 0.30688 0.50953 0.0
H299 H 0.80247 0.23307 0.49523 0.0
H300 H 0.91283 0.36405 0.49833 0.0
H301 H 0.85497 0.30399 0.51149 0.0
H302 H 0.76731 0.33374 0.47826 0.0
H303 H 0.82493 0.39397 0.46548 0.0
C304 C 0.69964 0.23892 0.51138 0.0
C305 C 0.7019 0.19906 0.50885 0.0
C306 C 0.73417 0.27661 0.50786 0.0
C307 C 0.77159 0.27509 0.50183 0.0
C308 C 0.77421 0.23532 0.50007 0.0
C309 C 0.7396 0.1976 0.50351 0.0
C310 C 0.88115 0.35816 0.49419 0.0
C311 C 0.87328 0.38339 0.48079 0.0
C312 C 0.8481 0.32364 0.50157 0.0
C313 C 0.80666 0.31409 0.49583 0.0
C314 C 0.79888 0.34052 0.48311 0.0
C315 C 0.83184 0.37473 0.47563 0.0
H316 H 0.6714 0.70325 0.81368 0.0
H317 H 0.57247 0.66028 0.85579 0.0
H318 H 0.66277 0.7698 0.81231 0.0
H319 H 0.56311 0.72623 0.85412 0.0
H320 H 0.52649 0.82228 0.8233 0.0
H321 H 0.53789 0.75873 0.82827 0.0
H322 H 0.67076 0.83733 0.83382 0.0
H323 H 0.65924 0.90106 0.82871 0.0
C324 C 0.64786 0.70808 0.82268 0.0
C325 C 0.6221 0.6762 0.83457 0.0
C326 C 0.64301 0.74628 0.82196 0.0
C327 C 0.61209 0.75332 0.83303 0.0
C328 C 0.5868 0.72161 0.84518 0.0
C329 C 0.59199 0.68369 0.84605 0.0
C330 C 0.55812 0.82607 0.82577 0.0
C331 C 0.59196 0.86674 0.82558 0.0
C332 C 0.56466 0.78967 0.82872 0.0
C333 C 0.60527 0.79283 0.83134 0.0
C334 C 0.63911 0.83369 0.83164 0.0
C335 C 0.63251 0.87028 0.82894 0.0
H336 H 0.96431 0.56228 0.12858 0.0
H337 H 0.92717 0.45023 0.16123 0.0
H338 H 0.89352 0.55671 0.12917 0.0
H339 H 0.8554 0.44405 0.16146 0.0
H340 H 0.72277 0.42921 0.13617 0.0
H341 H 0.79203 0.42974 0.13782 0.0
H342 H 0.84691 0.567 0.15527 0.0
H343 H 0.77818 0.56651 0.15433 0.0
C344 C 0.94095 0.5362 0.13581 0.0
C345 C 0.95169 0.50674 0.14486 0.0
C346 C 0.90023 0.53314 0.13624 0.0
C347 C 0.86852 0.50018 0.14553 0.0
C348 C 0.87887 0.46983 0.15413 0.0
C349 C 0.92004 0.47332 0.15397 0.0
C350 C 0.7494 0.45945 0.14078 0.0
C351 C 0.74429 0.49794 0.14481 0.0
C352 C 0.7893 0.45972 0.14164 0.0
C353 C 0.82538 0.49852 0.14635 0.0
C354 C 0.8201 0.53661 0.15112 0.0
C355 C 0.78039 0.53629 0.1505 0.0
H356 H 0.35919 0.94343 0.52003 0.0
H357 H 0.42069 0.86377 0.49829 0.0
H358 H 0.29201 0.88019 0.51649 0.0
H359 H 0.35353 0.8006 0.49443 0.0
H360 H 0.22924 0.68902 0.49948 0.0
H361 H 0.29346 0.75134 0.51219 0.0
H362 H 0.249 0.83566 0.48647 0.0
H363 H 0.18476 0.77367 0.47423 0.0
C364 C 0.35831 0.91228 0.51469 0.0
C365 C 0.3949 0.90838 0.50924 0.0
C366 C 0.31991 0.87615 0.51261 0.0
C367 C 0.31746 0.83549 0.50508 0.0
C368 C 0.35443 0.8314 0.50049 0.0
C369 C 0.39283 0.86756 0.50253 0.0
C370 C 0.23287 0.72101 0.49702 0.0
C371 C 0.20228 0.72659 0.48574 0.0
C372 C 0.26972 0.75659 0.50411 0.0
C373 C 0.27641 0.79833 0.50018 0.0
C374 C 0.2447 0.80399 0.4899 0.0
C375 C 0.20806 0.76848 0.48273 0.0
H376 H 0.58343 0.44901 0.80613 0.0
H377 H 0.50685 0.42154 0.85842 0.0
H378 H 0.58935 0.381 0.80676 0.0
H379 H 0.51324 0.3539 0.8594 0.0
H380 H 0.49341 0.2144 0.83966 0.0
H381 H 0.49053 0.28393 0.84134 0.0
H382 H 0.61932 0.34344 0.82524 0.0
H383 H 0.62157 0.27332 0.82266 0.0
C384 C 0.56817 0.42854 0.81788 0.0
C385 C 0.54485 0.44066 0.83229 0.0
C386 C 0.57171 0.38961 0.81833 0.0
C387 C 0.55192 0.36176 0.83319 0.0
C388 C 0.52852 0.3741 0.84758 0.0
C389 C 0.52491 0.41295 0.84707 0.0
C390 C 0.52118 0.24229 0.8365 0.0
C391 C 0.55763 0.23797 0.83088 0.0
C392 C 0.51966 0.2824 0.83766 0.0
C393 C 0.55458 0.31953 0.83328 0.0
C394 C 0.59155 0.31553 0.82838 0.0
C395 C 0.59305 0.27533 0.82722 0.0
H396 H 0.53623 0.935 0.48903 0.0
H397 H 0.62343 0.97949 0.54111 0.0
H398 H 0.52722 0.86088 0.49122 0.0
H399 H 0.61515 0.90612 0.54312 0.0
H400 H 0.55847 0.76784 0.55586 0.0
H401 H 0.56042 0.83806 0.55204 0.0
H402 H 0.56802 0.81597 0.4868 0.0
H403 H 0.56608 0.74499 0.49066 0.0
C404 C 0.55325 0.92885 0.50099 0.0
C405 C 0.5802 0.96281 0.51504 0.0
C406 C 0.54841 0.88657 0.50212 0.0
C407 C 0.57026 0.87759 0.51742 0.0
C408 C 0.59735 0.91181 0.53135 0.0
C409 C 0.6023 0.95389 0.53014 0.0
C410 C 0.5607 0.77792 0.54067 0.0
C411 C 0.56302 0.75121 0.52359 0.0
C412 C 0.56178 0.81818 0.53849 0.0
C413 C 0.56511 0.83292 0.51916 0.0
C414 C 0.56541 0.80546 0.5019 0.0
C415 C 0.56434 0.7649 0.50409 0.0
H416 H 0.769 0.57108 0.83337 0.0
H417 H 0.66673 0.44434 0.82364 0.0
H418 H 0.81829 0.5393 0.8276 0.0
H419 H 0.71555 0.41252 0.81672 0.0
H420 H 0.81881 0.37278 0.83611 0.0
H421 H 0.76417 0.39721 0.8342 0.0
H422 H 0.84585 0.50489 0.80324 0.0
H423 H 0.9015 0.48266 0.80674 0.0
C424 C 0.75719 0.53646 0.82982 0.0
C425 C 0.71434 0.51008 0.82917 0.0
C426 C 0.78528 0.51819 0.82621 0.0
C427 C 0.7709 0.47326 0.82152 0.0
C428 C 0.72778 0.44709 0.82054 0.0
C429 C 0.69981 0.46531 0.82449 0.0
C430 C 0.82497 0.40142 0.82869 0.0
C431 C 0.86498 0.42636 0.82215 0.0
C432 C 0.79344 0.41524 0.8274 0.0
C433 C 0.80104 0.45383 0.81912 0.0
C434 C 0.83944 0.47586 0.81036 0.0
C435 C 0.87119 0.4625 0.812 0.0
H436 H 0.21246 0.63633 0.13533 0.0
H437 H 0.15148 0.67878 0.18346 0.0
H438 H 0.2727 0.70641 0.14002 0.0
H439 H 0.21212 0.74829 0.18874 0.0
H440 H 0.31139 0.8811 0.18392 0.0
H441 H 0.25015 0.81366 0.17415 0.0
H442 H 0.32965 0.74775 0.16384 0.0
H443 H 0.3908 0.81553 0.17309 0.0
C444 C 0.21206 0.66071 0.14695 0.0
C445 C 0.17744 0.65228 0.15905 0.0
C446 C 0.24662 0.70077 0.14971 0.0
C447 C 0.24735 0.73311 0.16475 0.0
C448 C 0.2124 0.72452 0.17676 0.0
C449 C 0.17776 0.68457 0.17388 0.0
C450 C 0.31568 0.85222 0.17931 0.0
C451 C 0.35577 0.85345 0.17933 0.0
C452 C 0.28063 0.81353 0.17385 0.0
C453 C 0.28484 0.77507 0.16847 0.0
C454 C 0.32518 0.77675 0.16769 0.0
C455 C 0.36028 0.81559 0.17298 0.0
H456 H 0.47696 0.12395 0.47812 0.0
H457 H 0.5642 0.16919 0.53019 0.0
H458 H 0.48301 0.19693 0.47674 0.0
H459 H 0.57052 0.24233 0.5288 0.0
H460 H 0.59545 0.37549 0.51236 0.0
H461 H 0.59524 0.30406 0.50817 0.0
H462 H 0.46138 0.24574 0.49796 0.0
H463 H 0.46177 0.31703 0.50176 0.0
C464 C 0.49765 0.14962 0.48919 0.0
C465 C 0.52027 0.141 0.5042 0.0
C466 C 0.50107 0.19138 0.48842 0.0
C467 C 0.52725 0.22549 0.50265 0.0
C468 C 0.55058 0.21694 0.51741 0.0
C469 C 0.54698 0.17507 0.51823 0.0
C470 C 0.56614 0.34745 0.50871 0.0
C471 C 0.5286 0.35187 0.50742 0.0
C472 C 0.56595 0.30652 0.50657 0.0
C473 C 0.52826 0.26918 0.50292 0.0
C474 C 0.491 0.2738 0.50063 0.0
C475 C 0.49116 0.31464 0.50292 0.0
H476 H 0.44701 0.62245 0.85435 0.0
H477 H 0.42811 0.55663 0.7934 0.0
H478 H 0.38462 0.63384 0.84938 0.0
H479 H 0.36699 0.57015 0.78778 0.0
H480 H 0.22897 0.52603 0.8054 0.0
H481 H 0.29993 0.53775 0.79959 0.0
H482 H 0.34447 0.66378 0.83404 0.0
H483 H 0.2725 0.65108 0.84041 0.0
C484 C 0.42988 0.61131 0.83972 0.0
C485 C 0.44141 0.58771 0.82445 0.0
C486 C 0.39444 0.61834 0.83671 0.0
C487 C 0.37038 0.6025 0.8182 0.0
C488 C 0.38416 0.58187 0.80237 0.0
C489 C 0.41908 0.57408 0.80557 0.0
C490 C 0.25374 0.557 0.81104 0.0
C491 C 0.24528 0.58731 0.82369 0.0
C492 C 0.29472 0.56383 0.80769 0.0
C493 C 0.32812 0.60133 0.81679 0.0
C494 C 0.31946 0.63398 0.82734 0.0
C495 C 0.27832 0.6269 0.83088 0.0
H496 H 0.86923 0.35383 0.13305 0.0
H497 H 0.92851 0.29003 0.16533 0.0
H498 H 0.80076 0.29705 0.13893 0.0
H499 H 0.86016 0.23325 0.17119 0.0
H500 H 0.73026 0.12245 0.16667 0.0
H501 H 0.79544 0.17293 0.15349 0.0
H502 H 0.76213 0.27799 0.17121 0.0
H503 H 0.69716 0.22764 0.18427 0.0
C504 C 0.86759 0.32725 0.14109 0.0
C505 C 0.90401 0.32625 0.1488 0.0
C506 C 0.82847 0.29493 0.14453 0.0
C507 C 0.82515 0.26082 0.15556 0.0
C508 C 0.86176 0.2589 0.16246 0.0
C509 C 0.90084 0.29147 0.15921 0.0
C510 C 0.73663 0.15623 0.16738 0.0
C511 C 0.70886 0.17126 0.17657 0.0
C512 C 0.77397 0.18509 0.15999 0.0
C513 C 0.78387 0.22937 0.16138 0.0
C514 C 0.75519 0.24401 0.16976 0.0
C515 C 0.71818 0.21529 0.17738 0.0
H516 H 0.11302 0.52738 0.08611 0.0
H517 H 0.9908 0.42019 0.08017 0.0
H518 H 0.11666 0.52277 0.04919 0.0
H519 H 0.99405 0.41639 0.04311 0.0
H520 H 0.03176 0.3957 0.97793 0.0
H521 H 0.02966 0.3979 0.01507 0.0
H522 H 0.08529 0.53722 0.02032 0.0
H523 H 0.08792 0.5349 0.98332 0.0
C524 C 0.08679 0.50296 0.07694 0.0
C525 C 0.05154 0.47423 0.08611 0.0
C526 C 0.08883 0.50046 0.05574 0.0
C527 C 0.05557 0.46935 0.0432 0.0
C528 C 0.02043 0.44038 0.05236 0.0
C529 C 0.01847 0.44272 0.0736 0.0
C530 C 0.04347 0.42673 0.98708 0.0
C531 C 0.06017 0.46513 0.97778 0.0
C532 C 0.04216 0.42802 0.00831 0.0
C533 C 0.05734 0.46774 0.02065 0.0
C534 C 0.07405 0.5061 0.01129 0.0
C535 C 0.07555 0.5048 0.99009 0.0
H536 H 0.49023 0.9912 0.43969 0.0
H537 H 0.60796 0.10461 0.4451 0.0
H538 H 0.48959 0.99102 0.40277 0.0
H539 H 0.6077 0.10373 0.40807 0.0
H540 H 0.56863 0.11463 0.34294 0.0
H541 H 0.57102 0.11603 0.38007 0.0
H542 H 0.52554 0.97734 0.37377 0.0
H543 H 0.52281 0.97598 0.33677 0.0
C544 C 0.51613 0.01595 0.43302 0.0
C545 C 0.54917 0.04789 0.44539 0.0
C546 C 0.51585 0.0157 0.41182 0.0
C547 C 0.54866 0.04728 0.40246 0.0
C548 C 0.58171 0.07925 0.41482 0.0
C549 C 0.58195 0.07957 0.43605 0.0
C550 C 0.55948 0.08452 0.34952 0.0
C551 C 0.54527 0.04518 0.33696 0.0
C552 C 0.56089 0.08531 0.37078 0.0
C553 C 0.54826 0.04676 0.37989 0.0
C554 C 0.5347 0.00752 0.36727 0.0
C555 C 0.53317 0.00674 0.34606 0.0
H556 H 0.61396 0.52323 0.76317 0.0
H557 H 0.55798 0.61303 0.77147 0.0
H558 H 0.60848 0.52281 0.72621 0.0
H559 H 0.55297 0.6128 0.73441 0.0
H560 H 0.59776 0.63202 0.6676 0.0
H561 H 0.60447 0.63509 0.70464 0.0
H562 H 0.5449 0.49612 0.7002 0.0
H563 H 0.53634 0.4927 0.66327 0.0
C564 C 0.60088 0.54319 0.75712 0.0
C565 C 0.58631 0.5681 0.7702 0.0
C566 C 0.59752 0.5427 0.73599 0.0
C567 C 0.58017 0.56762 0.72755 0.0
C568 C 0.56662 0.59344 0.7406 0.0
C569 C 0.56935 0.59342 0.76175 0.0
C570 C 0.58544 0.60207 0.67448 0.0
C571 C 0.5665 0.56207 0.66236 0.0
C572 C 0.58953 0.60392 0.69568 0.0
C573 C 0.57538 0.56586 0.70517 0.0
C574 C 0.55656 0.52592 0.69317 0.0
C575 C 0.55187 0.52403 0.67201 0.0
H576 H 0.49002 1.00191 0.57448 0.0
H577 H 0.6156 0.10319 0.58011 0.0
H578 H 0.49127 0.9984 0.61122 0.0
H579 H 0.61662 0.09963 0.61693 0.0
H580 H 0.61703 0.04336 0.67777 0.0
H581 H 0.61576 0.04643 0.64085 0.0
H582 H 0.49372 0.0456 0.64325 0.0
H583 H 0.49477 0.042 0.68009 0.0
C584 C 0.51787 0.0235 0.58354 0.0
C585 C 0.55271 0.05288 0.57435 0.0
C586 C 0.51846 0.02159 0.60459 0.0
C587 C 0.55405 0.0487 0.6169 0.0
C588 C 0.58891 0.07807 0.60776 0.0
C589 C 0.58819 0.0803 0.5867 0.0
C590 C 0.58982 0.04347 0.67035 0.0
C591 C 0.55599 0.04244 0.68176 0.0
C592 C 0.58927 0.04565 0.64929 0.0
C593 C 0.55469 0.04636 0.63922 0.0
C594 C 0.52067 0.04481 0.65061 0.0
C595 C 0.52139 0.04307 0.67168 0.0
H596 H 0.63847 0.54361 0.89937 0.0
H597 H 0.52216 0.55602 0.90147 0.0
H598 H 0.63594 0.53553 0.93571 0.0
H599 H 0.51923 0.54692 0.93767 0.0
H600 H 0.54824 0.57273 0.00634 0.0
H601 H 0.55325 0.58355 0.97027 0.0
H602 H 0.5968 0.48408 0.95896 0.0
H603 H 0.5921 0.47356 0.99512 0.0
C604 C 0.61233 0.54459 0.90755 0.0
C605 C 0.58056 0.55057 0.89746 0.0
C606 C 0.61076 0.53966 0.92837 0.0
C607 C 0.57736 0.5405 0.93961 0.0
C608 C 0.54572 0.54671 0.92955 0.0
C609 C 0.54731 0.55173 0.90873 0.0
C610 C 0.55865 0.55301 0.99612 0.0
C611 C 0.56963 0.52218 0.00356 0.0
C612 C 0.56149 0.55918 0.97545 0.0
C613 C 0.57529 0.53459 0.9617 0.0
C614 C 0.58661 0.50399 0.96918 0.0
C615 C 0.58388 0.49791 0.98989 0.0
H616 H 0.10558 0.5524 0.219 0.0
H617 H 0.99774 0.42933 0.21606 0.0
H618 H 0.10466 0.55914 0.25613 0.0
H619 H 0.99741 0.4359 0.25316 0.0
H620 H 0.97948 0.48941 0.31729 0.0
H621 H 0.98215 0.48042 0.28024 0.0
H622 H 0.11604 0.52711 0.28583 0.0
H623 H 0.11338 0.53603 0.32293 0.0
C624 C 0.0819 0.52661 0.22623 0.0
C625 C 0.0516 0.49043 0.21451 0.0
C626 C 0.08153 0.53041 0.24753 0.0
C627 C 0.05085 0.49814 0.25756 0.0
C628 C 0.02106 0.46161 0.24586 0.0
C629 C 0.02144 0.45777 0.22458 0.0
C630 C 1.00944 0.49731 0.31062 0.0
C631 C 0.04622 0.51343 0.32304 0.0
C632 C 1.01097 0.49216 0.2894 0.0
C633 C 0.04931 0.50301 0.28012 0.0
C634 C 0.08609 0.51901 0.29253 0.0
C635 C 0.08456 0.52414 0.31376 0.0
loop_
_geom_bond_atom_site_label_1
_geom_bond_atom_site_label_2
_geom_bond_distance
_geom_bond_site_symmetry_2
_ccdc_geom_bond_type
Tb0 O3 2.453 1_455 S
Tb0 O4 2.596 1_455 S
Tb0 O5 2.374 . S
Tb0 O13 2.343 . S
Tb0 O15 2.353 . S
Tb0 O17 2.427 . S
Tb0 O18 2.513 . S
C1 O5 1.251 . S
C1 O7 1.263 . S
Tb2 O4 2.343 1_455 S
Tb2 O7 2.353 . S
Tb2 O10 2.427 1_455 S
Tb2 O11 2.513 1_455 S
Tb2 O12 2.453 . S
Tb2 O13 2.596 . S
Tb2 O14 2.374 . S
O3 Tb0 2.453 1_655 S
O3 C19 1.245 . S
O4 Tb0 2.596 1_655 S
O4 Tb2 2.343 1_655 S
O4 C19 1.259 . S
O5 Tb0 2.374 . S
O5 C1 1.251 . S
C6 O10 1.275 . S
C6 O11 1.246 . S
O7 C1 1.263 . S
O7 Tb2 2.353 . S
C8 O12 1.245 . S
C8 O13 1.259 . S
C9 O14 1.250 . S
C9 O15 1.263 . S
O10 Tb2 2.427 1_655 S
O10 C6 1.275 . S
O11 Tb2 2.513 1_655 S
O11 C6 1.246 . S
O12 Tb2 2.453 . S
O12 C8 1.245 . S
O13 Tb0 2.343 . S
O13 Tb2 2.596 . S
O13 C8 1.259 . S
O14 Tb2 2.374 . S
O14 C9 1.250 . S
O15 Tb0 2.353 . S
O15 C9 1.263 . S
C16 O17 1.275 . S
C16 O18 1.246 . S
O17 Tb0 2.427 . S
O17 C16 1.275 . S
O18 Tb0 2.513 . S
O18 C16 1.246 . S
C19 O3 1.245 . S
C19 O4 1.259 . S
Tb20 O23 2.453 . S
Tb20 O24 2.596 . S
Tb20 O25 2.374 . S
Tb20 O33 2.343 1_545 S
Tb20 O35 2.353 . S
Tb20 O37 2.427 1_545 S
Tb20 O38 2.513 1_545 S
C21 O25 1.251 . S
C21 O27 1.263 . S
Tb22 O24 2.343 . S
Tb22 O27 2.353 . S
Tb22 O30 2.427 . S
Tb22 O31 2.513 . S
Tb22 O32 2.453 1_545 S
Tb22 O33 2.596 1_545 S
Tb22 O34 2.374 . S
O23 Tb20 2.453 . S
O23 C39 1.245 . S
O24 Tb20 2.596 . S
O24 Tb22 2.343 . S
O24 C39 1.259 . S
O25 Tb20 2.374 . S
O25 C21 1.251 . S
C26 O30 1.275 . S
C26 O31 1.246 . S
O27 C21 1.263 . S
O27 Tb22 2.353 . S
C28 O32 1.245 . S
C28 O33 1.259 . S
C29 O34 1.250 . S
C29 O35 1.263 . S
O30 Tb22 2.427 . S
O30 C26 1.275 . S
O31 Tb22 2.513 . S
O31 C26 1.246 . S
O32 Tb22 2.453 1_565 S
O32 C28 1.245 . S
O33 Tb20 2.343 1_565 S
O33 Tb22 2.596 1_565 S
O33 C28 1.259 . S
O34 Tb22 2.374 . S
O34 C29 1.250 . S
O35 Tb20 2.353 . S
O35 C29 1.263 . S
C36 O37 1.275 . S
C36 O38 1.246 . S
O37 Tb20 2.427 1_565 S
O37 C36 1.275 . S
O38 Tb20 2.513 1_565 S
O38 C36 1.246 . S
C39 O23 1.245 . S
C39 O24 1.259 . S
Tb40 O43 2.453 . S
Tb40 O44 2.596 . S
Tb40 O45 2.374 . S
Tb40 O53 2.343 . S
Tb40 O55 2.353 . S
Tb40 O57 2.427 . S
Tb40 O58 2.513 . S
C41 O45 1.251 . S
C41 O47 1.263 . S
Tb42 O44 2.343 . S
Tb42 O47 2.353 . S
Tb42 O50 2.427 . S
Tb42 O51 2.513 . S
Tb42 O52 2.453 . S
Tb42 O53 2.596 . S
Tb42 O54 2.374 . S
O43 Tb40 2.453 . S
O43 C59 1.245 . S
O44 Tb40 2.596 . S
O44 Tb42 2.343 . S
O44 C59 1.259 . S
O45 Tb40 2.374 . S
O45 C41 1.251 . S
C46 O50 1.275 . S
C46 O51 1.246 . S
O47 C41 1.263 . S
O47 Tb42 2.353 . S
C48 O52 1.245 . S
C48 O53 1.259 . S
C49 O54 1.250 . S
C49 O55 1.263 . S
O50 Tb42 2.427 . S
O50 C46 1.275 . S
O51 Tb42 2.513 . S
O51 C46 1.246 . S
O52 Tb42 2.453 . S
O52 C48 1.245 . S
O53 Tb40 2.343 . S
O53 Tb42 2.596 . S
O53 C48 1.259 . S
O54 Tb42 2.374 . S
O54 C49 1.250 . S
O55 Tb40 2.353 . S
O55 C49 1.263 . S
C56 O57 1.275 . S
C56 O58 1.246 . S
O57 Tb40 2.427 . S
O57 C56 1.275 . S
O58 Tb40 2.513 . S
O58 C56 1.246 . S
C59 O43 1.245 . S
C59 O44 1.259 . S
C60 C61 1.384 . S
C60 H73 0.947 . S
C60 C95 1.382 . S
C61 C60 1.384 . S
C61 C62 1.378 . S
C62 C61 1.378 . S
C62 C63 1.378 . S
C62 H74 0.952 . S
C63 C62 1.378 . S
C63 H75 0.950 . S
C63 C94 1.383 . S
H64 C83 0.947 . S
H65 C84 0.946 . S
H66 C86 0.953 . S
H67 C87 0.945 . S
H68 C89 0.952 . S
H69 C90 0.949 . S
H70 C92 0.950 1_565 S
H71 C93 0.948 1_565 S
H72 C95 0.951 . S
H73 C60 0.947 . S
H74 C62 0.952 . S
H75 C63 0.950 . S
N76 C79 1.382 . S
N76 C81 1.358 1_545 S
N77 C79 1.371 . S
N77 C80 1.372 . S
N78 C80 1.361 . S
N78 C81 1.376 1_545 S
C79 N76 1.382 . S
C79 N77 1.371 . S
C79 C82 1.480 . S
C80 N77 1.372 . S
C80 N78 1.361 . S
C80 C88 1.457 . S
C81 N76 1.358 1_565 S
C81 N78 1.376 1_565 S
C81 C94 1.483 . S
C82 C79 1.480 . S
C82 C83 1.383 . S
C82 C87 1.385 . S
C83 H64 0.947 . S
C83 C82 1.383 . S
C83 C84 1.388 . S
C84 H65 0.946 . S
C84 C83 1.388 . S
C84 C85 1.384 . S
C85 C84 1.384 . S
C85 C86 1.377 . S
C86 H66 0.953 . S
C86 C85 1.377 . S
C86 C87 1.369 . S
C87 H67 0.945 . S
C87 C82 1.385 . S
C87 C86 1.369 . S
C88 C80 1.457 . S
C88 C89 1.372 . S
C88 C93 1.364 . S
C89 H68 0.952 . S
C89 C88 1.372 . S
C89 C90 1.389 . S
C90 H69 0.949 . S
C90 C89 1.389 . S
C90 C91 1.387 . S
C91 C90 1.387 . S
C91 C92 1.372 . S
C92 H70 0.950 1_545 S
C92 C91 1.372 . S
C92 C93 1.379 . S
C93 H71 0.948 1_545 S
C93 C88 1.364 . S
C93 C92 1.379 . S
C94 C63 1.383 . S
C94 C81 1.483 . S
C94 C95 1.398 . S
C95 C60 1.382 . S
C95 H72 0.951 . S
C95 C94 1.398 . S
C96 C97 1.384 . S
C96 H109 0.947 . S
C96 C131 1.382 . S
C97 C96 1.384 . S
C97 C98 1.378 . S
C98 C97 1.378 . S
C98 C99 1.378 . S
C98 H110 0.952 . S
C99 C98 1.378 . S
C99 H111 0.950 . S
C99 C130 1.383 . S
H100 C119 0.947 . S
H101 C120 0.946 . S
H102 C122 0.953 . S
H103 C123 0.945 . S
H104 C125 0.952 . S
H105 C126 0.949 . S
H106 C128 0.950 . S
H107 C129 0.948 . S
H108 C131 0.951 . S
H109 C96 0.947 . S
H110 C98 0.952 . S
H111 C99 0.950 . S
N112 C115 1.382 . S
N112 C117 1.363 . S
N113 C115 1.371 . S
N113 C116 1.372 . S
N114 C116 1.361 . S
N114 C117 1.377 . S
C115 N112 1.382 . S
C115 N113 1.371 . S
C115 C118 1.480 . S
C116 N113 1.372 . S
C116 N114 1.361 . S
C116 C124 1.457 . S
C117 N112 1.363 . S
C117 N114 1.377 . S
C117 C130 1.479 . S
C118 C115 1.480 . S
C118 C119 1.383 . S
C118 C123 1.385 . S
C119 H100 0.947 . S
C119 C118 1.383 . S
C119 C120 1.388 . S
C120 H101 0.946 . S
C120 C119 1.388 . S
C120 C121 1.384 . S
C121 C120 1.384 . S
C121 C122 1.377 . S
C122 H102 0.953 . S
C122 C121 1.377 . S
C122 C123 1.369 . S
C123 H103 0.945 . S
C123 C118 1.385 . S
C123 C122 1.369 . S
C124 C116 1.457 . S
C124 C125 1.372 . S
C124 C129 1.364 . S
C125 H104 0.952 . S
C125 C124 1.372 . S
C125 C126 1.389 . S
C126 H105 0.949 . S
C126 C125 1.389 . S
C126 C127 1.387 . S
C127 C126 1.387 . S
C127 C128 1.372 . S
C128 H106 0.950 . S
C128 C127 1.372 . S
C128 C129 1.379 . S
C129 H107 0.948 . S
C129 C124 1.364 . S
C129 C128 1.379 . S
C130 C99 1.383 . S
C130 C117 1.479 . S
C130 C131 1.398 . S
C131 C96 1.382 . S
C131 H108 0.951 . S
C131 C130 1.398 . S
C132 C133 1.384 . S
C132 H145 0.947 . S
C132 C167 1.382 . S
C133 C132 1.384 . S
C133 C134 1.378 . S
C134 C133 1.378 . S
C134 C135 1.378 1_655 S
C134 H146 0.952 . S
C135 C134 1.378 1_455 S
C135 H147 0.950 . S
C135 C166 1.383 . S
H136 C155 0.947 . S
H137 C156 0.946 . S
H138 C158 0.953 . S
H139 C159 0.945 . S
H140 C161 0.952 . S
H141 C162 0.949 . S
H142 C164 0.950 . S
H143 C165 0.948 . S
H144 C167 0.951 . S
H145 C132 0.947 . S
H146 C134 0.952 . S
H147 C135 0.950 . S
N148 C151 1.382 . S
N148 C153 1.363 . S
N149 C151 1.371 . S
N149 C152 1.372 . S
N150 C152 1.361 . S
N150 C153 1.377 . S
C151 N148 1.382 . S
C151 N149 1.371 . S
C151 C154 1.480 . S
C152 N149 1.372 . S
C152 N150 1.361 . S
C152 C160 1.457 . S
C153 N148 1.363 . S
C153 N150 1.377 . S
C153 C166 1.479 . S
C154 C151 1.480 . S
C154 C155 1.383 . S
C154 C159 1.385 . S
C155 H136 0.947 . S
C155 C154 1.383 . S
C155 C156 1.388 . S
C156 H137 0.946 . S
C156 C155 1.388 . S
C156 C157 1.384 . S
C157 C156 1.384 . S
C157 C158 1.377 . S
C158 H138 0.953 . S
C158 C157 1.377 . S
C158 C159 1.369 . S
C159 H139 0.945 . S
C159 C154 1.385 . S
C159 C158 1.369 . S
C160 C152 1.457 . S
C160 C161 1.372 . S
C160 C165 1.364 . S
C161 H140 0.952 . S
C161 C160 1.372 . S
C161 C162 1.389 . S
C162 H141 0.949 . S
C162 C161 1.389 . S
C162 C163 1.387 . S
C163 C162 1.387 . S
C163 C164 1.372 . S
C164 H142 0.950 . S
C164 C163 1.372 . S
C164 C165 1.379 . S
C165 H143 0.948 . S
C165 C160 1.364 . S
C165 C164 1.379 . S
C166 C135 1.383 . S
C166 C153 1.479 . S
C166 C167 1.398 1_455 S
C167 C132 1.382 . S
C167 H144 0.951 . S
C167 C166 1.398 1_655 S
C168 C169 1.384 . S
C168 H181 0.947 . S
C168 C203 1.382 . S
C169 C168 1.384 . S
C169 C170 1.378 . S
C170 C169 1.378 . S
C170 C171 1.378 . S
C170 H182 0.952 . S
C171 C170 1.378 . S
C171 H183 0.950 . S
C171 C202 1.383 . S
H172 C191 0.947 . S
H173 C192 0.946 . S
H174 C194 0.953 . S
H175 C195 0.945 . S
H176 C197 0.952 . S
H177 C198 0.949 . S
H178 C200 0.950 . S
H179 C201 0.948 . S
H180 C203 0.951 . S
H181 C168 0.947 . S
H182 C170 0.952 . S
H183 C171 0.950 . S
N184 C187 1.382 1_455 S
N184 C189 1.363 . S
N185 C187 1.371 . S
N185 C188 1.372 1_655 S
N186 C188 1.361 . S
N186 C189 1.377 . S
C187 N184 1.382 1_655 S
C187 N185 1.371 . S
C187 C190 1.480 . S
C188 N185 1.372 1_455 S
C188 N186 1.361 . S
C188 C196 1.457 . S
C189 N184 1.363 . S
C189 N186 1.377 . S
C189 C202 1.479 . S
C190 C187 1.480 . S
C190 C191 1.383 . S
C190 C195 1.385 . S
C191 H172 0.947 . S
C191 C190 1.383 . S
C191 C192 1.388 . S
C192 H173 0.946 . S
C192 C191 1.388 . S
C192 C193 1.384 . S
C193 C192 1.384 . S
C193 C194 1.377 . S
C194 H174 0.953 . S
C194 C193 1.377 . S
C194 C195 1.369 . S
C195 H175 0.945 . S
C195 C190 1.385 . S
C195 C194 1.369 . S
C196 C188 1.457 . S
C196 C197 1.372 1_455 S
C196 C201 1.364 . S
C197 H176 0.952 . S
C197 C196 1.372 1_655 S
C197 C198 1.389 . S
C198 H177 0.949 . S
C198 C197 1.389 . S
C198 C199 1.371 1_655 S
C199 C198 1.371 1_455 S
C199 C200 1.388 . S
C200 H178 0.950 . S
C200 C199 1.388 . S
C200 C201 1.379 . S
C201 H179 0.948 . S
C201 C196 1.364 . S
C201 C200 1.379 . S
C202 C171 1.383 . S
C202 C189 1.479 . S
C202 C203 1.398 . S
C203 C168 1.382 . S
C203 H180 0.951 . S
C203 C202 1.398 . S
C204 C205 1.384 . S
C204 H217 0.947 . S
C204 C239 1.382 . S
C205 C204 1.384 . S
C205 C206 1.378 . S
C206 C205 1.378 . S
C206 C207 1.378 . S
C206 H218 0.952 . S
C207 C206 1.378 . S
C207 H219 0.950 . S
C207 C238 1.383 . S
H208 C227 0.947 . S
H209 C228 0.946 . S
H210 C230 0.953 . S
H211 C231 0.945 . S
H212 C233 0.952 . S
H213 C234 0.949 . S
H214 C236 0.950 . S
H215 C237 0.948 . S
H216 C239 0.951 . S
H217 C204 0.947 . S
H218 C206 0.952 . S
H219 C207 0.950 . S
N220 C223 1.382 1_545 S
N220 C225 1.363 . S
N221 C223 1.371 . S
N221 C224 1.372 1_565 S
N222 C224 1.361 . S
N222 C225 1.377 . S
C223 N220 1.382 1_565 S
C223 N221 1.371 . S
C223 C226 1.480 . S
C224 N221 1.372 1_545 S
C224 N222 1.361 . S
C224 C232 1.457 . S
C225 N220 1.363 . S
C225 N222 1.377 . S
C225 C238 1.479 . S
C226 C223 1.480 . S
C226 C227 1.383 . S
C226 C231 1.385 . S
C227 H208 0.947 . S
C227 C226 1.383 . S
C227 C228 1.388 . S
C228 H209 0.946 . S
C228 C227 1.388 . S
C228 C229 1.384 . S
C229 C228 1.384 . S
C229 C230 1.377 . S
C230 H210 0.953 . S
C230 C229 1.377 . S
C230 C231 1.369 . S
C231 H211 0.945 . S
C231 C226 1.385 . S
C231 C230 1.369 . S
C232 C224 1.457 . S
C232 C233 1.372 1_545 S
C232 C237 1.364 . S
C233 H212 0.952 . S
C233 C232 1.372 1_565 S
C233 C234 1.389 . S
C234 H213 0.949 . S
C234 C233 1.389 . S
C234 C235 1.387 1_565 S
C235 C234 1.387 1_545 S
C235 C236 1.372 . S
C236 H214 0.950 . S
C236 C235 1.372 . S
C236 C237 1.379 . S
C237 H215 0.948 . S
C237 C232 1.364 . S
C237 C236 1.379 . S
C238 C207 1.383 . S
C238 C225 1.479 . S
C238 C239 1.398 . S
C239 C204 1.382 . S
C239 H216 0.951 . S
C239 C238 1.398 . S
C240 C241 1.384 . S
C240 H253 0.947 . S
C240 C275 1.382 . S
C241 C240 1.384 . S
C241 C242 1.378 . S
C242 C241 1.378 . S
C242 C243 1.378 . S
C242 H254 0.952 . S
C243 C242 1.378 . S
C243 H255 0.950 . S
C243 C274 1.383 . S
H244 C263 0.947 . S
H245 C264 0.946 . S
H246 C266 0.953 . S
H247 C267 0.945 . S
H248 C269 0.952 . S
H249 C270 0.949 . S
H250 C272 0.950 . S
H251 C273 0.948 . S
H252 C275 0.951 . S
H253 C240 0.947 . S
H254 C242 0.952 . S
H255 C243 0.950 . S
N256 C259 1.382 . S
N256 C261 1.363 . S
N257 C259 1.371 . S
N257 C260 1.372 . S
N258 C260 1.361 . S
N258 C261 1.377 . S
C259 N256 1.382 . S
C259 N257 1.371 . S
C259 C262 1.480 . S
C260 N257 1.372 . S
C260 N258 1.361 . S
C260 C268 1.457 . S
C261 N256 1.363 . S
C261 N258 1.377 . S
C261 C274 1.479 . S
C262 C259 1.480 . S
C262 C263 1.383 . S
C262 C267 1.385 . S
C263 H244 0.947 . S
C263 C262 1.383 . S
C263 C264 1.388 . S
C264 H245 0.946 . S
C264 C263 1.388 . S
C264 C265 1.384 . S
C265 C264 1.384 . S
C265 C266 1.377 . S
C266 H246 0.953 . S
C266 C265 1.377 . S
C266 C267 1.369 . S
C267 H247 0.945 . S
C267 C262 1.385 . S
C267 C266 1.369 . S
C268 C260 1.457 . S
C268 C269 1.372 . S
C268 C273 1.364 . S
C269 H248 0.952 . S
C269 C268 1.372 . S
C269 C270 1.389 . S
C270 H249 0.949 . S
C270 C269 1.389 . S
C270 C271 1.387 . S
C271 C270 1.387 . S
C271 C272 1.372 . S
C272 H250 0.950 . S
C272 C271 1.372 . S
C272 C273 1.379 . S
C273 H251 0.948 . S
C273 C268 1.364 . S
C273 C272 1.379 . S
C274 C243 1.383 . S
C274 C261 1.479 . S
C274 C275 1.398 . S
C275 C240 1.382 . S
C275 H252 0.951 . S
C275 C274 1.398 . S
H276 C284 0.950 . S
H277 C289 0.950 . S
H278 C286 0.950 . S
H279 C288 0.950 . S
H280 C290 0.950 . S
H281 C292 0.950 . S
H282 C294 0.950 . S
H283 C295 0.950 . S
C284 H276 0.950 . S
C284 C285 1.386 . S
C284 C286 1.391 . S
C285 C284 1.386 . S
C285 C289 1.393 . S
C286 H278 0.950 . S
C286 C284 1.391 . S
C286 C287 1.400 . S
C287 C286 1.400 . S
C287 C288 1.398 . S
C287 C293 1.491 . S
C288 H279 0.950 . S
C288 C287 1.398 . S
C288 C289 1.391 . S
C289 H277 0.950 . S
C289 C285 1.393 . S
C289 C288 1.391 . S
C290 H280 0.950 . S
C290 C291 1.386 . S
C290 C292 1.391 . S
C291 C290 1.386 . S
C291 C295 1.393 . S
C292 H281 0.950 . S
C292 C290 1.391 . S
C292 C293 1.400 . S
C293 C287 1.491 . S
C293 C292 1.400 . S
C293 C294 1.398 . S
C294 H282 0.950 . S
C294 C293 1.398 . S
C294 C295 1.391 . S
C295 H283 0.950 . S
C295 C291 1.393 . S
C295 C294 1.391 . S
H296 C304 0.950 . S
H297 C309 0.950 . S
H298 C306 0.950 . S
H299 C308 0.950 . S
H300 C310 0.950 . S
H301 C312 0.950 . S
H302 C314 0.950 . S
H303 C315 0.950 . S
C304 H296 0.950 . S
C304 C305 1.386 . S
C304 C306 1.391 . S
C305 C304 1.386 . S
C305 C309 1.393 . S
C306 H298 0.950 . S
C306 C304 1.391 . S
C306 C307 1.400 . S
C307 C306 1.400 . S
C307 C308 1.398 . S
C307 C313 1.491 . S
C308 H299 0.950 . S
C308 C307 1.398 . S
C308 C309 1.391 . S
C309 H297 0.950 . S
C309 C305 1.393 . S
C309 C308 1.391 . S
C310 H300 0.950 . S
C310 C311 1.386 . S
C310 C312 1.391 . S
C311 C310 1.386 . S
C311 C315 1.393 . S
C312 H301 0.950 . S
C312 C310 1.391 . S
C312 C313 1.400 . S
C313 C307 1.491 . S
C313 C312 1.400 . S
C313 C314 1.398 . S
C314 H302 0.950 . S
C314 C313 1.398 . S
C314 C315 1.391 . S
C315 H303 0.950 . S
C315 C311 1.393 . S
C315 C314 1.391 . S
H316 C324 0.950 . S
H317 C329 0.950 . S
H318 C326 0.950 . S
H319 C328 0.950 . S
H320 C330 0.950 . S
H321 C332 0.950 . S
H322 C334 0.950 . S
H323 C335 0.950 . S
C324 H316 0.950 . S
C324 C325 1.386 . S
C324 C326 1.391 . S
C325 C324 1.386 . S
C325 C329 1.393 . S
C326 H318 0.950 . S
C326 C324 1.391 . S
C326 C327 1.400 . S
C327 C326 1.400 . S
C327 C328 1.398 . S
C327 C333 1.491 . S
C328 H319 0.950 . S
C328 C327 1.398 . S
C328 C329 1.391 . S
C329 H317 0.950 . S
C329 C325 1.393 . S
C329 C328 1.391 . S
C330 H320 0.950 . S
C330 C331 1.386 . S
C330 C332 1.391 . S
C331 C330 1.386 . S
C331 C335 1.393 . S
C332 H321 0.950 . S
C332 C330 1.391 . S
C332 C333 1.400 . S
C333 C327 1.491 . S
C333 C332 1.400 . S
C333 C334 1.398 . S
C334 H322 0.950 . S
C334 C333 1.398 . S
C334 C335 1.391 . S
C335 H323 0.950 . S
C335 C331 1.393 . S
C335 C334 1.391 . S
H336 C344 0.950 . S
H337 C349 0.950 . S
H338 C346 0.950 . S
H339 C348 0.950 . S
H340 C350 0.950 . S
H341 C352 0.950 . S
H342 C354 0.950 . S
H343 C355 0.950 . S
C344 H336 0.950 . S
C344 C345 1.386 . S
C344 C346 1.391 . S
C345 C344 1.386 . S
C345 C349 1.393 . S
C346 H338 0.950 . S
C346 C344 1.391 . S
C346 C347 1.400 . S
C347 C346 1.400 . S
C347 C348 1.398 . S
C347 C353 1.491 . S
C348 H339 0.950 . S
C348 C347 1.398 . S
C348 C349 1.391 . S
C349 H337 0.950 . S
C349 C345 1.393 . S
C349 C348 1.391 . S
C350 H340 0.950 . S
C350 C351 1.386 . S
C350 C352 1.391 . S
C351 C350 1.386 . S
C351 C355 1.393 . S
C352 H341 0.950 . S
C352 C350 1.391 . S
C352 C353 1.400 . S
C353 C347 1.491 . S
C353 C352 1.400 . S
C353 C354 1.398 . S
C354 H342 0.950 . S
C354 C353 1.398 . S
C354 C355 1.391 . S
C355 H343 0.950 . S
C355 C351 1.393 . S
C355 C354 1.391 . S
H356 C364 0.950 . S
H357 C369 0.950 . S
H358 C366 0.950 . S
H359 C368 0.950 . S
H360 C370 0.950 . S
H361 C372 0.950 . S
H362 C374 0.950 . S
H363 C375 0.950 . S
C364 H356 0.950 . S
C364 C365 1.386 . S
C364 C366 1.391 . S
C365 C364 1.386 . S
C365 C369 1.393 . S
C366 H358 0.950 . S
C366 C364 1.391 . S
C366 C367 1.400 . S
C367 C366 1.400 . S
C367 C368 1.398 . S
C367 C373 1.491 . S
C368 H359 0.950 . S
C368 C367 1.398 . S
C368 C369 1.391 . S
C369 H357 0.950 . S
C369 C365 1.393 . S
C369 C368 1.391 . S
C370 H360 0.950 . S
C370 C371 1.386 . S
C370 C372 1.391 . S
C371 C370 1.386 . S
C371 C375 1.393 . S
C372 H361 0.950 . S
C372 C370 1.391 . S
C372 C373 1.400 . S
C373 C367 1.491 . S
C373 C372 1.400 . S
C373 C374 1.398 . S
C374 H362 0.950 . S
C374 C373 1.398 . S
C374 C375 1.391 . S
C375 H363 0.950 . S
C375 C371 1.393 . S
C375 C374 1.391 . S
H376 C384 0.950 . S
H377 C389 0.950 . S
H378 C386 0.950 . S
H379 C388 0.950 . S
H380 C390 0.950 . S
H381 C392 0.950 . S
H382 C394 0.950 . S
H383 C395 0.950 . S
C384 H376 0.950 . S
C384 C385 1.386 . S
C384 C386 1.391 . S
C385 C384 1.386 . S
C385 C389 1.393 . S
C386 H378 0.950 . S
C386 C384 1.391 . S
C386 C387 1.400 . S
C387 C386 1.400 . S
C387 C388 1.398 . S
C387 C393 1.491 . S
C388 H379 0.950 . S
C388 C387 1.398 . S
C388 C389 1.391 . S
C389 H377 0.950 . S
C389 C385 1.393 . S
C389 C388 1.391 . S
C390 H380 0.950 . S
C390 C391 1.386 . S
C390 C392 1.391 . S
C391 C390 1.386 . S
C391 C395 1.393 . S
C392 H381 0.950 . S
C392 C390 1.391 . S
C392 C393 1.400 . S
C393 C387 1.491 . S
C393 C392 1.400 . S
C393 C394 1.398 . S
C394 H382 0.950 . S
C394 C393 1.398 . S
C394 C395 1.391 . S
C395 H383 0.950 . S
C395 C391 1.393 . S
C395 C394 1.391 . S
H396 C404 0.950 . S
H397 C409 0.950 . S
H398 C406 0.950 . S
H399 C408 0.950 . S
H400 C410 0.950 . S
H401 C412 0.950 . S
H402 C414 0.950 . S
H403 C415 0.950 . S
C404 H396 0.950 . S
C404 C405 1.386 . S
C404 C406 1.391 . S
C405 C404 1.386 . S
C405 C409 1.393 . S
C406 H398 0.950 . S
C406 C404 1.391 . S
C406 C407 1.400 . S
C407 C406 1.400 . S
C407 C408 1.398 . S
C407 C413 1.491 . S
C408 H399 0.950 . S
C408 C407 1.398 . S
C408 C409 1.391 . S
C409 H397 0.950 . S
C409 C405 1.393 . S
C409 C408 1.391 . S
C410 H400 0.950 . S
C410 C411 1.386 . S
C410 C412 1.391 . S
C411 C410 1.386 . S
C411 C415 1.393 . S
C412 H401 0.950 . S
C412 C410 1.391 . S
C412 C413 1.400 . S
C413 C407 1.491 . S
C413 C412 1.400 . S
C413 C414 1.398 . S
C414 H402 0.950 . S
C414 C413 1.398 . S
C414 C415 1.391 . S
C415 H403 0.950 . S
C415 C411 1.393 . S
C415 C414 1.391 . S
H416 C424 0.950 . S
H417 C429 0.950 . S
H418 C426 0.950 . S
H419 C428 0.950 . S
H420 C430 0.950 . S
H421 C432 0.950 . S
H422 C434 0.950 . S
H423 C435 0.950 . S
C424 H416 0.950 . S
C424 C425 1.386 . S
C424 C426 1.391 . S
C425 C424 1.386 . S
C425 C429 1.393 . S
C426 H418 0.950 . S
C426 C424 1.391 . S
C426 C427 1.400 . S
C427 C426 1.400 . S
C427 C428 1.398 . S
C427 C433 1.491 . S
C428 H419 0.950 . S
C428 C427 1.398 . S
C428 C429 1.391 . S
C429 H417 0.950 . S
C429 C425 1.393 . S
C429 C428 1.391 . S
C430 H420 0.950 . S
C430 C431 1.386 . S
C430 C432 1.391 . S
C431 C430 1.386 . S
C431 C435 1.393 . S
C432 H421 0.950 . S
C432 C430 1.391 . S
C432 C433 1.400 . S
C433 C427 1.491 . S
C433 C432 1.400 . S
C433 C434 1.398 . S
C434 H422 0.950 . S
C434 C433 1.398 . S
C434 C435 1.391 . S
C435 H423 0.950 . S
C435 C431 1.393 . S
C435 C434 1.391 . S
H436 C444 0.950 . S
H437 C449 0.950 . S
H438 C446 0.950 . S
H439 C448 0.950 . S
H440 C450 0.950 . S
H441 C452 0.950 . S
H442 C454 0.950 . S
H443 C455 0.950 . S
C444 H436 0.950 . S
C444 C445 1.386 . S
C444 C446 1.391 . S
C445 C444 1.386 . S
C445 C449 1.393 . S
C446 H438 0.950 . S
C446 C444 1.391 . S
C446 C447 1.400 . S
C447 C446 1.400 . S
C447 C448 1.398 . S
C447 C453 1.491 . S
C448 H439 0.950 . S
C448 C447 1.398 . S
C448 C449 1.391 . S
C449 H437 0.950 . S
C449 C445 1.393 . S
C449 C448 1.391 . S
C450 H440 0.950 . S
C450 C451 1.386 . S
C450 C452 1.391 . S
C451 C450 1.386 . S
C451 C455 1.393 . S
C452 H441 0.950 . S
C452 C450 1.391 . S
C452 C453 1.400 . S
C453 C447 1.491 . S
C453 C452 1.400 . S
C453 C454 1.398 . S
C454 H442 0.950 . S
C454 C453 1.398 . S
C454 C455 1.391 . S
C455 H443 0.950 . S
C455 C451 1.393 . S
C455 C454 1.391 . S
H456 C464 0.950 . S
H457 C469 0.950 . S
H458 C466 0.950 . S
H459 C468 0.950 . S
H460 C470 0.950 . S
H461 C472 0.950 . S
H462 C474 0.950 . S
H463 C475 0.950 . S
C464 H456 0.950 . S
C464 C465 1.386 . S
C464 C466 1.391 . S
C465 C464 1.386 . S
C465 C469 1.393 . S
C466 H458 0.950 . S
C466 C464 1.391 . S
C466 C467 1.400 . S
C467 C466 1.400 . S
C467 C468 1.398 . S
C467 C473 1.491 . S
C468 H459 0.950 . S
C468 C467 1.398 . S
C468 C469 1.391 . S
C469 H457 0.950 . S
C469 C465 1.393 . S
C469 C468 1.391 . S
C470 H460 0.950 . S
C470 C471 1.386 . S
C470 C472 1.391 . S
C471 C470 1.386 . S
C471 C475 1.393 . S
C472 H461 0.950 . S
C472 C470 1.391 . S
C472 C473 1.400 . S
C473 C467 1.491 . S
C473 C472 1.400 . S
C473 C474 1.398 . S
C474 H462 0.950 . S
C474 C473 1.398 . S
C474 C475 1.391 . S
C475 H463 0.950 . S
C475 C471 1.393 . S
C475 C474 1.391 . S
H476 C484 0.950 . S
H477 C489 0.950 . S
H478 C486 0.950 . S
H479 C488 0.950 . S
H480 C490 0.950 . S
H481 C492 0.950 . S
H482 C494 0.950 . S
H483 C495 0.950 . S
C484 H476 0.950 . S
C484 C485 1.386 . S
C484 C486 1.391 . S
C485 C484 1.386 . S
C485 C489 1.393 . S
C486 H478 0.950 . S
C486 C484 1.391 . S
C486 C487 1.400 . S
C487 C486 1.400 . S
C487 C488 1.398 . S
C487 C493 1.491 . S
C488 H479 0.950 . S
C488 C487 1.398 . S
C488 C489 1.391 . S
C489 H477 0.950 . S
C489 C485 1.393 . S
C489 C488 1.391 . S
C490 H480 0.950 . S
C490 C491 1.386 . S
C490 C492 1.391 . S
C491 C490 1.386 . S
C491 C495 1.393 . S
C492 H481 0.950 . S
C492 C490 1.391 . S
C492 C493 1.400 . S
C493 C487 1.491 . S
C493 C492 1.400 . S
C493 C494 1.398 . S
C494 H482 0.950 . S
C494 C493 1.398 . S
C494 C495 1.391 . S
C495 H483 0.950 . S
C495 C491 1.393 . S
C495 C494 1.391 . S
H496 C504 0.950 . S
H497 C509 0.950 . S
H498 C506 0.950 . S
H499 C508 0.950 . S
H500 C510 0.950 . S
H501 C512 0.950 . S
H502 C514 0.950 . S
H503 C515 0.950 . S
C504 H496 0.950 . S
C504 C505 1.386 . S
C504 C506 1.391 . S
C505 C504 1.386 . S
C505 C509 1.393 . S
C506 H498 0.950 . S
C506 C504 1.391 . S
C506 C507 1.400 . S
C507 C506 1.400 . S
C507 C508 1.398 . S
C507 C513 1.491 . S
C508 H499 0.950 . S
C508 C507 1.398 . S
C508 C509 1.391 . S
C509 H497 0.950 . S
C509 C505 1.393 . S
C509 C508 1.391 . S
C510 H500 0.950 . S
C510 C511 1.386 . S
C510 C512 1.391 . S
C511 C510 1.386 . S
C511 C515 1.393 . S
C512 H501 0.950 . S
C512 C510 1.391 . S
C512 C513 1.400 . S
C513 C507 1.491 . S
C513 C512 1.400 . S
C513 C514 1.398 . S
C514 H502 0.950 . S
C514 C513 1.398 . S
C514 C515 1.391 . S
C515 H503 0.950 . S
C515 C511 1.393 . S
C515 C514 1.391 . S
H516 C524 0.950 . S
H517 C529 0.953 . S
H518 C526 0.950 . S
H519 C528 0.950 . S
H520 C530 0.926 1_556 S
H521 C532 0.950 . S
H522 C534 0.950 . S
H523 C535 0.950 . S
C524 H516 0.950 . S
C524 C525 1.386 . S
C524 C526 1.391 . S
C525 C524 1.386 . S
C525 C529 1.393 . S
C526 H518 0.950 . S
C526 C524 1.391 . S
C526 C527 1.400 . S
C527 C526 1.400 . S
C527 C528 1.398 . S
C527 C533 1.491 . S
C528 H519 0.950 . S
C528 C527 1.398 . S
C528 C529 1.391 . S
C529 H517 0.953 . S
C529 C525 1.393 . S
C529 C528 1.391 . S
C530 H520 0.926 1_554 S
C530 C531 1.371 1_554 S
C530 C532 1.431 . S
C531 C530 1.371 1_556 S
C531 C535 1.393 1_556 S
C532 H521 0.950 . S
C532 C530 1.431 . S
C532 C533 1.400 . S
C533 C527 1.491 . S
C533 C532 1.400 . S
C533 C534 1.398 . S
C534 H522 0.950 . S
C534 C533 1.398 . S
C534 C535 1.391 . S
C535 H523 0.950 . S
C535 C531 1.393 1_554 S
C535 C534 1.391 . S
H536 C544 0.950 1_565 S
H537 C549 0.950 . S
H538 C546 0.950 1_565 S
H539 C548 0.950 . S
H540 C550 0.950 . S
H541 C552 0.950 . S
H542 C554 0.950 . S
H543 C555 0.950 . S
C544 H536 0.950 1_545 S
C544 C545 1.386 . S
C544 C546 1.391 . S
C545 C544 1.386 . S
C545 C549 1.393 . S
C546 H538 0.950 1_545 S
C546 C544 1.391 . S
C546 C547 1.400 . S
C547 C546 1.400 . S
C547 C548 1.398 . S
C547 C553 1.491 . S
C548 H539 0.950 . S
C548 C547 1.398 . S
C548 C549 1.391 . S
C549 H537 0.950 . S
C549 C545 1.393 . S
C549 C548 1.391 . S
C550 H540 0.950 . S
C550 C551 1.386 . S
C550 C552 1.391 . S
C551 C550 1.386 . S
C551 C555 1.393 . S
C552 H541 0.950 . S
C552 C550 1.391 . S
C552 C553 1.400 . S
C553 C547 1.491 . S
C553 C552 1.400 . S
C553 C554 1.398 . S
C554 H542 0.950 . S
C554 C553 1.398 . S
C554 C555 1.391 . S
C555 H543 0.950 . S
C555 C551 1.393 . S
C555 C554 1.391 . S
H556 C564 0.950 . S
H557 C569 0.950 . S
H558 C566 0.950 . S
H559 C568 0.950 . S
H560 C570 0.950 . S
H561 C572 0.950 . S
H562 C574 0.950 . S
H563 C575 0.950 . S
C564 H556 0.950 . S
C564 C565 1.386 . S
C564 C566 1.391 . S
C565 C564 1.386 . S
C565 C569 1.393 . S
C566 H558 0.950 . S
C566 C564 1.391 . S
C566 C567 1.400 . S
C567 C566 1.400 . S
C567 C568 1.398 . S
C567 C573 1.491 . S
C568 H559 0.950 . S
C568 C567 1.398 . S
C568 C569 1.391 . S
C569 H557 0.950 . S
C569 C565 1.393 . S
C569 C568 1.391 . S
C570 H560 0.950 . S
C570 C571 1.386 . S
C570 C572 1.391 . S
C571 C570 1.386 . S
C571 C575 1.393 . S
C572 H561 0.950 . S
C572 C570 1.391 . S
C572 C573 1.400 . S
C573 C567 1.491 . S
C573 C572 1.400 . S
C573 C574 1.398 . S
C574 H562 0.950 . S
C574 C573 1.398 . S
C574 C575 1.391 . S
C575 H563 0.950 . S
C575 C571 1.393 . S
C575 C574 1.391 . S
H576 C584 0.950 . S
H577 C589 0.950 . S
H578 C586 0.950 . S
H579 C588 0.950 . S
H580 C590 0.950 . S
H581 C592 0.950 . S
H582 C594 0.950 . S
H583 C595 0.950 . S
C584 H576 0.950 . S
C584 C585 1.386 . S
C584 C586 1.391 . S
C585 C584 1.386 . S
C585 C589 1.393 . S
C586 H578 0.950 . S
C586 C584 1.391 . S
C586 C587 1.400 . S
C587 C586 1.400 . S
C587 C588 1.398 . S
C587 C593 1.491 . S
C588 H579 0.950 . S
C588 C587 1.398 . S
C588 C589 1.391 . S
C589 H577 0.950 . S
C589 C585 1.393 . S
C589 C588 1.391 . S
C590 H580 0.950 . S
C590 C591 1.386 . S
C590 C592 1.391 . S
C591 C590 1.386 . S
C591 C595 1.393 . S
C592 H581 0.950 . S
C592 C590 1.391 . S
C592 C593 1.400 . S
C593 C587 1.491 . S
C593 C592 1.400 . S
C593 C594 1.398 . S
C594 H582 0.950 . S
C594 C593 1.398 . S
C594 C595 1.391 . S
C595 H583 0.950 . S
C595 C591 1.393 . S
C595 C594 1.391 . S
H596 C604 0.950 . S
H597 C609 0.950 . S
H598 C606 0.950 . S
H599 C608 0.950 . S
H600 C610 0.950 1_554 S
H601 C612 0.950 . S
H602 C614 0.950 . S
H603 C615 0.950 . S
C604 H596 0.950 . S
C604 C605 1.386 . S
C604 C606 1.391 . S
C605 C604 1.386 . S
C605 C609 1.393 . S
C606 H598 0.950 . S
C606 C604 1.391 . S
C606 C607 1.400 . S
C607 C606 1.400 . S
C607 C608 1.398 . S
C607 C613 1.491 . S
C608 H599 0.950 . S
C608 C607 1.398 . S
C608 C609 1.391 . S
C609 H597 0.950 . S
C609 C605 1.393 . S
C609 C608 1.391 . S
C610 H600 0.950 1_556 S
C610 C611 1.386 1_556 S
C610 C612 1.391 . S
C611 C610 1.386 1_554 S
C611 C615 1.393 1_554 S
C612 H601 0.950 . S
C612 C610 1.391 . S
C612 C613 1.400 . S
C613 C607 1.491 . S
C613 C612 1.400 . S
C613 C614 1.398 . S
C614 H602 0.950 . S
C614 C613 1.398 . S
C614 C615 1.391 . S
C615 H603 0.950 . S
C615 C611 1.393 1_556 S
C615 C614 1.391 . S
H616 C624 0.950 . S
H617 C629 0.950 . S
H618 C626 0.950 . S
H619 C628 0.950 . S
H620 C630 0.950 . S
H621 C632 0.950 . S
H622 C634 0.950 . S
H623 C635 0.950 . S
C624 H616 0.950 . S
C624 C625 1.386 . S
C624 C626 1.391 . S
C625 C624 1.386 . S
C625 C629 1.393 1_455 S
C626 H618 0.950 . S
C626 C624 1.391 . S
C626 C627 1.400 . S
C627 C626 1.400 . S
C627 C628 1.398 1_455 S
C627 C633 1.491 . S
C628 H619 0.950 . S
C628 C627 1.398 1_655 S
C628 C629 1.391 . S
C629 H617 0.950 . S
C629 C625 1.393 1_655 S
C629 C628 1.391 . S
C630 H620 0.950 . S
C630 C631 1.379 1_655 S
C630 C632 1.391 . S
C631 C630 1.379 1_455 S
C631 C635 1.401 . S
C632 H621 0.950 . S
C632 C630 1.391 . S
C632 C633 1.400 1_655 S
C633 C627 1.491 . S
C633 C632 1.400 1_455 S
C633 C634 1.398 . S
C634 H622 0.950 . S
C634 C633 1.398 . S
C634 C635 1.391 . S
C635 H623 0.950 . S
C635 C631 1.401 . S
C635 C634 1.391 . S
C285 C8 2.017 . S
C291 C265 2.043 . S
C305 C26 1.338 . S
C311 C193 1.309 . S
C325 C48 1.510 . S
C331 C229 1.524 . S
C345 C19 1.824 . S
C351 C241 1.872 . S
C371 C169 1.535 . S
C365 C36 1.514 . S
C391 C205 1.765 . S
C385 C59 1.733 . S
C405 C28 1.511 . S
C411 C121 1.547 . S
C425 C46 1.250 . S
C431 C133 1.252 . S
C445 C16 1.580 . S
C451 C61 1.586 . S
C471 C97 1.736 . S
C465 C39 1.680 . S
C491 C157 1.006 . S
C485 C56 1.038 . S
C505 C6 1.389 . S
C511 C85 1.336 . S
C531 C163 1.431 . S
C525 C9 1.414 . S
C545 C21 1.499 . S
C551 C91 1.501 . S
C565 C49 1.479 . S
C571 C127 1.478 . S
C591 C235 1.457 . S
C585 C29 1.470 . S
C611 C271 1.589 . S
C605 C41 1.573 . S
C625 C1 1.502 . S
C631 C199 1.500 . S
