# Generated by pormake.
# Topology ptr, (4,4)-cn, num edge types: 1
# Building blocks:
#     Node 0, Type 0, BuildingBlock: QUQFOY_clean_sbu_1, # of connection points: 4
#     Node 1, Type 0, BuildingBlock: QUQFOY_clean_sbu_1, # of connection points: 4
#     Node 2, Type 0, BuildingBlock: QUQFOY_clean_sbu_1, # of connection points: 4
#     Node 3, Type 0, BuildingBlock: QUQFOY_clean_sbu_1, # of connection points: 4
#     Node 4, Type 0, BuildingBlock: QUQFOY_clean_sbu_1, # of connection points: 4
#     Node 5, Type 0, BuildingBlock: QUQFOY_clean_sbu_1, # of connection points: 4
#     Node 6, Type 0, BuildingBlock: QUQFOY_clean_sbu_1, # of connection points: 4
#     Node 7, Type 0, BuildingBlock: QUQFOY_clean_sbu_1, # of connection points: 4
#     Node 8, Type 0, BuildingBlock: QUQFOY_clean_sbu_1, # of connection points: 4
#     Node 9, Type 0, BuildingBlock: QUQFOY_clean_sbu_1, # of connection points: 4
#     Node 10, Type 0, BuildingBlock: QUQFOY_clean_sbu_1, # of connection points: 4
#     Node 11, Type 0, BuildingBlock: QUQFOY_clean_sbu_1, # of connection points: 4
#     Node 12, Type 0, BuildingBlock: QUQFOY_clean_sbu_1, # of connection points: 4
#     Node 13, Type 0, BuildingBlock: QUQFOY_clean_sbu_1, # of connection points: 4
#     Node 14, Type 0, BuildingBlock: QUQFOY_clean_sbu_1, # of connection points: 4
#     Node 15, Type 0, BuildingBlock: QUQFOY_clean_sbu_1, # of connection points: 4
#     Node 16, Type 0, BuildingBlock: QUQFOY_clean_sbu_1, # of connection points: 4
#     Node 17, Type 0, BuildingBlock: QUQFOY_clean_sbu_1, # of connection points: 4
#     Node 18, Type 1, BuildingBlock: NAWXER_clean_linker_0, # of connection points: 4
#     Node 19, Type 1, BuildingBlock: NAWXER_clean_linker_0, # of connection points: 4
#     Node 20, Type 1, BuildingBlock: NAWXER_clean_linker_0, # of connection points: 4
#     Node 21, Type 1, BuildingBlock: NAWXER_clean_linker_0, # of connection points: 4
#     Node 22, Type 1, BuildingBlock: NAWXER_clean_linker_0, # of connection points: 4
#     Node 23, Type 1, BuildingBlock: NAWXER_clean_linker_0, # of connection points: 4
#     Node 24, Type 1, BuildingBlock: NAWXER_clean_linker_0, # of connection points: 4
#     Node 25, Type 1, BuildingBlock: NAWXER_clean_linker_0, # of connection points: 4
#     Node 26, Type 1, BuildingBlock: NAWXER_clean_linker_0, # of connection points: 4
#     Node 27, Type 1, BuildingBlock: NAWXER_clean_linker_0, # of connection points: 4
#     Node 28, Type 1, BuildingBlock: NAWXER_clean_linker_0, # of connection points: 4
#     Node 29, Type 1, BuildingBlock: NAWXER_clean_linker_0, # of connection points: 4
#     Node 30, Type 1, BuildingBlock: NAWXER_clean_linker_0, # of connection points: 4
#     Node 31, Type 1, BuildingBlock: NAWXER_clean_linker_0, # of connection points: 4
#     Node 32, Type 1, BuildingBlock: NAWXER_clean_linker_0, # of connection points: 4
#     Node 33, Type 1, BuildingBlock: NAWXER_clean_linker_0, # of connection points: 4
#     Node 34, Type 1, BuildingBlock: NAWXER_clean_linker_0, # of connection points: 4
#     Node 35, Type 1, BuildingBlock: NAWXER_clean_linker_0, # of connection points: 4
#     Edge 36, Type (0, 1), BuildingBlock: EZIPEK_clean_linker_0, # of connection points: 2
#     Edge 37, Type (0, 1), BuildingBlock: EZIPEK_clean_linker_0, # of connection points: 2
#     Edge 38, Type (0, 1), BuildingBlock: EZIPEK_clean_linker_0, # of connection points: 2
#     Edge 39, Type (0, 1), BuildingBlock: EZIPEK_clean_linker_0, # of connection points: 2
#     Edge 40, Type (0, 1), BuildingBlock: EZIPEK_clean_linker_0, # of connection points: 2
#     Edge 41, Type (0, 1), BuildingBlock: EZIPEK_clean_linker_0, # of connection points: 2
#     Edge 42, Type (0, 1), BuildingBlock: EZIPEK_clean_linker_0, # of connection points: 2
#     Edge 43, Type (0, 1), BuildingBlock: EZIPEK_clean_linker_0, # of connection points: 2
#     Edge 44, Type (0, 1), BuildingBlock: EZIPEK_clean_linker_0, # of connection points: 2
#     Edge 45, Type (0, 1), BuildingBlock: EZIPEK_clean_linker_0, # of connection points: 2
#     Edge 46, Type (0, 1), BuildingBlock: EZIPEK_clean_linker_0, # of connection points: 2
#     Edge 47, Type (0, 1), BuildingBlock: EZIPEK_clean_linker_0, # of connection points: 2
#     Edge 48, Type (0, 1), BuildingBlock: EZIPEK_clean_linker_0, # of connection points: 2
#     Edge 49, Type (0, 1), BuildingBlock: EZIPEK_clean_linker_0, # of connection points: 2
#     Edge 50, Type (0, 1), BuildingBlock: EZIPEK_clean_linker_0, # of connection points: 2
#     Edge 51, Type (0, 1), BuildingBlock: EZIPEK_clean_linker_0, # of connection points: 2
#     Edge 52, Type (0, 1), BuildingBlock: EZIPEK_clean_linker_0, # of connection points: 2
#     Edge 53, Type (0, 1), BuildingBlock: EZIPEK_clean_linker_0, # of connection points: 2
#     Edge 54, Type (0, 1), BuildingBlock: EZIPEK_clean_linker_0, # of connection points: 2
#     Edge 55, Type (0, 1), BuildingBlock: EZIPEK_clean_linker_0, # of connection points: 2
#     Edge 56, Type (0, 1), BuildingBlock: EZIPEK_clean_linker_0, # of connection points: 2
#     Edge 57, Type (0, 1), BuildingBlock: EZIPEK_clean_linker_0, # of connection points: 2
#     Edge 58, Type (0, 1), BuildingBlock: EZIPEK_clean_linker_0, # of connection points: 2
#     Edge 59, Type (0, 1), BuildingBlock: EZIPEK_clean_linker_0, # of connection points: 2
#     Edge 60, Type (0, 1), BuildingBlock: EZIPEK_clean_linker_0, # of connection points: 2
#     Edge 61, Type (0, 1), BuildingBlock: EZIPEK_clean_linker_0, # of connection points: 2
#     Edge 62, Type (0, 1), BuildingBlock: EZIPEK_clean_linker_0, # of connection points: 2
#     Edge 63, Type (0, 1), BuildingBlock: EZIPEK_clean_linker_0, # of connection points: 2
#     Edge 64, Type (0, 1), BuildingBlock: EZIPEK_clean_linker_0, # of connection points: 2
#     Edge 65, Type (0, 1), BuildingBlock: EZIPEK_clean_linker_0, # of connection points: 2
#     Edge 66, Type (0, 1), BuildingBlock: EZIPEK_clean_linker_0, # of connection points: 2
#     Edge 67, Type (0, 1), BuildingBlock: EZIPEK_clean_linker_0, # of connection points: 2
#     Edge 68, Type (0, 1), BuildingBlock: EZIPEK_clean_linker_0, # of connection points: 2
#     Edge 69, Type (0, 1), BuildingBlock: EZIPEK_clean_linker_0, # of connection points: 2
#     Edge 70, Type (0, 1), BuildingBlock: EZIPEK_clean_linker_0, # of connection points: 2
#     Edge 71, Type (0, 1), BuildingBlock: EZIPEK_clean_linker_0, # of connection points: 2
#     Edge 72, Type (0, 1), BuildingBlock: EZIPEK_clean_linker_0, # of connection points: 2
#     Edge 73, Type (0, 1), BuildingBlock: EZIPEK_clean_linker_0, # of connection points: 2
#     Edge 74, Type (0, 1), BuildingBlock: EZIPEK_clean_linker_0, # of connection points: 2
#     Edge 75, Type (0, 1), BuildingBlock: EZIPEK_clean_linker_0, # of connection points: 2
#     Edge 76, Type (0, 1), BuildingBlock: EZIPEK_clean_linker_0, # of connection points: 2
#     Edge 77, Type (0, 1), BuildingBlock: EZIPEK_clean_linker_0, # of connection points: 2
#     Edge 78, Type (0, 1), BuildingBlock: EZIPEK_clean_linker_0, # of connection points: 2
#     Edge 79, Type (0, 1), BuildingBlock: EZIPEK_clean_linker_0, # of connection points: 2
#     Edge 80, Type (0, 1), BuildingBlock: EZIPEK_clean_linker_0, # of connection points: 2
#     Edge 81, Type (0, 1), BuildingBlock: EZIPEK_clean_linker_0, # of connection points: 2
#     Edge 82, Type (0, 1), BuildingBlock: EZIPEK_clean_linker_0, # of connection points: 2
#     Edge 83, Type (0, 1), BuildingBlock: EZIPEK_clean_linker_0, # of connection points: 2
#     Edge 84, Type (0, 1), BuildingBlock: EZIPEK_clean_linker_0, # of connection points: 2
#     Edge 85, Type (0, 1), BuildingBlock: EZIPEK_clean_linker_0, # of connection points: 2
#     Edge 86, Type (0, 1), BuildingBlock: EZIPEK_clean_linker_0, # of connection points: 2
#     Edge 87, Type (0, 1), BuildingBlock: EZIPEK_clean_linker_0, # of connection points: 2
#     Edge 88, Type (0, 1), BuildingBlock: EZIPEK_clean_linker_0, # of connection points: 2
#     Edge 89, Type (0, 1), BuildingBlock: EZIPEK_clean_linker_0, # of connection points: 2
#     Edge 90, Type (0, 1), BuildingBlock: EZIPEK_clean_linker_0, # of connection points: 2
#     Edge 91, Type (0, 1), BuildingBlock: EZIPEK_clean_linker_0, # of connection points: 2
#     Edge 92, Type (0, 1), BuildingBlock: EZIPEK_clean_linker_0, # of connection points: 2
#     Edge 93, Type (0, 1), BuildingBlock: EZIPEK_clean_linker_0, # of connection points: 2
#     Edge 94, Type (0, 1), BuildingBlock: EZIPEK_clean_linker_0, # of connection points: 2
#     Edge 95, Type (0, 1), BuildingBlock: EZIPEK_clean_linker_0, # of connection points: 2
#     Edge 96, Type (0, 1), BuildingBlock: EZIPEK_clean_linker_0, # of connection points: 2
#     Edge 97, Type (0, 1), BuildingBlock: EZIPEK_clean_linker_0, # of connection points: 2
#     Edge 98, Type (0, 1), BuildingBlock: EZIPEK_clean_linker_0, # of connection points: 2
#     Edge 99, Type (0, 1), BuildingBlock: EZIPEK_clean_linker_0, # of connection points: 2
#     Edge 100, Type (0, 1), BuildingBlock: EZIPEK_clean_linker_0, # of connection points: 2
#     Edge 101, Type (0, 1), BuildingBlock: EZIPEK_clean_linker_0, # of connection points: 2
#     Edge 102, Type (0, 1), BuildingBlock: EZIPEK_clean_linker_0, # of connection points: 2
#     Edge 103, Type (0, 1), BuildingBlock: EZIPEK_clean_linker_0, # of connection points: 2
#     Edge 104, Type (0, 1), BuildingBlock: EZIPEK_clean_linker_0, # of connection points: 2
#     Edge 105, Type (0, 1), BuildingBlock: EZIPEK_clean_linker_0, # of connection points: 2
#     Edge 106, Type (0, 1), BuildingBlock: EZIPEK_clean_linker_0, # of connection points: 2
#     Edge 107, Type (0, 1), BuildingBlock: EZIPEK_clean_linker_0, # of connection points: 2
# Relax obj value: 0.008
# Max RMSD: 0.054
# Mean RMSD: 0.038
data_MOF--net-ptr--node1-QUQFOY_clean_sbu_1--node2-NAWXER_clean_linker_0--edge1-EZIPEK_clean_linker_0
_symmetry_space_group_name_H-M    P1
_symmetry_Int_Tables_number       1
_symmetry_cell_setting            triclinic
loop_
_symmetry_equiv_pos_as_xyz
'x, y, z'
_cell_length_a     69.715077
_cell_length_b     69.72419
_cell_length_c     50.986999
_cell_angle_alpha  90.065994
_cell_angle_beta   89.862856
_cell_angle_gamma 119.90574
loop_
_atom_site_label
_atom_site_type_symbol
_atom_site_fract_x
_atom_site_fract_y
_atom_site_fract_z
_atom_type_partial_charge
O0 O 0.01104 0.38315 0.05413 0.0
Cd1 Cd 0.02682 0.37658 0.0245 0.0
Cd2 Cd 0.98453 0.34787 0.00886 0.0
O3 O 0.97681 0.3575 0.04431 0.0
O4 O 0.05628 0.38355 0.03847 0.0
O5 O 0.02986 0.34956 0.02814 0.0
C6 C 0.04922 0.36256 0.0379 0.0
C7 C 0.96367 0.31156 0.99373 0.0
C8 C 0.99044 0.37315 0.05901 0.0
C9 C 0.01408 0.3875 0.97382 0.0
O10 O 0.99557 0.37023 0.97821 0.0
O11 O 0.03005 0.39318 0.98972 0.0
O12 O 0.95564 0.32464 0.99444 0.0
O13 O 0.98328 0.31857 1.00299 0.0
O14 O 0.62023 0.62551 0.04778 0.0
Cd15 Cd 0.63125 0.64884 0.01836 0.0
Cd16 Cd 0.65567 0.63072 0.00664 0.0
O17 O 0.64661 0.61689 0.04374 0.0
O18 O 0.622 0.67061 0.02869 0.0
O19 O 0.6568 0.6784 0.02896 0.0
C20 C 0.64236 0.68429 0.03438 0.0
C21 C 0.69201 0.65005 0.99193 0.0
C22 C 0.62996 0.61536 0.05595 0.0
C23 C 0.6193 0.6226 0.96941 0.0
O24 O 0.63239 0.61615 0.97741 0.0
O25 O 0.61784 0.63776 0.98151 0.0
O26 O 0.6817 0.6288 0.99408 0.0
O27 O 0.68208 0.66061 0.99933 0.0
O28 O 0.38258 0.00681 0.98001 0.0
Cd29 Cd 0.36961 0.01707 0.01039 0.0
Cd30 Cd 0.35037 0.97481 0.01905 0.0
O31 O 0.3573 0.97142 0.98085 0.0
O32 O 0.37618 0.0474 0.99986 0.0
O33 O 0.34215 0.01871 1.00223 0.0
C34 C 0.35522 0.03926 0.99641 0.0
C35 C 0.31515 0.9563 0.03711 0.0
C36 C 0.37382 0.98757 0.9699 0.0
C37 C 0.38484 0.0033 0.05695 0.0
O38 O 0.37627 0.98492 0.04493 0.0
O39 O 0.38111 0.01834 0.04862 0.0
O40 O 0.32604 0.94615 0.03252 0.0
O41 O 0.32386 0.97682 0.03028 0.0
O42 O 1.00007 0.62378 0.97675 0.0
Cd43 Cd 0.98639 0.63381 0.00588 0.0
Cd44 Cd 0.02897 0.65548 0.02163 0.0
O45 O 0.03536 0.64678 0.98511 0.0
O46 O 0.95734 0.62719 0.99091 0.0
O47 O 0.98437 0.66125 0.99942 0.0
C48 C 0.96489 0.64823 0.99003 0.0
C49 C 0.04849 0.69141 0.03786 0.0
C50 C 0.02037 0.6319 0.97086 0.0
C51 C 0.9959 0.61853 0.05596 0.0
O52 O 0.01614 0.63125 0.05016 0.0
O53 O 0.98066 0.61823 0.042 0.0
O54 O 0.05744 0.67911 0.03647 0.0
O55 O 0.02872 0.68375 0.02871 0.0
O56 O 0.38622 0.38439 0.97502 0.0
Cd57 Cd 0.37931 0.36091 1.00382 0.0
Cd58 Cd 0.35405 0.3781 0.02241 0.0
O59 O 0.36068 0.39299 0.98569 0.0
O60 O 0.38767 0.33991 0.98787 0.0
O61 O 0.35315 0.33041 0.99826 0.0
C62 C 0.36693 0.3252 0.98807 0.0
C63 C 0.31863 0.35919 0.0405 0.0
C64 C 0.37585 0.39469 0.97027 0.0
C65 C 0.39315 0.38484 0.05488 0.0
O66 O 0.37884 0.39061 0.05026 0.0
O67 O 0.39515 0.37141 0.03975 0.0
O68 O 0.32937 0.3805 0.03922 0.0
O69 O 0.32743 0.34847 0.03012 0.0
O70 O 0.62037 0.99293 0.04803 0.0
Cd71 Cd 0.62889 0.97846 0.01886 0.0
Cd72 Cd 0.65762 0.02097 1.00519 0.0
O73 O 0.6458 0.02764 0.03988 0.0
O74 O 0.62123 0.94861 0.03216 0.0
O75 O 0.65566 0.97537 0.02436 0.0
C76 C 0.64222 0.95575 0.03316 0.0
C77 C 0.69534 0.03848 0.99495 0.0
C78 C 0.62978 0.01333 0.0537 0.0
C79 C 0.62 0.99244 0.96759 0.0
O80 O 0.63705 0.01097 0.9727 0.0
O81 O 0.61393 0.97623 0.98324 0.0
O82 O 0.6845 0.04897 0.99354 0.0
O83 O 0.68508 0.01835 1.00346 0.0
O84 O 0.686 0.7255 0.38445 0.0
Cd85 Cd 0.69546 0.71098 0.35594 0.0
Cd86 Cd 0.65257 0.69077 0.34535 0.0
O87 O 0.65033 0.70116 0.38287 0.0
O88 O 0.72427 0.71527 0.36867 0.0
O89 O 0.69412 0.68225 0.36478 0.0
C90 C 0.71453 0.69414 0.37196 0.0
C91 C 0.62868 0.65523 0.32904 0.0
C92 C 0.66663 0.71757 0.39381 0.0
C93 C 0.68359 0.72471 0.30699 0.0
O94 O 0.66398 0.71439 0.31603 0.0
O95 O 0.6992 0.72362 0.31846 0.0
O96 O 0.62163 0.66855 0.33537 0.0
O97 O 0.64915 0.66151 0.33397 0.0
O98 O 0.28991 0.96014 0.38593 0.0
Cd99 Cd 0.30036 0.98487 0.35811 0.0
Cd100 Cd 0.32088 0.96331 0.33971 0.0
O101 O 0.31033 0.94539 0.37433 0.0
O102 O 0.29476 0.00747 0.37466 0.0
O103 O 0.32841 0.01349 0.3654 0.0
C104 C 0.3159 0.02038 0.37544 0.0
C105 C 0.35727 0.97726 0.32434 0.0
C106 C 0.29646 0.94632 0.3898 0.0
C107 C 0.28462 0.96303 0.30664 0.0
O108 O 0.29749 0.95539 0.31072 0.0
O109 O 0.28415 0.97693 0.32239 0.0
O110 O 0.3423 0.95681 0.32146 0.0
O111 O 0.35172 0.98977 0.3371 0.0
O112 O 0.05933 0.34893 0.31742 0.0
Cd113 Cd 0.04586 0.36002 0.34566 0.0
Cd114 Cd 0.02476 0.31697 0.35873 0.0
O115 O 0.03513 0.31334 0.32185 0.0
O116 O 0.05317 0.3902 0.33404 0.0
O117 O 0.01923 0.3616 0.33327 0.0
C118 C 0.03271 0.3821 0.32759 0.0
C119 C 0.98838 0.29572 0.37306 0.0
C120 C 0.05109 0.32908 0.3095 0.0
C121 C 0.0584 0.34876 0.39659 0.0
O122 O 0.04769 0.32885 0.38871 0.0
O123 O 0.05791 0.36408 0.38364 0.0
O124 O 1.00123 0.28742 0.37122 0.0
O125 O 0.99575 0.31584 0.36526 0.0
O126 O 0.66419 0.95408 0.31309 0.0
Cd127 Cd 0.65424 0.96818 0.34225 0.0
Cd128 Cd 0.69689 0.98653 0.35222 0.0
O129 O 0.70009 0.97757 0.31478 0.0
O130 O 0.62429 0.9615 0.33017 0.0
O131 O 0.65309 0.99549 0.33179 0.0
C132 C 0.63271 0.98232 0.32537 0.0
C133 C 0.71735 0.02239 0.36817 0.0
C134 C 0.68354 0.96165 0.30363 0.0
C135 C 0.66635 0.95374 0.39103 0.0
O136 O 0.68519 0.96185 0.38007 0.0
O137 O 0.65165 0.95722 0.38099 0.0
O138 O 0.72623 0.01014 0.36505 0.0
O139 O 0.69703 0.01467 0.36101 0.0
O140 O 0.05433 0.70846 0.3138 0.0
Cd141 Cd 0.04426 0.6843 0.34227 0.0
Cd142 Cd 0.02179 0.70475 0.35874 0.0
O143 O 0.03096 0.72034 0.32262 0.0
O144 O 0.05092 0.66191 0.32698 0.0
O145 O 0.01683 0.65511 0.33512 0.0
C146 C 0.02987 0.64862 0.32564 0.0
C147 C 0.98601 0.69025 0.37512 0.0
C148 C 0.04606 0.7206 0.30832 0.0
C149 C 0.05868 0.70814 0.39302 0.0
O150 O 0.04573 0.71543 0.38746 0.0
O151 O 0.05947 0.69363 0.37863 0.0
O152 O 0.99938 0.71129 0.37411 0.0
O153 O 0.99252 0.67724 0.36566 0.0
O154 O 0.2939 0.32956 0.39001 0.0
Cd155 Cd 0.30215 0.3176 0.35781 0.0
Cd156 Cd 0.32372 0.36088 0.34456 0.0
O157 O 0.30881 0.36454 0.37842 0.0
O158 O 0.29582 0.28781 0.36967 0.0
O159 O 0.32959 0.31505 0.36026 0.0
C160 C 0.31687 0.29533 0.36924 0.0
C161 C 0.36059 0.38348 0.33269 0.0
C162 C 0.2971 0.34887 0.39429 0.0
C163 C 0.28795 0.32912 0.30782 0.0
O164 O 0.30392 0.34846 0.31211 0.0
O165 O 0.28386 0.3136 0.32394 0.0
O166 O 0.34685 0.39076 0.33237 0.0
O167 O 0.35395 0.36394 0.34207 0.0
O168 O 0.34644 0.05784 0.71453 0.0
Cd169 Cd 0.35589 0.04293 0.68635 0.0
Cd170 Cd 0.31361 0.01811 0.68266 0.0
O171 O 0.3155 0.02691 0.72208 0.0
O172 O 0.38727 0.05135 0.69326 0.0
O173 O 0.35913 0.01764 0.69982 0.0
C174 C 0.38008 0.03153 0.70193 0.0
C175 C 0.29185 0.98237 0.66605 0.0
C176 C 0.32968 0.04648 0.72904 0.0
C177 C 0.33661 0.0516 0.64098 0.0
O178 O 0.31898 0.04183 0.6546 0.0
O179 O 0.35373 0.05094 0.64802 0.0
O180 O 0.28306 0.99316 0.67618 0.0
O181 O 0.3131 0.99115 0.66754 0.0
O182 O 0.95081 0.2927 0.72356 0.0
Cd183 Cd 0.95991 0.31591 0.69455 0.0
Cd184 Cd 0.98879 0.30161 0.68146 0.0
O185 O 0.97655 0.28357 0.71631 0.0
O186 O 0.95296 0.33872 0.70763 0.0
O187 O 0.98716 0.34537 0.70029 0.0
C188 C 0.97403 0.35213 0.70876 0.0
C189 C 0.02591 0.31731 0.66882 0.0
C190 C 0.96023 0.28178 0.72964 0.0
C191 C 0.95148 0.29326 0.64328 0.0
O192 O 0.96822 0.29142 0.64907 0.0
O193 O 0.94529 0.30356 0.6586 0.0
O194 O 0.01297 0.2962 0.66925 0.0
O195 O 0.01833 0.32967 0.67747 0.0
O196 O 0.72149 0.67963 0.64986 0.0
Cd197 Cd 0.70682 0.68956 0.67818 0.0
Cd198 Cd 0.68838 0.6461 0.68902 0.0
O199 O 0.69809 0.64368 0.65145 0.0
O200 O 0.71334 0.71926 0.66529 0.0
O201 O 0.67934 0.6906 0.66816 0.0
C202 C 0.69243 0.7109 0.66135 0.0
C203 C 0.65307 0.6218 0.70569 0.0
C204 C 0.71413 0.66032 0.64048 0.0
C205 C 0.72208 0.67869 0.72678 0.0
O206 O 0.71334 0.65943 0.71677 0.0
O207 O 0.71858 0.69325 0.7164 0.0
O208 O 0.66728 0.6154 0.70155 0.0
O209 O 0.65845 0.64176 0.69905 0.0
O210 O 0.32671 0.28377 0.64655 0.0
Cd211 Cd 0.31366 0.2937 0.6766 0.0
Cd212 Cd 0.35657 0.31677 0.68974 0.0
O213 O 0.36199 0.30832 0.65263 0.0
O214 O 0.28415 0.28761 0.66347 0.0
O215 O 0.31212 0.32143 0.6707 0.0
C216 C 0.29225 0.30873 0.66218 0.0
C217 C 0.37528 0.35266 0.70598 0.0
C218 C 0.34681 0.29271 0.63933 0.0
C219 C 0.32625 0.27977 0.72558 0.0
O220 O 0.34601 0.29262 0.71818 0.0
O221 O 0.31002 0.27875 0.71299 0.0
O222 O 0.38506 0.3412 0.7035 0.0
O223 O 0.35508 0.34421 0.69802 0.0
O224 O 0.71994 0.04348 0.64575 0.0
Cd225 Cd 0.70423 0.02054 0.67561 0.0
Cd226 Cd 0.68806 0.04626 0.68375 0.0
O227 O 0.69553 0.05472 0.64494 0.0
O228 O 0.70746 0.99466 0.66553 0.0
O229 O 0.67513 0.9936 0.66663 0.0
C230 C 0.68644 0.98399 0.66126 0.0
C231 C 0.6534 0.03499 0.70222 0.0
C232 C 0.71195 0.0543 0.63476 0.0
C233 C 0.72053 0.04902 0.72234 0.0
O234 O 0.71394 0.06049 0.71 0.0
O235 O 0.71517 0.02978 0.714 0.0
O236 O 0.66589 0.05498 0.69405 0.0
O237 O 0.66016 0.02099 0.69839 0.0
O238 O 0.95374 0.66057 0.71833 0.0
Cd239 Cd 0.96549 0.64859 0.68911 0.0
Cd240 Cd 0.98671 0.69166 0.67567 0.0
O241 O 0.97678 0.69629 0.71234 0.0
O242 O 0.95983 0.61933 0.70246 0.0
O243 O 0.99352 0.64778 0.6959 0.0
C244 C 0.98097 0.62777 0.70414 0.0
C245 C 0.02286 0.71267 0.66015 0.0
C246 C 0.96152 0.68055 0.72546 0.0
C247 C 0.95073 0.65944 0.63977 0.0
O248 O 0.96274 0.67945 0.64688 0.0
O249 O 0.95063 0.6438 0.65269 0.0
O250 O 0.01004 0.72099 0.66213 0.0
O251 O 0.0156 0.69267 0.66831 0.0
C252 C 0.24115 0.34256 0.11969 0.0
C253 C 0.23825 0.32779 0.09892 0.0
C254 C 0.22314 0.34118 0.13347 0.0
C255 C 0.20149 0.32529 0.12668 0.0
C256 C 0.21623 0.31415 0.09009 0.0
C257 C 0.1982 0.31258 0.10411 0.0
C258 C 0.18226 0.32274 0.14202 0.0
C259 C 0.22535 0.30938 0.19798 0.0
C260 C 0.22727 0.31784 0.2235 0.0
C261 C 0.20963 0.30904 0.18048 0.0
C262 C 0.19671 0.31868 0.18755 0.0
C263 C 0.21312 0.32572 0.23115 0.0
C264 C 0.19849 0.32659 0.21337 0.0
C265 C 0.1804 0.32006 0.16969 0.0
C266 C 0.09161 0.30907 0.19816 0.0
C267 C 0.0987 0.32196 0.22109 0.0
C268 C 0.10718 0.30955 0.18025 0.0
C269 C 0.12997 0.32303 0.1851 0.0
C270 C 0.12137 0.33572 0.22555 0.0
C271 C 0.13682 0.33622 0.20779 0.0
C272 C 0.14708 0.32213 0.16865 0.0
C273 C 0.11434 0.34925 0.11665 0.0
C274 C 0.10524 0.33712 0.09359 0.0
C275 C 0.12843 0.34516 0.13215 0.0
C276 C 0.13335 0.32857 0.12509 0.0
C277 C 0.11042 0.32085 0.08616 0.0
C278 C 0.12447 0.31668 0.10175 0.0
C279 C 0.14867 0.32442 0.14111 0.0
H280 H 0.25744 0.35543 0.12554 0.0
H281 H 0.22616 0.3524 0.14968 0.0
H282 H 0.2122 0.30473 0.07228 0.0
H283 H 0.18157 0.30124 0.09735 0.0
H284 H 0.23598 0.30305 0.19164 0.0
H285 H 0.20778 0.30131 0.16157 0.0
H286 H 0.21405 0.33213 0.25077 0.0
H287 H 0.1887 0.3338 0.21998 0.0
H288 H 0.07412 0.29826 0.19453 0.0
H289 H 0.10147 0.29889 0.16319 0.0
H290 H 0.12711 0.34574 0.24314 0.0
H291 H 0.15427 0.34668 0.21205 0.0
H292 H 0.11065 0.362 0.12254 0.0
H293 H 0.13568 0.35517 0.14948 0.0
H294 H 0.10359 0.3114 0.06835 0.0
H295 H 0.12828 0.30406 0.09568 0.0
N296 N 0.16612 0.32445 0.12889 0.0
N297 N 0.16285 0.31992 0.18148 0.0
C298 C 0.65356 0.89087 0.11454 0.0
C299 C 0.66559 0.89926 0.09122 0.0
C300 C 0.65716 0.87663 0.13039 0.0
C301 C 0.67312 0.87082 0.12336 0.0
C302 C 0.68132 0.89329 0.08393 0.0
C303 C 0.68496 0.87906 0.09983 0.0
C304 C 0.67663 0.85519 0.13956 0.0
C305 C 0.69609 0.91402 0.19437 0.0
C306 C 0.68373 0.90825 0.21773 0.0
C307 C 0.69418 0.89748 0.17711 0.0
C308 C 0.67981 0.87504 0.18302 0.0
C309 C 0.6691 0.88592 0.22331 0.0
C310 C 0.6672 0.86949 0.20617 0.0
C311 C 0.67924 0.857 0.16705 0.0
C312 C 0.70112 0.78684 0.19793 0.0
C313 C 0.68827 0.77975 0.2209 0.0
C314 C 0.69872 0.80094 0.18033 0.0
C315 C 0.68319 0.8078 0.18541 0.0
C316 C 0.67294 0.7867 0.22598 0.0
C317 C 0.67046 0.80063 0.20846 0.0
C318 C 0.68077 0.82349 0.16811 0.0
C319 C 0.65982 0.76193 0.12023 0.0
C320 C 0.66574 0.76459 0.09357 0.0
C321 C 0.6632 0.78001 0.13544 0.0
C322 C 0.67434 0.80161 0.12506 0.0
C323 C 0.67599 0.78596 0.08276 0.0
C324 C 0.68061 0.80427 0.09843 0.0
C325 C 0.67757 0.82122 0.14055 0.0
H326 H 0.64125 0.89522 0.12033 0.0
H327 H 0.64724 0.86993 0.14793 0.0
H328 H 0.69071 0.89961 0.06595 0.0
H329 H 0.69713 0.87458 0.09382 0.0
H330 H 0.70761 0.93121 0.18993 0.0
H331 H 0.70446 0.90218 0.15969 0.0
H332 H 0.65953 0.88121 0.24131 0.0
H333 H 0.65613 0.85232 0.21126 0.0
H334 H 0.71314 0.78168 0.19386 0.0
H335 H 0.70904 0.80664 0.16296 0.0
H336 H 0.66295 0.78143 0.24366 0.0
H337 H 0.65853 0.80583 0.21292 0.0
H338 H 0.65157 0.7456 0.12901 0.0
H339 H 0.65636 0.77672 0.15502 0.0
H340 H 0.68037 0.78847 0.06215 0.0
H341 H 0.68875 0.82053 0.08951 0.0
N342 N 0.67594 0.83742 0.12749 0.0
N343 N 0.68123 0.84113 0.18003 0.0
C344 C 0.11023 0.76795 0.11989 0.0
C345 C 0.10106 0.77141 0.09718 0.0
C346 C 0.1244 0.78581 0.13572 0.0
C347 C 0.12938 0.80743 0.1293 0.0
C348 C 0.10604 0.79294 0.09059 0.0
C349 C 0.12021 0.81084 0.10647 0.0
C350 C 0.14546 0.82663 0.14506 0.0
C351 C 0.08874 0.78627 0.20159 0.0
C352 C 0.09519 0.77926 0.22403 0.0
C353 C 0.10478 0.8015 0.18433 0.0
C354 C 0.12742 0.80976 0.18928 0.0
C355 C 0.11771 0.78735 0.22881 0.0
C356 C 0.13366 0.80249 0.21166 0.0
C357 C 0.14494 0.82723 0.17277 0.0
C358 C 0.21874 0.91871 0.20045 0.0
C359 C 0.22606 0.91292 0.22316 0.0
C360 C 0.20379 0.9022 0.18347 0.0
C361 C 0.19607 0.87973 0.18899 0.0
C362 C 0.21849 0.89056 0.22852 0.0
C363 C 0.20359 0.87414 0.21167 0.0
C364 C 0.17892 0.86173 0.17268 0.0
C365 C 0.23836 0.89573 0.12008 0.0
C366 C 0.2352 0.9052 0.09742 0.0
C367 C 0.22035 0.88173 0.13584 0.0
C368 C 0.19888 0.87714 0.12935 0.0
C369 C 0.21381 0.90072 0.09087 0.0
C370 C 0.19574 0.88662 0.10663 0.0
C371 C 0.17958 0.86111 0.14501 0.0
H372 H 0.10669 0.75144 0.12512 0.0
H373 H 0.13184 0.78275 0.15265 0.0
H374 H 0.09914 0.79588 0.07305 0.0
H375 H 0.12405 0.82737 0.1009 0.0
H376 H 0.07139 0.78029 0.19778 0.0
H377 H 0.09953 0.80724 0.16757 0.0
H378 H 0.12295 0.78217 0.24609 0.0
H379 H 0.15098 0.8087 0.21601 0.0
H380 H 0.22429 0.93591 0.19619 0.0
H381 H 0.19784 0.90695 0.16648 0.0
H382 H 0.22389 0.88582 0.24603 0.0
H383 H 0.1978 0.85697 0.21648 0.0
H384 H 0.25474 0.89891 0.1253 0.0
H385 H 0.22316 0.87409 0.15276 0.0
H386 H 0.2111 0.90786 0.0734 0.0
H387 H 0.1793 0.88307 0.10106 0.0
N388 N 0.16272 0.84368 0.13229 0.0
N389 N 0.16169 0.84473 0.18533 0.0
C390 C 0.33454 0.10051 0.84073 0.0
C391 C 0.32264 0.09562 0.81711 0.0
C392 C 0.33491 0.1163 0.85806 0.0
C393 C 0.32195 0.1263 0.85325 0.0
C394 C 0.30979 0.10559 0.8122 0.0
C395 C 0.30913 0.12035 0.83021 0.0
C396 C 0.3235 0.14492 0.86954 0.0
C397 C 0.31452 0.09372 0.92965 0.0
C398 C 0.33412 0.09986 0.94358 0.0
C399 C 0.31236 0.10937 0.91469 0.0
C400 C 0.32972 0.13142 0.91359 0.0
C401 C 0.35114 0.12205 0.94319 0.0
C402 C 0.34885 0.13774 0.92854 0.0
C403 C 0.32824 0.14793 0.89677 0.0
C404 C 0.32271 0.23043 0.92115 0.0
C405 C 0.34144 0.24145 0.9372 0.0
C406 C 0.31846 0.21117 0.90774 0.0
C407 C 0.33311 0.20286 0.90983 0.0
C408 C 0.35565 0.23277 0.94007 0.0
C409 C 0.35147 0.2136 0.92657 0.0
C410 C 0.32939 0.18287 0.89515 0.0
C411 C 0.33856 0.23185 0.83008 0.0
C412 C 0.32053 0.22409 0.81282 0.0
C413 C 0.33936 0.21774 0.84905 0.0
C414 C 0.32206 0.19571 0.85109 0.0
C415 C 0.30295 0.20233 0.8154 0.0
C416 C 0.30378 0.18823 0.83425 0.0
C417 C 0.32394 0.17954 0.86822 0.0
H418 H 0.34461 0.09307 0.845 0.0
H419 H 0.34617 0.12121 0.87443 0.0
H420 H 0.30049 0.10221 0.79414 0.0
H421 H 0.29907 0.12773 0.82555 0.0
H422 H 0.30117 0.0767 0.92983 0.0
H423 H 0.2973 0.10422 0.90366 0.0
H424 H 0.36635 0.12713 0.95385 0.0
H425 H 0.36236 0.15469 0.92815 0.0
H426 H 0.31152 0.23686 0.91884 0.0
H427 H 0.30377 0.20284 0.89569 0.0
H428 H 0.37018 0.24109 0.95238 0.0
H429 H 0.36288 0.20742 0.92877 0.0
H430 H 0.35236 0.24855 0.82819 0.0
H431 H 0.35389 0.22377 0.86133 0.0
H432 H 0.28898 0.19603 0.80215 0.0
H433 H 0.29037 0.17126 0.83526 0.0
N434 N 0.32133 0.16082 0.8567 0.0
N435 N 0.33132 0.16691 0.9083 0.0
C436 C 0.91528 0.21955 0.92097 0.0
C437 C 0.9079 0.23011 0.93839 0.0
C438 C 0.90004 0.20128 0.90636 0.0
C439 C 0.87721 0.19348 0.90876 0.0
C440 C 0.88513 0.22187 0.94152 0.0
C441 C 0.8699 0.20364 0.92692 0.0
C442 C 0.86074 0.1746 0.89291 0.0
C443 C 0.90082 0.22711 0.83113 0.0
C444 C 0.91142 0.22033 0.81293 0.0
C445 C 0.88566 0.21199 0.8492 0.0
C446 C 0.8809 0.18988 0.84932 0.0
C447 C 0.90732 0.19848 0.81374 0.0
C448 C 0.89203 0.18335 0.8316 0.0
C449 C 0.86269 0.17287 0.86557 0.0
C450 C 0.77244 0.09666 0.83533 0.0
C451 C 0.77908 0.09337 0.81046 0.0
C452 C 0.78812 0.11105 0.85344 0.0
C453 C 0.81095 0.1212 0.8479 0.0
C454 C 0.80178 0.10351 0.80485 0.0
C455 C 0.81745 0.11685 0.82344 0.0
C456 C 0.82827 0.13856 0.86515 0.0
C457 C 0.78897 0.08393 0.92406 0.0
C458 C 0.77822 0.08923 0.94408 0.0
C459 C 0.80451 0.10022 0.90731 0.0
C460 C 0.80936 0.12222 0.90929 0.0
C461 C 0.78257 0.11136 0.94474 0.0
C462 C 0.79819 0.12761 0.92813 0.0
C463 C 0.82676 0.13988 0.89281 0.0
H464 H 0.93282 0.22568 0.91841 0.0
H465 H 0.9061 0.19332 0.89316 0.0
H466 H 0.87918 0.22985 0.95489 0.0
H467 H 0.8524 0.19779 0.92934 0.0
H468 H 0.90367 0.24386 0.83066 0.0
H469 H 0.87698 0.21734 0.8623 0.0
H470 H 0.91525 0.19293 0.79978 0.0
H471 H 0.8885 0.16636 0.83119 0.0
H472 H 0.75501 0.08906 0.84015 0.0
H473 H 0.7821 0.1148 0.87114 0.0
H474 H 0.80741 0.10135 0.78583 0.0
H475 H 0.83479 0.12442 0.81821 0.0
H476 H 0.78597 0.06754 0.92056 0.0
H477 H 0.81289 0.0956 0.89284 0.0
H478 H 0.77382 0.11636 0.95816 0.0
H479 H 0.80138 0.14445 0.92983 0.0
N480 N 0.84288 0.15801 0.90539 0.0
N481 N 0.84637 0.15507 0.85296 0.0
C482 C 0.78733 0.70043 0.92353 0.0
C483 C 0.77531 0.68137 0.93894 0.0
C484 C 0.8057 0.70334 0.90901 0.0
C485 C 0.81199 0.68706 0.9095 0.0
C486 C 0.78233 0.66575 0.94049 0.0
C487 C 0.80059 0.66863 0.926 0.0
C488 C 0.83018 0.6887 0.89286 0.0
C489 C 0.77607 0.68095 0.83674 0.0
C490 C 0.78267 0.69108 0.81199 0.0
C491 C 0.79157 0.68083 0.85406 0.0
C492 C 0.81442 0.69285 0.84834 0.0
C493 C 0.80534 0.70255 0.8059 0.0
C494 C 0.82096 0.70391 0.82403 0.0
C495 C 0.83164 0.69214 0.86528 0.0
C496 C 0.90193 0.67364 0.82895 0.0
C497 C 0.91292 0.6911 0.81103 0.0
C498 C 0.88727 0.67412 0.8474 0.0
C499 C 0.88345 0.6921 0.8482 0.0
C500 C 0.9097 0.7094 0.81244 0.0
C501 C 0.89494 0.70979 0.83072 0.0
C502 C 0.86577 0.69153 0.8649 0.0
C503 C 0.91775 0.69387 0.91883 0.0
C504 C 0.90977 0.6758 0.93604 0.0
C505 C 0.90296 0.698 0.90477 0.0
C506 C 0.87998 0.68389 0.90743 0.0
C507 C 0.88689 0.66218 0.93944 0.0
C508 C 0.87212 0.66624 0.92533 0.0
C509 C 0.86389 0.6874 0.89213 0.0
H510 H 0.78214 0.71267 0.92222 0.0
H511 H 0.81456 0.71791 0.89684 0.0
H512 H 0.77326 0.651 0.95234 0.0
H513 H 0.80532 0.65601 0.92693 0.0
H514 H 0.7587 0.6719 0.84202 0.0
H515 H 0.78526 0.67051 0.87123 0.0
H516 H 0.81099 0.71036 0.78691 0.0
H517 H 0.83827 0.71309 0.81851 0.0
H518 H 0.90409 0.65931 0.82797 0.0
H519 H 0.87824 0.66005 0.86028 0.0
H520 H 0.91795 0.72294 0.79867 0.0
H521 H 0.89208 0.72371 0.83081 0.0
H522 H 0.93539 0.70459 0.91609 0.0
H523 H 0.9095 0.71216 0.89178 0.0
H524 H 0.88048 0.64815 0.95265 0.0
H525 H 0.85451 0.65526 0.92796 0.0
N526 N 0.84617 0.68615 0.90495 0.0
N527 N 0.84962 0.69367 0.85276 0.0
C528 C 0.75927 0.64725 0.44561 0.0
C529 C 0.76735 0.66562 0.42885 0.0
C530 C 0.77397 0.64332 0.46016 0.0
C531 C 0.79693 0.65791 0.45843 0.0
C532 C 0.79023 0.67978 0.42644 0.0
C533 C 0.80491 0.67591 0.44103 0.0
C534 C 0.81287 0.65442 0.47405 0.0
C535 C 0.77378 0.6674 0.53602 0.0
C536 C 0.76329 0.65055 0.55474 0.0
C537 C 0.7883 0.66654 0.51766 0.0
C538 C 0.79235 0.64868 0.51761 0.0
C539 C 0.76682 0.63243 0.55428 0.0
C540 C 0.78131 0.63156 0.53595 0.0
C541 C 0.81009 0.64908 0.50107 0.0
C542 C 0.898 0.66518 0.53638 0.0
C543 C 0.89121 0.64797 0.55468 0.0
C544 C 0.88299 0.66494 0.51803 0.0
C545 C 0.861 0.64737 0.51759 0.0
C546 C 0.86948 0.63008 0.55375 0.0
C547 C 0.85447 0.62986 0.53546 0.0
C548 C 0.84409 0.64845 0.50107 0.0
C549 C 0.89297 0.64557 0.4462 0.0
C550 C 0.90381 0.66403 0.42966 0.0
C551 C 0.87424 0.64192 0.4604 0.0
C552 C 0.86631 0.6569 0.45857 0.0
C553 C 0.89548 0.67854 0.42706 0.0
C554 C 0.87684 0.67496 0.44133 0.0
C555 C 0.84694 0.65385 0.47408 0.0
H556 H 0.74163 0.63612 0.44758 0.0
H557 H 0.76738 0.62893 0.47277 0.0
H558 H 0.7967 0.69404 0.41359 0.0
H559 H 0.82252 0.68727 0.43912 0.0
H560 H 0.77144 0.68163 0.53633 0.0
H561 H 0.79709 0.68031 0.50433 0.0
H562 H 0.75899 0.61939 0.56875 0.0
H563 H 0.78438 0.61779 0.53655 0.0
H564 H 0.91464 0.67923 0.53705 0.0
H565 H 0.88831 0.67897 0.50502 0.0
H566 H 0.86393 0.61676 0.56788 0.0
H567 H 0.83755 0.61628 0.53571 0.0
H568 H 0.89917 0.63417 0.44831 0.0
H569 H 0.86604 0.62747 0.47287 0.0
H570 H 0.90369 0.69287 0.41438 0.0
H571 H 0.87095 0.68663 0.43935 0.0
N572 N 0.83124 0.6567 0.46173 0.0
N573 N 0.82574 0.64617 0.51334 0.0
C574 C 0.32744 0.22988 0.44908 0.0
C575 C 0.3399 0.23828 0.42603 0.0
C576 C 0.33029 0.21511 0.46488 0.0
C577 C 0.3459 0.20879 0.45807 0.0
C578 C 0.35537 0.23189 0.41903 0.0
C579 C 0.35826 0.21716 0.43487 0.0
C580 C 0.34835 0.19228 0.47382 0.0
C581 C 0.36703 0.24981 0.53038 0.0
C582 C 0.35401 0.24357 0.55324 0.0
C583 C 0.36568 0.23361 0.51292 0.0
C584 C 0.35116 0.21104 0.51808 0.0
C585 C 0.33943 0.22113 0.55821 0.0
C586 C 0.33806 0.20503 0.54086 0.0
C587 C 0.35054 0.19327 0.50146 0.0
C588 C 0.36325 0.13064 0.55576 0.0
C589 C 0.34546 0.10891 0.55415 0.0
C590 C 0.36528 0.14657 0.53766 0.0
C591 C 0.34972 0.141 0.51748 0.0
C592 C 0.33022 0.10306 0.53356 0.0
C593 C 0.33229 0.11902 0.51536 0.0
C594 C 0.35026 0.15885 0.50122 0.0
C595 C 0.32583 0.10936 0.4272 0.0
C596 C 0.34126 0.10217 0.42992 0.0
C597 C 0.32858 0.12792 0.44093 0.0
C598 C 0.34658 0.13928 0.45798 0.0
C599 C 0.35979 0.11406 0.4461 0.0
C600 C 0.36237 0.13244 0.46017 0.0
C601 C 0.34839 0.15798 0.47364 0.0
H602 H 0.31533 0.23456 0.45465 0.0
H603 H 0.31999 0.20834 0.48214 0.0
H604 H 0.36507 0.23821 0.40126 0.0
H605 H 0.37018 0.2123 0.42903 0.0
H606 H 0.37851 0.2671 0.5264 0.0
H607 H 0.37634 0.23867 0.49583 0.0
H608 H 0.32933 0.21605 0.5758 0.0
H609 H 0.32684 0.18777 0.54539 0.0
H610 H 0.37506 0.13545 0.57164 0.0
H611 H 0.3787 0.16344 0.53987 0.0
H612 H 0.31626 0.0864 0.53223 0.0
H613 H 0.3197 0.11441 0.50047 0.0
H614 H 0.31149 0.10041 0.41472 0.0
H615 H 0.31628 0.13299 0.43888 0.0
H616 H 0.37189 0.10875 0.44831 0.0
H617 H 0.37655 0.1412 0.47292 0.0
N618 N 0.34743 0.17468 0.46103 0.0
N619 N 0.35136 0.17649 0.51392 0.0
C620 C 0.78255 0.10027 0.44706 0.0
C621 C 0.77264 0.10335 0.42478 0.0
C622 C 0.79683 0.11834 0.46254 0.0
C623 C 0.8012 0.13977 0.45619 0.0
C624 C 0.77723 0.12476 0.4181 0.0
C625 C 0.79155 0.14287 0.43362 0.0
C626 C 0.81653 0.159 0.47241 0.0
C627 C 0.75832 0.11651 0.52646 0.0
C628 C 0.76457 0.11008 0.54953 0.0
C629 C 0.77451 0.13219 0.50969 0.0
C630 C 0.7971 0.14139 0.51575 0.0
C631 C 0.78705 0.11897 0.5553 0.0
C632 C 0.80314 0.13449 0.53861 0.0
C633 C 0.81475 0.1594 0.49994 0.0
C634 C 0.89369 0.24924 0.53073 0.0
C635 C 0.89506 0.24259 0.55637 0.0
C636 C 0.87832 0.23401 0.51285 0.0
C637 C 0.86509 0.2115 0.51972 0.0
C638 C 0.88097 0.2205 0.56363 0.0
C639 C 0.86658 0.20516 0.54552 0.0
C640 C 0.84861 0.19418 0.50168 0.0
C641 C 0.90982 0.22853 0.45064 0.0
C642 C 0.90711 0.23889 0.42852 0.0
C643 C 0.89147 0.21389 0.46561 0.0
C644 C 0.87018 0.20973 0.45892 0.0
C645 C 0.88585 0.23449 0.42154 0.0
C646 C 0.86749 0.2199 0.43656 0.0
C647 C 0.85054 0.19364 0.47399 0.0
H648 H 0.7793 0.08388 0.45238 0.0
H649 H 0.80459 0.11556 0.47937 0.0
H650 H 0.76975 0.1274 0.4009 0.0
H651 H 0.79491 0.15928 0.42817 0.0
H652 H 0.74098 0.1099 0.5219 0.0
H653 H 0.76938 0.13758 0.49252 0.0
H654 H 0.79212 0.11424 0.57308 0.0
H655 H 0.82041 0.14136 0.54378 0.0
H656 H 0.90432 0.26624 0.52468 0.0
H657 H 0.87683 0.24002 0.49387 0.0
H658 H 0.88154 0.21493 0.58329 0.0
H659 H 0.85661 0.18815 0.55191 0.0
H660 H 0.92613 0.23165 0.45618 0.0
H661 H 0.89388 0.20575 0.48232 0.0
H662 H 0.88349 0.2423 0.40445 0.0
H663 H 0.85118 0.21663 0.4308 0.0
N664 N 0.83426 0.17621 0.46053 0.0
N665 N 0.83073 0.17695 0.51318 0.0
C666 C 0.97577 0.55363 0.16292 0.0
C667 C 0.98839 0.56 0.13974 0.0
C668 C 0.9768 0.53843 0.18005 0.0
C669 C 0.99055 0.52955 0.17421 0.0
C670 C 1.00219 0.55127 0.13408 0.0
C671 C 1.0032 0.53615 0.15108 0.0
C672 C 0.9908 0.51212 0.19059 0.0
C673 C 0.01729 0.57252 0.24233 0.0
C674 C 0.00542 0.56922 0.26575 0.0
C675 C 0.01345 0.55449 0.22662 0.0
C676 C 0.99743 0.53287 0.2339 0.0
C677 C 0.98958 0.54766 0.27322 0.0
C678 C 0.98571 0.52963 0.25748 0.0
C679 C 0.99376 0.51346 0.21806 0.0
C680 C 0.01147 0.43786 0.23886 0.0
C681 C 0.00609 0.43521 0.26568 0.0
C682 C 0.00746 0.45199 0.22335 0.0
C683 C 0.99628 0.46248 0.23368 0.0
C684 C 0.9957 0.44629 0.27637 0.0
C685 C 0.99052 0.45943 0.26047 0.0
C686 C 0.99261 0.47844 0.21791 0.0
C687 C 0.96772 0.41871 0.16359 0.0
C688 C 0.98026 0.42344 0.14044 0.0
C689 C 0.97038 0.43595 0.18016 0.0
C690 C 0.98575 0.45806 0.17381 0.0
C691 C 0.99528 0.44548 0.13397 0.0
C692 C 0.99794 0.46262 0.15043 0.0
C693 C 0.98882 0.47684 0.19045 0.0
H694 H 0.96487 0.56009 0.16744 0.0
H695 H 0.96648 0.53323 0.19744 0.0
H696 H 0.01196 0.55593 0.11623 0.0
H697 H 0.0138 0.52944 0.14603 0.0
H698 H 0.0297 0.58905 0.2364 0.0
H699 H 0.02327 0.55745 0.20904 0.0
H700 H 0.98034 0.54483 0.29129 0.0
H701 H 0.97349 0.5131 0.26369 0.0
H702 H 0.0198 0.42979 0.23016 0.0
H703 H 0.01385 0.4551 0.20356 0.0
H704 H 0.9917 0.44485 0.29708 0.0
H705 H 0.98237 0.46761 0.26933 0.0
H706 H 0.95593 0.40175 0.16874 0.0
H707 H 0.96045 0.43207 0.1978 0.0
H708 H 0.00499 0.44942 0.11613 0.0
H709 H 0.00973 0.47951 0.14498 0.0
N710 N 0.9884 0.49386 0.17807 0.0
N711 N 0.99455 0.4966 0.23051 0.0
C712 C 0.4543 0.4271 0.165 0.0
C713 C 0.44736 0.43377 0.14265 0.0
C714 C 0.46862 0.4429 0.18315 0.0
C715 C 0.4761 0.4655 0.17908 0.0
C716 C 0.45437 0.45623 0.13905 0.0
C717 C 0.46865 0.47192 0.15701 0.0
C718 C 0.49369 0.483 0.19542 0.0
C719 C 0.43506 0.44722 0.24964 0.0
C720 C 0.43948 0.43939 0.27288 0.0
C721 C 0.45238 0.46157 0.23316 0.0
C722 C 0.47442 0.46804 0.23947 0.0
C723 C 0.46143 0.44593 0.27937 0.0
C724 C 0.47877 0.46022 0.26285 0.0
C725 C 0.49314 0.48421 0.22305 0.0
C726 C 0.56894 0.5777 0.24293 0.0
C727 C 0.57229 0.57496 0.26951 0.0
C728 C 0.55437 0.55963 0.22766 0.0
C729 C 0.54411 0.53797 0.23786 0.0
C730 C 0.56137 0.55352 0.28016 0.0
C731 C 0.54779 0.53524 0.26442 0.0
C732 C 0.52786 0.51838 0.22224 0.0
C733 C 0.58583 0.55285 0.1649 0.0
C734 C 0.58025 0.56011 0.14197 0.0
C735 C 0.56921 0.53882 0.18247 0.0
C736 C 0.54693 0.5322 0.1774 0.0
C737 C 0.55805 0.55342 0.13692 0.0
C738 C 0.54156 0.53956 0.15441 0.0
C739 C 0.52871 0.51647 0.19461 0.0
H740 H 0.44913 0.40981 0.16796 0.0
H741 H 0.47449 0.43758 0.19972 0.0
H742 H 0.44924 0.46167 0.1219 0.0
H743 H 0.47432 0.48925 0.15333 0.0
H744 H 0.4182 0.44245 0.24444 0.0
H745 H 0.44853 0.46795 0.21583 0.0
H746 H 0.46512 0.44005 0.29726 0.0
H747 H 0.49562 0.4652 0.26835 0.0
H748 H 0.57685 0.59407 0.23426 0.0
H749 H 0.55078 0.56298 0.20816 0.0
H750 H 0.56331 0.55094 0.30071 0.0
H751 H 0.5398 0.51893 0.27323 0.0
H752 H 0.60292 0.55781 0.16895 0.0
H753 H 0.5737 0.53297 0.19978 0.0
H754 H 0.5535 0.55885 0.11929 0.0
H755 H 0.5245 0.53455 0.14995 0.0
N756 N 0.51148 0.49908 0.18254 0.0
N757 N 0.51021 0.50187 0.23524 0.0
C758 C 0.44665 0.0194 0.24762 0.0
C759 C 0.44103 0.00574 0.26992 0.0
C760 C 0.46542 0.02416 0.23268 0.0
C761 C 0.47774 0.01363 0.23821 0.0
C762 C 0.45504 0.99761 0.27732 0.0
C763 C 0.47275 1.00099 0.26134 0.0
C764 C 0.49625 0.01594 0.22112 0.0
C765 C 0.44033 1.00014 0.16361 0.0
C766 C 0.44618 0.01249 0.14019 0.0
C767 C 0.45667 1.0013 0.18059 0.0
C768 C 0.47919 0.01656 0.17601 0.0
C769 C 0.46874 0.02671 0.13485 0.0
C770 C 0.48493 0.02908 0.15274 0.0
C771 C 0.49726 0.01821 0.1933 0.0
C772 C 0.57197 0.0069 0.15698 0.0
C773 C 0.58194 0.02462 0.1392 0.0
C774 C 0.55678 0.00608 0.17563 0.0
C775 C 0.55142 0.02302 0.17677 0.0
C776 C 0.57726 0.04195 0.14104 0.0
C777 C 0.56197 0.04104 0.1595 0.0
C778 C 0.53298 0.02087 0.19335 0.0
C779 C 0.5858 0.02526 0.24826 0.0
C780 C 0.57799 0.00792 0.26655 0.0
C781 C 0.57086 0.02874 0.23348 0.0
C782 C 0.5479 0.0146 0.23642 0.0
C783 C 0.55515 0.99432 0.27017 0.0
C784 C 0.54026 0.99766 0.25529 0.0
C785 C 0.53144 0.01729 0.22069 0.0
H786 H 0.43646 0.02632 0.24167 0.0
H787 H 0.46977 0.03547 0.21634 0.0
H788 H 0.45157 0.9876 0.29482 0.0
H789 H 0.48228 0.99324 0.26692 0.0
H790 H 0.42309 0.98894 0.16828 0.0
H791 H 0.45157 0.99019 0.19721 0.0
H792 H 0.47388 0.03617 0.11681 0.0
H793 H 0.50211 0.04056 0.14809 0.0
H794 H 0.57526 0.9933 0.15571 0.0
H795 H 0.54852 0.99179 0.18836 0.0
H796 H 0.5847 0.05567 0.12739 0.0
H797 H 0.55791 0.05415 0.15985 0.0
H798 H 0.60342 0.03595 0.24531 0.0
H799 H 0.57729 0.04244 0.21983 0.0
H800 H 0.54885 0.98083 0.28414 0.0
H801 H 0.52268 0.98664 0.25818 0.0
N802 N 0.51328 0.01522 0.2333 0.0
N803 N 0.51584 0.02105 0.18095 0.0
C804 C 0.57485 0.01745 0.78795 0.0
C805 C 0.5729 0.01074 0.76161 0.0
C806 C 0.55604 0.01254 0.80274 0.0
C807 C 0.53476 0.99926 0.7922 0.0
C808 C 0.55171 0.99873 0.75053 0.0
C809 C 0.53285 0.99277 0.76576 0.0
C810 C 0.51442 0.99357 0.80752 0.0
C811 C 0.55633 0.97592 0.85959 0.0
C812 C 0.55878 0.98386 0.88546 0.0
C813 C 0.54023 0.9759 0.84304 0.0
C814 C 0.52742 0.98525 0.85153 0.0
C815 C 0.54469 0.99141 0.89449 0.0
C816 C 0.52951 0.99241 0.87771 0.0
C817 C 0.51127 0.98744 0.83441 0.0
C818 C 0.4196 0.97022 0.86146 0.0
C819 C 0.42538 0.98227 0.88503 0.0
C820 C 0.43618 0.97176 0.84445 0.0
C821 C 0.45861 0.98557 0.85081 0.0
C822 C 0.44772 0.9959 0.89133 0.0
C823 C 0.46416 0.9975 0.87444 0.0
C824 C 0.47679 0.9873 0.8341 0.0
C825 C 0.44056 0.01375 0.78665 0.0
C826 C 0.43679 0.00737 0.76016 0.0
C827 C 0.45466 0.0095 0.80189 0.0
C828 C 0.46422 0.99746 0.79154 0.0
C829 C 0.44708 0.99623 0.74939 0.0
C830 C 0.46042 0.9911 0.765 0.0
C831 C 0.47962 0.99298 0.80719 0.0
H832 H 0.591 0.02702 0.79688 0.0
H833 H 0.55822 0.01912 0.82242 0.0
H834 H 0.54976 0.99375 0.73013 0.0
H835 H 0.51671 0.98312 0.75681 0.0
H836 H 0.56692 0.96988 0.8522 0.0
H837 H 0.53824 0.96911 0.82349 0.0
H838 H 0.54607 0.99741 0.9144 0.0
H839 H 0.51969 0.99931 0.88521 0.0
H840 H 0.40237 0.95948 0.85647 0.0
H841 H 0.43153 0.96211 0.82655 0.0
H842 H 0.45242 0.00521 0.9095 0.0
H843 H 0.48134 0.00815 0.87983 0.0
H844 H 0.43316 0.02273 0.79531 0.0
H845 H 0.45836 0.01614 0.82157 0.0
H846 H 0.44477 0.99149 0.7289 0.0
H847 H 0.46794 0.98228 0.7562 0.0
N848 N 0.49827 0.99569 0.7951 0.0
N849 N 0.49264 0.98474 0.8463 0.0
C850 C 0.99484 0.56392 0.78425 0.0
C851 C 0.00665 0.5724 0.76081 0.0
C852 C 0.99845 0.54948 0.7997 0.0
C853 C 0.01418 0.5435 0.79216 0.0
C854 C 0.02223 0.56633 0.75306 0.0
C855 C 0.02584 0.55185 0.76855 0.0
C856 C 0.01748 0.52753 0.80796 0.0
C857 C 0.03864 0.58689 0.86234 0.0
C858 C 0.02633 0.58144 0.88574 0.0
C859 C 0.03654 0.57012 0.84531 0.0
C860 C 0.02205 0.54775 0.85152 0.0
C861 C 0.01174 0.55918 0.89171 0.0
C862 C 0.00967 0.54252 0.87483 0.0
C863 C 0.02065 0.52939 0.83537 0.0
C864 C 0.02819 0.44808 0.86387 0.0
C865 C 0.02061 0.44673 0.88976 0.0
C866 C 0.02847 0.46378 0.84639 0.0
C867 C 0.01986 0.47747 0.85402 0.0
C868 C 0.0132 0.4612 0.89772 0.0
C869 C 0.01249 0.47603 0.88006 0.0
C870 C 0.01938 0.49439 0.83644 0.0
C871 C 0.98843 0.43246 0.78674 0.0
C872 C 1.0004 0.43424 0.76383 0.0
C873 C 0.99342 0.45131 0.80149 0.0
C874 C 0.01075 0.47219 0.7938 0.0
C875 C 0.01738 0.4551 0.75578 0.0
C876 C 0.02243 0.47396 0.77058 0.0
C877 C 0.01589 0.49236 0.80892 0.0
H878 H 0.98264 0.56831 0.79042 0.0
H879 H 0.98868 0.54273 0.81734 0.0
H880 H 0.03143 0.57268 0.73497 0.0
H881 H 0.03782 0.54723 0.76215 0.0
H882 H 0.05011 0.60403 0.85758 0.0
H883 H 0.04662 0.57458 0.82775 0.0
H884 H 1.00218 0.55469 0.90971 0.0
H885 H 0.99847 0.52544 0.88014 0.0
H886 H 0.03409 0.43715 0.8573 0.0
H887 H 0.03552 0.46516 0.82711 0.0
H888 H 0.00738 0.46061 0.91759 0.0
H889 H 0.00599 0.48638 0.88694 0.0
H890 H 0.97517 0.41649 0.79312 0.0
H891 H 0.98374 0.4496 0.81888 0.0
H892 H 0.02671 0.45675 0.73808 0.0
H893 H 0.0356 0.48992 0.76404 0.0
N894 N 0.01539 0.50916 0.79583 0.0
N895 N 0.02155 0.51285 0.84823 0.0
C896 C 0.56142 0.5742 0.77734 0.0
C897 C 0.5704 0.56499 0.76017 0.0
C898 C 0.54248 0.5605 0.79207 0.0
C899 C 0.53253 0.53731 0.7904 0.0
C900 C 0.56002 0.54192 0.75761 0.0
C901 C 0.54125 0.52821 0.77258 0.0
C902 C 0.51264 0.52238 0.80627 0.0
C903 C 0.56422 0.5597 0.86888 0.0
C904 C 0.55924 0.57282 0.88527 0.0
C905 C 0.54857 0.54522 0.85088 0.0
C906 C 0.52771 0.54365 0.84908 0.0
C907 C 0.53873 0.57184 0.88288 0.0
C908 C 0.523 0.55719 0.86509 0.0
C909 C 0.50995 0.5262 0.83292 0.0
C910 C 0.42852 0.44238 0.86709 0.0
C911 C 0.41818 0.45112 0.88337 0.0
C912 C 0.44617 0.4559 0.85046 0.0
C913 C 0.45453 0.47882 0.84973 0.0
C914 C 0.4282 0.47449 0.88392 0.0
C915 C 0.44566 0.48794 0.86709 0.0
C916 C 0.47409 0.49375 0.83342 0.0
C917 C 0.42257 0.44664 0.77638 0.0
C918 C 0.42932 0.43351 0.7627 0.0
C919 C 0.43796 0.465 0.79079 0.0
C920 C 0.46025 0.47037 0.79179 0.0
C921 C 0.45163 0.43916 0.76321 0.0
C922 C 0.46699 0.4575 0.77752 0.0
C923 C 0.47693 0.48966 0.80689 0.0
H924 H 0.56916 0.59199 0.77943 0.0
H925 H 0.53565 0.56808 0.80472 0.0
H926 H 0.56676 0.53455 0.74445 0.0
H927 H 0.53379 0.51044 0.77058 0.0
H928 H 0.57991 0.56012 0.87068 0.0
H929 H 0.55241 0.53459 0.83917 0.0
H930 H 0.53459 0.58172 0.89556 0.0
H931 H 0.50694 0.55606 0.86423 0.0
H932 H 0.42368 0.42505 0.86765 0.0
H933 H 0.45371 0.44843 0.8388 0.0
H934 H 0.42361 0.48314 0.89772 0.0
H935 H 0.45256 0.50572 0.86804 0.0
H936 H 0.40541 0.44256 0.77602 0.0
H937 H 0.43246 0.47499 0.8011 0.0
H938 H 0.45712 0.42925 0.75269 0.0
H939 H 0.48411 0.46145 0.77778 0.0
N940 N 0.49608 0.50411 0.79447 0.0
N941 N 0.49074 0.5119 0.84524 0.0
C942 C 0.67331 0.7763 0.4989 0.0
C943 C 0.65683 0.76648 0.47965 0.0
C944 C 0.67261 0.79096 0.51717 0.0
C945 C 0.6553 0.79582 0.51655 0.0
C946 C 0.63924 0.77082 0.47948 0.0
C947 C 0.63854 0.78544 0.49769 0.0
C948 C 0.65577 0.81352 0.53313 0.0
C949 C 0.65074 0.76065 0.58766 0.0
C950 C 0.6684 0.76804 0.60538 0.0
C951 C 0.64747 0.7759 0.57332 0.0
C952 C 0.66203 0.79878 0.57617 0.0
C953 C 0.68247 0.79083 0.60897 0.0
C954 C 0.67925 0.80607 0.59457 0.0
C955 C 0.65939 0.81529 0.56048 0.0
C956 C 0.64332 0.88927 0.59235 0.0
C957 C 0.66251 0.90256 0.60703 0.0
C958 C 0.64165 0.87163 0.57739 0.0
C959 C 0.65911 0.86701 0.57708 0.0
C960 C 0.67959 0.89745 0.60735 0.0
C961 C 0.67781 0.87969 0.59271 0.0
C962 C 0.65816 0.84906 0.5607 0.0
C963 C 0.66537 0.90274 0.50377 0.0
C964 C 0.65544 0.89586 0.47898 0.0
C965 C 0.66546 0.88745 0.52154 0.0
C966 C 0.65394 0.86457 0.51597 0.0
C967 C 0.6442 0.87315 0.47322 0.0
C968 C 0.64306 0.85776 0.4916 0.0
C969 C 0.65497 0.84757 0.5331 0.0
H970 H 0.68714 0.77333 0.49907 0.0
H971 H 0.68606 0.79918 0.53102 0.0
H972 H 0.62651 0.76353 0.4646 0.0
H973 H 0.62518 0.7891 0.49664 0.0
H974 H 0.63967 0.74311 0.58475 0.0
H975 H 0.63362 0.76979 0.55992 0.0
H976 H 0.69617 0.79681 0.62258 0.0
H977 H 0.69056 0.82359 0.59737 0.0
H978 H 0.62991 0.89289 0.59201 0.0
H979 H 0.62692 0.8618 0.56579 0.0
H980 H 0.69447 0.90745 0.61864 0.0
H981 H 0.69134 0.87625 0.59295 0.0
H982 H 0.6742 0.92016 0.50879 0.0
H983 H 0.67545 0.89397 0.53891 0.0
H984 H 0.63648 0.86728 0.45426 0.0
H985 H 0.63415 0.84042 0.48624 0.0
N986 N 0.65375 0.82967 0.52077 0.0
N987 N 0.66051 0.83304 0.5731 0.0
C988 C 0.12142 0.7542 0.50105 0.0
C989 C 0.11469 0.75985 0.47776 0.0
C990 C 0.13594 0.77082 0.51825 0.0
C991 C 0.14382 0.79324 0.51234 0.0
C992 C 0.12232 0.78217 0.47209 0.0
C993 C 0.13679 0.79869 0.48915 0.0
C994 C 0.16092 0.81136 0.52854 0.0
C995 C 0.10068 0.77709 0.57992 0.0
C996 C 0.10382 0.76826 0.60315 0.0
C997 C 0.11881 0.79148 0.56451 0.0
C998 C 0.14041 0.79706 0.57188 0.0
C999 C 0.12535 0.77396 0.61076 0.0
C1000 C 0.14353 0.78837 0.59532 0.0
C1001 C 0.15982 0.81285 0.55607 0.0
C1002 C 0.23454 0.90622 0.57749 0.0
C1003 C 0.23843 0.90306 0.60374 0.0
C1004 C 0.22034 0.88825 0.56182 0.0
C1005 C 0.21075 0.86644 0.5714 0.0
C1006 C 0.22846 0.8814 0.61366 0.0
C1007 C 0.21502 0.86331 0.59758 0.0
C1008 C 0.19452 0.847 0.55563 0.0
C1009 C 0.25233 0.88214 0.49765 0.0
C1010 C 0.24645 0.8895 0.47502 0.0
C1011 C 0.23597 0.86811 0.5155 0.0
C1012 C 0.2136 0.86142 0.5109 0.0
C1013 C 0.22418 0.88287 0.47057 0.0
C1014 C 0.20793 0.86891 0.48826 0.0
C1015 C 0.19557 0.84523 0.52799 0.0
H1016 H 0.11581 0.73703 0.50558 0.0
H1017 H 0.14152 0.76619 0.53568 0.0
H1018 H 0.11736 0.78682 0.45416 0.0
H1019 H 0.14274 0.81583 0.48404 0.0
H1020 H 0.08418 0.773 0.57387 0.0
H1021 H 0.11595 0.7985 0.54704 0.0
H1022 H 0.12806 0.76733 0.62869 0.0
H1023 H 0.16002 0.79264 0.60159 0.0
H1024 H 0.24174 0.92278 0.56947 0.0
H1025 H 0.21639 0.89172 0.54256 0.0
H1026 H 0.23091 0.87852 0.63393 0.0
H1027 H 0.20759 0.84683 0.60585 0.0
H1028 H 0.26947 0.88702 0.50126 0.0
H1029 H 0.24068 0.86218 0.53255 0.0
H1030 H 0.21936 0.88833 0.45318 0.0
H1031 H 0.1908 0.86384 0.48416 0.0
N1032 N 0.17869 0.8276 0.51579 0.0
N1033 N 0.1767 0.83053 0.56846 0.0
C1034 C 0.25173 0.36445 0.50476 0.0
C1035 C 0.2456 0.35769 0.47864 0.0
C1036 C 0.23632 0.36444 0.52263 0.0
C1037 C 0.21408 0.35624 0.51516 0.0
C1038 C 0.22391 0.35108 0.47079 0.0
C1039 C 0.20835 0.34993 0.48879 0.0
C1040 C 0.19648 0.35503 0.5332 0.0
C1041 C 0.22818 0.32462 0.58293 0.0
C1042 C 0.23805 0.33643 0.60598 0.0
C1043 C 0.21444 0.32967 0.56803 0.0
C1044 C 0.21071 0.34692 0.5757 0.0
C1045 C 0.23406 0.35341 0.61393 0.0
C1046 C 0.22039 0.35852 0.59897 0.0
C1047 C 0.19538 0.35174 0.56077 0.0
C1048 C 0.10265 0.32972 0.58822 0.0
C1049 C 0.10644 0.34202 0.61134 0.0
C1050 C 0.12035 0.33305 0.57217 0.0
C1051 C 0.14216 0.34902 0.57875 0.0
C1052 C 0.1282 0.35776 0.6182 0.0
C1053 C 0.14593 0.36114 0.60209 0.0
C1054 C 0.16116 0.3522 0.56235 0.0
C1055 C 0.12014 0.36936 0.50682 0.0
C1056 C 0.11376 0.35644 0.48389 0.0
C1057 C 0.13534 0.36851 0.52415 0.0
C1058 C 0.14414 0.35462 0.51874 0.0
C1059 C 0.12224 0.34236 0.47882 0.0
C1060 C 0.13728 0.34149 0.49601 0.0
C1061 C 0.16189 0.35473 0.53484 0.0
H1062 H 0.26842 0.36978 0.51129 0.0
H1063 H 0.24199 0.37089 0.54209 0.0
H1064 H 0.21875 0.34595 0.45074 0.0
H1065 H 0.19162 0.34383 0.48188 0.0
H1066 H 0.23097 0.31137 0.57662 0.0
H1067 H 0.20663 0.32003 0.55061 0.0
H1068 H 0.24149 0.36262 0.63172 0.0
H1069 H 0.21742 0.3716 0.60553 0.0
H1070 H 0.08597 0.31738 0.58273 0.0
H1071 H 0.11698 0.32289 0.55482 0.0
H1072 H 0.13143 0.36735 0.63602 0.0
H1073 H 0.16261 0.3733 0.60779 0.0
H1074 H 0.11382 0.38043 0.51091 0.0
H1075 H 0.14068 0.37913 0.54125 0.0
H1076 H 0.11752 0.33233 0.4612 0.0
H1077 H 0.14386 0.33071 0.49131 0.0
N1078 N 0.17954 0.35626 0.52173 0.0
N1079 N 0.17799 0.35088 0.57417 0.0
C1080 C 0.99108 0.38093 0.10693 0.0
C1081 C 0.98265 0.38089 0.08162 0.0
C1082 C 0.96602 0.4022 0.09867 0.0
C1083 C 0.97792 0.40567 0.12234 0.0
N1084 N 1.00203 0.3987 0.14951 0.0
N1085 N 0.96285 0.39239 0.05267 0.0
C1086 C 0.99024 0.39483 0.12682 0.0
C1087 C 0.96989 0.39136 0.07737 0.0
N1088 N 0.99976 0.36752 0.11185 0.0
N1089 N 0.95115 0.40947 0.0966 0.0
H1090 H 0.96526 0.38471 0.03647 0.0
H1091 H 0.95592 0.40213 0.04781 0.0
H1092 H 0.94813 0.41758 0.1119 0.0
H1093 H 0.94038 0.40566 0.08083 0.0
H1094 H 0.00447 0.36525 0.13043 0.0
H1095 H 1.00028 0.35698 0.09765 0.0
H1096 H 0.01347 0.39348 0.15264 0.0
H1097 H 1.00128 0.40826 0.16479 0.0
C1098 C 0.62087 0.61135 0.1038 0.0
C1099 C 0.62125 0.60136 0.07969 0.0
C1100 C 0.60068 0.56466 0.09998 0.0
C1101 C 0.59727 0.57448 0.12256 0.0
N1102 N 0.60352 0.60693 0.14641 0.0
N1103 N 0.61035 0.56847 0.05385 0.0
C1104 C 0.60745 0.59781 0.12476 0.0
C1105 C 0.61119 0.578 0.0776 0.0
N1106 N 0.63361 0.63377 0.10668 0.0
N1107 N 0.59372 0.54254 0.09999 0.0
H1108 H 0.61778 0.57757 0.03694 0.0
H1109 H 0.60095 0.55153 0.05038 0.0
H1110 H 0.58574 0.53234 0.11603 0.0
H1111 H 0.59757 0.53471 0.0852 0.0
H1112 H 0.63571 0.64196 0.12444 0.0
H1113 H 0.64375 0.64406 0.09172 0.0
H1114 H 0.60815 0.62358 0.14789 0.0
H1115 H 0.5945 0.59754 0.16254 0.0
C1116 C 0.41758 0.02761 0.08701 0.0
C1117 C 0.39908 0.00664 0.0805 0.0
C1118 C 0.41216 0.98926 0.11208 0.0
C1119 C 0.429 0.01034 0.12084 0.0
N1120 N 0.44197 0.04961 0.12205 0.0
N1121 N 0.37486 0.96915 0.0957 0.0
C1122 C 0.42985 0.02956 0.11009 0.0
C1123 C 0.39509 0.98795 0.09583 0.0
N1124 N 0.42463 0.04541 0.0707 0.0
N1125 N 0.41291 0.97052 0.11779 0.0
H1126 H 0.36115 0.96818 0.08624 0.0
H1127 H 0.37108 0.95575 0.10796 0.0
H1128 H 0.42614 0.97072 0.1275 0.0
H1129 H 0.40165 0.95513 0.10994 0.0
H1130 H 0.43915 0.06033 0.07413 0.0
H1131 H 0.41788 0.04468 0.05232 0.0
H1132 H 0.44163 0.0637 0.11589 0.0
H1133 H 0.45011 0.0515 0.13982 0.0
C1134 C 0.38609 0.99527 0.92285 0.0
C1135 C 0.38417 0.98373 0.94652 0.0
C1136 C 0.40363 0.96638 0.92609 0.0
C1137 C 0.40841 0.98041 0.90406 0.0
N1138 N 0.4053 0.00902 0.88138 0.0
N1139 N 0.39344 0.96024 0.97197 0.0
C1140 C 0.39977 0.99496 0.90228 0.0
C1141 C 0.39328 0.96953 0.94841 0.0
N1142 N 0.37442 0.00608 0.91987 0.0
N1143 N 0.40912 0.95009 0.92565 0.0
H1144 H 0.3866 0.96249 0.98908 0.0
H1145 H 0.4021 0.95187 0.9752 0.0
H1146 H 0.41695 0.94755 0.90965 0.0
H1147 H 0.40409 0.93787 0.93996 0.0
H1148 H 0.3734 0.01308 0.90227 0.0
H1149 H 0.36404 0.0063 0.93447 0.0
H1150 H 0.4018 0.02187 0.88041 0.0
H1151 H 0.41455 0.0086 0.8655 0.0
C1152 C 0.03572 0.41266 0.93574 0.0
C1153 C 0.01607 0.40192 0.95112 0.0
C1154 C 0.99845 0.41563 0.92084 0.0
C1155 C 0.0191 0.42968 0.90871 0.0
N1156 N 0.05867 0.44418 0.90813 0.0
N1157 N 0.9809 0.39936 0.96188 0.0
C1158 C 0.03815 0.42891 0.91701 0.0
C1159 C 0.99794 0.40499 0.94463 0.0
N1160 N 0.05171 0.40693 0.9382 0.0
N1161 N 0.97926 0.41239 0.90971 0.0
H1162 H 0.98084 0.39397 0.98095 0.0
H1163 H 0.96832 0.40301 0.95847 0.0
H1164 H 0.97892 0.4193 0.89168 0.0
H1165 H 0.96369 0.40089 0.91695 0.0
H1166 H 0.06541 0.413 0.92578 0.0
H1167 H 0.05006 0.39428 0.95053 0.0
H1168 H 0.07318 0.44556 0.91567 0.0
H1169 H 0.06132 0.45679 0.89512 0.0
C1170 C 0.58631 0.58838 0.95262 0.0
C1171 C 0.60368 0.61034 0.9479 0.0
C1172 C 0.59243 0.60755 0.90178 0.0
C1173 C 0.5746 0.5859 0.90677 0.0
N1174 N 0.55288 0.55621 0.93695 0.0
N1175 N 0.62239 0.64192 0.91937 0.0
C1176 C 0.57109 0.57645 0.93222 0.0
C1177 C 0.60645 0.62028 0.92285 0.0
N1178 N 0.58453 0.57885 0.97664 0.0
N1179 N 0.59615 0.61567 0.87673 0.0
H1180 H 0.63351 0.65136 0.93406 0.0
H1181 H 0.62397 0.651 0.90253 0.0
H1182 H 0.58578 0.60706 0.86109 0.0
H1183 H 0.61008 0.6303 0.87097 0.0
H1184 H 0.57425 0.56209 0.98051 0.0
H1185 H 0.59415 0.58748 0.99278 0.0
H1186 H 0.54771 0.54947 0.95556 0.0
H1187 H 0.54197 0.5464 0.92229 0.0
C1188 C 0.01745 0.62393 0.9227 0.0
C1189 C 0.0262 0.62309 0.94751 0.0
C1190 C 0.0412 0.60102 0.92832 0.0
C1191 C 0.0291 0.59861 0.90507 0.0
N1192 N 0.00504 0.60705 0.87987 0.0
N1193 N 0.04507 0.60936 0.97475 0.0
C1194 C 0.01726 0.61011 0.90202 0.0
C1195 C 0.03809 0.61157 0.95049 0.0
N1196 N 0.00965 0.63823 0.91891 0.0
N1197 N 0.05559 0.59309 0.92917 0.0
H1198 H 0.04301 0.61659 0.99163 0.0
H1199 H 0.0514 0.59892 0.97859 0.0
H1200 H 0.05812 0.58519 0.91323 0.0
H1201 H 0.06652 0.59619 0.94461 0.0
H1202 H 0.00479 0.64107 0.90071 0.0
H1203 H 0.01009 0.64889 0.93357 0.0
H1204 H 0.99394 0.61283 0.87779 0.0
H1205 H 0.00503 0.59756 0.86404 0.0
C1206 C 0.38809 0.43127 0.94776 0.0
C1207 C 0.38139 0.40844 0.94613 0.0
C1208 C 0.38795 0.41263 0.89852 0.0
C1209 C 0.3993 0.43595 0.90175 0.0
N1210 N 0.38999 0.46125 0.92258 0.0
N1211 N 0.37122 0.37638 0.91896 0.0
C1212 C 0.39383 0.44397 0.92444 0.0
C1213 C 0.37997 0.39874 0.9211 0.0
N1214 N 0.38977 0.4412 0.97138 0.0
N1215 N 0.38267 0.40403 0.87381 0.0
H1216 H 0.36329 0.36557 0.93453 0.0
H1217 H 0.37234 0.36865 0.902 0.0
H1218 H 0.38621 0.41423 0.8574 0.0
H1219 H 0.37282 0.38723 0.86978 0.0
H1220 H 0.39643 0.45827 0.97311 0.0
H1221 H 0.38628 0.43282 0.98922 0.0
H1222 H 0.38429 0.46661 0.93832 0.0
H1223 H 0.38882 0.46737 0.90433 0.0
C1224 C 0.59517 0.97052 0.92961 0.0
C1225 C 0.60601 0.99046 0.94443 0.0
C1226 C 0.59132 0.00708 0.91407 0.0
C1227 C 0.57687 0.98606 0.90308 0.0
N1228 N 0.563 0.94661 0.9035 0.0
N1229 N 0.60854 0.02581 0.95412 0.0
C1230 C 0.57828 0.9674 0.91154 0.0
C1231 C 0.60269 0.00836 0.93751 0.0
N1232 N 0.60136 0.95486 0.93208 0.0
N1233 N 0.59402 0.02587 0.9023 0.0
H1234 H 0.61429 0.02645 0.97312 0.0
H1235 H 0.60469 0.03821 0.95037 0.0
H1236 H 0.58644 0.02557 0.88456 0.0
H1237 H 0.60571 0.04167 0.90867 0.0
H1238 H 0.59514 0.94091 0.9201 0.0
H1239 H 0.61455 0.9571 0.94383 0.0
H1240 H 0.56212 0.93238 0.91128 0.0
H1241 H 0.55 0.94349 0.89093 0.0
C1242 C 0.59946 0.01922 0.06994 0.0
C1243 C 0.61991 0.02019 0.07489 0.0
C1244 C 0.61726 0.02781 0.12139 0.0
C1245 C 0.59549 0.02393 0.11696 0.0
N1246 N 0.56457 0.01299 0.08764 0.0
N1247 N 0.64803 0.02401 0.10518 0.0
C1248 C 0.58629 0.01901 0.09135 0.0
C1249 C 0.62887 0.0243 0.10057 0.0
N1250 N 0.59274 0.01869 0.04463 0.0
N1251 N 0.6269 0.03521 0.14536 0.0
H1252 H 0.65725 0.02223 0.09019 0.0
H1253 H 0.65414 0.02429 0.12387 0.0
H1254 H 0.61878 0.03781 0.16099 0.0
H1255 H 0.64344 0.04041 0.14919 0.0
H1256 H 0.57912 0.02025 0.03958 0.0
H1257 H 0.60203 0.01882 0.02848 0.0
H1258 H 0.55626 0.00679 0.07 0.0
H1259 H 0.55417 0.01231 0.10279 0.0
C1260 C 0.99912 0.61243 0.10382 0.0
C1261 C 0.99041 0.60342 0.07877 0.0
C1262 C 0.97489 0.56597 0.0968 0.0
C1263 C 0.9867 0.57503 0.12039 0.0
N1264 N 0.01108 0.60684 0.14638 0.0
N1265 N 0.97186 0.57146 0.05047 0.0
C1266 C 0.99892 0.59828 0.12406 0.0
C1267 C 0.97847 0.58012 0.07505 0.0
N1268 N 0.00719 0.63447 0.10835 0.0
N1269 N 0.96021 0.54378 0.09524 0.0
H1270 H 0.97443 0.5811 0.03383 0.0
H1271 H 0.96547 0.55476 0.04616 0.0
H1272 H 0.95729 0.53297 0.11085 0.0
H1273 H 0.94945 0.53646 0.07954 0.0
H1274 H 0.01189 0.64172 0.12682 0.0
H1275 H 0.00719 0.64516 0.09405 0.0
H1276 H 0.02241 0.62359 0.14888 0.0
H1277 H 0.0109 0.59699 0.16186 0.0
C1278 C 0.43085 0.40773 0.07526 0.0
C1279 C 0.40759 0.39418 0.07827 0.0
C1280 C 0.41057 0.40449 0.12479 0.0
C1281 C 0.43382 0.41776 0.12182 0.0
N1282 N 0.46666 0.42757 0.09651 0.0
N1283 N 0.37614 0.37506 0.10701 0.0
C1284 C 0.44413 0.41784 0.09776 0.0
C1285 C 0.39771 0.39113 0.10344 0.0
N1286 N 0.44014 0.41213 0.05078 0.0
N1287 N 0.40068 0.40538 0.14758 0.0
H1288 H 0.3665 0.3646 0.0919 0.0
H1289 H 0.36849 0.37064 0.12531 0.0
H1290 H 0.40962 0.41458 0.16382 0.0
H1291 H 0.38362 0.39816 0.14982 0.0
H1292 H 0.45659 0.42394 0.04716 0.0
H1293 H 0.43108 0.40531 0.0337 0.0
H1294 H 0.47507 0.42629 0.0803 0.0
H1295 H 0.47684 0.43513 0.11267 0.0
C1296 C 0.65655 0.71938 0.4409 0.0
C1297 C 0.66294 0.72932 0.41575 0.0
C1298 C 0.66712 0.76397 0.43321 0.0
C1299 C 0.65916 0.75358 0.45789 0.0
N1300 N 0.64345 0.72076 0.48469 0.0
N1301 N 0.67007 0.75939 0.38656 0.0
C1302 C 0.65304 0.73106 0.4616 0.0
C1303 C 0.66704 0.75116 0.41152 0.0
N1304 N 0.65467 0.69916 0.44521 0.0
N1305 N 0.6754 0.78626 0.4307 0.0
H1306 H 0.66986 0.75044 0.37005 0.0
H1307 H 0.67072 0.77424 0.38192 0.0
H1308 H 0.67567 0.79628 0.44607 0.0
H1309 H 0.68376 0.7952 0.41406 0.0
H1310 H 0.65245 0.69206 0.46372 0.0
H1311 H 0.65694 0.69011 0.43044 0.0
H1312 H 0.63645 0.70381 0.48768 0.0
H1313 H 0.64104 0.72896 0.50037 0.0
C1314 C 0.28955 0.94045 0.4381 0.0
C1315 C 0.28741 0.93122 0.4127 0.0
C1316 C 0.26413 0.89407 0.43097 0.0
C1317 C 0.26319 0.90366 0.45513 0.0
N1318 N 0.27406 0.93602 0.48181 0.0
N1319 N 0.2711 0.89924 0.38425 0.0
C1320 C 0.27587 0.92687 0.45888 0.0
C1321 C 0.27459 0.90797 0.40897 0.0
N1322 N 0.30495 0.96214 0.44239 0.0
N1323 N 0.25495 0.87163 0.42914 0.0
H1324 H 0.27818 0.90874 0.3675 0.0
H1325 H 0.25978 0.88276 0.38006 0.0
H1326 H 0.24712 0.86105 0.44494 0.0
H1327 H 0.25694 0.86373 0.41287 0.0
H1328 H 0.30874 0.96939 0.46091 0.0
H1329 H 0.31551 0.97237 0.42767 0.0
H1330 H 0.28076 0.95298 0.48454 0.0
H1331 H 0.26464 0.92657 0.49769 0.0
C1332 C 0.06227 0.34371 0.44464 0.0
C1333 C 0.07229 0.354 0.42049 0.0
C1334 C 0.10883 0.37123 0.44136 0.0
C1335 C 0.09911 0.35815 0.46402 0.0
N1336 N 0.06679 0.3313 0.48748 0.0
N1337 N 0.10541 0.37597 0.3949 0.0
C1338 C 0.07583 0.34437 0.46587 0.0
C1339 C 0.09564 0.36766 0.41866 0.0
N1340 N 0.03981 0.33369 0.44738 0.0
N1341 N 0.13074 0.38703 0.44157 0.0
H1342 H 0.09652 0.37353 0.37762 0.0
H1343 H 0.12243 0.38378 0.3918 0.0
H1344 H 0.14087 0.38986 0.45784 0.0
H1345 H 0.13834 0.39864 0.42668 0.0
H1346 H 0.03158 0.32765 0.46513 0.0
H1347 H 0.02951 0.33326 0.4323 0.0
H1348 H 0.05028 0.31892 0.48873 0.0
H1349 H 0.07617 0.33202 0.50376 0.0
C1350 C 0.0701 0.31087 0.28704 0.0
C1351 C 0.06034 0.32451 0.28557 0.0
C1352 C 0.07343 0.33446 0.24017 0.0
C1353 C 0.08283 0.32055 0.24156 0.0
N1354 N 0.08578 0.2916 0.26355 0.0
N1355 N 0.0481 0.34504 0.25917 0.0
C1356 C 0.07964 0.3074 0.26411 0.0
C1357 C 0.06059 0.33501 0.2616 0.0
N1358 N 0.07159 0.30241 0.31064 0.0
N1359 N 0.07747 0.34774 0.21876 0.0
H1360 H 0.0382 0.34541 0.27433 0.0
H1361 H 0.04589 0.35116 0.24151 0.0
H1362 H 0.0861 0.34715 0.20232 0.0
H1363 H 0.07343 0.36023 0.21788 0.0
H1364 H 0.08078 0.29454 0.31349 0.0
H1365 H 0.06519 0.30482 0.32804 0.0
H1366 H 0.08188 0.27994 0.27836 0.0
H1367 H 0.09301 0.28881 0.24712 0.0
C1368 C 0.67729 0.72853 0.25943 0.0
C1369 C 0.68812 0.73861 0.28328 0.0
C1370 C 0.70427 0.7752 0.26268 0.0
C1371 C 0.69078 0.76535 0.24038 0.0
N1372 N 0.66394 0.7329 0.21718 0.0
N1373 N 0.71049 0.77163 0.30869 0.0
C1374 C 0.67732 0.74203 0.23851 0.0
C1375 C 0.70155 0.76197 0.28511 0.0
N1376 N 0.66734 0.70606 0.25673 0.0
N1377 N 0.7196 0.79725 0.26237 0.0
H1378 H 0.70879 0.76263 0.3257 0.0
H1379 H 0.71818 0.7886 0.312 0.0
H1380 H 0.72175 0.80741 0.24632 0.0
H1381 H 0.73148 0.80504 0.27691 0.0
H1382 H 0.66093 0.6978 0.2391 0.0
H1383 H 0.66723 0.69577 0.27164 0.0
H1384 H 0.65174 0.71632 0.216 0.0
H1385 H 0.66424 0.74224 0.20104 0.0
C1386 C 0.24602 0.94234 0.2881 0.0
C1387 C 0.26929 0.95438 0.28396 0.0
C1388 C 0.26405 0.94185 0.23816 0.0
C1389 C 0.24086 0.92989 0.24238 0.0
N1390 N 0.20947 0.9236 0.26854 0.0
N1391 N 0.29997 0.97035 0.25375 0.0
C1392 C 0.23178 0.93186 0.26644 0.0
C1393 C 0.27814 0.95567 0.25849 0.0
N1394 N 0.23754 0.93946 0.31292 0.0
N1395 N 0.27267 0.9392 0.21523 0.0
H1396 H 0.31057 0.98092 0.2682 0.0
H1397 H 0.30705 0.97356 0.23512 0.0
H1398 H 0.26283 0.92965 0.19969 0.0
H1399 H 0.28951 0.94536 0.21219 0.0
H1400 H 0.22098 0.92862 0.31738 0.0
H1401 H 0.24723 0.94645 0.32953 0.0
H1402 H 0.20204 0.92642 0.28471 0.0
H1403 H 0.19861 0.91576 0.253 0.0
C1404 C 0.69804 0.93884 0.28246 0.0
C1405 C 0.68669 0.95093 0.28019 0.0
C1406 C 0.67533 0.937 0.23541 0.0
C1407 C 0.68693 0.92518 0.2376 0.0
N1408 N 0.71365 0.91897 0.26022 0.0
N1409 N 0.66939 0.96606 0.2528 0.0
C1410 C 0.69975 0.92753 0.26018 0.0
C1411 C 0.67681 0.95141 0.25608 0.0
N1412 N 0.70603 0.93706 0.30626 0.0
N1413 N 0.66226 0.93381 0.21404 0.0
H1414 H 0.67086 0.97722 0.26739 0.0
H1415 H 0.66377 0.96865 0.23498 0.0
H1416 H 0.6613 0.92388 0.19821 0.0
H1417 H 0.65136 0.9399 0.21269 0.0
H1418 H 0.71208 0.92634 0.30982 0.0
H1419 H 0.70509 0.94501 0.32315 0.0
H1420 H 0.7251 0.92204 0.27501 0.0
H1421 H 0.71519 0.91048 0.24423 0.0
C1422 C 0.06606 0.759 0.28922 0.0
C1423 C 0.05497 0.73571 0.28546 0.0
C1424 C 0.06781 0.74096 0.23977 0.0
C1425 C 0.07873 0.76419 0.24355 0.0
N1426 N 0.08365 0.79537 0.26911 0.0
N1427 N 0.04059 0.70465 0.25588 0.0
C1428 C 0.07623 0.7732 0.26739 0.0
C1429 C 0.05436 0.72673 0.26026 0.0
N1430 N 0.06824 0.7676 0.31387 0.0
N1431 N 0.07106 0.73252 0.21707 0.0
H1432 H 0.03026 0.69391 0.27041 0.0
H1433 H 0.03781 0.69737 0.23741 0.0
H1434 H 0.08029 0.74245 0.20137 0.0
H1435 H 0.06575 0.71581 0.21435 0.0
H1436 H 0.0784 0.7843 0.31818 0.0
H1437 H 0.06136 0.7579 0.33054 0.0
H1438 H 0.08038 0.80265 0.28506 0.0
H1439 H 0.0913 0.80621 0.25347 0.0
C1440 C 0.2629 0.30553 0.27045 0.0
C1441 C 0.27305 0.32562 0.28506 0.0
C1442 C 0.25864 0.34148 0.25329 0.0
C1443 C 0.24489 0.32036 0.24216 0.0
N1444 N 0.23151 0.28101 0.24357 0.0
N1445 N 0.27356 0.36015 0.29402 0.0
C1446 C 0.24636 0.30195 0.25157 0.0
C1447 C 0.2691 0.34299 0.27746 0.0
N1448 N 0.26946 0.29022 0.27375 0.0
N1449 N 0.26157 0.36014 0.24097 0.0
H1450 H 0.27829 0.36064 0.3135 0.0
H1451 H 0.26938 0.3722 0.28956 0.0
H1452 H 0.25479 0.35971 0.2226 0.0
H1453 H 0.27275 0.37599 0.2477 0.0
H1454 H 0.26372 0.27621 0.26194 0.0
H1455 H 0.28244 0.29276 0.28603 0.0
H1456 H 0.23069 0.26697 0.2519 0.0
H1457 H 0.21876 0.27757 0.23045 0.0
C1458 C 0.29456 0.37138 0.43242 0.0
C1459 C 0.28489 0.35198 0.41657 0.0
C1460 C 0.2533 0.33521 0.44659 0.0
C1461 C 0.2608 0.35574 0.45943 0.0
N1462 N 0.2874 0.39489 0.46108 0.0
N1463 N 0.25103 0.31847 0.40472 0.0
C1464 C 0.28118 0.37432 0.45147 0.0
C1465 C 0.26313 0.33468 0.42258 0.0
N1466 N 0.31652 0.38658 0.43013 0.0
N1467 N 0.23675 0.31613 0.45727 0.0
H1468 H 0.25626 0.31872 0.38549 0.0
H1469 H 0.23452 0.30655 0.40791 0.0
H1470 H 0.22973 0.31572 0.47552 0.0
H1471 H 0.23194 0.30058 0.44936 0.0
H1472 H 0.32462 0.39996 0.44288 0.0
H1473 H 0.32714 0.38455 0.41749 0.0
H1474 H 0.30103 0.4092 0.45389 0.0
H1475 H 0.27784 0.39789 0.47439 0.0
C1476 C 0.68 0.94613 0.43321 0.0
C1477 C 0.66216 0.94044 0.41563 0.0
C1478 C 0.63865 0.90941 0.44475 0.0
C1479 C 0.65764 0.91224 0.45843 0.0
N1480 N 0.69773 0.93126 0.46025 0.0
N1481 N 0.62478 0.913 0.40285 0.0
C1482 C 0.67874 0.9301 0.45128 0.0
C1483 C 0.64142 0.92117 0.42093 0.0
N1484 N 0.69798 0.96696 0.43324 0.0
N1485 N 0.61798 0.89581 0.4546 0.0
H1486 H 0.62632 0.91972 0.38424 0.0
H1487 H 0.61025 0.89789 0.40529 0.0
H1488 H 0.61535 0.88775 0.4726 0.0
H1489 H 0.60376 0.89465 0.44637 0.0
H1490 H 0.71061 0.97209 0.44706 0.0
H1491 H 0.69881 0.97978 0.42185 0.0
H1492 H 0.71336 0.94317 0.45363 0.0
H1493 H 0.69787 0.91893 0.47163 0.0
C1494 C 0.06383 0.7164 0.4411 0.0
C1495 C 0.0734 0.71752 0.41613 0.0
C1496 C 0.11036 0.74081 0.43477 0.0
C1497 C 0.10054 0.74279 0.45824 0.0
N1498 N 0.06791 0.73334 0.48385 0.0
N1499 N 0.10584 0.73242 0.38836 0.0
C1500 C 0.07725 0.7306 0.46159 0.0
C1501 C 0.09673 0.72985 0.41279 0.0
N1502 N 0.04197 0.70147 0.44524 0.0
N1503 N 0.13277 0.74945 0.43355 0.0
H1504 H 0.09657 0.72493 0.3716 0.0
H1505 H 0.12244 0.74339 0.38429 0.0
H1506 H 0.14319 0.75763 0.44934 0.0
H1507 H 0.14075 0.74668 0.41794 0.0
H1508 H 0.03438 0.69843 0.46357 0.0
H1509 H 0.03191 0.69052 0.43073 0.0
H1510 H 0.05095 0.72699 0.48614 0.0
H1511 H 0.07724 0.74319 0.49951 0.0
C1512 C 0.30619 0.05336 0.76204 0.0
C1513 C 0.32708 0.05641 0.75386 0.0
C1514 C 0.34524 0.08561 0.78678 0.0
C1515 C 0.32432 0.08103 0.79674 0.0
N1516 N 0.285 0.05535 0.79853 0.0
N1517 N 0.36527 0.0699 0.76569 0.0
C1518 C 0.30481 0.06317 0.78592 0.0
C1519 C 0.34623 0.07076 0.76855 0.0
N1520 N 0.28791 0.04254 0.74649 0.0
N1521 N 0.36411 0.1047 0.79325 0.0
H1522 H 0.36612 0.05802 0.75409 0.0
H1523 H 0.37914 0.07903 0.77745 0.0
H1524 H 0.36416 0.11705 0.80482 0.0
H1525 H 0.37935 0.10936 0.78451 0.0
H1526 H 0.27297 0.04185 0.75087 0.0
H1527 H 0.28818 0.03652 0.72789 0.0
H1528 H 0.27066 0.04117 0.79248 0.0
H1529 H 0.28352 0.06154 0.81661 0.0
C1530 C 0.95815 0.26942 0.7765 0.0
C1531 C 0.94995 0.26481 0.75047 0.0
C1532 C 0.91654 0.23148 0.76545 0.0
C1533 C 0.92511 0.23543 0.79137 0.0
N1534 N 0.95557 0.2558 0.82098 0.0
N1535 N 0.92403 0.23927 0.71905 0.0
C1536 C 0.94642 0.25372 0.79673 0.0
C1537 C 0.93 0.24509 0.74463 0.0
N1538 N 0.97672 0.28911 0.78198 0.0
N1539 N 0.89511 0.21545 0.76089 0.0
H1540 H 0.9335 0.24891 0.70329 0.0
H1541 H 0.91091 0.22398 0.71341 0.0
H1542 H 0.88449 0.20531 0.7756 0.0
H1543 H 0.88718 0.21347 0.74298 0.0
H1544 H 0.98218 0.29468 0.80094 0.0
H1545 H 0.98603 0.30056 0.76746 0.0
H1546 H 0.97186 0.26749 0.82546 0.0
H1547 H 0.94737 0.24465 0.83619 0.0
C1548 C 0.75594 0.70426 0.75462 0.0
C1549 C 0.73627 0.68357 0.75067 0.0
C1550 C 0.7477 0.66757 0.78576 0.0
C1551 C 0.76596 0.68869 0.79185 0.0
N1552 N 0.78254 0.72832 0.78681 0.0
N1553 N 0.71001 0.64881 0.77064 0.0
C1554 C 0.76853 0.70746 0.77782 0.0
C1555 C 0.73104 0.66625 0.76885 0.0
N1556 N 0.76361 0.7204 0.7359 0.0
N1557 N 0.74666 0.6486 0.79462 0.0
H1558 H 0.69693 0.64863 0.76055 0.0
H1559 H 0.70527 0.63645 0.78478 0.0
H1560 H 0.7595 0.64844 0.80485 0.0
H1561 H 0.73419 0.63294 0.78884 0.0
H1562 H 0.77892 0.73484 0.73739 0.0
H1563 H 0.75618 0.7185 0.71769 0.0
H1564 H 0.78357 0.74238 0.77826 0.0
H1565 H 0.79108 0.73131 0.80448 0.0
C1566 C 0.71663 0.65164 0.59307 0.0
C1567 C 0.72614 0.65707 0.61848 0.0
C1568 C 0.76043 0.65998 0.6015 0.0
C1569 C 0.75038 0.65292 0.57652 0.0
N1570 N 0.7182 0.63929 0.54892 0.0
N1571 N 0.75534 0.66253 0.64814 0.0
C1572 C 0.72825 0.64797 0.57239 0.0
C1573 C 0.74757 0.66017 0.62304 0.0
N1574 N 0.69688 0.65075 0.58854 0.0
N1575 N 0.7825 0.66721 0.60446 0.0
H1576 H 0.74642 0.6627 0.66451 0.0
H1577 H 0.76974 0.66233 0.65303 0.0
H1578 H 0.79253 0.66725 0.58922 0.0
H1579 H 0.79134 0.67493 0.62138 0.0
H1580 H 0.69018 0.64928 0.56993 0.0
H1581 H 0.68787 0.65309 0.60331 0.0
H1582 H 0.70142 0.63314 0.54552 0.0
H1583 H 0.72635 0.63675 0.53328 0.0
C1584 C 0.34306 0.06088 0.59292 0.0
C1585 C 0.33783 0.06543 0.61827 0.0
C1586 C 0.33396 0.0959 0.60025 0.0
C1587 C 0.34174 0.09304 0.57564 0.0
N1588 N 0.35602 0.07446 0.54887 0.0
N1589 N 0.33225 0.08979 0.64708 0.0
C1590 C 0.34688 0.07592 0.57201 0.0
C1591 C 0.33422 0.08356 0.62222 0.0
N1592 N 0.34365 0.04182 0.58865 0.0
N1593 N 0.32588 0.11012 0.60251 0.0
H1594 H 0.33295 0.08165 0.66387 0.0
H1595 H 0.33209 0.10434 0.65122 0.0
H1596 H 0.32536 0.11946 0.58683 0.0
H1597 H 0.31779 0.11111 0.61921 0.0
H1598 H 0.34513 0.03643 0.5701 0.0
H1599 H 0.3407 0.03034 0.60344 0.0
H1600 H 0.36241 0.06393 0.54602 0.0
H1601 H 0.35869 0.08496 0.53302 0.0
C1602 C 0.93547 0.26062 0.61237 0.0
C1603 C 0.93817 0.28157 0.61956 0.0
C1604 C 0.91213 0.27744 0.58464 0.0
C1605 C 0.91174 0.2579 0.57579 0.0
N1606 N 0.92958 0.23582 0.57638 0.0
N1607 N 0.93356 0.31249 0.60693 0.0
C1608 C 0.92571 0.25124 0.58797 0.0
C1609 C 0.92788 0.29083 0.604 0.0
N1610 N 0.94044 0.24865 0.62947 0.0
N1611 N 0.89693 0.28277 0.57571 0.0
H1612 H 0.94601 0.32326 0.61961 0.0
H1613 H 0.92775 0.32034 0.59451 0.0
H1614 H 0.88458 0.27306 0.56232 0.0
H1615 H 0.89531 0.29569 0.58359 0.0
H1616 H 0.93704 0.2326 0.62536 0.0
H1617 H 0.94486 0.2532 0.64895 0.0
H1618 H 0.941 0.23171 0.58379 0.0
H1619 H 0.92332 0.22915 0.55794 0.0
C1620 C 0.36491 0.27302 0.61846 0.0
C1621 C 0.35235 0.28386 0.61581 0.0
C1622 C 0.34336 0.27087 0.57032 0.0
C1623 C 0.356 0.26015 0.573 0.0
N1624 N 0.38321 0.2555 0.59674 0.0
N1625 N 0.33418 0.29771 0.58784 0.0
C1626 C 0.3683 0.26281 0.59615 0.0
C1627 C 0.34302 0.28424 0.59123 0.0
N1628 N 0.37232 0.27112 0.6426 0.0
N1629 N 0.33098 0.26751 0.54825 0.0
H1630 H 0.33403 0.30791 0.60272 0.0
H1631 H 0.32892 0.30034 0.5698 0.0
H1632 H 0.33142 0.25841 0.53223 0.0
H1633 H 0.31935 0.27264 0.54637 0.0
H1634 H 0.3792 0.26113 0.64626 0.0
H1635 H 0.37007 0.27811 0.65957 0.0
H1636 H 0.3943 0.25888 0.61206 0.0
H1637 H 0.38592 0.2478 0.58073 0.0
C1638 C 0.7324 0.09151 0.61303 0.0
C1639 C 0.72318 0.06819 0.61148 0.0
C1640 C 0.73944 0.07204 0.56767 0.0
C1641 C 0.74792 0.09521 0.56897 0.0
N1642 N 0.74847 0.12648 0.58983 0.0
N1643 N 0.71412 0.0358 0.58566 0.0
C1644 C 0.74298 0.10473 0.59064 0.0
C1645 C 0.72556 0.0583 0.58825 0.0
N1646 N 0.73247 0.10125 0.63637 0.0
N1647 N 0.74522 0.0633 0.54716 0.0
H1648 H 0.70377 0.02532 0.60032 0.0
H1649 H 0.71337 0.02759 0.56829 0.0
H1650 H 0.75459 0.07279 0.53126 0.0
H1651 H 0.74182 0.04698 0.54654 0.0
H1652 H 0.74117 0.11829 0.63938 0.0
H1653 H 0.72559 0.09239 0.65359 0.0
H1654 H 0.74321 0.13379 0.60379 0.0
H1655 H 0.75657 0.13676 0.57389 0.0
C1656 C 0.9157 0.65633 0.62319 0.0
C1657 C 0.9347 0.65442 0.61825 0.0
C1658 C 0.92375 0.64554 0.57214 0.0
C1659 C 0.9061 0.6498 0.57656 0.0
N1660 N 0.88712 0.66251 0.60524 0.0
N1661 N 0.95828 0.64919 0.58802 0.0
C1662 C 0.90252 0.65602 0.60184 0.0
C1663 C 0.9391 0.64946 0.59272 0.0
N1664 N 0.90996 0.65789 0.64845 0.0
N1665 N 0.92552 0.63733 0.54847 0.0
H1666 H 0.96954 0.65145 0.6028 0.0
H1667 H 0.96374 0.64813 0.56934 0.0
H1668 H 0.91469 0.63452 0.53296 0.0
H1669 H 0.93662 0.63176 0.54477 0.0
H1670 H 0.89507 0.65701 0.65357 0.0
H1671 H 0.91913 0.65798 0.66462 0.0
H1672 H 0.88554 0.66964 0.62248 0.0
H1673 H 0.8771 0.66258 0.59013 0.0
C1674 C 0.93056 0.68537 0.74208 0.0
C1675 C 0.95052 0.68538 0.74726 0.0
C1676 C 0.94725 0.6917 0.79402 0.0
C1677 C 0.92611 0.68931 0.78915 0.0
N1678 N 0.8959 0.68016 0.7593 0.0
N1679 N 0.97716 0.6864 0.77802 0.0
C1680 C 0.91731 0.68521 0.76335 0.0
C1681 C 0.95874 0.68801 0.77322 0.0
N1682 N 0.92445 0.68588 0.71673 0.0
N1683 N 0.95653 0.69803 0.81834 0.0
H1684 H 0.9863 0.68439 0.7631 0.0
H1685 H 0.98262 0.68565 0.79678 0.0
H1686 H 0.94851 0.70075 0.83399 0.0
H1687 H 0.97277 0.70222 0.82253 0.0
H1688 H 0.9113 0.68823 0.71166 0.0
H1689 H 0.93378 0.68603 0.70062 0.0
H1690 H 0.88779 0.6746 0.74141 0.0
H1691 H 0.88546 0.67954 0.77436 0.0
C1692 C 0.32468 0.24565 0.74316 0.0
C1693 C 0.32242 0.26449 0.74769 0.0
C1694 C 0.31643 0.25551 0.79463 0.0
C1695 C 0.32094 0.23799 0.79043 0.0
N1696 N 0.3325 0.21823 0.76146 0.0
N1697 N 0.3183 0.28895 0.7776 0.0
C1698 C 0.32583 0.23349 0.76486 0.0
C1699 C 0.31878 0.26983 0.7734 0.0
N1700 N 0.32536 0.23917 0.71799 0.0
N1701 N 0.30944 0.2581 0.81876 0.0
H1702 H 0.31932 0.29943 0.76239 0.0
H1703 H 0.31828 0.29517 0.79617 0.0
H1704 H 0.30779 0.24806 0.83475 0.0
H1705 H 0.30371 0.26906 0.8225 0.0
H1706 H 0.32457 0.22426 0.71328 0.0
H1707 H 0.32473 0.24779 0.7016 0.0
H1708 H 0.3387 0.21599 0.74384 0.0
H1709 H 0.33365 0.20899 0.77683 0.0
C1710 C 0.7522 0.05482 0.75231 0.0
C1711 C 0.73416 0.05825 0.74656 0.0
C1712 C 0.74614 0.08554 0.78201 0.0
C1713 C 0.76253 0.08024 0.78968 0.0
N1714 N 0.77606 0.05446 0.78643 0.0
N1715 N 0.70994 0.07118 0.76287 0.0
C1716 C 0.7639 0.0631 0.77624 0.0
C1717 C 0.72983 0.07183 0.76358 0.0
N1718 N 0.75928 0.04504 0.7345 0.0
N1719 N 0.74667 0.10426 0.791 0.0
H1720 H 0.69679 0.05997 0.75127 0.0
H1721 H 0.70564 0.0797 0.7763 0.0
H1722 H 0.75923 0.11583 0.80294 0.0
H1723 H 0.73601 0.10953 0.784 0.0
H1724 H 0.7736 0.04408 0.73724 0.0
H1725 H 0.75266 0.04036 0.71576 0.0
H1726 H 0.77603 0.0407 0.77838 0.0
H1727 H 0.78408 0.05945 0.80449 0.0
C1728 C 0.08409 0.36047 0.04042 0.0
C1729 C 0.06253 0.35369 0.05008 0.0
C1730 C 0.06775 0.33252 0.08505 0.0
C1731 C 0.09018 0.34159 0.07737 0.0
N1732 N 0.12057 0.36564 0.04922 0.0
N1733 N 0.03468 0.33561 0.08367 0.0
C1734 C 0.09858 0.35587 0.05533 0.0
C1735 C 0.05445 0.34012 0.0728 0.0
N1736 N 0.09047 0.37084 0.01664 0.0
N1737 N 0.05911 0.31648 0.10394 0.0
H1738 H 0.02444 0.34098 0.07561 0.0
H1739 H 0.02919 0.3281 0.1019 0.0
H1740 H 0.06847 0.31075 0.1136 0.0
H1741 H 0.04231 0.30749 0.10843 0.0
H1742 H 0.10511 0.37428 0.00721 0.0
H1743 H 0.08014 0.37422 1.00514 0.0
H1744 H 0.12827 0.37818 0.03535 0.0
H1745 H 0.13157 0.36229 0.05931 0.0
C1746 C 0.66934 0.72479 0.04439 0.0
C1747 C 0.64853 0.70535 0.0486 0.0
C1748 C 0.63788 0.72671 0.07716 0.0
C1749 C 0.65988 0.74474 0.0769 0.0
N1750 N 0.698 0.75844 0.06418 0.0
N1751 N 0.61618 0.68706 0.07686 0.0
C1752 C 0.6761 0.74313 0.0616 0.0
C1753 C 0.6336 0.70604 0.06715 0.0
N1754 N 0.68231 0.72626 0.02352 0.0
N1755 N 0.62091 0.72927 0.08648 0.0
H1756 H 0.6138 0.67135 0.07296 0.0
H1757 H 0.60599 0.68719 0.0918 0.0
H1758 H 0.62308 0.74453 0.09253 0.0
H1759 H 0.6044 0.71678 0.08516 0.0
H1760 H 0.69677 0.74083 0.01869 0.0
H1761 H 0.67733 0.71398 0.00926 0.0
H1762 H 0.71047 0.75673 0.05506 0.0
H1763 H 0.70384 0.77144 0.07758 0.0
C1764 C 0.29101 0.95253 0.07576 0.0
C1765 C 0.29359 0.9447 0.051 0.0
C1766 C 0.25752 0.91106 0.05628 0.0
C1767 C 0.25445 0.91943 0.08037 0.0
N1768 N 0.26582 0.95001 0.11023 0.0
N1769 N 0.27742 0.91917 0.01501 0.0
C1770 C 0.27043 0.94081 0.08918 0.0
C1771 C 0.27624 0.92475 0.04044 0.0
N1772 N 0.30858 0.97032 0.08728 0.0
N1773 N 0.2431 0.88971 0.04909 0.0
H1774 H 0.29074 0.92902 1.00273 0.0
H1775 H 0.26433 0.90599 0.00536 0.0
H1776 H 0.22915 0.87914 0.06008 0.0
H1777 H 0.24589 0.88191 0.03332 0.0
H1778 H 0.30835 0.97515 0.10656 0.0
H1779 H 0.32411 0.97918 0.07849 0.0
H1780 H 0.27585 0.96642 0.11594 0.0
H1781 H 0.25091 0.94185 0.12054 0.0
C1782 C 0.34565 0.06961 0.99833 0.0
C1783 C 0.34683 0.05284 0.98386 0.0
C1784 C 0.33974 0.06686 0.94306 0.0
C1785 C 0.33739 0.08295 0.95763 0.0
N1786 N 0.33362 0.09684 0.9995 0.0
N1787 N 0.34019 0.03235 0.94357 0.0
C1788 C 0.33902 0.0835 0.98543 0.0
C1789 C 0.34221 0.05041 0.95659 0.0
N1790 N 0.35119 0.07246 0.0243 0.0
N1791 N 0.34089 0.06802 0.91627 0.0
H1792 H 0.34206 0.02004 0.95277 0.0
H1793 H 0.33463 0.02849 0.92431 0.0
H1794 H 0.33966 0.08007 0.90551 0.0
H1795 H 0.3451 0.05832 0.90476 0.0
H1796 H 0.35322 0.08597 0.03524 0.0
H1797 H 0.35501 0.06188 0.03462 0.0
H1798 H 0.33238 0.09645 0.01986 0.0
H1799 H 0.32844 0.10698 0.99068 0.0
C1800 C 0.9414 0.26991 0.99333 0.0
C1801 C 0.9516 0.29027 0.97952 0.0
C1802 C 0.93371 0.27113 0.9387 0.0
C1803 C 0.92397 0.25064 0.95227 0.0
N1804 N 0.92137 0.22973 0.99101 0.0
N1805 N 0.96177 0.30995 0.93838 0.0
C1806 C 0.92872 0.24979 0.97918 0.0
C1807 C 0.94905 0.29076 0.95196 0.0
N1808 N 0.94311 0.26991 0.02003 0.0
N1809 N 0.92763 0.27195 0.91341 0.0
H1810 H 0.97334 0.32464 0.94742 0.0
H1811 H 0.96242 0.31086 0.91799 0.0
H1812 H 0.9167 0.25792 0.90279 0.0
H1813 H 0.93209 0.28665 0.90353 0.0
H1814 H 0.93407 0.25594 0.03164 0.0
H1815 H 0.95265 0.2843 0.03084 0.0
H1816 H 0.92603 0.22786 0.00979 0.0
H1817 H 0.9119 0.21475 0.98122 0.0
C1818 C 0.71418 0.66117 0.95069 0.0
C1819 C 0.71371 0.66153 0.97849 0.0
C1820 C 0.75423 0.67987 0.97967 0.0
C1821 C 0.7544 0.67671 0.95218 0.0
N1822 N 0.73468 0.663 0.9114 0.0
N1823 N 0.73265 0.67047 0.01994 0.0
C1824 C 0.73443 0.66723 0.93758 0.0
C1825 C 0.7336 0.67089 0.99315 0.0
N1826 N 0.69523 0.65523 0.93686 0.0
N1827 N 0.77383 0.69166 0.99272 0.0
H1828 H 0.71784 0.66471 0.03028 0.0
H1829 H 0.74624 0.67469 0.03194 0.0
H1830 H 0.78915 0.69834 0.98332 0.0
H1831 H 0.775 0.69636 0.01229 0.0
H1832 H 0.69486 0.65679 0.91659 0.0
H1833 H 0.68006 0.65052 0.94587 0.0
H1834 H 0.72045 0.65367 0.90035 0.0
H1835 H 0.74919 0.66754 0.90091 0.0
C1836 C 0.94345 0.66855 0.98999 0.0
C1837 C 0.95227 0.65703 0.9761 0.0
C1838 C 0.93338 0.658 0.936 0.0
C1839 C 0.92528 0.6703 0.94956 0.0
N1840 N 0.92531 0.69057 0.98785 0.0
N1841 N 0.95975 0.64498 0.93488 0.0
C1842 C 0.93118 0.6766 0.9761 0.0
C1843 C 0.94841 0.65296 0.94879 0.0
N1844 N 0.94601 0.67094 0.01658 0.0
N1845 N 0.92612 0.65049 0.91115 0.0
H1846 H 0.97106 0.64126 0.9435 0.0
H1847 H 0.95954 0.64394 0.9145 0.0
H1848 H 0.9155 0.65423 0.90082 0.0
H1849 H 0.9293 0.63922 0.90144 0.0
H1850 H 0.93795 0.67696 0.02831 0.0
H1851 H 0.95506 0.66542 0.02729 0.0
H1852 H 0.93098 0.69766 0.00622 0.0
H1853 H 0.91607 0.69649 0.97832 0.0
C1854 C 0.3629 0.30298 0.94769 0.0
C1855 C 0.35918 0.3035 0.97503 0.0
C1856 C 0.34106 0.26294 0.97674 0.0
C1857 C 0.34686 0.26272 0.95008 0.0
N1858 N 0.36552 0.28246 0.91075 0.0
N1859 N 0.34698 0.28449 0.01642 0.0
C1860 C 0.35837 0.28273 0.93569 0.0
C1861 C 0.34871 0.28359 0.98979 0.0
N1862 N 0.36999 0.32171 0.93297 0.0
N1863 N 0.32792 0.24339 0.98941 0.0
H1864 H 0.35237 0.29927 0.02662 0.0
H1865 H 0.34177 0.27084 0.02869 0.0
H1866 H 0.32237 0.22801 0.98056 0.0
H1867 H 0.32111 0.24233 0.00791 0.0
H1868 H 0.37062 0.32189 0.91256 0.0
H1869 H 0.37339 0.33686 0.94095 0.0
H1870 H 0.37626 0.2967 0.90039 0.0
H1871 H 0.36206 0.26792 0.90099 0.0
C1872 C 0.73528 0.06862 0.99824 0.0
C1873 C 0.71869 0.04907 0.98588 0.0
C1874 C 0.74678 0.05014 0.95613 0.0
C1875 C 0.76135 0.07244 0.96324 0.0
N1876 N 0.77438 0.09639 1.00069 0.0
N1877 N 0.70874 0.02144 0.95182 0.0
C1878 C 0.75708 0.07977 0.98742 0.0
C1879 C 0.72447 0.03979 0.96459 0.0
N1880 N 0.73004 0.07676 0.0198 0.0
N1881 N 0.75489 0.03754 0.94597 0.0
H1882 H 0.69204 0.0133 0.95694 0.0
H1883 H 0.71224 0.01555 0.9347 0.0
H1884 H 0.77161 0.04247 0.94776 0.0
H1885 H 0.7449 0.02078 0.94165 0.0
H1886 H 0.74054 0.09223 0.02789 0.0
H1887 H 0.7147 0.06826 0.02915 0.0
H1888 H 0.77314 0.1017 0.01936 0.0
H1889 H 0.79061 0.10331 0.99376 0.0
C1890 C 0.6441 0.92083 0.03647 0.0
C1891 C 0.65053 0.94229 0.04613 0.0
C1892 C 0.67048 0.93679 0.08229 0.0
C1893 C 0.66162 0.91441 0.07456 0.0
N1894 N 0.63831 0.88421 0.04581 0.0
N1895 N 0.66725 0.96974 0.08037 0.0
C1896 C 0.64806 0.90619 0.05194 0.0
C1897 C 0.66324 0.95015 0.06948 0.0
N1898 N 0.63469 0.91469 0.01218 0.0
N1899 N 0.68601 0.94532 0.10173 0.0
H1900 H 0.66198 0.97996 0.07203 0.0
H1901 H 0.67414 0.97501 0.09891 0.0
H1902 H 0.69152 0.93593 0.11172 0.0
H1903 H 0.69484 0.9621 0.10634 0.0
H1904 H 0.63163 0.90014 1.00286 0.0
H1905 H 0.63182 0.92515 1.00025 0.0
H1906 H 0.62626 0.8767 0.0314 0.0
H1907 H 0.64109 0.87305 0.05643 0.0
C1908 C 0.052 0.71712 0.07457 0.0
C1909 C 0.06046 0.71329 0.05096 0.0
C1910 C 0.09534 0.74813 0.05703 0.0
C1911 C 0.08657 0.75232 0.08009 0.0
N1912 N 0.05523 0.7435 0.10782 0.0
N1913 N 0.08792 0.72713 0.01667 0.0
C1914 C 0.06443 0.73766 0.08786 0.0
C1915 C 0.08147 0.72944 0.04126 0.0
N1916 N 0.03277 0.70067 0.08519 0.0
N1917 N 0.11717 0.7615 0.05078 0.0
H1918 H 0.07799 0.71378 1.0045 0.0
H1919 H 0.10206 0.73937 0.00737 0.0
H1920 H 0.12779 0.77552 0.0616 0.0
H1921 H 0.12518 0.75784 0.036 0.0
H1922 H 0.02721 0.70154 0.10389 0.0
H1923 H 0.02315 0.68533 0.07629 0.0
H1924 H 0.03848 0.73463 0.11262 0.0
H1925 H 0.06396 0.75833 0.11814 0.0
C1926 C 0.29905 0.35014 0.08395 0.0
C1927 C 0.29801 0.34756 0.05622 0.0
C1928 C 0.25833 0.32129 0.05991 0.0
C1929 C 0.25849 0.32877 0.08586 0.0
N1930 N 0.27983 0.33607 0.12528 0.0
N1931 N 0.27635 0.32991 0.01757 0.0
C1932 C 0.27921 0.33908 0.0989 0.0
C1933 C 0.27758 0.33281 0.04411 0.0
N1934 N 0.31885 0.36338 0.096 0.0
N1935 N 0.24199 0.30091 0.05229 0.0
H1936 H 0.29012 0.33787 0.00528 0.0
H1937 H 0.2613 0.32083 0.00781 0.0
H1938 H 0.23129 0.28947 0.06603 0.0
H1939 H 0.24189 0.29403 0.03408 0.0
H1940 H 0.32016 0.36793 0.11567 0.0
H1941 H 0.33394 0.3708 0.08604 0.0
H1942 H 0.29441 0.34135 0.13578 0.0
H1943 H 0.26548 0.32582 0.13592 0.0
C1944 C 0.7284 0.68775 0.41416 0.0
C1945 C 0.72584 0.68437 0.38666 0.0
C1946 C 0.74713 0.66504 0.3878 0.0
C1947 C 0.75189 0.67081 0.41467 0.0
N1948 N 0.7489 0.68928 0.4532 0.0
N1949 N 0.73337 0.67101 0.34661 0.0
C1950 C 0.7429 0.68248 0.42786 0.0
C1951 C 0.73521 0.67316 0.37328 0.0
N1952 N 0.71653 0.69556 0.42726 0.0
N1953 N 0.75375 0.65155 0.37637 0.0
H1954 H 0.72425 0.67625 0.33557 0.0
H1955 H 0.74187 0.66526 0.33522 0.0
H1956 H 0.7627 0.64555 0.38643 0.0
H1957 H 0.74902 0.64491 0.35764 0.0
H1958 H 0.71582 0.6962 0.44762 0.0
H1959 H 0.70574 0.69961 0.41786 0.0
H1960 H 0.74509 0.70012 0.46287 0.0
H1961 H 0.7591 0.68534 0.46414 0.0
C1962 C 0.33651 0.06201 0.37596 0.0
C1963 C 0.32526 0.04167 0.3898 0.0
C1964 C 0.32791 0.06146 0.4308 0.0
C1965 C 0.33736 0.0816 0.41648 0.0
N1966 N 0.351 0.10181 0.37605 0.0
N1967 N 0.31114 0.02139 0.43016 0.0
C1968 C 0.34197 0.0821 0.38924 0.0
C1969 C 0.32138 0.04126 0.41724 0.0
N1970 N 0.34185 0.062 0.35012 0.0
N1971 N 0.32524 0.06176 0.4574 0.0
H1972 H 0.30782 0.00652 0.42139 0.0
H1973 H 0.30544 0.01923 0.44938 0.0
H1974 H 0.32879 0.07602 0.46782 0.0
H1975 H 0.32042 0.04822 0.46967 0.0
H1976 H 0.35179 0.0762 0.33928 0.0
H1977 H 0.33728 0.04755 0.33955 0.0
H1978 H 0.3527 0.10336 0.35579 0.0
H1979 H 0.35624 0.11692 0.38544 0.0
C1980 C 0.95089 0.26171 0.37449 0.0
C1981 C 0.96619 0.2826 0.38528 0.0
C1982 C 0.94051 0.2763 0.42162 0.0
C1983 C 0.9267 0.25434 0.41266 0.0
N1984 N 0.91934 0.22517 0.38193 0.0
N1985 N 0.97691 0.30892 0.42084 0.0
C1986 C 0.93197 0.2468 0.38935 0.0
C1987 C 0.96127 0.28982 0.40916 0.0
N1988 N 0.95421 0.25641 0.34971 0.0
N1989 N 0.93364 0.28429 0.44189 0.0
H1990 H 0.99235 0.31938 0.41254 0.0
H1991 H 0.97531 0.31359 0.43976 0.0
H1992 H 0.91867 0.27473 0.45172 0.0
H1993 H 0.94181 0.30085 0.44749 0.0
H1994 H 0.94262 0.2424 0.33966 0.0
H1995 H 0.96772 0.26715 0.33816 0.0
H1996 H 0.92376 0.218 0.36689 0.0
H1997 H 0.90513 0.21386 0.39203 0.0
C1998 C 0.00431 0.39356 0.31618 0.0
C1999 C 0.02549 0.39566 0.31229 0.0
C2000 C 0.03491 0.42651 0.28231 0.0
C2001 C 0.01268 0.42195 0.28265 0.0
N2002 N 0.97486 0.39712 0.296 0.0
N2003 N 0.05784 0.40982 0.28407 0.0
C2004 C 0.99692 0.40431 0.29849 0.0
C2005 C 0.03998 0.41093 0.29323 0.0
N2006 N 0.99156 0.38218 0.33721 0.0
N2007 N 0.05138 0.44592 0.27218 0.0
H2008 H 0.06094 0.39712 0.28899 0.0
H2009 H 0.06774 0.41975 0.26875 0.0
H2010 H 0.04865 0.45847 0.26543 0.0
H2011 H 0.06805 0.45047 0.27345 0.0
H2012 H 0.97683 0.38186 0.34189 0.0
H2013 H 0.99688 0.37535 0.35167 0.0
H2014 H 0.9627 0.38302 0.30549 0.0
H2015 H 0.96862 0.40373 0.28237 0.0
C2016 C 0.6157 0.61488 0.31848 0.0
C2017 C 0.614 0.63419 0.31468 0.0
C2018 C 0.58195 0.6127 0.28636 0.0
C2019 C 0.58617 0.5948 0.28626 0.0
N2020 N 0.61096 0.58138 0.29829 0.0
N2021 N 0.59938 0.65234 0.28715 0.0
C2022 C 0.60416 0.59654 0.30123 0.0
C2023 C 0.59819 0.6334 0.29645 0.0
N2024 N 0.62749 0.6135 0.33901 0.0
N2025 N 0.56233 0.60999 0.27733 0.0
H2026 H 0.61253 0.6681 0.29117 0.0
H2027 H 0.58896 0.6522 0.2724 0.0
H2028 H 0.54938 0.59472 0.27122 0.0
H2029 H 0.55809 0.62234 0.27895 0.0
H2030 H 0.62762 0.599 0.34361 0.0
H2031 H 0.63483 0.62578 0.35325 0.0
H2032 H 0.62525 0.58319 0.30711 0.0
H2033 H 0.6038 0.56838 0.28488 0.0
C2034 C 0.38798 0.97088 0.30887 0.0
C2035 C 0.37985 0.98576 0.31265 0.0
C2036 C 0.41453 0.01508 0.29355 0.0
C2037 C 0.4201 0.99909 0.28492 0.0
N2038 N 0.40735 0.96009 0.27853 0.0
N2039 N 0.38427 0.02172 0.30157 0.0
C2040 C 0.40544 0.97646 0.29085 0.0
C2041 C 0.3928 0.00788 0.30318 0.0
N2042 N 0.37977 0.95179 0.32307 0.0
N2043 N 0.42996 0.03707 0.29326 0.0
H2044 H 0.36784 0.01686 0.30562 0.0
H2045 H 0.39287 0.03728 0.29281 0.0
H2046 H 0.44638 0.04294 0.28781 0.0
H2047 H 0.42697 0.04908 0.30137 0.0
H2048 H 0.3864 0.94131 0.32181 0.0
H2049 H 0.36867 0.9481 0.33857 0.0
H2050 H 0.39584 0.94336 0.28116 0.0
H2051 H 0.41862 0.96318 0.2634 0.0
C2052 C 0.61373 0.00498 0.3213 0.0
C2053 C 0.61997 0.99028 0.30999 0.0
C2054 C 0.59917 0.98766 0.27001 0.0
C2055 C 0.59356 0.00295 0.28093 0.0
N2056 N 0.59793 0.02884 0.3149 0.0
N2057 N 0.62256 0.97113 0.27186 0.0
C2058 C 0.60165 0.01248 0.30596 0.0
C2059 C 0.61378 0.9826 0.28384 0.0
N2060 N 0.6185 0.01096 0.34704 0.0
N2061 N 0.59006 0.97753 0.24668 0.0
H2062 H 0.63328 0.96703 0.28126 0.0
H2063 H 0.6208 0.9673 0.25195 0.0
H2064 H 0.58007 0.98148 0.23534 0.0
H2065 H 0.59117 0.96419 0.23931 0.0
H2066 H 0.61241 0.01966 0.3574 0.0
H2067 H 0.6274 0.00587 0.35873 0.0
H2068 H 0.60523 0.03812 0.33169 0.0
H2069 H 0.58874 0.03431 0.30441 0.0
C2070 C 0.00861 0.6227 0.28874 0.0
C2071 C 0.02117 0.62699 0.31213 0.0
C2072 C 0.02332 0.59326 0.30523 0.0
C2073 C 0.00988 0.58845 0.28258 0.0
N2074 N 0.98601 0.59592 0.25565 0.0
N2075 N 0.03652 0.61428 0.3456 0.0
C2076 C 1.00133 0.60234 0.27527 0.0
C2077 C 0.02734 0.61161 0.32126 0.0
N2078 N 0.00475 0.63857 0.27848 0.0
N2079 N 0.03293 0.58079 0.31088 0.0
H2080 H 0.03937 0.62737 0.35798 0.0
H2081 H 0.03936 0.60251 0.35453 0.0
H2082 H 0.03019 0.56707 0.2998 0.0
H2083 H 0.0449 0.58498 0.32532 0.0
H2084 H 0.99807 0.63746 0.25992 0.0
H2085 H 0.00986 0.65378 0.2875 0.0
H2086 H 0.97736 0.60412 0.25129 0.0
H2087 H 0.98048 0.58123 0.24517 0.0
C2088 C 0.38763 0.38825 0.29703 0.0
C2089 C 0.38258 0.39655 0.31995 0.0
C2090 C 0.41553 0.4329 0.31271 0.0
C2091 C 0.42093 0.42434 0.29038 0.0
N2092 N 0.4152 0.39292 0.26467 0.0
N2093 N 0.39389 0.42502 0.35272 0.0
C2094 C 0.40797 0.40166 0.2837 0.0
C2095 C 0.39725 0.41838 0.32875 0.0
N2096 N 0.3724 0.36818 0.2869 0.0
N2097 N 0.42735 0.45505 0.31801 0.0
H2098 H 0.3808 0.41463 0.36501 0.0
H2099 H 0.40511 0.43996 0.36147 0.0
H2100 H 0.44108 0.46612 0.30701 0.0
H2101 H 0.4227 0.46275 0.33215 0.0
H2102 H 0.37409 0.36254 0.2686 0.0
H2103 H 0.35712 0.35783 0.29561 0.0
H2104 H 0.40773 0.37602 0.26085 0.0
H2105 H 0.42989 0.40235 0.25426 0.0
C2106 C 0.33915 0.28992 0.40414 0.0
C2107 C 0.32596 0.28214 0.38113 0.0
C2108 C 0.3228 0.24572 0.38673 0.0
C2109 C 0.33653 0.25375 0.40923 0.0
N2110 N 0.36185 0.2845 0.43594 0.0
N2111 N 0.3093 0.25457 0.34731 0.0
C2112 C 0.34607 0.27623 0.41677 0.0
C2113 C 0.31906 0.2606 0.37143 0.0
N2114 N 0.34385 0.30974 0.41501 0.0
N2115 N 0.31264 0.22372 0.38061 0.0
H2116 H 0.30663 0.26525 0.33554 0.0
H2117 H 0.30578 0.2399 0.33794 0.0
H2118 H 0.31528 0.2124 0.39107 0.0
H2119 H 0.30045 0.21637 0.36632 0.0
H2120 H 0.35105 0.31497 0.43342 0.0
H2121 H 0.33896 0.32029 0.40676 0.0
H2122 H 0.37115 0.30129 0.44039 0.0
H2123 H 0.36709 0.27484 0.44584 0.0
C2124 C 0.72297 0.04831 0.40548 0.0
C2125 C 0.73009 0.04434 0.38095 0.0
C2126 C 0.76498 0.07954 0.38465 0.0
C2127 C 0.75743 0.08392 0.40857 0.0
N2128 N 0.72762 0.07506 0.43893 0.0
N2129 N 0.75547 0.05804 0.34448 0.0
C2130 C 0.73586 0.06911 0.41805 0.0
C2131 C 0.7504 0.06056 0.36971 0.0
N2132 N 0.70464 0.03178 0.41758 0.0
N2133 N 0.78637 0.093 0.37674 0.0
H2134 H 0.74498 0.04448 0.3329 0.0
H2135 H 0.76894 0.07029 0.33423 0.0
H2136 H 0.79748 0.10719 0.38697 0.0
H2137 H 0.79361 0.08925 0.36115 0.0
H2138 H 0.70018 0.03286 0.4368 0.0
H2139 H 0.69481 0.01619 0.40933 0.0
H2140 H 0.7112 0.06602 0.44506 0.0
H2141 H 0.73668 0.09012 0.44871 0.0
C2142 C 0.94434 0.67047 0.37539 0.0
C2143 C 0.96466 0.68148 0.38922 0.0
C2144 C 0.94503 0.68064 0.4296 0.0
C2145 C 0.92464 0.66896 0.41604 0.0
N2146 N 0.90418 0.64938 0.37762 0.0
N2147 N 0.98423 0.69283 0.43035 0.0
C2148 C 0.92409 0.6628 0.38938 0.0
C2149 C 0.96496 0.68533 0.41661 0.0
N2150 N 0.94448 0.66821 0.34876 0.0
N2151 N 0.94543 0.68788 0.45465 0.0
H2152 H 0.99914 0.69631 0.42155 0.0
H2153 H 0.9851 0.6937 0.45073 0.0
H2154 H 0.93116 0.6843 0.46514 0.0
H2155 H 0.95993 0.69876 0.46445 0.0
H2156 H 0.93047 0.6626 0.33708 0.0
H2157 H 0.95898 0.67339 0.338 0.0
H2158 H 0.90259 0.6424 0.35913 0.0
H2159 H 0.88908 0.64379 0.38722 0.0
C2160 C 0.3923 0.00377 0.71305 0.0
C2161 C 0.39528 0.02542 0.71553 0.0
C2162 C 0.42836 0.03591 0.74205 0.0
C2163 C 0.42298 0.01348 0.74358 0.0
N2164 N 0.39657 0.97514 0.73435 0.0
N2165 N 0.41325 0.0602 0.73951 0.0
C2166 C 0.40402 0.99709 0.73012 0.0
C2167 C 0.41256 0.04106 0.73192 0.0
N2168 N 0.37907 0.98984 0.69382 0.0
N2169 N 0.44869 0.05244 0.7498 0.0
H2170 H 0.40094 0.06397 0.73508 0.0
H2171 H 0.42459 0.07097 0.75322 0.0
H2172 H 0.46116 0.04946 0.75621 0.0
H2173 H 0.45389 0.06914 0.74693 0.0
H2174 H 0.3779 0.9746 0.69001 0.0
H2175 H 0.37146 0.99456 0.67967 0.0
H2176 H 0.38162 0.96267 0.72681 0.0
H2177 H 0.40403 0.96947 0.74753 0.0
C2178 C 0.99518 0.379 0.74486 0.0
C2179 C 0.98275 0.37415 0.72129 0.0
C2180 C 0.98172 0.40871 0.72565 0.0
C2181 C 0.99515 0.41408 0.74839 0.0
N2182 N 0.01828 0.40672 0.77683 0.0
N2183 N 0.96778 0.38606 0.6865 0.0
C2184 C 1.00304 0.39996 0.75708 0.0
C2185 C 0.97706 0.38952 0.71088 0.0
N2186 N 0.99839 0.36314 0.75647 0.0
N2187 N 0.97282 0.42156 0.71868 0.0
H2188 H 0.96441 0.37231 0.67506 0.0
H2189 H 0.96527 0.39768 0.67662 0.0
H2190 H 0.97616 0.43592 0.72875 0.0
H2191 H 0.96089 0.41717 0.70414 0.0
H2192 H 0.00503 0.36481 0.77516 0.0
H2193 H 0.9927 0.34745 0.7485 0.0
H2194 H 0.0265 0.39828 0.78212 0.0
H2195 H 0.02416 0.42182 0.78651 0.0
C2196 C 0.61131 0.60191 0.70749 0.0
C2197 C 0.63175 0.60701 0.71931 0.0
C2198 C 0.61171 0.58313 0.75684 0.0
C2199 C 0.59145 0.57948 0.74598 0.0
N2200 N 0.57173 0.58713 0.71268 0.0
N2201 N 0.65162 0.60527 0.75719 0.0
C2202 C 0.5912 0.58944 0.72181 0.0
C2203 C 0.632 0.59826 0.74445 0.0
N2204 N 0.61102 0.60804 0.68209 0.0
N2205 N 0.61155 0.57194 0.77894 0.0
H2206 H 0.6669 0.61616 0.74894 0.0
H2207 H 0.65279 0.60179 0.77678 0.0
H2208 H 0.59721 0.56168 0.78952 0.0
H2209 H 0.62541 0.57158 0.78587 0.0
H2210 H 0.59658 0.60289 0.67137 0.0
H2211 H 0.62533 0.61676 0.67083 0.0
H2212 H 0.57074 0.59601 0.69685 0.0
H2213 H 0.55659 0.57739 0.72207 0.0
C2214 C 0.67266 0.73287 0.65998 0.0
C2215 C 0.68421 0.72376 0.64676 0.0
C2216 C 0.6851 0.74339 0.60642 0.0
C2217 C 0.67292 0.75196 0.61934 0.0
N2218 N 0.65186 0.75225 0.6567 0.0
N2219 N 0.69737 0.71638 0.60636 0.0
C2220 C 0.66569 0.74588 0.64564 0.0
C2221 C 0.68923 0.72786 0.61964 0.0
N2222 N 0.66914 0.72978 0.68641 0.0
N2223 N 0.69337 0.75067 0.5818 0.0
H2224 H 0.70053 0.7048 0.61535 0.0
H2225 H 0.69916 0.7168 0.58605 0.0
H2226 H 0.6903 0.76165 0.57119 0.0
H2227 H 0.70458 0.74714 0.57256 0.0
H2228 H 0.66307 0.73797 0.69785 0.0
H2229 H 0.67361 0.71998 0.69731 0.0
H2230 H 0.64415 0.74658 0.67479 0.0
H2231 H 0.64673 0.76202 0.64684 0.0
C2232 C 0.26068 0.95983 0.63463 0.0
C2233 C 0.27799 0.96154 0.65097 0.0
C2234 C 0.27087 0.92547 0.63435 0.0
C2235 C 0.2517 0.92262 0.62109 0.0
N2236 N 0.22504 0.93489 0.61585 0.0
N2237 N 0.29588 0.94302 0.67074 0.0
C2238 C 0.24553 0.93909 0.62355 0.0
C2239 C 0.28206 0.94349 0.65214 0.0
N2240 N 0.25942 0.97816 0.62803 0.0
N2241 N 0.279 0.91162 0.62928 0.0
H2242 H 0.30341 0.95521 0.68506 0.0
H2243 H 0.29781 0.9293 0.67376 0.0
H2244 H 0.27185 0.89878 0.61567 0.0
H2245 H 0.2941 0.91434 0.6366 0.0
H2246 H 0.24802 0.97767 0.61444 0.0
H2247 H 0.27144 0.99419 0.63313 0.0
H2248 H 0.2193 0.94591 0.61936 0.0
H2249 H 0.21296 0.9195 0.60884 0.0
C2250 C 0.05315 0.33966 0.63332 0.0
C2251 C 0.04819 0.32678 0.65659 0.0
C2252 C 0.08214 0.32475 0.65097 0.0
C2253 C 0.08742 0.33823 0.62826 0.0
N2254 N 0.08083 0.36262 0.60115 0.0
N2255 N 0.06008 0.31121 0.69068 0.0
C2256 C 0.07385 0.34705 0.62057 0.0
C2257 C 0.06339 0.32061 0.66637 0.0
N2258 N 0.03756 0.34361 0.62236 0.0
N2259 N 0.09452 0.31518 0.65723 0.0
H2260 H 0.04666 0.30827 0.70254 0.0
H2261 H 0.0716 0.30825 0.70008 0.0
H2262 H 0.10857 0.3181 0.64669 0.0
H2263 H 0.09005 0.30315 0.67169 0.0
H2264 H 0.03925 0.35054 0.60382 0.0
H2265 H 0.02206 0.33833 0.63069 0.0
H2266 H 0.07283 0.37142 0.59654 0.0
H2267 H 0.09579 0.36822 0.5912 0.0
C2268 C 0.25822 0.31236 0.65943 0.0
C2269 C 0.2794 0.31794 0.64947 0.0
C2270 C 0.27472 0.33877 0.61361 0.0
C2271 C 0.25259 0.33092 0.62177 0.0
N2272 N 0.22222 0.30846 0.65082 0.0
N2273 N 0.30674 0.33389 0.61494 0.0
C2274 C 0.24406 0.3173 0.64433 0.0
C2275 C 0.28749 0.33066 0.62611 0.0
N2276 N 0.25192 0.30291 0.6837 0.0
N2277 N 0.28364 0.35422 0.59408 0.0
H2278 H 0.3166 0.32815 0.62319 0.0
H2279 H 0.31207 0.34067 0.59635 0.0
H2280 H 0.27467 0.36029 0.5842 0.0
H2281 H 0.30038 0.36241 0.58919 0.0
H2282 H 0.23765 0.30044 0.69325 0.0
H2283 H 0.26204 0.29939 0.69541 0.0
H2284 H 0.21437 0.2964 0.66518 0.0
H2285 H 0.21144 0.312 0.64051 0.0
C2286 C 0.67189 0.96043 0.62114 0.0
C2287 C 0.67618 0.96197 0.64848 0.0
C2288 C 0.66624 0.9229 0.64923 0.0
C2289 C 0.66534 0.92243 0.6214 0.0
N2290 N 0.67009 0.94169 0.58043 0.0
N2291 N 0.67837 0.94524 0.6888 0.0
C2292 C 0.66865 0.94137 0.6072 0.0
C2293 C 0.67352 0.94331 0.66264 0.0
N2294 N 0.67107 0.97726 0.60844 0.0
N2295 N 0.65968 0.90371 0.66281 0.0
H2296 H 0.68253 0.95958 0.69946 0.0
H2297 H 0.67938 0.93312 0.69962 0.0
H2298 H 0.65401 0.88847 0.65354 0.0
H2299 H 0.65797 0.90249 0.68312 0.0
H2300 H 0.66584 0.97615 0.5891 0.0
H2301 H 0.67359 0.99157 0.61792 0.0
H2302 H 0.67507 0.95589 0.56923 0.0
H2303 H 0.66823 0.92828 0.56937 0.0
C2304 C 0.06045 0.74658 0.65779 0.0
C2305 C 0.04489 0.72561 0.64743 0.0
C2306 C 0.07028 0.73107 0.61105 0.0
C2307 C 0.08436 0.75314 0.6195 0.0
N2308 N 0.09198 0.78293 0.6494 0.0
N2309 N 0.03354 0.69891 0.61223 0.0
C2310 C 0.0793 0.76115 0.64258 0.0
C2311 C 0.04949 0.71798 0.62366 0.0
N2312 N 0.05745 0.75232 0.68247 0.0
N2313 N 0.07691 0.72255 0.59112 0.0
H2314 H 0.01796 0.68892 0.62048 0.0
H2315 H 0.03502 0.69393 0.59343 0.0
H2316 H 0.09197 0.73173 0.58133 0.0
H2317 H 0.06848 0.70589 0.58589 0.0
H2318 H 0.06927 0.76641 0.69221 0.0
H2319 H 0.04399 0.74188 0.69427 0.0
H2320 H 0.08767 0.79037 0.66422 0.0
H2321 H 0.10604 0.79408 0.63894 0.0
C2322 C 1.00263 0.62268 0.74024 0.0
C2323 C 0.99028 0.61496 0.71663 0.0
C2324 C 0.98921 0.57941 0.72147 0.0
C2325 C 1.00238 0.58751 0.74439 0.0
N2326 N 0.02569 0.61823 0.77243 0.0
N2327 N 0.97604 0.58813 0.68172 0.0
C2328 C 0.01042 0.60963 0.75272 0.0
C2329 C 0.98486 0.59395 0.70631 0.0
N2330 N 0.00576 0.64179 0.75167 0.0
N2331 N 0.98006 0.5576 0.71478 0.0
H2332 H 0.97297 0.59855 0.66997 0.0
H2333 H 0.97374 0.57399 0.67201 0.0
H2334 H 0.983 0.54646 0.72522 0.0
H2335 H 0.96826 0.55013 0.70009 0.0
H2336 H 0.01232 0.64683 0.77038 0.0
H2337 H 1.0001 0.65176 0.74353 0.0
H2338 H 0.03391 0.63491 0.77755 0.0
H2339 H 0.03164 0.60907 0.78211 0.0
C2340 C 0.38433 0.37435 0.74755 0.0
C2341 C 0.38652 0.37412 0.7199 0.0
C2342 C 0.41309 0.41393 0.72018 0.0
C2343 C 0.41311 0.41351 0.74802 0.0
N2344 N 0.40027 0.39316 0.78858 0.0
N2345 N 0.40338 0.39294 0.67955 0.0
C2346 C 0.39894 0.39372 0.76185 0.0
C2347 C 0.40091 0.39375 0.70607 0.0
N2348 N 0.36822 0.35601 0.76009 0.0
N2349 N 0.42442 0.43372 0.70733 0.0
H2350 H 0.394 0.37862 0.66854 0.0
H2351 H 0.41547 0.40601 0.66865 0.0
H2352 H 0.43344 0.44877 0.71714 0.0
H2353 H 0.42345 0.43551 0.6872 0.0
H2354 H 0.3642 0.35581 0.7798 0.0
H2355 H 0.35752 0.34138 0.75028 0.0
H2356 H 0.39232 0.37867 0.79958 0.0
H2357 H 0.41061 0.40701 0.79983 0.0
C2358 C 0.61376 0.00711 0.71442 0.0
C2359 C 0.63246 0.0287 0.71679 0.0
C2360 C 0.61026 0.03925 0.74412 0.0
C2361 C 0.59312 0.01686 0.74554 0.0
N2362 N 0.58153 0.97849 0.73664 0.0
N2363 N 0.64968 0.06309 0.74151 0.0
C2364 C 0.59569 1.00044 0.73202 0.0
C2365 C 0.6311 0.04423 0.73375 0.0
N2366 N 0.61262 0.99324 0.69479 0.0
N2367 N 0.60664 0.05591 0.75201 0.0
H2368 H 0.66565 0.06651 0.73701 0.0
H2369 H 0.64926 0.07383 0.75546 0.0
H2370 H 0.59122 0.05312 0.75833 0.0
H2371 H 0.6183 0.07258 0.74929 0.0
H2372 H 0.59846 0.97804 0.69126 0.0
H2373 H 0.62455 0.998 0.68008 0.0
H2374 H 0.58404 0.96608 0.72884 0.0
H2375 H 0.56883 0.97283 0.75048 0.0
loop_
_geom_bond_atom_site_label_1
_geom_bond_atom_site_label_2
_geom_bond_distance
_geom_bond_site_symmetry_2
_ccdc_geom_bond_type
O0 Cd1 2.223 . S
O0 C8 1.315 . S
Cd1 O0 2.223 . S
Cd1 O4 2.297 . S
Cd1 O5 2.439 . S
Cd1 O11 2.240 1_554 S
Cd2 O3 2.240 . S
Cd2 O10 2.223 1_554 S
Cd2 O12 2.297 1_554 S
Cd2 O13 2.439 1_554 S
O3 Cd2 2.240 . S
O3 C8 1.279 1_655 S
O4 Cd1 2.297 . S
O4 C6 1.247 . S
O5 Cd1 2.439 . S
O5 C6 1.208 . S
C6 O4 1.247 . S
C6 O5 1.208 . S
C7 O12 1.247 . S
C7 O13 1.208 . S
C8 O0 1.315 . S
C8 O3 1.279 1_455 S
C9 O10 1.315 . S
C9 O11 1.279 1_655 S
O10 Cd2 2.223 1_556 S
O10 C9 1.315 . S
O11 Cd1 2.240 1_556 S
O11 C9 1.279 1_455 S
O12 Cd2 2.297 1_556 S
O12 C7 1.247 . S
O13 Cd2 2.439 1_556 S
O13 C7 1.208 . S
O14 Cd15 2.223 . S
O14 C22 1.315 . S
Cd15 O14 2.223 . S
Cd15 O18 2.297 . S
Cd15 O19 2.439 . S
Cd15 O25 2.240 1_554 S
Cd16 O17 2.240 . S
Cd16 O24 2.223 1_554 S
Cd16 O26 2.297 1_554 S
Cd16 O27 2.439 1_554 S
O17 Cd16 2.240 . S
O17 C22 1.279 . S
O18 Cd15 2.297 . S
O18 C20 1.247 . S
O19 Cd15 2.439 . S
O19 C20 1.208 . S
C20 O18 1.247 . S
C20 O19 1.208 . S
C21 O26 1.247 . S
C21 O27 1.208 . S
C22 O14 1.315 . S
C22 O17 1.279 . S
C23 O24 1.315 . S
C23 O25 1.279 . S
O24 Cd16 2.223 1_556 S
O24 C23 1.315 . S
O25 Cd15 2.240 1_556 S
O25 C23 1.279 . S
O26 Cd16 2.297 1_556 S
O26 C21 1.247 . S
O27 Cd16 2.439 1_556 S
O27 C21 1.208 . S
O28 Cd29 2.223 1_556 S
O28 C36 1.315 . S
Cd29 O28 2.223 1_554 S
Cd29 O32 2.297 1_554 S
Cd29 O33 2.439 1_554 S
Cd29 O39 2.240 . S
Cd30 O31 2.240 1_554 S
Cd30 O38 2.223 . S
Cd30 O40 2.297 . S
Cd30 O41 2.439 . S
O31 Cd30 2.240 1_556 S
O31 C36 1.279 1_565 S
O32 Cd29 2.297 1_556 S
O32 C34 1.247 . S
O33 Cd29 2.439 1_556 S
O33 C34 1.208 . S
C34 O32 1.247 . S
C34 O33 1.208 . S
C35 O40 1.247 . S
C35 O41 1.208 . S
C36 O28 1.315 . S
C36 O31 1.279 1_545 S
C37 O38 1.315 . S
C37 O39 1.279 1_565 S
O38 Cd30 2.223 . S
O38 C37 1.315 . S
O39 Cd29 2.240 . S
O39 C37 1.279 1_545 S
O40 Cd30 2.297 . S
O40 C35 1.247 . S
O41 Cd30 2.439 . S
O41 C35 1.208 . S
O42 Cd43 2.223 1_556 S
O42 C50 1.315 . S
Cd43 O42 2.223 1_554 S
Cd43 O46 2.297 1_554 S
Cd43 O47 2.439 1_554 S
Cd43 O53 2.240 . S
Cd44 O45 2.240 1_554 S
Cd44 O52 2.223 . S
Cd44 O54 2.297 . S
Cd44 O55 2.439 . S
O45 Cd44 2.240 1_556 S
O45 C50 1.279 1_455 S
O46 Cd43 2.297 1_556 S
O46 C48 1.247 . S
O47 Cd43 2.439 1_556 S
O47 C48 1.208 . S
C48 O46 1.247 . S
C48 O47 1.208 . S
C49 O54 1.247 . S
C49 O55 1.208 . S
C50 O42 1.315 . S
C50 O45 1.279 1_655 S
C51 O52 1.315 . S
C51 O53 1.279 1_455 S
O52 Cd44 2.223 . S
O52 C51 1.315 . S
O53 Cd43 2.240 . S
O53 C51 1.279 1_655 S
O54 Cd44 2.297 . S
O54 C49 1.247 . S
O55 Cd44 2.439 . S
O55 C49 1.208 . S
O56 Cd57 2.223 1_556 S
O56 C64 1.315 . S
Cd57 O56 2.223 1_554 S
Cd57 O60 2.297 1_554 S
Cd57 O61 2.439 1_554 S
Cd57 O67 2.240 . S
Cd58 O59 2.240 1_554 S
Cd58 O66 2.223 . S
Cd58 O68 2.297 . S
Cd58 O69 2.439 . S
O59 Cd58 2.240 1_556 S
O59 C64 1.279 . S
O60 Cd57 2.297 1_556 S
O60 C62 1.247 . S
O61 Cd57 2.439 1_556 S
O61 C62 1.208 . S
C62 O60 1.247 . S
C62 O61 1.208 . S
C63 O68 1.247 . S
C63 O69 1.208 . S
C64 O56 1.315 . S
C64 O59 1.279 . S
C65 O66 1.315 . S
C65 O67 1.279 . S
O66 Cd58 2.223 . S
O66 C65 1.315 . S
O67 Cd57 2.240 . S
O67 C65 1.279 . S
O68 Cd58 2.297 . S
O68 C63 1.247 . S
O69 Cd58 2.439 . S
O69 C63 1.208 . S
O70 Cd71 2.223 . S
O70 C78 1.315 . S
Cd71 O70 2.223 . S
Cd71 O74 2.297 . S
Cd71 O75 2.439 . S
Cd71 O81 2.240 1_554 S
Cd72 O73 2.240 . S
Cd72 O80 2.223 1_554 S
Cd72 O82 2.297 1_554 S
Cd72 O83 2.439 1_554 S
O73 Cd72 2.240 . S
O73 C78 1.279 1_545 S
O74 Cd71 2.297 . S
O74 C76 1.247 . S
O75 Cd71 2.439 . S
O75 C76 1.208 . S
C76 O74 1.247 . S
C76 O75 1.208 . S
C77 O82 1.247 . S
C77 O83 1.208 . S
C78 O70 1.315 . S
C78 O73 1.279 1_565 S
C79 O80 1.315 . S
C79 O81 1.279 1_545 S
O80 Cd72 2.223 1_556 S
O80 C79 1.315 . S
O81 Cd71 2.240 1_556 S
O81 C79 1.279 1_565 S
O82 Cd72 2.297 1_556 S
O82 C77 1.247 . S
O83 Cd72 2.439 1_556 S
O83 C77 1.208 . S
O84 Cd85 2.223 . S
O84 C92 1.315 . S
Cd85 O84 2.223 . S
Cd85 O88 2.297 . S
Cd85 O89 2.439 . S
Cd85 O95 2.240 . S
Cd86 O87 2.240 . S
Cd86 O94 2.223 . S
Cd86 O96 2.297 . S
Cd86 O97 2.439 . S
O87 Cd86 2.240 . S
O87 C92 1.279 . S
O88 Cd85 2.297 . S
O88 C90 1.247 . S
O89 Cd85 2.439 . S
O89 C90 1.208 . S
C90 O88 1.247 . S
C90 O89 1.208 . S
C91 O96 1.247 . S
C91 O97 1.208 . S
C92 O84 1.315 . S
C92 O87 1.279 . S
C93 O94 1.315 . S
C93 O95 1.279 . S
O94 Cd86 2.223 . S
O94 C93 1.315 . S
O95 Cd85 2.240 . S
O95 C93 1.279 . S
O96 Cd86 2.297 . S
O96 C91 1.247 . S
O97 Cd86 2.439 . S
O97 C91 1.208 . S
O98 Cd99 2.223 . S
O98 C106 1.315 . S
Cd99 O98 2.223 . S
Cd99 O102 2.297 1_565 S
Cd99 O103 2.439 1_565 S
Cd99 O109 2.240 . S
Cd100 O101 2.240 . S
Cd100 O108 2.223 . S
Cd100 O110 2.297 . S
Cd100 O111 2.439 . S
O101 Cd100 2.240 . S
O101 C106 1.279 . S
O102 Cd99 2.297 1_545 S
O102 C104 1.247 . S
O103 Cd99 2.439 1_545 S
O103 C104 1.208 . S
C104 O102 1.247 . S
C104 O103 1.208 . S
C105 O110 1.247 . S
C105 O111 1.208 . S
C106 O98 1.315 . S
C106 O101 1.279 . S
C107 O108 1.315 . S
C107 O109 1.279 . S
O108 Cd100 2.223 . S
O108 C107 1.315 . S
O109 Cd99 2.240 . S
O109 C107 1.279 . S
O110 Cd100 2.297 . S
O110 C105 1.247 . S
O111 Cd100 2.439 . S
O111 C105 1.208 . S
O112 Cd113 2.223 . S
O112 C120 1.315 . S
Cd113 O112 2.223 . S
Cd113 O116 2.297 . S
Cd113 O117 2.439 . S
Cd113 O123 2.240 . S
Cd114 O115 2.240 . S
Cd114 O122 2.223 . S
Cd114 O124 2.297 1_455 S
Cd114 O125 2.439 1_455 S
O115 Cd114 2.240 . S
O115 C120 1.279 . S
O116 Cd113 2.297 . S
O116 C118 1.247 . S
O117 Cd113 2.439 . S
O117 C118 1.208 . S
C118 O116 1.247 . S
C118 O117 1.208 . S
C119 O124 1.247 . S
C119 O125 1.208 . S
C120 O112 1.315 . S
C120 O115 1.279 . S
C121 O122 1.315 . S
C121 O123 1.279 . S
O122 Cd114 2.223 . S
O122 C121 1.315 . S
O123 Cd113 2.240 . S
O123 C121 1.279 . S
O124 Cd114 2.297 1_655 S
O124 C119 1.247 . S
O125 Cd114 2.439 1_655 S
O125 C119 1.208 . S
O126 Cd127 2.223 . S
O126 C134 1.315 . S
Cd127 O126 2.223 . S
Cd127 O130 2.297 . S
Cd127 O131 2.439 . S
Cd127 O137 2.240 . S
Cd128 O129 2.240 . S
Cd128 O136 2.223 . S
Cd128 O138 2.297 1_565 S
Cd128 O139 2.439 1_565 S
O129 Cd128 2.240 . S
O129 C134 1.279 . S
O130 Cd127 2.297 . S
O130 C132 1.247 . S
O131 Cd127 2.439 . S
O131 C132 1.208 . S
C132 O130 1.247 . S
C132 O131 1.208 . S
C133 O138 1.247 . S
C133 O139 1.208 . S
C134 O126 1.315 . S
C134 O129 1.279 . S
C135 O136 1.315 . S
C135 O137 1.279 . S
O136 Cd128 2.223 . S
O136 C135 1.315 . S
O137 Cd127 2.240 . S
O137 C135 1.279 . S
O138 Cd128 2.297 1_545 S
O138 C133 1.247 . S
O139 Cd128 2.439 1_545 S
O139 C133 1.208 . S
O140 Cd141 2.223 . S
O140 C148 1.315 . S
Cd141 O140 2.223 . S
Cd141 O144 2.297 . S
Cd141 O145 2.439 . S
Cd141 O151 2.240 . S
Cd142 O143 2.240 . S
Cd142 O150 2.223 . S
Cd142 O152 2.297 1_455 S
Cd142 O153 2.439 1_455 S
O143 Cd142 2.240 . S
O143 C148 1.279 . S
O144 Cd141 2.297 . S
O144 C146 1.247 . S
O145 Cd141 2.439 . S
O145 C146 1.208 . S
C146 O144 1.247 . S
C146 O145 1.208 . S
C147 O152 1.247 . S
C147 O153 1.208 . S
C148 O140 1.315 . S
C148 O143 1.279 . S
C149 O150 1.315 . S
C149 O151 1.279 . S
O150 Cd142 2.223 . S
O150 C149 1.315 . S
O151 Cd141 2.240 . S
O151 C149 1.279 . S
O152 Cd142 2.297 1_655 S
O152 C147 1.247 . S
O153 Cd142 2.439 1_655 S
O153 C147 1.208 . S
O154 Cd155 2.223 . S
O154 C162 1.315 . S
Cd155 O154 2.223 . S
Cd155 O158 2.297 . S
Cd155 O159 2.439 . S
Cd155 O165 2.240 . S
Cd156 O157 2.240 . S
Cd156 O164 2.223 . S
Cd156 O166 2.297 . S
Cd156 O167 2.439 . S
O157 Cd156 2.240 . S
O157 C162 1.279 . S
O158 Cd155 2.297 . S
O158 C160 1.247 . S
O159 Cd155 2.439 . S
O159 C160 1.208 . S
C160 O158 1.247 . S
C160 O159 1.208 . S
C161 O166 1.247 . S
C161 O167 1.208 . S
C162 O154 1.315 . S
C162 O157 1.279 . S
C163 O164 1.315 . S
C163 O165 1.279 . S
O164 Cd156 2.223 . S
O164 C163 1.315 . S
O165 Cd155 2.240 . S
O165 C163 1.279 . S
O166 Cd156 2.297 . S
O166 C161 1.247 . S
O167 Cd156 2.439 . S
O167 C161 1.208 . S
O168 Cd169 2.223 . S
O168 C176 1.315 . S
Cd169 O168 2.223 . S
Cd169 O172 2.297 . S
Cd169 O173 2.439 . S
Cd169 O179 2.240 . S
Cd170 O171 2.240 . S
Cd170 O178 2.223 . S
Cd170 O180 2.297 1_545 S
Cd170 O181 2.439 1_545 S
O171 Cd170 2.240 . S
O171 C176 1.279 . S
O172 Cd169 2.297 . S
O172 C174 1.247 . S
O173 Cd169 2.439 . S
O173 C174 1.208 . S
C174 O172 1.247 . S
C174 O173 1.208 . S
C175 O180 1.247 . S
C175 O181 1.208 . S
C176 O168 1.315 . S
C176 O171 1.279 . S
C177 O178 1.315 . S
C177 O179 1.279 . S
O178 Cd170 2.223 . S
O178 C177 1.315 . S
O179 Cd169 2.240 . S
O179 C177 1.279 . S
O180 Cd170 2.297 1_565 S
O180 C175 1.247 . S
O181 Cd170 2.439 1_565 S
O181 C175 1.208 . S
O182 Cd183 2.223 . S
O182 C190 1.315 . S
Cd183 O182 2.223 . S
Cd183 O186 2.297 . S
Cd183 O187 2.439 . S
Cd183 O193 2.240 . S
Cd184 O185 2.240 . S
Cd184 O192 2.223 . S
Cd184 O194 2.297 1_655 S
Cd184 O195 2.439 1_655 S
O185 Cd184 2.240 . S
O185 C190 1.279 . S
O186 Cd183 2.297 . S
O186 C188 1.247 . S
O187 Cd183 2.439 . S
O187 C188 1.208 . S
C188 O186 1.247 . S
C188 O187 1.208 . S
C189 O194 1.247 . S
C189 O195 1.208 . S
C190 O182 1.315 . S
C190 O185 1.279 . S
C191 O192 1.315 . S
C191 O193 1.279 . S
O192 Cd184 2.223 . S
O192 C191 1.315 . S
O193 Cd183 2.240 . S
O193 C191 1.279 . S
O194 Cd184 2.297 1_455 S
O194 C189 1.247 . S
O195 Cd184 2.439 1_455 S
O195 C189 1.208 . S
O196 Cd197 2.223 . S
O196 C204 1.315 . S
Cd197 O196 2.223 . S
Cd197 O200 2.297 . S
Cd197 O201 2.439 . S
Cd197 O207 2.240 . S
Cd198 O199 2.240 . S
Cd198 O206 2.223 . S
Cd198 O208 2.297 . S
Cd198 O209 2.439 . S
O199 Cd198 2.240 . S
O199 C204 1.279 . S
O200 Cd197 2.297 . S
O200 C202 1.247 . S
O201 Cd197 2.439 . S
O201 C202 1.208 . S
C202 O200 1.247 . S
C202 O201 1.208 . S
C203 O208 1.247 . S
C203 O209 1.208 . S
C204 O196 1.315 . S
C204 O199 1.279 . S
C205 O206 1.315 . S
C205 O207 1.279 . S
O206 Cd198 2.223 . S
O206 C205 1.315 . S
O207 Cd197 2.240 . S
O207 C205 1.279 . S
O208 Cd198 2.297 . S
O208 C203 1.247 . S
O209 Cd198 2.439 . S
O209 C203 1.208 . S
O210 Cd211 2.223 . S
O210 C218 1.315 . S
Cd211 O210 2.223 . S
Cd211 O214 2.297 . S
Cd211 O215 2.439 . S
Cd211 O221 2.240 . S
Cd212 O213 2.240 . S
Cd212 O220 2.223 . S
Cd212 O222 2.297 . S
Cd212 O223 2.439 . S
O213 Cd212 2.240 . S
O213 C218 1.279 . S
O214 Cd211 2.297 . S
O214 C216 1.247 . S
O215 Cd211 2.439 . S
O215 C216 1.208 . S
C216 O214 1.247 . S
C216 O215 1.208 . S
C217 O222 1.247 . S
C217 O223 1.208 . S
C218 O210 1.315 . S
C218 O213 1.279 . S
C219 O220 1.315 . S
C219 O221 1.279 . S
O220 Cd212 2.223 . S
O220 C219 1.315 . S
O221 Cd211 2.240 . S
O221 C219 1.279 . S
O222 Cd212 2.297 . S
O222 C217 1.247 . S
O223 Cd212 2.439 . S
O223 C217 1.208 . S
O224 Cd225 2.223 . S
O224 C232 1.315 . S
Cd225 O224 2.223 . S
Cd225 O228 2.297 1_545 S
Cd225 O229 2.439 1_545 S
Cd225 O235 2.240 . S
Cd226 O227 2.240 . S
Cd226 O234 2.223 . S
Cd226 O236 2.297 . S
Cd226 O237 2.439 . S
O227 Cd226 2.240 . S
O227 C232 1.279 . S
O228 Cd225 2.297 1_565 S
O228 C230 1.247 . S
O229 Cd225 2.439 1_565 S
O229 C230 1.208 . S
C230 O228 1.247 . S
C230 O229 1.208 . S
C231 O236 1.247 . S
C231 O237 1.208 . S
C232 O224 1.315 . S
C232 O227 1.279 . S
C233 O234 1.315 . S
C233 O235 1.279 . S
O234 Cd226 2.223 . S
O234 C233 1.315 . S
O235 Cd225 2.240 . S
O235 C233 1.279 . S
O236 Cd226 2.297 . S
O236 C231 1.247 . S
O237 Cd226 2.439 . S
O237 C231 1.208 . S
O238 Cd239 2.223 . S
O238 C246 1.315 . S
Cd239 O238 2.223 . S
Cd239 O242 2.297 . S
Cd239 O243 2.439 . S
Cd239 O249 2.240 . S
Cd240 O241 2.240 . S
Cd240 O248 2.223 . S
Cd240 O250 2.297 1_655 S
Cd240 O251 2.439 1_655 S
O241 Cd240 2.240 . S
O241 C246 1.279 . S
O242 Cd239 2.297 . S
O242 C244 1.247 . S
O243 Cd239 2.439 . S
O243 C244 1.208 . S
C244 O242 1.247 . S
C244 O243 1.208 . S
C245 O250 1.247 . S
C245 O251 1.208 . S
C246 O238 1.315 . S
C246 O241 1.279 . S
C247 O248 1.315 . S
C247 O249 1.279 . S
O248 Cd240 2.223 . S
O248 C247 1.315 . S
O249 Cd239 2.240 . S
O249 C247 1.279 . S
O250 Cd240 2.297 1_455 S
O250 C245 1.247 . S
O251 Cd240 2.439 1_455 S
O251 C245 1.208 . S
C252 C253 1.384 . S
C252 C254 1.384 . S
C252 H280 0.931 . S
C253 C252 1.384 . S
C253 C256 1.382 . S
C254 C252 1.384 . S
C254 C255 1.381 . S
C254 H281 0.930 . S
C255 C254 1.381 . S
C255 C257 1.381 . S
C255 C258 1.487 . S
C256 C253 1.382 . S
C256 C257 1.387 . S
C256 H282 0.930 . S
C257 C255 1.381 . S
C257 C256 1.387 . S
C257 H283 0.931 . S
C258 C255 1.487 . S
C258 C265 1.399 . S
C258 N296 1.343 . S
C259 C260 1.384 . S
C259 C261 1.384 . S
C259 H284 0.931 . S
C260 C259 1.384 . S
C260 C263 1.382 . S
C261 C259 1.384 . S
C261 C262 1.381 . S
C261 H285 0.930 . S
C262 C261 1.381 . S
C262 C264 1.381 . S
C262 C265 1.487 . S
C263 C260 1.382 . S
C263 C264 1.387 . S
C263 H286 0.930 . S
C264 C262 1.381 . S
C264 C263 1.387 . S
C264 H287 0.931 . S
C265 C258 1.399 . S
C265 C262 1.487 . S
C265 N297 1.343 . S
C266 C267 1.384 . S
C266 C268 1.384 . S
C266 H288 0.931 . S
C267 C266 1.384 . S
C267 C270 1.382 . S
C268 C266 1.384 . S
C268 C269 1.381 . S
C268 H289 0.930 . S
C269 C268 1.381 . S
C269 C271 1.381 . S
C269 C272 1.487 . S
C270 C267 1.382 . S
C270 C271 1.387 . S
C270 H290 0.930 . S
C271 C269 1.381 . S
C271 C270 1.387 . S
C271 H291 0.931 . S
C272 C269 1.487 . S
C272 C279 1.399 . S
C272 N297 1.343 . S
C273 C274 1.384 . S
C273 C275 1.384 . S
C273 H292 0.931 . S
C274 C273 1.384 . S
C274 C277 1.382 . S
C275 C273 1.384 . S
C275 C276 1.381 . S
C275 H293 0.930 . S
C276 C275 1.381 . S
C276 C278 1.381 . S
C276 C279 1.487 . S
C277 C274 1.382 . S
C277 C278 1.387 . S
C277 H294 0.930 . S
C278 C276 1.381 . S
C278 C277 1.387 . S
C278 H295 0.931 . S
C279 C272 1.399 . S
C279 C276 1.487 . S
C279 N296 1.343 . S
H280 C252 0.931 . S
H281 C254 0.930 . S
H282 C256 0.930 . S
H283 C257 0.931 . S
H284 C259 0.931 . S
H285 C261 0.930 . S
H286 C263 0.930 . S
H287 C264 0.931 . S
H288 C266 0.931 . S
H289 C268 0.930 . S
H290 C270 0.930 . S
H291 C271 0.931 . S
H292 C273 0.931 . S
H293 C275 0.930 . S
H294 C277 0.930 . S
H295 C278 0.931 . S
N296 C258 1.343 . S
N296 C279 1.343 . S
N297 C265 1.343 . S
N297 C272 1.343 . S
C298 C299 1.384 . S
C298 C300 1.384 . S
C298 H326 0.931 . S
C299 C298 1.384 . S
C299 C302 1.382 . S
C300 C298 1.384 . S
C300 C301 1.381 . S
C300 H327 0.930 . S
C301 C300 1.381 . S
C301 C303 1.381 . S
C301 C304 1.487 . S
C302 C299 1.382 . S
C302 C303 1.387 . S
C302 H328 0.930 . S
C303 C301 1.381 . S
C303 C302 1.387 . S
C303 H329 0.931 . S
C304 C301 1.487 . S
C304 C311 1.399 . S
C304 N342 1.343 . S
C305 C306 1.384 . S
C305 C307 1.384 . S
C305 H330 0.931 . S
C306 C305 1.384 . S
C306 C309 1.382 . S
C307 C305 1.384 . S
C307 C308 1.381 . S
C307 H331 0.930 . S
C308 C307 1.381 . S
C308 C310 1.381 . S
C308 C311 1.487 . S
C309 C306 1.382 . S
C309 C310 1.387 . S
C309 H332 0.930 . S
C310 C308 1.381 . S
C310 C309 1.387 . S
C310 H333 0.931 . S
C311 C304 1.399 . S
C311 C308 1.487 . S
C311 N343 1.343 . S
C312 C313 1.384 . S
C312 C314 1.384 . S
C312 H334 0.931 . S
C313 C312 1.384 . S
C313 C316 1.382 . S
C314 C312 1.384 . S
C314 C315 1.381 . S
C314 H335 0.930 . S
C315 C314 1.381 . S
C315 C317 1.381 . S
C315 C318 1.487 . S
C316 C313 1.382 . S
C316 C317 1.387 . S
C316 H336 0.930 . S
C317 C315 1.381 . S
C317 C316 1.387 . S
C317 H337 0.931 . S
C318 C315 1.487 . S
C318 C325 1.399 . S
C318 N343 1.343 . S
C319 C320 1.384 . S
C319 C321 1.384 . S
C319 H338 0.931 . S
C320 C319 1.384 . S
C320 C323 1.382 . S
C321 C319 1.384 . S
C321 C322 1.381 . S
C321 H339 0.930 . S
C322 C321 1.381 . S
C322 C324 1.381 . S
C322 C325 1.487 . S
C323 C320 1.382 . S
C323 C324 1.387 . S
C323 H340 0.930 . S
C324 C322 1.381 . S
C324 C323 1.387 . S
C324 H341 0.931 . S
C325 C318 1.399 . S
C325 C322 1.487 . S
C325 N342 1.343 . S
H326 C298 0.931 . S
H327 C300 0.930 . S
H328 C302 0.930 . S
H329 C303 0.931 . S
H330 C305 0.931 . S
H331 C307 0.930 . S
H332 C309 0.930 . S
H333 C310 0.931 . S
H334 C312 0.931 . S
H335 C314 0.930 . S
H336 C316 0.930 . S
H337 C317 0.931 . S
H338 C319 0.931 . S
H339 C321 0.930 . S
H340 C323 0.930 . S
H341 C324 0.931 . S
N342 C304 1.343 . S
N342 C325 1.343 . S
N343 C311 1.343 . S
N343 C318 1.343 . S
C344 C345 1.384 . S
C344 C346 1.384 . S
C344 H372 0.931 . S
C345 C344 1.384 . S
C345 C348 1.382 . S
C346 C344 1.384 . S
C346 C347 1.381 . S
C346 H373 0.930 . S
C347 C346 1.381 . S
C347 C349 1.381 . S
C347 C350 1.487 . S
C348 C345 1.382 . S
C348 C349 1.387 . S
C348 H374 0.930 . S
C349 C347 1.381 . S
C349 C348 1.387 . S
C349 H375 0.931 . S
C350 C347 1.487 . S
C350 C357 1.399 . S
C350 N388 1.343 . S
C351 C352 1.384 . S
C351 C353 1.384 . S
C351 H376 0.931 . S
C352 C351 1.384 . S
C352 C355 1.382 . S
C353 C351 1.384 . S
C353 C354 1.381 . S
C353 H377 0.930 . S
C354 C353 1.381 . S
C354 C356 1.381 . S
C354 C357 1.487 . S
C355 C352 1.382 . S
C355 C356 1.387 . S
C355 H378 0.930 . S
C356 C354 1.381 . S
C356 C355 1.387 . S
C356 H379 0.931 . S
C357 C350 1.399 . S
C357 C354 1.487 . S
C357 N389 1.343 . S
C358 C359 1.384 . S
C358 C360 1.384 . S
C358 H380 0.931 . S
C359 C358 1.384 . S
C359 C362 1.382 . S
C360 C358 1.384 . S
C360 C361 1.381 . S
C360 H381 0.930 . S
C361 C360 1.381 . S
C361 C363 1.381 . S
C361 C364 1.487 . S
C362 C359 1.382 . S
C362 C363 1.387 . S
C362 H382 0.930 . S
C363 C361 1.381 . S
C363 C362 1.387 . S
C363 H383 0.931 . S
C364 C361 1.487 . S
C364 C371 1.399 . S
C364 N389 1.343 . S
C365 C366 1.384 . S
C365 C367 1.384 . S
C365 H384 0.931 . S
C366 C365 1.384 . S
C366 C369 1.382 . S
C367 C365 1.384 . S
C367 C368 1.381 . S
C367 H385 0.930 . S
C368 C367 1.381 . S
C368 C370 1.381 . S
C368 C371 1.487 . S
C369 C366 1.382 . S
C369 C370 1.387 . S
C369 H386 0.930 . S
C370 C368 1.381 . S
C370 C369 1.387 . S
C370 H387 0.931 . S
C371 C364 1.399 . S
C371 C368 1.487 . S
C371 N388 1.343 . S
H372 C344 0.931 . S
H373 C346 0.930 . S
H374 C348 0.930 . S
H375 C349 0.931 . S
H376 C351 0.931 . S
H377 C353 0.930 . S
H378 C355 0.930 . S
H379 C356 0.931 . S
H380 C358 0.931 . S
H381 C360 0.930 . S
H382 C362 0.930 . S
H383 C363 0.931 . S
H384 C365 0.931 . S
H385 C367 0.930 . S
H386 C369 0.930 . S
H387 C370 0.931 . S
N388 C350 1.343 . S
N388 C371 1.343 . S
N389 C357 1.343 . S
N389 C364 1.343 . S
C390 C391 1.384 . S
C390 C392 1.384 . S
C390 H418 0.931 . S
C391 C390 1.384 . S
C391 C394 1.382 . S
C392 C390 1.384 . S
C392 C393 1.381 . S
C392 H419 0.930 . S
C393 C392 1.381 . S
C393 C395 1.381 . S
C393 C396 1.487 . S
C394 C391 1.382 . S
C394 C395 1.387 . S
C394 H420 0.930 . S
C395 C393 1.381 . S
C395 C394 1.387 . S
C395 H421 0.931 . S
C396 C393 1.487 . S
C396 C403 1.399 . S
C396 N434 1.343 . S
C397 C398 1.384 . S
C397 C399 1.384 . S
C397 H422 0.931 . S
C398 C397 1.384 . S
C398 C401 1.382 . S
C399 C397 1.384 . S
C399 C400 1.381 . S
C399 H423 0.930 . S
C400 C399 1.381 . S
C400 C402 1.381 . S
C400 C403 1.487 . S
C401 C398 1.382 . S
C401 C402 1.387 . S
C401 H424 0.930 . S
C402 C400 1.381 . S
C402 C401 1.387 . S
C402 H425 0.931 . S
C403 C396 1.399 . S
C403 C400 1.487 . S
C403 N435 1.343 . S
C404 C405 1.384 . S
C404 C406 1.384 . S
C404 H426 0.931 . S
C405 C404 1.384 . S
C405 C408 1.382 . S
C406 C404 1.384 . S
C406 C407 1.381 . S
C406 H427 0.930 . S
C407 C406 1.381 . S
C407 C409 1.381 . S
C407 C410 1.487 . S
C408 C405 1.382 . S
C408 C409 1.387 . S
C408 H428 0.930 . S
C409 C407 1.381 . S
C409 C408 1.387 . S
C409 H429 0.931 . S
C410 C407 1.487 . S
C410 C417 1.399 . S
C410 N435 1.343 . S
C411 C412 1.384 . S
C411 C413 1.384 . S
C411 H430 0.931 . S
C412 C411 1.384 . S
C412 C415 1.382 . S
C413 C411 1.384 . S
C413 C414 1.381 . S
C413 H431 0.930 . S
C414 C413 1.381 . S
C414 C416 1.381 . S
C414 C417 1.487 . S
C415 C412 1.382 . S
C415 C416 1.387 . S
C415 H432 0.930 . S
C416 C414 1.381 . S
C416 C415 1.387 . S
C416 H433 0.931 . S
C417 C410 1.399 . S
C417 C414 1.487 . S
C417 N434 1.343 . S
H418 C390 0.931 . S
H419 C392 0.930 . S
H420 C394 0.930 . S
H421 C395 0.931 . S
H422 C397 0.931 . S
H423 C399 0.930 . S
H424 C401 0.930 . S
H425 C402 0.931 . S
H426 C404 0.931 . S
H427 C406 0.930 . S
H428 C408 0.930 . S
H429 C409 0.931 . S
H430 C411 0.931 . S
H431 C413 0.930 . S
H432 C415 0.930 . S
H433 C416 0.931 . S
N434 C396 1.343 . S
N434 C417 1.343 . S
N435 C403 1.343 . S
N435 C410 1.343 . S
C436 C437 1.384 . S
C436 C438 1.384 . S
C436 H464 0.931 . S
C437 C436 1.384 . S
C437 C440 1.382 . S
C438 C436 1.384 . S
C438 C439 1.381 . S
C438 H465 0.930 . S
C439 C438 1.381 . S
C439 C441 1.381 . S
C439 C442 1.487 . S
C440 C437 1.382 . S
C440 C441 1.387 . S
C440 H466 0.930 . S
C441 C439 1.381 . S
C441 C440 1.387 . S
C441 H467 0.931 . S
C442 C439 1.487 . S
C442 C449 1.399 . S
C442 N480 1.343 . S
C443 C444 1.384 . S
C443 C445 1.384 . S
C443 H468 0.931 . S
C444 C443 1.384 . S
C444 C447 1.382 . S
C445 C443 1.384 . S
C445 C446 1.381 . S
C445 H469 0.930 . S
C446 C445 1.381 . S
C446 C448 1.381 . S
C446 C449 1.487 . S
C447 C444 1.382 . S
C447 C448 1.387 . S
C447 H470 0.930 . S
C448 C446 1.381 . S
C448 C447 1.387 . S
C448 H471 0.931 . S
C449 C442 1.399 . S
C449 C446 1.487 . S
C449 N481 1.343 . S
C450 C451 1.384 . S
C450 C452 1.384 . S
C450 H472 0.931 . S
C451 C450 1.384 . S
C451 C454 1.382 . S
C452 C450 1.384 . S
C452 C453 1.381 . S
C452 H473 0.930 . S
C453 C452 1.381 . S
C453 C455 1.381 . S
C453 C456 1.487 . S
C454 C451 1.382 . S
C454 C455 1.387 . S
C454 H474 0.930 . S
C455 C453 1.381 . S
C455 C454 1.387 . S
C455 H475 0.931 . S
C456 C453 1.487 . S
C456 C463 1.399 . S
C456 N481 1.343 . S
C457 C458 1.384 . S
C457 C459 1.384 . S
C457 H476 0.931 . S
C458 C457 1.384 . S
C458 C461 1.382 . S
C459 C457 1.384 . S
C459 C460 1.381 . S
C459 H477 0.930 . S
C460 C459 1.381 . S
C460 C462 1.381 . S
C460 C463 1.487 . S
C461 C458 1.382 . S
C461 C462 1.387 . S
C461 H478 0.930 . S
C462 C460 1.381 . S
C462 C461 1.387 . S
C462 H479 0.931 . S
C463 C456 1.399 . S
C463 C460 1.487 . S
C463 N480 1.343 . S
H464 C436 0.931 . S
H465 C438 0.930 . S
H466 C440 0.930 . S
H467 C441 0.931 . S
H468 C443 0.931 . S
H469 C445 0.930 . S
H470 C447 0.930 . S
H471 C448 0.931 . S
H472 C450 0.931 . S
H473 C452 0.930 . S
H474 C454 0.930 . S
H475 C455 0.931 . S
H476 C457 0.931 . S
H477 C459 0.930 . S
H478 C461 0.930 . S
H479 C462 0.931 . S
N480 C442 1.343 . S
N480 C463 1.343 . S
N481 C449 1.343 . S
N481 C456 1.343 . S
C482 C483 1.384 . S
C482 C484 1.384 . S
C482 H510 0.931 . S
C483 C482 1.384 . S
C483 C486 1.382 . S
C484 C482 1.384 . S
C484 C485 1.381 . S
C484 H511 0.930 . S
C485 C484 1.381 . S
C485 C487 1.381 . S
C485 C488 1.487 . S
C486 C483 1.382 . S
C486 C487 1.387 . S
C486 H512 0.930 . S
C487 C485 1.381 . S
C487 C486 1.387 . S
C487 H513 0.931 . S
C488 C485 1.487 . S
C488 C495 1.399 . S
C488 N526 1.343 . S
C489 C490 1.384 . S
C489 C491 1.384 . S
C489 H514 0.931 . S
C490 C489 1.384 . S
C490 C493 1.382 . S
C491 C489 1.384 . S
C491 C492 1.381 . S
C491 H515 0.930 . S
C492 C491 1.381 . S
C492 C494 1.381 . S
C492 C495 1.487 . S
C493 C490 1.382 . S
C493 C494 1.387 . S
C493 H516 0.930 . S
C494 C492 1.381 . S
C494 C493 1.387 . S
C494 H517 0.931 . S
C495 C488 1.399 . S
C495 C492 1.487 . S
C495 N527 1.343 . S
C496 C497 1.384 . S
C496 C498 1.384 . S
C496 H518 0.931 . S
C497 C496 1.384 . S
C497 C500 1.382 . S
C498 C496 1.384 . S
C498 C499 1.381 . S
C498 H519 0.930 . S
C499 C498 1.381 . S
C499 C501 1.381 . S
C499 C502 1.487 . S
C500 C497 1.382 . S
C500 C501 1.387 . S
C500 H520 0.930 . S
C501 C499 1.381 . S
C501 C500 1.387 . S
C501 H521 0.931 . S
C502 C499 1.487 . S
C502 C509 1.399 . S
C502 N527 1.343 . S
C503 C504 1.384 . S
C503 C505 1.384 . S
C503 H522 0.931 . S
C504 C503 1.384 . S
C504 C507 1.382 . S
C505 C503 1.384 . S
C505 C506 1.381 . S
C505 H523 0.930 . S
C506 C505 1.381 . S
C506 C508 1.381 . S
C506 C509 1.487 . S
C507 C504 1.382 . S
C507 C508 1.387 . S
C507 H524 0.930 . S
C508 C506 1.381 . S
C508 C507 1.387 . S
C508 H525 0.931 . S
C509 C502 1.399 . S
C509 C506 1.487 . S
C509 N526 1.343 . S
H510 C482 0.931 . S
H511 C484 0.930 . S
H512 C486 0.930 . S
H513 C487 0.931 . S
H514 C489 0.931 . S
H515 C491 0.930 . S
H516 C493 0.930 . S
H517 C494 0.931 . S
H518 C496 0.931 . S
H519 C498 0.930 . S
H520 C500 0.930 . S
H521 C501 0.931 . S
H522 C503 0.931 . S
H523 C505 0.930 . S
H524 C507 0.930 . S
H525 C508 0.931 . S
N526 C488 1.343 . S
N526 C509 1.343 . S
N527 C495 1.343 . S
N527 C502 1.343 . S
C528 C529 1.384 . S
C528 C530 1.384 . S
C528 H556 0.931 . S
C529 C528 1.384 . S
C529 C532 1.382 . S
C530 C528 1.384 . S
C530 C531 1.381 . S
C530 H557 0.930 . S
C531 C530 1.381 . S
C531 C533 1.381 . S
C531 C534 1.487 . S
C532 C529 1.382 . S
C532 C533 1.387 . S
C532 H558 0.930 . S
C533 C531 1.381 . S
C533 C532 1.387 . S
C533 H559 0.931 . S
C534 C531 1.487 . S
C534 C541 1.399 . S
C534 N572 1.343 . S
C535 C536 1.384 . S
C535 C537 1.384 . S
C535 H560 0.931 . S
C536 C535 1.384 . S
C536 C539 1.382 . S
C537 C535 1.384 . S
C537 C538 1.381 . S
C537 H561 0.930 . S
C538 C537 1.381 . S
C538 C540 1.381 . S
C538 C541 1.487 . S
C539 C536 1.382 . S
C539 C540 1.387 . S
C539 H562 0.930 . S
C540 C538 1.381 . S
C540 C539 1.387 . S
C540 H563 0.931 . S
C541 C534 1.399 . S
C541 C538 1.487 . S
C541 N573 1.343 . S
C542 C543 1.384 . S
C542 C544 1.384 . S
C542 H564 0.931 . S
C543 C542 1.384 . S
C543 C546 1.382 . S
C544 C542 1.384 . S
C544 C545 1.381 . S
C544 H565 0.930 . S
C545 C544 1.381 . S
C545 C547 1.381 . S
C545 C548 1.487 . S
C546 C543 1.382 . S
C546 C547 1.387 . S
C546 H566 0.930 . S
C547 C545 1.381 . S
C547 C546 1.387 . S
C547 H567 0.931 . S
C548 C545 1.487 . S
C548 C555 1.399 . S
C548 N573 1.343 . S
C549 C550 1.384 . S
C549 C551 1.384 . S
C549 H568 0.931 . S
C550 C549 1.384 . S
C550 C553 1.382 . S
C551 C549 1.384 . S
C551 C552 1.381 . S
C551 H569 0.930 . S
C552 C551 1.381 . S
C552 C554 1.381 . S
C552 C555 1.487 . S
C553 C550 1.382 . S
C553 C554 1.387 . S
C553 H570 0.930 . S
C554 C552 1.381 . S
C554 C553 1.387 . S
C554 H571 0.931 . S
C555 C548 1.399 . S
C555 C552 1.487 . S
C555 N572 1.343 . S
H556 C528 0.931 . S
H557 C530 0.930 . S
H558 C532 0.930 . S
H559 C533 0.931 . S
H560 C535 0.931 . S
H561 C537 0.930 . S
H562 C539 0.930 . S
H563 C540 0.931 . S
H564 C542 0.931 . S
H565 C544 0.930 . S
H566 C546 0.930 . S
H567 C547 0.931 . S
H568 C549 0.931 . S
H569 C551 0.930 . S
H570 C553 0.930 . S
H571 C554 0.931 . S
N572 C534 1.343 . S
N572 C555 1.343 . S
N573 C541 1.343 . S
N573 C548 1.343 . S
C574 C575 1.384 . S
C574 C576 1.384 . S
C574 H602 0.931 . S
C575 C574 1.384 . S
C575 C578 1.382 . S
C576 C574 1.384 . S
C576 C577 1.381 . S
C576 H603 0.930 . S
C577 C576 1.381 . S
C577 C579 1.381 . S
C577 C580 1.487 . S
C578 C575 1.382 . S
C578 C579 1.387 . S
C578 H604 0.930 . S
C579 C577 1.381 . S
C579 C578 1.387 . S
C579 H605 0.931 . S
C580 C577 1.487 . S
C580 C587 1.399 . S
C580 N618 1.343 . S
C581 C582 1.384 . S
C581 C583 1.384 . S
C581 H606 0.931 . S
C582 C581 1.384 . S
C582 C585 1.382 . S
C583 C581 1.384 . S
C583 C584 1.381 . S
C583 H607 0.930 . S
C584 C583 1.381 . S
C584 C586 1.381 . S
C584 C587 1.487 . S
C585 C582 1.382 . S
C585 C586 1.387 . S
C585 H608 0.930 . S
C586 C584 1.381 . S
C586 C585 1.387 . S
C586 H609 0.931 . S
C587 C580 1.399 . S
C587 C584 1.487 . S
C587 N619 1.343 . S
C588 C589 1.384 . S
C588 C590 1.384 . S
C588 H610 0.931 . S
C589 C588 1.384 . S
C589 C592 1.382 . S
C590 C588 1.384 . S
C590 C591 1.381 . S
C590 H611 0.930 . S
C591 C590 1.381 . S
C591 C593 1.381 . S
C591 C594 1.487 . S
C592 C589 1.382 . S
C592 C593 1.387 . S
C592 H612 0.930 . S
C593 C591 1.381 . S
C593 C592 1.387 . S
C593 H613 0.931 . S
C594 C591 1.487 . S
C594 C601 1.399 . S
C594 N619 1.343 . S
C595 C596 1.384 . S
C595 C597 1.384 . S
C595 H614 0.931 . S
C596 C595 1.384 . S
C596 C599 1.382 . S
C597 C595 1.384 . S
C597 C598 1.381 . S
C597 H615 0.930 . S
C598 C597 1.381 . S
C598 C600 1.381 . S
C598 C601 1.487 . S
C599 C596 1.382 . S
C599 C600 1.387 . S
C599 H616 0.930 . S
C600 C598 1.381 . S
C600 C599 1.387 . S
C600 H617 0.931 . S
C601 C594 1.399 . S
C601 C598 1.487 . S
C601 N618 1.343 . S
H602 C574 0.931 . S
H603 C576 0.930 . S
H604 C578 0.930 . S
H605 C579 0.931 . S
H606 C581 0.931 . S
H607 C583 0.930 . S
H608 C585 0.930 . S
H609 C586 0.931 . S
H610 C588 0.931 . S
H611 C590 0.930 . S
H612 C592 0.930 . S
H613 C593 0.931 . S
H614 C595 0.931 . S
H615 C597 0.930 . S
H616 C599 0.930 . S
H617 C600 0.931 . S
N618 C580 1.343 . S
N618 C601 1.343 . S
N619 C587 1.343 . S
N619 C594 1.343 . S
C620 C621 1.384 . S
C620 C622 1.384 . S
C620 H648 0.931 . S
C621 C620 1.384 . S
C621 C624 1.382 . S
C622 C620 1.384 . S
C622 C623 1.381 . S
C622 H649 0.930 . S
C623 C622 1.381 . S
C623 C625 1.381 . S
C623 C626 1.487 . S
C624 C621 1.382 . S
C624 C625 1.387 . S
C624 H650 0.930 . S
C625 C623 1.381 . S
C625 C624 1.387 . S
C625 H651 0.931 . S
C626 C623 1.487 . S
C626 C633 1.399 . S
C626 N664 1.343 . S
C627 C628 1.384 . S
C627 C629 1.384 . S
C627 H652 0.931 . S
C628 C627 1.384 . S
C628 C631 1.382 . S
C629 C627 1.384 . S
C629 C630 1.381 . S
C629 H653 0.930 . S
C630 C629 1.381 . S
C630 C632 1.381 . S
C630 C633 1.487 . S
C631 C628 1.382 . S
C631 C632 1.387 . S
C631 H654 0.930 . S
C632 C630 1.381 . S
C632 C631 1.387 . S
C632 H655 0.931 . S
C633 C626 1.399 . S
C633 C630 1.487 . S
C633 N665 1.343 . S
C634 C635 1.384 . S
C634 C636 1.384 . S
C634 H656 0.931 . S
C635 C634 1.384 . S
C635 C638 1.382 . S
C636 C634 1.384 . S
C636 C637 1.381 . S
C636 H657 0.930 . S
C637 C636 1.381 . S
C637 C639 1.381 . S
C637 C640 1.487 . S
C638 C635 1.382 . S
C638 C639 1.387 . S
C638 H658 0.930 . S
C639 C637 1.381 . S
C639 C638 1.387 . S
C639 H659 0.931 . S
C640 C637 1.487 . S
C640 C647 1.399 . S
C640 N665 1.343 . S
C641 C642 1.384 . S
C641 C643 1.384 . S
C641 H660 0.931 . S
C642 C641 1.384 . S
C642 C645 1.382 . S
C643 C641 1.384 . S
C643 C644 1.381 . S
C643 H661 0.930 . S
C644 C643 1.381 . S
C644 C646 1.381 . S
C644 C647 1.487 . S
C645 C642 1.382 . S
C645 C646 1.387 . S
C645 H662 0.930 . S
C646 C644 1.381 . S
C646 C645 1.387 . S
C646 H663 0.931 . S
C647 C640 1.399 . S
C647 C644 1.487 . S
C647 N664 1.343 . S
H648 C620 0.931 . S
H649 C622 0.930 . S
H650 C624 0.930 . S
H651 C625 0.931 . S
H652 C627 0.931 . S
H653 C629 0.930 . S
H654 C631 0.930 . S
H655 C632 0.931 . S
H656 C634 0.931 . S
H657 C636 0.930 . S
H658 C638 0.930 . S
H659 C639 0.931 . S
H660 C641 0.931 . S
H661 C643 0.930 . S
H662 C645 0.930 . S
H663 C646 0.931 . S
N664 C626 1.343 . S
N664 C647 1.343 . S
N665 C633 1.343 . S
N665 C640 1.343 . S
C666 C667 1.384 . S
C666 C668 1.384 . S
C666 H694 0.931 . S
C667 C666 1.384 . S
C667 C670 1.382 1_655 S
C668 C666 1.384 . S
C668 C669 1.385 . S
C668 H695 0.930 . S
C669 C668 1.385 . S
C669 C671 1.379 1_655 S
C669 C672 1.477 1_655 S
C670 C667 1.382 1_455 S
C670 C671 1.387 . S
C670 H696 0.930 . S
C671 C669 1.379 1_455 S
C671 C670 1.387 . S
C671 H697 0.931 . S
C672 C669 1.477 1_455 S
C672 C679 1.399 1_455 S
C672 N710 1.352 . S
C673 C674 1.384 . S
C673 C675 1.384 . S
C673 H698 0.931 . S
C674 C673 1.384 . S
C674 C677 1.382 1_455 S
C675 C673 1.384 . S
C675 C676 1.384 . S
C675 H699 0.930 . S
C676 C675 1.384 . S
C676 C678 1.375 1_455 S
C676 C679 1.495 1_455 S
C677 C674 1.382 1_655 S
C677 C678 1.387 . S
C677 H700 0.930 . S
C678 C676 1.375 1_655 S
C678 C677 1.387 . S
C678 H701 0.931 . S
C679 C672 1.399 1_655 S
C679 C676 1.495 1_655 S
C679 N711 1.365 . S
C680 C681 1.384 . S
C680 C682 1.384 . S
C680 H702 0.931 . S
C681 C680 1.384 . S
C681 C684 1.382 1_455 S
C682 C680 1.384 . S
C682 C683 1.398 . S
C682 H703 0.930 . S
C683 C682 1.398 . S
C683 C685 1.372 1_455 S
C683 C686 1.477 1_455 S
C684 C681 1.382 1_655 S
C684 C685 1.387 . S
C684 H704 0.930 . S
C685 C683 1.372 1_655 S
C685 C684 1.387 . S
C685 H705 0.931 . S
C686 C683 1.477 1_655 S
C686 C693 1.399 1_655 S
C686 N711 1.318 . S
C687 C688 1.384 . S
C687 C689 1.384 . S
C687 H706 0.931 . S
C688 C687 1.384 . S
C688 C691 1.382 1_655 S
C689 C687 1.384 . S
C689 C690 1.381 . S
C689 H707 0.930 . S
C690 C689 1.381 . S
C690 C692 1.383 1_655 S
C690 C693 1.495 1_655 S
C691 C688 1.382 1_455 S
C691 C692 1.387 . S
C691 H708 0.930 . S
C692 C690 1.383 1_455 S
C692 C691 1.387 . S
C692 H709 0.931 . S
C693 C686 1.399 1_455 S
C693 C690 1.495 1_455 S
C693 N710 1.334 . S
H694 C666 0.931 . S
H695 C668 0.930 . S
H696 C670 0.930 . S
H697 C671 0.931 . S
H698 C673 0.931 . S
H699 C675 0.930 . S
H700 C677 0.930 . S
H701 C678 0.931 . S
H702 C680 0.931 . S
H703 C682 0.930 . S
H704 C684 0.930 . S
H705 C685 0.931 . S
H706 C687 0.931 . S
H707 C689 0.930 . S
H708 C691 0.930 . S
H709 C692 0.931 . S
N710 C672 1.352 . S
N710 C693 1.334 . S
N711 C679 1.365 . S
N711 C686 1.318 . S
C712 C713 1.384 . S
C712 C714 1.384 . S
C712 H740 0.931 . S
C713 C712 1.384 . S
C713 C716 1.382 . S
C714 C712 1.384 . S
C714 C715 1.381 . S
C714 H741 0.930 . S
C715 C714 1.381 . S
C715 C717 1.381 . S
C715 C718 1.487 . S
C716 C713 1.382 . S
C716 C717 1.387 . S
C716 H742 0.930 . S
C717 C715 1.381 . S
C717 C716 1.387 . S
C717 H743 0.931 . S
C718 C715 1.487 . S
C718 C725 1.399 . S
C718 N756 1.343 . S
C719 C720 1.384 . S
C719 C721 1.384 . S
C719 H744 0.931 . S
C720 C719 1.384 . S
C720 C723 1.382 . S
C721 C719 1.384 . S
C721 C722 1.381 . S
C721 H745 0.930 . S
C722 C721 1.381 . S
C722 C724 1.381 . S
C722 C725 1.487 . S
C723 C720 1.382 . S
C723 C724 1.387 . S
C723 H746 0.930 . S
C724 C722 1.381 . S
C724 C723 1.387 . S
C724 H747 0.931 . S
C725 C718 1.399 . S
C725 C722 1.487 . S
C725 N757 1.343 . S
C726 C727 1.384 . S
C726 C728 1.384 . S
C726 H748 0.931 . S
C727 C726 1.384 . S
C727 C730 1.382 . S
C728 C726 1.384 . S
C728 C729 1.381 . S
C728 H749 0.930 . S
C729 C728 1.381 . S
C729 C731 1.381 . S
C729 C732 1.487 . S
C730 C727 1.382 . S
C730 C731 1.387 . S
C730 H750 0.930 . S
C731 C729 1.381 . S
C731 C730 1.387 . S
C731 H751 0.931 . S
C732 C729 1.487 . S
C732 C739 1.399 . S
C732 N757 1.343 . S
C733 C734 1.384 . S
C733 C735 1.384 . S
C733 H752 0.931 . S
C734 C733 1.384 . S
C734 C737 1.382 . S
C735 C733 1.384 . S
C735 C736 1.381 . S
C735 H753 0.930 . S
C736 C735 1.381 . S
C736 C738 1.381 . S
C736 C739 1.487 . S
C737 C734 1.382 . S
C737 C738 1.387 . S
C737 H754 0.930 . S
C738 C736 1.381 . S
C738 C737 1.387 . S
C738 H755 0.931 . S
C739 C732 1.399 . S
C739 C736 1.487 . S
C739 N756 1.343 . S
H740 C712 0.931 . S
H741 C714 0.930 . S
H742 C716 0.930 . S
H743 C717 0.931 . S
H744 C719 0.931 . S
H745 C721 0.930 . S
H746 C723 0.930 . S
H747 C724 0.931 . S
H748 C726 0.931 . S
H749 C728 0.930 . S
H750 C730 0.930 . S
H751 C731 0.931 . S
H752 C733 0.931 . S
H753 C735 0.930 . S
H754 C737 0.930 . S
H755 C738 0.931 . S
N756 C718 1.343 . S
N756 C739 1.343 . S
N757 C725 1.343 . S
N757 C732 1.343 . S
C758 C759 1.384 1_545 S
C758 C760 1.384 . S
C758 H786 0.931 . S
C759 C758 1.384 1_565 S
C759 C762 1.382 . S
C760 C758 1.384 . S
C760 C761 1.381 1_545 S
C760 H787 0.930 . S
C761 C760 1.381 1_565 S
C761 C763 1.381 . S
C761 C764 1.487 . S
C762 C759 1.382 . S
C762 C763 1.387 . S
C762 H788 0.930 . S
C763 C761 1.381 . S
C763 C762 1.387 . S
C763 H789 0.931 . S
C764 C761 1.487 . S
C764 C771 1.399 1_565 S
C764 N802 1.343 . S
C765 C766 1.384 1_565 S
C765 C767 1.384 . S
C765 H790 0.931 . S
C766 C765 1.384 1_545 S
C766 C769 1.382 . S
C767 C765 1.384 . S
C767 C768 1.381 1_565 S
C767 H791 0.930 . S
C768 C767 1.381 1_545 S
C768 C770 1.381 . S
C768 C771 1.487 . S
C769 C766 1.382 . S
C769 C770 1.387 . S
C769 H792 0.930 . S
C770 C768 1.381 . S
C770 C769 1.387 . S
C770 H793 0.931 . S
C771 C764 1.399 1_545 S
C771 C768 1.487 . S
C771 N803 1.343 . S
C772 C773 1.384 1_565 S
C772 C774 1.384 . S
C772 H794 0.931 . S
C773 C772 1.384 1_545 S
C773 C776 1.382 . S
C774 C772 1.384 . S
C774 C775 1.381 1_565 S
C774 H795 0.930 . S
C775 C774 1.381 1_545 S
C775 C777 1.381 . S
C775 C778 1.487 . S
C776 C773 1.382 . S
C776 C777 1.387 . S
C776 H796 0.930 . S
C777 C775 1.381 . S
C777 C776 1.387 . S
C777 H797 0.931 . S
C778 C775 1.487 . S
C778 C785 1.399 1_545 S
C778 N803 1.343 . S
C779 C780 1.384 1_545 S
C779 C781 1.384 . S
C779 H798 0.931 . S
C780 C779 1.384 1_565 S
C780 C783 1.382 . S
C781 C779 1.384 . S
C781 C782 1.381 1_545 S
C781 H799 0.930 . S
C782 C781 1.381 1_565 S
C782 C784 1.381 . S
C782 C785 1.487 . S
C783 C780 1.382 . S
C783 C784 1.387 . S
C783 H800 0.930 . S
C784 C782 1.381 . S
C784 C783 1.387 . S
C784 H801 0.931 . S
C785 C778 1.399 1_565 S
C785 C782 1.487 . S
C785 N802 1.343 . S
H786 C758 0.931 . S
H787 C760 0.930 . S
H788 C762 0.930 . S
H789 C763 0.931 . S
H790 C765 0.931 . S
H791 C767 0.930 . S
H792 C769 0.930 . S
H793 C770 0.931 . S
H794 C772 0.931 . S
H795 C774 0.930 . S
H796 C776 0.930 . S
H797 C777 0.931 . S
H798 C779 0.931 . S
H799 C781 0.930 . S
H800 C783 0.930 . S
H801 C784 0.931 . S
N802 C764 1.343 . S
N802 C785 1.343 . S
N803 C771 1.343 . S
N803 C778 1.343 . S
C804 C805 1.384 . S
C804 C806 1.384 . S
C804 H832 0.931 . S
C805 C804 1.384 . S
C805 C808 1.382 1_545 S
C806 C804 1.384 . S
C806 C807 1.384 . S
C806 H833 0.930 . S
C807 C806 1.384 . S
C807 C809 1.375 1_545 S
C807 C810 1.495 1_545 S
C808 C805 1.382 1_565 S
C808 C809 1.387 . S
C808 H834 0.930 . S
C809 C807 1.375 1_565 S
C809 C808 1.387 . S
C809 H835 0.931 . S
C810 C807 1.495 1_565 S
C810 C817 1.399 1_565 S
C810 N848 1.365 . S
C811 C812 1.384 . S
C811 C813 1.384 . S
C811 H836 0.931 . S
C812 C811 1.384 . S
C812 C815 1.382 1_565 S
C813 C811 1.384 . S
C813 C814 1.385 . S
C813 H837 0.930 . S
C814 C813 1.385 . S
C814 C816 1.379 1_565 S
C814 C817 1.477 1_565 S
C815 C812 1.382 1_545 S
C815 C816 1.387 . S
C815 H838 0.930 . S
C816 C814 1.379 1_545 S
C816 C815 1.387 . S
C816 H839 0.931 . S
C817 C810 1.399 1_545 S
C817 C814 1.477 1_545 S
C817 N849 1.352 . S
C818 C819 1.384 . S
C818 C820 1.384 . S
C818 H840 0.931 . S
C819 C818 1.384 . S
C819 C822 1.382 1_565 S
C820 C818 1.384 . S
C820 C821 1.381 . S
C820 H841 0.930 . S
C821 C820 1.381 . S
C821 C823 1.383 1_565 S
C821 C824 1.495 1_565 S
C822 C819 1.382 1_545 S
C822 C823 1.387 . S
C822 H842 0.930 . S
C823 C821 1.383 1_545 S
C823 C822 1.387 . S
C823 H843 0.931 . S
C824 C821 1.495 1_545 S
C824 C831 1.399 1_545 S
C824 N849 1.334 . S
C825 C826 1.384 . S
C825 C827 1.384 . S
C825 H844 0.931 . S
C826 C825 1.384 . S
C826 C829 1.382 1_545 S
C827 C825 1.384 . S
C827 C828 1.399 . S
C827 H845 0.930 . S
C828 C827 1.399 . S
C828 C830 1.372 1_545 S
C828 C831 1.477 1_545 S
C829 C826 1.382 1_565 S
C829 C830 1.387 . S
C829 H846 0.930 . S
C830 C828 1.372 1_565 S
C830 C829 1.387 . S
C830 H847 0.931 . S
C831 C824 1.399 1_565 S
C831 C828 1.477 1_565 S
C831 N848 1.318 . S
H832 C804 0.931 . S
H833 C806 0.930 . S
H834 C808 0.930 . S
H835 C809 0.931 . S
H836 C811 0.931 . S
H837 C813 0.930 . S
H838 C815 0.930 . S
H839 C816 0.931 . S
H840 C818 0.931 . S
H841 C820 0.930 . S
H842 C822 0.930 . S
H843 C823 0.931 . S
H844 C825 0.931 . S
H845 C827 0.930 . S
H846 C829 0.930 . S
H847 C830 0.931 . S
N848 C810 1.365 . S
N848 C831 1.318 . S
N849 C817 1.352 . S
N849 C824 1.334 . S
C850 C851 1.384 . S
C850 C852 1.384 . S
C850 H878 0.931 . S
C851 C850 1.384 . S
C851 C854 1.382 1_655 S
C852 C850 1.384 . S
C852 C853 1.402 . S
C852 H879 0.930 . S
C853 C852 1.402 . S
C853 C855 1.371 1_655 S
C853 C856 1.476 1_655 S
C854 C851 1.382 1_455 S
C854 C855 1.387 . S
C854 H880 0.930 . S
C855 C853 1.371 1_455 S
C855 C854 1.387 . S
C855 H881 0.931 . S
C856 C853 1.476 1_455 S
C856 C863 1.399 1_455 S
C856 N894 1.319 . S
C857 C858 1.384 . S
C857 C859 1.384 . S
C857 H882 0.931 . S
C858 C857 1.384 . S
C858 C861 1.382 1_455 S
C859 C857 1.384 . S
C859 C860 1.381 . S
C859 H883 0.930 . S
C860 C859 1.381 . S
C860 C862 1.381 1_455 S
C860 C863 1.495 1_455 S
C861 C858 1.382 1_655 S
C861 C862 1.387 . S
C861 H884 0.930 . S
C862 C860 1.381 1_655 S
C862 C861 1.387 . S
C862 H885 0.931 . S
C863 C856 1.399 1_655 S
C863 C860 1.495 1_655 S
C863 N895 1.335 . S
C864 C865 1.384 . S
C864 C866 1.384 . S
C864 H886 0.931 . S
C865 C864 1.384 . S
C865 C868 1.382 1_455 S
C866 C864 1.384 . S
C866 C867 1.389 . S
C866 H887 0.930 . S
C867 C866 1.389 . S
C867 C869 1.377 1_455 S
C867 C870 1.476 1_455 S
C868 C865 1.382 1_655 S
C868 C869 1.387 . S
C868 H888 0.930 . S
C869 C867 1.377 1_655 S
C869 C868 1.387 . S
C869 H889 0.931 . S
C870 C867 1.476 1_655 S
C870 C877 1.399 1_655 S
C870 N895 1.351 . S
C871 C872 1.384 . S
C871 C873 1.384 . S
C871 H890 0.931 . S
C872 C871 1.384 . S
C872 C875 1.382 1_655 S
C873 C871 1.384 . S
C873 C874 1.384 . S
C873 H891 0.930 . S
C874 C873 1.384 . S
C874 C876 1.373 1_655 S
C874 C877 1.495 1_655 S
C875 C872 1.382 1_455 S
C875 C876 1.387 . S
C875 H892 0.930 . S
C876 C874 1.373 1_455 S
C876 C875 1.387 . S
C876 H893 0.931 . S
C877 C870 1.399 1_455 S
C877 C874 1.495 1_455 S
C877 N894 1.365 . S
H878 C850 0.931 . S
H879 C852 0.930 . S
H880 C854 0.930 . S
H881 C855 0.931 . S
H882 C857 0.931 . S
H883 C859 0.930 . S
H884 C861 0.930 . S
H885 C862 0.931 . S
H886 C864 0.931 . S
H887 C866 0.930 . S
H888 C868 0.930 . S
H889 C869 0.931 . S
H890 C871 0.931 . S
H891 C873 0.930 . S
H892 C875 0.930 . S
H893 C876 0.931 . S
N894 C856 1.319 . S
N894 C877 1.365 . S
N895 C863 1.335 . S
N895 C870 1.351 . S
C896 C897 1.384 . S
C896 C898 1.384 . S
C896 H924 0.931 . S
C897 C896 1.384 . S
C897 C900 1.382 . S
C898 C896 1.384 . S
C898 C899 1.381 . S
C898 H925 0.930 . S
C899 C898 1.381 . S
C899 C901 1.381 . S
C899 C902 1.487 . S
C900 C897 1.382 . S
C900 C901 1.387 . S
C900 H926 0.930 . S
C901 C899 1.381 . S
C901 C900 1.387 . S
C901 H927 0.931 . S
C902 C899 1.487 . S
C902 C909 1.399 . S
C902 N940 1.343 . S
C903 C904 1.384 . S
C903 C905 1.384 . S
C903 H928 0.931 . S
C904 C903 1.384 . S
C904 C907 1.382 . S
C905 C903 1.384 . S
C905 C906 1.381 . S
C905 H929 0.930 . S
C906 C905 1.381 . S
C906 C908 1.381 . S
C906 C909 1.487 . S
C907 C904 1.382 . S
C907 C908 1.387 . S
C907 H930 0.930 . S
C908 C906 1.381 . S
C908 C907 1.387 . S
C908 H931 0.931 . S
C909 C902 1.399 . S
C909 C906 1.487 . S
C909 N941 1.343 . S
C910 C911 1.384 . S
C910 C912 1.384 . S
C910 H932 0.931 . S
C911 C910 1.384 . S
C911 C914 1.382 . S
C912 C910 1.384 . S
C912 C913 1.381 . S
C912 H933 0.930 . S
C913 C912 1.381 . S
C913 C915 1.381 . S
C913 C916 1.487 . S
C914 C911 1.382 . S
C914 C915 1.387 . S
C914 H934 0.930 . S
C915 C913 1.381 . S
C915 C914 1.387 . S
C915 H935 0.931 . S
C916 C913 1.487 . S
C916 C923 1.399 . S
C916 N941 1.343 . S
C917 C918 1.384 . S
C917 C919 1.384 . S
C917 H936 0.931 . S
C918 C917 1.384 . S
C918 C921 1.382 . S
C919 C917 1.384 . S
C919 C920 1.381 . S
C919 H937 0.930 . S
C920 C919 1.381 . S
C920 C922 1.381 . S
C920 C923 1.487 . S
C921 C918 1.382 . S
C921 C922 1.387 . S
C921 H938 0.930 . S
C922 C920 1.381 . S
C922 C921 1.387 . S
C922 H939 0.931 . S
C923 C916 1.399 . S
C923 C920 1.487 . S
C923 N940 1.343 . S
H924 C896 0.931 . S
H925 C898 0.930 . S
H926 C900 0.930 . S
H927 C901 0.931 . S
H928 C903 0.931 . S
H929 C905 0.930 . S
H930 C907 0.930 . S
H931 C908 0.931 . S
H932 C910 0.931 . S
H933 C912 0.930 . S
H934 C914 0.930 . S
H935 C915 0.931 . S
H936 C917 0.931 . S
H937 C919 0.930 . S
H938 C921 0.930 . S
H939 C922 0.931 . S
N940 C902 1.343 . S
N940 C923 1.343 . S
N941 C909 1.343 . S
N941 C916 1.343 . S
C942 C943 1.384 . S
C942 C944 1.384 . S
C942 H970 0.931 . S
C943 C942 1.384 . S
C943 C946 1.382 . S
C944 C942 1.384 . S
C944 C945 1.381 . S
C944 H971 0.930 . S
C945 C944 1.381 . S
C945 C947 1.381 . S
C945 C948 1.487 . S
C946 C943 1.382 . S
C946 C947 1.387 . S
C946 H972 0.930 . S
C947 C945 1.381 . S
C947 C946 1.387 . S
C947 H973 0.931 . S
C948 C945 1.487 . S
C948 C955 1.399 . S
C948 N986 1.343 . S
C949 C950 1.384 . S
C949 C951 1.384 . S
C949 H974 0.931 . S
C950 C949 1.384 . S
C950 C953 1.382 . S
C951 C949 1.384 . S
C951 C952 1.381 . S
C951 H975 0.930 . S
C952 C951 1.381 . S
C952 C954 1.381 . S
C952 C955 1.487 . S
C953 C950 1.382 . S
C953 C954 1.387 . S
C953 H976 0.930 . S
C954 C952 1.381 . S
C954 C953 1.387 . S
C954 H977 0.931 . S
C955 C948 1.399 . S
C955 C952 1.487 . S
C955 N987 1.343 . S
C956 C957 1.384 . S
C956 C958 1.384 . S
C956 H978 0.931 . S
C957 C956 1.384 . S
C957 C960 1.382 . S
C958 C956 1.384 . S
C958 C959 1.381 . S
C958 H979 0.930 . S
C959 C958 1.381 . S
C959 C961 1.381 . S
C959 C962 1.487 . S
C960 C957 1.382 . S
C960 C961 1.387 . S
C960 H980 0.930 . S
C961 C959 1.381 . S
C961 C960 1.387 . S
C961 H981 0.931 . S
C962 C959 1.487 . S
C962 C969 1.399 . S
C962 N987 1.343 . S
C963 C964 1.384 . S
C963 C965 1.384 . S
C963 H982 0.931 . S
C964 C963 1.384 . S
C964 C967 1.382 . S
C965 C963 1.384 . S
C965 C966 1.381 . S
C965 H983 0.930 . S
C966 C965 1.381 . S
C966 C968 1.381 . S
C966 C969 1.487 . S
C967 C964 1.382 . S
C967 C968 1.387 . S
C967 H984 0.930 . S
C968 C966 1.381 . S
C968 C967 1.387 . S
C968 H985 0.931 . S
C969 C962 1.399 . S
C969 C966 1.487 . S
C969 N986 1.343 . S
H970 C942 0.931 . S
H971 C944 0.930 . S
H972 C946 0.930 . S
H973 C947 0.931 . S
H974 C949 0.931 . S
H975 C951 0.930 . S
H976 C953 0.930 . S
H977 C954 0.931 . S
H978 C956 0.931 . S
H979 C958 0.930 . S
H980 C960 0.930 . S
H981 C961 0.931 . S
H982 C963 0.931 . S
H983 C965 0.930 . S
H984 C967 0.930 . S
H985 C968 0.931 . S
N986 C948 1.343 . S
N986 C969 1.343 . S
N987 C955 1.343 . S
N987 C962 1.343 . S
C988 C989 1.384 . S
C988 C990 1.384 . S
C988 H1016 0.931 . S
C989 C988 1.384 . S
C989 C992 1.382 . S
C990 C988 1.384 . S
C990 C991 1.381 . S
C990 H1017 0.930 . S
C991 C990 1.381 . S
C991 C993 1.381 . S
C991 C994 1.487 . S
C992 C989 1.382 . S
C992 C993 1.387 . S
C992 H1018 0.930 . S
C993 C991 1.381 . S
C993 C992 1.387 . S
C993 H1019 0.931 . S
C994 C991 1.487 . S
C994 C1001 1.399 . S
C994 N1032 1.343 . S
C995 C996 1.384 . S
C995 C997 1.384 . S
C995 H1020 0.931 . S
C996 C995 1.384 . S
C996 C999 1.382 . S
C997 C995 1.384 . S
C997 C998 1.381 . S
C997 H1021 0.930 . S
C998 C997 1.381 . S
C998 C1000 1.381 . S
C998 C1001 1.487 . S
C999 C996 1.382 . S
C999 C1000 1.387 . S
C999 H1022 0.930 . S
C1000 C998 1.381 . S
C1000 C999 1.387 . S
C1000 H1023 0.931 . S
C1001 C994 1.399 . S
C1001 C998 1.487 . S
C1001 N1033 1.343 . S
C1002 C1003 1.384 . S
C1002 C1004 1.384 . S
C1002 H1024 0.931 . S
C1003 C1002 1.384 . S
C1003 C1006 1.382 . S
C1004 C1002 1.384 . S
C1004 C1005 1.381 . S
C1004 H1025 0.930 . S
C1005 C1004 1.381 . S
C1005 C1007 1.381 . S
C1005 C1008 1.487 . S
C1006 C1003 1.382 . S
C1006 C1007 1.387 . S
C1006 H1026 0.930 . S
C1007 C1005 1.381 . S
C1007 C1006 1.387 . S
C1007 H1027 0.931 . S
C1008 C1005 1.487 . S
C1008 C1015 1.399 . S
C1008 N1033 1.343 . S
C1009 C1010 1.384 . S
C1009 C1011 1.384 . S
C1009 H1028 0.931 . S
C1010 C1009 1.384 . S
C1010 C1013 1.382 . S
C1011 C1009 1.384 . S
C1011 C1012 1.381 . S
C1011 H1029 0.930 . S
C1012 C1011 1.381 . S
C1012 C1014 1.381 . S
C1012 C1015 1.487 . S
C1013 C1010 1.382 . S
C1013 C1014 1.387 . S
C1013 H1030 0.930 . S
C1014 C1012 1.381 . S
C1014 C1013 1.387 . S
C1014 H1031 0.931 . S
C1015 C1008 1.399 . S
C1015 C1012 1.487 . S
C1015 N1032 1.343 . S
H1016 C988 0.931 . S
H1017 C990 0.930 . S
H1018 C992 0.930 . S
H1019 C993 0.931 . S
H1020 C995 0.931 . S
H1021 C997 0.930 . S
H1022 C999 0.930 . S
H1023 C1000 0.931 . S
H1024 C1002 0.931 . S
H1025 C1004 0.930 . S
H1026 C1006 0.930 . S
H1027 C1007 0.931 . S
H1028 C1009 0.931 . S
H1029 C1011 0.930 . S
H1030 C1013 0.930 . S
H1031 C1014 0.931 . S
N1032 C994 1.343 . S
N1032 C1015 1.343 . S
N1033 C1001 1.343 . S
N1033 C1008 1.343 . S
C1034 C1035 1.384 . S
C1034 C1036 1.384 . S
C1034 H1062 0.931 . S
C1035 C1034 1.384 . S
C1035 C1038 1.382 . S
C1036 C1034 1.384 . S
C1036 C1037 1.381 . S
C1036 H1063 0.930 . S
C1037 C1036 1.381 . S
C1037 C1039 1.381 . S
C1037 C1040 1.487 . S
C1038 C1035 1.382 . S
C1038 C1039 1.387 . S
C1038 H1064 0.930 . S
C1039 C1037 1.381 . S
C1039 C1038 1.387 . S
C1039 H1065 0.931 . S
C1040 C1037 1.487 . S
C1040 C1047 1.399 . S
C1040 N1078 1.343 . S
C1041 C1042 1.384 . S
C1041 C1043 1.384 . S
C1041 H1066 0.931 . S
C1042 C1041 1.384 . S
C1042 C1045 1.382 . S
C1043 C1041 1.384 . S
C1043 C1044 1.381 . S
C1043 H1067 0.930 . S
C1044 C1043 1.381 . S
C1044 C1046 1.381 . S
C1044 C1047 1.487 . S
C1045 C1042 1.382 . S
C1045 C1046 1.387 . S
C1045 H1068 0.930 . S
C1046 C1044 1.381 . S
C1046 C1045 1.387 . S
C1046 H1069 0.931 . S
C1047 C1040 1.399 . S
C1047 C1044 1.487 . S
C1047 N1079 1.343 . S
C1048 C1049 1.384 . S
C1048 C1050 1.384 . S
C1048 H1070 0.931 . S
C1049 C1048 1.384 . S
C1049 C1052 1.382 . S
C1050 C1048 1.384 . S
C1050 C1051 1.381 . S
C1050 H1071 0.930 . S
C1051 C1050 1.381 . S
C1051 C1053 1.381 . S
C1051 C1054 1.487 . S
C1052 C1049 1.382 . S
C1052 C1053 1.387 . S
C1052 H1072 0.930 . S
C1053 C1051 1.381 . S
C1053 C1052 1.387 . S
C1053 H1073 0.931 . S
C1054 C1051 1.487 . S
C1054 C1061 1.399 . S
C1054 N1079 1.343 . S
C1055 C1056 1.384 . S
C1055 C1057 1.384 . S
C1055 H1074 0.931 . S
C1056 C1055 1.384 . S
C1056 C1059 1.382 . S
C1057 C1055 1.384 . S
C1057 C1058 1.381 . S
C1057 H1075 0.930 . S
C1058 C1057 1.381 . S
C1058 C1060 1.381 . S
C1058 C1061 1.487 . S
C1059 C1056 1.382 . S
C1059 C1060 1.387 . S
C1059 H1076 0.930 . S
C1060 C1058 1.381 . S
C1060 C1059 1.387 . S
C1060 H1077 0.931 . S
C1061 C1054 1.399 . S
C1061 C1058 1.487 . S
C1061 N1078 1.343 . S
H1062 C1034 0.931 . S
H1063 C1036 0.930 . S
H1064 C1038 0.930 . S
H1065 C1039 0.931 . S
H1066 C1041 0.931 . S
H1067 C1043 0.930 . S
H1068 C1045 0.930 . S
H1069 C1046 0.931 . S
H1070 C1048 0.931 . S
H1071 C1050 0.930 . S
H1072 C1052 0.930 . S
H1073 C1053 0.931 . S
H1074 C1055 0.931 . S
H1075 C1057 0.930 . S
H1076 C1059 0.930 . S
H1077 C1060 0.931 . S
N1078 C1040 1.343 . S
N1078 C1061 1.343 . S
N1079 C1047 1.343 . S
N1079 C1054 1.343 . S
C1080 C1081 1.363 1_455 S
C1080 C1086 1.379 . S
C1080 N1088 1.356 . S
C1081 C1080 1.363 1_655 S
C1081 C1087 1.363 . S
C1082 C1083 1.363 . S
C1082 C1087 1.379 . S
C1082 N1089 1.356 . S
C1083 C1082 1.363 . S
C1083 C1086 1.363 1_655 S
N1084 C1086 1.356 . S
N1084 H1096 0.984 . S
N1084 H1097 0.985 . S
N1085 C1087 1.356 . S
N1085 H1090 0.984 . S
N1085 H1091 0.985 . S
C1086 C1080 1.379 . S
C1086 C1083 1.363 1_455 S
C1086 N1084 1.356 . S
C1087 C1081 1.363 . S
C1087 C1082 1.379 . S
C1087 N1085 1.356 . S
N1088 C1080 1.356 . S
N1088 H1094 0.984 . S
N1088 H1095 0.984 . S
N1089 C1082 1.356 . S
N1089 H1092 0.984 . S
N1089 H1093 0.985 . S
H1090 N1085 0.984 . S
H1091 N1085 0.985 . S
H1092 N1089 0.984 . S
H1093 N1089 0.985 . S
H1094 N1088 0.984 . S
H1095 N1088 0.984 . S
H1096 N1084 0.984 . S
H1097 N1084 0.985 . S
C1098 C1099 1.363 . S
C1098 C1104 1.379 . S
C1098 N1106 1.356 . S
C1099 C1098 1.363 . S
C1099 C1105 1.363 . S
C1100 C1101 1.363 . S
C1100 C1105 1.379 . S
C1100 N1107 1.356 . S
C1101 C1100 1.363 . S
C1101 C1104 1.363 . S
N1102 C1104 1.356 . S
N1102 H1114 0.984 . S
N1102 H1115 0.985 . S
N1103 C1105 1.356 . S
N1103 H1108 0.984 . S
N1103 H1109 0.985 . S
C1104 C1098 1.379 . S
C1104 C1101 1.363 . S
C1104 N1102 1.356 . S
C1105 C1099 1.363 . S
C1105 C1100 1.379 . S
C1105 N1103 1.356 . S
N1106 C1098 1.356 . S
N1106 H1112 0.984 . S
N1106 H1113 0.984 . S
N1107 C1100 1.356 . S
N1107 H1110 0.984 . S
N1107 H1111 0.985 . S
H1108 N1103 0.984 . S
H1109 N1103 0.985 . S
H1110 N1107 0.984 . S
H1111 N1107 0.985 . S
H1112 N1106 0.984 . S
H1113 N1106 0.984 . S
H1114 N1102 0.984 . S
H1115 N1102 0.985 . S
C1116 C1117 1.363 . S
C1116 C1122 1.379 . S
C1116 N1124 1.356 . S
C1117 C1116 1.363 . S
C1117 C1123 1.363 1_545 S
C1118 C1119 1.363 1_565 S
C1118 C1123 1.379 . S
C1118 N1125 1.356 . S
C1119 C1118 1.363 1_545 S
C1119 C1122 1.363 . S
N1120 C1122 1.356 . S
N1120 H1132 0.984 . S
N1120 H1133 0.985 . S
N1121 C1123 1.356 . S
N1121 H1126 0.984 . S
N1121 H1127 0.985 . S
C1122 C1116 1.379 . S
C1122 C1119 1.363 . S
C1122 N1120 1.356 . S
C1123 C1117 1.363 1_565 S
C1123 C1118 1.379 . S
C1123 N1121 1.356 . S
N1124 C1116 1.356 . S
N1124 H1130 0.984 . S
N1124 H1131 0.984 . S
N1125 C1118 1.356 . S
N1125 H1128 0.984 . S
N1125 H1129 0.985 . S
H1126 N1121 0.984 . S
H1127 N1121 0.985 . S
H1128 N1125 0.984 . S
H1129 N1125 0.985 . S
H1130 N1124 0.984 . S
H1131 N1124 0.984 . S
H1132 N1120 0.984 . S
H1133 N1120 0.985 . S
C1134 C1135 1.363 1_545 S
C1134 C1140 1.379 . S
C1134 N1142 1.356 . S
C1135 C1134 1.363 1_565 S
C1135 C1141 1.363 . S
C1136 C1137 1.363 . S
C1136 C1141 1.379 . S
C1136 N1143 1.356 . S
C1137 C1136 1.363 . S
C1137 C1140 1.363 1_565 S
N1138 C1140 1.356 . S
N1138 H1150 0.984 . S
N1138 H1151 0.985 . S
N1139 C1141 1.356 . S
N1139 H1144 0.984 . S
N1139 H1145 0.985 . S
C1140 C1134 1.379 . S
C1140 C1137 1.363 1_545 S
C1140 N1138 1.356 . S
C1141 C1135 1.363 . S
C1141 C1136 1.379 . S
C1141 N1139 1.356 . S
N1142 C1134 1.356 . S
N1142 H1148 0.984 . S
N1142 H1149 0.984 . S
N1143 C1136 1.356 . S
N1143 H1146 0.984 . S
N1143 H1147 0.985 . S
H1144 N1139 0.984 . S
H1145 N1139 0.985 . S
H1146 N1143 0.984 . S
H1147 N1143 0.985 . S
H1148 N1142 0.984 . S
H1149 N1142 0.984 . S
H1150 N1138 0.984 . S
H1151 N1138 0.985 . S
C1152 C1153 1.363 . S
C1152 C1158 1.379 . S
C1152 N1160 1.356 . S
C1153 C1152 1.363 . S
C1153 C1159 1.363 1_455 S
C1154 C1155 1.363 1_655 S
C1154 C1159 1.379 . S
C1154 N1161 1.356 . S
C1155 C1154 1.363 1_455 S
C1155 C1158 1.363 . S
N1156 C1158 1.356 . S
N1156 H1168 0.984 . S
N1156 H1169 0.985 . S
N1157 C1159 1.356 . S
N1157 H1162 0.984 . S
N1157 H1163 0.985 . S
C1158 C1152 1.379 . S
C1158 C1155 1.363 . S
C1158 N1156 1.356 . S
C1159 C1153 1.363 1_655 S
C1159 C1154 1.379 . S
C1159 N1157 1.356 . S
N1160 C1152 1.356 . S
N1160 H1166 0.984 . S
N1160 H1167 0.984 . S
N1161 C1154 1.356 . S
N1161 H1164 0.984 . S
N1161 H1165 0.985 . S
H1162 N1157 0.984 . S
H1163 N1157 0.985 . S
H1164 N1161 0.984 . S
H1165 N1161 0.985 . S
H1166 N1160 0.984 . S
H1167 N1160 0.984 . S
H1168 N1156 0.984 . S
H1169 N1156 0.985 . S
C1170 C1171 1.363 . S
C1170 C1176 1.379 . S
C1170 N1178 1.356 . S
C1171 C1170 1.363 . S
C1171 C1177 1.363 . S
C1172 C1173 1.363 . S
C1172 C1177 1.379 . S
C1172 N1179 1.356 . S
C1173 C1172 1.363 . S
C1173 C1176 1.363 . S
N1174 C1176 1.356 . S
N1174 H1186 0.984 . S
N1174 H1187 0.985 . S
N1175 C1177 1.356 . S
N1175 H1180 0.984 . S
N1175 H1181 0.985 . S
C1176 C1170 1.379 . S
C1176 C1173 1.363 . S
C1176 N1174 1.356 . S
C1177 C1171 1.363 . S
C1177 C1172 1.379 . S
C1177 N1175 1.356 . S
N1178 C1170 1.356 . S
N1178 H1184 0.984 . S
N1178 H1185 0.984 . S
N1179 C1172 1.356 . S
N1179 H1182 0.984 . S
N1179 H1183 0.985 . S
H1180 N1175 0.984 . S
H1181 N1175 0.985 . S
H1182 N1179 0.984 . S
H1183 N1179 0.985 . S
H1184 N1178 0.984 . S
H1185 N1178 0.984 . S
H1186 N1174 0.984 . S
H1187 N1174 0.985 . S
C1188 C1189 1.363 1_655 S
C1188 C1194 1.379 . S
C1188 N1196 1.356 . S
C1189 C1188 1.363 1_455 S
C1189 C1195 1.363 . S
C1190 C1191 1.363 . S
C1190 C1195 1.379 . S
C1190 N1197 1.356 . S
C1191 C1190 1.363 . S
C1191 C1194 1.363 1_455 S
N1192 C1194 1.356 . S
N1192 H1204 0.984 . S
N1192 H1205 0.985 . S
N1193 C1195 1.356 . S
N1193 H1198 0.984 . S
N1193 H1199 0.985 . S
C1194 C1188 1.379 . S
C1194 C1191 1.363 1_655 S
C1194 N1192 1.356 . S
C1195 C1189 1.363 . S
C1195 C1190 1.379 . S
C1195 N1193 1.356 . S
N1196 C1188 1.356 . S
N1196 H1202 0.984 . S
N1196 H1203 0.984 . S
N1197 C1190 1.356 . S
N1197 H1200 0.984 . S
N1197 H1201 0.985 . S
H1198 N1193 0.984 . S
H1199 N1193 0.985 . S
H1200 N1197 0.984 . S
H1201 N1197 0.985 . S
H1202 N1196 0.984 . S
H1203 N1196 0.984 . S
H1204 N1192 0.984 . S
H1205 N1192 0.985 . S
C1206 C1207 1.363 . S
C1206 C1212 1.379 . S
C1206 N1214 1.356 . S
C1207 C1206 1.363 . S
C1207 C1213 1.363 . S
C1208 C1209 1.363 . S
C1208 C1213 1.379 . S
C1208 N1215 1.356 . S
C1209 C1208 1.363 . S
C1209 C1212 1.363 . S
N1210 C1212 1.356 . S
N1210 H1222 0.984 . S
N1210 H1223 0.985 . S
N1211 C1213 1.356 . S
N1211 H1216 0.984 . S
N1211 H1217 0.985 . S
C1212 C1206 1.379 . S
C1212 C1209 1.363 . S
C1212 N1210 1.356 . S
C1213 C1207 1.363 . S
C1213 C1208 1.379 . S
C1213 N1211 1.356 . S
N1214 C1206 1.356 . S
N1214 H1220 0.984 . S
N1214 H1221 0.984 . S
N1215 C1208 1.356 . S
N1215 H1218 0.984 . S
N1215 H1219 0.985 . S
H1216 N1211 0.984 . S
H1217 N1211 0.985 . S
H1218 N1215 0.984 . S
H1219 N1215 0.985 . S
H1220 N1214 0.984 . S
H1221 N1214 0.984 . S
H1222 N1210 0.984 . S
H1223 N1210 0.985 . S
C1224 C1225 1.363 . S
C1224 C1230 1.379 . S
C1224 N1232 1.356 . S
C1225 C1224 1.363 . S
C1225 C1231 1.363 1_565 S
C1226 C1227 1.363 1_545 S
C1226 C1231 1.379 . S
C1226 N1233 1.356 . S
C1227 C1226 1.363 1_565 S
C1227 C1230 1.363 . S
N1228 C1230 1.356 . S
N1228 H1240 0.984 . S
N1228 H1241 0.985 . S
N1229 C1231 1.356 . S
N1229 H1234 0.984 . S
N1229 H1235 0.985 . S
C1230 C1224 1.379 . S
C1230 C1227 1.363 . S
C1230 N1228 1.356 . S
C1231 C1225 1.363 1_545 S
C1231 C1226 1.379 . S
C1231 N1229 1.356 . S
N1232 C1224 1.356 . S
N1232 H1238 0.984 . S
N1232 H1239 0.984 . S
N1233 C1226 1.356 . S
N1233 H1236 0.984 . S
N1233 H1237 0.985 . S
H1234 N1229 0.984 . S
H1235 N1229 0.985 . S
H1236 N1233 0.984 . S
H1237 N1233 0.985 . S
H1238 N1232 0.984 . S
H1239 N1232 0.984 . S
H1240 N1228 0.984 . S
H1241 N1228 0.985 . S
C1242 C1243 1.363 1_565 S
C1242 C1248 1.379 . S
C1242 N1250 1.356 . S
C1243 C1242 1.363 1_545 S
C1243 C1249 1.363 . S
C1244 C1245 1.363 . S
C1244 C1249 1.379 . S
C1244 N1251 1.356 . S
C1245 C1244 1.363 . S
C1245 C1248 1.363 1_545 S
N1246 C1248 1.356 . S
N1246 H1258 0.984 . S
N1246 H1259 0.985 . S
N1247 C1249 1.356 . S
N1247 H1252 0.984 . S
N1247 H1253 0.985 . S
C1248 C1242 1.379 . S
C1248 C1245 1.363 1_565 S
C1248 N1246 1.356 . S
C1249 C1243 1.363 . S
C1249 C1244 1.379 . S
C1249 N1247 1.356 . S
N1250 C1242 1.356 . S
N1250 H1256 0.984 . S
N1250 H1257 0.984 . S
N1251 C1244 1.356 . S
N1251 H1254 0.984 . S
N1251 H1255 0.985 . S
H1252 N1247 0.984 . S
H1253 N1247 0.985 . S
H1254 N1251 0.984 . S
H1255 N1251 0.985 . S
H1256 N1250 0.984 . S
H1257 N1250 0.984 . S
H1258 N1246 0.984 . S
H1259 N1246 0.985 . S
C1260 C1261 1.363 1_455 S
C1260 C1266 1.379 . S
C1260 N1268 1.356 . S
C1261 C1260 1.363 1_655 S
C1261 C1267 1.363 . S
C1262 C1263 1.363 . S
C1262 C1267 1.379 . S
C1262 N1269 1.356 . S
C1263 C1262 1.363 . S
C1263 C1266 1.363 1_655 S
N1264 C1266 1.356 . S
N1264 H1276 0.984 . S
N1264 H1277 0.985 . S
N1265 C1267 1.356 . S
N1265 H1270 0.984 . S
N1265 H1271 0.985 . S
C1266 C1260 1.379 . S
C1266 C1263 1.363 1_455 S
C1266 N1264 1.356 . S
C1267 C1261 1.363 . S
C1267 C1262 1.379 . S
C1267 N1265 1.356 . S
N1268 C1260 1.356 . S
N1268 H1274 0.984 . S
N1268 H1275 0.984 . S
N1269 C1262 1.356 . S
N1269 H1272 0.984 . S
N1269 H1273 0.985 . S
H1270 N1265 0.984 . S
H1271 N1265 0.985 . S
H1272 N1269 0.984 . S
H1273 N1269 0.985 . S
H1274 N1268 0.984 . S
H1275 N1268 0.984 . S
H1276 N1264 0.984 . S
H1277 N1264 0.985 . S
C1278 C1279 1.363 . S
C1278 C1284 1.379 . S
C1278 N1286 1.356 . S
C1279 C1278 1.363 . S
C1279 C1285 1.363 . S
C1280 C1281 1.363 . S
C1280 C1285 1.379 . S
C1280 N1287 1.356 . S
C1281 C1280 1.363 . S
C1281 C1284 1.363 . S
N1282 C1284 1.356 . S
N1282 H1294 0.984 . S
N1282 H1295 0.985 . S
N1283 C1285 1.356 . S
N1283 H1288 0.984 . S
N1283 H1289 0.985 . S
C1284 C1278 1.379 . S
C1284 C1281 1.363 . S
C1284 N1282 1.356 . S
C1285 C1279 1.363 . S
C1285 C1280 1.379 . S
C1285 N1283 1.356 . S
N1286 C1278 1.356 . S
N1286 H1292 0.984 . S
N1286 H1293 0.984 . S
N1287 C1280 1.356 . S
N1287 H1290 0.984 . S
N1287 H1291 0.985 . S
H1288 N1283 0.984 . S
H1289 N1283 0.985 . S
H1290 N1287 0.984 . S
H1291 N1287 0.985 . S
H1292 N1286 0.984 . S
H1293 N1286 0.984 . S
H1294 N1282 0.984 . S
H1295 N1282 0.985 . S
C1296 C1297 1.363 . S
C1296 C1302 1.379 . S
C1296 N1304 1.356 . S
C1297 C1296 1.363 . S
C1297 C1303 1.363 . S
C1298 C1299 1.363 . S
C1298 C1303 1.379 . S
C1298 N1305 1.356 . S
C1299 C1298 1.363 . S
C1299 C1302 1.363 . S
N1300 C1302 1.356 . S
N1300 H1312 0.984 . S
N1300 H1313 0.985 . S
N1301 C1303 1.356 . S
N1301 H1306 0.984 . S
N1301 H1307 0.985 . S
C1302 C1296 1.379 . S
C1302 C1299 1.363 . S
C1302 N1300 1.356 . S
C1303 C1297 1.363 . S
C1303 C1298 1.379 . S
C1303 N1301 1.356 . S
N1304 C1296 1.356 . S
N1304 H1310 0.984 . S
N1304 H1311 0.984 . S
N1305 C1298 1.356 . S
N1305 H1308 0.984 . S
N1305 H1309 0.985 . S
H1306 N1301 0.984 . S
H1307 N1301 0.985 . S
H1308 N1305 0.984 . S
H1309 N1305 0.985 . S
H1310 N1304 0.984 . S
H1311 N1304 0.984 . S
H1312 N1300 0.984 . S
H1313 N1300 0.985 . S
C1314 C1315 1.363 . S
C1314 C1320 1.379 . S
C1314 N1322 1.356 . S
C1315 C1314 1.363 . S
C1315 C1321 1.363 . S
C1316 C1317 1.363 . S
C1316 C1321 1.379 . S
C1316 N1323 1.356 . S
C1317 C1316 1.363 . S
C1317 C1320 1.363 . S
N1318 C1320 1.356 . S
N1318 H1330 0.984 . S
N1318 H1331 0.985 . S
N1319 C1321 1.356 . S
N1319 H1324 0.984 . S
N1319 H1325 0.985 . S
C1320 C1314 1.379 . S
C1320 C1317 1.363 . S
C1320 N1318 1.356 . S
C1321 C1315 1.363 . S
C1321 C1316 1.379 . S
C1321 N1319 1.356 . S
N1322 C1314 1.356 . S
N1322 H1328 0.984 . S
N1322 H1329 0.984 . S
N1323 C1316 1.356 . S
N1323 H1326 0.984 . S
N1323 H1327 0.985 . S
H1324 N1319 0.984 . S
H1325 N1319 0.985 . S
H1326 N1323 0.984 . S
H1327 N1323 0.985 . S
H1328 N1322 0.984 . S
H1329 N1322 0.984 . S
H1330 N1318 0.984 . S
H1331 N1318 0.985 . S
C1332 C1333 1.363 . S
C1332 C1338 1.379 . S
C1332 N1340 1.356 . S
C1333 C1332 1.363 . S
C1333 C1339 1.363 . S
C1334 C1335 1.363 . S
C1334 C1339 1.379 . S
C1334 N1341 1.356 . S
C1335 C1334 1.363 . S
C1335 C1338 1.363 . S
N1336 C1338 1.356 . S
N1336 H1348 0.984 . S
N1336 H1349 0.985 . S
N1337 C1339 1.356 . S
N1337 H1342 0.984 . S
N1337 H1343 0.985 . S
C1338 C1332 1.379 . S
C1338 C1335 1.363 . S
C1338 N1336 1.356 . S
C1339 C1333 1.363 . S
C1339 C1334 1.379 . S
C1339 N1337 1.356 . S
N1340 C1332 1.356 . S
N1340 H1346 0.984 . S
N1340 H1347 0.984 . S
N1341 C1334 1.356 . S
N1341 H1344 0.984 . S
N1341 H1345 0.985 . S
H1342 N1337 0.984 . S
H1343 N1337 0.985 . S
H1344 N1341 0.984 . S
H1345 N1341 0.985 . S
H1346 N1340 0.984 . S
H1347 N1340 0.984 . S
H1348 N1336 0.984 . S
H1349 N1336 0.985 . S
C1350 C1351 1.363 . S
C1350 C1356 1.379 . S
C1350 N1358 1.356 . S
C1351 C1350 1.363 . S
C1351 C1357 1.363 . S
C1352 C1353 1.363 . S
C1352 C1357 1.379 . S
C1352 N1359 1.356 . S
C1353 C1352 1.363 . S
C1353 C1356 1.363 . S
N1354 C1356 1.356 . S
N1354 H1366 0.984 . S
N1354 H1367 0.985 . S
N1355 C1357 1.356 . S
N1355 H1360 0.984 . S
N1355 H1361 0.985 . S
C1356 C1350 1.379 . S
C1356 C1353 1.363 . S
C1356 N1354 1.356 . S
C1357 C1351 1.363 . S
C1357 C1352 1.379 . S
C1357 N1355 1.356 . S
N1358 C1350 1.356 . S
N1358 H1364 0.984 . S
N1358 H1365 0.984 . S
N1359 C1352 1.356 . S
N1359 H1362 0.984 . S
N1359 H1363 0.985 . S
H1360 N1355 0.984 . S
H1361 N1355 0.985 . S
H1362 N1359 0.984 . S
H1363 N1359 0.985 . S
H1364 N1358 0.984 . S
H1365 N1358 0.984 . S
H1366 N1354 0.984 . S
H1367 N1354 0.985 . S
C1368 C1369 1.363 . S
C1368 C1374 1.379 . S
C1368 N1376 1.356 . S
C1369 C1368 1.363 . S
C1369 C1375 1.363 . S
C1370 C1371 1.363 . S
C1370 C1375 1.379 . S
C1370 N1377 1.356 . S
C1371 C1370 1.363 . S
C1371 C1374 1.363 . S
N1372 C1374 1.356 . S
N1372 H1384 0.984 . S
N1372 H1385 0.985 . S
N1373 C1375 1.356 . S
N1373 H1378 0.984 . S
N1373 H1379 0.985 . S
C1374 C1368 1.379 . S
C1374 C1371 1.363 . S
C1374 N1372 1.356 . S
C1375 C1369 1.363 . S
C1375 C1370 1.379 . S
C1375 N1373 1.356 . S
N1376 C1368 1.356 . S
N1376 H1382 0.984 . S
N1376 H1383 0.984 . S
N1377 C1370 1.356 . S
N1377 H1380 0.984 . S
N1377 H1381 0.985 . S
H1378 N1373 0.984 . S
H1379 N1373 0.985 . S
H1380 N1377 0.984 . S
H1381 N1377 0.985 . S
H1382 N1376 0.984 . S
H1383 N1376 0.984 . S
H1384 N1372 0.984 . S
H1385 N1372 0.985 . S
C1386 C1387 1.363 . S
C1386 C1392 1.379 . S
C1386 N1394 1.356 . S
C1387 C1386 1.363 . S
C1387 C1393 1.363 . S
C1388 C1389 1.363 . S
C1388 C1393 1.379 . S
C1388 N1395 1.356 . S
C1389 C1388 1.363 . S
C1389 C1392 1.363 . S
N1390 C1392 1.356 . S
N1390 H1402 0.984 . S
N1390 H1403 0.985 . S
N1391 C1393 1.356 . S
N1391 H1396 0.984 . S
N1391 H1397 0.985 . S
C1392 C1386 1.379 . S
C1392 C1389 1.363 . S
C1392 N1390 1.356 . S
C1393 C1387 1.363 . S
C1393 C1388 1.379 . S
C1393 N1391 1.356 . S
N1394 C1386 1.356 . S
N1394 H1400 0.984 . S
N1394 H1401 0.984 . S
N1395 C1388 1.356 . S
N1395 H1398 0.984 . S
N1395 H1399 0.985 . S
H1396 N1391 0.984 . S
H1397 N1391 0.985 . S
H1398 N1395 0.984 . S
H1399 N1395 0.985 . S
H1400 N1394 0.984 . S
H1401 N1394 0.984 . S
H1402 N1390 0.984 . S
H1403 N1390 0.985 . S
C1404 C1405 1.363 . S
C1404 C1410 1.379 . S
C1404 N1412 1.356 . S
C1405 C1404 1.363 . S
C1405 C1411 1.363 . S
C1406 C1407 1.363 . S
C1406 C1411 1.379 . S
C1406 N1413 1.356 . S
C1407 C1406 1.363 . S
C1407 C1410 1.363 . S
N1408 C1410 1.356 . S
N1408 H1420 0.984 . S
N1408 H1421 0.985 . S
N1409 C1411 1.356 . S
N1409 H1414 0.984 . S
N1409 H1415 0.985 . S
C1410 C1404 1.379 . S
C1410 C1407 1.363 . S
C1410 N1408 1.356 . S
C1411 C1405 1.363 . S
C1411 C1406 1.379 . S
C1411 N1409 1.356 . S
N1412 C1404 1.356 . S
N1412 H1418 0.984 . S
N1412 H1419 0.984 . S
N1413 C1406 1.356 . S
N1413 H1416 0.984 . S
N1413 H1417 0.985 . S
H1414 N1409 0.984 . S
H1415 N1409 0.985 . S
H1416 N1413 0.984 . S
H1417 N1413 0.985 . S
H1418 N1412 0.984 . S
H1419 N1412 0.984 . S
H1420 N1408 0.984 . S
H1421 N1408 0.985 . S
C1422 C1423 1.363 . S
C1422 C1428 1.379 . S
C1422 N1430 1.356 . S
C1423 C1422 1.363 . S
C1423 C1429 1.363 . S
C1424 C1425 1.363 . S
C1424 C1429 1.379 . S
C1424 N1431 1.356 . S
C1425 C1424 1.363 . S
C1425 C1428 1.363 . S
N1426 C1428 1.356 . S
N1426 H1438 0.984 . S
N1426 H1439 0.985 . S
N1427 C1429 1.356 . S
N1427 H1432 0.984 . S
N1427 H1433 0.985 . S
C1428 C1422 1.379 . S
C1428 C1425 1.363 . S
C1428 N1426 1.356 . S
C1429 C1423 1.363 . S
C1429 C1424 1.379 . S
C1429 N1427 1.356 . S
N1430 C1422 1.356 . S
N1430 H1436 0.984 . S
N1430 H1437 0.984 . S
N1431 C1424 1.356 . S
N1431 H1434 0.984 . S
N1431 H1435 0.985 . S
H1432 N1427 0.984 . S
H1433 N1427 0.985 . S
H1434 N1431 0.984 . S
H1435 N1431 0.985 . S
H1436 N1430 0.984 . S
H1437 N1430 0.984 . S
H1438 N1426 0.984 . S
H1439 N1426 0.985 . S
C1440 C1441 1.363 . S
C1440 C1446 1.379 . S
C1440 N1448 1.356 . S
C1441 C1440 1.363 . S
C1441 C1447 1.363 . S
C1442 C1443 1.363 . S
C1442 C1447 1.379 . S
C1442 N1449 1.356 . S
C1443 C1442 1.363 . S
C1443 C1446 1.363 . S
N1444 C1446 1.356 . S
N1444 H1456 0.984 . S
N1444 H1457 0.985 . S
N1445 C1447 1.356 . S
N1445 H1450 0.984 . S
N1445 H1451 0.985 . S
C1446 C1440 1.379 . S
C1446 C1443 1.363 . S
C1446 N1444 1.356 . S
C1447 C1441 1.363 . S
C1447 C1442 1.379 . S
C1447 N1445 1.356 . S
N1448 C1440 1.356 . S
N1448 H1454 0.984 . S
N1448 H1455 0.984 . S
N1449 C1442 1.356 . S
N1449 H1452 0.984 . S
N1449 H1453 0.985 . S
H1450 N1445 0.984 . S
H1451 N1445 0.985 . S
H1452 N1449 0.984 . S
H1453 N1449 0.985 . S
H1454 N1448 0.984 . S
H1455 N1448 0.984 . S
H1456 N1444 0.984 . S
H1457 N1444 0.985 . S
C1458 C1459 1.363 . S
C1458 C1464 1.379 . S
C1458 N1466 1.356 . S
C1459 C1458 1.363 . S
C1459 C1465 1.363 . S
C1460 C1461 1.363 . S
C1460 C1465 1.379 . S
C1460 N1467 1.356 . S
C1461 C1460 1.363 . S
C1461 C1464 1.363 . S
N1462 C1464 1.356 . S
N1462 H1474 0.984 . S
N1462 H1475 0.985 . S
N1463 C1465 1.356 . S
N1463 H1468 0.984 . S
N1463 H1469 0.985 . S
C1464 C1458 1.379 . S
C1464 C1461 1.363 . S
C1464 N1462 1.356 . S
C1465 C1459 1.363 . S
C1465 C1460 1.379 . S
C1465 N1463 1.356 . S
N1466 C1458 1.356 . S
N1466 H1472 0.984 . S
N1466 H1473 0.984 . S
N1467 C1460 1.356 . S
N1467 H1470 0.984 . S
N1467 H1471 0.985 . S
H1468 N1463 0.984 . S
H1469 N1463 0.985 . S
H1470 N1467 0.984 . S
H1471 N1467 0.985 . S
H1472 N1466 0.984 . S
H1473 N1466 0.984 . S
H1474 N1462 0.984 . S
H1475 N1462 0.985 . S
C1476 C1477 1.363 . S
C1476 C1482 1.379 . S
C1476 N1484 1.356 . S
C1477 C1476 1.363 . S
C1477 C1483 1.363 . S
C1478 C1479 1.363 . S
C1478 C1483 1.379 . S
C1478 N1485 1.356 . S
C1479 C1478 1.363 . S
C1479 C1482 1.363 . S
N1480 C1482 1.356 . S
N1480 H1492 0.984 . S
N1480 H1493 0.985 . S
N1481 C1483 1.356 . S
N1481 H1486 0.984 . S
N1481 H1487 0.985 . S
C1482 C1476 1.379 . S
C1482 C1479 1.363 . S
C1482 N1480 1.356 . S
C1483 C1477 1.363 . S
C1483 C1478 1.379 . S
C1483 N1481 1.356 . S
N1484 C1476 1.356 . S
N1484 H1490 0.984 . S
N1484 H1491 0.984 . S
N1485 C1478 1.356 . S
N1485 H1488 0.984 . S
N1485 H1489 0.985 . S
H1486 N1481 0.984 . S
H1487 N1481 0.985 . S
H1488 N1485 0.984 . S
H1489 N1485 0.985 . S
H1490 N1484 0.984 . S
H1491 N1484 0.984 . S
H1492 N1480 0.984 . S
H1493 N1480 0.985 . S
C1494 C1495 1.363 . S
C1494 C1500 1.379 . S
C1494 N1502 1.356 . S
C1495 C1494 1.363 . S
C1495 C1501 1.363 . S
C1496 C1497 1.363 . S
C1496 C1501 1.379 . S
C1496 N1503 1.356 . S
C1497 C1496 1.363 . S
C1497 C1500 1.363 . S
N1498 C1500 1.356 . S
N1498 H1510 0.984 . S
N1498 H1511 0.985 . S
N1499 C1501 1.356 . S
N1499 H1504 0.984 . S
N1499 H1505 0.985 . S
C1500 C1494 1.379 . S
C1500 C1497 1.363 . S
C1500 N1498 1.356 . S
C1501 C1495 1.363 . S
C1501 C1496 1.379 . S
C1501 N1499 1.356 . S
N1502 C1494 1.356 . S
N1502 H1508 0.984 . S
N1502 H1509 0.984 . S
N1503 C1496 1.356 . S
N1503 H1506 0.984 . S
N1503 H1507 0.985 . S
H1504 N1499 0.984 . S
H1505 N1499 0.985 . S
H1506 N1503 0.984 . S
H1507 N1503 0.985 . S
H1508 N1502 0.984 . S
H1509 N1502 0.984 . S
H1510 N1498 0.984 . S
H1511 N1498 0.985 . S
C1512 C1513 1.363 . S
C1512 C1518 1.379 . S
C1512 N1520 1.356 . S
C1513 C1512 1.363 . S
C1513 C1519 1.363 . S
C1514 C1515 1.363 . S
C1514 C1519 1.379 . S
C1514 N1521 1.356 . S
C1515 C1514 1.363 . S
C1515 C1518 1.363 . S
N1516 C1518 1.356 . S
N1516 H1528 0.984 . S
N1516 H1529 0.985 . S
N1517 C1519 1.356 . S
N1517 H1522 0.984 . S
N1517 H1523 0.985 . S
C1518 C1512 1.379 . S
C1518 C1515 1.363 . S
C1518 N1516 1.356 . S
C1519 C1513 1.363 . S
C1519 C1514 1.379 . S
C1519 N1517 1.356 . S
N1520 C1512 1.356 . S
N1520 H1526 0.984 . S
N1520 H1527 0.984 . S
N1521 C1514 1.356 . S
N1521 H1524 0.984 . S
N1521 H1525 0.985 . S
H1522 N1517 0.984 . S
H1523 N1517 0.985 . S
H1524 N1521 0.984 . S
H1525 N1521 0.985 . S
H1526 N1520 0.984 . S
H1527 N1520 0.984 . S
H1528 N1516 0.984 . S
H1529 N1516 0.985 . S
C1530 C1531 1.363 . S
C1530 C1536 1.379 . S
C1530 N1538 1.356 . S
C1531 C1530 1.363 . S
C1531 C1537 1.363 . S
C1532 C1533 1.363 . S
C1532 C1537 1.379 . S
C1532 N1539 1.356 . S
C1533 C1532 1.363 . S
C1533 C1536 1.363 . S
N1534 C1536 1.356 . S
N1534 H1546 0.984 . S
N1534 H1547 0.985 . S
N1535 C1537 1.356 . S
N1535 H1540 0.984 . S
N1535 H1541 0.985 . S
C1536 C1530 1.379 . S
C1536 C1533 1.363 . S
C1536 N1534 1.356 . S
C1537 C1531 1.363 . S
C1537 C1532 1.379 . S
C1537 N1535 1.356 . S
N1538 C1530 1.356 . S
N1538 H1544 0.984 . S
N1538 H1545 0.984 . S
N1539 C1532 1.356 . S
N1539 H1542 0.984 . S
N1539 H1543 0.985 . S
H1540 N1535 0.984 . S
H1541 N1535 0.985 . S
H1542 N1539 0.984 . S
H1543 N1539 0.985 . S
H1544 N1538 0.984 . S
H1545 N1538 0.984 . S
H1546 N1534 0.984 . S
H1547 N1534 0.985 . S
C1548 C1549 1.363 . S
C1548 C1554 1.379 . S
C1548 N1556 1.356 . S
C1549 C1548 1.363 . S
C1549 C1555 1.363 . S
C1550 C1551 1.363 . S
C1550 C1555 1.379 . S
C1550 N1557 1.356 . S
C1551 C1550 1.363 . S
C1551 C1554 1.363 . S
N1552 C1554 1.356 . S
N1552 H1564 0.984 . S
N1552 H1565 0.985 . S
N1553 C1555 1.356 . S
N1553 H1558 0.984 . S
N1553 H1559 0.985 . S
C1554 C1548 1.379 . S
C1554 C1551 1.363 . S
C1554 N1552 1.356 . S
C1555 C1549 1.363 . S
C1555 C1550 1.379 . S
C1555 N1553 1.356 . S
N1556 C1548 1.356 . S
N1556 H1562 0.984 . S
N1556 H1563 0.984 . S
N1557 C1550 1.356 . S
N1557 H1560 0.984 . S
N1557 H1561 0.985 . S
H1558 N1553 0.984 . S
H1559 N1553 0.985 . S
H1560 N1557 0.984 . S
H1561 N1557 0.985 . S
H1562 N1556 0.984 . S
H1563 N1556 0.984 . S
H1564 N1552 0.984 . S
H1565 N1552 0.985 . S
C1566 C1567 1.363 . S
C1566 C1572 1.379 . S
C1566 N1574 1.356 . S
C1567 C1566 1.363 . S
C1567 C1573 1.363 . S
C1568 C1569 1.363 . S
C1568 C1573 1.379 . S
C1568 N1575 1.356 . S
C1569 C1568 1.363 . S
C1569 C1572 1.363 . S
N1570 C1572 1.356 . S
N1570 H1582 0.984 . S
N1570 H1583 0.985 . S
N1571 C1573 1.356 . S
N1571 H1576 0.984 . S
N1571 H1577 0.985 . S
C1572 C1566 1.379 . S
C1572 C1569 1.363 . S
C1572 N1570 1.356 . S
C1573 C1567 1.363 . S
C1573 C1568 1.379 . S
C1573 N1571 1.356 . S
N1574 C1566 1.356 . S
N1574 H1580 0.984 . S
N1574 H1581 0.984 . S
N1575 C1568 1.356 . S
N1575 H1578 0.984 . S
N1575 H1579 0.985 . S
H1576 N1571 0.984 . S
H1577 N1571 0.985 . S
H1578 N1575 0.984 . S
H1579 N1575 0.985 . S
H1580 N1574 0.984 . S
H1581 N1574 0.984 . S
H1582 N1570 0.984 . S
H1583 N1570 0.985 . S
C1584 C1585 1.363 . S
C1584 C1590 1.379 . S
C1584 N1592 1.356 . S
C1585 C1584 1.363 . S
C1585 C1591 1.363 . S
C1586 C1587 1.363 . S
C1586 C1591 1.379 . S
C1586 N1593 1.356 . S
C1587 C1586 1.363 . S
C1587 C1590 1.363 . S
N1588 C1590 1.356 . S
N1588 H1600 0.984 . S
N1588 H1601 0.985 . S
N1589 C1591 1.356 . S
N1589 H1594 0.984 . S
N1589 H1595 0.985 . S
C1590 C1584 1.379 . S
C1590 C1587 1.363 . S
C1590 N1588 1.356 . S
C1591 C1585 1.363 . S
C1591 C1586 1.379 . S
C1591 N1589 1.356 . S
N1592 C1584 1.356 . S
N1592 H1598 0.984 . S
N1592 H1599 0.984 . S
N1593 C1586 1.356 . S
N1593 H1596 0.984 . S
N1593 H1597 0.985 . S
H1594 N1589 0.984 . S
H1595 N1589 0.985 . S
H1596 N1593 0.984 . S
H1597 N1593 0.985 . S
H1598 N1592 0.984 . S
H1599 N1592 0.984 . S
H1600 N1588 0.984 . S
H1601 N1588 0.985 . S
C1602 C1603 1.363 . S
C1602 C1608 1.379 . S
C1602 N1610 1.356 . S
C1603 C1602 1.363 . S
C1603 C1609 1.363 . S
C1604 C1605 1.363 . S
C1604 C1609 1.379 . S
C1604 N1611 1.356 . S
C1605 C1604 1.363 . S
C1605 C1608 1.363 . S
N1606 C1608 1.356 . S
N1606 H1618 0.984 . S
N1606 H1619 0.985 . S
N1607 C1609 1.356 . S
N1607 H1612 0.984 . S
N1607 H1613 0.985 . S
C1608 C1602 1.379 . S
C1608 C1605 1.363 . S
C1608 N1606 1.356 . S
C1609 C1603 1.363 . S
C1609 C1604 1.379 . S
C1609 N1607 1.356 . S
N1610 C1602 1.356 . S
N1610 H1616 0.984 . S
N1610 H1617 0.984 . S
N1611 C1604 1.356 . S
N1611 H1614 0.984 . S
N1611 H1615 0.985 . S
H1612 N1607 0.984 . S
H1613 N1607 0.985 . S
H1614 N1611 0.984 . S
H1615 N1611 0.985 . S
H1616 N1610 0.984 . S
H1617 N1610 0.984 . S
H1618 N1606 0.984 . S
H1619 N1606 0.985 . S
C1620 C1621 1.363 . S
C1620 C1626 1.379 . S
C1620 N1628 1.356 . S
C1621 C1620 1.363 . S
C1621 C1627 1.363 . S
C1622 C1623 1.363 . S
C1622 C1627 1.379 . S
C1622 N1629 1.356 . S
C1623 C1622 1.363 . S
C1623 C1626 1.363 . S
N1624 C1626 1.356 . S
N1624 H1636 0.984 . S
N1624 H1637 0.985 . S
N1625 C1627 1.356 . S
N1625 H1630 0.984 . S
N1625 H1631 0.985 . S
C1626 C1620 1.379 . S
C1626 C1623 1.363 . S
C1626 N1624 1.356 . S
C1627 C1621 1.363 . S
C1627 C1622 1.379 . S
C1627 N1625 1.356 . S
N1628 C1620 1.356 . S
N1628 H1634 0.984 . S
N1628 H1635 0.984 . S
N1629 C1622 1.356 . S
N1629 H1632 0.984 . S
N1629 H1633 0.985 . S
H1630 N1625 0.984 . S
H1631 N1625 0.985 . S
H1632 N1629 0.984 . S
H1633 N1629 0.985 . S
H1634 N1628 0.984 . S
H1635 N1628 0.984 . S
H1636 N1624 0.984 . S
H1637 N1624 0.985 . S
C1638 C1639 1.363 . S
C1638 C1644 1.379 . S
C1638 N1646 1.356 . S
C1639 C1638 1.363 . S
C1639 C1645 1.363 . S
C1640 C1641 1.363 . S
C1640 C1645 1.379 . S
C1640 N1647 1.356 . S
C1641 C1640 1.363 . S
C1641 C1644 1.363 . S
N1642 C1644 1.356 . S
N1642 H1654 0.984 . S
N1642 H1655 0.985 . S
N1643 C1645 1.356 . S
N1643 H1648 0.984 . S
N1643 H1649 0.985 . S
C1644 C1638 1.379 . S
C1644 C1641 1.363 . S
C1644 N1642 1.356 . S
C1645 C1639 1.363 . S
C1645 C1640 1.379 . S
C1645 N1643 1.356 . S
N1646 C1638 1.356 . S
N1646 H1652 0.984 . S
N1646 H1653 0.984 . S
N1647 C1640 1.356 . S
N1647 H1650 0.984 . S
N1647 H1651 0.985 . S
H1648 N1643 0.984 . S
H1649 N1643 0.985 . S
H1650 N1647 0.984 . S
H1651 N1647 0.985 . S
H1652 N1646 0.984 . S
H1653 N1646 0.984 . S
H1654 N1642 0.984 . S
H1655 N1642 0.985 . S
C1656 C1657 1.363 . S
C1656 C1662 1.379 . S
C1656 N1664 1.356 . S
C1657 C1656 1.363 . S
C1657 C1663 1.363 . S
C1658 C1659 1.363 . S
C1658 C1663 1.379 . S
C1658 N1665 1.356 . S
C1659 C1658 1.363 . S
C1659 C1662 1.363 . S
N1660 C1662 1.356 . S
N1660 H1672 0.984 . S
N1660 H1673 0.985 . S
N1661 C1663 1.356 . S
N1661 H1666 0.984 . S
N1661 H1667 0.985 . S
C1662 C1656 1.379 . S
C1662 C1659 1.363 . S
C1662 N1660 1.356 . S
C1663 C1657 1.363 . S
C1663 C1658 1.379 . S
C1663 N1661 1.356 . S
N1664 C1656 1.356 . S
N1664 H1670 0.984 . S
N1664 H1671 0.984 . S
N1665 C1658 1.356 . S
N1665 H1668 0.984 . S
N1665 H1669 0.985 . S
H1666 N1661 0.984 . S
H1667 N1661 0.985 . S
H1668 N1665 0.984 . S
H1669 N1665 0.985 . S
H1670 N1664 0.984 . S
H1671 N1664 0.984 . S
H1672 N1660 0.984 . S
H1673 N1660 0.985 . S
C1674 C1675 1.363 . S
C1674 C1680 1.379 . S
C1674 N1682 1.356 . S
C1675 C1674 1.363 . S
C1675 C1681 1.363 . S
C1676 C1677 1.363 . S
C1676 C1681 1.379 . S
C1676 N1683 1.356 . S
C1677 C1676 1.363 . S
C1677 C1680 1.363 . S
N1678 C1680 1.356 . S
N1678 H1690 0.984 . S
N1678 H1691 0.985 . S
N1679 C1681 1.356 . S
N1679 H1684 0.984 . S
N1679 H1685 0.985 . S
C1680 C1674 1.379 . S
C1680 C1677 1.363 . S
C1680 N1678 1.356 . S
C1681 C1675 1.363 . S
C1681 C1676 1.379 . S
C1681 N1679 1.356 . S
N1682 C1674 1.356 . S
N1682 H1688 0.984 . S
N1682 H1689 0.984 . S
N1683 C1676 1.356 . S
N1683 H1686 0.984 . S
N1683 H1687 0.985 . S
H1684 N1679 0.984 . S
H1685 N1679 0.985 . S
H1686 N1683 0.984 . S
H1687 N1683 0.985 . S
H1688 N1682 0.984 . S
H1689 N1682 0.984 . S
H1690 N1678 0.984 . S
H1691 N1678 0.985 . S
C1692 C1693 1.363 . S
C1692 C1698 1.379 . S
C1692 N1700 1.356 . S
C1693 C1692 1.363 . S
C1693 C1699 1.363 . S
C1694 C1695 1.363 . S
C1694 C1699 1.379 . S
C1694 N1701 1.356 . S
C1695 C1694 1.363 . S
C1695 C1698 1.363 . S
N1696 C1698 1.356 . S
N1696 H1708 0.984 . S
N1696 H1709 0.985 . S
N1697 C1699 1.356 . S
N1697 H1702 0.984 . S
N1697 H1703 0.985 . S
C1698 C1692 1.379 . S
C1698 C1695 1.363 . S
C1698 N1696 1.356 . S
C1699 C1693 1.363 . S
C1699 C1694 1.379 . S
C1699 N1697 1.356 . S
N1700 C1692 1.356 . S
N1700 H1706 0.984 . S
N1700 H1707 0.984 . S
N1701 C1694 1.356 . S
N1701 H1704 0.984 . S
N1701 H1705 0.985 . S
H1702 N1697 0.984 . S
H1703 N1697 0.985 . S
H1704 N1701 0.984 . S
H1705 N1701 0.985 . S
H1706 N1700 0.984 . S
H1707 N1700 0.984 . S
H1708 N1696 0.984 . S
H1709 N1696 0.985 . S
C1710 C1711 1.363 . S
C1710 C1716 1.379 . S
C1710 N1718 1.356 . S
C1711 C1710 1.363 . S
C1711 C1717 1.363 . S
C1712 C1713 1.363 . S
C1712 C1717 1.379 . S
C1712 N1719 1.356 . S
C1713 C1712 1.363 . S
C1713 C1716 1.363 . S
N1714 C1716 1.356 . S
N1714 H1726 0.984 . S
N1714 H1727 0.985 . S
N1715 C1717 1.356 . S
N1715 H1720 0.984 . S
N1715 H1721 0.985 . S
C1716 C1710 1.379 . S
C1716 C1713 1.363 . S
C1716 N1714 1.356 . S
C1717 C1711 1.363 . S
C1717 C1712 1.379 . S
C1717 N1715 1.356 . S
N1718 C1710 1.356 . S
N1718 H1724 0.984 . S
N1718 H1725 0.984 . S
N1719 C1712 1.356 . S
N1719 H1722 0.984 . S
N1719 H1723 0.985 . S
H1720 N1715 0.984 . S
H1721 N1715 0.985 . S
H1722 N1719 0.984 . S
H1723 N1719 0.985 . S
H1724 N1718 0.984 . S
H1725 N1718 0.984 . S
H1726 N1714 0.984 . S
H1727 N1714 0.985 . S
C1728 C1729 1.363 . S
C1728 C1734 1.379 . S
C1728 N1736 1.356 . S
C1729 C1728 1.363 . S
C1729 C1735 1.363 . S
C1730 C1731 1.363 . S
C1730 C1735 1.379 . S
C1730 N1737 1.356 . S
C1731 C1730 1.363 . S
C1731 C1734 1.363 . S
N1732 C1734 1.356 . S
N1732 H1744 0.984 . S
N1732 H1745 0.985 . S
N1733 C1735 1.356 . S
N1733 H1738 0.984 . S
N1733 H1739 0.985 . S
C1734 C1728 1.379 . S
C1734 C1731 1.363 . S
C1734 N1732 1.356 . S
C1735 C1729 1.363 . S
C1735 C1730 1.379 . S
C1735 N1733 1.356 . S
N1736 C1728 1.356 . S
N1736 H1742 0.984 . S
N1736 H1743 0.984 . S
N1737 C1730 1.356 . S
N1737 H1740 0.984 . S
N1737 H1741 0.985 . S
H1738 N1733 0.984 . S
H1739 N1733 0.985 . S
H1740 N1737 0.984 . S
H1741 N1737 0.985 . S
H1742 N1736 0.984 . S
H1743 N1736 0.984 . S
H1744 N1732 0.984 . S
H1745 N1732 0.985 . S
C1746 C1747 1.363 . S
C1746 C1752 1.379 . S
C1746 N1754 1.356 . S
C1747 C1746 1.363 . S
C1747 C1753 1.363 . S
C1748 C1749 1.363 . S
C1748 C1753 1.379 . S
C1748 N1755 1.356 . S
C1749 C1748 1.363 . S
C1749 C1752 1.363 . S
N1750 C1752 1.356 . S
N1750 H1762 0.984 . S
N1750 H1763 0.985 . S
N1751 C1753 1.356 . S
N1751 H1756 0.984 . S
N1751 H1757 0.985 . S
C1752 C1746 1.379 . S
C1752 C1749 1.363 . S
C1752 N1750 1.356 . S
C1753 C1747 1.363 . S
C1753 C1748 1.379 . S
C1753 N1751 1.356 . S
N1754 C1746 1.356 . S
N1754 H1760 0.984 . S
N1754 H1761 0.984 . S
N1755 C1748 1.356 . S
N1755 H1758 0.984 . S
N1755 H1759 0.985 . S
H1756 N1751 0.984 . S
H1757 N1751 0.985 . S
H1758 N1755 0.984 . S
H1759 N1755 0.985 . S
H1760 N1754 0.984 . S
H1761 N1754 0.984 . S
H1762 N1750 0.984 . S
H1763 N1750 0.985 . S
C1764 C1765 1.363 . S
C1764 C1770 1.379 . S
C1764 N1772 1.356 . S
C1765 C1764 1.363 . S
C1765 C1771 1.363 . S
C1766 C1767 1.363 . S
C1766 C1771 1.379 . S
C1766 N1773 1.356 . S
C1767 C1766 1.363 . S
C1767 C1770 1.363 . S
N1768 C1770 1.356 . S
N1768 H1780 0.984 . S
N1768 H1781 0.985 . S
N1769 C1771 1.356 . S
N1769 H1774 0.984 . S
N1769 H1775 0.985 . S
C1770 C1764 1.379 . S
C1770 C1767 1.363 . S
C1770 N1768 1.356 . S
C1771 C1765 1.363 . S
C1771 C1766 1.379 . S
C1771 N1769 1.356 . S
N1772 C1764 1.356 . S
N1772 H1778 0.984 . S
N1772 H1779 0.984 . S
N1773 C1766 1.356 . S
N1773 H1776 0.984 . S
N1773 H1777 0.985 . S
H1774 N1769 0.984 . S
H1775 N1769 0.985 . S
H1776 N1773 0.984 . S
H1777 N1773 0.985 . S
H1778 N1772 0.984 . S
H1779 N1772 0.984 . S
H1780 N1768 0.984 . S
H1781 N1768 0.985 . S
C1782 C1783 1.363 . S
C1782 C1788 1.379 . S
C1782 N1790 1.356 . S
C1783 C1782 1.363 . S
C1783 C1789 1.363 . S
C1784 C1785 1.363 . S
C1784 C1789 1.379 . S
C1784 N1791 1.356 . S
C1785 C1784 1.363 . S
C1785 C1788 1.363 . S
N1786 C1788 1.356 . S
N1786 H1798 0.984 . S
N1786 H1799 0.985 . S
N1787 C1789 1.356 . S
N1787 H1792 0.984 . S
N1787 H1793 0.985 . S
C1788 C1782 1.379 . S
C1788 C1785 1.363 . S
C1788 N1786 1.356 . S
C1789 C1783 1.363 . S
C1789 C1784 1.379 . S
C1789 N1787 1.356 . S
N1790 C1782 1.356 . S
N1790 H1796 0.984 1_556 S
N1790 H1797 0.984 . S
N1791 C1784 1.356 . S
N1791 H1794 0.984 . S
N1791 H1795 0.985 . S
H1792 N1787 0.984 . S
H1793 N1787 0.985 . S
H1794 N1791 0.984 . S
H1795 N1791 0.985 . S
H1796 N1790 0.984 1_554 S
H1797 N1790 0.984 . S
H1798 N1786 0.984 . S
H1799 N1786 0.985 . S
C1800 C1801 1.363 . S
C1800 C1806 1.379 . S
C1800 N1808 1.356 . S
C1801 C1800 1.363 . S
C1801 C1807 1.363 . S
C1802 C1803 1.363 . S
C1802 C1807 1.379 . S
C1802 N1809 1.356 . S
C1803 C1802 1.363 . S
C1803 C1806 1.363 . S
N1804 C1806 1.356 . S
N1804 H1816 0.984 . S
N1804 H1817 0.985 . S
N1805 C1807 1.356 . S
N1805 H1810 0.984 . S
N1805 H1811 0.985 . S
C1806 C1800 1.379 . S
C1806 C1803 1.363 . S
C1806 N1804 1.356 . S
C1807 C1801 1.363 . S
C1807 C1802 1.379 . S
C1807 N1805 1.356 . S
N1808 C1800 1.356 . S
N1808 H1814 0.984 1_556 S
N1808 H1815 0.994 . S
N1809 C1802 1.356 . S
N1809 H1812 0.984 . S
N1809 H1813 0.985 . S
H1810 N1805 0.984 . S
H1811 N1805 0.985 . S
H1812 N1809 0.984 . S
H1813 N1809 0.985 . S
H1814 N1808 0.984 1_554 S
H1815 N1808 0.994 . S
H1816 N1804 0.984 . S
H1817 N1804 0.985 . S
C1818 C1819 1.363 . S
C1818 C1824 1.379 . S
C1818 N1826 1.356 . S
C1819 C1818 1.363 . S
C1819 C1825 1.363 . S
C1820 C1821 1.363 . S
C1820 C1825 1.379 . S
C1820 N1827 1.356 . S
C1821 C1820 1.363 . S
C1821 C1824 1.363 . S
N1822 C1824 1.356 . S
N1822 H1834 0.984 . S
N1822 H1835 0.985 . S
N1823 C1825 1.356 . S
N1823 H1828 0.984 . S
N1823 H1829 1.006 . S
C1824 C1818 1.379 . S
C1824 C1821 1.363 . S
C1824 N1822 1.356 . S
C1825 C1819 1.363 . S
C1825 C1820 1.379 . S
C1825 N1823 1.356 . S
N1826 C1818 1.356 . S
N1826 H1832 0.984 . S
N1826 H1833 0.984 . S
N1827 C1820 1.356 . S
N1827 H1830 0.984 . S
N1827 H1831 0.985 . S
H1828 N1823 0.984 . S
H1829 N1823 1.006 . S
H1830 N1827 0.984 . S
H1831 N1827 0.985 . S
H1832 N1826 0.984 . S
H1833 N1826 0.984 . S
H1834 N1822 0.984 . S
H1835 N1822 0.985 . S
C1836 C1837 1.363 . S
C1836 C1842 1.379 . S
C1836 N1844 1.356 . S
C1837 C1836 1.363 . S
C1837 C1843 1.363 . S
C1838 C1839 1.363 . S
C1838 C1843 1.379 . S
C1838 N1845 1.356 . S
C1839 C1838 1.363 . S
C1839 C1842 1.363 . S
N1840 C1842 1.356 . S
N1840 H1852 0.984 . S
N1840 H1853 0.985 . S
N1841 C1843 1.356 . S
N1841 H1846 0.984 . S
N1841 H1847 0.985 . S
C1842 C1836 1.379 . S
C1842 C1839 1.363 . S
C1842 N1840 1.356 . S
C1843 C1837 1.363 . S
C1843 C1838 1.379 . S
C1843 N1841 1.356 . S
N1844 C1836 1.356 . S
N1844 H1850 0.984 1_556 S
N1844 H1851 0.984 1_556 S
N1845 C1838 1.356 . S
N1845 H1848 0.984 . S
N1845 H1849 0.985 . S
H1846 N1841 0.984 . S
H1847 N1841 0.985 . S
H1848 N1845 0.984 . S
H1849 N1845 0.985 . S
H1850 N1844 0.984 1_554 S
H1851 N1844 0.984 1_554 S
H1852 N1840 0.984 . S
H1853 N1840 0.985 . S
C1854 C1855 1.363 . S
C1854 C1860 1.379 . S
C1854 N1862 1.356 . S
C1855 C1854 1.363 . S
C1855 C1861 1.363 . S
C1856 C1857 1.363 . S
C1856 C1861 1.379 . S
C1856 N1863 1.356 . S
C1857 C1856 1.363 . S
C1857 C1860 1.363 . S
N1858 C1860 1.356 . S
N1858 H1870 0.984 . S
N1858 H1871 0.985 . S
N1859 C1861 1.356 . S
N1859 H1864 0.984 . S
N1859 H1865 0.985 . S
C1860 C1854 1.379 . S
C1860 C1857 1.363 . S
C1860 N1858 1.356 . S
C1861 C1855 1.363 . S
C1861 C1856 1.379 . S
C1861 N1859 1.356 . S
N1862 C1854 1.356 . S
N1862 H1868 0.984 . S
N1862 H1869 0.984 . S
N1863 C1856 1.356 . S
N1863 H1866 0.984 . S
N1863 H1867 0.985 . S
H1864 N1859 0.984 . S
H1865 N1859 0.985 . S
H1866 N1863 0.984 . S
H1867 N1863 0.985 . S
H1868 N1862 0.984 . S
H1869 N1862 0.984 . S
H1870 N1858 0.984 . S
H1871 N1858 0.985 . S
C1872 C1873 1.363 . S
C1872 C1878 1.379 . S
C1872 N1880 1.356 . S
C1873 C1872 1.363 . S
C1873 C1879 1.363 . S
C1874 C1875 1.363 . S
C1874 C1879 1.379 . S
C1874 N1881 1.356 . S
C1875 C1874 1.363 . S
C1875 C1878 1.363 . S
N1876 C1878 1.356 . S
N1876 H1888 0.984 . S
N1876 H1889 0.985 . S
N1877 C1879 1.356 . S
N1877 H1882 0.984 . S
N1877 H1883 0.985 . S
C1878 C1872 1.379 . S
C1878 C1875 1.363 . S
C1878 N1876 1.356 . S
C1879 C1873 1.363 . S
C1879 C1874 1.379 . S
C1879 N1877 1.356 . S
N1880 C1872 1.356 . S
N1880 H1886 0.984 . S
N1880 H1887 0.984 . S
N1881 C1874 1.356 . S
N1881 H1884 0.984 . S
N1881 H1885 0.985 . S
H1882 N1877 0.984 . S
H1883 N1877 0.985 . S
H1884 N1881 0.984 . S
H1885 N1881 0.985 . S
H1886 N1880 0.984 . S
H1887 N1880 0.984 . S
H1888 N1876 0.984 . S
H1889 N1876 0.985 . S
C1890 C1891 1.363 . S
C1890 C1896 1.379 . S
C1890 N1898 1.356 . S
C1891 C1890 1.363 . S
C1891 C1897 1.363 . S
C1892 C1893 1.363 . S
C1892 C1897 1.379 . S
C1892 N1899 1.356 . S
C1893 C1892 1.363 . S
C1893 C1896 1.363 . S
N1894 C1896 1.356 . S
N1894 H1906 0.984 . S
N1894 H1907 0.985 . S
N1895 C1897 1.356 . S
N1895 H1900 0.984 . S
N1895 H1901 0.985 . S
C1896 C1890 1.379 . S
C1896 C1893 1.363 . S
C1896 N1894 1.356 . S
C1897 C1891 1.363 . S
C1897 C1892 1.379 . S
C1897 N1895 1.356 . S
N1898 C1890 1.356 . S
N1898 H1904 0.984 . S
N1898 H1905 0.984 . S
N1899 C1892 1.356 . S
N1899 H1902 0.984 . S
N1899 H1903 0.985 . S
H1900 N1895 0.984 . S
H1901 N1895 0.985 . S
H1902 N1899 0.984 . S
H1903 N1899 0.985 . S
H1904 N1898 0.984 . S
H1905 N1898 0.984 . S
H1906 N1894 0.984 . S
H1907 N1894 0.985 . S
C1908 C1909 1.363 . S
C1908 C1914 1.379 . S
C1908 N1916 1.356 . S
C1909 C1908 1.363 . S
C1909 C1915 1.363 . S
C1910 C1911 1.363 . S
C1910 C1915 1.379 . S
C1910 N1917 1.356 . S
C1911 C1910 1.363 . S
C1911 C1914 1.363 . S
N1912 C1914 1.356 . S
N1912 H1924 0.984 . S
N1912 H1925 0.985 . S
N1913 C1915 1.356 . S
N1913 H1918 0.984 . S
N1913 H1919 0.985 . S
C1914 C1908 1.379 . S
C1914 C1911 1.363 . S
C1914 N1912 1.356 . S
C1915 C1909 1.363 . S
C1915 C1910 1.379 . S
C1915 N1913 1.356 . S
N1916 C1908 1.356 . S
N1916 H1922 0.984 . S
N1916 H1923 0.984 . S
N1917 C1910 1.356 . S
N1917 H1920 0.984 . S
N1917 H1921 0.985 . S
H1918 N1913 0.984 . S
H1919 N1913 0.985 . S
H1920 N1917 0.984 . S
H1921 N1917 0.985 . S
H1922 N1916 0.984 . S
H1923 N1916 0.984 . S
H1924 N1912 0.984 . S
H1925 N1912 0.985 . S
C1926 C1927 1.363 . S
C1926 C1932 1.379 . S
C1926 N1934 1.356 . S
C1927 C1926 1.363 . S
C1927 C1933 1.363 . S
C1928 C1929 1.363 . S
C1928 C1933 1.379 . S
C1928 N1935 1.356 . S
C1929 C1928 1.363 . S
C1929 C1932 1.363 . S
N1930 C1932 1.356 . S
N1930 H1942 0.984 . S
N1930 H1943 0.985 . S
N1931 C1933 1.356 . S
N1931 H1936 0.984 . S
N1931 H1937 0.985 . S
C1932 C1926 1.379 . S
C1932 C1929 1.363 . S
C1932 N1930 1.356 . S
C1933 C1927 1.363 . S
C1933 C1928 1.379 . S
C1933 N1931 1.356 . S
N1934 C1926 1.356 . S
N1934 H1940 0.984 . S
N1934 H1941 0.984 . S
N1935 C1928 1.356 . S
N1935 H1938 0.984 . S
N1935 H1939 0.985 . S
H1936 N1931 0.984 . S
H1937 N1931 0.985 . S
H1938 N1935 0.984 . S
H1939 N1935 0.985 . S
H1940 N1934 0.984 . S
H1941 N1934 0.984 . S
H1942 N1930 0.984 . S
H1943 N1930 0.985 . S
C1944 C1945 1.363 . S
C1944 C1950 1.379 . S
C1944 N1952 1.356 . S
C1945 C1944 1.363 . S
C1945 C1951 1.363 . S
C1946 C1947 1.363 . S
C1946 C1951 1.379 . S
C1946 N1953 1.356 . S
C1947 C1946 1.363 . S
C1947 C1950 1.363 . S
N1948 C1950 1.356 . S
N1948 H1960 0.984 . S
N1948 H1961 0.985 . S
N1949 C1951 1.356 . S
N1949 H1954 0.984 . S
N1949 H1955 0.985 . S
C1950 C1944 1.379 . S
C1950 C1947 1.363 . S
C1950 N1948 1.356 . S
C1951 C1945 1.363 . S
C1951 C1946 1.379 . S
C1951 N1949 1.356 . S
N1952 C1944 1.356 . S
N1952 H1958 0.984 . S
N1952 H1959 0.984 . S
N1953 C1946 1.356 . S
N1953 H1956 0.984 . S
N1953 H1957 0.985 . S
H1954 N1949 0.984 . S
H1955 N1949 0.985 . S
H1956 N1953 0.984 . S
H1957 N1953 0.985 . S
H1958 N1952 0.984 . S
H1959 N1952 0.984 . S
H1960 N1948 0.984 . S
H1961 N1948 0.985 . S
C1962 C1963 1.363 . S
C1962 C1968 1.379 . S
C1962 N1970 1.356 . S
C1963 C1962 1.363 . S
C1963 C1969 1.363 . S
C1964 C1965 1.363 . S
C1964 C1969 1.379 . S
C1964 N1971 1.356 . S
C1965 C1964 1.363 . S
C1965 C1968 1.363 . S
N1966 C1968 1.356 . S
N1966 H1978 0.984 . S
N1966 H1979 0.985 . S
N1967 C1969 1.356 . S
N1967 H1972 0.984 . S
N1967 H1973 0.985 . S
C1968 C1962 1.379 . S
C1968 C1965 1.363 . S
C1968 N1966 1.356 . S
C1969 C1963 1.363 . S
C1969 C1964 1.379 . S
C1969 N1967 1.356 . S
N1970 C1962 1.356 . S
N1970 H1976 0.984 . S
N1970 H1977 0.984 . S
N1971 C1964 1.356 . S
N1971 H1974 0.984 . S
N1971 H1975 0.985 . S
H1972 N1967 0.984 . S
H1973 N1967 0.985 . S
H1974 N1971 0.984 . S
H1975 N1971 0.985 . S
H1976 N1970 0.984 . S
H1977 N1970 0.984 . S
H1978 N1966 0.984 . S
H1979 N1966 0.985 . S
C1980 C1981 1.363 . S
C1980 C1986 1.379 . S
C1980 N1988 1.356 . S
C1981 C1980 1.363 . S
C1981 C1987 1.363 . S
C1982 C1983 1.363 . S
C1982 C1987 1.379 . S
C1982 N1989 1.356 . S
C1983 C1982 1.363 . S
C1983 C1986 1.363 . S
N1984 C1986 1.356 . S
N1984 H1996 0.984 . S
N1984 H1997 0.985 . S
N1985 C1987 1.356 . S
N1985 H1990 0.984 . S
N1985 H1991 0.985 . S
C1986 C1980 1.379 . S
C1986 C1983 1.363 . S
C1986 N1984 1.356 . S
C1987 C1981 1.363 . S
C1987 C1982 1.379 . S
C1987 N1985 1.356 . S
N1988 C1980 1.356 . S
N1988 H1994 0.984 . S
N1988 H1995 0.984 . S
N1989 C1982 1.356 . S
N1989 H1992 0.984 . S
N1989 H1993 0.985 . S
H1990 N1985 0.984 . S
H1991 N1985 0.985 . S
H1992 N1989 0.984 . S
H1993 N1989 0.985 . S
H1994 N1988 0.984 . S
H1995 N1988 0.984 . S
H1996 N1984 0.984 . S
H1997 N1984 0.985 . S
C1998 C1999 1.363 1_655 S
C1998 C2004 1.379 . S
C1998 N2006 1.356 . S
C1999 C1998 1.363 1_455 S
C1999 C2005 1.363 . S
C2000 C2001 1.363 . S
C2000 C2005 1.379 . S
C2000 N2007 1.356 . S
C2001 C2000 1.363 . S
C2001 C2004 1.363 1_455 S
N2002 C2004 1.356 . S
N2002 H2014 0.984 . S
N2002 H2015 0.985 . S
N2003 C2005 1.356 . S
N2003 H2008 0.984 . S
N2003 H2009 0.985 . S
C2004 C1998 1.379 . S
C2004 C2001 1.363 1_655 S
C2004 N2002 1.356 . S
C2005 C1999 1.363 . S
C2005 C2000 1.379 . S
C2005 N2003 1.356 . S
N2006 C1998 1.356 . S
N2006 H2012 0.984 . S
N2006 H2013 0.984 . S
N2007 C2000 1.356 . S
N2007 H2010 0.984 . S
N2007 H2011 0.985 . S
H2008 N2003 0.984 . S
H2009 N2003 0.985 . S
H2010 N2007 0.984 . S
H2011 N2007 0.985 . S
H2012 N2006 0.984 . S
H2013 N2006 0.984 . S
H2014 N2002 0.984 . S
H2015 N2002 0.985 . S
C2016 C2017 1.363 . S
C2016 C2022 1.379 . S
C2016 N2024 1.356 . S
C2017 C2016 1.363 . S
C2017 C2023 1.363 . S
C2018 C2019 1.363 . S
C2018 C2023 1.379 . S
C2018 N2025 1.356 . S
C2019 C2018 1.363 . S
C2019 C2022 1.363 . S
N2020 C2022 1.356 . S
N2020 H2032 0.984 . S
N2020 H2033 0.985 . S
N2021 C2023 1.356 . S
N2021 H2026 0.984 . S
N2021 H2027 0.985 . S
C2022 C2016 1.379 . S
C2022 C2019 1.363 . S
C2022 N2020 1.356 . S
C2023 C2017 1.363 . S
C2023 C2018 1.379 . S
C2023 N2021 1.356 . S
N2024 C2016 1.356 . S
N2024 H2030 0.984 . S
N2024 H2031 0.984 . S
N2025 C2018 1.356 . S
N2025 H2028 0.984 . S
N2025 H2029 0.985 . S
H2026 N2021 0.984 . S
H2027 N2021 0.985 . S
H2028 N2025 0.984 . S
H2029 N2025 0.985 . S
H2030 N2024 0.984 . S
H2031 N2024 0.984 . S
H2032 N2020 0.984 . S
H2033 N2020 0.985 . S
C2034 C2035 1.363 . S
C2034 C2040 1.379 . S
C2034 N2042 1.356 . S
C2035 C2034 1.363 . S
C2035 C2041 1.363 1_565 S
C2036 C2037 1.363 1_545 S
C2036 C2041 1.379 . S
C2036 N2043 1.356 . S
C2037 C2036 1.363 1_565 S
C2037 C2040 1.363 . S
N2038 C2040 1.356 . S
N2038 H2050 0.984 . S
N2038 H2051 0.985 . S
N2039 C2041 1.356 . S
N2039 H2044 0.984 . S
N2039 H2045 0.985 . S
C2040 C2034 1.379 . S
C2040 C2037 1.363 . S
C2040 N2038 1.356 . S
C2041 C2035 1.363 1_545 S
C2041 C2036 1.379 . S
C2041 N2039 1.356 . S
N2042 C2034 1.356 . S
N2042 H2048 0.984 . S
N2042 H2049 0.984 . S
N2043 C2036 1.356 . S
N2043 H2046 0.984 . S
N2043 H2047 0.985 . S
H2044 N2039 0.984 . S
H2045 N2039 0.985 . S
H2046 N2043 0.984 . S
H2047 N2043 0.985 . S
H2048 N2042 0.984 . S
H2049 N2042 0.984 . S
H2050 N2038 0.984 . S
H2051 N2038 0.985 . S
C2052 C2053 1.363 1_545 S
C2052 C2058 1.379 . S
C2052 N2060 1.356 . S
C2053 C2052 1.363 1_565 S
C2053 C2059 1.363 . S
C2054 C2055 1.363 . S
C2054 C2059 1.379 . S
C2054 N2061 1.356 . S
C2055 C2054 1.363 . S
C2055 C2058 1.363 1_565 S
N2056 C2058 1.356 . S
N2056 H2068 0.984 . S
N2056 H2069 0.985 . S
N2057 C2059 1.356 . S
N2057 H2062 0.984 . S
N2057 H2063 0.985 . S
C2058 C2052 1.379 . S
C2058 C2055 1.363 1_545 S
C2058 N2056 1.356 . S
C2059 C2053 1.363 . S
C2059 C2054 1.379 . S
C2059 N2057 1.356 . S
N2060 C2052 1.356 . S
N2060 H2066 0.984 . S
N2060 H2067 0.984 . S
N2061 C2054 1.356 . S
N2061 H2064 0.984 . S
N2061 H2065 0.985 . S
H2062 N2057 0.984 . S
H2063 N2057 0.985 . S
H2064 N2061 0.984 . S
H2065 N2061 0.985 . S
H2066 N2060 0.984 . S
H2067 N2060 0.984 . S
H2068 N2056 0.984 . S
H2069 N2056 0.985 . S
C2070 C2071 1.363 1_655 S
C2070 C2076 1.379 . S
C2070 N2078 1.356 . S
C2071 C2070 1.363 1_455 S
C2071 C2077 1.363 . S
C2072 C2073 1.363 . S
C2072 C2077 1.379 . S
C2072 N2079 1.356 . S
C2073 C2072 1.363 . S
C2073 C2076 1.363 1_455 S
N2074 C2076 1.356 . S
N2074 H2086 0.984 . S
N2074 H2087 0.985 . S
N2075 C2077 1.356 . S
N2075 H2080 0.984 . S
N2075 H2081 0.985 . S
C2076 C2070 1.379 . S
C2076 C2073 1.363 1_655 S
C2076 N2074 1.356 . S
C2077 C2071 1.363 . S
C2077 C2072 1.379 . S
C2077 N2075 1.356 . S
N2078 C2070 1.356 . S
N2078 H2084 0.984 . S
N2078 H2085 0.984 . S
N2079 C2072 1.356 . S
N2079 H2082 0.984 . S
N2079 H2083 0.985 . S
H2080 N2075 0.984 . S
H2081 N2075 0.985 . S
H2082 N2079 0.984 . S
H2083 N2079 0.985 . S
H2084 N2078 0.984 . S
H2085 N2078 0.984 . S
H2086 N2074 0.984 . S
H2087 N2074 0.985 . S
C2088 C2089 1.363 . S
C2088 C2094 1.379 . S
C2088 N2096 1.356 . S
C2089 C2088 1.363 . S
C2089 C2095 1.363 . S
C2090 C2091 1.363 . S
C2090 C2095 1.379 . S
C2090 N2097 1.356 . S
C2091 C2090 1.363 . S
C2091 C2094 1.363 . S
N2092 C2094 1.356 . S
N2092 H2104 0.984 . S
N2092 H2105 0.985 . S
N2093 C2095 1.356 . S
N2093 H2098 0.984 . S
N2093 H2099 0.985 . S
C2094 C2088 1.379 . S
C2094 C2091 1.363 . S
C2094 N2092 1.356 . S
C2095 C2089 1.363 . S
C2095 C2090 1.379 . S
C2095 N2093 1.356 . S
N2096 C2088 1.356 . S
N2096 H2102 0.984 . S
N2096 H2103 0.984 . S
N2097 C2090 1.356 . S
N2097 H2100 0.984 . S
N2097 H2101 0.985 . S
H2098 N2093 0.984 . S
H2099 N2093 0.985 . S
H2100 N2097 0.984 . S
H2101 N2097 0.985 . S
H2102 N2096 0.984 . S
H2103 N2096 0.984 . S
H2104 N2092 0.984 . S
H2105 N2092 0.985 . S
C2106 C2107 1.363 . S
C2106 C2112 1.379 . S
C2106 N2114 1.356 . S
C2107 C2106 1.363 . S
C2107 C2113 1.363 . S
C2108 C2109 1.363 . S
C2108 C2113 1.379 . S
C2108 N2115 1.356 . S
C2109 C2108 1.363 . S
C2109 C2112 1.363 . S
N2110 C2112 1.356 . S
N2110 H2122 0.984 . S
N2110 H2123 0.985 . S
N2111 C2113 1.356 . S
N2111 H2116 0.984 . S
N2111 H2117 0.985 . S
C2112 C2106 1.379 . S
C2112 C2109 1.363 . S
C2112 N2110 1.356 . S
C2113 C2107 1.363 . S
C2113 C2108 1.379 . S
C2113 N2111 1.356 . S
N2114 C2106 1.356 . S
N2114 H2120 0.984 . S
N2114 H2121 0.984 . S
N2115 C2108 1.356 . S
N2115 H2118 0.984 . S
N2115 H2119 0.985 . S
H2116 N2111 0.984 . S
H2117 N2111 0.985 . S
H2118 N2115 0.984 . S
H2119 N2115 0.985 . S
H2120 N2114 0.984 . S
H2121 N2114 0.984 . S
H2122 N2110 0.984 . S
H2123 N2110 0.985 . S
C2124 C2125 1.363 . S
C2124 C2130 1.379 . S
C2124 N2132 1.356 . S
C2125 C2124 1.363 . S
C2125 C2131 1.363 . S
C2126 C2127 1.363 . S
C2126 C2131 1.379 . S
C2126 N2133 1.356 . S
C2127 C2126 1.363 . S
C2127 C2130 1.363 . S
N2128 C2130 1.356 . S
N2128 H2140 0.984 . S
N2128 H2141 0.985 . S
N2129 C2131 1.356 . S
N2129 H2134 0.984 . S
N2129 H2135 0.985 . S
C2130 C2124 1.379 . S
C2130 C2127 1.363 . S
C2130 N2128 1.356 . S
C2131 C2125 1.363 . S
C2131 C2126 1.379 . S
C2131 N2129 1.356 . S
N2132 C2124 1.356 . S
N2132 H2138 0.984 . S
N2132 H2139 0.984 . S
N2133 C2126 1.356 . S
N2133 H2136 0.984 . S
N2133 H2137 0.985 . S
H2134 N2129 0.984 . S
H2135 N2129 0.985 . S
H2136 N2133 0.984 . S
H2137 N2133 0.985 . S
H2138 N2132 0.984 . S
H2139 N2132 0.984 . S
H2140 N2128 0.984 . S
H2141 N2128 0.985 . S
C2142 C2143 1.363 . S
C2142 C2148 1.379 . S
C2142 N2150 1.356 . S
C2143 C2142 1.363 . S
C2143 C2149 1.363 . S
C2144 C2145 1.363 . S
C2144 C2149 1.379 . S
C2144 N2151 1.356 . S
C2145 C2144 1.363 . S
C2145 C2148 1.363 . S
N2146 C2148 1.356 . S
N2146 H2158 0.984 . S
N2146 H2159 0.985 . S
N2147 C2149 1.356 . S
N2147 H2152 0.984 . S
N2147 H2153 0.985 . S
C2148 C2142 1.379 . S
C2148 C2145 1.363 . S
C2148 N2146 1.356 . S
C2149 C2143 1.363 . S
C2149 C2144 1.379 . S
C2149 N2147 1.356 . S
N2150 C2142 1.356 . S
N2150 H2156 0.984 . S
N2150 H2157 0.984 . S
N2151 C2144 1.356 . S
N2151 H2154 0.984 . S
N2151 H2155 0.985 . S
H2152 N2147 0.984 . S
H2153 N2147 0.985 . S
H2154 N2151 0.984 . S
H2155 N2151 0.985 . S
H2156 N2150 0.984 . S
H2157 N2150 0.984 . S
H2158 N2146 0.984 . S
H2159 N2146 0.985 . S
C2160 C2161 1.363 1_565 S
C2160 C2166 1.379 . S
C2160 N2168 1.356 . S
C2161 C2160 1.363 1_545 S
C2161 C2167 1.363 . S
C2162 C2163 1.363 . S
C2162 C2167 1.379 . S
C2162 N2169 1.356 . S
C2163 C2162 1.363 . S
C2163 C2166 1.363 1_545 S
N2164 C2166 1.356 . S
N2164 H2176 0.984 . S
N2164 H2177 0.985 . S
N2165 C2167 1.356 . S
N2165 H2170 0.984 . S
N2165 H2171 0.985 . S
C2166 C2160 1.379 . S
C2166 C2163 1.363 1_565 S
C2166 N2164 1.356 . S
C2167 C2161 1.363 . S
C2167 C2162 1.379 . S
C2167 N2165 1.356 . S
N2168 C2160 1.356 . S
N2168 H2174 0.984 . S
N2168 H2175 0.984 . S
N2169 C2162 1.356 . S
N2169 H2172 0.984 . S
N2169 H2173 0.985 . S
H2170 N2165 0.984 . S
H2171 N2165 0.985 . S
H2172 N2169 0.984 . S
H2173 N2169 0.985 . S
H2174 N2168 0.984 . S
H2175 N2168 0.984 . S
H2176 N2164 0.984 . S
H2177 N2164 0.985 . S
C2178 C2179 1.363 . S
C2178 C2184 1.375 . S
C2178 N2186 1.356 1_655 S
C2179 C2178 1.363 . S
C2179 C2185 1.363 . S
C2180 C2181 1.363 . S
C2180 C2185 1.379 . S
C2180 N2187 1.356 . S
C2181 C2180 1.363 . S
C2181 C2184 1.368 . S
N2182 C2184 1.356 1_455 S
N2182 H2194 0.984 . S
N2182 H2195 0.985 . S
N2183 C2185 1.356 . S
N2183 H2188 0.984 . S
N2183 H2189 0.985 . S
C2184 C2178 1.375 . S
C2184 C2181 1.368 . S
C2184 N2182 1.356 1_655 S
C2185 C2179 1.363 . S
C2185 C2180 1.379 . S
C2185 N2183 1.356 . S
N2186 C2178 1.356 1_455 S
N2186 H2192 0.984 . S
N2186 H2193 0.987 1_455 S
N2187 C2180 1.356 . S
N2187 H2190 0.984 . S
N2187 H2191 0.985 . S
H2188 N2183 0.984 . S
H2189 N2183 0.985 . S
H2190 N2187 0.984 . S
H2191 N2187 0.985 . S
H2192 N2186 0.984 . S
H2193 N2186 0.987 1_655 S
H2194 N2182 0.984 . S
H2195 N2182 0.985 . S
C2196 C2197 1.363 . S
C2196 C2202 1.379 . S
C2196 N2204 1.356 . S
C2197 C2196 1.363 . S
C2197 C2203 1.363 . S
C2198 C2199 1.363 . S
C2198 C2203 1.379 . S
C2198 N2205 1.356 . S
C2199 C2198 1.363 . S
C2199 C2202 1.363 . S
N2200 C2202 1.356 . S
N2200 H2212 0.984 . S
N2200 H2213 0.985 . S
N2201 C2203 1.356 . S
N2201 H2206 0.984 . S
N2201 H2207 0.985 . S
C2202 C2196 1.379 . S
C2202 C2199 1.363 . S
C2202 N2200 1.356 . S
C2203 C2197 1.363 . S
C2203 C2198 1.379 . S
C2203 N2201 1.356 . S
N2204 C2196 1.356 . S
N2204 H2210 0.984 . S
N2204 H2211 0.984 . S
N2205 C2198 1.356 . S
N2205 H2208 0.984 . S
N2205 H2209 0.985 . S
H2206 N2201 0.984 . S
H2207 N2201 0.985 . S
H2208 N2205 0.984 . S
H2209 N2205 0.985 . S
H2210 N2204 0.984 . S
H2211 N2204 0.984 . S
H2212 N2200 0.984 . S
H2213 N2200 0.985 . S
C2214 C2215 1.363 . S
C2214 C2220 1.379 . S
C2214 N2222 1.356 . S
C2215 C2214 1.363 . S
C2215 C2221 1.363 . S
C2216 C2217 1.363 . S
C2216 C2221 1.379 . S
C2216 N2223 1.356 . S
C2217 C2216 1.363 . S
C2217 C2220 1.363 . S
N2218 C2220 1.356 . S
N2218 H2230 0.984 . S
N2218 H2231 0.985 . S
N2219 C2221 1.356 . S
N2219 H2224 0.984 . S
N2219 H2225 0.985 . S
C2220 C2214 1.379 . S
C2220 C2217 1.363 . S
C2220 N2218 1.356 . S
C2221 C2215 1.363 . S
C2221 C2216 1.379 . S
C2221 N2219 1.356 . S
N2222 C2214 1.356 . S
N2222 H2228 0.984 . S
N2222 H2229 0.984 . S
N2223 C2216 1.356 . S
N2223 H2226 0.984 . S
N2223 H2227 0.985 . S
H2224 N2219 0.984 . S
H2225 N2219 0.985 . S
H2226 N2223 0.984 . S
H2227 N2223 0.985 . S
H2228 N2222 0.984 . S
H2229 N2222 0.984 . S
H2230 N2218 0.984 . S
H2231 N2218 0.985 . S
C2232 C2233 1.363 . S
C2232 C2238 1.379 . S
C2232 N2240 1.356 . S
C2233 C2232 1.363 . S
C2233 C2239 1.363 . S
C2234 C2235 1.363 . S
C2234 C2239 1.379 . S
C2234 N2241 1.356 . S
C2235 C2234 1.363 . S
C2235 C2238 1.363 . S
N2236 C2238 1.356 . S
N2236 H2248 0.984 . S
N2236 H2249 0.985 . S
N2237 C2239 1.356 . S
N2237 H2242 0.984 . S
N2237 H2243 0.985 . S
C2238 C2232 1.379 . S
C2238 C2235 1.363 . S
C2238 N2236 1.356 . S
C2239 C2233 1.363 . S
C2239 C2234 1.379 . S
C2239 N2237 1.356 . S
N2240 C2232 1.356 . S
N2240 H2246 0.984 . S
N2240 H2247 0.984 . S
N2241 C2234 1.356 . S
N2241 H2244 0.984 . S
N2241 H2245 0.985 . S
H2242 N2237 0.984 . S
H2243 N2237 0.985 . S
H2244 N2241 0.984 . S
H2245 N2241 0.985 . S
H2246 N2240 0.984 . S
H2247 N2240 0.984 . S
H2248 N2236 0.984 . S
H2249 N2236 0.985 . S
C2250 C2251 1.363 . S
C2250 C2256 1.379 . S
C2250 N2258 1.356 . S
C2251 C2250 1.363 . S
C2251 C2257 1.363 . S
C2252 C2253 1.363 . S
C2252 C2257 1.379 . S
C2252 N2259 1.356 . S
C2253 C2252 1.363 . S
C2253 C2256 1.363 . S
N2254 C2256 1.356 . S
N2254 H2266 0.984 . S
N2254 H2267 0.985 . S
N2255 C2257 1.356 . S
N2255 H2260 0.984 . S
N2255 H2261 0.985 . S
C2256 C2250 1.379 . S
C2256 C2253 1.363 . S
C2256 N2254 1.356 . S
C2257 C2251 1.363 . S
C2257 C2252 1.379 . S
C2257 N2255 1.356 . S
N2258 C2250 1.356 . S
N2258 H2264 0.984 . S
N2258 H2265 0.984 . S
N2259 C2252 1.356 . S
N2259 H2262 0.984 . S
N2259 H2263 0.985 . S
H2260 N2255 0.984 . S
H2261 N2255 0.985 . S
H2262 N2259 0.984 . S
H2263 N2259 0.985 . S
H2264 N2258 0.984 . S
H2265 N2258 0.984 . S
H2266 N2254 0.984 . S
H2267 N2254 0.985 . S
C2268 C2269 1.363 . S
C2268 C2274 1.379 . S
C2268 N2276 1.356 . S
C2269 C2268 1.363 . S
C2269 C2275 1.363 . S
C2270 C2271 1.363 . S
C2270 C2275 1.379 . S
C2270 N2277 1.356 . S
C2271 C2270 1.363 . S
C2271 C2274 1.363 . S
N2272 C2274 1.356 . S
N2272 H2284 0.984 . S
N2272 H2285 0.985 . S
N2273 C2275 1.356 . S
N2273 H2278 0.984 . S
N2273 H2279 0.985 . S
C2274 C2268 1.379 . S
C2274 C2271 1.363 . S
C2274 N2272 1.356 . S
C2275 C2269 1.363 . S
C2275 C2270 1.379 . S
C2275 N2273 1.356 . S
N2276 C2268 1.356 . S
N2276 H2282 0.984 . S
N2276 H2283 0.984 . S
N2277 C2270 1.356 . S
N2277 H2280 0.984 . S
N2277 H2281 0.985 . S
H2278 N2273 0.984 . S
H2279 N2273 0.985 . S
H2280 N2277 0.984 . S
H2281 N2277 0.985 . S
H2282 N2276 0.984 . S
H2283 N2276 0.984 . S
H2284 N2272 0.984 . S
H2285 N2272 0.985 . S
C2286 C2287 1.363 . S
C2286 C2292 1.379 . S
C2286 N2294 1.356 . S
C2287 C2286 1.363 . S
C2287 C2293 1.363 . S
C2288 C2289 1.363 . S
C2288 C2293 1.379 . S
C2288 N2295 1.356 . S
C2289 C2288 1.363 . S
C2289 C2292 1.363 . S
N2290 C2292 1.356 . S
N2290 H2302 0.984 . S
N2290 H2303 0.985 . S
N2291 C2293 1.356 . S
N2291 H2296 0.984 . S
N2291 H2297 0.985 . S
C2292 C2286 1.379 . S
C2292 C2289 1.363 . S
C2292 N2290 1.356 . S
C2293 C2287 1.363 . S
C2293 C2288 1.379 . S
C2293 N2291 1.356 . S
N2294 C2286 1.356 . S
N2294 H2300 0.984 . S
N2294 H2301 0.984 . S
N2295 C2288 1.356 . S
N2295 H2298 0.984 . S
N2295 H2299 0.985 . S
H2296 N2291 0.984 . S
H2297 N2291 0.985 . S
H2298 N2295 0.984 . S
H2299 N2295 0.985 . S
H2300 N2294 0.984 . S
H2301 N2294 0.984 . S
H2302 N2290 0.984 . S
H2303 N2290 0.985 . S
C2304 C2305 1.363 . S
C2304 C2310 1.379 . S
C2304 N2312 1.356 . S
C2305 C2304 1.363 . S
C2305 C2311 1.363 . S
C2306 C2307 1.363 . S
C2306 C2311 1.379 . S
C2306 N2313 1.356 . S
C2307 C2306 1.363 . S
C2307 C2310 1.363 . S
N2308 C2310 1.356 . S
N2308 H2320 0.984 . S
N2308 H2321 0.985 . S
N2309 C2311 1.356 . S
N2309 H2314 0.984 . S
N2309 H2315 0.985 . S
C2310 C2304 1.379 . S
C2310 C2307 1.363 . S
C2310 N2308 1.356 . S
C2311 C2305 1.363 . S
C2311 C2306 1.379 . S
C2311 N2309 1.356 . S
N2312 C2304 1.356 . S
N2312 H2318 0.984 . S
N2312 H2319 0.984 . S
N2313 C2306 1.356 . S
N2313 H2316 0.984 . S
N2313 H2317 0.985 . S
H2314 N2309 0.984 . S
H2315 N2309 0.985 . S
H2316 N2313 0.984 . S
H2317 N2313 0.985 . S
H2318 N2312 0.984 . S
H2319 N2312 0.984 . S
H2320 N2308 0.984 . S
H2321 N2308 0.985 . S
C2322 C2323 1.363 1_455 S
C2322 C2328 1.379 . S
C2322 N2330 1.356 . S
C2323 C2322 1.363 1_655 S
C2323 C2329 1.363 . S
C2324 C2325 1.363 . S
C2324 C2329 1.379 . S
C2324 N2331 1.356 . S
C2325 C2324 1.363 . S
C2325 C2328 1.363 1_655 S
N2326 C2328 1.356 . S
N2326 H2338 0.984 . S
N2326 H2339 0.985 . S
N2327 C2329 1.356 . S
N2327 H2332 0.984 . S
N2327 H2333 0.985 . S
C2328 C2322 1.379 . S
C2328 C2325 1.363 1_455 S
C2328 N2326 1.356 . S
C2329 C2323 1.363 . S
C2329 C2324 1.379 . S
C2329 N2327 1.356 . S
N2330 C2322 1.356 . S
N2330 H2336 0.984 . S
N2330 H2337 0.984 . S
N2331 C2324 1.356 . S
N2331 H2334 0.984 . S
N2331 H2335 0.985 . S
H2332 N2327 0.984 . S
H2333 N2327 0.985 . S
H2334 N2331 0.984 . S
H2335 N2331 0.985 . S
H2336 N2330 0.984 . S
H2337 N2330 0.984 . S
H2338 N2326 0.984 . S
H2339 N2326 0.985 . S
C2340 C2341 1.363 . S
C2340 C2346 1.379 . S
C2340 N2348 1.356 . S
C2341 C2340 1.363 . S
C2341 C2347 1.363 . S
C2342 C2343 1.363 . S
C2342 C2347 1.379 . S
C2342 N2349 1.356 . S
C2343 C2342 1.363 . S
C2343 C2346 1.363 . S
N2344 C2346 1.356 . S
N2344 H2356 0.984 . S
N2344 H2357 0.985 . S
N2345 C2347 1.356 . S
N2345 H2350 0.984 . S
N2345 H2351 0.985 . S
C2346 C2340 1.379 . S
C2346 C2343 1.363 . S
C2346 N2344 1.356 . S
C2347 C2341 1.363 . S
C2347 C2342 1.379 . S
C2347 N2345 1.356 . S
N2348 C2340 1.356 . S
N2348 H2354 0.984 . S
N2348 H2355 0.984 . S
N2349 C2342 1.356 . S
N2349 H2352 0.984 . S
N2349 H2353 0.985 . S
H2350 N2345 0.984 . S
H2351 N2345 0.985 . S
H2352 N2349 0.984 . S
H2353 N2349 0.985 . S
H2354 N2348 0.984 . S
H2355 N2348 0.984 . S
H2356 N2344 0.984 . S
H2357 N2344 0.985 . S
C2358 C2359 1.363 1_565 S
C2358 C2364 1.379 . S
C2358 N2366 1.356 . S
C2359 C2358 1.363 1_545 S
C2359 C2365 1.363 . S
C2360 C2361 1.363 . S
C2360 C2365 1.379 . S
C2360 N2367 1.356 . S
C2361 C2360 1.363 . S
C2361 C2364 1.363 1_545 S
N2362 C2364 1.356 . S
N2362 H2374 0.984 . S
N2362 H2375 0.985 . S
N2363 C2365 1.356 . S
N2363 H2368 0.984 . S
N2363 H2369 0.985 . S
C2364 C2358 1.379 . S
C2364 C2361 1.363 1_565 S
C2364 N2362 1.356 . S
C2365 C2359 1.363 . S
C2365 C2360 1.379 . S
C2365 N2363 1.356 . S
N2366 C2358 1.356 . S
N2366 H2372 0.984 . S
N2366 H2373 0.984 . S
N2367 C2360 1.356 . S
N2367 H2370 0.984 . S
N2367 H2371 0.985 . S
H2368 N2363 0.984 . S
H2369 N2363 0.985 . S
H2370 N2367 0.984 . S
H2371 N2367 0.985 . S
H2372 N2366 0.984 . S
H2373 N2366 0.984 . S
H2374 N2362 0.984 . S
H2375 N2362 0.985 . S
C1081 C8 1.465 1_655 S
C1083 C688 1.487 . S
C1099 C22 1.579 . S
C1101 C734 1.562 . S
C1119 C766 1.495 . S
C1117 C37 1.467 1_545 S
C1135 C36 1.464 1_565 S
C1137 C819 1.487 . S
C1153 C9 1.466 1_455 S
C1155 C865 1.497 . S
C1171 C23 1.579 . S
C1173 C904 1.573 . S
C1189 C50 1.458 1_455 S
C1191 C858 1.480 . S
C1209 C911 1.572 . S
C1207 C64 1.578 . S
C1227 C812 1.498 . S
C1225 C79 1.473 1_565 S
C1243 C78 1.458 1_545 S
C1245 C773 1.481 . S
C1263 C667 1.498 . S
C1261 C51 1.473 1_655 S
C1279 C65 1.578 . S
C1281 C713 1.561 . S
C1297 C92 1.622 . S
C1299 C943 1.614 . S
C1315 C106 1.637 . S
C1317 C1010 1.610 . S
C1335 C1056 1.583 . S
C1333 C121 1.606 . S
C1351 C120 1.566 . S
C1353 C267 1.547 . S
C1369 C93 1.591 . S
C1371 C313 1.573 . S
C1387 C107 1.605 . S
C1389 C359 1.580 . S
C1405 C134 1.565 . S
C1407 C306 1.545 . S
C1423 C148 1.606 . S
C1425 C352 1.582 . S
C1443 C260 1.572 . S
C1441 C163 1.590 . S
C1461 C1035 1.603 . S
C1459 C162 1.624 . S
C1479 C964 1.592 . S
C1477 C135 1.603 . S
C1497 C989 1.611 . S
C1495 C149 1.637 . S
C1513 C176 1.566 . S
C1515 C391 1.558 . S
C1531 C190 1.605 . S
C1533 C444 1.593 . S
C1549 C205 1.591 . S
C1551 C490 1.584 . S
C1567 C204 1.622 . S
C1569 C536 1.614 . S
C1587 C589 1.583 . S
C1585 C177 1.606 . S
C1605 C635 1.610 . S
C1603 C191 1.636 . S
C1623 C582 1.604 . S
C1621 C218 1.625 . S
C1641 C628 1.611 . S
C1639 C232 1.637 . S
C1657 C247 1.603 . S
C1659 C543 1.593 . S
C1677 C497 1.557 . S
C1675 C246 1.565 . S
C1693 C219 1.590 . S
C1695 C412 1.584 . S
C1713 C451 1.595 . S
C1711 C233 1.606 . S
C1731 C274 1.560 . S
C1729 C6 1.561 . S
C1747 C20 1.521 . S
C1749 C320 1.523 . S
C1767 C366 1.566 . S
C1765 C35 1.571 . S
C1785 C398 1.550 . S
C1783 C34 1.561 . S
C1803 C437 1.554 . S
C1801 C7 1.571 . S
C1821 C483 1.513 . S
C1819 C21 1.521 . S
C1837 C48 1.563 . S
C1839 C504 1.558 . S
C1855 C62 1.520 . S
C1857 C405 1.512 . S
C1873 C77 1.570 . S
C1875 C458 1.550 . S
C1891 C76 1.563 . S
C1893 C299 1.568 . S
C1911 C345 1.564 . S
C1909 C49 1.570 . S
C1927 C63 1.520 . S
C1929 C253 1.522 . S
C1947 C529 1.535 . S
C1945 C90 1.538 . S
C1963 C104 1.570 . S
C1965 C596 1.581 . S
C1981 C119 1.574 . S
C1983 C642 1.583 . S
C2001 C681 1.489 . S
C1999 C118 1.445 . S
C2017 C91 1.543 . S
C2019 C727 1.550 . S
C2035 C105 1.449 . S
C2037 C759 1.492 . S
C2053 C132 1.445 . S
C2055 C780 1.483 . S
C2071 C146 1.452 . S
C2073 C674 1.494 . S
C2091 C720 1.551 . S
C2089 C161 1.545 . S
C2107 C160 1.541 . S
C2109 C575 1.547 . S
C2125 C133 1.572 . S
C2127 C621 1.581 . S
C2145 C550 1.571 . S
C2143 C147 1.569 . S
C2163 C826 1.489 . S
C2161 C174 1.445 . S
C2179 C188 1.449 . S
C2181 C872 1.492 . S
C2197 C203 1.543 . S
C2199 C897 1.541 . S
C2217 C950 1.535 . S
C2215 C202 1.538 . S
C2235 C1003 1.583 . S
C2233 C175 1.574 . S
C2251 C189 1.570 . S
C2253 C1049 1.581 . S
C2269 C216 1.540 . S
C2271 C1042 1.546 . S
C2287 C230 1.568 . S
C2289 C957 1.570 . S
C2307 C996 1.581 . S
C2305 C245 1.572 . S
C2325 C851 1.486 . S
C2323 C244 1.441 . S
C2343 C918 1.542 . S
C2341 C217 1.545 . S
C2359 C231 1.452 . S
C2361 C805 1.494 . S
