# Generated by pormake.
# Topology apo, (3,6)-cn, num edge types: 1
# Building blocks:
#     Node 0, Type 0, BuildingBlock: BETDIP_clean_linker_0, # of connection points: 3
#     Node 1, Type 0, BuildingBlock: BETDIP_clean_linker_0, # of connection points: 3
#     Node 2, Type 0, BuildingBlock: BETDIP_clean_linker_0, # of connection points: 3
#     Node 3, Type 0, BuildingBlock: BETDIP_clean_linker_0, # of connection points: 3
#     Node 4, Type 0, BuildingBlock: BETDIP_clean_linker_0, # of connection points: 3
#     Node 5, Type 0, BuildingBlock: BETDIP_clean_linker_0, # of connection points: 3
#     Node 6, Type 0, BuildingBlock: BETDIP_clean_linker_0, # of connection points: 3
#     Node 7, Type 0, BuildingBlock: BETDIP_clean_linker_0, # of connection points: 3
#     Node 8, Type 1, BuildingBlock: KUMBOL_clean_sbu_1, # of connection points: 6
#     Node 9, Type 1, BuildingBlock: KUMBOL_clean_sbu_1, # of connection points: 6
#     Node 10, Type 1, BuildingBlock: KUMBOL_clean_sbu_1, # of connection points: 6
#     Node 11, Type 1, BuildingBlock: KUMBOL_clean_sbu_1, # of connection points: 6
#     Edge 12, Type (0, 1), BuildingBlock: TEMPAE_clean_linker_10, # of connection points: 2
#     Edge 13, Type (0, 1), BuildingBlock: TEMPAE_clean_linker_10, # of connection points: 2
#     Edge 14, Type (0, 1), BuildingBlock: TEMPAE_clean_linker_10, # of connection points: 2
#     Edge 15, Type (0, 1), BuildingBlock: TEMPAE_clean_linker_10, # of connection points: 2
#     Edge 16, Type (0, 1), BuildingBlock: TEMPAE_clean_linker_10, # of connection points: 2
#     Edge 17, Type (0, 1), BuildingBlock: TEMPAE_clean_linker_10, # of connection points: 2
#     Edge 18, Type (0, 1), BuildingBlock: TEMPAE_clean_linker_10, # of connection points: 2
#     Edge 19, Type (0, 1), BuildingBlock: TEMPAE_clean_linker_10, # of connection points: 2
#     Edge 20, Type (0, 1), BuildingBlock: TEMPAE_clean_linker_10, # of connection points: 2
#     Edge 21, Type (0, 1), BuildingBlock: TEMPAE_clean_linker_10, # of connection points: 2
#     Edge 22, Type (0, 1), BuildingBlock: TEMPAE_clean_linker_10, # of connection points: 2
#     Edge 23, Type (0, 1), BuildingBlock: TEMPAE_clean_linker_10, # of connection points: 2
#     Edge 24, Type (0, 1), BuildingBlock: TEMPAE_clean_linker_10, # of connection points: 2
#     Edge 25, Type (0, 1), BuildingBlock: TEMPAE_clean_linker_10, # of connection points: 2
#     Edge 26, Type (0, 1), BuildingBlock: TEMPAE_clean_linker_10, # of connection points: 2
#     Edge 27, Type (0, 1), BuildingBlock: TEMPAE_clean_linker_10, # of connection points: 2
#     Edge 28, Type (0, 1), BuildingBlock: TEMPAE_clean_linker_10, # of connection points: 2
#     Edge 29, Type (0, 1), BuildingBlock: TEMPAE_clean_linker_10, # of connection points: 2
#     Edge 30, Type (0, 1), BuildingBlock: TEMPAE_clean_linker_10, # of connection points: 2
#     Edge 31, Type (0, 1), BuildingBlock: TEMPAE_clean_linker_10, # of connection points: 2
#     Edge 32, Type (0, 1), BuildingBlock: TEMPAE_clean_linker_10, # of connection points: 2
#     Edge 33, Type (0, 1), BuildingBlock: TEMPAE_clean_linker_10, # of connection points: 2
#     Edge 34, Type (0, 1), BuildingBlock: TEMPAE_clean_linker_10, # of connection points: 2
#     Edge 35, Type (0, 1), BuildingBlock: TEMPAE_clean_linker_10, # of connection points: 2
# Relax obj value: 0.037
# Max RMSD: 0.198
# Mean RMSD: 0.156
data_MOF--net-apo--node1-KUMBOL_clean_sbu_1--node2-BETDIP_clean_linker_0--edge1-TEMPAE_clean_linker_10
_symmetry_space_group_name_H-M    P1
_symmetry_Int_Tables_number       1
_symmetry_cell_setting            triclinic
loop_
_symmetry_equiv_pos_as_xyz
'x, y, z'
_cell_length_a     27.96857
_cell_length_b     42.445918
_cell_length_c     52.516728
_cell_angle_alpha  90.121202
_cell_angle_beta   90.153714
_cell_angle_gamma 90.665712
loop_
_atom_site_label
_atom_site_type_symbol
_atom_site_fract_x
_atom_site_fract_y
_atom_site_fract_z
_atom_type_partial_charge
H0 H 0.24305 0.34272 0.44331 0.0
H1 H 0.26174 0.37922 0.36733 0.0
H2 H 0.34063 0.42004 0.42876 0.0
H3 H 0.20499 0.34871 0.35628 0.0
C4 C 0.19885 0.33019 0.37007 0.0
C5 C 0.25991 0.35922 0.43034 0.0
C6 C 0.29305 0.38188 0.43963 0.0
C7 C 0.24787 0.35778 0.40429 0.0
C8 C 0.26911 0.37978 0.38748 0.0
C9 C 0.30204 0.40244 0.39637 0.0
C10 C 0.31429 0.40293 0.42223 0.0
N11 N 0.21598 0.33336 0.39558 0.0
H12 H 0.25208 0.17137 0.94442 0.0
H13 H 0.24792 0.13208 0.86856 0.0
H14 H 0.17149 0.08625 0.92821 0.0
H15 H 0.31346 0.15859 0.86255 0.0
C16 C 0.31203 0.17972 0.87416 0.0
C17 C 0.24053 0.15303 0.93134 0.0
C18 C 0.20895 0.12892 0.93966 0.0
C19 C 0.25644 0.15407 0.90587 0.0
C20 C 0.23932 0.13101 0.88859 0.0
C21 C 0.20887 0.10677 0.89682 0.0
C22 C 0.19463 0.1055 0.92222 0.0
N23 N 0.28729 0.17929 0.89789 0.0
H24 H 0.77672 0.17744 0.57352 0.0
H25 H 0.77071 0.14029 0.64946 0.0
H26 H 0.83785 0.0868 0.59085 0.0
H27 H 0.6925 0.16148 0.64465 0.0
C28 C 0.70428 0.18472 0.63842 0.0
C29 C 0.78423 0.15849 0.58665 0.0
C30 C 0.81008 0.13184 0.57864 0.0
C31 C 0.7678 0.16093 0.61182 0.0
C32 C 0.78022 0.1377 0.62958 0.0
C33 C 0.80588 0.11131 0.6219 0.0
C34 C 0.81911 0.1079 0.59644 0.0
N35 N 0.73982 0.18717 0.61918 0.0
H36 H 0.72744 0.33045 0.07602 0.0
H37 H 0.73896 0.37126 0.15062 0.0
H38 H 0.67588 0.4245 0.09068 0.0
H39 H 0.82429 0.34694 0.13895 0.0
C40 C 0.80548 0.32442 0.13772 0.0
C41 C 0.72223 0.35049 0.08843 0.0
C42 C 0.69886 0.37777 0.07956 0.0
C43 C 0.73918 0.34883 0.11363 0.0
C44 C 0.72942 0.37342 0.13069 0.0
C45 C 0.7052 0.40006 0.12227 0.0
C46 C 0.69254 0.40286 0.0967 0.0
N47 N 0.76418 0.32178 0.12198 0.0
H48 H 0.75747 0.67328 0.57007 0.0
H49 H 0.75786 0.62712 0.64283 0.0
H50 H 0.66161 0.59581 0.58378 0.0
H51 H 0.77631 0.67284 0.658 0.0
C52 C 0.79733 0.68548 0.64394 0.0
C53 C 0.74344 0.65543 0.58284 0.0
C54 C 0.70944 0.63336 0.57398 0.0
C55 C 0.75907 0.65459 0.60827 0.0
C56 C 0.74237 0.63008 0.62418 0.0
C57 C 0.70625 0.60892 0.61604 0.0
C58 C 0.6899 0.61117 0.59077 0.0
N59 N 0.79072 0.67876 0.61752 0.0
H60 H 0.74423 0.83701 0.07041 0.0
H61 H 0.75819 0.87742 0.14524 0.0
H62 H 0.83497 0.91803 0.08226 0.0
H63 H 0.74841 0.8278 0.15655 0.0
C64 C 0.7195 0.81939 0.14438 0.0
C65 C 0.75904 0.85486 0.08303 0.0
C66 C 0.79135 0.87752 0.07358 0.0
C67 C 0.74752 0.85431 0.10902 0.0
C68 C 0.76728 0.87754 0.12528 0.0
C69 C 0.79948 0.90054 0.11611 0.0
C70 C 0.81087 0.90036 0.09002 0.0
N71 N 0.71738 0.82973 0.11862 0.0
H72 H 0.25118 0.8365 0.44184 0.0
H73 H 0.26066 0.88434 0.37017 0.0
H74 H 0.1645 0.9171 0.42831 0.0
H75 H 0.26197 0.83542 0.355 0.0
C76 C 0.28392 0.82248 0.36838 0.0
C77 C 0.24026 0.85543 0.42936 0.0
C78 C 0.20804 0.87805 0.43801 0.0
C79 C 0.25665 0.85639 0.40423 0.0
C80 C 0.244 0.88193 0.38859 0.0
C81 C 0.2101 0.90414 0.3966 0.0
C82 C 0.19182 0.90139 0.42146 0.0
N83 N 0.28366 0.83076 0.39465 0.0
H84 H 0.24574 0.66762 0.94262 0.0
H85 H 0.25895 0.63091 0.86667 0.0
H86 H 0.33431 0.58776 0.92911 0.0
H87 H 0.25743 0.68838 0.86172 0.0
C88 C 0.2236 0.691 0.8716 0.0
C89 C 0.25997 0.65027 0.92959 0.0
C90 C 0.29258 0.62795 0.93832 0.0
C91 C 0.24773 0.65135 0.90374 0.0
C92 C 0.26779 0.62951 0.8867 0.0
C93 C 0.29941 0.60626 0.89548 0.0
C94 C 0.31082 0.60559 0.92155 0.0
N95 N 0.2165 0.67523 0.89509 0.0
C96 C 0.84043 0.07984 0.26719 0.0
C97 C 0.83529 0.02436 0.27804 0.0
C98 C 0.86151 0.05289 0.27688 0.0
C99 C 0.78811 0.02318 0.2688 0.0
C100 C 0.79293 0.07887 0.25818 0.0
C101 C 0.76697 0.05036 0.25893 0.0
N102 N 0.86661 0.107 0.26652 0.0
C103 C 0.84701 0.13425 0.25785 0.0
C104 C 0.77288 0.10664 0.24882 0.0
C105 C 0.80001 0.13448 0.24876 0.0
Gd106 Gd 0.05264 0.09887 0.23159 0.0
Gd107 Gd 0.94449 0.10446 0.28296 0.0
N108 N 0.90737 0.05476 0.28557 0.0
C109 C 0.85697 0.99809 0.28902 0.0
C110 C 0.92703 0.03008 0.29812 0.0
C111 C 0.90278 1.00112 0.29948 0.0
H112 H 0.96039 0.03315 0.308 0.0
H113 H 0.91897 0.98139 0.30911 0.0
H114 H 0.03344 0.17408 0.21339 0.0
H115 H 0.86715 0.15602 0.25866 0.0
H116 H 0.07585 0.22503 0.21425 0.0
H117 H 0.83803 0.97574 0.29032 0.0
H118 H 0.76743 1.00145 0.2695 0.0
H119 H 0.13263 0.04474 0.24799 0.0
H120 H 0.73639 0.10691 0.24185 0.0
H121 H 0.78462 0.15619 0.24196 0.0
H122 H 0.23228 0.2001 0.24549 0.0
H123 H 0.7304 0.04914 0.2521 0.0
H124 H 0.26571 0.09189 0.26379 0.0
H125 H 0.21726 0.04279 0.26153 0.0
N126 N 0.13326 0.09441 0.243 0.0
C127 C 0.15949 0.12154 0.24352 0.0
C128 C 0.15349 0.0663 0.24898 0.0
C129 C 0.22866 0.09287 0.25779 0.0
C130 C 0.20143 0.0651 0.25654 0.0
C131 C 0.20786 0.12156 0.25113 0.0
H132 H 0.27092 0.15061 0.25785 0.0
N133 N 0.09066 0.14862 0.22981 0.0
C134 C 0.13761 0.14947 0.23666 0.0
C135 C 0.1408 0.20565 0.22941 0.0
C136 C 0.16371 0.1781 0.23707 0.0
C137 C 0.06903 0.1751 0.22099 0.0
C138 C 0.09345 0.20404 0.22099 0.0
O139 O 0.92949 0.08143 0.24477 0.0
O140 O 1.00126 0.05848 0.23753 0.0
O141 O 0.05339 0.10724 0.19031 0.0
O142 O 0.08287 0.06473 0.20603 0.0
O143 O 0.01153 0.07845 0.29566 0.0
O144 O 0.04669 0.05834 0.25906 0.0
O145 O 0.06983 0.1234 0.26942 0.0
O146 O 0.99741 0.14456 0.28036 0.0
O147 O 0.94333 0.10007 0.32492 0.0
O148 O 0.89835 0.13387 0.30492 0.0
O149 O 0.98447 0.12428 0.2203 0.0
O150 O 0.9571 0.14633 0.25762 0.0
C151 C 0.95543 0.06022 0.23341 0.0
C152 C 0.04209 0.05984 0.28396 0.0
C153 C 0.1152 0.08149 0.16663 0.0
C154 C 0.14158 0.08399 0.12217 0.0
C155 C 0.19594 0.06633 0.15529 0.0
C156 C 0.16075 0.07069 0.1736 0.0
C157 C 0.18647 0.07275 0.12982 0.0
C158 C 0.10594 0.08863 0.14078 0.0
C159 C 0.07598 0.08122 0.18555 0.0
C160 C 0.21176 0.1783 0.24492 0.0
C161 C 0.23378 0.1501 0.25193 0.0
H162 H 0.1596 0.22812 0.22942 0.0
C163 C 0.04403 0.14343 0.28257 0.0
C164 C 0.95929 0.14549 0.23262 0.0
C165 C 0.88914 0.13305 0.35044 0.0
C166 C 0.88017 0.13261 0.39657 0.0
C167 C 0.83169 0.16737 0.37092 0.0
C168 C 0.85362 0.15622 0.349 0.0
C169 C 0.84486 0.15568 0.39456 0.0
C170 C 0.90239 0.12106 0.37447 0.0
C171 C 0.91073 0.12171 0.32655 0.0
H172 H 0.2306 0.05752 0.16083 0.0
H173 H 0.16896 0.06475 0.19315 0.0
H174 H 0.2146 0.06911 0.11601 0.0
H175 H 0.07079 0.09653 0.13508 0.0
H176 H 0.80437 0.18514 0.36957 0.0
H177 H 0.84246 0.16578 0.33086 0.0
H178 H 0.82738 0.16466 0.41145 0.0
H179 H 0.92957 0.10317 0.376 0.0
C180 C 0.66385 0.4362 0.76865 0.0
C181 C 0.66128 0.49239 0.7766 0.0
C182 C 0.63872 0.46248 0.77647 0.0
C183 C 0.70875 0.49553 0.76818 0.0
C184 C 0.71188 0.43913 0.76069 0.0
C185 C 0.73399 0.46896 0.76028 0.0
N186 N 0.64152 0.40767 0.76915 0.0
C187 C 0.66588 0.38103 0.76318 0.0
C188 C 0.73648 0.41191 0.75373 0.0
C189 C 0.71345 0.38266 0.75523 0.0
Gd190 Gd 0.45014 0.40718 0.73339 0.0
Gd191 Gd 0.56164 0.40674 0.78294 0.0
N192 N 0.5927 0.45868 0.78449 0.0
C193 C 0.63581 0.51819 0.78573 0.0
C194 C 0.56903 0.48343 0.79495 0.0
C195 C 0.58974 0.51359 0.79527 0.0
H196 H 0.53493 0.48003 0.80388 0.0
H197 H 0.57045 0.53319 0.80332 0.0
H198 H 0.46964 0.33067 0.72023 0.0
H199 H 0.64934 0.35843 0.76583 0.0
H200 H 0.4242 0.28079 0.72008 0.0
H201 H 0.65191 0.54153 0.78623 0.0
H202 H 0.72654 0.51834 0.76809 0.0
H203 H 0.37472 0.46275 0.75419 0.0
H204 H 0.77346 0.41315 0.74769 0.0
H205 H 0.73248 0.36132 0.75067 0.0
H206 H 0.26842 0.30932 0.74961 0.0
H207 H 0.77078 0.47167 0.75417 0.0
H208 H 0.24108 0.41743 0.77093 0.0
H209 H 0.29157 0.46564 0.7695 0.0
N210 N 0.37248 0.41304 0.74899 0.0
C211 C 0.34532 0.38624 0.74943 0.0
C212 C 0.35368 0.44136 0.75578 0.0
C213 C 0.27791 0.4159 0.76475 0.0
C214 C 0.30632 0.44316 0.76404 0.0
C215 C 0.29716 0.38702 0.75725 0.0
H216 H 0.23257 0.35929 0.76303 0.0
N217 N 0.41288 0.35755 0.73543 0.0
C218 C 0.36584 0.35782 0.74215 0.0
C219 C 0.3598 0.30178 0.73433 0.0
C220 C 0.33828 0.3298 0.74212 0.0
C221 C 0.43356 0.33051 0.72711 0.0
C222 C 0.40756 0.3022 0.72667 0.0
O223 O 0.57303 0.42859 0.74401 0.0
O224 O 0.49993 0.44933 0.7331 0.0
O225 O 0.45246 0.39717 0.69254 0.0
O226 O 0.3991 0.42852 0.70789 0.0
O227 O 0.49178 0.42935 0.79478 0.0
O228 O 0.46164 0.45037 0.75759 0.0
O229 O 0.43925 0.38297 0.77151 0.0
O230 O 0.51347 0.36407 0.78095 0.0
O231 O 0.56157 0.41229 0.82512 0.0
O232 O 0.60736 0.37856 0.80574 0.0
O233 O 0.51723 0.38189 0.72083 0.0
O234 O 0.55653 0.36432 0.75704 0.0
C235 C 0.54687 0.44911 0.73163 0.0
C236 C 0.46409 0.44919 0.78255 0.0
C237 C 0.41373 0.43206 0.66346 0.0
C238 C 0.39502 0.43135 0.61802 0.0
C239 C 0.40579 0.48117 0.64029 0.0
C240 C 0.41472 0.46515 0.66299 0.0
C241 C 0.39568 0.4644 0.61795 0.0
C242 C 0.40441 0.41522 0.64079 0.0
C243 C 0.41558 0.41469 0.68768 0.0
C244 C 0.29016 0.33062 0.74962 0.0
C245 C 0.26973 0.35909 0.75725 0.0
H246 H 0.33972 0.27981 0.73385 0.0
C247 C 0.4671 0.36381 0.78413 0.0
C248 C 0.5475 0.36303 0.73238 0.0
C249 C 0.61457 0.37836 0.85111 0.0
C250 C 0.62441 0.37841 0.8972 0.0
C251 C 0.66541 0.33968 0.87159 0.0
C252 C 0.64541 0.35238 0.84971 0.0
C253 C 0.65499 0.35256 0.8952 0.0
C254 C 0.60405 0.39151 0.87512 0.0
C255 C 0.59382 0.39044 0.8272 0.0
H256 H 0.40563 0.50667 0.64012 0.0
H257 H 0.42103 0.47858 0.68027 0.0
H258 H 0.38761 0.47721 0.60067 0.0
H259 H 0.40245 0.38969 0.64109 0.0
H260 H 0.68905 0.31974 0.87024 0.0
H261 H 0.65415 0.34163 0.83162 0.0
H262 H 0.67097 0.34238 0.91208 0.0
H263 H 0.58039 0.41146 0.87666 0.0
C264 C 0.84301 0.88064 0.76843 0.0
C265 C 0.84122 0.82413 0.77523 0.0
C266 C 0.86586 0.85329 0.77616 0.0
C267 C 0.7938 0.82282 0.76635 0.0
C268 C 0.7952 0.87947 0.75983 0.0
C269 C 0.77086 0.8504 0.7587 0.0
N270 N 0.86756 0.90842 0.76933 0.0
C271 C 0.84551 0.93603 0.76394 0.0
C272 C 0.77312 0.90764 0.75287 0.0
C273 C 0.79827 0.93611 0.75521 0.0
Gd274 Gd 0.05549 0.90598 0.73125 0.0
Gd275 Gd 0.94615 0.90633 0.78428 0.0
N276 N 0.9121 0.85522 0.78444 0.0
C277 C 0.86483 0.7971 0.78342 0.0
C278 C 0.93462 0.82901 0.79321 0.0
C279 C 0.91157 0.79961 0.79261 0.0
H280 H 0.96996 0.83038 0.80114 0.0
H281 H 0.92977 0.77891 0.79946 0.0
H282 H 0.04222 0.97747 0.70667 0.0
H283 H 0.86386 0.95801 0.76714 0.0
H284 H 0.08819 0.02723 0.70205 0.0
H285 H 0.84709 0.77427 0.78305 0.0
H286 H 0.77441 0.8006 0.7655 0.0
H287 H 0.137 0.85122 0.74647 0.0
H288 H 0.73642 0.90773 0.74621 0.0
H289 H 0.78112 0.95813 0.75067 0.0
H290 H 0.24069 1.00436 0.73963 0.0
H291 H 0.73416 0.84903 0.7521 0.0
H292 H 0.26855 0.89788 0.7654 0.0
H293 H 0.2199 0.84896 0.76217 0.0
N294 N 0.13612 0.90117 0.74413 0.0
C295 C 0.16331 0.92787 0.744 0.0
C296 C 0.15672 0.87288 0.74931 0.0
C297 C 0.23157 0.89907 0.75931 0.0
C298 C 0.20421 0.87145 0.75759 0.0
C299 C 0.21164 0.92766 0.75177 0.0
H300 H 0.27596 0.956 0.75694 0.0
N301 N 0.09777 0.95376 0.72598 0.0
C302 C 0.14375 0.95494 0.73418 0.0
C303 C 0.15103 0.0091 0.72049 0.0
C304 C 0.17155 0.98273 0.73195 0.0
C305 C 0.07816 0.97899 0.71392 0.0
C306 C 0.10421 0.00712 0.71124 0.0
O307 O 0.93264 0.88514 0.74516 0.0
O308 O 0.00635 0.86536 0.73967 0.0
O309 O 0.04625 0.91265 0.69016 0.0
O310 O 0.08546 0.87311 0.7045 0.0
O311 O 0.0116 0.87979 0.79687 0.0
O312 O 0.05957 0.86798 0.76167 0.0
O313 O 0.05248 0.94714 0.75864 0.0
O314 O 0.02058 0.9238 0.79417 0.0
O315 O 0.92172 0.89569 0.82282 0.0
O316 O 0.91767 0.94385 0.80784 0.0
O317 O 0.98437 0.92827 0.72212 0.0
O318 O 0.95364 0.94956 0.75921 0.0
C319 C 0.9613 0.86573 0.73343 0.0
C320 C 0.04636 0.86419 0.78568 0.0
C321 C 0.11094 0.89359 0.66546 0.0
C322 C 0.13742 0.89118 0.6214 0.0
C323 C 0.19566 0.89658 0.65552 0.0
C324 C 0.15889 0.89658 0.67335 0.0
C325 C 0.18507 0.89368 0.6297 0.0
C326 C 0.10019 0.89146 0.63931 0.0
C327 C 0.073 0.88882 0.68445 0.0
C328 C 0.21894 0.98313 0.74085 0.0
C329 C 0.23895 0.95563 0.75078 0.0
H330 H 0.17117 0.0309 0.71841 0.0
C331 C 0.04515 0.94657 0.78332 0.0
C332 C 0.96144 0.9506 0.7344 0.0
C333 C 0.88888 0.93566 0.85115 0.0
C334 C 0.87522 0.9301 0.89695 0.0
C335 C 0.84448 0.9754 0.87413 0.0
C336 C 0.86384 0.96412 0.85153 0.0
C337 C 0.85027 0.95866 0.89667 0.0
C338 C 0.89401 0.91832 0.87396 0.0
C339 C 0.90983 0.92482 0.82691 0.0
H340 H 0.23252 0.89813 0.66177 0.0
H341 H 0.16809 0.89787 0.69334 0.0
H342 H 0.21416 0.89301 0.61612 0.0
H343 H 0.06343 0.88857 0.63304 0.0
H344 H 0.82498 0.99727 0.8742 0.0
H345 H 0.85901 0.97768 0.83427 0.0
H346 H 0.83476 0.96792 0.91399 0.0
H347 H 0.91335 0.89634 0.87398 0.0
C348 C 0.66619 0.62496 0.26614 0.0
C349 C 0.6755 0.68054 0.27601 0.0
C350 C 0.64788 0.65253 0.27623 0.0
C351 C 0.72099 0.68064 0.26474 0.0
C352 C 0.71264 0.62463 0.25577 0.0
C353 C 0.73957 0.65273 0.25471 0.0
N354 N 0.63918 0.59819 0.26735 0.0
C355 C 0.65826 0.56988 0.26091 0.0
C356 C 0.7311 0.5959 0.24741 0.0
C357 C 0.70404 0.56831 0.25039 0.0
Gd358 Gd 0.45177 0.60259 0.23084 0.0
Gd359 Gd 0.56184 0.6033 0.28411 0.0
N360 N 0.60386 0.65159 0.28718 0.0
C361 C 0.65715 0.70737 0.28783 0.0
C362 C 0.58776 0.67691 0.30052 0.0
C363 C 0.61349 0.70536 0.30057 0.0
H364 H 0.55607 0.67495 0.31198 0.0
H365 H 0.60006 0.72552 0.31085 0.0
H366 H 0.46675 0.52986 0.20808 0.0
H367 H 0.63879 0.54838 0.26449 0.0
H368 H 0.42218 0.47916 0.20626 0.0
H369 H 0.67725 0.72935 0.28809 0.0
H370 H 0.74258 0.70199 0.26427 0.0
H371 H 0.36922 0.65825 0.24214 0.0
H372 H 0.76671 0.59462 0.23944 0.0
H373 H 0.71865 0.54578 0.24493 0.0
H374 H 0.26905 0.50334 0.24216 0.0
H375 H 0.77521 0.65299 0.24667 0.0
H376 H 0.23708 0.61176 0.26039 0.0
H377 H 0.28474 0.66083 0.25541 0.0
N378 N 0.37032 0.60809 0.2413 0.0
C379 C 0.34396 0.58107 0.24241 0.0
C380 C 0.34899 0.63662 0.24471 0.0
C381 C 0.27431 0.61045 0.25488 0.0
C382 C 0.30105 0.6382 0.25205 0.0
C383 C 0.29536 0.58145 0.24948 0.0
H384 H 0.23174 0.55285 0.25571 0.0
N385 N 0.4107 0.55426 0.22648 0.0
C386 C 0.36473 0.55328 0.23461 0.0
C387 C 0.35922 0.49792 0.22407 0.0
C388 C 0.33783 0.525 0.2339 0.0
C389 C 0.43085 0.52844 0.21547 0.0
C390 C 0.4057 0.49977 0.21444 0.0
O391 O 0.57349 0.62685 0.24594 0.0
O392 O 0.49821 0.64494 0.2394 0.0
O393 O 0.45694 0.59291 0.19005 0.0
O394 O 0.42799 0.63677 0.20324 0.0
O395 O 0.5022 0.63717 0.29349 0.0
O396 O 0.43775 0.63423 0.26465 0.0
O397 O 0.45853 0.56161 0.2579 0.0
O398 O 0.48709 0.58616 0.2939 0.0
O399 O 0.58286 0.61209 0.32353 0.0
O400 O 0.58838 0.56469 0.30722 0.0
O401 O 0.52499 0.58399 0.22217 0.0
O402 O 0.55337 0.56047 0.25847 0.0
C403 C 0.54396 0.64611 0.23462 0.0
C404 C 0.45918 0.64515 0.28536 0.0
C405 C 0.39687 0.61657 0.16499 0.0
C406 C 0.36906 0.62009 0.12117 0.0
C407 C 0.31179 0.61634 0.15571 0.0
C408 C 0.34915 0.61513 0.17323 0.0
C409 C 0.32161 0.61899 0.12983 0.0
C410 C 0.40684 0.6185 0.13879 0.0
C411 C 0.43596 0.61887 0.18366 0.0
C412 C 0.29018 0.5249 0.24228 0.0
C413 C 0.26896 0.55308 0.25003 0.0
H414 H 0.33976 0.47571 0.22321 0.0
C415 C 0.46214 0.56365 0.28274 0.0
C416 C 0.54656 0.56064 0.2336 0.0
C417 C 0.61293 0.57112 0.35158 0.0
C418 C 0.62454 0.57656 0.39752 0.0
C419 C 0.65126 0.52954 0.37558 0.0
C420 C 0.63473 0.54151 0.35253 0.0
C421 C 0.64595 0.54682 0.39797 0.0
C422 C 0.6084 0.58888 0.37421 0.0
C423 C 0.59435 0.58283 0.32707 0.0
H424 H 0.27512 0.61577 0.16223 0.0
H425 H 0.34063 0.61382 0.19323 0.0
H426 H 0.29209 0.62045 0.11648 0.0
H427 H 0.44353 0.62004 0.13225 0.0
H428 H 0.66828 0.50678 0.37611 0.0
H429 H 0.6391 0.52756 0.3354 0.0
H430 H 0.65929 0.53718 0.41567 0.0
H431 H 0.59184 0.61184 0.37381 0.0
C432 C 0.17156 0.95676 0.38843 0.0
C433 C 0.19194 0.929 0.37885 0.0
C434 C 0.14875 0.97823 0.37236 0.0
C435 C 0.14941 0.97332 0.34573 0.0
C436 C 0.17304 0.94683 0.33563 0.0
C437 C 0.19261 0.92454 0.35226 0.0
C438 C 0.1215 0.00512 0.38411 0.0
C439 C 0.1779 0.94205 0.30723 0.0
C440 C 0.05133 0.00756 0.30461 0.0
C441 C 0.06984 0.03755 0.29924 0.0
C442 C 0.07631 0.98676 0.32032 0.0
C443 C 0.12303 0.99498 0.32866 0.0
C444 C 0.14356 0.02426 0.32135 0.0
C445 C 0.11591 0.04575 0.30752 0.0
C446 C 0.05216 0.95639 0.32847 0.0
C447 C 0.19442 0.03307 0.32827 0.0
H448 H 0.17229 0.9617 0.40864 0.0
H449 H 0.20738 0.90335 0.34416 0.0
H450 H 0.1314 0.02784 0.3751 0.0
H451 H 0.08265 1.00126 0.38078 0.0
H452 H 0.12774 0.00716 0.40495 0.0
H453 H 0.1951 0.91934 0.30243 0.0
H454 H 0.14255 0.94277 0.2977 0.0
H455 H 0.19988 0.96155 0.2992 0.0
H456 H 0.01717 1.00033 0.29675 0.0
H457 H 0.13057 0.06877 0.30284 0.0
H458 H 0.05226 0.95471 0.34956 0.0
H459 H 0.07201 0.93588 0.32107 0.0
H460 H 0.0146 0.95461 0.32162 0.0
H461 H 0.19615 0.04056 0.34849 0.0
H462 H 0.20821 0.05278 0.31638 0.0
H463 H 0.21835 0.01258 0.32597 0.0
C464 C 0.36786 0.57184 0.88263 0.0
C465 C 0.32172 0.5832 0.8777 0.0
C466 C 0.38861 0.54894 0.8671 0.0
C467 C 0.364 0.53835 0.8451 0.0
C468 C 0.31813 0.55026 0.83943 0.0
C469 C 0.29713 0.57205 0.85606 0.0
C470 C 0.43726 0.53647 0.87417 0.0
C471 C 0.29088 0.53962 0.81603 0.0
C472 C 0.44106 0.50414 0.79276 0.0
C473 C 0.43654 0.47185 0.79754 0.0
C474 C 0.41735 0.5261 0.80806 0.0
C475 C 0.38697 0.51529 0.82782 0.0
C476 C 0.38073 0.48252 0.8319 0.0
C477 C 0.40646 0.46116 0.81699 0.0
C478 C 0.42574 0.56084 0.80354 0.0
C479 C 0.34839 0.46998 0.85259 0.0
H480 H 0.38831 0.5809 0.89864 0.0
H481 H 0.26122 0.58003 0.85215 0.0
H482 H 0.43793 0.51043 0.87245 0.0
H483 H 0.46448 0.54623 0.86095 0.0
H484 H 0.44771 0.54301 0.89393 0.0
H485 H 0.25887 0.55424 0.81247 0.0
H486 H 0.31416 0.5406 0.79897 0.0
H487 H 0.27907 0.51476 0.81847 0.0
H488 H 0.46464 0.51222 0.7777 0.0
H489 H 0.40284 0.43604 0.8204 0.0
H490 H 0.44282 0.57167 0.82058 0.0
H491 H 0.39112 0.57282 0.80053 0.0
H492 H 0.44908 0.56537 0.78683 0.0
H493 H 0.36608 0.47343 0.87134 0.0
H494 H 0.34041 0.44445 0.85007 0.0
H495 H 0.31415 0.4829 0.853 0.0
C496 C 0.68361 0.59093 0.66039 0.0
C497 C 0.68481 0.58517 0.63397 0.0
C498 C 0.66276 0.5692 0.67728 0.0
C499 C 0.64044 0.54165 0.66755 0.0
C500 C 0.64063 0.53578 0.64104 0.0
C501 C 0.66393 0.55705 0.62472 0.0
C502 C 0.66481 0.57564 0.70556 0.0
C503 C 0.61499 0.50746 0.62979 0.0
C504 C 0.61949 0.47025 0.70957 0.0
C505 C 0.57116 0.47339 0.71598 0.0
C506 C 0.64273 0.49269 0.69429 0.0
C507 C 0.61692 0.51877 0.68502 0.0
C508 C 0.56822 0.52228 0.69162 0.0
C509 C 0.54597 0.4996 0.70713 0.0
C510 C 0.69469 0.48812 0.68765 0.0
C511 C 0.53953 0.54995 0.68236 0.0
H512 H 0.6983 0.61265 0.66808 0.0
H513 H 0.66545 0.5514 0.60465 0.0
H514 H 0.62833 0.5751 0.71378 0.0
H515 H 0.68551 0.5569 0.71514 0.0
H516 H 0.68181 0.59879 0.71005 0.0
H517 H 0.62163 0.50489 0.60904 0.0
H518 H 0.62611 0.48554 0.6395 0.0
H519 H 0.57592 0.50988 0.63276 0.0
H520 H 0.63908 0.44993 0.71609 0.0
H521 H 0.50873 0.50241 0.71223 0.0
H522 H 0.71594 0.50923 0.69334 0.0
H523 H 0.6985 0.48533 0.66675 0.0
H524 H 0.71004 0.46712 0.6971 0.0
H525 H 0.55208 0.5717 0.69218 0.0
H526 H 0.50069 0.54686 0.68613 0.0
H527 H 0.54469 0.55356 0.66162 0.0
C528 C 0.79826 0.93487 0.15551 0.0
C529 C 0.8226 0.92377 0.13392 0.0
C530 C 0.82049 0.95555 0.1729 0.0
C531 C 0.86729 0.96689 0.16795 0.0
C532 C 0.89192 0.95626 0.14611 0.0
C533 C 0.86976 0.93433 0.12975 0.0
C534 C 0.79367 0.96538 0.1965 0.0
C535 C 0.94191 0.96778 0.14004 0.0
C536 C 0.9002 0.04547 0.1983 0.0
C537 C 0.93204 0.03629 0.21734 0.0
C538 C 0.87976 0.02312 0.18172 0.0
C539 C 0.88979 0.99074 0.18512 0.0
C540 C 0.9212 0.98135 0.20485 0.0
C541 C 0.94261 1.00439 0.2205 0.0
C542 C 0.84837 0.03423 0.16018 0.0
C543 C 0.93109 0.94705 0.21001 0.0
H544 H 0.76161 0.92759 0.1589 0.0
H545 H 0.88983 0.92531 0.11376 0.0
H546 H 0.81723 0.96447 0.21353 0.0
H547 H 0.7816 0.99004 0.19442 0.0
H548 H 0.76175 0.95018 0.19995 0.0
H549 H 0.95262 0.96166 0.1203 0.0
H550 H 0.94489 0.99371 0.14246 0.0
H551 H 0.96767 0.95684 0.15337 0.0
H552 H 0.89257 0.07028 0.19585 0.0
H553 H 0.96692 0.99744 0.23555 0.0
H554 H 0.81137 0.02518 0.1628 0.0
H555 H 0.86159 0.02481 0.1418 0.0
H556 H 0.84729 0.06034 0.15896 0.0
H557 H 0.89916 0.93615 0.21907 0.0
H558 H 0.96218 0.94401 0.22296 0.0
H559 H 0.93788 0.93397 0.19212 0.0
C560 C 0.86191 0.09763 0.65648 0.0
C561 C 0.82366 0.08877 0.64077 0.0
C562 C 0.88379 0.07563 0.67242 0.0
C563 C 0.86606 0.04425 0.67297 0.0
C564 C 0.82615 0.03552 0.65769 0.0
C565 C 0.80578 0.05789 0.64143 0.0
C566 C 0.92746 0.08561 0.6875 0.0
C567 C 0.80473 1.00272 0.65869 0.0
C568 C 0.94672 0.97737 0.69268 0.0
C569 C 0.93829 0.97552 0.719 0.0
C570 C 0.92485 1.00042 0.6777 0.0
C571 C 0.89048 0.02036 0.68882 0.0
C572 C 0.88078 0.01812 0.71518 0.0
C573 C 0.90702 0.99712 0.73016 0.0
C574 C 0.93889 1.00359 0.65005 0.0
C575 C 0.84283 0.03782 0.72772 0.0
H576 H 0.87593 0.12153 0.65548 0.0
H577 H 0.77615 0.05129 0.62909 0.0
H578 H 0.92379 0.07882 0.70776 0.0
H579 H 0.95924 0.07335 0.67989 0.0
H580 H 0.93415 0.11144 0.68655 0.0
H581 H 0.77634 0.99906 0.6441 0.0
H582 H 0.83259 0.98469 0.65584 0.0
H583 H 0.78905 0.99868 0.67781 0.0
H584 H 0.97126 0.96121 0.68373 0.0
H585 H 0.90236 0.99752 0.75056 0.0
H586 H 0.94991 0.02828 0.64599 0.0
H587 H 0.90788 0.99794 0.63759 0.0
H588 H 0.96877 0.98781 0.64486 0.0
H589 H 0.85763 0.06157 0.73209 0.0
H590 H 0.83045 0.02707 0.74585 0.0
H591 H 0.81141 0.04073 0.71501 0.0
C592 C 0.70845 0.45106 0.14591 0.0
C593 C 0.68503 0.42259 0.14042 0.0
C594 C 0.68595 0.47407 0.16079 0.0
C595 C 0.63909 0.46824 0.17002 0.0
C596 C 0.61527 0.43955 0.16409 0.0
C597 C 0.63873 0.41699 0.14942 0.0
C598 C 0.7122 0.50452 0.1666 0.0
C599 C 0.56437 0.43319 0.17232 0.0
C600 C 0.59339 0.51095 0.22836 0.0
C601 C 0.56877 0.53616 0.21748 0.0
C602 C 0.61788 0.48938 0.21307 0.0
C603 C 0.61497 0.49183 0.18625 0.0
C604 C 0.58768 0.51603 0.17509 0.0
C605 C 0.56583 0.53829 0.19082 0.0
C606 C 0.64702 0.46398 0.2256 0.0
C607 C 0.58201 0.51888 0.14657 0.0
H608 H 0.74386 0.45545 0.13825 0.0
H609 H 0.62038 0.39522 0.14429 0.0
H610 H 0.68969 0.52499 0.16171 0.0
H611 H 0.71989 0.50588 0.18732 0.0
H612 H 0.74646 0.50658 0.15604 0.0
H613 H 0.55261 0.40864 0.16806 0.0
H614 H 0.56022 0.43751 0.19303 0.0
H615 H 0.54018 0.44957 0.16223 0.0
H616 H 0.59406 0.50816 0.24884 0.0
H617 H 0.54622 0.55734 0.1821 0.0
H618 H 0.6844 0.46511 0.21856 0.0
H619 H 0.63228 0.44043 0.22044 0.0
H620 H 0.64751 0.46619 0.24668 0.0
H621 H 0.61499 0.52948 0.13841 0.0
H622 H 0.55143 0.53409 0.14137 0.0
H623 H 0.57652 0.49545 0.13755 0.0
C624 C 0.29558 0.44312 0.3619 0.0
C625 C 0.32407 0.42575 0.37869 0.0
C626 C 0.31585 0.46634 0.34605 0.0
C627 C 0.36591 0.47178 0.34661 0.0
C628 C 0.39484 0.45406 0.36336 0.0
C629 C 0.37354 0.43143 0.37928 0.0
C630 C 0.28365 0.48515 0.32885 0.0
C631 C 0.44825 0.45939 0.36487 0.0
C632 C 0.42627 0.5101 0.2895 0.0
C633 C 0.43594 0.54055 0.29866 0.0
C634 C 0.40311 0.48757 0.30483 0.0
C635 C 0.38836 0.49592 0.32971 0.0
C636 C 0.39695 0.52694 0.33878 0.0
C637 C 0.42098 0.5488 0.32321 0.0
C638 C 0.39569 0.45457 0.29467 0.0
C639 C 0.38012 0.53731 0.36474 0.0
H640 H 0.25724 0.43906 0.36162 0.0
H641 H 0.39571 0.41798 0.39216 0.0
H642 H 0.29166 0.51071 0.33075 0.0
H643 H 0.29017 0.47855 0.30872 0.0
H644 H 0.24519 0.48101 0.3331 0.0
H645 H 0.46628 0.4409 0.37622 0.0
H646 H 0.46414 0.45991 0.34554 0.0
H647 H 0.45579 0.48256 0.37394 0.0
H648 H 0.43807 0.50358 0.27059 0.0
H649 H 0.42764 0.57252 0.33017 0.0
H650 H 0.35705 0.44842 0.29456 0.0
H651 H 0.41377 0.43747 0.30732 0.0
H652 H 0.40978 0.45176 0.27505 0.0
H653 H 0.34059 0.53932 0.36446 0.0
H654 H 0.39569 0.5605 0.37039 0.0
H655 H 0.38937 0.51974 0.3795 0.0
C656 C 0.21156 0.0565 0.87212 0.0
C657 C 0.18772 0.08417 0.87858 0.0
C658 C 0.18926 0.0336 0.85662 0.0
C659 C 0.14238 0.03884 0.84732 0.0
C660 C 0.11864 0.06709 0.85366 0.0
C661 C 0.1416 0.08935 0.86934 0.0
C662 C 0.21564 1.00376 0.85034 0.0
C663 C 0.06839 0.0734 0.8446 0.0
C664 C 0.09723 0.9947 0.78892 0.0
C665 C 0.06963 0.97039 0.79972 0.0
C666 C 0.12199 0.01662 0.8042 0.0
C667 C 0.1179 0.01488 0.831 0.0
C668 C 0.08904 0.99098 0.84209 0.0
C669 C 0.0657 0.96884 0.82633 0.0
C670 C 0.15232 0.04183 0.79168 0.0
C671 C 0.0833 0.9884 0.87059 0.0
H672 H 0.24715 0.05257 0.87963 0.0
H673 H 0.12323 0.1107 0.87476 0.0
H674 H 0.19305 0.9828 0.85467 0.0
H675 H 0.22363 1.00314 0.82966 0.0
H676 H 0.24979 1.00192 0.86106 0.0
H677 H 0.05749 0.09805 0.84845 0.0
H678 H 0.06497 0.06878 0.82387 0.0
H679 H 0.04314 0.05726 0.85451 0.0
H680 H 0.09934 0.9968 0.76849 0.0
H681 H 0.04425 0.95033 0.83497 0.0
H682 H 0.19001 0.0397 0.79803 0.0
H683 H 0.13995 0.06551 0.79752 0.0
H684 H 0.15122 0.04031 0.77058 0.0
H685 H 0.11673 0.9791 0.87898 0.0
H686 H 0.0533 0.97234 0.87588 0.0
H687 H 0.07693 0.01182 0.87927 0.0
C688 C 0.14284 0.11709 0.97072 0.0
C689 C 0.19 0.1276 0.96625 0.0
C690 C 0.12611 0.11121 0.99547 0.0
C691 C 0.15665 0.11701 0.0165 0.0
C692 C 0.20318 0.12963 0.01226 0.0
C693 C 0.21939 0.13459 0.98722 0.0
C694 C 0.07599 0.09833 0.99893 0.0
C695 C 0.23709 0.136 0.03413 0.0
C696 C 0.11881 0.12002 0.08614 0.0
C697 C 0.13368 0.09037 0.0946 0.0
C698 C 0.12267 0.12839 0.06023 0.0
C699 C 0.14252 0.10678 0.04266 0.0
C700 C 0.15338 0.0759 0.05083 0.0
C701 C 0.14823 0.06801 0.07659 0.0
C702 C 0.10827 0.16093 0.05194 0.0
C703 C 0.17238 0.05147 0.03261 0.0
H704 H 0.11909 0.11271 0.95473 0.0
H705 H 0.25583 0.14259 0.9841 0.0
H706 H 0.07556 0.07815 0.0123 0.0
H707 H 0.05322 0.11693 0.00722 0.0
H708 H 0.05974 0.09049 0.98061 0.0
H709 H 0.26932 0.14953 0.02806 0.0
H710 H 0.21902 0.14934 0.04946 0.0
H711 H 0.2487 0.11325 0.04234 0.0
H712 H 0.107 0.13728 0.09992 0.0
H713 H 0.15822 0.04471 0.08298 0.0
H714 H 0.08663 0.15962 0.03422 0.0
H715 H 0.14074 0.17522 0.0477 0.0
H716 H 0.08738 0.17325 0.06683 0.0
H717 H 0.1436 0.04415 0.01921 0.0
H718 H 0.18526 0.03015 0.04265 0.0
H719 H 0.20225 0.06132 0.02114 0.0
C720 C 0.31607 0.41379 0.47826 0.0
C721 C 0.30604 0.38418 0.46729 0.0
C722 C 0.33195 0.41674 0.50348 0.0
C723 C 0.3366 0.3895 0.51874 0.0
C724 C 0.32532 0.35955 0.50821 0.0
C725 C 0.31048 0.3572 0.48257 0.0
C726 C 0.34471 0.44915 0.5136 0.0
C727 C 0.32877 0.33004 0.52404 0.0
C728 C 0.41487 0.40532 0.57671 0.0
C729 C 0.38061 0.41428 0.59461 0.0
C730 C 0.40096 0.39458 0.55238 0.0
C731 C 0.35171 0.39311 0.5459 0.0
C732 C 0.31708 0.40007 0.56469 0.0
C733 C 0.33201 0.4107 0.5888 0.0
C734 C 0.43906 0.38702 0.53309 0.0
C735 C 0.26428 0.39915 0.5587 0.0
H736 H 0.31159 0.43496 0.46707 0.0
H737 H 0.30322 0.33417 0.47442 0.0
H738 H 0.32739 0.45337 0.53225 0.0
H739 H 0.38396 0.45082 0.51659 0.0
H740 H 0.33408 0.46817 0.50032 0.0
H741 H 0.32205 0.30836 0.51263 0.0
H742 H 0.36467 0.32854 0.53297 0.0
H743 H 0.30222 0.33089 0.53968 0.0
H744 H 0.45249 0.40818 0.58131 0.0
H745 H 0.30563 0.41781 0.60272 0.0
H746 H 0.44147 0.40635 0.51895 0.0
H747 H 0.42982 0.36506 0.52259 0.0
H748 H 0.47473 0.38428 0.54213 0.0
H749 H 0.25474 0.42084 0.54817 0.0
H750 H 0.24234 0.39805 0.57629 0.0
H751 H 0.25486 0.37867 0.54645 0.0
C752 C 0.70103 0.36422 0.03261 0.0
C753 C 0.67975 0.38033 0.05295 0.0
C754 C 0.68381 0.36738 0.00761 0.0
C755 C 0.64616 0.38855 1.00248 0.0
C756 C 0.62469 0.40503 0.02271 0.0
C757 C 0.64034 0.39974 0.04767 0.0
C758 C 0.70645 0.34834 0.9866 0.0
C759 C 0.58505 0.42824 0.01812 0.0
C760 C 0.64844 0.41234 0.93328 0.0
C761 C 0.61568 0.39067 0.92294 0.0
C762 C 0.65566 0.41407 0.9597 0.0
C763 C 0.62981 0.39334 0.97584 0.0
C764 C 0.59265 0.37419 0.96559 0.0
C765 C 0.58602 0.37313 0.93913 0.0
C766 C 0.69417 0.4358 0.97004 0.0
C767 C 0.56386 0.35182 0.98194 0.0
H768 H 0.7316 0.34938 0.03601 0.0
H769 H 0.62135 0.41113 0.063 0.0
H770 H 0.67851 0.33688 0.97459 0.0
H771 H 0.72782 0.36414 0.97414 0.0
H772 H 0.73033 0.32981 0.99417 0.0
H773 H 0.57965 0.44394 0.0348 0.0
H774 H 0.59279 0.44309 1.00122 0.0
H775 H 0.55111 0.41525 0.01442 0.0
H776 H 0.67167 0.42564 0.92065 0.0
H777 H 0.56111 0.35609 0.93098 0.0
H778 H 0.72639 0.42193 0.97471 0.0
H779 H 0.68211 0.44742 0.98782 0.0
H780 H 0.70452 0.45422 0.95602 0.0
H781 H 0.58389 0.32956 0.98411 0.0
H782 H 0.52875 0.34608 0.97301 0.0
H783 H 0.55754 0.36152 1.00123 0.0
C784 C 0.80337 0.14131 0.53138 0.0
C785 C 0.82867 0.12888 0.55209 0.0
C786 C 0.82055 0.13832 0.50641 0.0
C787 C 0.86305 0.12134 0.50184 0.0
C788 C 0.88847 0.10839 0.52251 0.0
C789 C 0.87175 0.11307 0.54736 0.0
C790 C 0.79285 0.15315 0.48489 0.0
C791 C 0.93361 0.08987 0.51848 0.0
C792 C 0.86632 0.09659 0.43284 0.0
C793 C 0.8923 0.12174 0.42235 0.0
C794 C 0.86062 0.09415 0.45932 0.0
C795 C 0.88072 0.11775 0.47533 0.0
C796 C 0.91177 0.1409 0.46488 0.0
C797 C 0.91731 0.1425 0.4384 0.0
C798 C 0.82906 0.06825 0.46989 0.0
C799 C 0.93413 0.16662 0.48101 0.0
H800 H 0.76979 0.15312 0.53453 0.0
H801 H 0.89283 0.10429 0.56308 0.0
H802 H 0.81714 0.16701 0.4724 0.0
H803 H 0.77597 0.13442 0.47304 0.0
H804 H 0.76432 0.16893 0.49191 0.0
H805 H 0.94396 0.07655 0.53578 0.0
H806 H 0.92916 0.07303 0.50243 0.0
H807 H 0.96337 0.10623 0.51357 0.0
H808 H 0.84672 0.08068 0.42033 0.0
H809 H 0.93702 0.16211 0.43014 0.0
H810 H 0.79323 0.07783 0.47417 0.0
H811 H 0.84409 0.05893 0.48791 0.0
H812 H 0.82451 0.04852 0.45613 0.0
H813 H 0.9085 0.18628 0.48268 0.0
H814 H 0.96735 0.176 0.47211 0.0
H815 H 0.94271 0.15838 0.50048 0.0
C816 C 0.85147 0.8644 0.04041 0.0
C817 C 0.80697 0.87698 0.04674 0.0
C818 C 0.86963 0.86697 0.01554 0.0
C819 C 0.84302 0.88323 0.99682 0.0
C820 C 0.79738 0.89527 1.00314 0.0
C821 C 0.77979 0.89182 0.02802 0.0
C822 C 0.91811 0.8535 0.0098 0.0
C823 C 0.76779 0.91281 0.98382 0.0
C824 C 0.8971 0.93016 0.94288 0.0
C825 C 0.88008 0.91339 0.92163 0.0
C826 C 0.88919 0.91908 0.96766 0.0
C827 C 0.86377 0.8904 0.97128 0.0
C828 C 0.85162 0.87157 0.94984 0.0
C829 C 0.85983 0.88334 0.92513 0.0
C830 C 0.90363 0.93976 0.98988 0.0
C831 C 0.82697 0.84003 0.95306 0.0
H832 H 0.87256 0.85318 0.05511 0.0
H833 H 0.74556 0.90174 0.03313 0.0
H834 H 0.91925 0.84332 0.99034 0.0
H835 H 0.94553 0.87254 0.01091 0.0
H836 H 0.92797 0.835 0.02374 0.0
H837 H 0.73406 0.92187 0.99204 0.0
H838 H 0.7886 0.93302 0.97604 0.0
H839 H 0.75869 0.89697 0.96764 0.0
H840 H 0.91354 0.95316 0.94013 0.0
H841 H 0.84714 0.87016 0.9087 0.0
H842 H 0.92117 0.92571 1.00494 0.0
H843 H 0.87121 0.95037 0.99831 0.0
H844 H 0.92839 0.95909 0.98407 0.0
H845 H 0.84817 0.825 0.96604 0.0
H846 H 0.82199 0.82751 0.93463 0.0
H847 H 0.79143 0.84326 0.96197 0.0
C848 C 0.71281 0.6085 0.53134 0.0
C849 C 0.69446 0.63208 0.54703 0.0
C850 C 0.69461 0.60354 0.50673 0.0
C851 C 0.65702 0.62264 0.49762 0.0
C852 C 0.63836 0.64657 0.5135 0.0
C853 C 0.65738 0.651 0.53811 0.0
C854 C 0.71515 0.57747 0.49063 0.0
C855 C 0.597 0.66649 0.50498 0.0
C856 C 0.65224 0.62041 0.42566 0.0
C857 C 0.62173 0.59452 0.42162 0.0
C858 C 0.66085 0.63187 0.45041 0.0
C859 C 0.63804 0.61717 0.4714 0.0
C860 C 0.60305 0.59336 0.46696 0.0
C861 C 0.59576 0.58205 0.44209 0.0
C862 C 0.69782 0.6576 0.45429 0.0
C863 C 0.57668 0.57744 0.48851 0.0
H864 H 0.74075 0.59343 0.53861 0.0
H865 H 0.64231 0.66855 0.55069 0.0
H866 H 0.68638 0.5608 0.48465 0.0
H867 H 0.73113 0.58756 0.47308 0.0
H868 H 0.74304 0.56401 0.50089 0.0
H869 H 0.59154 0.687 0.51778 0.0
H870 H 0.60257 0.67514 0.48528 0.0
H871 H 0.56383 0.65188 0.50494 0.0
H872 H 0.67236 0.62998 0.40978 0.0
H873 H 0.57195 0.56207 0.43887 0.0
H874 H 0.73095 0.6472 0.46216 0.0
H875 H 0.68503 0.67526 0.46823 0.0
H876 H 0.70683 0.66979 0.4362 0.0
H877 H 0.59764 0.55697 0.49512 0.0
H878 H 0.54112 0.56852 0.4821 0.0
H879 H 0.5716 0.59354 0.50492 0.0
C880 C 0.35608 0.64184 0.96951 0.0
C881 C 0.31078 0.62881 0.96457 0.0
C882 C 0.37579 0.64103 0.99408 0.0
C883 C 0.34953 0.62656 0.01395 0.0
C884 C 0.30392 0.61291 0.00879 0.0
C885 C 0.28503 0.61428 0.98408 0.0
C886 C 0.42482 0.6552 0.99865 0.0
C887 C 0.27432 0.59775 0.02953 0.0
C888 C 0.39449 0.60044 0.07847 0.0
C889 C 0.37746 0.6249 0.09376 0.0
C890 C 0.38989 0.60192 0.05182 0.0
C891 C 0.36692 0.62812 0.04066 0.0
C892 C 0.35401 0.65409 0.05603 0.0
C893 C 0.35998 0.65223 0.08243 0.0
C894 C 0.40608 0.57447 0.03584 0.0
C895 C 0.33137 0.68319 0.04494 0.0
H896 H 0.3761 0.65252 0.95405 0.0
H897 H 0.25032 0.60382 0.9799 0.0
H898 H 0.4244 0.67153 0.01515 0.0
H899 H 0.45023 0.63615 1.00327 0.0
H900 H 0.43839 0.66821 0.98176 0.0
H901 H 0.24212 0.5854 0.02186 0.0
H902 H 0.2958 0.58052 0.04037 0.0
H903 H 0.26262 0.61614 0.04314 0.0
H904 H 0.40831 0.57938 0.08737 0.0
H905 H 0.34783 0.67133 0.09445 0.0
H906 H 0.42518 0.58298 0.01863 0.0
H907 H 0.37447 0.56061 0.02929 0.0
H908 H 0.42995 0.55856 0.04666 0.0
H909 H 0.35932 0.69769 0.03546 0.0
H910 H 0.31436 0.69792 0.05981 0.0
H911 H 0.30389 0.677 0.03044 0.0
C912 C 0.14472 0.86586 0.46976 0.0
C913 C 0.19043 0.87769 0.46434 0.0
C914 C 0.12618 0.86754 0.49454 0.0
C915 C 0.15403 0.88175 0.51407 0.0
C916 C 0.20004 0.89426 0.50839 0.0
C917 C 0.21775 0.89195 0.48354 0.0
C918 C 0.07668 0.85462 0.49967 0.0
C919 C 0.23131 0.90918 0.52871 0.0
C920 C 0.11227 0.91034 0.57855 0.0
C921 C 0.12839 0.88587 0.59407 0.0
C922 C 0.11624 0.9082 0.55191 0.0
C923 C 0.13761 0.88125 0.54095 0.0
C924 C 0.14993 0.85545 0.5566 0.0
C925 C 0.14469 0.85802 0.583 0.0
C926 C 0.10125 0.93572 0.53571 0.0
C927 C 0.17134 0.82581 0.54572 0.0
H928 H 0.12349 0.85544 0.45455 0.0
H929 H 0.2528 0.90155 0.479 0.0
H930 H 0.07701 0.83849 0.51625 0.0
H931 H 0.05257 0.87433 0.50445 0.0
H932 H 0.06162 0.84172 0.483 0.0
H933 H 0.26332 0.92114 0.52056 0.0
H934 H 0.21103 0.92668 0.53991 0.0
H935 H 0.24343 0.89069 0.54209 0.0
H936 H 0.09963 0.93187 0.58726 0.0
H937 H 0.15646 0.83903 0.59521 0.0
H938 H 0.08183 0.92737 0.51848 0.0
H939 H 0.13346 0.9489 0.52923 0.0
H940 H 0.07809 0.95222 0.54638 0.0
H941 H 0.14316 0.81214 0.53553 0.0
H942 H 0.18661 0.81053 0.56076 0.0
H943 H 0.19996 0.83146 0.53181 0.0
C944 C 0.14602 0.28191 0.37426 0.0
C945 C 0.1782 0.30032 0.3601 0.0
C946 C 0.12345 0.25522 0.36327 0.0
C947 C 0.13494 0.24624 0.33796 0.0
C948 C 0.1687 0.26434 0.32405 0.0
C949 C 0.18915 0.29141 0.33513 0.0
C950 C 0.08672 0.23707 0.37849 0.0
C951 C 0.18187 0.25587 0.29702 0.0
C952 C 0.10964 0.16421 0.31088 0.0
C953 C 0.06797 0.16934 0.29673 0.0
C954 C 0.13054 0.18866 0.32547 0.0
C955 C 0.11014 0.21912 0.32518 0.0
C956 C 0.06824 0.22434 0.31066 0.0
C957 C 0.04738 0.19932 0.29694 0.0
C958 C 0.17463 0.18203 0.34107 0.0
C959 C 0.04515 0.25632 0.3096 0.0
H960 H 0.13709 0.28906 0.39348 0.0
H961 H 0.21393 0.30577 0.32418 0.0
H962 H 0.05308 0.23427 0.36742 0.0
H963 H 0.10015 0.2131 0.38251 0.0
H964 H 0.07842 0.24881 0.39686 0.0
H965 H 0.21325 0.26966 0.29014 0.0
H966 H 0.19005 0.23043 0.29542 0.0
H967 H 0.1511 0.26059 0.28426 0.0
H968 H 0.12525 0.14095 0.31097 0.0
H969 H 0.01514 0.20339 0.28596 0.0
H970 H 0.16831 0.18839 0.36128 0.0
H971 H 0.20493 0.19682 0.33424 0.0
H972 H 0.18504 0.15688 0.34009 0.0
H973 H 0.02859 0.26156 0.32828 0.0
H974 H 0.01696 0.25748 0.29469 0.0
H975 H 0.07215 0.27506 0.30579 0.0
C976 C 0.35258 0.2329 0.87847 0.0
C977 C 0.33311 0.20884 0.86319 0.0
C978 C 0.37542 0.25928 0.86736 0.0
C979 C 0.37708 0.26205 0.84045 0.0
C980 C 0.35625 0.23811 0.82509 0.0
C981 C 0.33533 0.2116 0.83665 0.0
C982 C 0.3982 0.28396 0.88436 0.0
C983 C 0.35712 0.24005 0.79636 0.0
C984 C 0.39692 0.34073 0.80734 0.0
C985 C 0.44484 0.33865 0.79981 0.0
C986 C 0.37493 0.31653 0.82144 0.0
C987 C 0.40137 0.28945 0.82803 0.0
C988 C 0.45003 0.28748 0.82081 0.0
C989 C 0.47126 0.31222 0.807 0.0
C990 C 0.32301 0.31956 0.82869 0.0
C991 C 0.4798 0.2592 0.82751 0.0
H992 H 0.35132 0.23062 0.89901 0.0
H993 H 0.32032 0.19295 0.82484 0.0
H994 H 0.43551 0.28889 0.87828 0.0
H995 H 0.37824 0.30629 0.88271 0.0
H996 H 0.39855 0.27667 0.90466 0.0
H997 H 0.33448 0.2215 0.78728 0.0
H998 H 0.34458 0.26341 0.78984 0.0
H999 H 0.39439 0.23734 0.78956 0.0
H1000 H 0.37642 0.36127 0.80214 0.0
H1001 H 0.5084 0.31047 0.80136 0.0
H1002 H 0.31905 0.31728 0.84962 0.0
H1003 H 0.30174 0.30024 0.81977 0.0
H1004 H 0.30781 0.34245 0.82266 0.0
H1005 H 0.48725 0.25937 0.84827 0.0
H1006 H 0.51447 0.25915 0.81723 0.0
H1007 H 0.46029 0.23695 0.82304 0.0
C1008 C 0.64356 0.20794 0.66681 0.0
C1009 C 0.6815 0.21262 0.64987 0.0
C1010 C 0.62156 0.23342 0.67883 0.0
C1011 C 0.63836 0.26442 0.674 0.0
C1012 C 0.67673 0.26937 0.65682 0.0
C1013 C 0.69776 0.24333 0.64482 0.0
C1014 C 0.58022 0.22711 0.69665 0.0
C1015 C 0.69718 0.3019 0.65209 0.0
C1016 C 0.55826 0.33298 0.69146 0.0
C1017 C 0.57099 0.33815 0.71704 0.0
C1018 C 0.57951 0.30884 0.6772 0.0
C1019 C 0.61711 0.29124 0.68809 0.0
C1020 C 0.63149 0.29737 0.71345 0.0
C1021 C 0.60595 0.31903 0.72802 0.0
C1022 C 0.56068 0.30145 0.65088 0.0
C1023 C 0.673 0.2806 0.72566 0.0
H1024 H 0.6311 0.18416 0.67076 0.0
H1025 H 0.72751 0.24701 0.63194 0.0
H1026 H 0.58851 0.23629 0.71595 0.0
H1027 H 0.54804 0.23959 0.68976 0.0
H1028 H 0.57154 0.20159 0.69829 0.0
H1029 H 0.72125 0.30242 0.6353 0.0
H1030 H 0.66842 0.31929 0.64913 0.0
H1031 H 0.71796 0.30959 0.66908 0.0
H1032 H 0.53036 0.34692 0.68284 0.0
H1033 H 0.61327 0.32044 0.74813 0.0
H1034 H 0.54803 0.27657 0.65011 0.0
H1035 H 0.58964 0.30406 0.63664 0.0
H1036 H 0.53064 0.31693 0.64535 0.0
H1037 H 0.66066 0.25754 0.73322 0.0
H1038 H 0.68821 0.29449 0.74178 0.0
H1039 H 0.70192 0.27623 0.7117 0.0
C1040 C 0.8763 0.2961 0.15416 0.0
C1041 C 0.82684 0.29667 0.15009 0.0
C1042 C 0.89776 0.27075 0.16672 0.0
C1043 C 0.86879 0.24582 0.17612 0.0
C1044 C 0.81862 0.24643 0.17226 0.0
C1045 C 0.79825 0.2717 0.15893 0.0
C1046 C 0.95146 0.2706 0.16985 0.0
C1047 C 0.78632 0.22107 0.18307 0.0
C1048 C 0.92793 0.16788 0.19179 0.0
C1049 C 0.93576 0.17089 0.21806 0.0
C1050 C 0.90581 0.19197 0.17792 0.0
C1051 C 0.89099 0.21964 0.19065 0.0
C1052 C 0.8986 0.22269 0.21721 0.0
C1053 C 0.92133 0.19847 0.2305 0.0
C1054 C 0.89854 0.18793 0.14961 0.0
C1055 C 0.8837 0.25181 0.23159 0.0
H1056 H 0.89831 0.31548 0.14729 0.0
H1057 H 0.75985 0.27246 0.15621 0.0
H1058 H 0.96124 0.26795 0.1902 0.0
H1059 H 0.96636 0.25013 0.1595 0.0
H1060 H 0.96864 0.29245 0.16246 0.0
H1061 H 0.74889 0.22315 0.1762 0.0
H1062 H 0.79962 0.19734 0.17806 0.0
H1063 H 0.78638 0.22284 0.20417 0.0
H1064 H 0.93902 0.14665 0.18205 0.0
H1065 H 0.92794 0.20125 0.25074 0.0
H1066 H 0.91775 0.207 0.13928 0.0
H1067 H 0.86003 0.18988 0.14483 0.0
H1068 H 0.91154 0.16485 0.14262 0.0
H1069 H 0.90834 0.2716 0.22686 0.0
H1070 H 0.88463 0.24824 0.25254 0.0
H1071 H 0.84708 0.25891 0.22601 0.0
C1072 C 0.83452 0.7143 0.68001 0.0
C1073 C 0.82818 0.71153 0.65362 0.0
C1074 C 0.8603 0.73956 0.69068 0.0
C1075 C 0.8798 0.76308 0.67458 0.0
C1076 C 0.87491 0.75998 0.64778 0.0
C1077 C 0.84931 0.73404 0.63755 0.0
C1078 C 0.86512 0.7416 0.71931 0.0
C1079 C 0.89619 0.7842 0.62998 0.0
C1080 C 0.89337 0.84148 0.70883 0.0
C1081 C 0.94159 0.84118 0.71611 0.0
C1082 C 0.87354 0.81706 0.69399 0.0
C1083 C 0.90253 0.7916 0.68628 0.0
C1084 C 0.9518 0.79192 0.69256 0.0
C1085 C 0.97073 0.81671 0.70737 0.0
C1086 C 0.82102 0.81791 0.68736 0.0
C1087 C 0.98402 0.76518 0.68507 0.0
H1088 H 0.81851 0.69679 0.69246 0.0
H1089 H 0.84486 0.73185 0.61712 0.0
H1090 H 0.90277 0.74657 0.72484 0.0
H1091 H 0.84318 0.76129 0.72656 0.0
H1092 H 0.85319 0.71955 0.72886 0.0
H1093 H 0.88415 0.7806 0.61 0.0
H1094 H 0.88656 0.80834 0.6361 0.0
H1095 H 0.93575 0.78271 0.63054 0.0
H1096 H 0.87077 0.86053 0.71514 0.0
H1097 H 0.00817 0.81632 0.71276 0.0
H1098 H 0.80186 0.79853 0.69732 0.0
H1099 H 0.81595 0.81419 0.66659 0.0
H1100 H 0.8044 0.84057 0.69284 0.0
H1101 H 0.97725 0.74486 0.69788 0.0
H1102 H 0.02243 0.77192 0.68662 0.0
H1103 H 0.97657 0.75722 0.66532 0.0
C1104 C 0.69431 0.78556 0.18025 0.0
C1105 C 0.68717 0.79488 0.15499 0.0
C1106 C 0.66637 0.76171 0.19128 0.0
C1107 C 0.63036 0.74651 0.17661 0.0
C1108 C 0.62211 0.75623 0.15116 0.0
C1109 C 0.65057 0.78052 0.14062 0.0
C1110 C 0.67645 0.75219 0.21849 0.0
C1111 C 0.58352 0.74092 0.13506 0.0
C1112 C 0.60388 0.66533 0.2031 0.0
C1113 C 0.56308 0.67088 0.21773 0.0
C1114 C 0.62375 0.68917 0.18783 0.0
C1115 C 0.60339 0.71959 0.18801 0.0
C1116 C 0.56116 0.72495 0.20212 0.0
C1117 C 0.54114 0.70036 0.21658 0.0
C1118 C 0.66758 0.68214 0.17221 0.0
C1119 C 0.53897 0.75715 0.20347 0.0
H1120 H 0.72243 0.79676 0.19142 0.0
H1121 H 0.64456 0.78792 0.12115 0.0
H1122 H 0.64281 0.75073 0.2296 0.0
H1123 H 0.69275 0.72848 0.21873 0.0
H1124 H 0.70131 0.76892 0.22822 0.0
H1125 H 0.58614 0.74792 0.11473 0.0
H1126 H 0.58537 0.71487 0.13633 0.0
H1127 H 0.54793 0.74794 0.14225 0.0
H1128 H 0.62037 0.64234 0.20367 0.0
H1129 H 0.50957 0.70466 0.22796 0.0
H1130 H 0.699 0.69481 0.18036 0.0
H1131 H 0.66274 0.6906 0.1524 0.0
H1132 H 0.67549 0.65655 0.17171 0.0
H1133 H 0.56095 0.77245 0.21618 0.0
H1134 H 0.50199 0.75611 0.21112 0.0
H1135 H 0.53818 0.76843 0.18446 0.0
C1136 C 0.33155 0.77306 0.37461 0.0
C1137 C 0.3101 0.79509 0.35847 0.0
C1138 C 0.35508 0.74676 0.36448 0.0
C1139 C 0.35767 0.74292 0.33772 0.0
C1140 C 0.33611 0.7652 0.32147 0.0
C1141 C 0.31233 0.79087 0.33207 0.0
C1142 C 0.37764 0.72335 0.38232 0.0
C1143 C 0.3379 0.76188 0.29283 0.0
C1144 C 0.45688 0.69738 0.30642 0.0
C1145 C 0.43366 0.66916 0.29995 0.0
C1146 C 0.4332 0.72088 0.31997 0.0
C1147 C 0.38448 0.71644 0.32636 0.0
C1148 C 0.36057 0.68799 0.31958 0.0
C1149 C 0.38568 0.66451 0.30656 0.0
C1150 C 0.45988 0.75097 0.32654 0.0
C1151 C 0.30858 0.68236 0.32597 0.0
H1152 H 0.32963 0.77619 0.39507 0.0
H1153 H 0.29555 0.80787 0.31962 0.0
H1154 H 0.36692 0.69896 0.37699 0.0
H1155 H 0.41714 0.72501 0.38074 0.0
H1156 H 0.36756 0.72757 0.40248 0.0
H1157 H 0.32241 0.78249 0.28291 0.0
H1158 H 0.37535 0.75908 0.28635 0.0
H1159 H 0.31772 0.7404 0.28693 0.0
H1160 H 0.49295 0.70173 0.29994 0.0
H1161 H 0.36781 0.64257 0.30145 0.0
H1162 H 0.45706 0.75584 0.34724 0.0
H1163 H 0.44361 0.77107 0.31635 0.0
H1164 H 0.49835 0.74991 0.3214 0.0
H1165 H 0.30498 0.67891 0.34681 0.0
H1166 H 0.29366 0.66122 0.31612 0.0
H1167 H 0.28678 0.70304 0.32071 0.0
C1168 C 0.14442 0.71304 0.85933 0.0
C1169 C 0.19322 0.71754 0.86431 0.0
C1170 C 0.11708 0.73761 0.84913 0.0
C1171 C 0.13919 0.76723 0.84438 0.0
C1172 C 0.18767 0.7723 0.85118 0.0
C1173 C 0.21435 0.74716 0.86064 0.0
C1174 C 0.06547 0.73136 0.84207 0.0
C1175 C 0.21178 0.80398 0.84756 0.0
C1176 C 0.09463 0.81519 0.78865 0.0
C1177 C 0.07001 0.83946 0.80082 0.0
C1178 C 0.11732 0.79167 0.8027 0.0
C1179 C 0.11381 0.79171 0.82959 0.0
C1180 C 0.08779 0.81561 0.84203 0.0
C1181 C 0.06638 0.83931 0.82748 0.0
C1182 C 0.14535 0.76686 0.78871 0.0
C1183 C 0.08165 0.81592 0.87057 0.0
H1184 H 0.12831 0.68996 0.86218 0.0
H1185 H 0.25204 0.7505 0.8649 0.0
H1186 H 0.04267 0.75134 0.84787 0.0
H1187 H 0.06239 0.72891 0.82108 0.0
H1188 H 0.05139 0.70942 0.85095 0.0
H1189 H 0.24944 0.80418 0.85435 0.0
H1190 H 0.2113 0.81053 0.82712 0.0
H1191 H 0.19189 0.82233 0.8581 0.0
H1192 H 0.0956 0.81416 0.76808 0.0
H1193 H 0.04667 0.8577 0.83704 0.0
H1194 H 0.12997 0.74318 0.79269 0.0
H1195 H 0.18294 0.76697 0.79554 0.0
H1196 H 0.14545 0.77063 0.76778 0.0
H1197 H 0.05482 0.79768 0.87595 0.0
H1198 H 0.06895 0.83908 0.87758 0.0
H1199 H 0.11558 0.81025 0.88044 0.0
loop_
_geom_bond_atom_site_label_1
_geom_bond_atom_site_label_2
_geom_bond_distance
_geom_bond_site_symmetry_2
_ccdc_geom_bond_type
H0 C5 0.930 . S
H1 C8 0.930 . S
H2 C10 0.930 . S
H3 C4 1.016 . S
C4 H3 1.016 . S
C4 N11 1.286 . S
C5 H0 0.930 . S
C5 C6 1.397 . S
C5 C7 1.361 . S
C6 C5 1.397 . S
C6 C10 1.390 . S
C7 C5 1.361 . S
C7 C8 1.393 . S
C7 N11 1.413 . S
C8 H1 0.930 . S
C8 C7 1.393 . S
C8 C9 1.399 . S
C9 C8 1.399 . S
C9 C10 1.381 . S
C10 H2 0.930 . S
C10 C6 1.390 . S
C10 C9 1.381 . S
N11 C4 1.286 . S
N11 C7 1.413 . S
H12 C17 0.930 . S
H13 C20 0.930 . S
H14 C22 0.930 . S
H15 C16 1.016 . S
C16 H15 1.016 . S
C16 N23 1.286 . S
C17 H12 0.930 . S
C17 C18 1.397 . S
C17 C19 1.361 . S
C18 C17 1.397 . S
C18 C22 1.390 . S
C19 C17 1.361 . S
C19 C20 1.393 . S
C19 N23 1.413 . S
C20 H13 0.930 . S
C20 C19 1.393 . S
C20 C21 1.399 . S
C21 C20 1.399 . S
C21 C22 1.381 . S
C22 H14 0.930 . S
C22 C18 1.390 . S
C22 C21 1.381 . S
N23 C16 1.286 . S
N23 C19 1.413 . S
H24 C29 0.930 . S
H25 C32 0.930 . S
H26 C34 0.930 . S
H27 C28 1.016 . S
C28 H27 1.016 . S
C28 N35 1.286 . S
C29 H24 0.930 . S
C29 C30 1.397 . S
C29 C31 1.361 . S
C30 C29 1.397 . S
C30 C34 1.390 . S
C31 C29 1.361 . S
C31 C32 1.393 . S
C31 N35 1.413 . S
C32 H25 0.930 . S
C32 C31 1.393 . S
C32 C33 1.399 . S
C33 C32 1.399 . S
C33 C34 1.381 . S
C34 H26 0.930 . S
C34 C30 1.390 . S
C34 C33 1.381 . S
N35 C28 1.286 . S
N35 C31 1.413 . S
H36 C41 0.930 . S
H37 C44 0.930 . S
H38 C46 0.930 . S
H39 C40 1.016 . S
C40 H39 1.016 . S
C40 N47 1.286 . S
C41 H36 0.930 . S
C41 C42 1.397 . S
C41 C43 1.361 . S
C42 C41 1.397 . S
C42 C46 1.390 . S
C43 C41 1.361 . S
C43 C44 1.393 . S
C43 N47 1.413 . S
C44 H37 0.930 . S
C44 C43 1.393 . S
C44 C45 1.399 . S
C45 C44 1.399 . S
C45 C46 1.381 . S
C46 H38 0.930 . S
C46 C42 1.390 . S
C46 C45 1.381 . S
N47 C40 1.286 . S
N47 C43 1.413 . S
H48 C53 0.930 . S
H49 C56 0.930 . S
H50 C58 0.930 . S
H51 C52 1.016 . S
C52 H51 1.016 . S
C52 N59 1.286 . S
C53 H48 0.930 . S
C53 C54 1.397 . S
C53 C55 1.361 . S
C54 C53 1.397 . S
C54 C58 1.390 . S
C55 C53 1.361 . S
C55 C56 1.393 . S
C55 N59 1.413 . S
C56 H49 0.930 . S
C56 C55 1.393 . S
C56 C57 1.399 . S
C57 C56 1.399 . S
C57 C58 1.381 . S
C58 H50 0.930 . S
C58 C54 1.390 . S
C58 C57 1.381 . S
N59 C52 1.286 . S
N59 C55 1.413 . S
H60 C65 0.930 . S
H61 C68 0.930 . S
H62 C70 0.930 . S
H63 C64 1.016 . S
C64 H63 1.016 . S
C64 N71 1.286 . S
C65 H60 0.930 . S
C65 C66 1.397 . S
C65 C67 1.361 . S
C66 C65 1.397 . S
C66 C70 1.390 . S
C67 C65 1.361 . S
C67 C68 1.393 . S
C67 N71 1.413 . S
C68 H61 0.930 . S
C68 C67 1.393 . S
C68 C69 1.399 . S
C69 C68 1.399 . S
C69 C70 1.381 . S
C70 H62 0.930 . S
C70 C66 1.390 . S
C70 C69 1.381 . S
N71 C64 1.286 . S
N71 C67 1.413 . S
H72 C77 0.930 . S
H73 C80 0.930 . S
H74 C82 0.930 . S
H75 C76 1.016 . S
C76 H75 1.016 . S
C76 N83 1.286 . S
C77 H72 0.930 . S
C77 C78 1.397 . S
C77 C79 1.361 . S
C78 C77 1.397 . S
C78 C82 1.390 . S
C79 C77 1.361 . S
C79 C80 1.393 . S
C79 N83 1.413 . S
C80 H73 0.930 . S
C80 C79 1.393 . S
C80 C81 1.399 . S
C81 C80 1.399 . S
C81 C82 1.381 . S
C82 H74 0.930 . S
C82 C78 1.390 . S
C82 C81 1.381 . S
N83 C76 1.286 . S
N83 C79 1.413 . S
H84 C89 0.930 . S
H85 C92 0.930 . S
H86 C94 0.930 . S
H87 C88 1.016 . S
C88 H87 1.016 . S
C88 N95 1.286 . S
C89 H84 0.930 . S
C89 C90 1.397 . S
C89 C91 1.361 . S
C90 C89 1.397 . S
C90 C94 1.390 . S
C91 C89 1.361 . S
C91 C92 1.393 . S
C91 N95 1.413 . S
C92 H85 0.930 . S
C92 C91 1.393 . S
C92 C93 1.399 . S
C93 C92 1.399 . S
C93 C94 1.381 . S
C94 H86 0.930 . S
C94 C90 1.390 . S
C94 C93 1.381 . S
N95 C88 1.286 . S
N95 C91 1.413 . S
C96 C98 1.422 . S
C96 C100 1.415 . S
C96 N102 1.369 . S
C97 C98 1.421 . S
C97 C99 1.417 . S
C97 C109 1.422 1_545 S
C98 C96 1.422 . S
C98 C97 1.421 . S
C98 N108 1.359 . S
C99 C97 1.417 . S
C99 C101 1.329 . S
C99 H118 0.960 . S
C100 C96 1.415 . S
C100 C101 1.437 . S
C100 C104 1.413 . S
C101 C99 1.329 . S
C101 C100 1.437 . S
C101 H123 0.929 . S
N102 C96 1.369 . S
N102 C103 1.338 . S
N102 Gd107 2.622 . S
C103 N102 1.338 . S
C103 C105 1.378 . S
C103 H115 0.929 . S
C104 C100 1.413 . S
C104 C105 1.348 . S
C104 H120 0.931 . S
C105 C103 1.378 . S
C105 C104 1.348 . S
C105 H121 0.930 . S
Gd106 N126 2.622 . S
Gd106 N133 2.570 . S
Gd106 O140 2.351 . S
Gd106 O141 2.468 . S
Gd106 O142 2.427 . S
Gd106 O144 2.388 . S
Gd106 O145 2.386 . S
Gd106 O149 2.292 1_455 S
Gd106 C159 2.805 . S
Gd107 N102 2.622 . S
Gd107 N108 2.570 . S
Gd107 O139 2.386 . S
Gd107 O143 2.307 1_655 S
Gd107 O146 2.353 1_655 S
Gd107 O147 2.468 . S
Gd107 O148 2.427 . S
Gd107 O150 2.388 . S
Gd107 C171 2.805 . S
N108 C98 1.359 . S
N108 Gd107 2.570 . S
N108 C110 1.343 . S
C109 C97 1.422 1_565 S
C109 C111 1.321 . S
C109 H117 0.931 . S
C110 N108 1.343 . S
C110 C111 1.390 1_545 S
C110 H112 0.931 . S
C111 C109 1.321 . S
C111 C110 1.390 1_565 S
C111 H113 0.930 . S
H112 C110 0.931 . S
H113 C111 0.930 . S
H114 C137 0.931 . S
H115 C103 0.929 . S
H116 C138 0.930 . S
H117 C109 0.931 . S
H118 C99 0.960 . S
H119 C128 0.929 . S
H120 C104 0.931 . S
H121 C105 0.930 . S
H122 C160 0.930 . S
H123 C101 0.929 . S
H124 C129 0.931 . S
H125 C130 0.930 . S
N126 Gd106 2.622 . S
N126 C127 1.369 . S
N126 C128 1.338 . S
C127 N126 1.369 . S
C127 C131 1.415 . S
C127 C134 1.422 . S
C128 H119 0.929 . S
C128 N126 1.338 . S
C128 C130 1.378 . S
C129 H124 0.931 . S
C129 C130 1.348 . S
C129 C131 1.413 . S
C130 H125 0.930 . S
C130 C128 1.378 . S
C130 C129 1.348 . S
C131 C127 1.415 . S
C131 C129 1.413 . S
C131 C161 1.437 . S
H132 C161 0.929 . S
N133 Gd106 2.570 . S
N133 C134 1.359 . S
N133 C137 1.343 . S
C134 C127 1.422 . S
C134 N133 1.359 . S
C134 C136 1.421 . S
C135 C136 1.422 . S
C135 C138 1.321 . S
C135 H162 0.931 . S
C136 C134 1.421 . S
C136 C135 1.422 . S
C136 C160 1.417 . S
C137 H114 0.931 . S
C137 N133 1.343 . S
C137 C138 1.390 . S
C138 H116 0.930 . S
C138 C135 1.321 . S
C138 C137 1.390 . S
O139 Gd107 2.386 . S
O139 C151 1.265 . S
O140 Gd106 2.351 . S
O140 C151 1.244 1_455 S
O141 Gd106 2.468 . S
O141 C159 1.263 . S
O142 Gd106 2.427 . S
O142 C159 1.252 . S
O143 Gd107 2.307 1_455 S
O143 C152 1.261 . S
O144 Gd106 2.388 . S
O144 C152 1.252 . S
O145 Gd106 2.386 . S
O145 C163 1.265 . S
O146 Gd107 2.353 1_455 S
O146 C163 1.242 . S
O147 Gd107 2.468 . S
O147 C171 1.263 . S
O148 Gd107 2.427 . S
O148 C171 1.252 . S
O149 Gd106 2.292 1_655 S
O149 C164 1.279 . S
O150 Gd107 2.388 . S
O150 C164 1.252 . S
C151 O139 1.265 . S
C151 O140 1.244 1_655 S
C152 O143 1.261 . S
C152 O144 1.252 . S
C153 C156 1.394 . S
C153 C158 1.370 . S
C153 C159 1.500 . S
C154 C157 1.383 . S
C154 C158 1.395 . S
C155 C156 1.396 . S
C155 C157 1.365 . S
C155 H172 0.929 . S
C156 C153 1.394 . S
C156 C155 1.396 . S
C156 H173 0.930 . S
C157 C154 1.383 . S
C157 C155 1.365 . S
C157 H174 0.931 . S
C158 C153 1.370 . S
C158 C154 1.395 . S
C158 H175 0.930 . S
C159 Gd106 2.805 . S
C159 O141 1.263 . S
C159 O142 1.252 . S
C159 C153 1.500 . S
C160 H122 0.930 . S
C160 C136 1.417 . S
C160 C161 1.329 . S
C161 C131 1.437 . S
C161 H132 0.929 . S
C161 C160 1.329 . S
H162 C135 0.931 . S
C163 O145 1.265 . S
C163 O146 1.242 . S
C164 O149 1.279 . S
C164 O150 1.252 . S
C165 C168 1.394 . S
C165 C170 1.370 . S
C165 C171 1.500 . S
C166 C169 1.383 . S
C166 C170 1.395 . S
C167 C168 1.396 . S
C167 C169 1.365 . S
C167 H176 0.929 . S
C168 C165 1.394 . S
C168 C167 1.396 . S
C168 H177 0.930 . S
C169 C166 1.383 . S
C169 C167 1.365 . S
C169 H178 0.931 . S
C170 C165 1.370 . S
C170 C166 1.395 . S
C170 H179 0.930 . S
C171 Gd107 2.805 . S
C171 O147 1.263 . S
C171 O148 1.252 . S
C171 C165 1.500 . S
H172 C155 0.929 . S
H173 C156 0.930 . S
H174 C157 0.931 . S
H175 C158 0.930 . S
H176 C167 0.929 . S
H177 C168 0.930 . S
H178 C169 0.931 . S
H179 C170 0.930 . S
C180 C182 1.422 . S
C180 C184 1.415 . S
C180 N186 1.369 . S
C181 C182 1.421 . S
C181 C183 1.417 . S
C181 C193 1.422 . S
C182 C180 1.422 . S
C182 C181 1.421 . S
C182 N192 1.359 . S
C183 C181 1.417 . S
C183 C185 1.329 . S
C183 H202 0.930 . S
C184 C180 1.415 . S
C184 C185 1.437 . S
C184 C188 1.413 . S
C185 C183 1.329 . S
C185 C184 1.437 . S
C185 H207 0.929 . S
N186 C180 1.369 . S
N186 C187 1.338 . S
N186 Gd191 2.622 . S
C187 N186 1.338 . S
C187 C189 1.378 . S
C187 H199 0.929 . S
C188 C184 1.413 . S
C188 C189 1.348 . S
C188 H204 0.931 . S
C189 C187 1.378 . S
C189 C188 1.348 . S
C189 H205 0.930 . S
Gd190 N210 2.622 . S
Gd190 N217 2.570 . S
Gd190 O224 2.353 . S
Gd190 O225 2.468 . S
Gd190 O226 2.427 . S
Gd190 O228 2.388 . S
Gd190 O229 2.386 . S
Gd190 O233 2.307 . S
Gd190 C243 2.805 . S
Gd191 N186 2.622 . S
Gd191 N192 2.570 . S
Gd191 O223 2.386 . S
Gd191 O227 2.307 . S
Gd191 O230 2.353 . S
Gd191 O231 2.468 . S
Gd191 O232 2.427 . S
Gd191 O234 2.388 . S
Gd191 C255 2.805 . S
N192 C182 1.359 . S
N192 Gd191 2.570 . S
N192 C194 1.343 . S
C193 C181 1.422 . S
C193 C195 1.321 . S
C193 H201 0.931 . S
C194 N192 1.343 . S
C194 C195 1.390 . S
C194 H196 0.931 . S
C195 C193 1.321 . S
C195 C194 1.390 . S
C195 H197 0.930 . S
H196 C194 0.931 . S
H197 C195 0.930 . S
H198 C221 0.931 . S
H199 C187 0.929 . S
H200 C222 0.930 . S
H201 C193 0.931 . S
H202 C183 0.930 . S
H203 C212 0.929 . S
H204 C188 0.931 . S
H205 C189 0.930 . S
H206 C244 0.930 . S
H207 C185 0.929 . S
H208 C213 0.931 . S
H209 C214 0.930 . S
N210 Gd190 2.622 . S
N210 C211 1.369 . S
N210 C212 1.338 . S
C211 N210 1.369 . S
C211 C215 1.415 . S
C211 C218 1.422 . S
C212 H203 0.929 . S
C212 N210 1.338 . S
C212 C214 1.378 . S
C213 H208 0.931 . S
C213 C214 1.348 . S
C213 C215 1.413 . S
C214 H209 0.930 . S
C214 C212 1.378 . S
C214 C213 1.348 . S
C215 C211 1.415 . S
C215 C213 1.413 . S
C215 C245 1.437 . S
H216 C245 0.929 . S
N217 Gd190 2.570 . S
N217 C218 1.359 . S
N217 C221 1.343 . S
C218 C211 1.422 . S
C218 N217 1.359 . S
C218 C220 1.421 . S
C219 C220 1.422 . S
C219 C222 1.321 . S
C219 H246 0.931 . S
C220 C218 1.421 . S
C220 C219 1.422 . S
C220 C244 1.417 . S
C221 H198 0.931 . S
C221 N217 1.343 . S
C221 C222 1.390 . S
C222 H200 0.930 . S
C222 C219 1.321 . S
C222 C221 1.390 . S
O223 Gd191 2.386 . S
O223 C235 1.265 . S
O224 Gd190 2.353 . S
O224 C235 1.242 . S
O225 Gd190 2.468 . S
O225 C243 1.263 . S
O226 Gd190 2.427 . S
O226 C243 1.252 . S
O227 Gd191 2.307 . S
O227 C236 1.261 . S
O228 Gd190 2.388 . S
O228 C236 1.252 . S
O229 Gd190 2.386 . S
O229 C247 1.265 . S
O230 Gd191 2.353 . S
O230 C247 1.242 . S
O231 Gd191 2.468 . S
O231 C255 1.263 . S
O232 Gd191 2.427 . S
O232 C255 1.252 . S
O233 Gd190 2.307 . S
O233 C248 1.261 . S
O234 Gd191 2.388 . S
O234 C248 1.252 . S
C235 O223 1.265 . S
C235 O224 1.242 . S
C236 O227 1.261 . S
C236 O228 1.252 . S
C237 C240 1.394 . S
C237 C242 1.370 . S
C237 C243 1.500 . S
C238 C241 1.383 . S
C238 C242 1.395 . S
C239 C240 1.396 . S
C239 C241 1.365 . S
C239 H256 0.929 . S
C240 C237 1.394 . S
C240 C239 1.396 . S
C240 H257 0.930 . S
C241 C238 1.383 . S
C241 C239 1.365 . S
C241 H258 0.931 . S
C242 C237 1.370 . S
C242 C238 1.395 . S
C242 H259 0.930 . S
C243 Gd190 2.805 . S
C243 O225 1.263 . S
C243 O226 1.252 . S
C243 C237 1.500 . S
C244 H206 0.930 . S
C244 C220 1.417 . S
C244 C245 1.329 . S
C245 C215 1.437 . S
C245 H216 0.929 . S
C245 C244 1.329 . S
H246 C219 0.931 . S
C247 O229 1.265 . S
C247 O230 1.242 . S
C248 O233 1.261 . S
C248 O234 1.252 . S
C249 C252 1.394 . S
C249 C254 1.370 . S
C249 C255 1.500 . S
C250 C253 1.383 . S
C250 C254 1.395 . S
C251 C252 1.396 . S
C251 C253 1.365 . S
C251 H260 0.929 . S
C252 C249 1.394 . S
C252 C251 1.396 . S
C252 H261 0.930 . S
C253 C250 1.383 . S
C253 C251 1.365 . S
C253 H262 0.931 . S
C254 C249 1.370 . S
C254 C250 1.395 . S
C254 H263 0.930 . S
C255 Gd191 2.805 . S
C255 O231 1.263 . S
C255 O232 1.252 . S
C255 C249 1.500 . S
H256 C239 0.929 . S
H257 C240 0.930 . S
H258 C241 0.931 . S
H259 C242 0.930 . S
H260 C251 0.929 . S
H261 C252 0.930 . S
H262 C253 0.931 . S
H263 C254 0.930 . S
C264 C266 1.422 . S
C264 C268 1.415 . S
C264 N270 1.369 . S
C265 C266 1.421 . S
C265 C267 1.417 . S
C265 C277 1.422 . S
C266 C264 1.422 . S
C266 C265 1.421 . S
C266 N276 1.359 . S
C267 C265 1.417 . S
C267 C269 1.329 . S
C267 H286 0.930 . S
C268 C264 1.415 . S
C268 C269 1.437 . S
C268 C272 1.413 . S
C269 C267 1.329 . S
C269 C268 1.437 . S
C269 H291 0.929 . S
N270 C264 1.369 . S
N270 C271 1.338 . S
N270 Gd275 2.622 . S
C271 N270 1.338 . S
C271 C273 1.378 . S
C271 H283 0.929 . S
C272 C268 1.413 . S
C272 C273 1.348 . S
C272 H288 0.931 . S
C273 C271 1.378 . S
C273 C272 1.348 . S
C273 H289 0.930 . S
Gd274 N294 2.622 . S
Gd274 N301 2.570 . S
Gd274 O308 2.353 . S
Gd274 O309 2.468 . S
Gd274 O310 2.427 . S
Gd274 O312 2.388 . S
Gd274 O313 2.386 . S
Gd274 O317 2.307 . S
Gd274 C327 2.805 . S
Gd275 N270 2.622 . S
Gd275 N276 2.570 . S
Gd275 O307 2.386 . S
Gd275 O311 2.307 1_655 S
Gd275 O314 2.353 1_655 S
Gd275 O315 2.468 . S
Gd275 O316 2.427 . S
Gd275 O318 2.388 . S
Gd275 C339 2.805 . S
N276 C266 1.359 . S
N276 Gd275 2.570 . S
N276 C278 1.343 . S
C277 C265 1.422 . S
C277 C279 1.321 . S
C277 H285 0.931 . S
C278 N276 1.343 . S
C278 C279 1.390 . S
C278 H280 0.931 . S
C279 C277 1.321 . S
C279 C278 1.390 . S
C279 H281 0.930 . S
H280 C278 0.931 . S
H281 C279 0.930 . S
H282 C305 0.931 . S
H283 C271 0.929 . S
H284 C306 0.930 . S
H285 C277 0.931 . S
H286 C267 0.930 . S
H287 C296 0.929 . S
H288 C272 0.931 . S
H289 C273 0.930 . S
H290 C328 0.960 . S
H291 C269 0.929 . S
H292 C297 0.931 . S
H293 C298 0.930 . S
N294 Gd274 2.622 . S
N294 C295 1.369 . S
N294 C296 1.338 . S
C295 N294 1.369 . S
C295 C299 1.415 . S
C295 C302 1.422 . S
C296 H287 0.929 . S
C296 N294 1.338 . S
C296 C298 1.378 . S
C297 H292 0.931 . S
C297 C298 1.348 . S
C297 C299 1.413 . S
C298 H293 0.930 . S
C298 C296 1.378 . S
C298 C297 1.348 . S
C299 C295 1.415 . S
C299 C297 1.413 . S
C299 C329 1.437 . S
H300 C329 0.929 . S
N301 Gd274 2.570 . S
N301 C302 1.359 . S
N301 C305 1.343 . S
C302 C295 1.422 . S
C302 N301 1.359 . S
C302 C304 1.421 . S
C303 C304 1.422 1_545 S
C303 C306 1.321 . S
C303 H330 0.931 . S
C304 C302 1.421 . S
C304 C303 1.422 1_565 S
C304 C328 1.417 . S
C305 H282 0.931 . S
C305 N301 1.343 . S
C305 C306 1.390 1_565 S
C306 H284 0.930 . S
C306 C303 1.321 . S
C306 C305 1.390 1_545 S
O307 Gd275 2.386 . S
O307 C319 1.265 . S
O308 Gd274 2.353 . S
O308 C319 1.242 1_455 S
O309 Gd274 2.468 . S
O309 C327 1.263 . S
O310 Gd274 2.427 . S
O310 C327 1.252 . S
O311 Gd275 2.307 1_455 S
O311 C320 1.261 . S
O312 Gd274 2.388 . S
O312 C320 1.252 . S
O313 Gd274 2.386 . S
O313 C331 1.265 . S
O314 Gd275 2.353 1_455 S
O314 C331 1.242 . S
O315 Gd275 2.468 . S
O315 C339 1.263 . S
O316 Gd275 2.427 . S
O316 C339 1.252 . S
O317 Gd274 2.307 . S
O317 C332 1.261 1_455 S
O318 Gd275 2.388 . S
O318 C332 1.252 . S
C319 O307 1.265 . S
C319 O308 1.242 1_655 S
C320 O311 1.261 . S
C320 O312 1.252 . S
C321 C324 1.394 . S
C321 C326 1.370 . S
C321 C327 1.500 . S
C322 C325 1.383 . S
C322 C326 1.395 . S
C323 C324 1.396 . S
C323 C325 1.365 . S
C323 H340 0.929 . S
C324 C321 1.394 . S
C324 C323 1.396 . S
C324 H341 0.930 . S
C325 C322 1.383 . S
C325 C323 1.365 . S
C325 H342 0.931 . S
C326 C321 1.370 . S
C326 C322 1.395 . S
C326 H343 0.930 . S
C327 Gd274 2.805 . S
C327 O309 1.263 . S
C327 O310 1.252 . S
C327 C321 1.500 . S
C328 H290 0.960 . S
C328 C304 1.417 . S
C328 C329 1.329 . S
C329 C299 1.437 . S
C329 H300 0.929 . S
C329 C328 1.329 . S
H330 C303 0.931 . S
C331 O313 1.265 . S
C331 O314 1.242 . S
C332 O317 1.261 1_655 S
C332 O318 1.252 . S
C333 C336 1.394 . S
C333 C338 1.370 . S
C333 C339 1.500 . S
C334 C337 1.383 . S
C334 C338 1.395 . S
C335 C336 1.396 . S
C335 C337 1.365 . S
C335 H344 0.929 . S
C336 C333 1.394 . S
C336 C335 1.396 . S
C336 H345 0.930 . S
C337 C334 1.383 . S
C337 C335 1.365 . S
C337 H346 0.931 . S
C338 C333 1.370 . S
C338 C334 1.395 . S
C338 H347 0.930 . S
C339 Gd275 2.805 . S
C339 O315 1.263 . S
C339 O316 1.252 . S
C339 C333 1.500 . S
H340 C323 0.929 . S
H341 C324 0.930 . S
H342 C325 0.931 . S
H343 C326 0.930 . S
H344 C335 0.929 . S
H345 C336 0.930 . S
H346 C337 0.931 . S
H347 C338 0.930 . S
C348 C350 1.422 . S
C348 C352 1.415 . S
C348 N354 1.369 . S
C349 C350 1.421 . S
C349 C351 1.417 . S
C349 C361 1.422 . S
C350 C348 1.422 . S
C350 C349 1.421 . S
C350 N360 1.359 . S
C351 C349 1.417 . S
C351 C353 1.329 . S
C351 H370 0.930 . S
C352 C348 1.415 . S
C352 C353 1.437 . S
C352 C356 1.413 . S
C353 C351 1.329 . S
C353 C352 1.437 . S
C353 H375 0.929 . S
N354 C348 1.369 . S
N354 C355 1.338 . S
N354 Gd359 2.622 . S
C355 N354 1.338 . S
C355 C357 1.378 . S
C355 H367 0.929 . S
C356 C352 1.413 . S
C356 C357 1.348 . S
C356 H372 0.931 . S
C357 C355 1.378 . S
C357 C356 1.348 . S
C357 H373 0.930 . S
Gd358 N378 2.622 . S
Gd358 N385 2.570 . S
Gd358 O392 2.353 . S
Gd358 O393 2.468 . S
Gd358 O394 2.427 . S
Gd358 O396 2.388 . S
Gd358 O397 2.386 . S
Gd358 O401 2.307 . S
Gd358 C411 2.805 . S
Gd359 N354 2.622 . S
Gd359 N360 2.570 . S
Gd359 O391 2.386 . S
Gd359 O395 2.307 . S
Gd359 O398 2.353 . S
Gd359 O399 2.468 . S
Gd359 O400 2.427 . S
Gd359 O402 2.388 . S
Gd359 C423 2.805 . S
N360 C350 1.359 . S
N360 Gd359 2.570 . S
N360 C362 1.343 . S
C361 C349 1.422 . S
C361 C363 1.321 . S
C361 H369 0.931 . S
C362 N360 1.343 . S
C362 C363 1.390 . S
C362 H364 0.931 . S
C363 C361 1.321 . S
C363 C362 1.390 . S
C363 H365 0.930 . S
H364 C362 0.931 . S
H365 C363 0.930 . S
H366 C389 0.931 . S
H367 C355 0.929 . S
H368 C390 0.930 . S
H369 C361 0.931 . S
H370 C351 0.930 . S
H371 C380 0.929 . S
H372 C356 0.931 . S
H373 C357 0.930 . S
H374 C412 0.930 . S
H375 C353 0.929 . S
H376 C381 0.931 . S
H377 C382 0.930 . S
N378 Gd358 2.622 . S
N378 C379 1.369 . S
N378 C380 1.338 . S
C379 N378 1.369 . S
C379 C383 1.415 . S
C379 C386 1.422 . S
C380 H371 0.929 . S
C380 N378 1.338 . S
C380 C382 1.378 . S
C381 H376 0.931 . S
C381 C382 1.348 . S
C381 C383 1.413 . S
C382 H377 0.930 . S
C382 C380 1.378 . S
C382 C381 1.348 . S
C383 C379 1.415 . S
C383 C381 1.413 . S
C383 C413 1.437 . S
H384 C413 0.929 . S
N385 Gd358 2.570 . S
N385 C386 1.359 . S
N385 C389 1.343 . S
C386 C379 1.422 . S
C386 N385 1.359 . S
C386 C388 1.421 . S
C387 C388 1.422 . S
C387 C390 1.321 . S
C387 H414 0.931 . S
C388 C386 1.421 . S
C388 C387 1.422 . S
C388 C412 1.417 . S
C389 H366 0.931 . S
C389 N385 1.343 . S
C389 C390 1.390 . S
C390 H368 0.930 . S
C390 C387 1.321 . S
C390 C389 1.390 . S
O391 Gd359 2.386 . S
O391 C403 1.265 . S
O392 Gd358 2.353 . S
O392 C403 1.242 . S
O393 Gd358 2.468 . S
O393 C411 1.263 . S
O394 Gd358 2.427 . S
O394 C411 1.252 . S
O395 Gd359 2.307 . S
O395 C404 1.261 . S
O396 Gd358 2.388 . S
O396 C404 1.252 . S
O397 Gd358 2.386 . S
O397 C415 1.265 . S
O398 Gd359 2.353 . S
O398 C415 1.242 . S
O399 Gd359 2.468 . S
O399 C423 1.263 . S
O400 Gd359 2.427 . S
O400 C423 1.252 . S
O401 Gd358 2.307 . S
O401 C416 1.261 . S
O402 Gd359 2.388 . S
O402 C416 1.252 . S
C403 O391 1.265 . S
C403 O392 1.242 . S
C404 O395 1.261 . S
C404 O396 1.252 . S
C405 C408 1.394 . S
C405 C410 1.370 . S
C405 C411 1.500 . S
C406 C409 1.383 . S
C406 C410 1.395 . S
C407 C408 1.396 . S
C407 C409 1.365 . S
C407 H424 0.929 . S
C408 C405 1.394 . S
C408 C407 1.396 . S
C408 H425 0.930 . S
C409 C406 1.383 . S
C409 C407 1.365 . S
C409 H426 0.931 . S
C410 C405 1.370 . S
C410 C406 1.395 . S
C410 H427 0.930 . S
C411 Gd358 2.805 . S
C411 O393 1.263 . S
C411 O394 1.252 . S
C411 C405 1.500 . S
C412 H374 0.930 . S
C412 C388 1.417 . S
C412 C413 1.329 . S
C413 C383 1.437 . S
C413 H384 0.929 . S
C413 C412 1.329 . S
H414 C387 0.931 . S
C415 O397 1.265 . S
C415 O398 1.242 . S
C416 O401 1.261 . S
C416 O402 1.252 . S
C417 C420 1.394 . S
C417 C422 1.370 . S
C417 C423 1.500 . S
C418 C421 1.383 . S
C418 C422 1.395 . S
C419 C420 1.396 . S
C419 C421 1.365 . S
C419 H428 0.929 . S
C420 C417 1.394 . S
C420 C419 1.396 . S
C420 H429 0.930 . S
C421 C418 1.383 . S
C421 C419 1.365 . S
C421 H430 0.931 . S
C422 C417 1.370 . S
C422 C418 1.395 . S
C422 H431 0.930 . S
C423 Gd359 2.805 . S
C423 O399 1.263 . S
C423 O400 1.252 . S
C423 C417 1.500 . S
H424 C407 0.929 . S
H425 C408 0.930 . S
H426 C409 0.931 . S
H427 C410 0.930 . S
H428 C419 0.929 . S
H429 C420 0.930 . S
H430 C421 0.931 . S
H431 C422 0.930 . S
C432 C433 1.391 . S
C432 C434 1.394 . S
C432 H448 0.931 . S
C433 C432 1.391 . S
C433 C437 1.376 . S
C434 C432 1.394 . S
C434 C435 1.369 . S
C434 C438 1.531 . S
C435 C434 1.369 . S
C435 C436 1.410 . S
C435 C443 1.503 . S
C436 C435 1.410 . S
C436 C437 1.392 . S
C436 C439 1.511 . S
C437 C433 1.376 . S
C437 C436 1.392 . S
C437 H449 0.929 . S
C438 C434 1.531 . S
C438 H450 0.960 1_565 S
C438 H451 0.962 . S
C438 H452 0.960 . S
C439 C436 1.511 . S
C439 H453 0.961 . S
C439 H454 0.961 . S
C439 H455 0.961 . S
C440 C441 1.370 . S
C440 C442 1.363 1_545 S
C440 H456 0.931 1_545 S
C441 C440 1.370 . S
C441 C445 1.408 . S
C442 C440 1.363 1_565 S
C442 C443 1.370 . S
C442 C446 1.524 . S
C443 C435 1.503 . S
C443 C442 1.370 . S
C443 C444 1.403 1_565 S
C444 C443 1.403 1_545 S
C444 C445 1.404 . S
C444 C447 1.539 . S
C445 C441 1.408 . S
C445 C444 1.404 . S
C445 H457 0.930 . S
C446 C442 1.524 . S
C446 H458 0.956 . S
C446 H459 0.961 . S
C446 H460 0.961 . S
C447 C444 1.539 . S
C447 H461 0.958 . S
C447 H462 0.961 . S
C447 H463 0.960 . S
H448 C432 0.931 . S
H449 C437 0.929 . S
H450 C438 0.960 1_545 S
H451 C438 0.962 . S
H452 C438 0.960 . S
H453 C439 0.961 . S
H454 C439 0.961 . S
H455 C439 0.961 . S
H456 C440 0.931 1_565 S
H457 C445 0.930 . S
H458 C446 0.956 . S
H459 C446 0.961 . S
H460 C446 0.961 . S
H461 C447 0.958 . S
H462 C447 0.961 . S
H463 C447 0.960 . S
C464 C465 1.391 . S
C464 C466 1.394 . S
C464 H480 0.931 . S
C465 C464 1.391 . S
C465 C469 1.376 . S
C466 C464 1.394 . S
C466 C467 1.369 . S
C466 C470 1.531 . S
C467 C466 1.369 . S
C467 C468 1.410 . S
C467 C475 1.503 . S
C468 C467 1.410 . S
C468 C469 1.392 . S
C468 C471 1.511 . S
C469 C465 1.376 . S
C469 C468 1.392 . S
C469 H481 0.929 . S
C470 C466 1.531 . S
C470 H482 0.960 . S
C470 H483 0.962 . S
C470 H484 0.960 . S
C471 C468 1.511 . S
C471 H485 0.961 . S
C471 H486 0.961 . S
C471 H487 0.961 . S
C472 C473 1.370 . S
C472 C474 1.363 . S
C472 H488 0.931 . S
C473 C472 1.370 . S
C473 C477 1.408 . S
C474 C472 1.363 . S
C474 C475 1.370 . S
C474 C478 1.524 . S
C475 C467 1.503 . S
C475 C474 1.370 . S
C475 C476 1.403 . S
C476 C475 1.403 . S
C476 C477 1.404 . S
C476 C479 1.539 . S
C477 C473 1.408 . S
C477 C476 1.404 . S
C477 H489 0.930 . S
C478 C474 1.524 . S
C478 H490 0.956 . S
C478 H491 0.961 . S
C478 H492 0.961 . S
C479 C476 1.539 . S
C479 H493 0.958 . S
C479 H494 0.961 . S
C479 H495 0.960 . S
H480 C464 0.931 . S
H481 C469 0.929 . S
H482 C470 0.960 . S
H483 C470 0.962 . S
H484 C470 0.960 . S
H485 C471 0.961 . S
H486 C471 0.961 . S
H487 C471 0.961 . S
H488 C472 0.931 . S
H489 C477 0.930 . S
H490 C478 0.956 . S
H491 C478 0.961 . S
H492 C478 0.961 . S
H493 C479 0.958 . S
H494 C479 0.961 . S
H495 C479 0.960 . S
C496 C497 1.391 . S
C496 C498 1.394 . S
C496 H512 0.931 . S
C497 C496 1.391 . S
C497 C501 1.376 . S
C498 C496 1.394 . S
C498 C499 1.369 . S
C498 C502 1.531 . S
C499 C498 1.369 . S
C499 C500 1.410 . S
C499 C507 1.503 . S
C500 C499 1.410 . S
C500 C501 1.392 . S
C500 C503 1.511 . S
C501 C497 1.376 . S
C501 C500 1.392 . S
C501 H513 0.929 . S
C502 C498 1.531 . S
C502 H514 0.960 . S
C502 H515 0.962 . S
C502 H516 0.960 . S
C503 C500 1.511 . S
C503 H517 0.961 . S
C503 H518 0.961 . S
C503 H519 0.961 . S
C504 C505 1.370 . S
C504 C506 1.363 . S
C504 H520 0.931 . S
C505 C504 1.370 . S
C505 C509 1.408 . S
C506 C504 1.363 . S
C506 C507 1.370 . S
C506 C510 1.524 . S
C507 C499 1.503 . S
C507 C506 1.370 . S
C507 C508 1.403 . S
C508 C507 1.403 . S
C508 C509 1.404 . S
C508 C511 1.539 . S
C509 C505 1.408 . S
C509 C508 1.404 . S
C509 H521 0.930 . S
C510 C506 1.524 . S
C510 H522 0.956 . S
C510 H523 0.961 . S
C510 H524 0.961 . S
C511 C508 1.539 . S
C511 H525 0.958 . S
C511 H526 0.961 . S
C511 H527 0.960 . S
H512 C496 0.931 . S
H513 C501 0.929 . S
H514 C502 0.960 . S
H515 C502 0.962 . S
H516 C502 0.960 . S
H517 C503 0.961 . S
H518 C503 0.961 . S
H519 C503 0.961 . S
H520 C504 0.931 . S
H521 C509 0.930 . S
H522 C510 0.956 . S
H523 C510 0.961 . S
H524 C510 0.961 . S
H525 C511 0.958 . S
H526 C511 0.961 . S
H527 C511 0.960 . S
C528 C529 1.391 . S
C528 C530 1.394 . S
C528 H544 0.931 . S
C529 C528 1.391 . S
C529 C533 1.376 . S
C530 C528 1.394 . S
C530 C531 1.369 . S
C530 C534 1.531 . S
C531 C530 1.369 . S
C531 C532 1.410 . S
C531 C539 1.503 . S
C532 C531 1.410 . S
C532 C533 1.392 . S
C532 C535 1.511 . S
C533 C529 1.376 . S
C533 C532 1.392 . S
C533 H545 0.929 . S
C534 C530 1.531 . S
C534 H546 0.960 . S
C534 H547 0.962 . S
C534 H548 0.960 . S
C535 C532 1.511 . S
C535 H549 0.961 . S
C535 H550 0.961 . S
C535 H551 0.961 . S
C536 C537 1.370 . S
C536 C538 1.363 . S
C536 H552 0.931 . S
C537 C536 1.370 . S
C537 C541 1.408 1_545 S
C538 C536 1.363 . S
C538 C539 1.370 1_545 S
C538 C542 1.524 . S
C539 C531 1.503 . S
C539 C538 1.370 1_565 S
C539 C540 1.403 . S
C540 C539 1.403 . S
C540 C541 1.404 . S
C540 C543 1.539 . S
C541 C537 1.408 1_565 S
C541 C540 1.404 . S
C541 H553 0.930 . S
C542 C538 1.524 . S
C542 H554 0.956 . S
C542 H555 0.961 . S
C542 H556 0.961 . S
C543 C540 1.539 . S
C543 H557 0.958 . S
C543 H558 0.961 . S
C543 H559 0.960 . S
H544 C528 0.931 . S
H545 C533 0.929 . S
H546 C534 0.960 . S
H547 C534 0.962 . S
H548 C534 0.960 . S
H549 C535 0.961 . S
H550 C535 0.961 . S
H551 C535 0.961 . S
H552 C536 0.931 . S
H553 C541 0.930 . S
H554 C542 0.956 . S
H555 C542 0.961 . S
H556 C542 0.961 . S
H557 C543 0.958 . S
H558 C543 0.961 . S
H559 C543 0.960 . S
C560 C561 1.391 . S
C560 C562 1.394 . S
C560 H576 0.931 . S
C561 C560 1.391 . S
C561 C565 1.376 . S
C562 C560 1.394 . S
C562 C563 1.369 . S
C562 C566 1.531 . S
C563 C562 1.369 . S
C563 C564 1.410 . S
C563 C571 1.503 . S
C564 C563 1.410 . S
C564 C565 1.392 . S
C564 C567 1.511 1_545 S
C565 C561 1.376 . S
C565 C564 1.392 . S
C565 H577 0.929 . S
C566 C562 1.531 . S
C566 H578 0.960 . S
C566 H579 0.962 . S
C566 H580 0.960 . S
C567 C564 1.511 1_565 S
C567 H581 0.961 . S
C567 H582 0.961 . S
C567 H583 0.961 . S
C568 C569 1.370 . S
C568 C570 1.347 1_565 S
C568 H584 0.931 . S
C569 C568 1.370 . S
C569 C573 1.408 . S
C570 C568 1.347 1_545 S
C570 C571 1.383 . S
C570 C574 1.529 . S
C571 C563 1.503 . S
C571 C570 1.383 . S
C571 C572 1.403 . S
C572 C571 1.403 . S
C572 C573 1.404 1_545 S
C572 C575 1.539 . S
C573 C569 1.408 . S
C573 C572 1.404 1_565 S
C573 H585 0.930 . S
C574 C570 1.529 . S
C574 H586 0.956 . S
C574 H587 0.961 . S
C574 H588 0.961 1_545 S
C575 C572 1.539 . S
C575 H589 0.958 . S
C575 H590 0.961 . S
C575 H591 0.960 . S
H576 C560 0.931 . S
H577 C565 0.929 . S
H578 C566 0.960 . S
H579 C566 0.962 . S
H580 C566 0.960 . S
H581 C567 0.961 . S
H582 C567 0.961 . S
H583 C567 0.961 . S
H584 C568 0.931 . S
H585 C573 0.930 . S
H586 C574 0.956 . S
H587 C574 0.961 . S
H588 C574 0.961 1_565 S
H589 C575 0.958 . S
H590 C575 0.961 . S
H591 C575 0.960 . S
C592 C593 1.391 . S
C592 C594 1.394 . S
C592 H608 0.931 . S
C593 C592 1.391 . S
C593 C597 1.376 . S
C594 C592 1.394 . S
C594 C595 1.369 . S
C594 C598 1.531 . S
C595 C594 1.369 . S
C595 C596 1.410 . S
C595 C603 1.503 . S
C596 C595 1.410 . S
C596 C597 1.392 . S
C596 C599 1.511 . S
C597 C593 1.376 . S
C597 C596 1.392 . S
C597 H609 0.929 . S
C598 C594 1.531 . S
C598 H610 0.960 . S
C598 H611 0.962 . S
C598 H612 0.960 . S
C599 C596 1.511 . S
C599 H613 0.961 . S
C599 H614 0.961 . S
C599 H615 0.961 . S
C600 C601 1.370 . S
C600 C602 1.363 . S
C600 H616 0.931 . S
C601 C600 1.370 . S
C601 C605 1.408 . S
C602 C600 1.363 . S
C602 C603 1.370 . S
C602 C606 1.524 . S
C603 C595 1.503 . S
C603 C602 1.370 . S
C603 C604 1.403 . S
C604 C603 1.403 . S
C604 C605 1.404 . S
C604 C607 1.539 . S
C605 C601 1.408 . S
C605 C604 1.404 . S
C605 H617 0.930 . S
C606 C602 1.524 . S
C606 H618 0.956 . S
C606 H619 0.961 . S
C606 H620 0.961 . S
C607 C604 1.539 . S
C607 H621 0.958 . S
C607 H622 0.961 . S
C607 H623 0.960 . S
H608 C592 0.931 . S
H609 C597 0.929 . S
H610 C598 0.960 . S
H611 C598 0.962 . S
H612 C598 0.960 . S
H613 C599 0.961 . S
H614 C599 0.961 . S
H615 C599 0.961 . S
H616 C600 0.931 . S
H617 C605 0.930 . S
H618 C606 0.956 . S
H619 C606 0.961 . S
H620 C606 0.961 . S
H621 C607 0.958 . S
H622 C607 0.961 . S
H623 C607 0.960 . S
C624 C625 1.391 . S
C624 C626 1.394 . S
C624 H640 0.931 . S
C625 C624 1.391 . S
C625 C629 1.376 . S
C626 C624 1.394 . S
C626 C627 1.369 . S
C626 C630 1.531 . S
C627 C626 1.369 . S
C627 C628 1.410 . S
C627 C635 1.503 . S
C628 C627 1.410 . S
C628 C629 1.392 . S
C628 C631 1.511 . S
C629 C625 1.376 . S
C629 C628 1.392 . S
C629 H641 0.929 . S
C630 C626 1.531 . S
C630 H642 0.960 . S
C630 H643 0.962 . S
C630 H644 0.960 . S
C631 C628 1.511 . S
C631 H645 0.961 . S
C631 H646 0.961 . S
C631 H647 0.961 . S
C632 C633 1.370 . S
C632 C634 1.363 . S
C632 H648 0.931 . S
C633 C632 1.370 . S
C633 C637 1.408 . S
C634 C632 1.363 . S
C634 C635 1.370 . S
C634 C638 1.524 . S
C635 C627 1.503 . S
C635 C634 1.370 . S
C635 C636 1.403 . S
C636 C635 1.403 . S
C636 C637 1.404 . S
C636 C639 1.539 . S
C637 C633 1.408 . S
C637 C636 1.404 . S
C637 H649 0.930 . S
C638 C634 1.524 . S
C638 H650 0.956 . S
C638 H651 0.961 . S
C638 H652 0.961 . S
C639 C636 1.539 . S
C639 H653 0.958 . S
C639 H654 0.961 . S
C639 H655 0.960 . S
H640 C624 0.931 . S
H641 C629 0.929 . S
H642 C630 0.960 . S
H643 C630 0.962 . S
H644 C630 0.960 . S
H645 C631 0.961 . S
H646 C631 0.961 . S
H647 C631 0.961 . S
H648 C632 0.931 . S
H649 C637 0.930 . S
H650 C638 0.956 . S
H651 C638 0.961 . S
H652 C638 0.961 . S
H653 C639 0.958 . S
H654 C639 0.961 . S
H655 C639 0.960 . S
C656 C657 1.391 . S
C656 C658 1.394 . S
C656 H672 0.931 . S
C657 C656 1.391 . S
C657 C661 1.376 . S
C658 C656 1.394 . S
C658 C659 1.369 . S
C658 C662 1.531 1_545 S
C659 C658 1.369 . S
C659 C660 1.410 . S
C659 C667 1.503 . S
C660 C659 1.410 . S
C660 C661 1.392 . S
C660 C663 1.511 . S
C661 C657 1.376 . S
C661 C660 1.392 . S
C661 H673 0.929 . S
C662 C658 1.531 1_565 S
C662 H674 0.960 . S
C662 H675 0.963 . S
C662 H676 0.960 . S
C663 C660 1.511 . S
C663 H677 0.961 . S
C663 H678 0.961 . S
C663 H679 0.961 . S
C664 C665 1.370 . S
C664 C666 1.363 1_565 S
C664 H680 0.931 . S
C665 C664 1.370 . S
C665 C669 1.408 . S
C666 C664 1.363 1_545 S
C666 C667 1.370 . S
C666 C670 1.524 . S
C667 C659 1.503 . S
C667 C666 1.370 . S
C667 C668 1.403 1_545 S
C668 C667 1.403 1_565 S
C668 C669 1.404 . S
C668 C671 1.539 . S
C669 C665 1.408 . S
C669 C668 1.404 . S
C669 H681 0.930 . S
C670 C666 1.524 . S
C670 H682 0.956 . S
C670 H683 0.961 . S
C670 H684 0.961 . S
C671 C668 1.539 . S
C671 H685 0.958 . S
C671 H686 0.961 . S
C671 H687 0.960 1_565 S
H672 C656 0.931 . S
H673 C661 0.929 . S
H674 C662 0.960 . S
H675 C662 0.963 . S
H676 C662 0.960 . S
H677 C663 0.961 . S
H678 C663 0.961 . S
H679 C663 0.961 . S
H680 C664 0.931 . S
H681 C669 0.930 . S
H682 C670 0.956 . S
H683 C670 0.961 . S
H684 C670 0.961 . S
H685 C671 0.958 . S
H686 C671 0.961 . S
H687 C671 0.960 1_545 S
C688 C689 1.391 . S
C688 C690 1.394 . S
C688 H704 0.931 . S
C689 C688 1.391 . S
C689 C693 1.376 . S
C690 C688 1.394 . S
C690 C691 1.369 1_556 S
C690 C694 1.531 . S
C691 C690 1.369 1_554 S
C691 C692 1.410 . S
C691 C699 1.503 . S
C692 C691 1.410 . S
C692 C693 1.392 1_554 S
C692 C695 1.511 . S
C693 C689 1.376 . S
C693 C692 1.392 1_556 S
C693 H705 0.929 . S
C694 C690 1.531 . S
C694 H706 0.960 1_556 S
C694 H707 0.962 . S
C694 H708 0.960 . S
C695 C692 1.511 . S
C695 H709 0.961 . S
C695 H710 0.961 . S
C695 H711 0.961 . S
C696 C697 1.370 . S
C696 C698 1.363 . S
C696 H712 0.931 . S
C697 C696 1.370 . S
C697 C701 1.408 . S
C698 C696 1.363 . S
C698 C699 1.370 . S
C698 C702 1.524 . S
C699 C691 1.503 . S
C699 C698 1.370 . S
C699 C700 1.403 . S
C700 C699 1.403 . S
C700 C701 1.404 . S
C700 C703 1.539 . S
C701 C697 1.408 . S
C701 C700 1.404 . S
C701 H713 0.930 . S
C702 C698 1.524 . S
C702 H714 0.956 . S
C702 H715 0.961 . S
C702 H716 0.961 . S
C703 C700 1.539 . S
C703 H717 0.958 . S
C703 H718 0.961 . S
C703 H719 0.960 . S
H704 C688 0.931 . S
H705 C693 0.929 . S
H706 C694 0.960 1_554 S
H707 C694 0.962 . S
H708 C694 0.960 . S
H709 C695 0.961 . S
H710 C695 0.961 . S
H711 C695 0.961 . S
H712 C696 0.931 . S
H713 C701 0.930 . S
H714 C702 0.956 . S
H715 C702 0.961 . S
H716 C702 0.961 . S
H717 C703 0.958 . S
H718 C703 0.961 . S
H719 C703 0.960 . S
C720 C721 1.391 . S
C720 C722 1.394 . S
C720 H736 0.931 . S
C721 C720 1.391 . S
C721 C725 1.376 . S
C722 C720 1.394 . S
C722 C723 1.369 . S
C722 C726 1.531 . S
C723 C722 1.369 . S
C723 C724 1.410 . S
C723 C731 1.503 . S
C724 C723 1.410 . S
C724 C725 1.392 . S
C724 C727 1.511 . S
C725 C721 1.376 . S
C725 C724 1.392 . S
C725 H737 0.929 . S
C726 C722 1.531 . S
C726 H738 0.960 . S
C726 H739 0.962 . S
C726 H740 0.960 . S
C727 C724 1.511 . S
C727 H741 0.961 . S
C727 H742 0.961 . S
C727 H743 0.961 . S
C728 C729 1.370 . S
C728 C730 1.363 . S
C728 H744 0.931 . S
C729 C728 1.370 . S
C729 C733 1.408 . S
C730 C728 1.363 . S
C730 C731 1.370 . S
C730 C734 1.524 . S
C731 C723 1.503 . S
C731 C730 1.370 . S
C731 C732 1.403 . S
C732 C731 1.403 . S
C732 C733 1.404 . S
C732 C735 1.539 . S
C733 C729 1.408 . S
C733 C732 1.404 . S
C733 H745 0.930 . S
C734 C730 1.524 . S
C734 H746 0.956 . S
C734 H747 0.961 . S
C734 H748 0.961 . S
C735 C732 1.539 . S
C735 H749 0.958 . S
C735 H750 0.961 . S
C735 H751 0.960 . S
H736 C720 0.931 . S
H737 C725 0.929 . S
H738 C726 0.960 . S
H739 C726 0.962 . S
H740 C726 0.960 . S
H741 C727 0.961 . S
H742 C727 0.961 . S
H743 C727 0.961 . S
H744 C728 0.931 . S
H745 C733 0.930 . S
H746 C734 0.956 . S
H747 C734 0.961 . S
H748 C734 0.961 . S
H749 C735 0.958 . S
H750 C735 0.961 . S
H751 C735 0.960 . S
C752 C753 1.391 . S
C752 C754 1.394 1_554 S
C752 H768 0.931 . S
C753 C752 1.391 . S
C753 C757 1.376 . S
C754 C752 1.394 1_556 S
C754 C755 1.369 . S
C754 C758 1.531 . S
C755 C754 1.369 . S
C755 C756 1.410 1_556 S
C755 C763 1.503 . S
C756 C755 1.410 1_554 S
C756 C757 1.392 . S
C756 C759 1.511 . S
C757 C753 1.376 . S
C757 C756 1.392 . S
C757 H769 0.929 . S
C758 C754 1.531 . S
C758 H770 0.960 . S
C758 H771 0.962 . S
C758 H772 0.960 . S
C759 C756 1.511 . S
C759 H773 0.961 . S
C759 H774 0.961 1_554 S
C759 H775 0.961 . S
C760 C761 1.370 . S
C760 C762 1.363 . S
C760 H776 0.931 . S
C761 C760 1.370 . S
C761 C765 1.408 . S
C762 C760 1.363 . S
C762 C763 1.370 . S
C762 C766 1.524 . S
C763 C755 1.503 . S
C763 C762 1.370 . S
C763 C764 1.403 . S
C764 C763 1.403 . S
C764 C765 1.404 . S
C764 C767 1.539 . S
C765 C761 1.408 . S
C765 C764 1.404 . S
C765 H777 0.930 . S
C766 C762 1.524 . S
C766 H778 0.956 . S
C766 H779 0.961 . S
C766 H780 0.961 . S
C767 C764 1.539 . S
C767 H781 0.958 . S
C767 H782 0.961 . S
C767 H783 0.960 . S
H768 C752 0.931 . S
H769 C757 0.929 . S
H770 C758 0.960 . S
H771 C758 0.962 . S
H772 C758 0.960 . S
H773 C759 0.961 . S
H774 C759 0.961 1_556 S
H775 C759 0.961 . S
H776 C760 0.931 . S
H777 C765 0.930 . S
H778 C766 0.956 . S
H779 C766 0.961 . S
H780 C766 0.961 . S
H781 C767 0.958 . S
H782 C767 0.961 . S
H783 C767 0.960 . S
C784 C785 1.391 . S
C784 C786 1.394 . S
C784 H800 0.931 . S
C785 C784 1.391 . S
C785 C789 1.376 . S
C786 C784 1.394 . S
C786 C787 1.369 . S
C786 C790 1.531 . S
C787 C786 1.369 . S
C787 C788 1.410 . S
C787 C795 1.503 . S
C788 C787 1.410 . S
C788 C789 1.392 . S
C788 C791 1.511 . S
C789 C785 1.376 . S
C789 C788 1.392 . S
C789 H801 0.929 . S
C790 C786 1.531 . S
C790 H802 0.960 . S
C790 H803 0.962 . S
C790 H804 0.960 . S
C791 C788 1.511 . S
C791 H805 0.961 . S
C791 H806 0.961 . S
C791 H807 0.961 . S
C792 C793 1.370 . S
C792 C794 1.363 . S
C792 H808 0.931 . S
C793 C792 1.370 . S
C793 C797 1.408 . S
C794 C792 1.363 . S
C794 C795 1.370 . S
C794 C798 1.524 . S
C795 C787 1.503 . S
C795 C794 1.370 . S
C795 C796 1.403 . S
C796 C795 1.403 . S
C796 C797 1.404 . S
C796 C799 1.539 . S
C797 C793 1.408 . S
C797 C796 1.404 . S
C797 H809 0.930 . S
C798 C794 1.524 . S
C798 H810 0.956 . S
C798 H811 0.961 . S
C798 H812 0.961 . S
C799 C796 1.539 . S
C799 H813 0.958 . S
C799 H814 0.961 . S
C799 H815 0.960 . S
H800 C784 0.931 . S
H801 C789 0.929 . S
H802 C790 0.960 . S
H803 C790 0.962 . S
H804 C790 0.960 . S
H805 C791 0.961 . S
H806 C791 0.961 . S
H807 C791 0.961 . S
H808 C792 0.931 . S
H809 C797 0.930 . S
H810 C798 0.956 . S
H811 C798 0.961 . S
H812 C798 0.961 . S
H813 C799 0.958 . S
H814 C799 0.961 . S
H815 C799 0.960 . S
C816 C817 1.391 . S
C816 C818 1.394 . S
C816 H832 0.931 . S
C817 C816 1.391 . S
C817 C821 1.376 . S
C818 C816 1.394 . S
C818 C819 1.369 1_554 S
C818 C822 1.531 . S
C819 C818 1.369 1_556 S
C819 C820 1.410 . S
C819 C827 1.503 . S
C820 C819 1.410 . S
C820 C821 1.392 1_556 S
C820 C823 1.511 . S
C821 C817 1.376 . S
C821 C820 1.392 1_554 S
C821 H833 0.929 . S
C822 C818 1.531 . S
C822 H834 0.960 1_554 S
C822 H835 0.962 . S
C822 H836 0.960 . S
C823 C820 1.511 . S
C823 H837 0.961 . S
C823 H838 0.961 . S
C823 H839 0.961 . S
C824 C825 1.370 . S
C824 C826 1.363 . S
C824 H840 0.931 . S
C825 C824 1.370 . S
C825 C829 1.408 . S
C826 C824 1.363 . S
C826 C827 1.370 . S
C826 C830 1.524 . S
C827 C819 1.503 . S
C827 C826 1.370 . S
C827 C828 1.403 . S
C828 C827 1.403 . S
C828 C829 1.404 . S
C828 C831 1.539 . S
C829 C825 1.408 . S
C829 C828 1.404 . S
C829 H841 0.930 . S
C830 C826 1.524 . S
C830 H842 0.956 . S
C830 H843 0.961 . S
C830 H844 0.961 . S
C831 C828 1.539 . S
C831 H845 0.958 . S
C831 H846 0.961 . S
C831 H847 0.960 . S
H832 C816 0.931 . S
H833 C821 0.929 . S
H834 C822 0.960 1_556 S
H835 C822 0.962 . S
H836 C822 0.960 . S
H837 C823 0.961 . S
H838 C823 0.961 . S
H839 C823 0.961 . S
H840 C824 0.931 . S
H841 C829 0.930 . S
H842 C830 0.956 . S
H843 C830 0.961 . S
H844 C830 0.961 . S
H845 C831 0.958 . S
H846 C831 0.961 . S
H847 C831 0.960 . S
C848 C849 1.391 . S
C848 C850 1.394 . S
C848 H864 0.931 . S
C849 C848 1.391 . S
C849 C853 1.376 . S
C850 C848 1.394 . S
C850 C851 1.369 . S
C850 C854 1.531 . S
C851 C850 1.369 . S
C851 C852 1.410 . S
C851 C859 1.503 . S
C852 C851 1.410 . S
C852 C853 1.392 . S
C852 C855 1.511 . S
C853 C849 1.376 . S
C853 C852 1.392 . S
C853 H865 0.929 . S
C854 C850 1.531 . S
C854 H866 0.960 . S
C854 H867 0.962 . S
C854 H868 0.960 . S
C855 C852 1.511 . S
C855 H869 0.961 . S
C855 H870 0.961 . S
C855 H871 0.961 . S
C856 C857 1.370 . S
C856 C858 1.363 . S
C856 H872 0.931 . S
C857 C856 1.370 . S
C857 C861 1.408 . S
C858 C856 1.363 . S
C858 C859 1.370 . S
C858 C862 1.524 . S
C859 C851 1.503 . S
C859 C858 1.370 . S
C859 C860 1.403 . S
C860 C859 1.403 . S
C860 C861 1.404 . S
C860 C863 1.539 . S
C861 C857 1.408 . S
C861 C860 1.404 . S
C861 H873 0.930 . S
C862 C858 1.524 . S
C862 H874 0.956 . S
C862 H875 0.961 . S
C862 H876 0.961 . S
C863 C860 1.539 . S
C863 H877 0.958 . S
C863 H878 0.961 . S
C863 H879 0.960 . S
H864 C848 0.931 . S
H865 C853 0.929 . S
H866 C854 0.960 . S
H867 C854 0.962 . S
H868 C854 0.960 . S
H869 C855 0.961 . S
H870 C855 0.961 . S
H871 C855 0.961 . S
H872 C856 0.931 . S
H873 C861 0.930 . S
H874 C862 0.956 . S
H875 C862 0.961 . S
H876 C862 0.961 . S
H877 C863 0.958 . S
H878 C863 0.961 . S
H879 C863 0.960 . S
C880 C881 1.391 . S
C880 C882 1.394 . S
C880 H896 0.931 . S
C881 C880 1.391 . S
C881 C885 1.376 . S
C882 C880 1.394 . S
C882 C883 1.369 1_556 S
C882 C886 1.531 . S
C883 C882 1.369 1_554 S
C883 C884 1.410 . S
C883 C891 1.503 . S
C884 C883 1.410 . S
C884 C885 1.392 1_554 S
C884 C887 1.511 . S
C885 C881 1.376 . S
C885 C884 1.392 1_556 S
C885 H897 0.929 . S
C886 C882 1.531 . S
C886 H898 0.960 1_556 S
C886 H899 0.962 . S
C886 H900 0.960 . S
C887 C884 1.511 . S
C887 H901 0.961 . S
C887 H902 0.961 . S
C887 H903 0.961 . S
C888 C889 1.370 . S
C888 C890 1.363 . S
C888 H904 0.931 . S
C889 C888 1.370 . S
C889 C893 1.408 . S
C890 C888 1.363 . S
C890 C891 1.370 . S
C890 C894 1.524 . S
C891 C883 1.503 . S
C891 C890 1.370 . S
C891 C892 1.403 . S
C892 C891 1.403 . S
C892 C893 1.404 . S
C892 C895 1.539 . S
C893 C889 1.408 . S
C893 C892 1.404 . S
C893 H905 0.930 . S
C894 C890 1.524 . S
C894 H906 0.956 . S
C894 H907 0.961 . S
C894 H908 0.961 . S
C895 C892 1.539 . S
C895 H909 0.958 . S
C895 H910 0.961 . S
C895 H911 0.960 . S
H896 C880 0.931 . S
H897 C885 0.929 . S
H898 C886 0.960 1_554 S
H899 C886 0.962 . S
H900 C886 0.960 . S
H901 C887 0.961 . S
H902 C887 0.961 . S
H903 C887 0.961 . S
H904 C888 0.931 . S
H905 C893 0.930 . S
H906 C894 0.956 . S
H907 C894 0.961 . S
H908 C894 0.961 . S
H909 C895 0.958 . S
H910 C895 0.961 . S
H911 C895 0.960 . S
C912 C913 1.391 . S
C912 C914 1.394 . S
C912 H928 0.931 . S
C913 C912 1.391 . S
C913 C917 1.376 . S
C914 C912 1.394 . S
C914 C915 1.369 . S
C914 C918 1.531 . S
C915 C914 1.369 . S
C915 C916 1.410 . S
C915 C923 1.503 . S
C916 C915 1.410 . S
C916 C917 1.392 . S
C916 C919 1.511 . S
C917 C913 1.376 . S
C917 C916 1.392 . S
C917 H929 0.929 . S
C918 C914 1.531 . S
C918 H930 0.960 . S
C918 H931 0.962 . S
C918 H932 0.960 . S
C919 C916 1.511 . S
C919 H933 0.961 . S
C919 H934 0.961 . S
C919 H935 0.961 . S
C920 C921 1.370 . S
C920 C922 1.363 . S
C920 H936 0.931 . S
C921 C920 1.370 . S
C921 C925 1.408 . S
C922 C920 1.363 . S
C922 C923 1.370 . S
C922 C926 1.524 . S
C923 C915 1.503 . S
C923 C922 1.370 . S
C923 C924 1.403 . S
C924 C923 1.403 . S
C924 C925 1.404 . S
C924 C927 1.539 . S
C925 C921 1.408 . S
C925 C924 1.404 . S
C925 H937 0.930 . S
C926 C922 1.524 . S
C926 H938 0.956 . S
C926 H939 0.961 . S
C926 H940 0.961 . S
C927 C924 1.539 . S
C927 H941 0.958 . S
C927 H942 0.961 . S
C927 H943 0.960 . S
H928 C912 0.931 . S
H929 C917 0.929 . S
H930 C918 0.960 . S
H931 C918 0.962 . S
H932 C918 0.960 . S
H933 C919 0.961 . S
H934 C919 0.961 . S
H935 C919 0.961 . S
H936 C920 0.931 . S
H937 C925 0.930 . S
H938 C926 0.956 . S
H939 C926 0.961 . S
H940 C926 0.961 . S
H941 C927 0.958 . S
H942 C927 0.961 . S
H943 C927 0.960 . S
C944 C945 1.391 . S
C944 C946 1.394 . S
C944 H960 0.931 . S
C945 C944 1.391 . S
C945 C949 1.376 . S
C946 C944 1.394 . S
C946 C947 1.369 . S
C946 C950 1.531 . S
C947 C946 1.369 . S
C947 C948 1.410 . S
C947 C955 1.503 . S
C948 C947 1.410 . S
C948 C949 1.392 . S
C948 C951 1.511 . S
C949 C945 1.376 . S
C949 C948 1.392 . S
C949 H961 0.929 . S
C950 C946 1.531 . S
C950 H962 0.960 . S
C950 H963 0.962 . S
C950 H964 0.960 . S
C951 C948 1.511 . S
C951 H965 0.961 . S
C951 H966 0.961 . S
C951 H967 0.961 . S
C952 C953 1.370 . S
C952 C954 1.363 . S
C952 H968 0.931 . S
C953 C952 1.370 . S
C953 C957 1.408 . S
C954 C952 1.363 . S
C954 C955 1.370 . S
C954 C958 1.524 . S
C955 C947 1.503 . S
C955 C954 1.370 . S
C955 C956 1.403 . S
C956 C955 1.403 . S
C956 C957 1.404 . S
C956 C959 1.539 . S
C957 C953 1.408 . S
C957 C956 1.404 . S
C957 H969 0.930 . S
C958 C954 1.524 . S
C958 H970 0.956 . S
C958 H971 0.961 . S
C958 H972 0.961 . S
C959 C956 1.539 . S
C959 H973 0.958 . S
C959 H974 0.961 . S
C959 H975 0.960 . S
H960 C944 0.931 . S
H961 C949 0.929 . S
H962 C950 0.960 . S
H963 C950 0.962 . S
H964 C950 0.960 . S
H965 C951 0.961 . S
H966 C951 0.961 . S
H967 C951 0.961 . S
H968 C952 0.931 . S
H969 C957 0.930 . S
H970 C958 0.956 . S
H971 C958 0.961 . S
H972 C958 0.961 . S
H973 C959 0.958 . S
H974 C959 0.961 . S
H975 C959 0.960 . S
C976 C977 1.391 . S
C976 C978 1.394 . S
C976 H992 0.931 . S
C977 C976 1.391 . S
C977 C981 1.376 . S
C978 C976 1.394 . S
C978 C979 1.369 . S
C978 C982 1.531 . S
C979 C978 1.369 . S
C979 C980 1.410 . S
C979 C987 1.503 . S
C980 C979 1.410 . S
C980 C981 1.392 . S
C980 C983 1.511 . S
C981 C977 1.376 . S
C981 C980 1.392 . S
C981 H993 0.929 . S
C982 C978 1.531 . S
C982 H994 0.960 . S
C982 H995 0.962 . S
C982 H996 0.960 . S
C983 C980 1.511 . S
C983 H997 0.961 . S
C983 H998 0.961 . S
C983 H999 0.961 . S
C984 C985 1.370 . S
C984 C986 1.363 . S
C984 H1000 0.931 . S
C985 C984 1.370 . S
C985 C989 1.408 . S
C986 C984 1.363 . S
C986 C987 1.370 . S
C986 C990 1.524 . S
C987 C979 1.503 . S
C987 C986 1.370 . S
C987 C988 1.403 . S
C988 C987 1.403 . S
C988 C989 1.404 . S
C988 C991 1.539 . S
C989 C985 1.408 . S
C989 C988 1.404 . S
C989 H1001 0.930 . S
C990 C986 1.524 . S
C990 H1002 0.956 . S
C990 H1003 0.961 . S
C990 H1004 0.961 . S
C991 C988 1.539 . S
C991 H1005 0.958 . S
C991 H1006 0.961 . S
C991 H1007 0.960 . S
H992 C976 0.931 . S
H993 C981 0.929 . S
H994 C982 0.960 . S
H995 C982 0.962 . S
H996 C982 0.960 . S
H997 C983 0.961 . S
H998 C983 0.961 . S
H999 C983 0.961 . S
H1000 C984 0.931 . S
H1001 C989 0.930 . S
H1002 C990 0.956 . S
H1003 C990 0.961 . S
H1004 C990 0.961 . S
H1005 C991 0.958 . S
H1006 C991 0.961 . S
H1007 C991 0.960 . S
C1008 C1009 1.391 . S
C1008 C1010 1.394 . S
C1008 H1024 0.931 . S
C1009 C1008 1.391 . S
C1009 C1013 1.376 . S
C1010 C1008 1.394 . S
C1010 C1011 1.369 . S
C1010 C1014 1.531 . S
C1011 C1010 1.369 . S
C1011 C1012 1.410 . S
C1011 C1019 1.503 . S
C1012 C1011 1.410 . S
C1012 C1013 1.392 . S
C1012 C1015 1.511 . S
C1013 C1009 1.376 . S
C1013 C1012 1.392 . S
C1013 H1025 0.929 . S
C1014 C1010 1.531 . S
C1014 H1026 0.960 . S
C1014 H1027 0.962 . S
C1014 H1028 0.960 . S
C1015 C1012 1.511 . S
C1015 H1029 0.961 . S
C1015 H1030 0.961 . S
C1015 H1031 0.961 . S
C1016 C1017 1.370 . S
C1016 C1018 1.363 . S
C1016 H1032 0.931 . S
C1017 C1016 1.370 . S
C1017 C1021 1.408 . S
C1018 C1016 1.363 . S
C1018 C1019 1.370 . S
C1018 C1022 1.524 . S
C1019 C1011 1.503 . S
C1019 C1018 1.370 . S
C1019 C1020 1.403 . S
C1020 C1019 1.403 . S
C1020 C1021 1.404 . S
C1020 C1023 1.539 . S
C1021 C1017 1.408 . S
C1021 C1020 1.404 . S
C1021 H1033 0.930 . S
C1022 C1018 1.524 . S
C1022 H1034 0.956 . S
C1022 H1035 0.961 . S
C1022 H1036 0.961 . S
C1023 C1020 1.539 . S
C1023 H1037 0.958 . S
C1023 H1038 0.961 . S
C1023 H1039 0.960 . S
H1024 C1008 0.931 . S
H1025 C1013 0.929 . S
H1026 C1014 0.960 . S
H1027 C1014 0.962 . S
H1028 C1014 0.960 . S
H1029 C1015 0.961 . S
H1030 C1015 0.961 . S
H1031 C1015 0.961 . S
H1032 C1016 0.931 . S
H1033 C1021 0.930 . S
H1034 C1022 0.956 . S
H1035 C1022 0.961 . S
H1036 C1022 0.961 . S
H1037 C1023 0.958 . S
H1038 C1023 0.961 . S
H1039 C1023 0.960 . S
C1040 C1041 1.391 . S
C1040 C1042 1.394 . S
C1040 H1056 0.931 . S
C1041 C1040 1.391 . S
C1041 C1045 1.376 . S
C1042 C1040 1.394 . S
C1042 C1043 1.369 . S
C1042 C1046 1.531 . S
C1043 C1042 1.369 . S
C1043 C1044 1.410 . S
C1043 C1051 1.503 . S
C1044 C1043 1.410 . S
C1044 C1045 1.392 . S
C1044 C1047 1.511 . S
C1045 C1041 1.376 . S
C1045 C1044 1.392 . S
C1045 H1057 0.929 . S
C1046 C1042 1.531 . S
C1046 H1058 0.960 . S
C1046 H1059 0.962 . S
C1046 H1060 0.960 . S
C1047 C1044 1.511 . S
C1047 H1061 0.961 . S
C1047 H1062 0.961 . S
C1047 H1063 0.961 . S
C1048 C1049 1.370 . S
C1048 C1050 1.363 . S
C1048 H1064 0.931 . S
C1049 C1048 1.370 . S
C1049 C1053 1.408 . S
C1050 C1048 1.363 . S
C1050 C1051 1.370 . S
C1050 C1054 1.524 . S
C1051 C1043 1.503 . S
C1051 C1050 1.370 . S
C1051 C1052 1.403 . S
C1052 C1051 1.403 . S
C1052 C1053 1.404 . S
C1052 C1055 1.539 . S
C1053 C1049 1.408 . S
C1053 C1052 1.404 . S
C1053 H1065 0.930 . S
C1054 C1050 1.524 . S
C1054 H1066 0.956 . S
C1054 H1067 0.961 . S
C1054 H1068 0.961 . S
C1055 C1052 1.539 . S
C1055 H1069 0.958 . S
C1055 H1070 0.961 . S
C1055 H1071 0.960 . S
H1056 C1040 0.931 . S
H1057 C1045 0.929 . S
H1058 C1046 0.960 . S
H1059 C1046 0.962 . S
H1060 C1046 0.960 . S
H1061 C1047 0.961 . S
H1062 C1047 0.961 . S
H1063 C1047 0.961 . S
H1064 C1048 0.931 . S
H1065 C1053 0.930 . S
H1066 C1054 0.956 . S
H1067 C1054 0.961 . S
H1068 C1054 0.961 . S
H1069 C1055 0.958 . S
H1070 C1055 0.961 . S
H1071 C1055 0.960 . S
C1072 C1073 1.391 . S
C1072 C1074 1.394 . S
C1072 H1088 0.931 . S
C1073 C1072 1.391 . S
C1073 C1077 1.376 . S
C1074 C1072 1.394 . S
C1074 C1075 1.369 . S
C1074 C1078 1.531 . S
C1075 C1074 1.369 . S
C1075 C1076 1.410 . S
C1075 C1083 1.503 . S
C1076 C1075 1.410 . S
C1076 C1077 1.392 . S
C1076 C1079 1.511 . S
C1077 C1073 1.376 . S
C1077 C1076 1.392 . S
C1077 H1089 0.929 . S
C1078 C1074 1.531 . S
C1078 H1090 0.960 . S
C1078 H1091 0.962 . S
C1078 H1092 0.960 . S
C1079 C1076 1.511 . S
C1079 H1093 0.961 . S
C1079 H1094 0.961 . S
C1079 H1095 0.961 . S
C1080 C1081 1.370 . S
C1080 C1082 1.363 . S
C1080 H1096 0.931 . S
C1081 C1080 1.370 . S
C1081 C1085 1.408 . S
C1082 C1080 1.363 . S
C1082 C1083 1.370 . S
C1082 C1086 1.524 . S
C1083 C1075 1.503 . S
C1083 C1082 1.370 . S
C1083 C1084 1.403 . S
C1084 C1083 1.403 . S
C1084 C1085 1.404 . S
C1084 C1087 1.539 . S
C1085 C1081 1.408 . S
C1085 C1084 1.404 . S
C1085 H1097 0.930 1_655 S
C1086 C1082 1.524 . S
C1086 H1098 0.956 . S
C1086 H1099 0.961 . S
C1086 H1100 0.961 . S
C1087 C1084 1.539 . S
C1087 H1101 0.958 . S
C1087 H1102 0.961 1_655 S
C1087 H1103 0.960 . S
H1088 C1072 0.931 . S
H1089 C1077 0.929 . S
H1090 C1078 0.960 . S
H1091 C1078 0.962 . S
H1092 C1078 0.960 . S
H1093 C1079 0.961 . S
H1094 C1079 0.961 . S
H1095 C1079 0.961 . S
H1096 C1080 0.931 . S
H1097 C1085 0.930 1_455 S
H1098 C1086 0.956 . S
H1099 C1086 0.961 . S
H1100 C1086 0.961 . S
H1101 C1087 0.958 . S
H1102 C1087 0.961 1_455 S
H1103 C1087 0.960 . S
C1104 C1105 1.391 . S
C1104 C1106 1.394 . S
C1104 H1120 0.931 . S
C1105 C1104 1.391 . S
C1105 C1109 1.376 . S
C1106 C1104 1.394 . S
C1106 C1107 1.369 . S
C1106 C1110 1.531 . S
C1107 C1106 1.369 . S
C1107 C1108 1.410 . S
C1107 C1115 1.503 . S
C1108 C1107 1.410 . S
C1108 C1109 1.392 . S
C1108 C1111 1.511 . S
C1109 C1105 1.376 . S
C1109 C1108 1.392 . S
C1109 H1121 0.929 . S
C1110 C1106 1.531 . S
C1110 H1122 0.960 . S
C1110 H1123 0.962 . S
C1110 H1124 0.960 . S
C1111 C1108 1.511 . S
C1111 H1125 0.961 . S
C1111 H1126 0.961 . S
C1111 H1127 0.961 . S
C1112 C1113 1.370 . S
C1112 C1114 1.363 . S
C1112 H1128 0.931 . S
C1113 C1112 1.370 . S
C1113 C1117 1.408 . S
C1114 C1112 1.363 . S
C1114 C1115 1.370 . S
C1114 C1118 1.524 . S
C1115 C1107 1.503 . S
C1115 C1114 1.370 . S
C1115 C1116 1.403 . S
C1116 C1115 1.403 . S
C1116 C1117 1.404 . S
C1116 C1119 1.539 . S
C1117 C1113 1.408 . S
C1117 C1116 1.404 . S
C1117 H1129 0.930 . S
C1118 C1114 1.524 . S
C1118 H1130 0.956 . S
C1118 H1131 0.961 . S
C1118 H1132 0.961 . S
C1119 C1116 1.539 . S
C1119 H1133 0.958 . S
C1119 H1134 0.961 . S
C1119 H1135 0.960 . S
H1120 C1104 0.931 . S
H1121 C1109 0.929 . S
H1122 C1110 0.960 . S
H1123 C1110 0.962 . S
H1124 C1110 0.960 . S
H1125 C1111 0.961 . S
H1126 C1111 0.961 . S
H1127 C1111 0.961 . S
H1128 C1112 0.931 . S
H1129 C1117 0.930 . S
H1130 C1118 0.956 . S
H1131 C1118 0.961 . S
H1132 C1118 0.961 . S
H1133 C1119 0.958 . S
H1134 C1119 0.961 . S
H1135 C1119 0.960 . S
C1136 C1137 1.391 . S
C1136 C1138 1.394 . S
C1136 H1152 0.931 . S
C1137 C1136 1.391 . S
C1137 C1141 1.376 . S
C1138 C1136 1.394 . S
C1138 C1139 1.369 . S
C1138 C1142 1.531 . S
C1139 C1138 1.369 . S
C1139 C1140 1.410 . S
C1139 C1147 1.503 . S
C1140 C1139 1.410 . S
C1140 C1141 1.392 . S
C1140 C1143 1.511 . S
C1141 C1137 1.376 . S
C1141 C1140 1.392 . S
C1141 H1153 0.929 . S
C1142 C1138 1.531 . S
C1142 H1154 0.960 . S
C1142 H1155 0.962 . S
C1142 H1156 0.960 . S
C1143 C1140 1.511 . S
C1143 H1157 0.961 . S
C1143 H1158 0.961 . S
C1143 H1159 0.961 . S
C1144 C1145 1.370 . S
C1144 C1146 1.363 . S
C1144 H1160 0.931 . S
C1145 C1144 1.370 . S
C1145 C1149 1.408 . S
C1146 C1144 1.363 . S
C1146 C1147 1.370 . S
C1146 C1150 1.524 . S
C1147 C1139 1.503 . S
C1147 C1146 1.370 . S
C1147 C1148 1.403 . S
C1148 C1147 1.403 . S
C1148 C1149 1.404 . S
C1148 C1151 1.539 . S
C1149 C1145 1.408 . S
C1149 C1148 1.404 . S
C1149 H1161 0.930 . S
C1150 C1146 1.524 . S
C1150 H1162 0.956 . S
C1150 H1163 0.961 . S
C1150 H1164 0.961 . S
C1151 C1148 1.539 . S
C1151 H1165 0.958 . S
C1151 H1166 0.961 . S
C1151 H1167 0.960 . S
H1152 C1136 0.931 . S
H1153 C1141 0.929 . S
H1154 C1142 0.960 . S
H1155 C1142 0.962 . S
H1156 C1142 0.960 . S
H1157 C1143 0.961 . S
H1158 C1143 0.961 . S
H1159 C1143 0.961 . S
H1160 C1144 0.931 . S
H1161 C1149 0.930 . S
H1162 C1150 0.956 . S
H1163 C1150 0.961 . S
H1164 C1150 0.961 . S
H1165 C1151 0.958 . S
H1166 C1151 0.961 . S
H1167 C1151 0.960 . S
C1168 C1169 1.391 . S
C1168 C1170 1.394 . S
C1168 H1184 0.931 . S
C1169 C1168 1.391 . S
C1169 C1173 1.376 . S
C1170 C1168 1.394 . S
C1170 C1171 1.369 . S
C1170 C1174 1.531 . S
C1171 C1170 1.369 . S
C1171 C1172 1.410 . S
C1171 C1179 1.503 . S
C1172 C1171 1.410 . S
C1172 C1173 1.392 . S
C1172 C1175 1.511 . S
C1173 C1169 1.376 . S
C1173 C1172 1.392 . S
C1173 H1185 0.929 . S
C1174 C1170 1.531 . S
C1174 H1186 0.960 . S
C1174 H1187 0.962 . S
C1174 H1188 0.960 . S
C1175 C1172 1.511 . S
C1175 H1189 0.961 . S
C1175 H1190 0.961 . S
C1175 H1191 0.961 . S
C1176 C1177 1.370 . S
C1176 C1178 1.363 . S
C1176 H1192 0.931 . S
C1177 C1176 1.370 . S
C1177 C1181 1.408 . S
C1178 C1176 1.363 . S
C1178 C1179 1.370 . S
C1178 C1182 1.524 . S
C1179 C1171 1.503 . S
C1179 C1178 1.370 . S
C1179 C1180 1.403 . S
C1180 C1179 1.403 . S
C1180 C1181 1.404 . S
C1180 C1183 1.539 . S
C1181 C1177 1.408 . S
C1181 C1180 1.404 . S
C1181 H1193 0.930 . S
C1182 C1178 1.524 . S
C1182 H1194 0.956 . S
C1182 H1195 0.961 . S
C1182 H1196 0.961 . S
C1183 C1180 1.539 . S
C1183 H1197 0.958 . S
C1183 H1198 0.961 . S
C1183 H1199 0.960 . S
H1184 C1168 0.931 . S
H1185 C1173 0.929 . S
H1186 C1174 0.960 . S
H1187 C1174 0.962 . S
H1188 C1174 0.960 . S
H1189 C1175 0.961 . S
H1190 C1175 0.961 . S
H1191 C1175 0.961 . S
H1192 C1176 0.931 . S
H1193 C1181 0.930 . S
H1194 C1182 0.956 . S
H1195 C1182 0.961 . S
H1196 C1182 0.961 . S
H1197 C1183 0.958 . S
H1198 C1183 0.961 . S
H1199 C1183 0.960 . S
C433 C81 1.685 . S
C441 C152 1.666 . S
C473 C236 1.670 . S
C465 C93 1.680 . S
C505 C235 1.678 . S
C497 C57 1.668 . S
C529 C69 1.673 . S
C537 C151 1.679 . S
C569 C332 1.661 . S
C561 C33 1.685 . S
C601 C416 1.674 . S
C593 C45 1.669 . S
C625 C9 1.670 . S
C633 C415 1.671 . S
C657 C21 1.663 . S
C665 C331 1.673 . S
C697 C154 1.433 . S
C689 C18 1.612 . S
C729 C238 1.434 . S
C721 C6 1.619 . S
C761 C250 1.407 . S
C753 C42 1.604 . S
C793 C166 1.402 . S
C785 C30 1.606 . S
C825 C334 1.450 . S
C817 C66 1.621 . S
C849 C54 1.606 . S
C857 C418 1.462 . S
C889 C406 1.378 . S
C881 C90 1.626 . S
C913 C78 1.626 . S
C921 C322 1.378 . S
C953 C163 1.541 . S
C945 C4 1.513 . S
C985 C247 1.541 . S
C977 C16 1.520 . S
C1009 C28 1.500 . S
C1017 C248 1.502 . S
C1049 C164 1.499 . S
C1041 C40 1.498 . S
C1081 C319 1.541 . S
C1073 C52 1.522 . S
C1105 C64 1.513 . S
C1113 C403 1.541 . S
C1137 C76 1.502 . S
C1145 C404 1.507 . S
C1169 C88 1.529 . S
C1177 C320 1.517 . S
