# Generated by pormake.
# Topology dag, (6,3)-cn, num edge types: 1
# Building blocks:
#     Node 0, Type 0, BuildingBlock: OJICUG_clean_sbu_0, # of connection points: 6
#     Node 1, Type 0, BuildingBlock: OJICUG_clean_sbu_0, # of connection points: 6
#     Node 2, Type 0, BuildingBlock: OJICUG_clean_sbu_0, # of connection points: 6
#     Node 3, Type 0, BuildingBlock: OJICUG_clean_sbu_0, # of connection points: 6
#     Node 4, Type 1, BuildingBlock: INOVEN_clean_linker_0, # of connection points: 3
#     Node 5, Type 1, BuildingBlock: INOVEN_clean_linker_0, # of connection points: 3
#     Node 6, Type 1, BuildingBlock: INOVEN_clean_linker_0, # of connection points: 3
#     Node 7, Type 1, BuildingBlock: INOVEN_clean_linker_0, # of connection points: 3
#     Node 8, Type 1, BuildingBlock: INOVEN_clean_linker_0, # of connection points: 3
#     Node 9, Type 1, BuildingBlock: INOVEN_clean_linker_0, # of connection points: 3
#     Node 10, Type 1, BuildingBlock: INOVEN_clean_linker_0, # of connection points: 3
#     Node 11, Type 1, BuildingBlock: INOVEN_clean_linker_0, # of connection points: 3
#     Edge 12, Type (0, 1), BuildingBlock: CIFDUS_clean_linker_0, # of connection points: 2
#     Edge 13, Type (0, 1), BuildingBlock: CIFDUS_clean_linker_0, # of connection points: 2
#     Edge 14, Type (0, 1), BuildingBlock: CIFDUS_clean_linker_0, # of connection points: 2
#     Edge 15, Type (0, 1), BuildingBlock: CIFDUS_clean_linker_0, # of connection points: 2
#     Edge 16, Type (0, 1), BuildingBlock: CIFDUS_clean_linker_0, # of connection points: 2
#     Edge 17, Type (0, 1), BuildingBlock: CIFDUS_clean_linker_0, # of connection points: 2
#     Edge 18, Type (0, 1), BuildingBlock: CIFDUS_clean_linker_0, # of connection points: 2
#     Edge 19, Type (0, 1), BuildingBlock: CIFDUS_clean_linker_0, # of connection points: 2
#     Edge 20, Type (0, 1), BuildingBlock: CIFDUS_clean_linker_0, # of connection points: 2
#     Edge 21, Type (0, 1), BuildingBlock: CIFDUS_clean_linker_0, # of connection points: 2
#     Edge 22, Type (0, 1), BuildingBlock: CIFDUS_clean_linker_0, # of connection points: 2
#     Edge 23, Type (0, 1), BuildingBlock: CIFDUS_clean_linker_0, # of connection points: 2
#     Edge 24, Type (0, 1), BuildingBlock: CIFDUS_clean_linker_0, # of connection points: 2
#     Edge 25, Type (0, 1), BuildingBlock: CIFDUS_clean_linker_0, # of connection points: 2
#     Edge 26, Type (0, 1), BuildingBlock: CIFDUS_clean_linker_0, # of connection points: 2
#     Edge 27, Type (0, 1), BuildingBlock: CIFDUS_clean_linker_0, # of connection points: 2
#     Edge 28, Type (0, 1), BuildingBlock: CIFDUS_clean_linker_0, # of connection points: 2
#     Edge 29, Type (0, 1), BuildingBlock: CIFDUS_clean_linker_0, # of connection points: 2
#     Edge 30, Type (0, 1), BuildingBlock: CIFDUS_clean_linker_0, # of connection points: 2
#     Edge 31, Type (0, 1), BuildingBlock: CIFDUS_clean_linker_0, # of connection points: 2
#     Edge 32, Type (0, 1), BuildingBlock: CIFDUS_clean_linker_0, # of connection points: 2
#     Edge 33, Type (0, 1), BuildingBlock: CIFDUS_clean_linker_0, # of connection points: 2
#     Edge 34, Type (0, 1), BuildingBlock: CIFDUS_clean_linker_0, # of connection points: 2
#     Edge 35, Type (0, 1), BuildingBlock: CIFDUS_clean_linker_0, # of connection points: 2
# Relax obj value: 0.099
# Max RMSD: 0.117
# Mean RMSD: 0.099
data_MOF--net-dag--node1-OJICUG_clean_sbu_0--node2-INOVEN_clean_linker_0--edge1-CIFDUS_clean_linker_0
_symmetry_space_group_name_H-M    P1
_symmetry_Int_Tables_number       1
_symmetry_cell_setting            triclinic
loop_
_symmetry_equiv_pos_as_xyz
'x, y, z'
_cell_length_a     31.865386
_cell_length_b     34.378604
_cell_length_c     33.995601
_cell_angle_alpha  93.942728
_cell_angle_beta   90.035206
_cell_angle_gamma 89.77801
loop_
_atom_site_label
_atom_site_type_symbol
_atom_site_fract_x
_atom_site_fract_y
_atom_site_fract_z
_atom_type_partial_charge
Sc0 Sc 0.11318 0.87909 0.0228 0.0
Sc1 Sc 0.12505 0.7797 0.03886 0.0
Sc2 Sc 0.20507 0.84838 0.06734 0.0
O3 O 0.14781 0.83556 0.04309 0.0
C4 C 0.20412 0.90685 0.99886 0.0
C5 C 0.09345 0.812 0.95723 0.0
C6 C 0.22079 0.7709 0.01085 0.0
C7 C 0.04447 0.82835 0.06526 0.0
C8 C 0.14818 0.91782 0.10453 0.0
C9 C 0.17368 0.78194 0.12156 0.0
O10 O 0.16471 0.90513 0.99385 0.0
O11 O 0.09853 0.78428 0.97987 0.0
O12 O 0.23351 0.80213 0.0296 0.0
O13 O 0.05748 0.85867 0.04982 0.0
O14 O 0.18045 0.89598 0.1066 0.0
O15 O 0.14714 0.76652 0.09727 0.0
O16 O 0.12262 0.91506 0.0758 0.0
O17 O 0.06545 0.7968 0.06533 0.0
O18 O 0.19577 0.81103 0.11399 0.0
O19 O 0.10015 0.84738 0.96819 0.0
O20 O 0.22301 0.88862 0.0248 0.0
O21 O 0.18293 0.75904 0.01187 0.0
Sc22 Sc 0.69236 0.6525 0.45869 0.0
Sc23 Sc 0.61798 0.72319 0.49399 0.0
Sc24 Sc 0.59978 0.62392 0.50421 0.0
O25 O 0.6367 0.6665 0.48541 0.0
C26 C 0.63125 0.58681 0.42044 0.0
C27 C 0.6635 0.72372 0.4102 0.0
C28 C 0.53347 0.6823 0.46744 0.0
C29 C 0.71419 0.7248 0.51996 0.0
C30 C 0.69075 0.59114 0.5244 0.0
C31 C 0.5857 0.68818 0.57348 0.0
O32 O 0.6649 0.6067 0.42022 0.0
O33 O 0.6415 0.73971 0.43798 0.0
O34 O 0.54353 0.65085 0.48287 0.0
O35 O 0.72464 0.69628 0.49593 0.0
O36 O 0.65116 0.59247 0.52861 0.0
O37 O 0.59026 0.71624 0.5514 0.0
O38 O 0.71019 0.61114 0.50033 0.0
O39 O 0.67663 0.73765 0.52327 0.0
O40 O 0.59205 0.65288 0.56156 0.0
O41 O 0.68209 0.69134 0.41291 0.0
O42 O 0.60449 0.59046 0.4483 0.0
O43 O 0.55826 0.71107 0.46549 0.0
Sc44 Sc 0.87043 0.24042 0.00748 0.0
Sc45 Sc 0.79856 0.16723 0.97459 0.0
Sc46 Sc 0.88933 0.14374 0.02562 0.0
O47 O 0.85251 0.18372 0.00227 0.0
C48 C 0.95651 0.20108 0.98949 0.0
C49 C 0.82801 0.23499 0.9223 0.0
C50 C 0.86492 0.10171 0.94319 0.0
C51 C 0.77386 0.24445 0.02883 0.0
C52 C 0.898 0.21027 0.09065 0.0
C53 C 0.79857 0.1083 0.0419 0.0
O54 O 0.93012 0.22686 0.98065 0.0
O55 O 0.81118 0.20205 0.92593 0.0
O56 O 0.89158 0.10948 0.9705 0.0
O57 O 0.81134 0.25658 0.03398 0.0
O58 O 0.88787 0.17518 0.08185 0.0
O59 O 0.77868 0.1292 0.01878 0.0
O60 O 0.89815 0.23605 0.06552 0.0
O61 O 0.76436 0.21428 0.00654 0.0
O62 O 0.83815 0.10962 0.04576 0.0
O63 O 0.84742 0.25347 0.95027 0.0
O64 O 0.94679 0.17232 0.00934 0.0
O65 O 0.8292 0.11858 0.94175 0.0
Sc66 Sc 0.40622 0.35369 0.52654 0.0
Sc67 Sc 0.31074 0.33383 0.57201 0.0
Sc68 Sc 0.38518 0.25799 0.54985 0.0
O69 O 0.36729 0.31507 0.54958 0.0
C70 C 0.41186 0.28158 0.46401 0.0
C71 C 0.3175 0.38639 0.49925 0.0
C72 C 0.2881 0.25207 0.52699 0.0
C73 C 0.37472 0.39964 0.6055 0.0
C74 C 0.47276 0.29828 0.56581 0.0
C75 C 0.34032 0.27241 0.63328 0.0
O76 O 0.41167 0.31795 0.47327 0.0
O77 O 0.29535 0.36965 0.52404 0.0
O78 O 0.32503 0.2384 0.5292 0.0
O79 O 0.4025 0.39161 0.57925 0.0
O80 O 0.44765 0.27063 0.57108 0.0
O81 O 0.31822 0.30084 0.62298 0.0
O82 O 0.46214 0.32879 0.54936 0.0
O83 O 0.3391 0.38285 0.60582 0.0
O84 O 0.36629 0.25419 0.61029 0.0
O85 O 0.35713 0.38386 0.49827 0.0
O86 O 0.40577 0.25575 0.48854 0.0
O87 O 0.27796 0.28641 0.54022 0.0
H88 H 0.07687 0.21257 0.28277 0.0
H89 H 0.08197 0.12184 0.18978 0.0
H90 H 0.15197 0.10984 0.29671 0.0
N91 N 0.12784 0.18055 0.33122 0.0
N92 N 0.14954 0.16323 0.35502 0.0
C93 C 0.08853 0.18437 0.27127 0.0
C94 C 0.07667 0.1696 0.23373 0.0
C95 C 0.11566 0.16318 0.29408 0.0
C96 C 0.13098 0.12649 0.27918 0.0
C97 C 0.11852 0.11117 0.24159 0.0
C98 C 0.0916 0.13317 0.21896 0.0
H99 H 0.35701 0.59236 0.79621 0.0
H100 H 0.45734 0.59135 0.71157 0.0
H101 H 0.4451 0.68752 0.79796 0.0
N102 N 0.37556 0.65952 0.8334 0.0
N103 N 0.38602 0.6912 0.85064 0.0
C104 C 0.38448 0.60573 0.78417 0.0
C105 C 0.40585 0.5869 0.75212 0.0
C106 C 0.39848 0.6418 0.80111 0.0
C107 C 0.43417 0.65952 0.78553 0.0
C108 C 0.45579 0.64068 0.75371 0.0
C109 C 0.44134 0.6048 0.73721 0.0
H110 H 0.7125 0.90936 0.18215 0.0
H111 H 0.81787 0.91232 0.10356 0.0
H112 H 0.79108 0.80766 0.15997 0.0
N113 N 0.72514 0.83666 0.20233 0.0
N114 N 0.73026 0.80115 0.20631 0.0
C115 C 0.73796 0.89447 0.16618 0.0
C116 C 0.76288 0.91469 0.14038 0.0
C117 C 0.74725 0.8554 0.17272 0.0
C118 C 0.78199 0.83695 0.15349 0.0
C119 C 0.80773 0.85758 0.12905 0.0
C120 C 0.79736 0.896 0.12182 0.0
H121 H 0.78527 0.40832 0.68496 0.0
H122 H 0.69717 0.40041 0.58926 0.0
H123 H 0.72171 0.29997 0.65388 0.0
N124 N 0.7763 0.33529 0.70513 0.0
N125 N 0.77275 0.29983 0.71003 0.0
C126 C 0.76456 0.39096 0.66558 0.0
C127 C 0.74357 0.40809 0.63484 0.0
C128 C 0.7576 0.35158 0.67206 0.0
C129 C 0.72867 0.32987 0.64812 0.0
C130 C 0.70655 0.34728 0.61832 0.0
C131 C 0.71518 0.38606 0.61122 0.0
H132 H 0.55534 0.29231 0.24223 0.0
H133 H 0.52481 0.37935 0.33392 0.0
H134 H 0.59931 0.41006 0.23504 0.0
N135 N 0.60098 0.33965 0.1985 0.0
N136 N 0.59559 0.30732 0.18025 0.0
C137 C 0.55646 0.32246 0.25376 0.0
C138 C 0.53687 0.33317 0.28961 0.0
C139 C 0.57868 0.35039 0.2337 0.0
C140 C 0.58141 0.3889 0.25018 0.0
C141 C 0.56147 0.39996 0.28616 0.0
C142 C 0.53901 0.37179 0.3054 0.0
H143 H 0.27924 0.10975 0.86227 0.0
H144 H 0.18593 0.10342 0.95226 0.0
H145 H 0.20448 0.211 0.89725 0.0
N146 N 0.26503 0.1824 0.84686 0.0
N147 N 0.25583 0.21646 0.8397 0.0
C148 C 0.25595 0.12404 0.88155 0.0
C149 C 0.23478 0.10284 0.90889 0.0
C150 C 0.24561 0.16319 0.87753 0.0
C151 C 0.21357 0.1811 0.90109 0.0
C152 C 0.19206 0.15981 0.92856 0.0
C153 C 0.20349 0.12086 0.93258 0.0
H154 H 0.21213 0.56983 0.35288 0.0
H155 H 0.3037 0.58494 0.44511 0.0
H156 H 0.29109 0.67181 0.36077 0.0
N157 N 0.22818 0.63551 0.31904 0.0
N158 N 0.23254 0.66951 0.30908 0.0
C159 C 0.23626 0.58732 0.3679 0.0
C160 C 0.25566 0.57428 0.40161 0.0
C161 C 0.24821 0.62293 0.35339 0.0
C162 C 0.28088 0.64482 0.3723 0.0
C163 C 0.30101 0.63146 0.40565 0.0
C164 C 0.28762 0.59641 0.42023 0.0
H165 H 0.83524 0.90785 0.76312 0.0
H166 H 0.93071 0.88959 0.84942 0.0
H167 H 0.90383 0.79958 0.75875 0.0
N168 N 0.84116 0.84079 0.72441 0.0
N169 N 0.84827 0.81165 0.70147 0.0
C170 C 0.85934 0.88975 0.77517 0.0
C171 C 0.88219 0.90361 0.80838 0.0
C172 C 0.86704 0.85274 0.7569 0.0
C173 C 0.89818 0.82863 0.77214 0.0
C174 C 0.92152 0.84233 0.8054 0.0
C175 C 0.91347 0.87973 0.8231 0.0
H176 H 0.20181 0.96409 0.15087 0.0
H177 H 0.07088 0.93858 0.12977 0.0
H178 H 0.05044 0.99338 0.17453 0.0
H179 H 0.06897 0.0529 0.21321 0.0
H180 H 0.19878 0.0823 0.23331 0.0
H181 H 0.22055 0.02167 0.19616 0.0
C182 C 0.16892 0.97018 0.15681 0.0
C183 C 0.1379 0.94748 0.13674 0.0
C184 C 0.15716 0.00273 0.18209 0.0
C185 C 0.09535 0.95578 0.14454 0.0
C186 C 0.08355 0.98719 0.1701 0.0
C187 C 0.10204 0.04573 0.20984 0.0
C188 C 0.13225 0.07205 0.2254 0.0
C189 C 0.11409 0.01154 0.18797 0.0
C190 C 0.17499 0.06234 0.22147 0.0
C191 C 0.18738 0.02785 0.20003 0.0
H192 H 0.6035 0.65079 0.63879 0.0
H193 H 0.52535 0.7415 0.59623 0.0
H194 H 0.48155 0.741 0.65531 0.0
H195 H 0.45748 0.70466 0.71147 0.0
H196 H 0.53505 0.61274 0.75219 0.0
H197 H 0.58778 0.62448 0.7023 0.0
C198 C 0.57757 0.67121 0.64307 0.0
C199 C 0.56711 0.69562 0.61305 0.0
C200 C 0.55231 0.67035 0.67676 0.0
C201 C 0.53388 0.72235 0.61899 0.0
C202 C 0.50864 0.72186 0.65262 0.0
C203 C 0.48685 0.68855 0.71045 0.0
C204 C 0.49257 0.65786 0.73516 0.0
C205 C 0.51637 0.69462 0.68073 0.0
C206 C 0.53032 0.63662 0.73342 0.0
C207 C 0.56017 0.64301 0.70462 0.0
H208 H 0.81265 0.08459 0.11506 0.0
H209 H 0.73477 0.06278 0.01226 0.0
H210 H 0.70983 0.00216 0.03774 0.0
H211 H 0.72069 0.95002 0.08349 0.0
H212 H 0.79811 0.97248 0.1863 0.0
H213 H 0.81204 0.03855 0.16729 0.0
C214 C 0.78936 0.06702 0.09882 0.0
C215 C 0.77598 0.0777 0.06166 0.0
C216 C 0.77525 0.03226 0.11363 0.0
C217 C 0.74549 0.05507 0.04097 0.0
C218 C 0.73146 0.02027 0.05539 0.0
C219 C 0.73904 0.97011 0.10247 0.0
C220 C 0.75817 0.95686 0.1363 0.0
C221 C 0.74748 0.0078 0.0909 0.0
C222 C 0.78265 0.98256 0.16045 0.0
C223 C 0.79103 0.02007 0.14931 0.0
H224 H 0.54094 0.31521 0.52432 0.0
H225 H 0.50213 0.27464 0.63574 0.0
H226 H 0.57442 0.28041 0.66036 0.0
H227 H 0.64552 0.30653 0.6529 0.0
H228 H 0.6841 0.34598 0.54068 0.0
H229 H 0.61489 0.33044 0.51321 0.0
C230 C 0.54859 0.30709 0.55379 0.0
C231 C 0.51658 0.29529 0.5786 0.0
C232 C 0.58991 0.31041 0.56749 0.0
C233 C 0.52653 0.28403 0.61637 0.0
C234 C 0.56771 0.28746 0.63041 0.0
C235 C 0.63933 0.31043 0.62205 0.0
C236 C 0.66964 0.32802 0.59902 0.0
C237 C 0.59933 0.30187 0.60662 0.0
C238 C 0.66098 0.33313 0.55915 0.0
C239 C 0.62143 0.32437 0.54349 0.0
H240 H 0.55712 0.55289 0.39868 0.0
H241 H 0.68897 0.55206 0.36964 0.0
H242 H 0.67826 0.49638 0.32212 0.0
H243 H 0.6327 0.44367 0.29408 0.0
H244 H 0.50081 0.44534 0.32289 0.0
H245 H 0.51032 0.50499 0.36507 0.0
C246 C 0.58349 0.54077 0.38172 0.0
C247 C 0.62388 0.55632 0.38818 0.0
C248 C 0.57716 0.5087 0.35454 0.0
C249 C 0.65754 0.54063 0.36541 0.0
C250 C 0.65148 0.50865 0.3383 0.0
C251 C 0.60587 0.45761 0.30881 0.0
C252 C 0.56622 0.43974 0.30577 0.0
C253 C 0.61159 0.49187 0.33329 0.0
C254 C 0.53182 0.4581 0.32531 0.0
C255 C 0.5372 0.49223 0.34942 0.0
H256 H 0.02673 0.17996 0.02722 0.0
H257 H 0.98381 0.2284 0.92058 0.0
H258 H 0.05523 0.22495 0.89396 0.0
H259 H 0.12769 0.20041 0.89805 0.0
H260 H 0.17056 0.15337 0.00553 0.0
H261 H 0.10139 0.16457 0.03507 0.0
C262 C 0.03317 0.19008 0.9983 0.0
C263 C 0.00013 0.2037 0.97552 0.0
C264 C 0.07419 0.18821 0.98337 0.0
C265 C 0.00884 0.21759 0.9385 0.0
C266 C 0.0496 0.21552 0.92327 0.0
C267 C 0.1223 0.19375 0.92835 0.0
C268 C 0.15402 0.17552 0.94936 0.0
C269 C 0.0823 0.19991 0.94503 0.0
C270 C 0.1464 0.16683 0.98854 0.0
C271 C 0.10686 0.17311 0.00541 0.0
H272 H 0.25416 0.43894 0.51296 0.0
H273 H 0.33769 0.39048 0.42252 0.0
H274 H 0.31727 0.44111 0.3793 0.0
H275 H 0.28645 0.50571 0.37253 0.0
H276 H 0.20917 0.55837 0.46542 0.0
H277 H 0.21521 0.49957 0.502 0.0
C278 C 0.26678 0.43891 0.48334 0.0
C279 C 0.29757 0.41138 0.47096 0.0
C280 C 0.25617 0.46916 0.45921 0.0
C281 C 0.31419 0.41172 0.43271 0.0
C282 C 0.30261 0.44068 0.40803 0.0
C283 C 0.26952 0.50344 0.39997 0.0
C284 C 0.24696 0.53574 0.41618 0.0
C285 C 0.27512 0.47051 0.42164 0.0
C286 C 0.22608 0.53335 0.45226 0.0
C287 C 0.23002 0.49998 0.47334 0.0
H288 H 0.02344 0.76992 0.93746 0.0
H289 H 0.1193 0.8411 0.88967 0.0
H290 H 0.07603 0.85017 0.83178 0.0
H291 H 0.00538 0.85026 0.80305 0.0
H292 H 0.90747 0.78286 0.85229 0.0
H293 H 0.95679 0.75929 0.90078 0.0
C294 C 0.03548 0.78589 0.91348 0.0
C295 C 0.07438 0.80494 0.91778 0.0
C296 C 0.00956 0.79233 0.8809 0.0
C297 C 0.08942 0.82619 0.8869 0.0
C298 C 0.06452 0.83169 0.85397 0.0
C299 C 0.99548 0.82908 0.82335 0.0
C300 C 0.95315 0.81808 0.82418 0.0
C301 C 0.02368 0.81676 0.85178 0.0
C302 C 0.94015 0.79123 0.85094 0.0
C303 C 0.96825 0.77816 0.87893 0.0
H304 H 0.81036 0.0553 0.90035 0.0
H305 H 0.94252 0.07514 0.92065 0.0
H306 H 0.95961 0.01686 0.87858 0.0
H307 H 0.93696 0.95796 0.8397 0.0
H308 H 0.80466 0.93592 0.82293 0.0
H309 H 0.78781 0.9976 0.85929 0.0
C310 C 0.84291 0.04723 0.89502 0.0
C311 C 0.87508 0.06944 0.91369 0.0
C312 C 0.85253 0.01312 0.87159 0.0
C313 C 0.91713 0.05838 0.90682 0.0
C314 C 0.92695 0.02502 0.88282 0.0
C315 C 0.90443 0.96659 0.8441 0.0
C316 C 0.87219 0.94221 0.8287 0.0
C317 C 0.89488 0.00171 0.86579 0.0
C318 C 0.83019 0.95425 0.83404 0.0
C319 C 0.82047 0.98944 0.85508 0.0
H320 H 0.48437 0.25038 0.43631 0.0
H321 H 0.36374 0.29244 0.40071 0.0
H322 H 0.39164 0.30496 0.33595 0.0
H323 H 0.45422 0.32053 0.29798 0.0
H324 H 0.57597 0.28308 0.33548 0.0
H325 H 0.54423 0.25163 0.39063 0.0
C326 C 0.46382 0.26014 0.41346 0.0
C327 C 0.42223 0.27046 0.42285 0.0
C328 C 0.48076 0.26922 0.37709 0.0
C329 C 0.39581 0.28398 0.39366 0.0
C330 C 0.41194 0.29174 0.35691 0.0
C331 C 0.47336 0.30397 0.31735 0.0
C332 C 0.51709 0.30404 0.31322 0.0
C333 C 0.45497 0.28702 0.34945 0.0
C334 C 0.54211 0.28305 0.33836 0.0
C335 C 0.524 0.26539 0.36999 0.0
H336 H 0.18764 0.93171 0.92654 0.0
H337 H 0.27213 0.9485 0.02538 0.0
H338 H 0.29651 0.00955 0.00093 0.0
H339 H 0.2818 0.06432 0.95966 0.0
H340 H 0.1967 0.04782 0.86161 0.0
H341 H 0.18502 0.98021 0.87689 0.0
C342 C 0.21228 0.94821 0.94203 0.0
C343 C 0.22736 0.93622 0.97809 0.0
C344 C 0.22569 0.98352 0.92812 0.0
C345 C 0.25982 0.95732 0.99763 0.0
C346 C 0.27354 0.99242 0.98386 0.0
C347 C 0.2622 0.04522 0.94079 0.0
C348 C 0.24005 0.06049 0.90971 0.0
C349 C 0.25503 0.00676 0.95032 0.0
C350 C 0.21422 0.03614 0.88549 0.0
C351 C 0.20723 0.99774 0.89449 0.0
H352 H 0.46109 0.67419 0.50621 0.0
H353 H 0.51119 0.69427 0.39182 0.0
H354 H 0.44123 0.68503 0.36234 0.0
H355 H 0.36806 0.66227 0.36844 0.0
H356 H 0.31822 0.64498 0.48396 0.0
H357 H 0.38563 0.66272 0.51383 0.0
C358 C 0.45633 0.67736 0.47497 0.0
C359 C 0.49088 0.68456 0.45102 0.0
C360 C 0.41622 0.6722 0.45847 0.0
C361 C 0.48475 0.68886 0.41068 0.0
C362 C 0.44488 0.68334 0.39387 0.0
C363 C 0.37156 0.66354 0.40023 0.0
C364 C 0.33838 0.65141 0.42383 0.0
C365 C 0.4106 0.6738 0.41733 0.0
C366 C 0.34355 0.65324 0.46502 0.0
C367 C 0.38209 0.66339 0.48217 0.0
H368 H 0.32174 0.45012 0.64692 0.0
H369 H 0.45182 0.4156 0.63556 0.0
H370 H 0.4718 0.46726 0.68448 0.0
H371 H 0.45355 0.52509 0.72624 0.0
H372 H 0.32499 0.5646 0.73372 0.0
H373 H 0.30295 0.50743 0.6919 0.0
C374 C 0.35434 0.45375 0.65555 0.0
C375 C 0.38531 0.42939 0.63735 0.0
C376 C 0.36587 0.4843 0.68311 0.0
C377 C 0.42748 0.43437 0.6487 0.0
C378 C 0.43894 0.46379 0.67679 0.0
C379 C 0.42064 0.52122 0.71878 0.0
C380 C 0.39109 0.5494 0.73256 0.0
C381 C 0.40857 0.48943 0.69346 0.0
C382 C 0.34842 0.54332 0.72359 0.0
C383 C 0.33587 0.51084 0.69932 0.0
H384 H 0.97392 0.78393 0.05418 0.0
H385 H 0.02566 0.88253 0.12263 0.0
H386 H 0.9568 0.89871 0.15042 0.0
H387 H 0.88131 0.88883 0.15037 0.0
H388 H 0.82694 0.79181 0.08179 0.0
H389 H 0.89723 0.77058 0.05888 0.0
C390 C 0.96999 0.80831 0.07587 0.0
C391 C 0.00443 0.83221 0.08644 0.0
C392 C 0.92988 0.81798 0.09108 0.0
C393 C -0.00071 0.86404 0.11411 0.0
C394 C 0.96001 0.87333 0.12986 0.0
C395 C 0.88499 0.86293 0.1305 0.0
C396 C 0.84942 0.84223 0.11705 0.0
C397 C 0.925 0.85125 0.11766 0.0
C398 C 0.8542 0.80828 0.09208 0.0
C399 C 0.89425 0.79625 0.07905 0.0
H400 H 0.67691 0.56995 0.59869 0.0
H401 H 0.75799 0.54815 0.498 0.0
H402 H 0.78915 0.49232 0.5281 0.0
H403 H 0.78381 0.44332 0.57746 0.0
H404 H 0.70338 0.4653 0.67827 0.0
H405 H 0.68235 0.52812 0.65454 0.0
C406 C 0.70199 0.55337 0.58379 0.0
C407 C 0.7146 0.5625 0.54593 0.0
C408 C 0.71993 0.52148 0.60138 0.0
C409 C 0.74763 0.54142 0.52711 0.0
C410 C 0.76536 0.50944 0.54423 0.0
C411 C 0.76326 0.46284 0.59503 0.0
C412 C 0.74527 0.45017 0.62954 0.0
C413 C 0.7506 0.49834 0.58064 0.0
C414 C 0.71802 0.47502 0.65192 0.0
C415 C 0.7055 0.51056 0.63801 0.0
H416 H 0.97494 0.24021 0.09922 0.0
H417 H 0.87318 0.19245 0.16365 0.0
H418 H 0.92042 0.18172 0.21869 0.0
H419 H 0.99297 0.17346 0.24164 0.0
H420 H 0.09568 0.21272 0.17255 0.0
H421 H 0.04625 0.23933 0.12596 0.0
C422 C 0.96287 0.22913 0.12611 0.0
C423 C 0.92082 0.21743 0.12784 0.0
C424 C 0.99079 0.22048 0.15617 0.0
C425 C 0.90548 0.202 0.16215 0.0
C426 C 0.93258 0.19538 0.19328 0.0
C427 C 0.00419 0.1888 0.21687 0.0
C428 C 0.04741 0.19133 0.21007 0.0
C429 C 0.97565 0.20252 0.18961 0.0
C430 C 0.06227 0.21067 0.17793 0.0
C431 C 0.03409 0.22575 0.15143 0.0
H432 H 0.16118 0.70715 0.14365 0.0
H433 H 0.20141 0.82187 0.18765 0.0
H434 H 0.22111 0.79691 0.25014 0.0
H435 H 0.23204 0.74202 0.29103 0.0
H436 H 0.19312 0.62691 0.24896 0.0
H437 H 0.1678 0.65216 0.18736 0.0
C438 C 0.17367 0.72668 0.16716 0.0
C439 C 0.18024 0.76624 0.16068 0.0
C440 C 0.18558 0.71198 0.20333 0.0
C441 C 0.19657 0.79118 0.1915 0.0
C442 C 0.20786 0.77699 0.22737 0.0
C443 C 0.21757 0.72271 0.2684 0.0
C444 C 0.2145 0.68302 0.2743 0.0
C445 C 0.20338 0.73739 0.2333 0.0
C446 C 0.19577 0.65779 0.24503 0.0
C447 C 0.18139 0.67222 0.2098 0.0
H448 H 0.70445 0.78294 0.57788 0.0
H449 H 0.7964 0.70199 0.52647 0.0
H450 H 0.84621 0.72205 0.57839 0.0
H451 H 0.86252 0.76026 0.64098 0.0
H452 H 0.77005 0.84093 0.69131 0.0
H453 H 0.72178 0.82308 0.63765 0.0
C454 C 0.73552 0.76993 0.57764 0.0
C455 C 0.74636 0.74083 0.54825 0.0
C456 C 0.76394 0.78124 0.60782 0.0
C457 C 0.78697 0.72446 0.54862 0.0
C458 C 0.81551 0.73575 0.57849 0.0
C459 C 0.83181 0.77383 0.63992 0.0
C460 C 0.81999 0.80166 0.67 0.0
C461 C 0.80409 0.76362 0.60866 0.0
C462 C 0.78012 0.8194 0.66848 0.0
C463 C 0.7524 0.80924 0.63776 0.0
H464 H 0.69681 0.21676 0.04686 0.0
H465 H 0.77609 0.31811 0.06403 0.0
H466 H 0.72534 0.3488 0.11006 0.0
H467 H 0.66208 0.34415 0.15035 0.0
H468 H 0.58444 0.24188 0.13615 0.0
H469 H 0.63067 0.21428 0.08362 0.0
C470 C 0.70265 0.24584 0.06013 0.0
C471 C 0.74037 0.26494 0.05226 0.0
C472 C 0.67376 0.263 0.0873 0.0
C473 C 0.74751 0.30256 0.06988 0.0
C474 C 0.71852 0.32017 0.09624 0.0
C475 C 0.65494 0.31612 0.13531 0.0
C476 C 0.62003 0.29477 0.1469 0.0
C477 C 0.68211 0.30024 0.10595 0.0
C478 C 0.61123 0.25853 0.12739 0.0
C479 C 0.63767 0.2428 0.0976 0.0
H480 H 0.29522 0.30845 0.6932 0.0
H481 H 0.37098 0.20613 0.66343 0.0
H482 H 0.35441 0.18097 0.72694 0.0
H483 H 0.3137 0.18541 0.78822 0.0
H484 H 0.2368 0.28664 0.81756 0.0
H485 H 0.25892 0.31523 0.75676 0.0
C486 C 0.30837 0.28074 0.7006 0.0
C487 C 0.33384 0.25898 0.67326 0.0
C488 C 0.29844 0.26627 0.73698 0.0
C489 C 0.35108 0.22342 0.68374 0.0
C490 C 0.34155 0.20894 0.72003 0.0
C491 C 0.30217 0.21393 0.78154 0.0
C492 C 0.27335 0.23405 0.80698 0.0
C493 C 0.31456 0.22972 0.74647 0.0
C494 C 0.25892 0.27093 0.79814 0.0
C495 C 0.27141 0.28706 0.76344 0.0
H496 H 0.69099 0.69224 0.33954 0.0
H497 H 0.64676 0.80023 0.39774 0.0
H498 H 0.65988 0.83392 0.33792 0.0
H499 H 0.68915 0.83353 0.27062 0.0
H500 H 0.73412 0.72564 0.2135 0.0
H501 H 0.715 0.69081 0.27129 0.0
C502 C 0.68406 0.72314 0.33919 0.0
C503 C 0.66847 0.74376 0.37328 0.0
C504 C 0.69172 0.74227 0.30484 0.0
C505 C 0.65899 0.78365 0.37199 0.0
C506 C 0.66653 0.80297 0.3378 0.0
C507 C 0.694 0.8023 0.27064 0.0
C508 C 0.71294 0.78182 0.23799 0.0
C509 C 0.68356 0.7827 0.30425 0.0
C510 C 0.71937 0.74157 0.23842 0.0
C511 C 0.70871 0.72183 0.27144 0.0
H512 H 0.8049 0.19934 0.85199 0.0
H513 H 0.84274 0.31082 0.90663 0.0
H514 H 0.83216 0.34092 0.84436 0.0
H515 H 0.80759 0.33633 0.77544 0.0
H516 H 0.7693 0.22509 0.72143 0.0
H517 H 0.78505 0.19389 0.78241 0.0
C518 C 0.81095 0.23021 0.85033 0.0
C519 C 0.82409 0.25284 0.88407 0.0
C520 C 0.80481 0.24732 0.81452 0.0
C521 C 0.83243 0.2927 0.88116 0.0
C522 C 0.82634 0.30999 0.84556 0.0
C523 C 0.80333 0.3052 0.77693 0.0
C524 C 0.78731 0.2827 0.74423 0.0
C525 C 0.81195 0.28769 0.81221 0.0
C526 C 0.78175 0.24257 0.74647 0.0
C527 C 0.79052 0.22489 0.78125 0.0
H528 H 0.21815 0.27647 0.48996 0.0
H529 H 0.28967 0.17326 0.51191 0.0
H530 H 0.24852 0.13511 0.4628 0.0
H531 H 0.19927 0.13333 0.40691 0.0
H532 H 0.13009 0.23711 0.38332 0.0
H533 H 0.16278 0.27259 0.43977 0.0
C534 C 0.22402 0.24544 0.48471 0.0
C535 C 0.25731 0.22789 0.50405 0.0
C536 C 0.20103 0.22385 0.45564 0.0
C537 C 0.26456 0.18761 0.49693 0.0
C538 C 0.24114 0.16575 0.46878 0.0
C539 C 0.19096 0.16348 0.41481 0.0
C540 C 0.16307 0.18264 0.3909 0.0
C541 C 0.21047 0.18391 0.44687 0.0
C542 C 0.152 0.22176 0.4011 0.0
C543 C 0.17069 0.24212 0.43337 0.0
H544 H 0.29667 0.7946 0.98403 0.0
H545 H 0.21126 0.69708 0.9771 0.0
H546 H 0.25587 0.66281 0.92782 0.0
H547 H 0.31671 0.66195 0.88385 0.0
H548 H 0.40166 0.75934 0.88905 0.0
H549 H 0.35967 0.79232 0.94204 0.0
C550 C 0.28806 0.76564 0.97217 0.0
C551 C 0.25048 0.7486 0.98424 0.0
C552 C 0.31358 0.74622 0.94329 0.0
C553 C 0.23981 0.71109 0.96827 0.0
C554 C 0.26528 0.69142 0.93999 0.0
C555 C 0.32617 0.6903 0.89669 0.0
C556 C 0.36211 0.70854 0.88255 0.0
C557 C 0.3018 0.70898 0.92679 0.0
C558 C 0.37401 0.74507 0.89959 0.0
C559 C 0.35004 0.76382 0.92977 0.0
loop_
_geom_bond_atom_site_label_1
_geom_bond_atom_site_label_2
_geom_bond_distance
_geom_bond_site_symmetry_2
_ccdc_geom_bond_type
Sc0 O3 2.025 . S
Sc0 O10 2.105 . S
Sc0 O13 2.105 . S
Sc0 O16 2.105 . S
Sc0 O19 2.105 1_554 S
Sc1 O3 2.025 . S
Sc1 O11 2.105 1_554 S
Sc1 O15 2.105 . S
Sc1 O17 2.105 . S
Sc1 O21 2.105 1_554 S
Sc2 O3 2.025 . S
Sc2 O12 2.105 . S
Sc2 O14 2.105 . S
Sc2 O18 2.105 . S
Sc2 O20 2.105 . S
O3 Sc0 2.025 . S
O3 Sc1 2.025 . S
O3 Sc2 2.025 . S
C4 O10 1.268 1_556 S
C4 O20 1.268 1_556 S
C5 O11 1.268 . S
C5 O19 1.268 . S
C6 O12 1.268 1_556 S
C6 O21 1.268 . S
C7 O13 1.268 . S
C7 O17 1.268 . S
C8 O14 1.268 . S
C8 O16 1.268 . S
C9 O15 1.268 . S
C9 O18 1.268 . S
O10 Sc0 2.105 . S
O10 C4 1.268 1_554 S
O11 Sc1 2.105 1_556 S
O11 C5 1.268 . S
O12 Sc2 2.105 . S
O12 C6 1.268 1_554 S
O13 Sc0 2.105 . S
O13 C7 1.268 . S
O14 Sc2 2.105 . S
O14 C8 1.268 . S
O15 Sc1 2.105 . S
O15 C9 1.268 . S
O16 Sc0 2.105 . S
O16 C8 1.268 . S
O17 Sc1 2.105 . S
O17 C7 1.268 . S
O18 Sc2 2.105 . S
O18 C9 1.268 . S
O19 Sc0 2.105 1_556 S
O19 C5 1.268 . S
O20 Sc2 2.105 . S
O20 C4 1.268 1_554 S
O21 Sc1 2.105 1_556 S
O21 C6 1.268 . S
Sc22 O25 2.025 . S
Sc22 O32 2.105 . S
Sc22 O35 2.105 . S
Sc22 O38 2.105 . S
Sc22 O41 2.105 . S
Sc23 O25 2.025 . S
Sc23 O33 2.105 . S
Sc23 O37 2.105 . S
Sc23 O39 2.105 . S
Sc23 O43 2.105 . S
Sc24 O25 2.025 . S
Sc24 O34 2.105 . S
Sc24 O36 2.105 . S
Sc24 O40 2.105 . S
Sc24 O42 2.105 . S
O25 Sc22 2.025 . S
O25 Sc23 2.025 . S
O25 Sc24 2.025 . S
C26 O32 1.268 . S
C26 O42 1.268 . S
C27 O33 1.268 . S
C27 O41 1.268 . S
C28 O34 1.268 . S
C28 O43 1.268 . S
C29 O35 1.268 . S
C29 O39 1.268 . S
C30 O36 1.268 . S
C30 O38 1.268 . S
C31 O37 1.268 . S
C31 O40 1.268 . S
O32 Sc22 2.105 . S
O32 C26 1.268 . S
O33 Sc23 2.105 . S
O33 C27 1.268 . S
O34 Sc24 2.105 . S
O34 C28 1.268 . S
O35 Sc22 2.105 . S
O35 C29 1.268 . S
O36 Sc24 2.105 . S
O36 C30 1.268 . S
O37 Sc23 2.105 . S
O37 C31 1.268 . S
O38 Sc22 2.105 . S
O38 C30 1.268 . S
O39 Sc23 2.105 . S
O39 C29 1.268 . S
O40 Sc24 2.105 . S
O40 C31 1.268 . S
O41 Sc22 2.105 . S
O41 C27 1.268 . S
O42 Sc24 2.105 . S
O42 C26 1.268 . S
O43 Sc23 2.105 . S
O43 C28 1.268 . S
Sc44 O47 2.026 . S
Sc44 O54 2.105 1_554 S
Sc44 O57 2.105 . S
Sc44 O60 2.105 . S
Sc44 O63 2.105 1_554 S
Sc45 O47 2.025 1_556 S
Sc45 O55 2.105 . S
Sc45 O59 2.105 1_556 S
Sc45 O61 2.105 1_556 S
Sc45 O65 2.105 . S
Sc46 O47 2.026 . S
Sc46 O56 2.105 1_554 S
Sc46 O58 2.105 . S
Sc46 O62 2.105 . S
Sc46 O64 2.105 1_554 S
O47 Sc44 2.026 . S
O47 Sc45 2.025 1_554 S
O47 Sc46 2.026 . S
C48 O54 1.268 . S
C48 O64 1.268 . S
C49 O55 1.268 . S
C49 O63 1.268 . S
C50 O56 1.268 . S
C50 O65 1.268 . S
C51 O57 1.268 . S
C51 O61 1.268 . S
C52 O58 1.268 . S
C52 O60 1.268 . S
C53 O59 1.268 . S
C53 O62 1.268 . S
O54 Sc44 2.105 1_556 S
O54 C48 1.268 . S
O55 Sc45 2.105 . S
O55 C49 1.268 . S
O56 Sc46 2.105 1_556 S
O56 C50 1.268 . S
O57 Sc44 2.105 . S
O57 C51 1.268 . S
O58 Sc46 2.105 . S
O58 C52 1.268 . S
O59 Sc45 2.105 1_554 S
O59 C53 1.268 . S
O60 Sc44 2.105 . S
O60 C52 1.268 . S
O61 Sc45 2.105 1_554 S
O61 C51 1.268 . S
O62 Sc46 2.105 . S
O62 C53 1.268 . S
O63 Sc44 2.105 1_556 S
O63 C49 1.268 . S
O64 Sc46 2.105 1_556 S
O64 C48 1.268 . S
O65 Sc45 2.105 . S
O65 C50 1.268 . S
Sc66 O69 2.025 . S
Sc66 O76 2.105 . S
Sc66 O79 2.105 . S
Sc66 O82 2.105 . S
Sc66 O85 2.105 . S
Sc67 O69 2.025 . S
Sc67 O77 2.105 . S
Sc67 O81 2.105 . S
Sc67 O83 2.105 . S
Sc67 O87 2.105 . S
Sc68 O69 2.025 . S
Sc68 O78 2.105 . S
Sc68 O80 2.105 . S
Sc68 O84 2.105 . S
Sc68 O86 2.105 . S
O69 Sc66 2.025 . S
O69 Sc67 2.025 . S
O69 Sc68 2.025 . S
C70 O76 1.268 . S
C70 O86 1.268 . S
C71 O77 1.268 . S
C71 O85 1.268 . S
C72 O78 1.268 . S
C72 O87 1.268 . S
C73 O79 1.268 . S
C73 O83 1.268 . S
C74 O80 1.268 . S
C74 O82 1.268 . S
C75 O81 1.268 . S
C75 O84 1.268 . S
O76 Sc66 2.105 . S
O76 C70 1.268 . S
O77 Sc67 2.105 . S
O77 C71 1.268 . S
O78 Sc68 2.105 . S
O78 C72 1.268 . S
O79 Sc66 2.105 . S
O79 C73 1.268 . S
O80 Sc68 2.105 . S
O80 C74 1.268 . S
O81 Sc67 2.105 . S
O81 C75 1.268 . S
O82 Sc66 2.105 . S
O82 C74 1.268 . S
O83 Sc67 2.105 . S
O83 C73 1.268 . S
O84 Sc68 2.105 . S
O84 C75 1.268 . S
O85 Sc66 2.105 . S
O85 C71 1.268 . S
O86 Sc68 2.105 . S
O86 C70 1.268 . S
O87 Sc67 2.105 . S
O87 C72 1.268 . S
H88 C93 0.929 . S
H89 C98 0.931 . S
H90 C96 0.930 . S
N91 N92 1.234 . S
N91 C95 1.453 . S
N92 N91 1.234 . S
C93 H88 0.929 . S
C93 C94 1.373 . S
C93 C95 1.368 . S
C94 C93 1.373 . S
C94 C98 1.397 . S
C95 N91 1.453 . S
C95 C93 1.368 . S
C95 C96 1.373 . S
C96 H90 0.930 . S
C96 C95 1.373 . S
C96 C97 1.371 . S
C97 C96 1.371 . S
C97 C98 1.383 . S
C98 H89 0.931 . S
C98 C94 1.397 . S
C98 C97 1.383 . S
H99 C104 0.929 . S
H100 C109 0.931 . S
H101 C107 0.930 . S
N102 N103 1.234 . S
N102 C106 1.453 . S
N103 N102 1.234 . S
C104 H99 0.929 . S
C104 C105 1.373 . S
C104 C106 1.368 . S
C105 C104 1.373 . S
C105 C109 1.397 . S
C106 N102 1.453 . S
C106 C104 1.368 . S
C106 C107 1.373 . S
C107 H101 0.930 . S
C107 C106 1.373 . S
C107 C108 1.371 . S
C108 C107 1.371 . S
C108 C109 1.383 . S
C109 H100 0.931 . S
C109 C105 1.397 . S
C109 C108 1.383 . S
H110 C115 0.929 . S
H111 C120 0.931 . S
H112 C118 0.930 . S
N113 N114 1.234 . S
N113 C117 1.453 . S
N114 N113 1.234 . S
C115 H110 0.929 . S
C115 C116 1.373 . S
C115 C117 1.368 . S
C116 C115 1.373 . S
C116 C120 1.397 . S
C117 N113 1.453 . S
C117 C115 1.368 . S
C117 C118 1.373 . S
C118 H112 0.930 . S
C118 C117 1.373 . S
C118 C119 1.371 . S
C119 C118 1.371 . S
C119 C120 1.383 . S
C120 H111 0.931 . S
C120 C116 1.397 . S
C120 C119 1.383 . S
H121 C126 0.929 . S
H122 C131 0.931 . S
H123 C129 0.930 . S
N124 N125 1.234 . S
N124 C128 1.453 . S
N125 N124 1.234 . S
C126 H121 0.929 . S
C126 C127 1.373 . S
C126 C128 1.368 . S
C127 C126 1.373 . S
C127 C131 1.397 . S
C128 N124 1.453 . S
C128 C126 1.368 . S
C128 C129 1.373 . S
C129 H123 0.930 . S
C129 C128 1.373 . S
C129 C130 1.371 . S
C130 C129 1.371 . S
C130 C131 1.383 . S
C131 H122 0.931 . S
C131 C127 1.397 . S
C131 C130 1.383 . S
H132 C137 0.929 . S
H133 C142 0.931 . S
H134 C140 0.930 . S
N135 N136 1.234 . S
N135 C139 1.453 . S
N136 N135 1.234 . S
C137 H132 0.929 . S
C137 C138 1.373 . S
C137 C139 1.368 . S
C138 C137 1.373 . S
C138 C142 1.397 . S
C139 N135 1.453 . S
C139 C137 1.368 . S
C139 C140 1.373 . S
C140 H134 0.930 . S
C140 C139 1.373 . S
C140 C141 1.371 . S
C141 C140 1.371 . S
C141 C142 1.383 . S
C142 H133 0.931 . S
C142 C138 1.397 . S
C142 C141 1.383 . S
H143 C148 0.929 . S
H144 C153 0.931 . S
H145 C151 0.930 . S
N146 N147 1.234 . S
N146 C150 1.453 . S
N147 N146 1.234 . S
C148 H143 0.929 . S
C148 C149 1.373 . S
C148 C150 1.368 . S
C149 C148 1.373 . S
C149 C153 1.397 . S
C150 N146 1.453 . S
C150 C148 1.368 . S
C150 C151 1.373 . S
C151 H145 0.930 . S
C151 C150 1.373 . S
C151 C152 1.371 . S
C152 C151 1.371 . S
C152 C153 1.383 . S
C153 H144 0.931 . S
C153 C149 1.397 . S
C153 C152 1.383 . S
H154 C159 0.929 . S
H155 C164 0.931 . S
H156 C162 0.930 . S
N157 N158 1.234 . S
N157 C161 1.453 . S
N158 N157 1.234 . S
C159 H154 0.929 . S
C159 C160 1.373 . S
C159 C161 1.368 . S
C160 C159 1.373 . S
C160 C164 1.397 . S
C161 N157 1.453 . S
C161 C159 1.368 . S
C161 C162 1.373 . S
C162 H156 0.930 . S
C162 C161 1.373 . S
C162 C163 1.371 . S
C163 C162 1.371 . S
C163 C164 1.383 . S
C164 H155 0.931 . S
C164 C160 1.397 . S
C164 C163 1.383 . S
H165 C170 0.929 . S
H166 C175 0.931 . S
H167 C173 0.930 . S
N168 N169 1.234 . S
N168 C172 1.453 . S
N169 N168 1.234 . S
C170 H165 0.929 . S
C170 C171 1.373 . S
C170 C172 1.368 . S
C171 C170 1.373 . S
C171 C175 1.397 . S
C172 N168 1.453 . S
C172 C170 1.368 . S
C172 C173 1.373 . S
C173 H167 0.930 . S
C173 C172 1.373 . S
C173 C174 1.371 . S
C174 C173 1.371 . S
C174 C175 1.383 . S
C175 H166 0.931 . S
C175 C171 1.397 . S
C175 C174 1.383 . S
H176 C182 0.930 . S
H177 C185 0.930 . S
H178 C186 0.930 . S
H179 C187 0.930 . S
H180 C190 0.930 . S
H181 C191 0.930 . S
C182 H176 0.930 . S
C182 C183 1.355 . S
C182 C184 1.415 1_565 S
C183 C182 1.355 . S
C183 C185 1.419 . S
C184 C182 1.415 1_545 S
C184 C189 1.425 . S
C184 C191 1.409 . S
C185 H177 0.930 . S
C185 C183 1.419 . S
C185 C186 1.362 . S
C186 H178 0.930 . S
C186 C185 1.362 . S
C186 C189 1.409 1_565 S
C187 H179 0.930 . S
C187 C188 1.355 . S
C187 C189 1.415 . S
C188 C187 1.355 . S
C188 C190 1.419 . S
C189 C184 1.425 . S
C189 C186 1.409 1_545 S
C189 C187 1.415 . S
C190 H180 0.930 . S
C190 C188 1.419 . S
C190 C191 1.362 . S
C191 H181 0.930 . S
C191 C184 1.409 . S
C191 C190 1.362 . S
H192 C198 0.930 . S
H193 C201 0.930 . S
H194 C202 0.930 . S
H195 C203 0.930 . S
H196 C206 0.930 . S
H197 C207 0.930 . S
C198 H192 0.930 . S
C198 C199 1.355 . S
C198 C200 1.415 . S
C199 C198 1.355 . S
C199 C201 1.419 . S
C200 C198 1.415 . S
C200 C205 1.425 . S
C200 C207 1.409 . S
C201 H193 0.930 . S
C201 C199 1.419 . S
C201 C202 1.362 . S
C202 H194 0.930 . S
C202 C201 1.362 . S
C202 C205 1.409 . S
C203 H195 0.930 . S
C203 C204 1.355 . S
C203 C205 1.415 . S
C204 C203 1.355 . S
C204 C206 1.419 . S
C205 C200 1.425 . S
C205 C202 1.409 . S
C205 C203 1.415 . S
C206 H196 0.930 . S
C206 C204 1.419 . S
C206 C207 1.362 . S
C207 H197 0.930 . S
C207 C200 1.409 . S
C207 C206 1.362 . S
H208 C214 0.930 . S
H209 C217 0.930 . S
H210 C218 0.930 . S
H211 C219 0.930 . S
H212 C222 0.930 . S
H213 C223 0.930 . S
C214 H208 0.930 . S
C214 C215 1.355 . S
C214 C216 1.415 1_545 S
C215 C214 1.355 . S
C215 C217 1.419 . S
C216 C214 1.415 1_565 S
C216 C221 1.425 . S
C216 C223 1.409 . S
C217 H209 0.930 . S
C217 C215 1.419 . S
C217 C218 1.362 . S
C218 H210 0.930 . S
C218 C217 1.362 . S
C218 C221 1.409 1_545 S
C219 H211 0.930 . S
C219 C220 1.355 . S
C219 C221 1.415 . S
C220 C219 1.355 . S
C220 C222 1.419 . S
C221 C216 1.425 . S
C221 C218 1.409 1_565 S
C221 C219 1.415 . S
C222 H212 0.930 . S
C222 C220 1.419 . S
C222 C223 1.362 . S
C223 H213 0.930 . S
C223 C216 1.409 . S
C223 C222 1.362 . S
H224 C230 0.930 . S
H225 C233 0.930 . S
H226 C234 0.930 . S
H227 C235 0.930 . S
H228 C238 0.930 . S
H229 C239 0.930 . S
C230 H224 0.930 . S
C230 C231 1.355 . S
C230 C232 1.415 . S
C231 C230 1.355 . S
C231 C233 1.419 . S
C232 C230 1.415 . S
C232 C237 1.425 . S
C232 C239 1.409 . S
C233 H225 0.930 . S
C233 C231 1.419 . S
C233 C234 1.362 . S
C234 H226 0.930 . S
C234 C233 1.362 . S
C234 C237 1.409 . S
C235 H227 0.930 . S
C235 C236 1.355 . S
C235 C237 1.415 . S
C236 C235 1.355 . S
C236 C238 1.419 . S
C237 C232 1.425 . S
C237 C234 1.409 . S
C237 C235 1.415 . S
C238 H228 0.930 . S
C238 C236 1.419 . S
C238 C239 1.362 . S
C239 H229 0.930 . S
C239 C232 1.409 . S
C239 C238 1.362 . S
H240 C246 0.930 . S
H241 C249 0.930 . S
H242 C250 0.930 . S
H243 C251 0.930 . S
H244 C254 0.930 . S
H245 C255 0.930 . S
C246 H240 0.930 . S
C246 C247 1.355 . S
C246 C248 1.415 . S
C247 C246 1.355 . S
C247 C249 1.419 . S
C248 C246 1.415 . S
C248 C253 1.425 . S
C248 C255 1.409 . S
C249 H241 0.930 . S
C249 C247 1.419 . S
C249 C250 1.362 . S
C250 H242 0.930 . S
C250 C249 1.362 . S
C250 C253 1.409 . S
C251 H243 0.930 . S
C251 C252 1.355 . S
C251 C253 1.415 . S
C252 C251 1.355 . S
C252 C254 1.419 . S
C253 C248 1.425 . S
C253 C250 1.409 . S
C253 C251 1.415 . S
C254 H244 0.930 . S
C254 C252 1.419 . S
C254 C255 1.362 . S
C255 H245 0.930 . S
C255 C248 1.409 . S
C255 C254 1.362 . S
H256 C262 0.930 . S
H257 C265 0.911 1_655 S
H258 C266 0.930 . S
H259 C267 0.930 . S
H260 C270 0.930 . S
H261 C271 0.930 . S
C262 H256 0.930 . S
C262 C263 1.365 . S
C262 C264 1.415 . S
C263 C262 1.365 . S
C263 C265 1.419 . S
C264 C262 1.415 . S
C264 C269 1.425 . S
C264 C271 1.409 . S
C265 H257 0.911 1_455 S
C265 C263 1.419 . S
C265 C266 1.381 . S
C266 H258 0.930 . S
C266 C265 1.381 . S
C266 C269 1.409 . S
C267 H259 0.930 . S
C267 C268 1.355 . S
C267 C269 1.415 . S
C268 C267 1.355 . S
C268 C270 1.419 . S
C269 C264 1.425 . S
C269 C266 1.409 . S
C269 C267 1.415 . S
C270 H260 0.930 . S
C270 C268 1.419 . S
C270 C271 1.362 . S
C271 H261 0.930 . S
C271 C264 1.409 . S
C271 C270 1.362 . S
H272 C278 0.930 . S
H273 C281 0.930 . S
H274 C282 0.930 . S
H275 C283 0.930 . S
H276 C286 0.930 . S
H277 C287 0.930 . S
C278 H272 0.930 . S
C278 C279 1.355 . S
C278 C280 1.415 . S
C279 C278 1.355 . S
C279 C281 1.419 . S
C280 C278 1.415 . S
C280 C285 1.425 . S
C280 C287 1.409 . S
C281 H273 0.930 . S
C281 C279 1.419 . S
C281 C282 1.362 . S
C282 H274 0.930 . S
C282 C281 1.362 . S
C282 C285 1.409 . S
C283 H275 0.930 . S
C283 C284 1.355 . S
C283 C285 1.415 . S
C284 C283 1.355 . S
C284 C286 1.419 . S
C285 C280 1.425 . S
C285 C282 1.409 . S
C285 C283 1.415 . S
C286 H276 0.930 . S
C286 C284 1.419 . S
C286 C287 1.362 . S
C287 H277 0.930 . S
C287 C280 1.409 . S
C287 C286 1.362 . S
H288 C294 0.930 . S
H289 C297 0.930 . S
H290 C298 0.930 . S
H291 C299 0.930 . S
H292 C302 0.930 . S
H293 C303 0.930 . S
C294 H288 0.930 . S
C294 C295 1.355 . S
C294 C296 1.415 . S
C295 C294 1.355 . S
C295 C297 1.419 . S
C296 C294 1.415 . S
C296 C301 1.425 . S
C296 C303 1.409 1_455 S
C297 H289 0.930 . S
C297 C295 1.419 . S
C297 C298 1.362 . S
C298 H290 0.930 . S
C298 C297 1.362 . S
C298 C301 1.409 . S
C299 H291 0.930 . S
C299 C300 1.355 . S
C299 C301 1.415 1_655 S
C300 C299 1.355 . S
C300 C302 1.419 . S
C301 C296 1.425 . S
C301 C298 1.409 . S
C301 C299 1.415 1_455 S
C302 H292 0.930 . S
C302 C300 1.419 . S
C302 C303 1.362 . S
C303 H293 0.930 . S
C303 C296 1.409 1_655 S
C303 C302 1.362 . S
H304 C310 0.930 . S
H305 C313 0.930 . S
H306 C314 0.930 . S
H307 C315 0.930 . S
H308 C318 0.930 . S
H309 C319 0.930 . S
C310 H304 0.930 . S
C310 C311 1.355 . S
C310 C312 1.415 1_545 S
C311 C310 1.355 . S
C311 C313 1.419 . S
C312 C310 1.415 1_565 S
C312 C317 1.425 1_565 S
C312 C319 1.409 . S
C313 H305 0.930 . S
C313 C311 1.419 . S
C313 C314 1.362 . S
C314 H306 0.930 . S
C314 C313 1.362 . S
C314 C317 1.409 . S
C315 H307 0.930 . S
C315 C316 1.355 . S
C315 C317 1.415 1_565 S
C316 C315 1.355 . S
C316 C318 1.419 . S
C317 C312 1.425 1_545 S
C317 C314 1.409 . S
C317 C315 1.415 1_545 S
C318 H308 0.930 . S
C318 C316 1.419 . S
C318 C319 1.362 . S
C319 H309 0.930 . S
C319 C312 1.409 . S
C319 C318 1.362 . S
H320 C326 0.930 . S
H321 C329 0.930 . S
H322 C330 0.930 . S
H323 C331 0.930 . S
H324 C334 0.930 . S
H325 C335 0.930 . S
C326 H320 0.930 . S
C326 C327 1.355 . S
C326 C328 1.415 . S
C327 C326 1.355 . S
C327 C329 1.419 . S
C328 C326 1.415 . S
C328 C333 1.425 . S
C328 C335 1.409 . S
C329 H321 0.930 . S
C329 C327 1.419 . S
C329 C330 1.362 . S
C330 H322 0.930 . S
C330 C329 1.362 . S
C330 C333 1.409 . S
C331 H323 0.930 . S
C331 C332 1.355 . S
C331 C333 1.415 . S
C332 C331 1.355 . S
C332 C334 1.419 . S
C333 C328 1.425 . S
C333 C330 1.409 . S
C333 C331 1.415 . S
C334 H324 0.930 . S
C334 C332 1.419 . S
C334 C335 1.362 . S
C335 H325 0.930 . S
C335 C328 1.409 . S
C335 C334 1.362 . S
H336 C342 0.930 . S
H337 C345 0.930 . S
H338 C346 0.930 1_554 S
H339 C347 0.930 . S
H340 C350 0.930 . S
H341 C351 0.930 1_565 S
C342 H336 0.930 . S
C342 C343 1.355 . S
C342 C344 1.415 1_565 S
C343 C342 1.355 . S
C343 C345 1.419 1_556 S
C344 C342 1.415 1_545 S
C344 C349 1.425 . S
C344 C351 1.409 . S
C345 H337 0.930 . S
C345 C343 1.419 1_554 S
C345 C346 1.362 1_564 S
C346 H338 0.930 1_556 S
C346 C345 1.362 1_546 S
C346 C349 1.409 . S
C347 H339 0.930 . S
C347 C348 1.355 . S
C347 C349 1.415 . S
C348 C347 1.355 . S
C348 C350 1.419 . S
C349 C344 1.425 . S
C349 C346 1.409 . S
C349 C347 1.415 . S
C350 H340 0.930 . S
C350 C348 1.419 . S
C350 C351 1.362 . S
C351 H341 0.930 1_545 S
C351 C344 1.409 . S
C351 C350 1.362 . S
H352 C358 0.930 . S
H353 C361 0.930 . S
H354 C362 0.930 . S
H355 C363 0.930 . S
H356 C366 0.930 . S
H357 C367 0.930 . S
C358 H352 0.930 . S
C358 C359 1.355 . S
C358 C360 1.415 . S
C359 C358 1.355 . S
C359 C361 1.419 . S
C360 C358 1.415 . S
C360 C365 1.425 . S
C360 C367 1.409 . S
C361 H353 0.930 . S
C361 C359 1.419 . S
C361 C362 1.362 . S
C362 H354 0.930 . S
C362 C361 1.362 . S
C362 C365 1.409 . S
C363 H355 0.930 . S
C363 C364 1.355 . S
C363 C365 1.415 . S
C364 C363 1.355 . S
C364 C366 1.419 . S
C365 C360 1.425 . S
C365 C362 1.409 . S
C365 C363 1.415 . S
C366 H356 0.930 . S
C366 C364 1.419 . S
C366 C367 1.362 . S
C367 H357 0.930 . S
C367 C360 1.409 . S
C367 C366 1.362 . S
H368 C374 0.930 . S
H369 C377 0.930 . S
H370 C378 0.930 . S
H371 C379 0.930 . S
H372 C382 0.930 . S
H373 C383 0.930 . S
C374 H368 0.930 . S
C374 C375 1.355 . S
C374 C376 1.415 . S
C375 C374 1.355 . S
C375 C377 1.419 . S
C376 C374 1.415 . S
C376 C381 1.425 . S
C376 C383 1.409 . S
C377 H369 0.930 . S
C377 C375 1.419 . S
C377 C378 1.362 . S
C378 H370 0.930 . S
C378 C377 1.362 . S
C378 C381 1.409 . S
C379 H371 0.930 . S
C379 C380 1.355 . S
C379 C381 1.415 . S
C380 C379 1.355 . S
C380 C382 1.419 . S
C381 C376 1.425 . S
C381 C378 1.409 . S
C381 C379 1.415 . S
C382 H372 0.930 . S
C382 C380 1.419 . S
C382 C383 1.362 . S
C383 H373 0.930 . S
C383 C376 1.409 . S
C383 C382 1.362 . S
H384 C390 0.930 . S
H385 C393 0.930 1_455 S
H386 C394 0.930 . S
H387 C395 0.930 . S
H388 C398 0.930 . S
H389 C399 0.930 . S
C390 H384 0.930 . S
C390 C391 1.355 . S
C390 C392 1.415 . S
C391 C390 1.355 . S
C391 C393 1.419 . S
C392 C390 1.415 . S
C392 C397 1.425 . S
C392 C399 1.409 . S
C393 H385 0.930 1_655 S
C393 C391 1.419 . S
C393 C394 1.362 . S
C394 H386 0.930 . S
C394 C393 1.362 . S
C394 C397 1.409 . S
C395 H387 0.930 . S
C395 C396 1.355 . S
C395 C397 1.415 . S
C396 C395 1.355 . S
C396 C398 1.419 . S
C397 C392 1.425 . S
C397 C394 1.409 . S
C397 C395 1.415 . S
C398 H388 0.930 . S
C398 C396 1.419 . S
C398 C399 1.362 . S
C399 H389 0.930 . S
C399 C392 1.409 . S
C399 C398 1.362 . S
H400 C406 0.930 . S
H401 C409 0.930 . S
H402 C410 0.930 . S
H403 C411 0.930 . S
H404 C414 0.930 . S
H405 C415 0.930 . S
C406 H400 0.930 . S
C406 C407 1.355 . S
C406 C408 1.415 . S
C407 C406 1.355 . S
C407 C409 1.419 . S
C408 C406 1.415 . S
C408 C413 1.425 . S
C408 C415 1.409 . S
C409 H401 0.930 . S
C409 C407 1.419 . S
C409 C410 1.362 . S
C410 H402 0.930 . S
C410 C409 1.362 . S
C410 C413 1.409 . S
C411 H403 0.930 . S
C411 C412 1.355 . S
C411 C413 1.415 . S
C412 C411 1.355 . S
C412 C414 1.419 . S
C413 C408 1.425 . S
C413 C410 1.409 . S
C413 C411 1.415 . S
C414 H404 0.930 . S
C414 C412 1.419 . S
C414 C415 1.362 . S
C415 H405 0.930 . S
C415 C408 1.409 . S
C415 C414 1.362 . S
H416 C422 0.930 . S
H417 C425 0.930 . S
H418 C426 0.930 . S
H419 C427 0.930 . S
H420 C430 0.930 . S
H421 C431 0.930 . S
C422 H416 0.930 . S
C422 C423 1.355 . S
C422 C424 1.415 . S
C423 C422 1.355 . S
C423 C425 1.419 . S
C424 C422 1.415 . S
C424 C429 1.425 . S
C424 C431 1.409 1_655 S
C425 H417 0.930 . S
C425 C423 1.419 . S
C425 C426 1.362 . S
C426 H418 0.930 . S
C426 C425 1.362 . S
C426 C429 1.409 . S
C427 H419 0.930 . S
C427 C428 1.355 1_655 S
C427 C429 1.415 . S
C428 C427 1.355 1_455 S
C428 C430 1.419 . S
C429 C424 1.425 . S
C429 C426 1.409 . S
C429 C427 1.415 . S
C430 H420 0.930 . S
C430 C428 1.419 . S
C430 C431 1.362 . S
C431 H421 0.930 . S
C431 C424 1.409 1_455 S
C431 C430 1.362 . S
H432 C438 0.930 . S
H433 C441 0.930 . S
H434 C442 0.930 . S
H435 C443 0.930 . S
H436 C446 0.930 . S
H437 C447 0.930 . S
C438 H432 0.930 . S
C438 C439 1.355 . S
C438 C440 1.415 . S
C439 C438 1.355 . S
C439 C441 1.419 . S
C440 C438 1.415 . S
C440 C445 1.425 . S
C440 C447 1.409 . S
C441 H433 0.930 . S
C441 C439 1.419 . S
C441 C442 1.362 . S
C442 H434 0.930 . S
C442 C441 1.362 . S
C442 C445 1.409 . S
C443 H435 0.930 . S
C443 C444 1.355 . S
C443 C445 1.415 . S
C444 C443 1.355 . S
C444 C446 1.419 . S
C445 C440 1.425 . S
C445 C442 1.409 . S
C445 C443 1.415 . S
C446 H436 0.930 . S
C446 C444 1.419 . S
C446 C447 1.362 . S
C447 H437 0.930 . S
C447 C440 1.409 . S
C447 C446 1.362 . S
H448 C454 0.930 . S
H449 C457 0.930 . S
H450 C458 0.930 . S
H451 C459 0.930 . S
H452 C462 0.930 . S
H453 C463 0.930 . S
C454 H448 0.930 . S
C454 C455 1.355 . S
C454 C456 1.415 . S
C455 C454 1.355 . S
C455 C457 1.419 . S
C456 C454 1.415 . S
C456 C461 1.425 . S
C456 C463 1.409 . S
C457 H449 0.930 . S
C457 C455 1.419 . S
C457 C458 1.362 . S
C458 H450 0.930 . S
C458 C457 1.362 . S
C458 C461 1.409 . S
C459 H451 0.930 . S
C459 C460 1.355 . S
C459 C461 1.415 . S
C460 C459 1.355 . S
C460 C462 1.419 . S
C461 C456 1.425 . S
C461 C458 1.409 . S
C461 C459 1.415 . S
C462 H452 0.930 . S
C462 C460 1.419 . S
C462 C463 1.362 . S
C463 H453 0.930 . S
C463 C456 1.409 . S
C463 C462 1.362 . S
H464 C470 0.930 . S
H465 C473 0.930 . S
H466 C474 0.930 . S
H467 C475 0.930 . S
H468 C478 0.930 . S
H469 C479 0.930 . S
C470 H464 0.930 . S
C470 C471 1.355 . S
C470 C472 1.415 . S
C471 C470 1.355 . S
C471 C473 1.419 . S
C472 C470 1.415 . S
C472 C477 1.425 . S
C472 C479 1.409 . S
C473 H465 0.930 . S
C473 C471 1.419 . S
C473 C474 1.362 . S
C474 H466 0.930 . S
C474 C473 1.362 . S
C474 C477 1.409 . S
C475 H467 0.930 . S
C475 C476 1.355 . S
C475 C477 1.415 . S
C476 C475 1.355 . S
C476 C478 1.419 . S
C477 C472 1.425 . S
C477 C474 1.409 . S
C477 C475 1.415 . S
C478 H468 0.930 . S
C478 C476 1.419 . S
C478 C479 1.362 . S
C479 H469 0.930 . S
C479 C472 1.409 . S
C479 C478 1.362 . S
H480 C486 0.930 . S
H481 C489 0.930 . S
H482 C490 0.930 . S
H483 C491 0.930 . S
H484 C494 0.930 . S
H485 C495 0.930 . S
C486 H480 0.930 . S
C486 C487 1.355 . S
C486 C488 1.415 . S
C487 C486 1.355 . S
C487 C489 1.419 . S
C488 C486 1.415 . S
C488 C493 1.425 . S
C488 C495 1.409 . S
C489 H481 0.930 . S
C489 C487 1.419 . S
C489 C490 1.362 . S
C490 H482 0.930 . S
C490 C489 1.362 . S
C490 C493 1.409 . S
C491 H483 0.930 . S
C491 C492 1.355 . S
C491 C493 1.415 . S
C492 C491 1.355 . S
C492 C494 1.419 . S
C493 C488 1.425 . S
C493 C490 1.409 . S
C493 C491 1.415 . S
C494 H484 0.930 . S
C494 C492 1.419 . S
C494 C495 1.362 . S
C495 H485 0.930 . S
C495 C488 1.409 . S
C495 C494 1.362 . S
H496 C502 0.930 . S
H497 C505 0.930 . S
H498 C506 0.930 . S
H499 C507 0.930 . S
H500 C510 0.930 . S
H501 C511 0.930 . S
C502 H496 0.930 . S
C502 C503 1.355 . S
C502 C504 1.415 . S
C503 C502 1.355 . S
C503 C505 1.419 . S
C504 C502 1.415 . S
C504 C509 1.425 . S
C504 C511 1.409 . S
C505 H497 0.930 . S
C505 C503 1.419 . S
C505 C506 1.362 . S
C506 H498 0.930 . S
C506 C505 1.362 . S
C506 C509 1.409 . S
C507 H499 0.930 . S
C507 C508 1.355 . S
C507 C509 1.415 . S
C508 C507 1.355 . S
C508 C510 1.419 . S
C509 C504 1.425 . S
C509 C506 1.409 . S
C509 C507 1.415 . S
C510 H500 0.930 . S
C510 C508 1.419 . S
C510 C511 1.362 . S
C511 H501 0.930 . S
C511 C504 1.409 . S
C511 C510 1.362 . S
H512 C518 0.930 . S
H513 C521 0.930 . S
H514 C522 0.930 . S
H515 C523 0.930 . S
H516 C526 0.930 . S
H517 C527 0.930 . S
C518 H512 0.930 . S
C518 C519 1.355 . S
C518 C520 1.415 . S
C519 C518 1.355 . S
C519 C521 1.419 . S
C520 C518 1.415 . S
C520 C525 1.425 . S
C520 C527 1.409 . S
C521 H513 0.930 . S
C521 C519 1.419 . S
C521 C522 1.362 . S
C522 H514 0.930 . S
C522 C521 1.362 . S
C522 C525 1.409 . S
C523 H515 0.930 . S
C523 C524 1.355 . S
C523 C525 1.415 . S
C524 C523 1.355 . S
C524 C526 1.419 . S
C525 C520 1.425 . S
C525 C522 1.409 . S
C525 C523 1.415 . S
C526 H516 0.930 . S
C526 C524 1.419 . S
C526 C527 1.362 . S
C527 H517 0.930 . S
C527 C520 1.409 . S
C527 C526 1.362 . S
H528 C534 0.930 . S
H529 C537 0.930 . S
H530 C538 0.930 . S
H531 C539 0.930 . S
H532 C542 0.930 . S
H533 C543 0.930 . S
C534 H528 0.930 . S
C534 C535 1.355 . S
C534 C536 1.415 . S
C535 C534 1.355 . S
C535 C537 1.419 . S
C536 C534 1.415 . S
C536 C541 1.425 . S
C536 C543 1.409 . S
C537 H529 0.930 . S
C537 C535 1.419 . S
C537 C538 1.362 . S
C538 H530 0.930 . S
C538 C537 1.362 . S
C538 C541 1.409 . S
C539 H531 0.930 . S
C539 C540 1.355 . S
C539 C541 1.415 . S
C540 C539 1.355 . S
C540 C542 1.419 . S
C541 C536 1.425 . S
C541 C538 1.409 . S
C541 C539 1.415 . S
C542 H532 0.930 . S
C542 C540 1.419 . S
C542 C543 1.362 . S
C543 H533 0.930 . S
C543 C536 1.409 . S
C543 C542 1.362 . S
H544 C550 0.930 . S
H545 C553 0.930 . S
H546 C554 0.930 . S
H547 C555 0.930 . S
H548 C558 0.930 . S
H549 C559 0.930 . S
C550 H544 0.930 . S
C550 C551 1.355 . S
C550 C552 1.415 . S
C551 C550 1.355 . S
C551 C553 1.419 . S
C552 C550 1.415 . S
C552 C557 1.425 . S
C552 C559 1.409 . S
C553 H545 0.930 . S
C553 C551 1.419 . S
C553 C554 1.362 . S
C554 H546 0.930 . S
C554 C553 1.362 . S
C554 C557 1.409 . S
C555 H547 0.930 . S
C555 C556 1.355 . S
C555 C557 1.415 . S
C556 C555 1.355 . S
C556 C558 1.419 . S
C557 C552 1.425 . S
C557 C554 1.409 . S
C557 C555 1.415 . S
C558 H548 0.930 . S
C558 C556 1.419 . S
C558 C559 1.362 . S
C559 H549 0.930 . S
C559 C552 1.409 . S
C559 C558 1.362 . S
C183 C8 1.476 . S
C188 C97 1.400 . S
C199 C31 1.404 . S
C204 C108 1.392 . S
C215 C53 1.398 . S
C220 C116 1.312 . S
C236 C130 1.375 . S
C231 C74 1.410 . S
C252 C141 1.399 . S
C247 C26 1.463 . S
C263 C48 1.401 1_455 S
C268 C152 1.349 . S
C279 C71 1.408 . S
C284 C160 1.397 . S
C295 C5 1.424 . S
C300 C174 1.361 . S
C311 C50 1.332 . S
C316 C171 1.278 . S
C332 C138 1.200 . S
C327 C70 1.237 . S
C348 C149 1.321 . S
C343 C4 1.339 . S
C359 C28 1.394 . S
C364 C163 1.415 . S
C380 C105 1.280 . S
C375 C73 1.330 . S
C391 C7 1.410 1_655 S
C396 C119 1.404 . S
C412 C127 1.317 . S
C407 C30 1.341 . S
C428 C94 1.159 . S
C423 C52 1.260 . S
C444 N158 1.433 . S
C439 C9 1.478 . S
C460 N169 1.429 . S
C455 C29 1.412 . S
C471 C51 1.394 . S
C476 N136 1.409 . S
C492 N147 1.364 . S
C487 C75 1.431 . S
C508 N114 1.444 . S
C503 C27 1.462 . S
C519 C49 1.419 . S
C524 N125 1.406 . S
C540 N92 1.392 . S
C535 C72 1.363 . S
C556 N103 1.438 . S
C551 C6 1.424 . S
