# Generated by pormake.
# Topology eea, (3,6)-cn, num edge types: 1
# Building blocks:
#     Node 0, Type 0, BuildingBlock: CUQRIR_clean_linker_1, # of connection points: 3
#     Node 1, Type 0, BuildingBlock: CUQRIR_clean_linker_1, # of connection points: 3
#     Node 2, Type 0, BuildingBlock: CUQRIR_clean_linker_1, # of connection points: 3
#     Node 3, Type 0, BuildingBlock: CUQRIR_clean_linker_1, # of connection points: 3
#     Node 4, Type 0, BuildingBlock: CUQRIR_clean_linker_1, # of connection points: 3
#     Node 5, Type 0, BuildingBlock: CUQRIR_clean_linker_1, # of connection points: 3
#     Node 6, Type 0, BuildingBlock: CUQRIR_clean_linker_1, # of connection points: 3
#     Node 7, Type 0, BuildingBlock: CUQRIR_clean_linker_1, # of connection points: 3
#     Node 8, Type 0, BuildingBlock: CUQRIR_clean_linker_1, # of connection points: 3
#     Node 9, Type 0, BuildingBlock: CUQRIR_clean_linker_1, # of connection points: 3
#     Node 10, Type 0, BuildingBlock: CUQRIR_clean_linker_1, # of connection points: 3
#     Node 11, Type 0, BuildingBlock: CUQRIR_clean_linker_1, # of connection points: 3
#     Node 12, Type 0, BuildingBlock: CUQRIR_clean_linker_1, # of connection points: 3
#     Node 13, Type 0, BuildingBlock: CUQRIR_clean_linker_1, # of connection points: 3
#     Node 14, Type 0, BuildingBlock: CUQRIR_clean_linker_1, # of connection points: 3
#     Node 15, Type 0, BuildingBlock: CUQRIR_clean_linker_1, # of connection points: 3
#     Node 16, Type 0, BuildingBlock: CUQRIR_clean_linker_1, # of connection points: 3
#     Node 17, Type 0, BuildingBlock: CUQRIR_clean_linker_1, # of connection points: 3
#     Node 18, Type 1, BuildingBlock: CUKXOW_clean_sbu_0, # of connection points: 6
#     Node 19, Type 1, BuildingBlock: CUKXOW_clean_sbu_0, # of connection points: 6
#     Node 20, Type 1, BuildingBlock: CUKXOW_clean_sbu_0, # of connection points: 6
#     Node 21, Type 1, BuildingBlock: CUKXOW_clean_sbu_0, # of connection points: 6
#     Node 22, Type 1, BuildingBlock: CUKXOW_clean_sbu_0, # of connection points: 6
#     Node 23, Type 1, BuildingBlock: CUKXOW_clean_sbu_0, # of connection points: 6
#     Node 24, Type 1, BuildingBlock: CUKXOW_clean_sbu_0, # of connection points: 6
#     Node 25, Type 1, BuildingBlock: CUKXOW_clean_sbu_0, # of connection points: 6
#     Node 26, Type 1, BuildingBlock: CUKXOW_clean_sbu_0, # of connection points: 6
#     Edge 27, Type (0, 1), BuildingBlock: OJICUG_clean_linker_0, # of connection points: 2
#     Edge 28, Type (0, 1), BuildingBlock: OJICUG_clean_linker_0, # of connection points: 2
#     Edge 29, Type (0, 1), BuildingBlock: OJICUG_clean_linker_0, # of connection points: 2
#     Edge 30, Type (0, 1), BuildingBlock: OJICUG_clean_linker_0, # of connection points: 2
#     Edge 31, Type (0, 1), BuildingBlock: OJICUG_clean_linker_0, # of connection points: 2
#     Edge 32, Type (0, 1), BuildingBlock: OJICUG_clean_linker_0, # of connection points: 2
#     Edge 33, Type (0, 1), BuildingBlock: OJICUG_clean_linker_0, # of connection points: 2
#     Edge 34, Type (0, 1), BuildingBlock: OJICUG_clean_linker_0, # of connection points: 2
#     Edge 35, Type (0, 1), BuildingBlock: OJICUG_clean_linker_0, # of connection points: 2
#     Edge 36, Type (0, 1), BuildingBlock: OJICUG_clean_linker_0, # of connection points: 2
#     Edge 37, Type (0, 1), BuildingBlock: OJICUG_clean_linker_0, # of connection points: 2
#     Edge 38, Type (0, 1), BuildingBlock: OJICUG_clean_linker_0, # of connection points: 2
#     Edge 39, Type (0, 1), BuildingBlock: OJICUG_clean_linker_0, # of connection points: 2
#     Edge 40, Type (0, 1), BuildingBlock: OJICUG_clean_linker_0, # of connection points: 2
#     Edge 41, Type (0, 1), BuildingBlock: OJICUG_clean_linker_0, # of connection points: 2
#     Edge 42, Type (0, 1), BuildingBlock: OJICUG_clean_linker_0, # of connection points: 2
#     Edge 43, Type (0, 1), BuildingBlock: OJICUG_clean_linker_0, # of connection points: 2
#     Edge 44, Type (0, 1), BuildingBlock: OJICUG_clean_linker_0, # of connection points: 2
#     Edge 45, Type (0, 1), BuildingBlock: OJICUG_clean_linker_0, # of connection points: 2
#     Edge 46, Type (0, 1), BuildingBlock: OJICUG_clean_linker_0, # of connection points: 2
#     Edge 47, Type (0, 1), BuildingBlock: OJICUG_clean_linker_0, # of connection points: 2
#     Edge 48, Type (0, 1), BuildingBlock: OJICUG_clean_linker_0, # of connection points: 2
#     Edge 49, Type (0, 1), BuildingBlock: OJICUG_clean_linker_0, # of connection points: 2
#     Edge 50, Type (0, 1), BuildingBlock: OJICUG_clean_linker_0, # of connection points: 2
#     Edge 51, Type (0, 1), BuildingBlock: OJICUG_clean_linker_0, # of connection points: 2
#     Edge 52, Type (0, 1), BuildingBlock: OJICUG_clean_linker_0, # of connection points: 2
#     Edge 53, Type (0, 1), BuildingBlock: OJICUG_clean_linker_0, # of connection points: 2
#     Edge 54, Type (0, 1), BuildingBlock: OJICUG_clean_linker_0, # of connection points: 2
#     Edge 55, Type (0, 1), BuildingBlock: OJICUG_clean_linker_0, # of connection points: 2
#     Edge 56, Type (0, 1), BuildingBlock: OJICUG_clean_linker_0, # of connection points: 2
#     Edge 57, Type (0, 1), BuildingBlock: OJICUG_clean_linker_0, # of connection points: 2
#     Edge 58, Type (0, 1), BuildingBlock: OJICUG_clean_linker_0, # of connection points: 2
#     Edge 59, Type (0, 1), BuildingBlock: OJICUG_clean_linker_0, # of connection points: 2
#     Edge 60, Type (0, 1), BuildingBlock: OJICUG_clean_linker_0, # of connection points: 2
#     Edge 61, Type (0, 1), BuildingBlock: OJICUG_clean_linker_0, # of connection points: 2
#     Edge 62, Type (0, 1), BuildingBlock: OJICUG_clean_linker_0, # of connection points: 2
#     Edge 63, Type (0, 1), BuildingBlock: OJICUG_clean_linker_0, # of connection points: 2
#     Edge 64, Type (0, 1), BuildingBlock: OJICUG_clean_linker_0, # of connection points: 2
#     Edge 65, Type (0, 1), BuildingBlock: OJICUG_clean_linker_0, # of connection points: 2
#     Edge 66, Type (0, 1), BuildingBlock: OJICUG_clean_linker_0, # of connection points: 2
#     Edge 67, Type (0, 1), BuildingBlock: OJICUG_clean_linker_0, # of connection points: 2
#     Edge 68, Type (0, 1), BuildingBlock: OJICUG_clean_linker_0, # of connection points: 2
#     Edge 69, Type (0, 1), BuildingBlock: OJICUG_clean_linker_0, # of connection points: 2
#     Edge 70, Type (0, 1), BuildingBlock: OJICUG_clean_linker_0, # of connection points: 2
#     Edge 71, Type (0, 1), BuildingBlock: OJICUG_clean_linker_0, # of connection points: 2
#     Edge 72, Type (0, 1), BuildingBlock: OJICUG_clean_linker_0, # of connection points: 2
#     Edge 73, Type (0, 1), BuildingBlock: OJICUG_clean_linker_0, # of connection points: 2
#     Edge 74, Type (0, 1), BuildingBlock: OJICUG_clean_linker_0, # of connection points: 2
#     Edge 75, Type (0, 1), BuildingBlock: OJICUG_clean_linker_0, # of connection points: 2
#     Edge 76, Type (0, 1), BuildingBlock: OJICUG_clean_linker_0, # of connection points: 2
#     Edge 77, Type (0, 1), BuildingBlock: OJICUG_clean_linker_0, # of connection points: 2
#     Edge 78, Type (0, 1), BuildingBlock: OJICUG_clean_linker_0, # of connection points: 2
#     Edge 79, Type (0, 1), BuildingBlock: OJICUG_clean_linker_0, # of connection points: 2
#     Edge 80, Type (0, 1), BuildingBlock: OJICUG_clean_linker_0, # of connection points: 2
# Relax obj value: 0.073
# Max RMSD: 0.219
# Mean RMSD: 0.146
data_MOF--net-eea--node1-CUKXOW_clean_sbu_0--node2-CUQRIR_clean_linker_1--edge1-OJICUG_clean_linker_0
_symmetry_space_group_name_H-M    P1
_symmetry_Int_Tables_number       1
_symmetry_cell_setting            triclinic
loop_
_symmetry_equiv_pos_as_xyz
'x, y, z'
_cell_length_a     39.242562
_cell_length_b     35.956427
_cell_length_c     32.277398
_cell_angle_alpha  86.200802
_cell_angle_beta   93.326971
_cell_angle_gamma 119.11747
loop_
_atom_site_label
_atom_site_type_symbol
_atom_site_fract_x
_atom_site_fract_y
_atom_site_fract_z
_atom_type_partial_charge
C0 C 0.21269 0.11983 0.43783 0.0
N1 N 0.23143 0.15784 0.4566 0.0
N2 N 0.22503 0.09254 0.4544 0.0
C3 C 0.18446 0.11039 0.40143 0.0
C4 C 0.25171 0.11519 0.484 0.0
N5 N 0.25592 0.1548 0.48515 0.0
C6 C 0.27277 0.09804 0.51302 0.0
H7 H 0.15458 0.09731 0.41318 0.0
H8 H 0.18488 0.08643 0.38181 0.0
H9 H 0.19138 0.13983 0.38223 0.0
H10 H 0.3017 0.10751 0.50036 0.0
H11 H 0.25611 0.06276 0.51633 0.0
H12 H 0.27757 0.11144 0.54417 0.0
C13 C 0.90677 0.13531 0.44852 0.0
N14 N 0.92142 0.16769 0.47524 0.0
N15 N 0.87216 0.103 0.4613 0.0
C16 C 0.92536 0.13626 0.40867 0.0
C17 C 0.8664 0.11632 0.49707 0.0
N18 N 0.89598 0.1557 0.50579 0.0
C19 C 0.83117 0.09073 0.52334 0.0
H20 H 0.919 0.15583 0.38473 0.0
H21 H 0.91393 0.10391 0.397 0.0
H22 H 0.95751 0.15109 0.4132 0.0
H23 H 0.83872 0.09736 0.5567 0.0
H24 H 0.81899 0.05611 0.51921 0.0
H25 H 0.80836 0.09956 0.51364 0.0
C26 C 0.89219 0.74782 0.41325 0.0
N27 N 0.9048 0.73346 0.44736 0.0
N28 N 0.8561 0.74212 0.41846 0.0
C29 C 0.91592 0.76921 0.37532 0.0
C30 C 0.84685 0.72359 0.45694 0.0
N31 N 0.87618 0.71769 0.47444 0.0
C32 C 0.81156 0.71687 0.47966 0.0
H33 H 0.93549 0.80345 0.38088 0.0
H34 H 0.8967 0.76662 0.34779 0.0
H35 H 0.93434 0.75477 0.36893 0.0
H36 H 0.78695 0.6848 0.47316 0.0
H37 H 0.80252 0.74087 0.46923 0.0
H38 H 0.81731 0.71891 0.51371 0.0
C39 C 0.14657 0.30628 0.66359 0.0
N40 N 0.17085 0.31629 0.63166 0.0
N41 N 0.11237 0.30362 0.6501 0.0
C42 C 0.1553 0.29601 0.70756 0.0
C43 C 0.11624 0.31214 0.6088 0.0
N44 N 0.152 0.32041 0.59746 0.0
C45 C 0.083 0.30583 0.57892 0.0
H46 H 0.14739 0.26185 0.71075 0.0
H47 H 0.13817 0.30204 0.72978 0.0
H48 H 0.1869 0.31528 0.71532 0.0
H49 H 0.07944 0.33466 0.57769 0.0
H50 H 0.05523 0.27838 0.58957 0.0
H51 H 0.08834 0.30001 0.54722 0.0
C52 C 0.81413 0.91617 0.63377 0.0
N53 N 0.79891 0.88363 0.60723 0.0
N54 N 0.80278 0.94555 0.62224 0.0
C55 C 0.83841 0.91811 0.67221 0.0
C56 C 0.78035 0.93 0.58763 0.0
N57 N 0.77743 0.89222 0.5786 0.0
C58 C 0.76235 0.95271 0.56159 0.0
H59 H 0.83694 0.93877 0.6953 0.0
H60 H 0.86923 0.93142 0.66343 0.0
H61 H 0.82863 0.88575 0.68659 0.0
H62 H 0.76205 0.94714 0.52813 0.0
H63 H 0.77849 0.98751 0.5661 0.0
H64 H 0.73175 0.94016 0.57084 0.0
C65 C 0.14266 0.94332 0.63821 0.0
N66 N 0.12485 0.90593 0.61835 0.0
N67 N 0.17967 0.96815 0.62533 0.0
C68 C 0.12541 0.95403 0.67298 0.0
C69 C 0.18384 0.94473 0.59702 0.0
N70 N 0.15094 0.90673 0.59322 0.0
C71 C 0.21924 0.96021 0.57088 0.0
H72 H 0.10981 0.97104 0.65974 0.0
H73 H 0.14859 0.97519 0.69492 0.0
H74 H 0.1044 0.92476 0.69028 0.0
H75 H 0.23908 0.94918 0.58593 0.0
H76 H 0.23528 0.99552 0.56774 0.0
H77 H 0.21077 0.9472 0.53943 0.0
C78 C 0.87835 0.45433 0.77169 0.0
N79 N 0.89879 0.49195 0.79095 0.0
N80 N 0.88951 0.42558 0.78685 0.0
C81 C 0.84943 0.4466 0.73627 0.0
C82 C 0.91721 0.44699 0.81614 0.0
N83 N 0.92317 0.48722 0.81839 0.0
C84 C 0.93744 0.42793 0.84393 0.0
H85 H 0.82009 0.43468 0.74906 0.0
H86 H 0.84814 0.42232 0.71581 0.0
H87 H 0.85701 0.47658 0.71773 0.0
H88 H 0.9196 0.39272 0.84673 0.0
H89 H 0.9433 0.44092 0.87538 0.0
H90 H 0.9658 0.43621 0.83052 0.0
C91 C 0.57025 0.47544 0.77549 0.0
N92 N 0.5869 0.50692 0.80313 0.0
N93 N 0.53177 0.45032 0.78228 0.0
C94 C 0.59107 0.47042 0.74032 0.0
C95 C 0.52526 0.46757 0.81485 0.0
N96 N 0.55844 0.50244 0.82727 0.0
C97 C 0.48715 0.44791 0.83706 0.0
H98 H 0.61355 0.50196 0.72794 0.0
H99 H 0.57027 0.45307 0.71475 0.0
H100 H 0.6058 0.45196 0.75197 0.0
H101 H 0.46927 0.41344 0.83148 0.0
H102 H 0.47041 0.46422 0.82554 0.0
H103 H 0.49216 0.45176 0.87105 0.0
C104 C 0.55343 0.0814 0.74626 0.0
N105 N 0.56649 0.06613 0.7793 0.0
N106 N 0.5179 0.07655 0.75315 0.0
C107 C 0.57617 0.10271 0.70773 0.0
C108 C 0.50944 0.05756 0.79152 0.0
N109 N 0.53869 0.05062 0.80733 0.0
C110 C 0.47511 0.05122 0.81582 0.0
H111 H 0.5965 0.13677 0.71335 0.0
H112 H 0.55635 0.10082 0.68102 0.0
H113 H 0.59374 0.08767 0.69998 0.0
H114 H 0.44972 0.01985 0.80877 0.0
H115 H 0.46694 0.07627 0.80722 0.0
H116 H 0.4815 0.05186 0.84978 0.0
C117 C 0.81284 0.63707 1.00113 0.0
N118 N 0.84015 0.65004 0.97184 0.0
N119 N 0.78702 0.65112 0.99087 0.0
C120 C 0.80892 0.60692 0.0376 0.0
C121 C 0.80035 0.67406 0.95482 0.0
N122 N 0.83233 0.67306 0.94283 0.0
C123 C 0.78113 0.69637 0.93048 0.0
H124 H 0.78586 0.5743 0.03015 0.0
H125 H 0.80029 0.61621 0.06553 0.0
H126 H 0.83665 0.60653 0.04527 0.0
H127 H 0.76413 0.70423 0.9512 0.0
H128 H 0.76094 0.67537 0.90633 0.0
H129 H 0.80343 0.72595 0.91465 0.0
C130 C 0.47526 0.24171 0.97581 0.0
N131 N 0.45972 0.21168 0.94663 0.0
N132 N 0.46469 0.27224 0.96787 0.0
C133 C 0.49931 0.24012 1.01323 0.0
C134 C 0.44235 0.25996 0.93263 0.0
N135 N 0.4388 0.22299 0.91976 0.0
C136 C 0.42536 0.28532 0.9096 0.0
H137 H 0.48897 0.20676 0.02498 0.0
H138 H 0.49832 0.25897 0.03853 0.0
H139 H 0.53006 0.25357 1.0041 0.0
H140 H 0.42436 0.28179 0.87559 0.0
H141 H 0.44266 0.31963 0.91617 0.0
H142 H 0.3951 0.27331 0.91973 0.0
C143 C 0.80478 0.27563 0.96788 0.0
N144 N 0.78599 0.23794 0.94856 0.0
N145 N 0.84132 0.29997 0.95352 0.0
C146 C 0.78909 0.28711 1.0035 0.0
C147 C 0.8442 0.27597 0.92491 0.0
N148 N 0.81099 0.23816 0.92227 0.0
C149 C 0.87883 0.29042 0.89783 0.0
H150 H 0.77337 0.30425 0.99105 0.0
H151 H 0.81314 0.30842 0.02457 0.0
H152 H 0.76852 0.25816 0.02154 0.0
H153 H 0.89558 0.32569 0.89459 0.0
H154 H 0.86937 0.27735 0.86648 0.0
H155 H 0.89835 0.27859 0.91214 0.0
C156 C 0.54879 0.78785 0.09602 0.0
N157 N 0.56817 0.82417 0.11746 0.0
N158 N 0.56122 0.75948 0.10849 0.0
C159 C 0.51957 0.78117 0.06113 0.0
C160 C 0.58864 0.77981 0.13847 0.0
N161 N 0.59315 0.81908 0.1437 0.0
C162 C 0.60968 0.76038 0.1643 0.0
H163 H 0.51894 0.75858 0.0389 0.0
H164 H 0.52635 0.81184 0.04438 0.0
H165 H 0.49017 0.76763 0.07428 0.0
H166 H 0.59229 0.72509 0.16592 0.0
H167 H 0.61585 0.77207 0.1963 0.0
H168 H 0.63792 0.76976 0.14998 0.0
C169 C 0.23734 0.79908 0.11753 0.0
N170 N 0.25369 0.83111 0.14461 0.0
N171 N 0.20084 0.76984 0.12857 0.0
C172 C 0.25634 0.79734 0.07905 0.0
C173 C 0.19538 0.7848 0.16342 0.0
N174 N 0.22711 0.8223 0.17319 0.0
C175 C 0.15946 0.7615 0.18915 0.0
H176 H 0.27653 0.82987 0.06656 0.0
H177 H 0.23414 0.77963 0.05467 0.0
H178 H 0.2734 0.78056 0.08706 0.0
H179 H 0.16691 0.76751 0.22262 0.0
H180 H 0.14503 0.72668 0.1849 0.0
H181 H 0.13849 0.77294 0.17919 0.0
C182 C 0.22104 0.41005 0.07636 0.0
N183 N 0.2339 0.39271 0.10789 0.0
N184 N 0.18795 0.4095 0.08654 0.0
C185 C 0.24206 0.42968 0.03648 0.0
C186 C 0.1811 0.39181 0.12542 0.0
N187 N 0.20884 0.38138 0.13854 0.0
C188 C 0.14927 0.38846 0.15211 0.0
H189 H 0.22587 0.44128 1.01498 0.0
H190 H 0.24595 0.40572 0.02045 0.0
H191 H 0.27149 0.45652 0.04358 0.0
H192 H 0.12266 0.35742 0.14725 0.0
H193 H 0.142 0.41425 0.1437 0.0
H194 H 0.15788 0.39019 0.18556 0.0
C195 C 0.4868 0.9762 0.33899 0.0
N196 N 0.51113 0.98655 0.3071 0.0
N197 N 0.45605 0.98211 0.32768 0.0
C198 C 0.49152 0.95715 0.38042 0.0
C199 C 0.4627 0.99699 0.28771 0.0
N200 N 0.49588 0.99908 0.27493 0.0
C201 C 0.43507 1.00636 0.26036 0.0
H202 H 0.47957 0.92233 0.37798 0.0
H203 H 0.47557 0.96249 0.40461 0.0
H204 H 0.52288 0.97118 0.3897 0.0
H205 H 0.42171 0.02104 0.27808 0.0
H206 H 0.41125 0.97606 0.24843 0.0
H207 H 0.45021 0.0284 0.23375 0.0
C208 C 0.14904 0.58383 0.29818 0.0
N209 N 0.13223 0.55123 0.27171 0.0
N210 N 0.13897 0.61433 0.28727 0.0
C211 C 0.17368 0.58475 0.33598 0.0
C212 C 0.11567 0.59941 0.25309 0.0
N213 N 0.11095 0.56088 0.24372 0.0
C214 C 0.09852 0.62346 0.22785 0.0
H215 H 0.16244 0.55239 0.3509 0.0
H216 H 0.17455 0.60684 0.35894 0.0
H217 H 0.20387 0.59561 0.32626 0.0
H218 H 0.09692 0.61741 0.19433 0.0
H219 H 0.11613 0.65823 0.23212 0.0
H220 H 0.06851 0.61257 0.23817 0.0
C221 C 0.47727 0.60473 0.31454 0.0
N222 N 0.45888 0.5685 0.29288 0.0
N223 N 0.51515 0.62814 0.30395 0.0
C224 C 0.45942 0.6159 0.34832 0.0
C225 C 0.51931 0.60504 0.27527 0.0
N226 N 0.48548 0.56858 0.26905 0.0
C227 C 0.55559 0.61986 0.2507 0.0
H228 H 0.44528 0.6342 0.33435 0.0
H229 H 0.4821 0.63603 0.37125 0.0
H230 H 0.43706 0.58674 0.3646 0.0
H231 H 0.57269 0.65515 0.24834 0.0
H232 H 0.54832 0.60779 0.21887 0.0
H233 H 0.57409 0.60747 0.26663 0.0
Tb234 Tb 0.56362 0.05707 0.03064 0.0
C235 C 0.54091 0.96558 0.07204 0.0
Tb236 Tb 0.47465 0.99147 0.04816 0.0
O237 O 0.57948 0.06817 0.09644 0.0
O238 O 0.52189 0.04574 0.07543 0.0
O239 O 0.56668 0.99855 0.04888 0.0
C240 C 0.40595 0.94494 0.08703 0.0
O241 O 0.50586 0.9605 0.07996 0.0
C242 C 0.49835 0.99318 0.97234 0.0
C243 C 0.49507 0.07904 1.00018 0.0
O244 O 0.42691 0.93015 0.07214 0.0
O245 O 0.42352 0.9859 0.07956 0.0
O246 O 0.46164 0.97627 0.98139 0.0
O247 O 0.51764 1.00218 1.00583 0.0
O248 O 0.46931 0.0466 0.02346 0.0
O249 O 0.53132 0.08589 0.99565 0.0
C250 C 0.63269 0.11122 0.99737 0.0
O251 O 0.60863 0.1216 1.01237 0.0
O252 O 0.6179 0.07005 1.00105 0.0
C253 C 0.54359 0.05171 0.1076 0.0
Tb254 Tb 0.99533 0.55756 0.02893 0.0
C255 C 0.08426 0.61845 0.05119 0.0
Tb256 Tb 0.0553 0.52582 0.01877 0.0
O257 O 1.00129 0.55672 0.09743 0.0
O258 O 0.01576 0.51982 0.06341 0.0
O259 O 0.04991 0.61574 0.04051 0.0
C260 C 0.10083 0.49087 0.03161 0.0
O261 O 0.09154 0.58625 0.04853 0.0
C262 C 0.03159 0.54831 0.9483 0.0
C263 C 0.96554 0.4629 1.00216 0.0
O264 O 0.11194 0.52852 1.01425 0.0
O265 O 0.06492 0.47385 0.04248 0.0
O266 O 0.04873 0.52511 0.95086 0.0
O267 O 0.03411 0.56236 0.98379 0.0
O268 O 1.00043 0.46666 1.0117 0.0
O269 O 0.95831 0.49524 1.00294 0.0
C270 C 0.94766 0.58918 1.0072 0.0
O271 O 0.93736 0.55266 0.02681 0.0
O272 O 0.98477 0.60822 1.00084 0.0
C273 C 0.01828 0.53317 0.09921 0.0
Tb274 Tb 0.46441 0.49378 0.04506 0.0
C275 C 0.49737 0.42685 0.04378 0.0
Tb276 Tb 0.55527 0.5245 0.05993 0.0
O277 O 0.47543 0.5222 0.98085 0.0
O278 O 0.51257 0.50303 1.01162 0.0
O279 O 0.46691 0.43358 0.04678 0.0
C280 C 0.62915 0.56266 0.04006 0.0
O281 O 0.53443 0.4579 0.04618 0.0
C282 C 0.51777 0.50995 0.1298 0.0
C283 C 0.52267 0.59151 0.05936 0.0
O284 O 0.61508 0.53676 0.07233 0.0
O285 O 0.6018 0.56654 0.01902 0.0
O286 O 0.55486 0.52194 0.12888 0.0
O287 O 0.50569 0.50587 0.09274 0.0
O288 O 0.55287 0.58447 0.05675 0.0
O289 O 0.48558 0.56078 0.05731 0.0
C290 C 0.39052 0.45433 0.06953 0.0
O291 O 0.42072 0.48071 0.09074 0.0
O292 O 0.40151 0.45108 0.03317 0.0
C293 C 0.50881 0.52227 0.9792 0.0
Tb294 Tb 0.23062 0.39065 0.35958 0.0
C295 C 0.20382 0.29686 0.39948 0.0
Tb296 Tb 0.14117 0.32884 0.37695 0.0
O297 O 0.24479 0.39821 0.42562 0.0
O298 O 0.18895 0.38393 0.40276 0.0
O299 O 0.23163 0.33117 0.37944 0.0
C300 C 0.07211 0.28537 0.41606 0.0
O301 O 0.16785 0.29101 0.40381 0.0
C302 C 0.16523 0.32596 0.30227 0.0
C303 C 0.16531 0.41754 0.33102 0.0
O304 O 0.07687 0.29882 0.37732 0.0
O305 O 0.10641 0.29564 0.43266 0.0
O306 O 0.12859 0.3105 0.3107 0.0
O307 O 0.18395 0.33602 0.33596 0.0
O308 O 0.14079 0.3881 0.35766 0.0
O309 O 0.19962 0.42042 0.3233 0.0
C310 C 0.30113 0.44419 0.32886 0.0
O311 O 0.27776 0.45508 0.34466 0.0
O312 O 0.2848 0.40283 0.33024 0.0
C313 C 0.20949 0.38734 0.4354 0.0
Tb314 Tb 0.66451 0.89168 0.36304 0.0
C315 C 0.75523 0.95355 0.38079 0.0
Tb316 Tb 0.72734 0.86123 0.34669 0.0
O317 O 0.66338 0.87904 0.43171 0.0
O318 O 0.69645 0.86599 0.39473 0.0
O319 O 0.71994 0.94999 0.37325 0.0
C320 C 0.7713 0.82414 0.35663 0.0
O321 O 0.76345 0.92231 0.37551 0.0
C322 C 0.69996 0.8832 0.27718 0.0
C323 C 0.63642 0.79592 0.34256 0.0
O324 O 0.78444 0.86442 0.34688 0.0
O325 O 0.73394 0.80537 0.36142 0.0
O326 O 0.72521 0.86953 0.278 0.0
O327 O 0.69498 0.88628 0.31456 0.0
O328 O 0.6723 0.80146 0.34982 0.0
O329 O 0.62803 0.82762 0.34094 0.0
C330 C 0.61814 0.92476 0.34136 0.0
O331 O 0.60705 0.88762 0.36 0.0
O332 O 0.65553 0.94383 0.33608 0.0
C333 C 0.68853 0.86495 0.43203 0.0
Tb334 Tb 0.13425 0.82925 0.3858 0.0
C335 C 0.16683 0.76783 0.36318 0.0
Tb336 Tb 0.22447 0.86101 0.39507 0.0
O337 O 0.13417 0.83026 0.31706 0.0
O338 O 0.18497 0.86569 0.3513 0.0
O339 O 0.1359 0.77119 0.37284 0.0
C340 C 0.29975 0.89757 0.38007 0.0
O341 O 0.20331 0.79958 0.36659 0.0
C342 C 0.18754 0.83905 0.4657 0.0
C343 C 0.19276 0.92535 0.40965 0.0
O344 O 0.27984 0.8598 0.39764 0.0
O345 O 0.2772 0.91385 0.37024 0.0
O346 O 0.22527 0.86125 0.46322 0.0
O347 O 0.17417 0.82584 0.43004 0.0
O348 O 0.22316 0.92038 0.4017 0.0
O349 O 0.15618 0.89357 0.40843 0.0
C350 C 0.06132 0.79469 0.41234 0.0
O351 O 0.07929 0.83068 0.39094 0.0
O352 O 0.08397 0.77788 0.41773 0.0
C353 C 0.17217 0.85303 0.31535 0.0
Tb354 Tb 0.90131 0.72778 0.69874 0.0
C355 C 0.87649 0.63614 0.74119 0.0
Tb356 Tb 0.81199 0.66414 0.71601 0.0
O357 O 0.91714 0.73923 0.76452 0.0
O358 O 0.85978 0.71813 0.74319 0.0
O359 O 0.90279 0.66846 0.71781 0.0
C360 C 0.74261 0.61823 0.75362 0.0
O361 O 0.84193 0.63242 0.74897 0.0
C362 C 0.83558 0.66469 0.64045 0.0
C363 C 0.83407 0.75176 0.66761 0.0
O364 O 0.76342 0.60307 0.73913 0.0
O365 O 0.76073 0.65925 0.7465 0.0
O366 O 0.79897 0.64884 0.64931 0.0
O367 O 0.85479 0.67328 0.674 0.0
O368 O 0.8079 0.71986 0.69101 0.0
O369 O 0.87004 0.75762 0.66329 0.0
C370 C 0.97067 0.78045 0.66507 0.0
O371 O 0.94706 0.79167 0.67973 0.0
O372 O 0.95528 0.73924 0.66937 0.0
C373 C 0.88131 0.7239 0.77549 0.0
Tb374 Tb 0.32636 0.22733 0.70107 0.0
C375 C 0.41692 0.29192 0.71472 0.0
Tb376 Tb 0.39057 0.19875 0.68482 0.0
O377 O 0.32569 0.21518 0.76985 0.0
O378 O 0.35945 0.20306 0.73304 0.0
O379 O 0.38114 0.28684 0.70735 0.0
C380 C 0.43395 0.16122 0.69649 0.0
O381 O 0.42602 0.26095 0.71181 0.0
C382 C 0.36333 0.22117 0.61563 0.0
C383 C 0.29981 0.13302 0.67513 0.0
O384 O 0.44683 0.20034 0.68222 0.0
O385 O 0.39736 0.14405 0.70499 0.0
O386 O 0.38906 0.20812 0.61614 0.0
O387 O 0.35764 0.223 0.65305 0.0
O388 O 0.33575 0.13865 0.6821 0.0
O389 O 0.29079 0.16405 0.67673 0.0
C390 C 0.27974 0.25994 0.67883 0.0
O391 O 0.26848 0.22215 0.69605 0.0
O392 O 0.31736 0.27989 0.67553 0.0
C393 C 0.35158 0.2021 0.77037 0.0
Tb394 Tb 0.79541 0.16191 0.7145 0.0
C395 C 0.82825 0.10005 0.69382 0.0
Tb396 Tb 0.88523 0.19323 0.72543 0.0
O397 O 0.79617 0.16243 0.6458 0.0
O398 O 0.84653 0.19807 0.6806 0.0
O399 O 0.79718 0.10365 0.70236 0.0
C400 C 0.96038 0.22917 0.71119 0.0
O401 O 0.86468 0.13172 0.69769 0.0
C402 C 0.84732 0.17135 0.7952 0.0
C403 C 0.85399 0.25805 0.73911 0.0
O404 O 0.94085 0.19278 0.73138 0.0
O405 O 0.93752 0.24432 0.69848 0.0
O406 O 0.88506 0.19402 0.79338 0.0
O407 O 0.83444 0.15789 0.75951 0.0
O408 O 0.88436 0.25275 0.73206 0.0
O409 O 0.81729 0.22647 0.73705 0.0
C410 C 0.72229 0.12694 0.74054 0.0
O411 O 0.74022 0.163 0.71922 0.0
O412 O 0.74508 0.11032 0.74608 0.0
C413 C 0.83422 0.18511 0.64458 0.0
C414 C 0.32349 0.8532 0.14597 0.0
C415 C 0.2939 0.86476 0.14317 0.0
H416 H 0.38129 0.8686 0.12948 0.0
C417 C 0.30312 0.90544 0.126 0.0
H418 H 0.31692 0.82168 0.15812 0.0
C419 C 0.34032 0.9327 0.10975 0.0
C420 C 0.36859 0.91925 0.10929 0.0
H421 H 0.28065 0.91472 0.12228 0.0
H422 H 0.34604 0.96308 0.09509 0.0
C423 C 0.36009 0.87974 0.12881 0.0
C424 C 0.12748 0.40525 0.0575 0.0
C425 C 0.16774 0.42926 0.06487 0.0
H426 H 0.07454 0.40654 0.04132 0.0
C427 C 0.1868 0.47353 0.05681 0.0
H428 H 0.11257 0.3711 0.0638 0.0
C429 C 0.16531 0.49385 0.04338 0.0
C430 C 0.12463 0.46998 0.03896 0.0
H431 H 0.21787 0.49243 0.0631 0.0
H432 H 0.1801 0.52823 0.03895 0.0
C433 C 0.10595 0.42552 0.04497 0.0
C434 C 0.5116 0.68547 0.09183 0.0
C435 C 0.55048 0.71851 0.09211 0.0
H436 H 0.47211 0.61946 0.08124 0.0
C437 C 0.57945 0.71026 0.07864 0.0
H438 H 0.48879 0.69098 0.10231 0.0
C439 C 0.57014 0.66956 0.06668 0.0
C440 C 0.53147 0.63582 0.06772 0.0
H441 H 0.60956 0.7353 0.07817 0.0
H442 H 0.59357 0.66442 0.05744 0.0
C443 C 0.50217 0.64454 0.07978 0.0
C444 C 0.90814 0.34508 0.98091 0.0
C445 C 0.87167 0.34044 0.96745 0.0
H446 H 0.96633 0.38715 1.00229 0.0
C447 C 0.86587 0.37601 0.966 0.0
H448 H 0.91306 0.31789 0.98246 0.0
C449 C 0.89629 0.41581 0.97733 0.0
C450 C 0.93309 0.42069 0.99044 0.0
H451 H 0.83803 0.37308 0.95533 0.0
H452 H 0.89102 0.44279 0.97542 0.0
C453 C 0.93855 0.38474 0.99222 0.0
C454 C 0.73837 0.63009 0.04514 0.0
C455 C 0.7473 0.63058 1.00358 0.0
H456 H 0.69317 0.60627 0.08986 0.0
C457 C 0.71713 0.6081 0.97459 0.0
H458 H 0.7612 0.64776 0.06776 0.0
C459 C 0.67858 0.58612 0.98671 0.0
C460 C 0.66982 0.58476 0.02834 0.0
H461 H 0.72349 0.60703 0.94265 0.0
H462 H 0.65565 0.56943 0.96373 0.0
C463 C 0.69976 0.60653 0.05768 0.0
C464 C 0.43605 0.1362 0.96828 0.0
C465 C 0.46385 0.17372 0.94799 0.0
H466 H 0.4238 0.07711 1.00073 0.0
C467 C 0.5006 0.17773 0.94122 0.0
H468 H 0.40799 0.13289 0.97513 0.0
C469 C 0.51012 0.14622 0.95636 0.0
C470 C 0.48322 0.10986 0.97922 0.0
H471 H 0.52297 0.20689 0.92683 0.0
H472 H 0.53932 0.15154 0.95193 0.0
C473 C 0.44552 0.10463 0.98363 0.0
C474 C 0.71613 0.21432 0.956 0.0
C475 C 0.74651 0.20431 0.95535 0.0
H476 H 0.65662 0.19289 0.9703 0.0
C477 C 0.73828 0.16211 0.96508 0.0
H478 H 0.72154 0.24638 0.94785 0.0
C479 C 0.70073 0.13107 0.97715 0.0
C480 C 0.6711 0.14199 0.98024 0.0
H481 H 0.76123 0.15363 0.96518 0.0
H482 H 0.69537 0.09909 0.98578 0.0
C483 C 0.67901 0.1837 0.96876 0.0
C484 C 0.90812 0.66467 0.97827 0.0
C485 C 0.86865 0.63608 0.9702 0.0
H486 H 0.96454 0.67196 0.99607 0.0
C487 C 0.85622 0.59227 0.97015 0.0
H488 H 0.91798 0.69841 0.97951 0.0
C489 C 0.88212 0.57697 0.98175 0.0
C490 C 0.92113 0.60543 0.99211 0.0
H491 H 0.82574 0.5698 0.96427 0.0
H492 H 0.87147 0.54289 0.98354 0.0
C493 C 0.93441 0.64947 0.98851 0.0
C494 C 0.44278 0.31414 1.00543 0.0
C495 C 0.47325 0.30846 0.99194 0.0
H496 H 0.4263 0.3553 0.03305 0.0
C497 C 0.51192 0.33994 0.99977 0.0
H498 H 0.41275 0.29004 1.00006 0.0
C499 C 0.51992 0.37746 0.01884 0.0
C500 C 0.48935 0.38424 0.03051 0.0
H501 H 0.53585 0.33625 0.98951 0.0
H502 H 0.55007 0.40187 0.02274 0.0
C503 C 0.45068 0.3515 0.0245 0.0
C504 C 0.13634 0.72899 0.09431 0.0
C505 C 0.17276 0.73301 0.10683 0.0
H506 H 0.07997 0.69004 0.06669 0.0
C507 C 0.18071 0.70004 0.09949 0.0
H508 H 0.12982 0.75428 0.09955 0.0
C509 C 0.15226 0.66309 0.08074 0.0
C510 C 0.11536 0.65859 0.06877 0.0
H511 H 0.20861 0.70255 0.10921 0.0
H512 H 0.15903 0.63785 0.07623 0.0
C513 C 0.10795 0.69225 0.07542 0.0
C514 C 0.28238 0.37772 0.0799 0.0
C515 C 0.27246 0.39732 0.1098 0.0
H516 H 0.32741 0.38151 0.04209 0.0
C517 C 0.30251 0.43224 0.12991 0.0
H518 H 0.25955 0.35134 0.06333 0.0
C519 C 0.3412 0.44924 0.11816 0.0
C520 C 0.35041 0.43242 0.08513 0.0
H521 H 0.29565 0.44922 0.1515 0.0
H522 H 0.36347 0.47752 0.13287 0.0
C523 C 0.32095 0.39554 0.0671 0.0
C524 C 0.59365 0.90018 0.09497 0.0
C525 C 0.5636 0.86175 0.1115 0.0
H526 H 0.61025 0.96321 0.06917 0.0
C527 C 0.52729 0.85883 0.11758 0.0
H528 H 0.62178 0.90292 0.08963 0.0
C529 C 0.5206 0.89307 0.10621 0.0
C530 C 0.54997 0.93112 0.08782 0.0
H531 H 0.50369 0.82942 0.1301 0.0
H532 H 0.49182 0.889 0.11063 0.0
C533 C 0.58688 0.93449 0.08303 0.0
C534 C 0.99222 0.21049 0.49085 0.0
C535 C 0.95826 0.2066 0.4698 0.0
H536 H 0.05489 0.23844 0.49068 0.0
C537 C 0.96287 0.23307 0.43405 0.0
H538 H 0.98965 0.18971 0.51774 0.0
C539 C 0.9999 0.25968 0.41765 0.0
C540 C 0.03364 0.26128 0.43693 0.0
H541 H 0.9373 0.23008 0.41661 0.0
H542 H 1.00188 0.27761 0.38872 0.0
C543 C 0.02953 0.23781 0.47483 0.0
C544 C 0.7975 0.73803 0.38337 0.0
C545 C 0.83697 0.7621 0.39485 0.0
H546 H 0.74547 0.73933 0.36213 0.0
C547 C 0.85598 0.80662 0.38872 0.0
H548 H 0.78258 0.70369 0.3881 0.0
C549 C 0.83508 0.82704 0.37354 0.0
C550 C 0.79491 0.80307 0.36509 0.0
H551 H 0.8863 0.82567 0.3982 0.0
H552 H 0.84976 0.86154 0.37097 0.0
C553 C 0.77647 0.75841 0.3688 0.0
C554 C 0.17774 1.01696 0.44109 0.0
C555 C 0.21606 0.0511 0.44091 0.0
H556 H 0.14015 0.9503 0.43178 0.0
C557 C 0.24625 0.04387 0.42952 0.0
H558 H 0.15407 0.02179 0.4501 0.0
C559 C 0.23857 1.00328 0.41922 0.0
C560 C 0.20035 0.96866 0.41995 0.0
H561 H 0.27598 0.0698 0.42893 0.0
H562 H 0.2628 0.9991 0.4109 0.0
C563 C 0.16993 0.9761 0.43079 0.0
C564 C 0.53716 0.70423 0.31284 0.0
C565 C 0.54413 0.66944 0.3175 0.0
H566 H 0.56083 0.77158 0.31687 0.0
C567 C 0.58092 0.67604 0.33222 0.0
H568 H 0.5091 0.69982 0.30102 0.0
C569 C 0.6107 0.71697 0.34092 0.0
C570 C 0.60423 0.7522 0.33525 0.0
H571 H 0.58675 0.6495 0.33613 0.0
H572 H 0.63892 0.72098 0.35161 0.0
C573 C 0.5669 0.74525 0.32167 0.0
C574 C 0.39882 0.91686 0.35243 0.0
C575 C 0.41875 0.96144 0.34653 0.0
H576 H 0.34505 0.86137 0.36865 0.0
C577 C 0.40042 0.98491 0.35526 0.0
H578 H 0.41248 0.89827 0.3452 0.0
C579 C 0.36171 0.96389 0.36722 0.0
C580 C 0.34136 0.91924 0.37168 0.0
H581 H 0.41567 0.01932 0.35135 0.0
H582 H 0.34749 0.98249 0.37231 0.0
C583 C 0.36041 0.89585 0.3655 0.0
C584 C 0.17186 0.51532 0.2688 0.0
C585 C 0.13586 0.51291 0.27623 0.0
H586 H 0.20946 0.48763 0.27974 0.0
C587 C 0.10841 0.47714 0.29899 0.0
H588 H 0.19402 0.5432 0.25251 0.0
C589 C 0.11743 0.44559 0.31557 0.0
C590 C 0.1543 0.44901 0.30993 0.0
H591 H 0.08099 0.47515 0.30637 0.0
H592 H 0.09595 0.41934 0.33419 0.0
C593 C 0.18089 0.48373 0.28509 0.0
C594 C 0.38896 0.54747 0.29516 0.0
C595 C 0.41841 0.53591 0.29561 0.0
H596 H 0.32901 0.52763 0.3059 0.0
C597 C 0.40811 0.49276 0.30276 0.0
H598 H 0.39591 0.58029 0.28868 0.0
C599 C 0.36945 0.46224 0.31168 0.0
C600 C 0.3407 0.47458 0.31414 0.0
H601 H 0.43026 0.48304 0.30345 0.0
H602 H 0.3625 0.42946 0.31861 0.0
C603 C 0.35068 0.51731 0.30486 0.0
C604 C 0.5792 1.00108 0.31299 0.0
C605 C 0.53959 0.9726 0.30545 0.0
H606 H 0.63572 1.00803 0.32985 0.0
C607 C 0.5268 0.92873 0.30616 0.0
H608 H 0.58928 0.03491 0.31375 0.0
C609 C 0.55263 0.91325 0.31719 0.0
C610 C 0.59191 0.94156 0.3266 0.0
H611 H 0.49614 0.90639 0.30111 0.0
H612 H 0.54168 0.87913 0.31935 0.0
C613 C 0.60544 0.98566 0.32283 0.0
C614 C 0.18475 0.68484 0.31507 0.0
C615 C 0.14658 0.65145 0.30927 0.0
H616 H 0.22125 0.7479 0.33644 0.0
C617 C 0.11537 0.65573 0.32282 0.0
H618 H 0.20918 0.68227 0.30452 0.0
C619 C 0.12199 0.69303 0.34104 0.0
C620 C 0.16012 0.72714 0.3461 0.0
H621 H 0.0857 0.63026 0.31871 0.0
H622 H 0.09707 0.69529 0.35053 0.0
C623 C 0.19149 0.72237 0.33322 0.0
C624 C 0.85121 0.03308 0.43197 0.0
C625 C 0.84413 0.06679 0.43866 0.0
H626 H 0.82896 0.97101 0.40825 0.0
C627 C 0.80838 0.06393 0.42492 0.0
H628 H 0.87846 0.03456 0.44283 0.0
C629 C 0.77989 0.02772 0.40522 0.0
C630 C 0.78654 0.99345 0.39889 0.0
H631 H 0.80242 0.08968 0.42996 0.0
H632 H 0.75244 0.02639 0.39556 0.0
C633 C 0.82277 0.9968 0.41222 0.0
C634 C 0.97217 0.78837 0.45779 0.0
C635 C 0.94506 0.74486 0.45493 0.0
H636 H 0.02984 0.83859 0.44437 0.0
C637 C 0.95817 0.71696 0.44396 0.0
H638 H 0.96238 0.81048 0.46538 0.0
C639 C 0.99692 0.73291 0.43237 0.0
C640 C 0.02251 0.77708 0.43037 0.0
H641 H 0.93756 0.68353 0.44055 0.0
H642 H 1.00595 0.71111 0.4219 0.0
C643 C 1.01034 0.80451 0.44476 0.0
C644 C 0.18906 0.19089 0.44871 0.0
C645 C 0.2262 0.19463 0.44674 0.0
H646 H 0.15291 0.21972 0.43582 0.0
C647 C 0.2568 0.23306 0.43094 0.0
H648 H 0.16506 0.16153 0.46073 0.0
C649 C 0.24992 0.26661 0.41598 0.0
C650 C 0.21231 0.26243 0.41682 0.0
H651 H 0.28561 0.23647 0.42874 0.0
H652 H 0.27392 0.29548 0.40318 0.0
C653 C 0.1822 0.22431 0.43419 0.0
C654 C 0.65611 0.52544 0.80649 0.0
C655 C 0.62779 0.53889 0.8038 0.0
H656 H 0.71388 0.53925 0.79172 0.0
C657 C 0.63928 0.58101 0.7895 0.0
H658 H 0.64793 0.493 0.81688 0.0
C659 C 0.67737 0.60785 0.77529 0.0
C660 C 0.70437 0.5927 0.77429 0.0
H661 H 0.61793 0.59194 0.7862 0.0
H662 H 0.68481 0.63943 0.76256 0.0
C663 C 0.69367 0.55171 0.79143 0.0
C664 C 0.51818 0.14157 0.72418 0.0
C665 C 0.49857 0.0971 0.73094 0.0
H666 H 0.51274 0.19713 0.70711 0.0
C667 C 0.45858 0.07373 0.72152 0.0
H668 H 0.54895 0.16013 0.73211 0.0
C669 C 0.43779 0.09479 0.70851 0.0
C670 C 0.45699 0.13942 0.70403 0.0
H671 H 0.44319 0.03943 0.72665 0.0
H672 H 0.40649 0.07629 0.7034 0.0
C673 C 0.49751 0.16266 0.71032 0.0
C674 C 0.90877 0.37663 0.75879 0.0
C675 C 0.87934 0.38426 0.77189 0.0
H676 H 0.92409 0.33156 0.73835 0.0
C677 C 0.84086 0.3504 0.77288 0.0
H678 H 0.93861 0.40228 0.75758 0.0
C679 C 0.83224 0.30939 0.76186 0.0
C680 C 0.86201 0.30155 0.74957 0.0
H681 H 0.81775 0.35549 0.78323 0.0
H682 H 0.80244 0.28376 0.76367 0.0
C683 C 0.90032 0.33596 0.74785 0.0
C684 C 0.24577 1.01503 0.65376 0.0
C685 C 0.20896 1.00899 0.63975 0.0
H686 H 0.30325 0.05863 0.67591 0.0
C687 C 0.20171 0.04359 0.63845 0.0
H688 H 0.25181 0.98862 0.65531 0.0
C689 C 0.23103 0.08376 0.65037 0.0
C690 C 0.26822 0.0901 0.66384 0.0
H691 H 0.17363 0.03966 0.62736 0.0
H692 H 0.22466 0.10996 0.64837 0.0
C693 C 0.27512 0.05511 0.66558 0.0
C694 C 0.06 0.24579 0.69018 0.0
C695 C 0.07715 0.28729 0.67222 0.0
H696 H 1.00874 0.19446 0.71732 0.0
C697 C 0.05731 0.31075 0.67114 0.0
H698 H 0.0749 0.22714 0.69045 0.0
C699 C 0.01965 0.2921 0.68562 0.0
C700 C 1.00161 0.24984 0.70161 0.0
H701 H 0.0704 0.34278 0.65727 0.0
H702 H 1.00419 0.31026 0.68298 0.0
C703 C 0.02232 0.22715 0.70513 0.0
C704 C 0.84124 0.85066 0.60745 0.0
C705 C 0.80403 0.84627 0.61206 0.0
H706 H 0.87995 0.82478 0.62083 0.0
C707 C 0.7757 0.80884 0.63195 0.0
H708 H 0.86391 0.87975 0.59329 0.0
C709 C 0.78495 0.7775 0.64865 0.0
C710 C 0.8229 0.78284 0.64597 0.0
H711 H 0.7472 0.80523 0.63704 0.0
H712 H 0.7627 0.74987 0.66514 0.0
C713 C 0.85051 0.81934 0.62387 0.0
C714 C 0.05469 0.88228 0.62249 0.0
C715 C 0.08513 0.87221 0.62357 0.0
H716 H 0.99496 0.86135 0.63532 0.0
C717 C 0.07667 0.83012 0.63434 0.0
H718 H 0.06031 0.91428 0.61357 0.0
C719 C 0.03887 0.79936 0.64606 0.0
C720 C 1.00923 0.81052 0.64776 0.0
H721 H 0.09966 0.82162 0.6357 0.0
H722 H 0.03334 0.76753 0.65571 0.0
C723 C 0.01734 0.85199 0.63492 0.0
C724 C 0.1893 0.26065 0.63471 0.0
C725 C 0.20077 0.30424 0.63318 0.0
H726 H 0.2052 0.21247 0.65167 0.0
C727 C 0.23946 0.33378 0.64348 0.0
H728 H 0.15927 0.23752 0.62759 0.0
C729 C 0.26595 0.31958 0.65695 0.0
C730 C 0.25346 0.27568 0.66144 0.0
H731 H 0.2484 0.36742 0.64334 0.0
H732 H 0.29549 0.34267 0.66591 0.0
C733 C 0.21526 0.24642 0.64918 0.0
C734 C 0.77797 0.98726 0.65526 0.0
C735 C 0.80963 0.9829 0.64328 0.0
H736 H 0.7588 0.02723 0.68062 0.0
C737 C 0.8476 1.01648 0.64956 0.0
H738 H 0.74843 0.96163 0.65076 0.0
C739 C 0.85375 0.05426 0.66659 0.0
C740 C 0.82197 0.05913 0.67782 0.0
H741 H 0.87237 1.01385 0.64021 0.0
H742 H 0.88342 0.07989 0.67023 0.0
C743 C 0.78401 0.02487 0.67234 0.0
C744 C 0.4687 0.40716 0.74586 0.0
C745 C 0.50447 0.41192 0.76207 0.0
H746 H 0.41307 0.36579 0.71805 0.0
C747 C 0.51227 0.37788 0.76062 0.0
H748 H 0.46227 0.43318 0.74656 0.0
C749 C 0.48429 0.33924 0.74424 0.0
C750 C 0.44786 0.33388 0.72909 0.0
H751 H 0.53956 0.38081 0.77337 0.0
H752 H 0.49088 0.31326 0.74453 0.0
C753 C 0.44064 0.36856 0.72961 0.0
C754 C 0.6342 0.12055 0.78873 0.0
C755 C 0.6068 0.07717 0.7855 0.0
H756 H 0.69179 0.17069 0.7748 0.0
C757 C 0.61936 0.0493 0.77299 0.0
H758 H 0.62483 0.14265 0.7975 0.0
C759 C 0.65783 0.06521 0.76045 0.0
C760 C 0.68365 0.10933 0.75896 0.0
H761 H 0.5985 1.01599 0.76928 0.0
H762 H 0.66645 0.04347 0.74897 0.0
C763 C 0.67206 0.13667 0.77472 0.0
C764 C 0.85932 0.52845 0.78788 0.0
C765 C 0.8952 0.52997 0.78275 0.0
H766 H 0.82546 0.5604 0.77958 0.0
C767 C 0.92608 0.56769 0.76612 0.0
H768 H 0.83514 0.49968 0.8006 0.0
C769 C 0.9206 0.60271 0.75332 0.0
C770 C 0.88419 0.60081 0.75741 0.0
H771 H 0.95394 0.5694 0.76159 0.0
H772 H 0.94462 0.63089 0.73954 0.0
C773 C 0.85393 0.56339 0.77571 0.0
C774 C 0.54678 0.04273 0.22487 0.0
C775 C 0.50964 1.00871 0.23318 0.0
H776 H 0.58651 0.08313 0.17812 0.0
C777 C 0.48417 0.98767 0.19988 0.0
H778 H 0.5666 0.05971 0.25009 0.0
C779 C 0.49471 1.00221 0.15899 0.0
C780 C 0.53138 0.03701 0.15061 0.0
H781 H 0.45555 0.96086 0.20567 0.0
H782 H 0.47441 0.98594 0.13406 0.0
C783 C 0.55776 0.05648 0.18384 0.0
C784 C 0.04518 0.52523 0.21257 0.0
C785 C 0.0846 0.53561 0.21102 0.0
H786 H 0.99404 0.51828 0.17834 0.0
C787 C 0.09928 0.53585 0.1722 0.0
H788 H 0.03329 0.5255 0.24193 0.0
C789 C 0.07626 0.53042 0.13549 0.0
C790 C 0.03876 0.52637 0.13697 0.0
H791 H 0.1297 0.54455 0.16988 0.0
H792 H 0.08922 0.53337 0.10599 0.0
C793 C 0.02292 0.52183 0.17604 0.0
C794 C 0.46491 0.545 0.1983 0.0
C795 C 0.47944 0.53943 0.23753 0.0
H796 H 0.46686 0.54134 0.13293 0.0
C797 C 0.4999 0.51638 0.2414 0.0
H798 H 0.45028 0.56399 0.19462 0.0
C799 C 0.50936 0.50318 0.20609 0.0
C800 C 0.49816 0.51247 0.16638 0.0
H801 H 0.51216 0.51279 0.27136 0.0
H802 H 0.52803 0.48871 0.20964 0.0
C803 C 0.47447 0.53192 0.16291 0.0
C804 C 0.94189 0.52741 0.8823 0.0
C805 C 0.9524 0.51874 0.84473 0.0
H806 H 0.95971 0.54598 0.94504 0.0
C807 C 0.99156 0.53039 0.83922 0.0
H808 H 0.9117 0.51818 0.88731 0.0
C809 C 0.0185 0.54455 0.87249 0.0
C810 C 1.00705 0.54841 0.91167 0.0
H811 H 1.00011 0.5236 0.81057 0.0
H812 H 0.04748 0.54894 0.86847 0.0
C813 C 0.96931 0.54282 0.91551 0.0
C814 C 0.57286 0.51145 0.90195 0.0
C815 C 0.56113 0.52432 0.86433 0.0
H816 H 0.56508 0.50006 0.96761 0.0
C817 C 0.53788 0.54414 0.86602 0.0
H818 H 0.58978 0.49503 0.90157 0.0
C819 C 0.52276 0.54619 0.90375 0.0
C820 C 0.53104 0.52896 0.94079 0.0
H821 H 0.5276 0.55338 0.8374 0.0
H822 H 0.50241 0.55845 0.9034 0.0
C823 C 0.55795 0.51364 0.93973 0.0
C824 C 0.56076 0.05542 0.88058 0.0
C825 C 0.53817 0.03061 0.84759 0.0
H826 H 0.56569 0.06276 0.9462 0.0
C827 C 0.50608 0.99031 0.85664 0.0
H828 H 0.58498 0.08696 0.87441 0.0
C829 C 0.49381 0.97746 0.89744 0.0
C830 C 0.51448 1.00385 0.93019 0.0
H831 H 0.48792 0.97098 0.83154 0.0
H832 H 0.46722 0.94779 0.90315 0.0
C833 C 0.54923 0.04181 0.92165 0.0
C834 C 0.16162 0.37012 0.53744 0.0
C835 C 0.1685 0.33823 0.55746 0.0
H836 H 0.16739 0.40898 0.48207 0.0
C837 C 0.18956 0.32312 0.53692 0.0
H838 H 0.14646 0.38327 0.55304 0.0
C839 C 0.20323 0.33955 0.49715 0.0
C840 C 0.19451 0.3698 0.47672 0.0
H841 H 0.19479 0.29815 0.5509 0.0
H842 H 0.21996 0.32798 0.48205 0.0
C843 C 0.17357 0.38493 0.49701 0.0
C844 C 0.71308 0.8526 0.54532 0.0
C845 C 0.75341 0.86706 0.54469 0.0
H846 H 0.66128 0.84201 0.51015 0.0
C847 C 0.7702 0.87175 0.50604 0.0
H848 H 0.6996 0.8496 0.57459 0.0
C849 C 0.74806 0.8668 0.46881 0.0
C850 C 0.70906 0.85828 0.46973 0.0
H851 H 0.80134 0.88378 0.50452 0.0
H852 H 0.76251 0.87353 0.43956 0.0
C853 C 0.69133 0.84906 0.50836 0.0
C854 C 0.12584 0.86612 0.52969 0.0
C855 C 0.1471 0.87359 0.56755 0.0
H856 H 0.12043 0.84648 0.46739 0.0
C857 C 0.17401 0.85854 0.57409 0.0
H858 H 0.10508 0.87769 0.52396 0.0
C859 C 0.18417 0.8428 0.54133 0.0
C860 C 0.1666 0.84041 0.50179 0.0
H861 H 0.19073 0.8641 0.6031 0.0
H862 H 0.20824 0.83608 0.54602 0.0
C863 C 0.13512 0.84885 0.49711 0.0
C864 C 0.60836 0.85406 0.21073 0.0
C865 C 0.62074 0.84913 0.17246 0.0
H866 H 0.62432 0.87051 0.27445 0.0
C867 C 0.66063 0.86418 0.16735 0.0
H868 H 0.5776 0.84206 0.21546 0.0
C869 C 0.68706 0.87931 0.20102 0.0
C870 C 0.67422 0.88012 0.24051 0.0
H871 H 0.67063 0.86019 0.13824 0.0
H872 H 0.71707 0.88719 0.19686 0.0
C873 C 0.63506 0.86989 0.24454 0.0
C874 C 0.19733 0.86003 0.20265 0.0
C875 C 0.22699 0.84854 0.20524 0.0
H876 H 0.15536 0.86788 0.23542 0.0
C877 C 0.24421 0.84793 0.24453 0.0
H878 H 0.18315 0.86016 0.17288 0.0
C879 C 0.22915 0.85403 0.28059 0.0
C880 C 0.1954 0.85868 0.27808 0.0
H881 H 0.26663 0.83854 0.2477 0.0
H882 H 0.24185 0.85126 0.3104 0.0
C883 C 0.18091 0.86365 0.23857 0.0
C884 C 0.23014 0.38561 0.21169 0.0
C885 C 0.20846 0.36066 0.17837 0.0
H886 H 0.23315 0.39419 0.27682 0.0
C887 C 0.17577 0.32071 0.18722 0.0
H888 H 0.2543 0.4172 0.206 0.0
C889 C 0.16222 0.30857 0.22777 0.0
C890 C 0.18217 0.33534 0.26053 0.0
H891 H 0.15794 0.30141 0.16194 0.0
H892 H 0.1352 0.2793 0.23315 0.0
C893 C 0.21737 0.37276 0.2524 0.0
C894 C 0.82029 0.66316 0.86786 0.0
C895 C 0.84632 0.68293 0.90119 0.0
H896 H 0.81067 0.66148 0.80204 0.0
C897 C 0.8841 0.71563 0.89298 0.0
H898 H 0.79103 0.63763 0.87367 0.0
C899 C 0.89544 0.72882 0.8519 0.0
C900 C 0.86879 0.71018 0.81859 0.0
H901 H 0.90428 0.73184 0.91823 0.0
H902 H 0.92476 0.75428 0.84618 0.0
C903 C 0.83127 0.67705 0.82698 0.0
C904 C 0.43262 0.20756 0.84538 0.0
C905 C 0.41514 0.20126 0.88395 0.0
H906 H 0.42605 0.21186 0.77878 0.0
C907 C 0.37493 0.18769 0.88395 0.0
H908 H 0.46372 0.21915 0.84435 0.0
C909 C 0.35383 0.18548 0.84674 0.0
C910 C 0.37204 0.19549 0.80831 0.0
H911 H 0.36094 0.1836 0.91312 0.0
H912 H 0.32375 0.17842 0.84824 0.0
C913 C 0.41113 0.20416 0.80785 0.0
C914 C 0.83208 0.18825 0.90363 0.0
C915 C 0.80607 0.20445 0.89683 0.0
H916 H 0.86595 0.16527 0.87569 0.0
C917 C 0.78543 0.19811 0.85866 0.0
H918 H 0.84835 0.19306 0.93288 0.0
C919 C 0.79476 0.18104 0.82598 0.0
C920 C 0.82565 0.17167 0.831 0.0
H921 H 0.76541 0.21064 0.85276 0.0
H922 H 0.78082 0.17979 0.79599 0.0
C923 C 0.84231 0.17268 0.87081 0.0
C924 C 0.27172 0.19283 0.55007 0.0
C925 C 0.28358 0.18721 0.51183 0.0
H926 H 0.28838 0.20998 0.61341 0.0
C927 C 0.32343 0.20248 0.50609 0.0
H928 H 0.24101 0.18064 0.55531 0.0
C929 C 0.35024 0.21779 0.53943 0.0
C930 C 0.33776 0.21871 0.57906 0.0
H931 H 0.33302 0.19785 0.47701 0.0
H932 H 0.38013 0.22539 0.53499 0.0
C933 C 0.29879 0.20901 0.58345 0.0
C934 C 0.86155 0.18987 0.53266 0.0
C935 C 0.89294 0.18115 0.53685 0.0
H936 H 0.81737 0.19578 0.5633 0.0
C937 C 0.9095 0.182 0.57683 0.0
H938 H 0.8476 0.18847 0.50241 0.0
C939 C 0.8927 0.1873 0.61193 0.0
C940 C 0.85805 0.19016 0.6079 0.0
H941 H 0.933 0.17435 0.58132 0.0
H942 H 0.90492 0.18533 0.64226 0.0
C943 C 0.84372 0.19317 0.56767 0.0
C944 C 0.89796 0.72454 0.54796 0.0
C945 C 0.87524 0.69892 0.51547 0.0
H946 H 0.90319 0.73343 0.61337 0.0
C947 C 0.84309 0.65891 0.52527 0.0
H948 H 0.92229 0.75585 0.54121 0.0
C949 C 0.83089 0.64714 0.56618 0.0
C950 C 0.85172 0.67429 0.59836 0.0
H951 H 0.82491 0.6389 0.50056 0.0
H952 H 0.80426 0.61767 0.5724 0.0
C953 C 0.88654 0.71196 0.58922 0.0
loop_
_geom_bond_atom_site_label_1
_geom_bond_atom_site_label_2
_geom_bond_distance
_geom_bond_site_symmetry_2
_ccdc_geom_bond_type
C0 N1 1.317 . S
C0 N2 1.348 . S
C0 C3 1.485 . S
N1 C0 1.317 . S
N1 N5 1.370 . S
N2 C0 1.348 . S
N2 C4 1.346 . S
C3 C0 1.485 . S
C3 H7 0.960 . S
C3 H8 0.961 . S
C3 H9 0.960 . S
C4 N2 1.346 . S
C4 N5 1.307 . S
C4 C6 1.486 . S
N5 N1 1.370 . S
N5 C4 1.307 . S
C6 C4 1.486 . S
C6 H10 0.960 . S
C6 H11 0.960 . S
C6 H12 0.959 . S
H7 C3 0.960 . S
H8 C3 0.961 . S
H9 C3 0.960 . S
H10 C6 0.960 . S
H11 C6 0.960 . S
H12 C6 0.959 . S
C13 N14 1.317 . S
C13 N15 1.348 . S
C13 C16 1.485 . S
N14 C13 1.317 . S
N14 N18 1.370 . S
N15 C13 1.348 . S
N15 C17 1.346 . S
C16 C13 1.485 . S
C16 H20 0.960 . S
C16 H21 0.961 . S
C16 H22 0.960 . S
C17 N15 1.346 . S
C17 N18 1.307 . S
C17 C19 1.486 . S
N18 N14 1.370 . S
N18 C17 1.307 . S
C19 C17 1.486 . S
C19 H23 0.960 . S
C19 H24 0.960 . S
C19 H25 0.959 . S
H20 C16 0.960 . S
H21 C16 0.961 . S
H22 C16 0.960 . S
H23 C19 0.960 . S
H24 C19 0.960 . S
H25 C19 0.959 . S
C26 N27 1.317 . S
C26 N28 1.348 . S
C26 C29 1.485 . S
N27 C26 1.317 . S
N27 N31 1.370 . S
N28 C26 1.348 . S
N28 C30 1.346 . S
C29 C26 1.485 . S
C29 H33 0.960 . S
C29 H34 0.961 . S
C29 H35 0.960 . S
C30 N28 1.346 . S
C30 N31 1.307 . S
C30 C32 1.486 . S
N31 N27 1.370 . S
N31 C30 1.307 . S
C32 C30 1.486 . S
C32 H36 0.960 . S
C32 H37 0.960 . S
C32 H38 0.959 . S
H33 C29 0.960 . S
H34 C29 0.961 . S
H35 C29 0.960 . S
H36 C32 0.960 . S
H37 C32 0.960 . S
H38 C32 0.959 . S
C39 N40 1.317 . S
C39 N41 1.348 . S
C39 C42 1.485 . S
N40 C39 1.317 . S
N40 N44 1.370 . S
N41 C39 1.348 . S
N41 C43 1.346 . S
C42 C39 1.485 . S
C42 H46 0.960 . S
C42 H47 0.961 . S
C42 H48 0.960 . S
C43 N41 1.346 . S
C43 N44 1.307 . S
C43 C45 1.486 . S
N44 N40 1.370 . S
N44 C43 1.307 . S
C45 C43 1.486 . S
C45 H49 0.960 . S
C45 H50 0.960 . S
C45 H51 0.959 . S
H46 C42 0.960 . S
H47 C42 0.961 . S
H48 C42 0.960 . S
H49 C45 0.960 . S
H50 C45 0.960 . S
H51 C45 0.959 . S
C52 N53 1.317 . S
C52 N54 1.348 . S
C52 C55 1.485 . S
N53 C52 1.317 . S
N53 N57 1.370 . S
N54 C52 1.348 . S
N54 C56 1.346 . S
C55 C52 1.485 . S
C55 H59 0.960 . S
C55 H60 0.961 . S
C55 H61 0.960 . S
C56 N54 1.346 . S
C56 N57 1.307 . S
C56 C58 1.486 . S
N57 N53 1.370 . S
N57 C56 1.307 . S
C58 C56 1.486 . S
C58 H62 0.960 . S
C58 H63 0.960 . S
C58 H64 0.959 . S
H59 C55 0.960 . S
H60 C55 0.961 . S
H61 C55 0.960 . S
H62 C58 0.960 . S
H63 C58 0.960 . S
H64 C58 0.959 . S
C65 N66 1.317 . S
C65 N67 1.348 . S
C65 C68 1.485 . S
N66 C65 1.317 . S
N66 N70 1.370 . S
N67 C65 1.348 . S
N67 C69 1.346 . S
C68 C65 1.485 . S
C68 H72 0.960 . S
C68 H73 0.961 . S
C68 H74 0.960 . S
C69 N67 1.346 . S
C69 N70 1.307 . S
C69 C71 1.486 . S
N70 N66 1.370 . S
N70 C69 1.307 . S
C71 C69 1.486 . S
C71 H75 0.960 . S
C71 H76 0.960 . S
C71 H77 0.959 . S
H72 C68 0.960 . S
H73 C68 0.961 . S
H74 C68 0.960 . S
H75 C71 0.960 . S
H76 C71 0.960 . S
H77 C71 0.959 . S
C78 N79 1.317 . S
C78 N80 1.348 . S
C78 C81 1.485 . S
N79 C78 1.317 . S
N79 N83 1.370 . S
N80 C78 1.348 . S
N80 C82 1.346 . S
C81 C78 1.485 . S
C81 H85 0.960 . S
C81 H86 0.961 . S
C81 H87 0.960 . S
C82 N80 1.346 . S
C82 N83 1.307 . S
C82 C84 1.486 . S
N83 N79 1.370 . S
N83 C82 1.307 . S
C84 C82 1.486 . S
C84 H88 0.960 . S
C84 H89 0.960 . S
C84 H90 0.959 . S
H85 C81 0.960 . S
H86 C81 0.961 . S
H87 C81 0.960 . S
H88 C84 0.960 . S
H89 C84 0.960 . S
H90 C84 0.959 . S
C91 N92 1.317 . S
C91 N93 1.348 . S
C91 C94 1.485 . S
N92 C91 1.317 . S
N92 N96 1.370 . S
N93 C91 1.348 . S
N93 C95 1.346 . S
C94 C91 1.485 . S
C94 H98 0.960 . S
C94 H99 0.961 . S
C94 H100 0.960 . S
C95 N93 1.346 . S
C95 N96 1.307 . S
C95 C97 1.486 . S
N96 N92 1.370 . S
N96 C95 1.307 . S
C97 C95 1.486 . S
C97 H101 0.960 . S
C97 H102 0.960 . S
C97 H103 0.959 . S
H98 C94 0.960 . S
H99 C94 0.961 . S
H100 C94 0.960 . S
H101 C97 0.960 . S
H102 C97 0.960 . S
H103 C97 0.959 . S
C104 N105 1.317 . S
C104 N106 1.348 . S
C104 C107 1.485 . S
N105 C104 1.317 . S
N105 N109 1.370 . S
N106 C104 1.348 . S
N106 C108 1.346 . S
C107 C104 1.485 . S
C107 H111 0.960 . S
C107 H112 0.961 . S
C107 H113 0.960 . S
C108 N106 1.346 . S
C108 N109 1.307 . S
C108 C110 1.486 . S
N109 N105 1.370 . S
N109 C108 1.307 . S
C110 C108 1.486 . S
C110 H114 0.960 . S
C110 H115 0.960 . S
C110 H116 0.959 . S
H111 C107 0.960 . S
H112 C107 0.961 . S
H113 C107 0.960 . S
H114 C110 0.960 . S
H115 C110 0.960 . S
H116 C110 0.959 . S
C117 N118 1.317 . S
C117 N119 1.348 . S
C117 C120 1.485 . S
N118 C117 1.317 . S
N118 N122 1.370 . S
N119 C117 1.348 . S
N119 C121 1.346 . S
C120 C117 1.485 . S
C120 H124 0.960 . S
C120 H125 0.961 1_556 S
C120 H126 0.963 . S
C121 N119 1.346 . S
C121 N122 1.307 . S
C121 C123 1.486 . S
N122 N118 1.370 . S
N122 C121 1.307 . S
C123 C121 1.486 . S
C123 H127 0.960 . S
C123 H128 0.960 . S
C123 H129 0.959 . S
H124 C120 0.960 . S
H125 C120 0.961 1_554 S
H126 C120 0.963 . S
H127 C123 0.960 . S
H128 C123 0.960 . S
H129 C123 0.959 . S
C130 N131 1.317 . S
C130 N132 1.348 . S
C130 C133 1.485 1_556 S
N131 C130 1.317 . S
N131 N135 1.370 . S
N132 C130 1.348 . S
N132 C134 1.346 . S
C133 C130 1.485 1_554 S
C133 H137 0.960 . S
C133 H138 0.961 . S
C133 H139 0.960 . S
C134 N132 1.346 . S
C134 N135 1.307 . S
C134 C136 1.486 . S
N135 N131 1.370 . S
N135 C134 1.307 . S
C136 C134 1.486 . S
C136 H140 0.960 . S
C136 H141 0.960 . S
C136 H142 0.959 . S
H137 C133 0.960 . S
H138 C133 0.961 . S
H139 C133 0.960 . S
H140 C136 0.960 . S
H141 C136 0.960 . S
H142 C136 0.959 . S
C143 N144 1.317 . S
C143 N145 1.348 . S
C143 C146 1.485 1_556 S
N144 C143 1.317 . S
N144 N148 1.370 . S
N145 C143 1.348 . S
N145 C147 1.346 . S
C146 C143 1.485 1_554 S
C146 H150 0.960 . S
C146 H151 0.961 . S
C146 H152 0.960 . S
C147 N145 1.346 . S
C147 N148 1.307 . S
C147 C149 1.486 . S
N148 N144 1.370 . S
N148 C147 1.307 . S
C149 C147 1.486 . S
C149 H153 0.960 . S
C149 H154 0.960 . S
C149 H155 0.959 . S
H150 C146 0.960 . S
H151 C146 0.961 . S
H152 C146 0.960 . S
H153 C149 0.960 . S
H154 C149 0.960 . S
H155 C149 0.959 . S
C156 N157 1.317 . S
C156 N158 1.348 . S
C156 C159 1.485 . S
N157 C156 1.317 . S
N157 N161 1.370 . S
N158 C156 1.348 . S
N158 C160 1.346 . S
C159 C156 1.485 . S
C159 H163 0.960 . S
C159 H164 0.961 1_554 S
C159 H165 0.960 1_554 S
C160 N158 1.346 . S
C160 N161 1.307 . S
C160 C162 1.486 . S
N161 N157 1.370 . S
N161 C160 1.307 . S
C162 C160 1.486 . S
C162 H166 0.960 . S
C162 H167 0.960 . S
C162 H168 0.959 . S
H163 C159 0.960 . S
H164 C159 0.961 1_556 S
H165 C159 0.960 1_556 S
H166 C162 0.960 . S
H167 C162 0.960 . S
H168 C162 0.959 . S
C169 N170 1.317 . S
C169 N171 1.348 . S
C169 C172 1.485 . S
N170 C169 1.317 . S
N170 N174 1.370 . S
N171 C169 1.348 . S
N171 C173 1.346 . S
C172 C169 1.485 . S
C172 H176 0.960 . S
C172 H177 0.961 . S
C172 H178 0.960 . S
C173 N171 1.346 . S
C173 N174 1.307 . S
C173 C175 1.486 . S
N174 N170 1.370 . S
N174 C173 1.307 . S
C175 C173 1.486 . S
C175 H179 0.960 . S
C175 H180 0.960 . S
C175 H181 0.959 . S
H176 C172 0.960 . S
H177 C172 0.961 . S
H178 C172 0.960 . S
H179 C175 0.960 . S
H180 C175 0.960 . S
H181 C175 0.959 . S
C182 N183 1.317 . S
C182 N184 1.348 . S
C182 C185 1.485 . S
N183 C182 1.317 . S
N183 N187 1.370 . S
N184 C182 1.348 . S
N184 C186 1.346 . S
C185 C182 1.485 . S
C185 H189 0.960 . S
C185 H190 0.961 . S
C185 H191 0.960 . S
C186 N184 1.346 . S
C186 N187 1.307 . S
C186 C188 1.486 . S
N187 N183 1.370 . S
N187 C186 1.307 . S
C188 C186 1.486 . S
C188 H192 0.960 . S
C188 H193 0.960 . S
C188 H194 0.959 . S
H189 C185 0.960 . S
H190 C185 0.961 . S
H191 C185 0.960 . S
H192 C188 0.960 . S
H193 C188 0.960 . S
H194 C188 0.959 . S
C195 N196 1.317 . S
C195 N197 1.348 . S
C195 C198 1.485 . S
N196 C195 1.317 . S
N196 N200 1.370 . S
N197 C195 1.348 . S
N197 C199 1.346 . S
C198 C195 1.485 . S
C198 H202 0.960 . S
C198 H203 0.961 . S
C198 H204 0.960 . S
C199 N197 1.346 . S
C199 N200 1.307 . S
C199 C201 1.486 . S
N200 N196 1.370 . S
N200 C199 1.307 . S
C201 C199 1.486 . S
C201 H205 0.960 . S
C201 H206 0.960 . S
C201 H207 0.959 . S
H202 C198 0.960 . S
H203 C198 0.961 . S
H204 C198 0.960 . S
H205 C201 0.960 . S
H206 C201 0.960 . S
H207 C201 0.959 . S
C208 N209 1.317 . S
C208 N210 1.348 . S
C208 C211 1.485 . S
N209 C208 1.317 . S
N209 N213 1.370 . S
N210 C208 1.348 . S
N210 C212 1.346 . S
C211 C208 1.485 . S
C211 H215 0.960 . S
C211 H216 0.961 . S
C211 H217 0.960 . S
C212 N210 1.346 . S
C212 N213 1.307 . S
C212 C214 1.486 . S
N213 N209 1.370 . S
N213 C212 1.307 . S
C214 C212 1.486 . S
C214 H218 0.960 . S
C214 H219 0.960 . S
C214 H220 0.959 . S
H215 C211 0.960 . S
H216 C211 0.961 . S
H217 C211 0.960 . S
H218 C214 0.960 . S
H219 C214 0.960 . S
H220 C214 0.959 . S
C221 N222 1.317 . S
C221 N223 1.348 . S
C221 C224 1.485 . S
N222 C221 1.317 . S
N222 N226 1.370 . S
N223 C221 1.348 . S
N223 C225 1.346 . S
C224 C221 1.485 . S
C224 H228 0.960 . S
C224 H229 0.961 . S
C224 H230 0.960 . S
C225 N223 1.346 . S
C225 N226 1.307 . S
C225 C227 1.486 . S
N226 N222 1.370 . S
N226 C225 1.307 . S
C227 C225 1.486 . S
C227 H231 0.960 . S
C227 H232 0.960 . S
C227 H233 0.959 . S
H228 C224 0.960 . S
H229 C224 0.961 . S
H230 C224 0.960 . S
H231 C227 0.960 . S
H232 C227 0.960 . S
H233 C227 0.959 . S
Tb234 O237 2.453 . S
Tb234 O238 2.596 1_545 S
Tb234 O239 2.374 1_545 S
Tb234 O247 2.343 1_554 S
Tb234 O249 2.353 . S
Tb234 O251 2.427 . S
Tb234 O252 2.513 . S
C235 O239 1.251 . S
C235 O241 1.263 . S
Tb236 O238 2.343 1_556 S
Tb236 O241 2.353 1_556 S
Tb236 O244 2.427 1_556 S
Tb236 O245 2.513 1_556 S
Tb236 O246 2.453 . S
Tb236 O247 2.596 1_565 S
Tb236 O248 2.374 1_566 S
O237 Tb234 2.453 . S
O237 C253 1.245 1_545 S
O238 Tb234 2.596 1_565 S
O238 Tb236 2.343 1_554 S
O238 C253 1.259 . S
O239 Tb234 2.374 1_565 S
O239 C235 1.251 . S
C240 O244 1.275 . S
C240 O245 1.246 . S
O241 C235 1.263 . S
O241 Tb236 2.353 1_554 S
C242 O246 1.245 1_545 S
C242 O247 1.259 . S
C243 O248 1.250 . S
C243 O249 1.263 . S
O244 Tb236 2.427 1_554 S
O244 C240 1.275 . S
O245 Tb236 2.513 1_554 S
O245 C240 1.246 . S
O246 Tb236 2.453 . S
O246 C242 1.245 1_565 S
O247 Tb234 2.343 1_556 S
O247 Tb236 2.596 1_545 S
O247 C242 1.259 . S
O248 Tb236 2.374 1_544 S
O248 C243 1.250 . S
O249 Tb234 2.353 . S
O249 C243 1.263 . S
C250 O251 1.275 . S
C250 O252 1.246 . S
O251 Tb234 2.427 . S
O251 C250 1.275 . S
O252 Tb234 2.513 . S
O252 C250 1.246 . S
C253 O237 1.245 1_565 S
C253 O238 1.259 . S
Tb254 O257 2.453 . S
Tb254 O258 2.596 1_655 S
Tb254 O259 2.374 1_655 S
Tb254 O267 2.343 1_554 S
Tb254 O269 2.353 . S
Tb254 O271 2.427 1_554 S
Tb254 O272 2.513 1_554 S
C255 O259 1.251 . S
C255 O261 1.263 1_554 S
Tb256 O258 2.343 1_556 S
Tb256 O261 2.353 . S
Tb256 O264 2.427 1_556 S
Tb256 O265 2.513 1_556 S
Tb256 O266 2.453 . S
Tb256 O267 2.596 1_455 S
Tb256 O268 2.374 1_455 S
O257 Tb254 2.453 . S
O257 C273 1.245 1_655 S
O258 Tb254 2.596 1_455 S
O258 Tb256 2.343 1_554 S
O258 C273 1.259 . S
O259 Tb254 2.374 1_455 S
O259 C255 1.251 . S
C260 O264 1.275 . S
C260 O265 1.246 . S
O261 C255 1.263 1_556 S
O261 Tb256 2.353 . S
C262 O266 1.245 1_655 S
C262 O267 1.259 . S
C263 O268 1.250 1_554 S
C263 O269 1.263 . S
O264 Tb256 2.427 1_554 S
O264 C260 1.275 . S
O265 Tb256 2.513 1_554 S
O265 C260 1.246 . S
O266 Tb256 2.453 . S
O266 C262 1.245 1_455 S
O267 Tb254 2.343 1_556 S
O267 Tb256 2.596 1_655 S
O267 C262 1.259 . S
O268 Tb256 2.374 1_655 S
O268 C263 1.250 1_556 S
O269 Tb254 2.353 . S
O269 C263 1.263 . S
C270 O271 1.275 . S
C270 O272 1.246 . S
O271 Tb254 2.427 1_556 S
O271 C270 1.275 . S
O272 Tb254 2.513 1_556 S
O272 C270 1.246 . S
C273 O257 1.245 1_455 S
C273 O258 1.259 . S
Tb274 O277 2.453 1_554 S
Tb274 O278 2.596 1_554 S
Tb274 O279 2.374 . S
Tb274 O287 2.343 . S
Tb274 O289 2.353 . S
Tb274 O291 2.427 . S
Tb274 O292 2.513 . S
C275 O279 1.251 . S
C275 O281 1.263 . S
Tb276 O278 2.343 1_554 S
Tb276 O281 2.353 . S
Tb276 O284 2.427 . S
Tb276 O285 2.513 . S
Tb276 O286 2.453 . S
Tb276 O287 2.596 . S
Tb276 O288 2.374 . S
O277 Tb274 2.453 1_556 S
O277 C293 1.245 . S
O278 Tb274 2.596 1_556 S
O278 Tb276 2.343 1_556 S
O278 C293 1.259 . S
O279 Tb274 2.374 . S
O279 C275 1.251 . S
C280 O284 1.275 1_556 S
C280 O285 1.246 1_556 S
O281 C275 1.263 . S
O281 Tb276 2.353 . S
C282 O286 1.245 . S
C282 O287 1.259 . S
C283 O288 1.250 . S
C283 O289 1.263 . S
O284 Tb276 2.427 . S
O284 C280 1.275 1_554 S
O285 Tb276 2.513 . S
O285 C280 1.246 1_554 S
O286 Tb276 2.453 . S
O286 C282 1.245 . S
O287 Tb274 2.343 . S
O287 Tb276 2.596 . S
O287 C282 1.259 . S
O288 Tb276 2.374 . S
O288 C283 1.250 . S
O289 Tb274 2.353 . S
O289 C283 1.263 . S
C290 O291 1.275 . S
C290 O292 1.246 . S
O291 Tb274 2.427 . S
O291 C290 1.275 . S
O292 Tb274 2.513 . S
O292 C290 1.246 . S
C293 O277 1.245 . S
C293 O278 1.259 . S
Tb294 O297 2.453 . S
Tb294 O298 2.596 . S
Tb294 O299 2.374 . S
Tb294 O307 2.343 . S
Tb294 O309 2.353 . S
Tb294 O311 2.427 . S
Tb294 O312 2.513 . S
C295 O299 1.251 . S
C295 O301 1.263 . S
Tb296 O298 2.343 . S
Tb296 O301 2.353 . S
Tb296 O304 2.427 . S
Tb296 O305 2.513 . S
Tb296 O306 2.453 . S
Tb296 O307 2.596 . S
Tb296 O308 2.374 . S
O297 Tb294 2.453 . S
O297 C313 1.245 . S
O298 Tb294 2.596 . S
O298 Tb296 2.343 . S
O298 C313 1.259 . S
O299 Tb294 2.374 . S
O299 C295 1.251 . S
C300 O304 1.275 . S
C300 O305 1.246 . S
O301 C295 1.263 . S
O301 Tb296 2.353 . S
C302 O306 1.245 . S
C302 O307 1.259 . S
C303 O308 1.250 . S
C303 O309 1.263 . S
O304 Tb296 2.427 . S
O304 C300 1.275 . S
O305 Tb296 2.513 . S
O305 C300 1.246 . S
O306 Tb296 2.453 . S
O306 C302 1.245 . S
O307 Tb294 2.343 . S
O307 Tb296 2.596 . S
O307 C302 1.259 . S
O308 Tb296 2.374 . S
O308 C303 1.250 . S
O309 Tb294 2.353 . S
O309 C303 1.263 . S
C310 O311 1.275 . S
C310 O312 1.246 . S
O311 Tb294 2.427 . S
O311 C310 1.275 . S
O312 Tb294 2.513 . S
O312 C310 1.246 . S
C313 O297 1.245 . S
C313 O298 1.259 . S
Tb314 O317 2.453 . S
Tb314 O318 2.596 . S
Tb314 O319 2.374 . S
Tb314 O327 2.343 . S
Tb314 O329 2.353 . S
Tb314 O331 2.427 . S
Tb314 O332 2.513 . S
C315 O319 1.251 . S
C315 O321 1.263 . S
Tb316 O318 2.343 . S
Tb316 O321 2.353 . S
Tb316 O324 2.427 . S
Tb316 O325 2.513 . S
Tb316 O326 2.453 . S
Tb316 O327 2.596 . S
Tb316 O328 2.374 . S
O317 Tb314 2.453 . S
O317 C333 1.245 . S
O318 Tb314 2.596 . S
O318 Tb316 2.343 . S
O318 C333 1.259 . S
O319 Tb314 2.374 . S
O319 C315 1.251 . S
C320 O324 1.275 . S
C320 O325 1.246 . S
O321 C315 1.263 . S
O321 Tb316 2.353 . S
C322 O326 1.245 . S
C322 O327 1.259 . S
C323 O328 1.250 . S
C323 O329 1.263 . S
O324 Tb316 2.427 . S
O324 C320 1.275 . S
O325 Tb316 2.513 . S
O325 C320 1.246 . S
O326 Tb316 2.453 . S
O326 C322 1.245 . S
O327 Tb314 2.343 . S
O327 Tb316 2.596 . S
O327 C322 1.259 . S
O328 Tb316 2.374 . S
O328 C323 1.250 . S
O329 Tb314 2.353 . S
O329 C323 1.263 . S
C330 O331 1.275 . S
C330 O332 1.246 . S
O331 Tb314 2.427 . S
O331 C330 1.275 . S
O332 Tb314 2.513 . S
O332 C330 1.246 . S
C333 O317 1.245 . S
C333 O318 1.259 . S
Tb334 O337 2.453 . S
Tb334 O338 2.596 . S
Tb334 O339 2.374 . S
Tb334 O347 2.343 . S
Tb334 O349 2.353 . S
Tb334 O351 2.427 . S
Tb334 O352 2.513 . S
C335 O339 1.251 . S
C335 O341 1.263 . S
Tb336 O338 2.343 . S
Tb336 O341 2.353 . S
Tb336 O344 2.427 . S
Tb336 O345 2.513 . S
Tb336 O346 2.453 . S
Tb336 O347 2.596 . S
Tb336 O348 2.374 . S
O337 Tb334 2.453 . S
O337 C353 1.245 . S
O338 Tb334 2.596 . S
O338 Tb336 2.343 . S
O338 C353 1.259 . S
O339 Tb334 2.374 . S
O339 C335 1.251 . S
C340 O344 1.275 . S
C340 O345 1.246 . S
O341 C335 1.263 . S
O341 Tb336 2.353 . S
C342 O346 1.245 . S
C342 O347 1.259 . S
C343 O348 1.250 . S
C343 O349 1.263 . S
O344 Tb336 2.427 . S
O344 C340 1.275 . S
O345 Tb336 2.513 . S
O345 C340 1.246 . S
O346 Tb336 2.453 . S
O346 C342 1.245 . S
O347 Tb334 2.343 . S
O347 Tb336 2.596 . S
O347 C342 1.259 . S
O348 Tb336 2.374 . S
O348 C343 1.250 . S
O349 Tb334 2.353 . S
O349 C343 1.263 . S
C350 O351 1.275 . S
C350 O352 1.246 . S
O351 Tb334 2.427 . S
O351 C350 1.275 . S
O352 Tb334 2.513 . S
O352 C350 1.246 . S
C353 O337 1.245 . S
C353 O338 1.259 . S
Tb354 O357 2.453 . S
Tb354 O358 2.596 . S
Tb354 O359 2.374 . S
Tb354 O367 2.343 . S
Tb354 O369 2.353 . S
Tb354 O371 2.427 . S
Tb354 O372 2.513 . S
C355 O359 1.251 . S
C355 O361 1.263 . S
Tb356 O358 2.343 . S
Tb356 O361 2.353 . S
Tb356 O364 2.427 . S
Tb356 O365 2.513 . S
Tb356 O366 2.453 . S
Tb356 O367 2.596 . S
Tb356 O368 2.374 . S
O357 Tb354 2.453 . S
O357 C373 1.245 . S
O358 Tb354 2.596 . S
O358 Tb356 2.343 . S
O358 C373 1.259 . S
O359 Tb354 2.374 . S
O359 C355 1.251 . S
C360 O364 1.275 . S
C360 O365 1.246 . S
O361 C355 1.263 . S
O361 Tb356 2.353 . S
C362 O366 1.245 . S
C362 O367 1.259 . S
C363 O368 1.250 . S
C363 O369 1.263 . S
O364 Tb356 2.427 . S
O364 C360 1.275 . S
O365 Tb356 2.513 . S
O365 C360 1.246 . S
O366 Tb356 2.453 . S
O366 C362 1.245 . S
O367 Tb354 2.343 . S
O367 Tb356 2.596 . S
O367 C362 1.259 . S
O368 Tb356 2.374 . S
O368 C363 1.250 . S
O369 Tb354 2.353 . S
O369 C363 1.263 . S
C370 O371 1.275 . S
C370 O372 1.246 . S
O371 Tb354 2.427 . S
O371 C370 1.275 . S
O372 Tb354 2.513 . S
O372 C370 1.246 . S
C373 O357 1.245 . S
C373 O358 1.259 . S
Tb374 O377 2.453 . S
Tb374 O378 2.596 . S
Tb374 O379 2.374 . S
Tb374 O387 2.343 . S
Tb374 O389 2.353 . S
Tb374 O391 2.427 . S
Tb374 O392 2.513 . S
C375 O379 1.251 . S
C375 O381 1.263 . S
Tb376 O378 2.343 . S
Tb376 O381 2.353 . S
Tb376 O384 2.427 . S
Tb376 O385 2.513 . S
Tb376 O386 2.453 . S
Tb376 O387 2.596 . S
Tb376 O388 2.374 . S
O377 Tb374 2.453 . S
O377 C393 1.245 . S
O378 Tb374 2.596 . S
O378 Tb376 2.343 . S
O378 C393 1.259 . S
O379 Tb374 2.374 . S
O379 C375 1.251 . S
C380 O384 1.275 . S
C380 O385 1.246 . S
O381 C375 1.263 . S
O381 Tb376 2.353 . S
C382 O386 1.245 . S
C382 O387 1.259 . S
C383 O388 1.250 . S
C383 O389 1.263 . S
O384 Tb376 2.427 . S
O384 C380 1.275 . S
O385 Tb376 2.513 . S
O385 C380 1.246 . S
O386 Tb376 2.453 . S
O386 C382 1.245 . S
O387 Tb374 2.343 . S
O387 Tb376 2.596 . S
O387 C382 1.259 . S
O388 Tb376 2.374 . S
O388 C383 1.250 . S
O389 Tb374 2.353 . S
O389 C383 1.263 . S
C390 O391 1.275 . S
C390 O392 1.246 . S
O391 Tb374 2.427 . S
O391 C390 1.275 . S
O392 Tb374 2.513 . S
O392 C390 1.246 . S
C393 O377 1.245 . S
C393 O378 1.259 . S
Tb394 O397 2.453 . S
Tb394 O398 2.596 . S
Tb394 O399 2.374 . S
Tb394 O407 2.343 . S
Tb394 O409 2.353 . S
Tb394 O411 2.427 . S
Tb394 O412 2.513 . S
C395 O399 1.251 . S
C395 O401 1.263 . S
Tb396 O398 2.343 . S
Tb396 O401 2.353 . S
Tb396 O404 2.427 . S
Tb396 O405 2.513 . S
Tb396 O406 2.453 . S
Tb396 O407 2.596 . S
Tb396 O408 2.374 . S
O397 Tb394 2.453 . S
O397 C413 1.245 . S
O398 Tb394 2.596 . S
O398 Tb396 2.343 . S
O398 C413 1.259 . S
O399 Tb394 2.374 . S
O399 C395 1.251 . S
C400 O404 1.275 . S
C400 O405 1.246 . S
O401 C395 1.263 . S
O401 Tb396 2.353 . S
C402 O406 1.245 . S
C402 O407 1.259 . S
C403 O408 1.250 . S
C403 O409 1.263 . S
O404 Tb396 2.427 . S
O404 C400 1.275 . S
O405 Tb396 2.513 . S
O405 C400 1.246 . S
O406 Tb396 2.453 . S
O406 C402 1.245 . S
O407 Tb394 2.343 . S
O407 Tb396 2.596 . S
O407 C402 1.259 . S
O408 Tb396 2.374 . S
O408 C403 1.250 . S
O409 Tb394 2.353 . S
O409 C403 1.263 . S
C410 O411 1.275 . S
C410 O412 1.246 . S
O411 Tb394 2.427 . S
O411 C410 1.275 . S
O412 Tb394 2.513 . S
O412 C410 1.246 . S
C413 O397 1.245 . S
C413 O398 1.259 . S
C414 C415 1.387 . S
C414 H418 0.950 . S
C414 C423 1.390 . S
C415 C414 1.387 . S
C415 C417 1.387 . S
H416 C423 0.950 . S
C417 C415 1.387 . S
C417 C419 1.390 . S
C417 H421 0.950 . S
H418 C414 0.950 . S
C419 C417 1.390 . S
C419 C420 1.387 . S
C419 H422 0.950 . S
C420 C419 1.387 . S
C420 C423 1.387 . S
H421 C417 0.950 . S
H422 C419 0.950 . S
C423 C414 1.390 . S
C423 H416 0.950 . S
C423 C420 1.387 . S
C424 C425 1.387 . S
C424 H428 0.950 . S
C424 C433 1.390 . S
C425 C424 1.387 . S
C425 C427 1.387 . S
H426 C433 0.950 . S
C427 C425 1.387 . S
C427 C429 1.390 . S
C427 H431 0.950 . S
H428 C424 0.950 . S
C429 C427 1.390 . S
C429 C430 1.387 . S
C429 H432 0.950 . S
C430 C429 1.387 . S
C430 C433 1.387 . S
H431 C427 0.950 . S
H432 C429 0.950 . S
C433 C424 1.390 . S
C433 H426 0.950 . S
C433 C430 1.387 . S
C434 C435 1.387 . S
C434 H438 0.950 . S
C434 C443 1.390 . S
C435 C434 1.387 . S
C435 C437 1.387 . S
H436 C443 0.950 . S
C437 C435 1.387 . S
C437 C439 1.390 . S
C437 H441 0.950 1_554 S
H438 C434 0.950 . S
C439 C437 1.390 . S
C439 C440 1.387 . S
C439 H442 0.950 1_554 S
C440 C439 1.387 . S
C440 C443 1.387 . S
H441 C437 0.950 1_556 S
H442 C439 0.950 1_556 S
C443 C434 1.390 . S
C443 H436 0.950 . S
C443 C440 1.387 . S
C444 C445 1.387 1_554 S
C444 H448 0.950 . S
C444 C453 1.390 . S
C445 C444 1.387 1_556 S
C445 C447 1.387 . S
H446 C453 0.950 . S
C447 C445 1.387 . S
C447 C449 1.390 . S
C447 H451 0.950 . S
H448 C444 0.950 . S
C449 C447 1.390 . S
C449 C450 1.387 . S
C449 H452 0.950 . S
C450 C449 1.387 . S
C450 C453 1.387 1_556 S
H451 C447 0.950 . S
H452 C449 0.950 . S
C453 C444 1.390 . S
C453 H446 0.950 . S
C453 C450 1.387 1_554 S
C454 C455 1.387 . S
C454 H458 0.950 1_556 S
C454 C463 1.390 1_556 S
C455 C454 1.387 . S
C455 C457 1.387 . S
H456 C463 0.950 . S
C457 C455 1.387 . S
C457 C459 1.390 . S
C457 H461 0.950 . S
H458 C454 0.950 1_554 S
C459 C457 1.390 . S
C459 C460 1.387 . S
C459 H462 0.950 . S
C460 C459 1.387 . S
C460 C463 1.387 1_556 S
H461 C457 0.950 . S
H462 C459 0.950 . S
C463 C454 1.390 1_554 S
C463 H456 0.950 . S
C463 C460 1.387 1_554 S
C464 C465 1.387 . S
C464 H468 0.950 . S
C464 C473 1.390 1_556 S
C465 C464 1.387 . S
C465 C467 1.387 . S
H466 C473 0.950 . S
C467 C465 1.387 . S
C467 C469 1.390 . S
C467 H471 0.950 . S
H468 C464 0.950 . S
C469 C467 1.390 . S
C469 C470 1.387 . S
C469 H472 0.950 . S
C470 C469 1.387 . S
C470 C473 1.387 1_556 S
H471 C467 0.950 . S
H472 C469 0.950 . S
C473 C464 1.390 1_554 S
C473 H466 0.950 . S
C473 C470 1.387 1_554 S
C474 C475 1.387 . S
C474 H478 0.950 . S
C474 C483 1.390 . S
C475 C474 1.387 . S
C475 C477 1.387 1_556 S
H476 C483 0.950 . S
C477 C475 1.387 1_554 S
C477 C479 1.390 . S
C477 H481 0.950 . S
H478 C474 0.950 . S
C479 C477 1.390 . S
C479 C480 1.387 1_554 S
C479 H482 0.950 . S
C480 C479 1.387 1_556 S
C480 C483 1.387 . S
H481 C477 0.950 . S
H482 C479 0.950 . S
C483 C474 1.390 . S
C483 H476 0.950 . S
C483 C480 1.387 . S
C484 C485 1.387 . S
C484 H488 0.950 . S
C484 C493 1.390 . S
C485 C484 1.387 . S
C485 C487 1.387 . S
H486 C493 0.950 . S
C487 C485 1.387 . S
C487 C489 1.390 . S
C487 H491 0.950 . S
H488 C484 0.950 . S
C489 C487 1.390 . S
C489 C490 1.387 . S
C489 H492 0.950 . S
C490 C489 1.387 . S
C490 C493 1.387 . S
H491 C487 0.950 . S
H492 C489 0.950 . S
C493 C484 1.390 . S
C493 H486 0.950 . S
C493 C490 1.387 . S
C494 C495 1.387 1_554 S
C494 H498 0.950 . S
C494 C503 1.390 . S
C495 C494 1.387 1_556 S
C495 C497 1.387 . S
H496 C503 0.950 . S
C497 C495 1.387 . S
C497 C499 1.390 . S
C497 H501 0.950 . S
H498 C494 0.950 . S
C499 C497 1.390 . S
C499 C500 1.387 1_556 S
C499 H502 0.950 . S
C500 C499 1.387 1_554 S
C500 C503 1.387 . S
H501 C497 0.950 . S
H502 C499 0.950 . S
C503 C494 1.390 . S
C503 H496 0.950 . S
C503 C500 1.387 . S
C504 C505 1.387 . S
C504 H508 0.950 . S
C504 C513 1.390 . S
C505 C504 1.387 . S
C505 C507 1.387 . S
H506 C513 0.950 1_556 S
C507 C505 1.387 . S
C507 C509 1.390 . S
C507 H511 0.950 . S
H508 C504 0.950 . S
C509 C507 1.390 . S
C509 C510 1.387 . S
C509 H512 0.950 . S
C510 C509 1.387 . S
C510 C513 1.387 . S
H511 C507 0.950 . S
H512 C509 0.950 . S
C513 C504 1.390 . S
C513 H506 0.950 1_554 S
C513 C510 1.387 . S
C514 C515 1.387 . S
C514 H518 0.950 . S
C514 C523 1.390 . S
C515 C514 1.387 . S
C515 C517 1.387 . S
H516 C523 0.950 . S
C517 C515 1.387 . S
C517 C519 1.390 . S
C517 H521 0.950 . S
H518 C514 0.950 . S
C519 C517 1.390 . S
C519 C520 1.387 . S
C519 H522 0.950 . S
C520 C519 1.387 . S
C520 C523 1.387 . S
H521 C517 0.950 . S
H522 C519 0.950 . S
C523 C514 1.390 . S
C523 H516 0.950 . S
C523 C520 1.387 . S
C524 C525 1.387 . S
C524 H528 0.950 . S
C524 C533 1.390 . S
C525 C524 1.387 . S
C525 C527 1.387 . S
H526 C533 0.950 . S
C527 C525 1.387 . S
C527 C529 1.390 . S
C527 H531 0.950 . S
H528 C524 0.950 . S
C529 C527 1.390 . S
C529 C530 1.387 . S
C529 H532 0.950 . S
C530 C529 1.387 . S
C530 C533 1.387 . S
H531 C527 0.950 . S
H532 C529 0.950 . S
C533 C524 1.390 . S
C533 H526 0.950 . S
C533 C530 1.387 . S
C534 C535 1.387 . S
C534 H538 0.950 . S
C534 C543 1.390 1_655 S
C535 C534 1.387 . S
C535 C537 1.387 . S
H536 C543 0.950 . S
C537 C535 1.387 . S
C537 C539 1.390 . S
C537 H541 0.950 . S
H538 C534 0.950 . S
C539 C537 1.390 . S
C539 C540 1.387 1_655 S
C539 H542 0.950 1_655 S
C540 C539 1.387 1_455 S
C540 C543 1.387 . S
H541 C537 0.950 . S
H542 C539 0.950 1_455 S
C543 C534 1.390 1_455 S
C543 H536 0.950 . S
C543 C540 1.387 . S
C544 C545 1.387 . S
C544 H548 0.950 . S
C544 C553 1.390 . S
C545 C544 1.387 . S
C545 C547 1.387 . S
H546 C553 0.950 . S
C547 C545 1.387 . S
C547 C549 1.390 . S
C547 H551 0.950 . S
H548 C544 0.950 . S
C549 C547 1.390 . S
C549 C550 1.387 . S
C549 H552 0.950 . S
C550 C549 1.387 . S
C550 C553 1.387 . S
H551 C547 0.950 . S
H552 C549 0.950 . S
C553 C544 1.390 . S
C553 H546 0.950 . S
C553 C550 1.387 . S
C554 C555 1.387 . S
C554 H558 0.950 . S
C554 C563 1.390 1_545 S
C555 C554 1.387 . S
C555 C557 1.387 . S
H556 C563 0.950 . S
C557 C555 1.387 . S
C557 C559 1.390 1_545 S
C557 H561 0.950 . S
H558 C554 0.950 . S
C559 C557 1.390 1_565 S
C559 C560 1.387 . S
C559 H562 0.950 . S
C560 C559 1.387 . S
C560 C563 1.387 . S
H561 C557 0.950 . S
H562 C559 0.950 . S
C563 C554 1.390 1_565 S
C563 H556 0.950 . S
C563 C560 1.387 . S
C564 C565 1.387 . S
C564 H568 0.950 . S
C564 C573 1.390 . S
C565 C564 1.387 . S
C565 C567 1.387 . S
H566 C573 0.950 . S
C567 C565 1.387 . S
C567 C569 1.390 . S
C567 H571 0.950 . S
H568 C564 0.950 . S
C569 C567 1.390 . S
C569 C570 1.387 . S
C569 H572 0.950 . S
C570 C569 1.387 . S
C570 C573 1.387 . S
H571 C567 0.950 . S
H572 C569 0.950 . S
C573 C564 1.390 . S
C573 H566 0.950 . S
C573 C570 1.387 . S
C574 C575 1.387 . S
C574 H578 0.950 . S
C574 C583 1.390 . S
C575 C574 1.387 . S
C575 C577 1.387 . S
H576 C583 0.950 . S
C577 C575 1.387 . S
C577 C579 1.390 . S
C577 H581 0.950 . S
H578 C574 0.950 . S
C579 C577 1.390 . S
C579 C580 1.387 . S
C579 H582 0.950 . S
C580 C579 1.387 . S
C580 C583 1.387 . S
H581 C577 0.950 . S
H582 C579 0.950 . S
C583 C574 1.390 . S
C583 H576 0.950 . S
C583 C580 1.387 . S
C584 C585 1.387 . S
C584 H588 0.950 . S
C584 C593 1.390 . S
C585 C584 1.387 . S
C585 C587 1.387 . S
H586 C593 0.950 . S
C587 C585 1.387 . S
C587 C589 1.390 . S
C587 H591 0.950 . S
H588 C584 0.950 . S
C589 C587 1.390 . S
C589 C590 1.387 . S
C589 H592 0.950 . S
C590 C589 1.387 . S
C590 C593 1.387 . S
H591 C587 0.950 . S
H592 C589 0.950 . S
C593 C584 1.390 . S
C593 H586 0.950 . S
C593 C590 1.387 . S
C594 C595 1.387 . S
C594 H598 0.950 . S
C594 C603 1.390 . S
C595 C594 1.387 . S
C595 C597 1.387 . S
H596 C603 0.950 . S
C597 C595 1.387 . S
C597 C599 1.390 . S
C597 H601 0.950 . S
H598 C594 0.950 . S
C599 C597 1.390 . S
C599 C600 1.387 . S
C599 H602 0.950 . S
C600 C599 1.387 . S
C600 C603 1.387 . S
H601 C597 0.950 . S
H602 C599 0.950 . S
C603 C594 1.390 . S
C603 H596 0.950 . S
C603 C600 1.387 . S
C604 C605 1.387 . S
C604 H608 0.950 . S
C604 C613 1.390 . S
C605 C604 1.387 . S
C605 C607 1.387 . S
H606 C613 0.950 . S
C607 C605 1.387 . S
C607 C609 1.390 . S
C607 H611 0.950 . S
H608 C604 0.950 . S
C609 C607 1.390 . S
C609 C610 1.387 . S
C609 H612 0.950 . S
C610 C609 1.387 . S
C610 C613 1.387 . S
H611 C607 0.950 . S
H612 C609 0.950 . S
C613 C604 1.390 . S
C613 H606 0.950 . S
C613 C610 1.387 . S
C614 C615 1.387 . S
C614 H618 0.950 . S
C614 C623 1.390 . S
C615 C614 1.387 . S
C615 C617 1.387 . S
H616 C623 0.950 . S
C617 C615 1.387 . S
C617 C619 1.390 . S
C617 H621 0.950 . S
H618 C614 0.950 . S
C619 C617 1.390 . S
C619 C620 1.387 . S
C619 H622 0.950 . S
C620 C619 1.387 . S
C620 C623 1.387 . S
H621 C617 0.950 . S
H622 C619 0.950 . S
C623 C614 1.390 . S
C623 H616 0.950 . S
C623 C620 1.387 . S
C624 C625 1.387 . S
C624 H628 0.950 . S
C624 C633 1.390 1_545 S
C625 C624 1.387 . S
C625 C627 1.387 . S
H626 C633 0.950 . S
C627 C625 1.387 . S
C627 C629 1.390 . S
C627 H631 0.950 . S
H628 C624 0.950 . S
C629 C627 1.390 . S
C629 C630 1.387 1_545 S
C629 H632 0.952 . S
C630 C629 1.387 1_565 S
C630 C633 1.387 . S
H631 C627 0.950 . S
H632 C629 0.952 . S
C633 C624 1.390 1_565 S
C633 H626 0.950 . S
C633 C630 1.387 . S
C634 C635 1.387 . S
C634 H638 0.950 . S
C634 C643 1.390 1_655 S
C635 C634 1.387 . S
C635 C637 1.387 . S
H636 C643 0.950 . S
C637 C635 1.387 . S
C637 C639 1.390 . S
C637 H641 0.950 . S
H638 C634 0.950 . S
C639 C637 1.390 . S
C639 C640 1.387 1_655 S
C639 H642 0.950 . S
C640 C639 1.387 1_455 S
C640 C643 1.387 . S
H641 C637 0.950 . S
H642 C639 0.950 . S
C643 C634 1.390 1_455 S
C643 H636 0.950 . S
C643 C640 1.387 . S
C644 C645 1.387 . S
C644 H648 0.950 . S
C644 C653 1.390 . S
C645 C644 1.387 . S
C645 C647 1.387 . S
H646 C653 0.950 . S
C647 C645 1.387 . S
C647 C649 1.390 . S
C647 H651 0.950 . S
H648 C644 0.950 . S
C649 C647 1.390 . S
C649 C650 1.387 . S
C649 H652 0.950 . S
C650 C649 1.387 . S
C650 C653 1.387 . S
H651 C647 0.950 . S
H652 C649 0.950 . S
C653 C644 1.390 . S
C653 H646 0.950 . S
C653 C650 1.387 . S
C654 C655 1.387 . S
C654 H658 0.950 . S
C654 C663 1.390 . S
C655 C654 1.387 . S
C655 C657 1.387 . S
H656 C663 0.950 . S
C657 C655 1.387 . S
C657 C659 1.390 . S
C657 H661 0.950 . S
H658 C654 0.950 . S
C659 C657 1.390 . S
C659 C660 1.387 . S
C659 H662 0.950 . S
C660 C659 1.387 . S
C660 C663 1.387 . S
H661 C657 0.950 . S
H662 C659 0.950 . S
C663 C654 1.390 . S
C663 H656 0.950 . S
C663 C660 1.387 . S
C664 C665 1.387 . S
C664 H668 0.950 . S
C664 C673 1.390 . S
C665 C664 1.387 . S
C665 C667 1.387 . S
H666 C673 0.950 . S
C667 C665 1.387 . S
C667 C669 1.390 . S
C667 H671 0.950 . S
H668 C664 0.950 . S
C669 C667 1.390 . S
C669 C670 1.387 . S
C669 H672 0.950 . S
C670 C669 1.387 . S
C670 C673 1.387 . S
H671 C667 0.950 . S
H672 C669 0.950 . S
C673 C664 1.390 . S
C673 H666 0.950 . S
C673 C670 1.387 . S
C674 C675 1.387 . S
C674 H678 0.950 . S
C674 C683 1.390 . S
C675 C674 1.387 . S
C675 C677 1.387 . S
H676 C683 0.950 . S
C677 C675 1.387 . S
C677 C679 1.390 . S
C677 H681 0.950 . S
H678 C674 0.950 . S
C679 C677 1.390 . S
C679 C680 1.387 . S
C679 H682 0.950 . S
C680 C679 1.387 . S
C680 C683 1.387 . S
H681 C677 0.950 . S
H682 C679 0.950 . S
C683 C674 1.390 . S
C683 H676 0.950 . S
C683 C680 1.387 . S
C684 C685 1.387 . S
C684 H688 0.950 . S
C684 C693 1.390 1_565 S
C685 C684 1.387 . S
C685 C687 1.387 1_565 S
H686 C693 0.950 . S
C687 C685 1.387 1_545 S
C687 C689 1.390 . S
C687 H691 0.950 1_545 S
H688 C684 0.950 . S
C689 C687 1.390 . S
C689 C690 1.387 . S
C689 H692 0.950 . S
C690 C689 1.387 . S
C690 C693 1.387 . S
H691 C687 0.950 1_565 S
H692 C689 0.950 . S
C693 C684 1.390 1_545 S
C693 H686 0.950 . S
C693 C690 1.387 . S
C694 C695 1.387 . S
C694 H698 0.950 . S
C694 C703 1.390 1_455 S
C695 C694 1.387 . S
C695 C697 1.387 . S
H696 C703 0.950 . S
C697 C695 1.387 . S
C697 C699 1.375 1_455 S
C697 H701 0.950 . S
H698 C694 0.950 . S
C699 C697 1.375 1_655 S
C699 C700 1.395 . S
C699 H702 0.957 . S
C700 C699 1.395 . S
C700 C703 1.387 . S
H701 C697 0.950 . S
H702 C699 0.957 . S
C703 C694 1.390 1_655 S
C703 H696 0.950 . S
C703 C700 1.387 . S
C704 C705 1.387 . S
C704 H708 0.950 . S
C704 C713 1.390 . S
C705 C704 1.387 . S
C705 C707 1.387 . S
H706 C713 0.950 . S
C707 C705 1.387 . S
C707 C709 1.390 . S
C707 H711 0.950 . S
H708 C704 0.950 . S
C709 C707 1.390 . S
C709 C710 1.387 . S
C709 H712 0.950 . S
C710 C709 1.387 . S
C710 C713 1.387 . S
H711 C707 0.950 . S
H712 C709 0.950 . S
C713 C704 1.390 . S
C713 H706 0.950 . S
C713 C710 1.387 . S
C714 C715 1.387 . S
C714 H718 0.950 . S
C714 C723 1.390 . S
C715 C714 1.387 . S
C715 C717 1.387 . S
H716 C723 0.950 1_655 S
C717 C715 1.387 . S
C717 C719 1.390 . S
C717 H721 0.950 . S
H718 C714 0.950 . S
C719 C717 1.390 . S
C719 C720 1.387 . S
C719 H722 0.950 . S
C720 C719 1.387 . S
C720 C723 1.387 . S
H721 C717 0.950 . S
H722 C719 0.950 . S
C723 C714 1.390 . S
C723 H716 0.950 1_455 S
C723 C720 1.387 . S
C724 C725 1.387 . S
C724 H728 0.950 . S
C724 C733 1.390 . S
C725 C724 1.387 . S
C725 C727 1.387 . S
H726 C733 0.950 . S
C727 C725 1.387 . S
C727 C729 1.390 . S
C727 H731 0.950 . S
H728 C724 0.950 . S
C729 C727 1.390 . S
C729 C730 1.387 . S
C729 H732 0.950 . S
C730 C729 1.387 . S
C730 C733 1.387 . S
H731 C727 0.950 . S
H732 C729 0.950 . S
C733 C724 1.390 . S
C733 H726 0.950 . S
C733 C730 1.387 . S
C734 C735 1.387 . S
C734 H738 0.950 . S
C734 C743 1.390 1_565 S
C735 C734 1.387 . S
C735 C737 1.387 . S
H736 C743 0.950 . S
C737 C735 1.387 . S
C737 C739 1.390 1_565 S
C737 H741 0.950 . S
H738 C734 0.950 . S
C739 C737 1.390 1_545 S
C739 C740 1.387 . S
C739 H742 0.950 . S
C740 C739 1.387 . S
C740 C743 1.387 . S
H741 C737 0.950 . S
H742 C739 0.950 . S
C743 C734 1.390 1_545 S
C743 H736 0.950 . S
C743 C740 1.387 . S
C744 C745 1.387 . S
C744 H748 0.950 . S
C744 C753 1.390 . S
C745 C744 1.387 . S
C745 C747 1.387 . S
H746 C753 0.950 . S
C747 C745 1.387 . S
C747 C749 1.390 . S
C747 H751 0.950 . S
H748 C744 0.950 . S
C749 C747 1.390 . S
C749 C750 1.387 . S
C749 H752 0.950 . S
C750 C749 1.387 . S
C750 C753 1.387 . S
H751 C747 0.950 . S
H752 C749 0.950 . S
C753 C744 1.390 . S
C753 H746 0.950 . S
C753 C750 1.387 . S
C754 C755 1.387 . S
C754 H758 0.950 . S
C754 C763 1.390 . S
C755 C754 1.387 . S
C755 C757 1.387 . S
H756 C763 0.950 . S
C757 C755 1.387 . S
C757 C759 1.390 . S
C757 H761 0.950 . S
H758 C754 0.950 . S
C759 C757 1.390 . S
C759 C760 1.387 . S
C759 H762 0.950 . S
C760 C759 1.387 . S
C760 C763 1.387 . S
H761 C757 0.950 . S
H762 C759 0.950 . S
C763 C754 1.390 . S
C763 H756 0.950 . S
C763 C760 1.387 . S
C764 C765 1.387 . S
C764 H768 0.950 . S
C764 C773 1.390 . S
C765 C764 1.387 . S
C765 C767 1.387 . S
H766 C773 0.950 . S
C767 C765 1.387 . S
C767 C769 1.390 . S
C767 H771 0.950 . S
H768 C764 0.950 . S
C769 C767 1.390 . S
C769 C770 1.387 . S
C769 H772 0.950 . S
C770 C769 1.387 . S
C770 C773 1.387 . S
H771 C767 0.950 . S
H772 C769 0.950 . S
C773 C764 1.390 . S
C773 H766 0.950 . S
C773 C770 1.387 . S
C774 C775 1.387 . S
C774 H778 0.950 . S
C774 C783 1.390 . S
C775 C774 1.387 . S
C775 C777 1.387 . S
H776 C783 0.950 . S
C777 C775 1.387 . S
C777 C779 1.390 . S
C777 H781 0.950 . S
H778 C774 0.950 . S
C779 C777 1.390 . S
C779 C780 1.387 . S
C779 H782 0.950 . S
C780 C779 1.387 . S
C780 C783 1.387 . S
H781 C777 0.950 . S
H782 C779 0.950 . S
C783 C774 1.390 . S
C783 H776 0.950 . S
C783 C780 1.387 . S
C784 C785 1.387 . S
C784 H788 0.950 . S
C784 C793 1.390 . S
C785 C784 1.387 . S
C785 C787 1.387 . S
H786 C793 0.950 . S
C787 C785 1.387 . S
C787 C789 1.390 . S
C787 H791 0.950 . S
H788 C784 0.950 . S
C789 C787 1.390 . S
C789 C790 1.387 . S
C789 H792 0.950 . S
C790 C789 1.387 . S
C790 C793 1.387 . S
H791 C787 0.950 . S
H792 C789 0.950 . S
C793 C784 1.390 . S
C793 H786 0.950 . S
C793 C790 1.387 . S
C794 C795 1.387 . S
C794 H798 0.950 . S
C794 C803 1.390 . S
C795 C794 1.387 . S
C795 C797 1.387 . S
H796 C803 0.950 . S
C797 C795 1.387 . S
C797 C799 1.390 . S
C797 H801 0.950 . S
H798 C794 0.950 . S
C799 C797 1.390 . S
C799 C800 1.387 . S
C799 H802 0.950 . S
C800 C799 1.387 . S
C800 C803 1.387 . S
H801 C797 0.950 . S
H802 C799 0.950 . S
C803 C794 1.390 . S
C803 H796 0.950 . S
C803 C800 1.387 . S
C804 C805 1.387 . S
C804 H808 0.950 . S
C804 C813 1.390 . S
C805 C804 1.387 . S
C805 C807 1.387 . S
H806 C813 0.950 . S
C807 C805 1.387 . S
C807 C809 1.390 . S
C807 H811 0.950 . S
H808 C804 0.950 . S
C809 C807 1.390 . S
C809 C810 1.387 . S
C809 H812 0.950 . S
C810 C809 1.387 . S
C810 C813 1.387 . S
H811 C807 0.950 . S
H812 C809 0.950 . S
C813 C804 1.390 . S
C813 H806 0.950 . S
C813 C810 1.387 . S
C814 C815 1.387 . S
C814 H818 0.950 . S
C814 C823 1.390 . S
C815 C814 1.387 . S
C815 C817 1.387 . S
H816 C823 0.950 . S
C817 C815 1.387 . S
C817 C819 1.390 . S
C817 H821 0.950 . S
H818 C814 0.950 . S
C819 C817 1.390 . S
C819 C820 1.387 . S
C819 H822 0.950 . S
C820 C819 1.387 . S
C820 C823 1.387 . S
H821 C817 0.950 . S
H822 C819 0.950 . S
C823 C814 1.390 . S
C823 H816 0.950 . S
C823 C820 1.387 . S
C824 C825 1.387 . S
C824 H828 0.950 . S
C824 C833 1.390 . S
C825 C824 1.387 . S
C825 C827 1.387 . S
H826 C833 0.950 . S
C827 C825 1.387 . S
C827 C829 1.390 . S
C827 H831 0.950 . S
H828 C824 0.950 . S
C829 C827 1.390 . S
C829 C830 1.387 . S
C829 H832 0.950 . S
C830 C829 1.387 . S
C830 C833 1.387 . S
H831 C827 0.950 . S
H832 C829 0.950 . S
C833 C824 1.390 . S
C833 H826 0.950 . S
C833 C830 1.387 . S
C834 C835 1.387 . S
C834 H838 0.950 . S
C834 C843 1.390 . S
C835 C834 1.387 . S
C835 C837 1.387 . S
H836 C843 0.950 . S
C837 C835 1.387 . S
C837 C839 1.390 . S
C837 H841 0.950 . S
H838 C834 0.950 . S
C839 C837 1.390 . S
C839 C840 1.387 . S
C839 H842 0.950 . S
C840 C839 1.387 . S
C840 C843 1.387 . S
H841 C837 0.950 . S
H842 C839 0.950 . S
C843 C834 1.390 . S
C843 H836 0.950 . S
C843 C840 1.387 . S
C844 C845 1.387 . S
C844 H848 0.950 . S
C844 C853 1.390 . S
C845 C844 1.387 . S
C845 C847 1.387 . S
H846 C853 0.950 . S
C847 C845 1.387 . S
C847 C849 1.390 . S
C847 H851 0.950 . S
H848 C844 0.950 . S
C849 C847 1.390 . S
C849 C850 1.387 . S
C849 H852 0.950 . S
C850 C849 1.387 . S
C850 C853 1.387 . S
H851 C847 0.950 . S
H852 C849 0.950 . S
C853 C844 1.390 . S
C853 H846 0.950 . S
C853 C850 1.387 . S
C854 C855 1.387 . S
C854 H858 0.950 . S
C854 C863 1.390 . S
C855 C854 1.387 . S
C855 C857 1.387 . S
H856 C863 0.950 . S
C857 C855 1.387 . S
C857 C859 1.390 . S
C857 H861 0.950 . S
H858 C854 0.950 . S
C859 C857 1.390 . S
C859 C860 1.387 . S
C859 H862 0.950 . S
C860 C859 1.387 . S
C860 C863 1.387 . S
H861 C857 0.950 . S
H862 C859 0.950 . S
C863 C854 1.390 . S
C863 H856 0.950 . S
C863 C860 1.387 . S
C864 C865 1.387 . S
C864 H868 0.950 . S
C864 C873 1.390 . S
C865 C864 1.387 . S
C865 C867 1.387 . S
H866 C873 0.950 . S
C867 C865 1.387 . S
C867 C869 1.390 . S
C867 H871 0.950 . S
H868 C864 0.950 . S
C869 C867 1.390 . S
C869 C870 1.387 . S
C869 H872 0.950 . S
C870 C869 1.387 . S
C870 C873 1.387 . S
H871 C867 0.950 . S
H872 C869 0.950 . S
C873 C864 1.390 . S
C873 H866 0.950 . S
C873 C870 1.387 . S
C874 C875 1.387 . S
C874 H878 0.950 . S
C874 C883 1.390 . S
C875 C874 1.387 . S
C875 C877 1.387 . S
H876 C883 0.950 . S
C877 C875 1.387 . S
C877 C879 1.390 . S
C877 H881 0.950 . S
H878 C874 0.950 . S
C879 C877 1.390 . S
C879 C880 1.387 . S
C879 H882 0.950 . S
C880 C879 1.387 . S
C880 C883 1.387 . S
H881 C877 0.950 . S
H882 C879 0.950 . S
C883 C874 1.390 . S
C883 H876 0.950 . S
C883 C880 1.387 . S
C884 C885 1.387 . S
C884 H888 0.950 . S
C884 C893 1.390 . S
C885 C884 1.387 . S
C885 C887 1.387 . S
H886 C893 0.950 . S
C887 C885 1.387 . S
C887 C889 1.390 . S
C887 H891 0.950 . S
H888 C884 0.950 . S
C889 C887 1.390 . S
C889 C890 1.387 . S
C889 H892 0.950 . S
C890 C889 1.387 . S
C890 C893 1.387 . S
H891 C887 0.950 . S
H892 C889 0.950 . S
C893 C884 1.390 . S
C893 H886 0.950 . S
C893 C890 1.387 . S
C894 C895 1.387 . S
C894 H898 0.950 . S
C894 C903 1.390 . S
C895 C894 1.387 . S
C895 C897 1.387 . S
H896 C903 0.950 . S
C897 C895 1.387 . S
C897 C899 1.390 . S
C897 H901 0.950 . S
H898 C894 0.950 . S
C899 C897 1.390 . S
C899 C900 1.387 . S
C899 H902 0.950 . S
C900 C899 1.387 . S
C900 C903 1.387 . S
H901 C897 0.950 . S
H902 C899 0.950 . S
C903 C894 1.390 . S
C903 H896 0.950 . S
C903 C900 1.387 . S
C904 C905 1.387 . S
C904 H908 0.950 . S
C904 C913 1.390 . S
C905 C904 1.387 . S
C905 C907 1.387 . S
H906 C913 0.950 . S
C907 C905 1.387 . S
C907 C909 1.390 . S
C907 H911 0.950 . S
H908 C904 0.950 . S
C909 C907 1.390 . S
C909 C910 1.387 . S
C909 H912 0.950 . S
C910 C909 1.387 . S
C910 C913 1.387 . S
H911 C907 0.950 . S
H912 C909 0.950 . S
C913 C904 1.390 . S
C913 H906 0.950 . S
C913 C910 1.387 . S
C914 C915 1.387 . S
C914 H918 0.950 . S
C914 C923 1.390 . S
C915 C914 1.387 . S
C915 C917 1.387 . S
H916 C923 0.950 . S
C917 C915 1.387 . S
C917 C919 1.390 . S
C917 H921 0.950 . S
H918 C914 0.950 . S
C919 C917 1.390 . S
C919 C920 1.387 . S
C919 H922 0.950 . S
C920 C919 1.387 . S
C920 C923 1.387 . S
H921 C917 0.950 . S
H922 C919 0.950 . S
C923 C914 1.390 . S
C923 H916 0.950 . S
C923 C920 1.387 . S
C924 C925 1.387 . S
C924 H928 0.950 . S
C924 C933 1.390 . S
C925 C924 1.387 . S
C925 C927 1.387 . S
H926 C933 0.950 . S
C927 C925 1.387 . S
C927 C929 1.390 . S
C927 H931 0.950 . S
H928 C924 0.950 . S
C929 C927 1.390 . S
C929 C930 1.387 . S
C929 H932 0.950 . S
C930 C929 1.387 . S
C930 C933 1.387 . S
H931 C927 0.950 . S
H932 C929 0.950 . S
C933 C924 1.390 . S
C933 H926 0.950 . S
C933 C930 1.387 . S
C934 C935 1.387 . S
C934 H938 0.950 . S
C934 C943 1.390 . S
C935 C934 1.387 . S
C935 C937 1.387 . S
H936 C943 0.950 . S
C937 C935 1.387 . S
C937 C939 1.390 . S
C937 H941 0.950 . S
H938 C934 0.950 . S
C939 C937 1.390 . S
C939 C940 1.387 . S
C939 H942 0.950 . S
C940 C939 1.387 . S
C940 C943 1.387 . S
H941 C937 0.950 . S
H942 C939 0.950 . S
C943 C934 1.390 . S
C943 H936 0.950 . S
C943 C940 1.387 . S
C944 C945 1.387 . S
C944 H948 0.950 . S
C944 C953 1.390 . S
C945 C944 1.387 . S
C945 C947 1.387 . S
H946 C953 0.950 . S
C947 C945 1.387 . S
C947 C949 1.390 . S
C947 H951 0.950 . S
H948 C944 0.950 . S
C949 C947 1.390 . S
C949 C950 1.387 . S
C949 H952 0.950 . S
C950 C949 1.387 . S
C950 C953 1.387 . S
H951 C947 0.950 . S
H952 C949 0.950 . S
C953 C944 1.390 . S
C953 H946 0.950 . S
C953 C950 1.387 . S
C415 N170 1.805 . S
C420 C240 1.810 . S
C425 N184 1.193 . S
C430 C260 1.170 . S
C435 N158 1.555 . S
C440 C283 1.553 . S
C445 N145 1.501 . S
C450 C263 1.498 1_556 S
C460 C280 1.145 . S
C455 N119 1.165 . S
C465 N131 1.805 . S
C470 C243 1.825 1_556 S
C480 C250 1.582 1_556 S
C475 N144 1.605 . S
C490 C270 1.395 . S
C485 N118 1.436 . S
C495 N132 1.523 . S
C500 C275 1.532 . S
C505 N171 1.481 . S
C510 C255 1.489 . S
C515 N183 1.382 . S
C520 C290 1.357 . S
C530 C235 1.566 . S
C525 N157 1.572 . S
C540 C300 1.811 . S
C535 N14 1.805 . S
C545 N28 1.193 . S
C550 C320 1.171 . S
C555 N2 1.555 . S
C560 C343 1.552 . S
C565 N223 1.501 . S
C570 C323 1.498 . S
C575 N197 1.165 . S
C580 C340 1.145 . S
C585 N209 1.807 . S
C590 C303 1.826 . S
C595 N222 1.606 . S
C600 C310 1.583 . S
C605 N196 1.435 . S
C610 C330 1.395 . S
C620 C335 1.531 . S
C615 N210 1.523 . S
C625 N15 1.480 . S
C630 C315 1.489 . S
C640 C350 1.359 . S
C635 N27 1.381 . S
C645 N1 1.571 . S
C650 C295 1.566 . S
C660 C360 1.811 . S
C655 N92 1.805 . S
C665 N106 1.192 . S
C670 C380 1.169 . S
C680 C403 1.553 . S
C675 N80 1.556 . S
C690 C383 1.499 . S
C685 N67 1.502 . S
C700 C400 1.145 . S
C695 N41 1.165 . S
C705 N53 1.805 . S
C710 C363 1.825 . S
C715 N66 1.605 . S
C720 C370 1.581 1_455 S
C725 N40 1.435 . S
C730 C390 1.397 . S
C740 C395 1.532 . S
C735 N54 1.524 . S
C745 N93 1.480 . S
C750 C375 1.489 . S
C755 N105 1.380 . S
C760 C410 1.359 . S
C765 N79 1.571 . S
C770 C355 1.565 . S
C775 N200 1.111 . S
C780 C253 1.094 . S
C790 C273 1.784 . S
C785 N213 1.801 . S
C795 N226 1.504 . S
C800 C282 1.472 . S
C805 N83 1.568 . S
C810 C262 1.530 . S
C815 N96 1.744 . S
C820 C293 1.736 . S
C830 C242 1.142 . S
C825 N109 1.155 . S
C835 N44 1.112 . S
C840 C313 1.091 . S
C845 N57 1.801 . S
C850 C333 1.784 . S
C855 N70 1.505 . S
C860 C342 1.475 . S
C865 N161 1.569 . S
C870 C322 1.531 . S
C880 C353 1.734 . S
C875 N174 1.744 . S
C885 N187 1.155 . S
C890 C302 1.142 . S
C895 N122 1.113 . S
C900 C373 1.092 . S
C905 N135 1.800 . S
C910 C393 1.787 . S
C920 C402 1.475 . S
C915 N148 1.503 . S
C925 N5 1.568 . S
C930 C382 1.531 . S
C935 N18 1.744 . S
C940 C413 1.734 . S
C945 N31 1.157 . S
C950 C362 1.139 . S
