# Generated by pormake.
# Topology tsx, (6,3)-cn, num edge types: 1
# Building blocks:
#     Node 0, Type 0, BuildingBlock: FUNLAD_clean_sbu_0, # of connection points: 6
#     Node 1, Type 0, BuildingBlock: FUNLAD_clean_sbu_0, # of connection points: 6
#     Node 2, Type 1, BuildingBlock: CUQRIR_clean_linker_1, # of connection points: 3
#     Node 3, Type 1, BuildingBlock: CUQRIR_clean_linker_1, # of connection points: 3
#     Node 4, Type 1, BuildingBlock: CUQRIR_clean_linker_1, # of connection points: 3
#     Node 5, Type 1, BuildingBlock: CUQRIR_clean_linker_1, # of connection points: 3
#     Edge 6, Type (0, 1), BuildingBlock: FUNLAD_clean_linker_0, # of connection points: 2
#     Edge 7, Type (0, 1), BuildingBlock: FUNLAD_clean_linker_0, # of connection points: 2
#     Edge 8, Type (0, 1), BuildingBlock: FUNLAD_clean_linker_0, # of connection points: 2
#     Edge 9, Type (0, 1), BuildingBlock: FUNLAD_clean_linker_0, # of connection points: 2
#     Edge 10, Type (0, 1), BuildingBlock: FUNLAD_clean_linker_0, # of connection points: 2
#     Edge 11, Type (0, 1), BuildingBlock: FUNLAD_clean_linker_0, # of connection points: 2
#     Edge 12, Type (0, 1), BuildingBlock: FUNLAD_clean_linker_0, # of connection points: 2
#     Edge 13, Type (0, 1), BuildingBlock: FUNLAD_clean_linker_0, # of connection points: 2
#     Edge 14, Type (0, 1), BuildingBlock: FUNLAD_clean_linker_0, # of connection points: 2
#     Edge 15, Type (0, 1), BuildingBlock: FUNLAD_clean_linker_0, # of connection points: 2
#     Edge 16, Type (0, 1), BuildingBlock: FUNLAD_clean_linker_0, # of connection points: 2
#     Edge 17, Type (0, 1), BuildingBlock: FUNLAD_clean_linker_0, # of connection points: 2
# Relax obj value: 0.155
# Max RMSD: 0.156
# Mean RMSD: 0.139
data_MOF--net-tsx--node1-FUNLAD_clean_sbu_0--node2-CUQRIR_clean_linker_1--edge1-FUNLAD_clean_linker_0
_symmetry_space_group_name_H-M    P1
_symmetry_Int_Tables_number       1
_symmetry_cell_setting            triclinic
loop_
_symmetry_equiv_pos_as_xyz
'x, y, z'
_cell_length_a     21.071112
_cell_length_b     23.031382
_cell_length_c     43.529478
_cell_angle_alpha  80.101744
_cell_angle_beta   92.550995
_cell_angle_gamma 89.711772
loop_
_atom_site_label
_atom_site_type_symbol
_atom_site_fract_x
_atom_site_fract_y
_atom_site_fract_z
_atom_type_partial_charge
C0 C 0.94688 0.93579 0.9922 0.0
N1 N 0.04376 0.98851 0.068 0.0
C2 C 0.98862 0.97579 0.08265 0.0
C3 C 0.98861 0.96331 0.11511 0.0
C4 C 0.04561 0.9657 0.13292 0.0
C5 C 0.10199 0.97836 0.11709 0.0
C6 C 0.10005 0.989 0.08451 0.0
Zn7 Zn 0.04078 0.00981 0.02051 0.0
C8 C 0.12969 0.93641 0.99128 0.0
N9 N 0.03217 0.05475 0.9214 0.0
C10 C 0.9753 0.06002 0.90506 0.0
C11 C 0.08746 0.06796 0.90691 0.0
C12 C 0.08684 0.08844 0.87482 0.0
C13 C 0.02877 0.09511 0.85736 0.0
C14 C 0.97252 0.08002 0.87288 0.0
Zn15 Zn 0.03491 0.03168 0.96881 0.0
O16 O 0.97186 0.94691 0.01753 0.0
C17 C 0.94137 0.10147 -0.00367 0.0
O18 O 0.96491 0.96411 0.96637 0.0
H19 H 0.13214 0.06361 0.92037 0.0
H20 H 0.94426 0.97591 0.06917 0.0
H21 H 0.9319 0.04942 0.91707 0.0
O22 O 0.96697 0.07461 0.02194 0.0
O23 O 0.96211 0.09191 0.97076 0.0
H24 H 0.14348 0.99883 0.07243 0.0
O25 O 0.10403 0.09972 0.97254 0.0
O26 O 0.10955 0.0734 0.02337 0.0
O27 O 0.10648 0.96943 0.96695 0.0
O28 O 0.11245 0.94422 0.01797 0.0
C29 C 0.12731 0.10675 -0.00087 0.0
H30 H 0.94407 0.95226 0.12601 0.0
H31 H 0.14704 0.98159 0.12957 0.0
H32 H 0.13133 0.10006 0.86396 0.0
H33 H 0.92676 0.08336 0.86032 0.0
C34 C 0.48018 0.43853 0.49912 0.0
N35 N 0.5741 0.50412 0.57152 0.0
C36 C 0.52074 0.49694 0.58816 0.0
C37 C 0.52523 0.49082 0.62065 0.0
C38 C 0.58513 0.49264 0.63595 0.0
C39 C 0.63936 0.49904 0.61823 0.0
C40 C 0.63275 0.50448 0.58589 0.0
Zn41 Zn 0.5684 0.51837 0.52417 0.0
C42 C 0.66207 0.44358 0.49797 0.0
N43 N 0.56364 0.55246 0.42503 0.0
C44 C 0.50683 0.54972 0.40923 0.0
C45 C 0.61793 0.56608 0.40966 0.0
C46 C 0.61631 0.57779 0.3771 0.0
C47 C 0.55856 0.57414 0.36038 0.0
C48 C 0.50334 0.55981 0.37667 0.0
Zn49 Zn 0.56735 0.53654 0.4726 0.0
O50 O 0.50517 0.44981 0.52441 0.0
C51 C 0.47154 0.60987 0.49654 0.0
O52 O 0.49527 0.46897 0.47323 0.0
H53 H 0.66267 0.56754 0.42264 0.0
H54 H 0.47465 0.497 0.57618 0.0
H55 H 0.46414 0.53952 0.42187 0.0
O56 O 0.48996 0.58047 0.523 0.0
O57 O 0.49745 0.60022 0.47216 0.0
H58 H 0.67454 0.51002 0.5722 0.0
O59 O 0.63864 0.60403 0.47366 0.0
O60 O 0.63169 0.58754 0.52439 0.0
O61 O 0.63711 0.47198 0.47275 0.0
O62 O 0.64517 0.45576 0.5239 0.0
C63 C 0.65463 0.61685 0.50021 0.0
H64 H 0.48226 0.48644 0.63357 0.0
H65 H 0.68636 0.50002 0.62926 0.0
H66 H 0.65986 0.58815 0.3651 0.0
H67 H 0.45802 0.55673 0.36432 0.0
C68 C 0.96832 0.96648 0.44874 0.0
N69 N 0.01067 0.94414 0.43136 0.0
N70 N 0.94467 0.01906 0.43363 0.0
C71 C 0.95183 0.9372 0.48067 0.0
C72 C 0.97364 0.02735 0.40613 0.0
N73 N 0.01399 0.98204 0.40487 0.0
C74 C 0.96008 0.07839 0.38004 0.0
H75 H 0.9332 0.89265 0.47951 0.0
H76 H 0.91552 0.96287 0.49026 0.0
H77 H 0.99535 0.93153 0.49625 0.0
H78 H -0.00106 0.11071 0.38 0.0
H79 H 0.91449 0.10068 0.38298 0.0
H80 H 0.95818 0.06323 0.35716 0.0
C81 C 0.00537 0.06868 0.54451 0.0
N82 N 0.03157 0.11026 0.55943 0.0
N83 N 0.9557 0.04328 0.5601 0.0
C84 C 0.02697 0.05381 0.51442 0.0
C85 C 0.95265 0.07066 0.58508 0.0
N86 N -0.00147 0.11175 0.58459 0.0
C87 C 0.90878 0.05338 0.6114 0.0
H88 H 0.04802 0.09253 0.49982 0.0
H89 H 0.98644 0.03825 0.50132 0.0
H90 H 0.06317 0.01791 0.51958 0.0
H91 H 0.93524 0.05059 0.63424 0.0
H92 H 0.8859 0.01047 0.61031 0.0
H93 H 0.87117 0.08774 0.60999 0.0
C94 C 0.44325 0.4569 0.95099 0.0
N95 N 0.48317 0.43435 0.93258 0.0
N96 N 0.42414 0.51225 0.93785 0.0
C97 C 0.42462 0.42464 0.98199 0.0
C98 C 0.45328 0.52202 0.91039 0.0
N99 N 0.48936 0.47481 0.90731 0.0
C100 C 0.44464 0.57708 0.88635 0.0
H101 H 0.40093 0.38305 0.97875 0.0
H102 H 0.392 0.4515 -0.00695 0.0
H103 H 0.46786 0.41244 -0.00275 0.0
H104 H 0.48533 0.60663 0.88873 0.0
H105 H 0.4002 0.60085 0.88967 0.0
H106 H 0.44334 0.56631 0.86245 0.0
C107 C 0.49153 0.54891 0.04797 0.0
N108 N 0.51262 0.59372 0.06195 0.0
N109 N 0.44391 0.5204 0.0639 0.0
C110 C 0.51789 0.532 0.01927 0.0
C111 C 0.43725 0.54892 0.08825 0.0
N112 N 0.47887 0.59376 0.08702 0.0
C113 C 0.39569 0.52871 0.1152 0.0
H114 H 0.48021 0.51297 0.0059 0.0
H115 H 0.55575 0.49807 0.02629 0.0
H116 H 0.53817 0.57044 0.00415 0.0
H117 H 0.42429 0.52404 0.13754 0.0
H118 H 0.37268 0.48613 0.11351 0.0
H119 H 0.35832 0.56262 0.11565 0.0
C120 C 0.20203 0.15675 0.03188 0.0
C121 C 0.17112 0.15545 0.0027 0.0
C122 C 0.23768 0.20535 0.03695 0.0
C123 C 0.24358 0.25399 0.01288 0.0
C124 C 0.21395 0.25218 0.98348 0.0
C125 C 0.17842 0.20318 0.97833 0.0
C126 C 0.27624 0.30858 0.01849 0.0
C127 C 0.32207 0.3091 0.04106 0.0
C128 C 0.35218 0.36409 0.04747 0.0
C129 C 0.41642 0.36257 0.05771 0.0
C130 C 0.44672 0.41413 0.06285 0.0
C131 C 0.41281 0.46759 0.05854 0.0
H132 H 0.26773 0.41984 0.03716 0.0
C133 C 0.34798 0.46894 0.04974 0.0
C134 C 0.31779 0.41759 0.0441 0.0
H135 H 0.32123 0.50994 0.04679 0.0
H136 H 0.19726 0.12078 0.05122 0.0
H137 H 0.25821 0.20545 0.06017 0.0
H138 H 0.21741 0.2892 0.96458 0.0
H139 H 0.15486 0.20365 0.95565 0.0
H140 H 0.26272 0.34954 0.00314 0.0
H141 H 0.34061 0.26782 0.05436 0.0
H142 H 0.44363 0.32176 0.06091 0.0
H143 H 0.49659 0.41251 0.07015 0.0
C144 C 0.19924 0.84828 0.01355 0.0
C145 C 0.16872 0.88449 0.98772 0.0
C146 C 0.22919 0.79542 0.00995 0.0
C147 C 0.22787 0.77762 0.98057 0.0
C148 C 0.19842 0.81428 0.95485 0.0
C149 C 0.16998 0.86737 0.95825 0.0
C150 C 0.25413 0.72022 0.97582 0.0
C151 C 0.30877 0.69674 0.98974 0.0
C152 C 0.33891 0.64569 0.9793 0.0
C153 C 0.40328 0.64847 0.97246 0.0
C154 C 0.43081 0.60467 0.95867 0.0
C155 C 0.39526 0.55612 0.95274 0.0
H156 H 0.25372 0.59317 0.97922 0.0
C157 C 0.33163 0.55178 0.96082 0.0
C158 C 0.30339 0.59654 0.97381 0.0
H159 H 0.30368 0.51451 0.95639 0.0
H160 H 0.19871 0.86009 0.03657 0.0
H161 H 0.25112 0.76756 0.03026 0.0
H162 H 0.19694 0.80157 0.93199 0.0
H163 H 0.14667 0.89382 0.93784 0.0
H164 H 0.23128 0.69986 0.95751 0.0
H165 H 0.33591 0.72008 0.0055 0.0
H166 H 0.43154 0.68583 0.97651 0.0
H167 H 0.48005 0.60848 0.95256 0.0
C168 C 0.86828 0.87311 0.0228 0.0
C169 C 0.89551 0.89198 -0.00608 0.0
C170 C 0.81947 0.8325 0.02554 0.0
C171 C 0.79635 0.80939 -0.00052 0.0
C172 C 0.82419 0.82697 0.97064 0.0
C173 C 0.873 0.86862 0.96775 0.0
C174 C 0.74482 0.76545 0.00287 0.0
C175 C 0.69706 0.7695 0.022 0.0
C176 C 0.64904 0.7233 0.02995 0.0
C177 C 0.58935 0.73977 0.03894 0.0
C178 C 0.54467 0.69709 0.04916 0.0
C179 C 0.55917 0.6371 0.05106 0.0
H180 H 0.71003 0.64884 0.02607 0.0
C181 C 0.61915 0.62032 0.04252 0.0
C182 C 0.66363 0.66308 0.03178 0.0
H183 H 0.63189 0.57418 0.04465 0.0
H184 H 0.88444 0.88992 0.04353 0.0
H185 H 0.8005 0.81854 0.04832 0.0
H186 H 0.8076 0.80909 0.95032 0.0
H187 H 0.89334 0.88209 0.94526 0.0
H188 H 0.74632 0.72963 0.9896 0.0
H189 H 0.69287 0.80875 0.03258 0.0
H190 H 0.57734 0.78581 0.03817 0.0
H191 H 0.49862 0.71081 0.05564 0.0
C192 C 0.84724 0.15401 0.96776 0.0
C193 C 0.88529 0.14068 -0.00451 0.0
C194 C 0.79369 0.19027 0.96612 0.0
C195 C 0.77691 0.21456 0.99213 0.0
C196 C 0.81515 0.20194 0.01981 0.0
C197 C 0.8685 0.16456 0.02165 0.0
C198 C 0.72266 0.25668 0.98969 0.0
C199 C 0.6702 0.25221 0.97139 0.0
C200 C 0.62089 0.29932 0.96388 0.0
C201 C 0.55824 0.28462 0.95601 0.0
C202 C 0.51227 0.32883 0.94617 0.0
C203 C 0.52896 0.38819 0.94333 0.0
H204 H 0.68498 0.37217 0.96647 0.0
C205 C 0.59123 0.40305 0.95119 0.0
C206 C 0.63685 0.35911 0.9615 0.0
H207 H 0.60442 0.44892 0.94909 0.0
H208 H 0.85867 0.13627 0.94715 0.0
H209 H 0.76653 0.20048 0.94412 0.0
H210 H 0.80363 0.22087 0.04003 0.0
H211 H 0.89702 0.15513 0.04329 0.0
H212 H 0.72669 0.29269 0.00281 0.0
H213 H 0.66359 0.21304 0.96085 0.0
H214 H 0.54501 0.2389 0.95727 0.0
H215 H 0.4642 0.31698 0.94018 0.0
C216 C 0.6953 0.69068 0.53152 0.0
C217 C 0.69636 0.66707 0.5038 0.0
C218 C 0.73356 0.73801 0.53587 0.0
C219 C 0.77447 0.76281 0.51273 0.0
C220 C 0.7766 0.73882 0.48516 0.0
C221 C 0.73714 0.69181 0.48051 0.0
C222 C 0.81667 0.81209 0.51781 0.0
C223 C 0.79753 0.85516 0.53284 0.0
C224 C 0.83951 0.90327 0.53959 0.0
C225 C 0.81414 0.96045 0.53726 0.0
C226 C 0.8526 0.00656 0.54372 0.0
C227 C 0.91678 0.99604 0.55289 0.0
H228 H 0.92391 0.84855 0.55236 0.0
C229 C 0.94195 0.93873 0.55617 0.0
C230 C 0.90357 0.89251 0.54961 0.0
H231 H 0.99123 0.93001 0.56374 0.0
H232 H 0.66447 0.67276 0.55 0.0
H233 H 0.7319 0.7544 0.55771 0.0
H234 H 0.80829 0.75689 0.46711 0.0
H235 H 0.73916 0.67436 0.45899 0.0
H236 H 0.86364 0.81368 0.50838 0.0
H237 H 0.74842 0.85674 0.53935 0.0
H238 H 0.7647 0.96957 0.53005 0.0
H239 H 0.83255 0.05056 0.5415 0.0
C240 C 0.70468 0.36864 0.46908 0.0
C241 C 0.70483 0.39292 0.4966 0.0
C242 C 0.74069 0.31837 0.46764 0.0
C243 C 0.77853 0.29135 0.49357 0.0
C244 C 0.78061 0.31646 0.52082 0.0
C245 C 0.74321 0.36637 0.52253 0.0
C246 C 0.81807 0.23877 0.49151 0.0
C247 C 0.79625 0.19588 0.47643 0.0
C248 C 0.83701 0.14824 0.46864 0.0
C249 C 0.80967 0.09414 0.46497 0.0
C250 C 0.84525 0.05103 0.45406 0.0
C251 C 0.90829 0.06192 0.44607 0.0
H252 H 0.92284 0.20009 0.46301 0.0
C253 C 0.9357 0.11583 0.44971 0.0
C254 C 0.90073 0.1584 0.46123 0.0
H255 H 0.98435 0.12482 0.44357 0.0
H256 H 0.67563 0.38779 0.44865 0.0
H257 H 0.73947 0.30107 0.446 0.0
H258 H 0.8102 0.29681 0.54095 0.0
H259 H 0.74434 0.38412 0.54403 0.0
H260 H 0.86587 0.23582 0.50215 0.0
H261 H 0.74646 0.19654 0.46862 0.0
H262 H 0.76045 0.08555 0.47018 0.0
H263 H 0.82339 0.00972 0.45122 0.0
C264 C 0.38061 0.39328 0.48024 0.0
C265 C 0.43433 0.39001 0.50077 0.0
C266 C 0.33364 0.35007 0.48509 0.0
C267 C 0.34057 0.30255 0.51021 0.0
C268 C 0.39607 0.29787 0.52947 0.0
C269 C 0.442 0.34147 0.52509 0.0
C270 C 0.29081 0.25757 0.51764 0.0
C271 C 0.22822 0.27046 0.51403 0.0
C272 C 0.17846 0.22774 0.52587 0.0
C273 C 0.11992 0.24944 0.53363 0.0
C274 C 0.07231 0.21077 0.54526 0.0
C275 C 0.08201 0.14969 0.54895 0.0
H276 H 0.23171 0.14764 0.52321 0.0
C277 C 0.14026 0.12769 0.5412 0.0
C278 C 0.188 0.16626 0.52962 0.0
H279 H 0.14856 0.08061 0.54399 0.0
H280 H 0.37372 0.43031 0.46132 0.0
H281 H 0.29195 0.35409 0.46938 0.0
H282 H 0.40287 0.26147 0.54877 0.0
H283 H 0.48328 0.33763 0.54111 0.0
H284 H 0.30652 0.21443 0.52985 0.0
H285 H 0.21302 0.3154 0.50461 0.0
H286 H 0.11112 0.29648 0.53089 0.0
H287 H 0.02738 0.22844 0.55088 0.0
C288 C 0.37117 0.65309 0.51352 0.0
C289 C 0.42114 0.6557 0.49301 0.0
C290 C 0.32081 0.69434 0.50734 0.0
C291 C 0.32047 0.7391 0.48077 0.0
C292 C 0.37185 0.74265 0.46121 0.0
C293 C 0.42114 0.70131 0.46705 0.0
C294 C 0.2687 0.78379 0.47238 0.0
C295 C 0.20779 0.77549 0.48016 0.0
C296 C 0.15671 0.81979 0.46823 0.0
C297 C 0.09344 0.80133 0.46548 0.0
C298 C 0.04508 0.84183 0.45312 0.0
C299 C 0.05943 0.9013 0.44333 0.0
H300 H 0.21736 0.89694 0.46212 0.0
C301 C 0.12204 0.92006 0.44659 0.0
C302 C 0.17009 0.88006 0.45921 0.0
H303 H 0.13338 0.96618 0.43981 0.0
H304 H 0.3701 0.61834 0.53371 0.0
H305 H 0.28264 0.6912 0.52335 0.0
H306 H 0.37328 0.77692 0.44079 0.0
H307 H 0.45926 0.70487 0.45094 0.0
H308 H 0.28086 0.82352 0.45657 0.0
H309 H 0.19402 0.73357 0.49353 0.0
H310 H 0.08157 0.75539 0.47249 0.0
H311 H 0.99674 0.82684 0.45094 0.0
C312 C 0.09862 0.93204 0.18629 0.0
C313 C 0.04566 0.95706 0.16765 0.0
C314 C 0.09867 0.9256 0.21884 0.0
C315 C 0.04526 0.94292 0.23332 0.0
C316 C 0.99212 0.96675 0.21495 0.0
C317 C 0.99262 0.97468 0.18251 0.0
C318 C 0.04276 0.936 0.26755 0.0
C319 C 0.09171 0.94911 0.28593 0.0
C320 C 0.08227 0.95194 0.31907 0.0
C321 C 0.10251 1.00164 0.33131 0.0
C322 C 0.08279 0.01053 0.36043 0.0
C323 C 0.04357 0.9693 0.37768 0.0
H324 H 0.03206 0.86932 0.32881 0.0
C325 C 0.02819 0.9172 0.36668 0.0
C326 C 0.04717 0.9086 0.33752 0.0
H327 H -0.00177 0.88486 0.37987 0.0
H328 H 0.13985 0.91676 0.17587 0.0
H329 H 0.13985 0.90606 0.23265 0.0
H330 H 0.95051 0.98057 0.22572 0.0
H331 H 0.95156 0.99556 0.1692 0.0
H332 H 0.99672 0.9264 0.27749 0.0
H333 H 0.13566 0.96554 0.2757 0.0
H334 H 0.13003 0.03533 0.31752 0.0
H335 H 0.09586 0.05051 0.36894 0.0
C336 C 0.07375 0.09978 0.80451 0.0
C337 C 0.02687 0.11727 0.82317 0.0
C338 C 0.07045 0.11837 0.7722 0.0
C339 C 0.02011 0.15501 0.75778 0.0
C340 C 0.97384 0.17319 0.77642 0.0
C341 C 0.97738 0.15494 0.80877 0.0
C342 C 0.01041 0.169 0.72331 0.0
C343 C 0.05802 0.17017 0.70354 0.0
C344 C 0.04667 0.16789 0.66985 0.0
C345 C 0.09231 0.13953 0.65487 0.0
C346 C 0.07822 0.12509 0.62549 0.0
C347 C 0.01852 0.13929 0.61054 0.0
H348 H 0.95403 0.2117 0.66348 0.0
C349 C 0.97532 0.17289 0.62393 0.0
C350 C 0.98929 0.18739 0.65335 0.0
H351 H 0.92945 0.18501 0.61234 0.0
H352 H 0.11186 0.06992 0.81471 0.0
H353 H 0.10579 0.10157 0.7586 0.0
H354 H 0.93427 0.20094 0.76587 0.0
H355 H 0.94102 0.17007 0.82246 0.0
H356 H 0.96151 0.17416 0.71428 0.0
H357 H 0.10679 0.16531 0.71286 0.0
H358 H 0.13718 0.12467 0.66684 0.0
H359 H 0.11203 0.09899 0.61547 0.0
C360 C 0.55692 0.44802 0.69002 0.0
C361 C 0.59092 0.48986 0.67012 0.0
C362 C 0.56035 0.44709 0.72217 0.0
C363 C 0.59788 0.48815 0.73503 0.0
C364 C 0.63201 0.52979 0.71511 0.0
C365 C 0.62906 0.53035 0.68297 0.0
C366 C 0.59701 0.49228 0.76857 0.0
C367 C 0.58686 0.44538 0.79078 0.0
C368 C 0.57052 0.45077 0.82294 0.0
C369 C 0.5325 0.40707 0.83917 0.0
C370 C 0.50783 0.41428 0.86746 0.0
C371 C 0.52119 0.46502 0.88014 0.0
H372 H 0.61893 0.53319 0.82567 0.0
C373 C 0.56295 0.50677 0.86525 0.0
C374 C 0.58758 0.49976 0.83682 0.0
H375 H 0.57534 0.54525 0.87532 0.0
H376 H 0.52724 0.41632 0.68067 0.0
H377 H 0.53162 0.41561 0.73667 0.0
H378 H 0.6604 0.56243 0.72441 0.0
H379 H 0.65511 0.56359 0.66806 0.0
H380 H 0.60116 0.53601 0.77451 0.0
H381 H 0.58359 0.40188 0.78439 0.0
H382 H 0.51912 0.36866 0.8292 0.0
H383 H 0.47581 0.38155 0.87875 0.0
C384 C 0.57564 0.63575 0.3083 0.0
C385 C 0.55643 0.5825 0.32605 0.0
C386 C 0.57404 0.64289 0.2757 0.0
C387 C 0.55449 0.5963 0.26061 0.0
C388 C 0.53619 0.54294 0.27849 0.0
C389 C 0.5363 0.53635 0.31093 0.0
C390 C 0.55456 0.60087 0.22637 0.0
C391 C 0.5366 0.64986 0.20626 0.0
C392 C 0.52785 0.6477 0.1726 0.0
C393 C 0.47029 0.66737 0.15666 0.0
C394 C 0.4555 0.65329 0.12719 0.0
C395 C 0.4987 0.62049 0.11326 0.0
H396 H 0.61829 0.60457 0.1691 0.0
C397 C 0.55862 0.60595 0.12789 0.0
C398 C 0.57313 0.61931 0.15741 0.0
H399 H 0.59229 0.5804 0.11745 0.0
H400 H 0.59153 0.67176 0.31967 0.0
H401 H 0.58939 0.68415 0.26242 0.0
H402 H 0.52128 0.5064 0.2673 0.0
H403 H 0.52181 0.49479 0.32428 0.0
H404 H 0.56367 0.56046 0.21743 0.0
H405 H 0.52019 0.68862 0.21488 0.0
H406 H 0.43492 0.68958 0.16795 0.0
H407 H 0.40916 0.66493 0.11602 0.0
loop_
_geom_bond_atom_site_label_1
_geom_bond_atom_site_label_2
_geom_bond_distance
_geom_bond_site_symmetry_2
_ccdc_geom_bond_type
C0 O16 1.251 . S
C0 O18 1.254 1_554 S
N1 C2 1.333 1_445 S
N1 C6 1.307 . S
N1 Zn7 2.020 . S
C2 N1 1.333 1_665 S
C2 C3 1.379 . S
C2 H20 0.952 . S
C3 C2 1.379 . S
C3 C4 1.390 1_655 S
C3 H30 0.949 . S
C4 C3 1.390 1_455 S
C4 C5 1.357 1_565 S
C5 C4 1.357 1_545 S
C5 C6 1.370 . S
C5 H31 0.950 . S
C6 N1 1.307 . S
C6 C5 1.370 . S
C6 H24 0.948 . S
Zn7 N1 2.020 . S
Zn7 O16 2.039 1_445 S
Zn7 O22 2.034 1_455 S
Zn7 O26 2.025 . S
Zn7 O28 2.024 1_545 S
C8 O27 1.246 1_554 S
C8 O28 1.249 . S
N9 C10 1.307 1_455 S
N9 C11 1.333 . S
N9 Zn15 2.020 . S
C10 N9 1.307 1_655 S
C10 C14 1.370 . S
C10 H21 0.948 . S
C11 N9 1.333 . S
C11 C12 1.379 . S
C11 H19 0.952 . S
C12 C11 1.379 . S
C12 C13 1.390 . S
C12 H32 0.949 . S
C13 C12 1.390 . S
C13 C14 1.357 1_455 S
C14 C10 1.370 . S
C14 C13 1.357 1_655 S
C14 H33 0.950 . S
Zn15 N9 2.020 . S
Zn15 O18 2.025 1_445 S
Zn15 O23 2.024 1_455 S
Zn15 O25 2.039 . S
Zn15 O27 2.034 1_545 S
O16 C0 1.251 . S
O16 Zn7 2.039 1_665 S
C17 O22 1.246 . S
C17 O23 1.249 1_554 S
O18 C0 1.254 1_556 S
O18 Zn15 2.025 1_665 S
H19 C11 0.952 . S
H20 C2 0.952 . S
H21 C10 0.948 . S
O22 Zn7 2.034 1_655 S
O22 C17 1.246 . S
O23 Zn15 2.024 1_655 S
O23 C17 1.249 1_556 S
H24 C6 0.948 . S
O25 Zn15 2.039 . S
O25 C29 1.251 1_556 S
O26 Zn7 2.025 . S
O26 C29 1.254 . S
O27 C8 1.246 1_556 S
O27 Zn15 2.034 1_565 S
O28 Zn7 2.024 1_565 S
O28 C8 1.249 . S
C29 O25 1.251 1_554 S
C29 O26 1.254 . S
H30 C3 0.949 . S
H31 C5 0.950 . S
H32 C12 0.949 . S
H33 C14 0.950 . S
C34 O50 1.251 . S
C34 O52 1.254 . S
N35 C36 1.333 . S
N35 C40 1.307 . S
N35 Zn41 2.020 . S
C36 N35 1.333 . S
C36 C37 1.379 . S
C36 H54 0.952 . S
C37 C36 1.379 . S
C37 C38 1.390 . S
C37 H64 0.949 . S
C38 C37 1.390 . S
C38 C39 1.357 . S
C39 C38 1.357 . S
C39 C40 1.370 . S
C39 H65 0.950 . S
C40 N35 1.307 . S
C40 C39 1.370 . S
C40 H58 0.948 . S
Zn41 N35 2.020 . S
Zn41 O50 2.039 . S
Zn41 O56 2.034 . S
Zn41 O60 2.025 . S
Zn41 O62 2.024 . S
C42 O61 1.246 . S
C42 O62 1.249 . S
N43 C44 1.307 . S
N43 C45 1.333 . S
N43 Zn49 2.020 . S
C44 N43 1.307 . S
C44 C48 1.370 . S
C44 H55 0.948 . S
C45 N43 1.333 . S
C45 C46 1.379 . S
C45 H53 0.952 . S
C46 C45 1.379 . S
C46 C47 1.390 . S
C46 H66 0.949 . S
C47 C46 1.390 . S
C47 C48 1.357 . S
C48 C44 1.370 . S
C48 C47 1.357 . S
C48 H67 0.950 . S
Zn49 N43 2.020 . S
Zn49 O52 2.025 . S
Zn49 O57 2.024 . S
Zn49 O59 2.039 . S
Zn49 O61 2.034 . S
O50 C34 1.251 . S
O50 Zn41 2.039 . S
C51 O56 1.246 . S
C51 O57 1.249 . S
O52 C34 1.254 . S
O52 Zn49 2.025 . S
H53 C45 0.952 . S
H54 C36 0.952 . S
H55 C44 0.948 . S
O56 Zn41 2.034 . S
O56 C51 1.246 . S
O57 Zn49 2.024 . S
O57 C51 1.249 . S
H58 C40 0.948 . S
O59 Zn49 2.039 . S
O59 C63 1.251 . S
O60 Zn41 2.025 . S
O60 C63 1.254 . S
O61 C42 1.246 . S
O61 Zn49 2.034 . S
O62 Zn41 2.024 . S
O62 C42 1.249 . S
C63 O59 1.251 . S
C63 O60 1.254 . S
H64 C37 0.949 . S
H65 C39 0.950 . S
H66 C46 0.949 . S
H67 C48 0.950 . S
C68 N69 1.317 1_545 S
C68 N70 1.348 1_455 S
C68 C71 1.485 1_545 S
N69 C68 1.317 1_565 S
N69 N73 1.370 1_565 S
N70 C68 1.348 1_655 S
N70 C72 1.346 . S
C71 C68 1.485 1_565 S
C71 H75 0.960 1_455 S
C71 H76 0.961 1_565 S
C71 H77 0.960 . S
C72 N70 1.346 . S
C72 N73 1.307 1_655 S
C72 C74 1.486 . S
N73 N69 1.370 1_545 S
N73 C72 1.307 1_455 S
C74 C72 1.486 . S
C74 H78 0.960 . S
C74 H79 0.960 . S
C74 H80 0.959 . S
H75 C71 0.960 1_655 S
H76 C71 0.961 1_545 S
H77 C71 0.960 . S
H78 C74 0.960 . S
H79 C74 0.960 . S
H80 C74 0.959 . S
C81 N82 1.317 . S
C81 N83 1.339 1_445 S
C81 C84 1.485 . S
N82 C81 1.317 . S
N82 N86 1.370 . S
N83 C81 1.339 1_665 S
N83 C85 1.342 1_565 S
C84 C81 1.485 . S
C84 H88 0.960 . S
C84 H89 0.961 . S
C84 H90 0.960 . S
C85 N83 1.342 1_545 S
C85 N86 1.307 1_655 S
C85 C87 1.486 1_545 S
N86 N82 1.370 . S
N86 C85 1.307 1_455 S
C87 C85 1.486 1_565 S
C87 H91 0.960 . S
C87 H92 0.960 . S
C87 H93 0.959 . S
H88 C84 0.960 . S
H89 C84 0.961 . S
H90 C84 0.960 . S
H91 C87 0.960 . S
H92 C87 0.960 . S
H93 C87 0.959 . S
C94 N95 1.317 . S
C94 N96 1.348 . S
C94 C97 1.485 1_556 S
N95 C94 1.317 . S
N95 N99 1.370 . S
N96 C94 1.348 . S
N96 C98 1.346 . S
C97 C94 1.485 1_554 S
C97 H101 0.960 . S
C97 H102 0.961 . S
C97 H103 0.960 . S
C98 N96 1.346 . S
C98 N99 1.307 . S
C98 C100 1.486 . S
N99 N95 1.370 . S
N99 C98 1.307 . S
C100 C98 1.486 . S
C100 H104 0.960 . S
C100 H105 0.960 . S
C100 H106 0.959 . S
H101 C97 0.960 . S
H102 C97 0.961 . S
H103 C97 0.960 . S
H104 C100 0.960 . S
H105 C100 0.960 . S
H106 C100 0.959 . S
C107 N108 1.317 . S
C107 N109 1.348 . S
C107 C110 1.485 1_554 S
N108 C107 1.317 . S
N108 N112 1.370 . S
N109 C107 1.348 . S
N109 C111 1.346 . S
C110 C107 1.485 1_556 S
C110 H114 0.960 . S
C110 H115 0.961 . S
C110 H116 0.960 . S
C111 N109 1.346 . S
C111 N112 1.307 . S
C111 C113 1.486 . S
N112 N108 1.370 . S
N112 C111 1.307 . S
C113 C111 1.486 . S
C113 H117 0.960 . S
C113 H118 0.960 . S
C113 H119 0.959 . S
H114 C110 0.960 . S
H115 C110 0.961 . S
H116 C110 0.960 . S
H117 C113 0.960 . S
H118 C113 0.960 . S
H119 C113 0.959 . S
C120 C121 1.386 1_554 S
C120 C122 1.383 . S
C120 H136 0.951 . S
C121 C120 1.386 1_556 S
C121 C125 1.383 . S
C122 C120 1.383 . S
C122 C123 1.402 1_554 S
C122 H137 0.951 . S
C123 C122 1.402 1_556 S
C123 C124 1.375 . S
C123 C126 1.481 . S
C124 C123 1.375 . S
C124 C125 1.367 . S
C124 H138 0.951 . S
C125 C121 1.383 . S
C125 C124 1.367 . S
C125 H139 0.950 . S
C126 C123 1.481 . S
C126 C127 1.297 1_556 S
C126 H140 0.950 . S
C127 C126 1.297 1_554 S
C127 C128 1.479 . S
C127 H141 0.950 . S
C128 C127 1.479 . S
C128 C129 1.375 . S
C128 C134 1.404 1_554 S
C129 C128 1.375 . S
C129 C130 1.369 . S
C129 H142 0.950 . S
C130 C129 1.369 . S
C130 C131 1.392 . S
C130 H143 0.951 . S
C131 C130 1.392 . S
C131 C133 1.384 1_554 S
H132 C134 0.949 . S
C133 C131 1.384 1_556 S
C133 C134 1.385 . S
C133 H135 0.950 . S
C134 C128 1.404 1_556 S
C134 H132 0.949 . S
C134 C133 1.385 . S
H135 C133 0.950 . S
H136 C120 0.951 . S
H137 C122 0.951 . S
H138 C124 0.951 . S
H139 C125 0.950 . S
H140 C126 0.950 . S
H141 C127 0.950 . S
H142 C129 0.950 . S
H143 C130 0.951 . S
C144 C145 1.386 . S
C144 C146 1.383 . S
C144 H160 0.951 . S
C145 C144 1.386 . S
C145 C149 1.383 1_554 S
C146 C144 1.383 . S
C146 C147 1.402 . S
C146 H161 0.951 . S
C147 C146 1.402 . S
C147 C148 1.375 1_554 S
C147 C150 1.481 1_554 S
C148 C147 1.375 1_556 S
C148 C149 1.367 . S
C148 H162 0.951 . S
C149 C145 1.383 1_556 S
C149 C148 1.367 . S
C149 H163 0.950 . S
C150 C147 1.481 1_556 S
C150 C151 1.297 1_556 S
C150 H164 0.950 . S
C151 C150 1.297 1_554 S
C151 C152 1.479 . S
C151 H165 0.950 . S
C152 C151 1.479 . S
C152 C153 1.375 . S
C152 C158 1.404 1_554 S
C153 C152 1.375 . S
C153 C154 1.369 . S
C153 H166 0.950 . S
C154 C153 1.369 . S
C154 C155 1.392 1_554 S
C154 H167 0.951 . S
C155 C154 1.392 1_556 S
C155 C157 1.384 . S
H156 C158 0.949 . S
C157 C155 1.384 . S
C157 C158 1.385 . S
C157 H159 0.950 . S
C158 C152 1.404 1_556 S
C158 H156 0.949 . S
C158 C157 1.385 . S
H159 C157 0.950 . S
H160 C144 0.951 . S
H161 C146 0.951 . S
H162 C148 0.951 . S
H163 C149 0.950 . S
H164 C150 0.950 . S
H165 C151 0.950 . S
H166 C153 0.950 . S
H167 C154 0.951 . S
C168 C169 1.386 . S
C168 C170 1.383 . S
C168 H184 0.951 . S
C169 C168 1.386 . S
C169 C173 1.383 1_554 S
C170 C168 1.383 . S
C170 C171 1.402 . S
C170 H185 0.951 . S
C171 C170 1.402 . S
C171 C172 1.375 1_554 S
C171 C174 1.481 . S
C172 C171 1.375 1_556 S
C172 C173 1.367 . S
C172 H186 0.951 . S
C173 C169 1.383 1_556 S
C173 C172 1.367 . S
C173 H187 0.950 . S
C174 C171 1.481 . S
C174 C175 1.297 . S
C174 H188 0.957 . S
C175 C174 1.297 . S
C175 C176 1.479 . S
C175 H189 0.950 . S
C176 C175 1.479 . S
C176 C177 1.375 . S
C176 C182 1.404 . S
C177 C176 1.375 . S
C177 C178 1.369 . S
C177 H190 0.950 . S
C178 C177 1.369 . S
C178 C179 1.392 . S
C178 H191 0.951 . S
C179 C178 1.392 . S
C179 C181 1.384 . S
H180 C182 0.949 1_556 S
C181 C179 1.384 . S
C181 C182 1.385 . S
C181 H183 0.950 . S
C182 C176 1.404 . S
C182 H180 0.949 1_554 S
C182 C181 1.385 . S
H183 C181 0.950 . S
H184 C168 0.951 . S
H185 C170 0.951 . S
H186 C172 0.951 . S
H187 C173 0.950 . S
H188 C174 0.957 . S
H189 C175 0.950 . S
H190 C177 0.950 . S
H191 C178 0.951 . S
C192 C193 1.386 1_556 S
C192 C194 1.383 . S
C192 H208 0.951 . S
C193 C192 1.386 1_554 S
C193 C197 1.383 . S
C194 C192 1.383 . S
C194 C195 1.402 1_556 S
C194 H209 0.951 . S
C195 C194 1.402 1_554 S
C195 C196 1.375 . S
C195 C198 1.481 . S
C196 C195 1.375 . S
C196 C197 1.367 . S
C196 H210 0.951 . S
C197 C193 1.383 . S
C197 C196 1.367 . S
C197 H211 0.950 . S
C198 C195 1.481 . S
C198 C199 1.297 1_554 S
C198 H212 0.950 . S
C199 C198 1.297 1_556 S
C199 C200 1.479 . S
C199 H213 0.950 . S
C200 C199 1.479 . S
C200 C201 1.375 . S
C200 C206 1.404 1_556 S
C201 C200 1.375 . S
C201 C202 1.369 . S
C201 H214 0.950 . S
C202 C201 1.369 . S
C202 C203 1.392 . S
C202 H215 0.951 . S
C203 C202 1.392 . S
C203 C205 1.384 . S
H204 C206 0.949 . S
C205 C203 1.384 . S
C205 C206 1.385 1_556 S
C205 H207 0.950 1_556 S
C206 C200 1.404 1_554 S
C206 H204 0.949 . S
C206 C205 1.385 1_554 S
H207 C205 0.950 1_554 S
H208 C192 0.951 . S
H209 C194 0.951 . S
H210 C196 0.951 . S
H211 C197 0.950 . S
H212 C198 0.950 . S
H213 C199 0.950 . S
H214 C201 0.950 . S
H215 C202 0.951 . S
C216 C217 1.386 . S
C216 C218 1.383 . S
C216 H232 0.951 . S
C217 C216 1.386 . S
C217 C221 1.383 . S
C218 C216 1.383 . S
C218 C219 1.402 . S
C218 H233 0.951 . S
C219 C218 1.402 . S
C219 C220 1.375 . S
C219 C222 1.481 . S
C220 C219 1.375 . S
C220 C221 1.367 . S
C220 H234 0.951 . S
C221 C217 1.383 . S
C221 C220 1.367 . S
C221 H235 0.950 . S
C222 C219 1.481 . S
C222 C223 1.297 . S
C222 H236 0.950 . S
C223 C222 1.297 . S
C223 C224 1.479 . S
C223 H237 0.950 . S
C224 C223 1.479 . S
C224 C225 1.375 . S
C224 C230 1.404 . S
C225 C224 1.375 . S
C225 C226 1.369 . S
C225 H238 0.950 . S
C226 C225 1.369 . S
C226 C227 1.392 . S
C226 H239 0.951 . S
C227 C226 1.392 . S
C227 C229 1.384 . S
H228 C230 0.949 . S
C229 C227 1.384 . S
C229 C230 1.385 . S
C229 H231 0.950 1_655 S
C230 C224 1.404 . S
C230 H228 0.949 . S
C230 C229 1.385 . S
H231 C229 0.950 1_455 S
H232 C216 0.951 . S
H233 C218 0.951 . S
H234 C220 0.951 . S
H235 C221 0.950 . S
H236 C222 0.950 . S
H237 C223 0.950 . S
H238 C225 0.950 . S
H239 C226 0.951 . S
C240 C241 1.386 . S
C240 C242 1.383 . S
C240 H256 0.951 . S
C241 C240 1.386 . S
C241 C245 1.383 . S
C242 C240 1.383 . S
C242 C243 1.402 . S
C242 H257 0.951 . S
C243 C242 1.402 . S
C243 C244 1.375 . S
C243 C246 1.481 . S
C244 C243 1.375 . S
C244 C245 1.367 . S
C244 H258 0.951 . S
C245 C241 1.383 . S
C245 C244 1.367 . S
C245 H259 0.950 . S
C246 C243 1.481 . S
C246 C247 1.297 . S
C246 H260 0.950 . S
C247 C246 1.297 . S
C247 C248 1.479 . S
C247 H261 0.950 . S
C248 C247 1.479 . S
C248 C249 1.375 . S
C248 C254 1.404 . S
C249 C248 1.375 . S
C249 C250 1.369 . S
C249 H262 0.950 . S
C250 C249 1.369 . S
C250 C251 1.392 . S
C250 H263 0.951 . S
C251 C250 1.392 . S
C251 C253 1.384 . S
H252 C254 0.949 . S
C253 C251 1.384 . S
C253 C254 1.385 . S
C253 H255 0.950 . S
C254 C248 1.404 . S
C254 H252 0.949 . S
C254 C253 1.385 . S
H255 C253 0.950 . S
H256 C240 0.951 . S
H257 C242 0.951 . S
H258 C244 0.951 . S
H259 C245 0.950 . S
H260 C246 0.950 . S
H261 C247 0.950 . S
H262 C249 0.950 . S
H263 C250 0.951 . S
C264 C265 1.386 . S
C264 C266 1.383 . S
C264 H280 0.951 . S
C265 C264 1.386 . S
C265 C269 1.383 . S
C266 C264 1.383 . S
C266 C267 1.402 . S
C266 H281 0.951 . S
C267 C266 1.402 . S
C267 C268 1.375 . S
C267 C270 1.481 . S
C268 C267 1.375 . S
C268 C269 1.367 . S
C268 H282 0.951 . S
C269 C265 1.383 . S
C269 C268 1.367 . S
C269 H283 0.950 . S
C270 C267 1.481 . S
C270 C271 1.297 . S
C270 H284 0.950 . S
C271 C270 1.297 . S
C271 C272 1.479 . S
C271 H285 0.950 . S
C272 C271 1.479 . S
C272 C273 1.375 . S
C272 C278 1.404 . S
C273 C272 1.375 . S
C273 C274 1.369 . S
C273 H286 0.950 . S
C274 C273 1.369 . S
C274 C275 1.392 . S
C274 H287 0.951 . S
C275 C274 1.392 . S
C275 C277 1.384 . S
H276 C278 0.949 . S
C277 C275 1.384 . S
C277 C278 1.385 . S
C277 H279 0.950 . S
C278 C272 1.404 . S
C278 H276 0.949 . S
C278 C277 1.385 . S
H279 C277 0.950 . S
H280 C264 0.951 . S
H281 C266 0.951 . S
H282 C268 0.951 . S
H283 C269 0.950 . S
H284 C270 0.950 . S
H285 C271 0.950 . S
H286 C273 0.950 . S
H287 C274 0.951 . S
C288 C289 1.386 . S
C288 C290 1.383 . S
C288 H304 0.951 . S
C289 C288 1.386 . S
C289 C293 1.383 . S
C290 C288 1.383 . S
C290 C291 1.402 . S
C290 H305 0.951 . S
C291 C290 1.402 . S
C291 C292 1.375 . S
C291 C294 1.481 . S
C292 C291 1.375 . S
C292 C293 1.367 . S
C292 H306 0.951 . S
C293 C289 1.383 . S
C293 C292 1.367 . S
C293 H307 0.950 . S
C294 C291 1.481 . S
C294 C295 1.297 . S
C294 H308 0.950 . S
C295 C294 1.297 . S
C295 C296 1.479 . S
C295 H309 0.950 . S
C296 C295 1.479 . S
C296 C297 1.375 . S
C296 C302 1.404 . S
C297 C296 1.375 . S
C297 C298 1.369 . S
C297 H310 0.950 . S
C298 C297 1.369 . S
C298 C299 1.392 . S
C298 H311 0.951 . S
C299 C298 1.392 . S
C299 C301 1.384 . S
H300 C302 0.949 . S
C301 C299 1.384 . S
C301 C302 1.385 . S
C301 H303 0.950 . S
C302 C296 1.404 . S
C302 H300 0.949 . S
C302 C301 1.385 . S
H303 C301 0.950 . S
H304 C288 0.951 . S
H305 C290 0.951 . S
H306 C292 0.951 . S
H307 C293 0.950 . S
H308 C294 0.950 . S
H309 C295 0.950 . S
H310 C297 0.950 . S
H311 C298 0.951 . S
C312 C313 1.386 . S
C312 C314 1.383 . S
C312 H328 0.951 . S
C313 C312 1.386 . S
C313 C317 1.383 1_465 S
C314 C312 1.383 . S
C314 C315 1.402 1_565 S
C314 H329 0.951 . S
C315 C314 1.402 1_545 S
C315 C316 1.375 1_455 S
C315 C318 1.481 . S
C316 C315 1.375 1_655 S
C316 C317 1.367 . S
C316 H330 0.951 . S
C317 C313 1.383 1_645 S
C317 C316 1.367 . S
C317 H331 0.950 . S
C318 C315 1.481 . S
C318 C319 1.297 . S
C318 H332 0.950 1_455 S
C319 C318 1.297 . S
C319 C320 1.479 . S
C319 H333 0.950 1_545 S
C320 C319 1.479 . S
C320 C321 1.375 1_545 S
C320 C326 1.404 1_455 S
C321 C320 1.375 1_565 S
C321 C322 1.369 . S
C321 H334 0.950 . S
C322 C321 1.369 . S
C322 C323 1.399 . S
C322 H335 0.951 . S
C323 C322 1.399 . S
C323 C325 1.377 1_465 S
H324 C326 0.949 . S
C325 C323 1.377 1_645 S
C325 C326 1.385 . S
C325 H327 0.950 . S
C326 C320 1.404 1_655 S
C326 H324 0.949 . S
C326 C325 1.385 . S
H327 C325 0.950 . S
H328 C312 0.951 . S
H329 C314 0.951 . S
H330 C316 0.951 . S
H331 C317 0.950 . S
H332 C318 0.950 1_655 S
H333 C319 0.950 1_565 S
H334 C321 0.950 . S
H335 C322 0.951 . S
C336 C337 1.386 . S
C336 C338 1.383 . S
C336 H352 0.951 . S
C337 C336 1.386 . S
C337 C341 1.383 1_455 S
C338 C336 1.383 . S
C338 C339 1.402 . S
C338 H353 0.951 . S
C339 C338 1.402 . S
C339 C340 1.375 1_455 S
C339 C342 1.481 . S
C340 C339 1.375 1_655 S
C340 C341 1.367 . S
C340 H354 0.951 . S
C341 C337 1.383 1_655 S
C341 C340 1.367 . S
C341 H355 0.950 . S
C342 C339 1.481 . S
C342 C343 1.297 . S
C342 H356 0.950 1_455 S
C343 C342 1.297 . S
C343 C344 1.479 . S
C343 H357 0.950 . S
C344 C343 1.479 . S
C344 C345 1.375 . S
C344 C350 1.404 1_455 S
C345 C344 1.375 . S
C345 C346 1.369 . S
C345 H358 0.950 . S
C346 C345 1.369 . S
C346 C347 1.392 . S
C346 H359 0.951 . S
C347 C346 1.392 . S
C347 C349 1.384 1_455 S
H348 C350 0.949 . S
C349 C347 1.384 1_655 S
C349 C350 1.385 . S
C349 H351 0.950 . S
C350 C344 1.404 1_655 S
C350 H348 0.949 . S
C350 C349 1.385 . S
H351 C349 0.950 . S
H352 C336 0.951 . S
H353 C338 0.951 . S
H354 C340 0.951 . S
H355 C341 0.950 . S
H356 C342 0.950 1_655 S
H357 C343 0.950 . S
H358 C345 0.950 . S
H359 C346 0.951 . S
C360 C361 1.386 . S
C360 C362 1.383 . S
C360 H376 0.951 . S
C361 C360 1.386 . S
C361 C365 1.383 . S
C362 C360 1.383 . S
C362 C363 1.402 . S
C362 H377 0.951 . S
C363 C362 1.402 . S
C363 C364 1.375 . S
C363 C366 1.481 . S
C364 C363 1.375 . S
C364 C365 1.367 . S
C364 H378 0.951 . S
C365 C361 1.383 . S
C365 C364 1.367 . S
C365 H379 0.950 . S
C366 C363 1.481 . S
C366 C367 1.297 . S
C366 H380 0.950 . S
C367 C366 1.297 . S
C367 C368 1.479 . S
C367 H381 0.950 . S
C368 C367 1.479 . S
C368 C369 1.375 . S
C368 C374 1.404 . S
C369 C368 1.375 . S
C369 C370 1.369 . S
C369 H382 0.950 . S
C370 C369 1.369 . S
C370 C371 1.392 . S
C370 H383 0.951 . S
C371 C370 1.392 . S
C371 C373 1.384 . S
H372 C374 0.949 . S
C373 C371 1.384 . S
C373 C374 1.385 . S
C373 H375 0.950 . S
C374 C368 1.404 . S
C374 H372 0.949 . S
C374 C373 1.385 . S
H375 C373 0.950 . S
H376 C360 0.951 . S
H377 C362 0.951 . S
H378 C364 0.951 . S
H379 C365 0.950 . S
H380 C366 0.950 . S
H381 C367 0.950 . S
H382 C369 0.950 . S
H383 C370 0.951 . S
C384 C385 1.386 . S
C384 C386 1.383 . S
C384 H400 0.951 . S
C385 C384 1.386 . S
C385 C389 1.383 . S
C386 C384 1.383 . S
C386 C387 1.402 . S
C386 H401 0.951 . S
C387 C386 1.402 . S
C387 C388 1.375 . S
C387 C390 1.481 . S
C388 C387 1.375 . S
C388 C389 1.367 . S
C388 H402 0.951 . S
C389 C385 1.383 . S
C389 C388 1.367 . S
C389 H403 0.950 . S
C390 C387 1.481 . S
C390 C391 1.297 . S
C390 H404 0.950 . S
C391 C390 1.297 . S
C391 C392 1.479 . S
C391 H405 0.950 . S
C392 C391 1.479 . S
C392 C393 1.375 . S
C392 C398 1.404 . S
C393 C392 1.375 . S
C393 C394 1.369 . S
C393 H406 0.950 . S
C394 C393 1.369 . S
C394 C395 1.392 . S
C394 H407 0.951 . S
C395 C394 1.392 . S
C395 C397 1.384 . S
H396 C398 0.949 . S
C397 C395 1.384 . S
C397 C398 1.385 . S
C397 H399 0.950 . S
C398 C392 1.404 . S
C398 H396 0.949 . S
C398 C397 1.385 . S
H399 C397 0.950 . S
H400 C384 0.951 . S
H401 C386 0.951 . S
H402 C388 0.951 . S
H403 C389 0.950 . S
H404 C390 0.950 . S
H405 C391 0.950 . S
H406 C393 0.950 . S
H407 C394 0.951 . S
C131 N109 1.318 . S
C121 C29 1.344 1_556 S
C145 C8 1.355 . S
C155 N96 1.364 . S
C169 C0 1.488 . S
C179 N108 1.486 . S
C193 C17 1.482 . S
C203 N95 1.481 . S
C217 C63 1.333 . S
C227 N83 1.287 . S
C241 C42 1.355 . S
C251 N70 1.301 . S
C275 N82 1.460 . S
C265 C34 1.486 . S
C299 N69 1.450 . S
C289 C51 1.474 . S
C313 C4 1.506 . S
C323 N73 1.485 1_565 S
C337 C13 1.513 . S
C347 N86 1.486 . S
C371 N99 1.518 . S
C361 C38 1.507 . S
C385 C47 1.514 . S
C395 N112 1.507 . S
