# Generated by pormake.
# Topology pyr, (3,6)-cn, num edge types: 1
# Building blocks:
#     Node 0, Type 0, BuildingBlock: ESEHIV_clean_linker_0, # of connection points: 3
#     Node 1, Type 0, BuildingBlock: ESEHIV_clean_linker_0, # of connection points: 3
#     Node 2, Type 0, BuildingBlock: ESEHIV_clean_linker_0, # of connection points: 3
#     Node 3, Type 0, BuildingBlock: ESEHIV_clean_linker_0, # of connection points: 3
#     Node 4, Type 0, BuildingBlock: ESEHIV_clean_linker_0, # of connection points: 3
#     Node 5, Type 0, BuildingBlock: ESEHIV_clean_linker_0, # of connection points: 3
#     Node 6, Type 0, BuildingBlock: ESEHIV_clean_linker_0, # of connection points: 3
#     Node 7, Type 0, BuildingBlock: ESEHIV_clean_linker_0, # of connection points: 3
#     Node 8, Type 1, BuildingBlock: LEVNOQ01_clean_sbu_1, # of connection points: 6
#     Node 9, Type 1, BuildingBlock: LEVNOQ01_clean_sbu_1, # of connection points: 6
#     Node 10, Type 1, BuildingBlock: LEVNOQ01_clean_sbu_1, # of connection points: 6
#     Node 11, Type 1, BuildingBlock: LEVNOQ01_clean_sbu_1, # of connection points: 6
#     Edge 12, Type (0, 1), BuildingBlock: OJICUG_clean_linker_0, # of connection points: 2
#     Edge 13, Type (0, 1), BuildingBlock: OJICUG_clean_linker_0, # of connection points: 2
#     Edge 14, Type (0, 1), BuildingBlock: OJICUG_clean_linker_0, # of connection points: 2
#     Edge 15, Type (0, 1), BuildingBlock: OJICUG_clean_linker_0, # of connection points: 2
#     Edge 16, Type (0, 1), BuildingBlock: OJICUG_clean_linker_0, # of connection points: 2
#     Edge 17, Type (0, 1), BuildingBlock: OJICUG_clean_linker_0, # of connection points: 2
#     Edge 18, Type (0, 1), BuildingBlock: OJICUG_clean_linker_0, # of connection points: 2
#     Edge 19, Type (0, 1), BuildingBlock: OJICUG_clean_linker_0, # of connection points: 2
#     Edge 20, Type (0, 1), BuildingBlock: OJICUG_clean_linker_0, # of connection points: 2
#     Edge 21, Type (0, 1), BuildingBlock: OJICUG_clean_linker_0, # of connection points: 2
#     Edge 22, Type (0, 1), BuildingBlock: OJICUG_clean_linker_0, # of connection points: 2
#     Edge 23, Type (0, 1), BuildingBlock: OJICUG_clean_linker_0, # of connection points: 2
#     Edge 24, Type (0, 1), BuildingBlock: OJICUG_clean_linker_0, # of connection points: 2
#     Edge 25, Type (0, 1), BuildingBlock: OJICUG_clean_linker_0, # of connection points: 2
#     Edge 26, Type (0, 1), BuildingBlock: OJICUG_clean_linker_0, # of connection points: 2
#     Edge 27, Type (0, 1), BuildingBlock: OJICUG_clean_linker_0, # of connection points: 2
#     Edge 28, Type (0, 1), BuildingBlock: OJICUG_clean_linker_0, # of connection points: 2
#     Edge 29, Type (0, 1), BuildingBlock: OJICUG_clean_linker_0, # of connection points: 2
#     Edge 30, Type (0, 1), BuildingBlock: OJICUG_clean_linker_0, # of connection points: 2
#     Edge 31, Type (0, 1), BuildingBlock: OJICUG_clean_linker_0, # of connection points: 2
#     Edge 32, Type (0, 1), BuildingBlock: OJICUG_clean_linker_0, # of connection points: 2
#     Edge 33, Type (0, 1), BuildingBlock: OJICUG_clean_linker_0, # of connection points: 2
#     Edge 34, Type (0, 1), BuildingBlock: OJICUG_clean_linker_0, # of connection points: 2
#     Edge 35, Type (0, 1), BuildingBlock: OJICUG_clean_linker_0, # of connection points: 2
# Relax obj value: 0.035
# Max RMSD: 0.110
# Mean RMSD: 0.045
data_MOF--net-pry--node1-LEVNOQ01_clean_sbu_1--node2-ESEHIV_clean_linker_0--edge1-OJICUG_clean_linker_0
_symmetry_space_group_name_H-M    P1
_symmetry_Int_Tables_number       1
_symmetry_cell_setting            triclinic
loop_
_symmetry_equiv_pos_as_xyz
'x, y, z'
_cell_length_a     25.56403
_cell_length_b     24.431191
_cell_length_c     24.127199
_cell_angle_alpha  92.511962
_cell_angle_beta   91.688079
_cell_angle_gamma 93.384201
loop_
_atom_site_label
_atom_site_type_symbol
_atom_site_fract_x
_atom_site_fract_y
_atom_site_fract_z
_atom_type_partial_charge
H0 H 0.06249 0.18664 0.16946 0.0
H1 H 0.17268 0.06136 0.17321 0.0
H2 H 0.18204 0.18131 0.04745 0.0
C3 C 0.09612 0.16787 0.15212 0.0
C4 C 0.11894 0.18858 0.10414 0.0
C5 C 0.1158 0.1223 0.17727 0.0
C6 C 0.15869 0.09743 0.15436 0.0
C7 C 0.18385 0.1186 0.10818 0.0
C8 C 0.16342 0.16434 0.08315 0.0
H9 H 0.32483 0.95918 0.63941 0.0
H10 H 0.44601 0.84639 0.65415 0.0
H11 H 0.32969 0.82192 0.52128 0.0
C12 C 0.34397 0.92357 0.62351 0.0
C13 C 0.32328 0.89402 0.57547 0.0
C14 C 0.38819 0.90663 0.65211 0.0
C15 C 0.41214 0.86006 0.63176 0.0
C16 C 0.39112 0.82856 0.58532 0.0
C17 C 0.34669 0.84605 0.55679 0.0
H18 H 0.7103 0.26938 0.89296 0.0
H19 H 0.71126 0.3989 0.77799 0.0
H20 H 0.59904 0.26284 0.75439 0.0
C21 C 0.69635 0.2853 0.85439 0.0
C22 C 0.65324 0.25807 0.82452 0.0
C23 C 0.7179 0.33621 0.83787 0.0
C24 C 0.69642 0.35902 0.79065 0.0
C25 C 0.65281 0.33344 0.7619 0.0
C26 C 0.63329 0.28176 0.77678 0.0
H27 H 0.85322 0.63757 0.50971 0.0
H28 H 0.95025 0.6488 0.36612 0.0
H29 H 0.81941 0.53186 0.36511 0.0
C30 C 0.86361 0.62366 0.4685 0.0
C31 C 0.8317 0.58198 0.44064 0.0
C32 C 0.90653 0.64916 0.44215 0.0
C33 C 0.91852 0.62942 0.38827 0.0
C34 C 0.88816 0.58601 0.36116 0.0
C35 C 0.84487 0.56285 0.38759 0.0
H36 H 0.82605 0.95287 0.83488 0.0
H37 H 0.92618 0.81753 0.83242 0.0
H38 H 0.81372 0.83238 0.96 0.0
C39 C 0.83853 0.91577 0.85295 0.0
C40 C 0.81422 0.89629 0.9005 0.0
C41 C 0.87844 0.88728 0.82776 0.0
C42 C 0.89493 0.83925 0.8512 0.0
C43 C 0.87276 0.82058 0.90021 0.0
C44 C 0.83244 0.84901 0.92418 0.0
H45 H 0.53568 0.11614 0.35721 0.0
H46 H 0.67469 0.02835 0.37084 0.0
H47 H 0.65774 0.17047 0.47855 0.0
C48 C 0.57299 0.11113 0.37816 0.0
C49 C 0.59272 0.15016 0.41956 0.0
C50 C 0.60352 0.06925 0.35838 0.0
C51 C 0.65081 0.06067 0.38617 0.0
C52 C 0.66914 0.09537 0.43144 0.0
C53 C 0.64102 0.14126 0.4469 0.0
H54 H 0.27545 0.7376 0.12825 0.0
H55 H 0.25217 0.62754 0.26025 0.0
H56 H 0.39269 0.73271 0.25872 0.0
C57 C 0.28723 0.72368 0.16855 0.0
C58 C 0.33497 0.74455 0.19401 0.0
C59 C 0.25836 0.67993 0.19124 0.0
C60 C 0.27514 0.66056 0.24217 0.0
C61 C 0.32496 0.67653 0.26507 0.0
C62 C 0.35366 0.72052 0.24226 0.0
H63 H 0.03708 0.38172 0.66029 0.0
H64 H 0.14652 0.35645 0.52938 0.0
H65 H 0.18131 0.47784 0.66102 0.0
C66 C 0.07395 0.39024 0.64076 0.0
C67 C 0.10869 0.43031 0.66676 0.0
C68 C 0.08739 0.3605 0.59234 0.0
C69 C 0.13423 0.37775 0.56646 0.0
C70 C 0.16713 0.42175 0.58953 0.0
C71 C 0.15445 0.44687 0.64047 0.0
O72 O 0.02287 0.01184 0.65302 0.0
Mg73 Mg 0.05839 0.04883 0.58658 0.0
O74 O 0.96984 0.97008 0.58963 0.0
Mg75 Mg -0.00104 0.00335 0.50296 0.0
O76 O 0.0183 0.09697 0.53384 0.0
O77 O 0.06634 0.12743 0.6101 0.0
O78 O 0.02628 0.03587 0.41522 0.0
O79 O 0.91289 0.03524 0.49373 0.0
Mg80 Mg 0.9384 0.94707 0.40876 0.0
O81 O 0.97677 0.91259 0.47274 0.0
O82 O 0.98368 0.98387 0.34956 0.0
O83 O 0.86862 0.98088 0.43089 0.0
O84 O 0.93509 0.86498 0.40084 0.0
C85 C 0.12986 0.98659 0.53203 0.0
C86 C 0.98405 0.97906 0.64061 0.0
C87 C 0.03779 0.13693 0.5672 0.0
C88 C 0.01731 0.02213 0.36379 0.0
C89 C 0.87017 0.02 0.46701 0.0
C90 C 0.96104 0.86608 0.44759 0.0
O91 O 0.13203 0.02787 0.56512 0.0
O92 O 0.08559 0.96871 0.51006 0.0
O93 O 0.41242 0.10633 0.05451 0.0
Mg94 Mg 0.4941 0.1178 0.05484 0.0
O95 O 0.40973 0.01778 0.02784 0.0
Mg96 Mg 0.49597 -0.00411 0.00474 0.0
O97 O 0.52167 0.08426 0.98371 0.0
O98 O 0.52719 0.17442 0.00489 0.0
O99 O 0.58303 0.97839 0.9815 0.0
O100 O 0.46558 0.98478 0.91127 0.0
Mg101 Mg 0.50989 0.87862 0.96035 0.0
O102 O 0.47116 0.90642 0.02799 0.0
O103 O 0.59128 0.88918 0.969 0.0
O104 O 0.47583 0.89821 0.88415 0.0
O105 O 0.47535 0.81737 0.00263 0.0
C106 C 0.54108 0.04365 0.13383 0.0
C107 C 0.38698 0.06098 0.04334 0.0
C108 C 0.53637 0.13381 0.97129 0.0
C109 C 0.6114 0.93767 0.97324 0.0
C110 C 0.46147 0.94559 0.87423 0.0
C111 C 0.45968 0.85489 0.03652 0.0
O112 O 0.5364 0.09373 0.12452 0.0
O113 O 0.52627 0.00552 0.09791 0.0
O114 O 0.51832 0.61012 0.58352 0.0
Mg115 Mg 0.47694 0.53453 0.59134 0.0
O116 O 0.47274 0.58789 0.50804 0.0
Mg117 Mg 0.49506 0.49347 0.49391 0.0
O118 O 0.51947 0.46773 0.58387 0.0
O119 O 0.49482 0.50469 0.66529 0.0
O120 O 0.51384 0.40022 0.47342 0.0
O121 O 0.58292 0.52182 0.48707 0.0
Mg122 Mg 0.53184 0.47002 0.36911 0.0
O123 O 0.47589 0.51333 0.40499 0.0
O124 O 0.51544 0.38718 0.38199 0.0
O125 O 0.60614 0.50147 0.40068 0.0
O126 O 0.48595 0.5099 0.31379 0.0
C127 C 0.37679 0.48873 0.53583 0.0
C128 C 0.49127 0.62507 0.5432 0.0
C129 C 0.52033 0.46905 0.63782 0.0
C130 C 0.51625 0.36831 0.43006 0.0
C131 C 0.6173 0.51983 0.4499 0.0
C132 C 0.46136 0.52756 0.35627 0.0
O133 O 0.39503 0.52448 0.57208 0.0
O134 O 0.40759 0.4648 0.50337 0.0
O135 O 0.97989 0.3863 0.05125 0.0
Mg136 Mg 0.00243 0.46842 0.07922 0.0
O137 O 0.04639 0.42452 0.01297 0.0
Mg138 Mg -0.00794 0.50657 0.0109 0.0
O139 O 0.9497 0.52068 0.10199 0.0
O140 O 0.98289 0.46057 0.15862 0.0
O141 O 0.93742 0.58705 0.00772 0.0
O142 O 0.92215 0.44906 0.98027 0.0
Mg143 Mg 0.98051 0.54626 0.93867 0.0
O144 O 0.03504 0.49449 0.92033 0.0
O145 O 0.003 0.62734 0.97014 0.0
O146 O 0.89989 0.51365 0.9263 0.0
O147 O 0.00401 0.55399 0.86101 0.0
C148 C 0.09378 0.54589 0.07469 0.0
C149 C 0.02293 0.38066 0.02868 0.0
C150 C 0.95303 0.50005 0.15069 0.0
C151 C 0.95956 0.63154 0.99213 0.0
C152 C 0.88934 0.46734 0.94642 0.0
C153 C 0.03456 0.51565 0.87164 0.0
O154 O 0.08333 0.49881 0.09298 0.0
O155 O 0.06121 0.56469 0.0411 0.0
C156 C 0.07562 0.04208 0.22393 0.0
C157 C 0.0907 0.09823 0.22607 0.0
H158 H 0.0415 0.97449 0.26588 0.0
C159 C 0.08364 0.12971 0.27531 0.0
H160 H 0.08058 0.01688 0.18659 0.0
C161 C 0.06182 0.10506 0.32168 0.0
C162 C 0.04589 0.04891 0.31879 0.0
H163 H 0.09546 0.17308 0.27804 0.0
H164 H 0.05607 0.13003 0.35896 0.0
C165 C 0.05331 0.01786 0.26947 0.0
C166 C 0.37078 0.94114 0.7491 0.0
C167 C 0.40653 0.93273 0.70668 0.0
H168 H 0.3607 0.95305 0.8369 0.0
C169 C 0.46051 0.94057 0.7196 0.0
H170 H 0.32898 0.93487 0.74055 0.0
C171 C 0.4784 0.95081 0.77451 0.0
C172 C 0.44273 0.95426 0.81737 0.0
H173 H 0.48896 0.93492 0.68776 0.0
H174 H 0.52018 0.95195 0.78398 0.0
C175 C 0.38883 0.95167 0.80421 0.0
C176 C 0.60611 0.35296 0.67236 0.0
C177 C 0.61964 0.36711 0.72811 0.0
H178 H 0.56404 0.37524 0.59917 0.0
C179 C 0.59924 0.41336 0.75395 0.0
H180 H 0.6211 0.31697 0.65206 0.0
C181 C 0.5662 0.44552 0.72462 0.0
C182 C 0.55325 0.43249 0.66851 0.0
H183 H 0.60851 0.42436 0.7973 0.0
H184 H 0.55148 0.48115 0.7459 0.0
C185 C 0.57352 0.38602 0.64242 0.0
C186 C 0.9125 0.60078 0.26197 0.0
C187 C 0.90021 0.56505 0.3046 0.0
H188 H 0.93738 0.6079 0.17801 0.0
C189 C 0.89921 0.50819 0.29314 0.0
H190 H 0.91274 0.64482 0.26947 0.0
C191 C 0.91254 0.4874 0.2412 0.0
C192 C 0.92699 0.52287 0.19931 0.0
H193 H 0.89001 0.47963 0.32507 0.0
H194 H 0.91371 0.44333 0.23452 0.0
C195 C 0.92555 0.57976 0.20944 0.0
C196 C 0.24587 0.09356 0.03216 0.0
C197 C 0.23278 0.0943 0.08853 0.0
H198 H 0.3057 0.0807 0.97293 0.0
C199 C 0.26852 0.07406 0.12712 0.0
H200 H 0.21919 0.10778 0.001 0.0
C201 C 0.3168 0.05652 0.11047 0.0
C202 C 0.33098 0.05928 0.05506 0.0
H203 H 0.26092 0.07488 0.17102 0.0
H204 H 0.34484 0.04496 0.14179 0.0
C205 C 0.29484 0.07679 0.01571 0.0
C206 C 0.27378 0.96824 0.53532 0.0
C207 C 0.27534 0.91287 0.54797 0.0
H208 H 0.22574 0.03454 0.51853 0.0
C209 C 0.22881 0.87897 0.54289 0.0
H210 H 0.30914 -0.00492 0.53841 0.0
C211 C 0.18064 0.90165 0.53109 0.0
C212 C 0.17882 0.95836 0.52442 0.0
H213 H 0.22905 0.83613 0.55267 0.0
H214 H 0.14471 0.87598 0.53244 0.0
C215 C 0.22607 0.99072 0.52372 0.0
C216 C 0.80156 0.34366 0.89667 0.0
C217 C 0.75913 0.3688 0.87218 0.0
H218 H 0.87603 0.35538 0.94027 0.0
C219 C 0.75739 0.4263 0.87846 0.0
H220 H 0.80406 0.29957 0.89285 0.0
C221 C 0.79891 0.45815 0.90439 0.0
C222 C 0.84249 0.43325 0.92619 0.0
H223 H 0.72435 0.44706 0.86223 0.0
H224 H 0.79733 0.50242 0.90646 0.0
C225 C 0.84275 0.37562 0.92379 0.0
C226 C 0.7441 0.60335 0.4764 0.0
C227 C 0.77992 0.56402 0.46154 0.0
H228 H 0.66291 0.61969 0.48482 0.0
C229 C 0.76214 0.50861 0.45464 0.0
H230 H 0.75674 0.64643 0.48156 0.0
C231 C 0.70877 0.4938 0.45538 0.0
C232 C 0.67257 0.53392 0.46436 0.0
H233 H 0.78903 0.47746 0.44383 0.0
H234 H 0.69544 0.45149 0.44527 0.0
C235 C 0.69049 0.58827 0.47794 0.0
C236 C 0.12686 0.28056 0.05944 0.0
C237 C 0.09559 0.23513 0.07614 0.0
H238 H 0.12847 0.3626 0.03023 0.0
C239 C 0.04095 0.23537 0.06825 0.0
H240 H 0.16912 0.28159 0.06488 0.0
C241 C 0.01789 0.28118 0.04791 0.0
C242 C 0.04874 0.32828 0.03508 0.0
H243 H 0.01578 0.20059 0.07938 0.0
H244 H 0.97549 0.28076 0.045 0.0
C245 C 0.10363 0.32682 0.03918 0.0
C246 C 0.5671 0.21261 0.84867 0.0
C247 C 0.62225 0.21244 0.84965 0.0
H248 H 0.49614 0.18503 0.88603 0.0
C249 C 0.64667 0.17399 0.88196 0.0
H250 H 0.54647 0.24193 0.82531 0.0
C251 C 0.61709 0.1412 0.91724 0.0
C252 C 0.56289 0.14633 0.92016 0.0
H253 H 0.6889 0.17214 0.88304 0.0
H254 H 0.63716 0.11611 0.94601 0.0
C255 C 0.53784 0.17982 0.88353 0.0
C256 C 0.98288 0.71996 0.44877 0.0
C257 C 0.93273 0.70178 0.46582 0.0
H258 H 0.03287 0.78999 0.43045 0.0
C259 C 0.90365 0.73922 0.49649 0.0
H260 H 0.00797 0.69208 0.42783 0.0
C261 C 0.91999 0.7947 0.50118 0.0
C262 C 0.96456 0.8138 0.47396 0.0
H263 H 0.86512 0.7278 0.51107 0.0
H264 H 0.89337 0.82348 0.51833 0.0
C265 C -0.00185 0.77593 0.45168 0.0
C266 C 0.42595 0.74118 0.61489 0.0
C267 C 0.41364 0.77506 0.57145 0.0
H268 H 0.4605 0.66879 0.63979 0.0
C269 C 0.42559 0.75842 0.51686 0.0
H270 H 0.41591 0.75177 0.65718 0.0
C271 C 0.4511 0.70959 0.5066 0.0
C272 C 0.4653 0.67733 0.55086 0.0
H273 H 0.41651 0.78376 0.48255 0.0
H274 H 0.46081 0.69794 0.46462 0.0
C275 C 0.45177 0.69353 0.60486 0.0
C276 C 0.92763 0.96324 0.78241 0.0
C277 C 0.90443 0.90974 0.77864 0.0
H278 H 0.97091 0.02647 0.74194 0.0
C279 C 0.906 0.87887 0.72808 0.0
H280 H 0.92702 0.98785 0.82084 0.0
C281 C 0.93028 0.90153 0.68199 0.0
C282 C 0.95454 0.95478 0.68649 0.0
H283 H 0.88809 0.83752 0.72415 0.0
H284 H 0.93126 0.87707 0.64352 0.0
C285 C 0.9528 0.98523 0.73719 0.0
C286 C 0.54044 0.02403 0.28623 0.0
C287 C 0.59155 0.04442 0.30194 0.0
H288 H 0.48462 0.00581 0.21874 0.0
C289 C 0.62848 0.05272 0.2606 0.0
H290 H 0.51123 0.01769 0.31732 0.0
C291 C 0.61309 0.04667 0.20456 0.0
C292 C 0.56096 0.03091 0.18906 0.0
H293 H 0.66788 0.06931 0.27144 0.0
H294 H 0.64081 0.05862 0.17351 0.0
C295 C 0.52532 0.01701 0.23001 0.0
C296 C 0.34412 0.58109 0.28845 0.0
C297 C 0.35186 0.638 0.30094 0.0
H298 H 0.37274 0.50149 0.29759 0.0
C299 C 0.39113 0.65654 0.34068 0.0
H300 H 0.31548 0.56477 0.25719 0.0
C301 C 0.42441 0.61931 0.3637 0.0
C302 C 0.41853 0.56346 0.34742 0.0
H303 H 0.39816 0.69992 0.35135 0.0
H304 H 0.45736 0.63454 0.39028 0.0
C305 C 0.37715 0.5444 0.31135 0.0
C306 C 0.09859 0.50932 0.73401 0.0
C307 C 0.09787 0.45255 0.72294 0.0
H308 H 0.07953 0.5739 0.79119 0.0
C309 C 0.08422 0.41677 0.7651 0.0
H310 H 0.10925 0.53763 0.70231 0.0
C311 C 0.06818 0.43746 0.81638 0.0
C312 C 0.06486 0.49412 0.82565 0.0
H313 H 0.08425 0.37271 0.75762 0.0
H314 H 0.05485 0.40913 0.84704 0.0
C315 C 0.08181 0.52993 0.78483 0.0
C316 C 0.7289 0.94095 0.88585 0.0
C317 C 0.76678 0.92159 0.92254 0.0
H318 H 0.64958 0.9633 0.87446 0.0
C319 C 0.75549 0.91997 0.97932 0.0
H320 H 0.73559 0.94244 0.84184 0.0
C321 C 0.70559 0.93096 0.99759 0.0
C322 C 0.66679 0.94566 0.95983 0.0
H323 H 0.78408 0.90692 0.0092 0.0
H324 H 0.69628 0.92436 0.04041 0.0
C325 C 0.67945 0.95309 0.90446 0.0
C326 C 0.76488 0.11958 0.45085 0.0
C327 C 0.7202 0.08449 0.45796 0.0
H328 H 0.84917 0.12651 0.44955 0.0
C329 C 0.72638 0.03276 0.4795 0.0
H330 H 0.761 0.15929 0.43338 0.0
C331 C 0.77632 0.01414 0.48843 0.0
C332 C 0.82103 0.04703 0.47645 0.0
H333 H 0.6925 0.00494 0.48494 0.0
H334 H 0.77992 0.97226 0.50045 0.0
C335 C 0.8152 0.1009 0.46015 0.0
C336 C 0.21831 0.58899 0.15578 0.0
C337 C 0.21755 0.64665 0.1575 0.0
H338 H 0.18014 0.51215 0.12798 0.0
C339 C 0.17869 0.67102 0.12638 0.0
H340 H 0.24895 0.5688 0.17737 0.0
C341 C 0.13969 0.63815 0.09671 0.0
C342 C 0.13902 0.58052 0.09794 0.0
H343 H 0.17752 0.71526 0.12637 0.0
H344 H 0.10888 0.65786 0.07483 0.0
C345 C 0.17929 0.55638 0.12683 0.0
C346 C 0.23399 0.49508 0.56554 0.0
C347 C 0.21732 0.43915 0.56397 0.0
H348 H 0.29779 0.5545 0.55738 0.0
C349 C 0.25144 0.40032 0.54364 0.0
H350 H 0.20826 0.52613 0.57968 0.0
C351 C 0.3026 0.41687 0.52953 0.0
C352 C 0.32042 0.4723 0.53629 0.0
H353 H 0.23995 0.3569 0.54215 0.0
H354 H 0.32927 0.38594 0.51751 0.0
C355 C 0.28511 0.5114 0.55241 0.0
C356 C 0.90632 0.77189 0.98274 0.0
C357 C 0.89074 0.77068 0.92613 0.0
H358 H 0.94061 0.72798 0.04892 0.0
C359 C 0.89256 0.7215 0.89428 0.0
H360 H 0.90531 0.80948 0.00813 0.0
C361 C 0.91101 0.67493 0.91799 0.0
C362 C 0.92863 0.67668 0.97382 0.0
H363 H 0.88033 0.71929 0.85082 0.0
H364 H 0.91395 0.63804 0.8919 0.0
C365 C 0.92586 0.72535 0.00627 0.0
C366 C 0.35177 0.82736 0.13665 0.0
C367 C 0.3704 0.78159 0.16291 0.0
H368 H 0.36669 0.88842 0.07638 0.0
C369 C 0.42157 0.7665 0.15302 0.0
H370 H 0.31244 0.83979 0.14362 0.0
C371 C 0.4519 0.79371 0.11465 0.0
C372 C 0.43215 0.83701 0.0858 0.0
H373 H 0.43689 0.73103 0.17178 0.0
H374 H 0.48992 0.77886 0.10523 0.0
C375 C 0.38276 0.85534 0.0986 0.0
C376 C 0.0258 0.27956 0.61334 0.0
C377 C 0.0574 0.3072 0.57494 0.0
H378 H -0.00818 0.20318 0.63832 0.0
C379 C 0.06616 0.2788 0.52396 0.0
H380 H 0.01662 0.29768 0.65312 0.0
C381 C 0.0524 0.22244 0.51654 0.0
C382 C 0.02799 0.19442 0.55906 0.0
H383 H 0.08718 0.29842 0.49131 0.0
H384 H 0.0658 0.19999 0.48045 0.0
C385 C 0.01084 0.22423 0.60499 0.0
C386 C 0.57022 0.23536 0.47736 0.0
C387 C 0.56648 0.20327 0.42711 0.0
H388 H 0.55668 0.31306 0.51847 0.0
C389 C 0.54009 0.2244 0.38138 0.0
H390 H 0.58957 0.22058 0.5138 0.0
C391 C 0.51968 0.27574 0.3849 0.0
C392 C 0.52652 0.30936 0.43349 0.0
H393 H 0.53739 0.20304 0.3411 0.0
H394 H 0.50118 0.29043 0.34785 0.0
C395 C 0.5506 0.28809 0.48044 0.0
loop_
_geom_bond_atom_site_label_1
_geom_bond_atom_site_label_2
_geom_bond_distance
_geom_bond_site_symmetry_2
_ccdc_geom_bond_type
H0 C3 0.931 . S
H1 C6 0.928 . S
H2 C8 0.930 . S
C3 H0 0.931 . S
C3 C4 1.413 . S
C3 C5 1.360 . S
C4 C3 1.413 . S
C4 C8 1.429 . S
C5 C3 1.360 . S
C5 C6 1.372 . S
C6 H1 0.928 . S
C6 C5 1.372 . S
C6 C7 1.404 . S
C7 C6 1.404 . S
C7 C8 1.391 . S
C8 H2 0.930 . S
C8 C4 1.429 . S
C8 C7 1.391 . S
H9 C12 0.931 . S
H10 C15 0.928 . S
H11 C17 0.930 . S
C12 H9 0.931 . S
C12 C13 1.413 . S
C12 C14 1.360 . S
C13 C12 1.413 . S
C13 C17 1.429 . S
C14 C12 1.360 . S
C14 C15 1.372 . S
C15 H10 0.928 . S
C15 C14 1.372 . S
C15 C16 1.404 . S
C16 C15 1.404 . S
C16 C17 1.391 . S
C17 H11 0.930 . S
C17 C13 1.429 . S
C17 C16 1.391 . S
H18 C21 0.931 . S
H19 C24 0.928 . S
H20 C26 0.930 . S
C21 H18 0.931 . S
C21 C22 1.413 . S
C21 C23 1.360 . S
C22 C21 1.413 . S
C22 C26 1.429 . S
C23 C21 1.360 . S
C23 C24 1.372 . S
C24 H19 0.928 . S
C24 C23 1.372 . S
C24 C25 1.404 . S
C25 C24 1.404 . S
C25 C26 1.391 . S
C26 H20 0.930 . S
C26 C22 1.429 . S
C26 C25 1.391 . S
H27 C30 0.931 . S
H28 C33 0.928 . S
H29 C35 0.930 . S
C30 H27 0.931 . S
C30 C31 1.413 . S
C30 C32 1.360 . S
C31 C30 1.413 . S
C31 C35 1.429 . S
C32 C30 1.360 . S
C32 C33 1.372 . S
C33 H28 0.928 . S
C33 C32 1.372 . S
C33 C34 1.404 . S
C34 C33 1.404 . S
C34 C35 1.391 . S
C35 H29 0.930 . S
C35 C31 1.429 . S
C35 C34 1.391 . S
H36 C39 0.931 . S
H37 C42 0.928 . S
H38 C44 0.930 . S
C39 H36 0.931 . S
C39 C40 1.413 . S
C39 C41 1.360 . S
C40 C39 1.413 . S
C40 C44 1.429 . S
C41 C39 1.360 . S
C41 C42 1.372 . S
C42 H37 0.928 . S
C42 C41 1.372 . S
C42 C43 1.404 . S
C43 C42 1.404 . S
C43 C44 1.391 . S
C44 H38 0.930 . S
C44 C40 1.429 . S
C44 C43 1.391 . S
H45 C48 0.931 . S
H46 C51 0.928 . S
H47 C53 0.930 . S
C48 H45 0.931 . S
C48 C49 1.413 . S
C48 C50 1.360 . S
C49 C48 1.413 . S
C49 C53 1.429 . S
C50 C48 1.360 . S
C50 C51 1.372 . S
C51 H46 0.928 . S
C51 C50 1.372 . S
C51 C52 1.404 . S
C52 C51 1.404 . S
C52 C53 1.391 . S
C53 H47 0.930 . S
C53 C49 1.429 . S
C53 C52 1.391 . S
H54 C57 0.931 . S
H55 C60 0.928 . S
H56 C62 0.930 . S
C57 H54 0.931 . S
C57 C58 1.413 . S
C57 C59 1.360 . S
C58 C57 1.413 . S
C58 C62 1.429 . S
C59 C57 1.360 . S
C59 C60 1.372 . S
C60 H55 0.928 . S
C60 C59 1.372 . S
C60 C61 1.404 . S
C61 C60 1.404 . S
C61 C62 1.391 . S
C62 H56 0.930 . S
C62 C58 1.429 . S
C62 C61 1.391 . S
H63 C66 0.931 . S
H64 C69 0.928 . S
H65 C71 0.930 . S
C66 H63 0.931 . S
C66 C67 1.413 . S
C66 C68 1.360 . S
C67 C66 1.413 . S
C67 C71 1.429 . S
C68 C66 1.360 . S
C68 C69 1.372 . S
C69 H64 0.928 . S
C69 C68 1.372 . S
C69 C70 1.404 . S
C70 C69 1.404 . S
C70 C71 1.391 . S
C71 H65 0.930 . S
C71 C67 1.429 . S
C71 C70 1.391 . S
O72 Mg73 1.990 . S
O72 C86 1.253 1_445 S
Mg73 O72 1.990 . S
Mg73 O76 2.180 . S
Mg73 O77 2.117 . S
Mg73 O91 2.030 1_545 S
O74 Mg75 2.072 1_665 S
O74 C86 1.260 . S
Mg75 O74 2.072 1_445 S
Mg75 O76 2.099 . S
Mg75 O78 2.079 . S
Mg75 O79 2.072 1_455 S
Mg75 O81 2.099 1_445 S
Mg75 O92 2.079 1_545 S
O76 Mg73 2.180 . S
O76 Mg75 2.099 . S
O76 C87 1.279 . S
O77 Mg73 2.117 . S
O77 C87 1.250 . S
O78 Mg75 2.079 . S
O78 C88 1.264 . S
O79 Mg75 2.072 1_655 S
O79 C89 1.260 . S
Mg80 O81 2.180 . S
Mg80 O82 2.030 1_565 S
Mg80 O83 1.990 1_565 S
Mg80 O84 2.117 . S
O81 Mg75 2.099 1_665 S
O81 Mg80 2.180 . S
O81 C90 1.279 . S
O82 Mg80 2.030 1_545 S
O82 C88 1.248 1_655 S
O83 Mg80 1.990 1_545 S
O83 C89 1.253 . S
O84 Mg80 2.117 . S
O84 C90 1.250 . S
C85 O91 1.248 . S
C85 O92 1.264 . S
C86 O72 1.253 1_665 S
C86 O74 1.260 . S
C87 O76 1.279 . S
C87 O77 1.250 . S
C88 O78 1.264 . S
C88 O82 1.248 1_455 S
C89 O79 1.260 . S
C89 O83 1.253 . S
C90 O81 1.279 . S
C90 O84 1.250 . S
O91 Mg73 2.030 1_565 S
O91 C85 1.248 . S
O92 Mg75 2.079 1_565 S
O92 C85 1.264 . S
O93 Mg94 1.990 . S
O93 C107 1.253 . S
Mg94 O93 1.990 . S
Mg94 O97 2.180 1_554 S
Mg94 O98 2.117 1_554 S
Mg94 O112 2.030 . S
O95 Mg96 2.072 . S
O95 C107 1.260 . S
Mg96 O95 2.072 . S
Mg96 O97 2.099 1_554 S
Mg96 O99 2.079 1_544 S
Mg96 O100 2.072 1_554 S
Mg96 O102 2.099 1_545 S
Mg96 O113 2.079 . S
O97 Mg94 2.180 1_556 S
O97 Mg96 2.099 1_556 S
O97 C108 1.279 . S
O98 Mg94 2.117 1_556 S
O98 C108 1.250 . S
O99 Mg96 2.079 1_566 S
O99 C109 1.264 . S
O100 Mg96 2.072 1_556 S
O100 C110 1.260 1_545 S
Mg101 O102 2.180 1_556 S
Mg101 O103 2.030 . S
Mg101 O104 1.990 . S
Mg101 O105 2.117 1_556 S
O102 Mg96 2.099 1_565 S
O102 Mg101 2.180 1_554 S
O102 C111 1.279 . S
O103 Mg101 2.030 . S
O103 C109 1.248 . S
O104 Mg101 1.990 . S
O104 C110 1.253 . S
O105 Mg101 2.117 1_554 S
O105 C111 1.250 . S
C106 O112 1.248 . S
C106 O113 1.264 . S
C107 O93 1.253 . S
C107 O95 1.260 . S
C108 O97 1.279 . S
C108 O98 1.250 . S
C109 O99 1.264 . S
C109 O103 1.248 . S
C110 O100 1.260 1_565 S
C110 O104 1.253 . S
C111 O102 1.279 . S
C111 O105 1.250 . S
O112 Mg94 2.030 . S
O112 C106 1.248 . S
O113 Mg96 2.079 . S
O113 C106 1.264 . S
O114 Mg115 1.990 . S
O114 C128 1.253 . S
Mg115 O114 1.990 . S
Mg115 O118 2.180 . S
Mg115 O119 2.117 . S
Mg115 O133 2.030 . S
O116 Mg117 2.072 . S
O116 C128 1.260 . S
Mg117 O116 2.072 . S
Mg117 O118 2.099 . S
Mg117 O120 2.079 . S
Mg117 O121 2.072 . S
Mg117 O123 2.099 . S
Mg117 O134 2.079 . S
O118 Mg115 2.180 . S
O118 Mg117 2.099 . S
O118 C129 1.279 . S
O119 Mg115 2.117 . S
O119 C129 1.250 . S
O120 Mg117 2.079 . S
O120 C130 1.264 . S
O121 Mg117 2.072 . S
O121 C131 1.260 . S
Mg122 O123 2.180 . S
Mg122 O124 2.030 . S
Mg122 O125 1.990 . S
Mg122 O126 2.117 . S
O123 Mg117 2.099 . S
O123 Mg122 2.180 . S
O123 C132 1.279 . S
O124 Mg122 2.030 . S
O124 C130 1.248 . S
O125 Mg122 1.990 . S
O125 C131 1.253 . S
O126 Mg122 2.117 . S
O126 C132 1.250 . S
C127 O133 1.248 . S
C127 O134 1.264 . S
C128 O114 1.253 . S
C128 O116 1.260 . S
C129 O118 1.279 . S
C129 O119 1.250 . S
C130 O120 1.264 . S
C130 O124 1.248 . S
C131 O121 1.260 . S
C131 O125 1.253 . S
C132 O123 1.279 . S
C132 O126 1.250 . S
O133 Mg115 2.030 . S
O133 C127 1.248 . S
O134 Mg117 2.079 . S
O134 C127 1.264 . S
O135 Mg136 1.990 . S
O135 C149 1.253 . S
Mg136 O135 1.990 . S
Mg136 O139 2.180 1_455 S
Mg136 O140 2.117 1_455 S
Mg136 O154 2.030 . S
O137 Mg138 2.072 . S
O137 C149 1.260 . S
Mg138 O137 2.072 . S
Mg138 O139 2.099 1_455 S
Mg138 O141 2.079 1_454 S
Mg138 O142 2.072 1_454 S
Mg138 O144 2.099 1_554 S
Mg138 O155 2.079 . S
O139 Mg136 2.180 1_655 S
O139 Mg138 2.099 1_655 S
O139 C150 1.279 . S
O140 Mg136 2.117 1_655 S
O140 C150 1.250 . S
O141 Mg138 2.079 1_656 S
O141 C151 1.264 . S
O142 Mg138 2.072 1_656 S
O142 C152 1.260 . S
Mg143 O144 2.180 1_655 S
Mg143 O145 2.030 . S
Mg143 O146 1.990 . S
Mg143 O147 2.111 1_655 S
O144 Mg138 2.099 1_556 S
O144 Mg143 2.180 1_455 S
O144 C153 1.279 . S
O145 Mg143 2.030 . S
O145 C151 1.248 . S
O146 Mg143 1.990 . S
O146 C152 1.253 . S
O147 Mg143 2.111 1_455 S
O147 C153 1.257 . S
C148 O154 1.248 . S
C148 O155 1.264 . S
C149 O135 1.253 . S
C149 O137 1.260 . S
C150 O139 1.279 . S
C150 O140 1.250 . S
C151 O141 1.264 . S
C151 O145 1.248 . S
C152 O142 1.260 . S
C152 O146 1.253 . S
C153 O144 1.279 . S
C153 O147 1.257 . S
O154 Mg136 2.030 . S
O154 C148 1.248 . S
O155 Mg138 2.079 . S
O155 C148 1.264 . S
C156 C157 1.387 . S
C156 H160 0.950 . S
C156 C165 1.390 . S
C157 C156 1.387 . S
C157 C159 1.387 . S
H158 C165 0.950 1_565 S
C159 C157 1.387 . S
C159 C161 1.390 . S
C159 H163 0.950 . S
H160 C156 0.950 . S
C161 C159 1.390 . S
C161 C162 1.387 . S
C161 H164 0.950 . S
C162 C161 1.387 . S
C162 C165 1.387 . S
H163 C159 0.950 . S
H164 C161 0.950 . S
C165 C156 1.390 . S
C165 H158 0.950 1_545 S
C165 C162 1.387 . S
C166 C167 1.387 . S
C166 H170 0.950 . S
C166 C175 1.390 . S
C167 C166 1.387 . S
C167 C169 1.387 . S
H168 C175 0.950 . S
C169 C167 1.387 . S
C169 C171 1.390 . S
C169 H173 0.950 . S
H170 C166 0.950 . S
C171 C169 1.390 . S
C171 C172 1.387 . S
C171 H174 0.950 1_565 S
C172 C171 1.387 . S
C172 C175 1.387 . S
H173 C169 0.950 . S
H174 C171 0.950 1_545 S
C175 C166 1.390 . S
C175 H168 0.950 . S
C175 C172 1.387 . S
C176 C177 1.387 . S
C176 H180 0.950 . S
C176 C185 1.390 . S
C177 C176 1.387 . S
C177 C179 1.387 . S
H178 C185 0.950 . S
C179 C177 1.387 . S
C179 C181 1.390 . S
C179 H183 0.950 . S
H180 C176 0.950 . S
C181 C179 1.390 . S
C181 C182 1.387 . S
C181 H184 0.950 . S
C182 C181 1.387 . S
C182 C185 1.387 . S
H183 C179 0.950 . S
H184 C181 0.950 . S
C185 C176 1.390 . S
C185 H178 0.950 . S
C185 C182 1.387 . S
C186 C187 1.387 . S
C186 H190 0.950 . S
C186 C195 1.390 . S
C187 C186 1.387 . S
C187 C189 1.387 . S
H188 C195 0.950 . S
C189 C187 1.387 . S
C189 C191 1.390 . S
C189 H193 0.950 . S
H190 C186 0.950 . S
C191 C189 1.390 . S
C191 C192 1.387 . S
C191 H194 0.950 . S
C192 C191 1.387 . S
C192 C195 1.387 . S
H193 C189 0.950 . S
H194 C191 0.950 . S
C195 C186 1.390 . S
C195 H188 0.950 . S
C195 C192 1.387 . S
C196 C197 1.387 . S
C196 H200 0.950 . S
C196 C205 1.390 . S
C197 C196 1.387 . S
C197 C199 1.387 . S
H198 C205 0.950 1_556 S
C199 C197 1.387 . S
C199 C201 1.390 . S
C199 H203 0.950 . S
H200 C196 0.950 . S
C201 C199 1.390 . S
C201 C202 1.387 . S
C201 H204 0.950 . S
C202 C201 1.387 . S
C202 C205 1.387 . S
H203 C199 0.950 . S
H204 C201 0.950 . S
C205 C196 1.390 . S
C205 H198 0.950 1_554 S
C205 C202 1.387 . S
C206 C207 1.387 . S
C206 H210 0.950 . S
C206 C215 1.390 . S
C207 C206 1.387 . S
C207 C209 1.387 . S
H208 C215 0.950 . S
C209 C207 1.387 . S
C209 C211 1.390 . S
C209 H213 0.950 . S
H210 C206 0.950 . S
C211 C209 1.390 . S
C211 C212 1.387 . S
C211 H214 0.950 . S
C212 C211 1.387 . S
C212 C215 1.387 . S
H213 C209 0.950 . S
H214 C211 0.950 . S
C215 C206 1.390 . S
C215 H208 0.950 . S
C215 C212 1.387 . S
C216 C217 1.387 . S
C216 H220 0.950 . S
C216 C225 1.390 . S
C217 C216 1.387 . S
C217 C219 1.387 . S
H218 C225 0.950 . S
C219 C217 1.387 . S
C219 C221 1.390 . S
C219 H223 0.950 . S
H220 C216 0.950 . S
C221 C219 1.390 . S
C221 C222 1.387 . S
C221 H224 0.950 . S
C222 C221 1.387 . S
C222 C225 1.387 . S
H223 C219 0.950 . S
H224 C221 0.950 . S
C225 C216 1.390 . S
C225 H218 0.950 . S
C225 C222 1.387 . S
C226 C227 1.387 . S
C226 H230 0.950 . S
C226 C235 1.390 . S
C227 C226 1.387 . S
C227 C229 1.387 . S
H228 C235 0.950 . S
C229 C227 1.387 . S
C229 C231 1.390 . S
C229 H233 0.950 . S
H230 C226 0.950 . S
C231 C229 1.390 . S
C231 C232 1.387 . S
C231 H234 0.950 . S
C232 C231 1.387 . S
C232 C235 1.387 . S
H233 C229 0.950 . S
H234 C231 0.950 . S
C235 C226 1.390 . S
C235 H228 0.950 . S
C235 C232 1.387 . S
C236 C237 1.387 . S
C236 H240 0.950 . S
C236 C245 1.390 . S
C237 C236 1.387 . S
C237 C239 1.387 . S
H238 C245 0.950 . S
C239 C237 1.387 . S
C239 C241 1.390 . S
C239 H243 0.950 . S
H240 C236 0.950 . S
C241 C239 1.390 . S
C241 C242 1.387 . S
C241 H244 0.950 1_455 S
C242 C241 1.387 . S
C242 C245 1.387 . S
H243 C239 0.950 . S
H244 C241 0.950 1_655 S
C245 C236 1.390 . S
C245 H238 0.950 . S
C245 C242 1.387 . S
C246 C247 1.387 . S
C246 H250 0.950 . S
C246 C255 1.390 . S
C247 C246 1.387 . S
C247 C249 1.387 . S
H248 C255 0.950 . S
C249 C247 1.387 . S
C249 C251 1.390 . S
C249 H253 0.950 . S
H250 C246 0.950 . S
C251 C249 1.390 . S
C251 C252 1.387 . S
C251 H254 0.950 1_556 S
C252 C251 1.387 . S
C252 C255 1.387 . S
H253 C249 0.950 . S
H254 C251 0.950 1_554 S
C255 C246 1.390 . S
C255 H248 0.950 . S
C255 C252 1.387 . S
C256 C257 1.387 . S
C256 H260 0.950 . S
C256 C265 1.390 . S
C257 C256 1.387 . S
C257 C259 1.387 . S
H258 C265 0.950 . S
C259 C257 1.387 . S
C259 C261 1.390 . S
C259 H263 0.950 . S
H260 C256 0.950 . S
C261 C259 1.390 . S
C261 C262 1.387 . S
C261 H264 0.950 . S
C262 C261 1.387 . S
C262 C265 1.387 . S
H263 C259 0.950 . S
H264 C261 0.950 . S
C265 C256 1.390 . S
C265 H258 0.950 . S
C265 C262 1.387 . S
C266 C267 1.387 . S
C266 H270 0.950 . S
C266 C275 1.390 . S
C267 C266 1.387 . S
C267 C269 1.387 . S
H268 C275 0.950 . S
C269 C267 1.387 . S
C269 C271 1.390 . S
C269 H273 0.950 . S
H270 C266 0.950 . S
C271 C269 1.390 . S
C271 C272 1.387 . S
C271 H274 0.950 . S
C272 C271 1.387 . S
C272 C275 1.387 . S
H273 C269 0.950 . S
H274 C271 0.950 . S
C275 C266 1.390 . S
C275 H268 0.950 . S
C275 C272 1.387 . S
C276 C277 1.387 . S
C276 H280 0.950 1_565 S
C276 C285 1.390 . S
C277 C276 1.387 . S
C277 C279 1.387 . S
H278 C285 0.950 1_545 S
C279 C277 1.387 . S
C279 C281 1.390 . S
C279 H283 0.950 . S
H280 C276 0.950 1_545 S
C281 C279 1.390 . S
C281 C282 1.387 . S
C281 H284 0.950 . S
C282 C281 1.387 . S
C282 C285 1.387 . S
H283 C279 0.950 . S
H284 C281 0.950 . S
C285 C276 1.390 . S
C285 H278 0.950 1_565 S
C285 C282 1.387 . S
C286 C287 1.387 . S
C286 H290 0.950 . S
C286 C295 1.390 . S
C287 C286 1.387 . S
C287 C289 1.387 . S
H288 C295 0.950 1_565 S
C289 C287 1.387 . S
C289 C291 1.390 . S
C289 H293 0.950 . S
H290 C286 0.950 . S
C291 C289 1.390 . S
C291 C292 1.387 . S
C291 H294 0.950 . S
C292 C291 1.387 . S
C292 C295 1.387 . S
H293 C289 0.950 . S
H294 C291 0.950 . S
C295 C286 1.390 . S
C295 H288 0.950 1_545 S
C295 C292 1.387 . S
C296 C297 1.387 . S
C296 H300 0.950 . S
C296 C305 1.390 . S
C297 C296 1.387 . S
C297 C299 1.387 . S
H298 C305 0.950 . S
C299 C297 1.387 . S
C299 C301 1.390 . S
C299 H303 0.950 . S
H300 C296 0.950 . S
C301 C299 1.390 . S
C301 C302 1.387 . S
C301 H304 0.950 . S
C302 C301 1.387 . S
C302 C305 1.387 . S
H303 C299 0.950 . S
H304 C301 0.950 . S
C305 C296 1.390 . S
C305 H298 0.950 . S
C305 C302 1.387 . S
C306 C307 1.387 . S
C306 H310 0.950 . S
C306 C315 1.390 . S
C307 C306 1.387 . S
C307 C309 1.387 . S
H308 C315 0.950 . S
C309 C307 1.387 . S
C309 C311 1.390 . S
C309 H313 0.950 . S
H310 C306 0.950 . S
C311 C309 1.390 . S
C311 C312 1.387 . S
C311 H314 0.950 . S
C312 C311 1.387 . S
C312 C315 1.387 . S
H313 C309 0.950 . S
H314 C311 0.950 . S
C315 C306 1.390 . S
C315 H308 0.950 . S
C315 C312 1.387 . S
C316 C317 1.387 . S
C316 H320 0.950 . S
C316 C325 1.390 . S
C317 C316 1.387 . S
C317 C319 1.387 . S
H318 C325 0.950 . S
C319 C317 1.387 . S
C319 C321 1.390 . S
C319 H323 0.950 . S
H320 C316 0.950 . S
C321 C319 1.390 . S
C321 C322 1.387 . S
C321 H324 0.950 1_556 S
C322 C321 1.387 . S
C322 C325 1.387 . S
H323 C319 0.950 . S
H324 C321 0.950 1_554 S
C325 C316 1.390 . S
C325 H318 0.950 . S
C325 C322 1.387 . S
C326 C327 1.387 . S
C326 H330 0.950 . S
C326 C335 1.390 . S
C327 C326 1.387 . S
C327 C329 1.387 . S
H328 C335 0.950 . S
C329 C327 1.387 . S
C329 C331 1.390 . S
C329 H333 0.950 . S
H330 C326 0.950 . S
C331 C329 1.390 . S
C331 C332 1.387 . S
C331 H334 0.950 . S
C332 C331 1.387 . S
C332 C335 1.387 . S
H333 C329 0.950 . S
H334 C331 0.950 . S
C335 C326 1.390 . S
C335 H328 0.950 . S
C335 C332 1.387 . S
C336 C337 1.387 . S
C336 H340 0.950 . S
C336 C345 1.390 . S
C337 C336 1.387 . S
C337 C339 1.387 . S
H338 C345 0.950 1_556 S
C339 C337 1.387 . S
C339 C341 1.390 . S
C339 H343 0.950 . S
H340 C336 0.950 . S
C341 C339 1.390 . S
C341 C342 1.387 . S
C341 H344 0.950 . S
C342 C341 1.387 . S
C342 C345 1.387 . S
H343 C339 0.950 . S
H344 C341 0.950 . S
C345 C336 1.390 . S
C345 H338 0.950 1_554 S
C345 C342 1.387 . S
C346 C347 1.387 . S
C346 H350 0.950 . S
C346 C355 1.390 . S
C347 C346 1.387 . S
C347 C349 1.387 . S
H348 C355 0.950 . S
C349 C347 1.387 . S
C349 C351 1.390 . S
C349 H353 0.950 . S
H350 C346 0.950 . S
C351 C349 1.390 . S
C351 C352 1.387 . S
C351 H354 0.950 . S
C352 C351 1.387 . S
C352 C355 1.387 . S
H353 C349 0.950 . S
H354 C351 0.950 . S
C355 C346 1.390 . S
C355 H348 0.950 . S
C355 C352 1.387 . S
C356 C357 1.387 . S
C356 H360 0.950 . S
C356 C365 1.390 . S
C357 C356 1.387 . S
C357 C359 1.387 . S
H358 C365 0.950 1_554 S
C359 C357 1.387 . S
C359 C361 1.390 . S
C359 H363 0.950 . S
H360 C356 0.950 . S
C361 C359 1.390 . S
C361 C362 1.387 . S
C361 H364 0.950 . S
C362 C361 1.387 . S
C362 C365 1.387 . S
H363 C359 0.950 . S
H364 C361 0.950 . S
C365 C356 1.390 . S
C365 H358 0.950 1_556 S
C365 C362 1.387 . S
C366 C367 1.387 . S
C366 H370 0.950 . S
C366 C375 1.390 . S
C367 C366 1.387 . S
C367 C369 1.387 . S
H368 C375 0.950 . S
C369 C367 1.387 . S
C369 C371 1.390 . S
C369 H373 0.950 . S
H370 C366 0.950 . S
C371 C369 1.390 . S
C371 C372 1.387 . S
C371 H374 0.950 . S
C372 C371 1.387 . S
C372 C375 1.387 . S
H373 C369 0.950 . S
H374 C371 0.950 . S
C375 C366 1.390 . S
C375 H368 0.950 . S
C375 C372 1.387 . S
C376 C377 1.387 . S
C376 H380 0.950 . S
C376 C385 1.390 . S
C377 C376 1.387 . S
C377 C379 1.387 . S
H378 C385 0.950 . S
C379 C377 1.387 . S
C379 C381 1.390 . S
C379 H383 0.950 . S
H380 C376 0.950 . S
C381 C379 1.390 . S
C381 C382 1.387 . S
C381 H384 0.950 . S
C382 C381 1.387 . S
C382 C385 1.387 . S
H383 C379 0.950 . S
H384 C381 0.950 . S
C385 C376 1.390 . S
C385 H378 0.950 . S
C385 C382 1.387 . S
C386 C387 1.387 . S
C386 H390 0.950 . S
C386 C395 1.390 . S
C387 C386 1.387 . S
C387 C389 1.387 . S
H388 C395 0.950 . S
C389 C387 1.387 . S
C389 C391 1.390 . S
C389 H393 0.950 . S
H390 C386 0.950 . S
C391 C389 1.390 . S
C391 C392 1.387 . S
C391 H394 0.950 . S
C392 C391 1.387 . S
C392 C395 1.387 . S
H393 C389 0.950 . S
H394 C391 0.950 . S
C395 C386 1.390 . S
C395 H388 0.950 . S
C395 C392 1.387 . S
C157 C5 1.540 . S
C162 C88 1.503 . S
C167 C14 1.481 . S
C172 C110 1.407 . S
C182 C129 1.236 . S
C177 C25 1.493 . S
C187 C34 1.678 . S
C192 C150 1.356 . S
C202 C107 1.617 . S
C197 C7 1.669 . S
C212 C85 1.556 . S
C207 C13 1.603 . S
C222 C152 1.344 . S
C217 C23 1.434 . S
C232 C131 1.404 . S
C227 C31 1.469 . S
C237 C4 1.618 . S
C242 C149 1.566 . S
C252 C108 1.283 . S
C247 C22 1.580 . S
C257 C32 1.578 . S
C262 C90 1.397 . S
C267 C16 1.479 . S
C272 C128 1.457 . S
C282 C86 1.485 . S
C277 C41 1.547 . S
C287 C50 1.378 . S
C292 C106 1.332 . S
C297 C61 1.515 . S
C302 C132 1.271 . S
C307 C67 1.619 . S
C312 C153 1.297 . S
C317 C40 1.609 . S
C322 C109 1.575 . S
C332 C89 1.579 . S
C327 C52 1.646 . S
C342 C148 1.301 . S
C337 C59 1.372 . S
C352 C127 1.447 . S
C347 C70 1.507 . S
C357 C43 1.499 . S
C362 C151 1.458 . S
C372 C111 1.267 . S
C367 C58 1.521 . S
C382 C87 1.308 . S
C377 C68 1.484 . S
C387 C49 1.440 . S
C392 C130 1.414 . S
