# Generated by pormake.
# Topology pth, (4,4)-cn, num edge types: 1
# Building blocks:
#     Node 0, Type 0, BuildingBlock: UXUYUI_clean_sbu_0, # of connection points: 4
#     Node 1, Type 0, BuildingBlock: UXUYUI_clean_sbu_0, # of connection points: 4
#     Node 2, Type 0, BuildingBlock: UXUYUI_clean_sbu_0, # of connection points: 4
#     Node 3, Type 1, BuildingBlock: NAHDIM_clean_linker_0, # of connection points: 4
#     Node 4, Type 1, BuildingBlock: NAHDIM_clean_linker_0, # of connection points: 4
#     Node 5, Type 1, BuildingBlock: NAHDIM_clean_linker_0, # of connection points: 4
#     Edge 6, Type (0, 1), BuildingBlock: KIFKEQ_clean_linker_1, # of connection points: 2
#     Edge 7, Type (0, 1), BuildingBlock: KIFKEQ_clean_linker_1, # of connection points: 2
#     Edge 8, Type (0, 1), BuildingBlock: KIFKEQ_clean_linker_1, # of connection points: 2
#     Edge 9, Type (0, 1), BuildingBlock: KIFKEQ_clean_linker_1, # of connection points: 2
#     Edge 10, Type (0, 1), BuildingBlock: KIFKEQ_clean_linker_1, # of connection points: 2
#     Edge 11, Type (0, 1), BuildingBlock: KIFKEQ_clean_linker_1, # of connection points: 2
#     Edge 12, Type (0, 1), BuildingBlock: KIFKEQ_clean_linker_1, # of connection points: 2
#     Edge 13, Type (0, 1), BuildingBlock: KIFKEQ_clean_linker_1, # of connection points: 2
#     Edge 14, Type (0, 1), BuildingBlock: KIFKEQ_clean_linker_1, # of connection points: 2
#     Edge 15, Type (0, 1), BuildingBlock: KIFKEQ_clean_linker_1, # of connection points: 2
#     Edge 16, Type (0, 1), BuildingBlock: KIFKEQ_clean_linker_1, # of connection points: 2
#     Edge 17, Type (0, 1), BuildingBlock: KIFKEQ_clean_linker_1, # of connection points: 2
# Relax obj value: 0.093
# Max RMSD: 0.220
# Mean RMSD: 0.135
data_MOF--net-pth--node1-UXUYUI_clean_sbu_0--node2-NAHDIM_clean_linker_0--edge1-KIFKEQ_clean_linker_1
_symmetry_space_group_name_H-M    P1
_symmetry_Int_Tables_number       1
_symmetry_cell_setting            triclinic
loop_
_symmetry_equiv_pos_as_xyz
'x, y, z'
_cell_length_a     37.313305
_cell_length_b     37.304854
_cell_length_c     95.055045
_cell_angle_alpha  89.825634
_cell_angle_beta   90.181146
_cell_angle_gamma 119.99155
loop_
_atom_site_label
_atom_site_type_symbol
_atom_site_fract_x
_atom_site_fract_y
_atom_site_fract_z
_atom_type_partial_charge
Li0 Li 0.05084 0.06905 0.04887 0.0
Li1 Li 0.00701 0.07156 0.06729 0.0
Li2 Li 0.02428 0.01412 0.06669 0.0
Li3 Li 0.97512 0.01519 0.04986 0.0
C4 C 0.1031 0.09923 0.07165 0.0
N5 N 0.18721 0.14953 0.07588 0.0
C6 C 0.11956 0.14129 0.07457 0.0
C7 C 0.12934 0.08261 0.07119 0.0
C8 C 0.16218 0.16626 0.07658 0.0
C9 C 0.17179 0.10857 0.07327 0.0
C10 C 0.98183 0.09751 0.04334 0.0
C11 C 0.91943 0.10148 0.04137 0.0
N12 N 0.9421 0.14109 0.03664 0.0
C13 C 0.00442 0.13804 0.03826 0.0
C14 C 0.93892 0.0789 0.04474 0.0
C15 C 0.98382 0.15965 0.03501 0.0
C16 C 0.10621 0.08984 0.02557 0.0
N17 N 0.09487 0.10456 0.03675 0.0
C18 C 0.14103 0.17431 0.02969 0.0
C19 C 0.1117 0.14583 0.03897 0.0
C20 C 0.15293 0.1602 0.01789 0.0
C21 C 0.13553 0.11729 0.01599 0.0
H22 H 0.09155 0.05688 0.02381 0.0
H23 H 0.10103 0.15667 0.04765 0.0
C24 C 0.98353 0.09755 0.092 0.0
N25 N 0.0018 0.10952 0.07917 0.0
C26 C 0.98531 0.127 0.10147 0.0
C27 C 0.0242 0.18028 0.08426 0.0
C28 C 0.02148 0.14986 0.07513 0.0
C29 C 0.00674 0.16909 0.09775 0.0
H30 H 0.96917 0.06541 0.09512 0.0
H31 H 0.03698 0.15871 0.06509 0.0
C32 C 0.03702 0.98165 0.04221 0.0
N33 N 0.06377 0.92716 0.03499 0.0
C34 C 0.00891 0.94227 0.0371 0.0
C35 C 0.07884 0.99355 0.04339 0.0
C36 C 0.02299 0.91509 0.03358 0.0
C37 C 0.09174 0.96551 0.03975 0.0
C38 C 0.93099 0.98945 0.07562 0.0
C39 C 0.91563 0.94932 0.08084 0.0
C40 C 0.90589 0.0074 0.07583 0.0
C41 C 0.87501 0.9274 0.0858 0.0
C42 C 0.86546 0.9845 0.0809 0.0
N43 N 0.85095 0.94527 0.08571 0.0
C44 C 0.05553 0.9886 0.08968 0.0
C45 C 0.00881 0.93557 0.07439 0.0
C46 C 0.05559 0.95922 0.09884 0.0
N47 N 0.03198 0.97623 0.07782 0.0
C48 C 0.00802 0.90526 0.08319 0.0
C49 C 0.03078 0.91686 0.09579 0.0
H50 H 0.07275 0.02109 0.09236 0.0
H51 H 0.98917 0.9265 0.0652 0.0
C52 C 0.92067 0.99043 0.02636 0.0
N53 N 0.92833 0.97844 0.039 0.0
C54 C 0.89069 0.96121 0.01735 0.0
C55 C 0.87656 0.90827 0.0347 0.0
C56 C 0.90667 0.93842 0.04335 0.0
C57 C 0.86905 0.91932 0.02135 0.0
H58 H 0.93923 0.02225 0.02298 0.0
H59 H 0.91456 0.9294 0.05316 0.0
O60 O 0.06142 0.07431 0.06963 0.0
O61 O 0.00154 0.07588 0.04653 0.0
O62 O 0.02369 0.00857 0.0458 0.0
O63 O 0.9708 0.0114 0.07076 0.0
H64 H 0.0997 0.1546 0.07518 0.0
H65 H 0.11706 0.04994 0.06939 0.0
H66 H 0.17534 0.19893 0.07871 0.0
H67 H 0.19245 0.0961 0.07289 0.0
H68 H 0.88624 0.08745 0.04245 0.0
H69 H 0.03755 0.15278 0.03689 0.0
H70 H 0.92075 0.04717 0.04821 0.0
H71 H 0.00099 0.19114 0.03118 0.0
H72 H 0.15275 0.207 0.03141 0.0
H73 H 0.14385 0.10505 0.00705 0.0
H74 H 0.972 0.11718 0.11185 0.0
H75 H 0.04092 0.21238 0.08097 0.0
H76 H 0.97652 0.93267 0.03594 0.0
H77 H 0.10119 0.02425 0.04692 0.0
H78 H 0.0015 0.88442 0.02972 0.0
H79 H 0.12402 0.97431 0.04067 0.0
H80 H 0.93475 0.93511 0.08097 0.0
H81 H 0.91764 0.03889 0.07232 0.0
H82 H 0.86265 0.89619 0.08975 0.0
H83 H 0.84568 0.99801 0.08107 0.0
H84 H 0.07309 0.96947 0.10855 0.0
H85 H 0.98866 0.873 0.08039 0.0
H86 H 0.88632 0.97091 0.00704 0.0
H87 H 0.86052 0.87634 0.0382 0.0
Li88 Li 0.01609 0.00957 0.38565 0.0
Li89 Li 0.0649 0.06019 0.4023 0.0
Li90 Li 0.98982 0.0409 0.4021 0.0
Li91 Li 0.0369 0.08485 0.3835 0.0
C92 C 0.00072 0.9654 0.4097 0.0
N93 N 0.9725 0.88296 0.41562 0.0
C94 C 0.02798 0.95296 0.41483 0.0
C95 C 0.959 0.93599 0.40781 0.0
C96 C 0.01316 0.91112 0.41769 0.0
C97 C 0.94535 0.89445 0.4108 0.0
C98 C 0.11178 0.07508 0.37761 0.0
C99 C 0.17794 0.13462 0.37211 0.0
N100 N 0.19337 0.10919 0.36935 0.0
C101 C 0.12811 0.04951 0.37447 0.0
C102 C 0.13672 0.11796 0.37622 0.0
C103 C 0.1695 0.06735 0.37042 0.0
C104 C 0.97656 0.94798 0.36467 0.0
N105 N 0.00476 0.96151 0.37529 0.0
C106 C 0.02063 0.90807 0.37065 0.0
C107 C 0.02689 0.94255 0.37832 0.0
C108 C 0.99164 0.89325 0.35962 0.0
C109 C 0.96944 0.91368 0.35665 0.0
H110 H 0.95997 0.96413 0.36229 0.0
H111 H 0.04993 0.95462 0.38657 0.0
C112 C 0.11797 0.09556 0.4258 0.0
N113 N 0.11048 0.07176 0.41415 0.0
C114 C 0.1476 0.0994 0.43561 0.0
C115 C 0.16152 0.05451 0.42119 0.0
C116 C 0.13186 0.05179 0.41162 0.0
C117 C 0.16911 0.07784 0.43355 0.0
H118 H 0.09975 0.11019 0.42778 0.0
H119 H 0.12412 0.0317 0.40261 0.0
C120 C 0.94149 0.02529 0.37879 0.0
N121 N 0.86096 0.00651 0.37375 0.0
C122 C 0.9332 0.05611 0.37428 0.0
C123 C 0.90887 0.98478 0.38051 0.0
C124 C 0.89227 0.04605 0.37185 0.0
C125 C 0.86836 0.97593 0.37797 0.0
C126 C 0.05897 0.13748 0.40741 0.0
C127 C 0.03584 0.15412 0.41302 0.0
C128 C 0.10156 0.16295 0.4055 0.0
C129 C 0.05558 0.19621 0.41632 0.0
C130 C 0.12018 0.20488 0.40894 0.0
N131 N 0.09699 0.22053 0.41421 0.0
C132 C 0.93311 0.0084 0.42491 0.0
C133 C 0.92844 0.05847 0.41085 0.0
C134 C 0.90331 0.00689 0.43415 0.0
N135 N 0.94517 0.03414 0.41358 0.0
C136 C 0.89856 0.0579 0.41977 0.0
C137 C 0.88604 0.03232 0.43173 0.0
H138 H 0.94752 0.99001 0.42703 0.0
H139 H 0.93957 0.07968 0.40206 0.0
C140 C 0.05779 0.12315 0.35713 0.0
N141 N 0.04685 0.12727 0.37039 0.0
C142 C 0.06041 0.1503 0.34652 0.0
C143 C 0.04167 0.18615 0.36353 0.0
C144 C 0.03912 0.15814 0.37378 0.0
C145 C 0.05161 0.18187 0.34964 0.0
H146 H 0.06312 0.09789 0.35471 0.0
H147 H 0.02893 0.15986 0.38422 0.0
O148 O 0.01476 0.00618 0.40668 0.0
O149 O 0.07122 0.05807 0.38155 0.0
O150 O 0.98139 0.03461 0.38126 0.0
O151 O 0.04 0.09634 0.40404 0.0
H152 H 0.06026 0.97529 0.41651 0.0
H153 H 0.93735 0.94519 0.40415 0.0
H154 H 0.03397 0.90103 0.42157 0.0
H155 H 0.91316 0.87135 0.40932 0.0
H156 H 0.19761 0.16777 0.37106 0.0
H157 H 0.10912 0.01624 0.37527 0.0
H158 H 0.12433 0.1382 0.37813 0.0
H159 H 0.18262 0.04792 0.36809 0.0
H160 H 0.03899 0.89377 0.37312 0.0
H161 H 0.94669 0.90316 0.34828 0.0
H162 H 0.15258 0.11791 0.44494 0.0
H163 H 0.17649 0.0365 0.4193 0.0
H164 H 0.95804 0.08755 0.37278 0.0
H165 H 0.91473 0.96034 0.38367 0.0
H166 H 0.8854 0.06967 0.36846 0.0
H167 H 0.84282 0.94473 0.37931 0.0
H168 H 0.00296 0.13484 0.41473 0.0
H169 H 0.12016 0.1504 0.40162 0.0
H170 H 0.03798 0.20954 0.42056 0.0
H171 H 0.15311 0.22494 0.40749 0.0
H172 H 0.89445 0.98661 0.44322 0.0
H173 H 0.88684 0.07871 0.41765 0.0
H174 H 0.06823 0.14606 0.33593 0.0
H175 H 0.03378 0.20951 0.36629 0.0
Li176 Li 0.0397 0.03826 0.7164 0.0
Li177 Li 0.04208 0.08538 0.73431 0.0
Li178 Li 0.98525 0.01285 0.73401 0.0
Li179 Li 0.98945 0.06222 0.71609 0.0
C180 C 0.0853 0.04463 0.74049 0.0
N181 N 0.1657 0.06665 0.74744 0.0
C182 C 0.11844 0.07592 0.73301 0.0
C183 C 0.09307 0.02449 0.75149 0.0
C184 C 0.15884 0.08662 0.73669 0.0
C185 C 0.13393 0.03607 0.75484 0.0
C186 C 0.06752 0.13581 0.7099 0.0
C187 C 0.06566 0.19942 0.70878 0.0
N188 N 0.10306 0.21807 0.70225 0.0
C189 C 0.1058 0.15548 0.70308 0.0
C190 C 0.04714 0.15781 0.71271 0.0
C191 C 0.12332 0.19713 0.69933 0.0
C192 C 0.08173 0.04407 0.69162 0.0
N193 N 0.07232 0.0254 0.70443 0.0
C194 C 0.11509 0.99577 0.70013 0.0
C195 C 0.08768 0.00092 0.70871 0.0
C196 C 0.12664 0.01595 0.68702 0.0
C197 C 0.10889 0.03969 0.68269 0.0
H198 H 0.06883 0.0632 0.68848 0.0
H199 H 0.0797 0.98644 0.71897 0.0
C200 C 0.06335 0.12284 0.76049 0.0
N201 N 0.07655 0.12815 0.74694 0.0
C202 C 0.08876 0.14982 0.77094 0.0
C203 C 0.14065 0.18769 0.75324 0.0
C204 C 0.11416 0.16004 0.74312 0.0
C205 C 0.12831 0.1823 0.76741 0.0
H206 H 0.03356 0.09673 0.76324 0.0
H207 H 0.12435 0.16316 0.73235 0.0
C208 C 0.96813 0.96529 0.7097 0.0
N209 N 0.94604 0.88525 0.70237 0.0
C210 C 0.94214 0.94638 0.69818 0.0
C211 C 0.98291 0.94353 0.7175 0.0
C212 C 0.93131 0.90587 0.69464 0.0
C213 C 0.97139 0.90309 0.71362 0.0
C214 C 0.9586 0.07851 0.742 0.0
C215 C 0.91697 0.05135 0.74509 0.0
C216 C 0.97572 0.1208 0.74467 0.0
C217 C 0.89294 0.06707 0.7506 0.0
C218 C 0.95066 0.1353 0.75018 0.0
N219 N 0.91014 0.10837 0.753 0.0
C220 C 0.96099 0.9597 0.75759 0.0
C221 C 0.90821 0.9441 0.74073 0.0
C222 C 0.93348 0.92668 0.76603 0.0
N223 N 0.9479 0.96762 0.74522 0.0
C224 C 0.8796 0.91099 0.74887 0.0
C225 C 0.89213 0.90195 0.76172 0.0
H226 H 0.99273 0.97919 0.76091 0.0
H227 H 0.89879 0.95125 0.73083 0.0
C228 C 0.96621 0.07139 0.68963 0.0
N229 N 0.95771 0.07422 0.70333 0.0
C230 C 0.94118 0.07279 0.67899 0.0
C231 C 0.9002 0.08208 0.69671 0.0
C232 C 0.9261 0.08048 0.70704 0.0
C233 C 0.90689 0.07692 0.68251 0.0
H234 H 0.99151 0.06626 0.68704 0.0
H235 H 0.91974 0.08246 0.71797 0.0
O236 O 0.04538 0.03355 0.73713 0.0
O237 O 0.05015 0.09509 0.71365 0.0
O238 O 0.97878 0.00488 0.71329 0.0
O239 O 0.98268 0.06357 0.73677 0.0
H240 H 0.11313 0.09174 0.72442 0.0
H241 H 0.06779 0.00012 0.75736 0.0
H242 H 0.18475 0.11078 0.73098 0.0
H243 H 0.14039 0.02074 0.76333 0.0
H244 H 0.05024 0.21685 0.71091 0.0
H245 H 0.12191 0.13878 0.7008 0.0
H246 H 0.01726 0.1429 0.71777 0.0
H247 H 0.15302 0.21282 0.69412 0.0
H248 H 0.12831 0.97753 0.70397 0.0
H249 H 0.11636 0.05523 0.67258 0.0
H250 H 0.07828 0.14415 0.78176 0.0
H251 H 0.17083 0.21246 0.75007 0.0
H252 H 0.93044 0.96286 0.69205 0.0
H253 H 0.00299 0.95762 0.72646 0.0
H254 H 0.91118 0.89082 0.68575 0.0
H255 H 0.98258 0.88588 0.71956 0.0
H256 H 0.90328 0.01852 0.74318 0.0
H257 H 0.00805 0.14221 0.7426 0.0
H258 H 0.86062 0.04643 0.75298 0.0
H259 H 0.96348 0.16795 0.75226 0.0
H260 H 0.94425 0.92094 0.77592 0.0
H261 H 0.84815 0.89237 0.74509 0.0
H262 H 0.94774 0.06925 0.66816 0.0
H263 H 0.8739 0.08497 0.69988 0.0
C264 C 0.91252 0.60804 0.30952 0.0
C265 C 0.95315 0.6447 0.30432 0.0
C266 C 0.96752 0.63267 0.28071 0.0
C267 C 0.01029 0.64855 0.28007 0.0
C268 C 0.02697 0.63058 0.27121 0.0
C269 C 7e-05 0.59559 0.26304 0.0
C270 C 0.95679 0.58 0.26353 0.0
C271 C 0.94113 0.59934 0.2722 0.0
C272 C 0.07324 0.64844 0.2708 0.0
C273 C 0.92698 0.54221 0.25523 0.0
C274 C 0.04878 0.33455 0.29087 0.0
C275 C 0.04287 0.36002 0.28001 0.0
C276 C 0.05466 0.43009 0.2767 0.0
C277 C 0.02123 0.41892 0.26747 0.0
C278 C 0.01526 0.44911 0.26083 0.0
C279 C 0.04473 0.49151 0.26279 0.0
C280 C 0.07844 0.50295 0.27208 0.0
C281 C 0.08248 0.47199 0.27912 0.0
C282 C 0.97744 0.4353 0.25166 0.0
C283 C 0.11047 0.54776 0.27445 0.0
C284 C 0.08171 0.44713 0.17549 0.0
C285 C 0.0408 0.43354 0.17961 0.0
C286 C 0.02999 0.46118 0.18559 0.0
C287 C 0.06072 0.5032 0.18741 0.0
C288 C 0.1014 0.51736 0.18254 0.0
C289 C 0.11126 0.48909 0.17651 0.0
C290 C 0.98599 0.44527 0.19031 0.0
C291 C 0.13475 0.562 0.1842 0.0
C292 C 0.93416 0.71235 0.18074 0.0
C293 C 0.97152 0.71241 0.17415 0.0
C294 C 0.97793 0.6504 0.17512 0.0
C295 C 0.95258 0.60795 0.17728 0.0
C296 C 0.96835 0.58433 0.18331 0.0
C297 C 0.01077 0.60374 0.18697 0.0
C298 C 0.03723 0.64612 0.18383 0.0
C299 C 0.0205 0.66911 0.17794 0.0
C300 C 0.93941 0.53901 0.18628 0.0
C301 C 0.08283 0.66732 0.18717 0.0
C302 C 0.01695 0.57373 0.25473 0.0
C303 C 0.02609 0.54651 0.26193 0.0
C304 C 0.04048 0.52348 0.2548 0.0
C305 C 0.04653 0.528 0.24009 0.0
C306 C 0.06214 0.50624 0.23264 0.0
C307 C 0.06436 0.50785 0.21805 0.0
C308 C 0.05153 0.5317 0.21034 0.0
C309 C 0.05101 0.53132 0.19546 0.0
C310 C 0.03866 0.55585 0.18809 0.0
C311 C 0.0264 0.58064 0.19525 0.0
C312 C 0.02628 0.58107 0.21014 0.0
C313 C 0.01367 0.6053 0.21768 0.0
C314 C 0.01173 0.60391 0.2323 0.0
C315 C 0.02161 0.57769 0.23995 0.0
C316 C 0.03592 0.55426 0.2326 0.0
C317 C 0.03836 0.55605 0.21768 0.0
C318 C 0.11552 0.3785 0.18186 0.0
C319 C 0.0797 0.38052 0.17478 0.0
O320 O 0.95126 0.64838 0.28986 0.0
O321 O 0.96023 0.67225 0.17038 0.0
O322 O 0.09368 0.42085 0.17034 0.0
O323 O 0.06084 0.40154 0.28354 0.0
H324 H 0.97847 0.63828 0.30712 0.0
H325 H 0.9077 0.57902 0.30456 0.0
H326 H 0.8859 0.61226 0.30674 0.0
H327 H 0.91346 0.60475 0.32112 0.0
H328 H 0.03044 0.67474 0.28663 0.0
H329 H 0.90808 0.5875 0.27281 0.0
H330 H 0.08122 0.62656 0.27592 0.0
H331 H 0.09009 0.67869 0.2763 0.0
H332 H 0.08408 0.65261 0.25973 0.0
H333 H 0.89421 0.53147 0.25796 0.0
H334 H 0.93332 0.51652 0.25717 0.0
H335 H 0.93122 0.54944 0.24382 0.0
H336 H 0.04981 0.35539 0.26897 0.0
H337 H 0.98842 0.29362 0.29778 0.0
H338 H 0.07401 0.35681 0.29814 0.0
H339 H 0.0687 0.3237 0.28564 0.0
H340 H 0.99927 0.38672 0.26544 0.0
H341 H 0.10804 0.48038 0.28632 0.0
H342 H 0.98602 0.43556 0.24049 0.0
H343 H 0.96464 0.45638 0.25275 0.0
H344 H 0.95272 0.40335 0.2543 0.0
H345 H 0.13745 0.55125 0.28057 0.0
H346 H 0.09626 0.5632 0.2803 0.0
H347 H 0.12159 0.56401 0.26422 0.0
H348 H 0.05484 0.3707 0.1828 0.0
H349 H 0.01728 0.40145 0.17817 0.0
H350 H 0.14255 0.49937 0.17301 0.0
H351 H 0.98507 0.4465 0.20196 0.0
H352 H 0.96494 0.41287 0.1869 0.0
H353 H 0.97429 0.46525 0.18605 0.0
H354 H 0.16463 0.56836 0.17954 0.0
H355 H 0.13962 0.57005 0.19555 0.0
H356 H 0.12482 0.58245 0.17911 0.0
H357 H 0.99628 0.72444 0.18232 0.0
H358 H 0.94241 0.74417 0.184 0.0
H359 H 0.92399 0.69218 0.19022 0.0
H360 H 0.90794 0.70045 0.17317 0.0
H361 H 0.91994 0.59371 0.17477 0.0
H362 H 0.04059 0.70165 0.17563 0.0
H363 H 0.93881 0.53308 0.19776 0.0
H364 H 0.9508 0.5202 0.18095 0.0
H365 H 0.90732 0.52849 0.18266 0.0
H366 H 0.09996 0.69918 0.18279 0.0
H367 H 0.0964 0.64903 0.18292 0.0
H368 H 0.0872 0.66905 0.19876 0.0
H369 H 0.02078 0.54231 0.27318 0.0
H370 H 0.07212 0.48709 0.23801 0.0
H371 H 0.0758 0.48972 0.21289 0.0
H372 H 0.0377 0.55492 0.17669 0.0
H373 H 0.00474 0.62535 0.21236 0.0
H374 H 0.00156 0.62301 0.23753 0.0
H375 H 0.10512 0.34664 0.18572 0.0
H376 H 0.12692 0.39986 0.191 0.0
H377 H 0.14151 0.38773 0.17436 0.0
C378 C 0.37372 0.9827 0.64757 0.0
C379 C 0.36535 0.01183 0.63858 0.0
C380 C 0.38902 0.01192 0.61488 0.0
C381 C 0.41481 0.05423 0.61217 0.0
C382 C 0.44739 0.06785 0.60249 0.0
C383 C 0.45427 0.03844 0.59546 0.0
C384 C 0.42735 0.99564 0.59785 0.0
C385 C 0.39456 0.98292 0.6074 0.0
C386 C 0.47494 0.11364 0.59995 0.0
C387 C 0.43391 0.9634 0.59063 0.0
C388 C 0.7527 0.06964 0.62265 0.0
C389 C 0.72181 0.0637 0.61161 0.0
C390 C 0.67194 0.08579 0.6059 0.0
C391 C 0.64671 0.05101 0.59756 0.0
C392 C 0.61109 0.04666 0.59102 0.0
C393 C 0.60136 0.07866 0.59228 0.0
C394 C 0.62686 0.11396 0.60052 0.0
C395 C 0.66163 0.1168 0.60737 0.0
C396 C 0.58391 0.00765 0.58278 0.0
C397 C 0.61751 0.14869 0.60206 0.0
C398 C 0.66715 0.1019 0.50354 0.0
C399 C 0.64103 0.06208 0.5089 0.0
C400 C 0.60371 0.05243 0.51552 0.0
C401 C 0.59242 0.08331 0.5168 0.0
C402 C 0.61759 0.12274 0.51068 0.0
C403 C 0.65455 0.13138 0.50398 0.0
C404 C 0.57699 0.00961 0.52153 0.0
C405 C 0.60621 0.15616 0.51172 0.0
C406 C 0.25066 0.94812 0.51395 0.0
C407 C 0.29091 0.9871 0.50987 0.0
C408 C 0.36014 0.9957 0.50941 0.0
C409 C 0.37971 0.97233 0.5108 0.0
C410 C 0.42033 0.99021 0.5159 0.0
C411 C 0.4421 0.03283 0.51933 0.0
C412 C 0.42356 0.05736 0.51686 0.0
C413 C 0.38255 0.03846 0.51201 0.0
C414 C 0.43937 0.96321 0.51816 0.0
C415 C 0.44652 0.10319 0.51986 0.0
C416 C 0.4911 0.05255 0.58631 0.0
C417 C 0.52861 0.06257 0.59281 0.0
C418 C 0.56442 0.07474 0.58493 0.0
C419 C 0.56326 0.07816 0.57014 0.0
C420 C 0.59909 0.09188 0.56195 0.0
C421 C 0.59706 0.0919 0.54735 0.0
C422 C 0.5591 0.07819 0.54038 0.0
C423 C 0.55624 0.07528 0.52554 0.0
C424 C 0.51809 0.06177 0.51892 0.0
C425 C 0.48236 0.05052 0.52679 0.0
C426 C 0.48458 0.05297 0.54165 0.0
C427 C 0.44916 0.04143 0.54991 0.0
C428 C 0.4514 0.04239 0.56453 0.0
C429 C 0.48893 0.054 0.57148 0.0
C430 C 0.52515 0.06666 0.56337 0.0
C431 C 0.52303 0.06643 0.54845 0.0
C432 C 0.76884 0.14183 0.51001 0.0
C433 C 0.73298 0.10293 0.50349 0.0
O434 O 0.3588 0.99839 0.62473 0.0
O435 O 0.31953 0.97585 0.50578 0.0
O436 O 0.70454 0.1127 0.49787 0.0
O437 O 0.70597 0.09019 0.61278 0.0
H438 H 0.39309 0.04329 0.63941 0.0
H439 H 0.40198 0.98302 0.64374 0.0
H440 H 0.34732 0.95046 0.64697 0.0
H441 H 0.37879 0.99291 0.65873 0.0
H442 H 0.40948 0.07657 0.61764 0.0
H443 H 0.37405 0.95029 0.60948 0.0
H444 H 0.50645 0.12361 0.60405 0.0
H445 H 0.46311 0.13227 0.60517 0.0
H446 H 0.47771 0.12026 0.58849 0.0
H447 H 0.41148 0.9315 0.59418 0.0
H448 H 0.46577 0.96946 0.59271 0.0
H449 H 0.43064 0.96523 0.57908 0.0
H450 H 0.73096 0.06163 0.6006 0.0
H451 H 0.72375 0.01373 0.63389 0.0
H452 H 0.7626 0.10053 0.62769 0.0
H453 H 0.78261 0.08067 0.61679 0.0
H454 H 0.65427 0.02678 0.59619 0.0
H455 H 0.68117 0.14351 0.61382 0.0
H456 H 0.5892 0.01437 0.57136 0.0
H457 H 0.55068 0.99621 0.58493 0.0
H458 H 0.59073 0.98257 0.58531 0.0
H459 H 0.64277 0.17593 0.60753 0.0
H460 H 0.58855 0.13759 0.60817 0.0
H461 H 0.61252 0.15855 0.59154 0.0
H462 H 0.71896 0.07972 0.5121 0.0
H463 H 0.64984 0.03858 0.50796 0.0
H464 H 0.67461 0.16178 0.49954 0.0
H465 H 0.57807 0.01125 0.5332 0.0
H466 H 0.58735 0.98777 0.51815 0.0
H467 H 0.54428 0.99711 0.51827 0.0
H468 H 0.62874 0.18502 0.50622 0.0
H469 H 0.60479 0.16341 0.52296 0.0
H470 H 0.57502 0.14498 0.50711 0.0
H471 H 0.30195 0.00686 0.51947 0.0
H472 H 0.22723 0.95631 0.5174 0.0
H473 H 0.25653 0.93217 0.52279 0.0
H474 H 0.23802 0.92639 0.50492 0.0
H475 H 0.36231 0.93951 0.50848 0.0
H476 H 0.36797 0.057 0.51041 0.0
H477 H 0.44888 0.9648 0.52933 0.0
H478 H 0.46758 0.97476 0.5116 0.0
H479 H 0.41778 0.93034 0.51541 0.0
H480 H 0.43031 0.11889 0.51547 0.0
H481 H 0.47824 0.11783 0.51541 0.0
H482 H 0.44953 0.10816 0.53141 0.0
H483 H 0.52962 0.05954 0.60415 0.0
H484 H 0.62904 0.10223 0.56675 0.0
H485 H 0.62559 0.10223 0.54161 0.0
H486 H 0.51596 0.05886 0.50755 0.0
H487 H 0.41916 0.03119 0.54519 0.0
H488 H 0.42314 0.03305 0.57033 0.0
H489 H 0.7842 0.16664 0.50198 0.0
H490 H 0.79202 0.13474 0.51461 0.0
H491 H 0.75703 0.15343 0.51854 0.0
C492 C 0.69043 0.61087 0.80753 0.0
C493 C 0.68378 0.64492 0.81368 0.0
C494 C 0.65633 0.63113 0.83731 0.0
C495 C 0.62875 0.64629 0.83719 0.0
C496 C 0.59438 0.62953 0.84619 0.0
C497 C 0.58726 0.59648 0.85529 0.0
C498 C 0.61572 0.58178 0.8556 0.0
C499 C 0.6505 0.60007 0.84679 0.0
C500 C 0.56521 0.6465 0.84574 0.0
C501 C 0.60884 0.54588 0.86484 0.0
C502 C 0.30679 0.3323 0.81871 0.0
C503 C 0.3416 0.35774 0.82841 0.0
C504 C 0.37799 0.4264 0.83898 0.0
C505 C 0.40363 0.41774 0.84751 0.0
C506 C 0.4351 0.44875 0.85567 0.0
C507 C 0.44064 0.48914 0.85553 0.0
C508 C 0.41427 0.49778 0.84727 0.0
C509 C 0.38324 0.4662 0.83907 0.0
C510 C 0.46288 0.43842 0.86428 0.0
C511 C 0.41923 0.54045 0.84701 0.0
C512 C 0.3586 0.44475 0.9433 0.0
C513 C 0.3864 0.43202 0.93897 0.0
C514 C 0.42443 0.46028 0.93285 0.0
C515 C 0.43471 0.50206 0.93105 0.0
C516 C 0.40773 0.51538 0.93614 0.0
C517 C 0.37009 0.48651 0.94235 0.0
C518 C 0.4531 0.44527 0.92797 0.0
C519 C 0.418 0.55976 0.93455 0.0
C520 C 0.77187 0.71522 0.9373 0.0
C521 C 0.73306 0.71395 0.94307 0.0
C522 C 0.66469 0.65175 0.94233 0.0
C523 C 0.64716 0.6092 0.94038 0.0
C524 C 0.60739 0.58562 0.93467 0.0
C525 C 0.58438 0.60517 0.93116 0.0
C526 C 0.60073 0.64768 0.93415 0.0
C527 C 0.6409 0.67066 0.93969 0.0
C528 C 0.59064 0.54018 0.93185 0.0
C529 C 0.57638 0.66905 0.93098 0.0
C530 C 0.54838 0.57499 0.86356 0.0
C531 C 0.51246 0.54688 0.85641 0.0
C532 C 0.47537 0.5225 0.86356 0.0
C533 C 0.47352 0.52666 0.87826 0.0
C534 C 0.43653 0.50292 0.88574 0.0
C535 C 0.43571 0.50501 0.90033 0.0
C536 C 0.47193 0.53074 0.908 0.0
C537 C 0.47209 0.53085 0.92289 0.0
C538 C 0.50872 0.55652 0.93019 0.0
C539 C 0.54549 0.58213 0.92298 0.0
C540 C 0.54586 0.58264 0.90809 0.0
C541 C 0.58235 0.60806 0.90051 0.0
C542 C 0.58293 0.60667 0.8859 0.0
C543 C 0.54733 0.57916 0.87832 0.0
C544 C 0.50985 0.55449 0.8857 0.0
C545 C 0.50909 0.55637 0.9006 0.0
C546 C 0.25653 0.37688 0.93672 0.0
C547 C 0.29448 0.37809 0.94338 0.0
O548 O 0.68835 0.64556 0.82817 0.0
O549 O 0.70463 0.67345 0.94668 0.0
O550 O 0.32063 0.41763 0.94848 0.0
O551 O 0.3484 0.39745 0.83046 0.0
H552 H 0.65175 0.63742 0.81082 0.0
H553 H 0.66729 0.5804 0.81198 0.0
H554 H 0.72192 0.61653 0.81012 0.0
H555 H 0.68656 0.60955 0.79592 0.0
H556 H 0.63408 0.67104 0.82998 0.0
H557 H 0.67233 0.58893 0.84681 0.0
H558 H 0.53589 0.62368 0.84056 0.0
H559 H 0.57841 0.67612 0.83982 0.0
H560 H 0.5576 0.65154 0.85658 0.0
H561 H 0.63019 0.53423 0.86219 0.0
H562 H 0.57651 0.51998 0.86383 0.0
H563 H 0.61401 0.55583 0.876 0.0
H564 H 0.37059 0.35706 0.82615 0.0
H565 H 0.32148 0.32612 0.8094 0.0
H566 H 0.29969 0.35436 0.81287 0.0
H567 H 0.26364 0.28493 0.83167 0.0
H568 H 0.39959 0.38693 0.84776 0.0
H569 H 0.36319 0.47258 0.83255 0.0
H570 H 0.45846 0.44179 0.87563 0.0
H571 H 0.49582 0.46029 0.86174 0.0
H572 H 0.45646 0.40636 0.86241 0.0
H573 H 0.39418 0.54137 0.84096 0.0
H574 H 0.44942 0.56254 0.84217 0.0
H575 H 0.41939 0.55111 0.85792 0.0
H576 H 0.30971 0.3699 0.93493 0.0
H577 H 0.3784 0.40003 0.94032 0.0
H578 H 0.34871 0.49612 0.94602 0.0
H579 H 0.45422 0.44574 0.9163 0.0
H580 H 0.44293 0.41327 0.93161 0.0
H581 H 0.48498 0.4662 0.93186 0.0
H582 H 0.39394 0.56531 0.93921 0.0
H583 H 0.42126 0.56813 0.92322 0.0
H584 H 0.44812 0.58057 0.93971 0.0
H585 H 0.72078 0.72526 0.9345 0.0
H586 H 0.79509 0.74725 0.9341 0.0
H587 H 0.76372 0.69493 0.92791 0.0
H588 H 0.78586 0.7042 0.94534 0.0
H589 H 0.66554 0.59483 0.94276 0.0
H590 H 0.65375 0.70333 0.94181 0.0
H591 H 0.58407 0.53379 0.92045 0.0
H592 H 0.56105 0.52165 0.93758 0.0
H593 H 0.61251 0.5297 0.93517 0.0
H594 H 0.59116 0.70075 0.93547 0.0
H595 H 0.5445 0.65066 0.93522 0.0
H596 H 0.57383 0.67128 0.9194 0.0
H597 H 0.51383 0.54264 0.84517 0.0
H598 H 0.40791 0.48206 0.88039 0.0
H599 H 0.40643 0.48563 0.90552 0.0
H600 H 0.50889 0.55565 0.9416 0.0
H601 H 0.61104 0.62908 0.90577 0.0
H602 H 0.6119 0.62677 0.88062 0.0
H603 H 0.23977 0.38503 0.94457 0.0
H604 H 0.23514 0.34553 0.93247 0.0
H605 H 0.26636 0.39944 0.9279 0.0
H606 H 0.07937 0.23927 0.1033 0.0
H607 H 0.95133 0.17147 0.11609 0.0
H608 H 0.09354 0.29092 0.12122 0.0
H609 H 0.9652 0.22398 0.13395 0.0
H610 H 0.02066 0.29857 0.17502 0.0
H611 H 0.00033 0.24831 0.15597 0.0
H612 H 0.08284 0.34581 0.12777 0.0
H613 H 0.10445 0.39536 0.14697 0.0
C614 C 0.05402 0.23589 0.10978 0.0
C615 C 0.01418 0.20145 0.10824 0.0
C616 C 0.06211 0.2656 0.12005 0.0
C617 C 0.03048 0.26188 0.129 0.0
C618 C 0.99041 0.22761 0.12735 0.0
C619 C 0.98239 0.1976 0.11711 0.0
C620 C 0.03391 0.30921 0.16468 0.0
C621 C 0.06365 0.35096 0.16245 0.0
C622 C 0.02217 0.2805 0.15374 0.0
C623 C 0.03999 0.29292 0.14031 0.0
C624 C 0.06892 0.33498 0.13802 0.0
C625 C 0.08097 0.36355 0.14898 0.0
H626 H 0.8917 0.03336 0.46043 0.0
H627 H 0.81652 0.03757 0.42651 0.0
H628 H 0.84985 0.0451 0.47736 0.0
H629 H 0.77461 0.04944 0.4435 0.0
H630 H 0.75416 0.13002 0.47619 0.0
H631 H 0.78632 0.10725 0.45873 0.0
H632 H 0.7815 0.01624 0.48806 0.0
H633 H 0.7498 0.03952 0.50558 0.0
C634 C 0.86568 0.03588 0.4566 0.0
C635 C 0.8576 0.03474 0.4421 0.0
C636 C 0.84168 0.04266 0.46632 0.0
C637 C 0.80906 0.04848 0.46177 0.0
C638 C 0.79998 0.04578 0.44731 0.0
C639 C 0.82396 0.03896 0.43759 0.0
C640 C 0.7593 0.10465 0.47879 0.0
C641 C 0.74894 0.08612 0.49216 0.0
C642 C 0.77761 0.09151 0.46879 0.0
C643 C 0.78635 0.05983 0.47199 0.0
C644 C 0.77542 0.0409 0.48531 0.0
C645 C 0.75702 0.05399 0.49529 0.0
H646 H 0.90419 0.84385 0.77506 0.0
H647 H 0.81256 0.88049 0.76813 0.0
H648 H 0.85405 0.78408 0.78855 0.0
H649 H 0.76252 0.82112 0.78182 0.0
H650 H 0.67217 0.68377 0.79121 0.0
H651 H 0.72263 0.74728 0.77947 0.0
H652 H 0.81519 0.76239 0.81004 0.0
H653 H 0.76482 0.698 0.82147 0.0
C654 C 0.87348 0.83942 0.7766 0.0
C655 C 0.86222 0.8667 0.77048 0.0
C656 C 0.84475 0.80523 0.78436 0.0
C657 C 0.80417 0.79769 0.78624 0.0
C658 C 0.79325 0.82557 0.78036 0.0
C659 C 0.82191 0.8596 0.77254 0.0
C660 C 0.70316 0.70104 0.79551 0.0
C661 C 0.71436 0.68638 0.80739 0.0
C662 C 0.73207 0.7375 0.78883 0.0
C663 C 0.77297 0.76009 0.79384 0.0
C664 C 0.78407 0.74558 0.80583 0.0
C665 C 0.75515 0.70896 0.81247 0.0
H666 H 0.95896 0.84826 0.10344 0.0
H667 H 0.0903 0.91372 0.11198 0.0
H668 H 0.94865 0.79759 0.12135 0.0
H669 H 0.07999 0.86244 0.13 0.0
H670 H 0.03157 0.79402 0.17295 0.0
H671 H 0.04911 0.84205 0.15324 0.0
H672 H 0.96082 0.74196 0.12708 0.0
H673 H 0.94241 0.69448 0.14692 0.0
C674 C 0.98581 0.85135 0.10895 0.0
C675 C 0.0255 0.8849 0.10622 0.0
C676 C 0.97989 0.82222 0.11924 0.0
C677 C 0.01351 0.82578 0.12707 0.0
C678 C 0.05338 0.85904 0.12424 0.0
C679 C 0.0593 0.88837 0.11392 0.0
C680 C 0.01651 0.78228 0.1629 0.0
C681 C 0.98603 0.74048 0.16142 0.0
C682 C 0.02664 0.8097 0.15159 0.0
C683 C 0.00628 0.79588 0.13858 0.0
C684 C 0.97671 0.75373 0.137 0.0
C685 C 0.96644 0.72641 0.14832 0.0
H686 H 0.24226 0.07759 0.43075 0.0
H687 H 0.15552 0.07217 0.4619 0.0
H688 H 0.27956 0.06326 0.44905 0.0
H689 H 0.19296 0.0585 0.48007 0.0
H690 H 0.27908 0.05362 0.51187 0.0
H691 H 0.25774 0.08477 0.49338 0.0
H692 H 0.26119 0.00044 0.46308 0.0
H693 H 0.28293 0.96977 0.48154 0.0
C694 C 0.23142 0.07383 0.4415 0.0
C695 C 0.1957 0.07573 0.44482 0.0
C696 C 0.25281 0.06568 0.45197 0.0
C697 C 0.23905 0.05951 0.46598 0.0
C698 C 0.2047 0.06365 0.46941 0.0
C699 C 0.18324 0.07158 0.45896 0.0
C700 C 0.27606 0.04241 0.50119 0.0
C701 C 0.28299 0.00959 0.4981 0.0
C702 C 0.26367 0.06005 0.49063 0.0
C703 C 0.25775 0.04504 0.47678 0.0
C704 C 0.26612 0.01316 0.4736 0.0
C705 C 0.2784 0.99547 0.48416 0.0
H706 H 0.21012 0.2064 0.76971 0.0
H707 H 0.11247 0.21611 0.79046 0.0
H708 H 0.25736 0.24496 0.78876 0.0
H709 H 0.15957 0.25361 0.80983 0.0
H710 H 0.26878 0.36249 0.84273 0.0
H711 H 0.2107 0.31773 0.82038 0.0
H712 H 0.27958 0.23383 0.81124 0.0
H713 H 0.3397 0.27704 0.8331 0.0
C714 C 0.19886 0.21715 0.77828 0.0
C715 C 0.15756 0.20824 0.77858 0.0
C716 C 0.22577 0.23871 0.78931 0.0
C717 C 0.21202 0.25188 0.80085 0.0
C718 C 0.17113 0.24409 0.80101 0.0
C719 C 0.14406 0.2223 0.78999 0.0
C720 C 0.26958 0.33747 0.83729 0.0
C721 C 0.31496 0.32943 0.83848 0.0
C722 C 0.23462 0.31052 0.82298 0.0
C723 C 0.2401 0.2726 0.81278 0.0
C724 C 0.27832 0.25794 0.81712 0.0
C725 C 0.31461 0.28311 0.8312 0.0
H726 H 0.86709 0.1215 0.67891 0.0
H727 H 0.87618 0.01928 0.66174 0.0
H728 H 0.81295 0.10875 0.66179 0.0
H729 H 0.82197 0.00597 0.64502 0.0
H730 H 0.73052 0.99026 0.60426 0.0
H731 H 0.79805 0.01149 0.62339 0.0
H732 H 0.74046 0.07189 0.65769 0.0
H733 H 0.67138 0.05231 0.6392 0.0
C734 C 0.85759 0.09642 0.67146 0.0
C735 C 0.8761 0.07159 0.67161 0.0
C736 C 0.82647 0.08898 0.66169 0.0
C737 C 0.81315 0.05642 0.65198 0.0
C738 C 0.83209 0.03204 0.65204 0.0
C739 C 0.86324 0.03959 0.6617 0.0
C740 C 0.7313 0.00348 0.61445 0.0
C741 C 0.69793 0.02587 0.61862 0.0
C742 C 0.77435 0.01876 0.62618 0.0
C743 C 0.77846 0.0465 0.64226 0.0
C744 C 0.73842 0.0575 0.64764 0.0
C745 C 0.69411 0.04349 0.63658 0.0
H746 H 0.81128 0.91883 0.00325 0.0
H747 H 0.86751 0.847 0.01608 0.0
H748 H 0.7714 0.86708 0.98528 0.0
H749 H 0.8286 0.79604 0.99814 0.0
H750 H 0.73666 0.69547 0.97102 0.0
H751 H 0.76224 0.74295 0.99087 0.0
H752 H 0.78414 0.84411 0.96321 0.0
H753 H 0.75673 0.79603 0.94348 0.0
C754 C 0.81495 0.89192 0.00226 0.0
C755 C 0.84233 0.88686 0.01112 0.0
C756 C 0.79222 0.86234 0.99197 0.0
C757 C 0.79669 0.8273 0.99028 0.0
C758 C 0.82359 0.82207 -0.00067 0.0
C759 C 0.84602 0.85139 0.00963 0.0
C760 C 0.74592 0.72765 0.96926 0.0
C761 C 0.74412 0.74199 0.95573 0.0
C762 C 0.76103 0.75498 0.9806 0.0
C763 C 0.77553 0.79745 0.97863 0.0
C764 C 0.77266 0.81156 0.96517 0.0
C765 C 0.75716 0.7841 0.95385 0.0
H766 H 0.98578 0.82134 0.36909 0.0
H767 H 0.9831 0.88349 0.33103 0.0
H768 H 0.97732 0.76276 0.35526 0.0
H769 H 0.97488 0.82488 0.31713 0.0
H770 H 0.91656 0.69193 0.29916 0.0
H771 H 0.92552 0.75226 0.31224 0.0
H772 H 0.01606 0.74572 0.33894 0.0
H773 H 0.00633 0.68506 0.32606 0.0
C774 C 0.98367 0.82259 0.35775 0.0
C775 C 0.98524 0.8571 0.35116 0.0
C776 C 0.97891 0.78906 0.34981 0.0
C777 C 0.97572 0.78924 0.33507 0.0
C778 C 0.9768 0.82356 0.32847 0.0
C779 C 0.98148 0.85712 0.33643 0.0
C780 C 0.93869 0.7038 0.30773 0.0
C781 C 0.9611 0.68413 0.31151 0.0
C782 C 0.94389 0.73834 0.3152 0.0
C783 C 0.9714 0.75372 0.32667 0.0
C784 C 0.99418 0.73431 0.3303 0.0
C785 C 0.98894 0.69982 0.32284 0.0
H786 H 0.18939 0.0791 0.67234 0.0
H787 H 0.13708 0.94924 0.68213 0.0
H788 H 0.24452 0.07782 0.65915 0.0
H789 H 0.19336 0.94842 0.66939 0.0
H790 H 0.28274 0.95361 0.6356 0.0
H791 H 0.22305 0.95414 0.64598 0.0
H792 H 0.30503 0.07251 0.66511 0.0
H793 H 0.36429 0.07217 0.65455 0.0
C794 C 0.18937 0.05014 0.67156 0.0
C795 C 0.1588 0.01427 0.67831 0.0
C796 C 0.22129 0.04955 0.66413 0.0
C797 C 0.22353 0.01311 0.6633 0.0
C798 C 0.19238 0.97693 0.66974 0.0
C799 C 0.16039 0.97751 0.67717 0.0
C800 C 0.28778 0.97994 0.64186 0.0
C801 C 0.32806 0.01315 0.6441 0.0
C802 C 0.25372 0.98011 0.6479 0.0
C803 C 0.25927 0.01343 0.65633 0.0
C804 C 0.29958 0.04672 0.65846 0.0
C805 C 0.33356 0.0465 0.65246 0.0
H806 H 0.14598 0.15266 0.98925 0.0
H807 H 0.22211 0.23593 0.02214 0.0
H808 H 0.18597 0.20509 0.97167 0.0
H809 H 0.26197 0.28859 0.00449 0.0
H810 H 0.27462 0.38521 0.97072 0.0
H811 H 0.24612 0.33174 0.98885 0.0
H812 H 0.25401 0.24579 0.96043 0.0
H813 H 0.28224 0.29938 0.94224 0.0
C814 C 0.17185 0.18179 0.99272 0.0
C815 C 0.18064 0.19018 0.00712 0.0
C816 C 0.19476 0.2119 0.98262 0.0
C817 C 0.22694 0.25112 0.9867 0.0
C818 C 0.2369 0.25891 0.00105 0.0
C819 C 0.21406 0.22875 0.01115 0.0
C820 C 0.27106 0.35515 0.96846 0.0
C821 C 0.28125 0.34662 0.95514 0.0
C822 C 0.25483 0.32454 0.97885 0.0
C823 C 0.24794 0.28456 0.97609 0.0
C824 C 0.25875 0.27623 0.96285 0.0
C825 C 0.27516 0.30692 0.95247 0.0
H826 H 0.08238 0.26562 0.3496 0.0
H827 H 0.01354 0.15605 0.32425 0.0
H828 H 0.07128 0.30648 0.33184 0.0
H829 H 0.00115 0.19616 0.30682 0.0
H830 H 0.98813 0.2768 0.26692 0.0
H831 H 0.01092 0.23271 0.28654 0.0
H832 H 0.02671 0.33067 0.32541 0.0
H833 H 0.00463 0.37745 0.30658 0.0
C834 C 0.06502 0.25038 0.34019 0.0
C835 C 0.04882 0.20769 0.3383 0.0
C836 C 0.05838 0.27368 0.33005 0.0
C837 C 0.03502 0.25465 0.31792 0.0
C838 C 0.01999 0.21221 0.31584 0.0
C839 C 0.02697 0.18903 0.32589 0.0
C840 C 0.99325 0.28547 0.27791 0.0
C841 C 0.00134 0.33617 0.28413 0.0
C842 C 0.00955 0.25947 0.2901 0.0
C843 C 0.02415 0.2782 0.30794 0.0
C844 C 0.02032 0.32172 0.31449 0.0
C845 C 0.00441 0.34978 0.30308 0.0
loop_
_geom_bond_atom_site_label_1
_geom_bond_atom_site_label_2
_geom_bond_distance
_geom_bond_site_symmetry_2
_ccdc_geom_bond_type
Li0 N17 1.990 . S
Li0 O60 1.956 . S
Li0 O61 1.988 . S
Li0 O62 1.961 . S
Li1 N25 1.990 . S
Li1 O60 1.971 1_655 S
Li1 O61 1.956 1_655 S
Li1 O63 1.961 . S
Li2 N47 1.990 1_545 S
Li2 O60 1.961 . S
Li2 O62 1.956 . S
Li2 O63 1.970 1_455 S
Li3 N53 1.990 1_545 S
Li3 O61 1.961 1_655 S
Li3 O62 1.970 1_655 S
Li3 O63 1.956 . S
C4 C6 1.348 . S
C4 C7 1.356 . S
C4 O60 1.325 . S
N5 C8 1.314 . S
N5 C9 1.279 . S
C6 C4 1.348 . S
C6 C8 1.353 . S
C6 H64 0.929 . S
C7 C4 1.356 . S
C7 C9 1.358 . S
C7 H65 0.930 . S
C8 N5 1.314 . S
C8 C6 1.353 . S
C8 H66 0.930 . S
C9 N5 1.279 . S
C9 C7 1.358 . S
C9 H67 0.930 . S
C10 C13 1.348 1_655 S
C10 C14 1.356 . S
C10 O61 1.314 1_655 S
C11 N12 1.279 . S
C11 C14 1.358 . S
C11 H68 0.930 . S
N12 C11 1.279 . S
N12 C15 1.314 1_655 S
C13 C10 1.348 1_455 S
C13 C15 1.353 . S
C13 H69 0.929 . S
C14 C10 1.356 . S
C14 C11 1.358 . S
C14 H70 0.930 . S
C15 N12 1.314 1_455 S
C15 C13 1.353 . S
C15 H71 0.930 . S
C16 N17 1.314 . S
C16 C21 1.353 . S
C16 H22 0.930 . S
N17 Li0 1.990 . S
N17 C16 1.314 . S
N17 C19 1.279 . S
C18 C19 1.358 . S
C18 C20 1.356 . S
C18 H72 0.930 . S
C19 N17 1.279 . S
C19 C18 1.358 . S
C19 H23 0.930 . S
C20 C18 1.356 . S
C20 C21 1.348 . S
C21 C16 1.353 . S
C21 C20 1.348 . S
C21 H73 0.929 . S
H22 C16 0.930 . S
H23 C19 0.930 . S
C24 N25 1.314 . S
C24 C26 1.353 . S
C24 H30 0.930 . S
N25 Li1 1.990 . S
N25 C24 1.314 . S
N25 C28 1.279 . S
C26 C24 1.353 . S
C26 C29 1.348 . S
C26 H74 0.929 . S
C27 C28 1.358 . S
C27 C29 1.356 . S
C27 H75 0.930 . S
C28 N25 1.279 . S
C28 C27 1.358 . S
C28 H31 0.930 . S
C29 C26 1.348 . S
C29 C27 1.356 . S
H30 C24 0.930 . S
H31 C28 0.930 . S
C32 C34 1.348 . S
C32 C35 1.356 . S
C32 O62 1.325 1_565 S
N33 C36 1.314 . S
N33 C37 1.279 . S
C34 C32 1.348 . S
C34 C36 1.353 . S
C34 H76 0.929 1_455 S
C35 C32 1.356 . S
C35 C37 1.358 . S
C35 H77 0.930 1_565 S
C36 N33 1.314 . S
C36 C34 1.353 . S
C36 H78 0.930 1_455 S
C37 N33 1.279 . S
C37 C35 1.358 . S
C37 H79 0.930 . S
C38 C39 1.348 . S
C38 C40 1.356 . S
C38 O63 1.325 1_565 S
C39 C38 1.348 . S
C39 C41 1.353 . S
C39 H80 0.929 . S
C40 C38 1.356 . S
C40 C42 1.358 . S
C40 H81 0.930 1_565 S
C41 C39 1.353 . S
C41 N43 1.314 . S
C41 H82 0.930 . S
C42 C40 1.358 . S
C42 N43 1.279 . S
C42 H83 0.930 . S
N43 C41 1.314 . S
N43 C42 1.279 . S
C44 C46 1.353 . S
C44 N47 1.314 . S
C44 H50 0.930 . S
C45 N47 1.279 . S
C45 C48 1.358 . S
C45 H51 0.930 . S
C46 C44 1.353 . S
C46 C49 1.348 . S
C46 H84 0.929 . S
N47 Li2 1.990 1_565 S
N47 C44 1.314 . S
N47 C45 1.279 . S
C48 C45 1.358 . S
C48 C49 1.356 . S
C48 H85 0.930 . S
C49 C46 1.348 . S
C49 C48 1.356 . S
H50 C44 0.930 . S
H51 C45 0.930 . S
C52 N53 1.314 . S
C52 C54 1.353 . S
C52 H58 0.930 . S
N53 Li3 1.990 1_565 S
N53 C52 1.314 . S
N53 C56 1.279 . S
C54 C52 1.353 . S
C54 C57 1.348 . S
C54 H86 0.929 . S
C55 C56 1.358 . S
C55 C57 1.356 . S
C55 H87 0.930 . S
C56 N53 1.279 . S
C56 C55 1.358 . S
C56 H59 0.930 . S
C57 C54 1.348 . S
C57 C55 1.356 . S
H58 C52 0.930 . S
H59 C56 0.930 . S
O60 Li0 1.956 . S
O60 Li1 1.971 1_455 S
O60 Li2 1.961 . S
O60 C4 1.325 . S
O61 Li0 1.988 . S
O61 Li1 1.956 1_455 S
O61 Li3 1.961 1_455 S
O61 C10 1.314 1_455 S
O62 Li0 1.961 . S
O62 Li2 1.956 . S
O62 Li3 1.970 1_455 S
O62 C32 1.325 1_545 S
O63 Li1 1.961 . S
O63 Li2 1.970 1_655 S
O63 Li3 1.956 . S
O63 C38 1.325 1_545 S
H64 C6 0.929 . S
H65 C7 0.930 . S
H66 C8 0.930 . S
H67 C9 0.930 . S
H68 C11 0.930 . S
H69 C13 0.929 . S
H70 C14 0.930 . S
H71 C15 0.930 . S
H72 C18 0.930 . S
H73 C21 0.929 . S
H74 C26 0.929 . S
H75 C27 0.930 . S
H76 C34 0.929 1_655 S
H77 C35 0.930 1_545 S
H78 C36 0.930 1_655 S
H79 C37 0.930 . S
H80 C39 0.929 . S
H81 C40 0.930 1_545 S
H82 C41 0.930 . S
H83 C42 0.930 . S
H84 C46 0.929 . S
H85 C48 0.930 . S
H86 C54 0.929 . S
H87 C55 0.930 . S
Li88 N105 1.990 1_445 S
Li88 O148 1.956 . S
Li88 O149 1.970 . S
Li88 O150 1.961 1_455 S
Li89 N113 1.990 . S
Li89 O148 1.970 . S
Li89 O149 1.956 . S
Li89 O151 1.961 . S
Li90 N135 1.990 . S
Li90 O148 1.961 1_655 S
Li90 O150 1.956 . S
Li90 O151 1.970 1_655 S
Li91 N141 1.990 . S
Li91 O149 1.961 . S
Li91 O150 1.970 1_455 S
Li91 O151 1.956 . S
C92 C94 1.348 . S
C92 C95 1.356 1_455 S
C92 O148 1.325 1_565 S
N93 C96 1.314 1_655 S
N93 C97 1.279 . S
C94 C92 1.348 . S
C94 C96 1.353 . S
C94 H152 0.929 . S
C95 C92 1.356 1_655 S
C95 C97 1.358 . S
C95 H153 0.930 . S
C96 N93 1.314 1_455 S
C96 C94 1.353 . S
C96 H154 0.930 . S
C97 N93 1.279 . S
C97 C95 1.358 . S
C97 H155 0.930 . S
C98 C101 1.348 . S
C98 C102 1.356 . S
C98 O149 1.325 . S
C99 N100 1.279 . S
C99 C102 1.358 . S
C99 H156 0.930 . S
N100 C99 1.279 . S
N100 C103 1.314 . S
C101 C98 1.348 . S
C101 C103 1.353 . S
C101 H157 0.929 . S
C102 C98 1.356 . S
C102 C99 1.358 . S
C102 H158 0.930 . S
C103 N100 1.314 . S
C103 C101 1.353 . S
C103 H159 0.930 . S
C104 N105 1.314 . S
C104 C109 1.353 . S
C104 H110 0.930 . S
N105 Li88 1.990 1_665 S
N105 C104 1.314 . S
N105 C107 1.279 . S
C106 C107 1.358 . S
C106 C108 1.356 . S
C106 H160 0.930 . S
C107 N105 1.279 . S
C107 C106 1.358 . S
C107 H111 0.930 1_655 S
C108 C106 1.356 . S
C108 C109 1.348 . S
C109 C104 1.353 . S
C109 C108 1.348 . S
C109 H161 0.929 . S
H110 C104 0.930 . S
H111 C107 0.930 1_455 S
C112 N113 1.314 . S
C112 C114 1.353 . S
C112 H118 0.930 . S
N113 Li89 1.990 . S
N113 C112 1.314 . S
N113 C116 1.279 . S
C114 C112 1.353 . S
C114 C117 1.348 . S
C114 H162 0.929 . S
C115 C116 1.358 . S
C115 C117 1.356 . S
C115 H163 0.930 . S
C116 N113 1.279 . S
C116 C115 1.358 . S
C116 H119 0.930 . S
C117 C114 1.348 . S
C117 C115 1.356 . S
H118 C112 0.930 . S
H119 C116 0.930 . S
C120 C122 1.348 . S
C120 C123 1.356 1_545 S
C120 O150 1.325 . S
N121 C124 1.314 . S
N121 C125 1.279 1_545 S
C122 C120 1.348 . S
C122 C124 1.353 . S
C122 H164 0.929 . S
C123 C120 1.356 1_565 S
C123 C125 1.358 . S
C123 H165 0.930 . S
C124 N121 1.314 . S
C124 C122 1.353 . S
C124 H166 0.930 . S
C125 N121 1.279 1_565 S
C125 C123 1.358 . S
C125 H167 0.930 . S
C126 C127 1.348 . S
C126 C128 1.356 . S
C126 O151 1.325 . S
C127 C126 1.348 . S
C127 C129 1.353 . S
C127 H168 0.929 1_455 S
C128 C126 1.356 . S
C128 C130 1.358 . S
C128 H169 0.930 . S
C129 C127 1.353 . S
C129 N131 1.314 . S
C129 H170 0.930 . S
C130 C128 1.358 . S
C130 N131 1.279 . S
C130 H171 0.930 . S
N131 C129 1.314 . S
N131 C130 1.279 . S
C132 C134 1.353 . S
C132 N135 1.314 . S
C132 H138 0.930 . S
C133 N135 1.279 . S
C133 C136 1.358 . S
C133 H139 0.930 . S
C134 C132 1.353 . S
C134 C137 1.348 . S
C134 H172 0.929 1_545 S
N135 Li90 1.990 . S
N135 C132 1.314 . S
N135 C133 1.279 . S
C136 C133 1.358 . S
C136 C137 1.356 . S
C136 H173 0.930 . S
C137 C134 1.348 . S
C137 C136 1.356 . S
H138 C132 0.930 . S
H139 C133 0.930 . S
C140 N141 1.314 . S
C140 C142 1.353 . S
C140 H146 0.930 . S
N141 Li91 1.990 . S
N141 C140 1.314 . S
N141 C144 1.279 . S
C142 C140 1.353 . S
C142 C145 1.348 . S
C142 H174 0.929 . S
C143 C144 1.358 . S
C143 C145 1.356 . S
C143 H175 0.930 . S
C144 N141 1.279 . S
C144 C143 1.358 . S
C144 H147 0.930 . S
C145 C142 1.348 . S
C145 C143 1.356 . S
H146 C140 0.930 . S
H147 C144 0.930 . S
O148 Li88 1.956 . S
O148 Li89 1.970 . S
O148 Li90 1.961 1_455 S
O148 C92 1.325 1_545 S
O149 Li88 1.970 . S
O149 Li89 1.956 . S
O149 Li91 1.961 . S
O149 C98 1.325 . S
O150 Li88 1.961 1_655 S
O150 Li90 1.956 . S
O150 Li91 1.970 1_655 S
O150 C120 1.325 . S
O151 Li89 1.961 . S
O151 Li90 1.970 1_455 S
O151 Li91 1.956 . S
O151 C126 1.325 . S
H152 C94 0.929 . S
H153 C95 0.930 . S
H154 C96 0.930 . S
H155 C97 0.930 . S
H156 C99 0.930 . S
H157 C101 0.929 . S
H158 C102 0.930 . S
H159 C103 0.930 . S
H160 C106 0.930 . S
H161 C109 0.929 . S
H162 C114 0.929 . S
H163 C115 0.930 . S
H164 C122 0.929 . S
H165 C123 0.930 . S
H166 C124 0.930 . S
H167 C125 0.930 . S
H168 C127 0.929 1_655 S
H169 C128 0.930 . S
H170 C129 0.930 . S
H171 C130 0.930 . S
H172 C134 0.929 1_565 S
H173 C136 0.930 . S
H174 C142 0.929 . S
H175 C143 0.930 . S
Li176 N193 1.990 . S
Li176 O236 1.956 . S
Li176 O237 1.970 . S
Li176 O238 1.961 1_455 S
Li177 N201 1.990 . S
Li177 O236 1.970 . S
Li177 O237 1.956 . S
Li177 O239 1.961 1_455 S
Li178 N223 1.990 1_545 S
Li178 O236 1.961 1_655 S
Li178 O238 1.956 . S
Li178 O239 1.970 . S
Li179 N229 1.990 . S
Li179 O237 1.961 1_655 S
Li179 O238 1.970 . S
Li179 O239 1.956 . S
C180 C182 1.348 . S
C180 C183 1.356 1_545 S
C180 O236 1.325 . S
N181 C184 1.314 . S
N181 C185 1.279 1_545 S
C182 C180 1.348 . S
C182 C184 1.353 . S
C182 H240 0.929 . S
C183 C180 1.356 1_565 S
C183 C185 1.358 . S
C183 H241 0.930 . S
C184 N181 1.314 . S
C184 C182 1.353 . S
C184 H242 0.930 . S
C185 N181 1.279 1_565 S
C185 C183 1.358 . S
C185 H243 0.930 . S
C186 C189 1.348 . S
C186 C190 1.356 . S
C186 O237 1.325 . S
C187 N188 1.279 . S
C187 C190 1.358 . S
C187 H244 0.930 . S
N188 C187 1.279 . S
N188 C191 1.314 . S
C189 C186 1.348 . S
C189 C191 1.353 . S
C189 H245 0.929 . S
C190 C186 1.356 . S
C190 C187 1.358 . S
C190 H246 0.930 . S
C191 N188 1.314 . S
C191 C189 1.353 . S
C191 H247 0.930 . S
C192 N193 1.314 . S
C192 C197 1.353 . S
C192 H198 0.930 . S
N193 Li176 1.990 . S
N193 C192 1.314 . S
N193 C195 1.279 . S
C194 C195 1.358 . S
C194 C196 1.356 . S
C194 H248 0.930 . S
C195 N193 1.279 . S
C195 C194 1.358 . S
C195 H199 0.930 . S
C196 C194 1.356 . S
C196 C197 1.348 . S
C197 C192 1.353 . S
C197 C196 1.348 . S
C197 H249 0.929 1_545 S
H198 C192 0.930 . S
H199 C195 0.930 . S
C200 N201 1.314 . S
C200 C202 1.353 . S
C200 H206 0.930 . S
N201 Li177 1.990 . S
N201 C200 1.314 . S
N201 C204 1.279 . S
C202 C200 1.353 . S
C202 C205 1.348 . S
C202 H250 0.929 . S
C203 C204 1.358 . S
C203 C205 1.356 . S
C203 H251 0.930 . S
C204 N201 1.279 . S
C204 C203 1.358 . S
C204 H207 0.930 . S
C205 C202 1.348 . S
C205 C203 1.356 . S
H206 C200 0.930 . S
H207 C204 0.930 . S
C208 C210 1.348 . S
C208 C211 1.356 . S
C208 O238 1.325 1_565 S
N209 C212 1.314 . S
N209 C213 1.279 . S
C210 C208 1.348 . S
C210 C212 1.353 . S
C210 H252 0.929 . S
C211 C208 1.356 . S
C211 C213 1.358 . S
C211 H253 0.930 . S
C212 N209 1.314 . S
C212 C210 1.353 . S
C212 H254 0.930 . S
C213 N209 1.279 . S
C213 C211 1.358 . S
C213 H255 0.930 . S
C214 C215 1.348 . S
C214 C216 1.356 . S
C214 O239 1.325 . S
C215 C214 1.348 . S
C215 C217 1.353 . S
C215 H256 0.929 . S
C216 C214 1.356 . S
C216 C218 1.358 . S
C216 H257 0.930 . S
C217 C215 1.353 . S
C217 N219 1.314 . S
C217 H258 0.930 . S
C218 C216 1.358 . S
C218 N219 1.279 . S
C218 H259 0.930 . S
N219 C217 1.314 . S
N219 C218 1.279 . S
C220 C222 1.353 . S
C220 N223 1.314 . S
C220 H226 0.930 . S
C221 N223 1.279 . S
C221 C224 1.358 . S
C221 H227 0.930 . S
C222 C220 1.353 . S
C222 C225 1.348 . S
C222 H260 0.929 . S
N223 Li178 1.990 1_565 S
N223 C220 1.314 . S
N223 C221 1.279 . S
C224 C221 1.358 . S
C224 C225 1.356 . S
C224 H261 0.930 . S
C225 C222 1.348 . S
C225 C224 1.356 . S
H226 C220 0.930 . S
H227 C221 0.930 . S
C228 N229 1.314 . S
C228 C230 1.353 . S
C228 H234 0.930 . S
N229 Li179 1.990 . S
N229 C228 1.314 . S
N229 C232 1.279 . S
C230 C228 1.353 . S
C230 C233 1.348 . S
C230 H262 0.929 . S
C231 C232 1.358 . S
C231 C233 1.356 . S
C231 H263 0.930 . S
C232 N229 1.279 . S
C232 C231 1.358 . S
C232 H235 0.930 . S
C233 C230 1.348 . S
C233 C231 1.356 . S
H234 C228 0.930 . S
H235 C232 0.930 . S
O236 Li176 1.956 . S
O236 Li177 1.970 . S
O236 Li178 1.961 1_455 S
O236 C180 1.325 . S
O237 Li176 1.970 . S
O237 Li177 1.956 . S
O237 Li179 1.961 1_455 S
O237 C186 1.325 . S
O238 Li176 1.961 1_655 S
O238 Li178 1.956 . S
O238 Li179 1.970 . S
O238 C208 1.325 1_545 S
O239 Li177 1.961 1_655 S
O239 Li178 1.970 . S
O239 Li179 1.956 . S
O239 C214 1.325 . S
H240 C182 0.929 . S
H241 C183 0.930 . S
H242 C184 0.930 . S
H243 C185 0.930 . S
H244 C187 0.930 . S
H245 C189 0.929 . S
H246 C190 0.930 . S
H247 C191 0.930 . S
H248 C194 0.930 . S
H249 C197 0.929 1_565 S
H250 C202 0.929 . S
H251 C203 0.930 . S
H252 C210 0.929 . S
H253 C211 0.930 . S
H254 C212 0.930 . S
H255 C213 0.930 . S
H256 C215 0.929 . S
H257 C216 0.930 . S
H258 C217 0.930 . S
H259 C218 0.930 . S
H260 C222 0.929 . S
H261 C224 0.930 . S
H262 C230 0.929 . S
H263 C231 0.930 . S
C264 C265 1.560 . S
C264 H325 0.959 . S
C264 H326 0.959 . S
C264 H327 0.960 . S
C265 C264 1.560 . S
C265 O320 1.426 . S
C265 H324 0.980 1_655 S
C266 C267 1.407 1_655 S
C266 C271 1.418 . S
C266 O320 1.334 . S
C267 C266 1.407 1_455 S
C267 C268 1.360 . S
C267 H328 0.929 . S
C268 C267 1.360 . S
C268 C269 1.401 . S
C268 C272 1.527 . S
C269 C268 1.401 . S
C269 C270 1.405 1_455 S
C269 C302 1.587 . S
C270 C269 1.405 1_655 S
C270 C271 1.332 . S
C270 C273 1.496 . S
C271 C266 1.418 . S
C271 C270 1.332 . S
C271 H329 0.929 . S
C272 C268 1.527 . S
C272 H330 0.959 . S
C272 H331 0.961 . S
C272 H332 0.961 . S
C273 C270 1.496 . S
C273 H333 0.960 . S
C273 H334 0.960 . S
C273 H335 0.961 . S
C274 C275 1.517 . S
C274 H337 0.961 . S
C274 H338 0.960 . S
C274 H339 0.959 . S
C275 C274 1.517 . S
C275 O323 1.468 . S
C275 H336 0.980 . S
C276 C277 1.349 . S
C276 C281 1.367 . S
C276 O323 1.408 . S
C277 C276 1.349 . S
C277 C278 1.407 . S
C277 H340 0.930 . S
C278 C277 1.407 . S
C278 C279 1.449 . S
C278 C282 1.535 1_455 S
C279 C278 1.449 . S
C279 C280 1.384 . S
C279 C304 1.553 . S
C280 C279 1.384 . S
C280 C281 1.364 . S
C280 C283 1.450 . S
C281 C276 1.367 . S
C281 C280 1.364 . S
C281 H341 0.931 . S
C282 C278 1.535 1_655 S
C282 H342 0.959 . S
C282 H343 0.961 . S
C282 H344 0.959 . S
C283 C280 1.450 . S
C283 H345 0.960 . S
C283 H346 0.960 . S
C283 H347 0.960 . S
C284 C285 1.309 . S
C284 C289 1.304 . S
C284 O322 1.435 . S
C285 C284 1.309 . S
C285 C286 1.476 . S
C285 H349 0.930 1_455 S
C286 C285 1.476 . S
C286 C287 1.400 . S
C286 C290 1.567 1_455 S
C287 C286 1.400 . S
C287 C288 1.373 . S
C287 C309 1.432 . S
C288 C287 1.373 . S
C288 C289 1.339 . S
C288 C291 1.530 . S
C289 C284 1.304 . S
C289 C288 1.339 . S
C289 H350 0.930 . S
C290 C286 1.567 1_655 S
C290 H351 0.961 . S
C290 H352 0.960 . S
C290 H353 0.958 . S
C291 C288 1.530 . S
C291 H354 0.961 . S
C291 H355 0.960 . S
C291 H356 0.960 . S
C292 C293 1.530 1_655 S
C292 H358 0.961 . S
C292 H359 0.961 . S
C292 H360 0.959 . S
C293 C292 1.530 1_455 S
C293 O321 1.412 1_455 S
C293 H357 0.980 . S
C294 C295 1.288 . S
C294 C299 1.377 1_655 S
C294 O321 1.393 . S
C295 C294 1.288 . S
C295 C296 1.369 . S
C295 H361 0.932 . S
C296 C295 1.369 . S
C296 C297 1.398 1_655 S
C296 C300 1.527 . S
C297 C296 1.398 1_455 S
C297 C298 1.380 . S
C297 C311 1.497 . S
C298 C297 1.380 . S
C298 C299 1.383 . S
C298 C301 1.603 . S
C299 C294 1.377 1_455 S
C299 C298 1.383 . S
C299 H362 0.929 . S
C300 C296 1.527 . S
C300 H363 0.961 . S
C300 H364 0.959 . S
C300 H365 0.959 . S
C301 C298 1.603 . S
C301 H366 0.960 . S
C301 H367 0.962 . S
C301 H368 0.961 . S
C302 C269 1.587 . S
C302 C303 1.360 . S
C302 C315 1.412 . S
C303 C302 1.360 . S
C303 C304 1.365 . S
C303 H369 0.929 . S
C304 C279 1.553 . S
C304 C303 1.365 . S
C304 C305 1.404 . S
C305 C304 1.404 . S
C305 C306 1.395 . S
C305 C316 1.451 . S
C306 C305 1.395 . S
C306 C307 1.322 . S
C306 H370 0.930 . S
C307 C306 1.322 . S
C307 C308 1.459 . S
C307 H371 0.929 . S
C308 C307 1.459 . S
C308 C309 1.445 . S
C308 C317 1.395 . S
C309 C287 1.432 . S
C309 C308 1.445 . S
C309 C310 1.370 . S
C310 C309 1.370 . S
C310 C311 1.438 . S
C310 H372 0.930 . S
C311 C297 1.497 . S
C311 C310 1.438 . S
C311 C312 1.360 . S
C312 C311 1.360 . S
C312 C313 1.401 . S
C312 C317 1.446 . S
C313 C312 1.401 . S
C313 C314 1.347 . S
C313 H373 0.929 . S
C314 C313 1.347 . S
C314 C315 1.455 . S
C314 H374 0.930 . S
C315 C302 1.412 . S
C315 C314 1.455 . S
C315 C316 1.331 . S
C316 C305 1.451 . S
C316 C315 1.331 . S
C316 C317 1.497 . S
C317 C308 1.395 . S
C317 C312 1.446 . S
C317 C316 1.497 . S
C318 C319 1.582 . S
C318 H375 0.962 . S
C318 H376 0.959 . S
C318 H377 0.958 . S
C319 C318 1.582 . S
C319 O322 1.458 . S
C319 H348 0.980 . S
O320 C265 1.426 . S
O320 C266 1.334 . S
O321 C293 1.412 1_655 S
O321 C294 1.393 . S
O322 C284 1.435 . S
O322 C319 1.458 . S
O323 C275 1.468 . S
O323 C276 1.408 . S
H324 C265 0.980 1_455 S
H325 C264 0.959 . S
H326 C264 0.959 . S
H327 C264 0.960 . S
H328 C267 0.929 . S
H329 C271 0.929 . S
H330 C272 0.959 . S
H331 C272 0.961 . S
H332 C272 0.961 . S
H333 C273 0.960 . S
H334 C273 0.960 . S
H335 C273 0.961 . S
H336 C275 0.980 . S
H337 C274 0.961 . S
H338 C274 0.960 . S
H339 C274 0.959 . S
H340 C277 0.930 . S
H341 C281 0.931 . S
H342 C282 0.959 . S
H343 C282 0.961 . S
H344 C282 0.959 . S
H345 C283 0.960 . S
H346 C283 0.960 . S
H347 C283 0.960 . S
H348 C319 0.980 . S
H349 C285 0.930 1_655 S
H350 C289 0.930 . S
H351 C290 0.961 . S
H352 C290 0.960 . S
H353 C290 0.958 . S
H354 C291 0.961 . S
H355 C291 0.960 . S
H356 C291 0.960 . S
H357 C293 0.980 . S
H358 C292 0.961 . S
H359 C292 0.961 . S
H360 C292 0.959 . S
H361 C295 0.932 . S
H362 C299 0.929 . S
H363 C300 0.961 . S
H364 C300 0.959 . S
H365 C300 0.959 . S
H366 C301 0.960 . S
H367 C301 0.962 . S
H368 C301 0.961 . S
H369 C303 0.929 . S
H370 C306 0.930 . S
H371 C307 0.929 . S
H372 C310 0.930 . S
H373 C313 0.929 . S
H374 C314 0.930 . S
H375 C318 0.962 . S
H376 C318 0.959 . S
H377 C318 0.958 . S
C378 C379 1.560 1_565 S
C378 H439 0.959 . S
C378 H440 0.959 . S
C378 H441 0.960 1_565 S
C379 C378 1.560 1_545 S
C379 O434 1.426 . S
C379 H438 0.980 . S
C380 C381 1.407 . S
C380 C385 1.418 1_545 S
C380 O434 1.334 . S
C381 C380 1.407 . S
C381 C382 1.360 . S
C381 H442 0.929 . S
C382 C381 1.360 . S
C382 C383 1.401 . S
C382 C386 1.527 . S
C383 C382 1.401 . S
C383 C384 1.405 . S
C383 C416 1.587 . S
C384 C383 1.405 . S
C384 C385 1.332 1_545 S
C384 C387 1.496 1_545 S
C385 C380 1.418 1_565 S
C385 C384 1.332 1_565 S
C385 H443 0.929 . S
C386 C382 1.527 . S
C386 H444 0.959 . S
C386 H445 0.961 . S
C386 H446 0.961 . S
C387 C384 1.496 1_565 S
C387 H447 0.960 . S
C387 H448 0.960 . S
C387 H449 0.961 . S
C388 C389 1.517 . S
C388 H451 0.961 . S
C388 H452 0.960 . S
C388 H453 0.959 . S
C389 C388 1.517 . S
C389 O437 1.468 . S
C389 H450 0.980 . S
C390 C391 1.349 . S
C390 C395 1.367 . S
C390 O437 1.408 . S
C391 C390 1.349 . S
C391 C392 1.407 . S
C391 H454 0.930 . S
C392 C391 1.407 . S
C392 C393 1.449 . S
C392 C396 1.535 . S
C393 C392 1.449 . S
C393 C394 1.384 . S
C393 C418 1.553 . S
C394 C393 1.384 . S
C394 C395 1.364 . S
C394 C397 1.450 . S
C395 C390 1.367 . S
C395 C394 1.364 . S
C395 H455 0.931 . S
C396 C392 1.535 . S
C396 H456 0.959 . S
C396 H457 0.961 1_545 S
C396 H458 0.959 1_545 S
C397 C394 1.450 . S
C397 H459 0.960 . S
C397 H460 0.960 . S
C397 H461 0.960 . S
C398 C399 1.309 . S
C398 C403 1.304 . S
C398 O436 1.435 . S
C399 C398 1.309 . S
C399 C400 1.476 . S
C399 H463 0.930 . S
C400 C399 1.476 . S
C400 C401 1.400 . S
C400 C404 1.567 1_545 S
C401 C400 1.400 . S
C401 C402 1.373 . S
C401 C423 1.432 . S
C402 C401 1.373 . S
C402 C403 1.339 . S
C402 C405 1.530 . S
C403 C398 1.304 . S
C403 C402 1.339 . S
C403 H464 0.930 . S
C404 C400 1.567 1_565 S
C404 H465 0.961 . S
C404 H466 0.960 . S
C404 H467 0.958 . S
C405 C402 1.530 . S
C405 H468 0.961 . S
C405 H469 0.960 . S
C405 H470 0.960 . S
C406 C407 1.530 . S
C406 H472 0.961 . S
C406 H473 0.961 1_545 S
C406 H474 0.959 1_545 S
C407 C406 1.530 . S
C407 O435 1.412 . S
C407 H471 0.980 . S
C408 C409 1.288 1_545 S
C408 C413 1.377 . S
C408 O435 1.393 . S
C409 C408 1.288 1_565 S
C409 C410 1.369 1_565 S
C409 H475 0.932 . S
C410 C409 1.369 1_545 S
C410 C411 1.398 . S
C410 C414 1.527 1_545 S
C411 C410 1.398 . S
C411 C412 1.380 . S
C411 C425 1.497 . S
C412 C411 1.380 . S
C412 C413 1.383 . S
C412 C415 1.603 . S
C413 C408 1.377 . S
C413 C412 1.383 . S
C413 H476 0.929 . S
C414 C410 1.527 1_565 S
C414 H477 0.961 . S
C414 H478 0.959 . S
C414 H479 0.959 . S
C415 C412 1.603 . S
C415 H480 0.960 . S
C415 H481 0.962 . S
C415 H482 0.961 . S
C416 C383 1.587 . S
C416 C417 1.360 . S
C416 C429 1.412 . S
C417 C416 1.360 . S
C417 C418 1.365 . S
C417 H483 0.929 . S
C418 C393 1.553 . S
C418 C417 1.365 . S
C418 C419 1.404 . S
C419 C418 1.404 . S
C419 C420 1.395 . S
C419 C430 1.451 . S
C420 C419 1.395 . S
C420 C421 1.322 . S
C420 H484 0.930 . S
C421 C420 1.322 . S
C421 C422 1.459 . S
C421 H485 0.929 . S
C422 C421 1.459 . S
C422 C423 1.445 . S
C422 C431 1.395 . S
C423 C401 1.432 . S
C423 C422 1.445 . S
C423 C424 1.370 . S
C424 C423 1.370 . S
C424 C425 1.438 . S
C424 H486 0.930 . S
C425 C411 1.497 . S
C425 C424 1.438 . S
C425 C426 1.360 . S
C426 C425 1.360 . S
C426 C427 1.401 . S
C426 C431 1.446 . S
C427 C426 1.401 . S
C427 C428 1.347 . S
C427 H487 0.929 . S
C428 C427 1.347 . S
C428 C429 1.455 . S
C428 H488 0.930 . S
C429 C416 1.412 . S
C429 C428 1.455 . S
C429 C430 1.331 . S
C430 C419 1.451 . S
C430 C429 1.331 . S
C430 C431 1.497 . S
C431 C422 1.395 . S
C431 C426 1.446 . S
C431 C430 1.497 . S
C432 C433 1.582 . S
C432 H489 0.962 . S
C432 H490 0.959 . S
C432 H491 0.958 . S
C433 C432 1.582 . S
C433 O436 1.458 . S
C433 H462 0.980 . S
O434 C379 1.426 . S
O434 C380 1.334 . S
O435 C407 1.412 . S
O435 C408 1.393 . S
O436 C398 1.435 . S
O436 C433 1.458 . S
O437 C389 1.468 . S
O437 C390 1.408 . S
H438 C379 0.980 . S
H439 C378 0.959 . S
H440 C378 0.959 . S
H441 C378 0.960 1_545 S
H442 C381 0.929 . S
H443 C385 0.929 . S
H444 C386 0.959 . S
H445 C386 0.961 . S
H446 C386 0.961 . S
H447 C387 0.960 . S
H448 C387 0.960 . S
H449 C387 0.961 . S
H450 C389 0.980 . S
H451 C388 0.961 . S
H452 C388 0.960 . S
H453 C388 0.959 . S
H454 C391 0.930 . S
H455 C395 0.931 . S
H456 C396 0.959 . S
H457 C396 0.961 1_565 S
H458 C396 0.959 1_565 S
H459 C397 0.960 . S
H460 C397 0.960 . S
H461 C397 0.960 . S
H462 C433 0.980 . S
H463 C399 0.930 . S
H464 C403 0.930 . S
H465 C404 0.961 . S
H466 C404 0.960 . S
H467 C404 0.958 . S
H468 C405 0.961 . S
H469 C405 0.960 . S
H470 C405 0.960 . S
H471 C407 0.980 . S
H472 C406 0.961 . S
H473 C406 0.961 1_565 S
H474 C406 0.959 1_565 S
H475 C409 0.932 . S
H476 C413 0.929 . S
H477 C414 0.961 . S
H478 C414 0.959 . S
H479 C414 0.959 . S
H480 C415 0.960 . S
H481 C415 0.962 . S
H482 C415 0.961 . S
H483 C417 0.929 . S
H484 C420 0.930 . S
H485 C421 0.929 . S
H486 C424 0.930 . S
H487 C427 0.929 . S
H488 C428 0.930 . S
H489 C432 0.962 . S
H490 C432 0.959 . S
H491 C432 0.958 . S
C492 C493 1.560 . S
C492 H553 0.959 . S
C492 H554 0.959 . S
C492 H555 0.960 . S
C493 C492 1.560 . S
C493 O548 1.426 . S
C493 H552 0.980 . S
C494 C495 1.407 . S
C494 C499 1.418 . S
C494 O548 1.334 . S
C495 C494 1.407 . S
C495 C496 1.360 . S
C495 H556 0.929 . S
C496 C495 1.360 . S
C496 C497 1.401 . S
C496 C500 1.527 . S
C497 C496 1.401 . S
C497 C498 1.405 . S
C497 C530 1.587 . S
C498 C497 1.405 . S
C498 C499 1.332 . S
C498 C501 1.496 . S
C499 C494 1.418 . S
C499 C498 1.332 . S
C499 H557 0.929 . S
C500 C496 1.527 . S
C500 H558 0.959 . S
C500 H559 0.961 . S
C500 H560 0.961 . S
C501 C498 1.496 . S
C501 H561 0.960 . S
C501 H562 0.960 . S
C501 H563 0.961 . S
C502 C503 1.517 . S
C502 H565 0.961 . S
C502 H566 0.960 . S
C502 H567 0.959 . S
C503 C502 1.517 . S
C503 O551 1.468 . S
C503 H564 0.980 . S
C504 C505 1.349 . S
C504 C509 1.367 . S
C504 O551 1.408 . S
C505 C504 1.349 . S
C505 C506 1.407 . S
C505 H568 0.930 . S
C506 C505 1.407 . S
C506 C507 1.449 . S
C506 C510 1.535 . S
C507 C506 1.449 . S
C507 C508 1.384 . S
C507 C532 1.553 . S
C508 C507 1.384 . S
C508 C509 1.364 . S
C508 C511 1.450 . S
C509 C504 1.367 . S
C509 C508 1.364 . S
C509 H569 0.931 . S
C510 C506 1.535 . S
C510 H570 0.959 . S
C510 H571 0.961 . S
C510 H572 0.959 . S
C511 C508 1.450 . S
C511 H573 0.960 . S
C511 H574 0.960 . S
C511 H575 0.960 . S
C512 C513 1.309 . S
C512 C517 1.304 . S
C512 O550 1.435 . S
C513 C512 1.309 . S
C513 C514 1.476 . S
C513 H577 0.930 . S
C514 C513 1.476 . S
C514 C515 1.400 . S
C514 C518 1.567 . S
C515 C514 1.400 . S
C515 C516 1.373 . S
C515 C537 1.432 . S
C516 C515 1.373 . S
C516 C517 1.339 . S
C516 C519 1.530 . S
C517 C512 1.304 . S
C517 C516 1.339 . S
C517 H578 0.930 . S
C518 C514 1.567 . S
C518 H579 0.961 . S
C518 H580 0.960 . S
C518 H581 0.958 . S
C519 C516 1.530 . S
C519 H582 0.961 . S
C519 H583 0.960 . S
C519 H584 0.960 . S
C520 C521 1.530 . S
C520 H586 0.961 . S
C520 H587 0.961 . S
C520 H588 0.959 . S
C521 C520 1.530 . S
C521 O549 1.412 . S
C521 H585 0.980 . S
C522 C523 1.288 . S
C522 C527 1.377 . S
C522 O549 1.393 . S
C523 C522 1.288 . S
C523 C524 1.369 . S
C523 H589 0.932 . S
C524 C523 1.369 . S
C524 C525 1.398 . S
C524 C528 1.527 . S
C525 C524 1.398 . S
C525 C526 1.380 . S
C525 C539 1.497 . S
C526 C525 1.380 . S
C526 C527 1.383 . S
C526 C529 1.603 . S
C527 C522 1.377 . S
C527 C526 1.383 . S
C527 H590 0.929 . S
C528 C524 1.527 . S
C528 H591 0.961 . S
C528 H592 0.959 . S
C528 H593 0.959 . S
C529 C526 1.603 . S
C529 H594 0.960 . S
C529 H595 0.962 . S
C529 H596 0.961 . S
C530 C497 1.587 . S
C530 C531 1.360 . S
C530 C543 1.412 . S
C531 C530 1.360 . S
C531 C532 1.365 . S
C531 H597 0.929 . S
C532 C507 1.553 . S
C532 C531 1.365 . S
C532 C533 1.404 . S
C533 C532 1.404 . S
C533 C534 1.395 . S
C533 C544 1.451 . S
C534 C533 1.395 . S
C534 C535 1.322 . S
C534 H598 0.930 . S
C535 C534 1.322 . S
C535 C536 1.459 . S
C535 H599 0.929 . S
C536 C535 1.459 . S
C536 C537 1.445 . S
C536 C545 1.395 . S
C537 C515 1.432 . S
C537 C536 1.445 . S
C537 C538 1.370 . S
C538 C537 1.370 . S
C538 C539 1.438 . S
C538 H600 0.930 . S
C539 C525 1.497 . S
C539 C538 1.438 . S
C539 C540 1.360 . S
C540 C539 1.360 . S
C540 C541 1.401 . S
C540 C545 1.446 . S
C541 C540 1.401 . S
C541 C542 1.347 . S
C541 H601 0.929 . S
C542 C541 1.347 . S
C542 C543 1.455 . S
C542 H602 0.930 . S
C543 C530 1.412 . S
C543 C542 1.455 . S
C543 C544 1.331 . S
C544 C533 1.451 . S
C544 C543 1.331 . S
C544 C545 1.497 . S
C545 C536 1.395 . S
C545 C540 1.446 . S
C545 C544 1.497 . S
C546 C547 1.582 . S
C546 H603 0.962 . S
C546 H604 0.959 . S
C546 H605 0.958 . S
C547 C546 1.582 . S
C547 O550 1.458 . S
C547 H576 0.980 . S
O548 C493 1.426 . S
O548 C494 1.334 . S
O549 C521 1.412 . S
O549 C522 1.393 . S
O550 C512 1.435 . S
O550 C547 1.458 . S
O551 C503 1.468 . S
O551 C504 1.408 . S
H552 C493 0.980 . S
H553 C492 0.959 . S
H554 C492 0.959 . S
H555 C492 0.960 . S
H556 C495 0.929 . S
H557 C499 0.929 . S
H558 C500 0.959 . S
H559 C500 0.961 . S
H560 C500 0.961 . S
H561 C501 0.960 . S
H562 C501 0.960 . S
H563 C501 0.961 . S
H564 C503 0.980 . S
H565 C502 0.961 . S
H566 C502 0.960 . S
H567 C502 0.959 . S
H568 C505 0.930 . S
H569 C509 0.931 . S
H570 C510 0.959 . S
H571 C510 0.961 . S
H572 C510 0.959 . S
H573 C511 0.960 . S
H574 C511 0.960 . S
H575 C511 0.960 . S
H576 C547 0.980 . S
H577 C513 0.930 . S
H578 C517 0.930 . S
H579 C518 0.961 . S
H580 C518 0.960 . S
H581 C518 0.958 . S
H582 C519 0.961 . S
H583 C519 0.960 . S
H584 C519 0.960 . S
H585 C521 0.980 . S
H586 C520 0.961 . S
H587 C520 0.961 . S
H588 C520 0.959 . S
H589 C523 0.932 . S
H590 C527 0.929 . S
H591 C528 0.961 . S
H592 C528 0.959 . S
H593 C528 0.959 . S
H594 C529 0.960 . S
H595 C529 0.962 . S
H596 C529 0.961 . S
H597 C531 0.929 . S
H598 C534 0.930 . S
H599 C535 0.929 . S
H600 C538 0.930 . S
H601 C541 0.929 . S
H602 C542 0.930 . S
H603 C546 0.962 . S
H604 C546 0.959 . S
H605 C546 0.958 . S
H606 C614 0.950 1_455 S
H607 C619 0.950 . S
H608 C616 0.950 1_455 S
H609 C618 0.950 . S
H610 C620 0.950 . S
H611 C622 0.950 . S
H612 C624 0.950 . S
H613 C625 0.950 . S
C614 H606 0.950 1_655 S
C614 C615 1.386 . S
C614 C616 1.391 . S
C615 C614 1.386 . S
C615 C619 1.393 . S
C616 H608 0.950 1_655 S
C616 C614 1.391 . S
C616 C617 1.400 . S
C617 C616 1.400 . S
C617 C618 1.398 . S
C617 C623 1.491 . S
C618 H609 0.950 . S
C618 C617 1.398 . S
C618 C619 1.391 . S
C619 H607 0.950 . S
C619 C615 1.393 . S
C619 C618 1.391 . S
C620 H610 0.950 . S
C620 C621 1.386 1_655 S
C620 C622 1.391 . S
C621 C620 1.386 1_455 S
C621 C625 1.393 . S
C622 H611 0.950 . S
C622 C620 1.391 . S
C622 C623 1.400 . S
C623 C617 1.491 . S
C623 C622 1.400 . S
C623 C624 1.398 1_655 S
C624 H612 0.950 . S
C624 C623 1.398 1_455 S
C624 C625 1.391 . S
C625 H613 0.950 . S
C625 C621 1.393 . S
C625 C624 1.391 . S
H626 C634 0.950 . S
H627 C639 0.950 . S
H628 C636 0.950 . S
H629 C638 0.950 . S
H630 C640 0.950 1_565 S
H631 C642 0.950 . S
H632 C644 0.950 . S
H633 C645 0.950 . S
C634 H626 0.950 . S
C634 C635 1.386 . S
C634 C636 1.391 . S
C635 C634 1.386 . S
C635 C639 1.393 1_545 S
C636 H628 0.950 . S
C636 C634 1.391 . S
C636 C637 1.400 . S
C637 C636 1.400 . S
C637 C638 1.398 1_545 S
C637 C643 1.491 . S
C638 H629 0.950 . S
C638 C637 1.398 1_565 S
C638 C639 1.391 . S
C639 H627 0.950 . S
C639 C635 1.393 1_565 S
C639 C638 1.391 . S
C640 H630 0.950 1_545 S
C640 C641 1.386 . S
C640 C642 1.391 1_545 S
C641 C640 1.386 . S
C641 C645 1.393 . S
C642 H631 0.950 . S
C642 C640 1.391 1_565 S
C642 C643 1.400 1_565 S
C643 C637 1.491 . S
C643 C642 1.400 1_545 S
C643 C644 1.398 . S
C644 H632 0.950 . S
C644 C643 1.398 . S
C644 C645 1.391 . S
C645 H633 0.950 . S
C645 C641 1.393 . S
C645 C644 1.391 . S
H646 C654 0.950 . S
H647 C659 0.950 . S
H648 C656 0.950 . S
H649 C658 0.950 . S
H650 C660 0.950 . S
H651 C662 0.950 . S
H652 C664 0.950 . S
H653 C665 0.950 . S
C654 H646 0.950 . S
C654 C655 1.386 . S
C654 C656 1.391 . S
C655 C654 1.386 . S
C655 C659 1.393 . S
C656 H648 0.950 . S
C656 C654 1.391 . S
C656 C657 1.400 . S
C657 C656 1.400 . S
C657 C658 1.398 . S
C657 C663 1.491 . S
C658 H649 0.950 . S
C658 C657 1.398 . S
C658 C659 1.391 . S
C659 H647 0.950 . S
C659 C655 1.393 . S
C659 C658 1.391 . S
C660 H650 0.950 . S
C660 C661 1.386 . S
C660 C662 1.391 . S
C661 C660 1.386 . S
C661 C665 1.393 . S
C662 H651 0.950 . S
C662 C660 1.391 . S
C662 C663 1.400 . S
C663 C657 1.491 . S
C663 C662 1.400 . S
C663 C664 1.398 . S
C664 H652 0.950 . S
C664 C663 1.398 . S
C664 C665 1.391 . S
C665 H653 0.950 . S
C665 C661 1.393 . S
C665 C664 1.391 . S
H666 C674 0.950 1_655 S
H667 C679 0.950 . S
H668 C676 0.950 1_655 S
H669 C678 0.950 . S
H670 C680 0.950 . S
H671 C682 0.950 . S
H672 C684 0.950 . S
H673 C685 0.950 . S
C674 H666 0.950 1_455 S
C674 C675 1.386 . S
C674 C676 1.391 . S
C675 C674 1.386 . S
C675 C679 1.393 . S
C676 H668 0.950 1_455 S
C676 C674 1.391 . S
C676 C677 1.400 . S
C677 C676 1.400 . S
C677 C678 1.398 . S
C677 C683 1.491 . S
C678 H669 0.950 . S
C678 C677 1.398 . S
C678 C679 1.391 . S
C679 H667 0.950 . S
C679 C675 1.393 . S
C679 C678 1.391 . S
C680 H670 0.950 . S
C680 C681 1.386 . S
C680 C682 1.391 . S
C681 C680 1.386 . S
C681 C685 1.393 1_455 S
C682 H671 0.950 . S
C682 C680 1.391 . S
C682 C683 1.400 . S
C683 C677 1.491 . S
C683 C682 1.400 . S
C683 C684 1.398 1_455 S
C684 H672 0.950 . S
C684 C683 1.398 1_655 S
C684 C685 1.391 . S
C685 H673 0.950 . S
C685 C681 1.393 1_655 S
C685 C684 1.391 . S
H686 C694 0.950 . S
H687 C699 0.950 . S
H688 C696 0.950 . S
H689 C698 0.950 . S
H690 C700 0.950 . S
H691 C702 0.950 . S
H692 C704 0.950 . S
H693 C705 0.950 . S
C694 H686 0.950 . S
C694 C695 1.386 . S
C694 C696 1.391 . S
C695 C694 1.386 . S
C695 C699 1.393 . S
C696 H688 0.950 . S
C696 C694 1.391 . S
C696 C697 1.400 . S
C697 C696 1.400 . S
C697 C698 1.398 . S
C697 C703 1.491 . S
C698 H689 0.950 . S
C698 C697 1.398 . S
C698 C699 1.391 . S
C699 H687 0.950 . S
C699 C695 1.393 . S
C699 C698 1.391 . S
C700 H690 0.950 . S
C700 C701 1.386 . S
C700 C702 1.391 . S
C701 C700 1.386 . S
C701 C705 1.393 . S
C702 H691 0.950 . S
C702 C700 1.391 . S
C702 C703 1.400 . S
C703 C697 1.491 . S
C703 C702 1.400 . S
C703 C704 1.398 . S
C704 H692 0.950 . S
C704 C703 1.398 . S
C704 C705 1.391 . S
C705 H693 0.950 . S
C705 C701 1.393 . S
C705 C704 1.391 . S
H706 C714 0.950 . S
H707 C719 0.950 . S
H708 C716 0.950 . S
H709 C718 0.950 . S
H710 C720 0.950 . S
H711 C722 0.950 . S
H712 C724 0.950 . S
H713 C725 0.950 . S
C714 H706 0.950 . S
C714 C715 1.386 . S
C714 C716 1.391 . S
C715 C714 1.386 . S
C715 C719 1.393 . S
C716 H708 0.950 . S
C716 C714 1.391 . S
C716 C717 1.400 . S
C717 C716 1.400 . S
C717 C718 1.398 . S
C717 C723 1.491 . S
C718 H709 0.950 . S
C718 C717 1.398 . S
C718 C719 1.391 . S
C719 H707 0.950 . S
C719 C715 1.393 . S
C719 C718 1.391 . S
C720 H710 0.950 . S
C720 C721 1.386 . S
C720 C722 1.391 . S
C721 C720 1.386 . S
C721 C725 1.393 . S
C722 H711 0.950 . S
C722 C720 1.391 . S
C722 C723 1.400 . S
C723 C717 1.491 . S
C723 C722 1.400 . S
C723 C724 1.398 . S
C724 H712 0.950 . S
C724 C723 1.398 . S
C724 C725 1.391 . S
C725 H713 0.950 . S
C725 C721 1.393 . S
C725 C724 1.391 . S
H726 C734 0.950 . S
H727 C739 0.950 . S
H728 C736 0.950 . S
H729 C738 0.950 . S
H730 C740 0.950 . S
H731 C742 0.950 . S
H732 C744 0.950 . S
H733 C745 0.950 . S
C734 H726 0.950 . S
C734 C735 1.386 . S
C734 C736 1.391 . S
C735 C734 1.386 . S
C735 C739 1.393 . S
C736 H728 0.950 . S
C736 C734 1.391 . S
C736 C737 1.400 . S
C737 C736 1.400 . S
C737 C738 1.398 . S
C737 C743 1.491 . S
C738 H729 0.950 . S
C738 C737 1.398 . S
C738 C739 1.391 . S
C739 H727 0.950 . S
C739 C735 1.393 . S
C739 C738 1.391 . S
C740 H730 0.950 . S
C740 C741 1.386 . S
C740 C742 1.391 . S
C741 C740 1.386 . S
C741 C745 1.393 . S
C742 H731 0.950 . S
C742 C740 1.391 . S
C742 C743 1.400 . S
C743 C737 1.491 . S
C743 C742 1.400 . S
C743 C744 1.398 . S
C744 H732 0.950 . S
C744 C743 1.398 . S
C744 C745 1.391 . S
C745 H733 0.950 . S
C745 C741 1.393 . S
C745 C744 1.391 . S
H746 C754 0.950 . S
H747 C759 0.950 . S
H748 C756 0.950 . S
H749 C758 0.959 . S
H750 C760 0.950 . S
H751 C762 0.950 . S
H752 C764 0.950 . S
H753 C765 0.950 . S
C754 H746 0.950 . S
C754 C755 1.386 . S
C754 C756 1.391 1_554 S
C755 C754 1.386 . S
C755 C759 1.393 . S
C756 H748 0.950 . S
C756 C754 1.391 1_556 S
C756 C757 1.400 . S
C757 C756 1.400 . S
C757 C758 1.398 1_556 S
C757 C763 1.491 . S
C758 H749 0.959 . S
C758 C757 1.398 1_554 S
C758 C759 1.391 . S
C759 H747 0.950 . S
C759 C755 1.393 . S
C759 C758 1.391 . S
C760 H750 0.950 . S
C760 C761 1.386 . S
C760 C762 1.391 . S
C761 C760 1.386 . S
C761 C765 1.393 . S
C762 H751 0.950 . S
C762 C760 1.391 . S
C762 C763 1.400 . S
C763 C757 1.491 . S
C763 C762 1.400 . S
C763 C764 1.398 . S
C764 H752 0.950 . S
C764 C763 1.398 . S
C764 C765 1.391 . S
C765 H753 0.950 . S
C765 C761 1.393 . S
C765 C764 1.391 . S
H766 C774 0.950 . S
H767 C779 0.950 . S
H768 C776 0.950 . S
H769 C778 0.950 . S
H770 C780 0.950 . S
H771 C782 0.950 . S
H772 C784 0.950 . S
H773 C785 0.950 . S
C774 H766 0.950 . S
C774 C775 1.386 . S
C774 C776 1.391 . S
C775 C774 1.386 . S
C775 C779 1.393 . S
C776 H768 0.950 . S
C776 C774 1.391 . S
C776 C777 1.400 . S
C777 C776 1.400 . S
C777 C778 1.398 . S
C777 C783 1.491 . S
C778 H769 0.950 . S
C778 C777 1.398 . S
C778 C779 1.391 . S
C779 H767 0.950 . S
C779 C775 1.393 . S
C779 C778 1.391 . S
C780 H770 0.950 . S
C780 C781 1.386 . S
C780 C782 1.391 1_455 S
C781 C780 1.386 . S
C781 C785 1.393 . S
C782 H771 0.950 . S
C782 C780 1.391 1_655 S
C782 C783 1.400 . S
C783 C777 1.491 . S
C783 C782 1.400 . S
C783 C784 1.398 1_655 S
C784 H772 0.950 . S
C784 C783 1.398 1_455 S
C784 C785 1.391 . S
C785 H773 0.950 . S
C785 C781 1.393 . S
C785 C784 1.391 . S
H786 C794 0.950 . S
H787 C799 0.950 . S
H788 C796 0.950 . S
H789 C798 0.950 . S
H790 C800 0.950 . S
H791 C802 0.950 . S
H792 C804 0.950 . S
H793 C805 0.950 . S
C794 H786 0.950 . S
C794 C795 1.386 . S
C794 C796 1.391 . S
C795 C794 1.386 . S
C795 C799 1.393 1_545 S
C796 H788 0.950 . S
C796 C794 1.391 . S
C796 C797 1.400 . S
C797 C796 1.400 . S
C797 C798 1.398 1_545 S
C797 C803 1.491 . S
C798 H789 0.950 . S
C798 C797 1.398 1_565 S
C798 C799 1.391 . S
C799 H787 0.950 . S
C799 C795 1.393 1_565 S
C799 C798 1.391 . S
C800 H790 0.950 . S
C800 C801 1.386 1_565 S
C800 C802 1.391 . S
C801 C800 1.386 1_545 S
C801 C805 1.393 . S
C802 H791 0.950 . S
C802 C800 1.391 . S
C802 C803 1.400 1_565 S
C803 C797 1.491 . S
C803 C802 1.400 1_545 S
C803 C804 1.398 . S
C804 H792 0.950 . S
C804 C803 1.398 . S
C804 C805 1.391 . S
C805 H793 0.950 . S
C805 C801 1.393 . S
C805 C804 1.391 . S
H806 C814 0.950 . S
H807 C819 0.950 . S
H808 C816 0.950 . S
H809 C818 0.950 . S
H810 C820 0.950 . S
H811 C822 0.950 . S
H812 C824 0.950 . S
H813 C825 0.950 . S
C814 H806 0.950 . S
C814 C815 1.386 1_556 S
C814 C816 1.391 . S
C815 C814 1.386 1_554 S
C815 C819 1.393 . S
C816 H808 0.950 . S
C816 C814 1.391 . S
C816 C817 1.400 . S
C817 C816 1.400 . S
C817 C818 1.398 1_556 S
C817 C823 1.491 . S
C818 H809 0.950 . S
C818 C817 1.398 1_554 S
C818 C819 1.391 . S
C819 H807 0.950 . S
C819 C815 1.393 . S
C819 C818 1.391 . S
C820 H810 0.950 . S
C820 C821 1.386 . S
C820 C822 1.391 . S
C821 C820 1.386 . S
C821 C825 1.393 . S
C822 H811 0.950 . S
C822 C820 1.391 . S
C822 C823 1.400 . S
C823 C817 1.491 . S
C823 C822 1.400 . S
C823 C824 1.398 . S
C824 H812 0.950 . S
C824 C823 1.398 . S
C824 C825 1.391 . S
C825 H813 0.950 . S
C825 C821 1.393 . S
C825 C824 1.391 . S
H826 C834 0.950 . S
H827 C839 0.950 . S
H828 C836 0.950 . S
H829 C838 0.950 . S
H830 C840 0.950 . S
H831 C842 0.950 . S
H832 C844 0.950 . S
H833 C845 0.950 . S
C834 H826 0.950 . S
C834 C835 1.386 . S
C834 C836 1.391 . S
C835 C834 1.386 . S
C835 C839 1.393 . S
C836 H828 0.950 . S
C836 C834 1.391 . S
C836 C837 1.400 . S
C837 C836 1.400 . S
C837 C838 1.398 . S
C837 C843 1.491 . S
C838 H829 0.950 . S
C838 C837 1.398 . S
C838 C839 1.391 . S
C839 H827 0.950 . S
C839 C835 1.393 . S
C839 C838 1.391 . S
C840 H830 0.950 . S
C840 C841 1.386 . S
C840 C842 1.391 . S
C841 C840 1.386 . S
C841 C845 1.393 . S
C842 H831 0.950 . S
C842 C840 1.391 . S
C842 C843 1.400 . S
C843 C837 1.491 . S
C843 C842 1.400 . S
C843 C844 1.398 . S
C844 H832 0.950 . S
C844 C843 1.398 . S
C844 C845 1.391 . S
C845 H833 0.950 . S
C845 C841 1.393 . S
C845 C844 1.391 . S
C621 C319 1.150 . S
C615 C29 1.502 . S
C635 C137 1.493 . S
C641 C433 1.180 . S
C655 C225 1.227 . S
C661 C493 0.919 . S
C675 C49 1.325 . S
C681 C293 1.095 . S
C701 C407 1.129 . S
C695 C117 1.325 . S
C715 C205 1.416 . S
C721 C503 0.842 . S
C741 C389 0.804 . S
C735 C233 1.414 . S
C755 C57 1.314 . S
C761 C521 1.149 . S
C781 C265 0.972 1_455 S
C775 C108 1.236 . S
C801 C379 0.982 . S
C795 C196 1.235 . S
C821 C547 1.195 . S
C815 C20 1.490 . S
C835 C145 1.422 . S
C841 C275 0.816 . S
