# Generated by pormake.
# Topology wbl, (4,4)-cn, num edge types: 1
# Building blocks:
#     Node 0, Type 0, BuildingBlock: MUDLON_clean_linker_0, # of connection points: 4
#     Node 1, Type 0, BuildingBlock: MUDLON_clean_linker_0, # of connection points: 4
#     Node 2, Type 0, BuildingBlock: MUDLON_clean_linker_0, # of connection points: 4
#     Node 3, Type 0, BuildingBlock: MUDLON_clean_linker_0, # of connection points: 4
#     Node 4, Type 0, BuildingBlock: MUDLON_clean_linker_0, # of connection points: 4
#     Node 5, Type 0, BuildingBlock: MUDLON_clean_linker_0, # of connection points: 4
#     Node 6, Type 0, BuildingBlock: MUDLON_clean_linker_0, # of connection points: 4
#     Node 7, Type 0, BuildingBlock: MUDLON_clean_linker_0, # of connection points: 4
#     Node 8, Type 1, BuildingBlock: CEKHIL_clean_sbu_0, # of connection points: 4
#     Node 9, Type 1, BuildingBlock: CEKHIL_clean_sbu_0, # of connection points: 4
#     Node 10, Type 1, BuildingBlock: CEKHIL_clean_sbu_0, # of connection points: 4
#     Node 11, Type 1, BuildingBlock: CEKHIL_clean_sbu_0, # of connection points: 4
#     Node 12, Type 1, BuildingBlock: CEKHIL_clean_sbu_0, # of connection points: 4
#     Node 13, Type 1, BuildingBlock: CEKHIL_clean_sbu_0, # of connection points: 4
#     Node 14, Type 1, BuildingBlock: CEKHIL_clean_sbu_0, # of connection points: 4
#     Node 15, Type 1, BuildingBlock: CEKHIL_clean_sbu_0, # of connection points: 4
#     Edge 16, Type (0, 1), BuildingBlock: OJICUG_clean_linker_0, # of connection points: 2
#     Edge 17, Type (0, 1), BuildingBlock: OJICUG_clean_linker_0, # of connection points: 2
#     Edge 18, Type (0, 1), BuildingBlock: OJICUG_clean_linker_0, # of connection points: 2
#     Edge 19, Type (0, 1), BuildingBlock: OJICUG_clean_linker_0, # of connection points: 2
#     Edge 20, Type (0, 1), BuildingBlock: OJICUG_clean_linker_0, # of connection points: 2
#     Edge 21, Type (0, 1), BuildingBlock: OJICUG_clean_linker_0, # of connection points: 2
#     Edge 22, Type (0, 1), BuildingBlock: OJICUG_clean_linker_0, # of connection points: 2
#     Edge 23, Type (0, 1), BuildingBlock: OJICUG_clean_linker_0, # of connection points: 2
#     Edge 24, Type (0, 1), BuildingBlock: OJICUG_clean_linker_0, # of connection points: 2
#     Edge 25, Type (0, 1), BuildingBlock: OJICUG_clean_linker_0, # of connection points: 2
#     Edge 26, Type (0, 1), BuildingBlock: OJICUG_clean_linker_0, # of connection points: 2
#     Edge 27, Type (0, 1), BuildingBlock: OJICUG_clean_linker_0, # of connection points: 2
#     Edge 28, Type (0, 1), BuildingBlock: OJICUG_clean_linker_0, # of connection points: 2
#     Edge 29, Type (0, 1), BuildingBlock: OJICUG_clean_linker_0, # of connection points: 2
#     Edge 30, Type (0, 1), BuildingBlock: OJICUG_clean_linker_0, # of connection points: 2
#     Edge 31, Type (0, 1), BuildingBlock: OJICUG_clean_linker_0, # of connection points: 2
#     Edge 32, Type (0, 1), BuildingBlock: OJICUG_clean_linker_0, # of connection points: 2
#     Edge 33, Type (0, 1), BuildingBlock: OJICUG_clean_linker_0, # of connection points: 2
#     Edge 34, Type (0, 1), BuildingBlock: OJICUG_clean_linker_0, # of connection points: 2
#     Edge 35, Type (0, 1), BuildingBlock: OJICUG_clean_linker_0, # of connection points: 2
#     Edge 36, Type (0, 1), BuildingBlock: OJICUG_clean_linker_0, # of connection points: 2
#     Edge 37, Type (0, 1), BuildingBlock: OJICUG_clean_linker_0, # of connection points: 2
#     Edge 38, Type (0, 1), BuildingBlock: OJICUG_clean_linker_0, # of connection points: 2
#     Edge 39, Type (0, 1), BuildingBlock: OJICUG_clean_linker_0, # of connection points: 2
#     Edge 40, Type (0, 1), BuildingBlock: OJICUG_clean_linker_0, # of connection points: 2
#     Edge 41, Type (0, 1), BuildingBlock: OJICUG_clean_linker_0, # of connection points: 2
#     Edge 42, Type (0, 1), BuildingBlock: OJICUG_clean_linker_0, # of connection points: 2
#     Edge 43, Type (0, 1), BuildingBlock: OJICUG_clean_linker_0, # of connection points: 2
#     Edge 44, Type (0, 1), BuildingBlock: OJICUG_clean_linker_0, # of connection points: 2
#     Edge 45, Type (0, 1), BuildingBlock: OJICUG_clean_linker_0, # of connection points: 2
#     Edge 46, Type (0, 1), BuildingBlock: OJICUG_clean_linker_0, # of connection points: 2
#     Edge 47, Type (0, 1), BuildingBlock: OJICUG_clean_linker_0, # of connection points: 2
# Relax obj value: 0.121
# Max RMSD: 0.154
# Mean RMSD: 0.139
data_MOF--net-wbl--node1-CEKHIL_clean_sbu_0--node2-MUDLON_clean_linker_0--edge1-OJICUG_clean_linker_0
_symmetry_space_group_name_H-M    P1
_symmetry_Int_Tables_number       1
_symmetry_cell_setting            triclinic
loop_
_symmetry_equiv_pos_as_xyz
'x, y, z'
_cell_length_a     42.925523
_cell_length_b     43.126245
_cell_length_c     61.296623
_cell_angle_alpha  90.35942
_cell_angle_beta   90.108138
_cell_angle_gamma 90.005136
loop_
_atom_site_label
_atom_site_type_symbol
_atom_site_fract_x
_atom_site_fract_y
_atom_site_fract_z
_atom_type_partial_charge
H0 H 0.10399 0.96512 0.3403 0.0
N1 N 0.09337 0.92697 0.30518 0.0
H2 H 0.1132 0.94879 0.37785 0.0
H3 H 0.08827 0.8701 0.32106 0.0
H4 H 0.09678 0.85352 0.35874 0.0
H5 H 0.10752 0.88919 0.27233 0.0
H6 H 0.15965 0.87733 0.25826 0.0
H7 H 0.14673 0.95984 0.31417 0.0
H8 H 0.19852 0.94822 0.3003 0.0
H9 H 0.10682 0.98901 0.29851 0.0
H10 H 0.03215 0.92232 0.30178 0.0
H11 H 0.06917 0.03062 0.29454 0.0
H12 H 0.9941 0.96407 0.2988 0.0
H13 H 0.93129 0.15379 0.32217 0.0
H14 H 0.91633 0.16731 0.35956 0.0
H15 H 0.91083 0.06983 0.3752 0.0
H16 H 0.92697 0.05671 0.3382 0.0
H17 H 0.88925 0.05425 0.30979 0.0
H18 H 0.83596 0.0592 0.29712 0.0
H19 H 0.86164 0.14048 0.2603 0.0
H20 H 0.91497 0.13619 0.27422 0.0
H21 H 0.99421 0.09833 0.319 0.0
H22 H 0.03348 0.05788 0.31633 0.0
H23 H 0.97055 0.00252 0.27713 0.0
N24 N 0.93562 0.09734 0.30456 0.0
H25 H 0.93103 0.04221 0.28048 0.0
C26 C 0.09541 0.91869 0.32788 0.0
C27 C 0.10203 0.94078 0.34423 0.0
C28 C 0.10721 0.93141 0.36572 0.0
C29 C 0.10595 0.89983 0.37124 0.0
C30 C 0.09843 0.87796 0.35495 0.0
C31 C 0.09326 0.88736 0.3335 0.0
C32 C 0.12298 0.92554 0.29408 0.0
C33 C 0.12721 0.90275 0.27799 0.0
C34 C 0.15701 0.89577 0.2702 0.0
C35 C 0.18322 0.91165 0.27834 0.0
C36 C 0.17879 0.93575 0.29356 0.0
C37 C 0.14902 0.94252 0.30146 0.0
C38 C 0.07235 0.95221 0.30038 0.0
C39 C 0.08239 0.9831 0.2982 0.0
C40 C 0.06066 0.00711 0.29612 0.0
C41 C 0.02844 0.00089 0.29651 0.0
C42 C 0.01862 0.96987 0.29807 0.0
C43 C 0.04033 0.94591 0.29989 0.0
C44 C 0.93027 0.10439 0.32735 0.0
C45 C 0.92737 0.13545 0.33383 0.0
C46 C 0.91844 0.14306 0.35511 0.0
C47 C 0.91204 0.11964 0.37035 0.0
C48 C 0.91583 0.08848 0.36399 0.0
C49 C 0.92492 0.08091 0.34276 0.0
C50 C 0.90623 0.09508 0.29307 0.0
C51 C 0.88363 0.07289 0.29874 0.0
C52 C 0.85303 0.07565 0.29129 0.0
C53 C 0.84423 0.10051 0.27785 0.0
C54 C 0.86737 0.12143 0.271 0.0
C55 C 0.89798 0.11878 0.27864 0.0
C56 C 0.95887 0.07331 0.30088 0.0
C57 C 0.98875 0.07741 0.30989 0.0
C58 C 0.01141 0.05432 0.30812 0.0
C59 C 0.00516 0.0266 0.29674 0.0
C60 C 0.97591 0.02314 0.28658 0.0
C61 C 0.95306 0.04613 0.28857 0.0
H62 H 0.96504 0.4113 0.59145 0.0
N63 N 0.92485 0.42455 0.55805 0.0
H64 H 0.95046 0.3973 0.62866 0.0
H65 H 0.8686 0.42777 0.57572 0.0
H66 H 0.85379 0.41465 0.61307 0.0
H67 H 0.88426 0.41181 0.52651 0.0
H68 H 0.87184 0.36057 0.51124 0.0
H69 H 0.95978 0.37175 0.56321 0.0
H70 H 0.94751 0.32085 0.54825 0.0
H71 H 0.98627 0.41278 0.54658 0.0
H72 H 0.92008 0.4856 0.56009 0.0
H73 H 0.02739 0.45098 0.54295 0.0
H74 H 0.96149 0.52401 0.55766 0.0
H75 H 0.15062 0.57556 0.57893 0.0
H76 H 0.1633 0.58426 0.61765 0.0
H77 H 0.06742 0.60831 0.63026 0.0
H78 H 0.05456 0.59815 0.59188 0.0
H79 H 0.0565 0.63248 0.56313 0.0
H80 H 0.06536 0.68349 0.54769 0.0
H81 H 0.14639 0.64855 0.51385 0.0
H82 H 0.13756 0.59727 0.52977 0.0
H83 H 0.09893 0.52194 0.56782 0.0
H84 H 0.05809 0.48307 0.56472 0.0
H85 H 0.99679 0.55161 0.53653 0.0
N86 N 0.09552 0.5821 0.55959 0.0
H87 H 0.03696 0.59058 0.54074 0.0
C88 C 0.91775 0.42047 0.58082 0.0
C89 C 0.94078 0.41242 0.59613 0.0
C90 C 0.93241 0.40451 0.61742 0.0
C91 C 0.90093 0.40449 0.62374 0.0
C92 C 0.87818 0.41382 0.6086 0.0
C93 C 0.88656 0.42165 0.58736 0.0
C94 C 0.92312 0.39591 0.54576 0.0
C95 C 0.89874 0.39217 0.53074 0.0
C96 C 0.89141 0.36284 0.5223 0.0
C97 C 0.90849 0.33659 0.52872 0.0
C98 C 0.93406 0.34061 0.54282 0.0
C99 C 0.94122 0.36988 0.55134 0.0
C100 C 0.94971 0.44624 0.55361 0.0
C101 C 0.98034 0.43692 0.5487 0.0
C102 C 0.00412 0.45898 0.5468 0.0
C103 C 0.99804 0.49077 0.55017 0.0
C104 C 0.96721 0.49994 0.55455 0.0
C105 C 0.94344 0.47796 0.5561 0.0
C106 C 0.10186 0.58656 0.58251 0.0
C107 C 0.13238 0.58253 0.59012 0.0
C108 C 0.13956 0.58753 0.6121 0.0
C109 C 0.11634 0.59724 0.6267 0.0
C110 C 0.08573 0.60124 0.61915 0.0
C111 C 0.07842 0.59556 0.59727 0.0
C112 C 0.09636 0.61077 0.54751 0.0
C113 C 0.07584 0.63545 0.55209 0.0
C114 C 0.08088 0.66474 0.54316 0.0
C115 C 0.10672 0.67016 0.52966 0.0
C116 C 0.12648 0.6452 0.52441 0.0
C117 C 0.12129 0.61584 0.53325 0.0
C118 C 0.07131 0.55951 0.55499 0.0
C119 C 0.0767 0.52856 0.56087 0.0
C120 C 0.0533 0.50622 0.55889 0.0
C121 C 0.02384 0.51407 0.55049 0.0
C122 C 0.01886 0.54478 0.54359 0.0
C123 C 0.04216 0.5673 0.54595 0.0
H124 H 0.63446 0.44864 0.83238 0.0
N125 N 0.58586 0.43016 0.80597 0.0
H126 H 0.64511 0.43072 0.86926 0.0
H127 H 0.54988 0.39452 0.83075 0.0
H128 H 0.56 0.3776 0.8684 0.0
H129 H 0.59878 0.37726 0.78579 0.0
H130 H 0.64831 0.36213 0.76932 0.0
H131 H 0.63321 0.47032 0.7949 0.0
H132 H 0.68313 0.45515 0.77979 0.0
H133 H 0.59785 0.4894 0.82036 0.0
H134 H 0.53156 0.43284 0.78534 0.0
H135 H 0.56222 0.53318 0.81891 0.0
H136 H 0.49484 0.47624 0.78475 0.0
H137 H 0.43945 0.65751 0.83452 0.0
H138 H 0.42601 0.66896 0.87277 0.0
H139 H 0.39066 0.57594 0.87992 0.0
H140 H 0.40548 0.56412 0.84236 0.0
H141 H 0.39114 0.55551 0.80713 0.0
H142 H 0.33877 0.55928 0.79248 0.0
H143 H 0.35728 0.65367 0.77275 0.0
H144 H 0.40904 0.65028 0.78925 0.0
H145 H 0.47757 0.58675 0.84147 0.0
H146 H 0.51593 0.54657 0.837 0.0
H147 H 0.48128 0.52731 0.77214 0.0
N148 N 0.4318 0.60407 0.813 0.0
H149 H 0.44164 0.5671 0.77682 0.0
C150 C 0.59151 0.42236 0.82851 0.0
C151 C 0.61806 0.43302 0.83987 0.0
C152 C 0.62418 0.42285 0.86101 0.0
C153 C 0.60349 0.40266 0.8714 0.0
C154 C 0.57629 0.39313 0.86055 0.0
C155 C 0.5705 0.40274 0.83918 0.0
C156 C 0.61216 0.42474 0.7918 0.0
C157 C 0.6168 0.39459 0.7838 0.0
C158 C 0.64536 0.38589 0.77475 0.0
C159 C 0.67016 0.40716 0.77374 0.0
C160 C 0.66467 0.43807 0.78022 0.0
C161 C 0.6359 0.44684 0.78898 0.0
C162 C 0.56747 0.45775 0.80274 0.0
C163 C 0.57588 0.48651 0.81195 0.0
C164 C 0.55516 0.5115 0.8114 0.0
C165 C 0.52534 0.5082 0.80202 0.0
C166 C 0.51762 0.47981 0.79195 0.0
C167 C 0.53853 0.45492 0.79231 0.0
C168 C 0.42313 0.61022 0.83544 0.0
C169 C 0.42876 0.63968 0.84437 0.0
C170 C 0.42105 0.64617 0.86608 0.0
C171 C 0.40698 0.62339 0.87904 0.0
C172 C 0.40096 0.59401 0.87007 0.0
C173 C 0.40929 0.58731 0.84856 0.0
C174 C 0.40393 0.60291 0.79969 0.0
C175 C 0.38403 0.57698 0.7996 0.0
C176 C 0.35401 0.57912 0.79089 0.0
C177 C 0.3433 0.60702 0.78165 0.0
C178 C 0.36422 0.63209 0.78026 0.0
C179 C 0.39405 0.63008 0.78935 0.0
C180 C 0.45438 0.57897 0.81024 0.0
C181 C 0.47718 0.5735 0.82642 0.0
C182 C 0.49991 0.55074 0.82367 0.0
C183 C 0.50164 0.53333 0.80428 0.0
C184 C 0.48012 0.53967 0.78755 0.0
C185 C 0.45713 0.56245 0.79035 0.0
H186 H 0.4752 0.91444 0.09426 0.0
N187 N 0.43472 0.92355 0.06026 0.0
H188 H 0.46101 0.90198 0.13176 0.0
H189 H 0.3782 0.92525 0.07771 0.0
H190 H 0.36374 0.9138 0.1154 0.0
H191 H 0.3962 0.90748 0.02806 0.0
H192 H 0.3863 0.855 0.01402 0.0
H193 H 0.47061 0.87218 0.06814 0.0
H194 H 0.46045 0.82014 0.05491 0.0
H195 H 0.49623 0.91207 0.0486 0.0
H196 H 0.42942 0.98459 0.06151 0.0
H197 H 0.53694 0.95054 0.0444 0.0
H198 H 0.47046 0.02327 0.05851 0.0
H199 H 0.65705 0.09043 0.08149 0.0
H200 H 0.6659 0.1024 0.12021 0.0
H201 H 0.56656 0.10133 0.13121 0.0
H202 H 0.55788 0.08974 0.09258 0.0
H203 H 0.56334 0.133 0.06539 0.0
H204 H 0.57053 0.18404 0.0493 0.0
H205 H 0.65038 0.14986 0.01374 0.0
H206 H 0.64317 0.09867 0.03021 0.0
H207 H 0.60763 0.02311 0.06897 0.0
H208 H 0.56753 0.98342 0.06572 0.0
H209 H 0.50526 0.05068 0.03703 0.0
N210 N 0.60272 0.08331 0.06109 0.0
H211 H 0.54457 0.09042 0.04145 0.0
C212 C 0.42761 0.92064 0.08315 0.0
C213 C 0.45086 0.9147 0.09881 0.0
C214 C 0.44271 0.90767 0.12028 0.0
C215 C 0.41122 0.90651 0.12652 0.0
C216 C 0.38818 0.91385 0.11103 0.0
C217 C 0.39634 0.92074 0.08958 0.0
C218 C 0.43423 0.89402 0.04899 0.0
C219 C 0.41091 0.88858 0.03339 0.0
C220 C 0.40501 0.85852 0.02566 0.0
C221 C 0.42237 0.83322 0.03347 0.0
C222 C 0.44683 0.839 0.04826 0.0
C223 C 0.4527 0.86897 0.05591 0.0
C224 C 0.45936 0.94535 0.05541 0.0
C225 C 0.49006 0.9362 0.05047 0.0
C226 C 0.51363 0.95841 0.04823 0.0
C227 C 0.50727 0.9902 0.05126 0.0
C228 C 0.47638 0.99919 0.05564 0.0
C229 C 0.45282 0.97706 0.05752 0.0
C230 C 0.60698 0.08877 0.08419 0.0
C231 C 0.63727 0.09263 0.09233 0.0
C232 C 0.64223 0.09969 0.11433 0.0
C233 C 0.6169 0.10278 0.12866 0.0
C234 C 0.58651 0.09879 0.12054 0.0
C235 C 0.58154 0.09212 0.09849 0.0
C236 C 0.60271 0.11185 0.04887 0.0
C237 C 0.58199 0.13623 0.05377 0.0
C238 C 0.5861 0.16546 0.04452 0.0
C239 C 0.61117 0.17107 0.03036 0.0
C240 C 0.63108 0.14635 0.0248 0.0
C241 C 0.62681 0.11705 0.03397 0.0
C242 C 0.57944 0.06002 0.05584 0.0
C243 C 0.58539 0.02921 0.06179 0.0
C244 C 0.56241 0.00643 0.05976 0.0
C245 C 0.53284 0.01374 0.05128 0.0
C246 C 0.52741 0.04427 0.04418 0.0
C247 C 0.55024 0.06721 0.0466 0.0
H248 H 0.12003 0.56097 0.91612 0.0
N249 N 0.07658 0.59196 0.94052 0.0
H250 H 0.13427 0.57198 0.87833 0.0
H251 H 0.04934 0.63187 0.91375 0.0
H252 H 0.06438 0.64383 0.87609 0.0
H253 H 0.09886 0.64821 0.94775 0.0
H254 H 0.14972 0.66201 0.96215 0.0
H255 H 0.11541 0.55237 0.96382 0.0
H256 H 0.16525 0.56617 0.97959 0.0
H257 H 0.08814 0.52944 0.93591 0.0
H258 H 0.01868 0.59621 0.95533 0.0
H259 H 0.05047 0.488 0.93934 0.0
H260 H 0.97984 0.55481 0.95742 0.0
H261 H 0.92496 0.36573 0.92164 0.0
H262 H 0.91605 0.34975 0.8835 0.0
H263 H 0.88714 0.44285 0.86796 0.0
H264 H 0.89757 0.45905 0.90555 0.0
H265 H 0.87267 0.46737 0.93766 0.0
H266 H 0.81973 0.46216 0.95107 0.0
H267 H 0.84518 0.37631 0.98263 0.0
H268 H 0.89756 0.38062 0.96742 0.0
H269 H 0.97021 0.43006 0.91542 0.0
H270 H 0.0089 0.47025 0.91874 0.0
H271 H 0.95959 0.50912 0.97387 0.0
N272 N 0.91778 0.42216 0.93896 0.0
H273 H 0.91961 0.46955 0.96989 0.0
C274 C 0.08313 0.59531 0.91761 0.0
C275 C 0.10695 0.57827 0.90729 0.0
C276 C 0.11528 0.58474 0.88577 0.0
C277 C 0.10044 0.60877 0.87444 0.0
C278 C 0.0762 0.62526 0.88458 0.0
C279 C 0.06749 0.61839 0.90594 0.0
C280 C 0.1031 0.59927 0.95424 0.0
C281 C 0.11303 0.63026 0.95507 0.0
C282 C 0.14228 0.63812 0.96341 0.0
C283 C 0.16225 0.61518 0.97175 0.0
C284 C 0.15118 0.58441 0.97259 0.0
C285 C 0.12216 0.57645 0.9637 0.0
C286 C 0.05645 0.56619 0.9457 0.0
C287 C 0.06494 0.53528 0.94132 0.0
C288 C 0.04303 0.51146 0.94294 0.0
C289 C 0.01178 0.51796 0.94825 0.0
C290 C 0.00365 0.54874 0.95348 0.0
C291 C 0.02582 0.5725 0.95227 0.0
C292 C 0.91152 0.41335 0.91656 0.0
C293 C 0.91663 0.38259 0.90998 0.0
C294 C 0.91153 0.37354 0.88832 0.0
C295 C 0.9006 0.39507 0.87301 0.0
C296 C 0.89506 0.42577 0.87961 0.0
C297 C 0.90083 0.43497 0.90112 0.0
C298 C 0.88899 0.42393 0.95113 0.0
C299 C 0.86691 0.44746 0.94748 0.0
C300 C 0.83657 0.44459 0.95548 0.0
C301 C 0.82771 0.41842 0.96765 0.0
C302 C 0.85069 0.39629 0.97276 0.0
C303 C 0.88085 0.39892 0.9644 0.0
C304 C 0.94031 0.44732 0.94136 0.0
C305 C 0.96695 0.44757 0.92794 0.0
C306 C 0.98971 0.4704 0.93017 0.0
C307 C 0.9875 0.49321 0.94655 0.0
C308 C 0.96172 0.49241 0.96071 0.0
C309 C 0.93858 0.46963 0.9583 0.0
H310 H 0.56682 0.37789 0.16474 0.0
N311 N 0.58991 0.42788 0.18742 0.0
H312 H 0.57354 0.36731 0.1257 0.0
H313 H 0.61663 0.46413 0.15798 0.0
H314 H 0.62283 0.45398 0.11882 0.0
H315 H 0.6466 0.40439 0.19089 0.0
H316 H 0.66148 0.35449 0.20579 0.0
H317 H 0.55255 0.3908 0.21372 0.0
H318 H 0.56764 0.34201 0.22984 0.0
H319 H 0.528 0.41384 0.18278 0.0
H320 H 0.59198 0.48461 0.20435 0.0
H321 H 0.48446 0.44904 0.18847 0.0
H322 H 0.54884 0.52105 0.20851 0.0
H323 H 0.35776 0.58352 0.17754 0.0
H324 H 0.34159 0.59737 0.14048 0.0
H325 H 0.43813 0.60955 0.12252 0.0
H326 H 0.454 0.5948 0.1592 0.0
H327 H 0.46233 0.62429 0.19073 0.0
H328 H 0.46012 0.67719 0.20453 0.0
H329 H 0.37426 0.6559 0.23811 0.0
H330 H 0.3758 0.60335 0.2229 0.0
H331 H 0.42152 0.52858 0.16975 0.0
H332 H 0.46247 0.49041 0.17116 0.0
H333 H 0.50387 0.53869 0.22601 0.0
N334 N 0.41554 0.58114 0.19348 0.0
H335 H 0.4638 0.57818 0.22373 0.0
C336 C 0.5916 0.42178 0.16427 0.0
C337 C 0.57904 0.39463 0.15483 0.0
C338 C 0.58298 0.38853 0.13258 0.0
C339 C 0.59881 0.40977 0.11934 0.0
C340 C 0.61043 0.43729 0.12868 0.0
C341 C 0.60696 0.44311 0.15096 0.0
C342 C 0.59844 0.40151 0.20069 0.0
C343 C 0.62936 0.39107 0.19969 0.0
C344 C 0.63784 0.36244 0.20833 0.0
C345 C 0.61569 0.34368 0.21879 0.0
C346 C 0.58517 0.35521 0.22126 0.0
C347 C 0.57651 0.38359 0.21213 0.0
C348 C 0.56331 0.44646 0.19354 0.0
C349 C 0.53263 0.43686 0.1891 0.0
C350 C 0.50773 0.45734 0.19202 0.0
C351 C 0.51294 0.48828 0.19864 0.0
C352 C 0.54363 0.49742 0.2037 0.0
C353 C 0.56843 0.47665 0.20128 0.0
C354 C 0.40694 0.58808 0.17118 0.0
C355 C 0.37533 0.58896 0.1655 0.0
C356 C 0.3662 0.59712 0.14441 0.0
C357 C 0.38859 0.60466 0.12856 0.0
C358 C 0.42031 0.60355 0.13425 0.0
C359 C 0.42941 0.5954 0.15531 0.0
C360 C 0.41894 0.60986 0.20559 0.0
C361 C 0.44321 0.63087 0.20124 0.0
C362 C 0.442 0.66119 0.20936 0.0
C363 C 0.41672 0.67117 0.22224 0.0
C364 C 0.39368 0.64939 0.22781 0.0
C365 C 0.39473 0.61916 0.21944 0.0
C366 C 0.44027 0.55806 0.19545 0.0
C367 C 0.43974 0.53162 0.18181 0.0
C368 C 0.46304 0.50917 0.18295 0.0
C369 C 0.48701 0.51144 0.19853 0.0
C370 C 0.48647 0.53662 0.21328 0.0
C371 C 0.46335 0.5595 0.21188 0.0
H372 H 0.37559 0.95544 0.41251 0.0
N373 N 0.41718 0.93389 0.44313 0.0
H374 H 0.3716 0.93903 0.37466 0.0
H375 H 0.45205 0.8921 0.42238 0.0
H376 H 0.44815 0.8755 0.38406 0.0
H377 H 0.39844 0.88499 0.46562 0.0
H378 H 0.34683 0.87575 0.481 0.0
H379 H 0.3709 0.97779 0.44846 0.0
H380 H 0.31914 0.96822 0.462 0.0
H381 H 0.41086 0.99313 0.42736 0.0
H382 H 0.46982 0.93402 0.46603 0.0
H383 H 0.44856 0.03464 0.43037 0.0
H384 H 0.50919 0.97511 0.46784 0.0
H385 H 0.5767 0.15617 0.42259 0.0
H386 H 0.5939 0.17002 0.38578 0.0
H387 H 0.62176 0.07503 0.37431 0.0
H388 H 0.60407 0.06137 0.41087 0.0
H389 H 0.61738 0.05011 0.4482 0.0
H390 H 0.67077 0.05195 0.4618 0.0
H391 H 0.6599 0.1498 0.47579 0.0
H392 H 0.60613 0.14711 0.46335 0.0
H393 H 0.53566 0.08404 0.41137 0.0
H394 H 0.49622 0.04499 0.41432 0.0
H395 H 0.52559 0.02565 0.48027 0.0
N396 N 0.57973 0.10081 0.44154 0.0
H397 H 0.56689 0.06418 0.47699 0.0
C398 C 0.41409 0.92474 0.42051 0.0
C399 C 0.39147 0.93785 0.40668 0.0
C400 C 0.38908 0.92835 0.38493 0.0
C401 C 0.40941 0.90584 0.37643 0.0
C402 C 0.43223 0.893 0.39016 0.0
C403 C 0.43444 0.90234 0.41201 0.0
C404 C 0.38874 0.93184 0.45562 0.0
C405 C 0.38141 0.90351 0.46543 0.0
C406 C 0.35167 0.89815 0.4739 0.0
C407 C 0.32827 0.92093 0.47237 0.0
C408 C 0.33633 0.95005 0.46373 0.0
C409 C 0.36625 0.95556 0.4557 0.0
C410 C 0.4372 0.96034 0.44681 0.0
C411 C 0.4316 0.98915 0.43693 0.0
C412 C 0.45368 0.01286 0.4383 0.0
C413 C 0.48235 0.00817 0.449 0.0
C414 C 0.48737 0.97975 0.4596 0.0
C415 C 0.46494 0.95617 0.45854 0.0
C416 C 0.589 0.10788 0.41944 0.0
C417 C 0.58638 0.13841 0.41204 0.0
C418 C 0.59643 0.14627 0.39113 0.0
C419 C 0.60925 0.1236 0.37721 0.0
C420 C 0.61173 0.09292 0.3846 0.0
C421 C 0.60184 0.08513 0.40554 0.0
C422 C 0.60761 0.09859 0.45477 0.0
C423 C 0.62614 0.07166 0.45494 0.0
C424 C 0.65695 0.07292 0.46243 0.0
C425 C 0.67017 0.10123 0.46943 0.0
C426 C 0.65077 0.12749 0.47073 0.0
C427 C 0.61986 0.12605 0.46364 0.0
C428 C 0.55661 0.07603 0.4433 0.0
C429 C 0.53482 0.07093 0.42634 0.0
C430 C 0.51136 0.04883 0.42822 0.0
C431 C 0.5076 0.03189 0.44751 0.0
C432 C 0.52824 0.0377 0.46494 0.0
C433 C 0.55213 0.05975 0.46298 0.0
H434 H 0.03484 0.89562 0.65569 0.0
N435 N 0.07415 0.91626 0.68782 0.0
H436 H 0.04826 0.88724 0.61722 0.0
H437 H 0.12763 0.92956 0.66832 0.0
H438 H 0.1407 0.92263 0.62955 0.0
H439 H 0.11705 0.90631 0.71816 0.0
H440 H 0.13142 0.85651 0.73438 0.0
H441 H 0.04048 0.86212 0.68465 0.0
H442 H 0.05483 0.81261 0.70036 0.0
H443 H 0.01223 0.90447 0.69688 0.0
H444 H 0.0803 0.97711 0.68976 0.0
H445 H 0.97138 0.94304 0.7014 0.0
H446 H 0.03946 0.01596 0.69289 0.0
H447 H 0.85439 0.08751 0.6662 0.0
H448 H 0.84596 0.09839 0.62737 0.0
H449 H 0.94481 0.08974 0.61592 0.0
H450 H 0.95313 0.07928 0.65461 0.0
H451 H 0.95038 0.12476 0.68032 0.0
H452 H 0.94664 0.17716 0.6948 0.0
H453 H 0.86679 0.15024 0.7332 0.0
H454 H 0.87005 0.09776 0.71773 0.0
H455 H 0.90321 0.01776 0.67715 0.0
H456 H 0.94243 0.97742 0.6808 0.0
H457 H 0.00336 0.04272 0.71352 0.0
N458 N 0.90842 0.07781 0.68652 0.0
H459 H 0.96511 0.08319 0.70865 0.0
C460 C 0.08054 0.91275 0.6649 0.0
C461 C 0.05811 0.90112 0.65022 0.0
C462 C 0.06573 0.89644 0.62829 0.0
C463 C 0.09552 0.90411 0.62063 0.0
C464 C 0.1176 0.9165 0.63517 0.0
C465 C 0.1102 0.9205 0.65718 0.0
C466 C 0.07765 0.88823 0.70031 0.0
C467 C 0.10288 0.88607 0.71475 0.0
C468 C 0.11127 0.85754 0.72375 0.0
C469 C 0.0945 0.8305 0.71845 0.0
C470 C 0.06812 0.833 0.70494 0.0
C471 C 0.05982 0.86151 0.69591 0.0
C472 C 0.04961 0.93788 0.69313 0.0
C473 C 0.01857 0.92868 0.69649 0.0
C474 C 0.99501 0.95095 0.69883 0.0
C475 C 0.00182 0.98287 0.69739 0.0
C476 C 0.0331 0.99181 0.69457 0.0
C477 C 0.05659 0.96959 0.69263 0.0
C478 C 0.90419 0.08216 0.66331 0.0
C479 C 0.87414 0.08774 0.65524 0.0
C480 C 0.86943 0.09418 0.63316 0.0
C481 C 0.89475 0.09487 0.61868 0.0
C482 C 0.92486 0.08903 0.62669 0.0
C483 C 0.9296 0.083 0.64881 0.0
C484 C 0.91036 0.10722 0.69792 0.0
C485 C 0.93231 0.12993 0.69207 0.0
C486 C 0.93024 0.15998 0.70053 0.0
C487 C 0.90627 0.16811 0.71513 0.0
C488 C 0.88523 0.14496 0.72174 0.0
C489 C 0.88727 0.11487 0.71315 0.0
C490 C 0.93099 0.05394 0.69201 0.0
C491 C 0.92498 0.02333 0.68523 0.0
C492 C 0.94746 1.00014 0.68753 0.0
C493 C 0.97649 0.0067 0.69722 0.0
C494 C 0.98175 0.03689 0.70534 0.0
C495 C 0.95949 0.06028 0.70262 0.0
Co496 Co 0.33824 0.656 0.00774 0.0
O497 O 0.30825 0.62376 0.00201 0.0
O498 O 0.30065 0.67367 0.99551 0.0
C499 C 0.3506 0.64037 0.0417 0.0
O500 O 0.36313 0.69601 0.01221 0.0
Co501 Co 0.40779 0.64007 0.01597 0.0
O502 O 0.41188 0.68466 0.02308 0.0
C503 C 0.38336 0.64007 0.97091 0.0
C504 C 0.28976 0.6455 0.9953 0.0
C505 C 0.39051 0.70418 0.01876 0.0
O506 O 0.35672 0.64979 0.97774 0.0
O507 O 0.406 0.63326 0.98363 0.0
O508 O 0.32607 0.6573 0.03831 0.0
O509 O 0.36528 0.63129 0.02441 0.0
Co510 Co 0.35683 0.85723 0.24673 0.0
O511 O 0.32934 0.89224 0.25032 0.0
O512 O 0.31721 0.84367 0.25812 0.0
C513 C 0.37294 0.86962 0.21296 0.0
O514 O 0.37772 0.81484 0.24418 0.0
Co515 Co 0.42778 0.86505 0.2414 0.0
O516 O 0.42809 0.81997 0.23503 0.0
C517 C 0.39969 0.87378 0.28477 0.0
C518 C 0.30867 0.87256 0.25709 0.0
C519 C 0.40423 0.80324 0.23865 0.0
O520 O 0.37351 0.86389 0.2772 0.0
O521 O 0.42367 0.87802 0.27277 0.0
O522 O 0.34678 0.85509 0.21588 0.0
O523 O 0.38738 0.87833 0.23052 0.0
Co524 Co 0.1465 0.84471 0.49294 0.0
O525 O 0.11373 0.81447 0.4963 0.0
O526 O 0.16311 0.80725 0.50545 0.0
C527 C 0.13417 0.85855 0.45864 0.0
O528 O 0.18729 0.86886 0.49098 0.0
Co529 Co 0.13318 0.91449 0.48578 0.0
O530 O 0.17868 0.91836 0.48138 0.0
C531 C 0.1258 0.888 0.52965 0.0
C532 C 0.13502 0.79613 0.50401 0.0
C533 C 0.19704 0.89603 0.4857 0.0
O534 O 0.13724 0.86208 0.5229 0.0
O535 O 0.12054 0.91104 0.51712 0.0
O536 O 0.15053 0.83374 0.46224 0.0
O537 O 0.12369 0.8727 0.47578 0.0
Co538 Co 0.15481 0.66187 0.7554 0.0
O539 O 0.11866 0.68757 0.75071 0.0
O540 O 0.16721 0.70126 0.74338 0.0
C541 C 0.14161 0.64681 0.78924 0.0
O542 O 0.19821 0.64305 0.75901 0.0
Co543 Co 0.14986 0.59105 0.76229 0.0
O544 O 0.1951 0.59279 0.7683 0.0
C545 C 0.14234 0.61644 0.71811 0.0
C546 C 0.13784 0.70861 0.7438 0.0
C547 C 0.21086 0.61721 0.76463 0.0
O548 O 0.15 0.64354 0.72521 0.0
O549 O 0.13912 0.59288 0.73049 0.0
O550 O 0.15506 0.6734 0.7861 0.0
O551 O 0.13444 0.63124 0.77184 0.0
Co552 Co 0.85622 0.1648 0.49159 0.0
O553 O 0.89068 0.19257 0.49651 0.0
O554 O 0.84162 0.20303 0.50476 0.0
C555 C 0.86999 0.15213 0.45718 0.0
O556 O 0.8143 0.14284 0.48813 0.0
Co557 Co 0.86641 0.09497 0.48218 0.0
O558 O 0.82164 0.09513 0.47409 0.0
C559 C 0.87405 0.11918 0.52705 0.0
C560 C 0.87048 0.21222 0.50409 0.0
C561 C 0.80381 0.11725 0.47999 0.0
O562 O 0.86289 0.14554 0.52113 0.0
O563 O 0.87965 0.097 0.51362 0.0
O564 O 0.85434 0.17733 0.46111 0.0
O565 O 0.8785 0.1366 0.47413 0.0
Co566 Co 0.84426 0.35269 0.74282 0.0
O567 O 0.81657 0.38755 0.7462 0.0
O568 O 0.80453 0.33893 0.75395 0.0
C569 C 0.86085 0.36555 0.70925 0.0
O570 O 0.86538 0.31035 0.74023 0.0
Co571 Co 0.91536 0.36081 0.73779 0.0
O572 O 0.91542 0.31612 0.73037 0.0
C573 C 0.88709 0.36718 0.78135 0.0
C574 C 0.79588 0.36778 0.75279 0.0
C575 C 0.89183 0.2991 0.73419 0.0
O576 O 0.86048 0.35909 0.77345 0.0
O577 O 0.91147 0.37081 0.76966 0.0
O578 O 0.83472 0.35084 0.71186 0.0
O579 O 0.87497 0.37405 0.72697 0.0
Co580 Co 0.64632 0.34565 0.99168 0.0
O581 O 0.61428 0.31483 0.99573 0.0
O582 O 0.66405 0.30875 0.00425 0.0
C583 C 0.63254 0.35865 0.95753 0.0
O584 O 0.68655 0.37044 0.98896 0.0
Co585 Co 0.63194 0.41496 0.98385 0.0
O586 O 0.67725 0.41934 0.97837 0.0
C587 C 0.62376 0.38861 0.02777 0.0
C588 C 0.63617 0.29705 0.00328 0.0
C589 C 0.69597 0.39737 0.98287 0.0
O590 O 0.63745 0.36348 0.02159 0.0
O591 O 0.61709 0.41065 0.01466 0.0
O592 O 0.64976 0.33436 0.96094 0.0
O593 O 0.6224 0.37284 0.97472 0.0
Co594 Co 0.66079 0.17075 0.25606 0.0
O595 O 0.62725 0.19958 0.25119 0.0
O596 O 0.67687 0.20832 0.24336 0.0
C597 C 0.64714 0.15823 0.29034 0.0
O598 O 0.70192 0.14771 0.25947 0.0
Co599 Co 0.64825 0.1011 0.26439 0.0
O600 O 0.69378 0.09834 0.26953 0.0
C601 C 0.64027 0.12635 0.22021 0.0
C602 C 0.64833 0.21841 0.24388 0.0
C603 C 0.71196 0.12085 0.26526 0.0
O604 O 0.65354 0.15175 0.22631 0.0
O605 O 0.63335 0.10457 0.23345 0.0
O606 O 0.66306 0.18324 0.2866 0.0
O607 O 0.63787 0.14307 0.27327 0.0
C608 C 0.23843 0.92368 0.26774 0.0
C609 C 0.21519 0.9017 0.27225 0.0
H610 H 0.28614 0.93172 0.25938 0.0
C611 C 0.22303 0.87003 0.27186 0.0
H612 H 0.23307 0.94823 0.26783 0.0
C613 C 0.25346 0.86057 0.26716 0.0
C614 C 0.27666 0.88255 0.26262 0.0
H615 H 0.20577 0.85255 0.27561 0.0
H616 H 0.25875 0.83601 0.26704 0.0
C617 C 0.26881 0.91421 0.26288 0.0
C618 C 0.14476 0.71336 0.52327 0.0
C619 C 0.11403 0.70213 0.52228 0.0
H620 H 0.17544 0.75186 0.5185 0.0
C621 C 0.09027 0.7221 0.51514 0.0
H622 H 0.16353 0.69874 0.52904 0.0
C623 C 0.09707 0.75262 0.50921 0.0
C624 C 0.12777 0.76388 0.51039 0.0
H625 H 0.0664 0.71409 0.51405 0.0
H626 H 0.07825 0.7674 0.50375 0.0
C627 C 0.15154 0.7439 0.51743 0.0
C628 C 0.29279 0.58497 0.7672 0.0
C629 C 0.30992 0.61053 0.7751 0.0
H630 H 0.24815 0.56701 0.75793 0.0
C631 C 0.29425 0.63898 0.7781 0.0
H632 H 0.30398 0.5629 0.7641 0.0
C633 C 0.26228 0.64151 0.77392 0.0
C634 C 0.2451 0.61551 0.76711 0.0
H635 H 0.30631 0.65912 0.7845 0.0
H636 H 0.25079 0.66349 0.77691 0.0
C637 C 0.26074 0.58734 0.76352 0.0
C638 C 0.43728 0.77819 0.02488 0.0
C639 C 0.41393 0.80072 0.02756 0.0
H640 H 0.44823 0.73035 0.02011 0.0
C641 C 0.38253 0.79142 0.02611 0.0
H642 H 0.46168 0.78454 0.02542 0.0
C643 C 0.37474 0.76018 0.02277 0.0
C644 C 0.39819 0.73757 0.02103 0.0
H645 H 0.3639 0.80806 0.02835 0.0
H646 H 0.35038 0.75365 0.02221 0.0
C647 C 0.42953 0.74705 0.0218 0.0
C648 C 0.20272 0.65263 0.98651 0.0
C649 C 0.19497 0.62301 0.97823 0.0
H650 H 0.23882 0.68317 -0.00211 0.0
C651 C 0.21914 0.60128 0.97528 0.0
H652 H 0.18492 0.66991 0.98946 0.0
C653 C 0.24988 0.60873 0.98074 0.0
C654 C 0.25744 0.63833 0.98873 0.0
H655 H 0.21457 0.57856 0.9684 0.0
H656 H 0.26784 0.59137 0.97842 0.0
C657 C 0.23365 0.66031 0.99142 0.0
C658 C 0.38376 0.71877 0.22858 0.0
C659 C 0.41333 0.70457 0.22839 0.0
H660 H 0.35768 0.76085 0.23207 0.0
C661 C 0.43966 0.72304 0.23276 0.0
H662 H 0.36294 0.70556 0.22491 0.0
C663 C 0.43664 0.75494 0.23638 0.0
C664 C 0.40716 0.76916 0.23606 0.0
H665 H 0.46274 0.71294 0.23321 0.0
H666 H 0.45748 0.7685 0.23933 0.0
C667 C 0.38071 0.75061 0.23253 0.0
C668 C 0.28288 0.88381 0.47447 0.0
C669 C 0.29519 0.91374 0.47804 0.0
H670 H 0.24238 0.8547 0.47434 0.0
C671 C 0.27495 0.93717 0.48557 0.0
H672 H 0.29735 0.86519 0.46829 0.0
C673 C 0.24319 0.93128 0.48832 0.0
C674 C 0.23095 0.90162 0.48419 0.0
H675 H 0.28349 0.96029 0.4891 0.0
H676 H 0.22814 0.95002 0.49363 0.0
C677 C 0.25122 0.87776 0.47775 0.0
C678 C 0.08442 0.77666 0.73241 0.0
C679 C 0.10562 0.79954 0.7257 0.0
H680 H 0.07795 0.73006 0.74336 0.0
C681 C 0.13754 0.79218 0.72499 0.0
H682 H 0.05973 0.78164 0.73329 0.0
C683 C 0.14799 0.76262 0.73075 0.0
C684 C 0.12677 0.73976 0.73736 0.0
H685 H 0.15444 0.80907 0.71954 0.0
H686 H 0.1727 0.7577 0.72995 0.0
C687 C 0.09489 0.74712 0.7382 0.0
C688 C 0.71296 0.36718 0.77383 0.0
C689 C 0.70209 0.39665 0.76754 0.0
H690 H 0.75097 0.33496 0.7741 0.0
C691 C 0.72251 0.41638 0.75626 0.0
H692 H 0.69827 0.35156 0.78298 0.0
C693 C 0.75302 0.40706 0.75167 0.0
C694 C 0.76374 0.37766 0.75799 0.0
H695 H 0.71495 0.43902 0.75088 0.0
H696 H 0.76812 0.42283 0.74297 0.0
C697 C 0.74333 0.35772 0.76896 0.0
C698 C 0.64817 0.21476 0.02289 0.0
C699 C 0.61761 0.20301 0.0226 0.0
H700 H 0.67796 0.25369 0.01722 0.0
C701 C 0.59322 0.22245 0.0158 0.0
H702 H 0.66742 0.20054 0.02837 0.0
C703 C 0.59924 0.25299 0.00951 0.0
C704 C 0.62977 0.26478 0.01 0.0
H705 H 0.56946 0.21401 0.01526 0.0
H706 H 0.57994 0.26736 0.00432 0.0
C707 C 0.65418 0.24532 0.01669 0.0
C708 C 0.79842 0.1361 0.27229 0.0
C709 C 0.81073 0.10583 0.27259 0.0
H710 H 0.75774 0.16459 0.26971 0.0
C711 C 0.79029 0.08069 0.2694 0.0
H712 H 0.81325 0.15605 0.27506 0.0
C713 C 0.75831 0.08561 0.26685 0.0
C714 C 0.746 0.11581 0.26708 0.0
H715 H 0.79891 0.0571 0.26909 0.0
H716 H 0.74322 0.06567 0.26474 0.0
C717 C 0.76648 0.14103 0.26941 0.0
C718 C 0.92083 0.28255 0.51584 0.0
C719 C 0.89862 0.30492 0.52188 0.0
H720 H 0.92938 0.23584 0.50557 0.0
C721 C 0.86696 0.29643 0.52222 0.0
H722 H 0.94536 0.28839 0.51528 0.0
C723 C 0.85776 0.26623 0.51673 0.0
C724 C 0.88002 0.24392 0.51068 0.0
H725 H 0.84931 0.31299 0.52713 0.0
H726 H 0.83323 0.26042 0.51715 0.0
C727 C 0.91164 0.25244 0.51026 0.0
C728 C 0.72562 0.08687 0.46053 0.0
C729 C 0.70447 0.10413 0.47328 0.0
H730 H 0.77322 0.07745 0.45266 0.0
C731 C 0.71654 0.12558 0.48854 0.0
H732 H 0.71747 0.07071 0.4482 0.0
C733 C 0.74873 0.13009 0.49062 0.0
C734 C 0.76968 0.11287 0.47778 0.0
H735 H 0.70117 0.139 0.49891 0.0
H736 H 0.75721 0.14686 0.50244 0.0
C737 C 0.75774 0.09098 0.4629 0.0
C738 C 0.87246 0.21433 0.72391 0.0
C739 C 0.90233 0.20101 0.72223 0.0
H740 H 0.84566 0.25567 0.72907 0.0
C741 C 0.92848 0.21996 0.72596 0.0
H742 H 0.85177 0.20059 0.72088 0.0
C743 C 0.92496 0.25161 0.73026 0.0
C744 C 0.89518 0.26511 0.73123 0.0
H745 H 0.95181 0.21044 0.72529 0.0
H746 H 0.9457 0.26556 0.73263 0.0
C747 C 0.86893 0.24599 0.72847 0.0
C748 C 0.77406 0.43801 0.97773 0.0
C749 C 0.79432 0.41304 0.97341 0.0
H750 H 0.7272 0.45273 0.98396 0.0
C751 C 0.78191 0.38278 0.97327 0.0
H752 H 0.78269 0.46158 0.97844 0.0
C753 C 0.7502 0.3777 0.97696 0.0
C754 C 0.72989 0.40275 0.98049 0.0
H755 H 0.7964 0.36292 0.96954 0.0
H756 H 0.74143 0.35416 0.9763 0.0
C757 C 0.7422 0.43295 0.98102 0.0
C758 C 0.60179 0.28758 0.22483 0.0
C759 C 0.62396 0.31164 0.22591 0.0
H760 H 0.59212 0.23939 0.22975 0.0
C761 C 0.65439 0.30442 0.23291 0.0
H762 H 0.57836 0.29183 0.21903 0.0
C763 C 0.6625 0.274 0.23828 0.0
C764 C 0.64021 0.25024 0.2373 0.0
H765 H 0.67201 0.32225 0.23442 0.0
H766 H 0.68606 0.2692 0.24364 0.0
C767 C 0.60974 0.25734 0.23072 0.0
C768 C 0.10236 0.90614 0.41194 0.0
C769 C 0.1134 0.88956 0.39372 0.0
H770 H 0.10027 0.90933 0.44679 0.0
C771 C 0.13187 0.86308 0.39709 0.0
H772 H 0.08789 0.92649 0.40989 0.0
C773 C 0.13888 0.85322 0.41819 0.0
C774 C 0.12757 0.86962 0.43637 0.0
H775 H 0.1412 0.85011 0.3834 0.0
H776 H 0.15307 0.83267 0.42023 0.0
C777 C 0.10936 0.89625 0.43307 0.0
C778 C 0.13638 0.57853 0.66247 0.0
C779 C 0.1239 0.60261 0.64991 0.0
H780 H 0.15166 0.56401 0.69405 0.0
C781 C 0.11826 0.63158 0.65969 0.0
H782 H 0.14083 0.556 0.65521 0.0
C783 C 0.12504 0.63642 0.68178 0.0
C784 C 0.1368 0.61208 0.69451 0.0
H785 H 0.10873 0.65047 0.65021 0.0
H786 H 0.12036 0.65893 0.68901 0.0
C787 C 0.14244 0.58312 0.68464 0.0
C788 C 0.37009 0.62506 0.91063 0.0
C789 C 0.4002 0.6295 0.90227 0.0
H790 H 0.34092 0.62557 0.93905 0.0
C791 C 0.42436 0.63831 0.91643 0.0
H792 H 0.35115 0.61825 0.89993 0.0
C793 C 0.41873 0.64178 0.93872 0.0
C794 C 0.38869 0.63716 0.9472 0.0
H795 H 0.44778 0.64165 0.91032 0.0
H796 H 0.43794 0.64813 0.94934 0.0
C797 C 0.36427 0.62929 0.93292 0.0
C798 C 0.41911 0.90628 0.16725 0.0
C799 C 0.40222 0.89644 0.14877 0.0
H800 H 0.42319 0.90538 0.20211 0.0
C801 C 0.37656 0.87662 0.15164 0.0
H802 H 0.4389 0.92166 0.16561 0.0
C803 C 0.36752 0.86746 0.17248 0.0
C804 C 0.38399 0.87778 0.19094 0.0
H805 H 0.36347 0.86802 0.13774 0.0
H806 H 0.34742 0.85247 0.17409 0.0
C807 C 0.41009 0.89701 0.18815 0.0
C808 C 0.11401 0.59625 0.83562 0.0
C809 C 0.11156 0.61804 0.85264 0.0
H810 H 0.12522 0.58841 0.80195 0.0
C811 C 0.12009 0.64896 0.84888 0.0
H812 H 0.10759 0.57226 0.83821 0.0
C813 C 0.13071 0.65804 0.8284 0.0
C814 C 0.13243 0.63649 0.81118 0.0
H815 H 0.11872 0.66607 0.86187 0.0
H816 H 0.13692 0.68211 0.82594 0.0
C817 C 0.12405 0.60548 0.81495 0.0
C818 C 0.35325 0.63363 0.10317 0.0
C819 C 0.37896 0.61393 0.10625 0.0
H820 H 0.32427 0.65757 0.08036 0.0
C821 C 0.39553 0.60338 0.08788 0.0
H822 H 0.34029 0.64256 0.11698 0.0
C823 C 0.38652 0.61221 0.0669 0.0
C824 C 0.36072 0.63174 0.06386 0.0
H825 H 0.41522 0.5879 0.08968 0.0
H826 H 0.39961 0.60351 0.05307 0.0
C827 C 0.34422 0.64242 0.08219 0.0
C828 C 0.43387 0.89397 0.34021 0.0
C829 C 0.40703 0.89631 0.35318 0.0
H830 H 0.45264 0.88521 0.30848 0.0
C831 C 0.37781 0.89036 0.34365 0.0
H832 H 0.45667 0.89867 0.34707 0.0
C833 C 0.37544 0.88258 0.32154 0.0
C834 C 0.40223 0.88083 0.30842 0.0
H835 H 0.35675 0.8917 0.35331 0.0
H836 H 0.35253 0.87838 0.31468 0.0
C837 C 0.43149 0.88645 0.31806 0.0
C838 C 0.10181 0.87022 0.58769 0.0
C839 C 0.10347 0.89973 0.59742 0.0
H840 H 0.10827 0.8432 0.55853 0.0
C841 C 0.11285 0.92516 0.58491 0.0
H842 H 0.09473 0.8503 0.59715 0.0
C843 C 0.11999 0.92128 0.56286 0.0
C844 C 0.11856 0.89175 0.55305 0.0
H845 H 0.11423 0.94811 0.59214 0.0
H846 H 0.12691 0.94137 0.55352 0.0
C847 C 0.10968 0.86618 0.56571 0.0
C848 C 0.59148 0.39883 0.91106 0.0
C849 C 0.61072 0.39114 0.89339 0.0
H850 H 0.58378 0.39492 0.94544 0.0
C851 C 0.63719 0.37268 0.89682 0.0
H852 H 0.57103 0.41315 0.90868 0.0
C853 C 0.64416 0.36174 0.91768 0.0
C854 C 0.62516 0.36975 0.93545 0.0
H855 H 0.65228 0.36654 0.88332 0.0
H856 H 0.66462 0.3474 0.91995 0.0
C857 C 0.59886 0.38851 0.932 0.0
C858 C 0.64278 0.13333 0.15857 0.0
C859 C 0.62217 0.10968 0.15207 0.0
H860 H 0.66436 0.15753 0.18524 0.0
C861 C 0.60692 0.09225 0.16809 0.0
H862 H 0.65463 0.14728 0.14652 0.0
C863 C 0.6126 0.09792 0.19018 0.0
C864 C 0.6334 0.1214 0.19676 0.0
H865 H 0.59107 0.07376 0.16352 0.0
H866 H 0.60072 0.08378 0.20211 0.0
C867 C 0.64817 0.1393 0.18072 0.0
C868 C 0.9109 0.11069 0.41084 0.0
C869 C 0.90079 0.12764 0.39262 0.0
H870 H 0.90888 0.10497 0.44546 0.0
C871 C 0.87959 0.15214 0.39583 0.0
H872 H 0.92747 0.09192 0.40902 0.0
C873 C 0.86917 0.1598 0.41677 0.0
C874 C 0.87956 0.14301 0.43493 0.0
H875 H 0.87083 0.1653 0.38214 0.0
H876 H 0.85308 0.17896 0.41872 0.0
C877 C 0.90032 0.11823 0.43175 0.0
C878 C 0.90865 0.4022 0.6644 0.0
C879 C 0.89155 0.39368 0.64571 0.0
H880 H 0.91239 0.39988 0.69922 0.0
C881 C 0.8652 0.37464 0.64811 0.0
H882 H 0.92898 0.41695 0.6631 0.0
C883 C 0.85569 0.36498 0.66872 0.0
C884 C 0.87234 0.37408 0.68742 0.0
H885 H 0.8519 0.36711 0.634 0.0
H886 H 0.83505 0.35066 0.67 0.0
C887 C 0.89912 0.39249 0.68507 0.0
C888 C 0.61273 0.1128 0.33704 0.0
C889 C 0.6199 0.13193 0.35501 0.0
H890 H 0.61574 0.10613 0.30248 0.0
C891 C 0.63704 0.15923 0.3516 0.0
H892 H 0.59933 0.09175 0.33915 0.0
C893 C 0.64646 0.16744 0.33062 0.0
C894 C 0.63878 0.1486 0.31263 0.0
H895 H 0.64328 0.1742 0.36517 0.0
H896 H 0.65941 0.18877 0.32848 0.0
C897 C 0.62202 0.12109 0.31605 0.0
C898 C 0.90376 0.08281 0.57922 0.0
C899 C 0.88983 0.10157 0.59524 0.0
H900 H 0.90964 0.07356 0.54518 0.0
C901 C 0.87117 0.12665 0.58874 0.0
H902 H 0.91811 0.06322 0.58379 0.0
C903 C 0.86649 0.1328 0.56659 0.0
C904 C 0.88004 0.11371 0.55053 0.0
H905 H 0.86038 0.14164 0.60079 0.0
H906 H 0.85187 0.15221 0.56208 0.0
C907 C 0.89878 0.08868 0.55711 0.0
C908 C 0.86769 0.39069 0.8394 0.0
C909 C 0.89639 0.38606 0.84991 0.0
H910 H 0.84203 0.38769 0.80939 0.0
C911 C 0.9216 0.37416 0.838 0.0
H912 H 0.84795 0.39984 0.84834 0.0
C913 C 0.91846 0.36786 0.81573 0.0
C914 C 0.88985 0.3727 0.80509 0.0
H915 H 0.94398 0.37059 0.84579 0.0
H916 H 0.93847 0.35923 0.80682 0.0
C917 C 0.86432 0.38367 0.8172 0.0
C918 C 0.59677 0.42628 0.08043 0.0
C919 C 0.60356 0.40336 0.09583 0.0
H920 H 0.59741 0.43953 0.04699 0.0
C921 C 0.61596 0.37489 0.08872 0.0
H922 H 0.58684 0.44828 0.08548 0.0
C923 C 0.62228 0.36981 0.06658 0.0
C924 C 0.61603 0.39304 0.05116 0.0
H925 H 0.62157 0.35691 0.10035 0.0
H926 H 0.6324 0.34787 0.06163 0.0
C927 C 0.60279 0.42116 0.05836 0.0
loop_
_geom_bond_atom_site_label_1
_geom_bond_atom_site_label_2
_geom_bond_distance
_geom_bond_site_symmetry_2
_ccdc_geom_bond_type
H0 C27 0.929 . S
N1 C26 1.433 . S
N1 C32 1.435 . S
N1 C38 1.423 . S
H2 C28 0.930 . S
H3 C31 0.931 . S
H4 C30 0.929 . S
H5 C33 0.930 . S
H6 C34 0.932 . S
H7 C37 0.929 . S
H8 C36 0.931 . S
H9 C39 0.929 . S
H10 C43 0.932 . S
H11 C40 0.931 . S
H12 C42 0.929 . S
H13 C45 0.929 . S
H14 C46 0.930 . S
H15 C48 0.929 . S
H16 C49 0.931 . S
H17 C51 0.930 . S
H18 C52 0.932 . S
H19 C54 0.931 . S
H20 C55 0.929 . S
H21 C57 0.929 . S
H22 C58 0.946 . S
H23 C60 0.929 . S
N24 C44 1.433 . S
N24 C50 1.435 . S
N24 C56 1.423 . S
H25 C61 0.932 . S
C26 N1 1.433 . S
C26 C27 1.363 . S
C26 C31 1.370 . S
C27 H0 0.929 . S
C27 C26 1.363 . S
C27 C28 1.385 . S
C28 H2 0.930 . S
C28 C27 1.385 . S
C28 C29 1.357 . S
C29 C28 1.357 . S
C29 C30 1.406 . S
C30 H4 0.929 . S
C30 C29 1.406 . S
C30 C31 1.391 . S
C31 H3 0.931 . S
C31 C26 1.370 . S
C31 C30 1.391 . S
C32 N1 1.435 . S
C32 C33 1.358 . S
C32 C37 1.371 . S
C33 H5 0.930 . S
C33 C32 1.358 . S
C33 C34 1.405 . S
C34 H6 0.932 . S
C34 C33 1.405 . S
C34 C35 1.383 . S
C35 C34 1.383 . S
C35 C36 1.393 . S
C36 H8 0.931 . S
C36 C35 1.393 . S
C36 C37 1.382 . S
C37 H7 0.929 . S
C37 C32 1.371 . S
C37 C36 1.382 . S
C38 N1 1.423 . S
C38 C39 1.362 . S
C38 C43 1.388 . S
C39 H9 0.929 . S
C39 C38 1.362 . S
C39 C40 1.376 1_565 S
C40 H11 0.931 . S
C40 C39 1.376 1_545 S
C40 C41 1.396 . S
C41 C40 1.396 . S
C41 C42 1.348 1_545 S
C41 C59 1.472 . S
C42 H12 0.929 . S
C42 C41 1.348 1_565 S
C42 C43 1.443 . S
C43 H10 0.932 . S
C43 C38 1.388 . S
C43 C42 1.443 . S
C44 N24 1.433 . S
C44 C45 1.363 . S
C44 C49 1.370 . S
C45 H13 0.929 . S
C45 C44 1.363 . S
C45 C46 1.385 . S
C46 H14 0.930 . S
C46 C45 1.385 . S
C46 C47 1.357 . S
C47 C46 1.357 . S
C47 C48 1.406 . S
C48 H15 0.929 . S
C48 C47 1.406 . S
C48 C49 1.391 . S
C49 H16 0.931 . S
C49 C44 1.370 . S
C49 C48 1.391 . S
C50 N24 1.435 . S
C50 C51 1.358 . S
C50 C55 1.371 . S
C51 H17 0.930 . S
C51 C50 1.358 . S
C51 C52 1.405 . S
C52 H18 0.932 . S
C52 C51 1.405 . S
C52 C53 1.383 . S
C53 C52 1.383 . S
C53 C54 1.393 . S
C54 H19 0.931 . S
C54 C53 1.393 . S
C54 C55 1.382 . S
C55 H20 0.929 . S
C55 C50 1.371 . S
C55 C54 1.382 . S
C56 N24 1.423 . S
C56 C57 1.362 . S
C56 C61 1.388 . S
C57 H21 0.929 . S
C57 C56 1.362 . S
C57 C58 1.361 1_655 S
C58 H22 0.946 . S
C58 C57 1.361 1_455 S
C58 C59 1.398 . S
C59 C41 1.472 . S
C59 C58 1.398 . S
C59 C60 1.348 1_455 S
C60 H23 0.929 . S
C60 C59 1.348 1_655 S
C60 C61 1.443 . S
C61 H25 0.932 . S
C61 C56 1.388 . S
C61 C60 1.443 . S
H62 C89 0.929 . S
N63 C88 1.433 . S
N63 C94 1.435 . S
N63 C100 1.423 . S
H64 C90 0.930 . S
H65 C93 0.931 . S
H66 C92 0.929 . S
H67 C95 0.930 . S
H68 C96 0.932 . S
H69 C99 0.929 . S
H70 C98 0.931 . S
H71 C101 0.929 . S
H72 C105 0.932 . S
H73 C102 0.931 . S
H74 C104 0.929 . S
H75 C107 0.929 . S
H76 C108 0.930 . S
H77 C110 0.929 . S
H78 C111 0.931 . S
H79 C113 0.930 . S
H80 C114 0.932 . S
H81 C116 0.931 . S
H82 C117 0.929 . S
H83 C119 0.929 . S
H84 C120 0.931 . S
H85 C122 0.929 . S
N86 C106 1.433 . S
N86 C112 1.435 . S
N86 C118 1.423 . S
H87 C123 0.932 . S
C88 N63 1.433 . S
C88 C89 1.363 . S
C88 C93 1.370 . S
C89 H62 0.929 . S
C89 C88 1.363 . S
C89 C90 1.385 . S
C90 H64 0.930 . S
C90 C89 1.385 . S
C90 C91 1.357 . S
C91 C90 1.357 . S
C91 C92 1.406 . S
C92 H66 0.929 . S
C92 C91 1.406 . S
C92 C93 1.391 . S
C93 H65 0.931 . S
C93 C88 1.370 . S
C93 C92 1.391 . S
C94 N63 1.435 . S
C94 C95 1.358 . S
C94 C99 1.371 . S
C95 H67 0.930 . S
C95 C94 1.358 . S
C95 C96 1.405 . S
C96 H68 0.932 . S
C96 C95 1.405 . S
C96 C97 1.383 . S
C97 C96 1.383 . S
C97 C98 1.393 . S
C98 H70 0.931 . S
C98 C97 1.393 . S
C98 C99 1.382 . S
C99 H69 0.929 . S
C99 C94 1.371 . S
C99 C98 1.382 . S
C100 N63 1.423 . S
C100 C101 1.362 . S
C100 C105 1.388 . S
C101 H71 0.929 . S
C101 C100 1.362 . S
C101 C102 1.376 1_655 S
C102 H73 0.931 . S
C102 C101 1.376 1_455 S
C102 C103 1.396 . S
C103 C102 1.396 . S
C103 C104 1.348 1_455 S
C103 C121 1.472 . S
C104 H74 0.929 . S
C104 C103 1.348 1_655 S
C104 C105 1.443 . S
C105 H72 0.932 . S
C105 C100 1.388 . S
C105 C104 1.443 . S
C106 N86 1.433 . S
C106 C107 1.363 . S
C106 C111 1.370 . S
C107 H75 0.929 . S
C107 C106 1.363 . S
C107 C108 1.385 . S
C108 H76 0.930 . S
C108 C107 1.385 . S
C108 C109 1.357 . S
C109 C108 1.357 . S
C109 C110 1.406 . S
C110 H77 0.929 . S
C110 C109 1.406 . S
C110 C111 1.391 . S
C111 H78 0.931 . S
C111 C106 1.370 . S
C111 C110 1.391 . S
C112 N86 1.435 . S
C112 C113 1.358 . S
C112 C117 1.371 . S
C113 H79 0.930 . S
C113 C112 1.358 . S
C113 C114 1.405 . S
C114 H80 0.932 . S
C114 C113 1.405 . S
C114 C115 1.383 . S
C115 C114 1.383 . S
C115 C116 1.393 . S
C116 H81 0.931 . S
C116 C115 1.393 . S
C116 C117 1.382 . S
C117 H82 0.929 . S
C117 C112 1.371 . S
C117 C116 1.382 . S
C118 N86 1.423 . S
C118 C119 1.362 . S
C118 C123 1.388 . S
C119 H83 0.929 . S
C119 C118 1.362 . S
C119 C120 1.376 . S
C120 H84 0.931 . S
C120 C119 1.376 . S
C120 C121 1.396 . S
C121 C103 1.472 . S
C121 C120 1.396 . S
C121 C122 1.348 . S
C122 H85 0.929 . S
C122 C121 1.348 . S
C122 C123 1.443 . S
C123 H87 0.932 . S
C123 C118 1.388 . S
C123 C122 1.443 . S
H124 C151 0.929 . S
N125 C150 1.433 . S
N125 C156 1.435 . S
N125 C162 1.423 . S
H126 C152 0.930 . S
H127 C155 0.931 . S
H128 C154 0.929 . S
H129 C157 0.930 . S
H130 C158 0.932 . S
H131 C161 0.929 . S
H132 C160 0.931 . S
H133 C163 0.929 . S
H134 C167 0.932 . S
H135 C164 0.931 . S
H136 C166 0.929 . S
H137 C169 0.929 . S
H138 C170 0.930 . S
H139 C172 0.929 . S
H140 C173 0.931 . S
H141 C175 0.930 . S
H142 C176 0.932 . S
H143 C178 0.931 . S
H144 C179 0.929 . S
H145 C181 0.929 . S
H146 C182 0.931 . S
H147 C184 0.929 . S
N148 C168 1.433 . S
N148 C174 1.435 . S
N148 C180 1.423 . S
H149 C185 0.932 . S
C150 N125 1.433 . S
C150 C151 1.363 . S
C150 C155 1.370 . S
C151 H124 0.929 . S
C151 C150 1.363 . S
C151 C152 1.385 . S
C152 H126 0.930 . S
C152 C151 1.385 . S
C152 C153 1.357 . S
C153 C152 1.357 . S
C153 C154 1.406 . S
C154 H128 0.929 . S
C154 C153 1.406 . S
C154 C155 1.391 . S
C155 H127 0.931 . S
C155 C150 1.370 . S
C155 C154 1.391 . S
C156 N125 1.435 . S
C156 C157 1.358 . S
C156 C161 1.371 . S
C157 H129 0.930 . S
C157 C156 1.358 . S
C157 C158 1.405 . S
C158 H130 0.932 . S
C158 C157 1.405 . S
C158 C159 1.383 . S
C159 C158 1.383 . S
C159 C160 1.393 . S
C160 H132 0.931 . S
C160 C159 1.393 . S
C160 C161 1.382 . S
C161 H131 0.929 . S
C161 C156 1.371 . S
C161 C160 1.382 . S
C162 N125 1.423 . S
C162 C163 1.362 . S
C162 C167 1.388 . S
C163 H133 0.929 . S
C163 C162 1.362 . S
C163 C164 1.376 . S
C164 H135 0.931 . S
C164 C163 1.376 . S
C164 C165 1.396 . S
C165 C164 1.396 . S
C165 C166 1.348 . S
C165 C183 1.472 . S
C166 H136 0.929 . S
C166 C165 1.348 . S
C166 C167 1.443 . S
C167 H134 0.932 . S
C167 C162 1.388 . S
C167 C166 1.443 . S
C168 N148 1.433 . S
C168 C169 1.363 . S
C168 C173 1.370 . S
C169 H137 0.929 . S
C169 C168 1.363 . S
C169 C170 1.385 . S
C170 H138 0.930 . S
C170 C169 1.385 . S
C170 C171 1.357 . S
C171 C170 1.357 . S
C171 C172 1.406 . S
C172 H139 0.929 . S
C172 C171 1.406 . S
C172 C173 1.391 . S
C173 H140 0.931 . S
C173 C168 1.370 . S
C173 C172 1.391 . S
C174 N148 1.435 . S
C174 C175 1.358 . S
C174 C179 1.371 . S
C175 H141 0.930 . S
C175 C174 1.358 . S
C175 C176 1.405 . S
C176 H142 0.932 . S
C176 C175 1.405 . S
C176 C177 1.383 . S
C177 C176 1.383 . S
C177 C178 1.393 . S
C178 H143 0.931 . S
C178 C177 1.393 . S
C178 C179 1.382 . S
C179 H144 0.929 . S
C179 C174 1.371 . S
C179 C178 1.382 . S
C180 N148 1.423 . S
C180 C181 1.362 . S
C180 C185 1.388 . S
C181 H145 0.929 . S
C181 C180 1.362 . S
C181 C182 1.376 . S
C182 H146 0.931 . S
C182 C181 1.376 . S
C182 C183 1.396 . S
C183 C165 1.472 . S
C183 C182 1.396 . S
C183 C184 1.348 . S
C184 H147 0.929 . S
C184 C183 1.348 . S
C184 C185 1.443 . S
C185 H149 0.932 . S
C185 C180 1.388 . S
C185 C184 1.443 . S
H186 C213 0.929 . S
N187 C212 1.433 . S
N187 C218 1.435 . S
N187 C224 1.423 . S
H188 C214 0.930 . S
H189 C217 0.931 . S
H190 C216 0.929 . S
H191 C219 0.930 . S
H192 C220 0.932 . S
H193 C223 0.929 . S
H194 C222 0.931 1_556 S
H195 C225 0.929 . S
H196 C229 0.932 . S
H197 C226 0.931 . S
H198 C228 0.929 . S
H199 C231 0.929 . S
H200 C232 0.930 . S
H201 C234 0.929 . S
H202 C235 0.931 . S
H203 C237 0.930 . S
H204 C238 0.932 . S
H205 C240 0.931 1_556 S
H206 C241 0.929 . S
H207 C243 0.929 . S
H208 C244 0.931 1_565 S
H209 C246 0.929 . S
N210 C230 1.433 . S
N210 C236 1.435 . S
N210 C242 1.423 . S
H211 C247 0.932 . S
C212 N187 1.433 . S
C212 C213 1.363 . S
C212 C217 1.370 . S
C213 H186 0.929 . S
C213 C212 1.363 . S
C213 C214 1.385 . S
C214 H188 0.930 . S
C214 C213 1.385 . S
C214 C215 1.357 . S
C215 C214 1.357 . S
C215 C216 1.406 . S
C216 H190 0.929 . S
C216 C215 1.406 . S
C216 C217 1.391 . S
C217 H189 0.931 . S
C217 C212 1.370 . S
C217 C216 1.391 . S
C218 N187 1.435 . S
C218 C219 1.358 . S
C218 C223 1.371 . S
C219 H191 0.930 . S
C219 C218 1.358 . S
C219 C220 1.405 . S
C220 H192 0.932 . S
C220 C219 1.405 . S
C220 C221 1.383 . S
C221 C220 1.383 . S
C221 C222 1.393 . S
C222 H194 0.931 1_554 S
C222 C221 1.393 . S
C222 C223 1.382 . S
C223 H193 0.929 . S
C223 C218 1.371 . S
C223 C222 1.382 . S
C224 N187 1.423 . S
C224 C225 1.362 . S
C224 C229 1.388 . S
C225 H195 0.929 . S
C225 C224 1.362 . S
C225 C226 1.376 . S
C226 H197 0.931 . S
C226 C225 1.376 . S
C226 C227 1.396 . S
C227 C226 1.396 . S
C227 C228 1.348 . S
C227 C245 1.472 1_565 S
C228 H198 0.929 . S
C228 C227 1.348 . S
C228 C229 1.443 . S
C229 H196 0.932 . S
C229 C224 1.388 . S
C229 C228 1.443 . S
C230 N210 1.433 . S
C230 C231 1.363 . S
C230 C235 1.370 . S
C231 H199 0.929 . S
C231 C230 1.363 . S
C231 C232 1.385 . S
C232 H200 0.930 . S
C232 C231 1.385 . S
C232 C233 1.357 . S
C233 C232 1.357 . S
C233 C234 1.406 . S
C234 H201 0.929 . S
C234 C233 1.406 . S
C234 C235 1.391 . S
C235 H202 0.931 . S
C235 C230 1.370 . S
C235 C234 1.391 . S
C236 N210 1.435 . S
C236 C237 1.358 . S
C236 C241 1.371 . S
C237 H203 0.930 . S
C237 C236 1.358 . S
C237 C238 1.405 . S
C238 H204 0.932 . S
C238 C237 1.405 . S
C238 C239 1.383 . S
C239 C238 1.383 . S
C239 C240 1.393 . S
C240 H205 0.931 1_554 S
C240 C239 1.393 . S
C240 C241 1.382 . S
C241 H206 0.929 . S
C241 C236 1.371 . S
C241 C240 1.382 . S
C242 N210 1.423 . S
C242 C243 1.362 . S
C242 C247 1.388 . S
C243 H207 0.929 . S
C243 C242 1.362 . S
C243 C244 1.376 . S
C244 H208 0.931 1_545 S
C244 C243 1.376 . S
C244 C245 1.396 . S
C245 C227 1.472 1_545 S
C245 C244 1.396 . S
C245 C246 1.348 . S
C246 H209 0.929 . S
C246 C245 1.348 . S
C246 C247 1.443 . S
C247 H211 0.932 . S
C247 C242 1.388 . S
C247 C246 1.443 . S
H248 C275 0.929 . S
N249 C274 1.433 . S
N249 C280 1.435 . S
N249 C286 1.423 . S
H250 C276 0.930 . S
H251 C279 0.931 . S
H252 C278 0.929 . S
H253 C281 0.930 . S
H254 C282 0.932 . S
H255 C285 0.929 . S
H256 C284 0.931 1_554 S
H257 C287 0.929 . S
H258 C291 0.932 . S
H259 C288 0.931 . S
H260 C290 0.929 . S
H261 C293 0.929 . S
H262 C294 0.930 . S
H263 C296 0.929 . S
H264 C297 0.931 . S
H265 C299 0.930 . S
H266 C300 0.932 . S
H267 C302 0.931 1_554 S
H268 C303 0.929 . S
H269 C305 0.929 . S
H270 C306 0.931 1_455 S
H271 C308 0.929 . S
N272 C292 1.433 . S
N272 C298 1.435 . S
N272 C304 1.423 . S
H273 C309 0.932 . S
C274 N249 1.433 . S
C274 C275 1.363 . S
C274 C279 1.370 . S
C275 H248 0.929 . S
C275 C274 1.363 . S
C275 C276 1.385 . S
C276 H250 0.930 . S
C276 C275 1.385 . S
C276 C277 1.357 . S
C277 C276 1.357 . S
C277 C278 1.406 . S
C278 H252 0.929 . S
C278 C277 1.406 . S
C278 C279 1.391 . S
C279 H251 0.931 . S
C279 C274 1.370 . S
C279 C278 1.391 . S
C280 N249 1.435 . S
C280 C281 1.358 . S
C280 C285 1.371 . S
C281 H253 0.930 . S
C281 C280 1.358 . S
C281 C282 1.405 . S
C282 H254 0.932 . S
C282 C281 1.405 . S
C282 C283 1.383 . S
C283 C282 1.383 . S
C283 C284 1.393 . S
C284 H256 0.931 1_556 S
C284 C283 1.393 . S
C284 C285 1.382 . S
C285 H255 0.929 . S
C285 C280 1.371 . S
C285 C284 1.382 . S
C286 N249 1.423 . S
C286 C287 1.362 . S
C286 C291 1.388 . S
C287 H257 0.929 . S
C287 C286 1.362 . S
C287 C288 1.376 . S
C288 H259 0.931 . S
C288 C287 1.376 . S
C288 C289 1.396 . S
C289 C288 1.396 . S
C289 C290 1.348 . S
C289 C307 1.472 . S
C290 H260 0.929 . S
C290 C289 1.348 . S
C290 C291 1.443 . S
C291 H258 0.932 . S
C291 C286 1.388 . S
C291 C290 1.443 . S
C292 N272 1.433 . S
C292 C293 1.363 . S
C292 C297 1.370 . S
C293 H261 0.929 . S
C293 C292 1.363 . S
C293 C294 1.385 . S
C294 H262 0.930 . S
C294 C293 1.385 . S
C294 C295 1.357 . S
C295 C294 1.357 . S
C295 C296 1.406 . S
C296 H263 0.929 . S
C296 C295 1.406 . S
C296 C297 1.391 . S
C297 H264 0.931 . S
C297 C292 1.370 . S
C297 C296 1.391 . S
C298 N272 1.435 . S
C298 C299 1.358 . S
C298 C303 1.371 . S
C299 H265 0.930 . S
C299 C298 1.358 . S
C299 C300 1.405 . S
C300 H266 0.932 . S
C300 C299 1.405 . S
C300 C301 1.383 . S
C301 C300 1.383 . S
C301 C302 1.393 . S
C302 H267 0.931 1_556 S
C302 C301 1.393 . S
C302 C303 1.382 . S
C303 H268 0.929 . S
C303 C298 1.371 . S
C303 C302 1.382 . S
C304 N272 1.423 . S
C304 C305 1.362 . S
C304 C309 1.388 . S
C305 H269 0.929 . S
C305 C304 1.362 . S
C305 C306 1.376 . S
C306 H270 0.931 1_655 S
C306 C305 1.376 . S
C306 C307 1.396 1_655 S
C307 C289 1.472 . S
C307 C306 1.396 1_455 S
C307 C308 1.348 1_455 S
C308 H271 0.929 . S
C308 C307 1.348 1_655 S
C308 C309 1.443 . S
C309 H273 0.932 . S
C309 C304 1.388 . S
C309 C308 1.443 . S
H310 C337 0.929 . S
N311 C336 1.433 . S
N311 C342 1.435 . S
N311 C348 1.423 . S
H312 C338 0.930 . S
H313 C341 0.931 . S
H314 C340 0.929 . S
H315 C343 0.930 . S
H316 C344 0.932 . S
H317 C347 0.929 . S
H318 C346 0.931 . S
H319 C349 0.929 . S
H320 C353 0.932 . S
H321 C350 0.931 . S
H322 C352 0.929 . S
H323 C355 0.929 . S
H324 C356 0.930 . S
H325 C358 0.929 . S
H326 C359 0.931 . S
H327 C361 0.930 . S
H328 C362 0.932 . S
H329 C364 0.931 . S
H330 C365 0.929 . S
H331 C367 0.929 . S
H332 C368 0.931 . S
H333 C370 0.929 . S
N334 C354 1.433 . S
N334 C360 1.435 . S
N334 C366 1.423 . S
H335 C371 0.932 . S
C336 N311 1.433 . S
C336 C337 1.363 . S
C336 C341 1.370 . S
C337 H310 0.929 . S
C337 C336 1.363 . S
C337 C338 1.385 . S
C338 H312 0.930 . S
C338 C337 1.385 . S
C338 C339 1.357 . S
C339 C338 1.357 . S
C339 C340 1.406 . S
C340 H314 0.929 . S
C340 C339 1.406 . S
C340 C341 1.391 . S
C341 H313 0.931 . S
C341 C336 1.370 . S
C341 C340 1.391 . S
C342 N311 1.435 . S
C342 C343 1.358 . S
C342 C347 1.371 . S
C343 H315 0.930 . S
C343 C342 1.358 . S
C343 C344 1.405 . S
C344 H316 0.932 . S
C344 C343 1.405 . S
C344 C345 1.383 . S
C345 C344 1.383 . S
C345 C346 1.393 . S
C346 H318 0.931 . S
C346 C345 1.393 . S
C346 C347 1.382 . S
C347 H317 0.929 . S
C347 C342 1.371 . S
C347 C346 1.382 . S
C348 N311 1.423 . S
C348 C349 1.362 . S
C348 C353 1.388 . S
C349 H319 0.929 . S
C349 C348 1.362 . S
C349 C350 1.376 . S
C350 H321 0.931 . S
C350 C349 1.376 . S
C350 C351 1.396 . S
C351 C350 1.396 . S
C351 C352 1.348 . S
C351 C369 1.472 . S
C352 H322 0.929 . S
C352 C351 1.348 . S
C352 C353 1.443 . S
C353 H320 0.932 . S
C353 C348 1.388 . S
C353 C352 1.443 . S
C354 N334 1.433 . S
C354 C355 1.363 . S
C354 C359 1.370 . S
C355 H323 0.929 . S
C355 C354 1.363 . S
C355 C356 1.385 . S
C356 H324 0.930 . S
C356 C355 1.385 . S
C356 C357 1.357 . S
C357 C356 1.357 . S
C357 C358 1.406 . S
C358 H325 0.929 . S
C358 C357 1.406 . S
C358 C359 1.391 . S
C359 H326 0.931 . S
C359 C354 1.370 . S
C359 C358 1.391 . S
C360 N334 1.435 . S
C360 C361 1.358 . S
C360 C365 1.371 . S
C361 H327 0.930 . S
C361 C360 1.358 . S
C361 C362 1.405 . S
C362 H328 0.932 . S
C362 C361 1.405 . S
C362 C363 1.383 . S
C363 C362 1.383 . S
C363 C364 1.393 . S
C364 H329 0.931 . S
C364 C363 1.393 . S
C364 C365 1.382 . S
C365 H330 0.929 . S
C365 C360 1.371 . S
C365 C364 1.382 . S
C366 N334 1.423 . S
C366 C367 1.362 . S
C366 C371 1.388 . S
C367 H331 0.929 . S
C367 C366 1.362 . S
C367 C368 1.376 . S
C368 H332 0.931 . S
C368 C367 1.376 . S
C368 C369 1.396 . S
C369 C351 1.472 . S
C369 C368 1.396 . S
C369 C370 1.348 . S
C370 H333 0.929 . S
C370 C369 1.348 . S
C370 C371 1.443 . S
C371 H335 0.932 . S
C371 C366 1.388 . S
C371 C370 1.443 . S
H372 C399 0.929 . S
N373 C398 1.433 . S
N373 C404 1.435 . S
N373 C410 1.423 . S
H374 C400 0.930 . S
H375 C403 0.931 . S
H376 C402 0.929 . S
H377 C405 0.930 . S
H378 C406 0.932 . S
H379 C409 0.929 . S
H380 C408 0.931 . S
H381 C411 0.929 . S
H382 C415 0.932 . S
H383 C412 0.931 . S
H384 C414 0.929 . S
H385 C417 0.929 . S
H386 C418 0.930 . S
H387 C420 0.929 . S
H388 C421 0.931 . S
H389 C423 0.930 . S
H390 C424 0.932 . S
H391 C426 0.931 . S
H392 C427 0.929 . S
H393 C429 0.929 . S
H394 C430 0.931 . S
H395 C432 0.929 . S
N396 C416 1.433 . S
N396 C422 1.435 . S
N396 C428 1.423 . S
H397 C433 0.932 . S
C398 N373 1.433 . S
C398 C399 1.363 . S
C398 C403 1.370 . S
C399 H372 0.929 . S
C399 C398 1.363 . S
C399 C400 1.385 . S
C400 H374 0.930 . S
C400 C399 1.385 . S
C400 C401 1.357 . S
C401 C400 1.357 . S
C401 C402 1.406 . S
C402 H376 0.929 . S
C402 C401 1.406 . S
C402 C403 1.391 . S
C403 H375 0.931 . S
C403 C398 1.370 . S
C403 C402 1.391 . S
C404 N373 1.435 . S
C404 C405 1.358 . S
C404 C409 1.371 . S
C405 H377 0.930 . S
C405 C404 1.358 . S
C405 C406 1.405 . S
C406 H378 0.932 . S
C406 C405 1.405 . S
C406 C407 1.383 . S
C407 C406 1.383 . S
C407 C408 1.393 . S
C408 H380 0.931 . S
C408 C407 1.393 . S
C408 C409 1.382 . S
C409 H379 0.929 . S
C409 C404 1.371 . S
C409 C408 1.382 . S
C410 N373 1.423 . S
C410 C411 1.362 . S
C410 C415 1.388 . S
C411 H381 0.929 . S
C411 C410 1.362 . S
C411 C412 1.376 1_565 S
C412 H383 0.931 . S
C412 C411 1.376 1_545 S
C412 C413 1.396 . S
C413 C412 1.396 . S
C413 C414 1.348 1_545 S
C413 C431 1.472 . S
C414 H384 0.929 . S
C414 C413 1.348 1_565 S
C414 C415 1.443 . S
C415 H382 0.932 . S
C415 C410 1.388 . S
C415 C414 1.443 . S
C416 N396 1.433 . S
C416 C417 1.363 . S
C416 C421 1.370 . S
C417 H385 0.929 . S
C417 C416 1.363 . S
C417 C418 1.385 . S
C418 H386 0.930 . S
C418 C417 1.385 . S
C418 C419 1.357 . S
C419 C418 1.357 . S
C419 C420 1.406 . S
C420 H387 0.929 . S
C420 C419 1.406 . S
C420 C421 1.391 . S
C421 H388 0.931 . S
C421 C416 1.370 . S
C421 C420 1.391 . S
C422 N396 1.435 . S
C422 C423 1.358 . S
C422 C427 1.371 . S
C423 H389 0.930 . S
C423 C422 1.358 . S
C423 C424 1.405 . S
C424 H390 0.932 . S
C424 C423 1.405 . S
C424 C425 1.383 . S
C425 C424 1.383 . S
C425 C426 1.393 . S
C426 H391 0.931 . S
C426 C425 1.393 . S
C426 C427 1.382 . S
C427 H392 0.929 . S
C427 C422 1.371 . S
C427 C426 1.382 . S
C428 N396 1.423 . S
C428 C429 1.362 . S
C428 C433 1.388 . S
C429 H393 0.929 . S
C429 C428 1.362 . S
C429 C430 1.376 . S
C430 H394 0.931 . S
C430 C429 1.376 . S
C430 C431 1.396 . S
C431 C413 1.472 . S
C431 C430 1.396 . S
C431 C432 1.348 . S
C432 H395 0.929 . S
C432 C431 1.348 . S
C432 C433 1.443 . S
C433 H397 0.932 . S
C433 C428 1.388 . S
C433 C432 1.443 . S
H434 C461 0.929 . S
N435 C460 1.433 . S
N435 C466 1.435 . S
N435 C472 1.423 . S
H436 C462 0.930 . S
H437 C465 0.931 . S
H438 C464 0.929 . S
H439 C467 0.930 . S
H440 C468 0.932 . S
H441 C471 0.929 . S
H442 C470 0.931 . S
H443 C473 0.929 . S
H444 C477 0.932 . S
H445 C474 0.931 . S
H446 C476 0.929 . S
H447 C479 0.929 . S
H448 C480 0.930 . S
H449 C482 0.929 . S
H450 C483 0.931 . S
H451 C485 0.930 . S
H452 C486 0.932 . S
H453 C488 0.931 . S
H454 C489 0.929 . S
H455 C491 0.929 . S
H456 C492 0.931 1_565 S
H457 C494 0.929 . S
N458 C478 1.433 . S
N458 C484 1.435 . S
N458 C490 1.423 . S
H459 C495 0.932 . S
C460 N435 1.433 . S
C460 C461 1.363 . S
C460 C465 1.370 . S
C461 H434 0.929 . S
C461 C460 1.363 . S
C461 C462 1.385 . S
C462 H436 0.930 . S
C462 C461 1.385 . S
C462 C463 1.357 . S
C463 C462 1.357 . S
C463 C464 1.406 . S
C464 H438 0.929 . S
C464 C463 1.406 . S
C464 C465 1.391 . S
C465 H437 0.931 . S
C465 C460 1.370 . S
C465 C464 1.391 . S
C466 N435 1.435 . S
C466 C467 1.358 . S
C466 C471 1.371 . S
C467 H439 0.930 . S
C467 C466 1.358 . S
C467 C468 1.405 . S
C468 H440 0.932 . S
C468 C467 1.405 . S
C468 C469 1.383 . S
C469 C468 1.383 . S
C469 C470 1.393 . S
C470 H442 0.931 . S
C470 C469 1.393 . S
C470 C471 1.382 . S
C471 H441 0.929 . S
C471 C466 1.371 . S
C471 C470 1.382 . S
C472 N435 1.423 . S
C472 C473 1.362 . S
C472 C477 1.388 . S
C473 H443 0.929 . S
C473 C472 1.362 . S
C473 C474 1.376 1_455 S
C474 H445 0.931 . S
C474 C473 1.376 1_655 S
C474 C475 1.396 . S
C475 C474 1.396 . S
C475 C476 1.348 1_655 S
C475 C493 1.472 1_565 S
C476 H446 0.929 . S
C476 C475 1.348 1_455 S
C476 C477 1.443 . S
C477 H444 0.932 . S
C477 C472 1.388 . S
C477 C476 1.443 . S
C478 N458 1.433 . S
C478 C479 1.363 . S
C478 C483 1.370 . S
C479 H447 0.929 . S
C479 C478 1.363 . S
C479 C480 1.385 . S
C480 H448 0.930 . S
C480 C479 1.385 . S
C480 C481 1.357 . S
C481 C480 1.357 . S
C481 C482 1.406 . S
C482 H449 0.929 . S
C482 C481 1.406 . S
C482 C483 1.391 . S
C483 H450 0.931 . S
C483 C478 1.370 . S
C483 C482 1.391 . S
C484 N458 1.435 . S
C484 C485 1.358 . S
C484 C489 1.371 . S
C485 H451 0.930 . S
C485 C484 1.358 . S
C485 C486 1.405 . S
C486 H452 0.932 . S
C486 C485 1.405 . S
C486 C487 1.383 . S
C487 C486 1.383 . S
C487 C488 1.393 . S
C488 H453 0.931 . S
C488 C487 1.393 . S
C488 C489 1.382 . S
C489 H454 0.929 . S
C489 C484 1.371 . S
C489 C488 1.382 . S
C490 N458 1.423 . S
C490 C491 1.362 . S
C490 C495 1.388 . S
C491 H455 0.929 . S
C491 C490 1.362 . S
C491 C492 1.376 . S
C492 H456 0.931 1_545 S
C492 C491 1.376 . S
C492 C493 1.396 . S
C493 C475 1.472 1_545 S
C493 C492 1.396 . S
C493 C494 1.348 . S
C494 H457 0.929 . S
C494 C493 1.348 . S
C494 C495 1.443 . S
C495 H459 0.932 . S
C495 C490 1.388 . S
C495 C494 1.443 . S
Co496 O497 2.213 1_554 S
Co496 O498 2.085 1_554 S
Co496 O500 2.004 . S
Co496 O506 2.021 1_554 S
Co496 O508 2.137 . S
Co496 O509 2.244 . S
O497 Co496 2.213 1_556 S
O497 C504 1.249 . S
O498 Co496 2.085 1_556 S
O498 C504 1.265 . S
C499 O508 1.247 . S
C499 O509 1.272 . S
O500 Co496 2.004 . S
O500 C505 1.259 . S
Co501 O502 2.061 . S
Co501 O507 2.052 1_554 S
Co501 O509 2.135 . S
O502 Co501 2.061 . S
O502 C505 1.235 . S
C503 O506 1.238 . S
C503 O507 1.241 . S
C504 O497 1.249 . S
C504 O498 1.265 . S
C505 O500 1.259 . S
C505 O502 1.235 . S
O506 Co496 2.021 1_556 S
O506 C503 1.238 . S
O507 Co501 2.052 1_556 S
O507 C503 1.241 . S
O508 Co496 2.137 . S
O508 C499 1.247 . S
O509 Co496 2.244 . S
O509 C499 1.272 . S
O509 Co501 2.135 . S
Co510 O511 2.216 . S
Co510 O512 2.091 . S
Co510 O514 2.004 . S
Co510 O520 2.021 . S
Co510 O522 2.137 . S
Co510 O523 2.244 . S
O511 Co510 2.216 . S
O511 C518 1.247 . S
O512 Co510 2.091 . S
O512 C518 1.261 . S
C513 O522 1.247 . S
C513 O523 1.272 . S
O514 Co510 2.004 . S
O514 C519 1.259 . S
Co515 O516 2.061 . S
Co515 O521 2.052 . S
Co515 O523 2.135 . S
O516 Co515 2.061 . S
O516 C519 1.235 . S
C517 O520 1.238 . S
C517 O521 1.241 . S
C518 O511 1.247 . S
C518 O512 1.261 . S
C519 O514 1.259 . S
C519 O516 1.235 . S
O520 Co510 2.021 . S
O520 C517 1.238 . S
O521 Co515 2.052 . S
O521 C517 1.241 . S
O522 Co510 2.137 . S
O522 C513 1.247 . S
O523 Co510 2.244 . S
O523 C513 1.272 . S
O523 Co515 2.135 . S
Co524 O525 2.216 . S
Co524 O526 2.091 . S
Co524 O528 2.004 . S
Co524 O534 2.021 . S
Co524 O536 2.137 . S
Co524 O537 2.244 . S
O525 Co524 2.216 . S
O525 C532 1.247 . S
O526 Co524 2.091 . S
O526 C532 1.261 . S
C527 O536 1.247 . S
C527 O537 1.272 . S
O528 Co524 2.004 . S
O528 C533 1.259 . S
Co529 O530 2.061 . S
Co529 O535 2.052 . S
Co529 O537 2.135 . S
O530 Co529 2.061 . S
O530 C533 1.235 . S
C531 O534 1.238 . S
C531 O535 1.241 . S
C532 O525 1.247 . S
C532 O526 1.261 . S
C533 O528 1.259 . S
C533 O530 1.235 . S
O534 Co524 2.021 . S
O534 C531 1.238 . S
O535 Co529 2.052 . S
O535 C531 1.241 . S
O536 Co524 2.137 . S
O536 C527 1.247 . S
O537 Co524 2.244 . S
O537 C527 1.272 . S
O537 Co529 2.135 . S
Co538 O539 2.216 . S
Co538 O540 2.091 . S
Co538 O542 2.004 . S
Co538 O548 2.021 . S
Co538 O550 2.137 . S
Co538 O551 2.244 . S
O539 Co538 2.216 . S
O539 C546 1.247 . S
O540 Co538 2.091 . S
O540 C546 1.261 . S
C541 O550 1.247 . S
C541 O551 1.272 . S
O542 Co538 2.004 . S
O542 C547 1.259 . S
Co543 O544 2.061 . S
Co543 O549 2.052 . S
Co543 O551 2.135 . S
O544 Co543 2.061 . S
O544 C547 1.235 . S
C545 O548 1.238 . S
C545 O549 1.241 . S
C546 O539 1.247 . S
C546 O540 1.261 . S
C547 O542 1.259 . S
C547 O544 1.235 . S
O548 Co538 2.021 . S
O548 C545 1.238 . S
O549 Co543 2.052 . S
O549 C545 1.241 . S
O550 Co538 2.137 . S
O550 C541 1.247 . S
O551 Co538 2.244 . S
O551 C541 1.272 . S
O551 Co543 2.135 . S
Co552 O553 2.216 . S
Co552 O554 2.091 . S
Co552 O556 2.004 . S
Co552 O562 2.021 . S
Co552 O564 2.137 . S
Co552 O565 2.244 . S
O553 Co552 2.216 . S
O553 C560 1.247 . S
O554 Co552 2.091 . S
O554 C560 1.261 . S
C555 O564 1.247 . S
C555 O565 1.272 . S
O556 Co552 2.004 . S
O556 C561 1.259 . S
Co557 O558 2.061 . S
Co557 O563 2.052 . S
Co557 O565 2.135 . S
O558 Co557 2.061 . S
O558 C561 1.235 . S
C559 O562 1.238 . S
C559 O563 1.241 . S
C560 O553 1.247 . S
C560 O554 1.261 . S
C561 O556 1.259 . S
C561 O558 1.235 . S
O562 Co552 2.021 . S
O562 C559 1.238 . S
O563 Co557 2.052 . S
O563 C559 1.241 . S
O564 Co552 2.137 . S
O564 C555 1.247 . S
O565 Co552 2.244 . S
O565 C555 1.272 . S
O565 Co557 2.135 . S
Co566 O567 2.216 . S
Co566 O568 2.091 . S
Co566 O570 2.004 . S
Co566 O576 2.021 . S
Co566 O578 2.137 . S
Co566 O579 2.244 . S
O567 Co566 2.216 . S
O567 C574 1.247 . S
O568 Co566 2.091 . S
O568 C574 1.261 . S
C569 O578 1.247 . S
C569 O579 1.272 . S
O570 Co566 2.004 . S
O570 C575 1.259 . S
Co571 O572 2.061 . S
Co571 O577 2.052 . S
Co571 O579 2.135 . S
O572 Co571 2.061 . S
O572 C575 1.235 . S
C573 O576 1.238 . S
C573 O577 1.241 . S
C574 O567 1.247 . S
C574 O568 1.261 . S
C575 O570 1.259 . S
C575 O572 1.235 . S
O576 Co566 2.021 . S
O576 C573 1.238 . S
O577 Co571 2.052 . S
O577 C573 1.241 . S
O578 Co566 2.137 . S
O578 C569 1.247 . S
O579 Co566 2.244 . S
O579 C569 1.272 . S
O579 Co571 2.135 . S
Co580 O581 2.216 1_556 S
Co580 O582 2.091 1_556 S
Co580 O584 2.004 . S
Co580 O590 2.021 1_556 S
Co580 O592 2.137 . S
Co580 O593 2.244 . S
O581 Co580 2.216 1_554 S
O581 C588 1.247 . S
O582 Co580 2.091 1_554 S
O582 C588 1.261 . S
C583 O592 1.247 . S
C583 O593 1.272 . S
O584 Co580 2.004 . S
O584 C589 1.259 . S
Co585 O586 2.061 . S
Co585 O591 2.052 1_556 S
Co585 O593 2.135 . S
O586 Co585 2.061 . S
O586 C589 1.235 . S
C587 O590 1.238 . S
C587 O591 1.241 . S
C588 O581 1.247 . S
C588 O582 1.261 . S
C589 O584 1.259 . S
C589 O586 1.235 . S
O590 Co580 2.021 1_554 S
O590 C587 1.238 . S
O591 Co585 2.052 1_554 S
O591 C587 1.241 . S
O592 Co580 2.137 . S
O592 C583 1.247 . S
O593 Co580 2.244 . S
O593 C583 1.272 . S
O593 Co585 2.135 . S
Co594 O595 2.216 . S
Co594 O596 2.091 . S
Co594 O598 2.004 . S
Co594 O604 2.021 . S
Co594 O606 2.137 . S
Co594 O607 2.244 . S
O595 Co594 2.216 . S
O595 C602 1.247 . S
O596 Co594 2.091 . S
O596 C602 1.261 . S
C597 O606 1.247 . S
C597 O607 1.272 . S
O598 Co594 2.004 . S
O598 C603 1.259 . S
Co599 O600 2.061 . S
Co599 O605 2.052 . S
Co599 O607 2.135 . S
O600 Co599 2.061 . S
O600 C603 1.235 . S
C601 O604 1.238 . S
C601 O605 1.241 . S
C602 O595 1.247 . S
C602 O596 1.261 . S
C603 O598 1.259 . S
C603 O600 1.235 . S
O604 Co594 2.021 . S
O604 C601 1.238 . S
O605 Co599 2.052 . S
O605 C601 1.241 . S
O606 Co594 2.137 . S
O606 C597 1.247 . S
O607 Co594 2.244 . S
O607 C597 1.272 . S
O607 Co599 2.135 . S
C608 C609 1.387 . S
C608 H612 0.950 . S
C608 C617 1.390 . S
C609 C608 1.387 . S
C609 C611 1.387 . S
H610 C617 0.950 . S
C611 C609 1.387 . S
C611 C613 1.390 . S
C611 H615 0.950 . S
H612 C608 0.950 . S
C613 C611 1.390 . S
C613 C614 1.387 . S
C613 H616 0.950 . S
C614 C613 1.387 . S
C614 C617 1.387 . S
H615 C611 0.950 . S
H616 C613 0.950 . S
C617 C608 1.390 . S
C617 H610 0.950 . S
C617 C614 1.387 . S
C618 C619 1.387 . S
C618 H622 0.950 . S
C618 C627 1.390 . S
C619 C618 1.387 . S
C619 C621 1.387 . S
H620 C627 0.950 . S
C621 C619 1.387 . S
C621 C623 1.390 . S
C621 H625 0.950 . S
H622 C618 0.950 . S
C623 C621 1.390 . S
C623 C624 1.387 . S
C623 H626 0.950 . S
C624 C623 1.387 . S
C624 C627 1.387 . S
H625 C621 0.950 . S
H626 C623 0.950 . S
C627 C618 1.390 . S
C627 H620 0.950 . S
C627 C624 1.387 . S
C628 C629 1.387 . S
C628 H632 0.950 . S
C628 C637 1.390 . S
C629 C628 1.387 . S
C629 C631 1.387 . S
H630 C637 0.950 . S
C631 C629 1.387 . S
C631 C633 1.390 . S
C631 H635 0.950 . S
H632 C628 0.950 . S
C633 C631 1.390 . S
C633 C634 1.387 . S
C633 H636 0.950 . S
C634 C633 1.387 . S
C634 C637 1.387 . S
H635 C631 0.950 . S
H636 C633 0.950 . S
C637 C628 1.390 . S
C637 H630 0.950 . S
C637 C634 1.387 . S
C638 C639 1.387 1_556 S
C638 H642 0.950 . S
C638 C647 1.390 . S
C639 C638 1.387 1_554 S
C639 C641 1.387 . S
H640 C647 0.950 . S
C641 C639 1.387 . S
C641 C643 1.390 . S
C641 H645 0.950 . S
H642 C638 0.950 . S
C643 C641 1.390 . S
C643 C644 1.387 . S
C643 H646 0.950 . S
C644 C643 1.387 . S
C644 C647 1.387 1_554 S
H645 C641 0.950 . S
H646 C643 0.950 . S
C647 C638 1.390 . S
C647 H640 0.950 . S
C647 C644 1.387 1_556 S
C648 C649 1.387 . S
C648 H652 0.950 . S
C648 C657 1.390 . S
C649 C648 1.387 . S
C649 C651 1.387 1_554 S
H650 C657 0.950 . S
C651 C649 1.387 1_556 S
C651 C653 1.390 . S
C651 H655 0.950 . S
H652 C648 0.950 . S
C653 C651 1.390 . S
C653 C654 1.387 . S
C653 H656 0.950 . S
C654 C653 1.387 . S
C654 C657 1.387 1_556 S
H655 C651 0.950 . S
H656 C653 0.950 . S
C657 C648 1.390 . S
C657 H650 0.950 . S
C657 C654 1.387 1_554 S
C658 C659 1.387 . S
C658 H662 0.950 . S
C658 C667 1.390 . S
C659 C658 1.387 . S
C659 C661 1.387 . S
H660 C667 0.950 . S
C661 C659 1.387 . S
C661 C663 1.390 . S
C661 H665 0.950 . S
H662 C658 0.950 . S
C663 C661 1.390 . S
C663 C664 1.387 . S
C663 H666 0.950 . S
C664 C663 1.387 . S
C664 C667 1.387 . S
H665 C661 0.950 . S
H666 C663 0.950 . S
C667 C658 1.390 . S
C667 H660 0.950 . S
C667 C664 1.387 . S
C668 C669 1.387 . S
C668 H672 0.950 . S
C668 C677 1.390 . S
C669 C668 1.387 . S
C669 C671 1.387 . S
H670 C677 0.950 . S
C671 C669 1.387 . S
C671 C673 1.390 . S
C671 H675 0.950 . S
H672 C668 0.950 . S
C673 C671 1.390 . S
C673 C674 1.387 . S
C673 H676 0.950 . S
C674 C673 1.387 . S
C674 C677 1.387 . S
H675 C671 0.950 . S
H676 C673 0.950 . S
C677 C668 1.390 . S
C677 H670 0.950 . S
C677 C674 1.387 . S
C678 C679 1.387 . S
C678 H682 0.950 . S
C678 C687 1.390 . S
C679 C678 1.387 . S
C679 C681 1.387 . S
H680 C687 0.950 . S
C681 C679 1.387 . S
C681 C683 1.390 . S
C681 H685 0.950 . S
H682 C678 0.950 . S
C683 C681 1.390 . S
C683 C684 1.387 . S
C683 H686 0.950 . S
C684 C683 1.387 . S
C684 C687 1.387 . S
H685 C681 0.950 . S
H686 C683 0.950 . S
C687 C678 1.390 . S
C687 H680 0.950 . S
C687 C684 1.387 . S
C688 C689 1.387 . S
C688 H692 0.950 . S
C688 C697 1.390 . S
C689 C688 1.387 . S
C689 C691 1.387 . S
H690 C697 0.950 . S
C691 C689 1.387 . S
C691 C693 1.390 . S
C691 H695 0.950 . S
H692 C688 0.950 . S
C693 C691 1.390 . S
C693 C694 1.387 . S
C693 H696 0.950 . S
C694 C693 1.387 . S
C694 C697 1.387 . S
H695 C691 0.950 . S
H696 C693 0.950 . S
C697 C688 1.390 . S
C697 H690 0.950 . S
C697 C694 1.387 . S
C698 C699 1.424 . S
C698 H702 0.950 . S
C698 C707 1.390 . S
C699 C698 1.424 . S
C699 C701 1.356 1_554 S
H700 C707 0.950 . S
C701 C699 1.356 1_556 S
C701 C703 1.390 . S
C701 H705 0.950 . S
H702 C698 0.950 . S
C703 C701 1.390 . S
C703 C704 1.387 1_556 S
C703 H706 0.950 . S
C704 C703 1.387 1_554 S
C704 C707 1.387 . S
H705 C701 0.950 . S
H706 C703 0.950 . S
C707 C698 1.390 . S
C707 H700 0.950 . S
C707 C704 1.387 . S
C708 C709 1.387 . S
C708 H712 0.950 . S
C708 C717 1.390 . S
C709 C708 1.387 . S
C709 C711 1.387 . S
H710 C717 0.950 . S
C711 C709 1.387 . S
C711 C713 1.390 . S
C711 H715 0.950 . S
H712 C708 0.950 . S
C713 C711 1.390 . S
C713 C714 1.387 . S
C713 H716 0.950 . S
C714 C713 1.387 . S
C714 C717 1.387 . S
H715 C711 0.950 . S
H716 C713 0.950 . S
C717 C708 1.390 . S
C717 H710 0.950 . S
C717 C714 1.387 . S
C718 C719 1.387 . S
C718 H722 0.950 . S
C718 C727 1.390 . S
C719 C718 1.387 . S
C719 C721 1.387 . S
H720 C727 0.950 . S
C721 C719 1.387 . S
C721 C723 1.390 . S
C721 H725 0.950 . S
H722 C718 0.950 . S
C723 C721 1.390 . S
C723 C724 1.387 . S
C723 H726 0.950 . S
C724 C723 1.387 . S
C724 C727 1.387 . S
H725 C721 0.950 . S
H726 C723 0.950 . S
C727 C718 1.390 . S
C727 H720 0.950 . S
C727 C724 1.387 . S
C728 C729 1.387 . S
C728 H732 0.950 . S
C728 C737 1.390 . S
C729 C728 1.387 . S
C729 C731 1.387 . S
H730 C737 0.950 . S
C731 C729 1.387 . S
C731 C733 1.390 . S
C731 H735 0.950 . S
H732 C728 0.950 . S
C733 C731 1.390 . S
C733 C734 1.387 . S
C733 H736 0.950 . S
C734 C733 1.387 . S
C734 C737 1.387 . S
H735 C731 0.950 . S
H736 C733 0.950 . S
C737 C728 1.390 . S
C737 H730 0.950 . S
C737 C734 1.387 . S
C738 C739 1.387 . S
C738 H742 0.950 . S
C738 C747 1.390 . S
C739 C738 1.387 . S
C739 C741 1.387 . S
H740 C747 0.950 . S
C741 C739 1.387 . S
C741 C743 1.390 . S
C741 H745 0.950 . S
H742 C738 0.950 . S
C743 C741 1.390 . S
C743 C744 1.387 . S
C743 H746 0.950 . S
C744 C743 1.387 . S
C744 C747 1.387 . S
H745 C741 0.950 . S
H746 C743 0.950 . S
C747 C738 1.390 . S
C747 H740 0.950 . S
C747 C744 1.387 . S
C748 C749 1.387 . S
C748 H752 0.950 . S
C748 C757 1.390 . S
C749 C748 1.387 . S
C749 C751 1.387 1_554 S
H750 C757 0.950 . S
C751 C749 1.387 1_556 S
C751 C753 1.390 . S
C751 H755 0.950 . S
H752 C748 0.950 . S
C753 C751 1.390 . S
C753 C754 1.387 . S
C753 H756 0.950 . S
C754 C753 1.387 . S
C754 C757 1.387 1_556 S
H755 C751 0.950 . S
H756 C753 0.950 . S
C757 C748 1.390 . S
C757 H750 0.950 . S
C757 C754 1.387 1_554 S
C758 C759 1.387 . S
C758 H762 0.950 . S
C758 C767 1.390 . S
C759 C758 1.387 . S
C759 C761 1.387 . S
H760 C767 0.950 . S
C761 C759 1.387 . S
C761 C763 1.390 . S
C761 H765 0.950 . S
H762 C758 0.950 . S
C763 C761 1.390 . S
C763 C764 1.387 . S
C763 H766 0.950 . S
C764 C763 1.387 . S
C764 C767 1.387 . S
H765 C761 0.950 . S
H766 C763 0.950 . S
C767 C758 1.390 . S
C767 H760 0.950 . S
C767 C764 1.387 . S
C768 C769 1.387 . S
C768 H772 0.950 . S
C768 C777 1.390 . S
C769 C768 1.387 . S
C769 C771 1.387 . S
H770 C777 0.950 . S
C771 C769 1.387 . S
C771 C773 1.390 . S
C771 H775 0.950 . S
H772 C768 0.950 . S
C773 C771 1.390 . S
C773 C774 1.387 . S
C773 H776 0.950 . S
C774 C773 1.387 . S
C774 C777 1.387 . S
H775 C771 0.950 . S
H776 C773 0.950 . S
C777 C768 1.390 . S
C777 H770 0.950 . S
C777 C774 1.387 . S
C778 C779 1.387 . S
C778 H782 0.950 . S
C778 C787 1.390 . S
C779 C778 1.387 . S
C779 C781 1.387 . S
H780 C787 0.950 . S
C781 C779 1.387 . S
C781 C783 1.390 . S
C781 H785 0.950 . S
H782 C778 0.950 . S
C783 C781 1.390 . S
C783 C784 1.387 . S
C783 H786 0.950 . S
C784 C783 1.387 . S
C784 C787 1.387 . S
H785 C781 0.950 . S
H786 C783 0.950 . S
C787 C778 1.390 . S
C787 H780 0.950 . S
C787 C784 1.387 . S
C788 C789 1.387 . S
C788 H792 0.950 . S
C788 C797 1.390 . S
C789 C788 1.387 . S
C789 C791 1.387 . S
H790 C797 0.950 . S
C791 C789 1.387 . S
C791 C793 1.390 . S
C791 H795 0.950 . S
H792 C788 0.950 . S
C793 C791 1.390 . S
C793 C794 1.387 . S
C793 H796 0.950 . S
C794 C793 1.387 . S
C794 C797 1.387 . S
H795 C791 0.950 . S
H796 C793 0.950 . S
C797 C788 1.390 . S
C797 H790 0.950 . S
C797 C794 1.387 . S
C798 C799 1.387 . S
C798 H802 0.950 . S
C798 C807 1.390 . S
C799 C798 1.387 . S
C799 C801 1.387 . S
H800 C807 0.950 . S
C801 C799 1.387 . S
C801 C803 1.390 . S
C801 H805 0.950 . S
H802 C798 0.950 . S
C803 C801 1.390 . S
C803 C804 1.387 . S
C803 H806 0.950 . S
C804 C803 1.387 . S
C804 C807 1.387 . S
H805 C801 0.950 . S
H806 C803 0.950 . S
C807 C798 1.390 . S
C807 H800 0.950 . S
C807 C804 1.387 . S
C808 C809 1.387 . S
C808 H812 0.950 . S
C808 C817 1.390 . S
C809 C808 1.387 . S
C809 C811 1.387 . S
H810 C817 0.950 . S
C811 C809 1.387 . S
C811 C813 1.390 . S
C811 H815 0.950 . S
H812 C808 0.950 . S
C813 C811 1.390 . S
C813 C814 1.387 . S
C813 H816 0.950 . S
C814 C813 1.387 . S
C814 C817 1.387 . S
H815 C811 0.950 . S
H816 C813 0.950 . S
C817 C808 1.390 . S
C817 H810 0.950 . S
C817 C814 1.387 . S
C818 C819 1.387 . S
C818 H822 0.950 . S
C818 C827 1.390 . S
C819 C818 1.387 . S
C819 C821 1.387 . S
H820 C827 0.950 . S
C821 C819 1.387 . S
C821 C823 1.390 . S
C821 H825 0.950 . S
H822 C818 0.950 . S
C823 C821 1.390 . S
C823 C824 1.387 . S
C823 H826 0.950 . S
C824 C823 1.387 . S
C824 C827 1.387 . S
H825 C821 0.950 . S
H826 C823 0.950 . S
C827 C818 1.390 . S
C827 H820 0.950 . S
C827 C824 1.387 . S
C828 C829 1.387 . S
C828 H832 0.950 . S
C828 C837 1.390 . S
C829 C828 1.387 . S
C829 C831 1.387 . S
H830 C837 0.950 . S
C831 C829 1.387 . S
C831 C833 1.390 . S
C831 H835 0.950 . S
H832 C828 0.950 . S
C833 C831 1.390 . S
C833 C834 1.387 . S
C833 H836 0.950 . S
C834 C833 1.387 . S
C834 C837 1.387 . S
H835 C831 0.950 . S
H836 C833 0.950 . S
C837 C828 1.390 . S
C837 H830 0.950 . S
C837 C834 1.387 . S
C838 C839 1.387 . S
C838 H842 0.950 . S
C838 C847 1.390 . S
C839 C838 1.387 . S
C839 C841 1.387 . S
H840 C847 0.950 . S
C841 C839 1.387 . S
C841 C843 1.390 . S
C841 H845 0.950 . S
H842 C838 0.950 . S
C843 C841 1.390 . S
C843 C844 1.387 . S
C843 H846 0.950 . S
C844 C843 1.387 . S
C844 C847 1.387 . S
H845 C841 0.950 . S
H846 C843 0.950 . S
C847 C838 1.390 . S
C847 H840 0.950 . S
C847 C844 1.387 . S
C848 C849 1.387 . S
C848 H852 0.950 . S
C848 C857 1.390 . S
C849 C848 1.387 . S
C849 C851 1.387 . S
H850 C857 0.950 . S
C851 C849 1.387 . S
C851 C853 1.390 . S
C851 H855 0.950 . S
H852 C848 0.950 . S
C853 C851 1.390 . S
C853 C854 1.387 . S
C853 H856 0.950 . S
C854 C853 1.387 . S
C854 C857 1.387 . S
H855 C851 0.950 . S
H856 C853 0.950 . S
C857 C848 1.390 . S
C857 H850 0.950 . S
C857 C854 1.387 . S
C858 C859 1.387 . S
C858 H862 0.950 . S
C858 C867 1.390 . S
C859 C858 1.387 . S
C859 C861 1.387 . S
H860 C867 0.950 . S
C861 C859 1.387 . S
C861 C863 1.390 . S
C861 H865 0.950 . S
H862 C858 0.950 . S
C863 C861 1.390 . S
C863 C864 1.387 . S
C863 H866 0.950 . S
C864 C863 1.387 . S
C864 C867 1.387 . S
H865 C861 0.950 . S
H866 C863 0.950 . S
C867 C858 1.390 . S
C867 H860 0.950 . S
C867 C864 1.387 . S
C868 C869 1.387 . S
C868 H872 0.950 . S
C868 C877 1.390 . S
C869 C868 1.387 . S
C869 C871 1.387 . S
H870 C877 0.950 . S
C871 C869 1.387 . S
C871 C873 1.390 . S
C871 H875 0.950 . S
H872 C868 0.950 . S
C873 C871 1.390 . S
C873 C874 1.387 . S
C873 H876 0.950 . S
C874 C873 1.387 . S
C874 C877 1.387 . S
H875 C871 0.950 . S
H876 C873 0.950 . S
C877 C868 1.390 . S
C877 H870 0.950 . S
C877 C874 1.387 . S
C878 C879 1.387 . S
C878 H882 0.950 . S
C878 C887 1.390 . S
C879 C878 1.387 . S
C879 C881 1.387 . S
H880 C887 0.950 . S
C881 C879 1.387 . S
C881 C883 1.390 . S
C881 H885 0.950 . S
H882 C878 0.950 . S
C883 C881 1.390 . S
C883 C884 1.387 . S
C883 H886 0.950 . S
C884 C883 1.387 . S
C884 C887 1.387 . S
H885 C881 0.950 . S
H886 C883 0.950 . S
C887 C878 1.390 . S
C887 H880 0.950 . S
C887 C884 1.387 . S
C888 C889 1.387 . S
C888 H892 0.950 . S
C888 C897 1.390 . S
C889 C888 1.387 . S
C889 C891 1.387 . S
H890 C897 0.950 . S
C891 C889 1.387 . S
C891 C893 1.390 . S
C891 H895 0.950 . S
H892 C888 0.950 . S
C893 C891 1.390 . S
C893 C894 1.387 . S
C893 H896 0.950 . S
C894 C893 1.387 . S
C894 C897 1.387 . S
H895 C891 0.950 . S
H896 C893 0.950 . S
C897 C888 1.390 . S
C897 H890 0.950 . S
C897 C894 1.387 . S
C898 C899 1.387 . S
C898 H902 0.950 . S
C898 C907 1.390 . S
C899 C898 1.387 . S
C899 C901 1.387 . S
H900 C907 0.950 . S
C901 C899 1.387 . S
C901 C903 1.390 . S
C901 H905 0.950 . S
H902 C898 0.950 . S
C903 C901 1.390 . S
C903 C904 1.387 . S
C903 H906 0.950 . S
C904 C903 1.387 . S
C904 C907 1.387 . S
H905 C901 0.950 . S
H906 C903 0.950 . S
C907 C898 1.390 . S
C907 H900 0.950 . S
C907 C904 1.387 . S
C908 C909 1.387 . S
C908 H912 0.950 . S
C908 C917 1.390 . S
C909 C908 1.387 . S
C909 C911 1.387 . S
H910 C917 0.950 . S
C911 C909 1.387 . S
C911 C913 1.390 . S
C911 H915 0.950 . S
H912 C908 0.950 . S
C913 C911 1.390 . S
C913 C914 1.387 . S
C913 H916 0.950 . S
C914 C913 1.387 . S
C914 C917 1.387 . S
H915 C911 0.950 . S
H916 C913 0.950 . S
C917 C908 1.390 . S
C917 H910 0.950 . S
C917 C914 1.387 . S
C918 C919 1.387 . S
C918 H922 0.950 . S
C918 C927 1.390 . S
C919 C918 1.387 . S
C919 C921 1.387 . S
H920 C927 0.950 . S
C921 C919 1.387 . S
C921 C923 1.390 . S
C921 H925 0.950 . S
H922 C918 0.950 . S
C923 C921 1.390 . S
C923 C924 1.387 . S
C923 H926 0.950 . S
C924 C923 1.387 . S
C924 C927 1.387 . S
H925 C921 0.950 . S
H926 C923 0.950 . S
C927 C918 1.390 . S
C927 H920 0.950 . S
C927 C924 1.387 . S
C614 C518 1.593 . S
C609 C35 1.364 . S
C624 C532 1.584 . S
C619 C115 1.381 . S
C634 C547 1.596 . S
C629 C177 1.391 . S
C639 C221 1.361 . S
C644 C505 1.582 . S
C649 C283 1.354 1_554 S
C654 C504 1.581 . S
C659 C363 1.380 . S
C664 C519 1.587 . S
C674 C533 1.632 . S
C669 C407 1.398 . S
C684 C546 1.601 . S
C679 C469 1.376 . S
C689 C159 1.356 . S
C694 C574 1.583 . S
C704 C588 1.618 . S
C699 C239 1.425 . S
C709 C53 1.386 . S
C714 C603 1.594 . S
C724 C560 1.565 . S
C719 C97 1.343 . S
C729 C425 1.393 . S
C734 C561 1.600 . S
C739 C487 1.387 . S
C744 C575 1.590 . S
C754 C589 1.596 . S
C749 C301 1.395 1_554 S
C759 C345 1.386 . S
C764 C602 1.612 . S
C774 C527 1.906 . S
C769 C29 1.904 . S
C784 C545 1.893 . S
C779 C109 1.856 . S
C789 C171 1.859 . S
C794 C503 1.902 . S
C799 C215 1.924 . S
C804 C513 1.925 . S
C809 C277 1.902 . S
C814 C541 1.903 . S
C824 C499 1.916 . S
C819 C357 1.857 . S
C834 C517 1.893 . S
C829 C401 1.911 . S
C844 C531 1.887 . S
C839 C463 1.907 . S
C854 C583 1.903 . S
C849 C153 1.903 . S
C864 C601 1.880 . S
C859 C233 1.849 . S
C869 C47 1.853 . S
C874 C555 1.909 . S
C884 C569 1.905 . S
C879 C91 1.904 . S
C894 C597 1.923 . S
C889 C419 1.865 . S
C899 C481 1.867 . S
C904 C559 1.912 . S
C914 C573 1.903 . S
C909 C295 1.861 . S
C924 C587 1.889 . S
C919 C339 1.908 . S
