# Generated by pormake.
# Topology pts, (4,4)-cn, num edge types: 1
# Building blocks:
#     Node 0, Type 0, BuildingBlock: AZAVOO_clean_linker_0, # of connection points: 4
#     Node 1, Type 0, BuildingBlock: AZAVOO_clean_linker_0, # of connection points: 4
#     Node 2, Type 1, BuildingBlock: AZAVOO_clean_sbu_0, # of connection points: 4
#     Node 3, Type 1, BuildingBlock: AZAVOO_clean_sbu_0, # of connection points: 4
#     Edge 4, Type (0, 1), BuildingBlock: XUDNAN_clean_linker_2, # of connection points: 2
#     Edge 5, Type (0, 1), BuildingBlock: XUDNAN_clean_linker_2, # of connection points: 2
#     Edge 6, Type (0, 1), BuildingBlock: XUDNAN_clean_linker_2, # of connection points: 2
#     Edge 7, Type (0, 1), BuildingBlock: XUDNAN_clean_linker_2, # of connection points: 2
#     Edge 8, Type (0, 1), BuildingBlock: XUDNAN_clean_linker_2, # of connection points: 2
#     Edge 9, Type (0, 1), BuildingBlock: XUDNAN_clean_linker_2, # of connection points: 2
#     Edge 10, Type (0, 1), BuildingBlock: XUDNAN_clean_linker_2, # of connection points: 2
#     Edge 11, Type (0, 1), BuildingBlock: XUDNAN_clean_linker_2, # of connection points: 2
# Relax obj value: 0.120
# Max RMSD: 0.230
# Mean RMSD: 0.159
data_MOF--net-pts--node1-AZAVOO_clean_sbu_0--node2-AZAVOO_clean_linker_0--edge1-XUDNAN_clean_linker_2
_symmetry_space_group_name_H-M    P1
_symmetry_Int_Tables_number       1
_symmetry_cell_setting            triclinic
loop_
_symmetry_equiv_pos_as_xyz
'x, y, z'
_cell_length_a     26.317218
_cell_length_b     26.929626
_cell_length_c     46.588677
_cell_angle_alpha  91.670723
_cell_angle_beta   98.357316
_cell_angle_gamma 89.974618
loop_
_atom_site_label
_atom_site_type_symbol
_atom_site_fract_x
_atom_site_fract_y
_atom_site_fract_z
_atom_type_partial_charge
H0 H 0.45703 0.11341 0.80686 0.0
H1 H 0.8794 0.97495 0.05976 0.0
H2 H 0.45503 0.16264 0.96436 0.0
H3 H 0.3669 0.16059 0.93824 0.0
H4 H 0.35224 0.00757 0.96081 0.0
H5 H 0.43979 0.01012 0.98756 0.0
H6 H 0.55427 0.14679 0.92704 0.0
H7 H 0.52066 0.14584 0.87519 0.0
H8 H 0.4498 0.00301 0.88319 0.0
H9 H 0.48422 0.00414 0.93489 0.0
H10 H 0.67608 0.1225 0.96016 0.0
H11 H 0.73139 0.10027 0.924 0.0
H12 H 0.6417 0.96625 0.90162 0.0
H13 H 0.59057 0.98648 0.93972 0.0
H14 H 0.69311 0.13786 0.01982 0.0
H15 H 0.78297 0.12091 0.03873 0.0
H16 H 0.75162 0.96315 0.02952 0.0
H17 H 0.66179 0.98074 0.01077 0.0
H18 H 0.62439 0.15931 0.05731 0.0
H19 H 0.68216 0.15775 0.10378 0.0
H20 H 0.65261 0.00102 0.10915 0.0
H21 H 0.59691 0.00218 0.06211 0.0
H22 H 0.47547 0.16727 0.02927 0.0
H23 H 0.40815 0.1732 0.06032 0.0
H24 H 0.43727 0.02104 0.08494 0.0
H25 H 0.50228 0.01487 0.05263 0.0
O26 O 0.46953 0.11323 0.82746 0.0
O27 O 0.44077 0.0366 0.83184 0.0
O28 O 0.85926 0.06407 0.05419 0.0
O29 O 0.84434 0.98267 0.0518 0.0
C30 C 0.50965 0.08373 0.98728 0.0
C31 C 0.5426 0.07633 0.96612 0.0
C32 C 0.5957 0.069 0.97475 0.0
C33 C 0.61592 0.07079 0.00451 0.0
C34 C 0.58309 0.07933 0.02565 0.0
C35 C 0.52976 0.08514 0.0171 0.0
C36 C 0.45356 0.08651 0.97776 0.0
C37 C 0.43201 0.12936 0.96464 0.0
C38 C 0.38188 0.12818 0.94983 0.0
C39 C 0.35325 0.08397 0.94774 0.0
C40 C 0.3737 0.04211 0.96247 0.0
C41 C 0.42344 0.04357 0.9777 0.0
C42 C 0.52136 0.07575 0.93474 0.0
C43 C 0.53141 0.11539 0.91754 0.0
C44 C 0.51211 0.11477 0.88795 0.0
C45 C 0.48257 0.07433 0.87504 0.0
C46 C 0.47247 0.03468 0.89243 0.0
C47 C 0.49181 0.03537 0.922 0.0
C48 C 0.62934 0.05608 0.95264 0.0
C49 C 0.66913 0.08794 0.94774 0.0
C50 C 0.70022 0.07544 0.9267 0.0
C51 C 0.69133 0.03131 0.90968 0.0
C52 C 0.65086 -9e-05 0.9146 0.0
C53 C 0.62088 0.01176 0.93613 0.0
C54 C 0.67115 0.0605 0.01391 0.0
C55 C 0.70588 0.09969 0.02173 0.0
C56 C 0.75711 0.08989 0.03256 0.0
C57 C 0.77446 0.04063 0.0357 0.0
C58 C 0.73954 0.00148 0.02742 0.0
C59 C 0.6883 0.01137 0.0166 0.0
C60 C 0.6058 0.08103 0.05665 0.0
C61 C 0.62913 0.12501 0.06899 0.0
C62 C 0.66235 0.12403 0.09525 0.0
C63 C 0.67148 0.07928 0.10975 0.0
C64 C 0.64561 0.03595 0.09832 0.0
C65 C 0.61344 0.03669 0.07172 0.0
C66 C 0.49426 0.09085 0.03898 0.0
C67 C 0.46764 0.13549 0.04169 0.0
C68 C 0.42928 0.1388 0.05952 0.0
C69 C 0.41695 0.09751 0.07508 0.0
C70 C 0.445 0.05333 0.07293 0.0
C71 C 0.48293 0.04995 0.05488 0.0
C72 C 0.46288 0.07342 0.84352 0.0
C73 C 0.8286 0.03004 0.04776 0.0
H74 H 0.03917 0.39275 0.31889 0.0
H75 H 0.08406 0.87527 0.53503 0.0
H76 H 0.01801 0.41389 0.48314 0.0
H77 H 0.03889 0.33584 0.45922 0.0
H78 H 0.18962 0.39437 0.45215 0.0
H79 H 0.16931 0.47009 0.47746 0.0
H80 H 0.99636 0.47018 0.43141 0.0
H81 H 1.00034 0.43093 0.38377 0.0
H82 H 0.14488 0.50542 0.38054 0.0
H83 H 0.14081 0.54375 0.42846 0.0
H84 H 0.97613 0.58267 0.42579 0.0
H85 H 0.96376 0.63135 0.38178 0.0
H86 H 0.11051 0.70318 0.40907 0.0
H87 H 0.12343 0.65268 0.45222 0.0
H88 H 0.97774 0.65968 0.48323 0.0
H89 H 0.96998 0.74915 0.49241 0.0
H90 H 0.13045 0.75565 0.52944 0.0
H91 H 0.13783 0.66638 0.51976 0.0
H92 H 0.99789 0.61908 0.5472 0.0
H93 H 0.01443 0.67036 0.5917 0.0
H94 H 0.17258 0.62215 0.6042 0.0
H95 H 0.15575 0.57138 0.55929 0.0
H96 H 0.99435 0.51597 0.5467 0.0
H97 H 0.98091 0.46074 0.58498 0.0
H98 H 0.12228 0.38451 0.57448 0.0
H99 H 0.13855 0.44453 0.53876 0.0
O100 O 0.0381 0.40914 0.33755 0.0
O101 O 0.11217 0.44849 0.33684 0.0
O102 O 0.0041 0.83481 0.51109 0.0
O103 O 0.08618 0.83994 0.53083 0.0
C104 C 0.07574 0.4991 0.48719 0.0
C105 C 0.06746 0.53065 0.46321 0.0
C106 C 0.05964 0.58188 0.4676 0.0
C107 C 0.06248 0.60205 0.49607 0.0
C108 C 0.06909 0.57019 0.52 0.0
C109 C 0.07296 0.51823 0.51548 0.0
C110 C 0.09211 0.44752 0.48187 0.0
C111 C 0.05626 0.40865 0.47759 0.0
C112 C 0.06804 0.36453 0.46341 0.0
C113 C 0.11554 0.35915 0.453 0.0
C114 C 0.15286 0.39664 0.45991 0.0
C115 C 0.14135 0.44016 0.47445 0.0
C116 C 0.06831 0.50971 0.43336 0.0
C117 C 0.02876 0.47805 0.42033 0.0
C118 C 0.03115 0.45569 0.39312 0.0
C119 C 0.07299 0.46495 0.37837 0.0
C120 C 0.11214 0.49745 0.39133 0.0
C121 C 0.10981 0.5196 0.41861 0.0
C122 C 0.05058 0.61432 0.44219 0.0
C123 C 0.00549 0.60903 0.4222 0.0
C124 C 0.99843 0.63697 0.39716 0.0
C125 C 0.03629 0.6709 0.39178 0.0
C126 C 0.08104 0.67666 0.41222 0.0
C127 C 0.08822 0.64842 0.43711 0.0
C128 C 0.05829 0.6566 0.50087 0.0
C129 C 0.01122 0.6806 0.49314 0.0
C130 C 0.00688 0.73164 0.49849 0.0
C131 C 0.0496 0.75955 0.51173 0.0
C132 C 0.0968 0.73532 0.51925 0.0
C133 C 0.10112 0.68433 0.51378 0.0
C134 C 0.07576 0.59202 0.54991 0.0
C135 C 0.03573 0.6186 0.55997 0.0
C136 C 0.04524 0.64764 0.58548 0.0
C137 C 0.09497 0.65052 0.60131 0.0
C138 C 0.13406 0.62097 0.59226 0.0
C139 C 0.12443 0.59175 0.56678 0.0
C140 C 0.06726 0.48434 0.53955 0.0
C141 C 0.02314 0.4881 0.55313 0.0
C142 C 0.01499 0.45561 0.57476 0.0
C143 C 0.04978 0.41698 0.5827 0.0
C144 C 0.0946 0.41381 0.56938 0.0
C145 C 0.10362 0.44765 0.5484 0.0
C146 C 0.07578 0.4405 0.34968 0.0
C147 C 0.04506 0.81366 0.5178 0.0
Mg148 Mg 0.10726 0.0138 0.2525 0.0
O149 O 0.02094 0.03217 0.23846 0.0
O150 O 0.98143 0.01082 0.27577 0.0
Mg151 Mg 0.03832 0.98171 0.31271 0.0
C152 C 0.98026 0.02779 0.25037 0.0
C153 C 0.15093 0.03086 0.19552 0.0
O154 O 0.14692 0.98225 0.19545 0.0
O155 O 0.11706 0.08255 0.28285 0.0
O156 O 0.07462 0.05915 0.31865 0.0
O157 O 0.09317 0.93492 0.23554 0.0
O158 O 0.0869 0.96149 0.28023 0.0
C159 C 0.10086 0.09078 0.30709 0.0
C160 C 0.08153 0.92623 0.26095 0.0
O161 O 0.13389 0.0563 0.21547 0.0
Mg162 Mg 0.99911 0.02342 0.72563 0.0
O163 O 0.06073 0.03801 0.76512 0.0
O164 O 0.13722 0.0384 0.74956 0.0
Mg165 Mg 0.12445 0.02873 0.70023 0.0
C166 C 0.1096 0.04157 0.76989 0.0
C167 C 0.90557 0.00298 0.7534 0.0
O168 O 0.90907 0.96567 0.735 0.0
O169 O 0.00478 0.10382 0.71232 0.0
O170 O 0.08068 0.10288 0.69598 0.0
O171 O 0.00992 0.94177 0.72945 0.0
O172 O 0.05296 0.98822 0.70293 0.0
C173 C 0.03987 0.12536 0.70088 0.0
C174 C 0.04487 0.94516 0.71277 0.0
O175 O 0.93688 0.03908 0.75408 0.0
H176 H 0.34693 0.02435 0.08128 0.0
H177 H 0.38984 0.17576 0.10912 0.0
H178 H 0.31952 0.17854 0.13895 0.0
H179 H 0.20872 0.03755 0.07943 0.0
H180 H 0.20158 0.97665 0.09344 0.0
H181 H 0.25195 0.98838 0.0721 0.0
H182 H 0.31985 0.95759 0.1137 0.0
H183 H 0.26972 0.94541 0.13502 0.0
H184 H 0.32266 0.98549 0.14956 0.0
H185 H 0.24755 0.16263 0.16829 0.0
H186 H 0.18412 0.12784 0.19659 0.0
H187 H 0.19092 0.98625 0.15036 0.0
C188 C 0.34178 0.05816 0.09366 0.0
C189 C 0.37409 0.09986 0.09276 0.0
C190 C 0.36525 0.14353 0.10905 0.0
C191 C 0.32543 0.14544 0.12613 0.0
C192 C 0.29464 0.10345 0.12665 0.0
C193 C 0.30254 0.0606 0.11089 0.0
C194 C 0.2664 0.01948 0.11652 0.0
C195 C 0.23 0.00466 0.08871 0.0
C196 C 0.29645 0.97435 0.12948 0.0
C197 C 0.23771 0.04545 0.13849 0.0
C198 C 0.25393 0.0941 0.14376 0.0
C199 C 0.2343 0.1247 0.16415 0.0
C200 C 0.19816 0.10465 0.18007 0.0
C201 C 0.18248 0.05432 0.1757 0.0
C202 C 0.20183 0.02492 0.15414 0.0
H203 H 0.11801 0.36312 0.62085 0.0
H204 H 0.95472 0.38294 0.5919 0.0
H205 H 0.93517 0.31965 0.62545 0.0
H206 H 0.11051 0.23338 0.62013 0.0
H207 H 0.15944 0.22603 0.65105 0.0
H208 H 0.16071 0.27925 0.62874 0.0
H209 H 0.1609 0.33738 0.6741 0.0
H210 H 0.15918 0.28418 0.69655 0.0
H211 H 0.11072 0.33154 0.69635 0.0
H212 H 0.93257 0.24974 0.65938 0.0
H213 H 0.94775 0.17214 0.68624 0.0
H214 H 0.11213 0.19213 0.68937 0.0
C215 C 0.07805 0.35455 0.62148 0.0
C216 C 0.03811 0.37935 0.60385 0.0
C217 C 0.98638 0.36634 0.60574 0.0
C218 C 0.97468 0.33001 0.62471 0.0
C219 C 0.01497 0.30623 0.6415 0.0
C220 C 0.06563 0.31752 0.6398 0.0
C221 C 0.10173 0.28244 0.65753 0.0
C222 C 0.13503 0.25357 0.6382 0.0
C223 C 0.1351 0.31058 0.68262 0.0
C224 C 0.06335 0.24877 0.66869 0.0
C225 C 0.01354 0.26397 0.65987 0.0
C226 C 0.97143 0.23764 0.66661 0.0
C227 C 0.98043 0.19371 0.68198 0.0
C228 C 0.03109 0.17607 0.68986 0.0
C229 C 0.07297 0.20476 0.68371 0.0
H230 H 0.77467 0.09113 0.11204 0.0
H231 H 0.65664 0.0589 0.16473 0.0
H232 H 0.72344 0.0487 0.20746 0.0
H233 H 0.86192 0.00026 0.14227 0.0
H234 H 0.91886 0.03658 0.14053 0.0
H235 H 0.86171 0.04656 0.1151 0.0
H236 H 0.86316 0.13979 0.13054 0.0
H237 H 0.9203 0.13006 0.15615 0.0
H238 H 0.86426 0.1573 0.16828 0.0
H239 H 0.80205 0.03845 0.24328 0.0
H240 H 0.88775 0.02401 0.27021 0.0
H241 H 0.9566 0.05936 0.19388 0.0
C242 C 0.76314 0.08299 0.13281 0.0
C243 C 0.71084 0.07665 0.13556 0.0
C244 C 0.69667 0.06443 0.16258 0.0
C245 C 0.73425 0.05869 0.18684 0.0
C246 C 0.78566 0.06481 0.18347 0.0
C247 C 0.80026 0.0764 0.15713 0.0
C248 C 0.85828 0.07706 0.15891 0.0
C249 C 0.87624 0.03777 0.13797 0.0
C250 C 0.87763 0.12916 0.15313 0.0
C251 C 0.87403 0.06353 0.1903 0.0
C252 C 0.83144 0.05724 0.20406 0.0
C253 C 0.83573 0.04347 0.23282 0.0
C254 C 0.88479 0.03529 0.24791 0.0
C255 C 0.92925 0.04046 0.23423 0.0
C256 C 0.92358 0.05533 0.20506 0.0
H257 H 0.03903 0.67513 0.6449 0.0
H258 H 0.17628 0.71461 0.60917 0.0
H259 H 0.18748 0.78892 0.64158 0.0
H260 H 0.9889 0.78963 0.64547 0.0
H261 H 0.96249 0.78613 0.67895 0.0
H262 H 0.97183 0.73031 0.65839 0.0
H263 H 0.02778 0.69381 0.70319 0.0
H264 H 0.01827 0.74961 0.72408 0.0
H265 H 0.08241 0.72846 0.72127 0.0
H266 H 0.17319 0.86681 0.66907 0.0
H267 H 0.13702 0.94 0.69176 0.0
H268 H 0.01045 0.84993 0.71109 0.0
C269 C 0.07236 0.6986 0.64465 0.0
C270 C 0.10702 0.68891 0.62474 0.0
C271 C 0.14986 0.72072 0.62469 0.0
C272 C 0.15646 0.76315 0.64298 0.0
C273 C 0.12036 0.77281 0.66151 0.0
C274 C 0.0796 0.74097 0.66288 0.0
C275 C 0.04295 0.76269 0.68206 0.0
C276 C 0.98836 0.76749 0.6652 0.0
C277 C 0.04287 0.7318 0.70927 0.0
C278 C 0.06763 0.81302 0.6897 0.0
C279 C 0.11271 0.81784 0.67805 0.0
C280 C 0.13881 0.86305 0.67907 0.0
C281 C 0.11781 0.90456 0.69184 0.0
C282 C 0.07129 0.90049 0.70347 0.0
C283 C 0.04684 0.85379 0.70309 0.0
H284 H 0.34362 0.02959 0.89792 0.0
H285 H 0.26015 0.12948 0.94848 0.0
H286 H 0.18474 0.12478 0.90953 0.0
H287 H 0.30236 0.08348 0.83117 0.0
H288 H 0.29945 0.02585 0.81028 0.0
H289 H 0.34312 0.03237 0.84368 0.0
H290 H 0.30328 0.95471 0.86328 0.0
H291 H 0.25926 0.94788 0.82996 0.0
H292 H 0.23507 0.95252 0.8642 0.0
H293 H 0.11963 0.10995 0.86395 0.0
H294 H 0.07345 0.09278 0.81437 0.0
H295 H 0.20393 0.00831 0.79304 0.0
C296 C 0.3089 0.04947 0.90098 0.0
C297 C 0.30668 0.07897 0.9262 0.0
C298 C 0.26174 0.1061 0.92932 0.0
C299 C 0.21898 0.10354 0.9074 0.0
C300 C 0.22247 0.07426 0.88253 0.0
C301 C 0.26654 0.04804 0.87919 0.0
C302 C 0.26267 0.02296 0.84952 0.0
C303 C 0.30435 0.04236 0.83265 0.0
C304 C 0.2652 0.96615 0.85189 0.0
C305 C 0.20978 0.03961 0.83639 0.0
C306 C 0.18665 0.06831 0.85589 0.0
C307 C 0.13743 0.08757 0.84852 0.0
C308 C 0.11149 0.07759 0.8204 0.0
C309 C 0.13541 0.04961 0.79994 0.0
C310 C 0.18499 0.03024 0.80819 0.0
H311 H 0.04471 0.31481 0.41087 0.0
H312 H 0.20614 0.31031 0.44762 0.0
H313 H 0.22158 0.24885 0.4096 0.0
H314 H 0.03235 0.18403 0.39663 0.0
H315 H 0.98744 0.19068 0.36387 0.0
H316 H 0.99067 0.23729 0.39254 0.0
H317 H 0.00652 0.30471 0.35608 0.0
H318 H 0.00416 0.25796 0.32742 0.0
H319 H 0.05959 0.29788 0.33581 0.0
H320 H 0.21947 0.18794 0.3672 0.0
H321 H 0.19705 0.12159 0.32943 0.0
H322 H 0.03634 0.16048 0.32408 0.0
C323 C 0.08325 0.30046 0.4114 0.0
C324 C 0.12423 0.31794 0.43228 0.0
C325 C 0.17417 0.29846 0.43158 0.0
C326 C 0.18339 0.2635 0.41005 0.0
C327 C 0.14222 0.24791 0.38954 0.0
C328 C 0.09297 0.26498 0.39045 0.0
C329 C 0.05468 0.23969 0.36728 0.0
C330 C 0.01391 0.21122 0.3809 0.0
C331 C 0.02977 0.27731 0.34535 0.0
C332 C 0.08993 0.2048 0.35359 0.0
C333 C 0.14053 0.21112 0.36613 0.0
C334 C 0.18002 0.18269 0.35719 0.0
C335 C 0.1671 0.14551 0.33562 0.0
C336 C 0.11521 0.13675 0.32388 0.0
C337 C 0.07636 0.16723 0.33257 0.0
H338 H 0.73823 0.09401 0.87516 0.0
H339 H 0.7195 0.93778 0.89269 0.0
H340 H 0.7684 0.91481 0.85334 0.0
H341 H 0.73211 0.08279 0.79839 0.0
H342 H 0.78219 0.12764 0.79635 0.0
H343 H 0.7436 0.13267 0.82523 0.0
H344 H 0.82568 0.13151 0.86338 0.0
H345 H 0.86457 0.12694 0.83463 0.0
H346 H 0.87066 0.08119 0.86239 0.0
H347 H 0.81579 0.90802 0.81113 0.0
H348 H 0.86852 0.91776 0.77215 0.0
H349 H 0.86555 0.07805 0.78494 0.0
C350 C 0.74484 0.05494 0.87112 0.0
C351 C 0.72376 0.01781 0.8869 0.0
C352 C 0.7334 0.96713 0.88045 0.0
C353 C 0.76162 0.95357 0.85824 0.0
C354 C 0.78103 0.99103 0.84296 0.0
C355 C 0.77398 0.04067 0.84941 0.0
C356 C 0.80106 0.07344 0.83037 0.0
C357 C 0.76242 0.10605 0.81147 0.0
C358 C 0.84299 0.10513 0.84879 0.0
C359 C 0.82415 0.03432 0.81213 0.0
C360 C 0.81136 0.98709 0.81956 0.0
C361 C 0.8265 0.94476 0.80527 0.0
C362 C 0.85621 0.95075 0.78305 0.0
C363 C 0.87125 -0.00135 0.77561 0.0
C364 C 0.85487 0.041 0.79034 0.0
H365 H 0.10886 0.69517 0.35785 0.0
H366 H 0.94794 0.71524 0.3661 0.0
H367 H 0.9383 0.77111 0.32468 0.0
H368 H 0.13354 0.81712 0.34758 0.0
H369 H 0.17833 0.80638 0.32224 0.0
H370 H 0.16964 0.76014 0.3481 0.0
H371 H 0.14754 0.69483 0.30611 0.0
H372 H 0.15575 0.74127 0.28004 0.0
H373 H 0.09633 0.70695 0.27706 0.0
H374 H 0.9495 0.83557 0.28895 0.0
H375 H 0.98176 0.90537 0.26321 0.0
H376 H 0.13504 0.84436 0.27807 0.0
C377 C 0.07136 0.71068 0.35066 0.0
C378 C 0.02913 0.70067 0.36518 0.0
C379 C 0.98068 0.72164 0.35504 0.0
C380 C 0.97482 0.75342 0.33148 0.0
C381 C 0.01762 0.7635 0.31813 0.0
C382 C 0.06495 0.7426 0.32732 0.0
C383 C 0.10631 0.76417 0.31191 0.0
C384 C 0.14945 0.7884 0.33375 0.0
C385 C 0.12773 0.72442 0.29263 0.0
C386 C 0.07544 0.80248 0.29377 0.0
C387 C 0.02406 0.80071 0.29713 0.0
C388 C 0.98921 0.83635 0.28538 0.0
C389 C 0.0077 0.8757 0.27074 0.0
C390 C 0.06031 0.87877 0.26798 0.0
C391 C 0.09424 0.84117 0.27887 0.0
loop_
_geom_bond_atom_site_label_1
_geom_bond_atom_site_label_2
_geom_bond_distance
_geom_bond_site_symmetry_2
_ccdc_geom_bond_type
H0 O26 0.856 . S
H1 O29 0.854 . S
H2 C37 0.930 . S
H3 C38 0.930 . S
H4 C40 0.930 1_565 S
H5 C41 0.930 1_565 S
H6 C43 0.931 . S
H7 C44 0.930 . S
H8 C46 0.930 . S
H9 C47 0.929 . S
H10 C49 0.930 . S
H11 C50 0.931 . S
H12 C52 0.930 . S
H13 C53 0.929 . S
H14 C55 0.931 . S
H15 C56 0.930 . S
H16 C58 0.930 . S
H17 C59 0.932 . S
H18 C61 0.930 . S
H19 C62 0.929 . S
H20 C64 0.931 1_565 S
H21 C65 0.930 1_565 S
H22 C67 0.929 . S
H23 C68 0.931 . S
H24 C70 0.930 . S
H25 C71 0.929 . S
O26 H0 0.856 . S
O26 C72 1.300 . S
O27 C72 1.209 1_565 S
O28 C73 1.199 . S
O29 H1 0.854 . S
O29 C73 1.297 1_565 S
C30 C31 1.404 . S
C30 C35 1.397 1_556 S
C30 C36 1.492 . S
C31 C30 1.404 . S
C31 C32 1.396 . S
C31 C42 1.492 . S
C32 C31 1.396 . S
C32 C33 1.397 . S
C32 C48 1.509 . S
C33 C32 1.397 . S
C33 C34 1.412 1_556 S
C33 C54 1.485 1_556 S
C34 C33 1.412 1_554 S
C34 C35 1.388 . S
C34 C60 1.490 . S
C35 C30 1.397 1_554 S
C35 C34 1.388 . S
C35 C66 1.519 . S
C36 C30 1.492 . S
C36 C37 1.363 . S
C36 C41 1.390 . S
C37 H2 0.930 . S
C37 C36 1.363 . S
C37 C38 1.372 . S
C38 H3 0.930 . S
C38 C37 1.372 . S
C38 C39 1.383 . S
C39 C38 1.383 . S
C39 C40 1.395 . S
C40 H4 0.930 1_545 S
C40 C39 1.395 . S
C40 C41 1.362 . S
C41 H5 0.930 1_545 S
C41 C36 1.390 . S
C41 C40 1.362 . S
C42 C31 1.492 . S
C42 C43 1.377 . S
C42 C47 1.397 1_545 S
C43 H6 0.931 . S
C43 C42 1.377 . S
C43 C44 1.376 . S
C44 H7 0.930 . S
C44 C43 1.376 . S
C44 C45 1.376 . S
C45 C44 1.376 . S
C45 C46 1.378 1_545 S
C45 C72 1.486 . S
C46 H8 0.930 . S
C46 C45 1.378 1_565 S
C46 C47 1.376 . S
C47 H9 0.929 . S
C47 C42 1.397 1_565 S
C47 C46 1.376 . S
C48 C32 1.509 . S
C48 C49 1.391 . S
C48 C53 1.386 1_545 S
C49 H10 0.930 . S
C49 C48 1.391 . S
C49 C50 1.375 . S
C50 H11 0.931 . S
C50 C49 1.375 . S
C50 C51 1.375 . S
C51 C50 1.375 . S
C51 C52 1.361 1_545 S
C52 H12 0.930 . S
C52 C51 1.361 1_565 S
C52 C53 1.399 . S
C53 H13 0.929 . S
C53 C48 1.386 1_565 S
C53 C52 1.399 . S
C54 C33 1.485 1_554 S
C54 C55 1.394 . S
C54 C59 1.360 1_544 S
C55 H14 0.931 . S
C55 C54 1.394 . S
C55 C56 1.372 . S
C56 H15 0.930 . S
C56 C55 1.372 . S
C56 C57 1.397 . S
C57 C56 1.397 . S
C57 C58 1.390 1_545 S
C57 C73 1.476 . S
C58 H16 0.930 . S
C58 C57 1.390 1_565 S
C58 C59 1.366 1_554 S
C59 H17 0.932 . S
C59 C54 1.360 1_566 S
C59 C58 1.366 1_556 S
C60 C34 1.490 . S
C60 C61 1.380 . S
C60 C65 1.386 . S
C61 H18 0.930 . S
C61 C60 1.380 . S
C61 C62 1.381 . S
C62 H19 0.929 . S
C62 C61 1.381 . S
C62 C63 1.371 . S
C63 C62 1.371 . S
C63 C64 1.380 . S
C64 H20 0.931 1_545 S
C64 C63 1.380 . S
C64 C65 1.387 . S
C65 H21 0.930 1_545 S
C65 C60 1.386 . S
C65 C64 1.387 . S
C66 C35 1.519 . S
C66 C67 1.377 . S
C66 C71 1.361 1_545 S
C67 H22 0.929 . S
C67 C66 1.377 . S
C67 C68 1.386 . S
C68 H23 0.931 . S
C68 C67 1.386 . S
C68 C69 1.363 . S
C69 C68 1.363 . S
C69 C70 1.385 1_545 S
C70 H24 0.930 . S
C70 C69 1.385 1_565 S
C70 C71 1.396 . S
C71 H25 0.929 . S
C71 C66 1.361 1_565 S
C71 C70 1.396 . S
C72 O26 1.300 . S
C72 O27 1.209 1_545 S
C72 C45 1.486 . S
C73 O28 1.199 . S
C73 O29 1.297 1_545 S
C73 C57 1.476 . S
H74 O100 0.856 . S
H75 O103 0.854 . S
H76 C111 0.930 1_655 S
H77 C112 0.930 1_655 S
H78 C114 0.930 . S
H79 C115 0.930 . S
H80 C117 0.931 . S
H81 C118 0.930 . S
H82 C120 0.930 . S
H83 C121 0.929 . S
H84 C123 0.930 . S
H85 C124 0.931 . S
H86 C126 0.930 . S
H87 C127 0.929 . S
H88 C129 0.931 1_655 S
H89 C130 0.931 1_655 S
H90 C132 0.930 . S
H91 C133 0.932 . S
H92 C135 0.930 1_655 S
H93 C136 0.929 . S
H94 C138 0.931 . S
H95 C139 0.930 . S
H96 C141 0.929 1_655 S
H97 C142 0.931 1_655 S
H98 C144 0.930 . S
H99 C145 0.929 . S
O100 H74 0.856 . S
O100 C146 1.300 . S
O101 C146 1.209 . S
O102 C147 1.199 . S
O103 H75 0.854 . S
O103 C147 1.297 . S
C104 C105 1.404 . S
C104 C109 1.397 . S
C104 C110 1.492 . S
C105 C104 1.404 . S
C105 C106 1.396 . S
C105 C116 1.492 . S
C106 C105 1.396 . S
C106 C107 1.397 . S
C106 C122 1.509 . S
C107 C106 1.397 . S
C107 C108 1.412 . S
C107 C128 1.485 . S
C108 C107 1.412 . S
C108 C109 1.388 . S
C108 C134 1.490 . S
C109 C104 1.397 . S
C109 C108 1.388 . S
C109 C140 1.519 . S
C110 C104 1.492 . S
C110 C111 1.363 . S
C110 C115 1.390 . S
C111 H76 0.930 1_455 S
C111 C110 1.363 . S
C111 C112 1.372 . S
C112 H77 0.930 1_455 S
C112 C111 1.372 . S
C112 C113 1.383 . S
C113 C112 1.383 . S
C113 C114 1.395 . S
C114 H78 0.930 . S
C114 C113 1.395 . S
C114 C115 1.362 . S
C115 H79 0.930 . S
C115 C110 1.390 . S
C115 C114 1.362 . S
C116 C105 1.492 . S
C116 C117 1.377 . S
C116 C121 1.397 . S
C117 H80 0.931 . S
C117 C116 1.377 . S
C117 C118 1.376 . S
C118 H81 0.930 . S
C118 C117 1.376 . S
C118 C119 1.376 . S
C119 C118 1.376 . S
C119 C120 1.378 . S
C119 C146 1.486 . S
C120 H82 0.930 . S
C120 C119 1.378 . S
C120 C121 1.376 . S
C121 H83 0.929 . S
C121 C116 1.397 . S
C121 C120 1.376 . S
C122 C106 1.509 . S
C122 C123 1.391 . S
C122 C127 1.386 . S
C123 H84 0.930 . S
C123 C122 1.391 . S
C123 C124 1.375 . S
C124 H85 0.931 . S
C124 C123 1.375 . S
C124 C125 1.375 . S
C125 C124 1.375 . S
C125 C126 1.361 . S
C126 H86 0.930 . S
C126 C125 1.361 . S
C126 C127 1.399 . S
C127 H87 0.929 . S
C127 C122 1.386 . S
C127 C126 1.399 . S
C128 C107 1.485 . S
C128 C129 1.394 . S
C128 C133 1.360 . S
C129 H88 0.931 1_455 S
C129 C128 1.394 . S
C129 C130 1.372 . S
C130 H89 0.931 1_455 S
C130 C129 1.372 . S
C130 C131 1.397 . S
C131 C130 1.397 . S
C131 C132 1.390 . S
C131 C147 1.476 . S
C132 H90 0.930 . S
C132 C131 1.390 . S
C132 C133 1.366 . S
C133 H91 0.932 . S
C133 C128 1.360 . S
C133 C132 1.366 . S
C134 C108 1.490 . S
C134 C135 1.380 . S
C134 C139 1.386 . S
C135 H92 0.930 1_455 S
C135 C134 1.380 . S
C135 C136 1.381 1_455 S
C136 H93 0.929 . S
C136 C135 1.381 1_655 S
C136 C137 1.371 1_655 S
C137 C136 1.371 1_455 S
C137 C138 1.380 . S
C138 H94 0.931 . S
C138 C137 1.380 . S
C138 C139 1.387 . S
C139 H95 0.930 . S
C139 C134 1.386 . S
C139 C138 1.387 . S
C140 C109 1.519 . S
C140 C141 1.377 . S
C140 C145 1.361 . S
C141 H96 0.929 1_455 S
C141 C140 1.377 . S
C141 C142 1.386 . S
C142 H97 0.931 1_455 S
C142 C141 1.386 . S
C142 C143 1.363 . S
C143 C142 1.363 . S
C143 C144 1.385 . S
C144 H98 0.930 . S
C144 C143 1.385 . S
C144 C145 1.396 . S
C145 H99 0.929 . S
C145 C140 1.361 . S
C145 C144 1.396 . S
C146 O100 1.300 . S
C146 O101 1.209 . S
C146 C119 1.486 . S
C147 O102 1.199 . S
C147 O103 1.297 . S
C147 C131 1.476 . S
Mg148 O149 2.028 . S
Mg148 O155 1.986 . S
Mg148 O157 2.114 1_545 S
Mg148 O158 2.251 . S
Mg148 O161 2.010 . S
O149 Mg148 2.028 . S
O149 C152 1.250 1_455 S
O150 Mg151 2.028 . S
O150 C152 1.248 . S
Mg151 O150 2.028 . S
Mg151 O156 2.032 1_655 S
Mg151 O158 2.079 1_655 S
C152 O149 1.250 1_655 S
C152 O150 1.248 . S
C153 O154 1.264 . S
C153 O161 1.249 . S
O154 C153 1.264 . S
O155 Mg148 1.986 . S
O155 C159 1.246 . S
O156 Mg151 2.032 1_455 S
O156 C159 1.259 . S
O157 Mg148 2.114 1_565 S
O157 C160 1.252 . S
O158 Mg148 2.251 . S
O158 Mg151 2.079 1_455 S
O158 C160 1.273 1_545 S
C159 O155 1.246 . S
C159 O156 1.259 . S
C160 O157 1.252 . S
C160 O158 1.273 1_565 S
O161 Mg148 2.010 . S
O161 C153 1.249 . S
Mg162 O163 2.030 . S
Mg162 O169 1.986 . S
Mg162 O171 2.113 1_545 S
Mg162 O172 2.253 1_545 S
Mg162 O175 2.008 1_455 S
O163 Mg162 2.030 . S
O163 C166 1.250 . S
O164 Mg165 2.028 . S
O164 C166 1.248 . S
Mg165 O164 2.028 . S
Mg165 O170 2.032 . S
Mg165 O172 2.079 1_545 S
C166 O163 1.250 . S
C166 O164 1.248 . S
C167 O168 1.264 . S
C167 O175 1.249 . S
O168 C167 1.264 . S
O169 Mg162 1.986 . S
O169 C173 1.246 . S
O170 Mg165 2.032 . S
O170 C173 1.259 . S
O171 Mg162 2.113 1_565 S
O171 C174 1.264 . S
O172 Mg162 2.253 1_565 S
O172 Mg165 2.079 1_565 S
O172 C174 1.273 . S
C173 O169 1.246 . S
C173 O170 1.259 . S
C174 O171 1.264 . S
C174 O172 1.273 . S
O175 Mg162 2.008 1_655 S
O175 C167 1.249 . S
H176 C188 0.930 . S
H177 C190 0.930 . S
H178 C191 0.930 . S
H179 C195 0.959 . S
H180 C195 0.959 . S
H181 C195 0.961 . S
H182 C196 0.960 . S
H183 C196 0.961 . S
H184 C196 0.959 . S
H185 C199 0.929 . S
H186 C200 0.931 . S
H187 C202 0.930 1_565 S
C188 H176 0.930 . S
C188 C189 1.399 1_565 S
C188 C193 1.399 1_565 S
C189 C188 1.399 1_545 S
C189 C190 1.376 . S
C190 H177 0.930 . S
C190 C189 1.376 . S
C190 C191 1.388 . S
C191 H178 0.930 . S
C191 C190 1.388 . S
C191 C192 1.390 . S
C192 C191 1.390 . S
C192 C193 1.394 . S
C192 C198 1.465 . S
C193 C188 1.399 1_545 S
C193 C192 1.394 . S
C193 C194 1.516 1_545 S
C194 C193 1.516 1_565 S
C194 C195 1.502 . S
C194 C196 1.561 . S
C194 C197 1.526 1_565 S
C195 H179 0.959 . S
C195 H180 0.959 . S
C195 H181 0.961 . S
C195 C194 1.502 . S
C196 H182 0.960 . S
C196 H183 0.961 . S
C196 H184 0.959 . S
C196 C194 1.561 . S
C197 C194 1.526 1_545 S
C197 C198 1.396 . S
C197 C202 1.390 . S
C198 C192 1.465 . S
C198 C197 1.396 . S
C198 C199 1.399 . S
C199 H185 0.929 . S
C199 C198 1.399 . S
C199 C200 1.385 . S
C200 H186 0.931 . S
C200 C199 1.385 . S
C200 C201 1.389 . S
C201 C200 1.389 . S
C201 C202 1.387 . S
C202 H187 0.930 1_545 S
C202 C197 1.390 . S
C202 C201 1.387 . S
H203 C215 0.930 . S
H204 C217 0.930 1_655 S
H205 C218 0.926 1_655 S
H206 C222 0.959 . S
H207 C222 0.959 . S
H208 C222 0.961 . S
H209 C223 0.960 . S
H210 C223 0.961 . S
H211 C223 0.959 . S
H212 C226 0.929 . S
H213 C227 0.931 . S
H214 C229 0.930 . S
C215 H203 0.930 . S
C215 C216 1.399 . S
C215 C220 1.399 . S
C216 C215 1.399 . S
C216 C217 1.376 . S
C217 H204 0.930 1_455 S
C217 C216 1.376 . S
C217 C218 1.390 . S
C218 H205 0.926 1_455 S
C218 C217 1.390 . S
C218 C219 1.392 . S
C219 C218 1.392 . S
C219 C220 1.394 . S
C219 C225 1.465 . S
C220 C215 1.399 . S
C220 C219 1.394 . S
C220 C221 1.516 . S
C221 C220 1.516 . S
C221 C222 1.502 . S
C221 C223 1.561 . S
C221 C224 1.526 . S
C222 H206 0.959 . S
C222 H207 0.959 . S
C222 H208 0.961 . S
C222 C221 1.502 . S
C223 H209 0.960 . S
C223 H210 0.961 . S
C223 H211 0.959 . S
C223 C221 1.561 . S
C224 C221 1.526 . S
C224 C225 1.396 . S
C224 C229 1.390 . S
C225 C219 1.465 . S
C225 C224 1.396 . S
C225 C226 1.399 1_455 S
C226 H212 0.929 . S
C226 C225 1.399 1_655 S
C226 C227 1.385 . S
C227 H213 0.931 . S
C227 C226 1.385 . S
C227 C228 1.389 1_655 S
C228 C227 1.389 1_455 S
C228 C229 1.387 . S
C229 H214 0.930 . S
C229 C224 1.390 . S
C229 C228 1.387 . S
H230 C242 0.930 . S
H231 C244 0.930 1_565 S
H232 C245 0.925 1_565 S
H233 C249 0.959 . S
H234 C249 0.959 . S
H235 C249 0.961 . S
H236 C250 0.960 . S
H237 C250 0.961 . S
H238 C250 0.959 . S
H239 C253 0.929 . S
H240 C254 0.933 . S
H241 C256 0.930 . S
C242 H230 0.930 . S
C242 C243 1.399 . S
C242 C247 1.399 . S
C243 C242 1.399 . S
C243 C244 1.376 . S
C244 H231 0.930 1_545 S
C244 C243 1.376 . S
C244 C245 1.390 . S
C245 H232 0.925 1_545 S
C245 C244 1.390 . S
C245 C246 1.393 . S
C246 C245 1.393 . S
C246 C247 1.394 . S
C246 C252 1.465 . S
C247 C242 1.399 . S
C247 C246 1.394 . S
C247 C248 1.516 . S
C248 C247 1.516 . S
C248 C249 1.502 . S
C248 C250 1.561 . S
C248 C251 1.526 . S
C249 H233 0.959 . S
C249 H234 0.959 . S
C249 H235 0.961 . S
C249 C248 1.502 . S
C250 H236 0.960 . S
C250 H237 0.961 . S
C250 H238 0.959 . S
C250 C248 1.561 . S
C251 C248 1.526 . S
C251 C252 1.396 . S
C251 C256 1.390 . S
C252 C246 1.465 . S
C252 C251 1.396 . S
C252 C253 1.399 1_545 S
C253 H239 0.929 . S
C253 C252 1.399 1_565 S
C253 C254 1.386 . S
C254 H240 0.933 . S
C254 C253 1.386 . S
C254 C255 1.387 1_565 S
C255 C254 1.387 1_545 S
C255 C256 1.387 . S
C256 H241 0.930 . S
C256 C251 1.390 . S
C256 C255 1.387 . S
H257 C269 0.930 . S
H258 C271 0.930 . S
H259 C272 0.930 . S
H260 C276 0.959 . S
H261 C276 0.959 1_455 S
H262 C276 0.961 . S
H263 C277 0.960 . S
H264 C277 0.961 . S
H265 C277 0.959 . S
H266 C280 0.929 . S
H267 C281 0.931 . S
H268 C283 0.930 . S
C269 H257 0.930 . S
C269 C270 1.399 . S
C269 C274 1.399 . S
C270 C269 1.399 . S
C270 C271 1.376 . S
C271 H258 0.930 . S
C271 C270 1.376 . S
C271 C272 1.388 . S
C272 H259 0.930 . S
C272 C271 1.388 . S
C272 C273 1.390 . S
C273 C272 1.390 . S
C273 C274 1.394 . S
C273 C279 1.465 . S
C274 C269 1.399 . S
C274 C273 1.394 . S
C274 C275 1.516 . S
C275 C274 1.516 . S
C275 C276 1.502 1_455 S
C275 C277 1.561 . S
C275 C278 1.526 . S
C276 H260 0.959 . S
C276 H261 0.959 1_655 S
C276 H262 0.961 . S
C276 C275 1.502 1_655 S
C277 H263 0.960 . S
C277 H264 0.961 . S
C277 H265 0.959 . S
C277 C275 1.561 . S
C278 C275 1.526 . S
C278 C279 1.396 . S
C278 C283 1.390 . S
C279 C273 1.465 . S
C279 C278 1.396 . S
C279 C280 1.399 . S
C280 H266 0.929 . S
C280 C279 1.399 . S
C280 C281 1.385 . S
C281 H267 0.931 . S
C281 C280 1.385 . S
C281 C282 1.389 . S
C282 C281 1.389 . S
C282 C283 1.387 . S
C283 H268 0.930 . S
C283 C278 1.390 . S
C283 C282 1.387 . S
H284 C296 0.930 1_565 S
H285 C298 0.930 . S
H286 C299 0.930 . S
H287 C303 0.959 . S
H288 C303 0.959 . S
H289 C303 0.961 . S
H290 C304 0.960 . S
H291 C304 0.961 . S
H292 C304 0.959 . S
H293 C307 0.929 . S
H294 C308 0.931 . S
H295 C310 0.924 1_565 S
C296 H284 0.930 1_545 S
C296 C297 1.399 . S
C296 C301 1.399 . S
C297 C296 1.399 . S
C297 C298 1.376 . S
C298 H285 0.930 . S
C298 C297 1.376 . S
C298 C299 1.388 . S
C299 H286 0.930 . S
C299 C298 1.388 . S
C299 C300 1.390 . S
C300 C299 1.390 . S
C300 C301 1.394 . S
C300 C306 1.465 . S
C301 C296 1.399 . S
C301 C300 1.394 . S
C301 C302 1.516 1_545 S
C302 C301 1.516 1_565 S
C302 C303 1.502 . S
C302 C304 1.561 . S
C302 C305 1.526 1_565 S
C303 H287 0.959 . S
C303 H288 0.959 . S
C303 H289 0.961 . S
C303 C302 1.502 . S
C304 H290 0.960 . S
C304 H291 0.961 . S
C304 H292 0.959 . S
C304 C302 1.561 . S
C305 C302 1.526 1_545 S
C305 C306 1.396 . S
C305 C310 1.391 . S
C306 C300 1.465 . S
C306 C305 1.396 . S
C306 C307 1.399 . S
C307 H293 0.929 . S
C307 C306 1.399 . S
C307 C308 1.385 . S
C308 H294 0.931 . S
C308 C307 1.385 . S
C308 C309 1.389 . S
C309 C308 1.389 . S
C309 C310 1.391 . S
C310 H295 0.924 1_545 S
C310 C305 1.391 . S
C310 C309 1.391 . S
H311 C323 0.930 . S
H312 C325 0.930 . S
H313 C326 0.930 . S
H314 C330 0.959 . S
H315 C330 0.959 . S
H316 C330 0.961 . S
H317 C331 0.960 . S
H318 C331 0.961 . S
H319 C331 0.959 . S
H320 C334 0.929 . S
H321 C335 0.931 . S
H322 C337 0.930 . S
C323 H311 0.930 . S
C323 C324 1.399 . S
C323 C328 1.399 . S
C324 C323 1.399 . S
C324 C325 1.376 . S
C325 H312 0.930 . S
C325 C324 1.376 . S
C325 C326 1.388 . S
C326 H313 0.930 . S
C326 C325 1.388 . S
C326 C327 1.390 . S
C327 C326 1.390 . S
C327 C328 1.394 . S
C327 C333 1.465 . S
C328 C323 1.399 . S
C328 C327 1.394 . S
C328 C329 1.516 . S
C329 C328 1.516 . S
C329 C330 1.502 1_455 S
C329 C331 1.561 . S
C329 C332 1.526 . S
C330 H314 0.959 . S
C330 H315 0.959 . S
C330 H316 0.961 . S
C330 C329 1.502 1_655 S
C331 H317 0.960 . S
C331 H318 0.961 . S
C331 H319 0.959 . S
C331 C329 1.561 . S
C332 C329 1.526 . S
C332 C333 1.396 . S
C332 C337 1.390 . S
C333 C327 1.465 . S
C333 C332 1.396 . S
C333 C334 1.399 . S
C334 H320 0.929 . S
C334 C333 1.399 . S
C334 C335 1.385 . S
C335 H321 0.931 . S
C335 C334 1.385 . S
C335 C336 1.389 . S
C336 C335 1.389 . S
C336 C337 1.387 . S
C337 H322 0.930 . S
C337 C332 1.390 . S
C337 C336 1.387 . S
H338 C350 0.930 . S
H339 C352 0.930 . S
H340 C353 0.930 . S
H341 C357 0.959 . S
H342 C357 0.959 . S
H343 C357 0.961 . S
H344 C358 0.960 . S
H345 C358 0.961 . S
H346 C358 0.959 . S
H347 C361 0.929 . S
H348 C362 0.931 . S
H349 C364 0.930 . S
C350 H338 0.930 . S
C350 C351 1.399 . S
C350 C355 1.399 . S
C351 C350 1.399 . S
C351 C352 1.376 1_545 S
C352 H339 0.930 . S
C352 C351 1.376 1_565 S
C352 C353 1.388 . S
C353 H340 0.930 . S
C353 C352 1.388 . S
C353 C354 1.390 . S
C354 C353 1.390 . S
C354 C355 1.394 1_565 S
C354 C360 1.465 . S
C355 C350 1.399 . S
C355 C354 1.394 1_545 S
C355 C356 1.516 . S
C356 C355 1.516 . S
C356 C357 1.502 . S
C356 C358 1.561 . S
C356 C359 1.526 . S
C357 H341 0.959 . S
C357 H342 0.959 . S
C357 H343 0.961 . S
C357 C356 1.502 . S
C358 H344 0.960 . S
C358 H345 0.961 . S
C358 H346 0.959 . S
C358 C356 1.561 . S
C359 C356 1.526 . S
C359 C360 1.396 1_545 S
C359 C364 1.390 . S
C360 C354 1.465 . S
C360 C359 1.396 1_565 S
C360 C361 1.399 . S
C361 H347 0.929 . S
C361 C360 1.399 . S
C361 C362 1.385 . S
C362 H348 0.931 . S
C362 C361 1.385 . S
C362 C363 1.389 1_565 S
C363 C362 1.389 1_545 S
C363 C364 1.387 . S
C364 H349 0.930 . S
C364 C359 1.390 . S
C364 C363 1.387 . S
H365 C377 0.930 . S
H366 C379 0.930 . S
H367 C380 0.949 . S
H368 C384 0.959 . S
H369 C384 0.959 . S
H370 C384 0.961 . S
H371 C385 0.960 . S
H372 C385 0.961 . S
H373 C385 0.959 . S
H374 C388 0.929 1_655 S
H375 C389 0.931 1_655 S
H376 C391 0.930 . S
C377 H365 0.930 . S
C377 C378 1.399 . S
C377 C382 1.399 . S
C378 C377 1.399 . S
C378 C379 1.376 . S
C379 H366 0.930 . S
C379 C378 1.376 . S
C379 C380 1.388 . S
C380 H367 0.949 . S
C380 C379 1.388 . S
C380 C381 1.390 . S
C381 C380 1.390 . S
C381 C382 1.394 . S
C381 C387 1.465 . S
C382 C377 1.399 . S
C382 C381 1.394 . S
C382 C383 1.516 . S
C383 C382 1.516 . S
C383 C384 1.502 . S
C383 C385 1.561 . S
C383 C386 1.526 . S
C384 H368 0.959 . S
C384 H369 0.959 . S
C384 H370 0.961 . S
C384 C383 1.502 . S
C385 H371 0.960 . S
C385 H372 0.961 . S
C385 H373 0.959 . S
C385 C383 1.561 . S
C386 C383 1.526 . S
C386 C387 1.396 . S
C386 C391 1.390 . S
C387 C381 1.465 . S
C387 C386 1.396 . S
C387 C388 1.399 . S
C388 H374 0.929 1_455 S
C388 C387 1.399 . S
C388 C389 1.385 . S
C389 H375 0.931 1_455 S
C389 C388 1.385 . S
C389 C390 1.389 . S
C390 C389 1.389 . S
C390 C391 1.387 . S
C391 H376 0.930 . S
C391 C386 1.390 . S
C391 C390 1.387 . S
C201 C153 1.824 . S
C189 C69 2.101 . S
C228 C173 2.108 . S
C216 C143 2.132 . S
C255 C152 1.519 . S
C243 C63 1.497 . S
C282 C174 1.592 . S
C270 C137 1.415 . S
C309 C166 1.463 . S
C297 C39 1.417 . S
C336 C159 1.346 . S
C324 C113 1.353 . S
C363 C167 0.832 . S
C351 C51 0.828 . S
C378 C125 0.804 . S
C390 C160 0.861 . S
