# Generated by pormake.
# Topology anh, (6,3)-cn, num edge types: 1
# Building blocks:
#     Node 0, Type 0, BuildingBlock: BETFEN_clean_sbu_0, # of connection points: 6
#     Node 1, Type 0, BuildingBlock: BETFEN_clean_sbu_0, # of connection points: 6
#     Node 2, Type 0, BuildingBlock: BETFEN_clean_sbu_0, # of connection points: 6
#     Node 3, Type 1, BuildingBlock: PAMTOO_clean_linker_0, # of connection points: 3
#     Node 4, Type 1, BuildingBlock: PAMTOO_clean_linker_0, # of connection points: 3
#     Node 5, Type 1, BuildingBlock: PAMTOO_clean_linker_0, # of connection points: 3
#     Node 6, Type 1, BuildingBlock: PAMTOO_clean_linker_0, # of connection points: 3
#     Node 7, Type 1, BuildingBlock: PAMTOO_clean_linker_0, # of connection points: 3
#     Node 8, Type 1, BuildingBlock: PAMTOO_clean_linker_0, # of connection points: 3
#     Edge 9, Type (0, 1), BuildingBlock: MIFKUJ_clean_linker_0, # of connection points: 2
#     Edge 10, Type (0, 1), BuildingBlock: MIFKUJ_clean_linker_0, # of connection points: 2
#     Edge 11, Type (0, 1), BuildingBlock: MIFKUJ_clean_linker_0, # of connection points: 2
#     Edge 12, Type (0, 1), BuildingBlock: MIFKUJ_clean_linker_0, # of connection points: 2
#     Edge 13, Type (0, 1), BuildingBlock: MIFKUJ_clean_linker_0, # of connection points: 2
#     Edge 14, Type (0, 1), BuildingBlock: MIFKUJ_clean_linker_0, # of connection points: 2
#     Edge 15, Type (0, 1), BuildingBlock: MIFKUJ_clean_linker_0, # of connection points: 2
#     Edge 16, Type (0, 1), BuildingBlock: MIFKUJ_clean_linker_0, # of connection points: 2
#     Edge 17, Type (0, 1), BuildingBlock: MIFKUJ_clean_linker_0, # of connection points: 2
#     Edge 18, Type (0, 1), BuildingBlock: MIFKUJ_clean_linker_0, # of connection points: 2
#     Edge 19, Type (0, 1), BuildingBlock: MIFKUJ_clean_linker_0, # of connection points: 2
#     Edge 20, Type (0, 1), BuildingBlock: MIFKUJ_clean_linker_0, # of connection points: 2
#     Edge 21, Type (0, 1), BuildingBlock: MIFKUJ_clean_linker_0, # of connection points: 2
#     Edge 22, Type (0, 1), BuildingBlock: MIFKUJ_clean_linker_0, # of connection points: 2
#     Edge 23, Type (0, 1), BuildingBlock: MIFKUJ_clean_linker_0, # of connection points: 2
#     Edge 24, Type (0, 1), BuildingBlock: MIFKUJ_clean_linker_0, # of connection points: 2
#     Edge 25, Type (0, 1), BuildingBlock: MIFKUJ_clean_linker_0, # of connection points: 2
#     Edge 26, Type (0, 1), BuildingBlock: MIFKUJ_clean_linker_0, # of connection points: 2
# Relax obj value: 0.128
# Max RMSD: 0.164
# Mean RMSD: 0.113
data_MOF--net-anh--node1-BETFEN_clean_sbu_0--node2-PAMTOO_clean_linker_0--edge1-MIFKUJ_clean_linker_0
_symmetry_space_group_name_H-M    P1
_symmetry_Int_Tables_number       1
_symmetry_cell_setting            triclinic
loop_
_symmetry_equiv_pos_as_xyz
'x, y, z'
_cell_length_a     39.12771
_cell_length_b     42.255821
_cell_length_c     64.426425
_cell_angle_alpha  85.709892
_cell_angle_beta   93.870418
_cell_angle_gamma 108.67242
loop_
_atom_site_label
_atom_site_type_symbol
_atom_site_fract_x
_atom_site_fract_y
_atom_site_fract_z
_atom_type_partial_charge
Pr0 Pr 0.05135 0.5129 0.15311 0.0
Pr1 Pr 0.07652 0.58617 0.13971 0.0
C2 C 1.01949 0.45232 0.17211 0.0
C3 C 0.98372 0.42651 0.17428 0.0
C4 C 0.96224 0.41244 0.15681 0.0
C5 C 0.92949 0.38668 0.15934 0.0
C6 C 0.91736 0.37455 0.17937 0.0
C7 C 0.93858 0.38919 0.1968 0.0
C8 C 0.97142 0.41478 0.19426 0.0
C9 C 0.06065 0.52495 0.1105 0.0
C10 C 0.98902 0.55167 0.14041 0.0
C11 C 0.11025 0.64877 0.12408 0.0
C12 C 0.14239 0.67702 0.1299 0.0
C13 C 0.15033 0.68567 0.15073 0.0
C14 C 0.18045 0.71282 0.15599 0.0
C15 C 0.20353 0.73175 0.14059 0.0
C16 C 0.19586 0.72265 0.11979 0.0
C17 C 0.16552 0.69561 0.1145 0.0
C18 C 0.0714 0.57337 0.18287 0.0
C19 C 0.13823 0.54574 0.14787 0.0
O20 O 0.02492 0.48045 0.18104 0.0
O21 O 0.03435 0.45641 0.1541 0.0
O22 O 0.04594 0.54053 0.12116 0.0
O23 O 0.06905 0.50128 0.12151 0.0
O24 O 1.0147 0.57598 0.13116 0.0
O25 O 0.99701 0.52704 0.15144 0.0
O26 O 0.11617 0.6223 0.11787 0.0
O27 O 0.08288 0.64136 0.13614 0.0
O28 O 0.08444 0.55823 0.17107 0.0
O29 O 0.06204 0.59709 0.17265 0.0
O30 O 0.11381 0.52153 0.15808 0.0
O31 O 0.12938 0.57079 0.13797 0.0
H32 H 0.97088 0.42108 0.14118 0.0
H33 H 0.91359 0.37626 0.1456 0.0
H34 H 0.93029 0.38025 0.21245 0.0
H35 H 0.98757 0.42509 0.20796 0.0
H36 H 0.13321 0.6715 0.16298 0.0
H37 H 0.18587 0.7188 0.17219 0.0
H38 H 0.21292 0.73683 0.10753 0.0
H39 H 0.16 0.68932 0.09835 0.0
Pr40 Pr 0.63617 0.05622 0.51346 0.0
Pr41 Pr 0.55806 0.03271 0.51645 0.0
C42 C 0.70427 0.08898 0.50186 0.0
C43 C 0.73033 0.12344 0.49939 0.0
C44 C 0.75501 0.13746 0.51573 0.0
C45 C 0.78072 0.16921 0.51294 0.0
C46 C 0.78254 0.18775 0.49372 0.0
C47 C 0.75777 0.17369 0.47743 0.0
C48 C 0.73213 0.14198 0.4802 0.0
C49 C 0.61492 0.04204 0.55426 0.0
C50 C 0.59441 0.11782 0.51714 0.0
C51 C 0.48901 0.99847 0.52536 0.0
C52 C 0.46234 0.96578 0.5204 0.0
C53 C 0.46009 0.95291 0.50067 0.0
C54 C 0.43424 0.92226 0.49609 0.0
C55 C 0.41016 0.90357 0.51116 0.0
C56 C 0.41301 0.91639 0.53102 0.0
C57 C 0.43874 0.94713 0.53555 0.0
C58 C 0.57831 0.04486 0.47527 0.0
C59 C 0.60078 0.9711 0.51552 0.0
O60 O 0.67622 0.08091 0.48874 0.0
O61 O 0.69666 0.07605 0.52075 0.0
O62 O 0.60156 0.05819 0.54057 0.0
O63 O 0.64048 0.03288 0.54723 0.0
O64 O 0.56472 0.09173 0.52077 0.0
O65 O 0.62412 0.11055 0.51289 0.0
O66 O 0.51658 0.99774 0.53784 0.0
O67 O 0.49789 1.02108 0.50997 0.0
O68 O 0.59249 0.02986 0.48928 0.0
O69 O 0.55285 0.05387 0.4824 0.0
O70 O 0.63051 0.99696 0.51164 0.0
O71 O 0.57078 0.97859 0.51879 0.0
H72 H 0.7547 0.12379 0.53066 0.0
H73 H 0.7991 0.17929 0.52591 0.0
H74 H 0.7587 0.18685 0.46228 0.0
H75 H 0.714 0.13182 0.46715 0.0
H76 H 0.47814 0.96666 0.48871 0.0
H77 H 0.43274 0.91356 0.48056 0.0
H78 H 0.39552 0.90256 0.54319 0.0
H79 H 0.44015 0.9564 0.55092 0.0
Pr80 Pr 0.58604 0.53833 0.81476 0.0
Pr81 Pr 0.61319 0.60776 0.83127 0.0
C82 C 0.57677 0.48357 0.79369 0.0
C83 C 0.59504 0.45793 0.79401 0.0
C84 C 0.57745 0.42563 0.80236 0.0
C85 C 0.5948 0.40145 0.80405 0.0
C86 C 0.62998 0.40887 0.7972 0.0
C87 C 0.64743 0.44087 0.78833 0.0
C88 C 0.6302 0.46538 0.7869 0.0
C89 C 0.58848 0.53883 0.85798 0.0
C90 C 0.67638 0.57557 0.82393 0.0
C91 C 0.61989 0.66096 0.85334 0.0
C92 C 0.59206 0.67439 0.8595 0.0
C93 C 0.56051 0.67029 0.84685 0.0
C94 C 0.53315 0.68156 0.85293 0.0
C95 C 0.5367 0.69716 0.87183 0.0
C96 C 0.56799 0.70048 0.88477 0.0
C97 C 0.59542 0.68902 0.87866 0.0
C98 C 0.61031 0.60609 0.78788 0.0
C99 C 0.52365 0.57061 0.82352 0.0
O100 O 0.59451 0.51374 0.78642 0.0
O101 O 0.55889 0.48336 0.81019 0.0
O102 O 0.61255 0.55698 0.84632 0.0
O103 O 0.56269 0.5179 0.84747 0.0
O104 O 0.66917 0.5988 0.83382 0.0
O105 O 0.6502 0.55221 0.81435 0.0
O106 O 0.61824 0.63163 0.86208 0.0
O107 O 0.62564 0.66354 0.83339 0.0
O108 O 0.5862 0.58873 0.79978 0.0
O109 O 0.6368 0.62673 0.79824 0.0
O110 O 0.53109 0.55021 0.81123 0.0
O111 O 0.54979 0.59126 0.83469 0.0
H112 H 0.55029 0.41913 0.80775 0.0
H113 H 0.58038 0.37662 0.81041 0.0
H114 H 0.67438 0.44695 0.7827 0.0
H115 H 0.64448 0.49011 0.78039 0.0
H116 H 0.55705 0.65854 0.83213 0.0
H117 H 0.50981 0.67909 0.84238 0.0
H118 H 0.5714 0.71221 0.89948 0.0
H119 H 0.61925 0.69165 0.88884 0.0
H120 H 0.62716 0.09079 0.25711 0.0
H121 H 0.53457 1.00519 0.2449 0.0
H122 H 0.58725 0.06985 0.19388 0.0
H123 H 0.50807 0.03796 0.18258 0.0
C124 C 0.50273 1.02154 0.19708 0.0
O125 O 0.53424 1.01541 0.20431 0.0
H126 H 0.49364 0.03501 0.20873 0.0
C127 C 0.60799 0.07544 0.24605 0.0
C128 C 0.61048 0.08429 0.2246 0.0
C129 C 0.58086 0.047 0.25344 0.0
C130 C 0.55581 0.02708 0.2393 0.0
C131 C 0.55828 0.03516 0.21784 0.0
C132 C 0.58577 0.06358 0.21049 0.0
H133 H 0.60228 0.62075 0.56529 0.0
H134 H 0.61279 0.52249 0.56521 0.0
H135 H 0.59541 0.57437 0.50688 0.0
H136 H 0.55369 0.47778 0.52249 0.0
C137 C 0.58048 0.47915 0.53 0.0
O138 O 0.60371 0.51312 0.52568 0.0
H139 H 0.57585 0.47577 0.54695 0.0
C140 C 0.6031 0.6001 0.55652 0.0
C141 C 0.59955 0.60344 0.53473 0.0
C142 C 0.60759 0.57138 0.56749 0.0
C143 C 0.60794 0.54374 0.55656 0.0
C144 C 0.60214 0.54248 0.53482 0.0
C145 C 0.59846 0.57345 0.5237 0.0
H146 H 0.02696 0.5718 0.8871 0.0
H147 H 0.13614 0.57125 0.88334 0.0
H148 H 0.07265 0.57942 0.82723 0.0
H149 H 0.13167 0.54118 0.82348 0.0
C150 C 0.14695 0.55097 0.83807 0.0
O151 O 0.13737 0.57836 0.84299 0.0
H152 H 0.1392 0.53067 0.85057 0.0
C153 C 0.04938 0.57258 0.87784 0.0
C154 C 0.04547 0.57589 0.85602 0.0
C155 C 0.08161 0.57051 0.88796 0.0
C156 C 0.11094 0.57258 0.87589 0.0
C157 C 0.10791 0.57549 0.85406 0.0
C158 C 0.0749 0.57674 0.84407 0.0
H159 H 0.03617 0.48763 0.40664 0.0
H160 H 0.12318 0.58 0.41276 0.0
H161 H 0.0759 0.52274 0.46754 0.0
H162 H 0.098 0.59842 0.47113 0.0
C163 C 0.11757 0.60576 0.45852 0.0
O164 O 0.1253 0.57761 0.45343 0.0
H165 H 0.10487 0.61606 0.44479 0.0
C166 C 0.0546 0.50609 0.41641 0.0
C167 C 0.05269 0.50163 0.4382 0.0
C168 C 0.07986 0.53418 0.40705 0.0
C169 C 0.1035 0.55818 0.41973 0.0
C170 C 0.10215 0.55412 0.44149 0.0
C171 C 0.07695 0.5257 0.45072 0.0
H172 H 0.49141 0.94494 0.77084 0.0
H173 H 0.53933 0.05216 0.77216 0.0
H174 H 0.49327 0.99542 0.82675 0.0
H175 H 0.49666 0.07346 0.82671 0.0
C176 C 0.50922 0.0765 0.81141 0.0
O177 O 0.52865 0.0545 0.81123 0.0
H178 H 0.48692 0.0714 0.79916 0.0
C179 C 0.49768 0.96795 0.77879 0.0
C180 C 0.4894 0.96643 0.79985 0.0
C181 C 0.51599 0.99877 0.76846 0.0
C182 C 0.52555 0.02801 0.77959 0.0
C183 C 0.5174 0.02656 0.80047 0.0
C184 C 0.49915 0.99603 0.8105 0.0
H185 H 0.6385 0.56666 0.07758 0.0
H186 H 0.52841 0.56323 0.08324 0.0
H187 H 0.59347 0.55155 0.1381 0.0
H188 H 0.50741 0.51012 0.13985 0.0
C189 C 0.49988 0.52532 0.12657 0.0
O190 O 0.52863 0.55456 0.12363 0.0
H191 H 0.49475 0.51037 0.11251 0.0
C192 C 0.61609 0.56445 0.08723 0.0
C193 C 0.62061 0.55969 0.10892 0.0
C194 C 0.58305 0.56548 0.07774 0.0
C195 C 0.55388 0.56187 0.09028 0.0
C196 C 0.55722 0.55663 0.11198 0.0
C197 C 0.59063 0.55516 0.12134 0.0
H198 H 0.19478 0.59131 0.12792 0.0
H199 H 0.25612 0.5897 0.12528 0.0
H200 H 0.22994 0.49683 0.1626 0.0
H201 H 0.1683 0.49847 0.16554 0.0
H202 H 0.29615 0.53735 0.17419 0.0
H203 H 0.23547 0.49969 0.10893 0.0
H204 H 0.19906 0.50383 0.07668 0.0
H205 H 0.28022 0.59473 0.0571 0.0
H206 H 0.31687 0.59142 0.0894 0.0
H207 H 0.44631 0.48793 0.15173 0.0
H208 H 0.38675 0.49306 0.15585 0.0
H209 H 0.41277 0.58106 0.11394 0.0
H210 H 0.4723 0.57516 0.10927 0.0
H211 H 0.34701 0.54473 0.10486 0.0
H212 H 0.40798 0.58306 0.16949 0.0
H213 H 0.4439 0.58104 0.20223 0.0
H214 H 0.36263 0.49125 0.22331 0.0
H215 H 0.32642 0.49249 0.19057 0.0
C216 C 0.2019 0.57048 0.13565 0.0
C217 C 0.17619 0.54492 0.1469 0.0
C218 C 0.23718 0.56952 0.13401 0.0
C219 C 0.24792 0.54288 0.14345 0.0
C220 C 0.22256 0.51766 0.15508 0.0
C221 C 0.18716 0.51858 0.15672 0.0
C222 C 0.2854 0.54134 0.14108 0.0
C223 C 0.30704 0.53849 0.15901 0.0
C224 C 0.30039 0.54382 0.12133 0.0
C225 C 0.27877 0.54545 0.10168 0.0
C226 C 0.24547 0.52066 0.0978 0.0
C227 C 0.22479 0.52285 0.07951 0.0
C228 C 0.23728 0.54956 0.06487 0.0
C229 C 0.27056 0.57407 0.06846 0.0
C230 C 0.29131 0.57203 0.08675 0.0
C231 C 0.43967 0.50881 0.14371 0.0
C232 C 0.46473 0.53179 0.13074 0.0
C233 C 0.40543 0.51177 0.14609 0.0
C234 C 0.39502 0.53794 0.13563 0.0
C235 C 0.41991 0.56078 0.12242 0.0
C236 C 0.4542 0.55764 0.11991 0.0
C237 C 0.35791 0.54063 0.13801 0.0
C238 C 0.33627 0.54365 0.12007 0.0
C239 C 0.34297 0.53851 0.15777 0.0
C240 C 0.36465 0.53771 0.17749 0.0
C241 C 0.39789 0.56275 0.18104 0.0
C242 C 0.41828 0.56177 0.19961 0.0
C243 C 0.4056 0.53599 0.21482 0.0
C244 C 0.37244 0.51119 0.21151 0.0
C245 C 0.35196 0.51203 0.19296 0.0
H246 H 0.42142 0.53528 0.22918 0.0
H247 H 0.2212 0.55125 0.05074 0.0
H248 H 0.77487 0.24378 0.47208 0.0
H249 H 0.82131 0.29744 0.46504 0.0
H250 H 0.90004 0.26187 0.50096 0.0
H251 H 0.85376 0.20789 0.50793 0.0
H252 H 0.90773 0.32667 0.50887 0.0
H253 H 0.89743 0.26379 0.44841 0.0
H254 H 0.86535 0.23017 0.41917 0.0
H255 H 0.82927 0.3116 0.39396 0.0
H256 H 0.86073 0.34556 0.42322 0.0
H257 H 0.06211 0.45587 0.46877 0.0
H258 H 1.01714 0.40338 0.48062 0.0
H259 H 0.9356 0.42799 0.44022 0.0
H260 H 0.98065 0.47969 0.42797 0.0
H261 H 0.93106 0.36718 0.43531 0.0
H262 H 0.94019 0.43011 0.49582 0.0
H263 H 0.97153 0.46383 0.52518 0.0
H264 H 1.00914 0.38329 0.55035 0.0
H265 H 0.97839 0.34923 0.52098 0.0
C266 C 0.80208 0.24722 0.47842 0.0
C267 C 0.81051 0.22124 0.49043 0.0
C268 C 0.82863 0.27802 0.47442 0.0
C269 C 0.86437 0.28364 0.48223 0.0
C270 C 0.8727 0.25819 0.49476 0.0
C271 C 0.84612 0.22732 0.49877 0.0
C272 C 0.89312 0.31567 0.47677 0.0
C273 C 0.91316 0.33538 0.49279 0.0
C274 C 0.8999 0.32739 0.4558 0.0
C275 C 0.88117 0.3071 0.43811 0.0
C276 C 0.88244 0.27444 0.43671 0.0
C277 C 0.8644 0.25534 0.42012 0.0
C278 C 0.84521 0.26871 0.40474 0.0
C279 C 0.84411 0.30126 0.40589 0.0
C280 C 0.86207 0.32046 0.42246 0.0
C281 C 0.03444 0.45023 0.4627 0.0
C282 C 0.02492 0.47181 0.4474 0.0
C283 C 1.00868 0.42022 0.46949 0.0
C284 C 0.97271 0.41157 0.46142 0.0
C285 C 0.96309 0.43379 0.44663 0.0
C286 C 0.98885 0.46343 0.43966 0.0
C287 C 0.94538 0.37875 0.4674 0.0
C288 C 0.92569 0.35868 0.45142 0.0
C289 C 0.93889 0.36686 0.4884 0.0
C290 C 0.95729 0.38726 0.50609 0.0
C291 C 0.95537 0.41969 0.50754 0.0
C292 C 0.97298 0.43884 0.52419 0.0
C293 C 0.9924 0.42574 0.53959 0.0
C294 C 0.99414 0.39342 0.53839 0.0
C295 C 0.9766 0.37417 0.52176 0.0
H296 H 1.00602 0.44062 0.55247 0.0
H297 H 0.83126 0.25388 0.39191 0.0
H298 H 0.46275 0.6736 0.86608 0.0
H299 H 0.42309 0.70842 0.86189 0.0
H300 H 0.51058 0.79259 0.88344 0.0
H301 H 0.55029 0.75847 0.88728 0.0
H302 H 0.44092 0.79682 0.89059 0.0
H303 H 0.50986 0.77473 0.83241 0.0
H304 H 0.521 0.73294 0.81125 0.0
H305 H 0.40738 0.69298 0.79583 0.0
H306 H 0.39566 0.73446 0.81706 0.0
H307 H 0.51219 0.94604 0.83763 0.0
H308 H 0.49031 0.89141 0.85566 0.0
H309 H 0.40906 0.85795 0.8063 0.0
H310 H 0.43178 0.91306 0.78779 0.0
H311 H 0.44199 0.81504 0.81361 0.0
H312 H 0.38466 0.86205 0.85809 0.0
H313 H 0.37519 0.90387 0.87978 0.0
H314 H 0.46199 0.89583 0.92209 0.0
H315 H 0.47243 0.85438 0.90052 0.0
C316 C 0.47314 0.69926 0.87058 0.0
C317 C 0.50997 0.71363 0.87634 0.0
C318 C 0.45033 0.71899 0.86837 0.0
C319 C 0.46419 0.75322 0.8719 0.0
C320 C 0.49937 0.76621 0.8806 0.0
C321 C 0.52217 0.7466 0.88275 0.0
C322 C 0.44697 0.77717 0.86174 0.0
C323 C 0.44032 0.8007 0.87376 0.0
C324 C 0.44478 0.78134 0.83975 0.0
C325 C 0.45191 0.75751 0.82628 0.0
C326 C 0.48733 0.75709 0.82441 0.0
C327 C 0.49373 0.73345 0.81247 0.0
C328 C 0.46491 0.7103 0.80222 0.0
C329 C 0.42966 0.7109 0.80379 0.0
C330 C 0.42313 0.73448 0.81575 0.0
C331 C 0.48909 0.92735 0.83083 0.0
C332 C 0.4736 0.93382 0.81134 0.0
C333 C 0.47632 0.8961 0.84126 0.0
C334 C 0.44734 0.87065 0.83265 0.0
C335 C 0.43117 0.87728 0.81337 0.0
C336 C 0.44427 0.90863 0.80276 0.0
C337 C 0.43817 0.83623 0.8425 0.0
C338 C 0.44012 0.81069 0.83037 0.0
C339 C 0.43546 0.83016 0.86437 0.0
C340 C 0.42925 0.85494 0.87765 0.0
C341 C 0.40184 0.86927 0.87197 0.0
C342 C 0.3963 0.89294 0.88426 0.0
C343 C 0.41794 0.90247 0.90231 0.0
C344 C 0.44517 0.88834 0.90813 0.0
C345 C 0.45084 0.86466 0.8959 0.0
H346 H 0.41363 0.92083 0.91179 0.0
H347 H 0.46992 0.69192 0.79307 0.0
H348 H 0.96226 0.60046 0.12196 0.0
H349 H 0.8997 0.60093 0.11941 0.0
H350 H 0.86551 0.50378 0.1518 0.0
H351 H 0.92801 0.50306 0.15433 0.0
H352 H 0.81848 0.5065 0.1196 0.0
H353 H 0.87235 0.57519 0.17645 0.0
H354 H 0.91753 0.62127 0.19419 0.0
H355 H 0.8923 0.69281 0.15008 0.0
H356 H 0.84729 0.6471 0.13188 0.0
H357 H 0.63995 0.51129 0.13375 0.0
H358 H 0.70148 0.5088 0.14206 0.0
H359 H 0.7457 0.60607 0.11093 0.0
H360 H 0.68467 0.60861 0.10281 0.0
H361 H 0.78689 0.60123 0.1448 0.0
H362 H 0.7358 0.53329 0.08689 0.0
H363 H 0.69073 0.48778 0.06863 0.0
H364 H 0.71103 0.41545 0.11404 0.0
H365 H 0.75582 0.46062 0.13281 0.0
C366 C 0.94151 0.57912 0.12855 0.0
C367 C 0.95055 0.55178 0.13843 0.0
C368 C 0.90558 0.57949 0.12716 0.0
C369 C 0.87752 0.55255 0.13562 0.0
C370 C 0.88639 0.52496 0.14516 0.0
C371 C 0.92235 0.52465 0.14665 0.0
C372 C 0.83913 0.55322 0.13455 0.0
C373 C 0.81158 0.527 0.12543 0.0
C374 C 0.82973 0.58014 0.14176 0.0
C375 C 0.85669 0.6077 0.15269 0.0
C376 C 0.87663 0.60074 0.17043 0.0
C377 C 0.90218 0.62679 0.18059 0.0
C378 C 0.90785 0.65994 0.17324 0.0
C379 C 0.88791 0.66712 0.15574 0.0
C380 C 0.86236 0.64114 0.14551 0.0
C381 C 0.66285 0.53244 0.12916 0.0
C382 C 0.65732 0.56018 0.11766 0.0
C383 C 0.6981 0.53087 0.13369 0.0
C384 C 0.72861 0.55705 0.12687 0.0
C385 C 0.72296 0.58546 0.11637 0.0
C386 C 0.68792 0.58691 0.11175 0.0
C387 C 0.76629 0.55464 0.12973 0.0
C388 C 0.79374 0.58059 0.13913 0.0
C389 C 0.77561 0.52755 0.1227 0.0
C390 C 0.74884 0.50036 0.1114 0.0
C391 C 0.73044 0.5077 0.09309 0.0
C392 C 0.70498 0.48197 0.08262 0.0
C393 C 0.69796 0.44876 0.0902 0.0
C394 C 0.71645 0.4412 0.10822 0.0
C395 C 0.74187 0.46685 0.11878 0.0
H396 H 0.67825 0.42887 0.08207 0.0
H397 H 0.92763 0.68008 0.18112 0.0
H398 H 0.4155 0.85462 0.48672 0.0
H399 H 0.36879 0.80246 0.47799 0.0
H400 H 0.29438 0.82617 0.51572 0.0
H401 H 0.34051 0.8787 0.52414 0.0
H402 H 0.2926 0.76068 0.52258 0.0
H403 H 0.28836 0.83663 0.46328 0.0
H404 H 0.3144 0.87628 0.43407 0.0
H405 H 0.34493 0.80022 0.40677 0.0
H406 H 0.31952 0.76023 0.436 0.0
H407 H 0.12439 0.65008 0.48847 0.0
H408 H 0.17647 0.69797 0.49758 0.0
H409 H 0.2386 0.67248 0.45247 0.0
H410 H 0.18584 0.625 0.44283 0.0
H411 H 0.25043 0.73667 0.44934 0.0
H412 H 0.25306 0.65971 0.50683 0.0
H413 H 0.22922 0.61939 0.53615 0.0
H414 H 0.20461 0.69555 0.56701 0.0
H415 H 0.22786 0.73623 0.53774 0.0
C416 C 0.38911 0.84901 0.49302 0.0
C417 C 0.38195 0.87117 0.50613 0.0
C418 C 0.36243 0.81902 0.48806 0.0
C419 C 0.32791 0.8104 0.49608 0.0
C420 C 0.32081 0.83215 0.5094 0.0
C421 C 0.34738 0.8622 0.51428 0.0
C422 C 0.29904 0.7789 0.49052 0.0
C423 C 0.2831 0.75557 0.50658 0.0
C424 C 0.28742 0.77163 0.46961 0.0
C425 C 0.30238 0.79555 0.45194 0.0
C426 C 0.30087 0.82843 0.45113 0.0
C427 C 0.31548 0.85096 0.43456 0.0
C428 C 0.33141 0.8408 0.4186 0.0
C429 C 0.33264 0.80806 0.41916 0.0
C430 C 0.31812 0.78545 0.43571 0.0
C431 C 0.14937 0.65434 0.48076 0.0
C432 C 0.15134 0.63312 0.46541 0.0
C433 C 0.17923 0.68174 0.48601 0.0
C434 C 0.21196 0.68862 0.47609 0.0
C435 C 0.21387 0.66763 0.46054 0.0
C436 C 0.18382 0.6403 0.45516 0.0
C437 C 0.24351 0.71844 0.48143 0.0
C438 C 0.26001 0.74152 0.46535 0.0
C439 C 0.25592 0.72533 0.50233 0.0
C440 C 0.24193 0.70095 0.51999 0.0
C441 C 0.24232 0.6678 0.51979 0.0
C442 C 0.22895 0.64489 0.53642 0.0
C443 C 0.21534 0.65488 0.55341 0.0
C444 C 0.21514 0.68784 0.55383 0.0
C445 C 0.22844 0.71084 0.53724 0.0
H446 H 0.205 0.63711 0.56627 0.0
H447 H 0.34272 0.85828 0.40579 0.0
H448 H 0.65768 0.38734 0.76537 0.0
H449 H 0.66288 0.33127 0.76422 0.0
H450 H 0.6425 0.31297 0.82972 0.0
H451 H 0.63802 0.36903 0.83097 0.0
H452 H 0.67969 0.2721 0.81607 0.0
H453 H 0.57161 0.30577 0.7969 0.0
H454 H 0.54097 0.34105 0.77605 0.0
H455 H 0.56686 0.30731 0.71967 0.0
H456 H 0.59809 0.27217 0.74025 0.0
H457 H 0.543 0.12196 0.84036 0.0
H458 H 0.58451 0.17868 0.83422 0.0
H459 H 0.57574 0.1648 0.76811 0.0
H460 H 0.53315 0.10846 0.77426 0.0
H461 H 0.56587 0.22071 0.77495 0.0
H462 H 0.6558 0.17114 0.79753 0.0
H463 H 0.68492 0.13642 0.82 0.0
H464 H 0.6928 0.19878 0.87091 0.0
H465 H 0.66323 0.23361 0.84886 0.0
C466 C 0.65629 0.37198 0.77972 0.0
C467 C 0.64646 0.38189 0.79813 0.0
C468 C 0.65925 0.33997 0.77906 0.0
C469 C 0.65202 0.31773 0.79675 0.0
C470 C 0.64789 0.32964 0.81585 0.0
C471 C 0.64501 0.36156 0.81653 0.0
C472 C 0.63896 0.28118 0.79453 0.0
C473 C 0.65507 0.26065 0.80693 0.0
C474 C 0.60703 0.26638 0.78239 0.0
C475 C 0.58741 0.28667 0.77005 0.0
C476 C 0.5708 0.30596 0.78005 0.0
C477 C 0.55339 0.32595 0.7683 0.0
C478 C 0.55204 0.32648 0.74655 0.0
C479 C 0.56798 0.30692 0.73651 0.0
C480 C 0.58555 0.28698 0.7482 0.0
C481 C 0.54995 0.13117 0.82455 0.0
C482 C 0.53444 0.11135 0.80772 0.0
C483 C 0.57408 0.16331 0.82106 0.0
C484 C 0.58371 0.17583 0.80071 0.0
C485 C 0.56884 0.15561 0.78393 0.0
C486 C 0.54445 0.12359 0.78742 0.0
C487 C 0.6061 0.2112 0.79686 0.0
C488 C 0.59138 0.23164 0.78344 0.0
C489 C 0.63912 0.22569 0.80818 0.0
C490 C 0.65714 0.20494 0.82153 0.0
C491 C 0.66353 0.17735 0.81356 0.0
C492 C 0.68015 0.15766 0.82622 0.0
C493 C 0.69068 0.16538 0.84687 0.0
C494 C 0.68465 0.19285 0.8549 0.0
C495 C 0.66802 0.21261 0.84231 0.0
H496 H 0.70353 0.15009 0.85665 0.0
H497 H 0.53859 0.342 0.73747 0.0
H498 H 0.65688 0.94346 0.50937 0.0
H499 H 0.65706 0.88527 0.51086 0.0
H500 H 0.54471 0.8511 0.52463 0.0
H501 H 0.54482 0.90946 0.52353 0.0
H502 H 0.56599 0.80693 0.54429 0.0
H503 H 0.59265 0.84299 0.47329 0.0
H504 H 0.62605 0.87844 0.44435 0.0
H505 H 0.72278 0.85789 0.46744 0.0
H506 H 0.69003 0.82262 0.49666 0.0
H507 H 0.54212 0.63025 0.53457 0.0
H508 H 0.5416 0.68822 0.53023 0.0
H509 H 0.65327 0.72057 0.51507 0.0
H510 H 0.65322 0.66204 0.51893 0.0
H511 H 0.63297 0.76607 0.49569 0.0
H512 H 0.60656 0.73057 0.56685 0.0
H513 H 0.57469 0.69928 0.59748 0.0
H514 H 0.47813 0.72051 0.5748 0.0
H515 H 0.50927 0.75151 0.54389 0.0
C516 C 0.63187 0.92386 0.51265 0.0
C517 C 0.60081 0.93318 0.5162 0.0
C518 C 0.63184 0.88947 0.51333 0.0
C519 C 0.60066 0.86117 0.51749 0.0
C520 C 0.56974 0.87062 0.52128 0.0
C521 C 0.56976 0.90501 0.52057 0.0
C522 C 0.60019 0.82282 0.51829 0.0
C523 C 0.58038 0.79845 0.53324 0.0
C524 C 0.61922 0.80929 0.50473 0.0
C525 C 0.63899 0.83048 0.48727 0.0
C526 C 0.6211 0.84622 0.47226 0.0
C527 C 0.63991 0.86625 0.4558 0.0
C528 C 0.67654 0.87049 0.45409 0.0
C529 C 0.69442 0.85464 0.46881 0.0
C530 C 0.67575 0.83461 0.48531 0.0
C531 C 0.5665 0.64926 0.52955 0.0
C532 C 0.59713 0.63917 0.52615 0.0
C533 C 0.56656 0.68364 0.52757 0.0
C534 C 0.59768 0.71151 0.52266 0.0
C535 C 0.62821 0.7014 0.51884 0.0
C536 C 0.62808 0.66686 0.52079 0.0
C537 C 0.59848 0.75001 0.52167 0.0
C538 C 0.61842 0.77445 0.5067 0.0
C539 C 0.57955 0.76368 0.53523 0.0
C540 C 0.56015 0.74308 0.55298 0.0
C541 C 0.57838 0.72815 0.56826 0.0
C542 C 0.56047 0.71055 0.5857 0.0
C543 C 0.52443 0.708 0.58809 0.0
C544 C 0.50605 0.72254 0.57291 0.0
C545 C 0.52379 0.74008 0.55543 0.0
H546 H 0.51076 0.69507 0.60178 0.0
H547 H 0.69105 0.886 0.44133 0.0
H548 H 0.7043 0.53646 0.80202 0.0
H549 H 0.76698 0.53649 0.80238 0.0
H550 H 0.79783 0.61361 0.8466 0.0
H551 H 0.73565 0.61434 0.84587 0.0
H552 H 0.84691 0.62762 0.81884 0.0
H553 H 0.78556 0.52631 0.85992 0.0
H554 H 0.73828 0.47171 0.86501 0.0
H555 H 0.7761 0.43453 0.81387 0.0
H556 H 0.82341 0.48904 0.80835 0.0
H557 H 1.01001 0.61773 0.86676 0.0
H558 H 0.94868 0.61692 0.85664 0.0
H559 H 0.93882 0.53999 0.81414 0.0
H560 H 1.00059 0.5401 0.82486 0.0
H561 H 0.87924 0.52398 0.83554 0.0
H562 H 0.94434 0.62197 0.79655 0.0
H563 H 0.99063 0.6766 0.7898 0.0
H564 H 0.94528 0.72017 0.83458 0.0
H565 H 0.89899 0.66568 0.84182 0.0
C566 C 0.7244 0.55344 0.81184 0.0
C567 C 0.71462 0.57533 0.82398 0.0
C568 C 0.76037 0.55333 0.81211 0.0
C569 C 0.78749 0.57474 0.82476 0.0
C570 C 0.77773 0.5968 0.83669 0.0
C571 C 0.74193 0.59712 0.8363 0.0
C572 C 0.82599 0.57449 0.82573 0.0
C573 C 0.85389 0.60495 0.8227 0.0
C574 C 0.83552 0.54484 0.8299 0.0
C575 C 0.80779 0.51181 0.83362 0.0
C576 C 0.78371 0.50651 0.84973 0.0
C577 C 0.75691 0.47559 0.85269 0.0
C578 C 0.75411 0.4497 0.83973 0.0
C579 C 0.77827 0.45462 0.82387 0.0
C580 C 0.80511 0.4855 0.82085 0.0
C581 C 0.99505 0.60089 0.85503 0.0
C582 C 1.0104 0.57899 0.84664 0.0
C583 C 0.95983 0.60056 0.84915 0.0
C584 C 0.93875 0.5786 0.83442 0.0
C585 C 0.95431 0.55725 0.82551 0.0
C586 C 0.98983 0.55758 0.83145 0.0
C587 C 0.90021 0.57733 0.82928 0.0
C588 C 0.8723 0.54662 0.83149 0.0
C589 C 0.89059 0.60674 0.82417 0.0
C590 C 0.91832 0.63964 0.81983 0.0
C591 C 0.94437 0.64314 0.80507 0.0
C592 C 0.9706 0.6741 0.80114 0.0
C593 C 0.97093 0.70182 0.81178 0.0
C594 C 0.94499 0.69866 0.82635 0.0
C595 C 0.91872 0.66775 0.83035 0.0
H596 H 0.99126 0.72577 0.80871 0.0
H597 H 0.73327 0.42582 0.842 0.0
H598 H 0.27245 0.74954 0.12689 0.0
H599 H 0.32431 0.79771 0.13636 0.0
H600 H 0.25827 0.82817 0.17663 0.0
H601 H 0.20626 0.78041 0.167 0.0
H602 H 0.29916 0.88086 0.15281 0.0
H603 H 0.31792 0.79062 0.19694 0.0
H604 H 0.3248 0.73492 0.20482 0.0
H605 H 0.41758 0.76226 0.16731 0.0
H606 H 0.41095 0.81802 0.15895 0.0
H607 H 0.43382 0.99835 0.21106 0.0
H608 H 0.38468 0.94841 0.2012 0.0
H609 H 0.4556 0.92262 0.16188 0.0
H610 H 0.50502 0.97275 0.17181 0.0
H611 H 0.41347 0.86743 0.18409 0.0
H612 H 0.39551 0.95787 0.14041 0.0
H613 H 0.38852 1.01346 0.13221 0.0
H614 H 0.29413 0.98561 0.16842 0.0
H615 H 0.30085 0.92997 0.17709 0.0
C616 C 0.26893 0.76661 0.13767 0.0
C617 C 0.23521 0.76104 0.14624 0.0
C618 C 0.29867 0.79399 0.14319 0.0
C619 C 0.29531 0.81644 0.15736 0.0
C620 C 0.26158 0.81116 0.16572 0.0
C621 C 0.23193 0.7837 0.16032 0.0
C622 C 0.32679 0.84559 0.16337 0.0
C623 C 0.32398 0.87787 0.15989 0.0
C624 C 0.35958 0.84182 0.1721 0.0
C625 C 0.3637 0.80837 0.17714 0.0
C626 C 0.33961 0.78466 0.19022 0.0
C627 C 0.34349 0.7531 0.1948 0.0
C628 C 0.37154 0.74502 0.18652 0.0
C629 C 0.39583 0.76854 0.17368 0.0
C630 C 0.39203 0.80013 0.16903 0.0
C631 C 0.43904 0.98185 0.20048 0.0
C632 C 0.47333 0.98927 0.19231 0.0
C633 C 0.41088 0.95341 0.19476 0.0
C634 C 0.41629 0.93189 0.18063 0.0
C635 C 0.45077 0.93882 0.17282 0.0
C636 C 0.47896 0.96739 0.17849 0.0
C637 C 0.38569 0.90267 0.17369 0.0
C638 C 0.38868 0.87041 0.17697 0.0
C639 C 0.35304 0.90642 0.16473 0.0
C640 C 0.34891 0.93986 0.15957 0.0
C641 C 0.37344 0.96369 0.14677 0.0
C642 C 0.36949 0.9952 0.14201 0.0
C643 C 0.34095 1.00309 0.14984 0.0
C644 C 0.31625 0.97947 0.1624 0.0
C645 C 0.3201 0.94794 0.16723 0.0
H646 H 0.33793 0.02749 0.14612 0.0
H647 H 0.37451 0.72057 0.19009 0.0
H648 H 0.65274 0.17889 0.52034 0.0
H649 H 0.6533 0.23716 0.52183 0.0
H650 H 0.5374 0.20438 0.51669 0.0
H651 H 0.53681 0.14595 0.5158 0.0
H652 H 0.55979 0.26394 0.49348 0.0
H653 H 0.59352 0.23614 0.56406 0.0
H654 H 0.63082 0.21747 0.59162 0.0
H655 H 0.72454 0.29754 0.5726 0.0
H656 H 0.68788 0.31644 0.54474 0.0
H657 H 0.53504 0.42209 0.51149 0.0
H658 H 0.53796 0.36598 0.50983 0.0
H659 H 0.6469 0.39776 0.53573 0.0
H660 H 0.64262 0.4544 0.53888 0.0
H661 H 0.63065 0.33857 0.54752 0.0
H662 H 0.60366 0.36561 0.47674 0.0
H663 H 0.57199 0.38457 0.44634 0.0
H664 H 0.4734 0.3075 0.46158 0.0
H665 H 0.50442 0.28829 0.4922 0.0
C666 C 0.62703 0.18355 0.51962 0.0
C667 C 0.5947 0.15569 0.518 0.0
C668 C 0.62735 0.21785 0.52058 0.0
C669 C 0.59537 0.22748 0.51959 0.0
C670 C 0.56308 0.19967 0.51759 0.0
C671 C 0.56273 0.16528 0.51712 0.0
C672 C 0.59546 0.26546 0.52045 0.0
C673 C 0.57507 0.27972 0.50564 0.0
C674 C 0.61602 0.2887 0.53543 0.0
C675 C 0.63802 0.27751 0.5522 0.0
C676 C 0.62214 0.24963 0.56566 0.0
C677 C 0.64315 0.23902 0.58135 0.0
C678 C 0.68004 0.25625 0.58383 0.0
C679 C 0.69597 0.28419 0.57065 0.0
C680 C 0.67508 0.29488 0.55492 0.0
C681 C 0.56049 0.41813 0.51626 0.0
C682 C 0.58914 0.4455 0.5243 0.0
C683 C 0.56228 0.38472 0.51519 0.0
C684 C 0.5933 0.37506 0.52171 0.0
C685 C 0.62219 0.40236 0.52999 0.0
C686 C 0.62005 0.43599 0.53147 0.0
C687 C 0.59464 0.33734 0.52055 0.0
C688 C 0.61526 0.32301 0.53532 0.0
C689 C 0.57511 0.31423 0.50511 0.0
C690 C 0.55626 0.32578 0.48688 0.0
C691 C 0.57518 0.35285 0.47367 0.0
C692 C 0.55735 0.36362 0.4564 0.0
C693 C 0.52068 0.34732 0.45207 0.0
C694 C 0.50178 0.32015 0.46498 0.0
C695 C 0.51947 0.30929 0.48228 0.0
H696 H 0.50693 0.35569 0.43869 0.0
H697 H 0.69627 0.248 0.59598 0.0
H698 H 0.46238 0.53586 0.80093 0.0
H699 H 0.40049 0.53665 0.80347 0.0
H700 H 0.43643 0.60681 0.85183 0.0
H701 H 0.4981 0.60553 0.84971 0.0
H702 H 0.37501 0.56167 0.86214 0.0
H703 H 0.41465 0.63114 0.8011 0.0
H704 H 0.44087 0.64671 0.7666 0.0
H705 H 0.35628 0.56561 0.74023 0.0
H706 H 0.32975 0.54932 0.77463 0.0
H707 H 0.2049 0.59264 0.8608 0.0
H708 H 0.26959 0.60064 0.85836 0.0
H709 H 0.24471 0.5332 0.80839 0.0
H710 H 0.18051 0.52616 0.81039 0.0
H711 H 0.30257 0.58187 0.7994 0.0
H712 H 0.26516 0.51117 0.8619 0.0
H713 H 0.23974 0.49719 0.89668 0.0
H714 H 0.32134 0.58285 0.9206 0.0
H715 H 0.34697 0.59757 0.88588 0.0
C716 C 0.4572 0.55149 0.81211 0.0
C717 C 0.48559 0.57082 0.82497 0.0
C718 C 0.42167 0.55208 0.81348 0.0
C719 C 0.41345 0.57217 0.82766 0.0
C720 C 0.44172 0.59115 0.8407 0.0
C721 C 0.47721 0.59053 0.83936 0.0
C722 C 0.37547 0.57307 0.82901 0.0
C723 C 0.3594 0.56657 0.84843 0.0
C724 C 0.35457 0.57911 0.8112 0.0
C725 C 0.37038 0.58886 0.79048 0.0
C726 C 0.40177 0.6165 0.78797 0.0
C727 C 0.41666 0.62548 0.76844 0.0
C728 C 0.4003 0.60712 0.75125 0.0
C729 C 0.36894 0.57979 0.75356 0.0
C730 C 0.35393 0.5707 0.77307 0.0
C731 C 0.21336 0.58012 0.84901 0.0
C732 C 0.18748 0.55943 0.83543 0.0
C733 C 0.25042 0.58433 0.84778 0.0
C734 C 0.2625 0.56724 0.83331 0.0
C735 C 0.23656 0.54689 0.81964 0.0
C736 C 0.1997 0.54291 0.82076 0.0
C737 C 0.30176 0.56978 0.83248 0.0
C738 C 0.31816 0.57704 0.81314 0.0
C739 C 0.32301 0.56462 0.85038 0.0
C740 C 0.30771 0.55567 0.87125 0.0
C741 C 0.27752 0.52715 0.87454 0.0
C742 C 0.2631 0.51907 0.89425 0.0
C743 C 0.27884 0.53918 0.91082 0.0
C744 C 0.30912 0.56734 0.90774 0.0
C745 C 0.32361 0.57555 0.88806 0.0
H746 H 0.26763 0.53289 0.92606 0.0
H747 H 0.41188 0.6141 0.73614 0.0
H748 H 0.89316 0.31689 0.15834 0.0
H749 H 0.83879 0.26917 0.16406 0.0
H750 H 0.81004 0.32005 0.2124 0.0
H751 H 0.8646 0.36771 0.20688 0.0
H752 H 0.80244 0.25864 0.22544 0.0
H753 H 0.76439 0.30968 0.16343 0.0
H754 H 0.76792 0.33381 0.12729 0.0
H755 H 0.76659 0.24005 0.10514 0.0
H756 H 0.76354 0.21547 0.1412 0.0
H757 H 0.62756 0.14624 0.23977 0.0
H758 H 0.67703 0.19645 0.2302 0.0
H759 H 0.70735 0.14308 0.18384 0.0
H760 H 0.65714 0.09276 0.19314 0.0
H761 H 0.71377 0.20573 0.16944 0.0
H762 H 0.75122 0.15554 0.23324 0.0
H763 H 0.74662 0.13362 0.2699 0.0
H764 H 0.7473 0.22897 0.28907 0.0
H765 H 0.75127 0.2513 0.25253 0.0
C766 C 0.875 0.31813 0.16999 0.0
C767 C 0.88327 0.34617 0.18214 0.0
C768 C 0.84384 0.29079 0.17324 0.0
C769 C 0.81997 0.29102 0.18854 0.0
C770 C 0.82799 0.31916 0.20054 0.0
C771 C 0.85926 0.3464 0.19739 0.0
C772 C 0.78756 0.26137 0.19273 0.0
C773 C 0.7828 0.24742 0.21321 0.0
C774 C 0.76222 0.24614 0.17675 0.0
C775 C 0.76412 0.26084 0.15505 0.0
C776 C 0.76517 0.29429 0.15087 0.0
C777 C 0.76702 0.30803 0.1304 0.0
C778 C 0.76759 0.2885 0.11393 0.0
C779 C 0.76621 0.25516 0.11791 0.0
C780 C 0.76438 0.2413 0.13837 0.0
C781 C 0.64471 0.14522 0.22749 0.0
C782 C 0.63874 0.11542 0.21737 0.0
C783 C 0.67306 0.17394 0.22206 0.0
C784 C 0.69656 0.17341 0.20664 0.0
C785 C 0.68977 0.14408 0.19589 0.0
C786 C 0.66106 0.11535 0.20118 0.0
C787 C 0.72867 0.20317 0.20216 0.0
C788 C 0.73344 0.21703 0.18164 0.0
C789 C 0.75386 0.21862 0.21815 0.0
C790 C 0.75128 0.20501 0.24012 0.0
C791 C 0.7501 0.17175 0.24525 0.0
C792 C 0.74764 0.15926 0.26602 0.0
C793 C 0.74668 0.17991 0.28178 0.0
C794 C 0.74805 0.21303 0.27683 0.0
C795 C 0.75041 0.2256 0.25611 0.0
H796 H 0.745 0.17036 0.29785 0.0
H797 H 0.76901 0.29918 0.09809 0.0
H798 H 0.10025 0.49959 0.08756 0.0
H799 H 0.11064 0.50979 0.05037 0.0
H800 H 0.04486 0.57507 0.04534 0.0
H801 H 0.03539 0.56571 0.08285 0.0
H802 H 0.06718 0.49507 0.01841 0.0
H803 H 0.07246 0.63454 0.00623 0.0
H804 H 0.09183 0.68537 0.02623 0.0
H805 H 0.16593 0.64665 0.06379 0.0
H806 H 0.14751 0.59589 0.04379 0.0
H807 H 0.0298 0.53119 0.91359 0.0
H808 H 0.03204 0.52602 0.95145 0.0
H809 H 0.14164 0.59292 0.95307 0.0
H810 H 0.13887 0.5998 0.91494 0.0
H811 H 0.10619 0.6077 0.98212 0.0
H812 H 0.12264 0.50753 0.96273 0.0
H813 H 0.11011 0.45613 0.9438 0.0
H814 H 1.00661 0.41597 0.9709 0.0
H815 H 1.01831 0.46735 0.98977 0.0
C816 C 0.0881 0.51622 0.07854 0.0
C817 C 0.06688 0.53176 0.08803 0.0
C818 C 0.09403 0.522 0.05727 0.0
C819 C 0.07871 0.54333 0.04501 0.0
C820 C 0.05748 0.55895 0.05451 0.0
C821 C 0.05188 0.55345 0.0759 0.0
C822 C 0.08399 0.54817 0.0222 0.0
C823 C 0.07579 0.51972 0.01051 0.0
C824 C 0.09626 0.58031 0.0119 0.0
C825 C 0.10831 0.61125 0.02361 0.0
C826 C 0.09306 0.63697 0.01866 0.0
C827 C 0.10386 0.66576 0.03002 0.0
C828 C 0.13001 0.66919 0.04631 0.0
C829 C 0.1456 0.64392 0.05121 0.0
C830 C 0.13498 0.61513 0.03987 0.0
C831 C 0.05432 0.54516 0.92192 0.0
C832 C 0.0841 0.56608 0.91113 0.0
C833 C 0.05571 0.54183 0.94364 0.0
C834 C 0.08717 0.55872 0.95517 0.0
C835 C 0.11708 0.57956 0.94452 0.0
C836 C 0.11559 0.58318 0.9227 0.0
C837 C 0.08842 0.55455 0.97833 0.0
C838 C 0.09781 0.58308 0.99006 0.0
C839 C 0.07841 0.52246 0.98881 0.0
C840 C 0.07127 0.49142 0.97755 0.0
C841 C 0.09711 0.48784 0.96454 0.0
C842 C 0.09017 0.45869 0.95384 0.0
C843 C 0.05756 0.43283 0.95611 0.0
C844 C 0.03185 0.43603 0.96914 0.0
C845 C 0.03865 0.46515 0.97987 0.0
H846 H 0.05223 0.41028 0.94781 0.0
H847 H 0.13824 0.69144 0.05513 0.0
H848 H 0.54095 0.06682 0.44351 0.0
H849 H 0.54318 0.06113 0.40627 0.0
H850 H 0.62612 1.0143 0.41849 0.0
H851 H 0.62397 1.0199 0.45607 0.0
H852 H 0.63982 0.06158 0.38465 0.0
H853 H 0.54413 0.96605 0.40757 0.0
H854 H 0.48874 0.93549 0.42586 0.0
H855 H 0.42913 0.98834 0.38689 0.0
H856 H 0.48432 1.01965 0.36858 0.0
H857 H 0.62523 1.02169 0.27879 0.0
H858 H 0.62546 1.01393 0.31693 0.0
H859 H 0.53327 0.04909 0.31696 0.0
H860 H 0.53208 0.05514 0.27878 0.0
H861 H 0.52684 1.0009 0.34565 0.0
H862 H 0.62485 0.10045 0.32527 0.0
H863 H 0.68034 0.13006 0.30679 0.0
H864 H 0.73594 0.0689 0.34131 0.0
H865 H 0.68056 0.03852 0.35972 0.0
C866 C 0.55982 0.05544 0.43831 0.0
C867 C 0.58209 0.04355 0.4527 0.0
C868 C 0.56095 0.05209 0.41701 0.0
C869 C 0.58439 0.0368 0.40964 0.0
C870 C 0.60768 0.02598 0.42389 0.0
C871 C 0.60642 0.02917 0.44531 0.0
C872 C 0.58395 0.03201 0.38703 0.0
C873 C 0.61531 0.04783 0.37615 0.0
C874 C 0.55184 1.01436 0.37594 0.0
C875 C 0.51847 0.99539 0.3868 0.0
C876 C 0.51928 0.97135 0.403 0.0
C877 C 0.4879 0.95386 0.41336 0.0
C878 C 0.45545 0.96001 0.40756 0.0
C879 C 0.4543 0.98362 0.39137 0.0
C880 C 0.48562 1.00122 0.38098 0.0
C881 C 0.60471 0.02713 0.28704 0.0
C882 C 0.57862 0.03895 0.27607 0.0
C883 C 0.60499 1.02298 0.30878 0.0
C884 C 0.57989 0.03166 0.31991 0.0
C885 C 0.55297 0.0423 0.30878 0.0
C886 C 0.55228 0.0458 0.28702 0.0
C887 C 0.58248 0.03126 0.34309 0.0
C888 C 0.55148 1.0144 0.35413 0.0
C889 C 0.61494 0.04799 0.35432 0.0
C890 C 0.64849 0.06701 0.34371 0.0
C891 C 0.64889 0.09325 0.32886 0.0
C892 C 0.68031 0.11016 0.31839 0.0
C893 C 0.71163 0.1013 0.32284 0.0
C894 C 0.71164 0.07568 0.33785 0.0
C895 C 0.68026 0.05862 0.34831 0.0
H896 H 0.73591 0.11425 0.31467 0.0
H897 H 0.43118 0.94644 0.4156 0.0
H898 H 0.56021 0.55918 0.76531 0.0
H899 H 0.56082 0.54909 0.72835 0.0
H900 H 0.6595 0.6315 0.7225 0.0
H901 H 0.65962 0.64128 0.75962 0.0
H902 H 0.57568 0.61294 0.69144 0.0
H903 H 0.69158 0.58823 0.71613 0.0
H904 H 0.72047 0.55806 0.74235 0.0
H905 H 0.63616 0.46603 0.73084 0.0
H906 H 0.60666 0.49583 0.70467 0.0
H907 H 0.64438 0.6226 0.59253 0.0
H908 H 0.64404 0.62324 0.63032 0.0
H909 H 0.58153 0.51871 0.6338 0.0
H910 H 0.57975 0.51813 0.5957 0.0
H911 H 0.64273 0.54208 0.66676 0.0
H912 H 0.53435 0.55709 0.63914 0.0
H913 H 0.49393 0.57872 0.61543 0.0
H914 H 0.54799 0.67817 0.63485 0.0
H915 H 0.58946 0.6572 0.65834 0.0
C916 C 0.58209 0.57514 0.75616 0.0
C917 C 0.60995 0.60099 0.76536 0.0
C918 C 0.58238 0.5693 0.73509 0.0
C919 C 0.61036 0.58936 0.72281 0.0
C920 C 0.63787 0.61556 0.73182 0.0
C921 C 0.63783 0.62118 0.75297 0.0
C922 C 0.61044 0.58334 0.70046 0.0
C923 C 0.59078 0.59792 0.68598 0.0
C924 C 0.62846 0.56222 0.69354 0.0
C925 C 0.64695 0.54421 0.70855 0.0
C926 C 0.67923 0.56158 0.71923 0.0
C927 C 0.6957 0.54456 0.73407 0.0
C928 C 0.68018 0.51015 0.73824 0.0
C929 C 0.6482 0.49267 0.72755 0.0
C930 C 0.63163 0.50959 0.7127 0.0
C931 C 0.63028 0.59969 0.6012 0.0
C932 C 0.61145 0.57047 0.59084 0.0
C933 C 0.63052 0.60005 0.62288 0.0
C934 C 0.61266 0.57108 0.63485 0.0
C935 C 0.59564 0.54131 0.62483 0.0
C936 C 0.59476 0.54105 0.60302 0.0
C937 C 0.6094 0.57314 0.65753 0.0
C938 C 0.62801 0.55749 0.67211 0.0
C939 C 0.58945 0.59251 0.66466 0.0
C940 C 0.56536 0.60565 0.65025 0.0
C941 C 0.53805 0.58366 0.6381 0.0
C942 C 0.51488 0.59577 0.62475 0.0
C943 C 0.51847 0.62979 0.62357 0.0
C944 C 0.54534 0.65182 0.63572 0.0
C945 C 0.56873 0.63984 0.64904 0.0
H946 H 0.50021 0.6389 0.61335 0.0
H947 H 0.69291 0.49703 0.74976 0.0
H948 H 0.57813 0.07439 0.57439 0.0
H949 H 0.56157 0.06537 0.61079 0.0
H950 H 0.6085 0.98538 0.61905 0.0
H951 H 0.62688 0.99572 0.58297 0.0
H952 H 0.51969 1.01872 0.63236 0.0
H953 H 0.64018 0.97754 0.66806 0.0
H954 H 0.70446 0.98758 0.66188 0.0
H955 H 0.71115 0.08274 0.63079 0.0
H956 H 0.64708 0.07345 0.63703 0.0
H957 H 0.47863 0.96063 0.73632 0.0
H958 H 0.49549 0.96453 0.70023 0.0
H959 H 0.59179 0.04642 0.71407 0.0
H960 H 0.57704 0.0406 0.75042 0.0
H961 H 0.60871 1.01167 0.68961 0.0
H962 H 0.51056 0.05633 0.6889 0.0
H963 H 0.44928 0.05657 0.6955 0.0
H964 H 0.40334 0.97278 0.65735 0.0
H965 H 0.46437 0.97179 0.65073 0.0
C966 C 0.58505 0.05502 0.58405 0.0
C967 C 0.60413 0.036 0.57602 0.0
C968 C 0.57543 0.04975 0.60482 0.0
C969 C 0.5842 0.025 0.61784 0.0
C970 C 0.60226 1.00523 0.60955 0.0
C971 C 0.61261 1.01103 0.58891 0.0
C972 C 0.57459 1.02009 0.64007 0.0
C973 C 0.53919 1.01718 0.64486 0.0
C974 C 0.6001 1.01867 0.6565 0.0
C975 C 0.63873 0.0246 0.65281 0.0
C976 C 0.65541 1.00064 0.65996 0.0
C977 C 0.6918 1.0062 0.65644 0.0
C978 C 0.71184 0.03572 0.64588 0.0
C979 C 0.69557 0.05982 0.63889 0.0
C980 C 0.65921 0.0544 0.6424 0.0
C981 C 0.50375 0.97907 0.73182 0.0
C982 C 0.52617 1.00056 0.74639 0.0
C983 C 0.51309 0.98161 0.71103 0.0
C984 C 0.54454 1.00629 0.70423 0.0
C985 C 0.56727 0.02728 0.71882 0.0
C986 C 0.55842 0.02425 0.73964 0.0
C987 C 0.55387 1.01062 0.68195 0.0
C988 C 0.58917 1.01317 0.67712 0.0
C989 C 0.52872 1.01324 0.66556 0.0
C990 C 0.492 1.01376 0.66951 0.0
C991 C 0.48737 0.03781 0.68204 0.0
C992 C 0.45269 0.0381 0.68577 0.0
C993 C 0.42244 1.01464 0.6769 0.0
C994 C 0.4268 0.99089 0.66424 0.0
C995 C 0.46143 0.99046 0.66048 0.0
H996 H 0.39561 1.01492 0.6798 0.0
H997 H 0.73999 0.03997 0.64316 0.0
H998 H 0.53358 0.50896 0.88382 0.0
H999 H 0.53149 0.51791 0.92075 0.0
H1000 H 0.63969 0.58753 0.91973 0.0
H1001 H 0.64204 0.57838 0.88279 0.0
H1002 H 0.63043 0.54467 0.95397 0.0
H1003 H 0.56952 0.61542 0.91862 0.0
H1004 H 0.52502 0.62865 0.89351 0.0
H1005 H 0.43838 0.56175 0.92819 0.0
H1006 H 0.48235 0.54716 0.95318 0.0
H1007 H 0.6308 0.60846 0.05133 0.0
H1008 H 0.62927 0.60866 0.01334 0.0
H1009 H 0.52549 0.53184 0.01371 0.0
H1010 H 0.52699 0.53119 0.05185 0.0
H1011 H 0.53298 0.58131 0.97953 0.0
H1012 H 0.59589 0.50799 0.01297 0.0
H1013 H 0.64147 0.49524 0.03754 0.0
H1014 H 0.72598 0.5704 0.00572 0.0
H1015 H 0.6808 0.58399 0.98117 0.0
C1016 C 0.55698 0.52603 0.89151 0.0
C1017 C 0.58794 0.54306 0.88047 0.0
C1018 C 0.55568 0.53127 0.91256 0.0
C1019 C 0.58527 0.55371 0.92292 0.0
C1020 C 0.61652 0.5702 0.91201 0.0
C1021 C 0.6178 0.56501 0.89094 0.0
C1022 C 0.58361 0.55977 0.94517 0.0
C1023 C 0.60943 0.55315 0.95949 0.0
C1024 C 0.5559 0.57046 0.95238 0.0
C1025 C 0.5293 0.57992 0.93771 0.0
C1026 C 0.54099 0.6033 0.92084 0.0
C1027 C 0.51586 0.61108 0.90661 0.0
C1028 C 0.47892 0.5961 0.90925 0.0
C1029 C 0.46702 0.57332 0.92615 0.0
C1030 C 0.49205 0.56524 0.94035 0.0
C1031 C 0.60747 0.59181 0.04333 0.0
C1032 C 0.57929 0.56938 0.05463 0.0
C1033 C 0.60655 0.5921 0.02162 0.0
C1034 C 0.5775 0.56994 0.01075 0.0
C1035 C 0.54815 0.54914 0.02182 0.0
C1036 C 0.54905 0.54881 0.04361 0.0
C1037 C 0.57969 0.56602 0.98823 0.0
C1038 C 0.55401 0.573 0.97391 0.0
C1039 C 0.6077 0.55592 0.98091 0.0
C1040 C 0.63494 0.54721 -0.00464 0.0
C1041 C 0.62417 0.52193 0.0113 0.0
C1042 C 0.64993 0.51455 0.02521 0.0
C1043 C 0.68659 0.53206 0.02323 0.0
C1044 C 0.69757 0.55689 0.00726 0.0
C1045 C 0.6719 0.56443 0.99333 0.0
H1046 H 0.70651 0.52635 0.03402 0.0
H1047 H 0.45952 0.60216 0.89821 0.0
H1048 H 0.08686 0.5231 0.2068 0.0
H1049 H 0.08874 0.51571 0.24497 0.0
H1050 H 0.06034 0.6056 0.24877 0.0
H1051 H 0.058 0.61289 0.21069 0.0
H1052 H 0.11915 0.60206 0.27587 0.0
H1053 H 0.99801 0.53381 0.25651 0.0
H1054 H 0.95313 0.48934 0.23734 0.0
H1055 H 0.99942 0.41661 0.26618 0.0
H1056 H 0.04496 0.46077 0.28529 0.0
H1057 H 0.07886 0.58913 0.38219 0.0
H1058 H 0.07786 0.59512 0.3441 0.0
H1059 H 0.08324 0.49496 0.34191 0.0
H1060 H 0.08277 0.48853 0.37998 0.0
H1061 H 0.03734 0.50291 0.31347 0.0
H1062 H 0.15796 0.56834 0.33278 0.0
H1063 H 0.20579 0.61159 0.35117 0.0
H1064 H 0.16492 0.68773 0.32194 0.0
H1065 H 0.11652 0.64487 0.30358 0.0
C1066 C 0.08093 0.5412 0.2158 0.0
C1067 C 0.07226 0.56855 0.20582 0.0
C1068 C 0.08197 0.53694 0.23756 0.0
C1069 C 0.07459 0.56008 0.24967 0.0
C1070 C 0.06617 0.58751 0.23971 0.0
C1071 C 0.06473 0.59157 0.21797 0.0
C1072 C 0.07574 0.55584 0.27274 0.0
C1073 C 0.10101 0.5806 0.28415 0.0
C1074 C 0.05281 0.52731 0.28344 0.0
C1075 C 0.02511 0.50066 0.27219 0.0
C1076 C 0.99879 0.50838 0.25865 0.0
C1077 C 0.97321 0.48322 0.24781 0.0
C1078 C 0.97346 0.45018 0.25051 0.0
C1079 C 0.99927 0.44222 0.26409 0.0
C1080 C 0.02495 0.4673 0.27495 0.0
C1081 C 0.08011 0.56854 0.37354 0.0
C1082 C 0.08104 0.53843 0.384 0.0
C1083 C 0.07965 0.57198 0.35176 0.0
C1084 C 0.08105 0.54568 0.34002 0.0
C1085 C 0.0821 0.51562 0.35053 0.0
C1086 C 0.08192 0.51197 0.37228 0.0
C1087 C 0.08078 0.54928 0.31681 0.0
C1088 C 0.05565 0.52438 0.30531 0.0
C1089 C 0.10426 0.57748 0.30599 0.0
C1090 C 0.13341 0.60335 0.31695 0.0
C1091 C 0.15902 0.59428 0.33038 0.0
C1092 C 0.18625 0.61873 0.34079 0.0
C1093 C 0.18834 0.65237 0.33777 0.0
C1094 C 0.16324 0.66165 0.32428 0.0
C1095 C 0.13592 0.6373 0.31386 0.0
H1096 H 0.20944 0.67126 0.34584 0.0
H1097 H 0.95361 0.43074 0.24212 0.0
loop_
_geom_bond_atom_site_label_1
_geom_bond_atom_site_label_2
_geom_bond_distance
_geom_bond_site_symmetry_2
_ccdc_geom_bond_type
Pr0 C2 2.880 . S
Pr0 O20 2.562 . S
Pr0 O21 2.490 . S
Pr0 O22 2.695 1_655 S
Pr0 O23 2.512 . S
Pr0 O25 2.437 . S
Pr0 O28 2.436 1_655 S
Pr0 O30 2.438 1_655 S
Pr1 C11 2.880 . S
Pr1 O22 2.436 . S
Pr1 O24 2.438 1_455 S
Pr1 O26 2.562 . S
Pr1 O27 2.490 . S
Pr1 O28 2.695 . S
Pr1 O29 2.512 . S
Pr1 O31 2.437 . S
C2 Pr0 2.880 . S
C2 C3 1.491 . S
C2 O20 1.254 . S
C2 O21 1.225 . S
C3 C2 1.491 . S
C3 C4 1.392 . S
C3 C8 1.356 . S
C4 C3 1.392 . S
C4 C5 1.368 . S
C4 H32 0.929 . S
C5 C4 1.368 . S
C5 C6 1.386 . S
C5 H33 0.929 . S
C6 C5 1.386 . S
C6 C7 1.373 . S
C7 C6 1.373 . S
C7 C8 1.409 . S
C7 H34 0.931 . S
C8 C3 1.356 . S
C8 C7 1.409 . S
C8 H35 0.930 . S
C9 O22 1.270 . S
C9 O23 1.248 1_455 S
C10 O24 1.267 . S
C10 O25 1.278 . S
C11 Pr1 2.880 . S
C11 C12 1.491 . S
C11 O26 1.254 . S
C11 O27 1.225 . S
C12 C11 1.491 . S
C12 C13 1.392 . S
C12 C17 1.356 . S
C13 C12 1.392 . S
C13 C14 1.368 . S
C13 H36 0.929 . S
C14 C13 1.368 . S
C14 C15 1.386 . S
C14 H37 0.929 . S
C15 C14 1.386 . S
C15 C16 1.373 . S
C16 C15 1.373 . S
C16 C17 1.409 . S
C16 H38 0.931 . S
C17 C12 1.356 . S
C17 C16 1.409 . S
C17 H39 0.930 . S
C18 O28 1.270 . S
C18 O29 1.248 . S
C19 O30 1.267 . S
C19 O31 1.278 . S
O20 Pr0 2.562 . S
O20 C2 1.254 . S
O21 Pr0 2.490 . S
O21 C2 1.225 . S
O22 Pr0 2.695 1_455 S
O22 Pr1 2.436 . S
O22 C9 1.270 . S
O23 Pr0 2.512 . S
O23 C9 1.248 1_655 S
O24 Pr1 2.438 1_655 S
O24 C10 1.267 . S
O25 Pr0 2.437 . S
O25 C10 1.278 . S
O26 Pr1 2.562 . S
O26 C11 1.254 . S
O27 Pr1 2.490 . S
O27 C11 1.225 . S
O28 Pr0 2.436 1_455 S
O28 Pr1 2.695 . S
O28 C18 1.270 . S
O29 Pr1 2.512 . S
O29 C18 1.248 . S
O30 Pr0 2.438 1_455 S
O30 C19 1.267 . S
O31 Pr1 2.437 . S
O31 C19 1.278 . S
H32 C4 0.929 . S
H33 C5 0.929 . S
H34 C7 0.931 . S
H35 C8 0.930 . S
H36 C13 0.929 . S
H37 C14 0.929 . S
H38 C16 0.931 . S
H39 C17 0.930 . S
Pr40 C42 2.880 . S
Pr40 O60 2.562 . S
Pr40 O61 2.490 . S
Pr40 O62 2.695 . S
Pr40 O63 2.512 . S
Pr40 O65 2.437 . S
Pr40 O68 2.436 . S
Pr40 O70 2.438 1_545 S
Pr41 C51 2.909 . S
Pr41 O62 2.438 1_565 S
Pr41 O64 2.400 1_565 S
Pr41 O66 2.590 . S
Pr41 O67 2.514 . S
Pr41 O68 2.690 1_565 S
Pr41 O69 2.515 1_565 S
Pr41 O71 2.472 . S
C42 Pr40 2.880 . S
C42 C43 1.491 . S
C42 O60 1.254 . S
C42 O61 1.225 . S
C43 C42 1.491 . S
C43 C44 1.392 . S
C43 C48 1.356 . S
C44 C43 1.392 . S
C44 C45 1.368 . S
C44 H72 0.929 . S
C45 C44 1.368 . S
C45 C46 1.386 . S
C45 H73 0.929 . S
C46 C45 1.386 . S
C46 C47 1.373 . S
C47 C46 1.373 . S
C47 C48 1.409 . S
C47 H74 0.931 . S
C48 C43 1.356 . S
C48 C47 1.409 . S
C48 H75 0.930 . S
C49 O62 1.270 . S
C49 O63 1.248 . S
C50 O64 1.267 . S
C50 O65 1.278 . S
C51 Pr41 2.909 . S
C51 C52 1.491 . S
C51 O66 1.254 . S
C51 O67 1.225 . S
C52 C51 1.491 . S
C52 C53 1.392 . S
C52 C57 1.356 . S
C53 C52 1.392 . S
C53 C54 1.368 . S
C53 H76 0.929 . S
C54 C53 1.368 . S
C54 C55 1.386 . S
C54 H77 0.929 . S
C55 C54 1.386 . S
C55 C56 1.373 . S
C56 C55 1.373 . S
C56 C57 1.409 . S
C56 H78 0.931 . S
C57 C52 1.356 . S
C57 C56 1.409 . S
C57 H79 0.930 . S
C58 O68 1.270 . S
C58 O69 1.248 . S
C59 O70 1.267 . S
C59 O71 1.278 . S
O60 Pr40 2.562 . S
O60 C42 1.254 . S
O61 Pr40 2.490 . S
O61 C42 1.225 . S
O62 Pr40 2.695 . S
O62 Pr41 2.438 1_545 S
O62 C49 1.270 . S
O63 Pr40 2.512 . S
O63 C49 1.248 . S
O64 Pr41 2.400 1_545 S
O64 C50 1.267 . S
O65 Pr40 2.437 . S
O65 C50 1.278 . S
O66 Pr41 2.590 . S
O66 C51 1.254 . S
O67 Pr41 2.514 . S
O67 C51 1.225 . S
O68 Pr40 2.436 . S
O68 Pr41 2.690 1_545 S
O68 C58 1.270 . S
O69 Pr41 2.515 1_545 S
O69 C58 1.248 . S
O70 Pr40 2.438 1_565 S
O70 C59 1.267 . S
O71 Pr41 2.472 . S
O71 C59 1.278 . S
H72 C44 0.929 . S
H73 C45 0.929 . S
H74 C47 0.931 . S
H75 C48 0.930 . S
H76 C53 0.929 . S
H77 C54 0.929 . S
H78 C56 0.931 . S
H79 C57 0.930 . S
Pr80 C82 2.880 . S
Pr80 O100 2.562 . S
Pr80 O101 2.490 . S
Pr80 O102 2.695 . S
Pr80 O103 2.512 . S
Pr80 O105 2.437 . S
Pr80 O108 2.436 . S
Pr80 O110 2.438 . S
Pr81 C91 2.880 . S
Pr81 O102 2.436 . S
Pr81 O104 2.438 . S
Pr81 O106 2.562 . S
Pr81 O107 2.490 . S
Pr81 O108 2.695 . S
Pr81 O109 2.512 . S
Pr81 O111 2.437 . S
C82 Pr80 2.880 . S
C82 C83 1.491 . S
C82 O100 1.254 . S
C82 O101 1.225 . S
C83 C82 1.491 . S
C83 C84 1.392 . S
C83 C88 1.356 . S
C84 C83 1.392 . S
C84 C85 1.368 . S
C84 H112 0.929 . S
C85 C84 1.368 . S
C85 C86 1.386 . S
C85 H113 0.929 . S
C86 C85 1.386 . S
C86 C87 1.373 . S
C87 C86 1.373 . S
C87 C88 1.409 . S
C87 H114 0.931 . S
C88 C83 1.356 . S
C88 C87 1.409 . S
C88 H115 0.930 . S
C89 O102 1.270 . S
C89 O103 1.248 . S
C90 O104 1.267 . S
C90 O105 1.278 . S
C91 Pr81 2.880 . S
C91 C92 1.491 . S
C91 O106 1.254 . S
C91 O107 1.225 . S
C92 C91 1.491 . S
C92 C93 1.392 . S
C92 C97 1.356 . S
C93 C92 1.392 . S
C93 C94 1.368 . S
C93 H116 0.929 . S
C94 C93 1.368 . S
C94 C95 1.386 . S
C94 H117 0.929 . S
C95 C94 1.386 . S
C95 C96 1.373 . S
C96 C95 1.373 . S
C96 C97 1.409 . S
C96 H118 0.931 . S
C97 C92 1.356 . S
C97 C96 1.409 . S
C97 H119 0.930 . S
C98 O108 1.270 . S
C98 O109 1.248 . S
C99 O110 1.267 . S
C99 O111 1.278 . S
O100 Pr80 2.562 . S
O100 C82 1.254 . S
O101 Pr80 2.490 . S
O101 C82 1.225 . S
O102 Pr80 2.695 . S
O102 Pr81 2.436 . S
O102 C89 1.270 . S
O103 Pr80 2.512 . S
O103 C89 1.248 . S
O104 Pr81 2.438 . S
O104 C90 1.267 . S
O105 Pr80 2.437 . S
O105 C90 1.278 . S
O106 Pr81 2.562 . S
O106 C91 1.254 . S
O107 Pr81 2.490 . S
O107 C91 1.225 . S
O108 Pr80 2.436 . S
O108 Pr81 2.695 . S
O108 C98 1.270 . S
O109 Pr81 2.512 . S
O109 C98 1.248 . S
O110 Pr80 2.438 . S
O110 C99 1.267 . S
O111 Pr81 2.437 . S
O111 C99 1.278 . S
H112 C84 0.929 . S
H113 C85 0.929 . S
H114 C87 0.931 . S
H115 C88 0.930 . S
H116 C93 0.929 . S
H117 C94 0.929 . S
H118 C96 0.931 . S
H119 C97 0.930 . S
H120 C127 0.929 . S
H121 C130 0.930 1_565 S
H122 C132 0.929 . S
H123 C124 0.969 . S
C124 H123 0.969 . S
C124 O125 1.550 . S
C124 H126 0.973 . S
O125 C124 1.550 . S
O125 C131 1.412 1_565 S
H126 C124 0.973 . S
C127 H120 0.929 . S
C127 C128 1.400 . S
C127 C129 1.364 . S
C128 C127 1.400 . S
C128 C132 1.377 . S
C129 C127 1.364 . S
C129 C130 1.374 . S
C130 H121 0.930 1_545 S
C130 C129 1.374 . S
C130 C131 1.383 . S
C131 O125 1.412 1_545 S
C131 C130 1.383 . S
C131 C132 1.394 . S
C132 H122 0.929 . S
C132 C128 1.377 . S
C132 C131 1.394 . S
H133 C140 0.929 . S
H134 C143 0.930 . S
H135 C145 0.929 . S
H136 C137 0.969 . S
C137 H136 0.969 . S
C137 O138 1.550 . S
C137 H139 0.973 . S
O138 C137 1.550 . S
O138 C144 1.412 . S
H139 C137 0.973 . S
C140 H133 0.929 . S
C140 C141 1.400 . S
C140 C142 1.364 . S
C141 C140 1.400 . S
C141 C145 1.377 . S
C142 C140 1.364 . S
C142 C143 1.374 . S
C143 H134 0.930 . S
C143 C142 1.374 . S
C143 C144 1.383 . S
C144 O138 1.412 . S
C144 C143 1.383 . S
C144 C145 1.394 . S
C145 H135 0.929 . S
C145 C141 1.377 . S
C145 C144 1.394 . S
H146 C153 0.929 . S
H147 C156 0.930 . S
H148 C158 0.929 . S
H149 C150 0.969 . S
C150 H149 0.969 . S
C150 O151 1.550 . S
C150 H152 0.973 . S
O151 C150 1.550 . S
O151 C157 1.412 . S
H152 C150 0.973 . S
C153 H146 0.929 . S
C153 C154 1.400 . S
C153 C155 1.364 . S
C154 C153 1.400 . S
C154 C158 1.377 . S
C155 C153 1.364 . S
C155 C156 1.374 . S
C156 H147 0.930 . S
C156 C155 1.374 . S
C156 C157 1.383 . S
C157 O151 1.412 . S
C157 C156 1.383 . S
C157 C158 1.394 . S
C158 H148 0.929 . S
C158 C154 1.377 . S
C158 C157 1.394 . S
H159 C166 0.929 . S
H160 C169 0.930 . S
H161 C171 0.929 . S
H162 C163 0.969 . S
C163 H162 0.969 . S
C163 O164 1.550 . S
C163 H165 0.973 . S
O164 C163 1.550 . S
O164 C170 1.412 . S
H165 C163 0.973 . S
C166 H159 0.929 . S
C166 C167 1.400 . S
C166 C168 1.364 . S
C167 C166 1.400 . S
C167 C171 1.377 . S
C168 C166 1.364 . S
C168 C169 1.374 . S
C169 H160 0.930 . S
C169 C168 1.374 . S
C169 C170 1.383 . S
C170 O164 1.412 . S
C170 C169 1.383 . S
C170 C171 1.394 . S
C171 H161 0.929 . S
C171 C167 1.377 . S
C171 C170 1.394 . S
H172 C179 0.929 . S
H173 C182 0.930 . S
H174 C184 0.929 1_565 S
H175 C176 0.969 . S
C176 H175 0.969 . S
C176 O177 1.550 . S
C176 H178 0.973 . S
O177 C176 1.550 . S
O177 C183 1.412 . S
H178 C176 0.973 . S
C179 H172 0.929 . S
C179 C180 1.400 . S
C179 C181 1.364 1_565 S
C180 C179 1.400 . S
C180 C184 1.377 1_565 S
C181 C179 1.364 1_545 S
C181 C182 1.374 . S
C182 H173 0.930 . S
C182 C181 1.374 . S
C182 C183 1.383 . S
C183 O177 1.412 . S
C183 C182 1.383 . S
C183 C184 1.394 . S
C184 H174 0.929 1_545 S
C184 C180 1.377 1_545 S
C184 C183 1.394 . S
H185 C192 0.929 . S
H186 C195 0.930 . S
H187 C197 0.929 . S
H188 C189 0.969 . S
C189 H188 0.969 . S
C189 O190 1.550 . S
C189 H191 0.973 . S
O190 C189 1.550 . S
O190 C196 1.412 . S
H191 C189 0.973 . S
C192 H185 0.929 . S
C192 C193 1.400 . S
C192 C194 1.364 . S
C193 C192 1.400 . S
C193 C197 1.377 . S
C194 C192 1.364 . S
C194 C195 1.374 . S
C195 H186 0.930 . S
C195 C194 1.374 . S
C195 C196 1.383 . S
C196 O190 1.412 . S
C196 C195 1.383 . S
C196 C197 1.394 . S
C197 H187 0.929 . S
C197 C193 1.377 . S
C197 C196 1.394 . S
H198 C216 0.951 . S
H199 C218 0.951 . S
H200 C220 0.950 . S
H201 C221 0.950 . S
H202 C223 0.950 . S
H203 C226 0.950 . S
H204 C227 0.950 . S
H205 C229 0.950 . S
H206 C230 0.950 . S
H207 C231 0.951 . S
H208 C233 0.951 . S
H209 C235 0.950 . S
H210 C236 0.950 . S
H211 C238 0.950 . S
H212 C241 0.950 . S
H213 C242 0.950 . S
H214 C244 0.950 . S
H215 C245 0.950 . S
C216 H198 0.951 . S
C216 C217 1.366 . S
C216 C218 1.388 . S
C217 C216 1.366 . S
C217 C221 1.385 . S
C218 H199 0.951 . S
C218 C216 1.388 . S
C218 C219 1.366 . S
C219 C218 1.366 . S
C219 C220 1.414 . S
C219 C222 1.499 . S
C220 H200 0.950 . S
C220 C219 1.414 . S
C220 C221 1.374 . S
C221 H201 0.950 . S
C221 C217 1.385 . S
C221 C220 1.374 . S
C222 C219 1.499 . S
C222 C223 1.373 . S
C222 C224 1.389 . S
C223 H202 0.950 . S
C223 C222 1.373 . S
C223 C239 1.377 . S
C224 C222 1.389 . S
C224 C225 1.524 . S
C224 C238 1.377 . S
C225 C224 1.524 . S
C225 C226 1.397 . S
C225 C230 1.363 . S
C226 H203 0.950 . S
C226 C225 1.397 . S
C226 C227 1.334 . S
C227 H204 0.950 . S
C227 C226 1.334 . S
C227 C228 1.287 . S
C228 C227 1.287 . S
C228 C229 1.524 . S
C228 H247 0.913 . S
C229 H205 0.950 . S
C229 C228 1.524 . S
C229 C230 1.415 . S
C230 H206 0.950 . S
C230 C225 1.363 . S
C230 C229 1.415 . S
C231 H207 0.951 . S
C231 C232 1.366 . S
C231 C233 1.388 . S
C232 C231 1.366 . S
C232 C236 1.385 . S
C233 H208 0.951 . S
C233 C231 1.388 . S
C233 C234 1.366 . S
C234 C233 1.366 . S
C234 C235 1.414 . S
C234 C237 1.499 . S
C235 H209 0.950 . S
C235 C234 1.414 . S
C235 C236 1.374 . S
C236 H210 0.950 . S
C236 C232 1.385 . S
C236 C235 1.374 . S
C237 C234 1.499 . S
C237 C238 1.373 . S
C237 C239 1.389 . S
C238 H211 0.950 . S
C238 C224 1.377 . S
C238 C237 1.373 . S
C239 C223 1.377 . S
C239 C237 1.389 . S
C239 C240 1.524 . S
C240 C239 1.524 . S
C240 C241 1.397 . S
C240 C245 1.363 . S
C241 H212 0.950 . S
C241 C240 1.397 . S
C241 C242 1.334 . S
C242 H213 0.950 . S
C242 C241 1.334 . S
C242 C243 1.287 . S
C243 C242 1.287 . S
C243 C244 1.524 . S
C243 H246 0.999 . S
C244 H214 0.950 . S
C244 C243 1.524 . S
C244 C245 1.415 . S
C245 H215 0.950 . S
C245 C240 1.363 . S
C245 C244 1.415 . S
H246 C243 0.999 . S
H247 C228 0.913 . S
H248 C266 0.951 . S
H249 C268 0.951 . S
H250 C270 0.950 . S
H251 C271 0.950 . S
H252 C273 0.950 . S
H253 C276 0.950 . S
H254 C277 0.950 . S
H255 C279 0.950 . S
H256 C280 0.950 . S
H257 C281 0.951 . S
H258 C283 0.951 . S
H259 C285 0.950 . S
H260 C286 0.950 . S
H261 C288 0.950 . S
H262 C291 0.950 . S
H263 C292 0.950 . S
H264 C294 0.950 1_455 S
H265 C295 0.950 . S
C266 H248 0.951 . S
C266 C267 1.366 . S
C266 C268 1.388 . S
C267 C266 1.366 . S
C267 C271 1.385 . S
C268 H249 0.951 . S
C268 C266 1.388 . S
C268 C269 1.366 . S
C269 C268 1.366 . S
C269 C270 1.414 . S
C269 C272 1.499 . S
C270 H250 0.950 . S
C270 C269 1.414 . S
C270 C271 1.374 . S
C271 H251 0.950 . S
C271 C267 1.385 . S
C271 C270 1.374 . S
C272 C269 1.499 . S
C272 C273 1.373 . S
C272 C274 1.389 . S
C273 H252 0.950 . S
C273 C272 1.373 . S
C273 C289 1.377 . S
C274 C272 1.389 . S
C274 C275 1.524 . S
C274 C288 1.377 . S
C275 C274 1.524 . S
C275 C276 1.397 . S
C275 C280 1.363 . S
C276 H253 0.950 . S
C276 C275 1.397 . S
C276 C277 1.334 . S
C277 H254 0.950 . S
C277 C276 1.334 . S
C277 C278 1.287 . S
C278 C277 1.287 . S
C278 C279 1.524 . S
C278 H297 0.913 . S
C279 H255 0.950 . S
C279 C278 1.524 . S
C279 C280 1.415 . S
C280 H256 0.950 . S
C280 C275 1.363 . S
C280 C279 1.415 . S
C281 H257 0.951 . S
C281 C282 1.366 . S
C281 C283 1.388 1_455 S
C282 C281 1.366 . S
C282 C286 1.385 1_455 S
C283 H258 0.951 . S
C283 C281 1.388 1_655 S
C283 C284 1.366 . S
C284 C283 1.366 . S
C284 C285 1.414 . S
C284 C287 1.499 . S
C285 H259 0.950 . S
C285 C284 1.414 . S
C285 C286 1.374 . S
C286 H260 0.950 . S
C286 C282 1.385 1_655 S
C286 C285 1.374 . S
C287 C284 1.499 . S
C287 C288 1.373 . S
C287 C289 1.389 . S
C288 H261 0.950 . S
C288 C274 1.377 . S
C288 C287 1.373 . S
C289 C273 1.377 . S
C289 C287 1.389 . S
C289 C290 1.524 . S
C290 C289 1.524 . S
C290 C291 1.397 . S
C290 C295 1.363 . S
C291 H262 0.950 . S
C291 C290 1.397 . S
C291 C292 1.334 . S
C292 H263 0.950 . S
C292 C291 1.334 . S
C292 C293 1.287 . S
C293 C292 1.287 . S
C293 C294 1.524 . S
C293 H296 0.999 1_655 S
C294 H264 0.950 1_655 S
C294 C293 1.524 . S
C294 C295 1.415 . S
C295 H265 0.950 . S
C295 C290 1.363 . S
C295 C294 1.415 . S
H296 C293 0.999 1_455 S
H297 C278 0.913 . S
H298 C316 0.951 . S
H299 C318 0.951 . S
H300 C320 0.950 . S
H301 C321 0.950 . S
H302 C323 0.950 . S
H303 C326 0.950 . S
H304 C327 0.950 . S
H305 C329 0.950 . S
H306 C330 0.950 . S
H307 C331 0.951 . S
H308 C333 0.951 . S
H309 C335 0.950 . S
H310 C336 0.950 . S
H311 C338 0.950 . S
H312 C341 0.950 . S
H313 C342 0.950 . S
H314 C344 0.950 . S
H315 C345 0.950 . S
C316 H298 0.951 . S
C316 C317 1.366 . S
C316 C318 1.388 . S
C317 C316 1.366 . S
C317 C321 1.385 . S
C318 H299 0.951 . S
C318 C316 1.388 . S
C318 C319 1.366 . S
C319 C318 1.366 . S
C319 C320 1.414 . S
C319 C322 1.499 . S
C320 H300 0.950 . S
C320 C319 1.414 . S
C320 C321 1.374 . S
C321 H301 0.950 . S
C321 C317 1.385 . S
C321 C320 1.374 . S
C322 C319 1.499 . S
C322 C323 1.373 . S
C322 C324 1.389 . S
C323 H302 0.950 . S
C323 C322 1.373 . S
C323 C339 1.377 . S
C324 C322 1.389 . S
C324 C325 1.524 . S
C324 C338 1.377 . S
C325 C324 1.524 . S
C325 C326 1.397 . S
C325 C330 1.363 . S
C326 H303 0.950 . S
C326 C325 1.397 . S
C326 C327 1.334 . S
C327 H304 0.950 . S
C327 C326 1.334 . S
C327 C328 1.287 . S
C328 C327 1.287 . S
C328 C329 1.524 . S
C328 H347 0.913 . S
C329 H305 0.950 . S
C329 C328 1.524 . S
C329 C330 1.415 . S
C330 H306 0.950 . S
C330 C325 1.363 . S
C330 C329 1.415 . S
C331 H307 0.951 . S
C331 C332 1.366 . S
C331 C333 1.388 . S
C332 C331 1.366 . S
C332 C336 1.385 . S
C333 H308 0.951 . S
C333 C331 1.388 . S
C333 C334 1.366 . S
C334 C333 1.366 . S
C334 C335 1.414 . S
C334 C337 1.499 . S
C335 H309 0.950 . S
C335 C334 1.414 . S
C335 C336 1.374 . S
C336 H310 0.950 . S
C336 C332 1.385 . S
C336 C335 1.374 . S
C337 C334 1.499 . S
C337 C338 1.373 . S
C337 C339 1.389 . S
C338 H311 0.950 . S
C338 C324 1.377 . S
C338 C337 1.373 . S
C339 C323 1.377 . S
C339 C337 1.389 . S
C339 C340 1.524 . S
C340 C339 1.524 . S
C340 C341 1.397 . S
C340 C345 1.363 . S
C341 H312 0.950 . S
C341 C340 1.397 . S
C341 C342 1.334 . S
C342 H313 0.950 . S
C342 C341 1.334 . S
C342 C343 1.287 . S
C343 C342 1.287 . S
C343 C344 1.524 . S
C343 H346 0.999 . S
C344 H314 0.950 . S
C344 C343 1.524 . S
C344 C345 1.415 . S
C345 H315 0.950 . S
C345 C340 1.363 . S
C345 C344 1.415 . S
H346 C343 0.999 . S
H347 C328 0.913 . S
H348 C366 0.951 . S
H349 C368 0.951 . S
H350 C370 0.950 . S
H351 C371 0.950 . S
H352 C373 0.950 . S
H353 C376 0.950 . S
H354 C377 0.950 . S
H355 C379 0.950 . S
H356 C380 0.950 . S
H357 C381 0.951 . S
H358 C383 0.951 . S
H359 C385 0.950 . S
H360 C386 0.950 . S
H361 C388 0.950 . S
H362 C391 0.950 . S
H363 C392 0.950 . S
H364 C394 0.950 . S
H365 C395 0.950 . S
C366 H348 0.951 . S
C366 C367 1.366 . S
C366 C368 1.388 . S
C367 C366 1.366 . S
C367 C371 1.385 . S
C368 H349 0.951 . S
C368 C366 1.388 . S
C368 C369 1.366 . S
C369 C368 1.366 . S
C369 C370 1.414 . S
C369 C372 1.499 . S
C370 H350 0.950 . S
C370 C369 1.414 . S
C370 C371 1.374 . S
C371 H351 0.950 . S
C371 C367 1.385 . S
C371 C370 1.374 . S
C372 C369 1.499 . S
C372 C373 1.373 . S
C372 C374 1.389 . S
C373 H352 0.950 . S
C373 C372 1.373 . S
C373 C389 1.377 . S
C374 C372 1.389 . S
C374 C375 1.524 . S
C374 C388 1.377 . S
C375 C374 1.524 . S
C375 C376 1.397 . S
C375 C380 1.363 . S
C376 H353 0.950 . S
C376 C375 1.397 . S
C376 C377 1.334 . S
C377 H354 0.950 . S
C377 C376 1.334 . S
C377 C378 1.287 . S
C378 C377 1.287 . S
C378 C379 1.524 . S
C378 H397 0.913 . S
C379 H355 0.950 . S
C379 C378 1.524 . S
C379 C380 1.415 . S
C380 H356 0.950 . S
C380 C375 1.363 . S
C380 C379 1.415 . S
C381 H357 0.951 . S
C381 C382 1.366 . S
C381 C383 1.388 . S
C382 C381 1.366 . S
C382 C386 1.385 . S
C383 H358 0.951 . S
C383 C381 1.388 . S
C383 C384 1.366 . S
C384 C383 1.366 . S
C384 C385 1.414 . S
C384 C387 1.499 . S
C385 H359 0.950 . S
C385 C384 1.414 . S
C385 C386 1.374 . S
C386 H360 0.950 . S
C386 C382 1.385 . S
C386 C385 1.374 . S
C387 C384 1.499 . S
C387 C388 1.373 . S
C387 C389 1.389 . S
C388 H361 0.950 . S
C388 C374 1.377 . S
C388 C387 1.373 . S
C389 C373 1.377 . S
C389 C387 1.389 . S
C389 C390 1.524 . S
C390 C389 1.524 . S
C390 C391 1.397 . S
C390 C395 1.363 . S
C391 H362 0.950 . S
C391 C390 1.397 . S
C391 C392 1.334 . S
C392 H363 0.950 . S
C392 C391 1.334 . S
C392 C393 1.287 . S
C393 C392 1.287 . S
C393 C394 1.524 . S
C393 H396 0.999 . S
C394 H364 0.950 . S
C394 C393 1.524 . S
C394 C395 1.415 . S
C395 H365 0.950 . S
C395 C390 1.363 . S
C395 C394 1.415 . S
H396 C393 0.999 . S
H397 C378 0.913 . S
H398 C416 0.951 . S
H399 C418 0.951 . S
H400 C420 0.950 . S
H401 C421 0.950 . S
H402 C423 0.950 . S
H403 C426 0.950 . S
H404 C427 0.950 . S
H405 C429 0.950 . S
H406 C430 0.950 . S
H407 C431 0.951 . S
H408 C433 0.951 . S
H409 C435 0.950 . S
H410 C436 0.950 . S
H411 C438 0.950 . S
H412 C441 0.950 . S
H413 C442 0.950 . S
H414 C444 0.950 . S
H415 C445 0.950 . S
C416 H398 0.951 . S
C416 C417 1.366 . S
C416 C418 1.388 . S
C417 C416 1.366 . S
C417 C421 1.385 . S
C418 H399 0.951 . S
C418 C416 1.388 . S
C418 C419 1.366 . S
C419 C418 1.366 . S
C419 C420 1.414 . S
C419 C422 1.499 . S
C420 H400 0.950 . S
C420 C419 1.414 . S
C420 C421 1.374 . S
C421 H401 0.950 . S
C421 C417 1.385 . S
C421 C420 1.374 . S
C422 C419 1.499 . S
C422 C423 1.373 . S
C422 C424 1.389 . S
C423 H402 0.950 . S
C423 C422 1.373 . S
C423 C439 1.377 . S
C424 C422 1.389 . S
C424 C425 1.524 . S
C424 C438 1.377 . S
C425 C424 1.524 . S
C425 C426 1.397 . S
C425 C430 1.363 . S
C426 H403 0.950 . S
C426 C425 1.397 . S
C426 C427 1.334 . S
C427 H404 0.950 . S
C427 C426 1.334 . S
C427 C428 1.287 . S
C428 C427 1.287 . S
C428 C429 1.524 . S
C428 H447 0.913 . S
C429 H405 0.950 . S
C429 C428 1.524 . S
C429 C430 1.415 . S
C430 H406 0.950 . S
C430 C425 1.363 . S
C430 C429 1.415 . S
C431 H407 0.951 . S
C431 C432 1.366 . S
C431 C433 1.388 . S
C432 C431 1.366 . S
C432 C436 1.385 . S
C433 H408 0.951 . S
C433 C431 1.388 . S
C433 C434 1.366 . S
C434 C433 1.366 . S
C434 C435 1.414 . S
C434 C437 1.499 . S
C435 H409 0.950 . S
C435 C434 1.414 . S
C435 C436 1.374 . S
C436 H410 0.950 . S
C436 C432 1.385 . S
C436 C435 1.374 . S
C437 C434 1.499 . S
C437 C438 1.373 . S
C437 C439 1.389 . S
C438 H411 0.950 . S
C438 C424 1.377 . S
C438 C437 1.373 . S
C439 C423 1.377 . S
C439 C437 1.389 . S
C439 C440 1.524 . S
C440 C439 1.524 . S
C440 C441 1.397 . S
C440 C445 1.363 . S
C441 H412 0.950 . S
C441 C440 1.397 . S
C441 C442 1.334 . S
C442 H413 0.950 . S
C442 C441 1.334 . S
C442 C443 1.287 . S
C443 C442 1.287 . S
C443 C444 1.524 . S
C443 H446 0.999 . S
C444 H414 0.950 . S
C444 C443 1.524 . S
C444 C445 1.415 . S
C445 H415 0.950 . S
C445 C440 1.363 . S
C445 C444 1.415 . S
H446 C443 0.999 . S
H447 C428 0.913 . S
H448 C466 0.951 . S
H449 C468 0.951 . S
H450 C470 0.950 . S
H451 C471 0.950 . S
H452 C473 0.950 . S
H453 C476 0.950 . S
H454 C477 0.950 . S
H455 C479 0.950 . S
H456 C480 0.950 . S
H457 C481 0.951 . S
H458 C483 0.951 . S
H459 C485 0.950 . S
H460 C486 0.950 . S
H461 C488 0.950 . S
H462 C491 0.950 . S
H463 C492 0.950 . S
H464 C494 0.950 . S
H465 C495 0.950 . S
C466 H448 0.951 . S
C466 C467 1.366 . S
C466 C468 1.388 . S
C467 C466 1.366 . S
C467 C471 1.385 . S
C468 H449 0.951 . S
C468 C466 1.388 . S
C468 C469 1.366 . S
C469 C468 1.366 . S
C469 C470 1.414 . S
C469 C472 1.499 . S
C470 H450 0.950 . S
C470 C469 1.414 . S
C470 C471 1.374 . S
C471 H451 0.950 . S
C471 C467 1.385 . S
C471 C470 1.374 . S
C472 C469 1.499 . S
C472 C473 1.373 . S
C472 C474 1.389 . S
C473 H452 0.950 . S
C473 C472 1.373 . S
C473 C489 1.377 . S
C474 C472 1.389 . S
C474 C475 1.524 . S
C474 C488 1.377 . S
C475 C474 1.524 . S
C475 C476 1.397 . S
C475 C480 1.363 . S
C476 H453 0.950 . S
C476 C475 1.397 . S
C476 C477 1.334 . S
C477 H454 0.950 . S
C477 C476 1.334 . S
C477 C478 1.287 . S
C478 C477 1.287 . S
C478 C479 1.524 . S
C478 H497 0.913 . S
C479 H455 0.950 . S
C479 C478 1.524 . S
C479 C480 1.415 . S
C480 H456 0.950 . S
C480 C475 1.363 . S
C480 C479 1.415 . S
C481 H457 0.951 . S
C481 C482 1.366 . S
C481 C483 1.388 . S
C482 C481 1.366 . S
C482 C486 1.385 . S
C483 H458 0.951 . S
C483 C481 1.388 . S
C483 C484 1.366 . S
C484 C483 1.366 . S
C484 C485 1.414 . S
C484 C487 1.499 . S
C485 H459 0.950 . S
C485 C484 1.414 . S
C485 C486 1.374 . S
C486 H460 0.950 . S
C486 C482 1.385 . S
C486 C485 1.374 . S
C487 C484 1.499 . S
C487 C488 1.373 . S
C487 C489 1.389 . S
C488 H461 0.950 . S
C488 C474 1.377 . S
C488 C487 1.373 . S
C489 C473 1.377 . S
C489 C487 1.389 . S
C489 C490 1.524 . S
C490 C489 1.524 . S
C490 C491 1.397 . S
C490 C495 1.363 . S
C491 H462 0.950 . S
C491 C490 1.397 . S
C491 C492 1.334 . S
C492 H463 0.950 . S
C492 C491 1.334 . S
C492 C493 1.287 . S
C493 C492 1.287 . S
C493 C494 1.524 . S
C493 H496 0.999 . S
C494 H464 0.950 . S
C494 C493 1.524 . S
C494 C495 1.415 . S
C495 H465 0.950 . S
C495 C490 1.363 . S
C495 C494 1.415 . S
H496 C493 0.999 . S
H497 C478 0.913 . S
H498 C516 0.951 . S
H499 C518 0.951 . S
H500 C520 0.950 . S
H501 C521 0.950 . S
H502 C523 0.950 . S
H503 C526 0.950 . S
H504 C527 0.950 . S
H505 C529 0.950 . S
H506 C530 0.950 . S
H507 C531 0.951 . S
H508 C533 0.951 . S
H509 C535 0.950 . S
H510 C536 0.950 . S
H511 C538 0.950 . S
H512 C541 0.950 . S
H513 C542 0.950 . S
H514 C544 0.950 . S
H515 C545 0.950 . S
C516 H498 0.951 . S
C516 C517 1.366 . S
C516 C518 1.388 . S
C517 C516 1.366 . S
C517 C521 1.385 . S
C518 H499 0.951 . S
C518 C516 1.388 . S
C518 C519 1.366 . S
C519 C518 1.366 . S
C519 C520 1.414 . S
C519 C522 1.499 . S
C520 H500 0.950 . S
C520 C519 1.414 . S
C520 C521 1.374 . S
C521 H501 0.950 . S
C521 C517 1.385 . S
C521 C520 1.374 . S
C522 C519 1.499 . S
C522 C523 1.373 . S
C522 C524 1.389 . S
C523 H502 0.950 . S
C523 C522 1.373 . S
C523 C539 1.377 . S
C524 C522 1.389 . S
C524 C525 1.524 . S
C524 C538 1.377 . S
C525 C524 1.524 . S
C525 C526 1.397 . S
C525 C530 1.363 . S
C526 H503 0.950 . S
C526 C525 1.397 . S
C526 C527 1.334 . S
C527 H504 0.950 . S
C527 C526 1.334 . S
C527 C528 1.287 . S
C528 C527 1.287 . S
C528 C529 1.524 . S
C528 H547 0.913 . S
C529 H505 0.950 . S
C529 C528 1.524 . S
C529 C530 1.415 . S
C530 H506 0.950 . S
C530 C525 1.363 . S
C530 C529 1.415 . S
C531 H507 0.951 . S
C531 C532 1.366 . S
C531 C533 1.388 . S
C532 C531 1.366 . S
C532 C536 1.385 . S
C533 H508 0.951 . S
C533 C531 1.388 . S
C533 C534 1.366 . S
C534 C533 1.366 . S
C534 C535 1.414 . S
C534 C537 1.499 . S
C535 H509 0.950 . S
C535 C534 1.414 . S
C535 C536 1.374 . S
C536 H510 0.950 . S
C536 C532 1.385 . S
C536 C535 1.374 . S
C537 C534 1.499 . S
C537 C538 1.373 . S
C537 C539 1.389 . S
C538 H511 0.950 . S
C538 C524 1.377 . S
C538 C537 1.373 . S
C539 C523 1.377 . S
C539 C537 1.389 . S
C539 C540 1.524 . S
C540 C539 1.524 . S
C540 C541 1.397 . S
C540 C545 1.363 . S
C541 H512 0.950 . S
C541 C540 1.397 . S
C541 C542 1.334 . S
C542 H513 0.950 . S
C542 C541 1.334 . S
C542 C543 1.287 . S
C543 C542 1.287 . S
C543 C544 1.524 . S
C543 H546 0.999 . S
C544 H514 0.950 . S
C544 C543 1.524 . S
C544 C545 1.415 . S
C545 H515 0.950 . S
C545 C540 1.363 . S
C545 C544 1.415 . S
H546 C543 0.999 . S
H547 C528 0.913 . S
H548 C566 0.951 . S
H549 C568 0.951 . S
H550 C570 0.950 . S
H551 C571 0.950 . S
H552 C573 0.950 . S
H553 C576 0.950 . S
H554 C577 0.950 . S
H555 C579 0.950 . S
H556 C580 0.950 . S
H557 C581 0.951 . S
H558 C583 0.951 . S
H559 C585 0.950 . S
H560 C586 0.950 . S
H561 C588 0.950 . S
H562 C591 0.950 . S
H563 C592 0.950 . S
H564 C594 0.950 . S
H565 C595 0.950 . S
C566 H548 0.951 . S
C566 C567 1.366 . S
C566 C568 1.388 . S
C567 C566 1.366 . S
C567 C571 1.385 . S
C568 H549 0.951 . S
C568 C566 1.388 . S
C568 C569 1.366 . S
C569 C568 1.366 . S
C569 C570 1.414 . S
C569 C572 1.499 . S
C570 H550 0.950 . S
C570 C569 1.414 . S
C570 C571 1.374 . S
C571 H551 0.950 . S
C571 C567 1.385 . S
C571 C570 1.374 . S
C572 C569 1.499 . S
C572 C573 1.373 . S
C572 C574 1.389 . S
C573 H552 0.950 . S
C573 C572 1.373 . S
C573 C589 1.377 . S
C574 C572 1.389 . S
C574 C575 1.524 . S
C574 C588 1.377 . S
C575 C574 1.524 . S
C575 C576 1.397 . S
C575 C580 1.363 . S
C576 H553 0.950 . S
C576 C575 1.397 . S
C576 C577 1.334 . S
C577 H554 0.950 . S
C577 C576 1.334 . S
C577 C578 1.287 . S
C578 C577 1.287 . S
C578 C579 1.524 . S
C578 H597 0.913 . S
C579 H555 0.950 . S
C579 C578 1.524 . S
C579 C580 1.415 . S
C580 H556 0.950 . S
C580 C575 1.363 . S
C580 C579 1.415 . S
C581 H557 0.951 . S
C581 C582 1.366 . S
C581 C583 1.388 . S
C582 C581 1.366 . S
C582 C586 1.385 . S
C583 H558 0.951 . S
C583 C581 1.388 . S
C583 C584 1.366 . S
C584 C583 1.366 . S
C584 C585 1.414 . S
C584 C587 1.499 . S
C585 H559 0.950 . S
C585 C584 1.414 . S
C585 C586 1.374 . S
C586 H560 0.950 . S
C586 C582 1.385 . S
C586 C585 1.374 . S
C587 C584 1.499 . S
C587 C588 1.373 . S
C587 C589 1.389 . S
C588 H561 0.950 . S
C588 C574 1.377 . S
C588 C587 1.373 . S
C589 C573 1.377 . S
C589 C587 1.389 . S
C589 C590 1.524 . S
C590 C589 1.524 . S
C590 C591 1.397 . S
C590 C595 1.363 . S
C591 H562 0.950 . S
C591 C590 1.397 . S
C591 C592 1.334 . S
C592 H563 0.950 . S
C592 C591 1.334 . S
C592 C593 1.287 . S
C593 C592 1.287 . S
C593 C594 1.524 . S
C593 H596 0.999 . S
C594 H564 0.950 . S
C594 C593 1.524 . S
C594 C595 1.415 . S
C595 H565 0.950 . S
C595 C590 1.363 . S
C595 C594 1.415 . S
H596 C593 0.999 . S
H597 C578 0.913 . S
H598 C616 0.951 . S
H599 C618 0.951 . S
H600 C620 0.950 . S
H601 C621 0.950 . S
H602 C623 0.950 . S
H603 C626 0.950 . S
H604 C627 0.950 . S
H605 C629 0.950 . S
H606 C630 0.950 . S
H607 C631 0.951 . S
H608 C633 0.951 . S
H609 C635 0.950 . S
H610 C636 0.950 . S
H611 C638 0.950 . S
H612 C641 0.950 . S
H613 C642 0.950 . S
H614 C644 0.950 . S
H615 C645 0.950 . S
C616 H598 0.951 . S
C616 C617 1.366 . S
C616 C618 1.388 . S
C617 C616 1.366 . S
C617 C621 1.385 . S
C618 H599 0.951 . S
C618 C616 1.388 . S
C618 C619 1.366 . S
C619 C618 1.366 . S
C619 C620 1.414 . S
C619 C622 1.499 . S
C620 H600 0.950 . S
C620 C619 1.414 . S
C620 C621 1.374 . S
C621 H601 0.950 . S
C621 C617 1.385 . S
C621 C620 1.374 . S
C622 C619 1.499 . S
C622 C623 1.373 . S
C622 C624 1.389 . S
C623 H602 0.950 . S
C623 C622 1.373 . S
C623 C639 1.377 . S
C624 C622 1.389 . S
C624 C625 1.524 . S
C624 C638 1.377 . S
C625 C624 1.524 . S
C625 C626 1.397 . S
C625 C630 1.363 . S
C626 H603 0.950 . S
C626 C625 1.397 . S
C626 C627 1.334 . S
C627 H604 0.950 . S
C627 C626 1.334 . S
C627 C628 1.287 . S
C628 C627 1.287 . S
C628 C629 1.524 . S
C628 H647 0.913 . S
C629 H605 0.950 . S
C629 C628 1.524 . S
C629 C630 1.415 . S
C630 H606 0.950 . S
C630 C625 1.363 . S
C630 C629 1.415 . S
C631 H607 0.951 . S
C631 C632 1.366 . S
C631 C633 1.388 . S
C632 C631 1.366 . S
C632 C636 1.385 . S
C633 H608 0.951 . S
C633 C631 1.388 . S
C633 C634 1.366 . S
C634 C633 1.366 . S
C634 C635 1.414 . S
C634 C637 1.499 . S
C635 H609 0.950 . S
C635 C634 1.414 . S
C635 C636 1.374 . S
C636 H610 0.950 . S
C636 C632 1.385 . S
C636 C635 1.374 . S
C637 C634 1.499 . S
C637 C638 1.373 . S
C637 C639 1.389 . S
C638 H611 0.950 . S
C638 C624 1.377 . S
C638 C637 1.373 . S
C639 C623 1.377 . S
C639 C637 1.389 . S
C639 C640 1.524 . S
C640 C639 1.524 . S
C640 C641 1.397 . S
C640 C645 1.363 . S
C641 H612 0.950 . S
C641 C640 1.397 . S
C641 C642 1.334 . S
C642 H613 0.950 . S
C642 C641 1.334 . S
C642 C643 1.287 . S
C643 C642 1.287 . S
C643 C644 1.524 . S
C643 H646 0.999 . S
C644 H614 0.950 . S
C644 C643 1.524 . S
C644 C645 1.415 . S
C645 H615 0.950 . S
C645 C640 1.363 . S
C645 C644 1.415 . S
H646 C643 0.999 . S
H647 C628 0.913 . S
H648 C666 0.951 . S
H649 C668 0.951 . S
H650 C670 0.950 . S
H651 C671 0.950 . S
H652 C673 0.950 . S
H653 C676 0.950 . S
H654 C677 0.950 . S
H655 C679 0.950 . S
H656 C680 0.950 . S
H657 C681 0.951 . S
H658 C683 0.951 . S
H659 C685 0.950 . S
H660 C686 0.950 . S
H661 C688 0.950 . S
H662 C691 0.950 . S
H663 C692 0.950 . S
H664 C694 0.950 . S
H665 C695 0.950 . S
C666 H648 0.951 . S
C666 C667 1.366 . S
C666 C668 1.388 . S
C667 C666 1.366 . S
C667 C671 1.385 . S
C668 H649 0.951 . S
C668 C666 1.388 . S
C668 C669 1.366 . S
C669 C668 1.366 . S
C669 C670 1.414 . S
C669 C672 1.499 . S
C670 H650 0.950 . S
C670 C669 1.414 . S
C670 C671 1.374 . S
C671 H651 0.950 . S
C671 C667 1.385 . S
C671 C670 1.374 . S
C672 C669 1.499 . S
C672 C673 1.373 . S
C672 C674 1.389 . S
C673 H652 0.950 . S
C673 C672 1.373 . S
C673 C689 1.377 . S
C674 C672 1.389 . S
C674 C675 1.524 . S
C674 C688 1.377 . S
C675 C674 1.524 . S
C675 C676 1.397 . S
C675 C680 1.363 . S
C676 H653 0.950 . S
C676 C675 1.397 . S
C676 C677 1.334 . S
C677 H654 0.950 . S
C677 C676 1.334 . S
C677 C678 1.287 . S
C678 C677 1.287 . S
C678 C679 1.524 . S
C678 H697 0.913 . S
C679 H655 0.950 . S
C679 C678 1.524 . S
C679 C680 1.415 . S
C680 H656 0.950 . S
C680 C675 1.363 . S
C680 C679 1.415 . S
C681 H657 0.951 . S
C681 C682 1.366 . S
C681 C683 1.388 . S
C682 C681 1.366 . S
C682 C686 1.385 . S
C683 H658 0.951 . S
C683 C681 1.388 . S
C683 C684 1.366 . S
C684 C683 1.366 . S
C684 C685 1.414 . S
C684 C687 1.499 . S
C685 H659 0.950 . S
C685 C684 1.414 . S
C685 C686 1.374 . S
C686 H660 0.950 . S
C686 C682 1.385 . S
C686 C685 1.374 . S
C687 C684 1.499 . S
C687 C688 1.373 . S
C687 C689 1.389 . S
C688 H661 0.950 . S
C688 C674 1.377 . S
C688 C687 1.373 . S
C689 C673 1.377 . S
C689 C687 1.389 . S
C689 C690 1.524 . S
C690 C689 1.524 . S
C690 C691 1.397 . S
C690 C695 1.363 . S
C691 H662 0.950 . S
C691 C690 1.397 . S
C691 C692 1.334 . S
C692 H663 0.950 . S
C692 C691 1.334 . S
C692 C693 1.287 . S
C693 C692 1.287 . S
C693 C694 1.524 . S
C693 H696 0.999 . S
C694 H664 0.950 . S
C694 C693 1.524 . S
C694 C695 1.415 . S
C695 H665 0.950 . S
C695 C690 1.363 . S
C695 C694 1.415 . S
H696 C693 0.999 . S
H697 C678 0.913 . S
H698 C716 0.951 . S
H699 C718 0.951 . S
H700 C720 0.950 . S
H701 C721 0.950 . S
H702 C723 0.950 . S
H703 C726 0.950 . S
H704 C727 0.950 . S
H705 C729 0.950 . S
H706 C730 0.950 . S
H707 C731 0.951 . S
H708 C733 0.951 . S
H709 C735 0.950 . S
H710 C736 0.950 . S
H711 C738 0.950 . S
H712 C741 0.950 . S
H713 C742 0.950 . S
H714 C744 0.950 . S
H715 C745 0.950 . S
C716 H698 0.951 . S
C716 C717 1.366 . S
C716 C718 1.388 . S
C717 C716 1.366 . S
C717 C721 1.385 . S
C718 H699 0.951 . S
C718 C716 1.388 . S
C718 C719 1.366 . S
C719 C718 1.366 . S
C719 C720 1.414 . S
C719 C722 1.499 . S
C720 H700 0.950 . S
C720 C719 1.414 . S
C720 C721 1.374 . S
C721 H701 0.950 . S
C721 C717 1.385 . S
C721 C720 1.374 . S
C722 C719 1.499 . S
C722 C723 1.373 . S
C722 C724 1.389 . S
C723 H702 0.950 . S
C723 C722 1.373 . S
C723 C739 1.377 . S
C724 C722 1.389 . S
C724 C725 1.524 . S
C724 C738 1.377 . S
C725 C724 1.524 . S
C725 C726 1.397 . S
C725 C730 1.363 . S
C726 H703 0.950 . S
C726 C725 1.397 . S
C726 C727 1.334 . S
C727 H704 0.950 . S
C727 C726 1.334 . S
C727 C728 1.287 . S
C728 C727 1.287 . S
C728 C729 1.524 . S
C728 H747 0.913 . S
C729 H705 0.950 . S
C729 C728 1.524 . S
C729 C730 1.415 . S
C730 H706 0.950 . S
C730 C725 1.363 . S
C730 C729 1.415 . S
C731 H707 0.951 . S
C731 C732 1.366 . S
C731 C733 1.388 . S
C732 C731 1.366 . S
C732 C736 1.385 . S
C733 H708 0.951 . S
C733 C731 1.388 . S
C733 C734 1.366 . S
C734 C733 1.366 . S
C734 C735 1.414 . S
C734 C737 1.499 . S
C735 H709 0.950 . S
C735 C734 1.414 . S
C735 C736 1.374 . S
C736 H710 0.950 . S
C736 C732 1.385 . S
C736 C735 1.374 . S
C737 C734 1.499 . S
C737 C738 1.373 . S
C737 C739 1.389 . S
C738 H711 0.950 . S
C738 C724 1.377 . S
C738 C737 1.373 . S
C739 C723 1.377 . S
C739 C737 1.389 . S
C739 C740 1.524 . S
C740 C739 1.524 . S
C740 C741 1.397 . S
C740 C745 1.363 . S
C741 H712 0.950 . S
C741 C740 1.397 . S
C741 C742 1.334 . S
C742 H713 0.950 . S
C742 C741 1.334 . S
C742 C743 1.287 . S
C743 C742 1.287 . S
C743 C744 1.524 . S
C743 H746 0.999 . S
C744 H714 0.950 . S
C744 C743 1.524 . S
C744 C745 1.415 . S
C745 H715 0.950 . S
C745 C740 1.363 . S
C745 C744 1.415 . S
H746 C743 0.999 . S
H747 C728 0.913 . S
H748 C766 0.951 . S
H749 C768 0.951 . S
H750 C770 0.950 . S
H751 C771 0.950 . S
H752 C773 0.950 . S
H753 C776 0.950 . S
H754 C777 0.950 . S
H755 C779 0.950 . S
H756 C780 0.950 . S
H757 C781 0.951 . S
H758 C783 0.951 . S
H759 C785 0.950 . S
H760 C786 0.950 . S
H761 C788 0.950 . S
H762 C791 0.950 . S
H763 C792 0.950 . S
H764 C794 0.950 . S
H765 C795 0.950 . S
C766 H748 0.951 . S
C766 C767 1.366 . S
C766 C768 1.388 . S
C767 C766 1.366 . S
C767 C771 1.385 . S
C768 H749 0.951 . S
C768 C766 1.388 . S
C768 C769 1.366 . S
C769 C768 1.366 . S
C769 C770 1.414 . S
C769 C772 1.499 . S
C770 H750 0.950 . S
C770 C769 1.414 . S
C770 C771 1.374 . S
C771 H751 0.950 . S
C771 C767 1.385 . S
C771 C770 1.374 . S
C772 C769 1.499 . S
C772 C773 1.373 . S
C772 C774 1.389 . S
C773 H752 0.950 . S
C773 C772 1.373 . S
C773 C789 1.377 . S
C774 C772 1.389 . S
C774 C775 1.524 . S
C774 C788 1.377 . S
C775 C774 1.524 . S
C775 C776 1.397 . S
C775 C780 1.363 . S
C776 H753 0.950 . S
C776 C775 1.397 . S
C776 C777 1.334 . S
C777 H754 0.950 . S
C777 C776 1.334 . S
C777 C778 1.287 . S
C778 C777 1.287 . S
C778 C779 1.524 . S
C778 H797 0.913 . S
C779 H755 0.950 . S
C779 C778 1.524 . S
C779 C780 1.415 . S
C780 H756 0.950 . S
C780 C775 1.363 . S
C780 C779 1.415 . S
C781 H757 0.951 . S
C781 C782 1.366 . S
C781 C783 1.388 . S
C782 C781 1.366 . S
C782 C786 1.385 . S
C783 H758 0.951 . S
C783 C781 1.388 . S
C783 C784 1.366 . S
C784 C783 1.366 . S
C784 C785 1.414 . S
C784 C787 1.499 . S
C785 H759 0.950 . S
C785 C784 1.414 . S
C785 C786 1.374 . S
C786 H760 0.950 . S
C786 C782 1.385 . S
C786 C785 1.374 . S
C787 C784 1.499 . S
C787 C788 1.373 . S
C787 C789 1.389 . S
C788 H761 0.950 . S
C788 C774 1.377 . S
C788 C787 1.373 . S
C789 C773 1.377 . S
C789 C787 1.389 . S
C789 C790 1.524 . S
C790 C789 1.524 . S
C790 C791 1.397 . S
C790 C795 1.363 . S
C791 H762 0.950 . S
C791 C790 1.397 . S
C791 C792 1.334 . S
C792 H763 0.950 . S
C792 C791 1.334 . S
C792 C793 1.287 . S
C793 C792 1.287 . S
C793 C794 1.524 . S
C793 H796 0.999 . S
C794 H764 0.950 . S
C794 C793 1.524 . S
C794 C795 1.415 . S
C795 H765 0.950 . S
C795 C790 1.363 . S
C795 C794 1.415 . S
H796 C793 0.999 . S
H797 C778 0.913 . S
H798 C816 0.951 . S
H799 C818 0.951 . S
H800 C820 0.950 . S
H801 C821 0.950 . S
H802 C823 0.950 1_655 S
H803 C826 0.950 . S
H804 C827 0.950 . S
H805 C829 0.950 . S
H806 C830 0.950 . S
H807 C831 0.963 . S
H808 C833 0.951 1_655 S
H809 C835 0.950 . S
H810 C836 0.950 . S
H811 C838 0.961 . S
H812 C841 0.950 . S
H813 C842 0.950 . S
H814 C844 0.950 . S
H815 C845 0.950 . S
C816 H798 0.951 . S
C816 C817 1.366 . S
C816 C818 1.388 . S
C817 C816 1.366 . S
C817 C821 1.385 1_455 S
C818 H799 0.951 . S
C818 C816 1.388 . S
C818 C819 1.366 . S
C819 C818 1.366 . S
C819 C820 1.414 1_455 S
C819 C822 1.499 . S
C820 H800 0.950 . S
C820 C819 1.414 1_655 S
C820 C821 1.374 . S
C821 H801 0.950 . S
C821 C817 1.385 1_655 S
C821 C820 1.374 . S
C822 C819 1.499 . S
C822 C823 1.373 . S
C822 C824 1.389 . S
C823 H802 0.950 1_455 S
C823 C822 1.373 . S
C823 C839 1.377 1_554 S
C824 C822 1.389 . S
C824 C825 1.524 . S
C824 C838 1.353 1_554 S
C825 C824 1.524 . S
C825 C826 1.397 . S
C825 C830 1.363 . S
C826 H803 0.950 . S
C826 C825 1.397 . S
C826 C827 1.334 . S
C827 H804 0.950 . S
C827 C826 1.334 . S
C827 C828 1.287 . S
C828 C827 1.287 . S
C828 C829 1.524 . S
C828 H847 0.913 . S
C829 H805 0.950 . S
C829 C828 1.524 . S
C829 C830 1.415 . S
C830 H806 0.950 . S
C830 C825 1.363 . S
C830 C829 1.415 . S
C831 H807 0.963 . S
C831 C832 1.366 . S
C831 C833 1.388 . S
C832 C831 1.366 . S
C832 C836 1.385 . S
C833 H808 0.951 1_455 S
C833 C831 1.388 . S
C833 C834 1.366 . S
C834 C833 1.366 . S
C834 C835 1.414 . S
C834 C837 1.499 . S
C835 H809 0.950 . S
C835 C834 1.414 . S
C835 C836 1.374 . S
C836 H810 0.950 . S
C836 C832 1.385 . S
C836 C835 1.374 . S
C837 C834 1.499 . S
C837 C838 1.387 . S
C837 C839 1.389 . S
C838 H811 0.961 . S
C838 C824 1.353 1_556 S
C838 C837 1.387 . S
C839 C823 1.377 1_556 S
C839 C837 1.389 . S
C839 C840 1.524 1_455 S
C840 C839 1.524 1_655 S
C840 C841 1.397 1_655 S
C840 C845 1.363 . S
C841 H812 0.950 . S
C841 C840 1.397 1_455 S
C841 C842 1.334 . S
C842 H813 0.950 . S
C842 C841 1.334 . S
C842 C843 1.287 1_455 S
C843 C842 1.287 1_655 S
C843 C844 1.524 . S
C843 H846 0.999 . S
C844 H814 0.950 . S
C844 C843 1.524 . S
C844 C845 1.415 . S
C845 H815 0.950 . S
C845 C840 1.363 . S
C845 C844 1.415 . S
H846 C843 0.999 . S
H847 C828 0.913 . S
H848 C866 0.951 . S
H849 C868 0.951 . S
H850 C870 0.950 . S
H851 C871 0.950 . S
H852 C873 0.950 . S
H853 C876 0.950 . S
H854 C877 0.950 . S
H855 C879 0.950 . S
H856 C880 0.950 . S
H857 C881 0.951 . S
H858 C883 0.951 . S
H859 C885 0.950 . S
H860 C886 0.950 . S
H861 C888 0.950 . S
H862 C891 0.950 . S
H863 C892 0.950 . S
H864 C894 0.950 . S
H865 C895 0.950 . S
C866 H848 0.951 . S
C866 C867 1.366 . S
C866 C868 1.388 . S
C867 C866 1.366 . S
C867 C871 1.385 . S
C868 H849 0.951 . S
C868 C866 1.388 . S
C868 C869 1.366 . S
C869 C868 1.366 . S
C869 C870 1.414 . S
C869 C872 1.499 . S
C870 H850 0.950 . S
C870 C869 1.414 . S
C870 C871 1.374 . S
C871 H851 0.950 . S
C871 C867 1.385 . S
C871 C870 1.374 . S
C872 C869 1.499 . S
C872 C873 1.373 . S
C872 C874 1.389 . S
C873 H852 0.950 . S
C873 C872 1.373 . S
C873 C889 1.377 . S
C874 C872 1.389 . S
C874 C875 1.524 1_545 S
C874 C888 1.377 . S
C875 C874 1.524 1_565 S
C875 C876 1.397 . S
C875 C880 1.363 1_565 S
C876 H853 0.950 . S
C876 C875 1.397 . S
C876 C877 1.334 . S
C877 H854 0.950 . S
C877 C876 1.334 . S
C877 C878 1.287 . S
C878 C877 1.287 . S
C878 C879 1.524 . S
C878 H897 0.913 . S
C879 H855 0.950 . S
C879 C878 1.524 . S
C879 C880 1.415 1_565 S
C880 H856 0.950 . S
C880 C875 1.363 1_545 S
C880 C879 1.415 1_545 S
C881 H857 0.951 . S
C881 C882 1.366 . S
C881 C883 1.388 . S
C882 C881 1.366 . S
C882 C886 1.385 . S
C883 H858 0.951 . S
C883 C881 1.388 . S
C883 C884 1.366 . S
C884 C883 1.366 . S
C884 C885 1.414 . S
C884 C887 1.499 . S
C885 H859 0.950 . S
C885 C884 1.414 . S
C885 C886 1.374 . S
C886 H860 0.950 . S
C886 C882 1.385 . S
C886 C885 1.374 . S
C887 C884 1.499 . S
C887 C888 1.373 . S
C887 C889 1.389 . S
C888 H861 0.950 . S
C888 C874 1.377 . S
C888 C887 1.373 . S
C889 C873 1.377 . S
C889 C887 1.389 . S
C889 C890 1.524 . S
C890 C889 1.524 . S
C890 C891 1.397 . S
C890 C895 1.363 . S
C891 H862 0.950 . S
C891 C890 1.397 . S
C891 C892 1.334 . S
C892 H863 0.950 . S
C892 C891 1.334 . S
C892 C893 1.287 . S
C893 C892 1.287 . S
C893 C894 1.524 . S
C893 H896 0.999 . S
C894 H864 0.950 . S
C894 C893 1.524 . S
C894 C895 1.415 . S
C895 H865 0.950 . S
C895 C890 1.363 . S
C895 C894 1.415 . S
H896 C893 0.999 . S
H897 C878 0.913 . S
H898 C916 0.951 . S
H899 C918 0.951 . S
H900 C920 0.950 . S
H901 C921 0.950 . S
H902 C923 0.950 . S
H903 C926 0.950 . S
H904 C927 0.950 . S
H905 C929 0.950 . S
H906 C930 0.950 . S
H907 C931 0.951 . S
H908 C933 0.951 . S
H909 C935 0.950 . S
H910 C936 0.950 . S
H911 C938 0.950 . S
H912 C941 0.950 . S
H913 C942 0.950 . S
H914 C944 0.950 . S
H915 C945 0.950 . S
C916 H898 0.951 . S
C916 C917 1.366 . S
C916 C918 1.388 . S
C917 C916 1.366 . S
C917 C921 1.385 . S
C918 H899 0.951 . S
C918 C916 1.388 . S
C918 C919 1.366 . S
C919 C918 1.366 . S
C919 C920 1.414 . S
C919 C922 1.499 . S
C920 H900 0.950 . S
C920 C919 1.414 . S
C920 C921 1.374 . S
C921 H901 0.950 . S
C921 C917 1.385 . S
C921 C920 1.374 . S
C922 C919 1.499 . S
C922 C923 1.373 . S
C922 C924 1.389 . S
C923 H902 0.950 . S
C923 C922 1.373 . S
C923 C939 1.377 . S
C924 C922 1.389 . S
C924 C925 1.524 . S
C924 C938 1.377 . S
C925 C924 1.524 . S
C925 C926 1.397 . S
C925 C930 1.363 . S
C926 H903 0.950 . S
C926 C925 1.397 . S
C926 C927 1.334 . S
C927 H904 0.950 . S
C927 C926 1.334 . S
C927 C928 1.287 . S
C928 C927 1.287 . S
C928 C929 1.524 . S
C928 H947 0.913 . S
C929 H905 0.950 . S
C929 C928 1.524 . S
C929 C930 1.415 . S
C930 H906 0.950 . S
C930 C925 1.363 . S
C930 C929 1.415 . S
C931 H907 0.951 . S
C931 C932 1.366 . S
C931 C933 1.388 . S
C932 C931 1.366 . S
C932 C936 1.385 . S
C933 H908 0.951 . S
C933 C931 1.388 . S
C933 C934 1.366 . S
C934 C933 1.366 . S
C934 C935 1.414 . S
C934 C937 1.499 . S
C935 H909 0.950 . S
C935 C934 1.414 . S
C935 C936 1.374 . S
C936 H910 0.950 . S
C936 C932 1.385 . S
C936 C935 1.374 . S
C937 C934 1.499 . S
C937 C938 1.373 . S
C937 C939 1.389 . S
C938 H911 0.950 . S
C938 C924 1.377 . S
C938 C937 1.373 . S
C939 C923 1.377 . S
C939 C937 1.389 . S
C939 C940 1.524 . S
C940 C939 1.524 . S
C940 C941 1.397 . S
C940 C945 1.363 . S
C941 H912 0.950 . S
C941 C940 1.397 . S
C941 C942 1.334 . S
C942 H913 0.950 . S
C942 C941 1.334 . S
C942 C943 1.287 . S
C943 C942 1.287 . S
C943 C944 1.524 . S
C943 H946 0.999 . S
C944 H914 0.950 . S
C944 C943 1.524 . S
C944 C945 1.415 . S
C945 H915 0.950 . S
C945 C940 1.363 . S
C945 C944 1.415 . S
H946 C943 0.999 . S
H947 C928 0.913 . S
H948 C966 0.951 . S
H949 C968 0.951 . S
H950 C970 0.950 . S
H951 C971 0.950 . S
H952 C973 0.950 1_565 S
H953 C976 0.950 1_565 S
H954 C977 0.950 1_565 S
H955 C979 0.950 . S
H956 C980 0.950 . S
H957 C981 0.951 . S
H958 C983 0.951 . S
H959 C985 0.950 . S
H960 C986 0.950 . S
H961 C988 0.950 . S
H962 C991 0.950 . S
H963 C992 0.950 . S
H964 C994 0.950 . S
H965 C995 0.950 . S
C966 H948 0.951 . S
C966 C967 1.366 . S
C966 C968 1.388 . S
C967 C966 1.366 . S
C967 C971 1.385 1_545 S
C968 H949 0.951 . S
C968 C966 1.388 . S
C968 C969 1.366 . S
C969 C968 1.366 . S
C969 C970 1.414 1_545 S
C969 C972 1.499 . S
C970 H950 0.950 . S
C970 C969 1.414 1_565 S
C970 C971 1.374 . S
C971 H951 0.950 . S
C971 C967 1.385 1_565 S
C971 C970 1.374 . S
C972 C969 1.499 . S
C972 C973 1.373 . S
C972 C974 1.389 . S
C973 H952 0.950 1_545 S
C973 C972 1.373 . S
C973 C989 1.377 . S
C974 C972 1.389 . S
C974 C975 1.524 . S
C974 C988 1.377 . S
C975 C974 1.524 . S
C975 C976 1.397 . S
C975 C980 1.363 . S
C976 H953 0.950 1_545 S
C976 C975 1.397 . S
C976 C977 1.334 . S
C977 H954 0.950 1_545 S
C977 C976 1.334 . S
C977 C978 1.287 . S
C978 C977 1.287 . S
C978 C979 1.524 . S
C978 H997 0.913 . S
C979 H955 0.950 . S
C979 C978 1.524 . S
C979 C980 1.415 . S
C980 H956 0.950 . S
C980 C975 1.363 . S
C980 C979 1.415 . S
C981 H957 0.951 . S
C981 C982 1.366 1_565 S
C981 C983 1.388 . S
C982 C981 1.366 1_545 S
C982 C986 1.385 . S
C983 H958 0.951 . S
C983 C981 1.388 . S
C983 C984 1.366 1_565 S
C984 C983 1.366 1_545 S
C984 C985 1.414 . S
C984 C987 1.499 . S
C985 H959 0.950 . S
C985 C984 1.414 . S
C985 C986 1.374 . S
C986 H960 0.950 . S
C986 C982 1.385 . S
C986 C985 1.374 . S
C987 C984 1.499 . S
C987 C988 1.373 . S
C987 C989 1.389 . S
C988 H961 0.950 . S
C988 C974 1.377 . S
C988 C987 1.373 . S
C989 C973 1.377 . S
C989 C987 1.389 . S
C989 C990 1.524 1_545 S
C990 C989 1.524 1_565 S
C990 C991 1.397 1_565 S
C990 C995 1.363 . S
C991 H962 0.950 . S
C991 C990 1.397 1_545 S
C991 C992 1.334 . S
C992 H963 0.950 . S
C992 C991 1.334 . S
C992 C993 1.287 1_545 S
C993 C992 1.287 1_565 S
C993 C994 1.524 . S
C993 H996 0.999 . S
C994 H964 0.950 . S
C994 C993 1.524 . S
C994 C995 1.415 . S
C995 H965 0.950 . S
C995 C990 1.363 . S
C995 C994 1.415 . S
H996 C993 0.999 . S
H997 C978 0.913 . S
H998 C1016 0.951 . S
H999 C1018 0.951 . S
H1000 C1020 0.950 . S
H1001 C1021 0.950 . S
H1002 C1023 0.950 . S
H1003 C1026 0.950 . S
H1004 C1027 0.950 . S
H1005 C1029 0.950 . S
H1006 C1030 0.950 . S
H1007 C1031 0.951 . S
H1008 C1033 0.951 . S
H1009 C1035 0.950 . S
H1010 C1036 0.950 . S
H1011 C1038 0.950 1_554 S
H1012 C1041 0.950 . S
H1013 C1042 0.950 . S
H1014 C1044 0.950 . S
H1015 C1045 0.950 . S
C1016 H998 0.951 . S
C1016 C1017 1.366 . S
C1016 C1018 1.388 . S
C1017 C1016 1.366 . S
C1017 C1021 1.385 . S
C1018 H999 0.951 . S
C1018 C1016 1.388 . S
C1018 C1019 1.366 . S
C1019 C1018 1.366 . S
C1019 C1020 1.414 . S
C1019 C1022 1.499 . S
C1020 H1000 0.950 . S
C1020 C1019 1.414 . S
C1020 C1021 1.374 . S
C1021 H1001 0.950 . S
C1021 C1017 1.385 . S
C1021 C1020 1.374 . S
C1022 C1019 1.499 . S
C1022 C1023 1.373 . S
C1022 C1024 1.389 . S
C1023 H1002 0.950 . S
C1023 C1022 1.373 . S
C1023 C1039 1.377 1_556 S
C1024 C1022 1.389 . S
C1024 C1025 1.524 . S
C1024 C1038 1.377 . S
C1025 C1024 1.524 . S
C1025 C1026 1.397 . S
C1025 C1030 1.363 . S
C1026 H1003 0.950 . S
C1026 C1025 1.397 . S
C1026 C1027 1.334 . S
C1027 H1004 0.950 . S
C1027 C1026 1.334 . S
C1027 C1028 1.287 . S
C1028 C1027 1.287 . S
C1028 C1029 1.524 . S
C1028 H1047 0.913 . S
C1029 H1005 0.950 . S
C1029 C1028 1.524 . S
C1029 C1030 1.415 . S
C1030 H1006 0.950 . S
C1030 C1025 1.363 . S
C1030 C1029 1.415 . S
C1031 H1007 0.951 . S
C1031 C1032 1.366 . S
C1031 C1033 1.388 . S
C1032 C1031 1.366 . S
C1032 C1036 1.385 . S
C1033 H1008 0.951 . S
C1033 C1031 1.388 . S
C1033 C1034 1.366 . S
C1034 C1033 1.366 . S
C1034 C1035 1.414 . S
C1034 C1037 1.499 . S
C1035 H1009 0.950 . S
C1035 C1034 1.414 . S
C1035 C1036 1.374 . S
C1036 H1010 0.950 . S
C1036 C1032 1.385 . S
C1036 C1035 1.374 . S
C1037 C1034 1.499 . S
C1037 C1038 1.373 1_554 S
C1037 C1039 1.389 . S
C1038 H1011 0.950 1_556 S
C1038 C1024 1.377 . S
C1038 C1037 1.373 1_556 S
C1039 C1023 1.377 1_554 S
C1039 C1037 1.389 . S
C1039 C1040 1.524 . S
C1040 C1039 1.524 . S
C1040 C1041 1.397 . S
C1040 C1045 1.363 . S
C1041 H1012 0.950 . S
C1041 C1040 1.397 . S
C1041 C1042 1.334 . S
C1042 H1013 0.950 . S
C1042 C1041 1.334 . S
C1042 C1043 1.287 . S
C1043 C1042 1.287 . S
C1043 C1044 1.524 . S
C1043 H1046 0.999 . S
C1044 H1014 0.950 . S
C1044 C1043 1.524 . S
C1044 C1045 1.415 . S
C1045 H1015 0.950 . S
C1045 C1040 1.363 . S
C1045 C1044 1.415 . S
H1046 C1043 0.999 . S
H1047 C1028 0.913 . S
H1048 C1066 0.951 . S
H1049 C1068 0.951 . S
H1050 C1070 0.950 . S
H1051 C1071 0.950 1_655 S
H1052 C1073 0.950 . S
H1053 C1076 0.950 . S
H1054 C1077 0.950 . S
H1055 C1079 0.950 . S
H1056 C1080 0.950 1_455 S
H1057 C1081 0.951 . S
H1058 C1083 0.951 . S
H1059 C1085 0.950 . S
H1060 C1086 0.950 . S
H1061 C1088 0.950 . S
H1062 C1091 0.950 . S
H1063 C1092 0.950 . S
H1064 C1094 0.950 . S
H1065 C1095 0.950 . S
C1066 H1048 0.951 . S
C1066 C1067 1.366 . S
C1066 C1068 1.388 . S
C1067 C1066 1.366 . S
C1067 C1071 1.385 . S
C1068 H1049 0.951 . S
C1068 C1066 1.388 . S
C1068 C1069 1.366 . S
C1069 C1068 1.366 . S
C1069 C1070 1.414 . S
C1069 C1072 1.499 . S
C1070 H1050 0.950 . S
C1070 C1069 1.414 . S
C1070 C1071 1.374 . S
C1071 H1051 0.950 1_455 S
C1071 C1067 1.385 . S
C1071 C1070 1.374 . S
C1072 C1069 1.499 . S
C1072 C1073 1.373 . S
C1072 C1074 1.389 . S
C1073 H1052 0.950 . S
C1073 C1072 1.373 . S
C1073 C1089 1.377 . S
C1074 C1072 1.389 . S
C1074 C1075 1.524 1_455 S
C1074 C1088 1.377 . S
C1075 C1074 1.524 1_655 S
C1075 C1076 1.397 . S
C1075 C1080 1.363 . S
C1076 H1053 0.950 . S
C1076 C1075 1.397 . S
C1076 C1077 1.334 . S
C1077 H1054 0.950 . S
C1077 C1076 1.334 . S
C1077 C1078 1.287 . S
C1078 C1077 1.287 . S
C1078 C1079 1.524 . S
C1078 H1097 0.913 . S
C1079 H1055 0.950 . S
C1079 C1078 1.524 . S
C1079 C1080 1.415 . S
C1080 H1056 0.950 1_655 S
C1080 C1075 1.363 . S
C1080 C1079 1.415 . S
C1081 H1057 0.951 . S
C1081 C1082 1.366 . S
C1081 C1083 1.388 . S
C1082 C1081 1.366 . S
C1082 C1086 1.385 . S
C1083 H1058 0.951 . S
C1083 C1081 1.388 . S
C1083 C1084 1.366 . S
C1084 C1083 1.366 . S
C1084 C1085 1.414 . S
C1084 C1087 1.499 . S
C1085 H1059 0.950 . S
C1085 C1084 1.414 . S
C1085 C1086 1.374 . S
C1086 H1060 0.950 . S
C1086 C1082 1.385 . S
C1086 C1085 1.374 . S
C1087 C1084 1.499 . S
C1087 C1088 1.373 . S
C1087 C1089 1.389 . S
C1088 H1061 0.950 . S
C1088 C1074 1.377 . S
C1088 C1087 1.373 . S
C1089 C1073 1.377 . S
C1089 C1087 1.389 . S
C1089 C1090 1.524 . S
C1090 C1089 1.524 . S
C1090 C1091 1.397 . S
C1090 C1095 1.363 . S
C1091 H1062 0.950 . S
C1091 C1090 1.397 . S
C1091 C1092 1.334 . S
C1092 H1063 0.950 . S
C1092 C1091 1.334 . S
C1092 C1093 1.287 . S
C1093 C1092 1.287 . S
C1093 C1094 1.524 . S
C1093 H1096 0.999 . S
C1094 H1064 0.950 . S
C1094 C1093 1.524 . S
C1094 C1095 1.415 . S
C1095 H1065 0.950 . S
C1095 C1090 1.363 . S
C1095 C1094 1.415 . S
H1096 C1093 0.999 . S
H1097 C1078 0.913 . S
C217 C19 1.915 . S
C232 C189 1.760 . S
C267 C46 1.105 . S
C282 C167 1.099 . S
C317 C95 0.250 . S
C332 C180 0.181 . S
C367 C10 1.845 . S
C382 C193 1.830 . S
C432 C163 1.248 . S
C417 C55 1.321 . S
C482 C176 0.581 . S
C467 C86 0.549 . S
C517 C59 2.988 . S
C532 C141 2.953 . S
C567 C90 1.843 . S
C582 C154 1.832 1_655 S
C617 C15 1.285 . S
C632 C124 1.217 . S
C682 C137 2.864 . S
C667 C50 3.025 . S
C732 C150 1.793 . S
C717 C99 1.933 . S
C767 C6 1.062 . S
C782 C128 1.057 . S
C832 C155 1.479 . S
C817 C9 1.435 . S
C867 C58 1.509 . S
C882 C129 1.603 . S
C917 C98 1.680 . S
C932 C142 1.718 . S
C982 C181 1.336 . S
C967 C49 1.320 . S
C1032 C194 1.452 . S
C1017 C89 1.400 . S
C1067 C18 1.485 . S
C1082 C168 1.552 . S
