# Generated by pormake.
# Topology zzz, (3,6)-cn, num edge types: 1
# Building blocks:
#     Node 0, Type 0, BuildingBlock: BETDIP_clean_linker_0, # of connection points: 3
#     Node 1, Type 0, BuildingBlock: BETDIP_clean_linker_0, # of connection points: 3
#     Node 2, Type 0, BuildingBlock: BETDIP_clean_linker_0, # of connection points: 3
#     Node 3, Type 0, BuildingBlock: BETDIP_clean_linker_0, # of connection points: 3
#     Node 4, Type 0, BuildingBlock: BETDIP_clean_linker_0, # of connection points: 3
#     Node 5, Type 0, BuildingBlock: BETDIP_clean_linker_0, # of connection points: 3
#     Node 6, Type 0, BuildingBlock: BETDIP_clean_linker_0, # of connection points: 3
#     Node 7, Type 0, BuildingBlock: BETDIP_clean_linker_0, # of connection points: 3
#     Node 8, Type 1, BuildingBlock: KUMBUR_clean_sbu_0, # of connection points: 6
#     Node 9, Type 1, BuildingBlock: KUMBUR_clean_sbu_0, # of connection points: 6
#     Node 10, Type 1, BuildingBlock: KUMBUR_clean_sbu_0, # of connection points: 6
#     Node 11, Type 1, BuildingBlock: KUMBUR_clean_sbu_0, # of connection points: 6
#     Edge 12, Type (0, 1), BuildingBlock: KIFKEQ_clean_linker_1, # of connection points: 2
#     Edge 13, Type (0, 1), BuildingBlock: KIFKEQ_clean_linker_1, # of connection points: 2
#     Edge 14, Type (0, 1), BuildingBlock: KIFKEQ_clean_linker_1, # of connection points: 2
#     Edge 15, Type (0, 1), BuildingBlock: KIFKEQ_clean_linker_1, # of connection points: 2
#     Edge 16, Type (0, 1), BuildingBlock: KIFKEQ_clean_linker_1, # of connection points: 2
#     Edge 17, Type (0, 1), BuildingBlock: KIFKEQ_clean_linker_1, # of connection points: 2
#     Edge 18, Type (0, 1), BuildingBlock: KIFKEQ_clean_linker_1, # of connection points: 2
#     Edge 19, Type (0, 1), BuildingBlock: KIFKEQ_clean_linker_1, # of connection points: 2
#     Edge 20, Type (0, 1), BuildingBlock: KIFKEQ_clean_linker_1, # of connection points: 2
#     Edge 21, Type (0, 1), BuildingBlock: KIFKEQ_clean_linker_1, # of connection points: 2
#     Edge 22, Type (0, 1), BuildingBlock: KIFKEQ_clean_linker_1, # of connection points: 2
#     Edge 23, Type (0, 1), BuildingBlock: KIFKEQ_clean_linker_1, # of connection points: 2
#     Edge 24, Type (0, 1), BuildingBlock: KIFKEQ_clean_linker_1, # of connection points: 2
#     Edge 25, Type (0, 1), BuildingBlock: KIFKEQ_clean_linker_1, # of connection points: 2
#     Edge 26, Type (0, 1), BuildingBlock: KIFKEQ_clean_linker_1, # of connection points: 2
#     Edge 27, Type (0, 1), BuildingBlock: KIFKEQ_clean_linker_1, # of connection points: 2
#     Edge 28, Type (0, 1), BuildingBlock: KIFKEQ_clean_linker_1, # of connection points: 2
#     Edge 29, Type (0, 1), BuildingBlock: KIFKEQ_clean_linker_1, # of connection points: 2
#     Edge 30, Type (0, 1), BuildingBlock: KIFKEQ_clean_linker_1, # of connection points: 2
#     Edge 31, Type (0, 1), BuildingBlock: KIFKEQ_clean_linker_1, # of connection points: 2
#     Edge 32, Type (0, 1), BuildingBlock: KIFKEQ_clean_linker_1, # of connection points: 2
#     Edge 33, Type (0, 1), BuildingBlock: KIFKEQ_clean_linker_1, # of connection points: 2
#     Edge 34, Type (0, 1), BuildingBlock: KIFKEQ_clean_linker_1, # of connection points: 2
#     Edge 35, Type (0, 1), BuildingBlock: KIFKEQ_clean_linker_1, # of connection points: 2
# Relax obj value: 0.174
# Max RMSD: 0.162
# Mean RMSD: 0.115
data_MOF--net-zzz--node1-KUMBUR_clean_sbu_0--node2-BETDIP_clean_linker_0--edge1-KIFKEQ_clean_linker_1
_symmetry_space_group_name_H-M    P1
_symmetry_Int_Tables_number       1
_symmetry_cell_setting            triclinic
loop_
_symmetry_equiv_pos_as_xyz
'x, y, z'
_cell_length_a     51.38024
_cell_length_b     51.423138
_cell_length_c     14.828309
_cell_angle_alpha  91.268764
_cell_angle_beta   89.936811
_cell_angle_gamma 89.95247
loop_
_atom_site_label
_atom_site_type_symbol
_atom_site_fract_x
_atom_site_fract_y
_atom_site_fract_z
_atom_type_partial_charge
H0 H 0.76559 0.52895 0.31691 0.0
H1 H 0.75698 0.57745 0.08459 0.0
H2 H 0.82943 0.576 0.22779 0.0
H3 H 0.71515 0.582 0.15828 0.0
C4 C 0.71181 0.5612 0.14997 0.0
C5 C 0.77346 0.54303 0.27104 0.0
C6 C 0.79946 0.55217 0.28273 0.0
C7 C 0.75755 0.55273 0.20032 0.0
C8 C 0.76843 0.57064 0.14062 0.0
C9 C 0.79418 0.57912 0.14972 0.0
C10 C 0.80925 0.57007 0.22152 0.0
N11 N 0.73118 0.54407 0.18586 0.0
H12 H 0.01759 0.78104 0.289 0.0
H13 H 0.96145 0.76954 0.07483 0.0
H14 H 0.96371 0.84179 0.22319 0.0
H15 H 0.96407 0.72822 0.10869 0.0
C16 C 0.98493 0.72541 0.11494 0.0
C17 C 1.00119 0.78779 0.25014 0.0
C18 C 0.99109 0.81339 0.26686 0.0
C19 C 0.98983 0.77099 0.1826 0.0
C20 C 0.96934 0.78097 0.13037 0.0
C21 C 0.95983 0.80632 0.14434 0.0
C22 C 0.97034 0.82187 0.21405 0.0
N23 N 0.99989 0.74513 0.16265 0.0
H24 H 0.76394 0.01623 0.30242 0.0
H25 H 0.77907 0.95658 0.10007 0.0
H26 H 0.70515 0.95972 0.23603 0.0
H27 H 0.82286 0.96223 0.19053 0.0
C28 C 0.82254 0.98158 0.16244 0.0
C29 C 0.75791 0.99889 0.26536 0.0
C30 C 0.73282 0.98815 0.28085 0.0
C31 C 0.77524 0.98685 0.2019 0.0
C32 C 0.76656 0.965 0.15181 0.0
C33 C 0.74113 0.95543 0.16169 0.0
C34 C 0.72501 0.96649 0.22887 0.0
N35 N 0.80033 0.99773 0.182 0.0
H36 H 0.53931 0.77666 0.33267 0.0
H37 H 0.58896 0.78382 0.09969 0.0
H38 H 0.59017 0.71381 0.25189 0.0
H39 H 0.59119 0.83004 0.20422 0.0
C40 C 0.57136 0.83057 0.17883 0.0
C41 C 0.55436 0.76883 0.28867 0.0
C42 C 0.5645 0.74357 0.30335 0.0
C43 C 0.5642 0.78408 0.21739 0.0
C44 C 0.58279 0.77313 0.15815 0.0
C45 C 0.59201 0.74779 0.16989 0.0
C46 C 0.58352 0.73368 0.24419 0.0
N47 N 0.55433 0.80957 0.20052 0.0
H48 H 0.27222 0.52253 0.02193 0.0
H49 H 0.28274 0.47124 0.24582 0.0
H50 H 0.21136 0.46977 0.09607 0.0
H51 H 0.29822 0.51232 0.30419 0.0
C52 C 0.31339 0.51291 0.25305 0.0
C53 C 0.26514 0.50714 0.06413 0.0
C54 C 0.24012 0.49605 0.04741 0.0
C55 C 0.28064 0.49849 0.13756 0.0
C56 C 0.27096 0.47846 0.19128 0.0
C57 C 0.24598 0.46823 0.17813 0.0
C58 C 0.23105 0.47689 0.10534 0.0
N59 N 0.30539 0.51008 0.16034 0.0
H60 H 0.02082 0.26623 0.04153 0.0
H61 H 0.08183 0.28212 0.23544 0.0
H62 H 0.08079 0.20965 0.08669 0.0
H63 H 0.04426 0.29721 0.31339 0.0
C64 C 0.0394 0.31134 0.26257 0.0
C65 C 0.03869 0.26066 0.07462 0.0
C66 C 0.05053 0.23617 0.05226 0.0
C67 C 0.04985 0.27755 0.14219 0.0
C68 C 0.07288 0.26954 0.18488 0.0
C69 C 0.0839 0.245 0.16692 0.0
C70 C 0.07298 0.229 0.09903 0.0
N71 N 0.03788 0.30191 0.17028 0.0
H72 H 0.2847 0.03692 1.00987 0.0
H73 H 0.26847 0.08631 0.24219 0.0
H74 H 0.34337 0.08892 0.11637 0.0
H75 H 0.25631 0.03762 0.27946 0.0
C76 C 0.24075 0.0413 0.23168 0.0
C77 C 0.29071 0.05208 0.0572 0.0
C78 C 0.3161 0.06322 0.05016 0.0
C79 C 0.27342 0.06027 0.12788 0.0
C80 C 0.28156 0.07988 0.18882 0.0
C81 C 0.30664 0.09032 0.18503 0.0
C82 C 0.32346 0.082 0.11564 0.0
N83 N 0.24846 0.04836 0.14226 0.0
H84 H 0.51604 0.27332 1.00115 0.0
H85 H 0.46177 0.26346 0.2199 0.0
H86 H 0.46348 0.33509 0.0763 0.0
H87 H 0.50886 0.25072 0.27292 0.0
C88 C 0.50626 0.23441 0.22581 0.0
C89 C 0.49991 0.28049 0.04167 0.0
C90 C 0.48987 0.30584 0.02766 0.0
C91 C 0.48978 0.26508 0.11203 0.0
C92 C 0.46944 0.2751 0.16598 0.0
C93 C 0.45982 0.30029 0.15423 0.0
C94 C 0.46985 0.31514 0.0838 0.0
N95 N 0.50084 0.24037 0.13373 0.0
Tb96 Tb 0.04383 0.01671 0.74447 0.0
C97 C 0.95267 1.00607 0.47546 0.0
C98 C 0.96815 0.97552 0.36165 0.0
C99 C 0.92174 0.97968 0.38951 0.0
C100 C 0.973 0.99453 0.42985 0.0
C101 C 0.92671 0.99928 0.45464 0.0
C102 C 0.94246 0.96777 0.34314 0.0
C103 C 0.91252 0.03328 0.55806 0.0
N104 N 0.95831 0.02504 0.53692 0.0
C105 C 0.93857 0.03924 0.57641 0.0
C106 C 0.90654 1.01296 0.4978 0.0
Tb107 Tb 1.00158 0.03366 0.56488 0.0
N108 N 0.99745 1.00292 0.44905 0.0
C109 C 0.0178 0.9941 0.39678 0.0
C110 C 0.98915 0.96547 0.31226 0.0
C111 C 1.01403 0.97507 0.32917 0.0
H112 H 0.94285 0.05481 0.6241 0.0
H113 H 0.03043 0.96775 0.29035 0.0
H114 H 0.93839 0.9531 0.29148 0.0
H115 H 0.8971 0.04428 0.59089 0.0
H116 H 0.03737 1.0006 0.40791 0.0
H117 H 1.01472 0.08006 0.02555 0.0
H118 H 0.98629 0.95079 0.25965 0.0
H119 H 0.10277 0.99822 0.67697 0.0
H120 H 1.00802 0.0473 0.90723 0.0
H121 H 0.14835 1.01091 0.70461 0.0
H122 H 0.90196 0.97405 0.37297 0.0
H123 H 0.05838 0.09873 0.05217 0.0
H124 H 0.10599 0.09871 0.01448 0.0
H125 H 0.88636 1.00838 0.48359 0.0
H126 H 0.14247 0.07981 0.92743 0.0
N127 N 0.04764 0.04686 0.86181 0.0
C128 C 0.0274 0.05466 0.91646 0.0
C129 C 0.05565 0.08411 0.99928 0.0
C130 C 0.07659 0.07512 0.94715 0.0
C131 C 0.03102 0.07356 0.9846 0.0
C132 C 0.07191 0.05615 0.87874 0.0
H133 H 0.15849 0.04678 0.81278 0.0
N134 N 0.08694 0.02681 0.76797 0.0
C135 C 0.13278 0.02093 0.74028 0.0
C136 C 0.09231 0.04572 0.83006 0.0
C137 C 0.10688 1.01373 0.72514 0.0
C138 C 0.13842 0.04124 0.80107 0.0
C139 C 0.11811 0.05368 0.84784 0.0
O140 O 0.06426 0.98386 0.78702 0.0
O141 O 0.01988 1.00193 0.63338 0.0
O142 O 0.97691 1.01347 0.6639 0.0
O143 O 1.00285 0.01735 0.79217 0.0
O144 O 0.05602 0.98651 0.6458 0.0
O145 O 0.02848 0.9953 0.85181 0.0
O146 O 0.9827 0.06705 0.5188 0.0
O147 O 0.02489 0.04817 0.67758 0.0
O148 O 0.06708 0.03908 0.64827 0.0
O149 O 0.04289 0.03183 0.51822 0.0
O150 O 0.98905 0.0639 0.66314 0.0
O151 O 0.01898 0.0548 0.46035 0.0
C152 C 0.0348 0.98442 0.60088 0.0
C153 C 0.03378 0.9507 0.81069 0.0
C154 C 0.99622 0.92177 0.79398 0.0
C155 C 1.00736 0.94517 0.82638 0.0
C156 C 1.01177 0.90431 0.74291 0.0
C157 C 0.04899 0.9325 0.76175 0.0
C158 C 0.03792 0.9097 0.72711 0.0
C159 C 0.97999 1.01276 0.75285 0.0
C160 C 0.0449 0.97635 0.83643 0.0
C161 C 0.12282 0.07326 0.91326 0.0
C162 C 0.10206 0.084 0.9628 0.0
C163 C 1.00988 0.06556 0.7103 0.0
C164 C 1.01437 0.09953 0.50004 0.0
C165 C 0.04048 0.10531 0.4799 0.0
C166 C 0.05202 0.12851 0.51255 0.0
C167 C 0.03722 0.14547 0.56819 0.0
C168 C 0.99988 0.11728 0.55352 0.0
C169 C 1.01139 0.13984 0.58829 0.0
C170 C 0.06516 0.03802 0.55912 0.0
C171 C 1.00289 0.07413 0.47283 0.0
H172 H 0.99546 0.95904 0.86395 0.0
H173 H 1.00415 0.88586 0.71834 0.0
H174 H 0.06935 0.9362 0.74805 0.0
H175 H 0.04972 0.896 0.68856 0.0
H176 H 0.0518 0.09181 0.43863 0.0
H177 H 0.04515 0.16375 0.59314 0.0
H178 H 0.97975 0.11346 0.57055 0.0
H179 H 1.00015 0.15318 0.63032 0.0
Tb180 Tb 0.53203 0.04604 0.74926 0.0
C181 C 0.54386 0.95087 0.48938 0.0
C182 C 0.57284 0.96521 0.37225 0.0
C183 C 0.57016 0.91926 0.40534 0.0
C184 C 0.55435 0.97071 0.44071 0.0
C185 C 0.55117 0.9248 0.47118 0.0
C186 C 0.58103 0.93946 0.35602 0.0
C187 C 0.51882 0.91149 0.57875 0.0
N188 N 0.52545 0.95702 0.55154 0.0
C189 C 0.5123 0.93762 0.59439 0.0
C190 C 0.53859 0.90506 0.51771 0.0
Tb191 Tb 0.51542 1.00035 0.57319 0.0
N192 N 0.54556 0.99524 0.45768 0.0
C193 C 0.55366 1.01496 0.4036 0.0
C194 C 0.58204 0.98562 0.32054 0.0
C195 C 0.57218 1.01055 0.33574 0.0
H196 H 0.49714 0.94234 0.64255 0.0
H197 H 0.57891 0.0265 0.29537 0.0
H198 H 0.59527 0.9349 0.30404 0.0
H199 H 0.50867 0.89637 0.61418 0.0
H200 H 0.54702 0.03456 0.41348 0.0
H201 H 0.46954 0.01991 0.02946 0.0
H202 H 0.59631 0.98226 0.26768 0.0
H203 H 0.54907 0.10423 0.67722 0.0
H204 H 0.50279 1.01229 0.91516 0.0
H205 H 0.53485 0.14977 0.69774 0.0
H206 H 0.57614 0.8994 0.39067 0.0
H207 H 0.44911 0.0632 0.04792 0.0
H208 H 0.44747 0.10998 1.0036 0.0
H209 H 0.5436 0.88481 0.50556 0.0
H210 H 0.4654 0.14549 0.91383 0.0
N211 N 0.50186 0.05097 0.86435 0.0
C212 C 0.49469 0.0315 0.92101 0.0
C213 C 0.46397 0.06006 0.99693 0.0
C214 C 0.47232 0.08032 0.94285 0.0
C215 C 0.47552 0.03566 0.98686 0.0
C216 C 0.49165 0.07512 0.87707 0.0
H217 H 0.49832 0.16059 0.80077 0.0
N218 N 0.52077 0.08913 0.76741 0.0
C219 C 0.52524 0.13454 0.7344 0.0
C220 C 0.50152 0.09495 0.82682 0.0
C221 C 0.53332 0.10868 0.72335 0.0
C222 C 0.50456 0.14056 0.79229 0.0
C223 C 0.49264 0.12071 0.84036 0.0
O224 O 0.56486 0.06752 0.78976 0.0
O225 O 0.54666 0.02074 0.64097 0.0
O226 O 0.53714 0.97837 0.67501 0.0
O227 O 0.53226 1.00588 0.80077 0.0
O228 O 0.56166 0.05725 0.6505 0.0
O229 O 0.55404 0.03291 0.85925 0.0
O230 O 0.48292 0.97901 0.52885 0.0
O231 O 0.50125 0.02528 0.68213 0.0
O232 O 0.50893 0.06696 0.64939 0.0
O233 O 0.51596 0.04078 0.52192 0.0
O234 O 0.48528 0.98945 0.67193 0.0
O235 O 0.49262 1.01516 0.4677 0.0
C236 C 0.56374 0.03544 0.60752 0.0
C237 C 0.59848 0.03787 0.81845 0.0
C238 C 0.62746 1.00019 0.80389 0.0
C239 C 0.60411 1.01161 0.8351 0.0
C240 C 0.64484 1.01533 0.7536 0.0
C241 C 0.61658 0.05266 0.77017 0.0
C242 C 0.63939 0.04132 0.73708 0.0
C243 C 0.53776 0.98275 0.76362 0.0
C244 C 0.57277 0.04918 0.84202 0.0
C245 C 0.47267 0.12588 0.90298 0.0
C246 C 0.46248 0.10568 0.95408 0.0
C247 C 0.48387 1.01113 0.716 0.0
C248 C 0.44836 1.00797 0.5076 0.0
C249 C 0.44222 0.03458 0.5024 0.0
C250 C 0.41829 0.04421 0.53549 0.0
C251 C 0.40092 0.02688 0.57651 0.0
C252 C 0.43034 0.99107 0.54707 0.0
C253 C 0.40699 1.00057 0.58231 0.0
C254 C 0.50961 0.06353 0.56056 0.0
C255 C 0.47439 0.99806 0.48118 0.0
H256 H 0.59032 1.00001 0.87209 0.0
H257 H 0.66324 1.00748 0.72995 0.0
H258 H 0.61279 0.07287 0.75574 0.0
H259 H 0.65301 0.0528 0.69901 0.0
H260 H 0.45602 0.04781 0.47268 0.0
H261 H 0.38209 0.03334 0.60106 0.0
H262 H 0.43457 0.97052 0.55267 0.0
H263 H 0.39338 0.98743 0.61334 0.0
Tb264 Tb 0.54233 0.51846 0.58688 0.0
C265 C 0.43898 0.51188 0.77799 0.0
C266 C 0.40951 0.53349 0.67758 0.0
C267 C 0.39387 0.49781 0.76735 0.0
C268 C 0.43466 0.53027 0.71416 0.0
C269 C 0.41845 0.496 0.80798 0.0
C270 C 0.38939 0.51657 0.70212 0.0
C271 C 0.44686 0.48069 0.92477 0.0
N272 N 0.46278 0.51123 0.81668 0.0
C273 C 0.46641 0.49706 0.89321 0.0
C274 C 0.4229 0.47974 0.88073 0.0
Tb275 Tb 0.49494 0.53674 0.75444 0.0
N276 N 0.45465 0.54627 0.69287 0.0
C277 C 0.44969 0.56766 0.64201 0.0
C278 C 0.40511 0.55413 0.61997 0.0
C279 C 0.42516 0.5716 0.60371 0.0
H280 H 0.48479 0.49794 0.92844 0.0
H281 H 0.4218 0.58815 0.56138 0.0
H282 H 0.3701 0.51847 0.67359 0.0
H283 H 0.45026 0.46895 0.98332 0.0
H284 H 0.4644 0.58172 0.62807 0.0
H285 H 0.61713 0.466 0.77012 0.0
H286 H 0.38614 0.55723 0.59017 0.0
H287 H 0.54817 0.5625 0.42719 0.0
H288 H 0.5734 0.47391 0.71715 0.0
H289 H 0.58272 0.58928 0.36119 0.0
H290 H 0.37795 0.48554 0.78845 0.0
H291 H 0.65347 0.49402 0.72345 0.0
H292 H 0.66924 0.53077 0.63003 0.0
H293 H 0.40766 0.46726 0.90578 0.0
H294 H 0.66001 0.56419 0.5183 0.0
N295 N 0.58327 0.50727 0.63917 0.0
C296 C 0.58836 0.48667 0.69386 0.0
C297 C 0.63399 0.49778 0.69893 0.0
C298 C 0.62917 0.5179 0.63957 0.0
C299 C 0.61355 0.48191 0.72518 0.0
C300 C 0.60338 0.52208 0.61012 0.0
H301 H 0.62794 0.58581 0.41664 0.0
N302 N 0.57345 0.54379 0.51979 0.0
C303 C 0.58739 0.57583 0.41391 0.0
C304 C 0.59829 0.54094 0.5481 0.0
C305 C 0.56789 0.56049 0.45133 0.0
C306 C 0.61285 0.57387 0.44556 0.0
C307 C 0.61864 0.55609 0.51272 0.0
O308 O 0.54583 0.51134 0.44752 0.0
O309 O 0.50085 0.52152 0.6188 0.0
O310 O 0.49677 0.49386 0.75203 0.0
O311 O 0.53339 0.48341 0.66505 0.0
O312 O 0.51295 0.53574 0.49886 0.0
O313 O 0.54079 0.47968 0.53771 0.0
O314 O 0.48533 0.54718 0.88825 0.0
O315 O 0.53584 0.53239 0.72289 0.0
O316 O 0.54696 0.56023 0.61741 0.0
O317 O 0.50552 0.5705 0.66924 0.0
O318 O 0.52472 0.52267 0.84885 0.0
O319 O 0.49862 0.57593 0.79728 0.0
C320 C 0.49267 0.53105 0.54607 0.0
C321 C 0.51545 0.47945 0.40326 0.0
C322 C 0.47638 0.45251 0.38711 0.0
C323 C 0.49951 0.45917 0.43297 0.0
C324 C 0.46876 0.46742 0.31308 0.0
C325 C 0.50763 0.49362 0.32783 0.0
C326 C 0.48426 0.48785 0.28412 0.0
C327 C 0.51434 0.47704 0.72088 0.0
C328 C 0.53906 0.48719 0.45446 0.0
C329 C 0.64415 0.55261 0.54401 0.0
C330 C 0.64939 0.53358 0.60754 0.0
C331 C 0.54465 0.52454 0.79713 0.0
C332 C 0.51384 0.57847 0.9484 0.0
C333 C 0.53757 0.5899 0.92288 0.0
C334 C 0.55576 0.59825 0.98852 0.0
C335 C 0.55027 0.5933 0.07999 0.0
C336 C 0.50898 0.57394 0.03975 0.0
C337 C 0.52729 0.58097 0.10487 0.0
C338 C 0.52808 0.57733 0.63217 0.0
C339 C 0.49414 0.57056 0.88099 0.0
H340 H 0.50521 0.44845 0.49161 0.0
H341 H 0.45139 0.4627 0.27489 0.0
H342 H 0.51934 0.50952 0.3035 0.0
H343 H 0.47833 0.49902 0.2266 0.0
H344 H 0.54158 0.59259 0.85207 0.0
H345 H 0.56303 0.59989 0.13369 0.0
H346 H 0.49098 0.56491 0.06074 0.0
H347 H 0.52333 0.57753 0.17533 0.0
Tb348 Tb 0.02712 0.54595 0.57805 0.0
C349 C 0.03889 0.44715 0.79499 0.0
C350 C 0.01743 0.41347 0.70681 0.0
C351 C 0.05378 0.40235 0.8032 0.0
C352 C 0.0201 0.43986 0.73363 0.0
C353 C 0.05559 0.42845 0.83235 0.0
C354 C 0.03474 0.39487 0.74029 0.0
C355 C 0.07325 0.46234 0.92931 0.0
N356 N 0.04 0.47249 0.82117 0.0
C357 C 0.05634 0.48014 0.89004 0.0
C358 C 0.07315 0.43643 0.89944 0.0
Tb359 Tb 1.01249 0.50081 0.74966 0.0
N360 N 1.00376 0.45847 0.70314 0.0
C361 C 0.98294 0.45126 0.65058 0.0
C362 C 0.99711 0.40646 0.64879 0.0
C363 C 0.97957 0.4254 0.6217 0.0
H364 H 0.05692 0.50022 0.91283 0.0
H365 H 0.96344 0.42014 0.57809 0.0
H366 H 0.03317 0.37459 0.71965 0.0
H367 H 0.08648 0.46868 0.98212 0.0
H368 H 0.96902 0.46513 0.62769 0.0
H369 H 0.07659 0.6269 0.74609 0.0
H370 H 0.99446 0.38645 0.62617 0.0
H371 H 0.98287 0.54675 0.41399 0.0
H372 H 0.0716 0.58205 0.69338 0.0
H373 H 0.95251 0.57812 0.34783 0.0
H374 H 0.0666 0.38773 0.83032 0.0
H375 H 0.04411 0.66007 0.70526 0.0
H376 H 1.00432 0.67161 0.61655 0.0
H377 H 0.08629 0.42267 0.92986 0.0
H378 H 0.97066 0.65842 0.50669 0.0
N379 N 0.03568 0.58829 0.62467 0.0
C380 C 0.05698 0.5957 0.67436 0.0
C381 C 0.04168 0.64013 0.68168 0.0
C382 C 0.02096 0.63299 0.62557 0.0
C383 C 0.06005 0.62148 0.70466 0.0
C384 C 0.01865 0.60669 0.59725 0.0
H385 H 0.95161 0.62374 0.40439 0.0
N386 N 0.99925 0.57422 0.50782 0.0
C387 C 0.96565 0.58438 0.40101 0.0
C388 C 0.9998 0.5994 0.5362 0.0
C389 C 0.98304 0.56669 0.43844 0.0
C390 C 0.96513 0.61006 0.43334 0.0
C391 C 0.98259 0.61797 0.50084 0.0
O392 O 0.03444 0.54779 0.43914 0.0
O393 O 0.02556 0.50511 0.61298 0.0
O394 O 0.0546 0.49832 0.72222 0.0
O395 O 0.06223 0.53915 0.66413 0.0
O396 O 1.01147 0.51439 0.49047 0.0
O397 O 0.06609 0.54661 0.5333 0.0
O398 O 1.00514 0.4994 0.88862 0.0
O399 O 1.01418 0.54158 0.71456 0.0
O400 O 0.98503 0.54847 0.60594 0.0
O401 O 0.97732 0.5077 0.66411 0.0
O402 O 0.02812 0.53248 0.83725 0.0
O403 O 0.97351 0.49991 0.79418 0.0
C404 C 0.01633 0.49512 0.54109 0.0
C405 C 0.06821 0.51867 0.40334 0.0
C406 C 0.09545 0.47957 0.4002 0.0
C407 C 0.08773 0.50326 0.44169 0.0
C408 C 0.08217 0.4708 0.3222 0.0
C409 C 0.05576 0.5097 0.32418 0.0
C410 C 0.06243 0.48574 0.28497 0.0
C411 C 0.07053 0.51788 0.70531 0.0
C412 C 0.05897 0.54274 0.44969 0.0
C413 C 0.9839 0.64391 0.53214 0.0
C414 C 1.00304 0.6514 0.59465 0.0
C415 C 0.02347 0.55168 0.7861 0.0
C416 C 0.97098 0.52808 0.92346 0.0
C417 C 0.95172 0.5435 0.88364 0.0
C418 C 0.94373 0.56715 0.92465 0.0
C419 C 0.95643 0.57585 1.0039 0.0
C420 C 0.98287 0.53699 1.00372 0.0
C421 C 0.9759 0.5609 0.04264 0.0
C422 C 0.96905 0.52899 0.62311 0.0
C423 C 0.98055 0.50406 0.87775 0.0
H424 H 0.09708 0.50981 0.50353 0.0
H425 H 0.08776 0.45299 0.28706 0.0
H426 H 0.04045 0.52098 0.2935 0.0
H427 H 0.05259 0.47893 0.22442 0.0
H428 H 0.94278 0.53699 0.82101 0.0
H429 H 0.95058 0.59364 0.03869 0.0
H430 H 0.99796 0.52568 0.03553 0.0
H431 H 0.9853 0.56765 0.10412 0.0
H432 H 0.19273 0.05332 0.1502 0.0
H433 H 0.22699 0.02985 0.40083 0.0
H434 H 0.14956 0.05484 0.22372 0.0
H435 H 0.18465 0.03109 0.47315 0.0
H436 H 0.11199 0.05922 0.61251 0.0
H437 H 0.15268 0.06114 0.52866 0.0
H438 H 0.1144 0.02887 0.29282 0.0
H439 H 0.07353 0.02697 0.37725 0.0
C440 C 0.1911 0.04836 0.22056 0.0
C441 C 0.21349 0.0415 0.26945 0.0
C442 C 0.16631 0.04919 0.26296 0.0
C443 C 0.16336 0.04345 0.35545 0.0
C444 C 0.18586 0.03628 0.40289 0.0
C445 C 0.21031 0.03532 0.36083 0.0
C446 C 0.11215 0.05232 0.54302 0.0
C447 C 0.08937 0.04207 0.50337 0.0
C448 C 0.13565 0.05345 0.49444 0.0
C449 C 0.13732 0.04462 0.40374 0.0
C450 C 0.11416 0.03579 0.3623 0.0
C451 C 0.0906 0.03455 0.41127 0.0
H452 H 0.51647 0.22284 0.39769 0.0
H453 H 0.49552 0.1858 0.1444 0.0
H454 H 0.51493 0.18125 0.47158 0.0
H455 H 0.49356 0.1435 0.21938 0.0
H456 H 0.52124 0.06979 0.3798 0.0
H457 H 0.51931 0.10967 0.2935 0.0
H458 H 0.48449 0.14974 0.52232 0.0
H459 H 0.48663 0.11004 0.60837 0.0
C460 C 0.5115 0.20569 0.35756 0.0
C461 C 0.50612 0.20778 0.26503 0.0
C462 C 0.51034 0.18174 0.40037 0.0
C463 C 0.50371 0.15878 0.35239 0.0
C464 C 0.49878 0.16067 0.25888 0.0
C465 C 0.49988 0.18492 0.2157 0.0
C466 C 0.51308 0.08703 0.41182 0.0
C467 C 0.50501 0.08672 0.50274 0.0
C468 C 0.51183 0.10999 0.3618 0.0
C469 C 0.50234 0.13334 0.40107 0.0
C470 C 0.49273 0.1325 0.49015 0.0
C471 C 0.49396 0.10961 0.53987 0.0
H472 H 0.36061 0.52023 0.16088 0.0
H473 H 0.32856 0.50772 0.42519 0.0
H474 H 0.4046 0.52261 0.22742 0.0
H475 H 0.37188 0.50988 0.49087 0.0
H476 H 0.45565 0.49303 0.57679 0.0
H477 H 0.41382 0.48665 0.49922 0.0
H478 H 0.43071 0.55169 0.32981 0.0
H479 H 0.47221 0.55806 0.40793 0.0
C480 C 0.3629 0.51784 0.2328 0.0
C481 C 0.34093 0.51382 0.28752 0.0
C482 C 0.38811 0.51929 0.27123 0.0
C483 C 0.39201 0.51631 0.36499 0.0
C484 C 0.36996 0.51189 0.41864 0.0
C485 C 0.34496 0.51083 0.38073 0.0
C486 C 0.45022 0.50615 0.52386 0.0
C487 C 0.46683 0.52672 0.50117 0.0
C488 C 0.4263 0.50243 0.47874 0.0
C489 C 0.41854 0.51883 0.40831 0.0
C490 C 0.43584 0.53861 0.38317 0.0
C491 C 0.45959 0.54242 0.42868 0.0
H492 H 0.0262 0.35704 0.17074 0.0
H493 H 0.04502 0.32873 0.43415 0.0
H494 H 0.02174 0.40137 0.23601 0.0
H495 H 0.0404 0.37232 0.49901 0.0
H496 H 0.05346 0.45779 0.5825 0.0
H497 H 0.05973 0.41475 0.51086 0.0
H498 H 0.99497 0.42904 0.33351 0.0
H499 H 0.98889 0.47187 0.4053 0.0
C500 C 0.02934 0.36017 0.24234 0.0
C501 C 0.03596 0.33908 0.29683 0.0
C502 C 0.02671 0.38566 0.28023 0.0
C503 C 0.03085 0.39086 0.37351 0.0
C504 C 0.0375 0.36961 0.42708 0.0
C505 C 0.03994 0.34436 0.3896 0.0
C506 C 0.04031 0.45154 0.52931 0.0
C507 C 0.0201 0.46808 0.50199 0.0
C508 C 0.04395 0.42681 0.4875 0.0
C509 C 0.02775 0.4179 0.41597 0.0
C510 C 1.00802 0.4349 0.38746 0.0
C511 C 1.00435 0.4595 0.42945 0.0
H512 H 0.82609 0.01747 0.02451 0.0
H513 H 0.87131 0.96204 0.17177 0.0
H514 H 0.86369 0.02495 0.92474 0.0
H515 H 0.90875 0.96982 0.07443 0.0
H516 H 0.9784 1.01044 0.93843 0.0
H517 H 0.94088 1.0049 0.03687 0.0
H518 H 0.8907 0.99868 0.80468 0.0
H519 H 0.9285 1.00311 0.70556 0.0
C520 C 0.84414 1.00726 0.03674 0.0
C521 C 0.84569 0.98932 0.10691 0.0
C522 C 0.86565 1.01132 0.97895 0.0
C523 C 0.88943 0.99799 0.99108 0.0
C524 C 0.89099 0.98063 0.06297 0.0
C525 C 0.86945 0.97617 0.11902 0.0
C526 C 0.95946 1.00793 0.90761 0.0
C527 C 0.95674 1.008 0.81289 0.0
C528 C 0.93781 1.0047 0.9646 0.0
C529 C 0.9125 1.00174 0.92933 0.0
C530 C 0.90972 1.0015 0.83473 0.0
C531 C 0.93151 1.00418 0.77756 0.0
H532 H 0.59203 0.87895 0.18701 0.0
H533 H 0.53448 0.83347 0.04297 0.0
H534 H 0.58392 0.91566 0.08854 0.0
H535 H 0.52683 0.87013 0.94201 0.0
H536 H 0.55052 0.93164 0.71993 0.0
H537 H 0.55573 0.89513 0.82135 0.0
H538 H 0.54612 0.94731 0.05045 0.0
H539 H 0.53947 0.98353 0.94946 0.0
C540 C 0.57741 0.8769 0.13472 0.0
C541 C 0.56371 0.85336 0.12356 0.0
C542 C 0.57279 0.89795 0.07816 0.0
C543 C 0.55481 0.89588 1.00693 0.0
C544 C 0.54093 0.87235 0.99589 0.0
C545 C 0.54509 0.85143 0.05423 0.0
C546 C 0.54876 0.93532 0.79161 0.0
C547 C 0.54347 0.96062 0.82542 0.0
C548 C 0.55196 0.91433 0.85001 0.0
C549 C 0.55091 0.91813 0.94425 0.0
C550 C 0.54682 0.94357 0.9783 0.0
C551 C 0.54297 0.96441 0.91995 0.0
H552 H 0.67899 0.59323 0.06475 0.0
H553 H 0.69202 0.51157 0.10639 0.0
H554 H 0.64122 0.58318 0.97228 0.0
H555 H 0.65369 0.50123 0.01266 0.0
H556 H 0.56591 0.49643 0.93047 0.0
H557 H 0.60698 0.50338 1.01015 0.0
H558 H 0.62493 0.56667 0.83382 0.0
H559 H 0.58337 0.55992 0.75586 0.0
C560 C 0.67377 0.57298 0.05401 0.0
C561 C 0.68864 0.55326 0.09373 0.0
C562 C 0.65204 0.56718 1.00002 0.0
C563 C 0.644 0.54134 0.984 0.0
C564 C 0.65893 0.52143 0.02371 0.0
C565 C 0.68103 0.5273 0.07746 0.0
C566 C 0.57886 0.51158 0.90783 0.0
C567 C 0.57152 0.52723 0.83539 0.0
C568 C 0.60257 0.51552 0.95343 0.0
C569 C 0.61967 0.53561 0.92928 0.0
C570 C 0.61238 0.55112 0.85567 0.0
C571 C 0.58864 0.54706 0.80972 0.0
H572 H 0.97146 0.71052 0.94573 0.0
H573 H 0.02087 0.68749 0.16385 0.0
H574 H 0.98216 0.67092 0.86166 0.0
H575 H 0.03037 0.6465 0.0834 0.0
H576 H 0.05449 0.57722 0.90673 0.0
H577 H 0.04836 0.61956 0.98008 0.0
H578 H 0.9761 0.62861 0.83438 0.0
H579 H 0.98358 0.58691 0.75729 0.0
C580 C 0.98491 0.69693 0.97554 0.0
C581 C 0.99565 0.70259 0.06106 0.0
C582 C 0.99074 0.67369 0.92769 0.0
C583 C 1.00696 0.65446 0.96458 0.0
C584 C 0.01813 0.66046 0.05025 0.0
C585 C 1.01275 0.6842 0.09722 0.0
C586 C 0.0375 0.58855 0.8894 0.0
C587 C 0.01992 0.57882 0.82423 0.0
C588 C 0.03369 0.61294 0.9327 0.0
C589 C 1.01159 0.62839 0.91495 0.0
C590 C 0.9938 0.61828 0.84981 0.0
C591 C 0.99798 0.59406 0.80499 0.0
H592 H 0.12498 0.2115 0.13056 0.0
H593 H 0.08564 0.25184 0.35023 0.0
H594 H 0.13884 0.17803 0.23415 0.0
H595 H 0.09994 0.21935 0.4524 0.0
H596 H 0.07201 0.12139 0.34288 0.0
H597 H 0.10274 0.14969 0.27273 0.0
H598 H 0.12142 0.18467 0.53223 0.0
H599 H 0.09061 0.1555 0.60383 0.0
C600 C 0.12027 0.21391 0.20147 0.0
C601 C 0.1028 0.23345 0.23091 0.0
C602 C 0.12843 0.19483 0.261 0.0
C603 C 0.11927 0.19522 0.35041 0.0
C604 C 0.10692 0.21794 0.38353 0.0
C605 C 0.09855 0.23681 0.32411 0.0
C606 C 0.08358 0.13403 0.38624 0.0
C607 C 0.07775 0.13721 0.4784 0.0
C608 C 0.10153 0.15038 0.34566 0.0
C609 C 0.11361 0.17043 0.39638 0.0
C610 C 0.11168 0.17002 0.49094 0.0
C611 C 0.0938 0.1535 0.53177 0.0
H612 H 0.29747 0.08356 0.3644 0.0
H613 H 0.3405 0.13196 0.18229 0.0
H614 H 0.32788 0.09366 0.48245 0.0
H615 H 0.37175 0.14183 0.30193 0.0
H616 H 0.38854 0.07756 0.64178 0.0
H617 H 0.36037 0.11131 0.58327 0.0
H618 H 0.4007 0.1058 0.32768 0.0
H619 H 0.42827 0.07237 0.38492 0.0
C620 C 0.31265 0.09752 0.35054 0.0
C621 C 0.31739 0.10578 0.26238 0.0
C622 C 0.33029 0.10349 0.41917 0.0
C623 C 0.35317 0.1174 0.40021 0.0
C624 C 0.35484 0.13019 0.31754 0.0
C625 C 0.33704 0.12434 0.24877 0.0
C626 C 0.39199 0.08425 0.57412 0.0
C627 C 0.40963 0.07115 0.51632 0.0
C628 C 0.37598 0.10382 0.5409 0.0
C629 C 0.37727 0.11023 0.44932 0.0
C630 C 0.3986 0.10104 0.39808 0.0
C631 C 0.41453 0.0815 0.43108 0.0
H632 H 0.42034 0.33575 0.1321 0.0
H633 H 0.46193 0.29459 0.33806 0.0
H634 H 0.41131 0.37071 0.23918 0.0
H635 H 0.45077 0.32844 0.44736 0.0
H636 H 0.49711 0.40688 0.44501 0.0
H637 H 0.47775 0.36481 0.43441 0.0
H638 H 0.40386 0.39923 0.3641 0.0
H639 H 0.42354 0.44236 0.37719 0.0
C640 C 0.42649 0.33355 0.20139 0.0
C641 C 0.44344 0.31333 0.22476 0.0
C642 C 0.42093 0.35352 0.26372 0.0
C643 C 0.43189 0.35319 0.35066 0.0
C644 C 0.44326 0.3299 0.37942 0.0
C645 C 0.4495 0.31027 0.31645 0.0
C646 C 0.47643 0.40591 0.4315 0.0
C647 C 0.46223 0.42813 0.40819 0.0
C648 C 0.46509 0.3814 0.42564 0.0
C649 C 0.43932 0.37837 0.39503 0.0
C650 C 0.424 0.40081 0.38495 0.0
C651 C 0.43536 0.42552 0.3916 0.0
H652 H 0.2113 0.42785 0.1547 0.0
H653 H 0.25231 0.47151 0.36233 0.0
H654 H 0.17775 0.41739 0.26215 0.0
H655 H 0.22003 0.4589 0.47185 0.0
H656 H 0.1395 0.50176 0.47096 0.0
H657 H 0.18223 0.48382 0.4647 0.0
H658 H 0.15069 0.40867 0.38684 0.0
H659 H 0.10687 0.42688 0.39572 0.0
C660 C 0.21376 0.4343 0.22421 0.0
C661 C 0.23348 0.45206 0.24819 0.0
C662 C 0.19466 0.42785 0.28683 0.0
C663 C 0.1953 0.4388 0.37472 0.0
C664 C 0.21827 0.45132 0.40339 0.0
C665 C 0.23699 0.45842 0.34021 0.0
C666 C 0.14121 0.48109 0.45687 0.0
C667 C 0.11966 0.46616 0.42903 0.0
C668 C 0.16614 0.47057 0.45346 0.0
C669 C 0.17018 0.44497 0.42072 0.0
C670 C 0.14834 0.42877 0.40864 0.0
C671 C 0.12322 0.4393 0.41291 0.0
H672 H 0.91952 0.84113 0.17223 0.0
H673 H 0.96164 0.79988 0.96105 0.0
H674 H 0.90684 0.87402 0.06458 0.0
H675 H 0.94863 0.83183 0.85484 0.0
H676 H 0.95897 0.89389 0.69904 0.0
H677 H 0.92741 0.8652 0.76896 0.0
H678 H 0.94208 0.90301 0.02701 0.0
H679 H 0.97351 0.93087 0.95866 0.0
C680 C 0.92515 0.83845 0.10222 0.0
C681 C 0.94276 0.81865 0.07635 0.0
C682 C 0.91767 0.85718 0.04037 0.0
C683 C 0.92777 0.8563 0.95216 0.0
C684 C 0.94079 0.83357 0.92251 0.0
C685 C 0.94843 0.81503 0.98423 0.0
C686 C 0.95475 0.8966 0.77023 0.0
C687 C 0.96996 0.91349 0.82435 0.0
C688 C 0.93643 0.88036 0.81006 0.0
C689 C 0.93331 0.8808 0.90432 0.0
C690 C 0.94434 0.90157 0.95445 0.0
C691 C 0.96271 0.91767 0.91491 0.0
H692 H 0.74956 0.95672 0.97984 0.0
H693 H 0.70472 0.91626 0.17951 0.0
H694 H 0.717 0.94708 0.86854 0.0
H695 H 0.67124 0.90709 0.06676 0.0
H696 H 0.65466 0.96239 0.70824 0.0
H697 H 0.68209 0.92944 0.77637 0.0
H698 H 0.64536 0.94533 0.03406 0.0
H699 H 0.61873 0.97815 0.96742 0.0
C700 C 0.73346 0.94449 0.99929 0.0
C701 C 0.72904 0.9386 0.09016 0.0
C702 C 0.71453 0.93884 0.93457 0.0
C703 C 0.69075 0.92756 0.95999 0.0
C704 C 0.68893 0.91672 0.04601 0.0
C705 C 0.70807 0.92215 0.11078 0.0
C706 C 0.65194 0.95823 0.77893 0.0
C707 C 0.6356 0.97395 0.83351 0.0
C708 C 0.66746 0.93913 0.81769 0.0
C709 C 0.66683 0.93559 0.91144 0.0
C710 C 0.64681 0.94772 0.96185 0.0
C711 C 0.63144 0.96687 0.92336 0.0
H712 H 0.57605 0.74276 0.99716 0.0
H713 H 0.63741 0.71957 0.17603 0.0
H714 H 0.58324 0.70484 0.9043 0.0
H715 H 0.64656 0.68197 0.07871 0.0
H716 H 0.60293 0.60448 0.07651 0.0
H717 H 0.62803 0.64365 0.07818 0.0
H718 H 0.58954 0.66762 0.83413 0.0
H719 H 0.56161 0.63034 0.8409 0.0
C720 C 0.59221 0.73017 0.01366 0.0
C721 C 0.60535 0.73338 0.09578 0.0
C722 C 0.59648 0.70798 0.95999 0.0
C723 C 0.61416 0.68861 0.98743 0.0
C724 C 0.63129 0.69512 0.0588 0.0
C725 C 0.62647 0.71701 0.11406 0.0
C726 C 0.59944 0.61827 0.02377 0.0
C727 C 0.57826 0.61528 0.96453 0.0
C728 C 0.61448 0.64085 0.02321 0.0
C729 C 0.60914 0.66063 0.96133 0.0
C730 C 0.59259 0.65425 0.88841 0.0
C731 C 0.5767 0.63224 0.89135 0.0
H732 H 0.82953 0.61877 0.16992 0.0
H733 H 0.78746 0.57472 0.9661 0.0
H734 H 0.86241 0.62922 0.0602 0.0
H735 H 0.81922 0.58712 0.85398 0.0
H736 H 0.90007 0.545 0.85081 0.0
H737 H 0.85731 0.5629 0.85638 0.0
H738 H 0.88869 0.63807 0.93483 0.0
H739 H 0.93249 0.61985 0.92752 0.0
C740 C 0.82673 0.61222 0.10066 0.0
C741 C 0.80686 0.59452 0.07817 0.0
C742 C 0.84544 0.61864 0.03671 0.0
C743 C 0.84436 0.60759 0.949 0.0
C744 C 0.82132 0.59482 0.92216 0.0
C745 C 0.80293 0.58783 0.98669 0.0
C746 C 0.89831 0.56567 0.86496 0.0
C747 C 0.91976 0.58058 0.89384 0.0
C748 C 0.87337 0.57616 0.86793 0.0
C749 C 0.86927 0.6017 0.9012 0.0
C750 C 0.89108 0.61796 0.91305 0.0
C751 C 0.91619 0.60745 0.90957 0.0
H752 H 0.07055 0.21961 0.88969 0.0
H753 H 1.00847 0.20404 0.07553 0.0
H754 H 0.06119 0.17903 0.80691 0.0
H755 H 0.9995 0.16295 0.99573 0.0
H756 H 0.97641 0.09691 0.80204 0.0
H757 H 0.98377 0.13915 0.87425 0.0
H758 H 0.06541 0.13375 0.80624 0.0
H759 H 0.05743 0.09166 0.72979 0.0
C760 C 0.05427 0.20789 0.91119 0.0
C761 C 0.03967 0.21579 0.9877 0.0
C762 C 0.04925 0.18411 0.86485 0.0
C763 C 0.02965 0.16696 0.89399 0.0
C764 C 1.0145 0.17538 0.96907 0.0
C765 C 0.01943 0.19929 0.01493 0.0
C766 C 0.99604 0.1046 0.80316 0.0
C767 C 0.01639 0.09035 0.7618 0.0
C768 C 1.00035 0.12901 0.84533 0.0
C769 C 0.02529 0.14045 0.84787 0.0
C770 C 0.04579 0.12614 0.80585 0.0
C771 C 0.04137 0.1016 0.76302 0.0
H772 H 0.32978 1.01364 0.98545 0.0
H773 H 0.35011 0.0944 0.95983 0.0
H774 H 0.36844 1.00129 0.89846 0.0
H775 H 0.38963 0.08248 0.88226 0.0
H776 H 0.45824 0.05843 0.70904 0.0
H777 H 0.41631 0.07015 0.77404 0.0
H778 H 0.41115 0.99405 0.89198 0.0
H779 H 0.45241 0.98233 0.82196 0.0
C780 C 0.3423 0.02882 0.96063 0.0
C781 C 0.33665 0.05506 0.98145 0.0
C782 C 0.36509 0.02175 0.91203 0.0
C783 C 0.38336 0.04064 0.88369 0.0
C784 C 0.37671 0.06692 0.90084 0.0
C785 C 0.35378 0.0739 0.94705 0.0
C786 C 0.44819 0.04435 0.7496 0.0
C787 C 0.45907 0.0196 0.76169 0.0
C788 C 0.42381 0.05101 0.78755 0.0
C789 C 0.40938 0.03324 0.83976 0.0
C790 C 0.42064 1.00843 0.85135 0.0
C791 C 0.44475 1.00168 0.81201 0.0
H792 H 0.47401 0.31679 0.85606 0.0
H793 H 0.52873 0.34049 0.0614 0.0
H794 H 0.48254 0.35703 0.77485 0.0
H795 H 0.53717 0.38076 0.9814 0.0
H796 H 0.51198 0.46323 0.89686 0.0
H797 H 0.50985 0.41991 0.95992 0.0
H798 H 0.51495 0.38584 0.69194 0.0
H799 H 0.51705 0.42967 0.62892 0.0
C800 C 0.48875 0.33005 0.8817 0.0
C801 C 0.50126 0.32499 0.96394 0.0
C802 C 0.49346 0.35331 0.83565 0.0
C803 C 0.51035 0.37247 0.87178 0.0
C804 C 0.52383 0.36671 0.95171 0.0
C805 C 0.51937 0.34335 0.99692 0.0
C806 C 0.51219 0.44658 0.85111 0.0
C807 C 0.51387 0.4501 0.75752 0.0
C808 C 0.51146 0.42159 0.88745 0.0
C809 C 0.51221 0.39912 0.83138 0.0
C810 C 0.51413 0.40259 0.73742 0.0
C811 C 0.51536 0.42774 0.70114 0.0
H812 H 0.21036 0.54055 0.03969 0.0
H813 H 0.22538 0.46826 0.89742 0.0
H814 H 0.17107 0.54685 0.94889 0.0
H815 H 0.18664 0.47457 0.80511 0.0
H816 H 0.09854 0.47429 0.74853 0.0
H817 H 0.14112 0.47146 0.81954 0.0
H818 H 0.14887 0.55493 0.81007 0.0
H819 H 0.10581 0.5577 0.74136 0.0
C820 C 0.20593 0.52657 0.9862 0.0
C821 C 0.22155 0.50422 0.97461 0.0
C822 C 0.18314 0.53001 0.9343 0.0
C823 C 0.17505 0.51108 0.86953 0.0
C824 C 0.19158 0.48943 0.85502 0.0
C825 C 0.21425 0.48602 0.90686 0.0
C826 C 0.10925 0.49212 0.76136 0.0
C827 C 0.0982 0.51627 0.73954 0.0
C828 C 0.13403 0.49048 0.80162 0.0
C829 C 0.14894 0.51296 0.82157 0.0
C830 C 0.13815 0.5371 0.79745 0.0
C831 C 0.11334 0.5387 0.75684 0.0
H832 H 0.97035 0.83097 0.42732 0.0
H833 H 0.03441 0.84383 0.24701 0.0
H834 H 0.98047 0.87149 0.50963 0.0
H835 H 0.04415 0.88481 0.32598 0.0
H836 H 0.0679 0.95117 0.51559 0.0
H837 H 0.05973 0.90866 0.44689 0.0
H838 H 0.9779 0.91686 0.50881 0.0
H839 H 0.98668 0.95927 0.582 0.0
C840 C 0.98722 0.84204 0.40711 0.0
C841 C 1.00217 0.83339 0.33235 0.0
C842 C 0.9927 0.86579 0.45309 0.0
C843 C 1.01311 0.88218 0.42517 0.0
C844 C 0.02855 0.87299 0.35185 0.0
C845 C 0.02316 0.84913 0.30645 0.0
C846 C 0.04808 0.94402 0.5141 0.0
C847 C 0.02792 0.95915 0.5528 0.0
C848 C 0.04328 0.91945 0.47383 0.0
C849 C 0.01802 0.90873 0.47036 0.0
C850 C 0.99774 0.92389 0.50998 0.0
C851 C 1.00264 0.94858 0.55102 0.0
H852 H 0.71644 0.9699 0.44317 0.0
H853 H 0.70137 0.03013 0.25338 0.0
H854 H 0.67635 0.98113 0.52448 0.0
H855 H 0.66074 0.04083 0.33116 0.0
H856 H 0.59605 0.06755 0.5194 0.0
H857 H 0.63827 0.05858 0.45177 0.0
H858 H 0.63098 0.97778 0.52192 0.0
H859 H 0.58899 0.98743 0.5943 0.0
C860 C 0.70491 0.98614 0.42046 0.0
C861 C 0.7127 0.99973 0.34352 0.0
C862 C 0.68147 0.99223 0.4659 0.0
C863 C 0.66467 1.01185 0.43493 0.0
C864 C 0.673 0.02592 0.35915 0.0
C865 C 0.69657 0.01996 0.31441 0.0
C866 C 0.60337 0.04779 0.51994 0.0
C867 C 0.58868 0.02812 0.56047 0.0
C868 C 0.62772 0.04254 0.48038 0.0
C869 C 0.6385 0.01731 0.47957 0.0
C870 C 0.6238 0.99756 0.52115 0.0
C871 C 0.59938 1.00293 0.56161 0.0
H872 H 0.51788 0.71772 0.31141 0.0
H873 H 0.59098 0.72679 0.44994 0.0
H874 H 0.50813 0.67937 0.4005 0.0
H875 H 0.58115 0.68911 0.54134 0.0
H876 H 0.57406 0.60167 0.59187 0.0
H877 H 0.58062 0.64377 0.52408 0.0
H878 H 0.49792 0.65847 0.53782 0.0
H879 H 0.49138 0.61577 0.60247 0.0
C880 C 0.53135 0.71218 0.36375 0.0
C881 C 0.55497 0.72568 0.37469 0.0
C882 C 0.52589 0.68998 0.41472 0.0
C883 C 0.54396 0.68056 0.47804 0.0
C884 C 0.5669 0.69514 0.49227 0.0
C885 C 0.57238 0.71715 0.44101 0.0
C886 C 0.55719 0.61377 0.58021 0.0
C887 C 0.53208 0.60472 0.60113 0.0
C888 C 0.56099 0.63828 0.54211 0.0
C889 C 0.53982 0.65491 0.52433 0.0
C890 C 0.51476 0.64626 0.54853 0.0
C891 C 0.51099 0.62166 0.58658 0.0
H892 H 0.82938 0.50784 0.28822 0.0
H893 H 0.81397 0.5794 0.43429 0.0
H894 H 0.86858 0.50121 0.37903 0.0
H895 H 0.8527 0.57279 0.52659 0.0
H896 H 0.94102 0.5728 0.58274 0.0
H897 H 0.89836 0.57599 0.51243 0.0
H898 H 0.8905 0.49248 0.51809 0.0
H899 H 0.93362 0.48937 0.58633 0.0
C900 C 0.8337 0.52157 0.34257 0.0
C901 C 0.81794 0.54378 0.3554 0.0
C902 C 0.85645 0.51794 0.39449 0.0
C903 C 0.86442 0.53658 0.46042 0.0
C904 C 0.84782 0.55813 0.47591 0.0
C905 C 0.82515 0.56171 0.42408 0.0
C906 C 0.93026 0.55505 0.5692 0.0
C907 C 0.94131 0.53078 0.58966 0.0
C908 C 0.90544 0.55688 0.52936 0.0
C909 C 0.8905 0.5345 0.50844 0.0
C910 C 0.90126 0.51024 0.53142 0.0
C911 C 0.92611 0.50844 0.5717 0.0
loop_
_geom_bond_atom_site_label_1
_geom_bond_atom_site_label_2
_geom_bond_distance
_geom_bond_site_symmetry_2
_ccdc_geom_bond_type
H0 C5 0.930 . S
H1 C8 0.930 . S
H2 C10 0.930 . S
H3 C4 1.016 . S
C4 H3 1.016 . S
C4 N11 1.286 . S
C5 H0 0.930 . S
C5 C6 1.397 . S
C5 C7 1.361 . S
C6 C5 1.397 . S
C6 C10 1.390 . S
C7 C5 1.361 . S
C7 C8 1.393 . S
C7 N11 1.413 . S
C8 H1 0.930 . S
C8 C7 1.393 . S
C8 C9 1.399 . S
C9 C8 1.399 . S
C9 C10 1.381 . S
C10 H2 0.930 . S
C10 C6 1.390 . S
C10 C9 1.381 . S
N11 C4 1.286 . S
N11 C7 1.413 . S
H12 C17 0.930 . S
H13 C20 0.930 . S
H14 C22 0.930 . S
H15 C16 1.016 . S
C16 H15 1.016 . S
C16 N23 1.286 . S
C17 H12 0.930 . S
C17 C18 1.397 . S
C17 C19 1.361 . S
C18 C17 1.397 . S
C18 C22 1.390 . S
C19 C17 1.361 . S
C19 C20 1.393 . S
C19 N23 1.413 . S
C20 H13 0.930 . S
C20 C19 1.393 . S
C20 C21 1.399 . S
C21 C20 1.399 . S
C21 C22 1.381 . S
C22 H14 0.930 . S
C22 C18 1.390 . S
C22 C21 1.381 . S
N23 C16 1.286 . S
N23 C19 1.413 . S
H24 C29 0.930 . S
H25 C32 0.930 . S
H26 C34 0.930 . S
H27 C28 1.016 . S
C28 H27 1.016 . S
C28 N35 1.286 . S
C29 H24 0.930 . S
C29 C30 1.397 . S
C29 C31 1.361 . S
C30 C29 1.397 . S
C30 C34 1.390 . S
C31 C29 1.361 . S
C31 C32 1.393 . S
C31 N35 1.413 . S
C32 H25 0.930 . S
C32 C31 1.393 . S
C32 C33 1.399 . S
C33 C32 1.399 . S
C33 C34 1.381 . S
C34 H26 0.930 . S
C34 C30 1.390 . S
C34 C33 1.381 . S
N35 C28 1.286 . S
N35 C31 1.413 . S
H36 C41 0.930 . S
H37 C44 0.930 . S
H38 C46 0.930 . S
H39 C40 1.016 . S
C40 H39 1.016 . S
C40 N47 1.286 . S
C41 H36 0.930 . S
C41 C42 1.397 . S
C41 C43 1.361 . S
C42 C41 1.397 . S
C42 C46 1.390 . S
C43 C41 1.361 . S
C43 C44 1.393 . S
C43 N47 1.413 . S
C44 H37 0.930 . S
C44 C43 1.393 . S
C44 C45 1.399 . S
C45 C44 1.399 . S
C45 C46 1.381 . S
C46 H38 0.930 . S
C46 C42 1.390 . S
C46 C45 1.381 . S
N47 C40 1.286 . S
N47 C43 1.413 . S
H48 C53 0.930 . S
H49 C56 0.930 . S
H50 C58 0.930 . S
H51 C52 1.016 . S
C52 H51 1.016 . S
C52 N59 1.286 . S
C53 H48 0.930 . S
C53 C54 1.397 . S
C53 C55 1.361 1_556 S
C54 C53 1.397 . S
C54 C58 1.390 . S
C55 C53 1.361 1_554 S
C55 C56 1.393 . S
C55 N59 1.413 . S
C56 H49 0.930 . S
C56 C55 1.393 . S
C56 C57 1.399 . S
C57 C56 1.399 . S
C57 C58 1.381 1_554 S
C58 H50 0.930 . S
C58 C54 1.390 . S
C58 C57 1.381 1_556 S
N59 C52 1.286 . S
N59 C55 1.413 . S
H60 C65 0.930 . S
H61 C68 0.930 . S
H62 C70 0.930 . S
H63 C64 1.016 . S
C64 H63 1.016 . S
C64 N71 1.286 . S
C65 H60 0.930 . S
C65 C66 1.397 . S
C65 C67 1.351 1_556 S
C66 C65 1.397 . S
C66 C70 1.390 . S
C67 C65 1.351 1_554 S
C67 C68 1.402 . S
C67 N71 1.413 . S
C68 H61 0.930 . S
C68 C67 1.402 . S
C68 C69 1.399 . S
C69 C68 1.399 . S
C69 C70 1.381 1_554 S
C70 H62 0.930 . S
C70 C66 1.390 . S
C70 C69 1.381 1_556 S
N71 C64 1.286 . S
N71 C67 1.413 . S
H72 C77 0.930 . S
H73 C80 0.930 . S
H74 C82 0.930 . S
H75 C76 1.016 . S
C76 H75 1.016 . S
C76 N83 1.286 . S
C77 H72 0.930 . S
C77 C78 1.397 . S
C77 C79 1.372 . S
C78 C77 1.397 . S
C78 C82 1.390 . S
C79 C77 1.372 . S
C79 C80 1.384 1_556 S
C79 N83 1.412 1_556 S
C80 H73 0.930 . S
C80 C79 1.384 1_554 S
C80 C81 1.399 . S
C81 C80 1.399 . S
C81 C82 1.381 1_554 S
C82 H74 0.930 . S
C82 C78 1.390 . S
C82 C81 1.381 1_556 S
N83 C76 1.286 . S
N83 C79 1.412 1_554 S
H84 C89 0.930 . S
H85 C92 0.930 . S
H86 C94 0.930 . S
H87 C88 1.016 . S
C88 H87 1.016 . S
C88 N95 1.286 . S
C89 H84 0.930 . S
C89 C90 1.397 . S
C89 C91 1.361 1_556 S
C90 C89 1.397 . S
C90 C94 1.390 . S
C91 C89 1.361 1_554 S
C91 C92 1.393 . S
C91 N95 1.413 . S
C92 H85 0.930 . S
C92 C91 1.393 . S
C92 C93 1.399 . S
C93 C92 1.399 . S
C93 C94 1.381 1_554 S
C94 H86 0.930 . S
C94 C90 1.390 . S
C94 C93 1.381 1_556 S
N95 C88 1.286 . S
N95 C91 1.413 . S
Tb96 N127 2.660 1_565 S
Tb96 N134 2.600 1_565 S
Tb96 O140 2.546 . S
Tb96 O141 2.610 1_455 S
Tb96 O143 2.320 1_455 S
Tb96 O144 2.552 . S
Tb96 O145 2.413 . S
Tb96 O147 2.362 1_565 S
Tb96 O148 2.421 . S
Tb96 C160 2.833 . S
C97 C100 1.432 1_545 S
C97 C101 1.410 1_545 S
C97 N104 1.359 . S
C98 C100 1.417 . S
C98 C102 1.432 . S
C98 C110 1.410 . S
C99 C101 1.457 . S
C99 C102 1.317 . S
C99 H122 0.929 . S
C100 C97 1.432 1_565 S
C100 C98 1.417 . S
C100 N108 1.365 . S
C101 C97 1.410 1_565 S
C101 C99 1.457 . S
C101 C106 1.375 1_565 S
C102 C98 1.432 . S
C102 C99 1.317 . S
C102 H114 0.930 . S
C103 C105 1.392 . S
C103 C106 1.370 . S
C103 H115 0.931 . S
N104 C97 1.359 . S
N104 C105 1.327 . S
N104 Tb107 2.600 . S
C105 C103 1.392 . S
C105 N104 1.327 . S
C105 H112 0.930 . S
C106 C101 1.375 1_545 S
C106 C103 1.370 . S
C106 H125 0.930 . S
Tb107 N104 2.600 . S
Tb107 N108 2.646 1_545 S
Tb107 O141 2.362 1_545 S
Tb107 O142 2.421 . S
Tb107 O146 2.546 . S
Tb107 O147 2.610 1_655 S
Tb107 O149 2.320 1_655 S
Tb107 O150 2.552 1_655 S
Tb107 O151 2.413 . S
Tb107 C171 2.833 . S
N108 C100 1.365 . S
N108 Tb107 2.646 1_565 S
N108 C109 1.314 1_655 S
C109 N108 1.314 1_455 S
C109 C111 1.407 . S
C109 H116 0.930 . S
C110 C98 1.410 . S
C110 C111 1.345 1_655 S
C110 H118 0.930 . S
C111 C109 1.407 . S
C111 C110 1.345 1_455 S
C111 H113 0.930 . S
H112 C105 0.930 . S
H113 C111 0.930 . S
H114 C102 0.930 . S
H115 C103 0.931 . S
H116 C109 0.930 . S
H117 C131 0.930 1_654 S
H118 C110 0.930 . S
H119 C137 0.930 . S
H120 C128 0.930 1_655 S
H121 C135 0.931 . S
H122 C99 0.929 . S
H123 C129 0.930 . S
H124 C162 0.930 . S
H125 C106 0.930 . S
H126 C161 0.929 . S
N127 Tb96 2.660 1_545 S
N127 C128 1.305 . S
N127 C132 1.360 . S
C128 H120 0.930 1_455 S
C128 N127 1.305 . S
C128 C131 1.407 . S
C129 H123 0.930 . S
C129 C130 1.410 . S
C129 C131 1.345 1_554 S
C130 C129 1.410 . S
C130 C132 1.417 1_554 S
C130 C162 1.432 . S
C131 H117 0.930 1_456 S
C131 C128 1.407 . S
C131 C129 1.345 1_556 S
C132 N127 1.360 . S
C132 C130 1.417 1_556 S
C132 C136 1.432 . S
H133 C138 0.930 . S
N134 Tb96 2.600 1_545 S
N134 C136 1.359 . S
N134 C137 1.327 1_545 S
C135 H121 0.931 . S
C135 C137 1.392 . S
C135 C138 1.370 1_565 S
C136 C132 1.432 . S
C136 N134 1.359 . S
C136 C139 1.414 . S
C137 H119 0.930 . S
C137 N134 1.327 1_565 S
C137 C135 1.392 . S
C138 H133 0.930 . S
C138 C135 1.370 1_545 S
C138 C139 1.385 . S
C139 C136 1.414 . S
C139 C138 1.385 . S
C139 C161 1.444 1_556 S
O140 Tb96 2.546 . S
O140 C160 1.251 . S
O141 Tb96 2.610 1_655 S
O141 Tb107 2.362 1_565 S
O141 C152 1.283 . S
O142 Tb107 2.421 . S
O142 C159 1.262 . S
O143 Tb96 2.320 1_655 S
O143 C159 1.260 1_565 S
O144 Tb96 2.552 . S
O144 C152 1.243 1_455 S
O145 Tb96 2.413 . S
O145 C160 1.256 . S
O146 Tb107 2.546 . S
O146 C171 1.251 . S
O147 Tb96 2.362 1_545 S
O147 Tb107 2.610 1_455 S
O147 C163 1.283 . S
O148 Tb96 2.421 . S
O148 C170 1.262 1_565 S
O149 Tb107 2.320 1_455 S
O149 C170 1.260 . S
O150 Tb107 2.552 1_455 S
O150 C163 1.243 . S
O151 Tb107 2.413 . S
O151 C171 1.256 . S
C152 O141 1.283 . S
C152 O144 1.243 1_655 S
C153 C155 1.382 . S
C153 C157 1.393 . S
C153 C160 1.500 . S
C154 C155 1.400 . S
C154 C156 1.384 . S
C155 C153 1.382 . S
C155 C154 1.400 . S
C155 H172 0.952 . S
C156 C154 1.384 . S
C156 C158 1.392 . S
C156 H173 0.931 1_556 S
C157 C153 1.393 . S
C157 C158 1.401 . S
C157 H174 0.930 . S
C158 C156 1.392 . S
C158 C157 1.401 . S
C158 H175 0.930 . S
C159 O142 1.262 . S
C159 O143 1.260 1_545 S
C160 Tb96 2.833 . S
C160 O140 1.251 . S
C160 O145 1.256 . S
C160 C153 1.500 . S
C161 H126 0.929 . S
C161 C139 1.444 1_554 S
C161 C162 1.317 . S
C162 H124 0.930 . S
C162 C130 1.432 . S
C162 C161 1.317 . S
C163 O147 1.283 . S
C163 O150 1.243 . S
C164 C165 1.382 . S
C164 C168 1.393 . S
C164 C171 1.500 . S
C165 C164 1.382 . S
C165 C166 1.400 . S
C165 H176 0.930 1_655 S
C166 C165 1.400 . S
C166 C167 1.384 . S
C167 C166 1.384 . S
C167 C169 1.392 . S
C167 H177 0.931 . S
C168 C164 1.393 . S
C168 C169 1.401 . S
C168 H178 0.930 . S
C169 C167 1.392 . S
C169 C168 1.401 . S
C169 H179 0.930 . S
C170 O148 1.262 1_545 S
C170 O149 1.260 . S
C171 Tb107 2.833 . S
C171 O146 1.251 . S
C171 O151 1.256 . S
C171 C164 1.500 . S
H172 C155 0.952 . S
H173 C156 0.931 1_554 S
H174 C157 0.930 . S
H175 C158 0.930 . S
H176 C165 0.930 1_455 S
H177 C167 0.931 . S
H178 C168 0.930 . S
H179 C169 0.930 . S
Tb180 N211 2.660 . S
Tb180 N218 2.600 . S
Tb180 O224 2.546 . S
Tb180 O225 2.610 1_545 S
Tb180 O227 2.320 1_545 S
Tb180 O228 2.552 . S
Tb180 O229 2.413 . S
Tb180 O231 2.362 . S
Tb180 O232 2.421 . S
Tb180 C244 2.833 . S
C181 C184 1.432 . S
C181 C185 1.414 . S
C181 N188 1.359 . S
C182 C184 1.417 . S
C182 C186 1.432 . S
C182 C194 1.410 . S
C183 C185 1.444 . S
C183 C186 1.317 . S
C183 H206 0.929 . S
C184 C181 1.432 . S
C184 C182 1.417 . S
C184 N192 1.360 . S
C185 C181 1.414 . S
C185 C183 1.444 . S
C185 C190 1.385 . S
C186 C182 1.432 . S
C186 C183 1.317 . S
C186 H198 0.930 . S
C187 C189 1.392 . S
C187 C190 1.370 . S
C187 H199 0.931 . S
N188 C181 1.359 . S
N188 C189 1.327 . S
N188 Tb191 2.600 . S
C189 C187 1.392 . S
C189 N188 1.327 . S
C189 H196 0.930 . S
C190 C185 1.385 . S
C190 C187 1.370 . S
C190 H209 0.930 . S
Tb191 N188 2.600 . S
Tb191 N192 2.660 . S
Tb191 O225 2.362 . S
Tb191 O226 2.421 . S
Tb191 O230 2.546 . S
Tb191 O231 2.610 1_565 S
Tb191 O233 2.320 1_565 S
Tb191 O234 2.552 1_565 S
Tb191 O235 2.413 . S
Tb191 C255 2.833 . S
N192 C184 1.360 . S
N192 Tb191 2.660 . S
N192 C193 1.305 1_565 S
C193 N192 1.305 1_545 S
C193 C195 1.407 . S
C193 H200 0.930 . S
C194 C182 1.410 . S
C194 C195 1.345 1_565 S
C194 H202 0.930 . S
C195 C193 1.407 . S
C195 C194 1.345 1_545 S
C195 H197 0.930 . S
H196 C189 0.930 . S
H197 C195 0.930 . S
H198 C186 0.930 . S
H199 C187 0.931 . S
H200 C193 0.930 . S
H201 C215 0.930 1_564 S
H202 C194 0.930 . S
H203 C221 0.930 . S
H204 C212 0.930 1_565 S
H205 C219 0.931 . S
H206 C183 0.929 . S
H207 C213 0.930 . S
H208 C246 0.930 . S
H209 C190 0.930 . S
H210 C245 0.929 . S
N211 Tb180 2.660 . S
N211 C212 1.305 . S
N211 C216 1.360 . S
C212 H204 0.930 1_545 S
C212 N211 1.305 . S
C212 C215 1.407 . S
C213 H207 0.930 . S
C213 C214 1.410 . S
C213 C215 1.345 1_554 S
C214 C213 1.410 . S
C214 C216 1.417 1_554 S
C214 C246 1.432 . S
C215 H201 0.930 1_546 S
C215 C212 1.407 . S
C215 C213 1.345 1_556 S
C216 N211 1.360 . S
C216 C214 1.417 1_556 S
C216 C220 1.432 . S
H217 C222 0.930 . S
N218 Tb180 2.600 . S
N218 C220 1.359 . S
N218 C221 1.327 . S
C219 H205 0.931 . S
C219 C221 1.392 . S
C219 C222 1.370 . S
C220 C216 1.432 . S
C220 N218 1.359 . S
C220 C223 1.414 . S
C221 H203 0.930 . S
C221 N218 1.327 . S
C221 C219 1.392 . S
C222 H217 0.930 . S
C222 C219 1.370 . S
C222 C223 1.385 . S
C223 C220 1.414 . S
C223 C222 1.385 . S
C223 C245 1.444 1_556 S
O224 Tb180 2.546 . S
O224 C244 1.251 . S
O225 Tb180 2.610 1_565 S
O225 Tb191 2.362 . S
O225 C236 1.285 . S
O226 Tb191 2.421 . S
O226 C243 1.262 . S
O227 Tb180 2.320 1_565 S
O227 C243 1.260 . S
O228 Tb180 2.552 . S
O228 C236 1.216 1_545 S
O229 Tb180 2.413 . S
O229 C244 1.256 . S
O230 Tb191 2.546 . S
O230 C255 1.251 . S
O231 Tb180 2.362 . S
O231 Tb191 2.610 1_545 S
O231 C247 1.283 . S
O232 Tb180 2.421 . S
O232 C254 1.262 . S
O233 Tb191 2.320 1_545 S
O233 C254 1.260 . S
O234 Tb191 2.552 1_545 S
O234 C247 1.243 . S
O235 Tb191 2.413 . S
O235 C255 1.256 . S
C236 O225 1.285 . S
C236 O228 1.216 1_565 S
C237 C239 1.382 . S
C237 C241 1.393 . S
C237 C244 1.500 . S
C238 C239 1.400 . S
C238 C240 1.381 1_556 S
C239 C237 1.382 . S
C239 C238 1.400 . S
C239 H256 0.930 . S
C240 C238 1.381 1_554 S
C240 C242 1.388 1_554 S
C240 H257 0.937 . S
C241 C237 1.393 . S
C241 C242 1.401 . S
C241 H258 0.930 . S
C242 C240 1.388 1_556 S
C242 C241 1.401 . S
C242 H259 0.930 . S
C243 O226 1.262 . S
C243 O227 1.260 . S
C244 Tb180 2.833 . S
C244 O224 1.251 . S
C244 O229 1.256 . S
C244 C237 1.500 . S
C245 H210 0.929 . S
C245 C223 1.444 1_554 S
C245 C246 1.317 . S
C246 H208 0.930 . S
C246 C214 1.432 . S
C246 C245 1.317 . S
C247 O231 1.283 . S
C247 O234 1.243 . S
C248 C249 1.382 . S
C248 C252 1.393 . S
C248 C255 1.500 . S
C249 C248 1.382 . S
C249 C250 1.400 . S
C249 H260 0.930 1_565 S
C250 C249 1.400 . S
C250 C251 1.384 . S
C251 C250 1.384 . S
C251 C253 1.392 . S
C251 H261 0.931 . S
C252 C248 1.393 . S
C252 C253 1.401 . S
C252 H262 0.930 . S
C253 C251 1.392 . S
C253 C252 1.401 . S
C253 H263 0.930 . S
C254 O232 1.262 . S
C254 O233 1.260 . S
C255 Tb191 2.833 . S
C255 O230 1.251 . S
C255 O235 1.256 . S
C255 C248 1.500 . S
H256 C239 0.930 . S
H257 C240 0.937 . S
H258 C241 0.930 . S
H259 C242 0.930 . S
H260 C249 0.930 1_545 S
H261 C251 0.931 . S
H262 C252 0.930 . S
H263 C253 0.930 . S
Tb264 N295 2.660 . S
Tb264 N302 2.600 . S
Tb264 O308 2.546 . S
Tb264 O309 2.610 . S
Tb264 O311 2.320 . S
Tb264 O312 2.552 . S
Tb264 O313 2.413 . S
Tb264 O315 2.362 . S
Tb264 O316 2.421 . S
Tb264 C328 2.833 . S
C265 C268 1.432 . S
C265 C269 1.414 . S
C265 N272 1.359 . S
C266 C268 1.417 . S
C266 C270 1.432 . S
C266 C278 1.410 . S
C267 C269 1.444 . S
C267 C270 1.317 . S
C267 H290 0.929 . S
C268 C265 1.432 . S
C268 C266 1.417 . S
C268 N276 1.360 . S
C269 C265 1.414 . S
C269 C267 1.444 . S
C269 C274 1.385 . S
C270 C266 1.432 . S
C270 C267 1.317 . S
C270 H282 0.930 . S
C271 C273 1.392 . S
C271 C274 1.370 . S
C271 H283 0.931 . S
N272 C265 1.359 . S
N272 C273 1.327 . S
N272 Tb275 2.600 . S
C273 C271 1.392 . S
C273 N272 1.327 . S
C273 H280 0.930 . S
C274 C269 1.385 . S
C274 C271 1.370 . S
C274 H293 0.930 . S
Tb275 N272 2.600 . S
Tb275 N276 2.660 . S
Tb275 O309 2.362 . S
Tb275 O310 2.421 . S
Tb275 O314 2.546 . S
Tb275 O315 2.610 . S
Tb275 O317 2.320 . S
Tb275 O318 2.552 . S
Tb275 O319 2.413 . S
Tb275 C339 2.833 . S
N276 C268 1.360 . S
N276 Tb275 2.660 . S
N276 C277 1.305 . S
C277 N276 1.305 . S
C277 C279 1.407 . S
C277 H284 0.930 . S
C278 C266 1.410 . S
C278 C279 1.345 . S
C278 H286 0.930 . S
C279 C277 1.407 . S
C279 C278 1.345 . S
C279 H281 0.930 . S
H280 C273 0.930 . S
H281 C279 0.930 . S
H282 C270 0.930 . S
H283 C271 0.931 . S
H284 C277 0.930 . S
H285 C299 0.930 . S
H286 C278 0.930 . S
H287 C305 0.930 . S
H288 C296 0.930 . S
H289 C303 0.931 . S
H290 C267 0.929 . S
H291 C297 0.930 . S
H292 C330 0.930 . S
H293 C274 0.930 . S
H294 C329 0.929 . S
N295 Tb264 2.660 . S
N295 C296 1.305 . S
N295 C300 1.360 . S
C296 H288 0.930 . S
C296 N295 1.305 . S
C296 C299 1.407 . S
C297 H291 0.930 . S
C297 C298 1.410 . S
C297 C299 1.345 . S
C298 C297 1.410 . S
C298 C300 1.417 . S
C298 C330 1.432 . S
C299 H285 0.930 . S
C299 C296 1.407 . S
C299 C297 1.345 . S
C300 N295 1.360 . S
C300 C298 1.417 . S
C300 C304 1.432 . S
H301 C306 0.930 . S
N302 Tb264 2.600 . S
N302 C304 1.359 . S
N302 C305 1.327 . S
C303 H289 0.931 . S
C303 C305 1.392 . S
C303 C306 1.370 . S
C304 C300 1.432 . S
C304 N302 1.359 . S
C304 C307 1.414 . S
C305 H287 0.930 . S
C305 N302 1.327 . S
C305 C303 1.392 . S
C306 H301 0.930 . S
C306 C303 1.370 . S
C306 C307 1.385 . S
C307 C304 1.414 . S
C307 C306 1.385 . S
C307 C329 1.444 . S
O308 Tb264 2.546 . S
O308 C328 1.251 . S
O309 Tb264 2.610 . S
O309 Tb275 2.362 . S
O309 C320 1.283 . S
O310 Tb275 2.421 . S
O310 C327 1.262 . S
O311 Tb264 2.320 . S
O311 C327 1.260 . S
O312 Tb264 2.552 . S
O312 C320 1.243 . S
O313 Tb264 2.413 . S
O313 C328 1.256 . S
O314 Tb275 2.546 . S
O314 C339 1.251 . S
O315 Tb264 2.362 . S
O315 Tb275 2.610 . S
O315 C331 1.283 . S
O316 Tb264 2.421 . S
O316 C338 1.262 . S
O317 Tb275 2.320 . S
O317 C338 1.260 . S
O318 Tb275 2.552 . S
O318 C331 1.243 . S
O319 Tb275 2.413 . S
O319 C339 1.256 . S
C320 O309 1.283 . S
C320 O312 1.243 . S
C321 C323 1.382 . S
C321 C325 1.393 . S
C321 C328 1.500 . S
C322 C323 1.400 . S
C322 C324 1.384 . S
C323 C321 1.382 . S
C323 C322 1.400 . S
C323 H340 0.930 . S
C324 C322 1.384 . S
C324 C326 1.392 . S
C324 H341 0.931 . S
C325 C321 1.393 . S
C325 C326 1.401 . S
C325 H342 0.930 . S
C326 C324 1.392 . S
C326 C325 1.401 . S
C326 H343 0.930 . S
C327 O310 1.262 . S
C327 O311 1.260 . S
C328 Tb264 2.833 . S
C328 O308 1.251 . S
C328 O313 1.256 . S
C328 C321 1.500 . S
C329 H294 0.929 . S
C329 C307 1.444 . S
C329 C330 1.317 . S
C330 H292 0.930 . S
C330 C298 1.432 . S
C330 C329 1.317 . S
C331 O315 1.283 . S
C331 O318 1.243 . S
C332 C333 1.382 . S
C332 C336 1.393 1_556 S
C332 C339 1.500 . S
C333 C332 1.382 . S
C333 C334 1.400 1_556 S
C333 H344 0.930 . S
C334 C333 1.400 1_554 S
C334 C335 1.384 . S
C335 C334 1.384 . S
C335 C337 1.392 . S
C335 H345 0.931 . S
C336 C332 1.393 1_554 S
C336 C337 1.401 . S
C336 H346 0.930 . S
C337 C335 1.392 . S
C337 C336 1.401 . S
C337 H347 0.930 . S
C338 O316 1.262 . S
C338 O317 1.260 . S
C339 Tb275 2.833 . S
C339 O314 1.251 . S
C339 O319 1.256 . S
C339 C332 1.500 . S
H340 C323 0.930 . S
H341 C324 0.931 . S
H342 C325 0.930 . S
H343 C326 0.930 . S
H344 C333 0.930 . S
H345 C335 0.931 . S
H346 C336 0.930 . S
H347 C337 0.930 . S
Tb348 N379 2.660 . S
Tb348 N386 2.600 . S
Tb348 O392 2.546 . S
Tb348 O393 2.610 . S
Tb348 O395 2.320 . S
Tb348 O396 2.552 . S
Tb348 O397 2.413 . S
Tb348 O399 2.362 . S
Tb348 O400 2.421 1_455 S
Tb348 C412 2.833 . S
C349 C352 1.432 . S
C349 C353 1.414 . S
C349 N356 1.359 . S
C350 C352 1.417 . S
C350 C354 1.432 . S
C350 C362 1.410 . S
C351 C353 1.444 . S
C351 C354 1.317 . S
C351 H374 0.929 . S
C352 C349 1.432 . S
C352 C350 1.417 . S
C352 N360 1.360 . S
C353 C349 1.414 . S
C353 C351 1.444 . S
C353 C358 1.385 1_655 S
C354 C350 1.432 . S
C354 C351 1.317 . S
C354 H366 0.930 . S
C355 C357 1.392 . S
C355 C358 1.370 . S
C355 H367 0.931 . S
N356 C349 1.359 . S
N356 C357 1.327 1_655 S
N356 Tb359 2.600 . S
C357 C355 1.392 . S
C357 N356 1.327 1_455 S
C357 H364 0.930 . S
C358 C353 1.385 1_455 S
C358 C355 1.370 . S
C358 H377 0.930 . S
Tb359 N356 2.600 . S
Tb359 N360 2.660 . S
Tb359 O393 2.362 1_655 S
Tb359 O394 2.421 1_655 S
Tb359 O398 2.546 . S
Tb359 O399 2.610 1_655 S
Tb359 O401 2.320 . S
Tb359 O402 2.552 . S
Tb359 O403 2.413 . S
Tb359 C423 2.833 . S
N360 C352 1.360 . S
N360 Tb359 2.660 . S
N360 C361 1.305 . S
C361 N360 1.305 . S
C361 C363 1.407 . S
C361 H368 0.930 . S
C362 C350 1.410 . S
C362 C363 1.345 . S
C362 H370 0.930 . S
C363 C361 1.407 . S
C363 C362 1.345 . S
C363 H365 0.930 . S
H364 C357 0.930 . S
H365 C363 0.930 . S
H366 C354 0.930 . S
H367 C355 0.931 . S
H368 C361 0.930 . S
H369 C383 0.930 . S
H370 C362 0.930 . S
H371 C389 0.922 1_655 S
H372 C380 0.930 . S
H373 C387 0.931 . S
H374 C351 0.929 . S
H375 C381 0.930 . S
H376 C414 0.930 . S
H377 C358 0.930 . S
H378 C413 0.929 . S
N379 Tb348 2.660 . S
N379 C380 1.305 . S
N379 C384 1.360 . S
C380 H372 0.930 . S
C380 N379 1.305 . S
C380 C383 1.407 . S
C381 H375 0.930 . S
C381 C382 1.410 . S
C381 C383 1.345 . S
C382 C381 1.410 . S
C382 C384 1.417 . S
C382 C414 1.432 . S
C383 H369 0.930 . S
C383 C380 1.407 . S
C383 C381 1.345 . S
C384 N379 1.360 . S
C384 C382 1.417 . S
C384 C388 1.432 . S
H385 C390 0.930 . S
N386 Tb348 2.600 . S
N386 C388 1.359 . S
N386 C389 1.337 . S
C387 H373 0.931 . S
C387 C389 1.390 1_655 S
C387 C390 1.370 1_655 S
C388 C384 1.432 . S
C388 N386 1.359 . S
C388 C391 1.414 . S
C389 H371 0.922 1_455 S
C389 N386 1.337 . S
C389 C387 1.390 1_455 S
C390 H385 0.930 . S
C390 C387 1.370 1_455 S
C390 C391 1.385 . S
C391 C388 1.414 . S
C391 C390 1.385 . S
C391 C413 1.444 . S
O392 Tb348 2.546 . S
O392 C412 1.251 . S
O393 Tb348 2.610 . S
O393 Tb359 2.362 1_455 S
O393 C404 1.283 . S
O394 Tb359 2.421 1_455 S
O394 C411 1.262 . S
O395 Tb348 2.320 . S
O395 C411 1.260 . S
O396 Tb348 2.552 . S
O396 C404 1.243 . S
O397 Tb348 2.413 . S
O397 C412 1.256 . S
O398 Tb359 2.546 . S
O398 C423 1.251 . S
O399 Tb348 2.362 . S
O399 Tb359 2.610 1_455 S
O399 C415 1.283 1_455 S
O400 Tb348 2.421 1_655 S
O400 C422 1.262 . S
O401 Tb359 2.320 . S
O401 C422 1.260 . S
O402 Tb359 2.552 . S
O402 C415 1.243 . S
O403 Tb359 2.413 . S
O403 C423 1.256 . S
C404 O393 1.283 . S
C404 O396 1.243 . S
C405 C407 1.382 . S
C405 C409 1.393 . S
C405 C412 1.500 . S
C406 C407 1.400 . S
C406 C408 1.384 . S
C407 C405 1.382 . S
C407 C406 1.400 . S
C407 H424 0.930 . S
C408 C406 1.384 . S
C408 C410 1.392 . S
C408 H425 0.931 . S
C409 C405 1.393 . S
C409 C410 1.401 . S
C409 H426 0.930 . S
C410 C408 1.392 . S
C410 C409 1.401 . S
C410 H427 0.930 . S
C411 O394 1.262 . S
C411 O395 1.260 . S
C412 Tb348 2.833 . S
C412 O392 1.251 . S
C412 O397 1.256 . S
C412 C405 1.500 . S
C413 H378 0.929 . S
C413 C391 1.444 . S
C413 C414 1.317 . S
C414 H376 0.930 . S
C414 C382 1.432 . S
C414 C413 1.317 . S
C415 O399 1.283 1_655 S
C415 O402 1.243 . S
C416 C417 1.382 . S
C416 C420 1.393 1_556 S
C416 C423 1.500 . S
C417 C416 1.382 . S
C417 C418 1.400 1_556 S
C417 H428 0.930 . S
C418 C417 1.400 1_554 S
C418 C419 1.384 . S
C419 C418 1.384 . S
C419 C421 1.392 . S
C419 H429 0.931 . S
C420 C416 1.393 1_554 S
C420 C421 1.401 . S
C420 H430 0.930 . S
C421 C419 1.392 . S
C421 C420 1.401 . S
C421 H431 0.930 . S
C422 O400 1.262 . S
C422 O401 1.260 . S
C423 Tb359 2.833 . S
C423 O398 1.251 . S
C423 O403 1.256 . S
C423 C416 1.500 . S
H424 C407 0.930 . S
H425 C408 0.931 . S
H426 C409 0.930 . S
H427 C410 0.930 . S
H428 C417 0.930 . S
H429 C419 0.931 . S
H430 C420 0.930 . S
H431 C421 0.930 . S
H432 C440 0.950 . S
H433 C445 0.950 . S
H434 C442 0.950 . S
H435 C444 0.950 . S
H436 C446 0.950 1_565 S
H437 C448 0.950 1_565 S
H438 C450 0.950 . S
H439 C451 0.950 . S
C440 H432 0.950 . S
C440 C441 1.386 . S
C440 C442 1.391 . S
C441 C440 1.386 . S
C441 C445 1.393 . S
C442 H434 0.950 . S
C442 C440 1.391 . S
C442 C443 1.400 . S
C443 C442 1.400 . S
C443 C444 1.398 . S
C443 C449 1.491 . S
C444 H435 0.950 . S
C444 C443 1.398 . S
C444 C445 1.391 . S
C445 H433 0.950 . S
C445 C441 1.393 . S
C445 C444 1.391 . S
C446 H436 0.950 1_545 S
C446 C447 1.386 . S
C446 C448 1.391 . S
C447 C446 1.386 . S
C447 C451 1.393 . S
C448 H437 0.950 1_545 S
C448 C446 1.391 . S
C448 C449 1.400 . S
C449 C443 1.491 . S
C449 C448 1.400 . S
C449 C450 1.398 . S
C450 H438 0.950 . S
C450 C449 1.398 . S
C450 C451 1.391 . S
C451 H439 0.950 . S
C451 C447 1.393 . S
C451 C450 1.391 . S
H452 C460 0.950 . S
H453 C465 0.950 . S
H454 C462 0.950 . S
H455 C464 0.950 . S
H456 C466 0.950 . S
H457 C468 0.950 . S
H458 C470 0.950 . S
H459 C471 0.950 . S
C460 H452 0.950 . S
C460 C461 1.386 . S
C460 C462 1.391 . S
C461 C460 1.386 . S
C461 C465 1.393 . S
C462 H454 0.950 . S
C462 C460 1.391 . S
C462 C463 1.400 . S
C463 C462 1.400 . S
C463 C464 1.398 . S
C463 C469 1.491 . S
C464 H455 0.950 . S
C464 C463 1.398 . S
C464 C465 1.391 . S
C465 H453 0.950 . S
C465 C461 1.393 . S
C465 C464 1.391 . S
C466 H456 0.950 . S
C466 C467 1.386 . S
C466 C468 1.391 . S
C467 C466 1.386 . S
C467 C471 1.393 . S
C468 H457 0.950 . S
C468 C466 1.391 . S
C468 C469 1.400 . S
C469 C463 1.491 . S
C469 C468 1.400 . S
C469 C470 1.398 . S
C470 H458 0.950 . S
C470 C469 1.398 . S
C470 C471 1.391 . S
C471 H459 0.950 . S
C471 C467 1.393 . S
C471 C470 1.391 . S
H472 C480 0.950 . S
H473 C485 0.950 . S
H474 C482 0.950 . S
H475 C484 0.950 . S
H476 C486 0.950 . S
H477 C488 0.950 . S
H478 C490 0.950 . S
H479 C491 0.950 . S
C480 H472 0.950 . S
C480 C481 1.386 . S
C480 C482 1.391 . S
C481 C480 1.386 . S
C481 C485 1.393 . S
C482 H474 0.950 . S
C482 C480 1.391 . S
C482 C483 1.400 . S
C483 C482 1.400 . S
C483 C484 1.398 . S
C483 C489 1.491 . S
C484 H475 0.950 . S
C484 C483 1.398 . S
C484 C485 1.391 . S
C485 H473 0.950 . S
C485 C481 1.393 . S
C485 C484 1.391 . S
C486 H476 0.950 . S
C486 C487 1.386 . S
C486 C488 1.391 . S
C487 C486 1.386 . S
C487 C491 1.393 . S
C488 H477 0.950 . S
C488 C486 1.391 . S
C488 C489 1.400 . S
C489 C483 1.491 . S
C489 C488 1.400 . S
C489 C490 1.398 . S
C490 H478 0.950 . S
C490 C489 1.398 . S
C490 C491 1.391 . S
C491 H479 0.950 . S
C491 C487 1.393 . S
C491 C490 1.391 . S
H492 C500 0.950 . S
H493 C505 0.950 . S
H494 C502 0.950 . S
H495 C504 0.950 . S
H496 C506 0.950 . S
H497 C508 0.950 . S
H498 C510 0.950 . S
H499 C511 0.950 . S
C500 H492 0.950 . S
C500 C501 1.386 . S
C500 C502 1.391 . S
C501 C500 1.386 . S
C501 C505 1.393 . S
C502 H494 0.950 . S
C502 C500 1.391 . S
C502 C503 1.400 . S
C503 C502 1.400 . S
C503 C504 1.398 . S
C503 C509 1.491 . S
C504 H495 0.950 . S
C504 C503 1.398 . S
C504 C505 1.391 . S
C505 H493 0.950 . S
C505 C501 1.393 . S
C505 C504 1.391 . S
C506 H496 0.950 . S
C506 C507 1.386 . S
C506 C508 1.391 . S
C507 C506 1.386 . S
C507 C511 1.393 . S
C508 H497 0.950 . S
C508 C506 1.391 . S
C508 C509 1.400 . S
C509 C503 1.491 . S
C509 C508 1.400 . S
C509 C510 1.398 . S
C510 H498 0.950 . S
C510 C509 1.398 . S
C510 C511 1.391 . S
C511 H499 0.950 . S
C511 C507 1.393 . S
C511 C510 1.391 . S
H512 C520 0.950 1_545 S
H513 C525 0.950 . S
H514 C522 0.950 1_545 S
H515 C524 0.950 . S
H516 C526 0.950 . S
H517 C528 0.950 . S
H518 C530 0.950 . S
H519 C531 0.950 . S
C520 H512 0.950 1_565 S
C520 C521 1.386 . S
C520 C522 1.391 . S
C521 C520 1.386 . S
C521 C525 1.393 . S
C522 H514 0.950 1_565 S
C522 C520 1.391 . S
C522 C523 1.400 . S
C523 C522 1.400 . S
C523 C524 1.398 . S
C523 C529 1.491 1_554 S
C524 H515 0.950 . S
C524 C523 1.398 . S
C524 C525 1.391 . S
C525 H513 0.950 . S
C525 C521 1.393 . S
C525 C524 1.391 . S
C526 H516 0.950 . S
C526 C527 1.386 . S
C526 C528 1.391 . S
C527 C526 1.386 . S
C527 C531 1.393 1_565 S
C528 H517 0.950 . S
C528 C526 1.391 . S
C528 C529 1.400 . S
C529 C523 1.491 1_556 S
C529 C528 1.400 . S
C529 C530 1.398 1_565 S
C530 H518 0.950 . S
C530 C529 1.398 1_545 S
C530 C531 1.391 . S
C531 H519 0.950 . S
C531 C527 1.393 1_545 S
C531 C530 1.391 . S
H532 C540 0.950 . S
H533 C545 0.950 . S
H534 C542 0.950 . S
H535 C544 0.950 1_556 S
H536 C546 0.950 . S
H537 C548 0.950 . S
H538 C550 0.950 1_554 S
H539 C551 0.950 . S
C540 H532 0.950 . S
C540 C541 1.386 . S
C540 C542 1.391 . S
C541 C540 1.386 . S
C541 C545 1.393 . S
C542 H534 0.950 . S
C542 C540 1.391 . S
C542 C543 1.400 . S
C543 C542 1.400 . S
C543 C544 1.398 . S
C543 C549 1.491 1_554 S
C544 H535 0.950 1_554 S
C544 C543 1.398 . S
C544 C545 1.391 . S
C545 H533 0.950 . S
C545 C541 1.393 . S
C545 C544 1.391 . S
C546 H536 0.950 . S
C546 C547 1.386 . S
C546 C548 1.391 . S
C547 C546 1.386 . S
C547 C551 1.393 . S
C548 H537 0.950 . S
C548 C546 1.391 . S
C548 C549 1.400 . S
C549 C543 1.491 1_556 S
C549 C548 1.400 . S
C549 C550 1.398 . S
C550 H538 0.950 1_556 S
C550 C549 1.398 . S
C550 C551 1.391 . S
C551 H539 0.950 . S
C551 C547 1.393 . S
C551 C550 1.391 . S
H552 C560 0.950 . S
H553 C565 0.950 . S
H554 C562 0.950 . S
H555 C564 0.950 . S
H556 C566 0.950 . S
H557 C568 0.950 . S
H558 C570 0.950 . S
H559 C571 0.950 . S
C560 H552 0.950 . S
C560 C561 1.386 . S
C560 C562 1.391 . S
C561 C560 1.386 . S
C561 C565 1.393 . S
C562 H554 0.950 . S
C562 C560 1.391 . S
C562 C563 1.400 . S
C563 C562 1.400 . S
C563 C564 1.398 . S
C563 C569 1.491 1_554 S
C564 H555 0.950 . S
C564 C563 1.398 . S
C564 C565 1.391 . S
C565 H553 0.950 . S
C565 C561 1.393 . S
C565 C564 1.391 . S
C566 H556 0.950 . S
C566 C567 1.386 . S
C566 C568 1.391 . S
C567 C566 1.386 . S
C567 C571 1.393 . S
C568 H557 0.950 . S
C568 C566 1.391 . S
C568 C569 1.400 . S
C569 C563 1.491 1_556 S
C569 C568 1.400 . S
C569 C570 1.398 . S
C570 H558 0.950 . S
C570 C569 1.398 . S
C570 C571 1.391 . S
C571 H559 0.950 . S
C571 C567 1.393 . S
C571 C570 1.391 . S
H572 C580 0.950 . S
H573 C585 0.950 . S
H574 C582 0.950 1_556 S
H575 C584 0.950 . S
H576 C586 0.950 . S
H577 C588 0.950 1_554 S
H578 C590 0.950 . S
H579 C591 0.950 . S
C580 H572 0.950 . S
C580 C581 1.386 . S
C580 C582 1.391 . S
C581 C580 1.386 . S
C581 C585 1.393 . S
C582 H574 0.950 1_554 S
C582 C580 1.391 . S
C582 C583 1.400 . S
C583 C582 1.400 . S
C583 C584 1.398 . S
C583 C589 1.491 1_554 S
C584 H575 0.950 . S
C584 C583 1.398 . S
C584 C585 1.391 . S
C585 H573 0.950 . S
C585 C581 1.393 . S
C585 C584 1.391 . S
C586 H576 0.950 . S
C586 C587 1.386 . S
C586 C588 1.391 . S
C587 C586 1.386 . S
C587 C591 1.393 . S
C588 H577 0.950 1_556 S
C588 C586 1.391 . S
C588 C589 1.400 . S
C589 C583 1.491 1_556 S
C589 C588 1.400 . S
C589 C590 1.398 . S
C590 H578 0.950 . S
C590 C589 1.398 . S
C590 C591 1.391 . S
C591 H579 0.950 . S
C591 C587 1.393 . S
C591 C590 1.391 . S
H592 C600 0.950 . S
H593 C605 0.950 . S
H594 C602 0.950 . S
H595 C604 0.950 . S
H596 C606 0.950 . S
H597 C608 0.940 1_655 S
H598 C610 0.950 . S
H599 C611 0.950 . S
C600 H592 0.950 . S
C600 C601 1.386 . S
C600 C602 1.391 . S
C601 C600 1.386 . S
C601 C605 1.393 . S
C602 H594 0.950 . S
C602 C600 1.391 . S
C602 C603 1.400 . S
C603 C602 1.400 . S
C603 C604 1.398 . S
C603 C609 1.491 . S
C604 H595 0.950 . S
C604 C603 1.398 . S
C604 C605 1.391 . S
C605 H593 0.950 . S
C605 C601 1.393 . S
C605 C604 1.391 . S
C606 H596 0.950 . S
C606 C607 1.386 1_655 S
C606 C608 1.384 1_655 S
C607 C606 1.386 1_455 S
C607 C611 1.393 . S
C608 H597 0.940 1_455 S
C608 C606 1.384 1_455 S
C608 C609 1.418 . S
C609 C603 1.491 . S
C609 C608 1.418 . S
C609 C610 1.398 . S
C610 H598 0.950 . S
C610 C609 1.398 . S
C610 C611 1.391 . S
C611 H599 0.950 . S
C611 C607 1.393 . S
C611 C610 1.391 . S
H612 C620 0.950 . S
H613 C625 0.950 . S
H614 C622 0.950 . S
H615 C624 0.950 . S
H616 C626 0.950 . S
H617 C628 0.950 . S
H618 C630 0.924 1_565 S
H619 C631 0.950 . S
C620 H612 0.950 . S
C620 C621 1.386 . S
C620 C622 1.391 . S
C621 C620 1.386 . S
C621 C625 1.393 . S
C622 H614 0.950 . S
C622 C620 1.391 . S
C622 C623 1.400 . S
C623 C622 1.400 . S
C623 C624 1.398 . S
C623 C629 1.491 . S
C624 H615 0.950 . S
C624 C623 1.398 . S
C624 C625 1.391 . S
C625 H613 0.950 . S
C625 C621 1.393 . S
C625 C624 1.391 . S
C626 H616 0.950 . S
C626 C627 1.386 . S
C626 C628 1.391 . S
C627 C626 1.386 . S
C627 C631 1.393 1_545 S
C628 H617 0.950 . S
C628 C626 1.391 . S
C628 C629 1.400 . S
C629 C623 1.491 . S
C629 C628 1.400 . S
C629 C630 1.443 . S
C630 H618 0.924 1_545 S
C630 C629 1.443 . S
C630 C631 1.373 1_545 S
C631 H619 0.950 . S
C631 C627 1.393 1_565 S
C631 C630 1.373 1_565 S
H632 C640 0.950 . S
H633 C645 0.950 . S
H634 C642 0.950 . S
H635 C644 0.950 . S
H636 C646 0.950 . S
H637 C648 0.950 . S
H638 C650 0.950 . S
H639 C651 0.950 . S
C640 H632 0.950 . S
C640 C641 1.386 . S
C640 C642 1.391 . S
C641 C640 1.386 . S
C641 C645 1.393 . S
C642 H634 0.950 . S
C642 C640 1.391 . S
C642 C643 1.400 . S
C643 C642 1.400 . S
C643 C644 1.398 . S
C643 C649 1.491 . S
C644 H635 0.950 . S
C644 C643 1.398 . S
C644 C645 1.391 . S
C645 H633 0.950 . S
C645 C641 1.393 . S
C645 C644 1.391 . S
C646 H636 0.950 . S
C646 C647 1.386 . S
C646 C648 1.391 . S
C647 C646 1.386 . S
C647 C651 1.393 . S
C648 H637 0.950 . S
C648 C646 1.391 . S
C648 C649 1.400 . S
C649 C643 1.491 . S
C649 C648 1.400 . S
C649 C650 1.398 . S
C650 H638 0.950 . S
C650 C649 1.398 . S
C650 C651 1.391 . S
C651 H639 0.950 . S
C651 C647 1.393 . S
C651 C650 1.391 . S
H652 C660 0.950 . S
H653 C665 0.950 . S
H654 C662 0.950 . S
H655 C664 0.950 . S
H656 C666 0.950 . S
H657 C668 0.950 . S
H658 C670 0.950 . S
H659 C671 0.950 . S
C660 H652 0.950 . S
C660 C661 1.386 . S
C660 C662 1.391 . S
C661 C660 1.386 . S
C661 C665 1.393 . S
C662 H654 0.950 . S
C662 C660 1.391 . S
C662 C663 1.400 . S
C663 C662 1.400 . S
C663 C664 1.398 . S
C663 C669 1.491 . S
C664 H655 0.950 . S
C664 C663 1.398 . S
C664 C665 1.391 . S
C665 H653 0.950 . S
C665 C661 1.393 . S
C665 C664 1.391 . S
C666 H656 0.950 . S
C666 C667 1.386 . S
C666 C668 1.391 . S
C667 C666 1.386 . S
C667 C671 1.393 . S
C668 H657 0.950 . S
C668 C666 1.391 . S
C668 C669 1.400 . S
C669 C663 1.491 . S
C669 C668 1.400 . S
C669 C670 1.398 . S
C670 H658 0.950 . S
C670 C669 1.398 . S
C670 C671 1.391 . S
C671 H659 0.950 . S
C671 C667 1.393 . S
C671 C670 1.391 . S
H672 C680 0.950 . S
H673 C685 0.950 . S
H674 C682 0.950 . S
H675 C684 0.950 1_455 S
H676 C686 0.950 . S
H677 C688 0.950 . S
H678 C690 0.950 . S
H679 C691 0.950 . S
C680 H672 0.950 . S
C680 C681 1.386 . S
C680 C682 1.391 . S
C681 C680 1.386 . S
C681 C685 1.393 . S
C682 H674 0.950 . S
C682 C680 1.391 . S
C682 C683 1.400 . S
C683 C682 1.400 . S
C683 C684 1.398 . S
C683 C689 1.491 . S
C684 H675 0.950 1_655 S
C684 C683 1.398 . S
C684 C685 1.391 . S
C685 H673 0.950 . S
C685 C681 1.393 . S
C685 C684 1.391 . S
C686 H676 0.950 . S
C686 C687 1.386 1_554 S
C686 C688 1.391 . S
C687 C686 1.386 1_556 S
C687 C691 1.393 1_455 S
C688 H677 0.950 . S
C688 C686 1.391 . S
C688 C689 1.400 1_455 S
C689 C683 1.491 . S
C689 C688 1.400 1_655 S
C689 C690 1.398 . S
C690 H678 0.950 . S
C690 C689 1.398 . S
C690 C691 1.391 1_554 S
C691 H679 0.950 . S
C691 C687 1.393 1_655 S
C691 C690 1.391 1_556 S
H692 C700 0.950 . S
H693 C705 0.950 . S
H694 C702 0.950 1_545 S
H695 C704 0.950 . S
H696 C706 0.950 . S
H697 C708 0.950 . S
H698 C710 0.950 . S
H699 C711 0.950 . S
C700 H692 0.950 . S
C700 C701 1.386 . S
C700 C702 1.391 . S
C701 C700 1.386 . S
C701 C705 1.393 . S
C702 H694 0.950 1_565 S
C702 C700 1.391 . S
C702 C703 1.400 . S
C703 C702 1.400 . S
C703 C704 1.398 . S
C703 C709 1.491 . S
C704 H695 0.950 . S
C704 C703 1.398 . S
C704 C705 1.391 . S
C705 H693 0.950 . S
C705 C701 1.393 . S
C705 C704 1.391 . S
C706 H696 0.950 . S
C706 C707 1.386 1_565 S
C706 C708 1.391 1_556 S
C707 C706 1.386 1_545 S
C707 C711 1.393 1_556 S
C708 H697 0.950 . S
C708 C706 1.391 1_554 S
C708 C709 1.400 . S
C709 C703 1.491 . S
C709 C708 1.400 . S
C709 C710 1.398 1_565 S
C710 H698 0.950 . S
C710 C709 1.398 1_545 S
C710 C711 1.391 . S
C711 H699 0.950 . S
C711 C707 1.393 1_554 S
C711 C710 1.391 . S
H712 C720 0.950 . S
H713 C725 0.950 . S
H714 C722 0.950 . S
H715 C724 0.950 . S
H716 C726 0.950 . S
H717 C728 0.950 . S
H718 C730 0.950 . S
H719 C731 0.950 . S
C720 H712 0.950 . S
C720 C721 1.386 . S
C720 C722 1.391 . S
C721 C720 1.386 . S
C721 C725 1.393 . S
C722 H714 0.950 . S
C722 C720 1.391 . S
C722 C723 1.400 . S
C723 C722 1.400 . S
C723 C724 1.398 . S
C723 C729 1.491 . S
C724 H715 0.950 . S
C724 C723 1.398 . S
C724 C725 1.391 . S
C725 H713 0.950 . S
C725 C721 1.393 . S
C725 C724 1.391 . S
C726 H716 0.950 . S
C726 C727 1.386 . S
C726 C728 1.391 . S
C727 C726 1.386 . S
C727 C731 1.393 . S
C728 H717 0.950 . S
C728 C726 1.391 . S
C728 C729 1.400 . S
C729 C723 1.491 . S
C729 C728 1.400 . S
C729 C730 1.398 . S
C730 H718 0.950 . S
C730 C729 1.398 . S
C730 C731 1.391 . S
C731 H719 0.950 . S
C731 C727 1.393 . S
C731 C730 1.391 . S
H732 C740 0.950 . S
H733 C745 0.950 . S
H734 C742 0.950 . S
H735 C744 0.950 . S
H736 C746 0.950 . S
H737 C748 0.950 1_556 S
H738 C750 0.950 . S
H739 C751 0.950 . S
C740 H732 0.950 . S
C740 C741 1.386 . S
C740 C742 1.391 . S
C741 C740 1.386 . S
C741 C745 1.393 . S
C742 H734 0.950 . S
C742 C740 1.391 . S
C742 C743 1.400 . S
C743 C742 1.400 . S
C743 C744 1.398 . S
C743 C749 1.491 . S
C744 H735 0.950 . S
C744 C743 1.398 . S
C744 C745 1.391 . S
C745 H733 0.950 . S
C745 C741 1.393 . S
C745 C744 1.391 . S
C746 H736 0.950 . S
C746 C747 1.386 1_556 S
C746 C748 1.391 1_556 S
C747 C746 1.386 1_554 S
C747 C751 1.393 . S
C748 H737 0.950 1_554 S
C748 C746 1.391 1_554 S
C748 C749 1.400 . S
C749 C743 1.491 . S
C749 C748 1.400 . S
C749 C750 1.398 . S
C750 H738 0.950 . S
C750 C749 1.398 . S
C750 C751 1.391 . S
C751 H739 0.950 . S
C751 C747 1.393 . S
C751 C750 1.391 . S
H752 C760 0.950 . S
H753 C765 0.950 . S
H754 C762 0.950 . S
H755 C764 0.950 . S
H756 C766 0.950 . S
H757 C768 0.950 . S
H758 C770 0.950 . S
H759 C771 0.950 . S
C760 H752 0.950 . S
C760 C761 1.386 . S
C760 C762 1.391 . S
C761 C760 1.386 . S
C761 C765 1.393 . S
C762 H754 0.950 . S
C762 C760 1.391 . S
C762 C763 1.400 . S
C763 C762 1.400 . S
C763 C764 1.398 . S
C763 C769 1.491 . S
C764 H755 0.950 . S
C764 C763 1.398 . S
C764 C765 1.391 . S
C765 H753 0.950 . S
C765 C761 1.393 . S
C765 C764 1.391 . S
C766 H756 0.950 . S
C766 C767 1.386 . S
C766 C768 1.391 . S
C767 C766 1.386 . S
C767 C771 1.393 . S
C768 H757 0.950 . S
C768 C766 1.391 . S
C768 C769 1.400 . S
C769 C763 1.491 . S
C769 C768 1.400 . S
C769 C770 1.398 . S
C770 H758 0.950 . S
C770 C769 1.398 . S
C770 C771 1.391 . S
C771 H759 0.950 . S
C771 C767 1.393 . S
C771 C770 1.391 . S
H772 C780 0.950 . S
H773 C785 0.950 . S
H774 C782 0.950 . S
H775 C784 0.950 . S
H776 C786 0.950 . S
H777 C788 0.950 . S
H778 C790 0.950 . S
H779 C791 0.950 . S
C780 H772 0.950 . S
C780 C781 1.386 . S
C780 C782 1.391 . S
C781 C780 1.386 . S
C781 C785 1.393 . S
C782 H774 0.950 . S
C782 C780 1.391 . S
C782 C783 1.400 . S
C783 C782 1.400 . S
C783 C784 1.398 . S
C783 C789 1.491 . S
C784 H775 0.950 . S
C784 C783 1.398 . S
C784 C785 1.391 . S
C785 H773 0.950 . S
C785 C781 1.393 . S
C785 C784 1.391 . S
C786 H776 0.950 . S
C786 C787 1.386 . S
C786 C788 1.391 . S
C787 C786 1.386 . S
C787 C791 1.393 . S
C788 H777 0.950 . S
C788 C786 1.391 . S
C788 C789 1.400 . S
C789 C783 1.491 . S
C789 C788 1.400 . S
C789 C790 1.398 . S
C790 H778 0.950 . S
C790 C789 1.398 . S
C790 C791 1.391 . S
C791 H779 0.950 . S
C791 C787 1.393 . S
C791 C790 1.391 . S
H792 C800 0.950 . S
H793 C805 0.950 . S
H794 C802 0.950 . S
H795 C804 0.950 . S
H796 C806 0.950 . S
H797 C808 0.950 . S
H798 C810 0.950 . S
H799 C811 0.950 . S
C800 H792 0.950 . S
C800 C801 1.386 . S
C800 C802 1.391 . S
C801 C800 1.386 . S
C801 C805 1.393 . S
C802 H794 0.950 . S
C802 C800 1.391 . S
C802 C803 1.400 . S
C803 C802 1.400 . S
C803 C804 1.398 . S
C803 C809 1.491 . S
C804 H795 0.950 . S
C804 C803 1.398 . S
C804 C805 1.391 . S
C805 H793 0.950 . S
C805 C801 1.393 . S
C805 C804 1.391 . S
C806 H796 0.950 . S
C806 C807 1.386 . S
C806 C808 1.391 . S
C807 C806 1.386 . S
C807 C811 1.393 . S
C808 H797 0.950 . S
C808 C806 1.391 . S
C808 C809 1.400 . S
C809 C803 1.491 . S
C809 C808 1.400 . S
C809 C810 1.398 . S
C810 H798 0.950 . S
C810 C809 1.398 . S
C810 C811 1.391 . S
C811 H799 0.950 . S
C811 C807 1.393 . S
C811 C810 1.391 . S
H812 C820 0.950 . S
H813 C825 0.950 . S
H814 C822 0.950 . S
H815 C824 0.950 . S
H816 C826 0.950 . S
H817 C828 0.950 . S
H818 C830 0.950 . S
H819 C831 0.950 . S
C820 H812 0.950 . S
C820 C821 1.386 . S
C820 C822 1.391 . S
C821 C820 1.386 . S
C821 C825 1.393 . S
C822 H814 0.950 . S
C822 C820 1.391 . S
C822 C823 1.400 . S
C823 C822 1.400 . S
C823 C824 1.398 . S
C823 C829 1.491 . S
C824 H815 0.950 . S
C824 C823 1.398 . S
C824 C825 1.391 . S
C825 H813 0.950 . S
C825 C821 1.393 . S
C825 C824 1.391 . S
C826 H816 0.950 . S
C826 C827 1.386 . S
C826 C828 1.391 . S
C827 C826 1.386 . S
C827 C831 1.393 . S
C828 H817 0.950 . S
C828 C826 1.391 . S
C828 C829 1.400 . S
C829 C823 1.491 . S
C829 C828 1.400 . S
C829 C830 1.398 . S
C830 H818 0.950 . S
C830 C829 1.398 . S
C830 C831 1.391 . S
C831 H819 0.950 . S
C831 C827 1.393 . S
C831 C830 1.391 . S
H832 C840 0.950 . S
H833 C845 0.950 . S
H834 C842 0.950 . S
H835 C844 0.950 1_455 S
H836 C846 0.985 . S
H837 C848 0.950 1_455 S
H838 C850 0.950 . S
H839 C851 0.950 . S
C840 H832 0.950 . S
C840 C841 1.386 . S
C840 C842 1.391 . S
C841 C840 1.386 . S
C841 C845 1.393 . S
C842 H834 0.950 . S
C842 C840 1.391 . S
C842 C843 1.400 . S
C843 C842 1.400 . S
C843 C844 1.398 . S
C843 C849 1.491 . S
C844 H835 0.950 1_655 S
C844 C843 1.398 . S
C844 C845 1.391 . S
C845 H833 0.950 . S
C845 C841 1.393 . S
C845 C844 1.391 . S
C846 H836 0.985 . S
C846 C847 1.357 1_455 S
C846 C848 1.385 1_455 S
C847 C846 1.357 1_655 S
C847 C851 1.393 . S
C848 H837 0.950 1_655 S
C848 C846 1.385 1_655 S
C848 C849 1.400 . S
C849 C843 1.491 . S
C849 C848 1.400 . S
C849 C850 1.398 . S
C850 H838 0.950 . S
C850 C849 1.398 . S
C850 C851 1.391 . S
C851 H839 0.950 . S
C851 C847 1.393 . S
C851 C850 1.391 . S
H852 C860 0.950 . S
H853 C865 0.950 . S
H854 C862 0.950 . S
H855 C864 0.950 . S
H856 C866 0.950 . S
H857 C868 0.950 . S
H858 C870 0.950 . S
H859 C871 0.950 . S
C860 H852 0.950 . S
C860 C861 1.386 . S
C860 C862 1.391 . S
C861 C860 1.386 . S
C861 C865 1.393 . S
C862 H854 0.950 . S
C862 C860 1.391 . S
C862 C863 1.400 . S
C863 C862 1.400 . S
C863 C864 1.398 . S
C863 C869 1.491 . S
C864 H855 0.950 . S
C864 C863 1.398 . S
C864 C865 1.391 . S
C865 H853 0.950 . S
C865 C861 1.393 . S
C865 C864 1.391 . S
C866 H856 0.950 . S
C866 C867 1.386 . S
C866 C868 1.391 . S
C867 C866 1.386 . S
C867 C871 1.393 . S
C868 H857 0.950 . S
C868 C866 1.391 . S
C868 C869 1.400 . S
C869 C863 1.491 . S
C869 C868 1.400 . S
C869 C870 1.398 . S
C870 H858 0.950 . S
C870 C869 1.398 . S
C870 C871 1.391 . S
C871 H859 0.950 . S
C871 C867 1.393 . S
C871 C870 1.391 . S
H872 C880 0.950 . S
H873 C885 0.950 . S
H874 C882 0.950 . S
H875 C884 0.950 . S
H876 C886 0.950 . S
H877 C888 0.950 . S
H878 C890 0.950 . S
H879 C891 0.950 . S
C880 H872 0.950 . S
C880 C881 1.386 . S
C880 C882 1.391 . S
C881 C880 1.386 . S
C881 C885 1.393 . S
C882 H874 0.950 . S
C882 C880 1.391 . S
C882 C883 1.400 . S
C883 C882 1.400 . S
C883 C884 1.398 . S
C883 C889 1.491 . S
C884 H875 0.950 . S
C884 C883 1.398 . S
C884 C885 1.391 . S
C885 H873 0.950 . S
C885 C881 1.393 . S
C885 C884 1.391 . S
C886 H876 0.950 . S
C886 C887 1.386 . S
C886 C888 1.391 . S
C887 C886 1.386 . S
C887 C891 1.393 . S
C888 H877 0.950 . S
C888 C886 1.391 . S
C888 C889 1.400 . S
C889 C883 1.491 . S
C889 C888 1.400 . S
C889 C890 1.398 . S
C890 H878 0.950 . S
C890 C889 1.398 . S
C890 C891 1.391 . S
C891 H879 0.950 . S
C891 C887 1.393 . S
C891 C890 1.391 . S
H892 C900 0.950 . S
H893 C905 0.950 . S
H894 C902 0.950 . S
H895 C904 0.950 . S
H896 C906 0.950 . S
H897 C908 0.950 . S
H898 C910 0.950 . S
H899 C911 0.950 . S
C900 H892 0.950 . S
C900 C901 1.386 . S
C900 C902 1.391 . S
C901 C900 1.386 . S
C901 C905 1.393 . S
C902 H894 0.950 . S
C902 C900 1.391 . S
C902 C903 1.400 . S
C903 C902 1.400 . S
C903 C904 1.398 . S
C903 C909 1.491 . S
C904 H895 0.950 . S
C904 C903 1.398 . S
C904 C905 1.391 . S
C905 H893 0.950 . S
C905 C901 1.393 . S
C905 C904 1.391 . S
C906 H896 0.950 . S
C906 C907 1.386 . S
C906 C908 1.391 . S
C907 C906 1.386 . S
C907 C911 1.393 . S
C908 H897 0.950 . S
C908 C906 1.391 . S
C908 C909 1.400 . S
C909 C903 1.491 . S
C909 C908 1.400 . S
C909 C910 1.398 . S
C910 H898 0.950 . S
C910 C909 1.398 . S
C910 C911 1.391 . S
C911 H899 0.950 . S
C911 C907 1.393 . S
C911 C910 1.391 . S
C441 C76 1.859 . S
C447 C170 1.946 . S
C467 C254 1.953 . S
C461 C88 1.848 . S
C487 C320 1.933 . S
C481 C52 1.953 . S
C507 C404 1.908 . S
C501 C64 1.930 . S
C527 C159 1.944 1_565 S
C521 C28 1.870 . S
C541 C40 1.866 . S
C547 C243 1.948 . S
C561 C4 1.961 . S
C567 C331 1.925 . S
C581 C16 1.955 . S
C587 C415 1.920 . S
C607 C166 0.637 1_455 S
C601 C69 0.648 . S
C627 C250 0.594 1_545 S
C621 C81 0.591 . S
C647 C322 0.564 . S
C641 C93 0.592 . S
C661 C57 0.629 . S
C667 C406 0.581 . S
C681 C21 0.614 . S
C687 C154 0.639 . S
C707 C238 0.609 . S
C701 C33 0.625 . S
C727 C334 0.546 . S
C721 C45 0.622 . S
C741 C9 0.581 . S
C747 C418 0.634 . S
C761 C66 2.013 . S
C767 C163 2.078 . S
C781 C78 1.998 . S
C787 C247 2.059 . S
C807 C327 2.064 . S
C801 C90 1.898 . S
C827 C411 2.094 . S
C821 C54 1.941 . S
C841 C18 2.023 . S
C847 C152 2.087 . S
C867 C236 2.072 . S
C861 C30 1.973 . S
C887 C338 2.077 . S
C881 C42 1.871 . S
C901 C6 1.896 . S
C907 C422 2.102 . S
