# Generated by pormake.
# Topology anh, (6,3)-cn, num edge types: 1
# Building blocks:
#     Node 0, Type 0, BuildingBlock: BETDIP_clean_sbu_0, # of connection points: 6
#     Node 1, Type 0, BuildingBlock: BETDIP_clean_sbu_0, # of connection points: 6
#     Node 2, Type 0, BuildingBlock: BETDIP_clean_sbu_0, # of connection points: 6
#     Node 3, Type 1, BuildingBlock: BETDAH_clean_linker_0, # of connection points: 3
#     Node 4, Type 1, BuildingBlock: BETDAH_clean_linker_0, # of connection points: 3
#     Node 5, Type 1, BuildingBlock: BETDAH_clean_linker_0, # of connection points: 3
#     Node 6, Type 1, BuildingBlock: BETDAH_clean_linker_0, # of connection points: 3
#     Node 7, Type 1, BuildingBlock: BETDAH_clean_linker_0, # of connection points: 3
#     Node 8, Type 1, BuildingBlock: BETDAH_clean_linker_0, # of connection points: 3
#     Edge 9, Type (0, 1), BuildingBlock: XIVTED_clean_linker_0, # of connection points: 2
#     Edge 10, Type (0, 1), BuildingBlock: XIVTED_clean_linker_0, # of connection points: 2
#     Edge 11, Type (0, 1), BuildingBlock: XIVTED_clean_linker_0, # of connection points: 2
#     Edge 12, Type (0, 1), BuildingBlock: XIVTED_clean_linker_0, # of connection points: 2
#     Edge 13, Type (0, 1), BuildingBlock: XIVTED_clean_linker_0, # of connection points: 2
#     Edge 14, Type (0, 1), BuildingBlock: XIVTED_clean_linker_0, # of connection points: 2
#     Edge 15, Type (0, 1), BuildingBlock: XIVTED_clean_linker_0, # of connection points: 2
#     Edge 16, Type (0, 1), BuildingBlock: XIVTED_clean_linker_0, # of connection points: 2
#     Edge 17, Type (0, 1), BuildingBlock: XIVTED_clean_linker_0, # of connection points: 2
#     Edge 18, Type (0, 1), BuildingBlock: XIVTED_clean_linker_0, # of connection points: 2
#     Edge 19, Type (0, 1), BuildingBlock: XIVTED_clean_linker_0, # of connection points: 2
#     Edge 20, Type (0, 1), BuildingBlock: XIVTED_clean_linker_0, # of connection points: 2
#     Edge 21, Type (0, 1), BuildingBlock: XIVTED_clean_linker_0, # of connection points: 2
#     Edge 22, Type (0, 1), BuildingBlock: XIVTED_clean_linker_0, # of connection points: 2
#     Edge 23, Type (0, 1), BuildingBlock: XIVTED_clean_linker_0, # of connection points: 2
#     Edge 24, Type (0, 1), BuildingBlock: XIVTED_clean_linker_0, # of connection points: 2
#     Edge 25, Type (0, 1), BuildingBlock: XIVTED_clean_linker_0, # of connection points: 2
#     Edge 26, Type (0, 1), BuildingBlock: XIVTED_clean_linker_0, # of connection points: 2
# Relax obj value: 0.251
# Max RMSD: 0.148
# Mean RMSD: 0.115
data_MOF--net-anh--node1-BETDIP_clean_sbu_0--node2-BETDAH_clean_linker_0--edge1-XIVTED_clean_linker_0
_symmetry_space_group_name_H-M    P1
_symmetry_Int_Tables_number       1
_symmetry_cell_setting            triclinic
loop_
_symmetry_equiv_pos_as_xyz
'x, y, z'
_cell_length_a     30.2487
_cell_length_b     30.106728
_cell_length_c     49.284257
_cell_angle_alpha  91.037247
_cell_angle_beta   89.095863
_cell_angle_gamma 120.06461
loop_
_atom_site_label
_atom_site_type_symbol
_atom_site_fract_x
_atom_site_fract_y
_atom_site_fract_z
_atom_type_partial_charge
Tb0 Tb 0.17948 0.64612 0.1642 0.0
Tb1 Tb 1.13113 0.53261 0.15463 0.0
C2 C 0.22633 0.73602 0.18293 0.0
C3 C 0.27425 0.78432 0.1787 0.0
C4 C 0.27319 0.83013 0.18112 0.0
C5 C 0.31741 0.87705 0.17695 0.0
C6 C 0.36377 0.87915 0.17029 0.0
C7 C 0.36482 0.83304 0.16773 0.0
C8 C 0.32017 0.7858 0.17174 0.0
C9 C 0.16274 0.61691 0.11288 0.0
C10 C 0.25062 0.59391 0.15738 0.0
C11 C 1.07589 0.44364 0.13588 0.0
C12 C 1.02704 0.42138 0.12119 0.0
C13 C 1.02137 0.447 0.09915 0.0
C14 C 0.97292 0.43329 0.08959 0.0
C15 C 0.929 0.39443 0.10241 0.0
C16 C 0.93506 0.36553 0.12271 0.0
C17 C 0.98366 0.37883 0.13193 0.0
C18 C 0.14923 0.5625 0.20594 0.0
C19 C 1.06313 0.58622 0.1571 0.0
O20 O 0.22891 0.69776 0.19356 0.0
O21 O 0.19395 0.72155 0.16293 0.0
O22 O 0.17686 0.59873 0.13124 0.0
O23 O 0.16109 0.65631 0.1225 0.0
O24 O 0.24705 0.63529 0.16377 0.0
O25 O 0.20973 0.54922 0.15137 0.0
O26 O 1.11641 0.47904 0.12326 0.0
O27 O 1.07375 0.45639 0.1612 0.0
O28 O 1.13342 0.58037 0.18803 0.0
O29 O 0.15194 0.52388 0.19576 0.0
O30 O 1.07071 0.55079 0.14514 0.0
O31 O 1.09973 0.62314 0.17172 0.0
H32 H 0.23802 0.82963 0.18641 0.0
H33 H 0.31551 0.91184 0.17968 0.0
H34 H 0.40002 0.83356 0.16261 0.0
H35 H 0.32153 0.75066 0.1695 0.0
H36 H 1.05401 0.48002 0.09057 0.0
H37 H 0.96988 0.45576 0.07358 0.0
H38 H 0.90234 0.33561 0.13332 0.0
H39 H 0.98703 0.35845 0.14895 0.0
Tb40 Tb 0.64549 1.08894 0.49888 0.0
Tb41 Tb 0.58889 0.14636 0.49039 0.0
C42 C 0.68161 1.03578 0.51585 0.0
C43 C 0.72891 1.03296 0.51449 0.0
C44 C 0.77438 1.07016 0.52689 0.0
C45 C 0.81684 1.06331 0.52758 0.0
C46 C 0.81458 1.01929 0.51582 0.0
C47 C 0.7696 0.98316 0.50265 0.0
C48 C 0.72725 0.98986 0.50209 0.0
C49 C 0.64244 0.11472 0.44855 0.0
C50 C 0.52348 1.02528 0.49462 0.0
C51 C 0.54374 0.19067 0.47328 0.0
C52 C 0.56106 0.24613 0.47189 0.0
C53 C 0.58947 0.27472 0.44929 0.0
C54 C 0.61557 0.32828 0.45025 0.0
C55 C 0.61319 0.3543 0.47365 0.0
C56 C 0.58106 0.32575 0.49523 0.0
C57 C 0.55522 0.27217 0.49436 0.0
C58 C 0.62395 0.15247 0.53986 0.0
C59 C 0.70943 0.20794 0.49014 0.0
O60 O 0.65604 1.02589 0.4932 0.0
O61 O 0.68226 1.07356 0.52995 0.0
O62 O 0.60759 0.09949 0.46611 0.0
O63 O 0.68157 0.11423 0.45862 0.0
O64 O 0.56655 1.02473 0.49826 0.0
O65 O 0.52288 1.06864 0.49172 0.0
O66 O 0.56906 0.17542 0.45758 0.0
O67 O 0.53555 0.17063 0.49759 0.0
O68 O 0.60415 0.11314 0.52474 0.0
O69 O 0.62215 0.18942 0.52789 0.0
O70 O 0.66745 0.20477 0.48019 0.0
O71 O 0.70818 0.1685 0.5025 0.0
H72 H 0.77682 0.10386 0.53662 0.0
H73 H 0.85109 1.09194 0.53773 0.0
H74 H 0.76616 0.94834 0.49385 0.0
H75 H 0.69251 0.96039 0.49264 0.0
H76 H 0.59401 0.25584 0.43142 0.0
H77 H 0.63936 0.34933 0.43315 0.0
H78 H 0.57858 0.34471 0.5136 0.0
H79 H 0.53314 0.25132 0.51196 0.0
Tb80 Tb 0.63848 0.64202 0.83456 0.0
Tb81 Tb 0.75115 0.70707 0.8269 0.0
C82 C 0.5497 0.59761 0.85389 0.0
C83 C 0.49833 0.59142 0.85549 0.0
C84 C 0.47657 0.58753 0.88126 0.0
C85 C 0.42391 0.56647 0.88422 0.0
C86 C 0.39202 0.54879 0.86139 0.0
C87 C 0.41446 0.55723 0.83539 0.0
C88 C 0.46725 0.57834 0.83245 0.0
C89 C 0.67 0.655 0.78374 0.0
C90 C 0.68999 0.76525 0.82755 0.0
C91 C 0.84129 0.73801 0.81193 0.0
C92 C 0.86706 0.70772 0.81277 0.0
C93 C 0.90178 0.71169 0.79238 0.0
C94 C 0.91932 0.67646 0.79121 0.0
C95 C 0.90108 0.6364 0.80999 0.0
C96 C 0.8674 0.63348 0.83066 0.0
C97 C 0.8508 0.66887 0.83213 0.0
C98 C 0.71875 0.69212 0.87788 0.0
C99 C 0.69857 0.58445 0.82784 0.0
O100 O 0.58791 0.63729 0.86582 0.0
O101 O 0.56281 0.5838 0.83122 0.0
O102 O 0.68693 0.6875 0.80262 0.0
O103 O 0.63039 0.61363 0.7924 0.0
O104 O 0.64937 0.72108 0.83521 0.0
O105 O 0.73348 0.76755 0.82029 0.0
O106 O 0.80306 0.71996 0.79508 0.0
O107 O 0.82944 0.74984 0.83559 0.0
O108 O 0.7027 0.65943 0.85891 0.0
O109 O 0.75624 0.73468 0.86883 0.0
O110 O 0.73638 0.62834 0.81866 0.0
O111 O 0.65902 0.58312 0.84027 0.0
H112 H 0.49974 0.5969 0.89932 0.0
H113 H 0.408 0.56027 0.90456 0.0
H114 H 0.39096 0.54493 0.8174 0.0
H115 H 0.48311 0.58108 0.81228 0.0
H116 H 0.91408 0.74095 0.77703 0.0
H117 H 0.94573 0.67949 0.77527 0.0
H118 H 0.85358 0.60343 0.84565 0.0
H119 H 0.82365 0.66461 0.84791 0.0
H120 H 0.59866 0.18269 0.26253 0.0
H121 H 0.65128 0.34265 0.27689 0.0
H122 H 0.60852 0.27798 0.19645 0.0
C123 C 0.6087 0.22006 0.2547 0.0
C124 C 0.60263 0.22554 0.22708 0.0
C125 C 0.62606 0.26186 0.27271 0.0
C126 C 0.63782 0.31016 0.26304 0.0
C127 C 0.63219 0.31645 0.23537 0.0
C128 C 0.61421 0.27384 0.21759 0.0
N129 N 0.64488 0.36567 0.22569 0.0
C130 C 0.66239 0.38018 0.19927 0.0
H131 H 0.79533 0.63939 0.59247 0.0
H132 H 0.93748 0.76569 0.62095 0.0
H133 H 0.92134 0.7192 0.53706 0.0
C134 C 0.83454 0.66898 0.58869 0.0
C135 C 0.85482 0.67496 0.56234 0.0
C136 C 0.86386 0.70109 0.6101 0.0
C137 C 0.91439 0.73983 0.60484 0.0
C138 C 0.93506 0.74614 0.57858 0.0
C139 C 0.90543 0.7135 0.55741 0.0
N140 N 0.98386 0.78851 0.57296 0.0
C141 C 0.98669 0.83256 0.56292 0.0
H142 H 0.98707 0.46217 0.93041 0.0
H143 H 0.99598 0.33345 0.96029 0.0
H144 H 0.9503 0.33254 0.87829 0.0
C145 C 0.98086 0.42365 0.9277 0.0
C146 C 0.96554 0.39934 0.90224 0.0
C147 C 0.99157 0.40025 0.94899 0.0
C148 C 0.98558 0.35125 0.94462 0.0
C149 C 0.9702 0.32661 0.91924 0.0
C150 C 0.95922 0.35032 0.89829 0.0
N151 N 0.97922 0.28597 0.91271 0.0
C152 C 1.02881 0.30035 0.90503 0.0
H153 H 0.23107 0.70557 0.40214 0.0
H154 H 1.0865 0.56926 0.41747 0.0
H155 H 0.16929 0.67275 0.4832 0.0
C156 C 0.20101 0.68106 0.41617 0.0
C157 C 0.20567 0.6947 0.44383 0.0
C158 C 0.15808 0.63616 0.4064 0.0
C159 C 1.11958 0.60391 0.42484 0.0
C160 C 1.12339 0.61717 0.45261 0.0
C161 C 0.16624 0.66278 0.4618 0.0
N162 N 1.08527 0.5861 0.47201 0.0
C163 C 1.04135 0.53881 0.46706 0.0
H164 H 0.68848 0.26901 0.73546 0.0
H165 H 0.67023 0.12063 0.75219 0.0
H166 H 0.67812 0.22046 0.81786 0.0
C167 C 0.68549 0.24081 0.74985 0.0
C168 C 0.68504 0.25115 0.77774 0.0
C169 C 0.68 0.19388 0.74027 0.0
C170 C 0.6741 0.15668 0.75924 0.0
C171 C 0.6734 0.16626 0.7873 0.0
C172 C 0.67846 0.21324 0.79626 0.0
N173 N 0.66733 0.1299 0.80728 0.0
C174 C 0.66711 1.08385 0.80273 0.0
H175 H 0.7651 0.6082 0.06931 0.0
H176 H 0.63387 0.62259 0.08906 0.0
H177 H 0.71643 0.59992 0.1526 0.0
C178 C 0.73856 0.60803 0.0844 0.0
C179 C 0.74607 0.60273 0.11201 0.0
C180 C 0.69854 0.61552 0.07601 0.0
C181 C 0.66477 0.61696 0.09551 0.0
C182 C 0.67085 0.61091 0.12322 0.0
C183 C 0.71185 0.60445 0.13125 0.0
N184 N 0.63704 0.61146 0.14361 0.0
C185 C 0.59174 0.61207 0.1392 0.0
H186 H 0.346 0.6787 0.16649 0.0
H187 H 0.49909 0.53182 0.12575 0.0
H188 H 0.27322 0.51926 0.14206 0.0
H189 H 0.57357 0.68921 0.15322 0.0
H190 H 0.41619 0.52797 0.12977 0.0
H191 H 0.42952 0.68466 0.16061 0.0
C192 C 0.3474 0.64489 0.15997 0.0
C193 C 0.30209 0.59836 0.15484 0.0
C194 C 0.45058 0.56354 0.13476 0.0
C195 C 0.39811 0.60506 0.14788 0.0
C196 C 0.4979 0.56576 0.13231 0.0
C197 C 0.54305 0.611 0.13893 0.0
C198 C 0.44831 0.6069 0.14406 0.0
C199 C 0.53951 0.65372 0.14769 0.0
C200 C 0.39524 0.64837 0.15656 0.0
C201 C 0.30678 0.55598 0.14635 0.0
N202 N 0.49302 0.65064 0.15005 0.0
N203 N 0.35363 0.56038 0.14315 0.0
H204 H 0.80555 0.2293 0.50518 0.0
H205 H 0.94844 0.51809 0.44907 0.0
H206 H 0.72743 0.2972 0.46593 0.0
H207 H 1.02671 0.44862 0.48602 0.0
H208 H 0.86732 0.43682 0.45386 0.0
H209 H 0.88677 0.30855 0.49775 0.0
C210 C 0.80533 0.26081 0.49505 0.0
C211 C 0.75926 0.2563 0.48626 0.0
C212 C 0.90223 0.43908 0.46071 0.0
C213 C 0.85268 0.3476 0.47755 0.0
C214 C 0.9485 0.48538 0.45783 0.0
C215 C 0.99413 0.48963 0.46691 0.0
C216 C 0.90161 0.39686 0.47297 0.0
C217 C 0.99226 0.44656 0.47852 0.0
C218 C 0.85187 0.30614 0.49074 0.0
C219 C 0.76176 0.29867 0.47314 0.0
N220 N 0.94681 0.40206 0.48129 0.0
N221 N 0.80749 0.34236 0.46924 0.0
H222 H 0.7652 0.8608 0.81222 0.0
H223 H 0.58826 0.9897 0.81516 0.0
H224 H 0.60546 0.77732 0.83449 0.0
H225 H 0.74747 1.06962 0.79263 0.0
H226 H 0.59223 0.91078 0.82104 0.0
H227 H 0.75829 0.93666 0.80445 0.0
C228 C 0.72855 0.85829 0.81559 0.0
C229 C 0.68582 0.8122 0.82408 0.0
C230 C 0.62621 0.94539 0.81458 0.0
C231 C 0.67764 0.89992 0.81498 0.0
C232 C 0.62385 0.99029 0.81107 0.0
C233 C 0.66749 1.03582 0.80313 0.0
C234 C 0.67273 0.94625 0.8103 0.0
C235 C 0.71287 1.03503 0.79851 0.0
C236 C 0.72466 0.90187 0.81105 0.0
C237 C 0.63949 0.81186 0.82803 0.0
N238 N 0.71436 0.99105 0.80222 0.0
N239 N 0.63664 0.85497 0.82343 0.0
H240 H 1.02831 0.64534 0.18268 0.0
H241 H 0.78344 0.5456 0.08693 0.0
H242 H 0.98675 0.52771 0.12119 0.0
H243 H 0.81006 0.64543 0.15615 0.0
H244 H 0.85891 0.54062 0.09872 0.0
H245 H 0.94983 0.64722 0.17325 0.0
C246 C 1.0026 0.61966 0.16729 0.0
C247 C 1.01428 0.58612 0.15277 0.0
C248 C 0.84813 0.56333 0.11149 0.0
C249 C 0.92423 0.5885 0.14164 0.0
C250 C 0.80506 0.56652 0.10465 0.0
C251 C 0.79017 0.59636 0.12039 0.0
C252 C 0.87699 0.58997 0.13439 0.0
C253 C 0.81955 0.62164 0.14346 0.0
C254 C 0.9577 0.62076 0.16192 0.0
C255 C 0.97934 0.55392 0.13304 0.0
N256 N 0.86155 0.61811 0.14964 0.0
N257 N 0.93631 0.55615 0.12798 0.0
H258 H 0.42419 1.00619 0.49607 0.0
H259 H 0.3057 0.72362 0.43396 0.0
H260 H 0.51213 0.93033 0.48426 0.0
H261 H 0.21181 0.77337 0.47605 0.0
H262 H 0.38205 0.8025 0.44879 0.0
H263 H 0.3461 0.92466 0.48593 0.0
C264 C 0.42714 0.97242 0.49158 0.0
C265 C 0.47504 0.97536 0.49108 0.0
C266 C 0.3448 0.79613 0.45491 0.0
C267 C 0.38573 0.88206 0.47892 0.0
C268 C 0.30119 0.75121 0.44634 0.0
C269 C 0.25226 0.74188 0.45373 0.0
C270 C 0.33973 0.83277 0.47063 0.0
C271 C 0.24878 0.77889 0.47 0.0
C272 C 0.38249 0.92587 0.48581 0.0
C273 C 0.47624 0.93012 0.48506 0.0
N274 N 0.29185 0.82292 0.47766 0.0
N275 N 0.4325 0.8857 0.47894 0.0
H276 H 0.63349 0.48873 0.84839 0.0
H277 H 0.75228 0.34781 0.75918 0.0
H278 H 0.76586 0.56905 0.7965 0.0
H279 H 0.6312 0.26935 0.81784 0.0
H280 H 0.7584 0.42914 0.77305 0.0
H281 H 0.6327 0.40847 0.83811 0.0
C282 C 0.66262 0.48965 0.83497 0.0
C283 C 0.6998 0.53596 0.82331 0.0
C284 C 0.73057 0.39421 0.78298 0.0
C285 C 0.69877 0.44365 0.8112 0.0
C286 C 0.72689 0.34763 0.77498 0.0
C287 C 0.69091 0.30139 0.78721 0.0
C288 C 0.69771 0.3949 0.80326 0.0
C289 C 0.65968 0.30391 0.80791 0.0
C290 C 0.66212 0.44368 0.82909 0.0
C291 C 0.73651 0.53448 0.80605 0.0
N292 N 0.66352 0.34968 0.81511 0.0
N293 N 0.73481 0.48916 0.80039 0.0
H294 H 0.85359 0.97897 0.4785 0.0
H295 H 0.99374 0.91163 0.59273 0.0
H296 H 0.87056 1.03284 0.56151 0.0
H297 H 0.96252 0.84496 0.51236 0.0
H298 H 0.96613 0.97166 0.5787 0.0
H299 H 0.91041 0.94527 0.48758 0.0
C300 C 0.86983 0.98432 0.49854 0.0
C301 C 0.85657 1.00796 0.51941 0.0
C302 C 0.96625 0.94464 0.56394 0.0
C303 C 0.92157 0.96945 0.52996 0.0
C304 C 0.98223 0.9107 0.57192 0.0
C305 C 0.98035 0.87391 0.55354 0.0
C306 C 0.94777 0.94103 0.53751 0.0
C307 C 0.96462 0.87327 0.52696 0.0
C308 C 0.90235 0.96517 0.5037 0.0
C309 C 0.87964 1.01487 0.54481 0.0
N310 N 0.94834 0.90604 0.51976 0.0
N311 N 0.91039 0.99499 0.54949 0.0
H312 H 0.99784 0.65244 0.8136 0.0
H313 H 0.88688 0.3677 0.86632 0.0
H314 H 0.84065 0.53291 0.80616 0.0
H315 H 1.0356 0.49524 0.88573 0.0
H316 H 0.87713 0.42057 0.83222 0.0
H317 H 1.02007 0.58798 0.82681 0.0
C318 C 0.9684 0.61233 0.81383 0.0
C319 C 0.91732 0.59775 0.80933 0.0
C320 C 0.91223 0.43669 0.84365 0.0
C321 C 0.94184 0.52438 0.82496 0.0
C322 C 0.91771 0.40658 0.86306 0.0
C323 C 0.96143 0.42781 0.87925 0.0
C324 C 0.95091 0.48813 0.84047 0.0
C325 C 1.00063 0.47808 0.87414 0.0
C326 C 0.98089 0.57563 0.8216 0.0
C327 C 0.88037 0.54547 0.80996 0.0
N328 N 0.99419 0.50677 0.85543 0.0
N329 N 0.89315 0.51067 0.81821 0.0
H330 H 0.45798 0.90915 0.19147 0.0
H331 H 0.53091 0.19921 0.18735 0.0
H332 H 0.37679 0.96472 0.14452 0.0
H333 H 0.6241 0.14712 0.22546 0.0
H334 H 0.48419 0.11664 0.16396 0.0
H335 H 0.52856 0.99716 0.19642 0.0
C336 C 0.45555 0.93972 0.18161 0.0
C337 C 0.41097 0.92982 0.16814 0.0
C338 C 0.51542 0.12349 0.17708 0.0
C339 C 0.491 1.03066 0.17421 0.0
C340 C 0.54237 0.17086 0.19035 0.0
C341 C 0.5807 0.17969 0.20891 0.0
C342 C 0.52645 1.08445 0.18267 0.0
C343 C 0.5937 0.14134 0.21199 0.0
C344 C 0.49576 0.99006 0.18457 0.0
C345 C 0.40991 0.97091 0.15577 0.0
N346 N 0.56599 0.09505 0.19943 0.0
N347 N 0.44888 1.01964 0.15955 0.0
H348 H 0.71482 0.40821 0.46083 0.0
H349 H 0.75725 0.64927 0.5499 0.0
H350 H 0.59302 0.42709 0.49515 0.0
H351 H 0.87843 0.62085 0.52538 0.0
H352 H 0.69865 0.57911 0.52022 0.0
H353 H 0.77613 0.49621 0.47443 0.0
C354 C 0.70078 0.43131 0.47061 0.0
C355 C 0.64876 0.41013 0.47715 0.0
C356 C 0.73821 0.58863 0.52098 0.0
C357 C 0.7189 0.51054 0.4932 0.0
C358 C 0.77162 0.62861 0.53792 0.0
C359 C 0.82239 0.64001 0.54047 0.0
C360 C 0.7556 0.55957 0.50662 0.0
C361 C 0.83945 0.61296 0.5241 0.0
C362 C 0.73591 0.48145 0.47856 0.0
C363 C 0.63289 0.44166 0.49014 0.0
N364 N 0.80584 0.57331 0.50818 0.0
N365 N 0.6679 0.49009 0.49803 0.0
H366 H 0.32941 0.56016 0.89837 0.0
H367 H 1.07869 0.29516 0.85976 0.0
H368 H 0.32723 0.4609 0.8334 0.0
H369 H 1.0983 0.37687 0.93531 0.0
H370 H 0.16725 0.35829 0.84706 0.0
H371 H 0.24054 0.49755 0.90883 0.0
C372 C 0.31013 0.52543 0.88615 0.0
C373 C 0.336 0.51569 0.8651 0.0
C374 C 0.15231 0.36201 0.86655 0.0
C375 C 0.2343 0.44375 0.87701 0.0
C376 C 1.10218 0.32584 0.87383 0.0
C377 C 1.08225 0.3308 0.89875 0.0
C378 C 0.18173 0.4035 0.8842 0.0
C379 C 1.11307 0.37164 0.91611 0.0
C380 C 0.25945 0.48963 0.89218 0.0
C381 C 0.30875 0.47035 0.84965 0.0
N382 N 0.1613 0.40666 0.90847 0.0
N383 N 0.25945 0.43589 0.85601 0.0
H384 H 0.83225 0.30898 0.10358 0.0
H385 H 0.74705 0.46688 0.18413 0.0
H386 H 0.91015 0.47334 0.0942 0.0
H387 H 0.63495 0.31625 0.15553 0.0
H388 H 0.80294 0.47326 0.14621 0.0
H389 H 0.75442 0.31032 0.11589 0.0
C390 C 0.83281 0.34523 0.10349 0.0
C391 C 0.8787 0.39146 0.09931 0.0
C392 C 0.76536 0.43953 0.14759 0.0
C393 C 0.79004 0.3933 0.11358 0.0
C394 C 0.73357 0.43593 0.16927 0.0
C395 C 0.68712 0.39062 0.17309 0.0
C396 C 0.75088 0.39686 0.13027 0.0
C397 C 0.67123 0.35133 0.15356 0.0
C398 C 0.78824 0.34596 0.11039 0.0
C399 C 0.87643 0.43693 0.09836 0.0
N400 N 0.70374 0.35469 0.13332 0.0
N401 N 0.8334 0.43701 0.10646 0.0
H402 H 1.08924 0.61985 0.08274 0.0
H403 H 1.07194 0.40639 0.97711 0.0
H404 H 0.18679 0.55373 0.08466 0.0
H405 H 0.96644 0.46353 0.97791 0.0
H406 H 1.11588 0.46208 0.01571 0.0
H407 H 1.04711 0.5673 0.04241 0.0
C408 C 1.10226 0.59486 0.07433 0.0
C409 C 0.14116 0.59065 0.08695 0.0
C410 C 1.08301 0.46237 0.00753 0.0
C411 C 1.09334 0.53051 0.04117 0.0
C412 C 1.05748 0.43006 0.98563 0.0
C413 C 1.01528 0.43011 0.97422 0.0
C414 C 1.06645 0.49522 0.01814 0.0
C415 C 0.9991 0.46258 0.98588 0.0
C416 C 1.07808 0.56467 0.05147 0.0
C417 C 0.15656 0.55759 0.07554 0.0
N418 N 1.02477 0.49391 0.00715 0.0
N419 N 1.13252 0.52864 0.05332 0.0
H420 H 0.55884 0.09746 0.42101 0.0
H421 H 0.71264 0.29753 0.30295 0.0
H422 H 0.72331 0.18644 0.41848 0.0
H423 H 0.54885 0.20292 0.30699 0.0
H424 H 0.71854 0.26507 0.34747 0.0
H425 H 0.5554 0.14127 0.38075 0.0
C426 C 0.5943 0.12619 0.41178 0.0
C427 C 0.64138 0.13849 0.42296 0.0
C428 C 0.68129 0.25212 0.33881 0.0
C429 C 0.63797 0.18902 0.37678 0.0
C430 C 0.67796 0.27106 0.31365 0.0
C431 C 0.63019 0.2529 0.3016 0.0
C432 C 0.63646 0.21479 0.35173 0.0
C433 C 0.58631 0.2179 0.3158 0.0
C434 C 0.59238 0.15138 0.38886 0.0
C435 C 0.68626 0.17574 0.41025 0.0
N436 N 0.59052 0.19972 0.34001 0.0
N437 N 0.6835 0.19986 0.38776 0.0
H438 H 0.66019 0.57947 0.74854 0.0
H439 H 0.87135 0.77672 0.64485 0.0
H440 H 0.74064 0.74372 0.7602 0.0
H441 H 0.8014 0.61211 0.63718 0.0
H442 H 0.82443 0.76556 0.68739 0.0
H443 H 0.71013 0.59055 0.70697 0.0
C444 C 0.68807 0.61785 0.74216 0.0
C445 C 0.69655 0.66077 0.75769 0.0
C446 C 0.81954 0.73187 0.67647 0.0
C447 C 0.75396 0.67384 0.71052 0.0
C448 C 0.84669 0.73827 0.6523 0.0
C449 C 0.84007 0.69529 0.63735 0.0
C450 C 0.78541 0.68214 0.68571 0.0
C451 C 0.80702 0.64631 0.64782 0.0
C452 C 0.71682 0.62419 0.71859 0.0
C453 C 0.73324 0.70967 0.74875 0.0
N454 N 0.78072 0.64107 0.67125 0.0
N455 N 0.76068 0.71491 0.72577 0.0
H456 H 0.59998 1.07253 0.57454 0.0
H457 H 0.73966 0.26113 0.70074 0.0
H458 H 0.68053 0.23769 0.57048 0.0
H459 H 0.6188 0.10451 0.71137 0.0
H460 H 0.73103 0.24855 0.6517 0.0
H461 H 0.61877 1.07937 0.62344 0.0
C462 C 0.62208 0.11013 0.58389 0.0
C463 C 0.63843 0.15466 0.56859 0.0
C464 C 0.70655 0.2168 0.66473 0.0
C465 C 0.66032 0.16274 0.62412 0.0
C466 C 0.71131 0.22398 0.6928 0.0
C467 C 0.67923 0.18415 0.71037 0.0
C468 C 0.66968 0.16926 0.65388 0.0
C469 C 0.64435 0.13637 0.6987 0.0
C470 C 0.63258 0.11401 0.61174 0.0
C471 C 0.66687 0.20243 0.58161 0.0
N472 N 0.6402 0.13036 0.67119 0.0
N473 N 0.67686 0.2052 0.60855 0.0
H474 H 0.74274 0.75904 0.92054 0.0
H475 H 0.69279 0.55425 0.03302 0.0
H476 H 0.67154 0.59746 0.90146 0.0
H477 H 0.69373 0.69482 0.05261 0.0
H478 H 0.69121 0.57103 0.9846 0.0
H479 H 0.73129 0.7386 0.96905 0.0
C480 C 0.72438 0.71925 0.9266 0.0
C481 C 0.70819 0.67989 0.90703 0.0
C482 C 0.69125 0.59794 -0.0005 0.0
C483 C 0.69579 0.65631 0.96235 0.0
C484 C 0.69232 0.58847 0.02707 0.0
C485 C 0.69337 0.62321 0.04678 0.0
C486 C 0.69245 0.64309 0.99152 0.0
C487 C 0.69263 0.66695 0.03803 0.0
C488 C 0.71775 0.70762 0.95423 0.0
C489 C 0.68454 0.62896 0.91592 0.0
N490 N 0.6929 0.67602 0.01103 0.0
N491 N 0.67967 0.61865 0.94294 0.0
H492 H 0.1446 0.64237 0.23049 0.0
H493 H 1.13396 0.54431 0.38169 0.0
H494 H 0.1576 0.50964 0.24817 0.0
H495 H 0.17316 0.69959 0.36388 0.0
H496 H 1.13161 0.52619 0.33278 0.0
H497 H 0.14538 0.65997 0.27934 0.0
C498 C 0.14778 0.61705 0.24466 0.0
C499 C 0.15123 0.5746 0.2353 0.0
C500 C 0.14068 0.56421 0.33961 0.0
C501 C 0.15129 0.59395 0.29117 0.0
C502 C 0.14167 0.57443 0.36748 0.0
C503 C 0.15397 0.62357 0.37686 0.0
C504 C 0.15131 0.60318 0.32094 0.0
C505 C 0.16402 0.66133 0.35753 0.0
C506 C 0.1482 0.62707 0.27252 0.0
C507 C 0.15503 0.54288 0.25454 0.0
N508 N 0.16231 0.65032 0.33054 0.0
N509 N 0.15466 0.55301 0.28155 0.0
loop_
_geom_bond_atom_site_label_1
_geom_bond_atom_site_label_2
_geom_bond_distance
_geom_bond_site_symmetry_2
_ccdc_geom_bond_type
Tb0 C2 2.809 . S
Tb0 O20 2.484 . S
Tb0 O21 2.440 . S
Tb0 O22 2.658 . S
Tb0 O23 2.409 . S
Tb0 O24 2.378 . S
Tb0 O28 2.325 . S
Tb0 O31 2.341 1_455 S
Tb1 C11 2.809 . S
Tb1 O22 2.325 1_655 S
Tb1 O25 2.341 1_655 S
Tb1 O26 2.484 . S
Tb1 O27 2.440 . S
Tb1 O28 2.658 1_655 S
Tb1 O29 2.410 1_655 S
Tb1 O30 2.378 . S
C2 Tb0 2.809 . S
C2 C3 1.514 . S
C2 O20 1.248 . S
C2 O21 1.266 . S
C3 C2 1.514 . S
C3 C4 1.359 . S
C3 C8 1.348 . S
C4 C3 1.359 . S
C4 C5 1.380 . S
C4 H32 0.929 . S
C5 C4 1.380 . S
C5 C6 1.347 . S
C5 H33 0.931 . S
C6 C5 1.347 . S
C6 C7 1.369 . S
C7 C6 1.369 . S
C7 C8 1.408 . S
C7 H34 0.930 . S
C8 C3 1.348 . S
C8 C7 1.408 . S
C8 H35 0.930 . S
C9 O22 1.281 . S
C9 O23 1.254 . S
C10 O24 1.236 . S
C10 O25 1.266 . S
C11 Tb1 2.809 . S
C11 C12 1.514 . S
C11 O26 1.248 . S
C11 O27 1.266 . S
C12 C11 1.514 . S
C12 C13 1.359 . S
C12 C17 1.348 . S
C13 C12 1.359 . S
C13 C14 1.380 . S
C13 H36 0.929 . S
C14 C13 1.380 . S
C14 C15 1.347 . S
C14 H37 0.931 . S
C15 C14 1.347 . S
C15 C16 1.369 . S
C16 C15 1.369 . S
C16 C17 1.408 . S
C16 H38 0.930 . S
C17 C12 1.348 . S
C17 C16 1.408 . S
C17 H39 0.930 . S
C18 O28 1.281 . S
C18 O29 1.255 . S
C19 O30 1.236 . S
C19 O31 1.266 . S
O20 Tb0 2.484 . S
O20 C2 1.248 . S
O21 Tb0 2.440 . S
O21 C2 1.266 . S
O22 Tb0 2.658 . S
O22 Tb1 2.325 1_455 S
O22 C9 1.281 . S
O23 Tb0 2.409 . S
O23 C9 1.254 . S
O24 Tb0 2.378 . S
O24 C10 1.236 . S
O25 Tb1 2.341 1_455 S
O25 C10 1.266 . S
O26 Tb1 2.484 . S
O26 C11 1.248 . S
O27 Tb1 2.440 . S
O27 C11 1.266 . S
O28 Tb0 2.325 . S
O28 Tb1 2.658 1_455 S
O28 C18 1.281 . S
O29 Tb1 2.410 1_455 S
O29 C18 1.255 . S
O30 Tb1 2.378 . S
O30 C19 1.236 . S
O31 Tb0 2.341 1_655 S
O31 C19 1.266 . S
H32 C4 0.929 . S
H33 C5 0.931 . S
H34 C7 0.930 . S
H35 C8 0.930 . S
H36 C13 0.929 . S
H37 C14 0.931 . S
H38 C16 0.930 . S
H39 C17 0.930 . S
Tb40 C42 2.809 1_545 S
Tb40 O60 2.484 1_545 S
Tb40 O61 2.440 1_545 S
Tb40 O62 2.658 . S
Tb40 O63 2.409 . S
Tb40 O64 2.378 1_545 S
Tb40 O68 2.325 . S
Tb40 O71 2.341 . S
Tb41 C51 2.809 . S
Tb41 O62 2.325 . S
Tb41 O65 2.341 1_545 S
Tb41 O66 2.484 . S
Tb41 O67 2.440 . S
Tb41 O68 2.658 . S
Tb41 O69 2.409 . S
Tb41 O70 2.378 . S
C42 Tb40 2.809 1_565 S
C42 C43 1.514 . S
C42 O60 1.248 . S
C42 O61 1.266 . S
C43 C42 1.514 . S
C43 C44 1.359 . S
C43 C48 1.348 . S
C44 C43 1.359 . S
C44 C45 1.380 . S
C44 H72 0.929 . S
C45 C44 1.380 . S
C45 C46 1.347 . S
C45 H73 0.931 . S
C46 C45 1.347 . S
C46 C47 1.369 . S
C47 C46 1.369 . S
C47 C48 1.408 . S
C47 H74 0.930 . S
C48 C43 1.348 . S
C48 C47 1.408 . S
C48 H75 0.930 . S
C49 O62 1.281 . S
C49 O63 1.254 . S
C50 O64 1.236 . S
C50 O65 1.266 . S
C51 Tb41 2.809 . S
C51 C52 1.514 . S
C51 O66 1.248 . S
C51 O67 1.266 . S
C52 C51 1.514 . S
C52 C53 1.359 . S
C52 C57 1.348 . S
C53 C52 1.359 . S
C53 C54 1.380 . S
C53 H76 0.929 . S
C54 C53 1.380 . S
C54 C55 1.347 . S
C54 H77 0.931 . S
C55 C54 1.347 . S
C55 C56 1.369 . S
C56 C55 1.369 . S
C56 C57 1.408 . S
C56 H78 0.930 . S
C57 C52 1.348 . S
C57 C56 1.408 . S
C57 H79 0.930 . S
C58 O68 1.281 . S
C58 O69 1.254 . S
C59 O70 1.236 . S
C59 O71 1.266 . S
O60 Tb40 2.484 1_565 S
O60 C42 1.248 . S
O61 Tb40 2.440 1_565 S
O61 C42 1.266 . S
O62 Tb40 2.658 . S
O62 Tb41 2.325 . S
O62 C49 1.281 . S
O63 Tb40 2.409 . S
O63 C49 1.254 . S
O64 Tb40 2.378 1_565 S
O64 C50 1.236 . S
O65 Tb41 2.341 1_565 S
O65 C50 1.266 . S
O66 Tb41 2.484 . S
O66 C51 1.248 . S
O67 Tb41 2.440 . S
O67 C51 1.266 . S
O68 Tb40 2.325 . S
O68 Tb41 2.658 . S
O68 C58 1.281 . S
O69 Tb41 2.409 . S
O69 C58 1.254 . S
O70 Tb41 2.378 . S
O70 C59 1.236 . S
O71 Tb40 2.341 . S
O71 C59 1.266 . S
H72 C44 0.929 . S
H73 C45 0.931 . S
H74 C47 0.930 . S
H75 C48 0.930 . S
H76 C53 0.929 . S
H77 C54 0.931 . S
H78 C56 0.930 . S
H79 C57 0.930 . S
Tb80 C82 2.809 . S
Tb80 O100 2.484 . S
Tb80 O101 2.440 . S
Tb80 O102 2.658 . S
Tb80 O103 2.409 . S
Tb80 O104 2.378 . S
Tb80 O108 2.325 . S
Tb80 O111 2.341 . S
Tb81 C91 2.809 . S
Tb81 O102 2.325 . S
Tb81 O105 2.341 . S
Tb81 O106 2.484 . S
Tb81 O107 2.440 . S
Tb81 O108 2.658 . S
Tb81 O109 2.409 . S
Tb81 O110 2.378 . S
C82 Tb80 2.809 . S
C82 C83 1.514 . S
C82 O100 1.248 . S
C82 O101 1.266 . S
C83 C82 1.514 . S
C83 C84 1.359 . S
C83 C88 1.348 . S
C84 C83 1.359 . S
C84 C85 1.380 . S
C84 H112 0.929 . S
C85 C84 1.380 . S
C85 C86 1.347 . S
C85 H113 0.931 . S
C86 C85 1.347 . S
C86 C87 1.369 . S
C87 C86 1.369 . S
C87 C88 1.408 . S
C87 H114 0.930 . S
C88 C83 1.348 . S
C88 C87 1.408 . S
C88 H115 0.930 . S
C89 O102 1.281 . S
C89 O103 1.254 . S
C90 O104 1.236 . S
C90 O105 1.266 . S
C91 Tb81 2.809 . S
C91 C92 1.514 . S
C91 O106 1.248 . S
C91 O107 1.266 . S
C92 C91 1.514 . S
C92 C93 1.359 . S
C92 C97 1.348 . S
C93 C92 1.359 . S
C93 C94 1.380 . S
C93 H116 0.929 . S
C94 C93 1.380 . S
C94 C95 1.347 . S
C94 H117 0.931 . S
C95 C94 1.347 . S
C95 C96 1.369 . S
C96 C95 1.369 . S
C96 C97 1.408 . S
C96 H118 0.930 . S
C97 C92 1.348 . S
C97 C96 1.408 . S
C97 H119 0.930 . S
C98 O108 1.281 . S
C98 O109 1.254 . S
C99 O110 1.236 . S
C99 O111 1.266 . S
O100 Tb80 2.484 . S
O100 C82 1.248 . S
O101 Tb80 2.440 . S
O101 C82 1.266 . S
O102 Tb80 2.658 . S
O102 Tb81 2.325 . S
O102 C89 1.281 . S
O103 Tb80 2.409 . S
O103 C89 1.254 . S
O104 Tb80 2.378 . S
O104 C90 1.236 . S
O105 Tb81 2.341 . S
O105 C90 1.266 . S
O106 Tb81 2.484 . S
O106 C91 1.248 . S
O107 Tb81 2.440 . S
O107 C91 1.266 . S
O108 Tb80 2.325 . S
O108 Tb81 2.658 . S
O108 C98 1.281 . S
O109 Tb81 2.409 . S
O109 C98 1.254 . S
O110 Tb81 2.378 . S
O110 C99 1.236 . S
O111 Tb80 2.341 . S
O111 C99 1.266 . S
H112 C84 0.929 . S
H113 C85 0.931 . S
H114 C87 0.930 . S
H115 C88 0.930 . S
H116 C93 0.929 . S
H117 C94 0.931 . S
H118 C96 0.930 . S
H119 C97 0.930 . S
H120 C123 0.929 . S
H121 C126 0.929 . S
H122 C128 0.930 . S
C123 H120 0.929 . S
C123 C124 1.398 . S
C123 C125 1.396 . S
C124 C123 1.398 . S
C124 C128 1.407 . S
C125 C123 1.396 . S
C125 C126 1.394 . S
C126 H121 0.929 . S
C126 C125 1.394 . S
C126 C127 1.382 . S
C127 C126 1.382 . S
C127 C128 1.392 . S
C127 N129 1.420 . S
C128 H122 0.930 . S
C128 C124 1.407 . S
C128 C127 1.392 . S
N129 C127 1.420 . S
N129 C130 1.244 . S
C130 N129 1.244 . S
H131 C134 0.929 . S
H132 C137 0.929 . S
H133 C139 0.930 . S
C134 H131 0.929 . S
C134 C135 1.398 . S
C134 C136 1.396 . S
C135 C134 1.398 . S
C135 C139 1.407 . S
C136 C134 1.396 . S
C136 C137 1.394 . S
C137 H132 0.929 . S
C137 C136 1.394 . S
C137 C138 1.382 . S
C138 C137 1.382 . S
C138 C139 1.392 . S
C138 N140 1.420 . S
C139 H133 0.930 . S
C139 C135 1.407 . S
C139 C138 1.392 . S
N140 C138 1.420 . S
N140 C141 1.244 . S
C141 N140 1.244 . S
H142 C145 0.929 . S
H143 C148 0.929 . S
H144 C150 0.930 . S
C145 H142 0.929 . S
C145 C146 1.398 . S
C145 C147 1.396 1_655 S
C146 C145 1.398 . S
C146 C150 1.407 . S
C147 C145 1.396 1_455 S
C147 C148 1.394 . S
C148 H143 0.929 . S
C148 C147 1.394 . S
C148 C149 1.382 . S
C149 C148 1.382 . S
C149 C150 1.392 1_455 S
C149 N151 1.420 . S
C150 H144 0.930 . S
C150 C146 1.407 . S
C150 C149 1.392 1_655 S
N151 C149 1.420 . S
N151 C152 1.244 . S
C152 N151 1.244 . S
H153 C156 0.929 . S
H154 C159 0.929 1_655 S
H155 C161 0.930 . S
C156 H153 0.929 . S
C156 C157 1.398 . S
C156 C158 1.396 . S
C157 C156 1.398 . S
C157 C161 1.407 . S
C158 C156 1.396 . S
C158 C159 1.394 . S
C159 H154 0.929 1_455 S
C159 C158 1.394 . S
C159 C160 1.382 . S
C160 C159 1.382 . S
C160 C161 1.392 . S
C160 N162 1.420 1_455 S
C161 H155 0.930 . S
C161 C157 1.407 . S
C161 C160 1.392 . S
N162 C160 1.420 1_655 S
N162 C163 1.244 . S
C163 N162 1.244 . S
H164 C167 0.929 . S
H165 C170 0.929 1_565 S
H166 C172 0.930 . S
C167 H164 0.929 . S
C167 C168 1.398 . S
C167 C169 1.396 . S
C168 C167 1.398 . S
C168 C172 1.407 . S
C169 C167 1.396 . S
C169 C170 1.394 . S
C170 H165 0.929 1_545 S
C170 C169 1.394 . S
C170 C171 1.382 . S
C171 C170 1.382 . S
C171 C172 1.392 . S
C171 N173 1.420 1_545 S
C172 H166 0.930 . S
C172 C168 1.407 . S
C172 C171 1.392 . S
N173 C171 1.420 1_565 S
N173 C174 1.244 . S
C174 N173 1.244 . S
H175 C178 0.929 . S
H176 C181 0.929 . S
H177 C183 0.930 . S
C178 H175 0.929 . S
C178 C179 1.398 . S
C178 C180 1.396 . S
C179 C178 1.398 . S
C179 C183 1.407 . S
C180 C178 1.396 . S
C180 C181 1.394 . S
C181 H176 0.929 . S
C181 C180 1.394 . S
C181 C182 1.382 . S
C182 C181 1.382 . S
C182 C183 1.392 . S
C182 N184 1.420 . S
C183 H177 0.930 . S
C183 C179 1.407 . S
C183 C182 1.392 . S
N184 C182 1.420 . S
N184 C185 1.244 . S
C185 N184 1.244 . S
H186 C192 0.930 . S
H187 C196 0.930 . S
H188 C201 0.929 . S
H189 C199 0.929 . S
H190 C194 0.929 . S
H191 C200 0.929 . S
C192 H186 0.930 . S
C192 C193 1.367 . S
C192 C200 1.378 . S
C193 C192 1.367 . S
C193 C201 1.433 . S
C194 H190 0.929 . S
C194 C196 1.378 . S
C194 C198 1.350 . S
C195 C198 1.463 . S
C195 C200 1.350 . S
C195 N203 1.427 . S
C196 H187 0.930 . S
C196 C194 1.378 . S
C196 C197 1.367 . S
C197 C196 1.367 . S
C197 C199 1.433 . S
C198 C194 1.350 . S
C198 C195 1.463 . S
C198 N202 1.427 . S
C199 H189 0.929 . S
C199 C197 1.433 . S
C199 N202 1.384 . S
C200 H191 0.929 . S
C200 C192 1.378 . S
C200 C195 1.350 . S
C201 H188 0.929 . S
C201 C193 1.433 . S
C201 N203 1.384 . S
N202 C198 1.427 . S
N202 C199 1.384 . S
N203 C195 1.427 . S
N203 C201 1.384 . S
H204 C210 0.930 . S
H205 C214 0.930 . S
H206 C219 0.929 . S
H207 C217 0.929 . S
H208 C212 0.929 . S
H209 C218 0.929 . S
C210 H204 0.930 . S
C210 C211 1.367 . S
C210 C218 1.378 . S
C211 C210 1.367 . S
C211 C219 1.433 . S
C212 H208 0.929 . S
C212 C214 1.378 . S
C212 C216 1.350 . S
C213 C216 1.463 . S
C213 C218 1.350 . S
C213 N221 1.427 . S
C214 H205 0.930 . S
C214 C212 1.378 . S
C214 C215 1.367 . S
C215 C214 1.367 . S
C215 C217 1.433 . S
C216 C212 1.350 . S
C216 C213 1.463 . S
C216 N220 1.427 . S
C217 H207 0.929 . S
C217 C215 1.433 . S
C217 N220 1.384 . S
C218 H209 0.929 . S
C218 C210 1.378 . S
C218 C213 1.350 . S
C219 H206 0.929 . S
C219 C211 1.433 . S
C219 N221 1.384 . S
N220 C216 1.427 . S
N220 C217 1.384 . S
N221 C213 1.427 . S
N221 C219 1.384 . S
H222 C228 0.930 . S
H223 C232 0.930 . S
H224 C237 0.929 . S
H225 C235 0.929 . S
H226 C230 0.929 . S
H227 C236 0.929 . S
C228 H222 0.930 . S
C228 C229 1.367 . S
C228 C236 1.378 . S
C229 C228 1.367 . S
C229 C237 1.433 . S
C230 H226 0.929 . S
C230 C232 1.378 . S
C230 C234 1.350 . S
C231 C234 1.463 . S
C231 C236 1.350 . S
C231 N239 1.427 . S
C232 H223 0.930 . S
C232 C230 1.378 . S
C232 C233 1.367 . S
C233 C232 1.367 . S
C233 C235 1.433 . S
C234 C230 1.350 . S
C234 C231 1.463 . S
C234 N238 1.427 . S
C235 H225 0.929 . S
C235 C233 1.433 . S
C235 N238 1.384 . S
C236 H227 0.929 . S
C236 C228 1.378 . S
C236 C231 1.350 . S
C237 H224 0.929 . S
C237 C229 1.433 . S
C237 N239 1.384 . S
N238 C234 1.427 . S
N238 C235 1.384 . S
N239 C231 1.427 . S
N239 C237 1.384 . S
H240 C246 0.930 . S
H241 C250 0.930 . S
H242 C255 0.929 . S
H243 C253 0.929 . S
H244 C248 0.929 . S
H245 C254 0.929 . S
C246 H240 0.930 . S
C246 C247 1.367 . S
C246 C254 1.378 . S
C247 C246 1.367 . S
C247 C255 1.433 . S
C248 H244 0.929 . S
C248 C250 1.378 . S
C248 C252 1.350 . S
C249 C252 1.463 . S
C249 C254 1.350 . S
C249 N257 1.427 . S
C250 H241 0.930 . S
C250 C248 1.378 . S
C250 C251 1.367 . S
C251 C250 1.367 . S
C251 C253 1.433 . S
C252 C248 1.350 . S
C252 C249 1.463 . S
C252 N256 1.427 . S
C253 H243 0.929 . S
C253 C251 1.433 . S
C253 N256 1.384 . S
C254 H245 0.929 . S
C254 C246 1.378 . S
C254 C249 1.350 . S
C255 H242 0.929 . S
C255 C247 1.433 . S
C255 N257 1.384 . S
N256 C252 1.427 . S
N256 C253 1.384 . S
N257 C249 1.427 . S
N257 C255 1.384 . S
H258 C264 0.930 . S
H259 C268 0.930 . S
H260 C273 0.929 . S
H261 C271 0.929 . S
H262 C266 0.929 . S
H263 C272 0.929 . S
C264 H258 0.930 . S
C264 C265 1.367 . S
C264 C272 1.378 . S
C265 C264 1.367 . S
C265 C273 1.433 . S
C266 H262 0.929 . S
C266 C268 1.378 . S
C266 C270 1.350 . S
C267 C270 1.463 . S
C267 C272 1.350 . S
C267 N275 1.427 . S
C268 H259 0.930 . S
C268 C266 1.378 . S
C268 C269 1.367 . S
C269 C268 1.367 . S
C269 C271 1.433 . S
C270 C266 1.350 . S
C270 C267 1.463 . S
C270 N274 1.427 . S
C271 H261 0.929 . S
C271 C269 1.433 . S
C271 N274 1.384 . S
C272 H263 0.929 . S
C272 C264 1.378 . S
C272 C267 1.350 . S
C273 H260 0.929 . S
C273 C265 1.433 . S
C273 N275 1.384 . S
N274 C270 1.427 . S
N274 C271 1.384 . S
N275 C267 1.427 . S
N275 C273 1.384 . S
H276 C282 0.930 . S
H277 C286 0.930 . S
H278 C291 0.929 . S
H279 C289 0.929 . S
H280 C284 0.929 . S
H281 C290 0.929 . S
C282 H276 0.930 . S
C282 C283 1.367 . S
C282 C290 1.378 . S
C283 C282 1.367 . S
C283 C291 1.433 . S
C284 H280 0.929 . S
C284 C286 1.378 . S
C284 C288 1.350 . S
C285 C288 1.463 . S
C285 C290 1.350 . S
C285 N293 1.427 . S
C286 H277 0.930 . S
C286 C284 1.378 . S
C286 C287 1.367 . S
C287 C286 1.367 . S
C287 C289 1.433 . S
C288 C284 1.350 . S
C288 C285 1.463 . S
C288 N292 1.427 . S
C289 H279 0.929 . S
C289 C287 1.433 . S
C289 N292 1.384 . S
C290 H281 0.929 . S
C290 C282 1.378 . S
C290 C285 1.350 . S
C291 H278 0.929 . S
C291 C283 1.433 . S
C291 N293 1.384 . S
N292 C288 1.427 . S
N292 C289 1.384 . S
N293 C285 1.427 . S
N293 C291 1.384 . S
H294 C300 0.930 . S
H295 C304 0.930 . S
H296 C309 0.929 . S
H297 C307 0.929 . S
H298 C302 0.929 . S
H299 C308 0.929 . S
C300 H294 0.930 . S
C300 C301 1.367 . S
C300 C308 1.378 . S
C301 C300 1.367 . S
C301 C309 1.433 . S
C302 H298 0.929 . S
C302 C304 1.378 . S
C302 C306 1.350 . S
C303 C306 1.463 . S
C303 C308 1.350 . S
C303 N311 1.427 . S
C304 H295 0.930 . S
C304 C302 1.378 . S
C304 C305 1.367 . S
C305 C304 1.367 . S
C305 C307 1.433 . S
C306 C302 1.350 . S
C306 C303 1.463 . S
C306 N310 1.427 . S
C307 H297 0.929 . S
C307 C305 1.433 . S
C307 N310 1.384 . S
C308 H299 0.929 . S
C308 C300 1.378 . S
C308 C303 1.350 . S
C309 H296 0.929 . S
C309 C301 1.433 . S
C309 N311 1.384 . S
N310 C306 1.427 . S
N310 C307 1.384 . S
N311 C303 1.427 . S
N311 C309 1.384 . S
H312 C318 0.930 . S
H313 C322 0.930 . S
H314 C327 0.929 . S
H315 C325 0.929 . S
H316 C320 0.929 . S
H317 C326 0.929 . S
C318 H312 0.930 . S
C318 C319 1.367 . S
C318 C326 1.378 . S
C319 C318 1.367 . S
C319 C327 1.433 . S
C320 H316 0.929 . S
C320 C322 1.378 . S
C320 C324 1.350 . S
C321 C324 1.463 . S
C321 C326 1.350 . S
C321 N329 1.427 . S
C322 H313 0.930 . S
C322 C320 1.378 . S
C322 C323 1.367 . S
C323 C322 1.367 . S
C323 C325 1.433 . S
C324 C320 1.350 . S
C324 C321 1.463 . S
C324 N328 1.427 . S
C325 H315 0.929 . S
C325 C323 1.433 . S
C325 N328 1.384 . S
C326 H317 0.929 . S
C326 C318 1.378 . S
C326 C321 1.350 . S
C327 H314 0.929 . S
C327 C319 1.433 . S
C327 N329 1.384 . S
N328 C324 1.427 . S
N328 C325 1.384 . S
N329 C321 1.427 . S
N329 C327 1.384 . S
H330 C336 0.930 . S
H331 C340 0.930 . S
H332 C345 0.929 . S
H333 C343 0.929 . S
H334 C338 0.929 . S
H335 C344 0.929 . S
C336 H330 0.930 . S
C336 C337 1.367 . S
C336 C344 1.378 . S
C337 C336 1.367 . S
C337 C345 1.433 . S
C338 H334 0.929 . S
C338 C340 1.378 1_565 S
C338 C342 1.350 . S
C339 C342 1.463 . S
C339 C344 1.350 . S
C339 N347 1.427 . S
C340 H331 0.930 . S
C340 C338 1.378 1_545 S
C340 C341 1.367 . S
C341 C340 1.367 . S
C341 C343 1.433 1_545 S
C342 C338 1.350 . S
C342 C339 1.463 . S
C342 N346 1.427 . S
C343 H333 0.929 . S
C343 C341 1.433 1_565 S
C343 N346 1.384 . S
C344 H335 0.929 . S
C344 C336 1.378 . S
C344 C339 1.350 . S
C345 H332 0.929 . S
C345 C337 1.433 . S
C345 N347 1.384 . S
N346 C342 1.427 . S
N346 C343 1.384 . S
N347 C339 1.427 . S
N347 C345 1.384 . S
H348 C354 0.930 . S
H349 C358 0.930 . S
H350 C363 0.929 . S
H351 C361 0.929 . S
H352 C356 0.929 . S
H353 C362 0.929 . S
C354 H348 0.930 . S
C354 C355 1.367 . S
C354 C362 1.378 . S
C355 C354 1.367 . S
C355 C363 1.433 . S
C356 H352 0.929 . S
C356 C358 1.378 . S
C356 C360 1.350 . S
C357 C360 1.463 . S
C357 C362 1.350 . S
C357 N365 1.427 . S
C358 H349 0.930 . S
C358 C356 1.378 . S
C358 C359 1.367 . S
C359 C358 1.367 . S
C359 C361 1.433 . S
C360 C356 1.350 . S
C360 C357 1.463 . S
C360 N364 1.427 . S
C361 H351 0.929 . S
C361 C359 1.433 . S
C361 N364 1.384 . S
C362 H353 0.929 . S
C362 C354 1.378 . S
C362 C357 1.350 . S
C363 H350 0.929 . S
C363 C355 1.433 . S
C363 N365 1.384 . S
N364 C360 1.427 . S
N364 C361 1.384 . S
N365 C357 1.427 . S
N365 C363 1.384 . S
H366 C372 0.930 . S
H367 C376 0.930 . S
H368 C381 0.929 . S
H369 C379 0.929 . S
H370 C374 0.929 . S
H371 C380 0.929 . S
C372 H366 0.930 . S
C372 C373 1.367 . S
C372 C380 1.378 . S
C373 C372 1.367 . S
C373 C381 1.433 . S
C374 H370 0.929 . S
C374 C376 1.378 . S
C374 C378 1.350 . S
C375 C378 1.463 . S
C375 C380 1.350 . S
C375 N383 1.427 . S
C376 H367 0.930 . S
C376 C374 1.378 . S
C376 C377 1.367 . S
C377 C376 1.367 . S
C377 C379 1.433 . S
C378 C374 1.350 . S
C378 C375 1.463 . S
C378 N382 1.427 . S
C379 H369 0.929 . S
C379 C377 1.433 . S
C379 N382 1.384 . S
C380 H371 0.929 . S
C380 C372 1.378 . S
C380 C375 1.350 . S
C381 H368 0.929 . S
C381 C373 1.433 . S
C381 N383 1.384 . S
N382 C378 1.427 . S
N382 C379 1.384 . S
N383 C375 1.427 . S
N383 C381 1.384 . S
H384 C390 0.930 . S
H385 C394 0.930 . S
H386 C399 0.929 . S
H387 C397 0.929 . S
H388 C392 0.929 . S
H389 C398 0.929 . S
C390 H384 0.930 . S
C390 C391 1.367 . S
C390 C398 1.378 . S
C391 C390 1.367 . S
C391 C399 1.433 . S
C392 H388 0.929 . S
C392 C394 1.378 . S
C392 C396 1.350 . S
C393 C396 1.463 . S
C393 C398 1.350 . S
C393 N401 1.427 . S
C394 H385 0.930 . S
C394 C392 1.378 . S
C394 C395 1.367 . S
C395 C394 1.367 . S
C395 C397 1.433 . S
C396 C392 1.350 . S
C396 C393 1.463 . S
C396 N400 1.427 . S
C397 H387 0.929 . S
C397 C395 1.433 . S
C397 N400 1.384 . S
C398 H389 0.929 . S
C398 C390 1.378 . S
C398 C393 1.350 . S
C399 H386 0.929 . S
C399 C391 1.433 . S
C399 N401 1.384 . S
N400 C396 1.427 . S
N400 C397 1.384 . S
N401 C393 1.427 . S
N401 C399 1.384 . S
H402 C408 0.930 . S
H403 C412 0.930 . S
H404 C417 0.929 . S
H405 C415 0.929 . S
H406 C410 0.929 1_554 S
H407 C416 0.929 . S
C408 H402 0.930 . S
C408 C409 1.367 1_655 S
C408 C416 1.378 . S
C409 C408 1.367 1_455 S
C409 C417 1.433 . S
C410 H406 0.929 1_556 S
C410 C412 1.378 . S
C410 C414 1.350 1_556 S
C411 C414 1.463 . S
C411 C416 1.350 1_455 S
C411 N419 1.427 . S
C412 H403 0.930 . S
C412 C410 1.378 . S
C412 C413 1.367 . S
C413 C412 1.367 . S
C413 C415 1.433 1_455 S
C414 C410 1.350 1_554 S
C414 C411 1.463 . S
C414 N418 1.427 1_454 S
C415 H405 0.929 . S
C415 C413 1.433 1_655 S
C415 N418 1.384 . S
C416 H407 0.929 . S
C416 C408 1.378 . S
C416 C411 1.350 1_655 S
C417 H404 0.929 . S
C417 C409 1.433 . S
C417 N419 1.384 . S
N418 C414 1.427 1_656 S
N418 C415 1.384 . S
N419 C411 1.427 . S
N419 C417 1.384 . S
H420 C426 0.930 . S
H421 C430 0.930 . S
H422 C435 0.929 . S
H423 C433 0.929 . S
H424 C428 0.929 . S
H425 C434 0.929 . S
C426 H420 0.930 . S
C426 C427 1.367 . S
C426 C434 1.378 . S
C427 C426 1.367 . S
C427 C435 1.433 . S
C428 H424 0.929 . S
C428 C430 1.378 . S
C428 C432 1.350 . S
C429 C432 1.463 . S
C429 C434 1.350 . S
C429 N437 1.427 . S
C430 H421 0.930 . S
C430 C428 1.378 . S
C430 C431 1.367 . S
C431 C430 1.367 . S
C431 C433 1.433 . S
C432 C428 1.350 . S
C432 C429 1.463 . S
C432 N436 1.427 . S
C433 H423 0.929 . S
C433 C431 1.433 . S
C433 N436 1.384 . S
C434 H425 0.929 . S
C434 C426 1.378 . S
C434 C429 1.350 . S
C435 H422 0.929 . S
C435 C427 1.433 . S
C435 N437 1.384 . S
N436 C432 1.427 . S
N436 C433 1.384 . S
N437 C429 1.427 . S
N437 C435 1.384 . S
H438 C444 0.930 . S
H439 C448 0.930 . S
H440 C453 0.929 . S
H441 C451 0.929 . S
H442 C446 0.929 . S
H443 C452 0.929 . S
C444 H438 0.930 . S
C444 C445 1.367 . S
C444 C452 1.378 . S
C445 C444 1.367 . S
C445 C453 1.433 . S
C446 H442 0.929 . S
C446 C448 1.378 . S
C446 C450 1.350 . S
C447 C450 1.463 . S
C447 C452 1.350 . S
C447 N455 1.427 . S
C448 H439 0.930 . S
C448 C446 1.378 . S
C448 C449 1.367 . S
C449 C448 1.367 . S
C449 C451 1.433 . S
C450 C446 1.350 . S
C450 C447 1.463 . S
C450 N454 1.427 . S
C451 H441 0.929 . S
C451 C449 1.433 . S
C451 N454 1.384 . S
C452 H443 0.929 . S
C452 C444 1.378 . S
C452 C447 1.350 . S
C453 H440 0.929 . S
C453 C445 1.433 . S
C453 N455 1.384 . S
N454 C450 1.427 . S
N454 C451 1.384 . S
N455 C447 1.427 . S
N455 C453 1.384 . S
H456 C462 0.908 1_565 S
H457 C466 0.930 . S
H458 C471 0.929 . S
H459 C469 0.929 . S
H460 C464 0.929 . S
H461 C470 0.929 . S
C462 H456 0.908 1_545 S
C462 C463 1.394 . S
C462 C470 1.373 1_545 S
C463 C462 1.394 . S
C463 C471 1.433 . S
C464 H460 0.929 . S
C464 C466 1.378 . S
C464 C468 1.350 . S
C465 C468 1.463 . S
C465 C470 1.350 1_545 S
C465 N473 1.427 . S
C466 H457 0.930 . S
C466 C464 1.378 . S
C466 C467 1.367 . S
C467 C466 1.367 . S
C467 C469 1.433 1_545 S
C468 C464 1.350 . S
C468 C465 1.463 . S
C468 N472 1.427 1_545 S
C469 H459 0.929 . S
C469 C467 1.433 1_565 S
C469 N472 1.384 . S
C470 H461 0.929 . S
C470 C462 1.373 1_565 S
C470 C465 1.350 1_565 S
C471 H458 0.929 . S
C471 C463 1.433 . S
C471 N473 1.384 . S
N472 C468 1.427 1_565 S
N472 C469 1.384 . S
N473 C465 1.427 . S
N473 C471 1.384 . S
H474 C480 0.930 . S
H475 C484 0.930 . S
H476 C489 0.929 . S
H477 C487 0.929 . S
H478 C482 0.929 . S
H479 C488 0.929 . S
C480 H474 0.930 . S
C480 C481 1.367 . S
C480 C488 1.378 . S
C481 C480 1.367 . S
C481 C489 1.433 . S
C482 H478 0.929 . S
C482 C484 1.378 . S
C482 C486 1.350 . S
C483 C486 1.463 1_556 S
C483 C488 1.350 . S
C483 N491 1.427 . S
C484 H475 0.930 . S
C484 C482 1.378 . S
C484 C485 1.367 . S
C485 C484 1.367 . S
C485 C487 1.433 . S
C486 C482 1.350 . S
C486 C483 1.463 1_554 S
C486 N490 1.427 . S
C487 H477 0.929 . S
C487 C485 1.433 . S
C487 N490 1.384 . S
C488 H479 0.929 . S
C488 C480 1.378 . S
C488 C483 1.350 . S
C489 H476 0.929 . S
C489 C481 1.433 . S
C489 N491 1.384 . S
N490 C486 1.427 . S
N490 C487 1.384 . S
N491 C483 1.427 . S
N491 C489 1.384 . S
H492 C498 0.930 . S
H493 C502 0.930 . S
H494 C507 0.929 . S
H495 C505 0.929 . S
H496 C500 0.929 . S
H497 C506 0.929 . S
C498 H492 0.930 . S
C498 C499 1.367 . S
C498 C506 1.378 . S
C499 C498 1.367 . S
C499 C507 1.433 . S
C500 H496 0.929 . S
C500 C502 1.378 . S
C500 C504 1.350 . S
C501 C504 1.463 . S
C501 C506 1.350 . S
C501 N509 1.427 . S
C502 H493 0.930 . S
C502 C500 1.378 . S
C502 C503 1.367 . S
C503 C502 1.367 . S
C503 C505 1.433 . S
C504 C500 1.350 . S
C504 C501 1.463 . S
C504 N508 1.427 . S
C505 H495 0.929 . S
C505 C503 1.433 . S
C505 N508 1.384 . S
C506 H497 0.929 . S
C506 C498 1.378 . S
C506 C501 1.350 . S
C507 H494 0.929 . S
C507 C499 1.433 . S
C507 N509 1.384 . S
N508 C504 1.427 . S
N508 C505 1.384 . S
N509 C501 1.427 . S
N509 C507 1.384 . S
C193 C10 3.071 . S
C197 C185 3.022 . S
C211 C59 3.146 . S
C215 C163 3.075 . S
C229 C90 3.055 . S
C233 C174 3.007 . S
C247 C19 3.001 . S
C251 C179 2.958 . S
C269 C157 2.908 . S
C265 C50 2.941 . S
C287 C168 2.973 . S
C283 C99 3.010 . S
C301 C46 0.569 . S
C305 C141 0.582 . S
C319 C95 0.329 . S
C323 C146 0.216 . S
C337 C6 0.278 . S
C341 C124 0.260 . S
C359 C135 0.228 . S
C355 C55 0.301 . S
C377 C152 0.500 . S
C373 C86 0.480 . S
C391 C15 0.483 . S
C395 C130 0.387 . S
C413 C147 1.273 . S
C409 C9 1.259 . S
C427 C49 1.177 . S
C431 C125 1.214 . S
C445 C89 1.218 . S
C449 C136 1.246 . S
C467 C169 1.735 . S
C463 C58 1.698 . S
C485 C180 1.759 . S
C481 C98 1.694 . S
C499 C18 1.693 . S
C503 C158 1.799 . S
