# Generated by pormake.
# Topology pth, (4,4)-cn, num edge types: 1
# Building blocks:
#     Node 0, Type 0, BuildingBlock: CEKHIL_clean_sbu_0, # of connection points: 4
#     Node 1, Type 0, BuildingBlock: CEKHIL_clean_sbu_0, # of connection points: 4
#     Node 2, Type 0, BuildingBlock: CEKHIL_clean_sbu_0, # of connection points: 4
#     Node 3, Type 1, BuildingBlock: AZAVOO_clean_linker_0, # of connection points: 4
#     Node 4, Type 1, BuildingBlock: AZAVOO_clean_linker_0, # of connection points: 4
#     Node 5, Type 1, BuildingBlock: AZAVOO_clean_linker_0, # of connection points: 4
#     Edge 6, Type (0, 1), BuildingBlock: FUNLAD_clean_linker_0, # of connection points: 2
#     Edge 7, Type (0, 1), BuildingBlock: FUNLAD_clean_linker_0, # of connection points: 2
#     Edge 8, Type (0, 1), BuildingBlock: FUNLAD_clean_linker_0, # of connection points: 2
#     Edge 9, Type (0, 1), BuildingBlock: FUNLAD_clean_linker_0, # of connection points: 2
#     Edge 10, Type (0, 1), BuildingBlock: FUNLAD_clean_linker_0, # of connection points: 2
#     Edge 11, Type (0, 1), BuildingBlock: FUNLAD_clean_linker_0, # of connection points: 2
#     Edge 12, Type (0, 1), BuildingBlock: FUNLAD_clean_linker_0, # of connection points: 2
#     Edge 13, Type (0, 1), BuildingBlock: FUNLAD_clean_linker_0, # of connection points: 2
#     Edge 14, Type (0, 1), BuildingBlock: FUNLAD_clean_linker_0, # of connection points: 2
#     Edge 15, Type (0, 1), BuildingBlock: FUNLAD_clean_linker_0, # of connection points: 2
#     Edge 16, Type (0, 1), BuildingBlock: FUNLAD_clean_linker_0, # of connection points: 2
#     Edge 17, Type (0, 1), BuildingBlock: FUNLAD_clean_linker_0, # of connection points: 2
# Relax obj value: 0.101
# Max RMSD: 0.224
# Mean RMSD: 0.144
data_MOF--net-pth--node1-CEKHIL_clean_sbu_0--node2-AZAVOO_clean_linker_0--edge1-FUNLAD_clean_linker_0
_symmetry_space_group_name_H-M    P1
_symmetry_Int_Tables_number       1
_symmetry_cell_setting            triclinic
loop_
_symmetry_equiv_pos_as_xyz
'x, y, z'
_cell_length_a     29.423241
_cell_length_b     29.835028
_cell_length_c     81.650332
_cell_angle_alpha  92.97163
_cell_angle_beta   89.002657
_cell_angle_gamma 120.2759
loop_
_atom_site_label
_atom_site_type_symbol
_atom_site_fract_x
_atom_site_fract_y
_atom_site_fract_z
_atom_type_partial_charge
Co0 Co 0.0586 0.06487 0.07606 0.0
O1 O 0.02058 0.00206 0.08757 0.0
O2 O 0.09227 0.02353 0.07302 0.0
C3 C 0.05983 0.11766 0.09702 0.0
O4 O 0.1092 0.1271 0.063 0.0
Co5 Co 0.00792 0.13184 0.06941 0.0
O6 O 0.07984 0.18351 0.06259 0.0
C7 C 0.977 0.03565 0.04904 0.0
C8 C 0.05598 0.99096 0.08256 0.0
C9 C 0.11476 0.17112 0.05938 0.0
O10 O 0.01279 0.03022 0.05598 0.0
O11 O 0.96647 0.07118 0.05354 0.0
O12 O 0.09446 0.10286 0.09637 0.0
O13 O 0.02365 0.09716 0.0858 0.0
Co14 Co 0.04626 0.08921 0.39574 0.0
O15 O 0.00621 0.10591 0.38147 0.0
O16 O 0.0766 0.16377 0.39578 0.0
C17 C 0.05159 0.031 0.37834 0.0
O18 O 0.09892 0.08678 0.41102 0.0
Co19 Co 0.00025 0.97709 0.40769 0.0
O20 O 0.07425 0.00322 0.41437 0.0
C21 C 0.96723 0.04729 0.42359 0.0
C22 C 0.03983 0.15437 0.38522 0.0
C23 C 0.10756 0.05165 0.41618 0.0
O24 O 0.00016 0.08482 0.41491 0.0
O25 O 0.95906 0.0009 0.4217 0.0
O26 O 0.08349 0.08045 0.37695 0.0
O27 O 0.01456 0.01888 0.38892 0.0
Co28 Co 0.05559 0.0717 0.73251 0.0
O29 O 0.11026 0.09936 0.71636 0.0
O30 O 0.09456 0.03556 0.73243 0.0
C31 C 0.99115 0.06591 0.71645 0.0
O32 O 0.0024 0.03094 0.75 0.0
Co33 Co -0.00026 0.13054 0.74559 0.0
O34 O 0.95161 0.06541 0.7565 0.0
C35 C 0.10998 0.16829 0.75504 0.0
C36 C 0.12262 0.06572 0.72089 0.0
C37 C 0.96315 0.02984 0.75758 0.0
O38 O 0.10556 0.12529 0.74926 0.0
O39 O 0.07367 0.17955 0.75354 0.0
O40 O 0.00329 0.02954 0.7155 0.0
O41 O 0.02055 0.10573 0.72606 0.0
H42 H 0.993 0.43194 0.13337 0.0
H43 H 0.10611 0.89722 0.25726 0.0
H44 H 0.97523 0.43724 0.22893 0.0
H45 H 0.97353 0.35994 0.21642 0.0
H46 H 0.14266 0.44813 0.21137 0.0
H47 H 0.14386 0.52454 0.22418 0.0
H48 H 0.96938 0.50324 0.19938 0.0
H49 H 0.96324 0.46643 0.17144 0.0
H50 H 0.13284 0.53897 0.17022 0.0
H51 H 0.1383 0.57567 0.19814 0.0
H52 H 0.97212 0.61322 0.20943 0.0
H53 H 0.96869 0.65828 0.18567 0.0
H54 H 0.1334 0.71305 0.17676 0.0
H55 H 0.13663 0.66914 0.20087 0.0
H56 H 0.97168 0.63987 0.24288 0.0
H57 H 0.97244 0.72104 0.24995 0.0
H58 H 0.14205 0.80608 0.24592 0.0
H59 H 0.14058 0.72454 0.23889 0.0
H60 H 0.97366 0.5841 0.26894 0.0
H61 H 0.97614 0.6347 0.29378 0.0
H62 H 0.14612 0.71313 0.29404 0.0
H63 H 0.14307 0.66259 0.26901 0.0
H64 H 0.97998 0.49828 0.26869 0.0
H65 H 0.97943 0.44415 0.29038 0.0
H66 H 0.13871 0.48484 0.27822 0.0
H67 H 0.13949 0.54001 0.25686 0.0
O68 O 0.99634 0.44715 0.14436 0.0
O69 O 0.08362 0.48499 0.14439 0.0
O70 O 0.01733 0.81923 0.25599 0.0
O71 O 0.10457 0.86467 0.25425 0.0
C72 C 0.05924 0.53508 0.23104 0.0
C73 C 0.05738 0.56284 0.21781 0.0
C74 C 0.05603 0.60904 0.22083 0.0
C75 C 0.05579 0.62711 0.23709 0.0
C76 C 0.0569 0.59895 0.25035 0.0
C77 C 0.05881 0.55292 0.24736 0.0
C78 C 0.05964 0.48622 0.22741 0.0
C79 C 0.01198 0.43915 0.22564 0.0
C80 C 0.01109 0.39531 0.21836 0.0
C81 C 0.0579 0.39816 0.21271 0.0
C82 C 0.10601 0.44447 0.21572 0.0
C83 C 0.10682 0.4882 0.223 0.0
C84 C 0.05424 0.54197 0.20072 0.0
C85 C 0.00511 0.51123 0.193 0.0
C86 C 0.00175 0.49022 0.17707 0.0
C87 C 0.04756 0.49967 0.1686 0.0
C88 C 0.09681 0.53088 0.1764 0.0
C89 C 0.10007 0.5519 0.19232 0.0
C90 C 0.05465 0.63819 0.20687 0.0
C91 C 0.0075 0.63541 0.20242 0.0
C92 C 0.00554 0.66068 0.18874 0.0
C93 C 0.05073 0.68904 0.17924 0.0
C94 C 0.09805 0.69202 0.18389 0.0
C95 C 0.09996 0.66683 0.19759 0.0
C96 C 0.05605 0.67656 0.24035 0.0
C97 C 0.00886 0.67617 0.24342 0.0
C98 C 0.00946 0.72253 0.24749 0.0
C99 C 0.05736 0.77008 0.24853 0.0
C100 C 0.10451 0.7702 0.24524 0.0
C101 C 0.10382 0.72378 0.24117 0.0
C102 C 0.05817 0.61972 0.26727 0.0
C103 C 0.0113 0.61096 0.2747 0.0
C104 C 0.01284 0.63989 0.28889 0.0
C105 C 0.06138 0.67822 0.29577 0.0
C106 C 0.1082 0.68428 0.28888 0.0
C107 C 0.10657 0.6552 0.27471 0.0
C108 C 0.05976 0.52303 0.26119 0.0
C109 C 0.01508 0.49629 0.27093 0.0
C110 C 0.01482 0.46543 0.28329 0.0
C111 C 0.05899 0.46025 0.28593 0.0
C112 C 0.10401 0.48785 0.27634 0.0
C113 C 0.1045 0.51928 0.26416 0.0
C114 C 0.04382 0.47695 0.15173 0.0
C115 C 0.05832 0.81933 0.25314 0.0
H116 H 0.62134 0.0486 0.46432 0.0
H117 H 0.29242 0.15201 0.591 0.0
H118 H 0.59873 -0.00108 0.55209 0.0
H119 H 0.67193 -0.00202 0.53786 0.0
H120 H 0.77435 0.15909 0.55334 0.0
H121 H 0.70039 0.1596 0.56754 0.0
H122 H 0.52328 0.01238 0.52892 0.0
H123 H 0.55209 0.01304 0.50058 0.0
H124 H 0.68144 0.16981 0.50975 0.0
H125 H 0.65168 0.16884 0.53798 0.0
H126 H 0.42773 0.01634 0.54595 0.0
H127 H 0.37749 0.01666 0.52243 0.0
H128 H 0.4992 0.17394 0.51357 0.0
H129 H 0.54872 0.17354 0.53737 0.0
H130 H 0.41508 0.0151 0.58464 0.0
H131 H 0.33688 0.02038 0.59198 0.0
H132 H 0.41607 0.17993 0.57787 0.0
H133 H 0.49427 0.17431 0.57078 0.0
H134 H 0.49328 0.00534 0.60594 0.0
H135 H 0.45192 0.00246 0.6325 0.0
H136 H 0.50212 0.16545 0.63026 0.0
H137 H 0.54438 0.16809 0.60409 0.0
H138 H 0.58612 0.99441 0.58661 0.0
H139 H 0.63828 0.98217 0.607 0.0
H140 H 0.69487 0.13876 0.6269 0.0
H141 H 0.64385 0.1511 0.60604 0.0
O142 O 0.61028 0.04938 0.47551 0.0
O143 O 0.67641 0.12974 0.48092 0.0
O144 O 0.28397 0.06679 0.59534 0.0
O145 O 0.32279 0.14884 0.58816 0.0
C146 C 0.59769 0.08343 0.56534 0.0
C147 C 0.56889 0.08932 0.55281 0.0
C148 C 0.52381 0.09264 0.55671 0.0
C149 C 0.50819 0.09138 0.57319 0.0
C150 C 0.53774 0.08663 0.58581 0.0
C151 C 0.58196 0.0816 0.58184 0.0
C152 C 0.64441 0.0793 0.5608 0.0
C153 C 0.63744 0.0334 0.55291 0.0
C154 C 0.67931 0.03301 0.54478 0.0
C155 C 0.72875 0.07866 0.54436 0.0
C156 C 0.73652 0.12355 0.55333 0.0
C157 C 0.69459 0.12378 0.56157 0.0
C158 C 0.58541 0.09055 0.53546 0.0
C159 C 0.55757 0.04693 0.52472 0.0
C160 C 0.57424 0.04737 0.50857 0.0
C161 C 0.61915 0.09145 0.5029 0.0
C162 C 0.64672 0.13523 0.51372 0.0
C163 C 0.62986 0.13479 0.52984 0.0
C164 C 0.49171 0.09491 0.54333 0.0
C165 C 0.44312 0.05106 0.53905 0.0
C166 C 0.41482 0.05117 0.52554 0.0
C167 C 0.43467 0.09518 0.51607 0.0
C168 C 0.48278 0.13961 0.52069 0.0
C169 C 0.51113 0.13942 0.53421 0.0
C170 C 0.46033 0.09437 0.57723 0.0
C171 C 0.41547 0.05118 0.58319 0.0
C172 C 0.37085 0.05429 0.58734 0.0
C173 C 0.37024 0.10063 0.58553 0.0
C174 C 0.41521 0.14369 0.57943 0.0
C175 C 0.45987 0.14056 0.57532 0.0
C176 C 0.52158 0.08687 0.6031 0.0
C177 C 0.49659 0.04067 0.61147 0.0
C178 C 0.47258 0.03903 0.62654 0.0
C179 C 0.47326 0.0836 0.63344 0.0
C180 C 0.50129 0.13054 0.62544 0.0
C181 C 0.52529 0.13214 0.61043 0.0
C182 C 0.61148 0.07371 0.59481 0.0
C183 C 0.60982 0.02602 0.59538 0.0
C184 C 0.6393 0.01898 0.60713 0.0
C185 C 0.67085 0.05953 0.61857 0.0
C186 C 0.67158 0.107 0.61812 0.0
C187 C 0.64219 0.11403 0.60632 0.0
C188 C 0.63715 0.09156 0.4858 0.0
C189 C 0.32299 0.10418 0.58999 0.0
H190 H 0.61879 0.66573 0.01021 0.0
H191 H 0.32433 0.22459 0.87834 0.0
H192 H 0.60937 0.6856 0.92388 0.0
H193 H 0.68237 0.76027 0.93825 0.0
H194 H 0.78858 0.7093 0.91995 0.0
H195 H 0.71452 0.63349 0.90606 0.0
H196 H 0.52906 0.5961 0.94412 0.0
H197 H 0.55359 0.62644 0.97276 0.0
H198 H 0.69081 0.60969 0.96713 0.0
H199 H 0.66536 0.57869 0.93857 0.0
H200 H 0.4429 0.50122 0.92811 0.0
H201 H 0.39049 0.44706 0.95029 0.0
H202 H 0.50821 0.40383 0.95802 0.0
H203 H 0.56127 0.46005 0.93618 0.0
H204 H 0.42913 0.48119 0.8899 0.0
H205 H 0.35477 0.39628 0.88118 0.0
H206 H 0.44452 0.32378 0.89333 0.0
H207 H 0.51876 0.4091 0.90187 0.0
H208 H 0.49898 0.5584 0.86763 0.0
H209 H 0.45566 0.50923 0.84219 0.0
H210 H 0.53648 0.42256 0.84536 0.0
H211 H 0.57836 0.47106 0.87102 0.0
H212 H 0.59314 0.67229 0.88595 0.0
H213 H 0.64092 0.73438 0.86488 0.0
H214 H 0.71423 0.64536 0.84916 0.0
H215 H 0.66664 0.58373 0.87049 0.0
O216 O 0.60947 0.65303 -0.00108 0.0
O217 O 0.67958 0.64397 0.99537 0.0
O218 O 0.30857 0.29781 0.87578 0.0
O219 O 0.35295 0.25858 0.88186 0.0
C220 C 0.61094 0.60249 0.90935 0.0
C221 C 0.58131 0.56848 0.92178 0.0
C222 C 0.53806 0.51904 0.91755 0.0
C223 C 0.52509 0.50304 0.90093 0.0
C224 C 0.55536 0.53655 0.88849 0.0
C225 C 0.59769 0.58673 0.89267 0.0
C226 C 0.65668 0.654 0.9141 0.0
C227 C 0.64868 0.69143 0.92261 0.0
C228 C 0.69057 0.73417 0.93077 0.0
C229 C 0.74126 0.74037 0.93044 0.0
C230 C 0.74983 0.70506 0.92069 0.0
C231 C 0.70777 0.66213 0.91259 0.0
C232 C 0.59534 0.58504 0.93932 0.0
C233 C 0.5641 0.59853 0.94916 0.0
C234 C 0.57835 0.61606 0.96548 0.0
C235 C 0.6242 0.62054 0.97223 0.0
C236 C 0.65525 0.60668 0.96232 0.0
C237 C 0.64082 0.58896 0.94602 0.0
C238 C 0.50567 0.48436 0.93058 0.0
C239 C 0.45715 0.47986 0.93459 0.0
C240 C 0.42718 0.44862 0.94721 0.0
C241 C 0.44494 0.42077 0.95594 0.0
C242 C 0.49361 0.4252 0.95173 0.0
C243 C 0.52381 0.45692 0.93919 0.0
C244 C 0.47922 0.45115 0.89647 0.0
C245 C 0.43254 0.44687 0.89069 0.0
C246 C 0.39018 0.39835 0.88572 0.0
C247 C 0.39375 0.35322 0.88652 0.0
C248 C 0.44048 0.35772 0.89254 0.0
C249 C 0.48285 0.40632 0.89747 0.0
C250 C 0.54152 0.51804 0.87114 0.0
C251 C 0.50863 0.53004 0.86249 0.0
C252 C 0.48392 0.50182 0.84797 0.0
C253 C 0.49197 0.46135 0.84189 0.0
C254 C 0.52865 0.45274 0.84989 0.0
C255 C 0.55308 0.48077 0.86443 0.0
C256 C 0.62647 0.62361 0.87972 0.0
C257 C 0.61952 0.66625 0.87794 0.0
C258 C 0.64656 0.70143 0.86584 0.0
C259 C 0.68124 0.69468 0.85531 0.0
C260 C 0.68813 0.65182 0.85716 0.0
C261 C 0.66082 0.61648 0.86924 0.0
C262 C 0.63958 0.63983 0.98952 0.0
C263 C 0.34909 0.30166 0.88106 0.0
C264 C 0.09517 0.16957 0.12349 0.0
C265 C 0.06025 0.15386 0.11009 0.0
C266 C 0.0932 0.20139 0.13634 0.0
C267 C 0.0562 0.21806 0.13597 0.0
C268 C 0.02255 0.2036 0.12231 0.0
C269 C 0.02428 0.17156 0.10955 0.0
C270 C 0.05185 0.25126 0.14934 0.0
C271 C 0.06666 0.25314 0.16501 0.0
C272 C 0.06089 0.28643 0.17804 0.0
C273 C 0.097 0.30708 0.19118 0.0
C274 C 0.09492 0.34181 0.20292 0.0
C275 C 0.05616 0.35593 0.20184 0.0
H276 H 0.99055 0.28156 0.16793 0.0
C277 C 0.01827 0.33291 0.1892 0.0
C278 C 0.0204 0.29835 0.17749 0.0
H279 H 0.98811 0.34319 0.18793 0.0
H280 H 0.12358 0.15677 0.12416 0.0
H281 H 0.121 0.21311 0.14639 0.0
H282 H 0.99411 0.21638 0.12162 0.0
H283 H 0.99707 0.16033 0.09933 0.0
H284 H 0.03447 0.27423 0.14607 0.0
H285 H 0.08479 0.23099 0.16841 0.0
H286 H 0.128 0.29776 0.19204 0.0
H287 H 0.12426 0.35846 0.21265 0.0
C288 C 0.90881 0.01974 0.4481 0.0
C289 C 0.93992 0.05857 0.43722 0.0
C290 C 0.88646 0.03088 0.46176 0.0
C291 C 0.89471 0.08122 0.46492 0.0
C292 C 0.92397 0.11956 0.45374 0.0
C293 C 0.94674 0.10853 0.44008 0.0
C294 C 0.87137 0.09388 0.47942 0.0
C295 C 0.86361 0.07025 0.49369 0.0
C296 C 0.83443 0.07689 0.50775 0.0
C297 C 0.81147 0.03741 0.51898 0.0
C298 C 0.77909 0.03907 0.53142 0.0
C299 C 0.76948 0.08064 0.53299 0.0
H300 H 0.84566 0.15218 0.50192 0.0
C301 C 0.795 0.12176 0.5224 0.0
C302 C 0.82727 0.12003 0.50992 0.0
H303 H 0.78815 0.15424 0.52326 0.0
H304 H 0.90219 0.98068 0.44625 0.0
H305 H 0.86231 -0.00026 0.46972 0.0
H306 H 0.93008 0.15841 0.45576 0.0
H307 H 0.9702 0.1393 0.43191 0.0
H308 H 0.85985 0.12276 0.47804 0.0
H309 H 0.87638 0.04214 0.49483 0.0
H310 H 0.8169 0.00406 0.51776 0.0
H311 H 0.76041 0.00713 0.53953 0.0
C312 C 0.8909 0.98608 0.77801 0.0
C313 C 0.93101 0.98627 0.76833 0.0
C314 C 0.86164 0.94588 0.78851 0.0
C315 C 0.87138 0.90444 0.78947 0.0
C316 C 0.91144 0.90469 0.7798 0.0
C317 C 0.94082 0.94497 0.76933 0.0
C318 C 0.84249 0.8617 0.80089 0.0
C319 C 0.79518 0.84915 0.80729 0.0
C320 C 0.76681 0.80774 0.81918 0.0
C321 C 0.71299 0.78915 0.82171 0.0
C322 C 0.68511 0.75204 0.83326 0.0
C323 C 0.71046 0.73265 0.84261 0.0
H324 H 0.83391 0.80244 0.82743 0.0
C325 C 0.76422 0.7509 0.84004 0.0
C326 C 0.79222 0.78822 0.82854 0.0
H327 H 0.78507 0.73739 0.84727 0.0
H328 H 0.88253 0.01746 0.7777 0.0
H329 H 0.83245 0.94839 0.7961 0.0
H330 H 0.92018 0.87359 0.78036 0.0
H331 H 0.97143 0.94379 0.76209 0.0
H332 H 0.86054 0.83896 0.80365 0.0
H333 H 0.77516 0.86899 0.80338 0.0
H334 H 0.69236 0.80354 0.81477 0.0
H335 H 0.6436 0.73841 0.83483 0.0
C336 C 0.01513 0.91072 0.09834 0.0
C337 C 0.05747 0.94639 0.08906 0.0
C338 C 0.01912 0.87364 0.10694 0.0
C339 C 0.06562 0.87109 0.1064 0.0
C340 C 0.10709 0.90527 0.09651 0.0
C341 C 0.10298 0.9424 0.08783 0.0
C342 C 0.07415 0.83762 0.11738 0.0
C343 C 0.03453 0.79572 0.12427 0.0
C344 C 0.04209 0.76763 0.13752 0.0
C345 C 0.00129 0.71736 0.14068 0.0
C346 C 0.00449 0.6915 0.15401 0.0
C347 C 0.04847 0.71554 0.16461 0.0
H348 H 0.1181 0.83076 0.14635 0.0
C349 C 0.08969 0.76559 0.16133 0.0
C350 C 0.08654 0.79145 0.14798 0.0
H351 H 0.12371 0.78558 0.16941 0.0
H352 H 0.97954 0.91286 0.09957 0.0
H353 H 0.98665 0.84921 0.11469 0.0
H354 H 0.14347 0.90444 0.09593 0.0
H355 H 0.13638 0.96955 0.08084 0.0
H356 H 0.11461 0.84897 0.12017 0.0
H357 H 0.99432 0.78139 0.12026 0.0
H358 H 0.96643 0.69821 0.13292 0.0
H359 H 0.97236 0.65268 0.15604 0.0
C360 C 0.16946 0.0302 0.42962 0.0
C361 C 0.15644 0.06761 0.42558 0.0
C362 C 0.21248 0.04366 0.4398 0.0
C363 C 0.24392 0.0951 0.44612 0.0
C364 C 0.2317 0.13278 0.44179 0.0
C365 C 0.18865 0.11933 0.43151 0.0
C366 C 0.28617 0.10923 0.45846 0.0
C367 C 0.31153 0.08245 0.45966 0.0
C368 C 0.3464 0.08906 0.47365 0.0
C369 C 0.35442 0.04769 0.47672 0.0
C370 C 0.3835 0.05 0.49038 0.0
C371 C 0.40567 0.09401 0.50123 0.0
H372 H 0.36637 0.16741 0.48205 0.0
C373 C 0.39951 0.13637 0.49786 0.0
C374 C 0.37018 0.13401 0.4842 0.0
H375 H 0.41638 0.17091 0.50599 0.0
H376 H 0.14554 0.98998 0.42529 0.0
H377 H 0.21928 0.01296 0.44322 0.0
H378 H 0.25494 0.17256 0.44661 0.0
H379 H 0.17963 0.14909 0.42869 0.0
H380 H 0.29428 0.14105 0.46722 0.0
H381 H 0.30368 0.05146 0.45057 0.0
H382 H 0.33707 0.01281 0.46874 0.0
H383 H 0.38855 0.01719 0.49244 0.0
C384 C 0.20237 0.19877 0.76453 0.0
C385 C 0.15951 0.20708 0.76357 0.0
C386 C 0.24938 0.23612 0.77228 0.0
C387 C 0.25436 0.2825 0.77934 0.0
C388 C 0.21182 0.291 0.77816 0.0
C389 C 0.16494 0.25377 0.77043 0.0
C390 C 0.30286 0.32302 0.78805 0.0
C391 C 0.33809 0.31337 0.79496 0.0
C392 C 0.38179 0.35253 0.8057 0.0
C393 C 0.39901 0.33521 0.81856 0.0
C394 C 0.43621 0.37067 0.82994 0.0
C395 C 0.45767 0.42444 0.82858 0.0
H396 H 0.39417 0.42114 0.7937 0.0
C397 C 0.44255 0.44192 0.81518 0.0
C398 C 0.40509 0.40634 0.80382 0.0
H399 H 0.45909 0.48309 0.81363 0.0
H400 H 0.19988 0.1636 0.75918 0.0
H401 H 0.28171 0.22865 0.77248 0.0
H402 H 0.21459 0.32644 0.78339 0.0
H403 H 0.13298 0.26178 0.76986 0.0
H404 H 0.307 0.36118 0.79008 0.0
H405 H 0.33168 0.27417 0.7943 0.0
H406 H 0.38195 0.29401 0.82024 0.0
H407 H 0.44631 0.35576 0.84023 0.0
C408 C 0.9208 0.02343 0.6947 0.0
C409 C 0.94871 0.06399 0.7065 0.0
C410 C 0.88381 0.02446 0.68439 0.0
C411 C 0.87392 0.06606 0.6858 0.0
C412 C 0.9011 0.10584 0.69787 0.0
C413 C 0.93791 0.10478 0.70813 0.0
C414 C 0.83864 0.07163 0.67431 0.0
C415 C 0.80066 0.03218 0.66507 0.0
C416 C 0.76773 0.04012 0.65328 0.0
C417 C 0.71657 -0.00064 0.64955 0.0
C418 C 0.68487 0.00569 0.63842 0.0
C419 C 0.70395 0.05281 0.63064 0.0
H420 H 0.82699 0.11865 0.64739 0.0
C421 C 0.75549 0.09328 0.63419 0.0
C422 C 0.78707 0.08702 0.64533 0.0
H423 H 0.77192 0.12956 0.62809 0.0
H424 H 0.92857 0.99164 0.6931 0.0
H425 H 0.86467 0.99361 0.67501 0.0
H426 H 0.89447 0.13842 0.69921 0.0
H427 H 0.95873 0.13663 0.71712 0.0
H428 H 0.84361 0.11016 0.67378 0.0
H429 H 0.79175 0.99263 0.66658 0.0
H430 H 0.70088 0.9627 0.65539 0.0
H431 H 0.64523 0.97381 0.63603 0.0
C432 C 0.96029 0.9637 0.02821 0.0
C433 C 0.94802 0.00093 0.03465 0.0
C434 C 0.93469 0.93311 0.01408 0.0
C435 C 0.89633 0.93928 0.00605 0.0
C436 C 0.88336 0.97563 0.01273 0.0
C437 C 0.90888 0.00614 0.0268 0.0
C438 C 0.86764 0.90807 0.99101 0.0
C439 C 0.88287 0.88028 0.98127 0.0
C440 C 0.85092 0.84779 0.96691 0.0
C441 C 0.84859 0.80036 0.96301 0.0
C442 C 0.81466 0.76642 0.95065 0.0
C443 C 0.78297 0.77967 0.94173 0.0
H444 H 0.82409 0.89972 0.95965 0.0
C445 C 0.78798 0.82873 0.94493 0.0
C446 C 0.82161 0.86247 0.95738 0.0
H447 H 0.76502 0.84059 0.93804 0.0
H448 H 0.98999 0.95838 0.03399 0.0
H449 H 0.94493 0.90455 0.00971 0.0
H450 H 0.85363 0.98091 0.00694 0.0
H451 H 0.89812 0.03421 0.0314 0.0
H452 H 0.83183 0.90796 0.9879 0.0
H453 H 0.91771 0.87856 0.98424 0.0
H454 H 0.87119 0.78843 0.97007 0.0
H455 H 0.81142 0.72874 0.94866 0.0
C456 C 0.02813 0.93858 0.37292 0.0
C457 C 0.06047 0.99134 0.36977 0.0
C458 C 0.03672 0.90092 0.36499 0.0
C459 C 0.07763 0.91527 0.35357 0.0
C460 C 0.11047 0.96818 0.35069 0.0
C461 C 0.10194 0.00584 0.35866 0.0
C462 C 0.08737 0.87668 0.34433 0.0
C463 C 0.05065 0.82606 0.34188 0.0
C464 C 0.05835 0.78886 0.33104 0.0
C465 C 0.02469 0.73532 0.33271 0.0
C466 C 0.02703 0.69905 0.32171 0.0
C467 C 0.06305 0.71566 0.30875 0.0
H468 H 0.12073 0.84608 0.3161 0.0
C469 C 0.09763 0.76915 0.30731 0.0
C470 C 0.09524 0.80536 0.31826 0.0
H471 H 0.12488 0.78323 0.29721 0.0
H472 H 0.99624 0.92628 0.38159 0.0
H473 H 0.01151 0.86094 0.36804 0.0
H474 H 0.14249 0.98045 0.34205 0.0
H475 H 0.12777 0.04627 0.35608 0.0
H476 H 0.12574 0.8915 0.33876 0.0
H477 H 0.01238 0.81093 0.34752 0.0
H478 H 0.99571 0.72148 0.34236 0.0
H479 H -4e-05 0.65806 0.32314 0.0
C480 C 0.20134 0.10041 0.70281 0.0
C481 C 0.1665 0.06198 0.71321 0.0
C482 C 0.24204 0.09646 0.69514 0.0
C483 C 0.2487 0.0538 0.69766 0.0
C484 C 0.21384 0.01535 0.70804 0.0
C485 C 0.17342 0.01963 0.71589 0.0
C486 C 0.28892 0.04661 0.68858 0.0
C487 C 0.33479 0.08684 0.68376 0.0
C488 C 0.37188 0.08114 0.67245 0.0
C489 C 0.42412 0.12219 0.67182 0.0
C490 C 0.45815 0.12171 0.65974 0.0
C491 C 0.44047 0.08034 0.64789 0.0
H492 H 0.31461 0.00674 0.66083 0.0
C493 C 0.38885 0.03816 0.64896 0.0
C494 C 0.35489 0.03853 0.66107 0.0
H495 H 0.37356 0.00614 0.63985 0.0
H496 H 0.19692 0.13343 0.70047 0.0
H497 H 0.26708 0.12604 0.68683 0.0
H498 H 0.21773 0.98181 0.71003 0.0
H499 H 0.14703 0.98928 0.72378 0.0
H500 H 0.28018 0.00704 0.68581 0.0
H501 H 0.34542 0.12608 0.688 0.0
H502 H 0.43822 0.15554 0.6804 0.0
H503 H 0.49787 0.15453 0.65939 0.0
C504 C 0.19713 0.1927 0.04363 0.0
C505 C 0.16076 0.20693 0.04961 0.0
C506 C 0.23592 0.22343 0.03251 0.0
C507 C 0.23905 0.26902 0.02718 0.0
C508 C 0.20422 0.28425 0.03369 0.0
C509 C 0.16581 0.25386 0.04484 0.0
C510 C 0.27431 0.29904 0.01377 0.0
C511 C 0.31923 0.29983 0.00972 0.0
C512 C 0.35121 0.32902 0.99567 0.0
C513 C 0.4063 0.35519 0.9967 0.0
C514 C 0.43688 0.3847 0.9838 0.0
C515 C 0.41285 0.38773 0.96945 0.0
H516 H 0.28473 0.3095 0.97977 0.0
C517 C 0.3576 0.35962 0.96822 0.0
C518 C 0.32716 0.33077 0.98117 0.0
H519 H 0.33771 0.3597 0.95719 0.0
H520 H 0.19434 0.15677 0.04701 0.0
H521 H 0.26151 0.20996 0.02754 0.0
H522 H 0.20578 0.31918 0.02981 0.0
H523 H 0.1388 0.26635 0.04921 0.0
H524 H 0.26295 0.32248 0.00705 0.0
H525 H 0.33423 0.28105 0.01723 0.0
H526 H 0.42569 0.35403 0.0077 0.0
H527 H 0.47928 0.4061 0.98525 0.0
C528 C 0.0043 0.18388 0.36331 0.0
C529 C 0.03852 0.19635 0.37675 0.0
C530 C 0.0064 0.22296 0.35409 0.0
C531 C 0.04263 0.27548 0.35815 0.0
C532 C 0.0749 0.28817 0.37209 0.0
C533 C 0.07328 0.24892 0.38123 0.0
C534 C 0.04774 0.31724 0.34781 0.0
C535 C 0.04369 0.31081 0.33134 0.0
C536 C 0.04986 0.3516 0.32037 0.0
C537 C 0.06845 0.35152 0.30443 0.0
C538 C 0.07254 0.38762 0.29342 0.0
C539 C 0.05712 0.42398 0.29801 0.0
H540 H 0.01935 0.38874 0.33716 0.0
C541 C 0.03828 0.42406 0.31395 0.0
C542 C 0.03496 0.38838 0.32508 0.0
H543 H 0.02605 0.45166 0.31778 0.0
H544 H 0.97676 0.14378 0.3596 0.0
H545 H 0.97986 0.21196 0.3437 0.0
H546 H 0.1027 0.32841 0.37557 0.0
H547 H 0.09991 0.25973 0.39159 0.0
H548 H 0.05863 0.35481 0.35374 0.0
H549 H 0.03829 0.27484 0.3255 0.0
H550 H 0.0797 0.32328 0.30045 0.0
H551 H 0.08651 0.38622 0.28114 0.0
loop_
_geom_bond_atom_site_label_1
_geom_bond_atom_site_label_2
_geom_bond_distance
_geom_bond_site_symmetry_2
_ccdc_geom_bond_type
Co0 O1 2.216 . S
Co0 O2 2.091 . S
Co0 O4 2.004 . S
Co0 O10 2.021 . S
Co0 O12 2.137 . S
Co0 O13 2.244 . S
O1 Co0 2.216 . S
O1 C8 1.247 . S
O2 Co0 2.091 . S
O2 C8 1.261 . S
C3 O12 1.247 . S
C3 O13 1.272 . S
O4 Co0 2.004 . S
O4 C9 1.259 . S
Co5 O6 2.061 . S
Co5 O11 2.052 1_455 S
Co5 O13 2.135 . S
O6 Co5 2.061 . S
O6 C9 1.235 . S
C7 O10 1.238 . S
C7 O11 1.241 1_455 S
C8 O1 1.247 . S
C8 O2 1.261 . S
C9 O4 1.259 . S
C9 O6 1.235 . S
O10 Co0 2.021 . S
O10 C7 1.238 . S
O11 Co5 2.052 1_655 S
O11 C7 1.241 1_655 S
O12 Co0 2.137 . S
O12 C3 1.247 . S
O13 Co0 2.244 . S
O13 C3 1.272 . S
O13 Co5 2.135 . S
Co14 O15 2.216 . S
Co14 O16 2.091 . S
Co14 O18 2.004 . S
Co14 O24 2.021 . S
Co14 O26 2.137 . S
Co14 O27 2.244 1_545 S
O15 Co14 2.216 . S
O15 C22 1.247 . S
O16 Co14 2.091 . S
O16 C22 1.261 . S
C17 O26 1.247 1_565 S
C17 O27 1.272 . S
O18 Co14 2.004 . S
O18 C23 1.259 . S
Co19 O20 2.061 1_565 S
Co19 O25 2.052 1_465 S
Co19 O27 2.135 . S
O20 Co19 2.061 1_545 S
O20 C23 1.235 . S
C21 O24 1.238 1_655 S
C21 O25 1.241 . S
C22 O15 1.247 . S
C22 O16 1.261 . S
C23 O18 1.259 . S
C23 O20 1.235 . S
O24 Co14 2.021 . S
O24 C21 1.238 1_455 S
O25 Co19 2.052 1_645 S
O25 C21 1.241 . S
O26 Co14 2.137 . S
O26 C17 1.247 1_545 S
O27 Co14 2.244 1_565 S
O27 C17 1.272 . S
O27 Co19 2.135 . S
Co28 O29 2.216 . S
Co28 O30 2.091 . S
Co28 O32 2.004 . S
Co28 O38 2.021 . S
Co28 O40 2.137 . S
Co28 O41 2.244 . S
O29 Co28 2.216 . S
O29 C36 1.247 . S
O30 Co28 2.091 . S
O30 C36 1.261 . S
C31 O40 1.247 . S
C31 O41 1.272 . S
O32 Co28 2.004 . S
O32 C37 1.259 . S
Co33 O34 2.061 . S
Co33 O39 2.052 . S
Co33 O41 2.135 . S
O34 Co33 2.061 . S
O34 C37 1.235 . S
C35 O38 1.238 . S
C35 O39 1.241 . S
C36 O29 1.247 . S
C36 O30 1.261 . S
C37 O32 1.259 . S
C37 O34 1.235 . S
O38 Co28 2.021 . S
O38 C35 1.238 . S
O39 Co33 2.052 . S
O39 C35 1.241 . S
O40 Co28 2.137 . S
O40 C31 1.247 . S
O41 Co28 2.244 . S
O41 C31 1.272 . S
O41 Co33 2.135 . S
H42 O68 0.856 . S
H43 O71 0.854 . S
H44 C79 0.930 . S
H45 C80 0.930 . S
H46 C82 0.930 . S
H47 C83 0.930 . S
H48 C85 0.931 1_655 S
H49 C86 0.930 1_655 S
H50 C88 0.930 . S
H51 C89 0.929 . S
H52 C91 0.930 1_655 S
H53 C92 0.931 1_655 S
H54 C94 0.930 . S
H55 C95 0.929 . S
H56 C97 0.931 1_655 S
H57 C98 0.930 1_655 S
H58 C100 0.930 . S
H59 C101 0.932 . S
H60 C103 0.930 . S
H61 C104 0.929 . S
H62 C106 0.931 . S
H63 C107 0.930 . S
H64 C109 0.929 1_655 S
H65 C110 0.931 1_655 S
H66 C112 0.930 . S
H67 C113 0.929 . S
O68 H42 0.856 . S
O68 C114 1.300 . S
O69 C114 1.209 . S
O70 C115 1.199 . S
O71 H43 0.854 . S
O71 C115 1.297 . S
C72 C73 1.404 . S
C72 C77 1.397 . S
C72 C78 1.492 . S
C73 C72 1.404 . S
C73 C74 1.396 . S
C73 C84 1.492 . S
C74 C73 1.396 . S
C74 C75 1.397 . S
C74 C90 1.509 . S
C75 C74 1.397 . S
C75 C76 1.412 . S
C75 C96 1.485 . S
C76 C75 1.412 . S
C76 C77 1.388 . S
C76 C102 1.490 . S
C77 C72 1.397 . S
C77 C76 1.388 . S
C77 C108 1.519 . S
C78 C72 1.492 . S
C78 C79 1.363 1_455 S
C78 C83 1.390 . S
C79 H44 0.930 . S
C79 C78 1.363 1_655 S
C79 C80 1.372 . S
C80 H45 0.930 . S
C80 C79 1.372 . S
C80 C81 1.383 1_655 S
C81 C80 1.383 1_455 S
C81 C82 1.395 . S
C82 H46 0.930 . S
C82 C81 1.395 . S
C82 C83 1.362 . S
C83 H47 0.930 . S
C83 C78 1.390 . S
C83 C82 1.362 . S
C84 C73 1.492 . S
C84 C85 1.377 . S
C84 C89 1.397 . S
C85 H48 0.931 1_455 S
C85 C84 1.377 . S
C85 C86 1.376 . S
C86 H49 0.930 1_455 S
C86 C85 1.376 . S
C86 C87 1.376 . S
C87 C86 1.376 . S
C87 C88 1.378 . S
C87 C114 1.486 . S
C88 H50 0.930 . S
C88 C87 1.378 . S
C88 C89 1.376 . S
C89 H51 0.929 . S
C89 C84 1.397 . S
C89 C88 1.376 . S
C90 C74 1.509 . S
C90 C91 1.391 . S
C90 C95 1.386 . S
C91 H52 0.930 1_455 S
C91 C90 1.391 . S
C91 C92 1.375 . S
C92 H53 0.931 1_455 S
C92 C91 1.375 . S
C92 C93 1.375 . S
C93 C92 1.375 . S
C93 C94 1.361 . S
C94 H54 0.930 . S
C94 C93 1.361 . S
C94 C95 1.399 . S
C95 H55 0.929 . S
C95 C90 1.386 . S
C95 C94 1.399 . S
C96 C75 1.485 . S
C96 C97 1.394 . S
C96 C101 1.360 . S
C97 H56 0.931 1_455 S
C97 C96 1.394 . S
C97 C98 1.372 . S
C98 H57 0.930 1_455 S
C98 C97 1.372 . S
C98 C99 1.397 . S
C99 C98 1.397 . S
C99 C100 1.390 . S
C99 C115 1.476 . S
C100 H58 0.930 . S
C100 C99 1.390 . S
C100 C101 1.366 . S
C101 H59 0.932 . S
C101 C96 1.360 . S
C101 C100 1.366 . S
C102 C76 1.490 . S
C102 C103 1.380 1_455 S
C102 C107 1.386 . S
C103 H60 0.930 . S
C103 C102 1.380 1_655 S
C103 C104 1.381 . S
C104 H61 0.929 . S
C104 C103 1.381 . S
C104 C105 1.371 1_655 S
C105 C104 1.371 1_455 S
C105 C106 1.380 . S
C106 H62 0.931 . S
C106 C105 1.380 . S
C106 C107 1.387 . S
C107 H63 0.930 . S
C107 C102 1.386 . S
C107 C106 1.387 . S
C108 C77 1.519 . S
C108 C109 1.377 . S
C108 C113 1.361 . S
C109 H64 0.929 1_455 S
C109 C108 1.377 . S
C109 C110 1.386 . S
C110 H65 0.931 1_455 S
C110 C109 1.386 . S
C110 C111 1.363 . S
C111 C110 1.363 . S
C111 C112 1.385 . S
C112 H66 0.930 . S
C112 C111 1.385 . S
C112 C113 1.396 . S
C113 H67 0.929 . S
C113 C108 1.361 . S
C113 C112 1.396 . S
C114 O68 1.300 . S
C114 O69 1.209 . S
C114 C87 1.486 . S
C115 O70 1.199 . S
C115 O71 1.297 . S
C115 C99 1.476 . S
H116 O142 0.856 . S
H117 O145 0.854 . S
H118 C153 0.930 1_565 S
H119 C154 0.930 1_565 S
H120 C156 0.930 . S
H121 C157 0.930 . S
H122 C159 0.931 . S
H123 C160 0.930 . S
H124 C162 0.930 . S
H125 C163 0.929 . S
H126 C165 0.930 . S
H127 C166 0.931 . S
H128 C168 0.930 . S
H129 C169 0.929 . S
H130 C171 0.931 . S
H131 C172 0.930 . S
H132 C174 0.930 . S
H133 C175 0.932 . S
H134 C177 0.930 . S
H135 C178 0.929 1_565 S
H136 C180 0.931 . S
H137 C181 0.930 . S
H138 C183 0.929 . S
H139 C184 0.931 . S
H140 C186 0.930 . S
H141 C187 0.929 . S
O142 H116 0.856 . S
O142 C188 1.300 . S
O143 C188 1.209 . S
O144 C189 1.199 . S
O145 H117 0.854 . S
O145 C189 1.297 . S
C146 C147 1.404 . S
C146 C151 1.397 . S
C146 C152 1.492 . S
C147 C146 1.404 . S
C147 C148 1.396 . S
C147 C158 1.492 . S
C148 C147 1.396 . S
C148 C149 1.397 . S
C148 C164 1.509 . S
C149 C148 1.397 . S
C149 C150 1.412 . S
C149 C170 1.485 . S
C150 C149 1.412 . S
C150 C151 1.388 . S
C150 C176 1.490 . S
C151 C146 1.397 . S
C151 C150 1.388 . S
C151 C182 1.519 . S
C152 C146 1.492 . S
C152 C153 1.363 . S
C152 C157 1.390 . S
C153 H118 0.930 1_545 S
C153 C152 1.363 . S
C153 C154 1.372 . S
C154 H119 0.930 1_545 S
C154 C153 1.372 . S
C154 C155 1.383 . S
C155 C154 1.383 . S
C155 C156 1.395 . S
C156 H120 0.930 . S
C156 C155 1.395 . S
C156 C157 1.362 . S
C157 H121 0.930 . S
C157 C152 1.390 . S
C157 C156 1.362 . S
C158 C147 1.492 . S
C158 C159 1.377 . S
C158 C163 1.397 . S
C159 H122 0.931 . S
C159 C158 1.377 . S
C159 C160 1.376 . S
C160 H123 0.930 . S
C160 C159 1.376 . S
C160 C161 1.376 . S
C161 C160 1.376 . S
C161 C162 1.378 . S
C161 C188 1.486 . S
C162 H124 0.930 . S
C162 C161 1.378 . S
C162 C163 1.376 . S
C163 H125 0.929 . S
C163 C158 1.397 . S
C163 C162 1.376 . S
C164 C148 1.509 . S
C164 C165 1.391 . S
C164 C169 1.386 . S
C165 H126 0.930 . S
C165 C164 1.391 . S
C165 C166 1.375 . S
C166 H127 0.931 . S
C166 C165 1.375 . S
C166 C167 1.375 . S
C167 C166 1.375 . S
C167 C168 1.361 . S
C168 H128 0.930 . S
C168 C167 1.361 . S
C168 C169 1.399 . S
C169 H129 0.929 . S
C169 C164 1.386 . S
C169 C168 1.399 . S
C170 C149 1.485 . S
C170 C171 1.394 . S
C170 C175 1.360 . S
C171 H130 0.931 . S
C171 C170 1.394 . S
C171 C172 1.372 . S
C172 H131 0.930 . S
C172 C171 1.372 . S
C172 C173 1.397 . S
C173 C172 1.397 . S
C173 C174 1.390 . S
C173 C189 1.476 . S
C174 H132 0.930 . S
C174 C173 1.390 . S
C174 C175 1.366 . S
C175 H133 0.932 . S
C175 C170 1.360 . S
C175 C174 1.366 . S
C176 C150 1.490 . S
C176 C177 1.380 . S
C176 C181 1.386 . S
C177 H134 0.930 . S
C177 C176 1.380 . S
C177 C178 1.381 . S
C178 H135 0.929 1_545 S
C178 C177 1.381 . S
C178 C179 1.371 . S
C179 C178 1.371 . S
C179 C180 1.380 . S
C180 H136 0.931 . S
C180 C179 1.380 . S
C180 C181 1.387 . S
C181 H137 0.930 . S
C181 C176 1.386 . S
C181 C180 1.387 . S
C182 C151 1.519 . S
C182 C183 1.377 . S
C182 C187 1.361 . S
C183 H138 0.929 . S
C183 C182 1.377 . S
C183 C184 1.386 . S
C184 H139 0.931 . S
C184 C183 1.386 . S
C184 C185 1.363 . S
C185 C184 1.363 . S
C185 C186 1.385 . S
C186 H140 0.930 . S
C186 C185 1.385 . S
C186 C187 1.396 . S
C187 H141 0.929 . S
C187 C182 1.361 . S
C187 C186 1.396 . S
C188 O142 1.300 . S
C188 O143 1.209 . S
C188 C161 1.486 . S
C189 O144 1.199 . S
C189 O145 1.297 . S
C189 C173 1.476 . S
H190 O216 0.856 . S
H191 O219 0.854 . S
H192 C227 0.930 . S
H193 C228 0.930 . S
H194 C230 0.930 . S
H195 C231 0.930 . S
H196 C233 0.931 . S
H197 C234 0.930 . S
H198 C236 0.930 . S
H199 C237 0.929 . S
H200 C239 0.930 . S
H201 C240 0.931 . S
H202 C242 0.930 . S
H203 C243 0.929 . S
H204 C245 0.931 . S
H205 C246 0.930 . S
H206 C248 0.930 . S
H207 C249 0.932 . S
H208 C251 0.930 . S
H209 C252 0.929 . S
H210 C254 0.931 . S
H211 C255 0.930 . S
H212 C257 0.929 . S
H213 C258 0.931 . S
H214 C260 0.930 . S
H215 C261 0.929 . S
O216 H190 0.856 . S
O216 C262 1.300 . S
O217 C262 1.209 . S
O218 C263 1.199 . S
O219 H191 0.854 . S
O219 C263 1.297 . S
C220 C221 1.404 . S
C220 C225 1.397 . S
C220 C226 1.492 . S
C221 C220 1.404 . S
C221 C222 1.396 . S
C221 C232 1.492 . S
C222 C221 1.396 . S
C222 C223 1.397 . S
C222 C238 1.509 . S
C223 C222 1.397 . S
C223 C224 1.412 . S
C223 C244 1.485 . S
C224 C223 1.412 . S
C224 C225 1.388 . S
C224 C250 1.490 . S
C225 C220 1.397 . S
C225 C224 1.388 . S
C225 C256 1.519 . S
C226 C220 1.492 . S
C226 C227 1.363 . S
C226 C231 1.390 . S
C227 H192 0.930 . S
C227 C226 1.363 . S
C227 C228 1.372 . S
C228 H193 0.930 . S
C228 C227 1.372 . S
C228 C229 1.383 . S
C229 C228 1.383 . S
C229 C230 1.395 . S
C230 H194 0.930 . S
C230 C229 1.395 . S
C230 C231 1.362 . S
C231 H195 0.930 . S
C231 C226 1.390 . S
C231 C230 1.362 . S
C232 C221 1.492 . S
C232 C233 1.377 . S
C232 C237 1.397 . S
C233 H196 0.931 . S
C233 C232 1.377 . S
C233 C234 1.376 . S
C234 H197 0.930 . S
C234 C233 1.376 . S
C234 C235 1.376 . S
C235 C234 1.376 . S
C235 C236 1.378 . S
C235 C262 1.486 1_556 S
C236 H198 0.930 . S
C236 C235 1.378 . S
C236 C237 1.376 . S
C237 H199 0.929 . S
C237 C232 1.397 . S
C237 C236 1.376 . S
C238 C222 1.509 . S
C238 C239 1.391 . S
C238 C243 1.386 . S
C239 H200 0.930 . S
C239 C238 1.391 . S
C239 C240 1.375 . S
C240 H201 0.931 . S
C240 C239 1.375 . S
C240 C241 1.375 . S
C241 C240 1.375 . S
C241 C242 1.361 . S
C242 H202 0.930 . S
C242 C241 1.361 . S
C242 C243 1.399 . S
C243 H203 0.929 . S
C243 C238 1.386 . S
C243 C242 1.399 . S
C244 C223 1.485 . S
C244 C245 1.394 . S
C244 C249 1.360 . S
C245 H204 0.931 . S
C245 C244 1.394 . S
C245 C246 1.372 . S
C246 H205 0.930 . S
C246 C245 1.372 . S
C246 C247 1.397 . S
C247 C246 1.397 . S
C247 C248 1.390 . S
C247 C263 1.476 . S
C248 H206 0.930 . S
C248 C247 1.390 . S
C248 C249 1.366 . S
C249 H207 0.932 . S
C249 C244 1.360 . S
C249 C248 1.366 . S
C250 C224 1.490 . S
C250 C251 1.380 . S
C250 C255 1.386 . S
C251 H208 0.930 . S
C251 C250 1.380 . S
C251 C252 1.381 . S
C252 H209 0.929 . S
C252 C251 1.381 . S
C252 C253 1.371 . S
C253 C252 1.371 . S
C253 C254 1.380 . S
C254 H210 0.931 . S
C254 C253 1.380 . S
C254 C255 1.387 . S
C255 H211 0.930 . S
C255 C250 1.386 . S
C255 C254 1.387 . S
C256 C225 1.519 . S
C256 C257 1.377 . S
C256 C261 1.361 . S
C257 H212 0.929 . S
C257 C256 1.377 . S
C257 C258 1.386 . S
C258 H213 0.931 . S
C258 C257 1.386 . S
C258 C259 1.363 . S
C259 C258 1.363 . S
C259 C260 1.385 . S
C260 H214 0.930 . S
C260 C259 1.385 . S
C260 C261 1.396 . S
C261 H215 0.929 . S
C261 C256 1.361 . S
C261 C260 1.396 . S
C262 O216 1.300 . S
C262 O217 1.209 . S
C262 C235 1.486 1_554 S
C263 O218 1.199 . S
C263 O219 1.297 . S
C263 C247 1.476 . S
C264 C265 1.386 . S
C264 C266 1.383 . S
C264 H280 0.951 . S
C265 C264 1.386 . S
C265 C269 1.383 . S
C266 C264 1.383 . S
C266 C267 1.402 . S
C266 H281 0.951 . S
C267 C266 1.402 . S
C267 C268 1.375 . S
C267 C270 1.481 . S
C268 C267 1.375 . S
C268 C269 1.367 . S
C268 H282 0.951 1_455 S
C269 C265 1.383 . S
C269 C268 1.367 . S
C269 H283 0.950 1_455 S
C270 C267 1.481 . S
C270 C271 1.297 . S
C270 H284 0.950 . S
C271 C270 1.297 . S
C271 C272 1.479 . S
C271 H285 0.950 . S
C272 C271 1.479 . S
C272 C273 1.375 . S
C272 C278 1.404 . S
C273 C272 1.375 . S
C273 C274 1.369 . S
C273 H286 0.950 . S
C274 C273 1.369 . S
C274 C275 1.392 . S
C274 H287 0.951 . S
C275 C274 1.392 . S
C275 C277 1.384 1_455 S
H276 C278 0.949 1_655 S
C277 C275 1.384 1_655 S
C277 C278 1.385 1_655 S
C277 H279 0.950 . S
C278 C272 1.404 . S
C278 H276 0.949 1_455 S
C278 C277 1.385 1_455 S
H279 C277 0.950 . S
H280 C264 0.951 . S
H281 C266 0.951 . S
H282 C268 0.951 1_655 S
H283 C269 0.950 1_655 S
H284 C270 0.950 . S
H285 C271 0.950 . S
H286 C273 0.950 . S
H287 C274 0.951 . S
C288 C289 1.386 . S
C288 C290 1.383 . S
C288 H304 0.951 . S
C289 C288 1.386 . S
C289 C293 1.383 . S
C290 C288 1.383 . S
C290 C291 1.402 . S
C290 H305 0.951 . S
C291 C290 1.402 . S
C291 C292 1.375 . S
C291 C294 1.481 . S
C292 C291 1.375 . S
C292 C293 1.367 . S
C292 H306 0.951 . S
C293 C289 1.383 . S
C293 C292 1.367 . S
C293 H307 0.950 . S
C294 C291 1.481 . S
C294 C295 1.297 . S
C294 H308 0.950 . S
C295 C294 1.297 . S
C295 C296 1.479 . S
C295 H309 0.950 . S
C296 C295 1.479 . S
C296 C297 1.375 . S
C296 C302 1.404 . S
C297 C296 1.375 . S
C297 C298 1.369 . S
C297 H310 0.950 . S
C298 C297 1.369 . S
C298 C299 1.392 . S
C298 H311 0.951 . S
C299 C298 1.392 . S
C299 C301 1.384 . S
H300 C302 0.949 . S
C301 C299 1.384 . S
C301 C302 1.385 . S
C301 H303 0.950 . S
C302 C296 1.404 . S
C302 H300 0.949 . S
C302 C301 1.385 . S
H303 C301 0.950 . S
H304 C288 0.951 . S
H305 C290 0.951 . S
H306 C292 0.951 . S
H307 C293 0.950 . S
H308 C294 0.950 . S
H309 C295 0.950 . S
H310 C297 0.950 . S
H311 C298 0.951 . S
C312 C313 1.386 . S
C312 C314 1.383 . S
C312 H328 0.951 . S
C313 C312 1.386 . S
C313 C317 1.382 1_655 S
C314 C312 1.383 . S
C314 C315 1.402 . S
C314 H329 0.951 . S
C315 C314 1.402 . S
C315 C316 1.375 . S
C315 C318 1.481 . S
C316 C315 1.375 . S
C316 C317 1.367 1_655 S
C316 H330 0.951 . S
C317 C313 1.382 1_455 S
C317 C316 1.367 1_455 S
C317 H331 0.951 . S
C318 C315 1.481 . S
C318 C319 1.297 . S
C318 H332 0.950 . S
C319 C318 1.297 . S
C319 C320 1.479 . S
C319 H333 0.950 . S
C320 C319 1.479 . S
C320 C321 1.375 . S
C320 C326 1.404 . S
C321 C320 1.375 . S
C321 C322 1.369 . S
C321 H334 0.950 . S
C322 C321 1.369 . S
C322 C323 1.392 . S
C322 H335 0.951 . S
C323 C322 1.392 . S
C323 C325 1.384 . S
H324 C326 0.949 . S
C325 C323 1.384 . S
C325 C326 1.385 . S
C325 H327 0.950 . S
C326 C320 1.404 . S
C326 H324 0.949 . S
C326 C325 1.385 . S
H327 C325 0.950 . S
H328 C312 0.951 . S
H329 C314 0.951 . S
H330 C316 0.951 . S
H331 C317 0.951 . S
H332 C318 0.950 . S
H333 C319 0.950 . S
H334 C321 0.950 . S
H335 C322 0.951 . S
C336 C337 1.386 . S
C336 C338 1.383 . S
C336 H352 0.951 . S
C337 C336 1.386 . S
C337 C341 1.383 . S
C338 C336 1.383 . S
C338 C339 1.402 . S
C338 H353 0.951 . S
C339 C338 1.402 . S
C339 C340 1.375 . S
C339 C342 1.481 . S
C340 C339 1.375 . S
C340 C341 1.367 . S
C340 H354 0.951 . S
C341 C337 1.383 . S
C341 C340 1.367 . S
C341 H355 0.950 1_565 S
C342 C339 1.481 . S
C342 C343 1.297 . S
C342 H356 0.950 . S
C343 C342 1.297 . S
C343 C344 1.479 . S
C343 H357 0.950 . S
C344 C343 1.479 . S
C344 C345 1.375 . S
C344 C350 1.404 . S
C345 C344 1.375 . S
C345 C346 1.369 . S
C345 H358 0.950 1_455 S
C346 C345 1.369 . S
C346 C347 1.392 . S
C346 H359 0.951 1_455 S
C347 C346 1.392 . S
C347 C349 1.384 . S
H348 C350 0.949 . S
C349 C347 1.384 . S
C349 C350 1.385 . S
C349 H351 0.950 . S
C350 C344 1.404 . S
C350 H348 0.949 . S
C350 C349 1.385 . S
H351 C349 0.950 . S
H352 C336 0.951 . S
H353 C338 0.951 . S
H354 C340 0.951 . S
H355 C341 0.950 1_545 S
H356 C342 0.950 . S
H357 C343 0.950 . S
H358 C345 0.950 1_655 S
H359 C346 0.951 1_655 S
C360 C361 1.386 . S
C360 C362 1.383 . S
C360 H376 0.951 1_545 S
C361 C360 1.386 . S
C361 C365 1.383 . S
C362 C360 1.383 . S
C362 C363 1.402 . S
C362 H377 0.951 . S
C363 C362 1.402 . S
C363 C364 1.375 . S
C363 C366 1.481 . S
C364 C363 1.375 . S
C364 C365 1.367 . S
C364 H378 0.951 . S
C365 C361 1.383 . S
C365 C364 1.367 . S
C365 H379 0.950 . S
C366 C363 1.481 . S
C366 C367 1.297 . S
C366 H380 0.950 . S
C367 C366 1.297 . S
C367 C368 1.479 . S
C367 H381 0.950 . S
C368 C367 1.479 . S
C368 C369 1.375 . S
C368 C374 1.404 . S
C369 C368 1.375 . S
C369 C370 1.369 . S
C369 H382 0.950 . S
C370 C369 1.369 . S
C370 C371 1.392 . S
C370 H383 0.951 . S
C371 C370 1.392 . S
C371 C373 1.384 . S
H372 C374 0.949 . S
C373 C371 1.384 . S
C373 C374 1.385 . S
C373 H375 0.950 . S
C374 C368 1.404 . S
C374 H372 0.949 . S
C374 C373 1.385 . S
H375 C373 0.950 . S
H376 C360 0.951 1_565 S
H377 C362 0.951 . S
H378 C364 0.951 . S
H379 C365 0.950 . S
H380 C366 0.950 . S
H381 C367 0.950 . S
H382 C369 0.950 . S
H383 C370 0.951 . S
C384 C385 1.386 . S
C384 C386 1.383 . S
C384 H400 0.951 . S
C385 C384 1.386 . S
C385 C389 1.383 . S
C386 C384 1.383 . S
C386 C387 1.402 . S
C386 H401 0.951 . S
C387 C386 1.402 . S
C387 C388 1.375 . S
C387 C390 1.481 . S
C388 C387 1.375 . S
C388 C389 1.367 . S
C388 H402 0.951 . S
C389 C385 1.383 . S
C389 C388 1.367 . S
C389 H403 0.950 . S
C390 C387 1.481 . S
C390 C391 1.297 . S
C390 H404 0.950 . S
C391 C390 1.297 . S
C391 C392 1.479 . S
C391 H405 0.950 . S
C392 C391 1.479 . S
C392 C393 1.375 . S
C392 C398 1.404 . S
C393 C392 1.375 . S
C393 C394 1.369 . S
C393 H406 0.950 . S
C394 C393 1.369 . S
C394 C395 1.392 . S
C394 H407 0.951 . S
C395 C394 1.392 . S
C395 C397 1.384 . S
H396 C398 0.949 . S
C397 C395 1.384 . S
C397 C398 1.385 . S
C397 H399 0.950 . S
C398 C392 1.404 . S
C398 H396 0.949 . S
C398 C397 1.385 . S
H399 C397 0.950 . S
H400 C384 0.951 . S
H401 C386 0.951 . S
H402 C388 0.951 . S
H403 C389 0.950 . S
H404 C390 0.950 . S
H405 C391 0.950 . S
H406 C393 0.950 . S
H407 C394 0.951 . S
C408 C409 1.386 . S
C408 C410 1.383 . S
C408 H424 0.951 . S
C409 C408 1.386 . S
C409 C413 1.383 1_655 S
C410 C408 1.383 . S
C410 C411 1.402 . S
C410 H425 0.951 . S
C411 C410 1.402 . S
C411 C412 1.375 . S
C411 C414 1.481 . S
C412 C411 1.375 . S
C412 C413 1.367 1_655 S
C412 H426 0.951 . S
C413 C409 1.383 1_455 S
C413 C412 1.367 1_455 S
C413 H427 0.950 . S
C414 C411 1.481 . S
C414 C415 1.297 . S
C414 H428 0.950 . S
C415 C414 1.297 . S
C415 C416 1.479 . S
C415 H429 0.950 . S
C416 C415 1.479 . S
C416 C417 1.375 . S
C416 C422 1.404 . S
C417 C416 1.375 . S
C417 C418 1.369 . S
C417 H430 0.950 . S
C418 C417 1.369 . S
C418 C419 1.392 . S
C418 H431 0.951 . S
C419 C418 1.392 . S
C419 C421 1.384 . S
H420 C422 0.949 . S
C421 C419 1.384 . S
C421 C422 1.385 . S
C421 H423 0.950 . S
C422 C416 1.404 . S
C422 H420 0.949 . S
C422 C421 1.385 . S
H423 C421 0.950 . S
H424 C408 0.951 . S
H425 C410 0.951 . S
H426 C412 0.951 . S
H427 C413 0.950 . S
H428 C414 0.950 . S
H429 C415 0.950 . S
H430 C417 0.950 . S
H431 C418 0.951 . S
C432 C433 1.386 . S
C432 C434 1.383 . S
C432 H448 0.951 . S
C433 C432 1.386 . S
C433 C437 1.383 1_565 S
C434 C432 1.383 . S
C434 C435 1.402 . S
C434 H449 0.951 . S
C435 C434 1.402 . S
C435 C436 1.375 . S
C435 C438 1.514 . S
C436 C435 1.375 . S
C436 C437 1.367 1_565 S
C436 H450 0.951 1_565 S
C437 C433 1.383 1_545 S
C437 C436 1.367 1_545 S
C437 H451 0.950 . S
C438 C435 1.514 . S
C438 C439 1.287 1_554 S
C438 H452 0.927 1_554 S
C439 C438 1.287 1_556 S
C439 C440 1.479 . S
C439 H453 0.950 1_556 S
C440 C439 1.479 . S
C440 C441 1.375 . S
C440 C446 1.404 . S
C441 C440 1.375 . S
C441 C442 1.369 . S
C441 H454 0.950 . S
C442 C441 1.369 . S
C442 C443 1.392 . S
C442 H455 0.951 . S
C443 C442 1.392 . S
C443 C445 1.384 . S
H444 C446 0.949 . S
C445 C443 1.384 . S
C445 C446 1.385 . S
C445 H447 0.950 . S
C446 C440 1.404 . S
C446 H444 0.949 . S
C446 C445 1.385 . S
H447 C445 0.950 . S
H448 C432 0.951 . S
H449 C434 0.951 . S
H450 C436 0.951 1_545 S
H451 C437 0.950 . S
H452 C438 0.927 1_556 S
H453 C439 0.950 1_554 S
H454 C441 0.950 . S
H455 C442 0.951 . S
C456 C457 1.386 . S
C456 C458 1.383 . S
C456 H472 0.951 1_455 S
C457 C456 1.386 . S
C457 C461 1.383 . S
C458 C456 1.383 . S
C458 C459 1.402 . S
C458 H473 0.951 1_455 S
C459 C458 1.402 . S
C459 C460 1.375 . S
C459 C462 1.481 . S
C460 C459 1.375 . S
C460 C461 1.367 . S
C460 H474 0.951 . S
C461 C457 1.383 . S
C461 C460 1.367 . S
C461 H475 0.950 . S
C462 C459 1.481 . S
C462 C463 1.297 . S
C462 H476 0.950 . S
C463 C462 1.297 . S
C463 C464 1.479 . S
C463 H477 0.950 1_455 S
C464 C463 1.479 . S
C464 C465 1.375 1_455 S
C464 C470 1.404 . S
C465 C464 1.375 1_655 S
C465 C466 1.369 . S
C465 H478 0.950 . S
C466 C465 1.369 . S
C466 C467 1.392 1_655 S
C466 H479 0.951 . S
C467 C466 1.392 1_455 S
C467 C469 1.384 . S
H468 C470 0.949 . S
C469 C467 1.384 . S
C469 C470 1.385 . S
C469 H471 0.950 . S
C470 C464 1.404 . S
C470 H468 0.949 . S
C470 C469 1.385 . S
H471 C469 0.950 . S
H472 C456 0.951 1_655 S
H473 C458 0.951 1_655 S
H474 C460 0.951 . S
H475 C461 0.950 . S
H476 C462 0.950 . S
H477 C463 0.950 1_655 S
H478 C465 0.950 . S
H479 C466 0.951 . S
C480 C481 1.386 . S
C480 C482 1.383 . S
C480 H496 0.951 . S
C481 C480 1.386 . S
C481 C485 1.383 . S
C482 C480 1.383 . S
C482 C483 1.402 . S
C482 H497 0.951 . S
C483 C482 1.402 . S
C483 C484 1.375 . S
C483 C486 1.481 . S
C484 C483 1.375 . S
C484 C485 1.367 . S
C484 H498 0.951 1_545 S
C485 C481 1.383 . S
C485 C484 1.367 . S
C485 H499 0.958 . S
C486 C483 1.481 . S
C486 C487 1.297 . S
C486 H500 0.950 . S
C487 C486 1.297 . S
C487 C488 1.479 . S
C487 H501 0.950 . S
C488 C487 1.479 . S
C488 C489 1.375 . S
C488 C494 1.404 . S
C489 C488 1.375 . S
C489 C490 1.369 . S
C489 H502 0.950 . S
C490 C489 1.369 . S
C490 C491 1.392 . S
C490 H503 0.951 . S
C491 C490 1.392 . S
C491 C493 1.384 . S
H492 C494 0.949 1_565 S
C493 C491 1.384 . S
C493 C494 1.385 . S
C493 H495 0.950 1_545 S
C494 C488 1.404 . S
C494 H492 0.949 1_545 S
C494 C493 1.385 . S
H495 C493 0.950 1_565 S
H496 C480 0.951 . S
H497 C482 0.951 . S
H498 C484 0.951 1_565 S
H499 C485 0.958 . S
H500 C486 0.950 . S
H501 C487 0.950 . S
H502 C489 0.950 . S
H503 C490 0.951 . S
C504 C505 1.386 . S
C504 C506 1.383 . S
C504 H520 0.951 . S
C505 C504 1.386 . S
C505 C509 1.383 . S
C506 C504 1.383 . S
C506 C507 1.402 . S
C506 H521 0.951 . S
C507 C506 1.402 . S
C507 C508 1.375 . S
C507 C510 1.481 . S
C508 C507 1.375 . S
C508 C509 1.367 . S
C508 H522 0.951 . S
C509 C505 1.383 . S
C509 C508 1.367 . S
C509 H523 0.950 . S
C510 C507 1.481 . S
C510 C511 1.297 . S
C510 H524 0.950 1_554 S
C511 C510 1.297 . S
C511 C512 1.479 1_554 S
C511 H525 0.950 . S
C512 C511 1.479 1_556 S
C512 C513 1.370 1_556 S
C512 C518 1.404 . S
C513 C512 1.370 1_554 S
C513 C514 1.354 1_554 S
C513 H526 0.971 . S
C514 C513 1.354 1_556 S
C514 C515 1.392 . S
C514 H527 0.951 . S
C515 C514 1.392 . S
C515 C517 1.384 . S
H516 C518 0.949 . S
C517 C515 1.384 . S
C517 C518 1.385 . S
C517 H519 0.950 . S
C518 C512 1.404 . S
C518 H516 0.949 . S
C518 C517 1.385 . S
H519 C517 0.950 . S
H520 C504 0.951 . S
H521 C506 0.951 . S
H522 C508 0.951 . S
H523 C509 0.950 . S
H524 C510 0.950 1_556 S
H525 C511 0.950 . S
H526 C513 0.971 . S
H527 C514 0.951 . S
C528 C529 1.386 . S
C528 C530 1.383 . S
C528 H544 0.951 . S
C529 C528 1.386 . S
C529 C533 1.383 . S
C530 C528 1.383 . S
C530 C531 1.402 . S
C530 H545 0.951 . S
C531 C530 1.402 . S
C531 C532 1.375 . S
C531 C534 1.481 . S
C532 C531 1.375 . S
C532 C533 1.367 . S
C532 H546 0.951 . S
C533 C529 1.383 . S
C533 C532 1.367 . S
C533 H547 0.950 . S
C534 C531 1.481 . S
C534 C535 1.297 . S
C534 H548 0.950 . S
C535 C534 1.297 . S
C535 C536 1.479 . S
C535 H549 0.950 . S
C536 C535 1.479 . S
C536 C537 1.375 . S
C536 C542 1.404 . S
C537 C536 1.375 . S
C537 C538 1.369 . S
C537 H550 0.950 . S
C538 C537 1.369 . S
C538 C539 1.392 . S
C538 H551 0.951 . S
C539 C538 1.392 . S
C539 C541 1.384 . S
H540 C542 0.949 . S
C541 C539 1.384 . S
C541 C542 1.385 . S
C541 H543 0.950 . S
C542 C536 1.404 . S
C542 H540 0.949 . S
C542 C541 1.385 . S
H543 C541 0.950 . S
H544 C528 0.951 . S
H545 C530 0.951 . S
H546 C532 0.951 . S
H547 C533 0.950 . S
H548 C534 0.950 . S
H549 C535 0.950 . S
H550 C537 0.950 . S
H551 C538 0.951 . S
C275 C81 1.359 . S
C265 C3 1.515 . S
C289 C21 1.449 . S
C299 C155 1.410 . S
C313 C37 2.152 1_665 S
C323 C259 2.157 . S
C337 C8 0.791 1_565 S
C347 C93 0.794 . S
C371 C167 0.761 . S
C361 C23 0.775 . S
C385 C35 1.495 . S
C395 C253 1.432 . S
C419 C185 2.159 . S
C409 C31 2.169 1_655 S
C433 C7 1.452 1_665 S
C443 C229 1.392 . S
C467 C105 1.414 . S
C457 C17 1.544 . S
C491 C179 1.399 . S
C481 C36 1.420 . S
C515 C241 0.791 . S
C505 C9 0.784 . S
C529 C22 2.203 . S
C539 C111 2.184 . S
