# Generated by pormake.
# Topology zzz, (3,6)-cn, num edge types: 1
# Building blocks:
#     Node 0, Type 0, BuildingBlock: KAKCAD_clean_linker_0, # of connection points: 3
#     Node 1, Type 0, BuildingBlock: KAKCAD_clean_linker_0, # of connection points: 3
#     Node 2, Type 0, BuildingBlock: KAKCAD_clean_linker_0, # of connection points: 3
#     Node 3, Type 0, BuildingBlock: KAKCAD_clean_linker_0, # of connection points: 3
#     Node 4, Type 0, BuildingBlock: KAKCAD_clean_linker_0, # of connection points: 3
#     Node 5, Type 0, BuildingBlock: KAKCAD_clean_linker_0, # of connection points: 3
#     Node 6, Type 0, BuildingBlock: KAKCAD_clean_linker_0, # of connection points: 3
#     Node 7, Type 0, BuildingBlock: KAKCAD_clean_linker_0, # of connection points: 3
#     Node 8, Type 1, BuildingBlock: BETDIP_clean_sbu_0, # of connection points: 6
#     Node 9, Type 1, BuildingBlock: BETDIP_clean_sbu_0, # of connection points: 6
#     Node 10, Type 1, BuildingBlock: BETDIP_clean_sbu_0, # of connection points: 6
#     Node 11, Type 1, BuildingBlock: BETDIP_clean_sbu_0, # of connection points: 6
#     Edge 12, Type (0, 1), BuildingBlock: UVAHIK_clean_linker_0, # of connection points: 2
#     Edge 13, Type (0, 1), BuildingBlock: UVAHIK_clean_linker_0, # of connection points: 2
#     Edge 14, Type (0, 1), BuildingBlock: UVAHIK_clean_linker_0, # of connection points: 2
#     Edge 15, Type (0, 1), BuildingBlock: UVAHIK_clean_linker_0, # of connection points: 2
#     Edge 16, Type (0, 1), BuildingBlock: UVAHIK_clean_linker_0, # of connection points: 2
#     Edge 17, Type (0, 1), BuildingBlock: UVAHIK_clean_linker_0, # of connection points: 2
#     Edge 18, Type (0, 1), BuildingBlock: UVAHIK_clean_linker_0, # of connection points: 2
#     Edge 19, Type (0, 1), BuildingBlock: UVAHIK_clean_linker_0, # of connection points: 2
#     Edge 20, Type (0, 1), BuildingBlock: UVAHIK_clean_linker_0, # of connection points: 2
#     Edge 21, Type (0, 1), BuildingBlock: UVAHIK_clean_linker_0, # of connection points: 2
#     Edge 22, Type (0, 1), BuildingBlock: UVAHIK_clean_linker_0, # of connection points: 2
#     Edge 23, Type (0, 1), BuildingBlock: UVAHIK_clean_linker_0, # of connection points: 2
#     Edge 24, Type (0, 1), BuildingBlock: UVAHIK_clean_linker_0, # of connection points: 2
#     Edge 25, Type (0, 1), BuildingBlock: UVAHIK_clean_linker_0, # of connection points: 2
#     Edge 26, Type (0, 1), BuildingBlock: UVAHIK_clean_linker_0, # of connection points: 2
#     Edge 27, Type (0, 1), BuildingBlock: UVAHIK_clean_linker_0, # of connection points: 2
#     Edge 28, Type (0, 1), BuildingBlock: UVAHIK_clean_linker_0, # of connection points: 2
#     Edge 29, Type (0, 1), BuildingBlock: UVAHIK_clean_linker_0, # of connection points: 2
#     Edge 30, Type (0, 1), BuildingBlock: UVAHIK_clean_linker_0, # of connection points: 2
#     Edge 31, Type (0, 1), BuildingBlock: UVAHIK_clean_linker_0, # of connection points: 2
#     Edge 32, Type (0, 1), BuildingBlock: UVAHIK_clean_linker_0, # of connection points: 2
#     Edge 33, Type (0, 1), BuildingBlock: UVAHIK_clean_linker_0, # of connection points: 2
#     Edge 34, Type (0, 1), BuildingBlock: UVAHIK_clean_linker_0, # of connection points: 2
#     Edge 35, Type (0, 1), BuildingBlock: UVAHIK_clean_linker_0, # of connection points: 2
# Relax obj value: 0.405
# Max RMSD: 0.266
# Mean RMSD: 0.240
data_MOF--net-zzz--node1-BETDIP_clean_sbu_0--node2-KAKCAD_clean_linker_0--edge1-UVAHIK_clean_linker_0
_symmetry_space_group_name_H-M    P1
_symmetry_Int_Tables_number       1
_symmetry_cell_setting            triclinic
loop_
_symmetry_equiv_pos_as_xyz
'x, y, z'
_cell_length_a     74.429412
_cell_length_b     74.455334
_cell_length_c     22.939302
_cell_angle_alpha  89.95359
_cell_angle_beta   89.906898
_cell_angle_gamma 89.993978
loop_
_atom_site_label
_atom_site_type_symbol
_atom_site_fract_x
_atom_site_fract_y
_atom_site_fract_z
_atom_type_partial_charge
C0 C 0.7479 0.47104 0.03561 0.0
C1 C 0.75971 0.45654 0.04357 0.0
C2 C 0.73934 0.47892 0.08335 0.0
C3 C 0.74243 0.47243 0.14003 0.0
C4 C 0.75335 0.45721 0.14754 0.0
C5 C 0.76189 0.44933 0.09976 0.0
C6 C 0.73542 0.48238 0.19119 0.0
C7 C 0.71802 0.48945 0.19078 0.0
C8 C 0.71178 0.50015 0.23681 0.0
C9 C 0.72319 0.50392 0.28431 0.0
C10 C 0.74066 0.49653 0.28574 0.0
C11 C 0.74655 0.48582 0.23909 0.0
C12 C 0.75353 0.50006 0.33379 0.0
C13 C 0.76002 0.51748 0.34413 0.0
C14 C 0.76183 0.48551 0.36197 0.0
C15 C 0.77693 0.48814 0.39707 0.0
C16 C 0.78424 0.5054 0.40461 0.0
C17 C 0.6932 0.50697 0.23238 0.0
C18 C 0.68974 0.52214 0.1978 0.0
C19 C 0.67892 0.49557 0.24736 0.0
C20 C 0.66175 0.49848 0.22439 0.0
C21 C 0.65857 0.5128 0.18566 0.0
C22 C 0.67256 0.5251 0.17491 0.0
C23 C 0.77528 0.52012 0.37905 0.0
H24 H 0.74586 0.47678 0.99272 0.0
H25 H 0.73106 0.49067 0.07613 0.0
H26 H 0.75575 0.45176 0.19063 0.0
H27 H 0.77103 0.43825 0.10739 0.0
H28 H 0.7092 0.48666 0.15426 0.0
H29 H 0.76021 0.48074 0.23911 0.0
H30 H 0.71849 0.5123 0.31979 0.0
H31 H 0.754 0.52889 0.32233 0.0
H32 H 0.75718 0.47193 0.35425 0.0
H33 H 0.7835 0.47645 0.41541 0.0
H34 H 0.70067 0.53084 0.18444 0.0
H35 H 0.68138 0.48357 0.27291 0.0
H36 H 0.78041 0.53362 0.3845 0.0
H37 H 0.67065 0.53618 0.14495 0.0
H38 H 0.65122 0.4889 0.23422 0.0
C39 C 0.0386 0.74992 0.03135 0.0
C40 C 0.05278 0.76186 0.04291 0.0
C41 C 0.02993 0.74097 0.07685 0.0
C42 C 0.03531 0.74368 0.1349 0.0
C43 C 0.05029 0.75464 0.14604 0.0
C44 C 0.05893 0.76365 0.10053 0.0
C45 C 0.02442 0.7363 0.18364 0.0
C46 C 0.01696 0.7191 0.18 0.0
C47 C 0.00536 0.71264 0.22341 0.0
C48 C 1.0012 0.72356 0.27184 0.0
C49 C 0.00888 0.74085 0.27651 0.0
C50 C 0.02042 0.74699 0.23221 0.0
C51 C 0.0046 0.75339 0.32505 0.0
C52 C 0.98685 0.75889 0.33576 0.0
C53 C 0.01866 0.76229 0.35394 0.0
C54 C 0.0152 0.77708 0.38971 0.0
C55 C 0.99756 0.78343 0.39756 0.0
C56 C 0.99786 0.69443 0.21514 0.0
C57 C 0.98553 0.69155 0.16988 0.0
C58 C 0.00644 0.67959 0.24054 0.0
C59 C 1.00378 0.6623 0.21794 0.0
C60 C 0.99256 0.65957 0.16929 0.0
C61 C 0.98284 0.67431 0.14735 0.0
C62 C 0.98336 0.7738 0.37154 0.0
H63 H 0.0337 0.7481 0.98731 0.0
H64 H 0.01839 0.73268 0.0667 0.0
H65 H 0.05496 0.75675 0.19021 0.0
H66 H 0.06973 0.77284 0.11101 0.0
H67 H 0.02014 0.71062 0.14294 0.0
H68 H 0.02566 0.76056 0.23441 0.0
H69 H 0.99212 0.71869 0.30526 0.0
H70 H 0.97578 0.75238 0.31365 0.0
H71 H 0.03248 0.75837 0.3463 0.0
H72 H 0.02651 0.78416 0.40838 0.0
H73 H 0.97908 0.70286 0.14879 0.0
H74 H 0.01627 0.68154 0.27474 0.0
H75 H 0.96958 0.77813 0.37729 0.0
H76 H 0.97424 0.67283 0.10963 0.0
H77 H 0.01129 0.65123 0.23649 0.0
C78 C 0.75486 0.04085 0.04986 0.0
C79 C 0.74176 0.05416 0.05892 0.0
C80 C 0.76309 0.03242 0.0971 0.0
C81 C 0.75859 0.03726 0.15457 0.0
C82 C 0.74659 0.05158 0.16349 0.0
C83 C 0.73822 0.05991 0.11619 0.0
C84 C 0.76516 0.02633 0.20446 0.0
C85 C 0.7825 0.01909 0.20391 0.0
C86 C 0.78809 0.007 0.24709 0.0
C87 C 0.77623 1.00225 0.29254 0.0
C88 C 0.75895 0.01005 0.29497 0.0
C89 C 0.75359 0.02192 0.25061 0.0
C90 C 0.74579 0.00588 0.34184 0.0
C91 C 0.73923 0.98836 0.34975 0.0
C92 C 0.73755 0.02005 0.37217 0.0
C93 C 0.72248 0.01698 0.40718 0.0
C94 C 0.71514 0.99965 0.41255 0.0
C95 C 0.80635 0.99943 0.24101 0.0
C96 C 0.80886 0.98382 0.20774 0.0
C97 C 0.82119 0.01046 0.25276 0.0
C98 C 0.83794 0.00674 0.22775 0.0
C99 C 0.84013 0.99201 0.18998 0.0
C100 C 0.82563 0.98008 0.18261 0.0
C101 C 0.724 0.98528 0.3846 0.0
H102 H 0.7581 0.03632 0.00623 0.0
H103 H 0.7722 0.0214 0.08843 0.0
H104 H 0.74313 0.05591 0.20715 0.0
H105 H 0.72814 0.07005 0.12485 0.0
H106 H 0.79171 0.02261 0.16903 0.0
H107 H 0.73998 0.02712 0.25094 0.0
H108 H 0.78045 0.99283 0.32584 0.0
H109 H 0.74522 0.97723 0.32634 0.0
H110 H 0.74227 0.03371 0.36649 0.0
H111 H 0.71599 0.02842 0.42738 0.0
H112 H 0.79749 0.97538 0.19689 0.0
H113 H 0.81948 0.02276 0.27736 0.0
H114 H 0.71884 0.97172 0.38832 0.0
H115 H 0.82678 0.96869 0.15353 0.0
H116 H 0.8489 0.01603 0.23514 0.0
C117 C 0.49378 0.72498 0.40761 0.0
C118 C 0.50991 0.7151 0.40718 0.0
C119 C 0.4917 0.74004 0.37166 0.0
C120 C 0.50573 0.74568 0.33505 0.0
C121 C 0.52222 0.73658 0.33711 0.0
C122 C 0.52431 0.72146 0.37294 0.0
C123 C 0.50169 0.75785 0.28583 0.0
C124 C 0.5062 0.77626 0.28604 0.0
C125 C 0.50122 0.78723 0.23848 0.0
C126 C 0.49207 0.77962 0.1911 0.0
C127 C 0.48825 0.76129 0.18984 0.0
C128 C 0.49297 0.75049 0.23725 0.0
C129 C 0.48041 0.75319 0.13724 0.0
C130 C 0.46305 0.75784 0.11882 0.0
C131 C 0.49048 0.74079 0.10494 0.0
C132 C 0.48326 0.73301 0.05498 0.0
C133 C 0.46573 0.73726 0.03716 0.0
C134 C 0.5061 0.80644 0.23417 0.0
C135 C 0.49242 0.81926 0.22765 0.0
C136 C 0.5239 0.81138 0.22188 0.0
C137 C 0.52773 0.8284 0.19879 0.0
C138 C 0.51382 0.84078 0.18782 0.0
C139 C 0.49623 0.83628 0.20503 0.0
C140 C 0.45563 0.74972 0.06941 0.0
H141 H 0.48234 0.72042 0.43277 0.0
H142 H 0.47873 0.74661 0.36969 0.0
H143 H 0.5331 0.74048 0.30833 0.0
H144 H 0.53699 0.71432 0.37208 0.0
H145 H 0.51329 0.782 0.3228 0.0
H146 H 0.48989 0.73624 0.23627 0.0
H147 H 0.4886 0.78789 0.15376 0.0
H148 H 0.45513 0.76745 0.14332 0.0
H149 H 0.50395 0.73715 0.11842 0.0
H150 H 0.49118 0.72323 0.0312 0.0
H151 H 0.47855 0.81564 0.23596 0.0
H152 H 0.53463 0.80161 0.22567 0.0
H153 H 0.44205 0.75307 0.05652 0.0
H154 H 0.48515 0.84536 0.1968 0.0
H155 H 0.54145 0.83153 0.1867 0.0
C156 C 0.23813 0.57463 0.20624 0.0
C157 C 0.23553 0.56921 0.26448 0.0
C158 C 0.24799 0.56394 0.16773 0.0
C159 C 0.25579 0.54786 0.18703 0.0
C160 C 0.25454 0.54319 0.24613 0.0
C161 C 0.24442 0.55368 0.28441 0.0
C162 C 0.26338 0.5349 0.1449 0.0
C163 C 0.28016 0.52705 0.15459 0.0
C164 C 0.28652 0.51323 0.11839 0.0
C165 C 0.27557 0.50687 0.07254 0.0
C166 C 0.25881 0.5151 0.06154 0.0
C167 C 0.25298 0.52914 0.09775 0.0
C168 C 0.24647 0.50907 0.01466 0.0
C169 C 0.23965 0.52175 0.97505 0.0
C170 C 0.23877 0.49186 0.01626 0.0
C171 C 0.22371 0.48787 0.98181 0.0
C172 C 0.21614 0.50098 0.94485 0.0
C173 C 0.30456 0.50575 0.13109 0.0
C174 C 0.31933 0.51746 0.13367 0.0
C175 C 0.30658 0.48807 0.15125 0.0
C176 C 0.32274 0.4826 0.17733 0.0
C177 C 0.33718 0.49473 0.18343 0.0
C178 C 0.33544 0.51202 0.15935 0.0
C179 C 0.22474 0.51776 0.94046 0.0
H180 H 0.23187 0.58672 0.18967 0.0
H181 H 0.24899 0.5679 0.12237 0.0
H182 H 0.26034 0.53076 0.26191 0.0
H183 H 0.2426 0.54887 0.32857 0.0
H184 H 0.28821 0.53154 0.19117 0.0
H185 H 0.23981 0.53501 0.09094 0.0
H186 H 0.2802 0.49597 0.0451 0.0
H187 H 0.24525 0.53518 0.97338 0.0
H188 H 0.24363 0.48192 0.04693 0.0
H189 H 0.21758 0.47473 0.98572 0.0
H190 H 0.31804 0.53122 0.11884 0.0
H191 H 0.29531 0.47886 0.15031 0.0
H192 H 0.21927 0.52826 0.91306 0.0
H193 H 0.3461 0.52182 0.16365 0.0
H194 H 0.3237 0.46911 0.19467 0.0
C195 C 0.02621 0.24518 0.30633 0.0
C196 C 0.04092 0.23337 0.31032 0.0
C197 C 0.02313 0.25493 0.25539 0.0
C198 C 0.03454 0.2529 0.20713 0.0
C199 C 0.04973 0.24185 0.21176 0.0
C200 C 0.05301 0.23233 0.26313 0.0
C201 C 0.02983 0.26143 0.15111 0.0
C202 C 0.02559 0.27967 0.14905 0.0
C203 C 0.01976 0.28769 0.09718 0.0
C204 C 0.01774 0.27712 0.04649 0.0
C205 C 0.02217 0.25865 0.04811 0.0
C206 C 0.02837 0.25107 0.1005 0.0
C207 C 0.01977 0.24643 0.99749 0.0
C208 C 1.00254 0.24284 0.97547 0.0
C209 C 0.03419 0.23562 0.97922 0.0
C210 C 0.03134 0.22087 0.94267 0.0
C211 C 0.01392 0.21642 0.92376 0.0
C212 C 0.01632 0.30724 0.09929 0.0
C213 C 1.00013 0.31346 0.1235 0.0
C214 C 0.03105 0.31898 0.0963 0.0
C215 C 0.03015 0.336 0.12196 0.0
C216 C 0.01449 0.34162 0.15117 0.0
C217 C 0.99917 0.33056 0.14886 0.0
C218 C 0.99963 0.22794 0.93911 0.0
H219 H 0.01642 0.24616 0.34114 0.0
H220 H 0.01127 0.26333 0.25263 0.0
H221 H 0.05884 0.24031 0.17522 0.0
H222 H 0.06468 0.22368 0.26508 0.0
H223 H 0.02689 0.28773 0.18822 0.0
H224 H 0.03129 0.23681 0.10257 0.0
H225 H 0.01298 0.28319 0.00644 0.0
H226 H 0.99115 0.2508 0.98948 0.0
H227 H 0.04758 0.23799 0.99606 0.0
H228 H 0.04265 0.21229 0.93237 0.0
H229 H 0.98876 0.30446 0.12777 0.0
H230 H 0.0438 0.31433 0.07912 0.0
H231 H 0.98608 0.22507 0.92476 0.0
H232 H 0.98695 0.33442 0.17126 0.0
H233 H 0.04211 0.34429 0.12242 0.0
C234 C 0.24322 0.99562 0.33134 0.0
C235 C 0.2569 0.00752 0.348 0.0
C236 C 0.23564 0.99678 0.27584 0.0
C237 C 0.24177 0.00973 0.23586 0.0
C238 C 0.25522 0.02183 0.25287 0.0
C239 C 0.26266 0.02079 0.30855 0.0
C240 C 0.23414 0.01055 0.17647 0.0
C241 C 0.21555 0.01014 0.1688 0.0
C242 C 0.20797 0.01086 0.11303 0.0
C243 C 0.21927 0.01168 0.06359 0.0
C244 C 0.23812 0.01205 0.071 0.0
C245 C 0.24535 0.01165 0.12751 0.0
C246 C 0.25092 0.0124 0.0214 0.0
C247 C 0.25487 0.99653 0.991 0.0
C248 C 0.262 0.02746 0.01321 0.0
C249 C 0.27723 0.02646 0.97741 0.0
C250 C 0.2819 0.01024 0.94977 0.0
C251 C 0.18814 0.01144 0.11025 0.0
C252 C 0.17841 0.99579 0.12349 0.0
C253 C 0.17951 0.02814 0.11477 0.0
C254 C 0.16207 0.02929 0.13749 0.0
C255 C 0.15294 0.01375 0.15619 0.0
C256 C 0.16093 0.99692 0.14592 0.0
C257 C 0.27025 0.99544 0.95565 0.0
H258 H 0.23858 0.98526 0.36094 0.0
H259 H 0.22531 0.98726 0.26363 0.0
H260 H 0.26003 0.03203 0.223 0.0
H261 H 0.27339 0.02995 0.31997 0.0
H262 H 0.20683 0.00966 0.20674 0.0
H263 H 0.25981 0.01174 0.13325 0.0
H264 H 0.21352 0.01215 0.02027 0.0
H265 H 0.24674 0.98463 0.99758 0.0
H266 H 0.25942 0.03973 0.0372 0.0
H267 H 0.28595 0.03806 0.97443 0.0
H268 H 0.18496 0.9828 0.12186 0.0
H269 H 0.18688 0.04041 0.10615 0.0
H270 H 0.27336 0.9828 0.93458 0.0
H271 H 0.15437 0.98468 0.1601 0.0
H272 H 0.15619 0.04245 0.14404 0.0
C273 C 0.48594 0.27587 0.99489 0.0
C274 C 0.49957 0.28466 0.96303 0.0
C275 C 0.4899 0.26078 0.0294 0.0
C276 C 0.50758 0.2543 0.03295 0.0
C277 C 0.52093 0.26239 0.99846 0.0
C278 C 0.51699 0.27733 0.96388 0.0
C279 C 0.51297 0.2416 0.07972 0.0
C280 C 0.50537 0.22432 0.08589 0.0
C281 C 0.51134 0.21284 0.13089 0.0
C282 C 0.52427 0.21905 0.1706 0.0
C283 C 0.53125 0.23645 0.16658 0.0
C284 C 0.52576 0.24748 0.12039 0.0
C285 C 0.54284 0.2438 0.21349 0.0
C286 C 0.53862 0.24048 0.27229 0.0
C287 C 0.55704 0.25559 0.20029 0.0
C288 C 0.56585 0.2649 0.24469 0.0
C289 C 0.56067 0.26257 0.30318 0.0
C290 C 0.5039 0.19459 0.14043 0.0
C291 C 0.48579 0.19225 0.15579 0.0
C292 C 0.51576 0.18003 0.14638 0.0
C293 C 0.51003 0.16395 0.1717 0.0
C294 C 0.49227 0.16202 0.19185 0.0
C295 C 0.48002 0.17611 0.18132 0.0
C296 C 0.54748 0.24972 0.31663 0.0
H297 H 0.47232 0.281 0.99467 0.0
H298 H 0.4794 0.2549 0.05603 0.0
H299 H 0.5347 0.25772 1.00073 0.0
H300 H 0.5279 0.28377 0.94058 0.0
H301 H 0.49523 0.21975 0.05548 0.0
H302 H 0.5308 0.26111 0.11747 0.0
H303 H 0.52855 0.21039 0.20599 0.0
H304 H 0.5277 0.23156 0.28409 0.0
H305 H 0.56082 0.25819 0.15546 0.0
H306 H 0.5759 0.27477 0.23281 0.0
H307 H 0.47643 0.20334 0.15211 0.0
H308 H 0.52983 0.18154 0.13515 0.0
H309 H 0.54336 0.24746 0.36136 0.0
H310 H 0.46617 0.175 0.19534 0.0
H311 H 0.51993 0.15355 0.17933 0.0
Tb312 Tb 0.00937 0.99379 0.71891 0.0
Tb313 Tb 0.98364 0.00425 0.62701 0.0
C314 C 0.02493 0.97866 0.80274 0.0
C315 C 0.03397 0.96125 0.81025 0.0
C316 C 0.02686 0.94558 0.78533 0.0
C317 C 0.03607 0.92933 0.78983 0.0
C318 C 0.0524 0.92838 0.82022 0.0
C319 C 0.05939 0.944 0.84597 0.0
C320 C 0.05029 0.96036 0.84062 0.0
C321 C 0.02448 0.0053 0.62155 0.0
C322 C 0.99313 0.96379 0.63094 0.0
C323 C 0.97003 0.02183 0.54572 0.0
C324 C 0.97466 0.0405 0.53 0.0
C325 C 0.99257 0.04504 0.51695 0.0
C326 C 0.99803 0.06292 0.51688 0.0
C327 C 0.98576 0.07667 0.52982 0.0
C328 C 0.9676 0.07228 0.53879 0.0
C329 C 0.9621 0.05431 0.53895 0.0
C330 C 0.9685 0.99259 0.72372 0.0
C331 C 1.00031 0.03388 0.71167 0.0
O332 O 0.0075 0.97821 0.79476 0.0
O333 O 0.03293 0.98987 0.76733 0.0
O334 O 0.01081 0.99547 0.62594 0.0
O335 O 0.03091 0.00813 0.67315 0.0
O336 O 1.0026 0.96765 0.67844 0.0
O337 O 0.985 0.97643 0.60031 0.0
O338 O 0.98266 0.00982 0.53747 0.0
O339 O 0.96222 0.02 0.59657 0.0
O340 O 0.98217 1.00253 0.72005 0.0
O341 O 0.96212 0.98988 0.67185 0.0
O342 O 0.99489 0.02993 0.65828 0.0
O343 O 0.00422 0.02095 0.74887 0.0
H344 H 0.01416 0.94587 0.7626 0.0
H345 H 0.0302 0.9174 0.77064 0.0
H346 H 0.07194 0.94357 0.8698 0.0
H347 H 0.05601 0.97232 0.86003 0.0
H348 H 1.00267 0.03479 0.50998 0.0
H349 H 0.01204 0.06596 0.50843 0.0
H350 H 0.95785 0.08264 0.54874 0.0
H351 H 0.94826 0.05116 0.54957 0.0
Tb352 Tb 0.50465 0.01326 0.73729 0.0
Tb353 Tb 0.49409 0.98861 0.64214 0.0
C354 C 0.52078 0.02735 0.82181 0.0
C355 C 0.53957 0.03281 0.83055 0.0
C356 C 0.55364 0.02261 0.80691 0.0
C357 C 0.5713 0.02874 0.81005 0.0
C358 C 0.57539 0.04499 0.83835 0.0
C359 C 0.56126 0.05493 0.86353 0.0
C360 C 0.54349 0.04894 0.85923 0.0
C361 C 0.49179 0.02945 0.64424 0.0
C362 C 0.53424 0.9987 0.64432 0.0
C363 C 0.47655 0.97474 0.56103 0.0
C364 C 0.45689 0.97534 0.55199 0.0
C365 C 0.44862 0.99115 0.53186 0.0
C366 C 0.43003 0.99317 0.53541 0.0
C367 C 0.4193 0.97944 0.55895 0.0
C368 C 0.4274 0.96316 0.57533 0.0
C369 C 0.44603 0.96112 0.57173 0.0
C370 C 0.50675 0.97272 0.73608 0.0
C371 C 0.46447 1.00351 0.73211 0.0
O372 O 0.51783 0.01006 0.81726 0.0
O373 O 0.51199 0.03659 0.78265 0.0
O374 O 0.50214 0.01603 0.64477 0.0
O375 O 0.48913 0.03483 0.69729 0.0
O376 O 0.53059 0.00668 0.69479 0.0
O377 O 0.52144 0.99159 0.61198 0.0
O378 O 0.48508 0.99006 0.55576 0.0
O379 O 0.48186 0.96571 0.60686 0.0
O380 O 0.49634 0.98604 0.73452 0.0
O381 O 0.50968 0.96717 0.68333 0.0
O382 O 0.46817 0.9976 0.67894 0.0
O383 O 0.47746 0.00846 0.76779 0.0
H384 H 0.55102 0.01003 0.78501 0.0
H385 H 0.58168 0.02081 0.78923 0.0
H386 H 0.56387 0.06729 0.88678 0.0
H387 H 0.53279 0.05698 0.87784 0.0
H388 H 0.45652 1.00233 0.51585 0.0
H389 H 0.42409 0.00569 0.52095 0.0
H390 H 0.41946 0.95233 0.59349 0.0
H391 H 0.452 0.94875 0.58732 0.0
Tb392 Tb 0.4857 0.50485 0.72771 0.0
Tb393 Tb 0.51123 0.49452 0.63662 0.0
C394 C 0.46902 0.52115 0.80666 0.0
C395 C 0.46057 0.53894 0.8057 0.0
C396 C 0.45823 0.54856 0.85751 0.0
C397 C 0.45202 0.56627 0.85579 0.0
C398 C 0.44818 0.57462 0.80212 0.0
C399 C 0.45002 0.56469 0.75043 0.0
C400 C 0.45615 0.54699 0.75223 0.0
C401 C 0.47056 0.49288 0.63114 0.0
C402 C 0.50057 0.53461 0.63867 0.0
C403 C 0.52731 0.47959 0.55314 0.0
C404 C 0.53635 0.46226 0.54428 0.0
C405 C 0.52936 0.44641 0.5684 0.0
C406 C 0.53856 0.4302 0.56221 0.0
C407 C 0.55476 0.42952 0.53082 0.0
C408 C 0.56163 0.44534 0.50593 0.0
C409 C 0.55254 0.46163 0.51301 0.0
C410 C 0.52642 0.50679 0.73283 0.0
C411 C 0.49701 0.46496 0.72847 0.0
O412 O 0.48654 0.52124 0.80205 0.0
O413 O 0.46161 0.50913 0.77291 0.0
O414 O 0.48399 0.50312 0.63427 0.0
O415 O 0.4647 0.48972 0.68321 0.0
O416 O 0.49351 0.53106 0.69039 0.0
O417 O 0.50625 0.52151 0.60463 0.0
O418 O 0.50984 0.47917 0.5602 0.0
O419 O 0.53514 0.49042 0.58995 0.0
O420 O 0.51302 0.4965 0.72993 0.0
O421 O 0.53238 0.50964 0.68065 0.0
O422 O 0.50422 0.46832 0.67658 0.0
O423 O 0.4909 0.47815 0.76146 0.0
H424 H 0.46172 0.54258 0.89905 0.0
H425 H 0.451 0.57368 0.89629 0.0
H426 H 0.44707 0.57071 0.70853 0.0
H427 H 0.45792 0.53977 0.71165 0.0
H428 H 0.51672 0.44654 0.59169 0.0
H429 H 0.5328 0.41812 0.58081 0.0
H430 H 0.57408 0.44511 0.4814 0.0
H431 H 0.55816 0.47374 0.49416 0.0
Tb432 Tb 0.9961 0.48712 0.71252 0.0
Tb433 Tb 0.00759 0.51197 0.61052 0.0
C434 C 0.98054 0.47237 0.79715 0.0
C435 C 0.96209 0.46598 0.80687 0.0
C436 C 0.94733 0.47567 0.78541 0.0
C437 C 0.93 0.46871 0.79028 0.0
C438 C 0.9271 0.45207 0.81754 0.0
C439 C 0.94182 0.44257 0.84032 0.0
C440 C 0.95922 0.44944 0.83463 0.0
C441 C 0.00785 0.47136 0.61663 0.0
C442 C 0.96641 0.50276 0.62323 0.0
C443 C 0.02189 0.52208 0.51761 0.0
C444 C 0.03768 0.53348 0.5081 0.0
C445 C 0.04602 0.53409 0.45346 0.0
C446 C 0.06188 0.5439 0.44589 0.0
C447 C 0.0696 0.55327 0.49297 0.0
C448 C 0.06092 0.55286 0.54743 0.0
C449 C 0.04516 0.54298 0.55496 0.0
C450 C 1.00319 0.53109 0.70758 0.0
C451 C 0.03616 0.49889 0.7064 0.0
O452 O 0.98271 0.48977 0.79244 0.0
O453 O 0.98961 0.4635 0.75772 0.0
O454 O 0.99804 0.4851 0.61957 0.0
O455 O 0.01097 0.46557 0.66896 0.0
O456 O 0.97015 0.4938 0.67192 0.0
O457 O 0.97908 0.51005 0.59013 0.0
O458 O 0.02538 0.50652 0.54206 0.0
O459 O 0.00794 0.53016 0.54095 0.0
O460 O 1.00135 0.51451 0.69975 0.0
O461 O 0.00762 0.53784 0.65754 0.0
O462 O 0.03317 0.50427 0.65197 0.0
O463 O 0.02298 0.49379 0.74154 0.0
H464 H 0.94917 0.48857 0.76445 0.0
H465 H 0.91883 0.47644 0.77336 0.0
H466 H 0.93989 0.42973 0.86165 0.0
H467 H 0.97046 0.44175 0.85126 0.0
H468 H 0.04051 0.52665 0.41705 0.0
H469 H 0.06837 0.54366 0.40363 0.0
H470 H 0.06638 0.56005 0.5844 0.0
H471 H 0.03898 0.54251 0.5977 0.0
C472 C 0.1222 1.00302 0.18796 0.0
C473 C 0.13657 0.01516 0.19363 0.0
C474 C 0.10786 1.00323 0.22776 0.0
C475 C 0.08726 0.03057 0.34818 0.0
H476 H 0.06853 0.98451 0.39851 0.0
C477 C 0.04964 0.01985 0.56667 0.0
C478 C 0.03462 0.00844 0.5669 0.0
C479 C 0.06013 0.02181 0.51635 0.0
C480 C 0.07344 0.9975 0.38441 0.0
H481 H 0.14704 0.03703 0.2459 0.0
H482 H 0.12243 0.03723 0.31527 0.0
H483 H 0.09031 0.98576 0.3192 0.0
H484 H 0.01847 0.99051 0.51423 0.0
H485 H 0.03697 0.99372 0.42638 0.0
H486 H 0.07085 0.04217 0.41527 0.0
C487 C 0.12183 0.02784 0.27931 0.0
C488 C 0.08591 0.99825 0.33867 0.0
C489 C 0.13603 0.02774 0.23931 0.0
C490 C 0.03001 0.99937 0.51535 0.0
C491 C 0.04065 1.00114 0.46518 0.0
C492 C 0.07494 0.02979 0.39434 0.0
C493 C 0.10762 0.01545 0.27468 0.0
C494 C 0.0932 0.01478 0.32031 0.0
C495 C 0.05595 0.01223 0.46529 0.0
C496 C 0.06803 0.01323 0.41345 0.0
H497 H 0.12214 0.99323 0.15309 0.0
H498 H 0.09705 0.99368 0.22197 0.0
H499 H 0.0922 0.0436 0.33464 0.0
H500 H 0.05347 0.02704 0.60576 0.0
H501 H 0.07189 0.03036 0.51804 0.0
C502 C 0.49474 0.12925 0.21975 0.0
C503 C 0.48738 0.14641 0.22972 0.0
C504 C 0.49253 0.11542 0.26061 0.0
C505 C 0.48407 0.10957 0.41826 0.0
H506 H 0.47993 0.05907 0.37935 0.0
C507 C 0.47751 0.05625 0.59824 0.0
C508 C 0.48806 0.04073 0.59248 0.0
C509 C 0.47537 0.06807 0.55136 0.0
C510 C 0.48121 0.07311 0.39091 0.0
H511 H 0.47113 0.16204 0.28976 0.0
H512 H 0.4668 0.13786 0.35965 0.0
H513 H 0.47942 0.08161 0.3017 0.0
H514 H 0.50404 0.02495 0.53238 0.0
H515 H 0.50048 0.04571 0.45034 0.0
H516 H 0.48612 0.10119 0.5071 0.0
C517 C 0.47464 0.13519 0.3208 0.0
C518 C 0.48091 0.08604 0.34638 0.0
C519 C 0.47689 0.14902 0.2801 0.0
C520 C 0.49583 0.03684 0.53807 0.0
C521 C 0.49373 0.04871 0.49103 0.0
C522 C 0.48435 0.09669 0.4626 0.0
C523 C 0.48286 0.11837 0.3125 0.0
C524 C 0.48237 0.10446 0.3595 0.0
C525 C 0.48378 0.06469 0.49749 0.0
C526 C 0.48295 0.07828 0.44964 0.0
H527 H 0.50269 0.12664 0.1811 0.0
H528 H 0.4991 0.10268 0.25267 0.0
H529 H 0.48568 0.12355 0.4301 0.0
H530 H 0.4712 0.0595 0.63949 0.0
H531 H 0.4673 0.08001 0.55762 0.0
C532 C 0.35121 0.48098 0.27284 0.0
C533 C 0.35324 0.49023 0.21971 0.0
C534 C 0.36574 0.47894 0.31097 0.0
C535 C 0.40849 0.50083 0.34968 0.0
H536 H 0.41546 0.4584 0.44502 0.0
C537 C 0.46468 0.49733 0.52416 0.0
C538 C 0.45964 0.48991 0.57809 0.0
C539 C 0.4534 0.49568 0.47551 0.0
C540 C 0.41364 0.47041 0.41903 0.0
H541 H 0.37258 0.50361 0.16372 0.0
H542 H 0.39788 0.5001 0.2303 0.0
H543 H 0.39265 0.45829 0.36876 0.0
H544 H 0.43918 0.47448 0.62296 0.0
H545 H 0.41949 0.47176 0.53886 0.0
H546 H 0.42912 0.51314 0.40083 0.0
C547 C 0.38494 0.4947 0.24289 0.0
C548 C 0.40056 0.47033 0.37521 0.0
C549 C 0.37041 0.49668 0.20466 0.0
C550 C 0.44343 0.48035 0.58196 0.0
C551 C 0.43218 0.47869 0.53351 0.0
C552 C 0.42154 0.50094 0.39361 0.0
C553 C 0.3827 0.48613 0.29709 0.0
C554 C 0.39763 0.48562 0.34049 0.0
C555 C 0.43687 0.48652 0.47975 0.0
C556 C 0.42411 0.48582 0.42953 0.0
H557 H 0.33816 0.47607 0.28647 0.0
H558 H 0.36346 0.47244 0.35257 0.0
H559 H 0.40646 0.51294 0.32437 0.0
H560 H 0.47714 0.50473 0.51986 0.0
H561 H 0.45758 0.50167 0.43466 0.0
C562 C 0.02935 0.35941 0.23022 0.0
C563 C 0.01497 0.35743 0.19103 0.0
C564 C 0.02916 0.37292 0.2725 0.0
C565 C 0.01031 0.41658 0.31321 0.0
H566 H 0.01894 0.40058 0.47155 0.0
C567 C 1.00007 0.46345 0.51342 0.0
C568 C 0.01052 0.46044 0.56341 0.0
C569 C 1.00119 0.45181 0.46555 0.0
C570 C 0.01686 0.40547 0.42763 0.0
H571 H 0.98933 0.36851 0.16456 0.0
H572 H 0.98918 0.3925 0.2381 0.0
H573 H 0.01994 0.37904 0.39213 0.0
H574 H 0.03104 0.44354 0.6014 0.0
H575 H 0.03376 0.42379 0.51724 0.0
H576 H 0.00771 0.44311 0.34825 0.0
C577 C 1.00056 0.38345 0.23596 0.0
C578 C 0.01731 0.39302 0.38205 0.0
C579 C 1.00061 0.3697 0.19407 0.0
C580 C 0.0227 0.44607 0.56362 0.0
C581 C 0.02408 0.43463 0.51543 0.0
C582 C 0.01016 0.42915 0.35879 0.0
C583 C 0.01468 0.38496 0.27638 0.0
C584 C 0.01404 0.3984 0.32435 0.0
C585 C 0.01303 0.43702 0.46613 0.0
C586 C 0.01344 0.42379 0.41682 0.0
H587 H 0.04049 0.35005 0.22976 0.0
H588 H 0.04028 0.37381 0.30279 0.0
H589 H 0.00786 0.42113 0.26907 0.0
H590 H 0.9905 0.47441 0.51216 0.0
H591 H 0.9923 0.45409 0.429 0.0
C592 C 0.86428 0.97375 0.13973 0.0
C593 C 0.85649 0.9905 0.15255 0.0
C594 C 0.87858 0.97245 0.10002 0.0
C595 C 0.91252 1.0002 0.0192 0.0
H596 H 0.91178 0.96046 0.9103 0.0
C597 C 0.96463 0.99519 0.83219 0.0
C598 C 0.95804 0.98958 0.77783 0.0
C599 C 0.95403 0.99351 0.88249 0.0
C600 C 0.91216 0.97172 0.9401 0.0
H601 H 0.85765 0.019 0.13313 0.0
H602 H 0.88221 0.01675 0.06403 0.0
H603 H 0.89005 0.96139 0.98952 0.0
H604 H 0.93541 0.97743 0.73366 0.0
H605 H 0.91678 0.97492 0.8205 0.0
H606 H 0.93396 0.01104 0.96797 0.0
C607 C 0.87772 0.00461 0.08562 0.0
C608 C 0.89982 0.97211 0.98626 0.0
C609 C 0.86356 0.00592 0.12546 0.0
C610 C 0.94087 0.98185 0.77498 0.0
C611 C 0.93022 0.98029 0.82504 0.0
C612 C 0.92476 0.99987 0.9728 0.0
C613 C 0.88534 0.98785 0.07177 0.0
C614 C 0.89961 0.98652 0.02592 0.0
C615 C 0.93654 0.98628 0.87949 0.0
C616 C 0.92457 0.98578 0.93195 0.0
H617 H 0.85923 0.96163 0.16007 0.0
H618 H 0.88425 0.95934 0.09122 0.0
H619 H 0.91304 0.01136 0.04937 0.0
H620 H 0.97786 1.00114 0.83573 0.0
H621 H 0.95951 0.998 0.92366 0.0
C622 C 0.508 0.87337 0.16422 0.0
C623 C 0.51704 0.85721 0.15204 0.0
C624 C 0.50904 0.88793 0.12564 0.0
C625 C 0.53394 0.90564 0.99602 0.0
H626 H 0.4888 0.9296 0.96354 0.0
C627 C 0.52109 0.94639 0.78527 0.0
C628 C 0.51053 0.96198 0.78895 0.0
C629 C 0.52353 0.93539 0.83412 0.0
C630 C 0.5016 0.92328 0.97264 0.0
H631 H 0.53465 0.84394 0.09014 0.0
H632 H 0.53641 0.86917 0.0231 0.0
H633 H 0.49032 0.90741 0.04129 0.0
H634 H 0.49469 0.97861 0.84702 0.0
H635 H 0.49896 0.95942 0.93248 0.0
H636 H 0.54505 0.92121 0.92607 0.0
C637 C 0.52874 0.87077 0.0629 0.0
C638 C 0.50249 0.91053 0.01742 0.0
C639 C 0.52775 0.85626 0.10154 0.0
C640 C 0.50287 0.96664 0.84286 0.0
C641 C 0.50523 0.95559 0.8917 0.0
C642 C 0.53303 0.91834 0.95106 0.0
C643 C 0.51909 0.88668 0.07374 0.0
C644 C 0.51861 0.90136 0.02928 0.0
C645 C 0.51539 0.93969 0.88775 0.0
C646 C 0.51679 0.92716 0.93832 0.0
H647 H 0.4998 0.87464 0.20306 0.0
H648 H 0.50171 0.90008 0.13606 0.0
H649 H 0.54666 0.89908 0.00447 0.0
H650 H 0.52717 0.94248 0.74426 0.0
H651 H 0.53128 0.92317 0.8293 0.0
C652 C 0.63481 0.49775 0.12554 0.0
C653 C 0.64169 0.51353 0.15073 0.0
C654 C 0.6202 0.4984 0.08738 0.0
C655 C 0.59622 0.52981 0.98886 0.0
H656 H 0.56331 0.48971 0.97491 0.0
C657 C 0.55408 0.51826 0.78166 0.0
C658 C 0.53716 0.51005 0.78607 0.0
C659 C 0.56502 0.5202 0.83076 0.0
C660 C 0.57216 0.50118 0.97857 0.0
H661 H 0.63807 0.54233 0.15702 0.0
H662 H 0.61226 0.54346 0.09135 0.0
H663 H 0.58486 0.49031 0.05439 0.0
H664 H 0.51808 0.498 0.84577 0.0
H665 H 0.53697 0.50177 0.93213 0.0
H666 H 0.58329 0.54086 0.91373 0.0
C667 C 0.61844 0.53058 0.10013 0.0
C668 C 0.58476 0.5014 0.02384 0.0
C669 C 0.6332 0.52995 0.13806 0.0
C670 C 0.53112 0.50431 0.84105 0.0
C671 C 0.54203 0.50636 0.89043 0.0
C672 C 0.58353 0.52967 0.94389 0.0
C673 C 0.61192 0.51484 0.07346 0.0
C674 C 0.59724 0.51553 0.02895 0.0
C675 C 0.55925 0.51412 0.88584 0.0
C676 C 0.57156 0.51516 0.93728 0.0
H677 H 0.64124 0.48491 0.13322 0.0
H678 H 0.6159 0.48602 0.06701 0.0
H679 H 0.60564 0.54087 0.99083 0.0
H680 H 0.55912 0.52281 0.73984 0.0
H681 H 0.57825 0.52596 0.82498 0.0
C682 C 0.00922 0.63327 0.12673 0.0
C683 C 0.99283 0.64222 0.13652 0.0
C684 C 0.01019 0.61869 0.08846 0.0
C685 C 0.98348 0.58522 0.00485 0.0
H686 H 0.02264 0.58934 0.89394 0.0
C687 C 0.99801 0.53367 0.81645 0.0
C688 C 1.00122 0.54167 0.76192 0.0
C689 C 0.99676 0.5443 0.86698 0.0
C690 C 0.01165 0.58795 0.92464 0.0
H691 H 0.96439 0.64196 0.11628 0.0
H692 H 0.96614 0.61659 0.04895 0.0
H693 H 0.02072 0.61031 0.97499 0.0
H694 H 0.00562 0.56702 0.71757 0.0
H695 H 1.00366 0.58536 0.80492 0.0
H696 H 0.97427 0.56301 0.953 0.0
C697 C 0.97824 0.62087 0.0711 0.0
C698 C 0.01063 0.59988 0.9715 0.0
C699 C 0.97726 0.63553 0.10935 0.0
C700 C 1.00315 0.56041 0.75891 0.0
C701 C 1.0021 0.57095 0.80906 0.0
C702 C 0.98461 0.57312 0.95803 0.0
C703 C 0.99482 0.61261 0.05887 0.0
C704 C 0.99642 0.59885 0.01184 0.0
C705 C 0.99902 0.56306 0.86378 0.0
C706 C 0.99854 0.57459 0.9168 0.0
H707 H 0.02155 0.6381 0.14622 0.0
H708 H 0.02314 0.61249 0.0807 0.0
H709 H 0.97243 0.58399 0.03534 0.0
H710 H 0.99679 0.51927 0.82028 0.0
H711 H 0.99449 0.53783 0.90864 0.0
C712 C 0.04713 0.20262 0.34936 0.0
C713 C 0.04214 0.22054 0.35988 0.0
C714 C 0.04489 0.18959 0.39229 0.0
C715 C 0.01348 0.17965 0.50669 0.0
H716 H 0.04202 0.1362 0.51558 0.0
C717 C 0.0082 0.09894 0.56644 0.0
C718 C 0.9922 0.09537 0.53608 0.0
C719 C 0.01526 0.11628 0.56807 0.0
C720 C 0.03398 0.14832 0.5151 0.0
H721 H 0.03257 0.23907 0.4261 0.0
H722 H 0.02813 0.21603 0.50076 0.0
H723 H 0.05548 0.16361 0.47799 0.0
H724 H 0.97054 0.10725 0.48634 0.0
H725 H 0.98306 0.13748 0.48768 0.0
H726 H 0.99172 0.16413 0.54135 0.0
C727 C 0.0337 0.21218 0.45893 0.0
C728 C 0.04169 0.164 0.49311 0.0
C729 C 0.03615 0.22532 0.41604 0.0
C730 C 0.98288 0.10964 0.51009 0.0
C731 C 0.99001 0.12698 0.51131 0.0
C732 C 0.00576 0.16396 0.52882 0.0
C733 C 0.03748 0.19409 0.4467 0.0
C734 C 0.03124 0.17953 0.48575 0.0
C735 C 0.00654 0.13039 0.53895 0.0
C736 C 0.01567 0.1479 0.53033 0.0
H737 H 0.05151 0.1983 0.3066 0.0
H738 H 0.04768 0.17573 0.38111 0.0
H739 H 0.00506 0.19141 0.5015 0.0
H740 H 0.01544 0.08823 0.58817 0.0
H741 H 0.02784 0.11853 0.5906 0.0
C742 C 0.27316 0.98803 0.41871 0.0
C743 C 0.26654 0.00505 0.40371 0.0
C744 C 0.28557 0.98617 0.46377 0.0
C745 C 0.32146 0.01341 0.52365 0.0
H746 H 0.33296 0.96886 0.60284 0.0
C747 C 0.39359 0.99894 0.58956 0.0
C748 C 0.39982 0.98241 0.56793 0.0
C749 C 0.37521 1.0023 0.59428 0.0
C750 C 0.32986 0.98146 0.58143 0.0
H751 H 0.26594 0.03314 0.42805 0.0
H752 H 0.28741 0.02989 0.50783 0.0
H753 H 0.30232 0.97416 0.56873 0.0
H754 H 0.39173 0.95616 0.5368 0.0
H755 H 0.35963 0.96218 0.54337 0.0
H756 H 0.34906 0.02034 0.53318 0.0
C757 C 0.28342 0.01804 0.48375 0.0
C758 C 0.31234 0.9845 0.56193 0.0
C759 C 0.27115 0.01992 0.43819 0.0
C760 C 0.38732 0.969 0.55377 0.0
C761 C 0.36893 0.97241 0.55803 0.0
C762 C 0.33889 0.01041 0.54331 0.0
C763 C 0.2915 1.00131 0.49496 0.0
C764 C 0.30819 1.00012 0.53017 0.0
C765 C 0.36268 0.98928 0.57683 0.0
C766 C 0.34348 0.99404 0.56983 0.0
H767 H 0.26988 0.97635 0.39265 0.0
H768 H 0.2916 0.9731 0.47063 0.0
H769 H 0.31889 0.02552 0.49884 0.0
H770 H 0.40293 0.00936 0.60233 0.0
H771 H 0.37081 0.01531 0.60981 0.0
C772 C 0.55442 0.28313 0.38643 0.0
C773 C 0.56698 0.27533 0.34835 0.0
C774 C 0.55928 0.29748 0.42194 0.0
C775 C 0.59102 0.33497 0.42077 0.0
H776 H 0.56355 0.34752 0.55844 0.0
C777 C 0.56833 0.40661 0.46489 0.0
C778 C 0.56383 0.4121 0.52149 0.0
C779 C 0.57465 0.38925 0.45477 0.0
C780 C 0.57176 0.34426 0.52091 0.0
H781 H 0.59486 0.27552 0.32102 0.0
H782 H 0.6035 0.30056 0.38402 0.0
H783 H 0.56437 0.31659 0.52607 0.0
H784 H 0.56361 0.40437 0.6125 0.0
H785 H 0.57528 0.37416 0.5953 0.0
H786 H 0.59848 0.36264 0.41577 0.0
C787 C 0.58977 0.29579 0.38542 0.0
C788 C 0.572 0.32648 0.50181 0.0
C789 C 0.58485 0.28144 0.34943 0.0
C790 C 0.56678 0.40031 0.56831 0.0
C791 C 0.5734 0.38302 0.55835 0.0
C792 C 0.59105 0.35271 0.44049 0.0
C793 C 0.57687 0.30438 0.42062 0.0
C794 C 0.58075 0.32181 0.44962 0.0
C795 C 0.57686 0.37705 0.5012 0.0
C796 C 0.58058 0.35777 0.48889 0.0
H797 H 0.54047 0.27899 0.38603 0.0
H798 H 0.54884 0.30389 0.4474 0.0
H799 H 0.59798 0.33193 0.38049 0.0
H800 H 0.56603 0.41541 0.42802 0.0
H801 H 0.5768 0.38515 0.41004 0.0
C802 C 0.20536 0.58364 0.27667 0.0
C803 C 0.22166 0.57797 0.30166 0.0
C804 C 0.19077 0.58822 0.31178 0.0
C805 C 0.17195 0.5733 0.44736 0.0
H806 H 0.13393 0.60667 0.40713 0.0
C807 C 0.10026 0.56157 0.52979 0.0
C808 C 0.08711 0.56262 0.48594 0.0
C809 C 0.11734 0.56885 0.52091 0.0
C810 C 0.14443 0.5973 0.41906 0.0
H811 H 0.23589 0.5746 0.38351 0.0
H812 H 0.21009 0.58209 0.4449 0.0
H813 H 0.16401 0.61091 0.36657 0.0
H814 H 0.08126 0.57318 0.39991 0.0
H815 H 0.11119 0.5852 0.38341 0.0
H816 H 0.15227 0.5589 0.4963 0.0
C817 C 0.2087 0.58285 0.39796 0.0
C818 C 0.16166 0.5998 0.39612 0.0
C819 C 0.22341 0.57846 0.36275 0.0
C820 C 0.09118 0.57185 0.43415 0.0
C821 C 0.10829 0.57902 0.42512 0.0
C822 C 0.15473 0.57072 0.46994 0.0
C823 C 0.19204 0.5871 0.37272 0.0
C824 C 0.17538 0.58739 0.40815 0.0
C825 C 0.12171 0.57724 0.46784 0.0
C826 C 0.14058 0.58226 0.45408 0.0
H827 H 0.20331 0.58322 0.22998 0.0
H828 H 0.17806 0.59122 0.29096 0.0
H829 H 0.18219 0.56339 0.45694 0.0
H830 H 0.09764 0.55446 0.57012 0.0
H831 H 0.12729 0.56743 0.555 0.0
C832 C 0.07761 0.77912 0.99354 0.0
C833 C 0.0594 0.77423 0.99692 0.0
C834 C 0.08309 0.79317 0.95704 0.0
C835 C 0.08633 0.83234 0.92254 0.0
H836 H 0.05853 0.84682 0.78783 0.0
C837 C 0.0662 0.90494 0.88363 0.0
C838 C 0.06142 0.91085 0.82774 0.0
C839 C 0.07214 0.88737 0.89227 0.0
C840 C 0.06684 0.84299 0.82447 0.0
H841 H 0.03281 0.77969 0.96256 0.0
H842 H 0.04216 0.80406 0.90015 0.0
H843 H 0.05788 0.81578 0.81943 0.0
H844 H 0.06046 0.90367 0.73633 0.0
H845 H 0.07141 0.87308 0.75096 0.0
H846 H 0.09527 0.85957 0.92765 0.0
C847 C 0.05241 0.79692 0.92431 0.0
C848 C 0.06625 0.82516 0.84311 0.0
C849 C 0.04699 0.78289 0.96041 0.0
C850 C 0.06384 0.8993 0.78002 0.0
C851 C 0.07005 0.88178 0.7885 0.0
C852 C 0.08717 0.85012 0.9033 0.0
C853 C 0.07042 0.80265 0.92353 0.0
C854 C 0.07513 0.81987 0.89437 0.0
C855 C 0.07365 0.87538 0.84503 0.0
C856 C 0.07661 0.85589 0.85607 0.0
H857 H 0.08752 0.77251 0.02062 0.0
H858 H 0.09711 0.79704 0.95677 0.0
H859 H 0.09342 0.82879 0.9621 0.0
H860 H 0.06432 0.91356 0.92118 0.0
H861 H 0.07445 0.88294 0.93658 0.0
C862 C 0.72334 0.07767 0.00721 0.0
C863 C 0.72996 0.06 0.01035 0.0
C864 C 0.70945 0.08198 0.96861 0.0
C865 C 0.6808 0.06275 0.84956 0.0
H866 H 0.64211 0.08525 0.93625 0.0
C867 C 0.60844 0.03885 0.8471 0.0
C868 C 0.59433 0.05133 0.842 0.0
C869 C 0.6262 0.04462 0.85092 0.0
C870 C 0.65286 0.07934 0.91075 0.0
H871 H 0.72791 0.03333 0.97276 0.0
H872 H 0.70392 0.04071 0.90655 0.0
H873 H 0.67281 0.08767 0.97172 0.0
H874 H 0.5881 0.07979 0.83587 0.0
H875 H 0.61924 0.08983 0.84612 0.0
H876 H 0.66042 0.05299 0.7918 0.0
C877 C 0.70953 0.05142 0.93275 0.0
C878 C 0.6705 0.08077 0.93088 0.0
C879 C 0.72336 0.04714 0.97106 0.0
C880 C 0.59853 0.06978 0.84079 0.0
C881 C 0.61635 0.07557 0.84591 0.0
C882 C 0.66314 0.0611 0.82999 0.0
C883 C 0.7019 0.0687 0.9326 0.0
C884 C 0.68454 0.07168 0.9022 0.0
C885 C 0.63029 0.063 0.85093 0.0
C886 C 0.64897 0.06868 0.86201 0.0
H887 H 0.72837 0.08795 0.03628 0.0
H888 H 0.70407 0.0955 0.96889 0.0
H889 H 0.69137 0.05597 0.82562 0.0
H890 H 0.60582 0.02457 0.84972 0.0
H891 H 0.63671 0.03468 0.85619 0.0
C892 C 0.46683 0.7264 0.93438 0.0
C893 C 0.45774 0.7274 0.98787 0.0
C894 C 0.46144 0.71404 0.89215 0.0
C895 C 0.4274 0.67813 0.85985 0.0
H896 H 0.46983 0.65227 0.80913 0.0
C897 C 0.45238 0.60529 0.7594 0.0
C898 C 0.44378 0.59402 0.79999 0.0
C899 C 0.45044 0.6239 0.76294 0.0
C900 C 0.45777 0.65948 0.82147 0.0
H901 H 0.43523 0.71739 0.03801 0.0
H902 H 0.42619 0.6953 0.96571 0.0
H903 H 0.47301 0.68196 0.85011 0.0
H904 H 0.42524 0.59329 0.87289 0.0
H905 H 0.42209 0.62581 0.8798 0.0
H906 H 0.4124 0.65478 0.83484 0.0
C907 C 0.43716 0.70428 0.95511 0.0
C908 C 0.45957 0.67663 0.84497 0.0
C909 C 0.44237 0.71688 0.99684 0.0
C910 C 0.43223 0.60167 0.84159 0.0
C911 C 0.43024 0.62028 0.84501 0.0
C912 C 0.42562 0.66084 0.83676 0.0
C913 C 0.44714 0.70215 0.90333 0.0
C914 C 0.4445 0.68591 0.86657 0.0
C915 C 0.43983 0.63161 0.80704 0.0
C916 C 0.44089 0.65111 0.81934 0.0
H917 H 0.47863 0.73457 0.92643 0.0
H918 H 0.46913 0.71312 0.85215 0.0
H919 H 0.41546 0.68504 0.87488 0.0
H920 H 0.46144 0.5998 0.72697 0.0
H921 H 0.45789 0.63231 0.73284 0.0
C922 C 0.77584 0.43238 0.98757 0.0
C923 C 0.77164 0.45061 0.9955 0.0
C924 C 0.78961 0.4273 0.9494 0.0
C925 C 0.82244 0.44576 0.84024 0.0
H926 H 0.85525 0.41285 0.91624 0.0
C927 C 0.89682 0.44497 0.77629 0.0
C928 C 0.90863 0.44507 0.82397 0.0
C929 C 0.87883 0.44014 0.78386 0.0
C930 C 0.84626 0.42208 0.89434 0.0
H931 H 0.7779 0.47773 0.96747 0.0
H932 H 0.80191 0.46906 0.90245 0.0
H933 H 0.82459 0.4153 0.95117 0.0
H934 H 0.91119 0.43968 0.9163 0.0
H935 H 0.87978 0.43195 0.93031 0.0
H936 H 0.84456 0.45386 0.78729 0.0
C937 C 0.79443 0.45851 0.92416 0.0
C938 C 0.82852 0.42327 0.91376 0.0
C939 C 0.78063 0.46354 0.96179 0.0
C940 C 0.90237 0.43956 0.87878 0.0
C941 C 0.88435 0.435 0.88658 0.0
C942 C 0.84026 0.44481 0.82152 0.0
C943 C 0.79954 0.44039 0.91895 0.0
C944 C 0.81663 0.43577 0.88877 0.0
C945 C 0.87223 0.43561 0.83949 0.0
C946 C 0.85261 0.43357 0.8502 0.0
H947 H 0.76895 0.42211 0.0125 0.0
H948 H 0.79296 0.4132 0.9456 0.0
H949 H 0.81351 0.45517 0.8189 0.0
H950 H 0.90144 0.44895 0.73337 0.0
H951 H 0.87 0.44043 0.7464 0.0
C952 C 0.99591 0.18812 0.90877 0.0
C953 C 0.01062 0.19898 0.89312 0.0
C954 C 0.99391 0.17085 0.88537 0.0
C955 C 0.00924 0.14047 0.76614 0.0
H956 H 0.99558 0.10296 0.8749 0.0
C957 C 0.99542 0.06689 0.6934 0.0
C958 C 1.00155 0.05303 0.73008 0.0
C959 C 0.99616 0.08488 0.71128 0.0
C960 C 0.99952 0.11322 0.84393 0.0
H961 H 0.03432 0.20034 0.83816 0.0
H962 H 0.03092 0.17021 0.79776 0.0
H963 H 0.99728 0.13396 0.90808 0.0
H964 H 0.01345 0.04737 0.81433 0.0
H965 H 0.015 0.07867 0.84508 0.0
H966 H 0.01181 0.11959 0.70228 0.0
C967 C 0.02087 0.17507 0.8281 0.0
C968 C 1.00026 0.13109 0.86282 0.0
C969 C 0.02291 0.19232 0.85169 0.0
C970 C 0.00855 0.05765 0.78496 0.0
C971 C 0.00934 0.07563 0.80276 0.0
C972 C 0.00842 0.12257 0.74715 0.0
C973 C 0.00654 0.16394 0.8455 0.0
C974 C 0.0052 0.14498 0.82432 0.0
C975 C 1.00309 0.08951 0.76629 0.0
C976 C 1.00366 0.10867 0.78592 0.0
H977 H 0.98627 0.19266 0.94094 0.0
H978 H 0.98255 0.16281 0.89917 0.0
H979 H 0.01295 0.15079 0.7351 0.0
H980 H 0.98981 0.06383 0.65108 0.0
H981 H 0.99094 0.09514 0.68242 0.0
C982 C 0.30641 0.02219 0.88387 0.0
C983 C 0.29966 0.00841 0.91979 0.0
C984 C 0.32376 0.02106 0.8601 0.0
C985 C 0.36782 1.00022 0.88797 0.0
H986 H 0.37889 0.01421 0.72907 0.0
C987 C 0.44094 0.01085 0.80752 0.0
C988 C 0.44542 0.00414 0.75205 0.0
C989 C 0.42303 0.01115 0.82653 0.0
C990 C 0.37602 0.01018 0.77349 0.0
H991 H 0.30593 0.98256 0.95832 0.0
H992 H 0.33609 0.98061 0.9169 0.0
H993 H 0.34771 0.01471 0.76314 0.0
H994 H 0.43442 0.99239 0.67331 0.0
H995 H 0.40329 0.99263 0.70706 0.0
H996 H 0.39606 0.9957 0.89849 0.0
C997 C 0.32798 0.9923 0.90713 0.0
C998 C 0.35816 0.0106 0.79314 0.0
C999 C 0.31058 0.99333 0.93035 0.0
C1000 C 0.4315 0.99777 0.7161 0.0
C1001 C 0.4136 0.99803 0.73522 0.0
C1002 C 0.38567 0.99997 0.86854 0.0
C1003 C 0.33488 0.00624 0.87227 0.0
C1004 C 0.35383 0.00561 0.85066 0.0
C1005 C 0.40911 0.00475 0.79063 0.0
C1006 C 0.39003 0.00496 0.81107 0.0
H1007 H 0.29834 0.03395 0.87463 0.0
H1008 H 0.32868 0.03209 0.83368 0.0
H1009 H 0.36501 0.99645 0.93268 0.0
H1010 H 0.45126 0.01589 0.83641 0.0
H1011 H 0.42006 0.01658 0.86927 0.0
C1012 C 0.48573 0.31555 0.96028 0.0
C1013 C 0.49625 0.30222 0.93328 0.0
C1014 C 0.4844 0.33279 0.93611 0.0
C1015 C 0.49265 0.3593 0.80058 0.0
H1016 H 0.49575 0.39933 0.90809 0.0
C1017 C 0.50575 0.4323 0.72294 0.0
C1018 C 0.49635 0.44622 0.751 0.0
C1019 C 0.50497 0.41466 0.7441 0.0
C1020 C 0.49464 0.38834 0.87741 0.0
H1021 H 0.51287 0.29646 0.85784 0.0
H1022 H 0.5108 0.32652 0.8163 0.0
H1023 H 0.49513 0.36875 0.94571 0.0
H1024 H 0.47875 0.45237 0.82377 0.0
H1025 H 0.47733 0.42168 0.86046 0.0
H1026 H 0.49236 0.37895 0.73225 0.0
C1027 C 0.50348 0.32366 0.85608 0.0
C1028 C 0.49425 0.37075 0.89904 0.0
C1029 C 0.50482 0.30642 0.88024 0.0
C1030 C 0.48623 0.44204 0.80107 0.0
C1031 C 0.48547 0.42441 0.82229 0.0
C1032 C 0.49307 0.37691 0.77894 0.0
C1033 C 0.49353 0.33719 0.88425 0.0
C1034 C 0.4933 0.35596 0.86096 0.0
C1035 C 0.49481 0.41046 0.79409 0.0
C1036 C 0.49412 0.39167 0.81706 0.0
H1037 H 0.47907 0.31292 1.00142 0.0
H1038 H 0.47637 0.34275 0.95858 0.0
H1039 H 0.49167 0.34829 0.76992 0.0
H1040 H 0.51394 0.43502 0.68505 0.0
H1041 H 0.51261 0.40435 0.7218 0.0
C1042 C 0.19516 0.50491 0.85923 0.0
C1043 C 0.19849 0.498 0.91534 0.0
C1044 C 0.17797 0.50395 0.83455 0.0
C1045 C 0.13019 0.50005 0.87765 0.0
H1046 H 0.12224 0.49087 0.71338 0.0
C1047 C 0.05871 0.49123 0.78404 0.0
C1048 C 0.05493 0.49852 0.72881 0.0
C1049 C 0.07631 0.49077 0.80539 0.0
C1050 C 0.12421 0.49368 0.75924 0.0
H1051 H 0.18623 0.48425 0.98873 0.0
H1052 H 0.15644 0.48227 0.94533 0.0
H1053 H 0.15275 0.49015 0.75238 0.0
H1054 H 0.0669 0.51116 0.65284 0.0
H1055 H 0.09756 0.51061 0.69046 0.0
H1056 H 0.10176 0.50376 0.88463 0.0
C1057 C 0.16709 0.48865 0.92064 0.0
C1058 C 0.14174 0.49322 0.78165 0.0
C1059 C 0.18428 0.48956 0.94523 0.0
C1060 C 0.06928 0.50536 0.69546 0.0
C1061 C 0.08691 0.50495 0.71695 0.0
C1062 C 0.11271 0.50055 0.85527 0.0
C1063 C 0.16361 0.49612 0.86541 0.0
C1064 C 0.14496 0.49635 0.84123 0.0
C1065 C 0.09068 0.49767 0.7723 0.0
C1066 C 0.10943 0.49732 0.79577 0.0
H1067 H 0.2058 0.51136 0.83468 0.0
H1068 H 0.17581 0.50992 0.79207 0.0
H1069 H 0.13215 0.5029 0.92349 0.0
H1070 H 0.04807 0.48572 0.81091 0.0
H1071 H 0.07866 0.48478 0.84773 0.0
C1072 C 0.98195 0.81339 0.40644 0.0
C1073 C 0.99435 0.80083 0.42847 0.0
C1074 C 0.98041 0.83052 0.43118 0.0
C1075 C 0.99237 0.85772 0.56231 0.0
H1076 H 0.98762 0.89776 0.45529 0.0
C1077 C 1.00376 0.93166 0.63316 0.0
C1078 C 0.99226 0.94486 0.61014 0.0
C1079 C 1.00312 0.91392 0.61286 0.0
C1080 C 0.98872 0.88675 0.48595 0.0
H1081 H 0.01424 0.79636 0.49596 0.0
H1082 H 0.01183 0.82626 0.53822 0.0
H1083 H 0.9877 0.86719 0.41774 0.0
H1084 H 0.97101 0.94962 0.54737 0.0
H1085 H 0.96986 0.91875 0.51212 0.0
H1086 H 0.99365 0.87737 0.63044 0.0
C1087 C 1.00318 0.82285 0.50199 0.0
C1088 C 0.98873 0.86915 0.46438 0.0
C1089 C 0.00469 0.80571 0.4773 0.0
C1090 C 0.98012 0.93985 0.5661 0.0
C1091 C 0.9795 0.92213 0.54567 0.0
C1092 C 0.99241 0.87533 0.58388 0.0
C1093 C 0.99124 0.83563 0.47865 0.0
C1094 C 0.99061 0.85437 0.50219 0.0
C1095 C 0.99102 0.90892 0.56868 0.0
C1096 C 0.99064 0.8901 0.54597 0.0
H1097 H 0.97387 0.81025 0.36859 0.0
H1098 H 0.97085 0.83986 0.41257 0.0
H1099 H 0.99359 0.84671 0.59293 0.0
H1100 H 0.01356 0.93505 0.66609 0.0
H1101 H 0.01241 0.90422 0.63094 0.0
C1102 C 0.69353 0.00674 0.49425 0.0
C1103 C 0.6976 0.99704 0.44326 0.0
C1104 C 0.67636 0.00591 0.51922 0.0
C1105 C 0.63368 0.97977 0.52027 0.0
H1106 H 0.61307 0.02479 0.57265 0.0
C1107 C 0.55795 0.98719 0.57543 0.0
C1108 C 0.55315 0.99805 0.62314 0.0
C1109 C 0.57575 0.98655 0.55554 0.0
C1110 C 0.61866 0.01204 0.55902 0.0
H1111 H 0.68673 0.97851 0.37951 0.0
H1112 H 0.65688 0.977 0.42313 0.0
H1113 H 0.64376 0.02415 0.53589 0.0
H1114 H 0.56341 0.01705 0.68636 0.0
H1115 H 0.59443 0.01563 0.65281 0.0
H1116 H 0.60851 0.96768 0.54315 0.0
C1117 C 0.66702 0.98514 0.4442 0.0
C1118 C 0.63632 0.01167 0.5379 0.0
C1119 C 0.6842 0.98597 0.4192 0.0
C1120 C 0.56662 0.00832 0.65018 0.0
C1121 C 0.58442 0.00768 0.63036 0.0
C1122 C 0.61601 0.98014 0.54147 0.0
C1123 C 0.66276 0.99535 0.49396 0.0
C1124 C 0.64408 0.99554 0.51807 0.0
C1125 C 0.58925 0.99679 0.58271 0.0
C1126 C 0.60821 0.99629 0.56098 0.0
H1127 H 0.70357 0.01518 0.51456 0.0
H1128 H 0.67372 0.01366 0.55822 0.0
H1129 H 0.63926 0.96706 0.50613 0.0
H1130 H 0.54795 0.97912 0.55335 0.0
H1131 H 0.57887 0.97821 0.51821 0.0
C1132 C 0.50291 0.69473 0.49251 0.0
C1133 C 0.511 0.69738 0.43766 0.0
C1134 C 0.5026 0.67766 0.51837 0.0
C1135 C 0.52354 0.63216 0.51002 0.0
H1136 H 0.47968 0.61678 0.58668 0.0
C1137 C 0.50983 0.55764 0.56432 0.0
C1138 C 0.50174 0.55354 0.61815 0.0
C1139 C 0.51128 0.57546 0.54533 0.0
C1140 C 0.49211 0.62092 0.56604 0.0
H1141 H 0.52509 0.68397 0.36721 0.0
H1142 H 0.52452 0.65438 0.41196 0.0
H1143 H 0.48205 0.64736 0.54919 0.0
H1144 H 0.48877 0.56512 0.69413 0.0
H1145 H 0.49129 0.59617 0.66091 0.0
H1146 H 0.5335 0.60564 0.52612 0.0
C1147 C 0.51871 0.66553 0.43571 0.0
C1148 C 0.4935 0.6385 0.54459 0.0
C1149 C 0.51906 0.68257 0.40998 0.0
C1150 C 0.49502 0.56774 0.65234 0.0
C1151 C 0.49641 0.58557 0.63318 0.0
C1152 C 0.52213 0.61458 0.53126 0.0
C1153 C 0.51031 0.66276 0.49001 0.0
C1154 C 0.50917 0.64433 0.51577 0.0
C1155 C 0.50465 0.58968 0.57953 0.0
C1156 C 0.50634 0.60866 0.55904 0.0
H1157 H 0.49674 0.70586 0.5154 0.0
H1158 H 0.49628 0.67615 0.56064 0.0
H1159 H 0.53596 0.63622 0.48919 0.0
H1160 H 0.51512 0.54709 0.53673 0.0
H1161 H 0.51746 0.57807 0.50339 0.0
C1162 C 0.81519 0.51902 0.41126 0.0
C1163 C 0.80191 0.50763 0.43465 0.0
C1164 C 0.83249 0.51953 0.43525 0.0
C1165 C 0.86363 0.49178 0.52334 0.0
H1166 H 0.89165 0.53558 0.53181 0.0
C1167 C 0.93395 0.49348 0.63074 0.0
C1168 C 0.94735 0.50393 0.6038 0.0
C1169 C 0.91604 0.4945 0.61241 0.0
C1170 C 0.88409 0.52318 0.5292 0.0
H1171 H 0.79629 0.48856 0.50379 0.0
H1172 H 0.82636 0.48953 0.54577 0.0
H1173 H 0.86067 0.53674 0.49728 0.0
H1174 H 0.95228 0.52362 0.53588 0.0
H1175 H 0.92114 0.5252 0.50336 0.0
H1176 H 0.88704 0.47818 0.55471 0.0
C1177 C 0.82352 0.49779 0.50802 0.0
C1178 C 0.86628 0.52386 0.50943 0.0
C1179 C 0.80623 0.49727 0.48403 0.0
C1180 C 0.94235 0.51539 0.55782 0.0
C1181 C 0.92442 0.51641 0.53944 0.0
C1182 C 0.88142 0.4911 0.54306 0.0
C1183 C 0.837 0.50867 0.48332 0.0
C1184 C 0.85581 0.50815 0.50608 0.0
C1185 C 0.91101 0.50596 0.56641 0.0
C1186 C 0.89193 0.50678 0.54614 0.0
H1187 H 0.81247 0.52699 0.37275 0.0
H1188 H 0.84253 0.52794 0.41461 0.0
H1189 H 0.85614 0.47934 0.52035 0.0
H1190 H 0.93728 0.48432 0.66567 0.0
H1191 H 0.90611 0.48637 0.6347 0.0
loop_
_geom_bond_atom_site_label_1
_geom_bond_atom_site_label_2
_geom_bond_distance
_geom_bond_site_symmetry_2
_ccdc_geom_bond_type
C0 C1 1.386 . S
C0 C2 1.397 . S
C0 H24 0.931 . S
C1 C0 1.386 . S
C1 C5 1.397 . S
C2 C0 1.397 . S
C2 C3 1.384 . S
C2 H25 0.930 . S
C3 C2 1.384 . S
C3 C4 1.377 . S
C3 C6 1.481 . S
C4 C3 1.377 . S
C4 C5 1.389 . S
C4 H26 0.929 . S
C5 C1 1.397 . S
C5 C4 1.389 . S
C5 H27 0.931 . S
C6 C3 1.481 . S
C6 C7 1.387 . S
C6 C11 1.390 . S
C7 C6 1.387 . S
C7 C8 1.401 . S
C7 H28 0.930 . S
C8 C7 1.401 . S
C8 C9 1.376 . S
C8 C17 1.511 . S
C9 C8 1.376 . S
C9 C10 1.392 . S
C9 H30 0.931 . S
C10 C9 1.392 . S
C10 C11 1.361 . S
C10 C12 1.500 . S
C11 C6 1.390 . S
C11 C10 1.361 . S
C11 H29 0.931 . S
C12 C10 1.500 . S
C12 C13 1.371 . S
C12 C14 1.365 . S
C13 C12 1.371 . S
C13 C23 1.386 . S
C13 H31 0.931 . S
C14 C12 1.365 . S
C14 C15 1.409 . S
C14 H32 0.929 . S
C15 C14 1.409 . S
C15 C16 1.380 . S
C15 H33 0.930 . S
C16 C15 1.380 . S
C16 C23 1.357 . S
C17 C8 1.511 . S
C17 C18 1.341 . S
C17 C19 1.371 . S
C18 C17 1.341 . S
C18 C22 1.394 . S
C18 H34 0.930 . S
C19 C17 1.371 . S
C19 C20 1.392 . S
C19 H35 0.931 . S
C20 C19 1.392 . S
C20 C21 1.331 . S
C20 H38 0.932 . S
C21 C20 1.331 . S
C21 C22 1.336 . S
C22 C18 1.394 . S
C22 C21 1.336 . S
C22 H37 0.929 . S
C23 C13 1.386 . S
C23 C16 1.357 . S
C23 H36 0.928 . S
H24 C0 0.931 . S
H25 C2 0.930 . S
H26 C4 0.929 . S
H27 C5 0.931 . S
H28 C7 0.930 . S
H29 C11 0.931 . S
H30 C9 0.931 . S
H31 C13 0.931 . S
H32 C14 0.929 . S
H33 C15 0.930 . S
H34 C18 0.930 . S
H35 C19 0.931 . S
H36 C23 0.928 . S
H37 C22 0.929 . S
H38 C20 0.932 . S
C39 C40 1.394 . S
C39 C41 1.397 . S
C39 H63 0.931 . S
C40 C39 1.394 . S
C40 C44 1.389 1_655 S
C41 C39 1.397 . S
C41 C42 1.389 . S
C41 H64 0.930 . S
C42 C41 1.389 . S
C42 C43 1.373 1_655 S
C42 C45 1.480 . S
C43 C42 1.373 1_455 S
C43 C44 1.389 . S
C43 H65 0.929 . S
C44 C40 1.389 1_455 S
C44 C43 1.389 . S
C44 H66 0.931 . S
C45 C42 1.480 . S
C45 C46 1.388 . S
C45 C50 1.390 . S
C46 C45 1.388 . S
C46 C47 1.402 . S
C46 H67 0.930 . S
C47 C46 1.402 . S
C47 C48 1.376 . S
C47 C56 1.513 . S
C48 C47 1.376 . S
C48 C49 1.392 . S
C48 H69 0.934 . S
C49 C48 1.392 . S
C49 C50 1.361 . S
C49 C51 1.499 1_655 S
C50 C45 1.390 . S
C50 C49 1.361 . S
C50 H68 0.931 . S
C51 C49 1.499 1_455 S
C51 C52 1.364 1_455 S
C51 C53 1.373 . S
C52 C51 1.364 1_655 S
C52 C62 1.386 . S
C52 H70 0.931 . S
C53 C51 1.373 . S
C53 C54 1.409 . S
C53 H71 0.929 . S
C54 C53 1.409 . S
C54 C55 1.378 . S
C54 H72 0.930 . S
C55 C54 1.378 . S
C55 C62 1.360 1_455 S
C56 C47 1.513 . S
C56 C57 1.341 . S
C56 C58 1.371 1_655 S
C57 C56 1.341 . S
C57 C61 1.394 . S
C57 H73 0.930 . S
C58 C56 1.371 1_455 S
C58 C59 1.392 . S
C58 H74 0.931 . S
C59 C58 1.392 . S
C59 C60 1.322 1_455 S
C59 H77 0.932 . S
C60 C59 1.322 1_655 S
C60 C61 1.345 . S
C61 C57 1.394 . S
C61 C60 1.345 . S
C61 H76 0.929 . S
C62 C52 1.386 . S
C62 C55 1.360 1_655 S
C62 H75 0.928 . S
H63 C39 0.931 . S
H64 C41 0.930 . S
H65 C43 0.929 . S
H66 C44 0.931 . S
H67 C46 0.930 . S
H68 C50 0.931 . S
H69 C48 0.934 . S
H70 C52 0.931 . S
H71 C53 0.929 . S
H72 C54 0.930 . S
H73 C57 0.930 . S
H74 C58 0.931 . S
H75 C62 0.928 . S
H76 C61 0.929 . S
H77 C59 0.932 . S
C78 C79 1.394 . S
C78 C80 1.397 . S
C78 H102 0.931 . S
C79 C78 1.394 . S
C79 C83 1.389 1_565 S
C80 C78 1.397 . S
C80 C81 1.389 . S
C80 H103 0.930 . S
C81 C80 1.389 . S
C81 C82 1.373 1_565 S
C81 C84 1.480 . S
C82 C81 1.373 1_545 S
C82 C83 1.389 . S
C82 H104 0.929 . S
C83 C79 1.389 1_545 S
C83 C82 1.389 . S
C83 H105 0.931 . S
C84 C81 1.480 . S
C84 C85 1.388 . S
C84 C89 1.390 . S
C85 C84 1.388 . S
C85 C86 1.402 . S
C85 H106 0.930 . S
C86 C85 1.402 . S
C86 C87 1.376 . S
C86 C95 1.513 . S
C87 C86 1.376 . S
C87 C88 1.392 . S
C87 H108 0.934 . S
C88 C87 1.392 . S
C88 C89 1.361 . S
C88 C90 1.499 1_565 S
C89 C84 1.390 . S
C89 C88 1.361 . S
C89 H107 0.931 . S
C90 C88 1.499 1_545 S
C90 C91 1.364 1_545 S
C90 C92 1.373 . S
C91 C90 1.364 1_565 S
C91 C101 1.386 . S
C91 H109 0.931 . S
C92 C90 1.373 . S
C92 C93 1.409 . S
C92 H110 0.929 . S
C93 C92 1.409 . S
C93 C94 1.378 . S
C93 H111 0.930 . S
C94 C93 1.378 . S
C94 C101 1.360 1_545 S
C95 C86 1.513 . S
C95 C96 1.341 . S
C95 C97 1.371 1_565 S
C96 C95 1.341 . S
C96 C100 1.394 . S
C96 H112 0.930 . S
C97 C95 1.371 1_545 S
C97 C98 1.392 . S
C97 H113 0.931 . S
C98 C97 1.392 . S
C98 C99 1.322 1_545 S
C98 H116 0.932 . S
C99 C98 1.322 1_565 S
C99 C100 1.345 . S
C100 C96 1.394 . S
C100 C99 1.345 . S
C100 H115 0.929 . S
C101 C91 1.386 . S
C101 C94 1.360 1_565 S
C101 H114 0.928 . S
H102 C78 0.931 . S
H103 C80 0.930 . S
H104 C82 0.929 . S
H105 C83 0.931 . S
H106 C85 0.930 . S
H107 C89 0.931 . S
H108 C87 0.934 . S
H109 C91 0.931 . S
H110 C92 0.929 . S
H111 C93 0.930 . S
H112 C96 0.930 . S
H113 C97 0.931 . S
H114 C101 0.928 . S
H115 C100 0.929 . S
H116 C98 0.932 . S
C117 C118 1.386 . S
C117 C119 1.397 . S
C117 H141 0.931 . S
C118 C117 1.386 . S
C118 C122 1.397 . S
C119 C117 1.397 . S
C119 C120 1.384 . S
C119 H142 0.930 . S
C120 C119 1.384 . S
C120 C121 1.377 . S
C120 C123 1.481 . S
C121 C120 1.377 . S
C121 C122 1.389 . S
C121 H143 0.929 . S
C122 C118 1.397 . S
C122 C121 1.389 . S
C122 H144 0.931 . S
C123 C120 1.481 . S
C123 C124 1.387 . S
C123 C128 1.390 . S
C124 C123 1.387 . S
C124 C125 1.401 . S
C124 H145 0.930 . S
C125 C124 1.401 . S
C125 C126 1.376 . S
C125 C134 1.511 . S
C126 C125 1.376 . S
C126 C127 1.392 . S
C126 H147 0.931 . S
C127 C126 1.392 . S
C127 C128 1.361 . S
C127 C129 1.500 . S
C128 C123 1.390 . S
C128 C127 1.361 . S
C128 H146 0.931 . S
C129 C127 1.500 . S
C129 C130 1.371 . S
C129 C131 1.365 . S
C130 C129 1.371 . S
C130 C140 1.386 . S
C130 H148 0.931 . S
C131 C129 1.365 . S
C131 C132 1.409 . S
C131 H149 0.929 . S
C132 C131 1.409 . S
C132 C133 1.380 . S
C132 H150 0.930 . S
C133 C132 1.380 . S
C133 C140 1.357 . S
C134 C125 1.511 . S
C134 C135 1.341 . S
C134 C136 1.371 . S
C135 C134 1.341 . S
C135 C139 1.394 . S
C135 H151 0.930 . S
C136 C134 1.371 . S
C136 C137 1.392 . S
C136 H152 0.931 . S
C137 C136 1.392 . S
C137 C138 1.331 . S
C137 H155 0.932 . S
C138 C137 1.331 . S
C138 C139 1.336 . S
C139 C135 1.394 . S
C139 C138 1.336 . S
C139 H154 0.929 . S
C140 C130 1.386 . S
C140 C133 1.357 . S
C140 H153 0.928 . S
H141 C117 0.931 . S
H142 C119 0.930 . S
H143 C121 0.929 . S
H144 C122 0.931 . S
H145 C124 0.930 . S
H146 C128 0.931 . S
H147 C126 0.931 . S
H148 C130 0.931 . S
H149 C131 0.929 . S
H150 C132 0.930 . S
H151 C135 0.930 . S
H152 C136 0.931 . S
H153 C140 0.928 . S
H154 C139 0.929 . S
H155 C137 0.932 . S
C156 C157 1.386 . S
C156 C158 1.397 . S
C156 H180 0.931 . S
C157 C156 1.386 . S
C157 C161 1.397 . S
C158 C156 1.397 . S
C158 C159 1.384 . S
C158 H181 0.930 . S
C159 C158 1.384 . S
C159 C160 1.377 . S
C159 C162 1.481 . S
C160 C159 1.377 . S
C160 C161 1.389 . S
C160 H182 0.929 . S
C161 C157 1.397 . S
C161 C160 1.389 . S
C161 H183 0.931 . S
C162 C159 1.481 . S
C162 C163 1.387 . S
C162 C167 1.390 . S
C163 C162 1.387 . S
C163 C164 1.401 . S
C163 H184 0.930 . S
C164 C163 1.401 . S
C164 C165 1.376 . S
C164 C173 1.511 . S
C165 C164 1.376 . S
C165 C166 1.392 1_554 S
C165 H186 0.931 1_554 S
C166 C165 1.392 1_556 S
C166 C167 1.361 1_556 S
C166 C168 1.500 . S
C167 C162 1.390 . S
C167 C166 1.361 1_554 S
C167 H185 0.931 . S
C168 C166 1.500 . S
C168 C169 1.371 . S
C168 C170 1.365 . S
C169 C168 1.371 . S
C169 C179 1.386 . S
C169 H187 0.931 . S
C170 C168 1.365 . S
C170 C171 1.409 . S
C170 H188 0.929 . S
C171 C170 1.409 . S
C171 C172 1.380 . S
C171 H189 0.930 . S
C172 C171 1.380 . S
C172 C179 1.357 . S
C173 C164 1.511 . S
C173 C174 1.341 . S
C173 C175 1.371 . S
C174 C173 1.341 . S
C174 C178 1.394 . S
C174 H190 0.930 . S
C175 C173 1.371 . S
C175 C176 1.392 . S
C175 H191 0.931 1_554 S
C176 C175 1.392 . S
C176 C177 1.331 . S
C176 H194 0.932 . S
C177 C176 1.331 . S
C177 C178 1.336 . S
C178 C174 1.394 . S
C178 C177 1.336 . S
C178 H193 0.929 . S
C179 C169 1.386 . S
C179 C172 1.357 . S
C179 H192 0.928 . S
H180 C156 0.931 . S
H181 C158 0.930 . S
H182 C160 0.929 . S
H183 C161 0.931 . S
H184 C163 0.930 . S
H185 C167 0.931 . S
H186 C165 0.931 1_556 S
H187 C169 0.931 . S
H188 C170 0.929 . S
H189 C171 0.930 . S
H190 C174 0.930 . S
H191 C175 0.931 1_556 S
H192 C179 0.928 . S
H193 C178 0.929 . S
H194 C176 0.932 . S
C195 C196 1.386 . S
C195 C197 1.397 . S
C195 H219 0.931 . S
C196 C195 1.386 . S
C196 C200 1.398 1_655 S
C197 C195 1.397 . S
C197 C198 1.389 1_655 S
C197 H220 0.930 . S
C198 C197 1.389 1_455 S
C198 C199 1.373 . S
C198 C201 1.480 1_455 S
C199 C198 1.373 . S
C199 C200 1.389 . S
C199 H221 0.929 . S
C200 C196 1.398 1_455 S
C200 C199 1.389 . S
C200 H222 0.931 . S
C201 C198 1.480 1_655 S
C201 C202 1.386 . S
C201 C206 1.390 . S
C202 C201 1.386 . S
C202 C203 1.400 . S
C202 H223 0.935 . S
C203 C202 1.400 . S
C203 C204 1.376 . S
C203 C212 1.512 . S
C204 C203 1.376 . S
C204 C205 1.392 1_654 S
C204 H225 0.933 1_554 S
C205 C204 1.392 1_456 S
C205 C206 1.361 1_456 S
C205 C207 1.499 . S
C206 C201 1.390 . S
C206 C205 1.361 1_654 S
C206 H224 0.931 1_655 S
C207 C205 1.499 . S
C207 C208 1.357 1_455 S
C207 C209 1.380 . S
C208 C207 1.357 1_655 S
C208 C218 1.386 . S
C208 H226 0.931 . S
C209 C207 1.380 . S
C209 C210 1.409 . S
C209 H227 0.929 . S
C210 C209 1.409 . S
C210 C211 1.384 . S
C210 H228 0.930 . S
C211 C210 1.384 . S
C211 C218 1.353 1_455 S
C212 C203 1.512 . S
C212 C213 1.341 . S
C212 C214 1.371 1_655 S
C213 C212 1.341 . S
C213 C217 1.394 . S
C213 H229 0.930 . S
C214 C212 1.371 1_455 S
C214 C215 1.392 . S
C214 H230 0.931 1_554 S
C215 C214 1.392 . S
C215 C216 1.326 1_455 S
C215 H233 0.932 . S
C216 C215 1.326 1_655 S
C216 C217 1.341 . S
C217 C213 1.394 . S
C217 C216 1.341 . S
C217 H232 0.929 . S
C218 C208 1.386 . S
C218 C211 1.353 1_655 S
C218 H231 0.928 . S
H219 C195 0.931 . S
H220 C197 0.930 . S
H221 C199 0.929 . S
H222 C200 0.931 . S
H223 C202 0.935 . S
H224 C206 0.931 1_455 S
H225 C204 0.933 1_556 S
H226 C208 0.931 . S
H227 C209 0.929 . S
H228 C210 0.930 . S
H229 C213 0.930 . S
H230 C214 0.931 1_556 S
H231 C218 0.928 . S
H232 C217 0.929 . S
H233 C215 0.932 . S
C234 C235 1.386 . S
C234 C236 1.397 . S
C234 H258 0.931 . S
C235 C234 1.386 . S
C235 C239 1.398 1_565 S
C236 C234 1.397 . S
C236 C237 1.389 1_565 S
C236 H259 0.930 . S
C237 C236 1.389 1_545 S
C237 C238 1.373 . S
C237 C240 1.480 1_545 S
C238 C237 1.373 . S
C238 C239 1.389 . S
C238 H260 0.929 . S
C239 C235 1.398 1_545 S
C239 C238 1.389 . S
C239 H261 0.931 . S
C240 C237 1.480 1_565 S
C240 C241 1.386 . S
C240 C245 1.390 . S
C241 C240 1.386 . S
C241 C242 1.400 . S
C241 H262 0.935 . S
C242 C241 1.400 . S
C242 C243 1.376 . S
C242 C251 1.512 . S
C243 C242 1.376 . S
C243 C244 1.392 1_564 S
C243 H264 0.933 1_554 S
C244 C243 1.392 1_546 S
C244 C245 1.361 1_546 S
C244 C246 1.499 . S
C245 C240 1.390 . S
C245 C244 1.361 1_564 S
C245 H263 0.931 1_565 S
C246 C244 1.499 . S
C246 C247 1.357 1_545 S
C246 C248 1.380 . S
C247 C246 1.357 1_565 S
C247 C257 1.386 . S
C247 H265 0.931 . S
C248 C246 1.380 . S
C248 C249 1.409 . S
C248 H266 0.929 . S
C249 C248 1.409 . S
C249 C250 1.384 . S
C249 H267 0.930 . S
C250 C249 1.384 . S
C250 C257 1.353 1_545 S
C251 C242 1.512 . S
C251 C252 1.341 . S
C251 C253 1.371 1_565 S
C252 C251 1.341 . S
C252 C256 1.394 . S
C252 H268 0.930 . S
C253 C251 1.371 1_545 S
C253 C254 1.392 . S
C253 H269 0.931 1_554 S
C254 C253 1.392 . S
C254 C255 1.327 1_545 S
C254 H272 0.932 . S
C255 C254 1.327 1_565 S
C255 C256 1.341 . S
C256 C252 1.394 . S
C256 C255 1.341 . S
C256 H271 0.929 . S
C257 C247 1.386 . S
C257 C250 1.353 1_565 S
C257 H270 0.928 . S
H258 C234 0.931 . S
H259 C236 0.930 . S
H260 C238 0.929 . S
H261 C239 0.931 . S
H262 C241 0.935 . S
H263 C245 0.931 1_545 S
H264 C243 0.933 1_556 S
H265 C247 0.931 . S
H266 C248 0.929 . S
H267 C249 0.930 . S
H268 C252 0.930 . S
H269 C253 0.931 1_556 S
H270 C257 0.928 . S
H271 C256 0.929 . S
H272 C254 0.932 . S
C273 C274 1.386 . S
C273 C275 1.397 . S
C273 H297 0.931 . S
C274 C273 1.386 . S
C274 C278 1.397 . S
C275 C273 1.397 . S
C275 C276 1.384 . S
C275 H298 0.930 . S
C276 C275 1.384 . S
C276 C277 1.377 . S
C276 C279 1.481 . S
C277 C276 1.377 . S
C277 C278 1.389 . S
C277 H299 0.929 . S
C278 C274 1.397 . S
C278 C277 1.389 . S
C278 H300 0.931 . S
C279 C276 1.481 . S
C279 C280 1.387 1_556 S
C279 C284 1.390 1_556 S
C280 C279 1.387 1_554 S
C280 C281 1.401 . S
C280 H301 0.930 1_554 S
C281 C280 1.401 . S
C281 C282 1.376 . S
C281 C290 1.511 . S
C282 C281 1.376 . S
C282 C283 1.392 . S
C282 H303 0.931 . S
C283 C282 1.392 . S
C283 C284 1.361 . S
C283 C285 1.500 . S
C284 C279 1.390 1_554 S
C284 C283 1.361 . S
C284 H302 0.931 . S
C285 C283 1.500 . S
C285 C286 1.371 . S
C285 C287 1.365 . S
C286 C285 1.371 . S
C286 C296 1.386 . S
C286 H304 0.931 . S
C287 C285 1.365 . S
C287 C288 1.409 . S
C287 H305 0.929 . S
C288 C287 1.409 . S
C288 C289 1.380 . S
C288 H306 0.930 . S
C289 C288 1.380 . S
C289 C296 1.357 . S
C290 C281 1.511 . S
C290 C291 1.341 . S
C290 C292 1.371 . S
C291 C290 1.341 . S
C291 C295 1.394 . S
C291 H307 0.935 . S
C292 C290 1.371 . S
C292 C293 1.392 . S
C292 H308 0.931 . S
C293 C292 1.392 . S
C293 C294 1.331 . S
C293 H311 0.932 . S
C294 C293 1.331 . S
C294 C295 1.336 . S
C295 C291 1.394 . S
C295 C294 1.336 . S
C295 H310 0.929 . S
C296 C286 1.386 . S
C296 C289 1.357 . S
C296 H309 0.928 . S
H297 C273 0.931 . S
H298 C275 0.930 . S
H299 C277 0.929 . S
H300 C278 0.931 . S
H301 C280 0.930 1_556 S
H302 C284 0.931 . S
H303 C282 0.931 . S
H304 C286 0.931 . S
H305 C287 0.929 . S
H306 C288 0.930 . S
H307 C291 0.935 . S
H308 C292 0.931 . S
H309 C296 0.928 . S
H310 C295 0.929 . S
H311 C293 0.932 . S
Tb312 C314 2.809 . S
Tb312 O332 2.484 . S
Tb312 O333 2.440 . S
Tb312 O334 2.658 1_565 S
Tb312 O335 2.409 . S
Tb312 O336 2.378 . S
Tb312 O340 2.325 1_455 S
Tb312 O343 2.341 1_565 S
Tb313 C323 2.809 . S
Tb313 O334 2.325 1_655 S
Tb313 O337 2.341 1_545 S
Tb313 O338 2.511 . S
Tb313 O339 2.440 . S
Tb313 O340 2.658 1_545 S
Tb313 O341 2.409 . S
Tb313 O342 2.378 . S
C314 Tb312 2.809 . S
C314 C315 1.514 . S
C314 O332 1.248 . S
C314 O333 1.266 . S
C315 C314 1.514 . S
C315 C316 1.359 . S
C315 C320 1.348 . S
C316 C315 1.359 . S
C316 C317 1.380 . S
C316 H344 0.929 1_455 S
C317 C316 1.380 . S
C317 C318 1.347 . S
C317 H345 0.931 1_455 S
C318 C317 1.347 . S
C318 C319 1.369 . S
C319 C318 1.369 . S
C319 C320 1.408 . S
C319 H346 0.930 . S
C320 C315 1.348 . S
C320 C319 1.408 . S
C320 H347 0.930 . S
C321 O334 1.263 1_565 S
C321 O335 1.280 . S
C322 O336 1.236 1_655 S
C322 O337 1.266 . S
C323 Tb313 2.809 . S
C323 C324 1.514 . S
C323 O338 1.309 . S
C323 O339 1.266 . S
C324 C323 1.514 . S
C324 C325 1.359 . S
C324 C329 1.348 . S
C325 C324 1.359 . S
C325 C326 1.380 . S
C325 H348 0.929 1_655 S
C326 C325 1.380 . S
C326 C327 1.347 . S
C326 H349 0.931 1_655 S
C327 C326 1.347 . S
C327 C328 1.369 . S
C328 C327 1.369 . S
C328 C329 1.408 . S
C328 H350 0.930 . S
C329 C324 1.348 . S
C329 C328 1.408 . S
C329 H351 0.930 . S
C330 O340 1.281 1_545 S
C330 O341 1.254 . S
C331 O342 1.236 1_455 S
C331 O343 1.266 . S
O332 Tb312 2.484 . S
O332 C314 1.248 . S
O333 Tb312 2.440 . S
O333 C314 1.266 . S
O334 Tb312 2.658 1_545 S
O334 Tb313 2.325 1_455 S
O334 C321 1.263 1_545 S
O335 Tb312 2.409 . S
O335 C321 1.280 . S
O336 Tb312 2.378 . S
O336 C322 1.236 1_455 S
O337 Tb313 2.341 1_565 S
O337 C322 1.266 . S
O338 Tb313 2.511 . S
O338 C323 1.309 . S
O339 Tb313 2.440 . S
O339 C323 1.266 . S
O340 Tb312 2.325 1_655 S
O340 Tb313 2.658 1_565 S
O340 C330 1.281 1_565 S
O341 Tb313 2.409 . S
O341 C330 1.254 . S
O342 Tb313 2.378 . S
O342 C331 1.236 1_655 S
O343 Tb312 2.341 1_545 S
O343 C331 1.266 . S
H344 C316 0.929 1_655 S
H345 C317 0.931 1_655 S
H346 C319 0.930 . S
H347 C320 0.930 . S
H348 C325 0.929 1_455 S
H349 C326 0.931 1_455 S
H350 C328 0.930 . S
H351 C329 0.930 . S
Tb352 C354 2.809 . S
Tb352 O372 2.484 . S
Tb352 O373 2.440 . S
Tb352 O374 2.658 . S
Tb352 O375 2.409 . S
Tb352 O376 2.378 . S
Tb352 O380 2.325 1_545 S
Tb352 O383 2.341 . S
Tb353 C363 2.809 . S
Tb353 O374 2.325 1_565 S
Tb353 O377 2.341 . S
Tb353 O378 2.507 . S
Tb353 O379 2.440 . S
Tb353 O380 2.658 . S
Tb353 O381 2.409 . S
Tb353 O382 2.378 . S
C354 Tb352 2.809 . S
C354 C355 1.514 . S
C354 O372 1.248 . S
C354 O373 1.266 . S
C355 C354 1.514 . S
C355 C356 1.359 . S
C355 C360 1.348 . S
C356 C355 1.359 . S
C356 C357 1.380 . S
C356 H384 0.929 1_545 S
C357 C356 1.380 . S
C357 C358 1.347 . S
C357 H385 0.931 1_545 S
C358 C357 1.347 . S
C358 C359 1.369 . S
C359 C358 1.369 . S
C359 C360 1.408 . S
C359 H386 0.930 . S
C360 C355 1.348 . S
C360 C359 1.408 . S
C360 H387 0.930 . S
C361 O374 1.281 . S
C361 O375 1.254 . S
C362 O376 1.236 1_565 S
C362 O377 1.266 . S
C363 Tb353 2.809 . S
C363 C364 1.514 . S
C363 O378 1.299 . S
C363 O379 1.266 . S
C364 C363 1.514 . S
C364 C365 1.359 . S
C364 C369 1.348 . S
C365 C364 1.359 . S
C365 C366 1.380 . S
C365 H388 0.929 1_565 S
C366 C365 1.380 . S
C366 C367 1.347 . S
C366 H389 0.931 1_565 S
C367 C366 1.347 . S
C367 C368 1.369 . S
C368 C367 1.369 . S
C368 C369 1.408 . S
C368 H390 0.930 . S
C369 C364 1.348 . S
C369 C368 1.408 . S
C369 H391 0.930 . S
C370 O380 1.281 . S
C370 O381 1.254 . S
C371 O382 1.236 1_545 S
C371 O383 1.266 . S
O372 Tb352 2.484 . S
O372 C354 1.248 . S
O373 Tb352 2.440 . S
O373 C354 1.266 . S
O374 Tb352 2.658 . S
O374 Tb353 2.325 1_545 S
O374 C361 1.281 . S
O375 Tb352 2.409 . S
O375 C361 1.254 . S
O376 Tb352 2.378 . S
O376 C362 1.236 1_545 S
O377 Tb353 2.341 . S
O377 C362 1.266 . S
O378 Tb353 2.507 . S
O378 C363 1.299 . S
O379 Tb353 2.440 . S
O379 C363 1.266 . S
O380 Tb352 2.325 1_565 S
O380 Tb353 2.658 . S
O380 C370 1.281 . S
O381 Tb353 2.409 . S
O381 C370 1.254 . S
O382 Tb353 2.378 . S
O382 C371 1.236 1_565 S
O383 Tb352 2.341 . S
O383 C371 1.266 . S
H384 C356 0.929 1_565 S
H385 C357 0.931 1_565 S
H386 C359 0.930 . S
H387 C360 0.930 . S
H388 C365 0.929 1_545 S
H389 C366 0.931 1_545 S
H390 C368 0.930 . S
H391 C369 0.930 . S
Tb392 C394 2.809 . S
Tb392 O412 2.484 . S
Tb392 O413 2.440 . S
Tb392 O414 2.658 . S
Tb392 O415 2.409 . S
Tb392 O416 2.378 . S
Tb392 O420 2.325 . S
Tb392 O423 2.341 . S
Tb393 C403 2.809 . S
Tb393 O414 2.325 . S
Tb393 O417 2.341 . S
Tb393 O418 2.484 . S
Tb393 O419 2.440 . S
Tb393 O420 2.658 . S
Tb393 O421 2.409 . S
Tb393 O422 2.378 . S
C394 Tb392 2.809 . S
C394 C395 1.514 . S
C394 O412 1.248 . S
C394 O413 1.266 . S
C395 C394 1.514 . S
C395 C396 1.359 . S
C395 C400 1.348 . S
C396 C395 1.359 . S
C396 C397 1.380 . S
C396 H424 0.929 . S
C397 C396 1.380 . S
C397 C398 1.347 . S
C397 H425 0.931 . S
C398 C397 1.347 . S
C398 C399 1.369 . S
C399 C398 1.369 . S
C399 C400 1.408 . S
C399 H426 0.930 . S
C400 C395 1.348 . S
C400 C399 1.408 . S
C400 H427 0.930 . S
C401 O414 1.281 . S
C401 O415 1.254 . S
C402 O416 1.236 . S
C402 O417 1.266 . S
C403 Tb393 2.809 . S
C403 C404 1.514 . S
C403 O418 1.248 . S
C403 O419 1.266 . S
C404 C403 1.514 . S
C404 C405 1.359 . S
C404 C409 1.348 . S
C405 C404 1.359 . S
C405 C406 1.380 . S
C405 H428 0.929 . S
C406 C405 1.380 . S
C406 C407 1.347 . S
C406 H429 0.931 . S
C407 C406 1.347 . S
C407 C408 1.369 . S
C408 C407 1.369 . S
C408 C409 1.408 . S
C408 H430 0.930 . S
C409 C404 1.348 . S
C409 C408 1.408 . S
C409 H431 0.930 . S
C410 O420 1.281 . S
C410 O421 1.254 . S
C411 O422 1.236 . S
C411 O423 1.266 . S
O412 Tb392 2.484 . S
O412 C394 1.248 . S
O413 Tb392 2.440 . S
O413 C394 1.266 . S
O414 Tb392 2.658 . S
O414 Tb393 2.325 . S
O414 C401 1.281 . S
O415 Tb392 2.409 . S
O415 C401 1.254 . S
O416 Tb392 2.378 . S
O416 C402 1.236 . S
O417 Tb393 2.341 . S
O417 C402 1.266 . S
O418 Tb393 2.484 . S
O418 C403 1.248 . S
O419 Tb393 2.440 . S
O419 C403 1.266 . S
O420 Tb392 2.325 . S
O420 Tb393 2.658 . S
O420 C410 1.281 . S
O421 Tb393 2.409 . S
O421 C410 1.254 . S
O422 Tb393 2.378 . S
O422 C411 1.236 . S
O423 Tb392 2.341 . S
O423 C411 1.266 . S
H424 C396 0.929 . S
H425 C397 0.931 . S
H426 C399 0.930 . S
H427 C400 0.930 . S
H428 C405 0.929 . S
H429 C406 0.931 . S
H430 C408 0.930 . S
H431 C409 0.930 . S
Tb432 C434 2.809 . S
Tb432 O452 2.484 . S
Tb432 O453 2.440 . S
Tb432 O454 2.658 1_655 S
Tb432 O455 2.409 . S
Tb432 O456 2.378 . S
Tb432 O460 2.325 . S
Tb432 O463 2.341 1_655 S
Tb433 C443 2.809 . S
Tb433 O454 2.325 . S
Tb433 O457 2.341 1_455 S
Tb433 O458 2.484 . S
Tb433 O459 2.440 . S
Tb433 O460 2.658 1_455 S
Tb433 O461 2.409 . S
Tb433 O462 2.378 . S
C434 Tb432 2.809 . S
C434 C435 1.514 . S
C434 O452 1.248 . S
C434 O453 1.266 . S
C435 C434 1.514 . S
C435 C436 1.359 . S
C435 C440 1.348 . S
C436 C435 1.359 . S
C436 C437 1.380 . S
C436 H464 0.929 . S
C437 C436 1.380 . S
C437 C438 1.347 . S
C437 H465 0.931 . S
C438 C437 1.347 . S
C438 C439 1.369 . S
C439 C438 1.369 . S
C439 C440 1.408 . S
C439 H466 0.930 . S
C440 C435 1.348 . S
C440 C439 1.408 . S
C440 H467 0.930 . S
C441 O454 1.271 1_655 S
C441 O455 1.268 . S
C442 O456 1.236 . S
C442 O457 1.266 . S
C443 Tb433 2.809 . S
C443 C444 1.514 . S
C443 O458 1.248 . S
C443 O459 1.266 . S
C444 C443 1.514 . S
C444 C445 1.359 . S
C444 C449 1.348 . S
C445 C444 1.359 . S
C445 C446 1.380 . S
C445 H468 0.929 . S
C446 C445 1.380 . S
C446 C447 1.347 . S
C446 H469 0.931 . S
C447 C446 1.347 . S
C447 C448 1.369 . S
C448 C447 1.369 . S
C448 C449 1.408 . S
C448 H470 0.930 . S
C449 C444 1.348 . S
C449 C448 1.408 . S
C449 H471 0.930 . S
C450 O460 1.266 1_455 S
C450 O461 1.276 . S
C451 O462 1.236 . S
C451 O463 1.266 . S
O452 Tb432 2.484 . S
O452 C434 1.248 . S
O453 Tb432 2.440 . S
O453 C434 1.266 . S
O454 Tb432 2.658 1_455 S
O454 Tb433 2.325 . S
O454 C441 1.271 1_455 S
O455 Tb432 2.409 . S
O455 C441 1.268 . S
O456 Tb432 2.378 . S
O456 C442 1.236 . S
O457 Tb433 2.341 1_655 S
O457 C442 1.266 . S
O458 Tb433 2.484 . S
O458 C443 1.248 . S
O459 Tb433 2.440 . S
O459 C443 1.266 . S
O460 Tb432 2.325 . S
O460 Tb433 2.658 1_655 S
O460 C450 1.266 1_655 S
O461 Tb433 2.409 . S
O461 C450 1.276 . S
O462 Tb433 2.378 . S
O462 C451 1.236 . S
O463 Tb432 2.341 1_455 S
O463 C451 1.266 . S
H464 C436 0.929 . S
H465 C437 0.931 . S
H466 C439 0.930 . S
H467 C440 0.930 . S
H468 C445 0.929 . S
H469 C446 0.931 . S
H470 C448 0.930 . S
H471 C449 0.930 . S
C472 C473 1.346 1_565 S
C472 C474 1.327 . S
C472 H497 0.950 . S
C473 C472 1.346 1_545 S
C473 C489 1.351 . S
C474 C472 1.327 . S
C474 C493 1.421 1_565 S
C474 H498 0.950 . S
C475 C492 1.574 . S
C475 C494 1.380 . S
C475 H499 0.949 . S
H476 C480 0.949 . S
C477 C478 1.372 . S
C477 C479 1.327 . S
C477 H500 0.950 . S
C478 C477 1.372 . S
C478 C490 1.326 1_545 S
C479 C477 1.327 . S
C479 C495 1.446 . S
C479 H501 0.950 . S
C480 H476 0.949 . S
C480 C488 1.574 . S
C480 C496 1.352 1_565 S
H481 C489 0.950 . S
H482 C487 0.950 . S
H483 C488 0.949 . S
H484 C490 0.950 . S
H485 C491 0.950 . S
H486 C492 0.949 . S
C487 H482 0.950 . S
C487 C489 1.327 . S
C487 C493 1.436 . S
C488 C480 1.574 . S
C488 H483 0.949 . S
C488 C494 1.357 1_565 S
C489 C473 1.351 . S
C489 H481 0.950 . S
C489 C487 1.327 . S
C490 C478 1.326 1_565 S
C490 H484 0.950 . S
C490 C491 1.327 . S
C491 H485 0.950 . S
C491 C490 1.327 . S
C491 C495 1.411 1_565 S
C492 C475 1.574 . S
C492 H486 0.949 . S
C492 C496 1.385 . S
C493 C474 1.421 1_545 S
C493 C487 1.436 . S
C493 C494 1.523 . S
C494 C475 1.380 . S
C494 C488 1.357 1_545 S
C494 C493 1.523 . S
C495 C479 1.446 . S
C495 C491 1.411 1_545 S
C495 C496 1.523 . S
C496 C480 1.352 1_545 S
C496 C492 1.385 . S
C496 C495 1.523 . S
H497 C472 0.950 . S
H498 C474 0.950 . S
H499 C475 0.949 . S
H500 C477 0.950 . S
H501 C479 0.950 . S
C502 C503 1.349 . S
C502 C504 1.327 . S
C502 H527 0.950 . S
C503 C502 1.349 . S
C503 C519 1.349 . S
C504 C502 1.327 . S
C504 C523 1.429 . S
C504 H528 0.950 . S
C505 C522 1.574 . S
C505 C524 1.368 . S
C505 H529 0.949 . S
H506 C510 0.949 . S
C507 C508 1.349 . S
C507 C509 1.327 . S
C507 H530 0.950 . S
C508 C507 1.349 . S
C508 C520 1.349 . S
C509 C507 1.327 . S
C509 C525 1.429 . S
C509 H531 0.950 . S
C510 H506 0.949 . S
C510 C518 1.574 . S
C510 C526 1.368 . S
H511 C519 0.950 . S
H512 C517 0.950 . S
H513 C518 0.949 . S
H514 C520 0.950 . S
H515 C521 0.950 . S
H516 C522 0.949 . S
C517 H512 0.950 . S
C517 C519 1.327 . S
C517 C523 1.429 . S
C518 C510 1.574 . S
C518 H513 0.949 . S
C518 C524 1.368 . S
C519 C503 1.349 . S
C519 H511 0.950 . S
C519 C517 1.327 . S
C520 C508 1.349 . S
C520 H514 0.950 . S
C520 C521 1.327 . S
C521 H515 0.950 . S
C521 C520 1.327 . S
C521 C525 1.429 . S
C522 C505 1.574 . S
C522 H516 0.949 . S
C522 C526 1.368 . S
C523 C504 1.429 . S
C523 C517 1.429 . S
C523 C524 1.523 . S
C524 C505 1.368 . S
C524 C518 1.368 . S
C524 C523 1.523 . S
C525 C509 1.429 . S
C525 C521 1.429 . S
C525 C526 1.523 . S
C526 C510 1.368 . S
C526 C522 1.368 . S
C526 C525 1.523 . S
H527 C502 0.950 . S
H528 C504 0.950 . S
H529 C505 0.949 . S
H530 C507 0.950 . S
H531 C509 0.950 . S
C532 C533 1.349 . S
C532 C534 1.327 . S
C532 H557 0.950 . S
C533 C532 1.349 . S
C533 C549 1.349 . S
C534 C532 1.327 . S
C534 C553 1.429 . S
C534 H558 0.950 . S
C535 C552 1.574 . S
C535 C554 1.368 . S
C535 H559 0.949 . S
H536 C540 0.949 . S
C537 C538 1.349 . S
C537 C539 1.327 . S
C537 H560 0.950 . S
C538 C537 1.349 . S
C538 C550 1.349 . S
C539 C537 1.327 . S
C539 C555 1.429 . S
C539 H561 0.950 . S
C540 H536 0.949 . S
C540 C548 1.574 . S
C540 C556 1.368 . S
H541 C549 0.950 . S
H542 C547 0.950 . S
H543 C548 0.949 . S
H544 C550 0.950 . S
H545 C551 0.950 . S
H546 C552 0.949 . S
C547 H542 0.950 . S
C547 C549 1.327 . S
C547 C553 1.429 . S
C548 C540 1.574 . S
C548 H543 0.949 . S
C548 C554 1.368 . S
C549 C533 1.349 . S
C549 H541 0.950 . S
C549 C547 1.327 . S
C550 C538 1.349 . S
C550 H544 0.950 . S
C550 C551 1.327 . S
C551 H545 0.950 . S
C551 C550 1.327 . S
C551 C555 1.429 . S
C552 C535 1.574 . S
C552 H546 0.949 . S
C552 C556 1.368 . S
C553 C534 1.429 . S
C553 C547 1.429 . S
C553 C554 1.523 . S
C554 C535 1.368 . S
C554 C548 1.368 . S
C554 C553 1.523 . S
C555 C539 1.429 . S
C555 C551 1.429 . S
C555 C556 1.523 . S
C556 C540 1.368 . S
C556 C552 1.368 . S
C556 C555 1.523 . S
H557 C532 0.950 . S
H558 C534 0.950 . S
H559 C535 0.949 . S
H560 C537 0.950 . S
H561 C539 0.950 . S
C562 C563 1.350 . S
C562 C564 1.327 . S
C562 H587 0.950 . S
C563 C562 1.350 . S
C563 C579 1.347 1_455 S
C564 C562 1.327 . S
C564 C583 1.433 . S
C564 H588 0.950 . S
C565 C582 1.574 . S
C565 C584 1.362 1_655 S
C565 H589 0.949 . S
H566 C570 0.949 . S
C567 C568 1.335 1_655 S
C567 C569 1.327 . S
C567 H590 0.950 . S
C568 C567 1.335 1_455 S
C568 C580 1.364 . S
C569 C567 1.327 . S
C569 C585 1.418 1_655 S
C569 H591 0.950 . S
C570 H566 0.949 . S
C570 C578 1.574 . S
C570 C586 1.379 . S
H571 C579 0.950 . S
H572 C577 0.950 . S
H573 C578 0.949 . S
H574 C580 0.950 . S
H575 C581 0.950 . S
H576 C582 0.949 . S
C577 H572 0.950 . S
C577 C579 1.327 . S
C577 C583 1.424 1_655 S
C578 C570 1.574 . S
C578 H573 0.949 . S
C578 C584 1.375 . S
C579 C563 1.347 1_655 S
C579 H571 0.950 . S
C579 C577 1.327 . S
C580 C568 1.364 . S
C580 H574 0.950 . S
C580 C581 1.327 . S
C581 H575 0.950 . S
C581 C580 1.327 . S
C581 C585 1.440 . S
C582 C565 1.574 . S
C582 H576 0.949 . S
C582 C586 1.359 1_655 S
C583 C564 1.433 . S
C583 C577 1.424 1_455 S
C583 C584 1.523 . S
C584 C565 1.362 1_455 S
C584 C578 1.375 . S
C584 C583 1.523 . S
C585 C569 1.418 1_455 S
C585 C581 1.440 . S
C585 C586 1.523 . S
C586 C570 1.379 . S
C586 C582 1.359 1_455 S
C586 C585 1.523 . S
H587 C562 0.950 . S
H588 C564 0.950 . S
H589 C565 0.949 . S
H590 C567 0.950 . S
H591 C569 0.950 . S
C592 C593 1.351 1_565 S
C592 C594 1.327 . S
C592 H617 0.950 . S
C593 C592 1.351 1_545 S
C593 C609 1.346 . S
C594 C592 1.327 . S
C594 C613 1.426 . S
C594 H618 0.950 . S
C595 C612 1.574 1_554 S
C595 C614 1.369 1_545 S
C595 H619 0.949 . S
H596 C600 0.949 . S
C597 C598 1.336 1_545 S
C597 C599 1.327 . S
C597 H620 0.950 . S
C598 C597 1.336 1_565 S
C598 C610 1.362 . S
C599 C597 1.327 . S
C599 C615 1.421 1_545 S
C599 H621 0.950 . S
C600 H596 0.949 . S
C600 C608 1.574 1_556 S
C600 C616 1.373 . S
H601 C609 0.950 . S
H602 C607 0.950 . S
H603 C608 0.949 . S
H604 C610 0.950 . S
H605 C611 0.950 . S
H606 C612 0.949 . S
C607 H602 0.950 . S
C607 C609 1.327 . S
C607 C613 1.431 1_545 S
C608 C600 1.574 1_554 S
C608 H603 0.949 . S
C608 C614 1.368 . S
C609 C593 1.346 . S
C609 H601 0.950 . S
C609 C607 1.327 . S
C610 C598 1.362 . S
C610 H604 0.950 . S
C610 C611 1.327 . S
C611 H605 0.950 . S
C611 C610 1.327 . S
C611 C615 1.436 . S
C612 C595 1.574 1_556 S
C612 H606 0.949 . S
C612 C616 1.363 1_545 S
C613 C594 1.426 . S
C613 C607 1.431 1_565 S
C613 C614 1.523 . S
C614 C595 1.369 1_565 S
C614 C608 1.368 . S
C614 C613 1.523 . S
C615 C599 1.421 1_565 S
C615 C611 1.436 . S
C615 C616 1.523 . S
C616 C600 1.373 . S
C616 C612 1.363 1_565 S
C616 C615 1.523 . S
H617 C592 0.950 . S
H618 C594 0.950 . S
H619 C595 0.949 . S
H620 C597 0.950 . S
H621 C599 0.950 . S
C622 C623 1.349 . S
C622 C624 1.327 . S
C622 H647 0.950 . S
C623 C622 1.349 . S
C623 C639 1.349 . S
C624 C622 1.327 . S
C624 C643 1.429 . S
C624 H648 0.950 . S
C625 C642 1.574 . S
C625 C644 1.368 1_556 S
C625 H649 0.949 . S
H626 C630 0.949 . S
C627 C628 1.349 . S
C627 C629 1.327 . S
C627 H650 0.950 . S
C628 C627 1.349 . S
C628 C640 1.349 . S
C629 C627 1.327 . S
C629 C645 1.429 . S
C629 H651 0.950 . S
C630 H626 0.949 . S
C630 C638 1.574 1_556 S
C630 C646 1.368 . S
H631 C639 0.950 . S
H632 C637 0.950 . S
H633 C638 0.949 . S
H634 C640 0.950 . S
H635 C641 0.950 . S
H636 C642 0.949 . S
C637 H632 0.950 . S
C637 C639 1.327 . S
C637 C643 1.429 . S
C638 C630 1.574 1_554 S
C638 H633 0.949 . S
C638 C644 1.368 . S
C639 C623 1.349 . S
C639 H631 0.950 . S
C639 C637 1.327 . S
C640 C628 1.349 . S
C640 H634 0.950 . S
C640 C641 1.327 . S
C641 H635 0.950 . S
C641 C640 1.327 . S
C641 C645 1.429 . S
C642 C625 1.574 . S
C642 H636 0.949 . S
C642 C646 1.368 . S
C643 C624 1.429 . S
C643 C637 1.429 . S
C643 C644 1.523 . S
C644 C625 1.368 1_554 S
C644 C638 1.368 . S
C644 C643 1.523 . S
C645 C629 1.429 . S
C645 C641 1.429 . S
C645 C646 1.523 . S
C646 C630 1.368 . S
C646 C642 1.368 . S
C646 C645 1.523 . S
H647 C622 0.950 . S
H648 C624 0.950 . S
H649 C625 0.949 . S
H650 C627 0.950 . S
H651 C629 0.950 . S
C652 C653 1.349 . S
C652 C654 1.327 . S
C652 H677 0.950 . S
C653 C652 1.349 . S
C653 C669 1.349 . S
C654 C652 1.327 . S
C654 C673 1.429 . S
C654 H678 0.950 . S
C655 C672 1.574 1_554 S
C655 C674 1.368 . S
C655 H679 0.949 . S
H656 C660 0.949 . S
C657 C658 1.349 . S
C657 C659 1.327 . S
C657 H680 0.950 . S
C658 C657 1.349 . S
C658 C670 1.349 . S
C659 C657 1.327 . S
C659 C675 1.429 . S
C659 H681 0.950 . S
C660 H656 0.949 . S
C660 C668 1.574 1_556 S
C660 C676 1.368 . S
H661 C669 0.950 . S
H662 C667 0.950 . S
H663 C668 0.949 . S
H664 C670 0.950 . S
H665 C671 0.950 . S
H666 C672 0.949 . S
C667 H662 0.950 . S
C667 C669 1.327 . S
C667 C673 1.429 . S
C668 C660 1.574 1_554 S
C668 H663 0.949 . S
C668 C674 1.368 . S
C669 C653 1.349 . S
C669 H661 0.950 . S
C669 C667 1.327 . S
C670 C658 1.349 . S
C670 H664 0.950 . S
C670 C671 1.327 . S
C671 H665 0.950 . S
C671 C670 1.327 . S
C671 C675 1.429 . S
C672 C655 1.574 1_556 S
C672 H666 0.949 . S
C672 C676 1.368 . S
C673 C654 1.429 . S
C673 C667 1.429 . S
C673 C674 1.523 . S
C674 C655 1.368 . S
C674 C668 1.368 . S
C674 C673 1.523 . S
C675 C659 1.429 . S
C675 C671 1.429 . S
C675 C676 1.523 . S
C676 C660 1.368 . S
C676 C672 1.368 . S
C676 C675 1.523 . S
H677 C652 0.950 . S
H678 C654 0.950 . S
H679 C655 0.949 . S
H680 C657 0.950 . S
H681 C659 0.950 . S
C682 C683 1.345 1_455 S
C682 C684 1.327 . S
C682 H707 0.950 . S
C683 C682 1.345 1_655 S
C683 C699 1.352 . S
C684 C682 1.327 . S
C684 C703 1.418 1_455 S
C684 H708 0.950 . S
C685 C702 1.574 1_554 S
C685 C704 1.385 . S
C685 H709 0.949 . S
H686 C690 0.949 . S
C687 C688 1.383 . S
C687 C689 1.327 . S
C687 H710 0.950 . S
C688 C687 1.383 . S
C688 C700 1.316 1_655 S
C689 C687 1.327 . S
C689 C705 1.454 . S
C689 H711 0.950 . S
C690 H686 0.949 . S
C690 C698 1.574 . S
C690 C706 1.345 1_455 S
H691 C699 0.950 . S
H692 C697 0.950 . S
H693 C698 0.949 1_554 S
H694 C700 0.950 . S
H695 C701 0.950 . S
H696 C702 0.949 . S
C697 H692 0.950 . S
C697 C699 1.327 . S
C697 C703 1.439 . S
C698 C690 1.574 . S
C698 H693 0.949 1_556 S
C698 C704 1.352 1_456 S
C699 C683 1.352 . S
C699 H691 0.950 . S
C699 C697 1.327 . S
C700 C688 1.316 1_455 S
C700 H694 0.950 . S
C700 C701 1.327 . S
C701 H695 0.950 . S
C701 C700 1.327 . S
C701 C705 1.404 1_455 S
C702 C685 1.574 1_556 S
C702 H696 0.949 . S
C702 C706 1.392 . S
C703 C684 1.418 1_655 S
C703 C697 1.439 . S
C703 C704 1.523 . S
C704 C685 1.385 . S
C704 C698 1.352 1_654 S
C704 C703 1.523 . S
C705 C689 1.454 . S
C705 C701 1.404 1_655 S
C705 C706 1.523 . S
C706 C690 1.345 1_655 S
C706 C702 1.392 . S
C706 C705 1.523 . S
H707 C682 0.950 . S
H708 C684 0.950 . S
H709 C685 0.949 . S
H710 C687 0.950 . S
H711 C689 0.950 . S
C712 C713 1.349 . S
C712 C714 1.326 1_455 S
C712 H737 0.950 . S
C713 C712 1.349 . S
C713 C729 1.349 1_455 S
C714 C712 1.326 1_655 S
C714 C733 1.429 . S
C714 H738 0.950 . S
C715 C732 1.574 . S
C715 C734 1.368 . S
C715 H739 0.949 . S
H716 C720 0.949 . S
C717 C718 1.349 . S
C717 C719 1.327 . S
C717 H740 0.950 . S
C718 C717 1.349 . S
C718 C730 1.349 . S
C719 C717 1.327 . S
C719 C735 1.429 . S
C719 H741 0.950 . S
C720 H716 0.949 . S
C720 C728 1.574 . S
C720 C736 1.368 . S
H721 C729 0.947 1_455 S
H722 C727 0.950 . S
H723 C728 0.949 . S
H724 C730 0.950 . S
H725 C731 0.950 . S
H726 C732 0.949 . S
C727 H722 0.950 . S
C727 C729 1.327 . S
C727 C733 1.429 . S
C728 C720 1.574 . S
C728 H723 0.949 . S
C728 C734 1.368 . S
C729 C713 1.349 1_655 S
C729 H721 0.947 1_655 S
C729 C727 1.327 . S
C730 C718 1.349 . S
C730 H724 0.950 . S
C730 C731 1.327 . S
C731 H725 0.950 . S
C731 C730 1.327 . S
C731 C735 1.429 . S
C732 C715 1.574 . S
C732 H726 0.949 . S
C732 C736 1.368 . S
C733 C714 1.429 . S
C733 C727 1.429 . S
C733 C734 1.523 . S
C734 C715 1.368 . S
C734 C728 1.368 . S
C734 C733 1.523 . S
C735 C719 1.429 . S
C735 C731 1.429 . S
C735 C736 1.523 . S
C736 C720 1.368 . S
C736 C732 1.368 . S
C736 C735 1.523 . S
H737 C712 0.950 . S
H738 C714 0.950 . S
H739 C715 0.949 . S
H740 C717 0.950 . S
H741 C719 0.950 . S
C742 C743 1.349 1_565 S
C742 C744 1.327 . S
C742 H767 0.950 . S
C743 C742 1.349 1_545 S
C743 C759 1.349 . S
C744 C742 1.327 . S
C744 C763 1.429 . S
C744 H768 0.950 . S
C745 C762 1.574 . S
C745 C764 1.368 1_545 S
C745 H769 0.949 . S
H746 C750 0.949 . S
C747 C748 1.349 . S
C747 C749 1.327 . S
C747 H770 0.937 1_565 S
C748 C747 1.349 . S
C748 C760 1.349 . S
C749 C747 1.327 . S
C749 C765 1.429 . S
C749 H771 0.950 1_565 S
C750 H746 0.949 . S
C750 C758 1.574 . S
C750 C766 1.368 . S
H751 C759 0.950 . S
H752 C757 0.950 . S
H753 C758 0.949 . S
H754 C760 0.950 . S
H755 C761 0.950 . S
H756 C762 0.949 . S
C757 H752 0.950 . S
C757 C759 1.327 . S
C757 C763 1.429 1_545 S
C758 C750 1.574 . S
C758 H753 0.949 . S
C758 C764 1.368 . S
C759 C743 1.349 . S
C759 H751 0.950 . S
C759 C757 1.327 . S
C760 C748 1.349 . S
C760 H754 0.950 . S
C760 C761 1.327 . S
C761 H755 0.950 . S
C761 C760 1.327 . S
C761 C765 1.429 . S
C762 C745 1.574 . S
C762 H756 0.949 . S
C762 C766 1.368 1_545 S
C763 C744 1.429 . S
C763 C757 1.429 1_565 S
C763 C764 1.523 . S
C764 C745 1.368 1_565 S
C764 C758 1.368 . S
C764 C763 1.523 . S
C765 C749 1.429 . S
C765 C761 1.429 . S
C765 C766 1.523 . S
C766 C750 1.368 . S
C766 C762 1.368 1_565 S
C766 C765 1.523 . S
H767 C742 0.950 . S
H768 C744 0.950 . S
H769 C745 0.949 . S
H770 C747 0.937 1_545 S
H771 C749 0.950 1_545 S
C772 C773 1.349 . S
C772 C774 1.327 . S
C772 H797 0.950 . S
C773 C772 1.349 . S
C773 C789 1.349 . S
C774 C772 1.327 . S
C774 C793 1.429 . S
C774 H798 0.950 . S
C775 C792 1.574 . S
C775 C794 1.368 . S
C775 H799 0.949 . S
H776 C780 0.949 . S
C777 C778 1.349 . S
C777 C779 1.327 . S
C777 H800 0.950 . S
C778 C777 1.349 . S
C778 C790 1.349 . S
C779 C777 1.327 . S
C779 C795 1.429 . S
C779 H801 0.950 . S
C780 H776 0.949 . S
C780 C788 1.574 . S
C780 C796 1.368 . S
H781 C789 0.950 . S
H782 C787 0.950 . S
H783 C788 0.949 . S
H784 C790 0.950 . S
H785 C791 0.950 . S
H786 C792 0.949 . S
C787 H782 0.950 . S
C787 C789 1.327 . S
C787 C793 1.429 . S
C788 C780 1.574 . S
C788 H783 0.949 . S
C788 C794 1.368 . S
C789 C773 1.349 . S
C789 H781 0.950 . S
C789 C787 1.327 . S
C790 C778 1.349 . S
C790 H784 0.950 . S
C790 C791 1.327 . S
C791 H785 0.950 . S
C791 C790 1.327 . S
C791 C795 1.429 . S
C792 C775 1.574 . S
C792 H786 0.949 . S
C792 C796 1.368 . S
C793 C774 1.429 . S
C793 C787 1.429 . S
C793 C794 1.523 . S
C794 C775 1.368 . S
C794 C788 1.368 . S
C794 C793 1.523 . S
C795 C779 1.429 . S
C795 C791 1.429 . S
C795 C796 1.523 . S
C796 C780 1.368 . S
C796 C792 1.368 . S
C796 C795 1.523 . S
H797 C772 0.950 . S
H798 C774 0.950 . S
H799 C775 0.949 . S
H800 C777 0.950 . S
H801 C779 0.950 . S
C802 C803 1.349 . S
C802 C804 1.327 . S
C802 H827 0.950 . S
C803 C802 1.349 . S
C803 C819 1.349 . S
C804 C802 1.327 . S
C804 C823 1.429 . S
C804 H828 0.950 . S
C805 C822 1.574 . S
C805 C824 1.368 . S
C805 H829 0.949 . S
H806 C810 0.949 . S
C807 C808 1.349 . S
C807 C809 1.327 . S
C807 H830 0.950 . S
C808 C807 1.349 . S
C808 C820 1.349 . S
C809 C807 1.327 . S
C809 C825 1.429 . S
C809 H831 0.950 . S
C810 H806 0.949 . S
C810 C818 1.574 . S
C810 C826 1.368 . S
H811 C819 0.950 . S
H812 C817 0.950 . S
H813 C818 0.949 . S
H814 C820 0.950 . S
H815 C821 0.950 . S
H816 C822 0.949 . S
C817 H812 0.950 . S
C817 C819 1.327 . S
C817 C823 1.429 . S
C818 C810 1.574 . S
C818 H813 0.949 . S
C818 C824 1.368 . S
C819 C803 1.349 . S
C819 H811 0.950 . S
C819 C817 1.327 . S
C820 C808 1.349 . S
C820 H814 0.950 . S
C820 C821 1.327 . S
C821 H815 0.950 . S
C821 C820 1.327 . S
C821 C825 1.429 . S
C822 C805 1.574 . S
C822 H816 0.949 . S
C822 C826 1.368 . S
C823 C804 1.429 . S
C823 C817 1.429 . S
C823 C824 1.523 . S
C824 C805 1.368 . S
C824 C818 1.368 . S
C824 C823 1.523 . S
C825 C809 1.429 . S
C825 C821 1.429 . S
C825 C826 1.523 . S
C826 C810 1.368 . S
C826 C822 1.368 . S
C826 C825 1.523 . S
H827 C802 0.950 . S
H828 C804 0.950 . S
H829 C805 0.949 . S
H830 C807 0.950 . S
H831 C809 0.950 . S
C832 C833 1.349 . S
C832 C834 1.327 . S
C832 H857 0.950 . S
C833 C832 1.349 . S
C833 C849 1.349 1_655 S
C834 C832 1.327 . S
C834 C853 1.429 1_655 S
C834 H858 0.950 1_554 S
C835 C852 1.574 . S
C835 C854 1.368 . S
C835 H859 0.949 . S
H836 C840 0.949 . S
C837 C838 1.349 . S
C837 C839 1.327 . S
C837 H860 0.950 . S
C838 C837 1.349 . S
C838 C850 1.349 . S
C839 C837 1.327 . S
C839 C855 1.429 . S
C839 H861 0.950 . S
C840 H836 0.949 . S
C840 C848 1.574 . S
C840 C856 1.368 . S
H841 C849 0.950 . S
H842 C847 0.950 . S
H843 C848 0.949 1_655 S
H844 C850 0.950 . S
H845 C851 0.950 . S
H846 C852 0.949 . S
C847 H842 0.950 . S
C847 C849 1.327 . S
C847 C853 1.429 . S
C848 C840 1.574 . S
C848 H843 0.949 1_455 S
C848 C854 1.368 1_556 S
C849 C833 1.349 1_455 S
C849 H841 0.950 . S
C849 C847 1.327 . S
C850 C838 1.349 . S
C850 H844 0.950 . S
C850 C851 1.327 . S
C851 H845 0.950 . S
C851 C850 1.327 . S
C851 C855 1.429 . S
C852 C835 1.574 . S
C852 H846 0.949 . S
C852 C856 1.368 1_554 S
C853 C834 1.429 1_455 S
C853 C847 1.429 . S
C853 C854 1.523 . S
C854 C835 1.368 . S
C854 C848 1.368 1_554 S
C854 C853 1.523 . S
C855 C839 1.429 . S
C855 C851 1.429 . S
C855 C856 1.523 . S
C856 C840 1.368 . S
C856 C852 1.368 1_556 S
C856 C855 1.523 . S
H857 C832 0.950 . S
H858 C834 0.950 1_556 S
H859 C835 0.949 . S
H860 C837 0.950 . S
H861 C839 0.950 . S
C862 C863 1.349 1_545 S
C862 C864 1.327 . S
C862 H887 0.950 . S
C863 C862 1.349 1_565 S
C863 C879 1.349 . S
C864 C862 1.327 . S
C864 C883 1.429 . S
C864 H888 0.950 . S
C865 C882 1.572 1_564 S
C865 C884 1.368 1_565 S
C865 H889 0.949 . S
H866 C870 0.949 . S
C867 C868 1.349 . S
C867 C869 1.327 . S
C867 H890 0.950 . S
C868 C867 1.349 . S
C868 C880 1.349 . S
C869 C867 1.327 . S
C869 C885 1.429 . S
C869 H891 0.950 1_545 S
C870 H866 0.949 . S
C870 C878 1.574 . S
C870 C886 1.368 . S
H871 C879 0.950 . S
H872 C877 0.950 . S
H873 C878 0.949 . S
H874 C880 0.950 . S
H875 C881 0.950 . S
H876 C882 0.945 1_564 S
C877 H872 0.950 . S
C877 C879 1.327 . S
C877 C883 1.429 1_565 S
C878 C870 1.574 . S
C878 H873 0.949 . S
C878 C884 1.368 1_556 S
C879 C863 1.349 . S
C879 H871 0.950 . S
C879 C877 1.327 . S
C880 C868 1.349 . S
C880 H874 0.950 . S
C880 C881 1.327 . S
C881 H875 0.950 . S
C881 C880 1.327 . S
C881 C885 1.429 . S
C882 C865 1.572 1_546 S
C882 H876 0.945 1_546 S
C882 C886 1.375 . S
C883 C864 1.429 . S
C883 C877 1.429 1_545 S
C883 C884 1.523 . S
C884 C865 1.368 1_545 S
C884 C878 1.368 1_554 S
C884 C883 1.523 . S
C885 C869 1.429 . S
C885 C881 1.429 . S
C885 C886 1.523 . S
C886 C870 1.368 . S
C886 C882 1.375 . S
C886 C885 1.523 . S
H887 C862 0.950 . S
H888 C864 0.950 . S
H889 C865 0.949 . S
H890 C867 0.950 . S
H891 C869 0.950 1_565 S
C892 C893 1.349 . S
C892 C894 1.327 . S
C892 H917 0.950 . S
C893 C892 1.349 . S
C893 C909 1.349 . S
C894 C892 1.327 . S
C894 C913 1.429 . S
C894 H918 0.950 . S
C895 C912 1.574 . S
C895 C914 1.368 1_556 S
C895 H919 0.949 . S
H896 C900 0.949 . S
C897 C898 1.349 . S
C897 C899 1.327 . S
C897 H920 0.950 . S
C898 C897 1.349 . S
C898 C910 1.349 . S
C899 C897 1.327 . S
C899 C915 1.429 . S
C899 H921 0.950 . S
C900 H896 0.949 . S
C900 C908 1.574 . S
C900 C916 1.368 1_554 S
H901 C909 0.950 . S
H902 C907 0.936 1_556 S
H903 C908 0.949 . S
H904 C910 0.950 . S
H905 C911 0.950 . S
H906 C912 0.949 . S
C907 H902 0.936 1_554 S
C907 C909 1.327 . S
C907 C913 1.429 . S
C908 C900 1.574 . S
C908 H903 0.949 . S
C908 C914 1.368 . S
C909 C893 1.349 . S
C909 H901 0.950 . S
C909 C907 1.327 . S
C910 C898 1.349 . S
C910 H904 0.950 . S
C910 C911 1.327 . S
C911 H905 0.950 . S
C911 C910 1.327 . S
C911 C915 1.429 . S
C912 C895 1.574 . S
C912 H906 0.949 . S
C912 C916 1.368 . S
C913 C894 1.429 . S
C913 C907 1.429 . S
C913 C914 1.523 . S
C914 C895 1.368 1_554 S
C914 C908 1.368 . S
C914 C913 1.523 . S
C915 C899 1.429 . S
C915 C911 1.429 . S
C915 C916 1.523 . S
C916 C900 1.368 1_556 S
C916 C912 1.368 . S
C916 C915 1.523 . S
H917 C892 0.950 . S
H918 C894 0.950 . S
H919 C895 0.949 . S
H920 C897 0.950 . S
H921 C899 0.950 . S
C922 C923 1.349 . S
C922 C924 1.327 . S
C922 H947 0.950 . S
C923 C922 1.349 . S
C923 C939 1.349 . S
C924 C922 1.327 . S
C924 C943 1.429 . S
C924 H948 0.950 . S
C925 C942 1.574 . S
C925 C944 1.368 1_556 S
C925 H949 0.949 . S
H926 C930 0.949 . S
C927 C928 1.349 . S
C927 C929 1.327 . S
C927 H950 0.950 . S
C928 C927 1.349 . S
C928 C940 1.349 . S
C929 C927 1.327 . S
C929 C945 1.429 . S
C929 H951 0.950 . S
C930 H926 0.949 . S
C930 C938 1.574 1_556 S
C930 C946 1.368 . S
H931 C939 0.950 . S
H932 C937 0.950 . S
H933 C938 0.949 . S
H934 C940 0.950 . S
H935 C941 0.950 . S
H936 C942 0.949 . S
C937 H932 0.950 . S
C937 C939 1.327 . S
C937 C943 1.429 . S
C938 C930 1.574 1_554 S
C938 H933 0.949 . S
C938 C944 1.368 . S
C939 C923 1.349 . S
C939 H931 0.950 . S
C939 C937 1.327 . S
C940 C928 1.349 . S
C940 H934 0.950 . S
C940 C941 1.327 . S
C941 H935 0.950 . S
C941 C940 1.327 . S
C941 C945 1.429 . S
C942 C925 1.574 . S
C942 H936 0.949 . S
C942 C946 1.368 . S
C943 C924 1.429 . S
C943 C937 1.429 . S
C943 C944 1.523 . S
C944 C925 1.368 1_554 S
C944 C938 1.368 . S
C944 C943 1.523 . S
C945 C929 1.429 . S
C945 C941 1.429 . S
C945 C946 1.523 . S
C946 C930 1.368 . S
C946 C942 1.368 . S
C946 C945 1.523 . S
H947 C922 0.950 . S
H948 C924 0.950 . S
H949 C925 0.949 . S
H950 C927 0.950 . S
H951 C929 0.950 . S
C952 C953 1.349 1_655 S
C952 C954 1.327 . S
C952 H977 0.950 . S
C953 C952 1.349 1_455 S
C953 C969 1.349 . S
C954 C952 1.327 . S
C954 C973 1.429 1_655 S
C954 H978 0.950 . S
C955 C972 1.574 . S
C955 C974 1.368 . S
C955 H979 0.949 . S
H956 C960 0.949 . S
C957 C958 1.349 . S
C957 C959 1.327 . S
C957 H980 0.950 . S
C958 C957 1.349 . S
C958 C970 1.349 1_455 S
C959 C957 1.327 . S
C959 C975 1.429 . S
C959 H981 0.950 . S
C960 H956 0.949 . S
C960 C968 1.574 . S
C960 C976 1.368 1_655 S
H961 C969 0.950 . S
H962 C967 0.950 . S
H963 C968 0.949 . S
H964 C970 0.950 . S
H965 C971 0.950 . S
H966 C972 0.949 . S
C967 H962 0.950 . S
C967 C969 1.327 . S
C967 C973 1.429 . S
C968 C960 1.574 . S
C968 H963 0.949 . S
C968 C974 1.368 1_655 S
C969 C953 1.349 . S
C969 H961 0.950 . S
C969 C967 1.327 . S
C970 C958 1.349 1_655 S
C970 H964 0.950 . S
C970 C971 1.327 . S
C971 H965 0.950 . S
C971 C970 1.327 . S
C971 C975 1.429 1_655 S
C972 C955 1.574 . S
C972 H966 0.949 . S
C972 C976 1.368 . S
C973 C954 1.429 1_455 S
C973 C967 1.429 . S
C973 C974 1.523 . S
C974 C955 1.368 . S
C974 C968 1.368 1_455 S
C974 C973 1.523 . S
C975 C959 1.429 . S
C975 C971 1.429 1_455 S
C975 C976 1.523 . S
C976 C960 1.368 1_455 S
C976 C972 1.368 . S
C976 C975 1.523 . S
H977 C952 0.950 . S
H978 C954 0.950 . S
H979 C955 0.949 . S
H980 C957 0.950 . S
H981 C959 0.950 . S
C982 C983 1.349 . S
C982 C984 1.327 . S
C982 H1007 0.950 . S
C983 C982 1.349 . S
C983 C999 1.350 . S
C984 C982 1.327 . S
C984 C1003 1.429 . S
C984 H1008 0.950 . S
C985 C1002 1.574 . S
C985 C1004 1.368 . S
C985 H1009 0.949 . S
H986 C990 0.949 . S
C987 C988 1.349 . S
C987 C989 1.327 . S
C987 H1010 0.950 . S
C988 C987 1.349 . S
C988 C1000 1.349 . S
C989 C987 1.327 . S
C989 C1005 1.429 . S
C989 H1011 0.950 . S
C990 H986 0.949 . S
C990 C998 1.574 . S
C990 C1006 1.368 . S
H991 C999 0.947 1_565 S
H992 C997 0.952 . S
H993 C998 0.949 . S
H994 C1000 0.950 . S
H995 C1001 0.950 . S
H996 C1002 0.949 . S
C997 H992 0.952 . S
C997 C999 1.329 . S
C997 C1003 1.429 . S
C998 C990 1.574 . S
C998 H993 0.949 . S
C998 C1004 1.368 . S
C999 C983 1.350 . S
C999 H991 0.947 1_545 S
C999 C997 1.329 . S
C1000 C988 1.349 . S
C1000 H994 0.950 . S
C1000 C1001 1.327 . S
C1001 H995 0.950 . S
C1001 C1000 1.327 . S
C1001 C1005 1.429 . S
C1002 C985 1.574 . S
C1002 H996 0.949 . S
C1002 C1006 1.368 . S
C1003 C984 1.429 . S
C1003 C997 1.429 . S
C1003 C1004 1.523 . S
C1004 C985 1.368 . S
C1004 C998 1.368 . S
C1004 C1003 1.523 . S
C1005 C989 1.429 . S
C1005 C1001 1.429 . S
C1005 C1006 1.523 . S
C1006 C990 1.368 . S
C1006 C1002 1.368 . S
C1006 C1005 1.523 . S
H1007 C982 0.950 . S
H1008 C984 0.950 . S
H1009 C985 0.949 . S
H1010 C987 0.950 . S
H1011 C989 0.950 . S
C1012 C1013 1.349 . S
C1012 C1014 1.327 . S
C1012 H1037 0.950 . S
C1013 C1012 1.349 . S
C1013 C1029 1.349 . S
C1014 C1012 1.327 . S
C1014 C1033 1.429 . S
C1014 H1038 0.950 . S
C1015 C1032 1.574 . S
C1015 C1034 1.368 . S
C1015 H1039 0.949 . S
H1016 C1020 0.949 . S
C1017 C1018 1.349 . S
C1017 C1019 1.327 . S
C1017 H1040 0.950 . S
C1018 C1017 1.349 . S
C1018 C1030 1.349 . S
C1019 C1017 1.327 . S
C1019 C1035 1.429 . S
C1019 H1041 0.950 . S
C1020 H1016 0.949 . S
C1020 C1028 1.574 . S
C1020 C1036 1.368 . S
H1021 C1029 0.950 . S
H1022 C1027 0.950 . S
H1023 C1028 0.949 . S
H1024 C1030 0.950 . S
H1025 C1031 0.950 . S
H1026 C1032 0.949 . S
C1027 H1022 0.950 . S
C1027 C1029 1.327 . S
C1027 C1033 1.429 . S
C1028 C1020 1.574 . S
C1028 H1023 0.949 . S
C1028 C1034 1.368 . S
C1029 C1013 1.349 . S
C1029 H1021 0.950 . S
C1029 C1027 1.327 . S
C1030 C1018 1.349 . S
C1030 H1024 0.950 . S
C1030 C1031 1.327 . S
C1031 H1025 0.950 . S
C1031 C1030 1.327 . S
C1031 C1035 1.429 . S
C1032 C1015 1.574 . S
C1032 H1026 0.949 . S
C1032 C1036 1.368 . S
C1033 C1014 1.429 . S
C1033 C1027 1.429 . S
C1033 C1034 1.523 . S
C1034 C1015 1.368 . S
C1034 C1028 1.368 . S
C1034 C1033 1.523 . S
C1035 C1019 1.429 . S
C1035 C1031 1.429 . S
C1035 C1036 1.523 . S
C1036 C1020 1.368 . S
C1036 C1032 1.368 . S
C1036 C1035 1.523 . S
H1037 C1012 0.950 . S
H1038 C1014 0.950 . S
H1039 C1015 0.949 . S
H1040 C1017 0.950 . S
H1041 C1019 0.950 . S
C1042 C1043 1.349 . S
C1042 C1044 1.327 . S
C1042 H1067 0.950 . S
C1043 C1042 1.349 . S
C1043 C1059 1.349 . S
C1044 C1042 1.327 . S
C1044 C1063 1.429 . S
C1044 H1068 0.950 . S
C1045 C1062 1.574 . S
C1045 C1064 1.368 . S
C1045 H1069 0.949 . S
H1046 C1050 0.949 . S
C1047 C1048 1.349 . S
C1047 C1049 1.327 . S
C1047 H1070 0.950 . S
C1048 C1047 1.349 . S
C1048 C1060 1.349 . S
C1049 C1047 1.327 . S
C1049 C1065 1.429 . S
C1049 H1071 0.950 . S
C1050 H1046 0.949 . S
C1050 C1058 1.574 . S
C1050 C1066 1.368 . S
H1051 C1059 0.950 . S
H1052 C1057 0.950 . S
H1053 C1058 0.949 . S
H1054 C1060 0.950 . S
H1055 C1061 0.950 . S
H1056 C1062 0.949 . S
C1057 H1052 0.950 . S
C1057 C1059 1.327 . S
C1057 C1063 1.429 . S
C1058 C1050 1.574 . S
C1058 H1053 0.949 . S
C1058 C1064 1.368 . S
C1059 C1043 1.349 . S
C1059 H1051 0.950 . S
C1059 C1057 1.327 . S
C1060 C1048 1.349 . S
C1060 H1054 0.950 . S
C1060 C1061 1.327 . S
C1061 H1055 0.950 . S
C1061 C1060 1.327 . S
C1061 C1065 1.429 . S
C1062 C1045 1.574 . S
C1062 H1056 0.949 . S
C1062 C1066 1.368 . S
C1063 C1044 1.429 . S
C1063 C1057 1.429 . S
C1063 C1064 1.523 . S
C1064 C1045 1.368 . S
C1064 C1058 1.368 . S
C1064 C1063 1.523 . S
C1065 C1049 1.429 . S
C1065 C1061 1.429 . S
C1065 C1066 1.523 . S
C1066 C1050 1.368 . S
C1066 C1062 1.368 . S
C1066 C1065 1.523 . S
H1067 C1042 0.950 . S
H1068 C1044 0.950 . S
H1069 C1045 0.949 . S
H1070 C1047 0.950 . S
H1071 C1049 0.950 . S
C1072 C1073 1.349 . S
C1072 C1074 1.327 . S
C1072 H1097 0.950 . S
C1073 C1072 1.349 . S
C1073 C1089 1.349 1_655 S
C1074 C1072 1.327 . S
C1074 C1093 1.429 . S
C1074 H1098 0.950 . S
C1075 C1092 1.574 . S
C1075 C1094 1.368 1_455 S
C1075 H1099 0.949 . S
H1076 C1080 0.949 . S
C1077 C1078 1.349 1_455 S
C1077 C1079 1.327 . S
C1077 H1100 0.950 . S
C1078 C1077 1.349 1_655 S
C1078 C1090 1.349 . S
C1079 C1077 1.327 . S
C1079 C1095 1.429 1_455 S
C1079 H1101 0.950 . S
C1080 H1076 0.949 . S
C1080 C1088 1.574 . S
C1080 C1096 1.368 . S
H1081 C1089 0.950 . S
H1082 C1087 0.950 . S
H1083 C1088 0.949 . S
H1084 C1090 0.950 . S
H1085 C1091 0.950 . S
H1086 C1092 0.949 . S
C1087 H1082 0.950 . S
C1087 C1089 1.327 . S
C1087 C1093 1.429 1_455 S
C1088 C1080 1.574 . S
C1088 H1083 0.949 . S
C1088 C1094 1.368 . S
C1089 C1073 1.349 1_455 S
C1089 H1081 0.950 . S
C1089 C1087 1.327 . S
C1090 C1078 1.349 . S
C1090 H1084 0.950 . S
C1090 C1091 1.327 . S
C1091 H1085 0.950 . S
C1091 C1090 1.327 . S
C1091 C1095 1.429 . S
C1092 C1075 1.574 . S
C1092 H1086 0.949 . S
C1092 C1096 1.368 1_455 S
C1093 C1074 1.429 . S
C1093 C1087 1.429 1_655 S
C1093 C1094 1.523 . S
C1094 C1075 1.368 1_655 S
C1094 C1088 1.368 . S
C1094 C1093 1.523 . S
C1095 C1079 1.429 1_655 S
C1095 C1091 1.429 . S
C1095 C1096 1.523 . S
C1096 C1080 1.368 . S
C1096 C1092 1.368 1_655 S
C1096 C1095 1.523 . S
H1097 C1072 0.950 . S
H1098 C1074 0.950 . S
H1099 C1075 0.949 . S
H1100 C1077 0.950 . S
H1101 C1079 0.950 . S
C1102 C1103 1.349 1_545 S
C1102 C1104 1.327 . S
C1102 H1127 0.950 . S
C1103 C1102 1.349 1_565 S
C1103 C1119 1.349 . S
C1104 C1102 1.327 . S
C1104 C1123 1.429 1_545 S
C1104 H1128 0.950 . S
C1105 C1122 1.574 . S
C1105 C1124 1.368 . S
C1105 H1129 0.949 . S
H1106 C1110 0.949 . S
C1107 C1108 1.349 . S
C1107 C1109 1.327 . S
C1107 H1130 0.950 . S
C1108 C1107 1.349 . S
C1108 C1120 1.349 1_565 S
C1109 C1107 1.327 . S
C1109 C1125 1.429 . S
C1109 H1131 0.950 . S
C1110 H1106 0.949 . S
C1110 C1118 1.574 . S
C1110 C1126 1.368 1_545 S
H1111 C1119 0.950 . S
H1112 C1117 0.950 . S
H1113 C1118 0.949 . S
H1114 C1120 0.950 . S
H1115 C1121 0.950 . S
H1116 C1122 0.949 . S
C1117 H1112 0.950 . S
C1117 C1119 1.327 . S
C1117 C1123 1.429 . S
C1118 C1110 1.574 . S
C1118 H1113 0.949 . S
C1118 C1124 1.368 1_545 S
C1119 C1103 1.349 . S
C1119 H1111 0.950 . S
C1119 C1117 1.327 . S
C1120 C1108 1.349 1_545 S
C1120 H1114 0.950 . S
C1120 C1121 1.327 . S
C1121 H1115 0.950 . S
C1121 C1120 1.327 . S
C1121 C1125 1.429 1_545 S
C1122 C1105 1.574 . S
C1122 H1116 0.949 . S
C1122 C1126 1.368 . S
C1123 C1104 1.429 1_565 S
C1123 C1117 1.429 . S
C1123 C1124 1.523 . S
C1124 C1105 1.368 . S
C1124 C1118 1.368 1_565 S
C1124 C1123 1.523 . S
C1125 C1109 1.429 . S
C1125 C1121 1.429 1_565 S
C1125 C1126 1.523 . S
C1126 C1110 1.368 1_565 S
C1126 C1122 1.368 . S
C1126 C1125 1.523 . S
H1127 C1102 0.950 . S
H1128 C1104 0.950 . S
H1129 C1105 0.949 . S
H1130 C1107 0.950 . S
H1131 C1109 0.950 . S
C1132 C1133 1.349 . S
C1132 C1134 1.327 . S
C1132 H1157 0.950 . S
C1133 C1132 1.349 . S
C1133 C1149 1.349 . S
C1134 C1132 1.327 . S
C1134 C1153 1.429 . S
C1134 H1158 0.950 . S
C1135 C1152 1.574 . S
C1135 C1154 1.368 . S
C1135 H1159 0.949 . S
H1136 C1140 0.949 . S
C1137 C1138 1.349 . S
C1137 C1139 1.327 . S
C1137 H1160 0.950 . S
C1138 C1137 1.349 . S
C1138 C1150 1.349 . S
C1139 C1137 1.327 . S
C1139 C1155 1.429 . S
C1139 H1161 0.950 . S
C1140 H1136 0.949 . S
C1140 C1148 1.574 . S
C1140 C1156 1.368 . S
H1141 C1149 0.950 . S
H1142 C1147 0.950 . S
H1143 C1148 0.949 . S
H1144 C1150 0.950 . S
H1145 C1151 0.950 . S
H1146 C1152 0.949 . S
C1147 H1142 0.950 . S
C1147 C1149 1.327 . S
C1147 C1153 1.429 . S
C1148 C1140 1.574 . S
C1148 H1143 0.949 . S
C1148 C1154 1.368 . S
C1149 C1133 1.349 . S
C1149 H1141 0.950 . S
C1149 C1147 1.327 . S
C1150 C1138 1.349 . S
C1150 H1144 0.950 . S
C1150 C1151 1.327 . S
C1151 H1145 0.950 . S
C1151 C1150 1.327 . S
C1151 C1155 1.429 . S
C1152 C1135 1.574 . S
C1152 H1146 0.949 . S
C1152 C1156 1.368 . S
C1153 C1134 1.429 . S
C1153 C1147 1.429 . S
C1153 C1154 1.523 . S
C1154 C1135 1.368 . S
C1154 C1148 1.368 . S
C1154 C1153 1.523 . S
C1155 C1139 1.429 . S
C1155 C1151 1.429 . S
C1155 C1156 1.523 . S
C1156 C1140 1.368 . S
C1156 C1152 1.368 . S
C1156 C1155 1.523 . S
H1157 C1132 0.950 . S
H1158 C1134 0.950 . S
H1159 C1135 0.949 . S
H1160 C1137 0.950 . S
H1161 C1139 0.950 . S
C1162 C1163 1.349 . S
C1162 C1164 1.327 . S
C1162 H1187 0.950 . S
C1163 C1162 1.349 . S
C1163 C1179 1.349 . S
C1164 C1162 1.327 . S
C1164 C1183 1.429 . S
C1164 H1188 0.950 . S
C1165 C1182 1.574 . S
C1165 C1184 1.368 . S
C1165 H1189 0.949 . S
H1166 C1170 0.949 . S
C1167 C1168 1.349 . S
C1167 C1169 1.327 . S
C1167 H1190 0.950 . S
C1168 C1167 1.349 . S
C1168 C1180 1.349 . S
C1169 C1167 1.327 . S
C1169 C1185 1.429 . S
C1169 H1191 0.950 . S
C1170 H1166 0.949 . S
C1170 C1178 1.574 . S
C1170 C1186 1.368 . S
H1171 C1179 0.950 . S
H1172 C1177 0.950 . S
H1173 C1178 0.949 . S
H1174 C1180 0.950 . S
H1175 C1181 0.950 . S
H1176 C1182 0.949 . S
C1177 H1172 0.950 . S
C1177 C1179 1.327 . S
C1177 C1183 1.429 . S
C1178 C1170 1.574 . S
C1178 H1173 0.949 . S
C1178 C1184 1.368 . S
C1179 C1163 1.349 . S
C1179 H1171 0.950 . S
C1179 C1177 1.327 . S
C1180 C1168 1.349 . S
C1180 H1174 0.950 . S
C1180 C1181 1.327 . S
C1181 H1175 0.950 . S
C1181 C1180 1.327 . S
C1181 C1185 1.429 . S
C1182 C1165 1.574 . S
C1182 H1176 0.949 . S
C1182 C1186 1.368 . S
C1183 C1164 1.429 . S
C1183 C1177 1.429 . S
C1183 C1184 1.523 . S
C1184 C1165 1.368 . S
C1184 C1178 1.368 . S
C1184 C1183 1.523 . S
C1185 C1169 1.429 . S
C1185 C1181 1.429 . S
C1185 C1186 1.523 . S
C1186 C1170 1.368 . S
C1186 C1182 1.368 . S
C1186 C1185 1.523 . S
H1187 C1162 0.950 . S
H1188 C1164 0.950 . S
H1189 C1165 0.949 . S
H1190 C1167 0.950 . S
H1191 C1169 0.950 . S
C473 C255 1.928 1_545 S
C478 C321 2.041 1_545 S
C508 C361 2.062 . S
C503 C294 1.915 . S
C538 C401 2.057 . S
C533 C177 1.939 . S
C568 C441 2.053 1_455 S
C563 C216 1.937 1_455 S
C598 C330 2.046 1_565 S
C593 C99 1.933 1_545 S
C623 C138 1.922 . S
C628 C370 2.067 . S
C653 C21 1.938 . S
C658 C410 2.057 . S
C683 C60 1.937 . S
C688 C450 2.053 1_655 S
C718 C327 0.245 . S
C713 C196 0.253 1_455 S
C748 C367 0.245 . S
C743 C235 0.255 1_545 S
C778 C407 0.239 . S
C773 C289 0.250 . S
C803 C157 0.247 . S
C808 C447 0.239 . S
C833 C40 0.245 . S
C838 C318 0.235 . S
C868 C358 0.246 . S
C863 C79 0.242 . S
C898 C398 0.239 . S
C893 C133 0.243 . S
C923 C1 0.236 . S
C928 C438 0.245 . S
C953 C211 2.552 . S
C958 C331 2.851 . S
C983 C250 2.525 . S
C988 C371 2.831 . S
C1018 C411 2.827 . S
C1013 C274 2.527 . S
C1048 C451 2.841 . S
C1043 C172 2.528 . S
C1073 C55 2.553 1_655 S
C1078 C322 2.867 . S
C1108 C362 2.832 . S
C1103 C94 2.526 1_565 S
C1138 C402 2.826 . S
C1133 C118 2.528 . S
C1163 C16 2.535 . S
C1168 C442 2.848 . S
