# Generated by pormake.
# Topology anh, (6,3)-cn, num edge types: 1
# Building blocks:
#     Node 0, Type 0, BuildingBlock: PAMTOO_clean_sbu_0, # of connection points: 6
#     Node 1, Type 0, BuildingBlock: PAMTOO_clean_sbu_0, # of connection points: 6
#     Node 2, Type 0, BuildingBlock: PAMTOO_clean_sbu_0, # of connection points: 6
#     Node 3, Type 1, BuildingBlock: BETDIP_clean_linker_0, # of connection points: 3
#     Node 4, Type 1, BuildingBlock: BETDIP_clean_linker_0, # of connection points: 3
#     Node 5, Type 1, BuildingBlock: BETDIP_clean_linker_0, # of connection points: 3
#     Node 6, Type 1, BuildingBlock: BETDIP_clean_linker_0, # of connection points: 3
#     Node 7, Type 1, BuildingBlock: BETDIP_clean_linker_0, # of connection points: 3
#     Node 8, Type 1, BuildingBlock: BETDIP_clean_linker_0, # of connection points: 3
#     Edge 9, Type (0, 1), BuildingBlock: MIFKUJ_clean_linker_0, # of connection points: 2
#     Edge 10, Type (0, 1), BuildingBlock: MIFKUJ_clean_linker_0, # of connection points: 2
#     Edge 11, Type (0, 1), BuildingBlock: MIFKUJ_clean_linker_0, # of connection points: 2
#     Edge 12, Type (0, 1), BuildingBlock: MIFKUJ_clean_linker_0, # of connection points: 2
#     Edge 13, Type (0, 1), BuildingBlock: MIFKUJ_clean_linker_0, # of connection points: 2
#     Edge 14, Type (0, 1), BuildingBlock: MIFKUJ_clean_linker_0, # of connection points: 2
#     Edge 15, Type (0, 1), BuildingBlock: MIFKUJ_clean_linker_0, # of connection points: 2
#     Edge 16, Type (0, 1), BuildingBlock: MIFKUJ_clean_linker_0, # of connection points: 2
#     Edge 17, Type (0, 1), BuildingBlock: MIFKUJ_clean_linker_0, # of connection points: 2
#     Edge 18, Type (0, 1), BuildingBlock: MIFKUJ_clean_linker_0, # of connection points: 2
#     Edge 19, Type (0, 1), BuildingBlock: MIFKUJ_clean_linker_0, # of connection points: 2
#     Edge 20, Type (0, 1), BuildingBlock: MIFKUJ_clean_linker_0, # of connection points: 2
#     Edge 21, Type (0, 1), BuildingBlock: MIFKUJ_clean_linker_0, # of connection points: 2
#     Edge 22, Type (0, 1), BuildingBlock: MIFKUJ_clean_linker_0, # of connection points: 2
#     Edge 23, Type (0, 1), BuildingBlock: MIFKUJ_clean_linker_0, # of connection points: 2
#     Edge 24, Type (0, 1), BuildingBlock: MIFKUJ_clean_linker_0, # of connection points: 2
#     Edge 25, Type (0, 1), BuildingBlock: MIFKUJ_clean_linker_0, # of connection points: 2
#     Edge 26, Type (0, 1), BuildingBlock: MIFKUJ_clean_linker_0, # of connection points: 2
# Relax obj value: 0.126
# Max RMSD: 0.204
# Mean RMSD: 0.122
data_MOF--net-anh--node1-PAMTOO_clean_sbu_0--node2-BETDIP_clean_linker_0--edge1-MIFKUJ_clean_linker_0
_symmetry_space_group_name_H-M    P1
_symmetry_Int_Tables_number       1
_symmetry_cell_setting            triclinic
loop_
_symmetry_equiv_pos_as_xyz
'x, y, z'
_cell_length_a     40.2369
_cell_length_b     38.640907
_cell_length_c     64.752944
_cell_angle_alpha  95.017082
_cell_angle_beta   94.707837
_cell_angle_gamma 106.99722
loop_
_atom_site_label
_atom_site_type_symbol
_atom_site_fract_x
_atom_site_fract_y
_atom_site_fract_z
_atom_type_partial_charge
Dy0 Dy 0.08883 0.61021 0.14235 0.0
Dy1 Dy 0.06478 0.52212 0.14253 0.0
C2 C 0.06899 0.55626 0.10094 0.0
O3 O 1.0312 0.59777 0.147 0.0
O4 O 1.01314 0.53571 0.13799 0.0
O5 O 0.10989 0.65504 0.12483 0.0
O6 O 0.09548 0.66539 0.15578 0.0
O7 O 0.06112 0.5448 0.17458 0.0
O8 O 0.10077 0.60133 0.17552 0.0
O9 O 0.1242 0.53663 0.14762 0.0
O10 O 0.13944 0.59556 0.13943 0.0
O11 O 0.06481 0.47323 0.15627 0.0
O12 O 1.03542 0.46961 0.12609 0.0
C13 C 1.00575 0.56659 0.14254 0.0
O14 O 0.06198 0.5839 0.11077 0.0
O15 O 0.08124 0.53462 0.11154 0.0
C16 C 0.14422 0.70957 0.14511 0.0
C17 C 0.20781 0.76676 0.15355 0.0
C18 C 0.19364 0.75287 0.13289 0.0
C19 C 0.16211 0.72473 0.12873 0.0
C20 C 0.15829 0.72354 0.1658 0.0
C21 C 0.18975 0.7519 0.16997 0.0
C22 C 0.11095 0.67965 0.14021 0.0
C23 C 0.08231 0.57473 0.18501 0.0
C24 C 0.14824 0.56627 0.1437 0.0
C25 C 1.01048 0.42706 0.14846 0.0
C26 C 0.94789 0.38056 0.15953 0.0
C27 C 0.96576 0.41341 0.17212 0.0
C28 C 0.99663 0.43654 0.16657 0.0
C29 C 0.9931 0.39416 0.13603 0.0
C30 C 0.96207 0.37113 0.14147 0.0
C31 C 1.0416 0.4522 0.14163 0.0
H32 H 0.20669 0.76411 0.11991 0.0
H33 H 0.15167 0.7148 0.11263 0.0
H34 H 0.14512 0.71256 0.1788 0.0
H35 H 0.20018 0.76188 0.18605 0.0
H36 H 0.95592 0.42131 0.18629 0.0
H37 H 1.00943 0.46202 0.17632 0.0
H38 H 1.00319 0.38662 0.12187 0.0
H39 H 0.94876 0.34637 0.13124 0.0
Dy40 Dy 0.54436 0.03016 0.50976 0.0
Dy41 Dy 0.6304 0.05847 0.52018 0.0
C42 C 0.58202 0.04146 0.55671 0.0
O43 O 0.5602 0.08929 0.50532 0.0
O44 O 0.61228 0.10753 0.52646 0.0
O45 O 0.49244 0.02895 0.51692 0.0
O46 O 0.49935 1.00036 0.48814 0.0
O47 O 0.61752 0.07077 0.48811 0.0
O48 O 0.5683 0.02259 0.48042 0.0
O49 O 0.61522 0.99768 0.51188 0.0
O50 O 0.55814 0.98162 0.51924 0.0
O51 O 0.68076 0.05846 0.51104 0.0
O52 O 0.6776 0.09082 0.53947 0.0
C53 C 0.58622 0.11507 0.51613 0.0
O54 O 0.55567 0.04457 0.54436 0.0
O55 O 0.6111 0.0393 0.54965 0.0
C56 C 0.4474 0.97556 0.50275 0.0
C57 C 0.39057 0.91294 0.5045 0.0
C58 C 0.42346 0.91707 0.5155 0.0
C59 C 0.4517 0.94814 0.5146 0.0
C60 C 0.41465 0.97191 0.49211 0.0
C61 C 0.38651 0.94093 0.49294 0.0
C62 C 0.47706 0.00704 0.50018 0.0
C63 C 0.59415 0.04759 0.47439 0.0
C64 C 0.58661 0.97306 0.51569 0.0
C65 C 0.72261 0.11635 0.51933 0.0
C66 C 0.76858 0.18045 0.50786 0.0
C67 C 0.73738 0.1616 0.49507 0.0
C68 C 0.71455 0.13004 0.50081 0.0
C69 C 0.75377 0.13474 0.53206 0.0
C70 C 0.77658 0.16653 0.5264 0.0
C71 C 0.6978 0.08408 0.52591 0.0
H72 H 0.42742 0.89623 0.5247 0.0
H73 H 0.47696 0.95053 0.52284 0.0
H74 H 0.41102 0.99271 0.48274 0.0
H75 H 0.36185 0.93844 0.48395 0.0
H76 H 0.7306 0.17111 0.48054 0.0
H77 H 0.69046 0.11646 0.49082 0.0
H78 H 0.76024 0.12479 0.54652 0.0
H79 H 0.8001 0.18057 0.53676 0.0
Dy80 Dy 0.61178 0.5876 0.83982 0.0
Dy81 Dy 0.52746 0.55237 0.8273 0.0
C82 C 0.57926 0.56116 0.79287 0.0
O83 O 0.58894 0.63296 0.84705 0.0
O84 O 0.54065 0.61171 0.82306 0.0
O85 O 0.65856 0.63173 0.8382 0.0
O86 O 0.66129 0.58632 0.85493 0.0
O87 O 0.53366 0.57458 0.86092 0.0
O88 O 0.58948 0.57241 0.86935 0.0
O89 O 0.54642 0.50636 0.83678 0.0
O90 O 0.60357 0.5281 0.83033 0.0
O91 O 0.47627 0.51964 0.83292 0.0
O92 O 0.48328 0.54473 0.80423 0.0
C93 C 0.5635 0.63873 0.83517 0.0
O94 O 0.60125 0.58788 0.80547 0.0
O95 O 0.55287 0.53827 0.79983 0.0
C96 C 0.70817 0.61151 0.83606 0.0
C97 C 0.76259 0.59759 0.81523 0.0
C98 C 0.73185 0.5991 0.80382 0.0
C99 C 0.70478 0.60579 0.81415 0.0
C100 C 0.73911 0.61115 0.84745 0.0
C101 C 0.76602 0.60415 0.83717 0.0
C102 C 0.67887 0.61535 0.84722 0.0
C103 C 0.55909 0.57374 0.87478 0.0
C104 C 0.57662 0.50111 0.83381 0.0
C105 C 0.42772 0.53474 0.81662 0.0
C106 C 0.35915 0.53997 0.8161 0.0
C107 C 0.37757 0.53623 0.83479 0.0
C108 C 0.4115 0.53363 0.83506 0.0
C109 C 0.41004 0.54035 0.79819 0.0
C110 C 0.37614 0.54307 0.79794 0.0
C111 C 0.46102 0.5261 0.81572 0.0
H112 H 0.7284 0.59444 0.78694 0.0
H113 H 0.68093 0.60568 0.80503 0.0
H114 H 0.74202 0.61514 0.86435 0.0
H115 H 0.78889 0.60234 0.84653 0.0
H116 H 0.36506 0.53307 0.84899 0.0
H117 H 0.42433 0.52913 0.8495 0.0
H118 H 0.42188 0.54114 0.78373 0.0
H119 H 0.36274 0.5462 0.78334 0.0
H120 H 0.54907 0.07073 0.19391 0.0
H121 H 0.61457 0.11241 0.25179 0.0
H122 H 0.51524 0.03061 0.25097 0.0
H123 H 0.61599 0.16785 0.23293 0.0
C124 C 0.62616 0.1558 0.22001 0.0
C125 C 0.55364 0.07073 0.21064 0.0
C126 C 0.52847 0.04776 0.22119 0.0
C127 C 0.58398 0.09506 0.2218 0.0
C128 C 0.59022 0.09485 0.24345 0.0
C129 C 0.56584 0.07126 0.25416 0.0
C130 C 0.53473 0.04834 0.24289 0.0
N131 N 0.6083 0.11949 0.2111 0.0
H132 H 0.5868 0.51099 0.5106 0.0
H133 H 0.57935 0.57815 0.56572 0.0
H134 H 0.59466 0.47381 0.57108 0.0
H135 H 0.5322 0.58242 0.53717 0.0
C136 C 0.5541 0.59483 0.52872 0.0
C137 C 0.58693 0.51532 0.52737 0.0
C138 C 0.59136 0.48848 0.5398 0.0
C139 C 0.5823 0.54768 0.53667 0.0
C140 C 0.58259 0.55316 0.55846 0.0
C141 C 0.58692 0.52658 0.57092 0.0
C142 C 0.59131 0.49445 0.56148 0.0
N143 N 0.5779 0.57498 0.52423 0.0
H144 H 0.98609 0.37148 0.82891 0.0
H145 H 1.00388 0.36395 0.89441 0.0
H146 H 0.97664 0.45599 0.87398 0.0
H147 H 1.02149 0.29997 0.83306 0.0
C148 C 1.02618 0.32657 0.84177 0.0
C149 C 0.98712 0.38284 0.84493 0.0
C150 C 0.98 0.41603 0.84931 0.0
C151 C 0.99544 0.36398 0.8612 0.0
C152 C 0.99702 0.37847 0.88195 0.0
C153 C 0.99111 0.41217 0.8866 0.0
C154 C 0.9821 0.43045 0.87026 0.0
N155 N 1.00345 0.33089 0.85682 0.0
H156 H 0.07585 0.57552 0.46595 0.0
H157 H 1.02233 0.53183 0.4047 0.0
H158 H 0.10992 0.62956 0.41281 0.0
H159 H 0.97542 0.51574 0.42511 0.0
C160 C 0.98782 0.50421 0.43715 0.0
C161 C 0.07286 0.57713 0.44931 0.0
C162 C 0.09532 0.60601 0.44082 0.0
C163 C 1.04582 0.55087 0.43646 0.0
C164 C 1.04249 0.55266 0.41479 0.0
C165 C 0.06558 0.58093 0.40602 0.0
C166 C 0.09157 0.60782 0.41927 0.0
N167 N 1.02299 0.52237 0.44562 0.0
H168 H 0.56944 0.10354 0.83794 0.0
H169 H 0.558 0.02882 0.78245 0.0
H170 H 0.58449 0.14354 0.77819 0.0
H171 H 0.51137 0.99697 0.80367 0.0
C172 C 0.53223 0.99784 0.81569 0.0
C173 C 0.5701 0.09855 0.82127 0.0
C174 C 0.57784 0.12807 0.80919 0.0
C175 C 0.56282 0.06248 0.81169 0.0
C176 C 0.56315 0.05632 0.79 0.0
C177 C 0.57122 0.08542 0.77799 0.0
C178 C 0.57892 0.12113 0.78764 0.0
N179 N 0.55612 0.03251 0.82379 0.0
H180 H 0.5475 0.5695 0.1556 0.0
H181 H 0.59388 0.56598 0.09798 0.0
H182 H 0.48654 0.56429 0.09676 0.0
H183 H 0.61666 0.524 0.11752 0.0
C184 C 0.63005 0.54655 0.12941 0.0
C185 C 0.54535 0.56795 0.13875 0.0
C186 C 0.51288 0.56743 0.12736 0.0
C187 C 0.57493 0.56618 0.12803 0.0
C188 C 0.57134 0.56519 0.10619 0.0
C189 C 0.53987 0.56473 0.09484 0.0
C190 C 0.51106 0.56544 0.10554 0.0
N191 N 0.60846 0.56661 0.13862 0.0
H192 H 0.17782 0.51073 0.15024 0.0
H193 H 0.23869 0.51097 0.14969 0.0
H194 H 0.26766 0.62279 0.13691 0.0
H195 H 0.20662 0.62237 0.137 0.0
H196 H 0.3035 0.59193 0.11481 0.0
H197 H 0.28762 0.59094 0.18724 0.0
H198 H 0.25973 0.5686 0.21804 0.0
H199 H 0.27938 0.46611 0.20419 0.0
H200 H 0.307 0.4877 0.17314 0.0
H201 H 0.48776 0.6261 0.13213 0.0
H202 H 0.42807 0.62636 0.13709 0.0
H203 H 0.40017 0.51244 0.14535 0.0
H204 H 0.46034 0.51247 0.14064 0.0
H205 H 0.36402 0.54376 0.17004 0.0
H206 H 0.38075 0.54554 0.09782 0.0
H207 H 0.4101 0.56886 0.06767 0.0
H208 H 0.38918 0.67071 0.08146 0.0
H209 H 0.36028 0.64823 0.11195 0.0
C210 C 0.19701 0.53555 0.14737 0.0
C211 C 0.18646 0.56657 0.14376 0.0
C212 C 0.23236 0.53576 0.14719 0.0
C213 C 0.25905 0.56712 0.14359 0.0
C214 C 0.24842 0.59801 0.13979 0.0
C215 C 0.21306 0.59779 0.13992 0.0
C216 C 0.29752 0.56767 0.14349 0.0
C217 C 0.31661 0.58182 0.12715 0.0
C218 C 0.31559 0.55385 0.15912 0.0
C219 C 0.29905 0.5408 0.17775 0.0
C220 C 0.28576 0.56355 0.19068 0.0
C221 C 0.27004 0.55104 0.20819 0.0
C222 C 0.2677 0.51593 0.21303 0.0
C223 C 0.28116 0.49328 0.2004 0.0
C224 C 0.29688 0.50565 0.18285 0.0
C225 C 0.46935 0.60137 0.13581 0.0
C226 C 0.47979 0.56959 0.13665 0.0
C227 C 0.43465 0.60131 0.13825 0.0
C228 C 0.40841 0.56922 0.14124 0.0
C229 C 0.41921 0.53778 0.14308 0.0
C230 C 0.45406 0.53787 0.14063 0.0
C231 C 0.3699 0.56822 0.14146 0.0
C232 C 0.35084 0.55392 0.15776 0.0
C233 C 0.35184 0.58195 0.12582 0.0
C234 C 0.36864 0.59532 0.10729 0.0
C235 C 0.38258 0.57299 0.09449 0.0
C236 C 0.39914 0.58605 0.07735 0.0
C237 C 0.40156 0.62127 0.07268 0.0
C238 C 0.38733 0.64345 0.08512 0.0
C239 C 0.37086 0.63056 0.10233 0.0
H240 H 0.4144 0.63134 0.0594 0.0
H241 H 0.25552 0.50629 0.2266 0.0
H242 H 0.75071 0.23515 0.48994 0.0
H243 H 0.7896 0.28987 0.4788 0.0
H244 H 0.87923 0.25895 0.50169 0.0
H245 H 0.84049 0.20344 0.51239 0.0
H246 H 0.88554 0.33343 0.51265 0.0
H247 H 0.85575 0.24511 0.45156 0.0
H248 H 0.81518 0.19913 0.42504 0.0
H249 H 0.76772 0.27914 0.40609 0.0
H250 H 0.8077 0.32549 0.43272 0.0
H251 H 1.01019 0.46077 0.46299 0.0
H252 H 0.97429 0.40597 0.47588 0.0
H253 H 0.88161 0.42013 0.4438 0.0
H254 H 0.91767 0.47407 0.43022 0.0
H255 H 0.87809 0.35265 0.43786 0.0
H256 H 0.9047 0.44057 0.49859 0.0
H257 H 0.94252 0.48742 0.52576 0.0
H258 H 0.99274 0.41042 0.54613 0.0
H259 H 0.95551 0.36322 0.51889 0.0
C260 C 0.77867 0.23968 0.49243 0.0
C261 C 0.7924 0.2146 0.50189 0.0
C262 C 0.80086 0.27113 0.48616 0.0
C263 C 0.83725 0.27826 0.48926 0.0
C264 C 0.85118 0.25391 0.49919 0.0
C265 C 0.82898 0.22227 0.50535 0.0
C266 C 0.86065 0.31082 0.48172 0.0
C267 C 0.88434 0.3375 0.49627 0.0
C268 C 0.85834 0.31642 0.46043 0.0
C269 C 0.83452 0.28868 0.44426 0.0
C270 C 0.8365 0.25283 0.44184 0.0
C271 C 0.81363 0.22671 0.42677 0.0
C272 C 0.78883 0.23619 0.41392 0.0
C273 C 0.78692 0.27183 0.41607 0.0
C274 C 0.8097 0.29804 0.43114 0.0
C275 C 0.98214 0.45226 0.45879 0.0
C276 C 0.96659 0.47171 0.4457 0.0
C277 C 0.9616 0.42101 0.46624 0.0
C278 C 0.92509 0.40911 0.46109 0.0
C279 C 0.90966 0.42868 0.44802 0.0
C280 C 0.93024 0.45956 0.44032 0.0
C281 C 0.90296 0.37578 0.46881 0.0
C282 C 0.87947 0.34878 0.45427 0.0
C283 C 0.90517 0.37015 0.49016 0.0
C284 C 0.92757 0.39847 0.50656 0.0
C285 C 0.924 0.43371 0.50876 0.0
C286 C 0.94529 0.46031 0.52419 0.0
C287 C 0.97009 0.45193 0.53762 0.0
C288 C 0.97357 0.41689 0.53569 0.0
C289 C 0.95236 0.39019 0.52027 0.0
H290 H 0.98655 0.47257 0.54956 0.0
H291 H 0.77115 0.21592 0.40227 0.0
H292 H 0.60546 0.70165 0.85833 0.0
H293 H 0.60261 0.7638 0.85686 0.0
H294 H 0.51349 0.72374 0.81005 0.0
H295 H 0.51635 0.66164 0.81126 0.0
H296 H 0.55951 0.78268 0.79917 0.0
H297 H 0.50496 0.75048 0.86098 0.0
H298 H 0.50114 0.72899 0.89571 0.0
H299 H 0.59125 0.81834 0.9208 0.0
H300 H 0.5959 0.84008 0.88612 0.0
H301 H 0.49201 0.93082 0.79926 0.0
H302 H 0.50038 0.87195 0.80441 0.0
H303 H 0.592 0.92566 0.84779 0.0
H304 H 0.58358 0.98511 0.84268 0.0
H305 H 0.54998 0.86238 0.86135 0.0
H306 H 0.60209 0.89651 0.79958 0.0
H307 H 0.60543 0.91744 0.76469 0.0
H308 H 0.51955 0.82387 0.73935 0.0
H309 H 0.51529 0.80267 0.77416 0.0
C310 C 0.58512 0.70598 0.84778 0.0
C311 C 0.5611 0.67647 0.83493 0.0
C312 C 0.58346 0.74161 0.84701 0.0
C313 C 0.55767 0.74859 0.83345 0.0
C314 C 0.53366 0.71917 0.82064 0.0
C315 C 0.53526 0.68357 0.82141 0.0
C316 C 0.556 0.78652 0.83223 0.0
C317 C 0.55703 0.79991 0.81274 0.0
C318 C 0.55386 0.80959 0.85003 0.0
C319 C 0.551 0.79668 0.87091 0.0
C320 C 0.52413 0.76538 0.87387 0.0
C321 C 0.52178 0.75318 0.89355 0.0
C322 C 0.546 0.77223 0.91044 0.0
C323 C 0.57255 0.80358 0.90769 0.0
C324 C 0.57504 0.81587 0.88803 0.0
C325 C 0.51385 0.93013 0.81001 0.0
C326 C 0.53718 0.96261 0.8205 0.0
C327 C 0.5187 0.89644 0.81287 0.0
C328 C 0.54711 0.89429 0.82626 0.0
C329 C 0.56996 0.92662 0.83732 0.0
C330 C 0.56516 0.96057 0.83438 0.0
C331 C 0.55289 0.85821 0.82822 0.0
C332 C 0.55269 0.8452 0.84782 0.0
C333 C 0.55576 0.8354 0.81051 0.0
C334 C 0.55818 0.84815 0.78954 0.0
C335 C 0.5837 0.88056 0.78661 0.0
C336 C 0.5858 0.89245 0.76684 0.0
C337 C 0.56269 0.87202 0.74983 0.0
C338 C 0.53743 0.83967 0.75255 0.0
C339 C 0.53517 0.82769 0.7723 0.0
H340 H 0.5644 0.8812 0.73452 0.0
H341 H 0.54414 0.76274 0.92567 0.0
H342 H 0.97877 0.62313 0.15442 0.0
H343 H 0.91763 0.62268 0.15391 0.0
H344 H 0.8835 0.50897 0.12988 0.0
H345 H 0.94463 0.50934 0.13031 0.0
H346 H 0.84343 0.54054 0.10963 0.0
H347 H 0.87554 0.54355 0.18342 0.0
H348 H 0.9103 0.56754 0.21758 0.0
H349 H 0.89118 0.67054 0.21374 0.0
H350 H 0.856 0.64704 0.17962 0.0
H351 H 0.66398 0.49691 0.12132 0.0
H352 H 0.72608 0.50279 0.12512 0.0
H353 H 0.74922 0.61446 0.15179 0.0
H354 H 0.68582 0.60799 0.14863 0.0
H355 H 0.79597 0.58843 0.17039 0.0
H356 H 0.76128 0.58566 0.09813 0.0
H357 H 0.72591 0.56292 0.06406 0.0
H358 H 0.75167 0.46262 0.06381 0.0
H359 H 0.78682 0.48456 0.09803 0.0
C360 C 0.9584 0.59785 0.14907 0.0
C361 C 0.96751 0.56626 0.14244 0.0
C362 C 0.92297 0.59756 0.14891 0.0
C363 C 0.89483 0.56566 0.14209 0.0
C364 C 0.90395 0.53416 0.1353 0.0
C365 C 0.93936 0.53438 0.1356 0.0
C366 C 0.85632 0.56516 0.14148 0.0
C367 C 0.8332 0.5506 0.12311 0.0
C368 C 0.84208 0.57937 0.15856 0.0
C369 C 0.8635 0.59368 0.1789 0.0
C370 C 0.87898 0.5714 0.1898 0.0
C371 C 0.8987 0.58488 0.20917 0.0
C372 C 0.9032 0.62062 0.21775 0.0
C373 C 0.88776 0.64289 0.20705 0.0
C374 C 0.86782 0.62947 0.18774 0.0
C375 C 0.68206 0.5228 0.12825 0.0
C376 C 0.66914 0.55183 0.13467 0.0
C377 C 0.71813 0.52631 0.13019 0.0
C378 C 0.74362 0.55947 0.13817 0.0
C379 C 0.73084 0.58845 0.14536 0.0
C380 C 0.69426 0.58475 0.14364 0.0
C381 C 0.78293 0.56322 0.13862 0.0
C382 C 0.80619 0.57842 0.15689 0.0
C383 C 0.79747 0.54994 0.12134 0.0
C384 C 0.77644 0.53665 0.10074 0.0
C385 C 0.75921 0.55866 0.09088 0.0
C386 C 0.73922 0.54592 0.07153 0.0
C387 C 0.73647 0.51131 0.0618 0.0
C388 C 0.75379 0.4894 0.07138 0.0
C389 C 0.77378 0.50199 0.09074 0.0
H390 H 0.72099 0.5015 0.04682 0.0
H391 H 0.91852 0.631 0.23274 0.0
H392 H 0.32108 0.90652 0.50557 0.0
H393 H 0.27193 0.8508 0.50058 0.0
H394 H 0.34343 0.78664 0.49837 0.0
H395 H 0.39278 0.84242 0.50225 0.0
H396 H 0.29443 0.76285 0.46723 0.0
H397 H 0.29437 0.79074 0.54036 0.0
H398 H 0.29509 0.82872 0.57314 0.0
H399 H 0.19747 0.84355 0.55043 0.0
H400 H 0.19638 0.80608 0.51739 0.0
H401 H 0.15423 0.59841 0.46102 0.0
H402 H 0.20532 0.64763 0.47824 0.0
H403 H 0.15057 0.72621 0.46727 0.0
H404 H 0.09993 0.67718 0.44961 0.0
H405 H 0.19298 0.73784 0.5084 0.0
H406 H 0.19804 0.71692 0.43402 0.0
H407 H 0.19632 0.67805 0.40145 0.0
H408 H 0.28539 0.64993 0.42734 0.0
H409 H 0.28705 0.688 0.46031 0.0
C410 C 0.32642 0.88058 0.50405 0.0
C411 C 0.36093 0.87903 0.50415 0.0
C412 C 0.29824 0.84866 0.50149 0.0
C413 C 0.30392 0.81442 0.49931 0.0
C414 C 0.33839 0.81273 0.50008 0.0
C415 C 0.36662 0.84469 0.50249 0.0
C416 C 0.2738 0.78064 0.49456 0.0
C417 C 0.27268 0.75703 0.47656 0.0
C418 C 0.24496 0.77328 0.50644 0.0
C419 C 0.24543 0.79578 0.52632 0.0
C420 C 0.27318 0.80231 0.54229 0.0
C421 C 0.27363 0.82371 0.56093 0.0
C422 C 0.24638 0.83859 0.56385 0.0
C423 C 0.21857 0.83202 0.54815 0.0
C424 C 0.218 0.81065 0.52947 0.0
C425 C 0.15298 0.62612 0.46276 0.0
C426 C 0.12343 0.6343 0.45412 0.0
C427 C 0.18203 0.65411 0.47253 0.0
C428 C 0.18159 0.69045 0.47397 0.0
C429 C 0.15124 0.69829 0.46641 0.0
C430 C 0.12249 0.67043 0.45632 0.0
C431 C 0.21389 0.72064 0.48117 0.0
C432 C 0.21521 0.74352 0.49945 0.0
C433 C 0.243 0.72736 0.46963 0.0
C434 C 0.24238 0.70491 0.44972 0.0
C435 C 0.21704 0.70216 0.43285 0.0
C436 C 0.21611 0.68032 0.41429 0.0
C437 C 0.24071 0.66148 0.41232 0.0
C438 C 0.26631 0.66449 0.4289 0.0
C439 C 0.26724 0.68617 0.44754 0.0
H440 H 0.23998 0.64462 0.39793 0.0
H441 H 0.24678 0.85516 0.57829 0.0
H442 H 0.63445 0.47839 0.82838 0.0
H443 H 0.63897 0.41653 0.82799 0.0
H444 H 0.53074 0.37683 0.83885 0.0
H445 H 0.52616 0.43855 0.83962 0.0
H446 H 0.56961 0.34536 0.86201 0.0
H447 H 0.55729 0.36643 0.78944 0.0
H448 H 0.57404 0.40032 0.75944 0.0
H449 H 0.67591 0.38574 0.76727 0.0
H450 H 0.65992 0.35217 0.79751 0.0
H451 H 0.5315 0.15551 0.82838 0.0
H452 H 0.53515 0.21984 0.83603 0.0
H453 H 0.63938 0.25128 0.81733 0.0
H454 H 0.63488 0.18697 0.80878 0.0
H455 H 0.60632 0.28873 0.79968 0.0
H456 H 0.61905 0.26429 0.87036 0.0
H457 H 0.60448 0.2318 0.9011 0.0
H458 H 0.50579 0.25397 0.89834 0.0
H459 H 0.51955 0.28619 0.8674 0.0
C460 C 0.6116 0.45655 0.83073 0.0
C461 C 0.57986 0.46361 0.83389 0.0
C462 C 0.6142 0.42108 0.83045 0.0
C463 C 0.58506 0.39174 0.83314 0.0
C464 C 0.55361 0.39887 0.83672 0.0
C465 C 0.551 0.43429 0.83706 0.0
C466 C 0.58693 0.3535 0.83173 0.0
C467 C 0.57734 0.33283 0.8483 0.0
C468 C 0.59801 0.33734 0.81415 0.0
C469 C 0.60749 0.35705 0.79581 0.0
C470 C 0.58331 0.37062 0.78482 0.0
C471 C 0.59267 0.38976 0.76778 0.0
C472 C 0.62605 0.39525 0.76149 0.0
C473 C 0.6501 0.38151 0.77219 0.0
C474 C 0.64089 0.36239 0.78926 0.0
C475 C 0.55551 0.17623 0.82648 0.0
C476 C 0.58303 0.16629 0.81819 0.0
C477 C 0.55765 0.2131 0.83085 0.0
C478 C 0.5877 0.24085 0.82744 0.0
C479 C 0.61582 0.23069 0.82005 0.0
C480 C 0.61341 0.1939 0.81535 0.0
C481 C 0.58886 0.28018 0.82998 0.0
C482 C 0.59891 0.30114 0.81354 0.0
C483 C 0.57858 0.29667 0.8478 0.0
C484 C 0.57022 0.27739 0.86644 0.0
C485 C 0.59413 0.26201 0.87621 0.0
C486 C 0.58603 0.24368 0.89369 0.0
C487 C 0.5542 0.24075 0.90164 0.0
C488 C 0.53042 0.25623 0.89215 0.0
C489 C 0.53838 0.27457 0.87466 0.0
H490 H 0.54797 0.22654 0.91517 0.0
H491 H 0.63326 0.41009 0.7483 0.0
H492 H 0.63758 0.94198 0.5058 0.0
H493 H 0.63623 0.8783 0.50671 0.0
H494 H 0.53351 0.85327 0.52731 0.0
H495 H 0.5346 0.91655 0.52653 0.0
H496 H 0.57636 0.82467 0.55031 0.0
H497 H 0.54412 0.82925 0.4773 0.0
H498 H 0.55267 0.85268 0.44328 0.0
H499 H 0.64764 0.82348 0.44204 0.0
H500 H 0.6399 0.80032 0.47621 0.0
H501 H 0.51072 0.63514 0.53512 0.0
H502 H 0.52054 0.69962 0.5315 0.0
H503 H 0.62058 0.70623 0.50991 0.0
H504 H 0.6105 0.6411 0.51321 0.0
H505 H 0.58636 0.74564 0.48794 0.0
H506 H 0.61714 0.73742 0.55959 0.0
H507 H 0.60947 0.71434 0.59375 0.0
H508 H 0.51925 0.75137 0.59807 0.0
H509 H 0.52605 0.77419 0.56378 0.0
C510 C 0.61469 0.92293 0.51052 0.0
C511 C 0.5862 0.93451 0.51609 0.0
C512 C 0.61391 0.88648 0.51094 0.0
C513 C 0.58467 0.86091 0.51696 0.0
C514 C 0.55636 0.87247 0.52263 0.0
C515 C 0.55702 0.90875 0.52211 0.0
C516 C 0.58345 0.82214 0.51769 0.0
C517 C 0.57824 0.80733 0.53662 0.0
C518 C 0.5871 0.79977 0.50001 0.0
C519 C 0.59164 0.81344 0.47942 0.0
C520 C 0.56698 0.8281 0.46985 0.0
C521 C 0.57165 0.84128 0.45053 0.0
C522 C 0.60074 0.83968 0.44053 0.0
C523 C 0.62516 0.82477 0.44981 0.0
C524 C 0.62063 0.81159 0.46915 0.0
C525 C 0.53468 0.65024 0.52941 0.0
C526 C 0.55988 0.63315 0.52454 0.0
C527 C 0.54035 0.68715 0.52744 0.0
C528 C 0.5716 0.70802 0.52081 0.0
C529 C 0.59636 0.69073 0.51516 0.0
C530 C 0.59059 0.65355 0.51706 0.0
C531 C 0.57842 0.748 0.52047 0.0
C532 C 0.58479 0.76306 0.50167 0.0
C533 C 0.57605 0.77077 0.53831 0.0
C534 C 0.57196 0.75727 0.55902 0.0
C535 C 0.59551 0.74042 0.56775 0.0
C536 C 0.59134 0.7274 0.58715 0.0
C537 C 0.56385 0.73132 0.59805 0.0
C538 C 0.54052 0.74833 0.5896 0.0
C539 C 0.54454 0.76134 0.57019 0.0
H540 H 0.56067 0.72123 0.61307 0.0
H541 H 0.60432 0.84991 0.42558 0.0
H542 H 0.75269 0.54574 0.7816 0.0
H543 H 0.79532 0.51692 0.76988 0.0
H544 H 0.87566 0.59191 0.81413 0.0
H545 H 0.83381 0.62247 0.82494 0.0
H546 H 0.90408 0.56888 0.78119 0.0
H547 H 0.81834 0.51281 0.82833 0.0
H548 H 0.75795 0.48521 0.8363 0.0
H549 H 0.73994 0.40432 0.78335 0.0
H550 H 0.80004 0.43189 0.77488 0.0
H551 H 0.99702 0.48943 0.84658 0.0
H552 H 0.96598 0.5197 0.82419 0.0
H553 H 0.90721 0.41588 0.78993 0.0
H554 H 0.93625 0.38512 0.81347 0.0
H555 H 0.86476 0.44542 0.80377 0.0
H556 H 0.95923 0.49071 0.76525 0.0
H557 H 1.02011 0.51835 0.7583 0.0
H558 H 1.02389 0.61776 0.79495 0.0
H559 H 0.9631 0.59083 0.80219 0.0
C560 C 0.77972 0.5572 0.78823 0.0
C561 C 0.7896 0.58578 0.8047 0.0
C562 C 0.80406 0.5405 0.78155 0.0
C563 C 0.83838 0.55153 0.79159 0.0
C564 C 0.84921 0.58264 0.80631 0.0
C565 C 0.82508 0.59973 0.81273 0.0
C566 C 0.86085 0.52731 0.79008 0.0
C567 C 0.89562 0.54172 0.78593 0.0
C568 C 0.84938 0.49138 0.79556 0.0
C569 C 0.81343 0.47466 0.80082 0.0
C570 C 0.80139 0.48926 0.81834 0.0
C571 C 0.76723 0.47365 0.82293 0.0
C572 C 0.74504 0.44313 0.81028 0.0
C573 C 0.75706 0.42807 0.79306 0.0
C574 C 0.79115 0.44369 0.78835 0.0
C575 C 0.97777 0.47301 0.83413 0.0
C576 C 0.96828 0.43476 0.83231 0.0
C577 C 0.96051 0.49049 0.82096 0.0
C578 C 0.93404 0.47015 0.80529 0.0
C579 C 0.92737 0.4322 0.80196 0.0
C580 C 0.94418 0.41462 0.81541 0.0
C581 C 0.90889 0.48746 0.79585 0.0
C582 C 0.87337 0.47181 0.79806 0.0
C583 C 0.91985 0.52214 0.78862 0.0
C584 C 0.95649 0.53866 0.78427 0.0
C585 C 0.97306 0.51841 0.77192 0.0
C586 C 1.00758 0.53396 0.76793 0.0
C587 C 1.02589 0.5697 0.77625 0.0
C588 C 1.00967 0.59007 0.7885 0.0
C589 C 0.97511 0.57473 0.79248 0.0
H590 H 0.05263 0.58165 0.77316 0.0
H591 H 0.7186 0.43107 0.81384 0.0
H592 H 0.22328 0.82768 0.18176 0.0
H593 H 0.27845 0.87707 0.18894 0.0
H594 H 0.3229 0.8234 0.14223 0.0
H595 H 0.26791 0.77356 0.1352 0.0
H596 H 0.36713 0.84725 0.17825 0.0
H597 H 0.30005 0.8968 0.13171 0.0
H598 H 0.24876 0.91406 0.11823 0.0
H599 H 0.25935 0.98627 0.17431 0.0
H600 H 0.31042 0.96904 0.18829 0.0
H601 H 0.52033 0.99988 0.18608 0.0
H602 H 0.46611 0.95394 0.17001 0.0
H603 H 0.40846 0.99349 0.21502 0.0
H604 H 0.46234 0.03944 0.23096 0.0
H605 H 0.37242 0.9767 0.17556 0.0
H606 H 0.43506 0.92208 0.22333 0.0
H607 H 0.48607 0.90472 0.23721 0.0
H608 H 0.48337 0.84182 0.1787 0.0
H609 H 0.4326 0.85929 0.16436 0.0
C610 C 0.24486 0.82631 0.1731 0.0
C611 C 0.24126 0.79677 0.1579 0.0
C612 C 0.27625 0.8547 0.17707 0.0
C613 C 0.30462 0.8541 0.16594 0.0
C614 C 0.30125 0.82448 0.15091 0.0
C615 C 0.26979 0.79616 0.14684 0.0
C616 C 0.33807 0.88401 0.17043 0.0
C617 C 0.36844 0.8755 0.17726 0.0
C618 C 0.33961 0.9209 0.16946 0.0
C619 C 0.30891 0.93138 0.16112 0.0
C620 C 0.29127 0.91613 0.14125 0.0
C621 C 0.26227 0.92595 0.1335 0.0
C622 C 0.25076 0.95118 0.14542 0.0
C623 C 0.26828 0.9667 0.16511 0.0
C624 C 0.29728 0.95694 0.17294 0.0
C625 C 0.49594 0.99912 0.19225 0.0
C626 C 0.49548 0.02291 0.20985 0.0
C627 C 0.46508 0.97281 0.18317 0.0
C628 C 0.43337 0.9701 0.1915 0.0
C629 C 0.43265 0.99508 0.20839 0.0
C630 C 0.46344 0.02113 0.21754 0.0
C631 C 0.40127 0.93992 0.18361 0.0
C632 C 0.37116 0.94839 0.17622 0.0
C633 C 0.39992 0.90299 0.18408 0.0
C634 C 0.43033 0.89236 0.19269 0.0
C635 C 0.44554 0.90481 0.21337 0.0
C636 C 0.47437 0.89491 0.22133 0.0
C637 C 0.48803 0.87228 0.20883 0.0
C638 C 0.47281 0.85942 0.18835 0.0
C639 C 0.44401 0.8693 0.1803 0.0
H640 H 0.51034 0.86462 0.21502 0.0
H641 H 0.2283 0.95876 0.13939 0.0
H642 H 0.63715 0.17588 0.53511 0.0
H643 H 0.63807 0.23935 0.5357 0.0
H644 H 0.53763 0.2059 0.49853 0.0
H645 H 0.53667 0.14212 0.4976 0.0
H646 H 0.58094 0.26529 0.48519 0.0
H647 H 0.54388 0.2307 0.55063 0.0
H648 H 0.54613 0.20561 0.58424 0.0
H649 H 0.64517 0.28594 0.60455 0.0
H650 H 0.64373 0.31124 0.57091 0.0
H651 H 0.54562 0.43651 0.51117 0.0
H652 H 0.54543 0.37308 0.50326 0.0
H653 H 0.64465 0.39767 0.54114 0.0
H654 H 0.64443 0.46057 0.54931 0.0
H655 H 0.59876 0.34157 0.55324 0.0
H656 H 0.63496 0.37627 0.487 0.0
H657 H 0.63054 0.40162 0.45359 0.0
H658 H 0.53083 0.32141 0.435 0.0
H659 H 0.53444 0.29586 0.46843 0.0
C660 C 0.61516 0.18188 0.52706 0.0
C661 C 0.58669 0.15373 0.51644 0.0
C662 C 0.61572 0.21829 0.52745 0.0
C663 C 0.58771 0.22746 0.51738 0.0
C664 C 0.55952 0.19952 0.50644 0.0
C665 C 0.55896 0.16303 0.50601 0.0
C666 C 0.58779 0.26617 0.5186 0.0
C667 C 0.58441 0.28189 0.50007 0.0
C668 C 0.59272 0.28802 0.53799 0.0
C669 C 0.59384 0.27265 0.55817 0.0
C670 C 0.5663 0.24281 0.56218 0.0
C671 C 0.56739 0.22859 0.58126 0.0
C672 C 0.59581 0.24412 0.59651 0.0
C673 C 0.62319 0.27391 0.59271 0.0
C674 C 0.62223 0.28823 0.57365 0.0
C675 C 0.56785 0.42853 0.51721 0.0
C676 C 0.59506 0.45333 0.53081 0.0
C677 C 0.56771 0.39228 0.51275 0.0
C678 C 0.59499 0.38046 0.52167 0.0
C679 C 0.62321 0.40598 0.53418 0.0
C680 C 0.6232 0.44197 0.53874 0.0
C681 C 0.59277 0.34109 0.51983 0.0
C682 C 0.59545 0.3251 0.53832 0.0
C683 C 0.58699 0.3191 0.50042 0.0
C684 C 0.58482 0.33439 0.48031 0.0
C685 C 0.61196 0.36423 0.47586 0.0
C686 C 0.60962 0.37859 0.4569 0.0
C687 C 0.58038 0.3632 0.4422 0.0
C688 C 0.55344 0.33334 0.44641 0.0
C689 C 0.55564 0.31888 0.46535 0.0
H690 H 0.57862 0.37436 0.42754 0.0
H691 H 0.59658 0.23317 0.61131 0.0
H692 H 0.32435 0.5686 0.84448 0.0
H693 H 0.26152 0.54726 0.84729 0.0
H694 H 0.24522 0.47942 0.78861 0.0
H695 H 0.30775 0.50017 0.78575 0.0
H696 H 0.18606 0.50462 0.79755 0.0
H697 H 0.26672 0.44513 0.82909 0.0
H698 H 0.31974 0.44736 0.85187 0.0
H699 H 0.27961 0.49108 0.90422 0.0
H700 H 0.22662 0.48972 0.88162 0.0
H701 H 0.05689 0.3378 0.80617 0.0
H702 H 0.10882 0.38722 0.80092 0.0
H703 H 0.11698 0.43226 0.86518 0.0
H704 H 0.06636 0.38237 0.87066 0.0
H705 H 0.17753 0.42766 0.85559 0.0
H706 H 0.09092 0.47516 0.82587 0.0
H707 H 1.0377 0.47314 0.8034 0.0
H708 H 0.08666 0.45388 0.74888 0.0
H709 H 0.14003 0.45525 0.77102 0.0
C710 C 0.30724 0.54993 0.83189 0.0
C711 C 0.32111 0.53546 0.81514 0.0
C712 C 0.27135 0.53804 0.83343 0.0
C713 C 0.24892 0.51136 0.81831 0.0
C714 C 0.26211 0.5001 0.8004 0.0
C715 C 0.29798 0.51198 0.79884 0.0
C716 C 0.21429 0.48948 0.82318 0.0
C717 C 0.18399 0.48781 0.81023 0.0
C718 C 0.21171 0.46804 0.83994 0.0
C719 C 0.24294 0.46765 0.85366 0.0
C720 C 0.2693 0.45534 0.84545 0.0
C721 C 0.29934 0.45648 0.85831 0.0
C722 C 0.30307 0.46942 0.87947 0.0
C723 C 0.2767 0.48112 0.88782 0.0
C724 C 0.24667 0.48018 0.875 0.0
C725 C 0.06975 0.35844 0.81908 0.0
C726 C 0.05713 0.35682 0.83862 0.0
C727 C 0.09912 0.3868 0.81604 0.0
C728 C 0.11631 0.41386 0.83256 0.0
C729 C 0.10383 0.41199 0.85215 0.0
C730 C 0.07464 0.38364 0.85519 0.0
C731 C 0.14894 0.44238 0.82989 0.0
C732 C 0.17911 0.44504 0.84319 0.0
C733 C 0.15111 0.46483 0.81358 0.0
C734 C 0.11943 0.46501 0.80014 0.0
C735 C 0.0903 0.47031 0.80909 0.0
C736 C 0.0601 0.4693 0.79641 0.0
C737 C 0.05877 0.46323 0.77474 0.0
C738 C 0.08773 0.45851 0.76568 0.0
C739 C 0.118 0.45946 0.77829 0.0
H740 H 1.03527 0.46212 0.76495 0.0
H741 H 0.32636 0.47032 0.88941 0.0
H742 H 0.89469 0.40105 0.17566 0.0
H743 H 0.83991 0.36175 0.18507 0.0
H744 H 0.86926 0.26673 0.16451 0.0
H745 H 0.9247 0.30579 0.1556 0.0
H746 H 0.79929 0.26283 0.15028 0.0
H747 H 0.8772 0.29115 0.21442 0.0
H748 H 0.9192 0.33319 0.24203 0.0
H749 H 0.84154 0.38461 0.25697 0.0
H750 H 0.79921 0.34318 0.22923 0.0
H751 H 0.66881 0.13288 0.19456 0.0
H752 H 0.72313 0.17033 0.18341 0.0
H753 H 0.70833 0.26642 0.21569 0.0
H754 H 0.65494 0.22871 0.22767 0.0
H755 H 0.77205 0.26937 0.2236 0.0
H756 H 0.6944 0.24468 0.16034 0.0
H757 H 0.65171 0.20687 0.1316 0.0
H758 H 0.72646 0.15334 0.11382 0.0
H759 H 0.76947 0.19052 0.14264 0.0
C760 C 0.88979 0.37181 0.17337 0.0
C761 C 0.91429 0.35662 0.16499 0.0
C762 C 0.85834 0.34941 0.17863 0.0
C763 C 0.85069 0.31139 0.17558 0.0
C764 C 0.87469 0.29604 0.1669 0.0
C765 C 0.9063 0.31843 0.16177 0.0
C766 C 0.81784 0.2877 0.18178 0.0
C767 C 0.79341 0.2638 0.16634 0.0
C768 C 0.80995 0.28989 0.20263 0.0
C769 C 0.83513 0.31425 0.21963 0.0
C770 C 0.86914 0.31155 0.22351 0.0
C771 C 0.893 0.33526 0.23919 0.0
C772 C 0.88307 0.36162 0.25121 0.0
C773 C 0.8492 0.3642 0.24763 0.0
C774 C 0.82525 0.34059 0.23195 0.0
C775 C 0.67704 0.16203 0.1991 0.0
C776 C 0.65768 0.17805 0.21187 0.0
C777 C 0.70803 0.18347 0.19266 0.0
C778 C 0.71969 0.22137 0.19845 0.0
C779 C 0.69999 0.23729 0.21102 0.0
C780 C 0.66942 0.2158 0.21777 0.0
C781 C 0.75297 0.24437 0.19206 0.0
C782 C 0.77768 0.2682 0.2075 0.0
C783 C 0.76083 0.24252 0.17112 0.0
C784 C 0.73502 0.22012 0.15378 0.0
C785 C 0.70164 0.22465 0.1504 0.0
C786 C 0.6774 0.20337 0.13408 0.0
C787 C 0.68633 0.17765 0.12093 0.0
C788 C 0.71956 0.17323 0.12404 0.0
C789 C 0.74389 0.19442 0.14036 0.0
H790 H 0.66753 0.1612 0.1083 0.0
H791 H 0.90161 0.38 0.26331 0.0
H792 H 0.05108 0.59817 0.07236 0.0
H793 H 1.0339 0.58045 0.03468 0.0
H794 H 0.04937 0.47583 0.04069 0.0
H795 H 0.06684 0.49319 0.07795 0.0
H796 H 0.07239 0.55406 0.00297 0.0
H797 H 0.97705 0.41336 0.01288 0.0
H798 H 0.93794 0.38548 0.03827 0.0
H799 H 0.9263 0.48964 0.05868 0.0
H800 H 0.96487 0.51802 0.03318 0.0
H801 H 1.04672 0.42211 0.91577 0.0
H802 H 0.05629 0.45367 0.95124 0.0
H803 H 0.95608 0.47291 0.94198 0.0
H804 H 0.9464 0.44139 0.9064 0.0
H805 H 0.96834 0.44679 0.98013 0.0
H806 H 1.02396 0.54155 0.94069 0.0
H807 H 0.06297 0.57024 0.91548 0.0
H808 H 0.15177 0.56114 0.95366 0.0
H809 H 0.11322 0.53186 0.97895 0.0
C810 C 0.05101 0.57151 0.06558 0.0
C811 C 0.06026 0.54708 0.07812 0.0
C812 C 1.0413 0.56151 0.04411 0.0
C813 C 1.04012 0.52676 0.03506 0.0
C814 C 0.04987 0.50266 0.04748 0.0
C815 C 0.05996 0.51273 0.06877 0.0
C816 C 1.02821 0.51481 0.01268 0.0
C817 C 0.04949 0.53086 -0.00211 0.0
C818 C 0.99802 0.48488 0.00617 0.0
C819 C 0.97407 0.46785 0.0212 0.0
C820 C 0.96597 0.43027 0.02269 0.0
C821 C 0.94392 0.41438 0.03712 0.0
C822 C 0.92971 0.43579 0.05011 0.0
C823 C 0.93741 0.4731 0.04865 0.0
C824 C 0.9594 0.48911 0.03422 0.0
C825 C 1.02662 0.43278 0.92139 0.0
C826 C 0.9958 0.42929 0.90843 0.0
C827 C 1.03223 0.45105 0.94154 0.0
C828 C 1.00703 0.46591 0.94909 0.0
C829 C 0.97588 0.46177 0.93635 0.0
C830 C 0.97043 0.44386 0.91609 0.0
C831 C 1.01318 0.48525 0.97045 0.0
C832 C 0.99089 0.47043 0.98509 0.0
C833 C 1.04229 0.51648 0.97677 0.0
C834 C 0.06564 0.53426 0.96165 0.0
C835 C 0.05177 0.5454 0.94364 0.0
C836 C 0.07381 0.56181 0.92934 0.0
C837 C 0.10982 0.56745 0.93294 0.0
C838 C 0.12387 0.55675 0.95088 0.0
C839 C 0.10193 0.54028 0.96522 0.0
H840 H 0.12684 0.58017 0.92186 0.0
H841 H 0.9127 0.42344 0.0613 0.0
H842 H 0.55922 0.99713 0.44167 0.0
H843 H 0.56046 0.0033 0.40444 0.0
H844 H 0.63383 0.11099 0.41902 0.0
H845 H 0.63313 0.10495 0.45633 0.0
H846 H 0.57407 0.10551 0.38995 0.0
H847 H 0.66449 0.04849 0.4009 0.0
H848 H 0.68922 1.00165 0.41325 0.0
H849 H 0.61095 0.91862 0.37245 0.0
H850 H 0.58542 0.96492 0.36007 0.0
H851 H 0.59856 0.12833 0.28449 0.0
H852 H 0.60958 0.12609 0.32187 0.0
H853 H 0.55809 0.01014 0.31323 0.0
H854 H 0.54947 0.01163 0.27572 0.0
H855 H 0.6116 0.02308 0.3402 0.0
H856 H 0.5175 0.07543 0.33127 0.0
H857 H 0.48808 0.11918 0.31956 0.0
H858 H 0.56704 0.20704 0.35679 0.0
H859 H 0.5972 0.16384 0.36852 0.0
C860 C 0.57579 0.02204 0.43696 0.0
C861 C 0.59606 0.05057 0.45191 0.0
C862 C 0.57654 0.02546 0.41571 0.0
C863 C 0.59733 0.05753 0.40907 0.0
C864 C 0.61768 0.08602 0.42391 0.0
C865 C 0.61732 0.08245 0.44518 0.0
C866 C 0.5968 0.06166 0.38658 0.0
C867 C 0.58283 0.08798 0.37905 0.0
C868 C 0.60732 0.038 0.37245 0.0
C869 C 0.62288 0.01015 0.37968 0.0
C870 C 0.65239 0.02021 0.39467 0.0
C871 C 0.66658 0.99376 0.40166 0.0
C872 C 0.65162 0.95717 0.39367 0.0
C873 C 0.62249 0.94697 0.37863 0.0
C874 C 0.60818 0.97332 0.3716 0.0
C875 C 0.59008 0.10222 0.29045 0.0
C876 C 0.57281 0.0702 0.27701 0.0
C877 C 0.596 0.10107 0.31192 0.0
C878 C 0.58404 0.06806 0.32046 0.0
C879 C 0.5674 0.03599 0.30705 0.0
C880 C 0.56204 0.037 0.28558 0.0
C881 C 0.5884 0.06676 0.34336 0.0
C882 C 0.60308 0.04093 0.35102 0.0
C883 C 0.5779 0.09045 0.3576 0.0
C884 C 0.55981 0.11646 0.35058 0.0
C885 C 0.52873 0.10412 0.33683 0.0
C886 C 0.5119 0.12881 0.33021 0.0
C887 C 0.52574 0.16588 0.33737 0.0
C888 C 0.55639 0.17833 0.35122 0.0
C889 C 0.57335 0.15375 0.35787 0.0
H890 H 0.51267 0.18495 0.33223 0.0
H891 H 0.66262 0.93673 0.39911 0.0
H892 H 0.6254 0.60826 0.77183 0.0
H893 H 0.63001 0.60338 0.73432 0.0
H894 H 0.54795 0.50073 0.72568 0.0
H895 H 0.54309 0.50531 0.76312 0.0
H896 H 0.60383 0.50011 0.70306 0.0
H897 H 0.52841 0.57493 0.71546 0.0
H898 H 0.51344 0.62715 0.73248 0.0
H899 H 0.60033 0.70123 0.70928 0.0
H900 H 0.61613 0.64939 0.69236 0.0
H901 H 0.55037 0.47874 0.59546 0.0
H902 H 0.5522 0.48621 0.63343 0.0
H903 H 0.6254 0.59384 0.63614 0.0
H904 H 0.62309 0.58668 0.59799 0.0
H905 H 0.57839 0.59415 0.66227 0.0
H906 H 0.65243 0.52032 0.64816 0.0
H907 H 0.66848 0.46865 0.63134 0.0
H908 H 0.58672 0.39357 0.65796 0.0
H909 H 0.56982 0.44478 0.67469 0.0
C910 C 0.60846 0.58453 0.76198 0.0
C911 C 0.58364 0.55732 0.77043 0.0
C912 C 0.6111 0.58185 0.74056 0.0
C913 C 0.58906 0.55189 0.72725 0.0
C914 C 0.56512 0.5241 0.73572 0.0
C915 C 0.5623 0.52686 0.7571 0.0
C916 C 0.59006 0.54998 0.7044 0.0
C917 C 0.59798 0.52045 0.69407 0.0
C918 C 0.58334 0.57711 0.69285 0.0
C919 C 0.57367 0.60829 0.70284 0.0
C920 C 0.54448 0.60235 0.71412 0.0
C921 C 0.53582 0.63188 0.72373 0.0
C922 C 0.55598 0.66749 0.72202 0.0
C923 C 0.58478 0.67363 0.71062 0.0
C924 C 0.59358 0.64419 0.70101 0.0
C925 C 0.56689 0.50396 0.60417 0.0
C926 C 0.58682 0.53202 0.59384 0.0
C927 C 0.56799 0.50818 0.62586 0.0
C928 C 0.58952 0.54029 0.63767 0.0
C929 C 0.60875 0.56877 0.62734 0.0
C930 C 0.60737 0.56469 0.60559 0.0
C931 C 0.59183 0.544 0.66078 0.0
C932 C 0.58454 0.57389 0.6712 0.0
C933 C 0.59937 0.51729 0.67243 0.0
C934 C 0.60967 0.48641 0.66254 0.0
C935 C 0.63771 0.49278 0.65031 0.0
C936 C 0.64698 0.46358 0.6408 0.0
C937 C 0.62858 0.42785 0.64354 0.0
C938 C 0.60093 0.42126 0.65584 0.0
C939 C 0.59151 0.45037 0.66535 0.0
H940 H 0.63579 0.40527 0.63616 0.0
H941 H 0.54924 0.69031 0.72947 0.0
H942 H 0.52309 0.032 0.57656 0.0
H943 H 0.51916 0.035 0.61409 0.0
H944 H 0.6307 0.05496 0.62562 0.0
H945 H 0.6347 0.0509 0.58811 0.0
H946 H 0.59945 0.01095 0.65145 0.0
H947 H 0.59278 0.12417 0.62988 0.0
H948 H 0.56996 0.16399 0.60878 0.0
H949 H 0.46966 0.12431 0.63104 0.0
H950 H 0.49168 0.08351 0.65191 0.0
H951 H 0.62494 0.11033 0.7549 0.0
H952 H 0.62441 0.09815 0.71693 0.0
H953 H 0.51606 0.03374 0.71196 0.0
H954 H 0.51682 0.04482 0.75 0.0
H955 H 0.54366 0.09819 0.68338 0.0
H956 H 0.55359 0.9843 0.70536 0.0
H957 H 0.58028 0.94841 0.72736 0.0
H958 H 0.67948 0.99506 0.70516 0.0
H959 H 0.65349 0.03193 0.68337 0.0
C960 C 0.54677 0.03686 0.58707 0.0
C961 C 0.57926 0.04152 0.57935 0.0
C962 C 0.54449 0.03865 0.60853 0.0
C963 C 0.57473 0.04584 0.6227 0.0
C964 C 0.60703 0.04944 0.615 0.0
C965 C 0.60927 0.04721 0.59354 0.0
C966 C 0.57293 0.05082 0.64554 0.0
C967 C 0.58743 0.0302 0.65839 0.0
C968 C 0.55704 0.07577 0.65468 0.0
C969 C 0.54378 0.10049 0.64228 0.0
C970 C 0.56578 0.12371 0.63015 0.0
C971 C 0.55299 0.1465 0.61824 0.0
C972 C 0.51837 0.14671 0.61856 0.0
C973 C 0.49647 0.1241 0.63079 0.0
C974 C 0.50907 0.1011 0.64265 0.0
C975 C 0.60112 0.09352 0.74564 0.0
C976 C 0.57095 0.07839 0.7552 0.0
C977 C 0.60084 0.08656 0.72408 0.0
C978 C 0.57022 0.06502 0.71181 0.0
C979 C 0.5399 0.05035 0.72128 0.0
C980 C 0.54039 0.05658 0.7429 0.0
C981 C 0.56991 0.05821 0.68901 0.0
C982 C 0.55528 0.0787 0.67628 0.0
C983 C 0.58608 0.03361 0.68004 0.0
C984 C 0.60169 0.01123 0.69295 0.0
C985 C 0.58118 0.98725 0.70536 0.0
C986 C 0.59616 0.96664 0.71775 0.0
C987 C 0.63158 0.96949 0.7177 0.0
C988 C 0.65206 0.99292 0.70521 0.0
C989 C 0.63722 0.01369 0.69284 0.0
H990 H 0.64312 0.95349 0.72729 0.0
H991 H 0.50853 0.16441 0.60935 0.0
H992 H 0.59641 0.5519 0.90526 0.0
H993 H 0.58657 0.54927 0.94187 0.0
H994 H 0.49931 0.59148 0.93155 0.0
H995 H 0.50861 0.59368 0.8946 0.0
H996 H 0.55056 0.6264 0.96815 0.0
H997 H 0.47864 0.50835 0.93639 0.0
H998 H 0.46621 0.44998 0.91407 0.0
H999 H 0.54573 0.42253 0.95163 0.0
H1000 H 0.55902 0.48102 0.974 0.0
H1001 H 0.50436 0.59974 0.07004 0.0
H1002 H 0.501 0.59931 0.03228 0.0
H1003 H 0.56813 0.53041 0.02936 0.0
H1004 H 0.56935 0.52827 0.0669 0.0
H1005 H 0.52062 0.50881 -0.00176 0.0
H1006 H 0.59772 0.62636 0.02748 0.0
H1007 H 0.61502 0.68556 0.04948 0.0
H1008 H 0.53193 0.71498 0.01676 0.0
H1009 H 0.51386 0.65573 -0.00527 0.0
C1010 C 0.57515 0.56074 0.91073 0.0
C1011 C 0.55329 0.57305 0.89703 0.0
C1012 C 0.56949 0.55905 0.93164 0.0
C1013 C 0.54212 0.56998 0.93933 0.0
C1014 C 0.52053 0.58285 0.92584 0.0
C1015 C 0.52582 0.584 0.90477 0.0
C1016 C 0.53656 0.56809 0.96156 0.0
C1017 C 0.54333 0.60071 0.97474 0.0
C1018 C 0.52814 0.53457 0.97011 0.0
C1019 C 0.52002 0.49923 0.95677 0.0
C1020 C 0.49368 0.49001 0.93979 0.0
C1021 C 0.48644 0.45687 0.92715 0.0
C1022 C 0.50522 0.4326 0.9314 0.0
C1023 C 0.53122 0.44137 0.94834 0.0
C1024 C 0.53859 0.4745 0.96103 0.0
C1025 C 0.51791 0.58388 0.06138 0.0
C1026 C 0.53734 0.5642 0.07167 0.0
C1027 C 0.51636 0.58413 0.03975 0.0
C1028 C 0.53491 0.56546 0.02795 0.0
C1029 C 0.55374 0.54522 0.03809 0.0
C1030 C 0.55479 0.54442 0.05966 0.0
C1031 C 0.53517 0.56727 0.00509 0.0
C1032 C 0.52745 0.53459 0.99174 0.0
C1033 C 0.54335 0.60082 -0.00357 0.0
C1034 C 0.55421 0.63647 0.00962 0.0
C1035 C 0.58299 0.64535 0.02508 0.0
C1036 C 0.59295 0.67893 0.03754 0.0
C1037 C 0.57452 0.70397 0.03456 0.0
C1038 C 0.54614 0.69553 0.01907 0.0
C1039 C 0.53604 0.66197 0.00659 0.0
H1040 H 0.58227 0.72995 0.04422 0.0
H1041 H 0.49958 0.40695 0.92159 0.0
H1042 H 0.07011 0.51979 0.20939 0.0
H1043 H 0.0684 0.52397 0.24702 0.0
H1044 H 0.09603 0.64113 0.25033 0.0
H1045 H 0.09924 0.63713 0.2125 0.0
H1046 H 0.12775 0.62189 0.28308 0.0
H1047 H 1.01083 0.58631 0.24902 0.0
H1048 H 0.96183 0.5486 0.22374 0.0
H1049 H 0.9592 0.45481 0.2553 0.0
H1050 H 1.00919 0.49164 0.28032 0.0
H1051 H 0.07318 0.64004 0.38425 0.0
H1052 H 0.07574 0.64169 0.34672 0.0
H1053 H 0.0567 0.5253 0.33824 0.0
H1054 H 0.05461 0.52344 0.37575 0.0
H1055 H 1.01889 0.54798 0.30815 0.0
H1056 H 0.13807 0.58178 0.34006 0.0
H1057 H 0.18895 0.61821 0.36456 0.0
H1058 H 0.18647 0.71481 0.33717 0.0
H1059 H 0.13516 0.67904 0.31273 0.0
C1060 C 0.0761 0.5465 0.21814 0.0
C1061 C 0.08439 0.57814 0.208 0.0
C1062 C 0.07497 0.54884 0.23965 0.0
C1063 C 0.08109 0.58279 0.25144 0.0
C1064 C 0.09091 0.61462 0.24151 0.0
C1065 C 0.09272 0.61232 0.21993 0.0
C1066 C 0.07608 0.58468 0.27395 0.0
C1067 C 0.10372 0.60622 0.28853 0.0
C1068 C 1.04488 0.56373 0.28111 0.0
C1069 C 1.014 0.54175 0.26648 0.0
C1070 C 0.99995 0.55761 0.25053 0.0
C1071 C 0.97199 0.53637 0.23623 0.0
C1072 C 0.9573 0.49936 0.23795 0.0
C1073 C 0.97059 0.4835 0.25399 0.0
C1074 C 0.99882 0.50453 0.26821 0.0
C1075 C 0.06957 0.61478 0.3744 0.0
C1076 C 0.0639 0.58162 0.38303 0.0
C1077 C 0.07097 0.61578 0.35296 0.0
C1078 C 0.06684 0.58368 0.33974 0.0
C1079 C 0.05993 0.55039 0.34818 0.0
C1080 C 0.05859 0.54936 0.36961 0.0
C1081 C 0.07068 0.5848 0.31721 0.0
C1082 C 1.04277 0.56388 0.30264 0.0
C1083 C 0.10157 0.60629 0.31007 0.0
C1084 C 0.13253 0.62779 0.32471 0.0
C1085 C 0.14818 0.61085 0.33938 0.0
C1086 C 0.17713 0.63137 0.35324 0.0
C1087 C 0.1909 0.66881 0.35244 0.0
C1088 C 0.17575 0.68581 0.33778 0.0
C1089 C 0.14674 0.66543 0.32392 0.0
H1090 H 0.21337 0.68463 0.36314 0.0
H1091 H 0.93564 0.48297 0.22686 0.0
loop_
_geom_bond_atom_site_label_1
_geom_bond_atom_site_label_2
_geom_bond_distance
_geom_bond_site_symmetry_2
_ccdc_geom_bond_type
Dy0 O3 2.328 . S
Dy0 O5 2.395 . S
Dy0 O6 2.379 . S
Dy0 O8 2.339 . S
Dy0 O10 2.298 . S
Dy0 O14 2.275 . S
Dy0 C22 2.738 . S
Dy1 O4 2.298 1_455 S
Dy1 O7 2.275 . S
Dy1 O9 2.307 . S
Dy1 O11 2.395 1_455 S
Dy1 O12 2.379 1_455 S
Dy1 O15 2.339 . S
Dy1 C31 2.738 1_455 S
C2 O14 1.254 . S
C2 O15 1.257 . S
O3 Dy0 2.328 . S
O3 C13 1.255 1_455 S
O4 Dy1 2.298 1_655 S
O4 C13 1.236 . S
O5 Dy0 2.395 . S
O5 C22 1.255 . S
O6 Dy0 2.379 . S
O6 C22 1.249 . S
O7 Dy1 2.275 . S
O7 C23 1.254 . S
O8 Dy0 2.339 . S
O8 C23 1.257 . S
O9 Dy1 2.307 . S
O9 C24 1.266 . S
O10 Dy0 2.298 . S
O10 C24 1.236 . S
O11 Dy1 2.395 1_655 S
O11 C31 1.255 . S
O12 Dy1 2.379 1_655 S
O12 C31 1.249 . S
C13 O3 1.255 1_655 S
C13 O4 1.236 . S
O14 Dy0 2.275 . S
O14 C2 1.254 . S
O15 Dy1 2.339 . S
O15 C2 1.257 . S
C16 C19 1.344 . S
C16 C20 1.328 . S
C16 C22 1.516 . S
C17 C18 1.304 . S
C17 C21 1.323 . S
C18 C17 1.304 . S
C18 C19 1.371 . S
C18 H32 0.930 . S
C19 C16 1.344 . S
C19 C18 1.371 . S
C19 H33 0.931 . S
C20 C16 1.328 . S
C20 C21 1.433 . S
C20 H34 0.931 . S
C21 C17 1.323 . S
C21 C20 1.433 . S
C21 H35 0.933 . S
C22 Dy0 2.738 . S
C22 O5 1.255 . S
C22 O6 1.249 . S
C22 C16 1.516 . S
C23 O7 1.254 . S
C23 O8 1.257 . S
C24 O9 1.266 . S
C24 O10 1.236 . S
C25 C28 1.344 . S
C25 C29 1.328 . S
C25 C31 1.516 . S
C26 C27 1.304 . S
C26 C30 1.323 . S
C27 C26 1.304 . S
C27 C28 1.371 . S
C27 H36 0.930 . S
C28 C25 1.344 . S
C28 C27 1.371 . S
C28 H37 0.931 . S
C29 C25 1.328 . S
C29 C30 1.433 . S
C29 H38 0.931 . S
C30 C26 1.323 . S
C30 C29 1.433 . S
C30 H39 0.933 . S
C31 Dy1 2.738 1_655 S
C31 O11 1.255 . S
C31 O12 1.249 . S
C31 C25 1.516 . S
H32 C18 0.930 . S
H33 C19 0.931 . S
H34 C20 0.931 . S
H35 C21 0.933 . S
H36 C27 0.930 . S
H37 C28 0.931 . S
H38 C29 0.931 . S
H39 C30 0.933 . S
Dy40 O43 2.307 . S
Dy40 O45 2.395 1_545 S
Dy40 O46 2.379 1_545 S
Dy40 O48 2.339 . S
Dy40 O50 2.298 1_545 S
Dy40 O54 2.275 . S
Dy40 C62 2.738 1_545 S
Dy41 O44 2.298 . S
Dy41 O47 2.275 . S
Dy41 O49 2.307 . S
Dy41 O51 2.395 . S
Dy41 O52 2.379 . S
Dy41 O55 2.339 . S
Dy41 C71 2.738 . S
C42 O54 1.254 . S
C42 O55 1.257 . S
O43 Dy40 2.307 . S
O43 C53 1.266 . S
O44 Dy41 2.298 . S
O44 C53 1.236 . S
O45 Dy40 2.395 1_565 S
O45 C62 1.255 . S
O46 Dy40 2.379 1_565 S
O46 C62 1.249 . S
O47 Dy41 2.275 . S
O47 C63 1.254 . S
O48 Dy40 2.339 . S
O48 C63 1.257 . S
O49 Dy41 2.307 . S
O49 C64 1.266 1_545 S
O50 Dy40 2.298 1_565 S
O50 C64 1.236 . S
O51 Dy41 2.395 . S
O51 C71 1.255 . S
O52 Dy41 2.379 . S
O52 C71 1.249 . S
C53 O43 1.266 . S
C53 O44 1.236 . S
O54 Dy40 2.275 . S
O54 C42 1.254 . S
O55 Dy41 2.339 . S
O55 C42 1.257 . S
C56 C59 1.344 . S
C56 C60 1.328 . S
C56 C62 1.516 . S
C57 C58 1.304 . S
C57 C61 1.323 . S
C58 C57 1.304 . S
C58 C59 1.371 . S
C58 H72 0.930 . S
C59 C56 1.344 . S
C59 C58 1.371 . S
C59 H73 0.931 . S
C60 C56 1.328 . S
C60 C61 1.433 . S
C60 H74 0.931 . S
C61 C57 1.323 . S
C61 C60 1.433 . S
C61 H75 0.933 . S
C62 Dy40 2.738 1_565 S
C62 O45 1.255 . S
C62 O46 1.249 . S
C62 C56 1.516 . S
C63 O47 1.254 . S
C63 O48 1.257 . S
C64 O49 1.266 1_565 S
C64 O50 1.236 . S
C65 C68 1.344 . S
C65 C69 1.328 . S
C65 C71 1.516 . S
C66 C67 1.304 . S
C66 C70 1.323 . S
C67 C66 1.304 . S
C67 C68 1.371 . S
C67 H76 0.930 . S
C68 C65 1.344 . S
C68 C67 1.371 . S
C68 H77 0.931 . S
C69 C65 1.328 . S
C69 C70 1.433 . S
C69 H78 0.931 . S
C70 C66 1.323 . S
C70 C69 1.433 . S
C70 H79 0.933 . S
C71 Dy41 2.738 . S
C71 O51 1.255 . S
C71 O52 1.249 . S
C71 C65 1.516 . S
H72 C58 0.930 . S
H73 C59 0.931 . S
H74 C60 0.931 . S
H75 C61 0.933 . S
H76 C67 0.930 . S
H77 C68 0.931 . S
H78 C69 0.931 . S
H79 C70 0.933 . S
Dy80 O83 2.307 . S
Dy80 O85 2.395 . S
Dy80 O86 2.379 . S
Dy80 O88 2.339 . S
Dy80 O90 2.298 . S
Dy80 O94 2.275 . S
Dy80 C102 2.738 . S
Dy81 O84 2.298 . S
Dy81 O87 2.275 . S
Dy81 O89 2.307 . S
Dy81 O91 2.395 . S
Dy81 O92 2.379 . S
Dy81 O95 2.339 . S
Dy81 C111 2.738 . S
C82 O94 1.254 . S
C82 O95 1.257 . S
O83 Dy80 2.307 . S
O83 C93 1.266 . S
O84 Dy81 2.298 . S
O84 C93 1.236 . S
O85 Dy80 2.395 . S
O85 C102 1.255 . S
O86 Dy80 2.379 . S
O86 C102 1.249 . S
O87 Dy81 2.275 . S
O87 C103 1.254 . S
O88 Dy80 2.339 . S
O88 C103 1.257 . S
O89 Dy81 2.307 . S
O89 C104 1.266 . S
O90 Dy80 2.298 . S
O90 C104 1.236 . S
O91 Dy81 2.395 . S
O91 C111 1.255 . S
O92 Dy81 2.379 . S
O92 C111 1.249 . S
C93 O83 1.266 . S
C93 O84 1.236 . S
O94 Dy80 2.275 . S
O94 C82 1.254 . S
O95 Dy81 2.339 . S
O95 C82 1.257 . S
C96 C99 1.344 . S
C96 C100 1.328 . S
C96 C102 1.516 . S
C97 C98 1.304 . S
C97 C101 1.323 . S
C98 C97 1.304 . S
C98 C99 1.371 . S
C98 H112 0.930 . S
C99 C96 1.344 . S
C99 C98 1.371 . S
C99 H113 0.931 . S
C100 C96 1.328 . S
C100 C101 1.433 . S
C100 H114 0.931 . S
C101 C97 1.323 . S
C101 C100 1.433 . S
C101 H115 0.933 . S
C102 Dy80 2.738 . S
C102 O85 1.255 . S
C102 O86 1.249 . S
C102 C96 1.516 . S
C103 O87 1.254 . S
C103 O88 1.257 . S
C104 O89 1.266 . S
C104 O90 1.236 . S
C105 C108 1.344 . S
C105 C109 1.328 . S
C105 C111 1.516 . S
C106 C107 1.304 . S
C106 C110 1.323 . S
C107 C106 1.304 . S
C107 C108 1.371 . S
C107 H116 0.930 . S
C108 C105 1.344 . S
C108 C107 1.371 . S
C108 H117 0.931 . S
C109 C105 1.328 . S
C109 C110 1.433 . S
C109 H118 0.931 . S
C110 C106 1.323 . S
C110 C109 1.433 . S
C110 H119 0.933 . S
C111 Dy81 2.738 . S
C111 O91 1.255 . S
C111 O92 1.249 . S
C111 C105 1.516 . S
H112 C98 0.930 . S
H113 C99 0.931 . S
H114 C100 0.931 . S
H115 C101 0.933 . S
H116 C107 0.930 . S
H117 C108 0.931 . S
H118 C109 0.931 . S
H119 C110 0.933 . S
H120 C125 0.930 . S
H121 C128 0.930 . S
H122 C130 0.930 . S
H123 C124 1.016 . S
C124 H123 1.016 . S
C124 N131 1.286 . S
C125 H120 0.930 . S
C125 C126 1.397 . S
C125 C127 1.361 . S
C126 C125 1.397 . S
C126 C130 1.390 . S
C127 C125 1.361 . S
C127 C128 1.393 . S
C127 N131 1.413 . S
C128 H121 0.930 . S
C128 C127 1.393 . S
C128 C129 1.399 . S
C129 C128 1.399 . S
C129 C130 1.381 . S
C130 H122 0.930 . S
C130 C126 1.390 . S
C130 C129 1.381 . S
N131 C124 1.286 . S
N131 C127 1.413 . S
H132 C137 0.930 . S
H133 C140 0.930 . S
H134 C142 0.930 . S
H135 C136 1.016 . S
C136 H135 1.016 . S
C136 N143 1.286 . S
C137 H132 0.930 . S
C137 C138 1.397 . S
C137 C139 1.361 . S
C138 C137 1.397 . S
C138 C142 1.390 . S
C139 C137 1.361 . S
C139 C140 1.393 . S
C139 N143 1.413 . S
C140 H133 0.930 . S
C140 C139 1.393 . S
C140 C141 1.399 . S
C141 C140 1.399 . S
C141 C142 1.381 . S
C142 H134 0.930 . S
C142 C138 1.390 . S
C142 C141 1.381 . S
N143 C136 1.286 . S
N143 C139 1.413 . S
H144 C149 0.930 . S
H145 C152 0.930 . S
H146 C154 0.930 . S
H147 C148 1.016 . S
C148 H147 1.016 . S
C148 N155 1.286 . S
C149 H144 0.930 . S
C149 C150 1.397 1_455 S
C149 C151 1.361 . S
C150 C149 1.397 1_655 S
C150 C154 1.390 . S
C151 C149 1.361 . S
C151 C152 1.393 . S
C151 N155 1.413 . S
C152 H145 0.930 . S
C152 C151 1.393 . S
C152 C153 1.399 . S
C153 C152 1.399 . S
C153 C154 1.381 1_455 S
C154 H146 0.930 . S
C154 C150 1.390 . S
C154 C153 1.381 1_655 S
N155 C148 1.286 . S
N155 C151 1.413 . S
H156 C161 0.930 . S
H157 C164 0.930 . S
H158 C166 0.930 . S
H159 C160 1.016 . S
C160 H159 1.016 . S
C160 N167 1.286 . S
C161 H156 0.930 . S
C161 C162 1.397 . S
C161 C163 1.361 . S
C162 C161 1.397 . S
C162 C166 1.390 . S
C163 C161 1.361 . S
C163 C164 1.393 1_455 S
C163 N167 1.413 1_455 S
C164 H157 0.930 . S
C164 C163 1.393 1_655 S
C164 C165 1.399 1_655 S
C165 C164 1.399 1_455 S
C165 C166 1.381 . S
C166 H158 0.930 . S
C166 C162 1.390 . S
C166 C165 1.381 . S
N167 C160 1.286 . S
N167 C163 1.413 1_655 S
H168 C173 0.930 . S
H169 C176 0.930 . S
H170 C178 0.930 . S
H171 C172 1.016 . S
C172 H171 1.016 . S
C172 N179 1.286 . S
C173 H168 0.930 . S
C173 C174 1.397 . S
C173 C175 1.361 1_545 S
C174 C173 1.397 . S
C174 C178 1.390 . S
C175 C173 1.361 1_565 S
C175 C176 1.393 . S
C175 N179 1.413 . S
C176 H169 0.930 . S
C176 C175 1.393 . S
C176 C177 1.399 1_565 S
C177 C176 1.399 1_545 S
C177 C178 1.381 . S
C178 H170 0.930 . S
C178 C174 1.390 . S
C178 C177 1.381 . S
N179 C172 1.286 . S
N179 C175 1.413 . S
H180 C185 0.930 . S
H181 C188 0.930 . S
H182 C190 0.930 . S
H183 C184 1.016 . S
C184 H183 1.016 . S
C184 N191 1.286 . S
C185 H180 0.930 . S
C185 C186 1.397 . S
C185 C187 1.361 . S
C186 C185 1.397 . S
C186 C190 1.390 . S
C187 C185 1.361 . S
C187 C188 1.393 . S
C187 N191 1.413 . S
C188 H181 0.930 . S
C188 C187 1.393 . S
C188 C189 1.399 . S
C189 C188 1.399 . S
C189 C190 1.381 . S
C190 H182 0.930 . S
C190 C186 1.390 . S
C190 C189 1.381 . S
N191 C184 1.286 . S
N191 C187 1.413 . S
H192 C210 0.951 . S
H193 C212 0.951 . S
H194 C214 0.950 . S
H195 C215 0.950 . S
H196 C217 0.950 . S
H197 C220 0.950 . S
H198 C221 0.950 . S
H199 C223 0.950 . S
H200 C224 0.950 . S
H201 C225 0.951 . S
H202 C227 0.951 . S
H203 C229 0.950 . S
H204 C230 0.950 . S
H205 C232 0.950 . S
H206 C235 0.950 . S
H207 C236 0.950 . S
H208 C238 0.950 . S
H209 C239 0.950 . S
C210 H192 0.951 . S
C210 C211 1.366 . S
C210 C212 1.388 . S
C211 C210 1.366 . S
C211 C215 1.385 . S
C212 H193 0.951 . S
C212 C210 1.388 . S
C212 C213 1.366 . S
C213 C212 1.366 . S
C213 C214 1.414 . S
C213 C216 1.499 . S
C214 H194 0.950 . S
C214 C213 1.414 . S
C214 C215 1.374 . S
C215 H195 0.950 . S
C215 C211 1.385 . S
C215 C214 1.374 . S
C216 C213 1.499 . S
C216 C217 1.373 . S
C216 C218 1.389 . S
C217 H196 0.950 . S
C217 C216 1.373 . S
C217 C233 1.377 . S
C218 C216 1.389 . S
C218 C219 1.524 . S
C218 C232 1.377 . S
C219 C218 1.524 . S
C219 C220 1.397 . S
C219 C224 1.363 . S
C220 H197 0.950 . S
C220 C219 1.397 . S
C220 C221 1.334 . S
C221 H198 0.950 . S
C221 C220 1.334 . S
C221 C222 1.287 . S
C222 C221 1.287 . S
C222 C223 1.524 . S
C222 H241 0.913 . S
C223 H199 0.950 . S
C223 C222 1.524 . S
C223 C224 1.415 . S
C224 H200 0.950 . S
C224 C219 1.363 . S
C224 C223 1.415 . S
C225 H201 0.951 . S
C225 C226 1.366 . S
C225 C227 1.388 . S
C226 C225 1.366 . S
C226 C230 1.385 . S
C227 H202 0.951 . S
C227 C225 1.388 . S
C227 C228 1.366 . S
C228 C227 1.366 . S
C228 C229 1.414 . S
C228 C231 1.499 . S
C229 H203 0.950 . S
C229 C228 1.414 . S
C229 C230 1.374 . S
C230 H204 0.950 . S
C230 C226 1.385 . S
C230 C229 1.374 . S
C231 C228 1.499 . S
C231 C232 1.373 . S
C231 C233 1.389 . S
C232 H205 0.950 . S
C232 C218 1.377 . S
C232 C231 1.373 . S
C233 C217 1.377 . S
C233 C231 1.389 . S
C233 C234 1.524 . S
C234 C233 1.524 . S
C234 C235 1.397 . S
C234 C239 1.363 . S
C235 H206 0.950 . S
C235 C234 1.397 . S
C235 C236 1.334 . S
C236 H207 0.950 . S
C236 C235 1.334 . S
C236 C237 1.287 . S
C237 C236 1.287 . S
C237 C238 1.524 . S
C237 H240 0.999 . S
C238 H208 0.950 . S
C238 C237 1.524 . S
C238 C239 1.415 . S
C239 H209 0.950 . S
C239 C234 1.363 . S
C239 C238 1.415 . S
H240 C237 0.999 . S
H241 C222 0.913 . S
H242 C260 0.951 . S
H243 C262 0.951 . S
H244 C264 0.950 . S
H245 C265 0.950 . S
H246 C267 0.950 . S
H247 C270 0.950 . S
H248 C271 0.950 . S
H249 C273 0.950 . S
H250 C274 0.950 . S
H251 C275 0.951 . S
H252 C277 0.951 . S
H253 C279 0.950 . S
H254 C280 0.950 . S
H255 C282 0.950 . S
H256 C285 0.950 . S
H257 C286 0.950 . S
H258 C288 0.950 . S
H259 C289 0.950 . S
C260 H242 0.951 . S
C260 C261 1.366 . S
C260 C262 1.388 . S
C261 C260 1.366 . S
C261 C265 1.385 . S
C262 H243 0.951 . S
C262 C260 1.388 . S
C262 C263 1.366 . S
C263 C262 1.366 . S
C263 C264 1.414 . S
C263 C266 1.499 . S
C264 H244 0.950 . S
C264 C263 1.414 . S
C264 C265 1.374 . S
C265 H245 0.950 . S
C265 C261 1.385 . S
C265 C264 1.374 . S
C266 C263 1.499 . S
C266 C267 1.373 . S
C266 C268 1.389 . S
C267 H246 0.950 . S
C267 C266 1.373 . S
C267 C283 1.377 . S
C268 C266 1.389 . S
C268 C269 1.524 . S
C268 C282 1.377 . S
C269 C268 1.524 . S
C269 C270 1.397 . S
C269 C274 1.363 . S
C270 H247 0.950 . S
C270 C269 1.397 . S
C270 C271 1.334 . S
C271 H248 0.950 . S
C271 C270 1.334 . S
C271 C272 1.287 . S
C272 C271 1.287 . S
C272 C273 1.524 . S
C272 H291 0.913 . S
C273 H249 0.950 . S
C273 C272 1.524 . S
C273 C274 1.415 . S
C274 H250 0.950 . S
C274 C269 1.363 . S
C274 C273 1.415 . S
C275 H251 0.951 . S
C275 C276 1.366 . S
C275 C277 1.388 . S
C276 C275 1.366 . S
C276 C280 1.385 . S
C277 H252 0.951 . S
C277 C275 1.388 . S
C277 C278 1.366 . S
C278 C277 1.366 . S
C278 C279 1.414 . S
C278 C281 1.499 . S
C279 H253 0.950 . S
C279 C278 1.414 . S
C279 C280 1.374 . S
C280 H254 0.950 . S
C280 C276 1.385 . S
C280 C279 1.374 . S
C281 C278 1.499 . S
C281 C282 1.373 . S
C281 C283 1.389 . S
C282 H255 0.950 . S
C282 C268 1.377 . S
C282 C281 1.373 . S
C283 C267 1.377 . S
C283 C281 1.389 . S
C283 C284 1.524 . S
C284 C283 1.524 . S
C284 C285 1.397 . S
C284 C289 1.363 . S
C285 H256 0.950 . S
C285 C284 1.397 . S
C285 C286 1.334 . S
C286 H257 0.950 . S
C286 C285 1.334 . S
C286 C287 1.287 . S
C287 C286 1.287 . S
C287 C288 1.524 . S
C287 H290 0.999 . S
C288 H258 0.950 . S
C288 C287 1.524 . S
C288 C289 1.415 . S
C289 H259 0.950 . S
C289 C284 1.363 . S
C289 C288 1.415 . S
H290 C287 0.999 . S
H291 C272 0.913 . S
H292 C310 0.951 . S
H293 C312 0.951 . S
H294 C314 0.950 . S
H295 C315 0.950 . S
H296 C317 0.950 . S
H297 C320 0.950 . S
H298 C321 0.950 . S
H299 C323 0.950 . S
H300 C324 0.950 . S
H301 C325 0.951 . S
H302 C327 0.951 . S
H303 C329 0.950 . S
H304 C330 0.950 . S
H305 C332 0.950 . S
H306 C335 0.950 . S
H307 C336 0.950 . S
H308 C338 0.950 . S
H309 C339 0.950 . S
C310 H292 0.951 . S
C310 C311 1.366 . S
C310 C312 1.388 . S
C311 C310 1.366 . S
C311 C315 1.385 . S
C312 H293 0.951 . S
C312 C310 1.388 . S
C312 C313 1.366 . S
C313 C312 1.366 . S
C313 C314 1.414 . S
C313 C316 1.499 . S
C314 H294 0.950 . S
C314 C313 1.414 . S
C314 C315 1.374 . S
C315 H295 0.950 . S
C315 C311 1.385 . S
C315 C314 1.374 . S
C316 C313 1.499 . S
C316 C317 1.373 . S
C316 C318 1.389 . S
C317 H296 0.950 . S
C317 C316 1.373 . S
C317 C333 1.377 . S
C318 C316 1.389 . S
C318 C319 1.524 . S
C318 C332 1.377 . S
C319 C318 1.524 . S
C319 C320 1.397 . S
C319 C324 1.363 . S
C320 H297 0.950 . S
C320 C319 1.397 . S
C320 C321 1.334 . S
C321 H298 0.950 . S
C321 C320 1.334 . S
C321 C322 1.287 . S
C322 C321 1.287 . S
C322 C323 1.524 . S
C322 H341 0.913 . S
C323 H299 0.950 . S
C323 C322 1.524 . S
C323 C324 1.415 . S
C324 H300 0.950 . S
C324 C319 1.363 . S
C324 C323 1.415 . S
C325 H301 0.951 . S
C325 C326 1.366 . S
C325 C327 1.388 . S
C326 C325 1.366 . S
C326 C330 1.385 . S
C327 H302 0.951 . S
C327 C325 1.388 . S
C327 C328 1.366 . S
C328 C327 1.366 . S
C328 C329 1.414 . S
C328 C331 1.499 . S
C329 H303 0.950 . S
C329 C328 1.414 . S
C329 C330 1.374 . S
C330 H304 0.950 . S
C330 C326 1.385 . S
C330 C329 1.374 . S
C331 C328 1.499 . S
C331 C332 1.373 . S
C331 C333 1.389 . S
C332 H305 0.950 . S
C332 C318 1.377 . S
C332 C331 1.373 . S
C333 C317 1.377 . S
C333 C331 1.389 . S
C333 C334 1.524 . S
C334 C333 1.524 . S
C334 C335 1.397 . S
C334 C339 1.363 . S
C335 H306 0.950 . S
C335 C334 1.397 . S
C335 C336 1.334 . S
C336 H307 0.950 . S
C336 C335 1.334 . S
C336 C337 1.287 . S
C337 C336 1.287 . S
C337 C338 1.524 . S
C337 H340 0.999 . S
C338 H308 0.950 . S
C338 C337 1.524 . S
C338 C339 1.415 . S
C339 H309 0.950 . S
C339 C334 1.363 . S
C339 C338 1.415 . S
H340 C337 0.999 . S
H341 C322 0.913 . S
H342 C360 0.951 . S
H343 C362 0.951 . S
H344 C364 0.950 . S
H345 C365 0.950 . S
H346 C367 0.950 . S
H347 C370 0.950 . S
H348 C371 0.950 . S
H349 C373 0.950 . S
H350 C374 0.950 . S
H351 C375 0.951 . S
H352 C377 0.951 . S
H353 C379 0.950 . S
H354 C380 0.950 . S
H355 C382 0.950 . S
H356 C385 0.950 . S
H357 C386 0.950 . S
H358 C388 0.950 . S
H359 C389 0.950 . S
C360 H342 0.951 . S
C360 C361 1.366 . S
C360 C362 1.388 . S
C361 C360 1.366 . S
C361 C365 1.385 . S
C362 H343 0.951 . S
C362 C360 1.388 . S
C362 C363 1.366 . S
C363 C362 1.366 . S
C363 C364 1.414 . S
C363 C366 1.499 . S
C364 H344 0.950 . S
C364 C363 1.414 . S
C364 C365 1.374 . S
C365 H345 0.950 . S
C365 C361 1.385 . S
C365 C364 1.374 . S
C366 C363 1.499 . S
C366 C367 1.373 . S
C366 C368 1.389 . S
C367 H346 0.950 . S
C367 C366 1.373 . S
C367 C383 1.377 . S
C368 C366 1.389 . S
C368 C369 1.524 . S
C368 C382 1.377 . S
C369 C368 1.524 . S
C369 C370 1.397 . S
C369 C374 1.363 . S
C370 H347 0.950 . S
C370 C369 1.397 . S
C370 C371 1.334 . S
C371 H348 0.950 . S
C371 C370 1.334 . S
C371 C372 1.287 . S
C372 C371 1.287 . S
C372 C373 1.524 . S
C372 H391 0.913 . S
C373 H349 0.950 . S
C373 C372 1.524 . S
C373 C374 1.415 . S
C374 H350 0.950 . S
C374 C369 1.363 . S
C374 C373 1.415 . S
C375 H351 0.951 . S
C375 C376 1.366 . S
C375 C377 1.388 . S
C376 C375 1.366 . S
C376 C380 1.385 . S
C377 H352 0.951 . S
C377 C375 1.388 . S
C377 C378 1.366 . S
C378 C377 1.366 . S
C378 C379 1.414 . S
C378 C381 1.499 . S
C379 H353 0.950 . S
C379 C378 1.414 . S
C379 C380 1.374 . S
C380 H354 0.950 . S
C380 C376 1.385 . S
C380 C379 1.374 . S
C381 C378 1.499 . S
C381 C382 1.373 . S
C381 C383 1.389 . S
C382 H355 0.950 . S
C382 C368 1.377 . S
C382 C381 1.373 . S
C383 C367 1.377 . S
C383 C381 1.389 . S
C383 C384 1.524 . S
C384 C383 1.524 . S
C384 C385 1.397 . S
C384 C389 1.363 . S
C385 H356 0.950 . S
C385 C384 1.397 . S
C385 C386 1.334 . S
C386 H357 0.950 . S
C386 C385 1.334 . S
C386 C387 1.287 . S
C387 C386 1.287 . S
C387 C388 1.524 . S
C387 H390 0.999 . S
C388 H358 0.950 . S
C388 C387 1.524 . S
C388 C389 1.415 . S
C389 H359 0.950 . S
C389 C384 1.363 . S
C389 C388 1.415 . S
H390 C387 0.999 . S
H391 C372 0.913 . S
H392 C410 0.951 . S
H393 C412 0.951 . S
H394 C414 0.950 . S
H395 C415 0.950 . S
H396 C417 0.950 . S
H397 C420 0.950 . S
H398 C421 0.950 . S
H399 C423 0.950 . S
H400 C424 0.950 . S
H401 C425 0.951 . S
H402 C427 0.951 . S
H403 C429 0.950 . S
H404 C430 0.950 . S
H405 C432 0.950 . S
H406 C435 0.950 . S
H407 C436 0.950 . S
H408 C438 0.950 . S
H409 C439 0.950 . S
C410 H392 0.951 . S
C410 C411 1.366 . S
C410 C412 1.388 . S
C411 C410 1.366 . S
C411 C415 1.385 . S
C412 H393 0.951 . S
C412 C410 1.388 . S
C412 C413 1.366 . S
C413 C412 1.366 . S
C413 C414 1.414 . S
C413 C416 1.499 . S
C414 H394 0.950 . S
C414 C413 1.414 . S
C414 C415 1.374 . S
C415 H395 0.950 . S
C415 C411 1.385 . S
C415 C414 1.374 . S
C416 C413 1.499 . S
C416 C417 1.373 . S
C416 C418 1.389 . S
C417 H396 0.950 . S
C417 C416 1.373 . S
C417 C433 1.377 . S
C418 C416 1.389 . S
C418 C419 1.524 . S
C418 C432 1.377 . S
C419 C418 1.524 . S
C419 C420 1.397 . S
C419 C424 1.363 . S
C420 H397 0.950 . S
C420 C419 1.397 . S
C420 C421 1.334 . S
C421 H398 0.950 . S
C421 C420 1.334 . S
C421 C422 1.287 . S
C422 C421 1.287 . S
C422 C423 1.524 . S
C422 H441 0.913 . S
C423 H399 0.950 . S
C423 C422 1.524 . S
C423 C424 1.415 . S
C424 H400 0.950 . S
C424 C419 1.363 . S
C424 C423 1.415 . S
C425 H401 0.951 . S
C425 C426 1.366 . S
C425 C427 1.388 . S
C426 C425 1.366 . S
C426 C430 1.385 . S
C427 H402 0.951 . S
C427 C425 1.388 . S
C427 C428 1.366 . S
C428 C427 1.366 . S
C428 C429 1.414 . S
C428 C431 1.499 . S
C429 H403 0.950 . S
C429 C428 1.414 . S
C429 C430 1.374 . S
C430 H404 0.950 . S
C430 C426 1.385 . S
C430 C429 1.374 . S
C431 C428 1.499 . S
C431 C432 1.373 . S
C431 C433 1.389 . S
C432 H405 0.950 . S
C432 C418 1.377 . S
C432 C431 1.373 . S
C433 C417 1.377 . S
C433 C431 1.389 . S
C433 C434 1.524 . S
C434 C433 1.524 . S
C434 C435 1.397 . S
C434 C439 1.363 . S
C435 H406 0.950 . S
C435 C434 1.397 . S
C435 C436 1.334 . S
C436 H407 0.950 . S
C436 C435 1.334 . S
C436 C437 1.287 . S
C437 C436 1.287 . S
C437 C438 1.524 . S
C437 H440 0.999 . S
C438 H408 0.950 . S
C438 C437 1.524 . S
C438 C439 1.415 . S
C439 H409 0.950 . S
C439 C434 1.363 . S
C439 C438 1.415 . S
H440 C437 0.999 . S
H441 C422 0.913 . S
H442 C460 0.951 . S
H443 C462 0.951 . S
H444 C464 0.950 . S
H445 C465 0.950 . S
H446 C467 0.950 . S
H447 C470 0.950 . S
H448 C471 0.950 . S
H449 C473 0.950 . S
H450 C474 0.950 . S
H451 C475 0.951 . S
H452 C477 0.951 . S
H453 C479 0.950 . S
H454 C480 0.950 . S
H455 C482 0.950 . S
H456 C485 0.950 . S
H457 C486 0.950 . S
H458 C488 0.950 . S
H459 C489 0.950 . S
C460 H442 0.951 . S
C460 C461 1.366 . S
C460 C462 1.388 . S
C461 C460 1.366 . S
C461 C465 1.385 . S
C462 H443 0.951 . S
C462 C460 1.388 . S
C462 C463 1.366 . S
C463 C462 1.366 . S
C463 C464 1.414 . S
C463 C466 1.499 . S
C464 H444 0.950 . S
C464 C463 1.414 . S
C464 C465 1.374 . S
C465 H445 0.950 . S
C465 C461 1.385 . S
C465 C464 1.374 . S
C466 C463 1.499 . S
C466 C467 1.373 . S
C466 C468 1.389 . S
C467 H446 0.950 . S
C467 C466 1.373 . S
C467 C483 1.377 . S
C468 C466 1.389 . S
C468 C469 1.524 . S
C468 C482 1.377 . S
C469 C468 1.524 . S
C469 C470 1.397 . S
C469 C474 1.363 . S
C470 H447 0.950 . S
C470 C469 1.397 . S
C470 C471 1.334 . S
C471 H448 0.950 . S
C471 C470 1.334 . S
C471 C472 1.287 . S
C472 C471 1.287 . S
C472 C473 1.524 . S
C472 H491 0.913 . S
C473 H449 0.950 . S
C473 C472 1.524 . S
C473 C474 1.415 . S
C474 H450 0.950 . S
C474 C469 1.363 . S
C474 C473 1.415 . S
C475 H451 0.951 . S
C475 C476 1.366 . S
C475 C477 1.388 . S
C476 C475 1.366 . S
C476 C480 1.385 . S
C477 H452 0.951 . S
C477 C475 1.388 . S
C477 C478 1.366 . S
C478 C477 1.366 . S
C478 C479 1.414 . S
C478 C481 1.499 . S
C479 H453 0.950 . S
C479 C478 1.414 . S
C479 C480 1.374 . S
C480 H454 0.950 . S
C480 C476 1.385 . S
C480 C479 1.374 . S
C481 C478 1.499 . S
C481 C482 1.373 . S
C481 C483 1.389 . S
C482 H455 0.950 . S
C482 C468 1.377 . S
C482 C481 1.373 . S
C483 C467 1.377 . S
C483 C481 1.389 . S
C483 C484 1.524 . S
C484 C483 1.524 . S
C484 C485 1.397 . S
C484 C489 1.363 . S
C485 H456 0.950 . S
C485 C484 1.397 . S
C485 C486 1.334 . S
C486 H457 0.950 . S
C486 C485 1.334 . S
C486 C487 1.287 . S
C487 C486 1.287 . S
C487 C488 1.524 . S
C487 H490 0.999 . S
C488 H458 0.950 . S
C488 C487 1.524 . S
C488 C489 1.415 . S
C489 H459 0.950 . S
C489 C484 1.363 . S
C489 C488 1.415 . S
H490 C487 0.999 . S
H491 C472 0.913 . S
H492 C510 0.951 . S
H493 C512 0.951 . S
H494 C514 0.950 . S
H495 C515 0.950 . S
H496 C517 0.950 . S
H497 C520 0.950 . S
H498 C521 0.950 . S
H499 C523 0.950 . S
H500 C524 0.950 . S
H501 C525 0.951 . S
H502 C527 0.951 . S
H503 C529 0.950 . S
H504 C530 0.950 . S
H505 C532 0.950 . S
H506 C535 0.950 . S
H507 C536 0.950 . S
H508 C538 0.950 . S
H509 C539 0.950 . S
C510 H492 0.951 . S
C510 C511 1.366 . S
C510 C512 1.388 . S
C511 C510 1.366 . S
C511 C515 1.385 . S
C512 H493 0.951 . S
C512 C510 1.388 . S
C512 C513 1.366 . S
C513 C512 1.366 . S
C513 C514 1.414 . S
C513 C516 1.499 . S
C514 H494 0.950 . S
C514 C513 1.414 . S
C514 C515 1.374 . S
C515 H495 0.950 . S
C515 C511 1.385 . S
C515 C514 1.374 . S
C516 C513 1.499 . S
C516 C517 1.373 . S
C516 C518 1.389 . S
C517 H496 0.950 . S
C517 C516 1.373 . S
C517 C533 1.377 . S
C518 C516 1.389 . S
C518 C519 1.524 . S
C518 C532 1.377 . S
C519 C518 1.524 . S
C519 C520 1.397 . S
C519 C524 1.363 . S
C520 H497 0.950 . S
C520 C519 1.397 . S
C520 C521 1.334 . S
C521 H498 0.950 . S
C521 C520 1.334 . S
C521 C522 1.287 . S
C522 C521 1.287 . S
C522 C523 1.524 . S
C522 H541 0.913 . S
C523 H499 0.950 . S
C523 C522 1.524 . S
C523 C524 1.415 . S
C524 H500 0.950 . S
C524 C519 1.363 . S
C524 C523 1.415 . S
C525 H501 0.951 . S
C525 C526 1.366 . S
C525 C527 1.388 . S
C526 C525 1.366 . S
C526 C530 1.385 . S
C527 H502 0.951 . S
C527 C525 1.388 . S
C527 C528 1.366 . S
C528 C527 1.366 . S
C528 C529 1.414 . S
C528 C531 1.499 . S
C529 H503 0.950 . S
C529 C528 1.414 . S
C529 C530 1.374 . S
C530 H504 0.950 . S
C530 C526 1.385 . S
C530 C529 1.374 . S
C531 C528 1.499 . S
C531 C532 1.373 . S
C531 C533 1.389 . S
C532 H505 0.950 . S
C532 C518 1.377 . S
C532 C531 1.373 . S
C533 C517 1.377 . S
C533 C531 1.389 . S
C533 C534 1.524 . S
C534 C533 1.524 . S
C534 C535 1.397 . S
C534 C539 1.363 . S
C535 H506 0.950 . S
C535 C534 1.397 . S
C535 C536 1.334 . S
C536 H507 0.950 . S
C536 C535 1.334 . S
C536 C537 1.287 . S
C537 C536 1.287 . S
C537 C538 1.524 . S
C537 H540 0.999 . S
C538 H508 0.950 . S
C538 C537 1.524 . S
C538 C539 1.415 . S
C539 H509 0.950 . S
C539 C534 1.363 . S
C539 C538 1.415 . S
H540 C537 0.999 . S
H541 C522 0.913 . S
H542 C560 0.951 . S
H543 C562 0.951 . S
H544 C564 0.950 . S
H545 C565 0.950 . S
H546 C567 0.950 . S
H547 C570 0.950 . S
H548 C571 0.950 . S
H549 C573 0.950 . S
H550 C574 0.950 . S
H551 C575 0.951 . S
H552 C577 0.951 . S
H553 C579 0.950 . S
H554 C580 0.950 . S
H555 C582 0.950 . S
H556 C585 0.950 . S
H557 C586 0.950 . S
H558 C588 0.950 . S
H559 C589 0.950 . S
C560 H542 0.951 . S
C560 C561 1.366 . S
C560 C562 1.388 . S
C561 C560 1.366 . S
C561 C565 1.385 . S
C562 H543 0.951 . S
C562 C560 1.388 . S
C562 C563 1.366 . S
C563 C562 1.366 . S
C563 C564 1.414 . S
C563 C566 1.499 . S
C564 H544 0.950 . S
C564 C563 1.414 . S
C564 C565 1.374 . S
C565 H545 0.950 . S
C565 C561 1.385 . S
C565 C564 1.374 . S
C566 C563 1.499 . S
C566 C567 1.373 . S
C566 C568 1.389 . S
C567 H546 0.950 . S
C567 C566 1.373 . S
C567 C583 1.377 . S
C568 C566 1.389 . S
C568 C569 1.524 . S
C568 C582 1.377 . S
C569 C568 1.524 . S
C569 C570 1.397 . S
C569 C574 1.363 . S
C570 H547 0.950 . S
C570 C569 1.397 . S
C570 C571 1.334 . S
C571 H548 0.950 . S
C571 C570 1.334 . S
C571 C572 1.287 . S
C572 C571 1.287 . S
C572 C573 1.524 . S
C572 H591 0.913 . S
C573 H549 0.950 . S
C573 C572 1.524 . S
C573 C574 1.415 . S
C574 H550 0.950 . S
C574 C569 1.363 . S
C574 C573 1.415 . S
C575 H551 0.951 . S
C575 C576 1.366 . S
C575 C577 1.388 . S
C576 C575 1.366 . S
C576 C580 1.385 . S
C577 H552 0.951 . S
C577 C575 1.388 . S
C577 C578 1.366 . S
C578 C577 1.366 . S
C578 C579 1.414 . S
C578 C581 1.499 . S
C579 H553 0.950 . S
C579 C578 1.414 . S
C579 C580 1.374 . S
C580 H554 0.950 . S
C580 C576 1.385 . S
C580 C579 1.374 . S
C581 C578 1.499 . S
C581 C582 1.373 . S
C581 C583 1.389 . S
C582 H555 0.950 . S
C582 C568 1.377 . S
C582 C581 1.373 . S
C583 C567 1.377 . S
C583 C581 1.389 . S
C583 C584 1.524 . S
C584 C583 1.524 . S
C584 C585 1.397 . S
C584 C589 1.363 . S
C585 H556 0.950 . S
C585 C584 1.397 . S
C585 C586 1.334 . S
C586 H557 0.950 . S
C586 C585 1.334 . S
C586 C587 1.287 . S
C587 C586 1.287 . S
C587 C588 1.524 . S
C587 H590 0.999 . S
C588 H558 0.950 . S
C588 C587 1.524 . S
C588 C589 1.415 . S
C589 H559 0.950 . S
C589 C584 1.363 . S
C589 C588 1.415 . S
H590 C587 0.999 . S
H591 C572 0.913 . S
H592 C610 0.951 . S
H593 C612 0.951 . S
H594 C614 0.950 . S
H595 C615 0.950 . S
H596 C617 0.950 . S
H597 C620 0.950 . S
H598 C621 0.950 . S
H599 C623 0.950 1_545 S
H600 C624 0.950 . S
H601 C625 0.951 . S
H602 C627 0.951 . S
H603 C629 0.950 . S
H604 C630 0.950 . S
H605 C632 0.950 . S
H606 C635 0.950 . S
H607 C636 0.950 . S
H608 C638 0.950 . S
H609 C639 0.950 . S
C610 H592 0.951 . S
C610 C611 1.366 . S
C610 C612 1.388 . S
C611 C610 1.366 . S
C611 C615 1.385 . S
C612 H593 0.951 . S
C612 C610 1.388 . S
C612 C613 1.366 . S
C613 C612 1.366 . S
C613 C614 1.414 . S
C613 C616 1.499 . S
C614 H594 0.950 . S
C614 C613 1.414 . S
C614 C615 1.374 . S
C615 H595 0.950 . S
C615 C611 1.385 . S
C615 C614 1.374 . S
C616 C613 1.499 . S
C616 C617 1.373 . S
C616 C618 1.389 . S
C617 H596 0.950 . S
C617 C616 1.373 . S
C617 C633 1.377 . S
C618 C616 1.389 . S
C618 C619 1.524 . S
C618 C632 1.377 . S
C619 C618 1.524 . S
C619 C620 1.397 . S
C619 C624 1.363 . S
C620 H597 0.950 . S
C620 C619 1.397 . S
C620 C621 1.334 . S
C621 H598 0.950 . S
C621 C620 1.334 . S
C621 C622 1.287 . S
C622 C621 1.287 . S
C622 C623 1.524 . S
C622 H641 0.913 . S
C623 H599 0.950 1_565 S
C623 C622 1.524 . S
C623 C624 1.415 . S
C624 H600 0.950 . S
C624 C619 1.363 . S
C624 C623 1.415 . S
C625 H601 0.951 . S
C625 C626 1.366 1_565 S
C625 C627 1.388 . S
C626 C625 1.366 1_545 S
C626 C630 1.385 . S
C627 H602 0.951 . S
C627 C625 1.388 . S
C627 C628 1.366 . S
C628 C627 1.366 . S
C628 C629 1.414 1_565 S
C628 C631 1.499 . S
C629 H603 0.950 . S
C629 C628 1.414 1_545 S
C629 C630 1.374 . S
C630 H604 0.950 . S
C630 C626 1.385 . S
C630 C629 1.374 . S
C631 C628 1.499 . S
C631 C632 1.373 . S
C631 C633 1.389 . S
C632 H605 0.950 . S
C632 C618 1.377 . S
C632 C631 1.373 . S
C633 C617 1.377 . S
C633 C631 1.389 . S
C633 C634 1.524 . S
C634 C633 1.524 . S
C634 C635 1.397 . S
C634 C639 1.363 . S
C635 H606 0.950 . S
C635 C634 1.397 . S
C635 C636 1.334 . S
C636 H607 0.950 . S
C636 C635 1.334 . S
C636 C637 1.287 . S
C637 C636 1.287 . S
C637 C638 1.524 . S
C637 H640 0.999 . S
C638 H608 0.950 . S
C638 C637 1.524 . S
C638 C639 1.415 . S
C639 H609 0.950 . S
C639 C634 1.363 . S
C639 C638 1.415 . S
H640 C637 0.999 . S
H641 C622 0.913 . S
H642 C660 0.951 . S
H643 C662 0.951 . S
H644 C664 0.950 . S
H645 C665 0.950 . S
H646 C667 0.950 . S
H647 C670 0.950 . S
H648 C671 0.950 . S
H649 C673 0.950 . S
H650 C674 0.950 . S
H651 C675 0.951 . S
H652 C677 0.951 . S
H653 C679 0.950 . S
H654 C680 0.950 . S
H655 C682 0.950 . S
H656 C685 0.950 . S
H657 C686 0.950 . S
H658 C688 0.950 . S
H659 C689 0.950 . S
C660 H642 0.951 . S
C660 C661 1.366 . S
C660 C662 1.388 . S
C661 C660 1.366 . S
C661 C665 1.385 . S
C662 H643 0.951 . S
C662 C660 1.388 . S
C662 C663 1.366 . S
C663 C662 1.366 . S
C663 C664 1.414 . S
C663 C666 1.499 . S
C664 H644 0.950 . S
C664 C663 1.414 . S
C664 C665 1.374 . S
C665 H645 0.950 . S
C665 C661 1.385 . S
C665 C664 1.374 . S
C666 C663 1.499 . S
C666 C667 1.373 . S
C666 C668 1.389 . S
C667 H646 0.950 . S
C667 C666 1.373 . S
C667 C683 1.377 . S
C668 C666 1.389 . S
C668 C669 1.524 . S
C668 C682 1.377 . S
C669 C668 1.524 . S
C669 C670 1.397 . S
C669 C674 1.363 . S
C670 H647 0.950 . S
C670 C669 1.397 . S
C670 C671 1.334 . S
C671 H648 0.950 . S
C671 C670 1.334 . S
C671 C672 1.287 . S
C672 C671 1.287 . S
C672 C673 1.524 . S
C672 H691 0.913 . S
C673 H649 0.950 . S
C673 C672 1.524 . S
C673 C674 1.415 . S
C674 H650 0.950 . S
C674 C669 1.363 . S
C674 C673 1.415 . S
C675 H651 0.951 . S
C675 C676 1.366 . S
C675 C677 1.388 . S
C676 C675 1.366 . S
C676 C680 1.385 . S
C677 H652 0.951 . S
C677 C675 1.388 . S
C677 C678 1.366 . S
C678 C677 1.366 . S
C678 C679 1.414 . S
C678 C681 1.499 . S
C679 H653 0.950 . S
C679 C678 1.414 . S
C679 C680 1.374 . S
C680 H654 0.950 . S
C680 C676 1.385 . S
C680 C679 1.374 . S
C681 C678 1.499 . S
C681 C682 1.373 . S
C681 C683 1.389 . S
C682 H655 0.950 . S
C682 C668 1.377 . S
C682 C681 1.373 . S
C683 C667 1.377 . S
C683 C681 1.389 . S
C683 C684 1.524 . S
C684 C683 1.524 . S
C684 C685 1.397 . S
C684 C689 1.363 . S
C685 H656 0.950 . S
C685 C684 1.397 . S
C685 C686 1.334 . S
C686 H657 0.950 . S
C686 C685 1.334 . S
C686 C687 1.287 . S
C687 C686 1.287 . S
C687 C688 1.524 . S
C687 H690 0.999 . S
C688 H658 0.950 . S
C688 C687 1.524 . S
C688 C689 1.415 . S
C689 H659 0.950 . S
C689 C684 1.363 . S
C689 C688 1.415 . S
H690 C687 0.999 . S
H691 C672 0.913 . S
H692 C710 0.951 . S
H693 C712 0.951 . S
H694 C714 0.950 . S
H695 C715 0.950 . S
H696 C717 0.950 . S
H697 C720 0.950 . S
H698 C721 0.950 . S
H699 C723 0.950 . S
H700 C724 0.950 . S
H701 C725 0.951 . S
H702 C727 0.951 . S
H703 C729 0.950 . S
H704 C730 0.950 . S
H705 C732 0.950 . S
H706 C735 0.950 . S
H707 C736 0.950 . S
H708 C738 0.950 . S
H709 C739 0.950 . S
C710 H692 0.951 . S
C710 C711 1.366 . S
C710 C712 1.388 . S
C711 C710 1.366 . S
C711 C715 1.385 . S
C712 H693 0.951 . S
C712 C710 1.388 . S
C712 C713 1.366 . S
C713 C712 1.366 . S
C713 C714 1.414 . S
C713 C716 1.499 . S
C714 H694 0.950 . S
C714 C713 1.414 . S
C714 C715 1.374 . S
C715 H695 0.950 . S
C715 C711 1.385 . S
C715 C714 1.374 . S
C716 C713 1.499 . S
C716 C717 1.373 . S
C716 C718 1.389 . S
C717 H696 0.950 . S
C717 C716 1.373 . S
C717 C733 1.377 . S
C718 C716 1.389 . S
C718 C719 1.524 . S
C718 C732 1.377 . S
C719 C718 1.524 . S
C719 C720 1.397 . S
C719 C724 1.363 . S
C720 H697 0.950 . S
C720 C719 1.397 . S
C720 C721 1.334 . S
C721 H698 0.950 . S
C721 C720 1.334 . S
C721 C722 1.287 . S
C722 C721 1.287 . S
C722 C723 1.524 . S
C722 H741 0.913 . S
C723 H699 0.950 . S
C723 C722 1.524 . S
C723 C724 1.415 . S
C724 H700 0.950 . S
C724 C719 1.363 . S
C724 C723 1.415 . S
C725 H701 0.951 . S
C725 C726 1.366 . S
C725 C727 1.388 . S
C726 C725 1.366 . S
C726 C730 1.385 . S
C727 H702 0.951 . S
C727 C725 1.388 . S
C727 C728 1.366 . S
C728 C727 1.366 . S
C728 C729 1.414 . S
C728 C731 1.499 . S
C729 H703 0.950 . S
C729 C728 1.414 . S
C729 C730 1.374 . S
C730 H704 0.950 . S
C730 C726 1.385 . S
C730 C729 1.374 . S
C731 C728 1.499 . S
C731 C732 1.373 . S
C731 C733 1.389 . S
C732 H705 0.950 . S
C732 C718 1.377 . S
C732 C731 1.373 . S
C733 C717 1.377 . S
C733 C731 1.389 . S
C733 C734 1.524 . S
C734 C733 1.524 . S
C734 C735 1.397 . S
C734 C739 1.363 . S
C735 H706 0.950 . S
C735 C734 1.397 . S
C735 C736 1.334 . S
C736 H707 0.950 . S
C736 C735 1.334 . S
C736 C737 1.287 . S
C737 C736 1.287 . S
C737 C738 1.524 . S
C737 H740 0.999 . S
C738 H708 0.950 . S
C738 C737 1.524 . S
C738 C739 1.415 . S
C739 H709 0.950 . S
C739 C734 1.363 . S
C739 C738 1.415 . S
H740 C737 0.999 . S
H741 C722 0.913 . S
H742 C760 0.951 . S
H743 C762 0.951 . S
H744 C764 0.950 . S
H745 C765 0.950 . S
H746 C767 0.950 . S
H747 C770 0.950 . S
H748 C771 0.950 . S
H749 C773 0.950 . S
H750 C774 0.950 . S
H751 C775 0.951 . S
H752 C777 0.951 . S
H753 C779 0.950 . S
H754 C780 0.950 . S
H755 C782 0.950 . S
H756 C785 0.950 . S
H757 C786 0.950 . S
H758 C788 0.950 . S
H759 C789 0.950 . S
C760 H742 0.951 . S
C760 C761 1.366 . S
C760 C762 1.388 . S
C761 C760 1.366 . S
C761 C765 1.385 . S
C762 H743 0.951 . S
C762 C760 1.388 . S
C762 C763 1.366 . S
C763 C762 1.366 . S
C763 C764 1.414 . S
C763 C766 1.499 . S
C764 H744 0.950 . S
C764 C763 1.414 . S
C764 C765 1.374 . S
C765 H745 0.950 . S
C765 C761 1.385 . S
C765 C764 1.374 . S
C766 C763 1.499 . S
C766 C767 1.373 . S
C766 C768 1.389 . S
C767 H746 0.950 . S
C767 C766 1.373 . S
C767 C783 1.377 . S
C768 C766 1.389 . S
C768 C769 1.524 . S
C768 C782 1.377 . S
C769 C768 1.524 . S
C769 C770 1.397 . S
C769 C774 1.363 . S
C770 H747 0.950 . S
C770 C769 1.397 . S
C770 C771 1.334 . S
C771 H748 0.950 . S
C771 C770 1.334 . S
C771 C772 1.287 . S
C772 C771 1.287 . S
C772 C773 1.524 . S
C772 H791 0.913 . S
C773 H749 0.950 . S
C773 C772 1.524 . S
C773 C774 1.415 . S
C774 H750 0.950 . S
C774 C769 1.363 . S
C774 C773 1.415 . S
C775 H751 0.951 . S
C775 C776 1.366 . S
C775 C777 1.388 . S
C776 C775 1.366 . S
C776 C780 1.385 . S
C777 H752 0.951 . S
C777 C775 1.388 . S
C777 C778 1.366 . S
C778 C777 1.366 . S
C778 C779 1.414 . S
C778 C781 1.499 . S
C779 H753 0.950 . S
C779 C778 1.414 . S
C779 C780 1.374 . S
C780 H754 0.950 . S
C780 C776 1.385 . S
C780 C779 1.374 . S
C781 C778 1.499 . S
C781 C782 1.373 . S
C781 C783 1.389 . S
C782 H755 0.950 . S
C782 C768 1.377 . S
C782 C781 1.373 . S
C783 C767 1.377 . S
C783 C781 1.389 . S
C783 C784 1.524 . S
C784 C783 1.524 . S
C784 C785 1.397 . S
C784 C789 1.363 . S
C785 H756 0.950 . S
C785 C784 1.397 . S
C785 C786 1.334 . S
C786 H757 0.950 . S
C786 C785 1.334 . S
C786 C787 1.287 . S
C787 C786 1.287 . S
C787 C788 1.524 . S
C787 H790 0.999 . S
C788 H758 0.950 . S
C788 C787 1.524 . S
C788 C789 1.415 . S
C789 H759 0.950 . S
C789 C784 1.363 . S
C789 C788 1.415 . S
H790 C787 0.999 . S
H791 C772 0.913 . S
H792 C810 0.951 1_655 S
H793 C812 0.951 1_655 S
H794 C814 0.950 . S
H795 C815 0.950 . S
H796 C817 0.950 . S
H797 C820 0.950 . S
H798 C821 0.950 . S
H799 C823 0.950 . S
H800 C824 0.950 . S
H801 C825 0.951 . S
H802 C827 0.951 . S
H803 C829 0.950 1_655 S
H804 C830 0.950 1_655 S
H805 C832 0.950 1_556 S
H806 C835 0.950 . S
H807 C836 0.950 . S
H808 C838 0.951 . S
H809 C839 0.950 . S
C810 H792 0.951 1_455 S
C810 C811 1.366 . S
C810 C812 1.388 . S
C811 C810 1.366 . S
C811 C815 1.385 . S
C812 H793 0.951 1_455 S
C812 C810 1.388 . S
C812 C813 1.366 . S
C813 C812 1.366 . S
C813 C814 1.414 . S
C813 C816 1.499 . S
C814 H794 0.950 . S
C814 C813 1.414 . S
C814 C815 1.374 . S
C815 H795 0.950 . S
C815 C811 1.385 . S
C815 C814 1.374 . S
C816 C813 1.499 . S
C816 C817 1.373 . S
C816 C818 1.389 . S
C817 H796 0.950 . S
C817 C816 1.373 . S
C817 C833 1.377 . S
C818 C816 1.389 . S
C818 C819 1.524 . S
C818 C832 1.377 . S
C819 C818 1.524 . S
C819 C820 1.397 . S
C819 C824 1.363 1_455 S
C820 H797 0.950 . S
C820 C819 1.397 . S
C820 C821 1.334 . S
C821 H798 0.950 . S
C821 C820 1.334 . S
C821 C822 1.287 . S
C822 C821 1.287 . S
C822 C823 1.524 1_455 S
C822 H841 0.913 1_455 S
C823 H799 0.950 . S
C823 C822 1.524 1_655 S
C823 C824 1.415 . S
C824 H800 0.950 . S
C824 C819 1.363 1_655 S
C824 C823 1.415 . S
C825 H801 0.951 . S
C825 C826 1.366 . S
C825 C827 1.388 . S
C826 C825 1.366 . S
C826 C830 1.385 . S
C827 H802 0.951 . S
C827 C825 1.388 . S
C827 C828 1.366 . S
C828 C827 1.366 . S
C828 C829 1.414 . S
C828 C831 1.499 . S
C829 H803 0.950 1_455 S
C829 C828 1.414 . S
C829 C830 1.374 . S
C830 H804 0.950 1_455 S
C830 C826 1.385 . S
C830 C829 1.374 . S
C831 C828 1.499 . S
C831 C832 1.373 1_556 S
C831 C833 1.389 1_556 S
C832 H805 0.950 1_554 S
C832 C818 1.377 . S
C832 C831 1.373 1_554 S
C833 C817 1.377 . S
C833 C831 1.389 1_554 S
C833 C834 1.537 . S
C834 C833 1.537 . S
C834 C835 1.382 1_554 S
C834 C839 1.368 . S
C835 H806 0.950 . S
C835 C834 1.382 1_556 S
C835 C836 1.334 . S
C836 H807 0.950 . S
C836 C835 1.334 . S
C836 C837 1.287 . S
C837 C836 1.287 . S
C837 C838 1.515 1_556 S
C837 H840 0.999 . S
C838 H808 0.951 . S
C838 C837 1.515 1_554 S
C838 C839 1.422 . S
C839 H809 0.950 . S
C839 C834 1.368 . S
C839 C838 1.422 . S
H840 C837 0.999 . S
H841 C822 0.913 1_655 S
H842 C860 0.951 . S
H843 C862 0.951 . S
H844 C864 0.950 . S
H845 C865 0.950 . S
H846 C867 0.950 . S
H847 C870 0.951 . S
H848 C871 0.950 . S
H849 C873 0.950 . S
H850 C874 0.950 . S
H851 C875 0.951 . S
H852 C877 0.951 . S
H853 C879 0.950 . S
H854 C880 0.950 . S
H855 C882 0.950 . S
H856 C885 0.950 . S
H857 C886 0.950 . S
H858 C888 0.950 . S
H859 C889 0.950 . S
C860 H842 0.951 . S
C860 C861 1.366 . S
C860 C862 1.388 . S
C861 C860 1.366 . S
C861 C865 1.385 . S
C862 H843 0.951 . S
C862 C860 1.388 . S
C862 C863 1.366 . S
C863 C862 1.366 . S
C863 C864 1.414 . S
C863 C866 1.499 . S
C864 H844 0.950 . S
C864 C863 1.414 . S
C864 C865 1.374 . S
C865 H845 0.950 . S
C865 C861 1.385 . S
C865 C864 1.374 . S
C866 C863 1.499 . S
C866 C867 1.373 . S
C866 C868 1.389 . S
C867 H846 0.950 . S
C867 C866 1.373 . S
C867 C883 1.377 . S
C868 C866 1.389 . S
C868 C869 1.524 1_545 S
C868 C882 1.377 . S
C869 C868 1.524 1_565 S
C869 C870 1.397 1_565 S
C869 C874 1.363 . S
C870 H847 0.951 . S
C870 C869 1.397 1_545 S
C870 C871 1.331 1_545 S
C871 H848 0.950 . S
C871 C870 1.331 1_565 S
C871 C872 1.287 . S
C872 C871 1.287 . S
C872 C873 1.524 . S
C872 H891 0.913 . S
C873 H849 0.950 . S
C873 C872 1.524 . S
C873 C874 1.415 . S
C874 H850 0.950 . S
C874 C869 1.363 . S
C874 C873 1.415 . S
C875 H851 0.951 . S
C875 C876 1.366 . S
C875 C877 1.388 . S
C876 C875 1.366 . S
C876 C880 1.385 . S
C877 H852 0.951 . S
C877 C875 1.388 . S
C877 C878 1.366 . S
C878 C877 1.366 . S
C878 C879 1.414 . S
C878 C881 1.499 . S
C879 H853 0.950 . S
C879 C878 1.414 . S
C879 C880 1.374 . S
C880 H854 0.950 . S
C880 C876 1.385 . S
C880 C879 1.374 . S
C881 C878 1.499 . S
C881 C882 1.373 . S
C881 C883 1.389 . S
C882 H855 0.950 . S
C882 C868 1.377 . S
C882 C881 1.373 . S
C883 C867 1.377 . S
C883 C881 1.389 . S
C883 C884 1.524 . S
C884 C883 1.524 . S
C884 C885 1.397 . S
C884 C889 1.363 . S
C885 H856 0.950 . S
C885 C884 1.397 . S
C885 C886 1.334 . S
C886 H857 0.950 . S
C886 C885 1.334 . S
C886 C887 1.287 . S
C887 C886 1.287 . S
C887 C888 1.524 . S
C887 H890 0.999 . S
C888 H858 0.950 . S
C888 C887 1.524 . S
C888 C889 1.415 . S
C889 H859 0.950 . S
C889 C884 1.363 . S
C889 C888 1.415 . S
H890 C887 0.999 . S
H891 C872 0.913 . S
H892 C910 0.951 . S
H893 C912 0.951 . S
H894 C914 0.950 . S
H895 C915 0.950 . S
H896 C917 0.950 . S
H897 C920 0.950 . S
H898 C921 0.950 . S
H899 C923 0.950 . S
H900 C924 0.950 . S
H901 C925 0.951 . S
H902 C927 0.951 . S
H903 C929 0.950 . S
H904 C930 0.950 . S
H905 C932 0.950 . S
H906 C935 0.950 . S
H907 C936 0.950 . S
H908 C938 0.950 . S
H909 C939 0.950 . S
C910 H892 0.951 . S
C910 C911 1.366 . S
C910 C912 1.388 . S
C911 C910 1.366 . S
C911 C915 1.385 . S
C912 H893 0.951 . S
C912 C910 1.388 . S
C912 C913 1.366 . S
C913 C912 1.366 . S
C913 C914 1.414 . S
C913 C916 1.499 . S
C914 H894 0.950 . S
C914 C913 1.414 . S
C914 C915 1.374 . S
C915 H895 0.950 . S
C915 C911 1.385 . S
C915 C914 1.374 . S
C916 C913 1.499 . S
C916 C917 1.373 . S
C916 C918 1.389 . S
C917 H896 0.950 . S
C917 C916 1.373 . S
C917 C933 1.377 . S
C918 C916 1.389 . S
C918 C919 1.524 . S
C918 C932 1.377 . S
C919 C918 1.524 . S
C919 C920 1.397 . S
C919 C924 1.363 . S
C920 H897 0.950 . S
C920 C919 1.397 . S
C920 C921 1.334 . S
C921 H898 0.950 . S
C921 C920 1.334 . S
C921 C922 1.287 . S
C922 C921 1.287 . S
C922 C923 1.524 . S
C922 H941 0.913 . S
C923 H899 0.950 . S
C923 C922 1.524 . S
C923 C924 1.415 . S
C924 H900 0.950 . S
C924 C919 1.363 . S
C924 C923 1.415 . S
C925 H901 0.951 . S
C925 C926 1.366 . S
C925 C927 1.388 . S
C926 C925 1.366 . S
C926 C930 1.385 . S
C927 H902 0.951 . S
C927 C925 1.388 . S
C927 C928 1.366 . S
C928 C927 1.366 . S
C928 C929 1.414 . S
C928 C931 1.499 . S
C929 H903 0.950 . S
C929 C928 1.414 . S
C929 C930 1.374 . S
C930 H904 0.950 . S
C930 C926 1.385 . S
C930 C929 1.374 . S
C931 C928 1.499 . S
C931 C932 1.373 . S
C931 C933 1.389 . S
C932 H905 0.950 . S
C932 C918 1.377 . S
C932 C931 1.373 . S
C933 C917 1.377 . S
C933 C931 1.389 . S
C933 C934 1.524 . S
C934 C933 1.524 . S
C934 C935 1.397 . S
C934 C939 1.363 . S
C935 H906 0.950 . S
C935 C934 1.397 . S
C935 C936 1.334 . S
C936 H907 0.950 . S
C936 C935 1.334 . S
C936 C937 1.287 . S
C937 C936 1.287 . S
C937 C938 1.524 . S
C937 H940 0.999 . S
C938 H908 0.950 . S
C938 C937 1.524 . S
C938 C939 1.415 . S
C939 H909 0.950 . S
C939 C934 1.363 . S
C939 C938 1.415 . S
H940 C937 0.999 . S
H941 C922 0.913 . S
H942 C960 0.951 1_565 S
H943 C962 0.951 1_565 S
H944 C964 0.950 . S
H945 C965 0.950 . S
H946 C967 0.950 . S
H947 C970 0.950 . S
H948 C971 0.950 . S
H949 C973 0.962 . S
H950 C974 0.950 . S
H951 C975 0.951 . S
H952 C977 0.951 . S
H953 C979 0.950 . S
H954 C980 0.950 . S
H955 C982 0.950 . S
H956 C985 0.950 1_565 S
H957 C986 0.950 . S
H958 C988 0.950 . S
H959 C989 0.950 . S
C960 H942 0.951 1_545 S
C960 C961 1.366 . S
C960 C962 1.388 . S
C961 C960 1.366 . S
C961 C965 1.385 . S
C962 H943 0.951 1_545 S
C962 C960 1.388 . S
C962 C963 1.366 . S
C963 C962 1.366 . S
C963 C964 1.414 . S
C963 C966 1.499 . S
C964 H944 0.950 . S
C964 C963 1.414 . S
C964 C965 1.374 . S
C965 H945 0.950 . S
C965 C961 1.385 . S
C965 C964 1.374 . S
C966 C963 1.499 . S
C966 C967 1.373 . S
C966 C968 1.389 . S
C967 H946 0.950 . S
C967 C966 1.373 . S
C967 C983 1.377 . S
C968 C966 1.389 . S
C968 C969 1.524 . S
C968 C982 1.377 . S
C969 C968 1.524 . S
C969 C970 1.397 . S
C969 C974 1.363 1_545 S
C970 H947 0.950 . S
C970 C969 1.397 . S
C970 C971 1.334 . S
C971 H948 0.950 . S
C971 C970 1.334 . S
C971 C972 1.287 . S
C972 C971 1.287 . S
C972 C973 1.500 1_545 S
C972 H991 0.913 . S
C973 H949 0.962 . S
C973 C972 1.500 1_565 S
C973 C974 1.425 . S
C974 H950 0.950 . S
C974 C969 1.363 1_565 S
C974 C973 1.425 . S
C975 H951 0.951 . S
C975 C976 1.366 . S
C975 C977 1.388 . S
C976 C975 1.366 . S
C976 C980 1.385 1_545 S
C977 H952 0.951 . S
C977 C975 1.388 . S
C977 C978 1.366 . S
C978 C977 1.366 . S
C978 C979 1.414 1_545 S
C978 C981 1.499 . S
C979 H953 0.950 . S
C979 C978 1.414 1_565 S
C979 C980 1.374 . S
C980 H954 0.950 . S
C980 C976 1.385 1_565 S
C980 C979 1.374 . S
C981 C978 1.499 . S
C981 C982 1.373 . S
C981 C983 1.389 . S
C982 H955 0.950 . S
C982 C968 1.377 . S
C982 C981 1.373 . S
C983 C967 1.377 . S
C983 C981 1.389 . S
C983 C984 1.524 . S
C984 C983 1.524 . S
C984 C985 1.395 . S
C984 C989 1.363 . S
C985 H956 0.950 1_545 S
C985 C984 1.395 . S
C985 C986 1.335 1_545 S
C986 H957 0.950 . S
C986 C985 1.335 1_565 S
C986 C987 1.287 1_565 S
C987 C986 1.287 1_545 S
C987 C988 1.524 . S
C987 H990 0.999 . S
C988 H958 0.950 . S
C988 C987 1.524 . S
C988 C989 1.415 . S
C989 H959 0.950 . S
C989 C984 1.363 . S
C989 C988 1.415 . S
H990 C987 0.999 . S
H991 C972 0.913 . S
H992 C1010 0.951 . S
H993 C1012 0.951 . S
H994 C1014 0.950 . S
H995 C1015 0.950 . S
H996 C1017 0.950 . S
H997 C1020 0.950 . S
H998 C1021 0.950 . S
H999 C1023 0.950 . S
H1000 C1024 0.950 . S
H1001 C1025 0.951 . S
H1002 C1027 0.951 . S
H1003 C1029 0.950 . S
H1004 C1030 0.950 . S
H1005 C1032 0.950 1_554 S
H1006 C1035 0.950 . S
H1007 C1036 0.950 . S
H1008 C1038 0.950 . S
H1009 C1039 0.950 . S
C1010 H992 0.951 . S
C1010 C1011 1.366 . S
C1010 C1012 1.388 . S
C1011 C1010 1.366 . S
C1011 C1015 1.385 . S
C1012 H993 0.951 . S
C1012 C1010 1.388 . S
C1012 C1013 1.366 . S
C1013 C1012 1.366 . S
C1013 C1014 1.414 . S
C1013 C1016 1.499 . S
C1014 H994 0.950 . S
C1014 C1013 1.414 . S
C1014 C1015 1.374 . S
C1015 H995 0.950 . S
C1015 C1011 1.385 . S
C1015 C1014 1.374 . S
C1016 C1013 1.499 . S
C1016 C1017 1.373 . S
C1016 C1018 1.389 . S
C1017 H996 0.950 . S
C1017 C1016 1.373 . S
C1017 C1033 1.377 . S
C1018 C1016 1.389 . S
C1018 C1019 1.524 . S
C1018 C1032 1.377 . S
C1019 C1018 1.524 . S
C1019 C1020 1.397 . S
C1019 C1024 1.363 . S
C1020 H997 0.950 . S
C1020 C1019 1.397 . S
C1020 C1021 1.334 . S
C1021 H998 0.950 . S
C1021 C1020 1.334 . S
C1021 C1022 1.287 . S
C1022 C1021 1.287 . S
C1022 C1023 1.524 . S
C1022 H1041 0.913 . S
C1023 H999 0.950 . S
C1023 C1022 1.524 . S
C1023 C1024 1.415 . S
C1024 H1000 0.950 . S
C1024 C1019 1.363 . S
C1024 C1023 1.415 . S
C1025 H1001 0.951 . S
C1025 C1026 1.366 . S
C1025 C1027 1.388 . S
C1026 C1025 1.366 . S
C1026 C1030 1.385 . S
C1027 H1002 0.951 . S
C1027 C1025 1.388 . S
C1027 C1028 1.366 . S
C1028 C1027 1.366 . S
C1028 C1029 1.414 . S
C1028 C1031 1.499 . S
C1029 H1003 0.950 . S
C1029 C1028 1.414 . S
C1029 C1030 1.374 . S
C1030 H1004 0.950 . S
C1030 C1026 1.385 . S
C1030 C1029 1.374 . S
C1031 C1028 1.499 . S
C1031 C1032 1.373 1_554 S
C1031 C1033 1.389 1_554 S
C1032 H1005 0.950 1_556 S
C1032 C1018 1.377 . S
C1032 C1031 1.373 1_556 S
C1033 C1017 1.377 . S
C1033 C1031 1.389 1_556 S
C1033 C1034 1.535 . S
C1034 C1033 1.535 . S
C1034 C1035 1.376 1_556 S
C1034 C1039 1.377 . S
C1035 H1006 0.950 . S
C1035 C1034 1.376 1_554 S
C1035 C1036 1.334 . S
C1036 H1007 0.950 . S
C1036 C1035 1.334 . S
C1036 C1037 1.287 . S
C1037 C1036 1.287 . S
C1037 C1038 1.524 1_554 S
C1037 H1040 0.999 . S
C1038 H1008 0.950 . S
C1038 C1037 1.524 1_556 S
C1038 C1039 1.415 . S
C1039 H1009 0.950 . S
C1039 C1034 1.377 . S
C1039 C1038 1.415 . S
H1040 C1037 0.999 . S
H1041 C1022 0.913 . S
H1042 C1060 0.951 . S
H1043 C1062 0.951 . S
H1044 C1064 0.950 . S
H1045 C1065 0.950 . S
H1046 C1067 0.950 . S
H1047 C1070 0.950 . S
H1048 C1071 0.950 . S
H1049 C1073 0.950 . S
H1050 C1074 0.950 . S
H1051 C1075 0.951 . S
H1052 C1077 0.951 . S
H1053 C1079 0.950 . S
H1054 C1080 0.950 . S
H1055 C1082 0.950 1_655 S
H1056 C1085 0.950 . S
H1057 C1086 0.950 . S
H1058 C1088 0.950 . S
H1059 C1089 0.950 . S
C1060 H1042 0.951 . S
C1060 C1061 1.366 . S
C1060 C1062 1.388 . S
C1061 C1060 1.366 . S
C1061 C1065 1.385 . S
C1062 H1043 0.951 . S
C1062 C1060 1.388 . S
C1062 C1063 1.366 . S
C1063 C1062 1.366 . S
C1063 C1064 1.414 . S
C1063 C1066 1.499 . S
C1064 H1044 0.950 . S
C1064 C1063 1.414 . S
C1064 C1065 1.374 . S
C1065 H1045 0.950 . S
C1065 C1061 1.385 . S
C1065 C1064 1.374 . S
C1066 C1063 1.499 . S
C1066 C1067 1.373 . S
C1066 C1068 1.389 . S
C1067 H1046 0.950 . S
C1067 C1066 1.373 . S
C1067 C1083 1.377 . S
C1068 C1066 1.389 . S
C1068 C1069 1.524 1_455 S
C1068 C1082 1.377 . S
C1069 C1068 1.524 1_655 S
C1069 C1070 1.397 . S
C1069 C1074 1.363 . S
C1070 H1047 0.950 . S
C1070 C1069 1.397 . S
C1070 C1071 1.334 . S
C1071 H1048 0.950 . S
C1071 C1070 1.334 . S
C1071 C1072 1.287 . S
C1072 C1071 1.287 . S
C1072 C1073 1.524 . S
C1072 H1091 0.913 . S
C1073 H1049 0.950 . S
C1073 C1072 1.524 . S
C1073 C1074 1.415 . S
C1074 H1050 0.950 . S
C1074 C1069 1.363 . S
C1074 C1073 1.415 . S
C1075 H1051 0.951 . S
C1075 C1076 1.366 . S
C1075 C1077 1.388 . S
C1076 C1075 1.366 . S
C1076 C1080 1.385 . S
C1077 H1052 0.951 . S
C1077 C1075 1.388 . S
C1077 C1078 1.366 . S
C1078 C1077 1.366 . S
C1078 C1079 1.414 . S
C1078 C1081 1.499 . S
C1079 H1053 0.950 . S
C1079 C1078 1.414 . S
C1079 C1080 1.374 . S
C1080 H1054 0.950 . S
C1080 C1076 1.385 . S
C1080 C1079 1.374 . S
C1081 C1078 1.499 . S
C1081 C1082 1.373 . S
C1081 C1083 1.389 . S
C1082 H1055 0.950 1_455 S
C1082 C1068 1.377 . S
C1082 C1081 1.373 . S
C1083 C1067 1.377 . S
C1083 C1081 1.389 . S
C1083 C1084 1.524 . S
C1084 C1083 1.524 . S
C1084 C1085 1.397 . S
C1084 C1089 1.363 . S
C1085 H1056 0.950 . S
C1085 C1084 1.397 . S
C1085 C1086 1.334 . S
C1086 H1057 0.950 . S
C1086 C1085 1.334 . S
C1086 C1087 1.287 . S
C1087 C1086 1.287 . S
C1087 C1088 1.524 . S
C1087 H1090 0.999 . S
C1088 H1058 0.950 . S
C1088 C1087 1.524 . S
C1088 C1089 1.415 . S
C1089 H1059 0.950 . S
C1089 C1084 1.363 . S
C1089 C1088 1.415 . S
H1090 C1087 0.999 . S
H1091 C1072 0.913 . S
C211 C24 3.234 . S
C226 C186 3.213 . S
C261 C66 1.135 . S
C276 C160 1.131 . S
C311 C93 1.786 . S
C326 C172 1.739 . S
C361 C13 2.734 . S
C376 C184 2.627 . S
C426 C162 1.031 . S
C411 C57 1.040 . S
C476 C174 1.782 . S
C461 C104 1.816 . S
C511 C64 1.983 . S
C526 C136 1.906 . S
C561 C97 0.616 . S
C576 C150 0.616 . S
C611 C17 1.090 . S
C626 C126 1.090 . S
C676 C138 1.621 . S
C661 C53 1.642 . S
C726 C148 0.415 . S
C711 C106 0.348 . S
C761 C26 1.149 . S
C776 C124 1.144 . S
C826 C153 1.252 . S
C811 C2 1.221 . S
C861 C63 1.490 . S
C876 C129 1.503 . S
C911 C82 1.469 . S
C926 C141 1.498 . S
C976 C177 1.466 . S
C961 C42 1.440 . S
C1026 C189 1.796 . S
C1011 C103 1.752 . S
C1061 C23 1.523 . S
C1076 C165 1.531 . S
