# Generated by pormake.
# Topology pyr, (3,6)-cn, num edge types: 1
# Building blocks:
#     Node 0, Type 0, BuildingBlock: BETDIP_clean_linker_0, # of connection points: 3
#     Node 1, Type 0, BuildingBlock: BETDIP_clean_linker_0, # of connection points: 3
#     Node 2, Type 0, BuildingBlock: BETDIP_clean_linker_0, # of connection points: 3
#     Node 3, Type 0, BuildingBlock: BETDIP_clean_linker_0, # of connection points: 3
#     Node 4, Type 0, BuildingBlock: BETDIP_clean_linker_0, # of connection points: 3
#     Node 5, Type 0, BuildingBlock: BETDIP_clean_linker_0, # of connection points: 3
#     Node 6, Type 0, BuildingBlock: BETDIP_clean_linker_0, # of connection points: 3
#     Node 7, Type 0, BuildingBlock: BETDIP_clean_linker_0, # of connection points: 3
#     Node 8, Type 1, BuildingBlock: BETDAH_clean_sbu_0, # of connection points: 6
#     Node 9, Type 1, BuildingBlock: BETDAH_clean_sbu_0, # of connection points: 6
#     Node 10, Type 1, BuildingBlock: BETDAH_clean_sbu_0, # of connection points: 6
#     Node 11, Type 1, BuildingBlock: BETDAH_clean_sbu_0, # of connection points: 6
#     Edge 12, Type (0, 1), BuildingBlock: ZUJKAS_clean_linker_0, # of connection points: 2
#     Edge 13, Type (0, 1), BuildingBlock: ZUJKAS_clean_linker_0, # of connection points: 2
#     Edge 14, Type (0, 1), BuildingBlock: ZUJKAS_clean_linker_0, # of connection points: 2
#     Edge 15, Type (0, 1), BuildingBlock: ZUJKAS_clean_linker_0, # of connection points: 2
#     Edge 16, Type (0, 1), BuildingBlock: ZUJKAS_clean_linker_0, # of connection points: 2
#     Edge 17, Type (0, 1), BuildingBlock: ZUJKAS_clean_linker_0, # of connection points: 2
#     Edge 18, Type (0, 1), BuildingBlock: ZUJKAS_clean_linker_0, # of connection points: 2
#     Edge 19, Type (0, 1), BuildingBlock: ZUJKAS_clean_linker_0, # of connection points: 2
#     Edge 20, Type (0, 1), BuildingBlock: ZUJKAS_clean_linker_0, # of connection points: 2
#     Edge 21, Type (0, 1), BuildingBlock: ZUJKAS_clean_linker_0, # of connection points: 2
#     Edge 22, Type (0, 1), BuildingBlock: ZUJKAS_clean_linker_0, # of connection points: 2
#     Edge 23, Type (0, 1), BuildingBlock: ZUJKAS_clean_linker_0, # of connection points: 2
#     Edge 24, Type (0, 1), BuildingBlock: ZUJKAS_clean_linker_0, # of connection points: 2
#     Edge 25, Type (0, 1), BuildingBlock: ZUJKAS_clean_linker_0, # of connection points: 2
#     Edge 26, Type (0, 1), BuildingBlock: ZUJKAS_clean_linker_0, # of connection points: 2
#     Edge 27, Type (0, 1), BuildingBlock: ZUJKAS_clean_linker_0, # of connection points: 2
#     Edge 28, Type (0, 1), BuildingBlock: ZUJKAS_clean_linker_0, # of connection points: 2
#     Edge 29, Type (0, 1), BuildingBlock: ZUJKAS_clean_linker_0, # of connection points: 2
#     Edge 30, Type (0, 1), BuildingBlock: ZUJKAS_clean_linker_0, # of connection points: 2
#     Edge 31, Type (0, 1), BuildingBlock: ZUJKAS_clean_linker_0, # of connection points: 2
#     Edge 32, Type (0, 1), BuildingBlock: ZUJKAS_clean_linker_0, # of connection points: 2
#     Edge 33, Type (0, 1), BuildingBlock: ZUJKAS_clean_linker_0, # of connection points: 2
#     Edge 34, Type (0, 1), BuildingBlock: ZUJKAS_clean_linker_0, # of connection points: 2
#     Edge 35, Type (0, 1), BuildingBlock: ZUJKAS_clean_linker_0, # of connection points: 2
# Relax obj value: 0.100
# Max RMSD: 0.175
# Mean RMSD: 0.138
data_MOF--net-pyr--node1-BETDAH_clean_sbu_0--node2-BETDIP_clean_linker_0--edge1-ZUJKAS_clean_linker_0
_symmetry_space_group_name_H-M    P1
_symmetry_Int_Tables_number       1
_symmetry_cell_setting            triclinic
loop_
_symmetry_equiv_pos_as_xyz
'x, y, z'
_cell_length_a     49.562452
_cell_length_b     51.068285
_cell_length_c     48.877604
_cell_angle_alpha  94.801298
_cell_angle_beta   85.212055
_cell_angle_gamma 104.07587
loop_
_atom_site_label
_atom_site_type_symbol
_atom_site_fract_x
_atom_site_fract_y
_atom_site_fract_z
_atom_type_partial_charge
H0 H 0.27597 0.29241 0.22384 0.0
H1 H 0.33505 0.2777 0.15838 0.0
H2 H 0.31054 0.22306 0.22334 0.0
H3 H 0.2946 0.33719 0.21205 0.0
C4 C 0.29275 0.33266 0.19006 0.0
C5 C 0.29051 0.28086 0.21484 0.0
C6 C 0.29162 0.25707 0.22668 0.0
C7 C 0.30649 0.28861 0.19038 0.0
C8 C 0.32357 0.27225 0.17776 0.0
C9 C 0.32501 0.24841 0.18944 0.0
C10 C 0.30929 0.24126 0.21409 0.0
N11 N 0.30351 0.31117 0.17671 0.0
H12 H 0.25031 0.87115 0.65538 0.0
H13 H 0.24949 0.81843 0.58193 0.0
H14 H 0.31954 0.83517 0.63192 0.0
H15 H 0.20499 0.81793 0.58259 0.0
C16 C 0.20235 0.83666 0.5934 0.0
C17 C 0.26024 0.85806 0.64154 0.0
C18 C 0.28671 0.85487 0.64648 0.0
C19 C 0.24649 0.84491 0.61855 0.0
C20 C 0.25955 0.82855 0.59999 0.0
C21 C 0.28581 0.82485 0.60487 0.0
C22 C 0.29929 0.83812 0.62807 0.0
N23 N 0.2202 0.84973 0.61426 0.0
H24 H 0.69145 0.40233 0.83127 0.0
H25 H 0.62102 0.33318 0.82761 0.0
H26 H 0.68389 0.33818 0.88524 0.0
H27 H 0.60636 0.3558 0.79395 0.0
C28 C 0.6212 0.37444 0.78888 0.0
C29 C 0.68031 0.38294 0.83853 0.0
C30 C 0.69114 0.37219 0.86005 0.0
C31 C 0.65498 0.36956 0.82637 0.0
C32 C 0.64017 0.34401 0.8365 0.0
C33 C 0.65059 0.33203 0.85779 0.0
C34 C 0.67587 0.34677 0.86907 0.0
N35 N 0.64601 0.38276 0.80434 0.0
H36 H 0.81134 0.64175 0.34231 0.0
H37 H 0.87831 0.71312 0.33724 0.0
H38 H 0.81605 0.70736 0.40436 0.0
H39 H 0.88407 0.69863 0.29387 0.0
C40 C 0.87585 0.67689 0.29203 0.0
C41 C 0.82156 0.66173 0.35059 0.0
C42 C 0.81082 0.67266 0.37523 0.0
C43 C 0.84549 0.67622 0.33641 0.0
C44 C 0.85925 0.70195 0.34732 0.0
C45 C 0.84886 0.71315 0.37205 0.0
C46 C 0.82463 0.6984 0.38578 0.0
N47 N 0.85528 0.66382 0.31168 0.0
H48 H 0.6659 0.77853 0.87911 0.0
H49 H 0.72907 0.76859 0.81617 0.0
H50 H 0.68734 0.83262 0.81336 0.0
H51 H 0.71054 0.7223 0.82806 0.0
C52 C 0.71347 0.72788 0.84976 0.0
C53 C 0.67775 0.78479 0.86015 0.0
C54 C 0.67369 0.80713 0.84737 0.0
C55 C 0.69708 0.77034 0.84858 0.0
C56 C 0.71294 0.77865 0.82427 0.0
C57 C 0.70964 0.80119 0.81153 0.0
C58 C 0.68969 0.81502 0.82299 0.0
N59 N 0.70209 0.74906 0.86292 0.0
H60 H 0.74109 0.16647 0.39622 0.0
H61 H 0.74099 0.22001 0.46893 0.0
H62 H 0.67906 0.21313 0.4109 0.0
H63 H 0.78439 0.21755 0.47077 0.0
C64 C 0.78688 0.19874 0.46002 0.0
C65 C 0.73206 0.18116 0.40867 0.0
C66 C 0.70835 0.18814 0.40053 0.0
C67 C 0.7444 0.1929 0.43287 0.0
C68 C 0.73231 0.21119 0.44977 0.0
C69 C 0.70882 0.21855 0.44179 0.0
C70 C 0.69702 0.2071 0.41715 0.0
N71 N 0.76868 0.18541 0.43956 0.0
H72 H 0.31996 0.66128 0.20645 0.0
H73 H 0.39024 0.7303 0.21153 0.0
H74 H 0.32708 0.7267 0.15438 0.0
H75 H 0.39256 0.71302 0.25661 0.0
C76 C 0.38475 0.6912 0.25458 0.0
C77 C 0.33115 0.68079 0.19948 0.0
C78 C 0.32003 0.69224 0.17869 0.0
C79 C 0.35608 0.69424 0.21225 0.0
C80 C 0.37081 0.72009 0.20278 0.0
C81 C 0.36099 0.73213 0.1811 0.0
C82 C 0.33533 0.71783 0.17013 0.0
N83 N 0.36563 0.68024 0.23324 0.0
H84 H 0.12502 0.33658 0.6975 0.0
H85 H 0.19311 0.40698 0.69673 0.0
H86 H 0.19101 0.34269 0.63353 0.0
H87 H 0.18258 0.39647 0.74745 0.0
C88 C 0.16122 0.39791 0.74605 0.0
C89 C 0.14458 0.34757 0.68799 0.0
C90 C 0.15641 0.33652 0.66399 0.0
C91 C 0.15805 0.37261 0.70013 0.0
C92 C 0.18321 0.3872 0.68778 0.0
C93 C 0.19498 0.37682 0.66334 0.0
C94 C 0.18151 0.35135 0.65174 0.0
N95 N 0.14554 0.38323 0.72432 0.0
Ho96 Ho 0.00869 0.03571 0.48958 0.0
Ho97 Ho 1.00206 1.0126 0.54661 0.0
C98 C 0.03892 0.07191 0.54198 0.0
C99 C 0.0122 0.06629 0.44935 0.0
C100 C 0.03448 0.08869 0.43951 0.0
C101 C 0.03022 0.10349 0.4181 0.0
C102 C 0.05216 0.12349 0.40735 0.0
C103 C 0.0787 0.12881 0.41783 0.0
C104 C 0.08257 0.11447 0.43994 0.0
C105 C 0.0606 0.09461 0.45073 0.0
C106 C 0.04607 1.00764 0.49914 0.0
C107 C 0.97204 0.97638 0.49403 0.0
C108 C 0.99841 0.9824 0.58722 0.0
C109 C 0.97565 0.96103 0.59818 0.0
C110 C 0.97849 0.94933 0.62234 0.0
C111 C 0.95585 0.93091 0.63429 0.0
C112 C 0.93 0.92404 0.62228 0.0
C113 C 0.92759 0.9352 0.59751 0.0
C114 C 0.95024 0.95356 0.58557 0.0
C115 C 0.96477 0.04078 0.53717 0.0
O116 O 0.02827 0.07142 0.5179 0.0
O117 O 0.03568 0.04971 0.55526 0.0
O118 O 0.01819 0.04261 0.44652 0.0
O119 O 1.0001 0.07087 0.47351 0.0
O120 O 0.03699 1.00802 0.47514 0.0
O121 O 0.03672 0.02368 0.51598 0.0
O122 O 0.98262 0.97687 0.51815 0.0
O123 O 0.97528 0.99856 0.48075 0.0
O124 O 0.99363 1.00658 0.58995 0.0
O125 O 0.00932 0.97689 0.56276 0.0
O126 O 0.9738 0.04022 0.56115 0.0
O127 O 0.974 0.02469 0.52028 0.0
H128 H 0.01015 0.09914 0.40925 0.0
H129 H 0.04865 0.13402 0.39014 0.0
H130 H 0.10269 0.11833 0.44859 0.0
H131 H 0.06416 0.0834 0.46741 0.0
H132 H 0.99795 0.95502 0.63238 0.0
H133 H 0.95827 0.92292 0.65354 0.0
H134 H 0.90806 0.93008 0.58761 0.0
H135 H 0.94772 0.96248 0.56688 0.0
Ho136 Ho 0.53025 0.04049 0.03508 0.0
Ho137 Ho 0.4808 0.02557 1.00324 0.0
C138 C 0.47592 0.06025 0.05809 0.0
C139 C 0.57569 0.06763 0.05608 0.0
C140 C 0.58502 0.07462 0.08397 0.0
C141 C 0.61012 0.09371 0.08806 0.0
C142 C 0.61874 0.10132 0.11464 0.0
C143 C 0.60237 0.08989 0.13756 0.0
C144 C 0.57721 0.07061 0.13325 0.0
C145 C 0.56857 0.0631 0.10666 0.0
C146 C 0.49656 0.99505 0.05892 0.0
C147 C 0.53377 1.00198 0.98068 0.0
C148 C 0.43725 1.0025 0.97661 0.0
C149 C 0.42988 0.99067 0.94902 0.0
C150 C 0.40906 0.96668 0.94675 0.0
C151 C 0.40023 0.95569 0.92102 0.0
C152 C 0.41195 0.96862 0.89703 0.0
C153 C 0.43345 0.9923 0.8993 0.0
C154 C 0.4424 1.00323 0.92512 0.0
C155 C 0.51429 0.07569 0.99131 0.0
O156 O 0.50331 0.06698 0.05546 0.0
O157 O 0.46189 0.03971 0.04305 0.0
O158 O 0.57144 0.04206 0.04761 0.0
O159 O 0.55592 0.07864 0.05 0.0
O160 O 0.52019 1.00902 0.06723 0.0
O161 O 0.49138 1.00673 0.03859 0.0
O162 O 0.50761 1.00195 0.97749 0.0
O163 O 0.54775 1.01704 1.00043 0.0
O164 O 0.44706 0.02863 0.97937 0.0
O165 O 0.45033 0.98935 0.99057 0.0
O166 O 0.48738 0.06959 0.99477 0.0
O167 O 0.52262 0.05436 0.99461 0.0
H168 H 0.62289 0.10295 0.07071 0.0
H169 H 0.63799 0.11653 0.11726 0.0
H170 H 0.56428 0.0612 0.15041 0.0
H171 H 0.549 0.04843 0.1038 0.0
H172 H 0.39931 0.95662 0.96497 0.0
H173 H 0.38406 0.93713 0.91994 0.0
H174 H 0.4428 1.0028 0.88123 0.0
H175 H 0.45866 0.02172 0.92641 0.0
Ho176 Ho 0.5076 0.50951 0.49973 0.0
Ho177 Ho 0.49657 0.55207 0.54155 0.0
C178 C 0.52334 0.5074 0.56512 0.0
C179 C 0.5309 0.47589 0.47033 0.0
C180 C 0.54346 0.45429 0.47776 0.0
C181 C 0.56736 0.46028 0.49292 0.0
C182 C 0.57817 0.43951 0.50092 0.0
C183 C 0.56524 0.41231 0.4941 0.0
C184 C 0.54121 0.4064 0.47911 0.0
C185 C 0.53057 0.42718 0.47087 0.0
C186 C 0.45598 0.49865 0.52434 0.0
C187 C 0.48148 0.55465 0.47594 0.0
C188 C 0.47182 0.58519 0.56967 0.0
C189 C 0.45979 0.60643 0.56036 0.0
C190 C 0.43076 0.6019 0.55959 0.0
C191 C 0.41911 0.6203 0.54801 0.0
C192 C 0.43625 0.64379 0.53728 0.0
C193 C 0.46525 0.64869 0.53853 0.0
C194 C 0.47695 0.63013 0.54985 0.0
C195 C 0.54821 0.56279 0.51725 0.0
O196 O 0.52678 0.49946 0.53849 0.0
O197 O 0.5095 0.52653 0.57211 0.0
O198 O 0.5039 0.47166 0.47533 0.0
O199 O 0.54404 0.5008 0.47709 0.0
O200 O 0.46134 0.49261 0.49848 0.0
O201 O 0.47825 0.50883 0.53592 0.0
O202 O 0.4791 0.5634 0.50242 0.0
O203 O 0.49398 0.53451 0.46908 0.0
O204 O 0.49901 0.58918 0.56701 0.0
O205 O 0.45903 0.56037 0.56213 0.0
O206 O 0.54277 0.5691 0.54307 0.0
O207 O 0.526 0.55272 0.50553 0.0
H208 H 0.57773 0.481 0.49873 0.0
H209 H 0.59697 0.44483 0.51202 0.0
H210 H 0.53048 0.38568 0.47384 0.0
H211 H 0.51201 0.42204 0.45938 0.0
H212 H 0.41704 0.58384 0.56754 0.0
H213 H 0.39663 0.61636 0.54785 0.0
H214 H 0.47887 0.66675 0.5305 0.0
H215 H 0.49943 0.63419 0.54996 0.0
Ho216 Ho 0.01026 0.50502 0.0227 0.0
Ho217 Ho 0.00436 0.5604 1.0092 0.0
C218 C 0.05936 0.56 0.04074 0.0
C219 C 0.02869 0.46234 0.02661 0.0
C220 C 0.05075 0.45513 0.04076 0.0
C221 C 0.07724 0.47276 0.0426 0.0
C222 C 0.09809 0.46518 0.05544 0.0
C223 C 0.09287 0.43981 0.06669 0.0
C224 C 0.0662 0.42235 0.06501 0.0
C225 C 0.04537 0.42996 0.05217 0.0
C226 C 0.98186 0.53013 0.06137 0.0
C227 C 0.95508 0.50555 0.99167 0.0
C228 C 0.98564 0.60288 1.00526 0.0
C229 C 0.96271 0.60958 0.99194 0.0
C230 C 0.93492 0.59489 0.99621 0.0
C231 C 0.91346 0.60231 0.98418 0.0
C232 C 0.91938 0.6244 0.96748 0.0
C233 C 0.94725 0.63873 0.96286 0.0
C234 C 0.96866 0.63144 0.97506 0.0
C235 C 0.03305 0.53562 0.97046 0.0
O236 O 0.05179 0.5331 0.03636 0.0
O237 O 0.04288 0.5752 0.03398 0.0
O238 O 0.00777 0.46784 0.04224 0.0
O239 O 0.03698 0.47888 1.00689 0.0
O240 O 0.97575 0.5041 0.05607 0.0
O241 O 0.00349 0.54092 0.04731 0.0
O242 O 0.96251 0.5324 0.99645 0.0
O243 O 0.97185 0.49037 0.99775 0.0
O244 O 0.00585 0.59691 0.98887 0.0
O245 O 0.97864 0.58724 0.02587 0.0
O246 O 0.03883 0.56163 0.97594 0.0
O247 O 0.01138 0.52454 0.9844 0.0
H248 H 0.08191 0.4923 0.03392 0.0
H249 H 0.11827 0.47924 0.05667 0.0
H250 H 0.06157 0.40253 0.07312 0.0
H251 H 0.02511 0.41603 0.05089 0.0
H252 H 0.92968 0.57779 1.00897 0.0
H253 H 0.89224 0.59069 0.98785 0.0
H254 H 0.95245 0.656 0.95033 0.0
H255 H 0.9899 0.64308 0.97151 0.0
H256 H 0.27828 0.28658 0.27329 0.0
H257 H 0.24385 0.27057 0.31105 0.0
H258 H 0.22746 0.18995 0.27187 0.0
H259 H 0.26112 0.20576 0.23397 0.0
H260 H 0.17947 0.21185 0.28664 0.0
H261 H 0.24798 0.21961 0.37315 0.0
H262 H 0.2531 0.24852 0.35291 0.0
H263 H 0.26095 0.21788 0.33754 0.0
C264 C 0.2674 0.26542 0.27284 0.0
C265 C 0.27249 0.24741 0.25071 0.0
C266 C 0.24796 0.25629 0.29449 0.0
C267 C 0.23336 0.22906 0.29427 0.0
C268 C 0.23869 0.21101 0.27245 0.0
H269 H 0.13067 0.12092 0.40391 0.0
H270 H 0.16851 0.14943 0.37686 0.0
C271 C 0.25808 0.22006 0.25091 0.0
C272 C 0.21117 0.21934 0.31572 0.0
H273 H 0.19969 0.20306 0.38271 0.0
C274 C 0.18376 0.21018 0.30775 0.0
C275 C 0.21705 0.21711 0.3431 0.0
C276 C 0.24635 0.22612 0.35235 0.0
C277 C 0.16208 0.19805 0.32623 0.0
C278 C 0.16792 0.19552 0.3536 0.0
C279 C 0.19527 0.20529 0.36178 0.0
C280 C 0.14638 0.1805 0.37311 0.0
C281 C 0.13338 0.18689 0.31588 0.0
C282 C 0.12173 0.18895 0.38069 0.0
C283 C 0.09996 0.17259 0.39602 0.0
C284 C 0.10269 0.14771 0.40432 0.0
C285 C 0.12802 0.14007 0.398 0.0
C286 C 0.14965 0.15632 0.38251 0.0
H287 H 0.13379 0.18545 0.29304 0.0
H288 H 0.124 0.16649 0.3233 0.0
H289 H 0.11967 0.20046 0.32376 0.0
H290 H 0.11903 0.20782 0.37407 0.0
H291 H 0.08083 0.17916 0.40098 0.0
H292 H 0.26407 0.85992 0.699 0.0
H293 H 0.28802 0.88129 0.7398 0.0
H294 H 0.36576 0.90108 0.69068 0.0
H295 H 0.34181 0.88054 0.64957 0.0
H296 H 0.33199 0.86598 0.76138 0.0
H297 H 0.36289 0.97307 0.73357 0.0
H298 H 0.33674 0.94778 0.71612 0.0
H299 H 0.37309 0.94905 0.7083 0.0
C300 C 0.28616 0.86926 0.69678 0.0
C301 C 0.30104 0.8686 0.67106 0.0
C302 C 0.29983 0.88129 0.72012 0.0
C303 C 0.32857 0.89299 0.71815 0.0
C304 C 0.34349 0.89254 0.69252 0.0
H305 H 0.44142 0.96482 0.84729 0.0
H306 H 0.42273 0.94642 0.80289 0.0
C307 C 0.32983 0.88053 0.66914 0.0
C308 C 0.34303 0.90448 0.74324 0.0
H309 H 0.37976 0.96311 0.77447 0.0
C310 C 0.34244 0.88721 0.76426 0.0
C311 C 0.3568 0.93214 0.74675 0.0
C312 C 0.35731 0.9517 0.72512 0.0
C313 C 0.35511 0.89692 0.78886 0.0
C314 C 0.36838 0.92465 0.7926 0.0
C315 C 0.36955 0.94184 0.77139 0.0
C316 C 0.37977 0.93636 0.81905 0.0
C317 C 0.35422 0.87747 0.81071 0.0
C318 C 0.36167 0.93718 0.84253 0.0
C319 C 0.37217 0.9478 0.86774 0.0
C320 C 0.40102 0.9578 0.86996 0.0
C321 C 0.4191 0.9574 0.84622 0.0
C322 C 0.40851 0.94682 0.82091 0.0
H323 H 0.34936 0.8561 0.80219 0.0
H324 H 0.3744 0.88184 0.8205 0.0
H325 H 0.33775 0.87976 0.82693 0.0
H326 H 0.33937 0.92964 0.84131 0.0
H327 H 0.35763 0.9484 0.88546 0.0
H328 H 0.65051 0.42301 0.76453 0.0
H329 H 0.63656 0.44566 0.72727 0.0
H330 H 0.56002 0.38408 0.72337 0.0
H331 H 0.57425 0.3613 0.75981 0.0
H332 H 0.57449 0.39412 0.67366 0.0
H333 H 0.58831 0.4962 0.72563 0.0
H334 H 0.62007 0.48498 0.72207 0.0
H335 H 0.59094 0.46751 0.74343 0.0
C336 C 0.63064 0.41428 0.75589 0.0
C337 C 0.61365 0.39002 0.76587 0.0
C338 C 0.62236 0.42755 0.7344 0.0
C339 C 0.59656 0.41741 0.72194 0.0
C340 C 0.57991 0.39303 0.7319 0.0
H341 H 0.51572 0.51378 0.62243 0.0
H342 H 0.53309 0.49241 0.65821 0.0
C343 C 0.58816 0.37983 0.75318 0.0
C344 C 0.58688 0.43128 0.69852 0.0
H345 H 0.57861 0.4922 0.67859 0.0
C346 C 0.57553 0.41563 0.67502 0.0
C347 C 0.58729 0.45943 0.69938 0.0
C348 C 0.59702 0.478 0.72407 0.0
C349 C 0.5652 0.42675 0.6532 0.0
C350 C 0.56644 0.45506 0.65362 0.0
C351 C 0.57755 0.47069 0.67725 0.0
C352 C 0.55568 0.46859 0.63061 0.0
C353 C 0.552 0.40743 0.63034 0.0
C354 C 0.56224 0.46342 0.60212 0.0
C355 C 0.55187 0.47563 0.58126 0.0
C356 C 0.53472 0.49414 0.58763 0.0
C357 C 0.52866 0.49978 0.61607 0.0
C358 C 0.53883 0.4874 0.6369 0.0
H359 H 0.54432 0.38654 0.63715 0.0
H360 H 0.53422 0.41378 0.62277 0.0
H361 H 0.56781 0.40678 0.61299 0.0
H362 H 0.57582 0.45006 0.59572 0.0
H363 H 0.55759 0.47062 0.55994 0.0
H364 H 0.85844 0.62243 0.27806 0.0
H365 H 0.87534 0.59699 0.23838 0.0
H366 H 0.93161 0.67031 0.21194 0.0
H367 H 0.91488 0.69595 0.25173 0.0
H368 H 0.87569 0.6057 0.18077 0.0
H369 H 0.98193 0.61676 0.21584 0.0
H370 H 0.95325 0.62285 0.23873 0.0
H371 H 0.97107 0.64783 0.21547 0.0
C372 C 0.87444 0.63316 0.26384 0.0
C373 C 0.88551 0.66119 0.26802 0.0
C374 C 0.88401 0.61859 0.24117 0.0
C375 C 0.90492 0.63174 0.22247 0.0
C376 C 0.91575 0.65975 0.2264 0.0
H377 H 0.99727 0.58351 0.07767 0.0
H378 H 0.97679 0.60759 0.11607 0.0
C379 C 0.90613 0.67435 0.24903 0.0
C380 C 0.91539 0.61615 0.19879 0.0
H381 H 0.97375 0.59738 0.17068 0.0
C382 C 0.89708 0.60373 0.17855 0.0
C383 C 0.94329 0.61367 0.19609 0.0
C384 C 0.96353 0.62576 0.21777 0.0
C385 C 0.90616 0.5894 0.15522 0.0
C386 C 0.93413 0.58705 0.15244 0.0
C387 C 0.95233 0.59928 0.17285 0.0
C388 C 0.94524 0.57244 0.12831 0.0
C389 C 0.88598 0.57758 0.13342 0.0
C390 C 0.93428 0.54466 0.12245 0.0
C391 C 0.94585 0.53086 0.10034 0.0
C392 C 0.96868 0.54463 0.08396 0.0
C393 C 0.97954 0.57243 0.08984 0.0
C394 C 0.96793 0.58619 0.11181 0.0
H395 H 0.86782 0.58694 0.13521 0.0
H396 H 0.89639 0.58032 0.11249 0.0
H397 H 0.87802 0.55557 0.13578 0.0
H398 H 0.91715 0.53354 0.13528 0.0
H399 H 0.93721 0.5094 0.09632 0.0
H400 H 0.30866 0.19366 0.18053 0.0
H401 H 0.3362 0.16279 0.15898 0.0
H402 H 0.40608 0.23035 0.1447 0.0
H403 H 0.37862 0.26157 0.16647 0.0
H404 H 0.37119 0.17257 0.09907 0.0
H405 H 0.42722 0.1668 0.19187 0.0
H406 H 0.39256 0.17273 0.19501 0.0
H407 H 0.42155 0.19873 0.1835 0.0
C408 C 0.32994 0.20197 0.17294 0.0
C409 C 0.34159 0.23002 0.17538 0.0
C410 C 0.34555 0.18433 0.16055 0.0
C411 C 0.37311 0.19437 0.1505 0.0
C412 C 0.38481 0.22233 0.15249 0.0
H413 H 0.49826 0.10856 0.08546 0.0
H414 H 0.4734 0.14104 0.10821 0.0
C415 C 0.36911 0.24008 0.16477 0.0
C416 C 0.38947 0.17536 0.13789 0.0
H417 H 0.43576 0.13954 0.15239 0.0
C418 C 0.38541 0.16537 0.1106 0.0
C419 C 0.40799 0.16624 0.1531 0.0
C420 C 0.41275 0.17653 0.18255 0.0
C421 C 0.39949 0.14633 0.098 0.0
C422 C 0.41746 0.13651 0.11344 0.0
C423 C 0.4218 0.14689 0.14067 0.0
C424 C 0.4323 0.11582 0.10149 0.0
C425 C 0.39534 0.1373 0.06812 0.0
C426 C 0.41743 0.09043 0.09104 0.0
C427 C 0.43158 0.07183 0.07786 0.0
C428 C 0.46088 0.07817 0.07521 0.0
C429 C 0.47568 0.10303 0.08706 0.0
C430 C 0.46152 0.12167 0.10005 0.0
H431 H 0.38749 0.15205 0.05742 0.0
H432 H 0.41508 0.13458 0.05709 0.0
H433 H 0.3797 0.11765 0.06677 0.0
H434 H 0.39486 0.0852 0.09262 0.0
H435 H 0.41954 0.05278 0.06918 0.0
H436 H 0.17479 0.82451 0.54655 0.0
H437 H 0.14612 0.85094 0.52778 0.0
H438 H 0.15588 0.90569 0.60037 0.0
H439 H 0.18473 0.87981 0.61894 0.0
H440 H 0.09661 0.86729 0.54863 0.0
H441 H 0.1878 0.95445 0.53674 0.0
H442 H 0.19123 0.9211 0.54297 0.0
H443 H 0.18171 0.943 0.57095 0.0
C444 C 0.1705 0.84203 0.55855 0.0
C445 C 0.18229 0.85041 0.5839 0.0
C446 C 0.15419 0.85705 0.54785 0.0
C447 C 0.14951 0.88054 0.56247 0.0
C448 C 0.15987 0.88795 0.58854 0.0
H449 H 0.06823 1.00715 0.5479 0.0
H450 H 0.0928 0.97454 0.5613 0.0
C451 C 0.17628 0.87311 0.59913 0.0
C452 C 0.13489 0.89813 0.55015 0.0
H453 H 0.14324 0.96271 0.53173 0.0
C454 C 0.1068 0.88806 0.54461 0.0
C455 C 0.14845 0.92511 0.54477 0.0
C456 C 0.17904 0.93652 0.5489 0.0
C457 C 0.09152 0.90478 0.53492 0.0
C458 C 0.10487 0.93201 0.53052 0.0
C459 C 0.13313 0.94181 0.53531 0.0
C460 C 0.08964 0.95114 0.52221 0.0
C461 C 0.06101 0.89362 0.53037 0.0
C462 C 0.08014 0.94881 0.49568 0.0
C463 C 0.06624 0.96749 0.48793 0.0
C464 C 0.0617 0.98862 0.50667 0.0
C465 C 0.07147 0.991 0.53311 0.0
C466 C 0.08542 0.97242 0.54079 0.0
H467 H 0.05287 0.87334 0.53853 0.0
H468 H 0.04854 0.90758 0.54034 0.0
H469 H 0.05801 0.89184 0.50798 0.0
H470 H 0.0836 0.93267 0.481 0.0
H471 H 0.05884 0.96527 0.46743 0.0
H472 H 0.73991 0.40492 0.83633 0.0
H473 H 0.78332 0.42776 0.85753 0.0
H474 H 0.74886 0.39649 0.93529 0.0
H475 H 0.70519 0.37437 0.91454 0.0
H476 H 0.7774 0.44725 0.94483 0.0
H477 H 0.84663 0.39764 0.87545 0.0
H478 H 0.82753 0.41563 0.8574 0.0
H479 H 0.80916 0.38671 0.87569 0.0
C480 C 0.74128 0.4029 0.85801 0.0
C481 C 0.71836 0.38717 0.87327 0.0
C482 C 0.76662 0.41585 0.8702 0.0
C483 C 0.77036 0.41373 0.89826 0.0
C484 C 0.74729 0.39859 0.91366 0.0
H485 H 0.93323 0.45136 0.97579 0.0
H486 H 0.88961 0.43026 0.95403 0.0
C487 C 0.72204 0.38557 0.90149 0.0
C488 C 0.79777 0.42737 0.91168 0.0
H489 H 0.86889 0.43346 0.90604 0.0
C490 C 0.79732 0.44414 0.93616 0.0
C491 C 0.82432 0.42344 0.90121 0.0
C492 C 0.82705 0.40468 0.87617 0.0
C493 C 0.82191 0.45702 0.94982 0.0
C494 C 0.84856 0.45373 0.9389 0.0
C495 C 0.84897 0.43662 0.91467 0.0
C496 C 0.87591 0.46721 0.9525 0.0
C497 C 0.81882 0.4735 0.97647 0.0
C498 C 0.88396 0.49543 0.95906 0.0
C499 C 0.9092 0.50768 0.97166 0.0
C500 C 0.92774 0.49234 0.97824 0.0
C501 C 0.91984 0.46416 0.9714 0.0
C502 C 0.89463 0.45193 0.95872 0.0
H503 H 0.79735 0.46759 0.98626 0.0
H504 H 0.83374 0.47117 0.99129 0.0
H505 H 0.82302 0.49518 0.97225 0.0
H506 H 0.87084 0.50826 0.9541 0.0
H507 H 0.91422 0.52938 0.97617 0.0
H508 H 0.79968 0.66753 0.4306 0.0
H509 H 0.75565 0.64547 0.45435 0.0
H510 H 0.71931 0.62136 0.37629 0.0
H511 H 0.76296 0.64416 0.3524 0.0
H512 H 0.68708 0.64639 0.41367 0.0
H513 H 0.71964 0.56528 0.46174 0.0
H514 H 0.74109 0.59856 0.4689 0.0
H515 H 0.74027 0.58375 0.43419 0.0
C516 C 0.78232 0.6575 0.41849 0.0
C517 C 0.78479 0.65763 0.38961 0.0
C518 C 0.7573 0.64461 0.43207 0.0
C519 C 0.73438 0.63145 0.41705 0.0
C520 C 0.73686 0.63122 0.38823 0.0
H521 H 0.56096 0.55677 0.4622 0.0
H522 H 0.60646 0.57215 0.43757 0.0
C523 C 0.76186 0.64412 0.37462 0.0
C524 C 0.70723 0.61956 0.43142 0.0
H525 H 0.67507 0.57284 0.47709 0.0
C526 C 0.68437 0.63015 0.42736 0.0
C527 C 0.70387 0.59849 0.44936 0.0
C528 C 0.72744 0.58565 0.45367 0.0
C529 C 0.65832 0.6206 0.44117 0.0
C530 C 0.65498 0.59962 0.45919 0.0
C531 C 0.67778 0.58894 0.46323 0.0
C532 C 0.62795 0.58875 0.4742 0.0
C533 C 0.63475 0.63349 0.4369 0.0
C534 C 0.62526 0.59228 0.50298 0.0
C535 C 0.59934 0.58342 0.5171 0.0
C536 C 0.57582 0.57081 0.50261 0.0
C537 C 0.57876 0.56656 0.47386 0.0
C538 C 0.60466 0.57542 0.45977 0.0
H539 H 0.64237 0.65324 0.42751 0.0
H540 H 0.62019 0.61988 0.4229 0.0
H541 H 0.62291 0.63667 0.45671 0.0
H542 H 0.64308 0.60243 0.51444 0.0
H543 H 0.59762 0.5868 0.53929 0.0
H544 H 0.26555 0.37014 0.21211 0.0
H545 H 0.23377 0.3904 0.18984 0.0
H546 H 0.25003 0.34699 0.11311 0.0
H547 H 0.28151 0.32636 0.13536 0.0
H548 H 0.24128 0.42195 0.14435 0.0
H549 H 0.16505 0.32356 0.12633 0.0
H550 H 0.19308 0.32783 0.14884 0.0
H551 H 0.19985 0.3244 0.11218 0.0
C552 C 0.26249 0.36511 0.19043 0.0
C553 C 0.27579 0.34655 0.17554 0.0
C554 C 0.24437 0.37669 0.17775 0.0
C555 C 0.23919 0.36985 0.14996 0.0
C556 C 0.25332 0.35212 0.13473 0.0
H557 H 0.14799 0.4473 0.04892 0.0
H558 H 0.18425 0.43169 0.06931 0.0
C559 C 0.27141 0.34046 0.14743 0.0
C560 C 0.21835 0.38066 0.13726 0.0
H561 H 0.15572 0.3616 0.10802 0.0
C562 C 0.22259 0.40879 0.13633 0.0
C563 C 0.1938 0.36343 0.12721 0.0
C564 C 0.18744 0.33314 0.12885 0.0
C565 C 0.20301 0.42014 0.12542 0.0
C566 C 0.17875 0.40287 0.11489 0.0
C567 C 0.17444 0.37477 0.11596 0.0
C568 C 0.1572 0.41346 0.10316 0.0
C569 C 0.20812 0.45052 0.1258 0.0
C570 C 0.1299 0.40815 0.11525 0.0
C571 C 0.10914 0.41704 0.10368 0.0
C572 C 0.11522 0.43131 0.07964 0.0
C573 C 0.14268 0.43676 0.06768 0.0
C574 C 0.16345 0.42784 0.07929 0.0
H575 H 0.22418 0.46085 0.14021 0.0
H576 H 0.21556 0.45715 0.10487 0.0
H577 H 0.18859 0.45715 0.13181 0.0
H578 H 0.12465 0.39706 0.13368 0.0
H579 H 0.08831 0.4128 0.11361 0.0
H580 H 0.59354 0.30819 0.86901 0.0
H581 H 0.57187 0.26552 0.89065 0.0
H582 H 0.65273 0.24903 0.89299 0.0
H583 H 0.67428 0.29137 0.87196 0.0
H584 H 0.56583 0.21301 0.87997 0.0
H585 H 0.62899 0.2359 0.9705 0.0
H586 H 0.62976 0.26091 0.94637 0.0
H587 H 0.65052 0.23633 0.93916 0.0
C588 C 0.60682 0.29551 0.87399 0.0
C589 C 0.63606 0.30421 0.86884 0.0
C590 C 0.59428 0.27084 0.88665 0.0
C591 C 0.61034 0.25364 0.8948 0.0
C592 C 0.63939 0.2618 0.88845 0.0
H593 H 0.57135 0.09359 0.97359 0.0
H594 H 0.59447 0.13525 0.95035 0.0
C595 C 0.65187 0.28638 0.87603 0.0
C596 C 0.59702 0.22728 0.9093 0.0
H597 H 0.60237 0.19054 0.96414 0.0
C598 C 0.57391 0.20842 0.89847 0.0
C599 C 0.60696 0.22026 0.93367 0.0
C600 C 0.63021 0.23952 0.94828 0.0
C601 C 0.56125 0.18342 0.91051 0.0
C602 C 0.57125 0.17639 0.93479 0.0
C603 C 0.5944 0.19516 0.94559 0.0
C604 C 0.55736 0.15045 0.94964 0.0
C605 C 0.53751 0.16433 0.89643 0.0
C606 C 0.52871 0.14446 0.95805 0.0
C607 C 0.51553 0.12069 0.97149 0.0
C608 C 0.53017 0.10143 0.9774 0.0
C609 C 0.55903 0.10749 0.9695 0.0
C610 C 0.57236 0.13158 0.95608 0.0
H611 H 0.5381 0.16804 0.87428 0.0
H612 H 0.53795 0.1429 0.89815 0.0
H613 H 0.51746 0.16754 0.90625 0.0
H614 H 0.51629 0.15843 0.95445 0.0
H615 H 0.49345 0.11738 0.97726 0.0
H616 H 0.86844 0.75938 0.34478 0.0
H617 H 0.88991 0.80474 0.36445 0.0
H618 H 0.88197 0.77378 0.44489 0.0
H619 H 0.86085 0.72841 0.42538 0.0
H620 H 0.86448 0.83463 0.40898 0.0
H621 H 0.96517 0.81591 0.43422 0.0
H622 H 0.94309 0.7944 0.40962 0.0
H623 H 0.93451 0.79158 0.44585 0.0
C624 C 0.87164 0.7622 0.36658 0.0
C625 C 0.86301 0.74037 0.38356 0.0
C626 C 0.88373 0.7881 0.37779 0.0
C627 C 0.8877 0.79248 0.40604 0.0
C628 C 0.87936 0.77071 0.42297 0.0
H629 H 0.95559 0.92796 0.51778 0.0
H630 H 0.93367 0.88398 0.49601 0.0
C631 C 0.86713 0.74488 0.41184 0.0
C632 C 0.89972 0.81997 0.41809 0.0
H633 H 0.95526 0.85744 0.45189 0.0
C634 C 0.88441 0.83976 0.41821 0.0
C635 C 0.92563 0.82641 0.43019 0.0
C636 C 0.94324 0.80607 0.42985 0.0
C637 C 0.89404 0.86575 0.4308 0.0
C638 C 0.91994 0.87219 0.44301 0.0
C639 C 0.93536 0.85242 0.4426 0.0
C640 C 0.93152 0.89926 0.45647 0.0
C641 C 0.876 0.88577 0.43161 0.0
C642 C 0.93746 0.92249 0.4415 0.0
C643 C 0.94982 0.94775 0.45394 0.0
C644 C 0.9568 0.95014 0.48149 0.0
C645 C 0.95052 0.92685 0.49652 0.0
C646 C 0.93802 0.90167 0.48411 0.0
H647 H 0.85392 0.87553 0.42829 0.0
H648 H 0.87681 0.89791 0.4516 0.0
H649 H 0.8837 0.89981 0.41501 0.0
H650 H 0.93318 0.92102 0.41998 0.0
H651 H 0.95462 0.96523 0.44171 0.0
H652 H 0.29168 0.82202 0.54846 0.0
H653 H 0.31339 0.7907 0.51836 0.0
H654 H 0.33086 0.75501 0.58981 0.0
H655 H 0.30908 0.78574 0.61974 0.0
H656 H 0.37004 0.78409 0.51936 0.0
H657 H 0.29081 0.68995 0.5396 0.0
H658 H 0.28353 0.72306 0.54545 0.0
H659 H 0.30009 0.70996 0.57088 0.0
C660 C 0.29997 0.80729 0.55762 0.0
C661 C 0.29877 0.80625 0.58639 0.0
C662 C 0.31237 0.78955 0.54046 0.0
C663 C 0.32326 0.77036 0.55193 0.0
C664 C 0.32211 0.76941 0.58061 0.0
H665 H 0.44784 0.69781 0.55061 0.0
H666 H 0.42062 0.72933 0.54117 0.0
C667 C 0.30995 0.78714 0.59767 0.0
C668 C 0.33705 0.75175 0.5346 0.0
H669 H 0.33843 0.68532 0.52959 0.0
C670 C 0.36284 0.76238 0.52074 0.0
C671 C 0.32722 0.72347 0.53566 0.0
C672 C 0.29872 0.71092 0.54845 0.0
C673 C 0.38053 0.74554 0.51085 0.0
C674 C 0.3723 0.71767 0.51558 0.0
C675 C 0.34507 0.70674 0.52632 0.0
C676 C 0.39269 0.70065 0.51492 0.0
C677 C 0.4084 0.758 0.4968 0.0
C678 C 0.38636 0.67402 0.50311 0.0
C679 C 0.40165 0.65576 0.509 0.0
C680 C 0.42355 0.66394 0.52669 0.0
C681 C 0.43122 0.69108 0.53671 0.0
C682 C 0.41578 0.70921 0.53108 0.0
H683 H 0.40664 0.77452 0.48413 0.0
H684 H 0.42339 0.76711 0.51259 0.0
H685 H 0.41687 0.74281 0.48342 0.0
H686 H 0.36856 0.66693 0.4907 0.0
H687 H 0.39559 0.63496 0.50076 0.0
H688 H 0.73547 0.85381 0.80321 0.0
H689 H 0.76978 0.87112 0.76633 0.0
H690 H 0.76291 0.79001 0.73013 0.0
H691 H 0.72773 0.77247 0.76663 0.0
H692 H 0.82053 0.85633 0.75676 0.0
H693 H 0.75926 0.83405 0.6638 0.0
H694 H 0.7431 0.8347 0.69829 0.0
H695 H 0.75627 0.80611 0.68484 0.0
C696 C 0.74065 0.83967 0.78704 0.0
C697 C 0.72877 0.81175 0.7878 0.0
C698 C 0.76043 0.8496 0.76608 0.0
C699 C 0.7687 0.83188 0.74542 0.0
C700 C 0.75649 0.80406 0.74568 0.0
H701 H 0.92675 0.87755 0.64792 0.0
H702 H 0.88702 0.85239 0.67583 0.0
C703 C 0.73663 0.79406 0.76668 0.0
C704 C 0.79174 0.84249 0.72505 0.0
H705 H 0.80803 0.8514 0.65665 0.0
C706 C 0.81784 0.85519 0.73485 0.0
C707 C 0.78803 0.84108 0.69655 0.0
C708 C 0.76013 0.82846 0.68513 0.0
C709 C 0.84036 0.86675 0.71697 0.0
C710 C 0.83681 0.86509 0.68841 0.0
C711 C 0.81072 0.85233 0.67853 0.0
C712 C 0.85963 0.87798 0.66885 0.0
C713 C 0.86752 0.88139 0.72891 0.0
C714 C 0.85696 0.89998 0.65484 0.0
C715 C 0.87955 0.91434 0.63888 0.0
C716 C 0.90521 0.90689 0.63662 0.0
C717 C 0.90739 0.88403 0.64966 0.0
C718 C 0.88474 0.86963 0.66554 0.0
H719 H 0.86491 0.88596 0.75146 0.0
H720 H 0.8827 0.86849 0.72517 0.0
H721 H 0.87651 0.90065 0.71896 0.0
H722 H 0.83774 0.90674 0.65717 0.0
H723 H 0.87726 0.93199 0.62932 0.0
H724 H 0.65287 0.17076 0.3912 0.0
H725 H 0.63226 0.15184 0.34789 0.0
H726 H 0.7144 0.15879 0.30803 0.0
H727 H 0.73524 0.17831 0.35094 0.0
H728 H 0.64329 0.1778 0.29558 0.0
H729 H 0.67144 0.07854 0.29052 0.0
H730 H 0.6704 0.09941 0.32215 0.0
H731 H 0.69947 0.10758 0.2973 0.0
C732 C 0.66656 0.16841 0.37318 0.0
C733 C 0.69571 0.176 0.37453 0.0
C734 C 0.65474 0.15746 0.34855 0.0
C735 C 0.67185 0.15365 0.32498 0.0
C736 C 0.70089 0.16114 0.3262 0.0
H737 H 0.65504 0.09936 0.15517 0.0
H738 H 0.67015 0.11476 0.20133 0.0
C739 C 0.71274 0.17222 0.35075 0.0
C740 C 0.65946 0.14277 0.29874 0.0
H741 H 0.65441 0.09005 0.25027 0.0
C742 C 0.64543 0.15851 0.28572 0.0
C743 C 0.66243 0.11765 0.28609 0.0
C744 C 0.67654 0.09964 0.29977 0.0
C745 C 0.6351 0.15018 0.25974 0.0
C746 C 0.63841 0.12519 0.24686 0.0
C747 C 0.65197 0.10922 0.2602 0.0
C748 C 0.62889 0.11567 0.2191 0.0
C749 C 0.62168 0.16866 0.2459 0.0
C750 C 0.60062 0.11077 0.21392 0.0
C751 C 0.59196 0.10228 0.18748 0.0
C752 C 0.6114 0.0983 0.16581 0.0
C753 C 0.63962 0.1027 0.17127 0.0
C754 C 0.64826 0.11129 0.19767 0.0
H755 H 0.62692 0.18967 0.25538 0.0
H756 H 0.62828 0.16913 0.22363 0.0
H757 H 0.59869 0.16107 0.24796 0.0
H758 H 0.58527 0.11355 0.23032 0.0
H759 H 0.5701 0.09926 0.18393 0.0
H760 H 0.4084 0.71051 0.30334 0.0
H761 H 0.42264 0.68688 0.33928 0.0
H762 H 0.39449 0.61093 0.29317 0.0
H763 H 0.37953 0.63467 0.2572 0.0
H764 H 0.39191 0.64458 0.37396 0.0
H765 H 0.4751 0.60862 0.31003 0.0
H766 H 0.46078 0.63549 0.30015 0.0
H767 H 0.44137 0.60098 0.29614 0.0
C768 C 0.40501 0.68871 0.30069 0.0
C769 C 0.39252 0.6749 0.27683 0.0
C770 C 0.41329 0.67504 0.32157 0.0
C771 C 0.41024 0.64672 0.31958 0.0
C772 C 0.39771 0.63271 0.29572 0.0
H773 H 0.47163 0.53658 0.42124 0.0
H774 H 0.45382 0.55771 0.3856 0.0
C775 C 0.38887 0.64642 0.27495 0.0
C776 C 0.42 0.63237 0.3424 0.0
H777 H 0.4669 0.59547 0.3555 0.0
C778 C 0.40832 0.63384 0.36974 0.0
C779 C 0.44138 0.61791 0.3378 0.0
C780 C 0.45565 0.61568 0.30955 0.0
C781 C 0.41661 0.6212 0.39172 0.0
C782 C 0.43862 0.60725 0.38737 0.0
C783 C 0.45023 0.60584 0.35988 0.0
C784 C 0.44957 0.59386 0.41044 0.0
C785 C 0.40046 0.62215 0.4192 0.0
C786 C 0.45404 0.60631 0.43734 0.0
C787 C 0.46375 0.59367 0.45829 0.0
C788 C 0.47049 0.56819 0.45341 0.0
C789 C 0.46681 0.55604 0.4264 0.0
C790 C 0.45655 0.56842 0.40562 0.0
H791 H 0.37903 0.62432 0.4168 0.0
H792 H 0.39881 0.60361 0.43019 0.0
H793 H 0.41105 0.64003 0.43208 0.0
H794 H 0.45047 0.62626 0.44233 0.0
H795 H 0.46646 0.60428 0.47838 0.0
H796 H 0.1171 0.42077 0.7438 0.0
H797 H 0.09624 0.446 0.78108 0.0
H798 H 0.15322 0.43092 0.83672 0.0
H799 H 0.17534 0.40742 0.79891 0.0
H800 H 0.06897 0.4331 0.82581 0.0
H801 H 0.16409 0.50905 0.85405 0.0
H802 H 0.1637 0.48621 0.82386 0.0
H803 H 0.16831 0.47561 0.85711 0.0
C804 C 0.12523 0.42304 0.76398 0.0
C805 C 0.14787 0.41234 0.76858 0.0
C806 C 0.11332 0.43745 0.78529 0.0
C807 C 0.12351 0.44098 0.8117 0.0
C808 C 0.14562 0.42947 0.81639 0.0
H809 H 0.02364 0.48142 0.95695 0.0
H810 H 0.04609 0.45864 0.919 0.0
C811 C 0.15806 0.41577 0.79488 0.0
C812 C 0.11039 0.45591 0.83442 0.0
H813 H 0.1249 0.5046 0.88692 0.0
C814 C 0.08123 0.44895 0.83897 0.0
C815 C 0.12619 0.47701 0.85135 0.0
C816 C 0.15725 0.4876 0.84613 0.0
C817 C 0.06751 0.46213 0.86009 0.0
C818 C 0.08347 0.48191 0.87821 0.0
C819 C 0.11259 0.48917 0.87339 0.0
C820 C 0.07049 0.49561 0.90203 0.0
C821 C 0.03603 0.45515 0.86209 0.0
C822 C 0.07776 0.52397 0.90619 0.0
C823 C 0.06593 0.53695 0.92871 0.0
C824 C 0.04626 0.52185 0.94726 0.0
C825 C 0.03895 0.49355 0.94313 0.0
C826 C 0.0514 0.48053 0.92109 0.0
H827 H 0.0276 0.44756 0.84179 0.0
H828 H 0.02823 0.4388 0.87639 0.0
H829 H 0.0277 0.4729 0.86976 0.0
H830 H 0.09249 0.53613 0.89189 0.0
H831 H 0.07188 0.55882 0.93136 0.0
H832 H 0.66505 0.82217 0.90202 0.0
H833 H 0.63712 0.85335 0.92205 0.0
H834 H 0.61164 0.86154 0.84167 0.0
H835 H 0.63868 0.82968 0.82149 0.0
H836 H 0.63968 0.91238 0.87637 0.0
H837 H 0.54771 0.84415 0.92752 0.0
H838 H 0.58157 0.83813 0.9311 0.0
H839 H 0.56738 0.83283 0.89797 0.0
C840 C 0.65293 0.82999 0.88866 0.0
C841 C 0.65427 0.82351 0.86009 0.0
C842 C 0.63711 0.84792 0.90014 0.0
C843 C 0.62241 0.85968 0.88329 0.0
C844 C 0.62292 0.85265 0.85496 0.0
H845 H 0.51108 0.96498 0.93981 0.0
H846 H 0.53239 0.93124 0.91376 0.0
C847 C 0.63852 0.83458 0.84349 0.0
C848 C 0.60824 0.88086 0.89492 0.0
H849 H 0.55247 0.89126 0.93645 0.0
C850 C 0.62053 0.90782 0.88938 0.0
C851 C 0.58318 0.87469 0.91162 0.0
C852 C 0.56894 0.84589 0.9174 0.0
C853 C 0.60872 0.92897 0.90073 0.0
C854 C 0.5841 0.92293 0.91822 0.0
C855 C 0.57139 0.89584 0.92311 0.0
C856 C 0.57185 0.9445 0.93255 0.0
C857 C 0.62268 0.95757 0.89388 0.0
C858 C 0.58704 0.96322 0.95162 0.0
C859 C 0.57501 0.98254 0.96646 0.0
C860 C 0.54741 0.98344 0.96269 0.0
C861 C 0.5324 0.96497 0.94316 0.0
C862 C 0.54449 0.9456 0.92832 0.0
H863 H 0.63631 0.95806 0.87461 0.0
H864 H 0.60704 0.96942 0.89163 0.0
H865 H 0.63589 0.96761 0.9108 0.0
H866 H 0.608 0.96242 0.95558 0.0
H867 H 0.58715 0.9963 0.98143 0.0
H868 H 0.81975 0.21447 0.50292 0.0
H869 H 0.85506 0.19272 0.51696 0.0
H870 H 0.83958 0.13451 0.44747 0.0
H871 H 0.80442 0.1559 0.43342 0.0
H872 H 0.84173 0.1352 0.52812 0.0
H873 H 0.92647 0.16224 0.44626 0.0
H874 H 0.90035 0.18145 0.45463 0.0
H875 H 0.89204 0.14994 0.43429 0.0
C876 C 0.82418 0.19722 0.49053 0.0
C877 C 0.80933 0.18677 0.46725 0.0
C878 C 0.84428 0.1849 0.49852 0.0
C879 C 0.85002 0.16228 0.48302 0.0
C880 C 0.83568 0.15223 0.45939 0.0
H881 H 0.94014 0.04031 0.48945 0.0
H882 H 0.91324 0.07171 0.4777 0.0
C883 C 0.81546 0.16436 0.45154 0.0
C884 C 0.86919 0.14759 0.49265 0.0
H885 H 0.92881 0.12674 0.47399 0.0
C886 C 0.861 0.13361 0.51659 0.0
C887 C 0.89407 0.14551 0.47729 0.0
C888 C 0.90397 0.16074 0.45179 0.0
C889 C 0.87654 0.11654 0.52503 0.0
C890 C 0.90126 0.11407 0.50942 0.0
C891 C 0.90982 0.12868 0.48587 0.0
C892 C 0.91791 0.09555 0.51654 0.0
C893 C 0.86565 0.10041 0.54982 0.0
C894 C 0.92962 0.09879 0.54213 0.0
C895 C 0.94463 0.08071 0.54898 0.0
C896 C 0.94851 0.05944 0.53014 0.0
C897 C 0.93728 0.05652 0.50434 0.0
C898 C 0.92205 0.07445 0.4976 0.0
H899 H 0.84318 0.09938 0.55508 0.0
H900 H 0.86852 0.07946 0.54628 0.0
H901 H 0.87733 0.11023 0.56783 0.0
H902 H 0.9272 0.11533 0.55676 0.0
H903 H 0.95344 0.08354 0.56887 0.0
H904 H 0.279 0.71405 0.15969 0.0
H905 H 0.23653 0.69135 0.13724 0.0
H906 H 0.25502 0.61423 0.14449 0.0
H907 H 0.29771 0.63684 0.16696 0.0
H908 H 0.22522 0.66229 0.09067 0.0
H909 H 0.1756 0.59434 0.17226 0.0
H910 H 0.20617 0.62128 0.17765 0.0
H911 H 0.20934 0.58962 0.16009 0.0
C912 C 0.27438 0.69223 0.15652 0.0
C913 C 0.29262 0.67768 0.16554 0.0
C914 C 0.24962 0.67908 0.14359 0.0
C915 C 0.24152 0.65064 0.13915 0.0
C916 C 0.25968 0.63601 0.14805 0.0
H917 H 0.09844 0.53614 0.06019 0.0
H918 H 0.14149 0.55758 0.08276 0.0
C919 C 0.28449 0.64916 0.16105 0.0
C920 C 0.21475 0.63676 0.1247 0.0
H921 H 0.1541 0.58647 0.12975 0.0
C922 C 0.20972 0.64581 0.09948 0.0
C923 C 0.19389 0.61496 0.1355 0.0
C924 C 0.1963 0.60461 0.16297 0.0
C925 C 0.18549 0.63379 0.08493 0.0
C926 C 0.16455 0.61209 0.09579 0.0
C927 C 0.16963 0.60293 0.12095 0.0
C928 C 0.13753 0.59875 0.08154 0.0
C929 C 0.18315 0.6441 0.05741 0.0
C930 C 0.11977 0.61407 0.07318 0.0
C931 C 0.09491 0.60169 0.06001 0.0
C932 C 0.08639 0.57332 0.0547 0.0
C933 C 0.10394 0.55795 0.06344 0.0
C934 C 0.12882 0.57035 0.07661 0.0
H935 H 0.20393 0.65398 0.04799 0.0
H936 H 0.17293 0.6275 0.04285 0.0
H937 H 0.17051 0.65944 0.06029 0.0
H938 H 0.12488 0.63581 0.07716 0.0
H939 H 0.08221 0.61453 0.0541 0.0
H940 H 0.24192 0.40559 0.68783 0.0
H941 H 0.2856 0.43032 0.66534 0.0
H942 H 0.25166 0.40706 0.58606 0.0
H943 H 0.20767 0.38312 0.60838 0.0
H944 H 0.32055 0.40883 0.62776 0.0
H945 H 0.28333 0.48817 0.58167 0.0
H946 H 0.26312 0.46793 0.60823 0.0
H947 H 0.26369 0.45446 0.57304 0.0
C948 C 0.24359 0.40615 0.66564 0.0
C949 C 0.22131 0.39241 0.64989 0.0
C950 C 0.26859 0.42016 0.65283 0.0
C951 C 0.27171 0.42085 0.62407 0.0
C952 C 0.24951 0.40725 0.60831 0.0
H953 H 0.40677 0.47309 0.5027 0.0
H954 H 0.36196 0.45547 0.52788 0.0
C955 C 0.22451 0.39327 0.62109 0.0
C956 C 0.2987 0.43448 0.61043 0.0
H957 H 0.32873 0.48295 0.56582 0.0
C958 C 0.32242 0.42523 0.61444 0.0
C959 C 0.30101 0.4558 0.593 0.0
C960 C 0.27649 0.46738 0.58889 0.0
C961 C 0.34829 0.43622 0.60089 0.0
C962 C 0.35051 0.45729 0.5832 0.0
C963 C 0.32688 0.46676 0.57939 0.0
C964 C 0.37716 0.46934 0.56806 0.0
C965 C 0.37284 0.42466 0.60496 0.0
C966 C 0.40029 0.48347 0.58233 0.0
C967 C 0.42584 0.4935 0.56803 0.0
C968 C 0.4286 0.48962 0.53923 0.0
C969 C 0.40521 0.47622 0.52491 0.0
C970 C 0.37964 0.46621 0.53924 0.0
H971 H 0.36626 0.40477 0.61423 0.0
H972 H 0.38485 0.42214 0.5851 0.0
H973 H 0.38695 0.43879 0.61898 0.0
H974 H 0.39864 0.48647 0.60456 0.0
H975 H 0.44353 0.50389 0.57956 0.0
H976 H 0.73565 0.68611 0.82991 0.0
H977 H 0.76839 0.6665 0.85164 0.0
H978 H 0.76526 0.72139 0.92317 0.0
H979 H 0.73232 0.74093 0.90171 0.0
H980 H 0.82184 0.71858 0.89514 0.0
H981 H 0.75293 0.61961 0.92265 0.0
H982 H 0.75059 0.63056 0.88902 0.0
H983 H 0.73961 0.64901 0.91898 0.0
C984 C 0.74166 0.69371 0.85044 0.0
C985 C 0.7314 0.71494 0.86415 0.0
C986 C 0.7603 0.6825 0.8628 0.0
C987 C 0.76905 0.69243 0.88903 0.0
C988 C 0.75859 0.71341 0.90295 0.0
H989 H 0.86935 0.62936 0.99279 0.0
H990 H 0.83279 0.64566 0.97367 0.0
C991 C 0.73976 0.72449 0.89068 0.0
C992 C 0.79033 0.68191 0.90121 0.0
H993 H 0.801 0.62631 0.92882 0.0
C994 C 0.81733 0.69845 0.9026 0.0
C995 C 0.78422 0.65574 0.91102 0.0
C996 C 0.75525 0.63762 0.91059 0.0
C997 C 0.83861 0.68934 0.91327 0.0
C998 C 0.83272 0.66286 0.9225 0.0
C999 C 0.80553 0.6465 0.92153 0.0
C1000 C 0.85445 0.65197 0.93358 0.0
C1001 C 0.86709 0.70831 0.91491 0.0
C1002 C 0.87849 0.64956 0.91721 0.0
C1003 C 0.89943 0.64032 0.9281 0.0
C1004 C 0.89657 0.63299 0.95548 0.0
C1005 C 0.87208 0.63465 0.97157 0.0
C1006 C 0.85122 0.64405 0.96071 0.0
H1007 H 0.86623 0.72975 0.91388 0.0
H1008 H 0.87655 0.70635 0.93421 0.0
H1009 H 0.88094 0.70322 0.89728 0.0
H1010 H 0.88111 0.65491 0.89601 0.0
H1011 H 0.91784 0.63882 0.91505 0.0
H1012 H 0.36291 0.74866 0.12761 0.0
H1013 H 0.38419 0.79214 0.10896 0.0
H1014 H 0.41838 0.82213 0.18669 0.0
H1015 H 0.39605 0.77856 0.20615 0.0
H1016 H 0.37722 0.84431 0.12284 0.0
H1017 H 0.48745 0.8444 0.13419 0.0
H1018 H 0.45962 0.81433 0.13746 0.0
H1019 H 0.46539 0.83988 0.16536 0.0
C1020 C 0.37446 0.76436 0.1413 0.0
C1021 C 0.37681 0.75927 0.16906 0.0
C1022 C 0.38705 0.78961 0.13023 0.0
C1023 C 0.40335 0.8112 0.14595 0.0
C1024 C 0.40641 0.80619 0.17351 0.0
H1025 H 0.50382 0.97549 0.10764 0.0
H1026 H 0.48084 0.93289 0.12778 0.0
C1027 C 0.39348 0.78088 0.18478 0.0
C1028 C 0.41651 0.83857 0.13342 0.0
H1029 H 0.479 0.88389 0.11844 0.0
C1030 C 0.39953 0.85284 0.12193 0.0
C1031 C 0.44568 0.85049 0.13187 0.0
C1032 C 0.46573 0.83648 0.14263 0.0
C1033 C 0.41041 0.87821 0.10995 0.0
C1034 C 0.43971 0.89003 0.10799 0.0
C1035 C 0.45665 0.87561 0.11947 0.0
C1036 C 0.4532 0.91732 0.09509 0.0
C1037 C 0.38989 0.8925 0.10054 0.0
C1038 C 0.44608 0.92419 0.06946 0.0
C1039 C 0.45912 0.94936 0.05794 0.0
C1040 C 0.48034 0.96862 0.07122 0.0
C1041 C 0.48759 0.96162 0.09657 0.0
C1042 C 0.47437 0.93679 0.1082 0.0
H1043 H 0.36904 0.88599 0.11148 0.0
H1044 H 0.39711 0.91479 0.10399 0.0
H1045 H 0.38733 0.88734 0.07826 0.0
H1046 H 0.43077 0.90984 0.05781 0.0
H1047 H 0.45305 0.95339 0.03824 0.0
H1048 H 0.14809 0.32072 0.6099 0.0
H1049 H 0.12841 0.2751 0.59007 0.0
H1050 H 0.11595 0.24493 0.67114 0.0
H1051 H 0.13532 0.29053 0.69111 0.0
H1052 H 0.1476 0.2296 0.59198 0.0
H1053 H 0.04029 0.21387 0.64102 0.0
H1054 H 0.0643 0.2467 0.641 0.0
H1055 H 0.06693 0.22286 0.66515 0.0
C1056 C 0.14102 0.30436 0.62349 0.0
C1057 C 0.14312 0.30919 0.65207 0.0
C1058 C 0.12975 0.27834 0.61216 0.0
C1059 C 0.12037 0.25668 0.62916 0.0
C1060 C 0.12242 0.26145 0.6577 0.0
H1061 H 0.05479 0.08371 0.5948 0.0
H1062 H 0.07644 0.1282 0.61611 0.0
C1063 C 0.13351 0.2875 0.66908 0.0
C1064 C 0.10947 0.22895 0.61685 0.0
H1065 H 0.05253 0.17551 0.61714 0.0
C1066 C 0.12678 0.21781 0.59741 0.0
C1067 C 0.08231 0.21359 0.62401 0.0
C1068 C 0.06226 0.22492 0.64373 0.0
C1069 C 0.11772 0.19164 0.58508 0.0
C1070 C 0.09063 0.17633 0.59228 0.0
C1071 C 0.07338 0.18732 0.61184 0.0
C1072 C 0.07934 0.14922 0.57897 0.0
C1073 C 0.13725 0.18042 0.56463 0.0
C1074 C 0.07396 0.14641 0.55103 0.0
C1075 C 0.06151 0.12112 0.53883 0.0
C1076 C 0.05426 0.09816 0.55437 0.0
C1077 C 0.06027 0.10096 0.58223 0.0
C1078 C 0.07254 0.12634 0.59447 0.0
H1079 H 0.1592 0.19216 0.56591 0.0
H1080 H 0.1361 0.15893 0.56802 0.0
H1081 H 0.13102 0.1813 0.5435 0.0
H1082 H 0.07875 0.16392 0.53884 0.0
H1083 H 0.05717 0.11968 0.51733 0.0
H1084 H 0.69896 0.2643 0.42495 0.0
H1085 H 0.6771 0.29699 0.45192 0.0
H1086 H 0.66979 0.25117 0.52355 0.0
H1087 H 0.69207 0.21832 0.4965 0.0
H1088 H 0.61863 0.26356 0.50719 0.0
H1089 H 0.70594 0.35425 0.51607 0.0
H1090 H 0.70509 0.33758 0.48219 0.0
H1091 H 0.71111 0.32026 0.51084 0.0
C1092 C 0.69292 0.26137 0.4465 0.0
C1093 C 0.69701 0.23886 0.45871 0.0
C1094 C 0.68073 0.28013 0.46194 0.0
C1095 C 0.67229 0.27663 0.48977 0.0
C1096 C 0.67656 0.25431 0.50217 0.0
H1097 H 0.5901 0.40859 0.5415 0.0
H1098 H 0.61441 0.37408 0.55078 0.0
C1099 C 0.68919 0.23565 0.48677 0.0
C1100 C 0.65644 0.29504 0.50448 0.0
H1101 H 0.65974 0.36249 0.51462 0.0
C1102 C 0.62768 0.28513 0.50981 0.0
C1103 C 0.66839 0.32305 0.5083 0.0
C1104 C 0.69941 0.33441 0.50432 0.0
C1105 C 0.61013 0.30292 0.5157 0.0
C1106 C 0.62179 0.33108 0.51605 0.0
C1107 C 0.65084 0.34084 0.51403 0.0
C1108 C 0.6045 0.3502 0.5127 0.0
C1109 C 0.57911 0.29153 0.51947 0.0
C1110 C 0.59115 0.34817 0.48817 0.0
C1111 C 0.57788 0.36799 0.48251 0.0
C1112 C 0.57756 0.39027 0.50136 0.0
C1113 C 0.5903 0.39187 0.52637 0.0
C1114 C 0.60392 0.37209 0.53187 0.0
H1115 H 0.57429 0.27119 0.52777 0.0
H1116 H 0.56905 0.30512 0.53353 0.0
H1117 H 0.56993 0.28937 0.49921 0.0
H1118 H 0.59206 0.33179 0.47278 0.0
H1119 H 0.56887 0.36636 0.46282 0.0
loop_
_geom_bond_atom_site_label_1
_geom_bond_atom_site_label_2
_geom_bond_distance
_geom_bond_site_symmetry_2
_ccdc_geom_bond_type
H0 C5 0.930 . S
H1 C8 0.930 . S
H2 C10 0.930 . S
H3 C4 1.016 . S
C4 H3 1.016 . S
C4 N11 1.286 . S
C5 H0 0.930 . S
C5 C6 1.397 . S
C5 C7 1.361 . S
C6 C5 1.397 . S
C6 C10 1.390 . S
C7 C5 1.361 . S
C7 C8 1.393 . S
C7 N11 1.413 . S
C8 H1 0.930 . S
C8 C7 1.393 . S
C8 C9 1.399 . S
C9 C8 1.399 . S
C9 C10 1.381 . S
C10 H2 0.930 . S
C10 C6 1.390 . S
C10 C9 1.381 . S
N11 C4 1.286 . S
N11 C7 1.413 . S
H12 C17 0.930 . S
H13 C20 0.930 . S
H14 C22 0.930 . S
H15 C16 1.016 . S
C16 H15 1.016 . S
C16 N23 1.286 . S
C17 H12 0.930 . S
C17 C18 1.397 . S
C17 C19 1.361 . S
C18 C17 1.397 . S
C18 C22 1.390 . S
C19 C17 1.361 . S
C19 C20 1.393 . S
C19 N23 1.413 . S
C20 H13 0.930 . S
C20 C19 1.393 . S
C20 C21 1.399 . S
C21 C20 1.399 . S
C21 C22 1.381 . S
C22 H14 0.930 . S
C22 C18 1.390 . S
C22 C21 1.381 . S
N23 C16 1.286 . S
N23 C19 1.413 . S
H24 C29 0.930 . S
H25 C32 0.930 . S
H26 C34 0.930 . S
H27 C28 1.016 . S
C28 H27 1.016 . S
C28 N35 1.286 . S
C29 H24 0.930 . S
C29 C30 1.397 . S
C29 C31 1.361 . S
C30 C29 1.397 . S
C30 C34 1.390 . S
C31 C29 1.361 . S
C31 C32 1.393 . S
C31 N35 1.413 . S
C32 H25 0.930 . S
C32 C31 1.393 . S
C32 C33 1.399 . S
C33 C32 1.399 . S
C33 C34 1.381 . S
C34 H26 0.930 . S
C34 C30 1.390 . S
C34 C33 1.381 . S
N35 C28 1.286 . S
N35 C31 1.413 . S
H36 C41 0.930 . S
H37 C44 0.930 . S
H38 C46 0.930 . S
H39 C40 1.016 . S
C40 H39 1.016 . S
C40 N47 1.286 . S
C41 H36 0.930 . S
C41 C42 1.397 . S
C41 C43 1.361 . S
C42 C41 1.397 . S
C42 C46 1.390 . S
C43 C41 1.361 . S
C43 C44 1.393 . S
C43 N47 1.413 . S
C44 H37 0.930 . S
C44 C43 1.393 . S
C44 C45 1.399 . S
C45 C44 1.399 . S
C45 C46 1.381 . S
C46 H38 0.930 . S
C46 C42 1.390 . S
C46 C45 1.381 . S
N47 C40 1.286 . S
N47 C43 1.413 . S
H48 C53 0.930 . S
H49 C56 0.930 . S
H50 C58 0.930 . S
H51 C52 1.016 . S
C52 H51 1.016 . S
C52 N59 1.286 . S
C53 H48 0.930 . S
C53 C54 1.397 . S
C53 C55 1.361 . S
C54 C53 1.397 . S
C54 C58 1.390 . S
C55 C53 1.361 . S
C55 C56 1.393 . S
C55 N59 1.413 . S
C56 H49 0.930 . S
C56 C55 1.393 . S
C56 C57 1.399 . S
C57 C56 1.399 . S
C57 C58 1.381 . S
C58 H50 0.930 . S
C58 C54 1.390 . S
C58 C57 1.381 . S
N59 C52 1.286 . S
N59 C55 1.413 . S
H60 C65 0.930 . S
H61 C68 0.930 . S
H62 C70 0.930 . S
H63 C64 1.016 . S
C64 H63 1.016 . S
C64 N71 1.286 . S
C65 H60 0.930 . S
C65 C66 1.397 . S
C65 C67 1.361 . S
C66 C65 1.397 . S
C66 C70 1.390 . S
C67 C65 1.361 . S
C67 C68 1.393 . S
C67 N71 1.413 . S
C68 H61 0.930 . S
C68 C67 1.393 . S
C68 C69 1.399 . S
C69 C68 1.399 . S
C69 C70 1.381 . S
C70 H62 0.930 . S
C70 C66 1.390 . S
C70 C69 1.381 . S
N71 C64 1.286 . S
N71 C67 1.413 . S
H72 C77 0.930 . S
H73 C80 0.930 . S
H74 C82 0.930 . S
H75 C76 1.016 . S
C76 H75 1.016 . S
C76 N83 1.286 . S
C77 H72 0.930 . S
C77 C78 1.397 . S
C77 C79 1.361 . S
C78 C77 1.397 . S
C78 C82 1.390 . S
C79 C77 1.361 . S
C79 C80 1.393 . S
C79 N83 1.413 . S
C80 H73 0.930 . S
C80 C79 1.393 . S
C80 C81 1.399 . S
C81 C80 1.399 . S
C81 C82 1.381 . S
C82 H74 0.930 . S
C82 C78 1.390 . S
C82 C81 1.381 . S
N83 C76 1.286 . S
N83 C79 1.413 . S
H84 C89 0.930 . S
H85 C92 0.930 . S
H86 C94 0.930 . S
H87 C88 1.016 . S
C88 H87 1.016 . S
C88 N95 1.286 . S
C89 H84 0.930 . S
C89 C90 1.397 . S
C89 C91 1.361 . S
C90 C89 1.397 . S
C90 C94 1.390 . S
C91 C89 1.361 . S
C91 C92 1.393 . S
C91 N95 1.413 . S
C92 H85 0.930 . S
C92 C91 1.393 . S
C92 C93 1.399 . S
C93 C92 1.399 . S
C93 C94 1.381 . S
C94 H86 0.930 . S
C94 C90 1.390 . S
C94 C93 1.381 . S
N95 C88 1.286 . S
N95 C91 1.413 . S
Ho96 C99 2.811 . S
Ho96 O116 2.322 . S
Ho96 O118 2.378 . S
Ho96 O119 2.524 . S
Ho96 O120 2.381 1_545 S
Ho96 O121 2.669 1_545 S
Ho96 O123 2.346 1_445 S
Ho96 O127 2.305 1_455 S
Ho97 C108 2.811 . S
Ho97 O117 2.346 1_665 S
Ho97 O121 2.305 1_655 S
Ho97 O122 2.322 . S
Ho97 O124 2.378 . S
Ho97 O125 2.524 . S
Ho97 O126 2.381 1_565 S
Ho97 O127 2.669 1_565 S
C98 O116 1.259 . S
C98 O117 1.268 . S
C99 Ho96 2.811 . S
C99 C100 1.488 . S
C99 O118 1.215 . S
C99 O119 1.289 . S
C100 C99 1.488 . S
C100 C101 1.348 . S
C100 C105 1.413 . S
C101 C100 1.348 . S
C101 C102 1.442 . S
C101 H128 0.930 . S
C102 C101 1.442 . S
C102 C103 1.381 . S
C102 H129 0.931 . S
C103 C102 1.381 . S
C103 C104 1.321 . S
C104 C103 1.321 . S
C104 C105 1.403 . S
C104 H130 0.934 . S
C105 C100 1.413 . S
C105 C104 1.403 . S
C105 H131 0.930 . S
C106 O120 1.275 . S
C106 O121 1.256 . S
C107 O122 1.259 . S
C107 O123 1.268 . S
C108 Ho97 2.811 . S
C108 C109 1.488 . S
C108 O124 1.215 . S
C108 O125 1.289 . S
C109 C108 1.488 . S
C109 C110 1.348 . S
C109 C114 1.413 . S
C110 C109 1.348 . S
C110 C111 1.442 . S
C110 H132 0.930 . S
C111 C110 1.442 . S
C111 C112 1.381 . S
C111 H133 0.931 . S
C112 C111 1.381 . S
C112 C113 1.321 . S
C113 C112 1.321 . S
C113 C114 1.403 . S
C113 H134 0.934 . S
C114 C109 1.413 . S
C114 C113 1.403 . S
C114 H135 0.930 . S
C115 O126 1.275 . S
C115 O127 1.256 . S
O116 Ho96 2.322 . S
O116 C98 1.259 . S
O117 Ho97 2.346 1_445 S
O117 C98 1.268 . S
O118 Ho96 2.378 . S
O118 C99 1.215 . S
O119 Ho96 2.524 . S
O119 C99 1.289 . S
O120 Ho96 2.381 1_565 S
O120 C106 1.275 . S
O121 Ho96 2.669 1_565 S
O121 Ho97 2.305 1_455 S
O121 C106 1.256 . S
O122 Ho97 2.322 . S
O122 C107 1.259 . S
O123 Ho96 2.346 1_665 S
O123 C107 1.268 . S
O124 Ho97 2.378 . S
O124 C108 1.215 . S
O125 Ho97 2.524 . S
O125 C108 1.289 . S
O126 Ho97 2.381 1_545 S
O126 C115 1.275 . S
O127 Ho96 2.305 1_655 S
O127 Ho97 2.669 1_545 S
O127 C115 1.256 . S
H128 C101 0.930 . S
H129 C102 0.931 . S
H130 C104 0.934 . S
H131 C105 0.930 . S
H132 C110 0.930 . S
H133 C111 0.931 . S
H134 C113 0.934 . S
H135 C114 0.930 . S
Ho136 C139 2.811 . S
Ho136 O156 2.322 . S
Ho136 O158 2.378 . S
Ho136 O159 2.524 . S
Ho136 O160 2.381 1_545 S
Ho136 O161 2.669 1_545 S
Ho136 O163 2.346 1_544 S
Ho136 O167 2.303 1_554 S
Ho137 C148 2.811 1_545 S
Ho137 O157 2.346 1_556 S
Ho137 O161 2.305 1_546 S
Ho137 O162 2.322 1_545 S
Ho137 O164 2.378 1_545 S
Ho137 O165 2.524 1_545 S
Ho137 O166 2.381 . S
Ho137 O167 2.670 . S
C138 O156 1.259 . S
C138 O157 1.268 . S
C139 Ho136 2.811 . S
C139 C140 1.488 . S
C139 O158 1.215 . S
C139 O159 1.289 . S
C140 C139 1.488 . S
C140 C141 1.348 . S
C140 C145 1.413 . S
C141 C140 1.348 . S
C141 C142 1.442 . S
C141 H168 0.930 . S
C142 C141 1.442 . S
C142 C143 1.381 . S
C142 H169 0.931 . S
C143 C142 1.381 . S
C143 C144 1.321 . S
C144 C143 1.321 . S
C144 C145 1.403 . S
C144 H170 0.934 . S
C145 C140 1.413 . S
C145 C144 1.403 . S
C145 H171 0.930 . S
C146 O160 1.275 . S
C146 O161 1.256 . S
C147 O162 1.259 . S
C147 O163 1.268 . S
C148 Ho137 2.811 1_565 S
C148 C149 1.488 . S
C148 O164 1.215 . S
C148 O165 1.289 . S
C149 C148 1.488 . S
C149 C150 1.348 . S
C149 C154 1.413 . S
C150 C149 1.348 . S
C150 C151 1.442 . S
C150 H172 0.930 . S
C151 C150 1.442 . S
C151 C152 1.381 . S
C151 H173 0.931 . S
C152 C151 1.381 . S
C152 C153 1.321 . S
C153 C152 1.321 . S
C153 C154 1.403 . S
C153 H174 0.934 . S
C154 C149 1.413 . S
C154 C153 1.403 . S
C154 H175 0.930 . S
C155 O166 1.275 . S
C155 O167 1.258 . S
O156 Ho136 2.322 . S
O156 C138 1.259 . S
O157 Ho137 2.346 1_554 S
O157 C138 1.268 . S
O158 Ho136 2.378 . S
O158 C139 1.215 . S
O159 Ho136 2.524 . S
O159 C139 1.289 . S
O160 Ho136 2.381 1_565 S
O160 C146 1.275 . S
O161 Ho136 2.669 1_565 S
O161 Ho137 2.305 1_564 S
O161 C146 1.256 . S
O162 Ho137 2.322 1_565 S
O162 C147 1.259 . S
O163 Ho136 2.346 1_566 S
O163 C147 1.268 . S
O164 Ho137 2.378 1_565 S
O164 C148 1.215 . S
O165 Ho137 2.524 1_565 S
O165 C148 1.289 . S
O166 Ho137 2.381 . S
O166 C155 1.275 . S
O167 Ho136 2.303 1_556 S
O167 Ho137 2.670 . S
O167 C155 1.258 . S
H168 C141 0.930 . S
H169 C142 0.931 . S
H170 C144 0.934 . S
H171 C145 0.930 . S
H172 C150 0.930 . S
H173 C151 0.931 . S
H174 C153 0.934 . S
H175 C154 0.930 . S
Ho176 C179 2.811 . S
Ho176 O196 2.322 . S
Ho176 O198 2.378 . S
Ho176 O199 2.524 . S
Ho176 O200 2.381 . S
Ho176 O201 2.669 . S
Ho176 O203 2.346 . S
Ho176 O207 2.305 . S
Ho177 C188 2.811 . S
Ho177 O197 2.346 . S
Ho177 O201 2.305 . S
Ho177 O202 2.322 . S
Ho177 O204 2.378 . S
Ho177 O205 2.524 . S
Ho177 O206 2.381 . S
Ho177 O207 2.669 . S
C178 O196 1.259 . S
C178 O197 1.268 . S
C179 Ho176 2.811 . S
C179 C180 1.488 . S
C179 O198 1.215 . S
C179 O199 1.289 . S
C180 C179 1.488 . S
C180 C181 1.348 . S
C180 C185 1.413 . S
C181 C180 1.348 . S
C181 C182 1.442 . S
C181 H208 0.930 . S
C182 C181 1.442 . S
C182 C183 1.381 . S
C182 H209 0.931 . S
C183 C182 1.381 . S
C183 C184 1.321 . S
C184 C183 1.321 . S
C184 C185 1.403 . S
C184 H210 0.934 . S
C185 C180 1.413 . S
C185 C184 1.403 . S
C185 H211 0.930 . S
C186 O200 1.275 . S
C186 O201 1.256 . S
C187 O202 1.259 . S
C187 O203 1.268 . S
C188 Ho177 2.811 . S
C188 C189 1.488 . S
C188 O204 1.215 . S
C188 O205 1.289 . S
C189 C188 1.488 . S
C189 C190 1.348 . S
C189 C194 1.413 . S
C190 C189 1.348 . S
C190 C191 1.442 . S
C190 H212 0.930 . S
C191 C190 1.442 . S
C191 C192 1.381 . S
C191 H213 0.931 . S
C192 C191 1.381 . S
C192 C193 1.321 . S
C193 C192 1.321 . S
C193 C194 1.403 . S
C193 H214 0.934 . S
C194 C189 1.413 . S
C194 C193 1.403 . S
C194 H215 0.930 . S
C195 O206 1.275 . S
C195 O207 1.256 . S
O196 Ho176 2.322 . S
O196 C178 1.259 . S
O197 Ho177 2.346 . S
O197 C178 1.268 . S
O198 Ho176 2.378 . S
O198 C179 1.215 . S
O199 Ho176 2.524 . S
O199 C179 1.289 . S
O200 Ho176 2.381 . S
O200 C186 1.275 . S
O201 Ho176 2.669 . S
O201 Ho177 2.305 . S
O201 C186 1.256 . S
O202 Ho177 2.322 . S
O202 C187 1.259 . S
O203 Ho176 2.346 . S
O203 C187 1.268 . S
O204 Ho177 2.378 . S
O204 C188 1.215 . S
O205 Ho177 2.524 . S
O205 C188 1.289 . S
O206 Ho177 2.381 . S
O206 C195 1.275 . S
O207 Ho176 2.305 . S
O207 Ho177 2.669 . S
O207 C195 1.256 . S
H208 C181 0.930 . S
H209 C182 0.931 . S
H210 C184 0.934 . S
H211 C185 0.930 . S
H212 C190 0.930 . S
H213 C191 0.931 . S
H214 C193 0.934 . S
H215 C194 0.930 . S
Ho216 C219 2.811 . S
Ho216 O236 2.322 . S
Ho216 O238 2.378 . S
Ho216 O239 2.524 . S
Ho216 O240 2.381 1_455 S
Ho216 O241 2.669 1_455 S
Ho216 O243 2.346 1_454 S
Ho216 O247 2.305 1_554 S
Ho217 C228 2.811 1_455 S
Ho217 O237 2.346 1_556 S
Ho217 O241 2.305 1_456 S
Ho217 O242 2.322 1_455 S
Ho217 O244 2.378 1_455 S
Ho217 O245 2.524 1_455 S
Ho217 O246 2.381 . S
Ho217 O247 2.669 . S
C218 O236 1.259 . S
C218 O237 1.268 . S
C219 Ho216 2.811 . S
C219 C220 1.488 . S
C219 O238 1.215 . S
C219 O239 1.289 . S
C220 C219 1.488 . S
C220 C221 1.348 . S
C220 C225 1.413 . S
C221 C220 1.348 . S
C221 C222 1.442 . S
C221 H248 0.930 . S
C222 C221 1.442 . S
C222 C223 1.381 . S
C222 H249 0.931 . S
C223 C222 1.381 . S
C223 C224 1.321 . S
C224 C223 1.321 . S
C224 C225 1.403 . S
C224 H250 0.934 . S
C225 C220 1.413 . S
C225 C224 1.403 . S
C225 H251 0.930 . S
C226 O240 1.275 . S
C226 O241 1.256 . S
C227 O242 1.259 . S
C227 O243 1.268 . S
C228 Ho217 2.811 1_655 S
C228 C229 1.488 . S
C228 O244 1.215 . S
C228 O245 1.289 . S
C229 C228 1.488 . S
C229 C230 1.348 . S
C229 C234 1.413 . S
C230 C229 1.348 . S
C230 C231 1.442 . S
C230 H252 0.930 . S
C231 C230 1.442 . S
C231 C232 1.381 . S
C231 H253 0.931 . S
C232 C231 1.381 . S
C232 C233 1.321 . S
C233 C232 1.321 . S
C233 C234 1.403 . S
C233 H254 0.934 . S
C234 C229 1.413 . S
C234 C233 1.403 . S
C234 H255 0.930 . S
C235 O246 1.275 . S
C235 O247 1.256 . S
O236 Ho216 2.322 . S
O236 C218 1.259 . S
O237 Ho217 2.346 1_554 S
O237 C218 1.268 . S
O238 Ho216 2.378 . S
O238 C219 1.215 . S
O239 Ho216 2.524 . S
O239 C219 1.289 . S
O240 Ho216 2.381 1_655 S
O240 C226 1.275 . S
O241 Ho216 2.669 1_655 S
O241 Ho217 2.305 1_654 S
O241 C226 1.256 . S
O242 Ho217 2.322 1_655 S
O242 C227 1.259 . S
O243 Ho216 2.346 1_656 S
O243 C227 1.268 . S
O244 Ho217 2.378 1_655 S
O244 C228 1.215 . S
O245 Ho217 2.524 1_655 S
O245 C228 1.289 . S
O246 Ho217 2.381 . S
O246 C235 1.275 . S
O247 Ho216 2.305 1_556 S
O247 Ho217 2.669 . S
O247 C235 1.256 . S
H248 C221 0.930 . S
H249 C222 0.931 . S
H250 C224 0.934 . S
H251 C225 0.930 . S
H252 C230 0.930 . S
H253 C231 0.931 . S
H254 C233 0.934 . S
H255 C234 0.930 . S
H256 C264 0.929 . S
H257 C266 0.930 . S
H258 C268 0.930 . S
H259 C271 0.929 . S
H260 C274 0.930 . S
H261 C276 0.960 . S
H262 C276 0.960 . S
H263 C276 0.960 . S
C264 H256 0.929 . S
C264 C265 1.377 . S
C264 C266 1.384 . S
C265 C264 1.377 . S
C265 C271 1.390 . S
C266 H257 0.930 . S
C266 C264 1.384 . S
C266 C267 1.372 . S
C267 C266 1.372 . S
C267 C268 1.400 . S
C267 C272 1.490 . S
C268 H258 0.930 . S
C268 C267 1.400 . S
C268 C271 1.386 . S
H269 C285 0.930 . S
H270 C286 0.931 . S
C271 H259 0.929 . S
C271 C265 1.390 . S
C271 C268 1.386 . S
C272 C267 1.490 . S
C272 C274 1.395 . S
C272 C275 1.403 . S
H273 C279 0.930 . S
C274 H260 0.930 . S
C274 C272 1.395 . S
C274 C277 1.403 . S
C275 C272 1.403 . S
C275 C276 1.524 . S
C275 C279 1.400 . S
C276 H261 0.960 . S
C276 H262 0.960 . S
C276 H263 0.960 . S
C276 C275 1.524 . S
C277 C274 1.403 . S
C277 C278 1.392 . S
C277 C281 1.495 . S
C278 C277 1.392 . S
C278 C279 1.385 . S
C278 C280 1.478 . S
C279 H273 0.930 . S
C279 C275 1.400 . S
C279 C278 1.385 . S
C280 C278 1.478 . S
C280 C282 1.381 . S
C280 C286 1.383 . S
C281 C277 1.495 . S
C281 H287 0.959 . S
C281 H288 0.961 . S
C281 H289 0.960 . S
C282 C280 1.381 . S
C282 C283 1.394 . S
C282 H290 0.930 . S
C283 C282 1.394 . S
C283 C284 1.383 . S
C283 H291 0.929 . S
C284 C283 1.383 . S
C284 C285 1.377 . S
C285 H269 0.930 . S
C285 C284 1.377 . S
C285 C286 1.379 . S
C286 H270 0.931 . S
C286 C280 1.383 . S
C286 C285 1.379 . S
H287 C281 0.959 . S
H288 C281 0.961 . S
H289 C281 0.960 . S
H290 C282 0.930 . S
H291 C283 0.929 . S
H292 C300 0.929 . S
H293 C302 0.930 . S
H294 C304 0.930 . S
H295 C307 0.929 . S
H296 C310 0.930 . S
H297 C312 0.960 . S
H298 C312 0.960 . S
H299 C312 0.960 . S
C300 H292 0.929 . S
C300 C301 1.377 . S
C300 C302 1.384 . S
C301 C300 1.377 . S
C301 C307 1.390 . S
C302 H293 0.930 . S
C302 C300 1.384 . S
C302 C303 1.372 . S
C303 C302 1.372 . S
C303 C304 1.400 . S
C303 C308 1.490 . S
C304 H294 0.930 . S
C304 C303 1.400 . S
C304 C307 1.386 . S
H305 C321 0.930 . S
H306 C322 0.931 . S
C307 H295 0.929 . S
C307 C301 1.390 . S
C307 C304 1.386 . S
C308 C303 1.490 . S
C308 C310 1.395 . S
C308 C311 1.403 . S
H309 C315 0.930 . S
C310 H296 0.930 . S
C310 C308 1.395 . S
C310 C313 1.403 . S
C311 C308 1.403 . S
C311 C312 1.524 . S
C311 C315 1.400 . S
C312 H297 0.960 . S
C312 H298 0.960 . S
C312 H299 0.960 . S
C312 C311 1.524 . S
C313 C310 1.403 . S
C313 C314 1.392 . S
C313 C317 1.495 . S
C314 C313 1.392 . S
C314 C315 1.385 . S
C314 C316 1.478 . S
C315 H309 0.930 . S
C315 C311 1.400 . S
C315 C314 1.385 . S
C316 C314 1.478 . S
C316 C318 1.381 . S
C316 C322 1.383 . S
C317 C313 1.495 . S
C317 H323 0.959 . S
C317 H324 0.961 . S
C317 H325 0.960 . S
C318 C316 1.381 . S
C318 C319 1.394 . S
C318 H326 0.930 . S
C319 C318 1.394 . S
C319 C320 1.383 . S
C319 H327 0.929 . S
C320 C319 1.383 . S
C320 C321 1.377 . S
C321 H305 0.930 . S
C321 C320 1.377 . S
C321 C322 1.379 . S
C322 H306 0.931 . S
C322 C316 1.383 . S
C322 C321 1.379 . S
H323 C317 0.959 . S
H324 C317 0.961 . S
H325 C317 0.960 . S
H326 C318 0.930 . S
H327 C319 0.929 . S
H328 C336 0.929 . S
H329 C338 0.930 . S
H330 C340 0.930 . S
H331 C343 0.929 . S
H332 C346 0.930 . S
H333 C348 0.960 . S
H334 C348 0.960 . S
H335 C348 0.960 . S
C336 H328 0.929 . S
C336 C337 1.377 . S
C336 C338 1.384 . S
C337 C336 1.377 . S
C337 C343 1.390 . S
C338 H329 0.930 . S
C338 C336 1.384 . S
C338 C339 1.372 . S
C339 C338 1.372 . S
C339 C340 1.400 . S
C339 C344 1.490 . S
C340 H330 0.930 . S
C340 C339 1.400 . S
C340 C343 1.386 . S
H341 C357 0.930 . S
H342 C358 0.931 . S
C343 H331 0.929 . S
C343 C337 1.390 . S
C343 C340 1.386 . S
C344 C339 1.490 . S
C344 C346 1.395 . S
C344 C347 1.403 . S
H345 C351 0.930 . S
C346 H332 0.930 . S
C346 C344 1.395 . S
C346 C349 1.403 . S
C347 C344 1.403 . S
C347 C348 1.524 . S
C347 C351 1.400 . S
C348 H333 0.960 . S
C348 H334 0.960 . S
C348 H335 0.960 . S
C348 C347 1.524 . S
C349 C346 1.403 . S
C349 C350 1.392 . S
C349 C353 1.495 . S
C350 C349 1.392 . S
C350 C351 1.385 . S
C350 C352 1.478 . S
C351 H345 0.930 . S
C351 C347 1.400 . S
C351 C350 1.385 . S
C352 C350 1.478 . S
C352 C354 1.381 . S
C352 C358 1.383 . S
C353 C349 1.495 . S
C353 H359 0.959 . S
C353 H360 0.961 . S
C353 H361 0.960 . S
C354 C352 1.381 . S
C354 C355 1.394 . S
C354 H362 0.930 . S
C355 C354 1.394 . S
C355 C356 1.383 . S
C355 H363 0.929 . S
C356 C355 1.383 . S
C356 C357 1.377 . S
C357 H341 0.930 . S
C357 C356 1.377 . S
C357 C358 1.379 . S
C358 H342 0.931 . S
C358 C352 1.383 . S
C358 C357 1.379 . S
H359 C353 0.959 . S
H360 C353 0.961 . S
H361 C353 0.960 . S
H362 C354 0.930 . S
H363 C355 0.929 . S
H364 C372 0.929 . S
H365 C374 0.930 . S
H366 C376 0.930 . S
H367 C379 0.929 . S
H368 C382 0.930 . S
H369 C384 0.960 . S
H370 C384 0.960 . S
H371 C384 0.960 . S
C372 H364 0.929 . S
C372 C373 1.377 . S
C372 C374 1.384 . S
C373 C372 1.377 . S
C373 C379 1.390 . S
C374 H365 0.930 . S
C374 C372 1.384 . S
C374 C375 1.372 . S
C375 C374 1.372 . S
C375 C376 1.400 . S
C375 C380 1.490 . S
C376 H366 0.930 . S
C376 C375 1.400 . S
C376 C379 1.386 . S
H377 C393 0.930 . S
H378 C394 0.931 . S
C379 H367 0.929 . S
C379 C373 1.390 . S
C379 C376 1.386 . S
C380 C375 1.490 . S
C380 C382 1.395 . S
C380 C383 1.403 . S
H381 C387 0.930 . S
C382 H368 0.930 . S
C382 C380 1.395 . S
C382 C385 1.403 . S
C383 C380 1.403 . S
C383 C384 1.524 . S
C383 C387 1.400 . S
C384 H369 0.960 . S
C384 H370 0.960 . S
C384 H371 0.960 . S
C384 C383 1.524 . S
C385 C382 1.403 . S
C385 C386 1.392 . S
C385 C389 1.495 . S
C386 C385 1.392 . S
C386 C387 1.385 . S
C386 C388 1.478 . S
C387 H381 0.930 . S
C387 C383 1.400 . S
C387 C386 1.385 . S
C388 C386 1.478 . S
C388 C390 1.381 . S
C388 C394 1.383 . S
C389 C385 1.495 . S
C389 H395 0.959 . S
C389 H396 0.961 . S
C389 H397 0.960 . S
C390 C388 1.381 . S
C390 C391 1.394 . S
C390 H398 0.930 . S
C391 C390 1.394 . S
C391 C392 1.383 . S
C391 H399 0.929 . S
C392 C391 1.383 . S
C392 C393 1.377 . S
C393 H377 0.930 . S
C393 C392 1.377 . S
C393 C394 1.379 . S
C394 H378 0.931 . S
C394 C388 1.383 . S
C394 C393 1.379 . S
H395 C389 0.959 . S
H396 C389 0.961 . S
H397 C389 0.960 . S
H398 C390 0.930 . S
H399 C391 0.929 . S
H400 C408 0.929 . S
H401 C410 0.930 . S
H402 C412 0.930 . S
H403 C415 0.929 . S
H404 C418 0.930 . S
H405 C420 0.960 . S
H406 C420 0.960 . S
H407 C420 0.960 . S
C408 H400 0.929 . S
C408 C409 1.377 . S
C408 C410 1.384 . S
C409 C408 1.377 . S
C409 C415 1.390 . S
C410 H401 0.930 . S
C410 C408 1.384 . S
C410 C411 1.372 . S
C411 C410 1.372 . S
C411 C412 1.400 . S
C411 C416 1.490 . S
C412 H402 0.930 . S
C412 C411 1.400 . S
C412 C415 1.386 . S
H413 C429 0.930 . S
H414 C430 0.931 . S
C415 H403 0.929 . S
C415 C409 1.390 . S
C415 C412 1.386 . S
C416 C411 1.490 . S
C416 C418 1.395 . S
C416 C419 1.403 . S
H417 C423 0.930 . S
C418 H404 0.930 . S
C418 C416 1.395 . S
C418 C421 1.403 . S
C419 C416 1.403 . S
C419 C420 1.524 . S
C419 C423 1.400 . S
C420 H405 0.960 . S
C420 H406 0.960 . S
C420 H407 0.960 . S
C420 C419 1.524 . S
C421 C418 1.403 . S
C421 C422 1.392 . S
C421 C425 1.495 . S
C422 C421 1.392 . S
C422 C423 1.385 . S
C422 C424 1.478 . S
C423 H417 0.930 . S
C423 C419 1.400 . S
C423 C422 1.385 . S
C424 C422 1.478 . S
C424 C426 1.381 . S
C424 C430 1.383 . S
C425 C421 1.495 . S
C425 H431 0.959 . S
C425 H432 0.961 . S
C425 H433 0.960 . S
C426 C424 1.381 . S
C426 C427 1.394 . S
C426 H434 0.930 . S
C427 C426 1.394 . S
C427 C428 1.383 . S
C427 H435 0.929 . S
C428 C427 1.383 . S
C428 C429 1.377 . S
C429 H413 0.930 . S
C429 C428 1.377 . S
C429 C430 1.379 . S
C430 H414 0.931 . S
C430 C424 1.383 . S
C430 C429 1.379 . S
H431 C425 0.959 . S
H432 C425 0.961 . S
H433 C425 0.960 . S
H434 C426 0.930 . S
H435 C427 0.929 . S
H436 C444 0.929 . S
H437 C446 0.930 . S
H438 C448 0.930 . S
H439 C451 0.929 . S
H440 C454 0.930 . S
H441 C456 0.960 . S
H442 C456 0.960 . S
H443 C456 0.960 . S
C444 H436 0.929 . S
C444 C445 1.377 . S
C444 C446 1.384 . S
C445 C444 1.377 . S
C445 C451 1.390 . S
C446 H437 0.930 . S
C446 C444 1.384 . S
C446 C447 1.372 . S
C447 C446 1.372 . S
C447 C448 1.400 . S
C447 C452 1.490 . S
C448 H438 0.930 . S
C448 C447 1.400 . S
C448 C451 1.386 . S
H449 C465 0.930 . S
H450 C466 0.931 . S
C451 H439 0.929 . S
C451 C445 1.390 . S
C451 C448 1.386 . S
C452 C447 1.490 . S
C452 C454 1.395 . S
C452 C455 1.403 . S
H453 C459 0.930 . S
C454 H440 0.930 . S
C454 C452 1.395 . S
C454 C457 1.403 . S
C455 C452 1.403 . S
C455 C456 1.524 . S
C455 C459 1.400 . S
C456 H441 0.960 . S
C456 H442 0.960 . S
C456 H443 0.960 . S
C456 C455 1.524 . S
C457 C454 1.403 . S
C457 C458 1.392 . S
C457 C461 1.495 . S
C458 C457 1.392 . S
C458 C459 1.385 . S
C458 C460 1.478 . S
C459 H453 0.930 . S
C459 C455 1.400 . S
C459 C458 1.385 . S
C460 C458 1.478 . S
C460 C462 1.381 . S
C460 C466 1.383 . S
C461 C457 1.495 . S
C461 H467 0.959 . S
C461 H468 0.961 . S
C461 H469 0.960 . S
C462 C460 1.381 . S
C462 C463 1.394 . S
C462 H470 0.930 . S
C463 C462 1.394 . S
C463 C464 1.383 . S
C463 H471 0.929 . S
C464 C463 1.383 . S
C464 C465 1.377 . S
C465 H449 0.930 . S
C465 C464 1.377 . S
C465 C466 1.379 . S
C466 H450 0.931 . S
C466 C460 1.383 . S
C466 C465 1.379 . S
H467 C461 0.959 . S
H468 C461 0.961 . S
H469 C461 0.960 . S
H470 C462 0.930 . S
H471 C463 0.929 . S
H472 C480 0.929 . S
H473 C482 0.930 . S
H474 C484 0.930 . S
H475 C487 0.929 . S
H476 C490 0.930 . S
H477 C492 0.960 . S
H478 C492 0.960 . S
H479 C492 0.960 . S
C480 H472 0.929 . S
C480 C481 1.377 . S
C480 C482 1.384 . S
C481 C480 1.377 . S
C481 C487 1.390 . S
C482 H473 0.930 . S
C482 C480 1.384 . S
C482 C483 1.372 . S
C483 C482 1.372 . S
C483 C484 1.400 . S
C483 C488 1.490 . S
C484 H474 0.930 . S
C484 C483 1.400 . S
C484 C487 1.386 . S
H485 C501 0.930 . S
H486 C502 0.931 . S
C487 H475 0.929 . S
C487 C481 1.390 . S
C487 C484 1.386 . S
C488 C483 1.490 . S
C488 C490 1.395 . S
C488 C491 1.403 . S
H489 C495 0.930 . S
C490 H476 0.930 . S
C490 C488 1.395 . S
C490 C493 1.403 . S
C491 C488 1.403 . S
C491 C492 1.524 . S
C491 C495 1.400 . S
C492 H477 0.960 . S
C492 H478 0.960 . S
C492 H479 0.960 . S
C492 C491 1.524 . S
C493 C490 1.403 . S
C493 C494 1.392 . S
C493 C497 1.495 . S
C494 C493 1.392 . S
C494 C495 1.385 . S
C494 C496 1.478 . S
C495 H489 0.930 . S
C495 C491 1.400 . S
C495 C494 1.385 . S
C496 C494 1.478 . S
C496 C498 1.381 . S
C496 C502 1.383 . S
C497 C493 1.495 . S
C497 H503 0.959 . S
C497 H504 0.961 . S
C497 H505 0.960 . S
C498 C496 1.381 . S
C498 C499 1.394 . S
C498 H506 0.930 . S
C499 C498 1.394 . S
C499 C500 1.383 . S
C499 H507 0.929 . S
C500 C499 1.383 . S
C500 C501 1.377 . S
C501 H485 0.930 . S
C501 C500 1.377 . S
C501 C502 1.379 . S
C502 H486 0.931 . S
C502 C496 1.383 . S
C502 C501 1.379 . S
H503 C497 0.959 . S
H504 C497 0.961 . S
H505 C497 0.960 . S
H506 C498 0.930 . S
H507 C499 0.929 . S
H508 C516 0.929 . S
H509 C518 0.930 . S
H510 C520 0.930 . S
H511 C523 0.929 . S
H512 C526 0.930 . S
H513 C528 0.960 . S
H514 C528 0.960 . S
H515 C528 0.960 . S
C516 H508 0.929 . S
C516 C517 1.377 . S
C516 C518 1.384 . S
C517 C516 1.377 . S
C517 C523 1.390 . S
C518 H509 0.930 . S
C518 C516 1.384 . S
C518 C519 1.372 . S
C519 C518 1.372 . S
C519 C520 1.400 . S
C519 C524 1.490 . S
C520 H510 0.930 . S
C520 C519 1.400 . S
C520 C523 1.386 . S
H521 C537 0.930 . S
H522 C538 0.931 . S
C523 H511 0.929 . S
C523 C517 1.390 . S
C523 C520 1.386 . S
C524 C519 1.490 . S
C524 C526 1.395 . S
C524 C527 1.403 . S
H525 C531 0.930 . S
C526 H512 0.930 . S
C526 C524 1.395 . S
C526 C529 1.403 . S
C527 C524 1.403 . S
C527 C528 1.524 . S
C527 C531 1.400 . S
C528 H513 0.960 . S
C528 H514 0.960 . S
C528 H515 0.960 . S
C528 C527 1.524 . S
C529 C526 1.403 . S
C529 C530 1.392 . S
C529 C533 1.495 . S
C530 C529 1.392 . S
C530 C531 1.385 . S
C530 C532 1.478 . S
C531 H525 0.930 . S
C531 C527 1.400 . S
C531 C530 1.385 . S
C532 C530 1.478 . S
C532 C534 1.381 . S
C532 C538 1.383 . S
C533 C529 1.495 . S
C533 H539 0.959 . S
C533 H540 0.961 . S
C533 H541 0.960 . S
C534 C532 1.381 . S
C534 C535 1.394 . S
C534 H542 0.930 . S
C535 C534 1.394 . S
C535 C536 1.383 . S
C535 H543 0.929 . S
C536 C535 1.383 . S
C536 C537 1.377 . S
C537 H521 0.930 . S
C537 C536 1.377 . S
C537 C538 1.379 . S
C538 H522 0.931 . S
C538 C532 1.383 . S
C538 C537 1.379 . S
H539 C533 0.959 . S
H540 C533 0.961 . S
H541 C533 0.960 . S
H542 C534 0.930 . S
H543 C535 0.929 . S
H544 C552 0.929 . S
H545 C554 0.930 . S
H546 C556 0.930 . S
H547 C559 0.929 . S
H548 C562 0.930 . S
H549 C564 0.960 . S
H550 C564 0.960 . S
H551 C564 0.960 . S
C552 H544 0.929 . S
C552 C553 1.377 . S
C552 C554 1.384 . S
C553 C552 1.377 . S
C553 C559 1.390 . S
C554 H545 0.930 . S
C554 C552 1.384 . S
C554 C555 1.372 . S
C555 C554 1.372 . S
C555 C556 1.400 . S
C555 C560 1.490 . S
C556 H546 0.930 . S
C556 C555 1.400 . S
C556 C559 1.386 . S
H557 C573 0.930 . S
H558 C574 0.931 . S
C559 H547 0.929 . S
C559 C553 1.390 . S
C559 C556 1.386 . S
C560 C555 1.490 . S
C560 C562 1.395 . S
C560 C563 1.403 . S
H561 C567 0.930 . S
C562 H548 0.930 . S
C562 C560 1.395 . S
C562 C565 1.403 . S
C563 C560 1.403 . S
C563 C564 1.524 . S
C563 C567 1.400 . S
C564 H549 0.960 . S
C564 H550 0.960 . S
C564 H551 0.960 . S
C564 C563 1.524 . S
C565 C562 1.403 . S
C565 C566 1.392 . S
C565 C569 1.495 . S
C566 C565 1.392 . S
C566 C567 1.385 . S
C566 C568 1.478 . S
C567 H561 0.930 . S
C567 C563 1.400 . S
C567 C566 1.385 . S
C568 C566 1.478 . S
C568 C570 1.381 . S
C568 C574 1.383 . S
C569 C565 1.495 . S
C569 H575 0.959 . S
C569 H576 0.961 . S
C569 H577 0.960 . S
C570 C568 1.381 . S
C570 C571 1.394 . S
C570 H578 0.930 . S
C571 C570 1.394 . S
C571 C572 1.383 . S
C571 H579 0.929 . S
C572 C571 1.383 . S
C572 C573 1.377 . S
C573 H557 0.930 . S
C573 C572 1.377 . S
C573 C574 1.379 . S
C574 H558 0.931 . S
C574 C568 1.383 . S
C574 C573 1.379 . S
H575 C569 0.959 . S
H576 C569 0.961 . S
H577 C569 0.960 . S
H578 C570 0.930 . S
H579 C571 0.929 . S
H580 C588 0.929 . S
H581 C590 0.930 . S
H582 C592 0.930 . S
H583 C595 0.929 . S
H584 C598 0.930 . S
H585 C600 0.960 . S
H586 C600 0.960 . S
H587 C600 0.960 . S
C588 H580 0.929 . S
C588 C589 1.377 . S
C588 C590 1.384 . S
C589 C588 1.377 . S
C589 C595 1.390 . S
C590 H581 0.930 . S
C590 C588 1.384 . S
C590 C591 1.372 . S
C591 C590 1.372 . S
C591 C592 1.400 . S
C591 C596 1.490 . S
C592 H582 0.930 . S
C592 C591 1.400 . S
C592 C595 1.386 . S
H593 C609 0.930 . S
H594 C610 0.931 . S
C595 H583 0.929 . S
C595 C589 1.390 . S
C595 C592 1.386 . S
C596 C591 1.490 . S
C596 C598 1.395 . S
C596 C599 1.403 . S
H597 C603 0.930 . S
C598 H584 0.930 . S
C598 C596 1.395 . S
C598 C601 1.403 . S
C599 C596 1.403 . S
C599 C600 1.524 . S
C599 C603 1.400 . S
C600 H585 0.960 . S
C600 H586 0.960 . S
C600 H587 0.960 . S
C600 C599 1.524 . S
C601 C598 1.403 . S
C601 C602 1.392 . S
C601 C605 1.495 . S
C602 C601 1.392 . S
C602 C603 1.385 . S
C602 C604 1.478 . S
C603 H597 0.930 . S
C603 C599 1.400 . S
C603 C602 1.385 . S
C604 C602 1.478 . S
C604 C606 1.381 . S
C604 C610 1.383 . S
C605 C601 1.495 . S
C605 H611 0.959 . S
C605 H612 0.961 . S
C605 H613 0.960 . S
C606 C604 1.381 . S
C606 C607 1.394 . S
C606 H614 0.930 . S
C607 C606 1.394 . S
C607 C608 1.383 . S
C607 H615 0.929 . S
C608 C607 1.383 . S
C608 C609 1.377 . S
C609 H593 0.930 . S
C609 C608 1.377 . S
C609 C610 1.379 . S
C610 H594 0.931 . S
C610 C604 1.383 . S
C610 C609 1.379 . S
H611 C605 0.959 . S
H612 C605 0.961 . S
H613 C605 0.960 . S
H614 C606 0.930 . S
H615 C607 0.929 . S
H616 C624 0.929 . S
H617 C626 0.930 . S
H618 C628 0.930 . S
H619 C631 0.929 . S
H620 C634 0.930 . S
H621 C636 0.960 . S
H622 C636 0.960 . S
H623 C636 0.960 . S
C624 H616 0.929 . S
C624 C625 1.377 . S
C624 C626 1.384 . S
C625 C624 1.377 . S
C625 C631 1.390 . S
C626 H617 0.930 . S
C626 C624 1.384 . S
C626 C627 1.372 . S
C627 C626 1.372 . S
C627 C628 1.400 . S
C627 C632 1.490 . S
C628 H618 0.930 . S
C628 C627 1.400 . S
C628 C631 1.386 . S
H629 C645 0.930 . S
H630 C646 0.931 . S
C631 H619 0.929 . S
C631 C625 1.390 . S
C631 C628 1.386 . S
C632 C627 1.490 . S
C632 C634 1.395 . S
C632 C635 1.403 . S
H633 C639 0.930 . S
C634 H620 0.930 . S
C634 C632 1.395 . S
C634 C637 1.403 . S
C635 C632 1.403 . S
C635 C636 1.524 . S
C635 C639 1.400 . S
C636 H621 0.960 . S
C636 H622 0.960 . S
C636 H623 0.960 . S
C636 C635 1.524 . S
C637 C634 1.403 . S
C637 C638 1.392 . S
C637 C641 1.495 . S
C638 C637 1.392 . S
C638 C639 1.385 . S
C638 C640 1.478 . S
C639 H633 0.930 . S
C639 C635 1.400 . S
C639 C638 1.385 . S
C640 C638 1.478 . S
C640 C642 1.381 . S
C640 C646 1.383 . S
C641 C637 1.495 . S
C641 H647 0.959 . S
C641 H648 0.961 . S
C641 H649 0.960 . S
C642 C640 1.381 . S
C642 C643 1.394 . S
C642 H650 0.930 . S
C643 C642 1.394 . S
C643 C644 1.383 . S
C643 H651 0.929 . S
C644 C643 1.383 . S
C644 C645 1.377 . S
C645 H629 0.930 . S
C645 C644 1.377 . S
C645 C646 1.379 . S
C646 H630 0.931 . S
C646 C640 1.383 . S
C646 C645 1.379 . S
H647 C641 0.959 . S
H648 C641 0.961 . S
H649 C641 0.960 . S
H650 C642 0.930 . S
H651 C643 0.929 . S
H652 C660 0.929 . S
H653 C662 0.930 . S
H654 C664 0.930 . S
H655 C667 0.929 . S
H656 C670 0.930 . S
H657 C672 0.960 . S
H658 C672 0.960 . S
H659 C672 0.960 . S
C660 H652 0.929 . S
C660 C661 1.377 . S
C660 C662 1.384 . S
C661 C660 1.377 . S
C661 C667 1.390 . S
C662 H653 0.930 . S
C662 C660 1.384 . S
C662 C663 1.372 . S
C663 C662 1.372 . S
C663 C664 1.400 . S
C663 C668 1.490 . S
C664 H654 0.930 . S
C664 C663 1.400 . S
C664 C667 1.386 . S
H665 C681 0.930 . S
H666 C682 0.931 . S
C667 H655 0.929 . S
C667 C661 1.390 . S
C667 C664 1.386 . S
C668 C663 1.490 . S
C668 C670 1.395 . S
C668 C671 1.403 . S
H669 C675 0.930 . S
C670 H656 0.930 . S
C670 C668 1.395 . S
C670 C673 1.403 . S
C671 C668 1.403 . S
C671 C672 1.524 . S
C671 C675 1.400 . S
C672 H657 0.960 . S
C672 H658 0.960 . S
C672 H659 0.960 . S
C672 C671 1.524 . S
C673 C670 1.403 . S
C673 C674 1.392 . S
C673 C677 1.495 . S
C674 C673 1.392 . S
C674 C675 1.385 . S
C674 C676 1.478 . S
C675 H669 0.930 . S
C675 C671 1.400 . S
C675 C674 1.385 . S
C676 C674 1.478 . S
C676 C678 1.381 . S
C676 C682 1.383 . S
C677 C673 1.495 . S
C677 H683 0.959 . S
C677 H684 0.961 . S
C677 H685 0.960 . S
C678 C676 1.381 . S
C678 C679 1.394 . S
C678 H686 0.930 . S
C679 C678 1.394 . S
C679 C680 1.383 . S
C679 H687 0.929 . S
C680 C679 1.383 . S
C680 C681 1.377 . S
C681 H665 0.930 . S
C681 C680 1.377 . S
C681 C682 1.379 . S
C682 H666 0.931 . S
C682 C676 1.383 . S
C682 C681 1.379 . S
H683 C677 0.959 . S
H684 C677 0.961 . S
H685 C677 0.960 . S
H686 C678 0.930 . S
H687 C679 0.929 . S
H688 C696 0.929 . S
H689 C698 0.930 . S
H690 C700 0.930 . S
H691 C703 0.929 . S
H692 C706 0.930 . S
H693 C708 0.960 . S
H694 C708 0.960 . S
H695 C708 0.960 . S
C696 H688 0.929 . S
C696 C697 1.377 . S
C696 C698 1.384 . S
C697 C696 1.377 . S
C697 C703 1.390 . S
C698 H689 0.930 . S
C698 C696 1.384 . S
C698 C699 1.372 . S
C699 C698 1.372 . S
C699 C700 1.400 . S
C699 C704 1.490 . S
C700 H690 0.930 . S
C700 C699 1.400 . S
C700 C703 1.386 . S
H701 C717 0.930 . S
H702 C718 0.931 . S
C703 H691 0.929 . S
C703 C697 1.390 . S
C703 C700 1.386 . S
C704 C699 1.490 . S
C704 C706 1.395 . S
C704 C707 1.403 . S
H705 C711 0.930 . S
C706 H692 0.930 . S
C706 C704 1.395 . S
C706 C709 1.403 . S
C707 C704 1.403 . S
C707 C708 1.524 . S
C707 C711 1.400 . S
C708 H693 0.960 . S
C708 H694 0.960 . S
C708 H695 0.960 . S
C708 C707 1.524 . S
C709 C706 1.403 . S
C709 C710 1.392 . S
C709 C713 1.495 . S
C710 C709 1.392 . S
C710 C711 1.385 . S
C710 C712 1.478 . S
C711 H705 0.930 . S
C711 C707 1.400 . S
C711 C710 1.385 . S
C712 C710 1.478 . S
C712 C714 1.381 . S
C712 C718 1.383 . S
C713 C709 1.495 . S
C713 H719 0.959 . S
C713 H720 0.961 . S
C713 H721 0.960 . S
C714 C712 1.381 . S
C714 C715 1.394 . S
C714 H722 0.930 . S
C715 C714 1.394 . S
C715 C716 1.383 . S
C715 H723 0.929 . S
C716 C715 1.383 . S
C716 C717 1.377 . S
C717 H701 0.930 . S
C717 C716 1.377 . S
C717 C718 1.379 . S
C718 H702 0.931 . S
C718 C712 1.383 . S
C718 C717 1.379 . S
H719 C713 0.959 . S
H720 C713 0.961 . S
H721 C713 0.960 . S
H722 C714 0.930 . S
H723 C715 0.929 . S
H724 C732 0.929 . S
H725 C734 0.930 . S
H726 C736 0.930 . S
H727 C739 0.929 . S
H728 C742 0.930 . S
H729 C744 0.960 . S
H730 C744 0.960 . S
H731 C744 0.960 . S
C732 H724 0.929 . S
C732 C733 1.377 . S
C732 C734 1.384 . S
C733 C732 1.377 . S
C733 C739 1.390 . S
C734 H725 0.930 . S
C734 C732 1.384 . S
C734 C735 1.372 . S
C735 C734 1.372 . S
C735 C736 1.400 . S
C735 C740 1.490 . S
C736 H726 0.930 . S
C736 C735 1.400 . S
C736 C739 1.386 . S
H737 C753 0.930 . S
H738 C754 0.931 . S
C739 H727 0.929 . S
C739 C733 1.390 . S
C739 C736 1.386 . S
C740 C735 1.490 . S
C740 C742 1.395 . S
C740 C743 1.403 . S
H741 C747 0.930 . S
C742 H728 0.930 . S
C742 C740 1.395 . S
C742 C745 1.403 . S
C743 C740 1.403 . S
C743 C744 1.524 . S
C743 C747 1.400 . S
C744 H729 0.960 . S
C744 H730 0.960 . S
C744 H731 0.960 . S
C744 C743 1.524 . S
C745 C742 1.403 . S
C745 C746 1.392 . S
C745 C749 1.495 . S
C746 C745 1.392 . S
C746 C747 1.385 . S
C746 C748 1.478 . S
C747 H741 0.930 . S
C747 C743 1.400 . S
C747 C746 1.385 . S
C748 C746 1.478 . S
C748 C750 1.381 . S
C748 C754 1.383 . S
C749 C745 1.495 . S
C749 H755 0.959 . S
C749 H756 0.961 . S
C749 H757 0.960 . S
C750 C748 1.381 . S
C750 C751 1.394 . S
C750 H758 0.930 . S
C751 C750 1.394 . S
C751 C752 1.383 . S
C751 H759 0.929 . S
C752 C751 1.383 . S
C752 C753 1.377 . S
C753 H737 0.930 . S
C753 C752 1.377 . S
C753 C754 1.379 . S
C754 H738 0.931 . S
C754 C748 1.383 . S
C754 C753 1.379 . S
H755 C749 0.959 . S
H756 C749 0.961 . S
H757 C749 0.960 . S
H758 C750 0.930 . S
H759 C751 0.929 . S
H760 C768 0.929 . S
H761 C770 0.930 . S
H762 C772 0.930 . S
H763 C775 0.929 . S
H764 C778 0.930 . S
H765 C780 0.960 . S
H766 C780 0.960 . S
H767 C780 0.960 . S
C768 H760 0.929 . S
C768 C769 1.377 . S
C768 C770 1.384 . S
C769 C768 1.377 . S
C769 C775 1.390 . S
C770 H761 0.930 . S
C770 C768 1.384 . S
C770 C771 1.372 . S
C771 C770 1.372 . S
C771 C772 1.400 . S
C771 C776 1.490 . S
C772 H762 0.930 . S
C772 C771 1.400 . S
C772 C775 1.386 . S
H773 C789 0.930 . S
H774 C790 0.931 . S
C775 H763 0.929 . S
C775 C769 1.390 . S
C775 C772 1.386 . S
C776 C771 1.490 . S
C776 C778 1.395 . S
C776 C779 1.403 . S
H777 C783 0.930 . S
C778 H764 0.930 . S
C778 C776 1.395 . S
C778 C781 1.403 . S
C779 C776 1.403 . S
C779 C780 1.524 . S
C779 C783 1.400 . S
C780 H765 0.960 . S
C780 H766 0.960 . S
C780 H767 0.960 . S
C780 C779 1.524 . S
C781 C778 1.403 . S
C781 C782 1.392 . S
C781 C785 1.495 . S
C782 C781 1.392 . S
C782 C783 1.385 . S
C782 C784 1.478 . S
C783 H777 0.930 . S
C783 C779 1.400 . S
C783 C782 1.385 . S
C784 C782 1.478 . S
C784 C786 1.381 . S
C784 C790 1.383 . S
C785 C781 1.495 . S
C785 H791 0.959 . S
C785 H792 0.961 . S
C785 H793 0.960 . S
C786 C784 1.381 . S
C786 C787 1.394 . S
C786 H794 0.930 . S
C787 C786 1.394 . S
C787 C788 1.383 . S
C787 H795 0.929 . S
C788 C787 1.383 . S
C788 C789 1.377 . S
C789 H773 0.930 . S
C789 C788 1.377 . S
C789 C790 1.379 . S
C790 H774 0.931 . S
C790 C784 1.383 . S
C790 C789 1.379 . S
H791 C785 0.959 . S
H792 C785 0.961 . S
H793 C785 0.960 . S
H794 C786 0.930 . S
H795 C787 0.929 . S
H796 C804 0.929 . S
H797 C806 0.930 . S
H798 C808 0.930 . S
H799 C811 0.929 . S
H800 C814 0.930 . S
H801 C816 0.960 . S
H802 C816 0.960 . S
H803 C816 0.960 . S
C804 H796 0.929 . S
C804 C805 1.377 . S
C804 C806 1.384 . S
C805 C804 1.377 . S
C805 C811 1.390 . S
C806 H797 0.930 . S
C806 C804 1.384 . S
C806 C807 1.372 . S
C807 C806 1.372 . S
C807 C808 1.400 . S
C807 C812 1.490 . S
C808 H798 0.930 . S
C808 C807 1.400 . S
C808 C811 1.386 . S
H809 C825 0.930 . S
H810 C826 0.931 . S
C811 H799 0.929 . S
C811 C805 1.390 . S
C811 C808 1.386 . S
C812 C807 1.490 . S
C812 C814 1.395 . S
C812 C815 1.403 . S
H813 C819 0.930 . S
C814 H800 0.930 . S
C814 C812 1.395 . S
C814 C817 1.403 . S
C815 C812 1.403 . S
C815 C816 1.524 . S
C815 C819 1.400 . S
C816 H801 0.960 . S
C816 H802 0.960 . S
C816 H803 0.960 . S
C816 C815 1.524 . S
C817 C814 1.403 . S
C817 C818 1.392 . S
C817 C821 1.495 . S
C818 C817 1.392 . S
C818 C819 1.385 . S
C818 C820 1.478 . S
C819 H813 0.930 . S
C819 C815 1.400 . S
C819 C818 1.385 . S
C820 C818 1.478 . S
C820 C822 1.381 . S
C820 C826 1.383 . S
C821 C817 1.495 . S
C821 H827 0.959 . S
C821 H828 0.961 . S
C821 H829 0.960 . S
C822 C820 1.381 . S
C822 C823 1.394 . S
C822 H830 0.930 . S
C823 C822 1.394 . S
C823 C824 1.383 . S
C823 H831 0.929 . S
C824 C823 1.383 . S
C824 C825 1.377 . S
C825 H809 0.930 . S
C825 C824 1.377 . S
C825 C826 1.379 . S
C826 H810 0.931 . S
C826 C820 1.383 . S
C826 C825 1.379 . S
H827 C821 0.959 . S
H828 C821 0.961 . S
H829 C821 0.960 . S
H830 C822 0.930 . S
H831 C823 0.929 . S
H832 C840 0.929 . S
H833 C842 0.930 . S
H834 C844 0.930 . S
H835 C847 0.929 . S
H836 C850 0.930 . S
H837 C852 0.960 . S
H838 C852 0.960 . S
H839 C852 0.960 . S
C840 H832 0.929 . S
C840 C841 1.377 . S
C840 C842 1.384 . S
C841 C840 1.377 . S
C841 C847 1.390 . S
C842 H833 0.930 . S
C842 C840 1.384 . S
C842 C843 1.372 . S
C843 C842 1.372 . S
C843 C844 1.400 . S
C843 C848 1.490 . S
C844 H834 0.930 . S
C844 C843 1.400 . S
C844 C847 1.386 . S
H845 C861 0.930 . S
H846 C862 0.931 . S
C847 H835 0.929 . S
C847 C841 1.390 . S
C847 C844 1.386 . S
C848 C843 1.490 . S
C848 C850 1.395 . S
C848 C851 1.403 . S
H849 C855 0.930 . S
C850 H836 0.930 . S
C850 C848 1.395 . S
C850 C853 1.403 . S
C851 C848 1.403 . S
C851 C852 1.524 . S
C851 C855 1.400 . S
C852 H837 0.960 . S
C852 H838 0.960 . S
C852 H839 0.960 . S
C852 C851 1.524 . S
C853 C850 1.403 . S
C853 C854 1.392 . S
C853 C857 1.495 . S
C854 C853 1.392 . S
C854 C855 1.385 . S
C854 C856 1.478 . S
C855 H849 0.930 . S
C855 C851 1.400 . S
C855 C854 1.385 . S
C856 C854 1.478 . S
C856 C858 1.381 . S
C856 C862 1.383 . S
C857 C853 1.495 . S
C857 H863 0.959 . S
C857 H864 0.961 . S
C857 H865 0.960 . S
C858 C856 1.381 . S
C858 C859 1.394 . S
C858 H866 0.930 . S
C859 C858 1.394 . S
C859 C860 1.383 . S
C859 H867 0.929 . S
C860 C859 1.383 . S
C860 C861 1.377 . S
C861 H845 0.930 . S
C861 C860 1.377 . S
C861 C862 1.379 . S
C862 H846 0.931 . S
C862 C856 1.383 . S
C862 C861 1.379 . S
H863 C857 0.959 . S
H864 C857 0.961 . S
H865 C857 0.960 . S
H866 C858 0.930 . S
H867 C859 0.929 . S
H868 C876 0.929 . S
H869 C878 0.930 . S
H870 C880 0.930 . S
H871 C883 0.929 . S
H872 C886 0.930 . S
H873 C888 0.960 . S
H874 C888 0.960 . S
H875 C888 0.960 . S
C876 H868 0.929 . S
C876 C877 1.377 . S
C876 C878 1.384 . S
C877 C876 1.377 . S
C877 C883 1.390 . S
C878 H869 0.930 . S
C878 C876 1.384 . S
C878 C879 1.372 . S
C879 C878 1.372 . S
C879 C880 1.400 . S
C879 C884 1.490 . S
C880 H870 0.930 . S
C880 C879 1.400 . S
C880 C883 1.386 . S
H881 C897 0.930 . S
H882 C898 0.931 . S
C883 H871 0.929 . S
C883 C877 1.390 . S
C883 C880 1.386 . S
C884 C879 1.490 . S
C884 C886 1.395 . S
C884 C887 1.403 . S
H885 C891 0.930 . S
C886 H872 0.930 . S
C886 C884 1.395 . S
C886 C889 1.403 . S
C887 C884 1.403 . S
C887 C888 1.524 . S
C887 C891 1.400 . S
C888 H873 0.960 . S
C888 H874 0.960 . S
C888 H875 0.960 . S
C888 C887 1.524 . S
C889 C886 1.403 . S
C889 C890 1.392 . S
C889 C893 1.495 . S
C890 C889 1.392 . S
C890 C891 1.385 . S
C890 C892 1.478 . S
C891 H885 0.930 . S
C891 C887 1.400 . S
C891 C890 1.385 . S
C892 C890 1.478 . S
C892 C894 1.381 . S
C892 C898 1.383 . S
C893 C889 1.495 . S
C893 H899 0.959 . S
C893 H900 0.961 . S
C893 H901 0.960 . S
C894 C892 1.381 . S
C894 C895 1.394 . S
C894 H902 0.930 . S
C895 C894 1.394 . S
C895 C896 1.383 . S
C895 H903 0.929 . S
C896 C895 1.383 . S
C896 C897 1.377 . S
C897 H881 0.930 . S
C897 C896 1.377 . S
C897 C898 1.379 . S
C898 H882 0.931 . S
C898 C892 1.383 . S
C898 C897 1.379 . S
H899 C893 0.959 . S
H900 C893 0.961 . S
H901 C893 0.960 . S
H902 C894 0.930 . S
H903 C895 0.929 . S
H904 C912 0.929 . S
H905 C914 0.930 . S
H906 C916 0.930 . S
H907 C919 0.929 . S
H908 C922 0.930 . S
H909 C924 0.960 . S
H910 C924 0.960 . S
H911 C924 0.960 . S
C912 H904 0.929 . S
C912 C913 1.377 . S
C912 C914 1.384 . S
C913 C912 1.377 . S
C913 C919 1.390 . S
C914 H905 0.930 . S
C914 C912 1.384 . S
C914 C915 1.372 . S
C915 C914 1.372 . S
C915 C916 1.400 . S
C915 C920 1.490 . S
C916 H906 0.930 . S
C916 C915 1.400 . S
C916 C919 1.386 . S
H917 C933 0.930 . S
H918 C934 0.931 . S
C919 H907 0.929 . S
C919 C913 1.390 . S
C919 C916 1.386 . S
C920 C915 1.490 . S
C920 C922 1.395 . S
C920 C923 1.403 . S
H921 C927 0.930 . S
C922 H908 0.930 . S
C922 C920 1.395 . S
C922 C925 1.403 . S
C923 C920 1.403 . S
C923 C924 1.524 . S
C923 C927 1.400 . S
C924 H909 0.960 . S
C924 H910 0.960 . S
C924 H911 0.960 . S
C924 C923 1.524 . S
C925 C922 1.403 . S
C925 C926 1.392 . S
C925 C929 1.495 . S
C926 C925 1.392 . S
C926 C927 1.385 . S
C926 C928 1.478 . S
C927 H921 0.930 . S
C927 C923 1.400 . S
C927 C926 1.385 . S
C928 C926 1.478 . S
C928 C930 1.381 . S
C928 C934 1.383 . S
C929 C925 1.495 . S
C929 H935 0.959 . S
C929 H936 0.961 . S
C929 H937 0.960 . S
C930 C928 1.381 . S
C930 C931 1.394 . S
C930 H938 0.930 . S
C931 C930 1.394 . S
C931 C932 1.383 . S
C931 H939 0.929 . S
C932 C931 1.383 . S
C932 C933 1.377 . S
C933 H917 0.930 . S
C933 C932 1.377 . S
C933 C934 1.379 . S
C934 H918 0.931 . S
C934 C928 1.383 . S
C934 C933 1.379 . S
H935 C929 0.959 . S
H936 C929 0.961 . S
H937 C929 0.960 . S
H938 C930 0.930 . S
H939 C931 0.929 . S
H940 C948 0.929 . S
H941 C950 0.930 . S
H942 C952 0.930 . S
H943 C955 0.929 . S
H944 C958 0.930 . S
H945 C960 0.960 . S
H946 C960 0.960 . S
H947 C960 0.960 . S
C948 H940 0.929 . S
C948 C949 1.377 . S
C948 C950 1.384 . S
C949 C948 1.377 . S
C949 C955 1.390 . S
C950 H941 0.930 . S
C950 C948 1.384 . S
C950 C951 1.372 . S
C951 C950 1.372 . S
C951 C952 1.400 . S
C951 C956 1.490 . S
C952 H942 0.930 . S
C952 C951 1.400 . S
C952 C955 1.386 . S
H953 C969 0.930 . S
H954 C970 0.931 . S
C955 H943 0.929 . S
C955 C949 1.390 . S
C955 C952 1.386 . S
C956 C951 1.490 . S
C956 C958 1.395 . S
C956 C959 1.403 . S
H957 C963 0.930 . S
C958 H944 0.930 . S
C958 C956 1.395 . S
C958 C961 1.403 . S
C959 C956 1.403 . S
C959 C960 1.524 . S
C959 C963 1.400 . S
C960 H945 0.960 . S
C960 H946 0.960 . S
C960 H947 0.960 . S
C960 C959 1.524 . S
C961 C958 1.403 . S
C961 C962 1.392 . S
C961 C965 1.495 . S
C962 C961 1.392 . S
C962 C963 1.385 . S
C962 C964 1.478 . S
C963 H957 0.930 . S
C963 C959 1.400 . S
C963 C962 1.385 . S
C964 C962 1.478 . S
C964 C966 1.381 . S
C964 C970 1.383 . S
C965 C961 1.495 . S
C965 H971 0.959 . S
C965 H972 0.961 . S
C965 H973 0.960 . S
C966 C964 1.381 . S
C966 C967 1.394 . S
C966 H974 0.930 . S
C967 C966 1.394 . S
C967 C968 1.383 . S
C967 H975 0.929 . S
C968 C967 1.383 . S
C968 C969 1.377 . S
C969 H953 0.930 . S
C969 C968 1.377 . S
C969 C970 1.379 . S
C970 H954 0.931 . S
C970 C964 1.383 . S
C970 C969 1.379 . S
H971 C965 0.959 . S
H972 C965 0.961 . S
H973 C965 0.960 . S
H974 C966 0.930 . S
H975 C967 0.929 . S
H976 C984 0.929 . S
H977 C986 0.930 . S
H978 C988 0.930 . S
H979 C991 0.929 . S
H980 C994 0.930 . S
H981 C996 0.960 . S
H982 C996 0.960 . S
H983 C996 0.960 . S
C984 H976 0.929 . S
C984 C985 1.377 . S
C984 C986 1.384 . S
C985 C984 1.377 . S
C985 C991 1.390 . S
C986 H977 0.930 . S
C986 C984 1.384 . S
C986 C987 1.372 . S
C987 C986 1.372 . S
C987 C988 1.400 . S
C987 C992 1.490 . S
C988 H978 0.930 . S
C988 C987 1.400 . S
C988 C991 1.386 . S
H989 C1005 0.930 . S
H990 C1006 0.931 . S
C991 H979 0.929 . S
C991 C985 1.390 . S
C991 C988 1.386 . S
C992 C987 1.490 . S
C992 C994 1.395 . S
C992 C995 1.403 . S
H993 C999 0.930 . S
C994 H980 0.930 . S
C994 C992 1.395 . S
C994 C997 1.403 . S
C995 C992 1.403 . S
C995 C996 1.524 . S
C995 C999 1.400 . S
C996 H981 0.960 . S
C996 H982 0.960 . S
C996 H983 0.960 . S
C996 C995 1.524 . S
C997 C994 1.403 . S
C997 C998 1.392 . S
C997 C1001 1.495 . S
C998 C997 1.392 . S
C998 C999 1.385 . S
C998 C1000 1.478 . S
C999 H993 0.930 . S
C999 C995 1.400 . S
C999 C998 1.385 . S
C1000 C998 1.478 . S
C1000 C1002 1.381 . S
C1000 C1006 1.383 . S
C1001 C997 1.495 . S
C1001 H1007 0.959 . S
C1001 H1008 0.961 . S
C1001 H1009 0.960 . S
C1002 C1000 1.381 . S
C1002 C1003 1.394 . S
C1002 H1010 0.930 . S
C1003 C1002 1.394 . S
C1003 C1004 1.383 . S
C1003 H1011 0.929 . S
C1004 C1003 1.383 . S
C1004 C1005 1.377 . S
C1005 H989 0.930 . S
C1005 C1004 1.377 . S
C1005 C1006 1.379 . S
C1006 H990 0.931 . S
C1006 C1000 1.383 . S
C1006 C1005 1.379 . S
H1007 C1001 0.959 . S
H1008 C1001 0.961 . S
H1009 C1001 0.960 . S
H1010 C1002 0.930 . S
H1011 C1003 0.929 . S
H1012 C1020 0.929 . S
H1013 C1022 0.930 . S
H1014 C1024 0.930 . S
H1015 C1027 0.929 . S
H1016 C1030 0.930 . S
H1017 C1032 0.960 . S
H1018 C1032 0.960 . S
H1019 C1032 0.960 . S
C1020 H1012 0.929 . S
C1020 C1021 1.377 . S
C1020 C1022 1.384 . S
C1021 C1020 1.377 . S
C1021 C1027 1.390 . S
C1022 H1013 0.930 . S
C1022 C1020 1.384 . S
C1022 C1023 1.372 . S
C1023 C1022 1.372 . S
C1023 C1024 1.400 . S
C1023 C1028 1.490 . S
C1024 H1014 0.930 . S
C1024 C1023 1.400 . S
C1024 C1027 1.386 . S
H1025 C1041 0.930 . S
H1026 C1042 0.931 . S
C1027 H1015 0.929 . S
C1027 C1021 1.390 . S
C1027 C1024 1.386 . S
C1028 C1023 1.490 . S
C1028 C1030 1.395 . S
C1028 C1031 1.403 . S
H1029 C1035 0.930 . S
C1030 H1016 0.930 . S
C1030 C1028 1.395 . S
C1030 C1033 1.403 . S
C1031 C1028 1.403 . S
C1031 C1032 1.524 . S
C1031 C1035 1.400 . S
C1032 H1017 0.960 . S
C1032 H1018 0.960 . S
C1032 H1019 0.960 . S
C1032 C1031 1.524 . S
C1033 C1030 1.403 . S
C1033 C1034 1.392 . S
C1033 C1037 1.495 . S
C1034 C1033 1.392 . S
C1034 C1035 1.385 . S
C1034 C1036 1.478 . S
C1035 H1029 0.930 . S
C1035 C1031 1.400 . S
C1035 C1034 1.385 . S
C1036 C1034 1.478 . S
C1036 C1038 1.381 . S
C1036 C1042 1.383 . S
C1037 C1033 1.495 . S
C1037 H1043 0.959 . S
C1037 H1044 0.961 . S
C1037 H1045 0.960 . S
C1038 C1036 1.381 . S
C1038 C1039 1.394 . S
C1038 H1046 0.930 . S
C1039 C1038 1.394 . S
C1039 C1040 1.383 . S
C1039 H1047 0.929 . S
C1040 C1039 1.383 . S
C1040 C1041 1.377 . S
C1041 H1025 0.930 . S
C1041 C1040 1.377 . S
C1041 C1042 1.379 . S
C1042 H1026 0.931 . S
C1042 C1036 1.383 . S
C1042 C1041 1.379 . S
H1043 C1037 0.959 . S
H1044 C1037 0.961 . S
H1045 C1037 0.960 . S
H1046 C1038 0.930 . S
H1047 C1039 0.929 . S
H1048 C1056 0.929 . S
H1049 C1058 0.930 . S
H1050 C1060 0.930 . S
H1051 C1063 0.929 . S
H1052 C1066 0.930 . S
H1053 C1068 0.960 . S
H1054 C1068 0.960 . S
H1055 C1068 0.960 . S
C1056 H1048 0.929 . S
C1056 C1057 1.377 . S
C1056 C1058 1.384 . S
C1057 C1056 1.377 . S
C1057 C1063 1.390 . S
C1058 H1049 0.930 . S
C1058 C1056 1.384 . S
C1058 C1059 1.372 . S
C1059 C1058 1.372 . S
C1059 C1060 1.400 . S
C1059 C1064 1.490 . S
C1060 H1050 0.930 . S
C1060 C1059 1.400 . S
C1060 C1063 1.386 . S
H1061 C1077 0.930 . S
H1062 C1078 0.931 . S
C1063 H1051 0.929 . S
C1063 C1057 1.390 . S
C1063 C1060 1.386 . S
C1064 C1059 1.490 . S
C1064 C1066 1.395 . S
C1064 C1067 1.403 . S
H1065 C1071 0.930 . S
C1066 H1052 0.930 . S
C1066 C1064 1.395 . S
C1066 C1069 1.403 . S
C1067 C1064 1.403 . S
C1067 C1068 1.524 . S
C1067 C1071 1.400 . S
C1068 H1053 0.960 . S
C1068 H1054 0.960 . S
C1068 H1055 0.960 . S
C1068 C1067 1.524 . S
C1069 C1066 1.403 . S
C1069 C1070 1.392 . S
C1069 C1073 1.495 . S
C1070 C1069 1.392 . S
C1070 C1071 1.385 . S
C1070 C1072 1.478 . S
C1071 H1065 0.930 . S
C1071 C1067 1.400 . S
C1071 C1070 1.385 . S
C1072 C1070 1.478 . S
C1072 C1074 1.381 . S
C1072 C1078 1.383 . S
C1073 C1069 1.495 . S
C1073 H1079 0.959 . S
C1073 H1080 0.961 . S
C1073 H1081 0.960 . S
C1074 C1072 1.381 . S
C1074 C1075 1.394 . S
C1074 H1082 0.930 . S
C1075 C1074 1.394 . S
C1075 C1076 1.383 . S
C1075 H1083 0.929 . S
C1076 C1075 1.383 . S
C1076 C1077 1.377 . S
C1077 H1061 0.930 . S
C1077 C1076 1.377 . S
C1077 C1078 1.379 . S
C1078 H1062 0.931 . S
C1078 C1072 1.383 . S
C1078 C1077 1.379 . S
H1079 C1073 0.959 . S
H1080 C1073 0.961 . S
H1081 C1073 0.960 . S
H1082 C1074 0.930 . S
H1083 C1075 0.929 . S
H1084 C1092 0.929 . S
H1085 C1094 0.930 . S
H1086 C1096 0.930 . S
H1087 C1099 0.929 . S
H1088 C1102 0.930 . S
H1089 C1104 0.960 . S
H1090 C1104 0.960 . S
H1091 C1104 0.960 . S
C1092 H1084 0.929 . S
C1092 C1093 1.377 . S
C1092 C1094 1.384 . S
C1093 C1092 1.377 . S
C1093 C1099 1.390 . S
C1094 H1085 0.930 . S
C1094 C1092 1.384 . S
C1094 C1095 1.372 . S
C1095 C1094 1.372 . S
C1095 C1096 1.400 . S
C1095 C1100 1.490 . S
C1096 H1086 0.930 . S
C1096 C1095 1.400 . S
C1096 C1099 1.386 . S
H1097 C1113 0.930 . S
H1098 C1114 0.931 . S
C1099 H1087 0.929 . S
C1099 C1093 1.390 . S
C1099 C1096 1.386 . S
C1100 C1095 1.490 . S
C1100 C1102 1.395 . S
C1100 C1103 1.403 . S
H1101 C1107 0.930 . S
C1102 H1088 0.930 . S
C1102 C1100 1.395 . S
C1102 C1105 1.403 . S
C1103 C1100 1.403 . S
C1103 C1104 1.524 . S
C1103 C1107 1.400 . S
C1104 H1089 0.960 . S
C1104 H1090 0.960 . S
C1104 H1091 0.960 . S
C1104 C1103 1.524 . S
C1105 C1102 1.403 . S
C1105 C1106 1.392 . S
C1105 C1109 1.495 . S
C1106 C1105 1.392 . S
C1106 C1107 1.385 . S
C1106 C1108 1.478 . S
C1107 H1101 0.930 . S
C1107 C1103 1.400 . S
C1107 C1106 1.385 . S
C1108 C1106 1.478 . S
C1108 C1110 1.381 . S
C1108 C1114 1.383 . S
C1109 C1105 1.495 . S
C1109 H1115 0.959 . S
C1109 H1116 0.961 . S
C1109 H1117 0.960 . S
C1110 C1108 1.381 . S
C1110 C1111 1.394 . S
C1110 H1118 0.930 . S
C1111 C1110 1.394 . S
C1111 C1112 1.383 . S
C1111 H1119 0.929 . S
C1112 C1111 1.383 . S
C1112 C1113 1.377 . S
C1113 H1097 0.930 . S
C1113 C1112 1.377 . S
C1113 C1114 1.379 . S
C1114 H1098 0.931 . S
C1114 C1108 1.383 . S
C1114 C1113 1.379 . S
H1115 C1109 0.959 . S
H1116 C1109 0.961 . S
H1117 C1109 0.960 . S
H1118 C1110 0.930 . S
H1119 C1111 0.929 . S
C265 C6 1.091 . S
C284 C103 1.108 . S
C301 C18 1.297 . S
C320 C152 1.291 . S
C356 C178 2.569 . S
C337 C28 2.599 . S
C373 C40 1.607 . S
C392 C226 1.565 . S
C428 C138 2.490 . S
C409 C9 2.422 . S
C464 C106 0.861 . S
C445 C16 0.902 . S
C500 C227 1.847 . S
C481 C30 1.865 . S
C536 C195 1.100 . S
C517 C42 1.139 . S
C553 C4 1.526 . S
C572 C223 1.547 . S
C608 C155 2.498 . S
C589 C33 2.583 . S
C625 C45 2.043 . S
C644 C107 2.024 . S
C661 C21 0.954 . S
C680 C192 0.974 . S
C716 C112 1.128 . S
C697 C57 1.114 . S
C733 C66 1.312 . S
C752 C143 1.313 . S
C769 C76 2.650 . S
C788 C187 2.615 . S
C805 C88 1.530 . S
C824 C235 1.494 . S
C841 C54 2.407 . S
C860 C147 2.468 . S
C896 C115 0.962 . S
C877 C64 1.022 . S
C932 C218 1.739 . S
C913 C78 1.761 . S
C968 C186 1.149 . S
C949 C93 1.176 . S
C985 C52 1.485 . S
C1004 C232 1.540 . S
C1040 C146 2.512 . S
C1021 C81 2.572 . S
C1076 C98 2.002 . S
C1057 C90 2.014 . S
C1093 C69 0.964 . S
C1112 C183 0.987 . S
