# Generated by pormake.
# Topology tsx, (6,3)-cn, num edge types: 1
# Building blocks:
#     Node 0, Type 0, BuildingBlock: CIFDUS_clean_sbu_1, # of connection points: 6
#     Node 1, Type 0, BuildingBlock: CIFDUS_clean_sbu_1, # of connection points: 6
#     Node 2, Type 1, BuildingBlock: MIDCAF_clean_linker_0, # of connection points: 3
#     Node 3, Type 1, BuildingBlock: MIDCAF_clean_linker_0, # of connection points: 3
#     Node 4, Type 1, BuildingBlock: MIDCAF_clean_linker_0, # of connection points: 3
#     Node 5, Type 1, BuildingBlock: MIDCAF_clean_linker_0, # of connection points: 3
#     Edge 6, Type (0, 1), BuildingBlock: MIFKUJ_clean_linker_0, # of connection points: 2
#     Edge 7, Type (0, 1), BuildingBlock: MIFKUJ_clean_linker_0, # of connection points: 2
#     Edge 8, Type (0, 1), BuildingBlock: MIFKUJ_clean_linker_0, # of connection points: 2
#     Edge 9, Type (0, 1), BuildingBlock: MIFKUJ_clean_linker_0, # of connection points: 2
#     Edge 10, Type (0, 1), BuildingBlock: MIFKUJ_clean_linker_0, # of connection points: 2
#     Edge 11, Type (0, 1), BuildingBlock: MIFKUJ_clean_linker_0, # of connection points: 2
#     Edge 12, Type (0, 1), BuildingBlock: MIFKUJ_clean_linker_0, # of connection points: 2
#     Edge 13, Type (0, 1), BuildingBlock: MIFKUJ_clean_linker_0, # of connection points: 2
#     Edge 14, Type (0, 1), BuildingBlock: MIFKUJ_clean_linker_0, # of connection points: 2
#     Edge 15, Type (0, 1), BuildingBlock: MIFKUJ_clean_linker_0, # of connection points: 2
#     Edge 16, Type (0, 1), BuildingBlock: MIFKUJ_clean_linker_0, # of connection points: 2
#     Edge 17, Type (0, 1), BuildingBlock: MIFKUJ_clean_linker_0, # of connection points: 2
# Relax obj value: 0.129
# Max RMSD: 0.156
# Mean RMSD: 0.119
data_MOF--net-tsx--node1-CIFDUS_clean_sbu_1--node2-MIDCAF_clean_linker_0--edge1-MIFKUJ_clean_linker_0
_symmetry_space_group_name_H-M    P1
_symmetry_Int_Tables_number       1
_symmetry_cell_setting            triclinic
loop_
_symmetry_equiv_pos_as_xyz
'x, y, z'
_cell_length_a     27.791514
_cell_length_b     33.649716
_cell_length_c     56.011426
_cell_angle_alpha  97.045745
_cell_angle_beta   90.572999
_cell_angle_gamma 90.786684
loop_
_atom_site_label
_atom_site_type_symbol
_atom_site_fract_x
_atom_site_fract_y
_atom_site_fract_z
_atom_type_partial_charge
O0 O 0.0163 0.0835 0.01218 0.0
Mn1 Mn 0.0522 0.02897 0.00573 0.0
O2 O 0.957 0.07504 0.98503 0.0
Mn3 Mn 0.96641 0.02112 0.97813 0.0
O4 O 0.0884 0.97377 -0.00029 0.0
O5 O 0.11421 0.06177 0.01094 0.0
Mn6 Mn 0.15425 0.03357 0.02637 0.0
O7 O 0.04878 0.02368 0.04274 0.0
O8 O 0.16672 0.98727 0.00683 0.0
O9 O 0.06103 0.03511 0.96846 0.0
O10 O 0.9975 0.00468 0.95059 0.0
O11 O 0.18814 0.07894 0.02262 0.0
O12 O 0.12607 0.02772 0.05543 0.0
C13 C 0.94452 0.97831 -0.00246 0.0
C14 C 0.98061 0.09676 0.00111 0.0
C15 C 0.13285 0.96351 -0.00098 0.0
C16 C 0.14885 0.08834 0.01217 0.0
C17 C 0.08122 0.02392 0.0594 0.0
C18 C 0.03912 0.01907 0.9493 0.0
O19 O 0.98756 -0.00477 0.00207 0.0
O20 O 0.91541 0.99196 0.98231 0.0
O21 O 0.51418 0.58171 0.50847 0.0
Mn22 Mn 0.55302 0.52795 0.50585 0.0
O23 O 0.43751 0.56454 0.50191 0.0
Mn24 Mn 0.45687 0.51876 0.48393 0.0
O25 O 0.59605 0.47501 0.5027 0.0
O26 O 0.61357 0.56333 0.51059 0.0
Mn27 Mn 0.64834 0.53776 0.53077 0.0
O28 O 0.54318 0.52644 0.54261 0.0
O29 O 0.67162 0.49824 0.50934 0.0
O30 O 0.56033 0.52922 0.46821 0.0
O31 O 0.484 0.52484 0.45518 0.0
O32 O 0.66436 0.5902 0.53798 0.0
O33 O 0.61724 0.51743 0.55573 0.0
C34 C 0.45408 0.46739 0.49939 0.0
C35 C 0.46949 0.59058 0.50862 0.0
C36 C 0.64229 0.46987 0.50212 0.0
C37 C 0.63139 0.59609 0.52238 0.0
C38 C 0.5723 0.5174 0.55876 0.0
C39 C 0.52852 0.52811 0.45122 0.0
O40 O 0.49251 0.49089 0.50192 0.0
O41 O 0.42028 0.47537 0.48461 0.0
C42 C 0.91494 0.10482 0.43864 0.0
C43 C 0.92022 0.1168 0.4634 0.0
C44 C 0.95774 0.10094 0.47616 0.0
C45 C 0.98918 0.07307 0.46419 0.0
H46 H 0.0646 0.95809 0.46872 0.0
H47 H 0.10921 0.90535 0.48544 0.0
H48 H 0.19636 0.8896 0.42162 0.0
H49 H 0.15182 0.94108 0.40487 0.0
H50 H 0.10824 0.96347 0.35626 0.0
H51 H 0.10618 0.95923 0.31239 0.0
H52 H 0.98774 0.04129 0.31624 0.0
H53 H 0.98951 0.0458 0.35993 0.0
H54 H 0.94115 0.06951 0.40756 0.0
H55 H 0.88687 0.11718 0.42832 0.0
H56 H 0.96261 0.11001 0.49527 0.0
H57 H 0.01793 0.06125 0.47431 0.0
N58 N 0.04548 0.00843 0.43698 0.0
N59 N 0.07661 0.98198 0.39958 0.0
N60 N 0.01953 0.0324 0.40147 0.0
C61 C 0.07519 0.98251 0.42386 0.0
C62 C 0.04888 0.00681 0.38824 0.0
C63 C 0.01761 0.03362 0.42575 0.0
C64 C 0.10429 0.95348 0.43535 0.0
C65 C 0.09351 0.94347 0.45838 0.0
C66 C 0.11896 0.91328 0.46794 0.0
C67 C 0.15561 0.89276 0.45462 0.0
C68 C 0.16734 0.90392 0.43202 0.0
C69 C 0.14196 0.93374 0.42249 0.0
C70 C 0.04898 0.00494 0.36167 0.0
C71 C 0.08182 0.98072 0.34779 0.0
C72 C 0.0808 0.97834 0.3227 0.0
C73 C 0.04663 -0.00023 0.31102 0.0
C74 C 0.01404 0.02409 0.32483 0.0
C75 C 0.01532 0.0268 0.34988 0.0
C76 C 0.98401 0.06152 0.43926 0.0
C77 C 0.94643 0.0777 0.42673 0.0
C78 C 0.88304 0.96063 0.57509 0.0
C79 C 0.88378 0.95301 0.54995 0.0
C80 C 0.91078 0.97835 0.53688 0.0
C81 C 0.93826 0.01004 0.54904 0.0
H82 H 0.03985 0.10346 0.541 0.0
H83 H 0.0932 0.14911 0.52214 0.0
H84 H 0.12646 0.21349 0.59182 0.0
H85 H 0.07445 0.16829 0.61082 0.0
H86 H 0.0323 0.13989 0.6587 0.0
H87 H 0.03793 0.14066 0.70223 0.0
H88 H 0.98449 0.01845 0.69522 0.0
H89 H 0.97697 0.01834 0.65201 0.0
H90 H 0.90851 -0.00338 0.6066 0.0
H91 H 0.86183 0.94183 0.5855 0.0
H92 H 0.91168 0.97295 0.51743 0.0
H93 H 0.9598 0.02859 0.53864 0.0
N94 N 0.99531 0.07495 0.57657 0.0
N95 N 0.02571 0.10491 0.61392 0.0
N96 N 0.97249 0.05034 0.61227 0.0
C97 C 0.02352 0.10342 0.58954 0.0
C98 C 0.00042 0.07837 0.6254 0.0
C99 C 0.96937 0.04843 0.58794 0.0
C100 C 0.053 0.132 0.57748 0.0
C101 C 0.05833 0.12746 0.5523 0.0
C102 C 0.08877 0.15342 0.54147 0.0
C103 C 0.11348 0.18458 0.55565 0.0
C104 C 0.10733 0.18973 0.5806 0.0
C105 C 0.07763 0.16368 0.59143 0.0
C106 C 0.00403 0.07913 0.65187 0.0
C107 C 0.02161 0.11326 0.66649 0.0
C108 C 0.02503 0.11362 0.69147 0.0
C109 C 0.01152 0.07967 0.70237 0.0
C110 C 0.99418 0.0455 0.68763 0.0
C111 C 0.99017 0.04533 0.66275 0.0
C112 C 0.93862 0.01685 0.57438 0.0
C113 C 0.90991 0.99214 0.58714 0.0
C114 C 0.41477 0.60674 0.93659 0.0
C115 C 0.42195 0.6205 0.96101 0.0
C116 C 0.45522 0.60101 0.97448 0.0
C117 C 0.48292 0.56962 0.96315 0.0
H118 H 0.5665 0.46004 0.97041 0.0
H119 H 0.61868 0.41297 0.98832 0.0
H120 H 0.67871 0.37548 0.91859 0.0
H121 H 0.6275 0.42151 0.9007 0.0
H122 H 0.56577 0.44032 0.85356 0.0
H123 H 0.56811 0.4406 0.81016 0.0
H124 H 0.53187 0.56614 0.81915 0.0
H125 H 0.52696 0.56508 0.86238 0.0
H126 H 0.4359 0.56663 0.90636 0.0
H127 H 0.38852 0.62064 0.92595 0.0
H128 H 0.46107 0.61105 0.99343 0.0
H129 H 0.50973 0.55601 0.97359 0.0
N130 N 0.5351 0.50112 0.93602 0.0
N131 N 0.56669 0.47497 0.89865 0.0
N132 N 0.51359 0.52827 0.90077 0.0
C133 C 0.56379 0.47431 0.9228 0.0
C134 C 0.54197 0.50191 0.88755 0.0
C135 C 0.50953 0.52803 0.9249 0.0
C136 C 0.593 0.44498 0.93414 0.0
C137 C 0.59067 0.44161 0.95891 0.0
C138 C 0.62029 0.41462 0.96916 0.0
C139 C 0.65296 0.39107 0.95482 0.0
C140 C 0.65433 0.39377 0.93008 0.0
C141 C 0.62473 0.42021 0.91986 0.0
C142 C 0.54575 0.50257 0.86133 0.0
C143 C 0.55839 0.46796 0.84622 0.0
C144 C 0.56004 0.46824 0.82132 0.0
C145 C 0.54996 0.50336 0.81101 0.0
C146 C 0.53867 0.53826 0.82631 0.0
C147 C 0.53612 0.53775 0.85114 0.0
C148 C 0.47741 0.55749 0.93829 0.0
C149 C 0.44204 0.57572 0.92539 0.0
C150 C 0.374 0.46592 0.07334 0.0
C151 C 0.3809 0.4546 0.04876 0.0
C152 C 0.41476 0.47538 0.03638 0.0
C153 C 0.44191 0.50708 0.04869 0.0
H154 H 0.53929 0.60757 0.04156 0.0
H155 H 0.59735 0.65255 0.02494 0.0
H156 H 0.62694 0.7118 0.0964 0.0
H157 H 0.56972 0.66825 0.11293 0.0
H158 H 0.54705 0.63172 0.15728 0.0
H159 H 0.556 0.6313 0.20049 0.0
H160 H 0.46318 0.52668 0.19671 0.0
H161 H 0.45349 0.52725 0.15347 0.0
H162 H 0.39511 0.50471 0.1047 0.0
H163 H 0.34801 0.45009 0.08313 0.0
H164 H 0.42048 0.46684 0.01735 0.0
H165 H 0.46833 0.5224 0.0389 0.0
N166 N 0.49255 0.57607 0.07642 0.0
N167 N 0.52147 0.60538 0.11413 0.0
N168 N 0.46824 0.5509 0.11186 0.0
C169 C 0.52011 0.60452 0.08983 0.0
C170 C 0.49586 0.57879 0.12531 0.0
C171 C 0.46615 0.5493 0.08749 0.0
C172 C 0.55045 0.63366 0.07866 0.0
C173 C 0.55778 0.63053 0.05364 0.0
C174 C 0.59083 0.65621 0.04412 0.0
C175 C 0.61702 0.68497 0.05954 0.0
C176 C 0.60777 0.68934 0.08423 0.0
C177 C 0.57488 0.6642 0.09365 0.0
C178 C 0.4996 0.57944 0.15179 0.0
C179 C 0.52828 0.60868 0.1656 0.0
C180 C 0.53365 0.60839 0.19039 0.0
C181 C 0.5104 0.57894 0.20201 0.0
C182 C 0.48109 0.55009 0.18832 0.0
C183 C 0.47575 0.55031 0.16349 0.0
C184 C 0.43581 0.51788 0.07357 0.0
C185 C 0.40116 0.49712 0.08563 0.0
H186 H 0.09353 0.15148 0.02975 0.0
H187 H 0.12016 0.22167 0.03031 0.0
H188 H 0.23241 0.18365 0.98044 0.0
H189 H 0.20471 0.11476 0.97903 0.0
H190 H 0.21902 0.23821 0.04679 0.0
H191 H 0.24933 0.23053 0.95279 0.0
H192 H 0.21114 0.2134 0.9128 0.0
H193 H 0.08586 0.27945 0.93689 0.0
H194 H 0.12275 0.2955 0.97735 0.0
H195 H 0.40925 0.37752 0.04162 0.0
H196 H 0.3579 0.31829 0.0296 0.0
H197 H 0.23853 0.39495 0.01866 0.0
H198 H 0.28994 0.45415 0.03082 0.0
H199 H 0.24494 0.32649 0.98311 0.0
H200 H 0.24618 0.36014 0.06976 0.0
H201 H 0.28651 0.37516 0.10932 0.0
H202 H 0.35145 0.25932 0.10046 0.0
H203 H 0.31216 0.24386 0.06065 0.0
C204 C 0.12152 0.15867 0.01758 0.0
C205 C 0.14648 0.12795 0.0039 0.0
C206 C 0.13729 0.19863 0.01822 0.0
C207 C 0.1779 0.20808 0.00509 0.0
C208 C 0.1999 0.17761 0.9899 0.0
C209 C 0.18393 0.13805 0.98908 0.0
C210 C 0.20279 0.24755 0.0102 0.0
C211 C 0.22428 0.25774 0.03296 0.0
C212 C 0.21022 0.27279 0.99218 0.0
C213 C 0.18829 0.26355 0.96804 0.0
C214 C 0.21342 0.24097 0.94958 0.0
C215 C 0.19201 0.23138 0.92689 0.0
C216 C 0.14604 0.24521 0.92234 0.0
C217 C 0.12131 0.26851 0.94051 0.0
C218 C 0.14228 0.27758 0.96336 0.0
C219 C 0.37242 0.38152 0.03597 0.0
C220 C 0.35337 0.42003 0.0368 0.0
C221 C 0.34309 0.34785 0.02931 0.0
C222 C 0.29433 0.35234 0.0235 0.0
C223 C 0.27605 0.39092 0.02306 0.0
C224 C 0.30532 0.4246 0.02989 0.0
C225 C 0.26167 0.31693 0.01962 0.0
C226 C 0.23904 0.30741 0.99711 0.0
C227 C 0.25377 0.29206 0.0379 0.0
C228 C 0.27645 0.30095 0.06213 0.0
C229 C 0.26926 0.33795 0.07619 0.0
C230 C 0.29193 0.34654 0.09866 0.0
C231 C 0.32158 0.31824 0.10739 0.0
C232 C 0.32849 0.28122 0.09368 0.0
C233 C 0.30598 0.27251 0.07116 0.0
H234 H 0.33913 0.32496 0.12478 0.0
H235 H 0.12978 0.23806 0.9047 0.0
H236 H 0.11419 0.90239 0.02481 0.0
H237 H 0.15999 0.84008 0.02301 0.0
H238 H 0.23257 0.87038 0.95982 0.0
H239 H 0.18775 0.93287 0.96198 0.0
H240 H 0.20454 0.79051 0.95645 0.0
H241 H 0.28643 0.89028 0.01124 0.0
H242 H 0.30018 0.93985 0.04692 0.0
H243 H 0.27217 0.84955 0.0931 0.0
H244 H 0.25746 0.79951 0.05765 0.0
H245 H 0.42031 0.69218 0.94411 0.0
H246 H 0.36526 0.74705 0.95522 0.0
H247 H 0.30831 0.68496 0.01193 0.0
H248 H 0.36385 0.62935 0.00071 0.0
H249 H 0.3204 0.77433 0.02248 0.0
H250 H 0.247 0.67303 0.96463 0.0
H251 H 0.24407 0.62579 0.92732 0.0
H252 H 0.26437 0.72322 0.88542 0.0
H253 H 0.26826 0.77098 0.92251 0.0
C254 C 0.13848 0.89475 0.00999 0.0
C255 C 0.14661 0.92161 0.99309 0.0
C256 C 0.16523 0.85966 0.00926 0.0
C257 C 0.20001 0.85092 0.99145 0.0
C258 C 0.2059 0.8766 0.9737 0.0
C259 C 0.17986 0.91193 0.97471 0.0
C260 C 0.23124 0.81557 0.99133 0.0
C261 C 0.22977 0.78699 0.97092 0.0
C262 C 0.26373 0.81071 0.01043 0.0
C263 C 0.26984 0.84129 0.03175 0.0
C264 C 0.28225 0.88113 0.02898 0.0
C265 C 0.2905 0.90928 0.04918 0.0
C266 C 0.28681 0.89791 0.07227 0.0
C267 C 0.27479 0.85836 0.07521 0.0
C268 C 0.26644 0.83011 0.05507 0.0
C269 C 0.39669 0.69055 0.95925 0.0
C270 C 0.39571 0.6564 0.97137 0.0
C271 C 0.36531 0.72186 0.96556 0.0
C272 C 0.3322 0.71963 0.98406 0.0
C273 C 0.33354 0.68702 -0.0025 0.0
C274 C 0.36522 0.65544 0.99116 0.0
C275 C 0.29383 0.7498 0.9875 0.0
C276 C 0.29413 0.77739 0.00838 0.0
C277 C 0.26063 0.75423 0.96873 0.0
C278 C 0.25819 0.72554 0.94638 0.0
C279 C 0.25123 0.68434 0.94748 0.0
C280 C 0.24934 0.65748 0.92636 0.0
C281 C 0.25408 0.67149 0.90401 0.0
C282 C 0.26071 0.7124 0.90274 0.0
C283 C 0.26271 0.73938 0.9238 0.0
H284 H 0.25255 0.65064 0.88768 0.0
H285 H 0.29346 0.9197 0.08787 0.0
H286 H 0.89816 0.91759 0.97194 0.0
H287 H 0.85076 0.86514 0.98681 0.0
H288 H 0.90505 0.90158 0.05867 0.0
H289 H 0.95196 0.95649 0.04377 0.0
H290 H 0.88526 0.8016 0.02102 0.0
H291 H 0.82459 0.92238 0.07254 0.0
H292 H 0.8013 0.99338 0.07739 0.0
H293 H 0.70221 0.96975 0.01788 0.0
H294 H 0.72586 0.89878 0.01233 0.0
H295 H 0.70932 0.68882 0.07501 0.0
H296 H 0.77251 0.73526 0.06557 0.0
H297 H 0.67673 0.78294 0.01541 0.0
H298 H 0.61278 0.73621 0.02508 0.0
H299 H 0.72038 0.84223 0.04581 0.0
H300 H 0.76907 0.72856 0.99408 0.0
H301 H 0.78901 0.65793 0.98167 0.0
H302 H 0.90602 0.66705 0.03278 0.0
H303 H 0.88641 0.73768 0.04571 0.0
C304 C 0.90084 0.9142 0.99091 0.0
C305 C 0.92827 0.94138 0.00681 0.0
C306 C 0.87361 0.88419 -0.00067 0.0
C307 C 0.87363 0.88017 0.02382 0.0
C308 C 0.90405 0.90495 0.0397 0.0
C309 C 0.93126 0.93579 0.0312 0.0
C310 C 0.83911 0.85117 0.03201 0.0
C311 C 0.84971 0.81035 0.02733 0.0
C312 C 0.79181 0.86281 0.03847 0.0
C313 C 0.77766 0.90547 0.04177 0.0
C314 C 0.79843 0.93247 0.06026 0.0
C315 C 0.78504 0.97268 0.06318 0.0
C316 C 0.75046 0.98611 0.04788 0.0
C317 C 0.72913 0.95934 0.02965 0.0
C318 C 0.74256 0.91914 0.0266 0.0
C319 C 0.702 0.70885 0.06172 0.0
C320 C 0.65634 0.70916 0.05079 0.0
C321 C 0.7381 0.73528 0.05631 0.0
C322 C 0.72932 0.76255 0.03982 0.0
C323 C 0.68411 0.76216 0.02826 0.0
C324 C 0.64786 0.73535 0.03359 0.0
C325 C 0.767 0.79245 0.03569 0.0
C326 C 0.75644 0.83329 0.04045 0.0
C327 C 0.81404 0.78082 0.02869 0.0
C328 C 0.82594 0.7383 0.02106 0.0
C329 C 0.79879 0.71541 0.00284 0.0
C330 C 0.81009 0.6754 0.99567 0.0
C331 C 0.84866 0.65798 0.00648 0.0
C332 C 0.8761 0.68058 0.02445 0.0
C333 C 0.86495 0.72062 0.03168 0.0
H334 H 0.85737 0.62699 0.00091 0.0
H335 H 0.74007 0.01722 0.0502 0.0
H336 H 0.00234 0.16518 0.98246 0.0
H337 H 0.94584 0.2203 0.98084 0.0
H338 H 0.85305 0.16878 0.03051 0.0
H339 H 0.90998 0.11432 0.03254 0.0
H340 H 0.81147 0.18066 0.98264 0.0
H341 H 0.89733 0.25066 0.05106 0.0
H342 H 0.97257 0.27513 0.07188 0.0
H343 H 0.00344 0.34703 0.01547 0.0
H344 H 0.92866 0.32248 0.99413 0.0
H345 H 0.63367 0.33311 0.98391 0.0
H346 H 0.69104 0.28563 -0.00211 0.0
H347 H 0.80623 0.34213 0.96271 0.0
H348 H 0.74944 0.38938 0.94894 0.0
H349 H 0.83392 0.32672 0.0065 0.0
H350 H 0.75625 0.25815 0.93679 0.0
H351 H 0.68893 0.23019 0.91076 0.0
H352 H 0.64913 0.15316 0.96324 0.0
H353 H 0.71573 0.18126 0.98984 0.0
C354 C 0.97132 0.16708 0.9941 0.0
C355 C 0.96096 0.13639 0.00817 0.0
C356 C 0.9387 0.19803 0.99284 0.0
C357 C 0.89518 0.19817 0.00539 0.0
C358 C 0.88643 0.16902 0.0207 0.0
C359 C 0.91935 0.13848 0.02223 0.0
C360 C 0.85732 0.22691 0.00105 0.0
C361 C 0.81567 0.21254 0.98829 0.0
C362 C 0.86396 0.2684 0.00768 0.0
C363 C 0.90761 0.28464 0.02099 0.0
C364 C 0.92025 0.27163 0.04309 0.0
C365 C 0.96281 0.28548 0.05497 0.0
C366 C 0.99281 0.31258 0.04499 0.0
C367 C 0.98016 0.32605 0.02318 0.0
C368 C 0.93765 0.31224 0.01121 0.0
C369 C 0.67138 0.33557 0.97951 0.0
C370 C 0.68726 0.36465 0.9653 0.0
C371 C 0.70396 0.30837 0.98732 0.0
C372 C 0.75278 0.31022 0.98114 0.0
C373 C 0.76876 0.34017 0.96766 0.0
C374 C 0.7363 0.367 0.95973 0.0
C375 C 0.7875 0.28063 0.98817 0.0
C376 C 0.82891 0.2948 0.00126 0.0
C377 C 0.78101 0.23895 0.98132 0.0
C378 C 0.74048 0.22236 0.96552 0.0
C379 C 0.73275 0.23566 0.94295 0.0
C380 C 0.6948 0.2197 0.92805 0.0
C381 C 0.66462 0.19006 0.93539 0.0
C382 C 0.67242 0.17625 0.95762 0.0
C383 C 0.71025 0.19221 0.97263 0.0
H384 H 0.63531 0.17768 0.92381 0.0
H385 H 0.02584 0.32317 0.05417 0.0
H386 H 0.70894 0.61429 0.4981 0.0
H387 H 0.73933 0.68185 0.49566 0.0
H388 H 0.60238 0.72981 0.51925 0.0
H389 H 0.57288 0.66167 0.52367 0.0
H390 H 0.70671 0.75342 0.47413 0.0
H391 H 0.62236 0.76597 0.55657 0.0
H392 H 0.60198 0.73562 0.59317 0.0
H393 H 0.74973 0.70397 0.60179 0.0
H394 H 0.77046 0.73254 0.56459 0.0
H395 H 0.81133 0.95029 0.51622 0.0
H396 H 0.75764 0.89266 0.50324 0.0
H397 H 0.84299 0.81901 0.54472 0.0
H398 H 0.89576 0.87629 0.55784 0.0
H399 H 0.75159 0.81516 0.55644 0.0
H400 H 0.84316 0.80464 0.48449 0.0
H401 H 0.8794 0.827 0.44833 0.0
H402 H 0.73881 0.84763 0.42028 0.0
H403 H 0.7017 0.82594 0.45649 0.0
C404 C 0.68456 0.63911 0.50184 0.0
C405 C 0.63856 0.63286 0.51106 0.0
C406 C 0.70215 0.67776 0.50063 0.0
C407 C 0.67369 0.71088 0.50806 0.0
C408 C 0.6255 0.7046 0.51431 0.0
C409 C 0.60823 0.6657 0.51628 0.0
C410 C 0.69723 0.75101 0.51204 0.0
C411 C 0.71528 0.76781 0.4921 0.0
C412 C 0.71057 0.76849 0.53551 0.0
C413 C 0.69754 0.7501 0.55735 0.0
C414 C 0.65019 0.75152 0.56588 0.0
C415 C 0.63863 0.7348 0.5868 0.0
C416 C 0.67445 0.71752 0.59968 0.0
C417 C 0.72191 0.71693 0.59165 0.0
C418 C 0.73349 0.73313 0.57057 0.0
C419 C 0.81906 0.92145 0.522 0.0
C420 C 0.85725 0.91755 0.53811 0.0
C421 C 0.78842 0.88866 0.51467 0.0
C422 C 0.79601 0.85166 0.52326 0.0
C423 C 0.83606 0.84737 0.53813 0.0
C424 C 0.8663 0.87998 0.54551 0.0
C425 C 0.76066 0.81807 0.51852 0.0
C426 C 0.74131 0.80208 0.53839 0.0
C427 C 0.74746 0.80078 0.49503 0.0
C428 C 0.76966 0.81424 0.47337 0.0
C429 C 0.81997 0.8144 0.47075 0.0
C430 C 0.84067 0.82685 0.45022 0.0
C431 C 0.81143 0.83889 0.43207 0.0
C432 C 0.76141 0.83841 0.43439 0.0
C433 C 0.74052 0.82604 0.45492 0.0
H434 H 0.82752 0.84847 0.41616 0.0
H435 H 0.6655 0.70488 0.61596 0.0
H436 H 0.59795 0.39548 0.48841 0.0
H437 H 0.63771 0.32976 0.48371 0.0
H438 H 0.77423 0.38865 0.50245 0.0
H439 H 0.73664 0.4526 0.50579 0.0
H440 H 0.78586 0.3383 0.46581 0.0
H441 H 0.70578 0.33748 0.5421 0.0
H442 H 0.63703 0.3376 0.56963 0.0
H443 H 0.58001 0.23069 0.52878 0.0
H444 H 0.64812 0.23025 0.50083 0.0
H445 H 0.94397 0.18781 0.49022 0.0
H446 H 0.8902 0.24454 0.50032 0.0
H447 H 0.76926 0.17165 0.47146 0.0
H448 H 0.82263 0.11496 0.46172 0.0
H449 H 0.74403 0.22464 0.51063 0.0
H450 H 0.83229 0.22711 0.43589 0.0
H451 H 0.90512 0.22924 0.41122 0.0
H452 H 0.9518 0.33803 0.4538 0.0
H453 H 0.87961 0.33623 0.47894 0.0
C454 C 0.6365 0.39419 0.49116 0.0
C455 C 0.66387 0.42955 0.49728 0.0
C456 C 0.65909 0.35669 0.48875 0.0
C457 C 0.70905 0.35426 0.49281 0.0
C458 C 0.73584 0.38955 0.49897 0.0
C459 C 0.71388 0.42644 0.50089 0.0
C460 C 0.73534 0.31585 0.49008 0.0
C461 C 0.77673 0.31364 0.47582 0.0
C462 C 0.7232 0.28326 0.50274 0.0
C463 C 0.68161 0.28421 0.51915 0.0
C464 C 0.67825 0.31431 0.53881 0.0
C465 C 0.63949 0.31435 0.55454 0.0
C466 C 0.60406 0.28427 0.5509 0.0
C467 C 0.60737 0.25406 0.53154 0.0
C468 C 0.64602 0.2539 0.51574 0.0
C469 C 0.90567 0.18362 0.48683 0.0
C470 C 0.88736 0.14731 0.47497 0.0
C471 C 0.87509 0.21605 0.4924 0.0
C472 C 0.82595 0.21245 0.48611 0.0
C473 C 0.80707 0.17512 0.4763 0.0
C474 C 0.83755 0.14283 0.4707 0.0
C475 C 0.79522 0.24822 0.48721 0.0
C476 C 0.7529 0.24951 0.50076 0.0
C477 C 0.80707 0.28065 0.47442 0.0
C478 C 0.85078 0.28129 0.45944 0.0
C479 C 0.8583 0.25127 0.44013 0.0
C480 C 0.89944 0.25247 0.42603 0.0
C481 C 0.93312 0.2837 0.43097 0.0
C482 C 0.92574 0.31382 0.45001 0.0
C483 C 0.88474 0.31272 0.46418 0.0
H484 H 0.96487 0.28461 0.42001 0.0
H485 H 0.57415 0.28431 0.56313 0.0
H486 H 0.38643 0.4821 0.53147 0.0
H487 H 0.32983 0.43201 0.54068 0.0
H488 H 0.43078 0.3393 0.51667 0.0
H489 H 0.48401 0.39049 0.50276 0.0
H490 H 0.35387 0.31763 0.49813 0.0
H491 H 0.382 0.37897 0.58123 0.0
H492 H 0.3853 0.43771 0.6125 0.0
H493 H 0.23609 0.45966 0.60032 0.0
H494 H 0.23215 0.40229 0.5685 0.0
H495 H 0.20104 0.16542 0.53706 0.0
H496 H 0.2648 0.21242 0.52829 0.0
H497 H 0.16641 0.31051 0.54249 0.0
H498 H 0.10345 0.26358 0.55217 0.0
H499 H 0.24357 0.32636 0.56744 0.0
H500 H 0.21088 0.28055 0.48523 0.0
H501 H 0.19744 0.23079 0.44958 0.0
H502 H 0.34115 0.18796 0.45634 0.0
H503 H 0.35528 0.23718 0.49226 0.0
C504 C 0.39768 0.45113 0.5292 0.0
C505 C 0.43977 0.44019 0.51661 0.0
C506 C 0.36499 0.42211 0.53466 0.0
C507 C 0.3758 0.38125 0.53016 0.0
C508 C 0.42115 0.37051 0.52037 0.0
C509 C 0.45244 0.39975 0.51306 0.0
C510 C 0.33772 0.35021 0.53276 0.0
C511 C 0.33072 0.31914 0.51367 0.0
C512 C 0.30493 0.35315 0.55225 0.0
C513 C 0.3069 0.38612 0.57254 0.0
C514 C 0.34989 0.39617 0.58539 0.0
C515 C 0.35191 0.42933 0.6031 0.0
C516 C 0.31096 0.45213 0.60851 0.0
C517 C 0.26779 0.4419 0.5962 0.0
C518 C 0.26567 0.40911 0.57829 0.0
C519 C 0.19291 0.19691 0.53759 0.0
C520 C 0.14763 0.21113 0.54511 0.0
C521 C 0.22924 0.22374 0.5326 0.0
C522 C 0.22045 0.26506 0.53474 0.0
C523 C 0.17414 0.27883 0.54087 0.0
C524 C 0.13813 0.2521 0.5462 0.0
C525 C 0.26044 0.29426 0.53302 0.0
C526 C 0.26756 0.32474 0.55219 0.0
C527 C 0.29208 0.2917 0.51333 0.0
C528 C 0.28396 0.26227 0.49161 0.0
C529 C 0.23951 0.26032 0.47923 0.0
C530 C 0.23179 0.23226 0.45895 0.0
C531 C 0.26837 0.20614 0.45075 0.0
C532 C 0.31283 0.20817 0.46275 0.0
C533 C 0.32073 0.23618 0.48305 0.0
H534 H 0.26231 0.18441 0.43506 0.0
H535 H 0.31274 0.47781 0.62218 0.0
H536 H 0.45699 0.62216 0.4682 0.0
H537 H 0.40568 0.67775 0.46253 0.0
H538 H 0.39627 0.70769 0.53961 0.0
H539 H 0.44424 0.64841 0.54512 0.0
H540 H 0.31245 0.70656 0.52224 0.0
H541 H 0.45799 0.76898 0.49675 0.0
H542 H 0.53279 0.77092 0.47353 0.0
H543 H 0.45167 0.74912 0.40746 0.0
H544 H 0.37647 0.74659 0.43025 0.0
H545 H 0.18997 0.88967 0.50049 0.0
H546 H 0.24436 0.8397 0.51379 0.0
H547 H 0.23723 0.77294 0.44301 0.0
H548 H 0.18181 0.82171 0.42982 0.0
H549 H 0.33171 0.79868 0.46026 0.0
H550 H 0.19047 0.7308 0.48308 0.0
H551 H 0.11359 0.72341 0.50375 0.0
H552 H 0.18475 0.75168 0.57224 0.0
H553 H 0.26203 0.7599 0.55194 0.0
C554 C 0.44556 0.64162 0.48394 0.0
C555 C 0.45514 0.63175 0.50707 0.0
C556 C 0.41624 0.67365 0.4807 0.0
C557 C 0.39776 0.69785 0.50061 0.0
C558 C 0.4103 0.68964 0.52394 0.0
C559 C 0.43831 0.65632 0.52716 0.0
C560 C 0.36113 0.72835 0.49679 0.0
C561 C 0.31736 0.72751 0.50918 0.0
C562 C 0.36643 0.7546 0.47898 0.0
C563 C 0.41157 0.75758 0.46526 0.0
C564 C 0.4561 0.76461 0.47728 0.0
C565 C 0.49858 0.76577 0.46418 0.0
C566 C 0.49696 0.76019 0.43904 0.0
C567 C 0.45285 0.75356 0.42693 0.0
C568 C 0.41029 0.75237 0.43993 0.0
C569 C 0.19896 0.86377 0.48797 0.0
C570 C 0.18241 0.86002 0.46398 0.0
C571 C 0.23008 0.83538 0.49557 0.0
C572 C 0.24503 0.80304 0.47926 0.0
C573 C 0.22636 0.79799 0.45575 0.0
C574 C 0.19499 0.826 0.44824 0.0
C575 C 0.28385 0.77678 0.48579 0.0
C576 C 0.32766 0.77838 0.47377 0.0
C577 C 0.27844 0.75111 0.50371 0.0
C578 C 0.23193 0.74663 0.51597 0.0
C579 C 0.18965 0.736 0.50254 0.0
C580 C 0.14601 0.73151 0.51419 0.0
C581 C 0.14424 0.73726 0.53929 0.0
C582 C 0.18615 0.74737 0.55279 0.0
C583 C 0.22988 0.75195 0.54122 0.0
H584 H 0.11043 0.73373 0.54828 0.0
H585 H 0.5299 0.76099 0.42895 0.0
H586 H 0.99224 0.00549 0.07787 0.0
H587 H 0.97497 -0.00439 0.11988 0.0
H588 H 0.12332 0.02317 0.13933 0.0
H589 H 0.14078 0.03284 0.09836 0.0
H590 H 0.09363 0.95533 0.15564 0.0
H591 H 0.03847 0.09006 0.15264 0.0
H592 H 0.98802 0.14285 0.13907 0.0
H593 H 0.86126 0.08471 0.16218 0.0
H594 H 0.91094 0.03114 0.17552 0.0
H595 H 0.12121 0.00787 0.28068 0.0
H596 H 0.11758 0.00609 0.23692 0.0
H597 H 0.96447 0.98299 0.23776 0.0
H598 H 0.96785 0.98596 0.28167 0.0
H599 H 0.98401 0.03834 0.20963 0.0
H600 H 0.04821 0.90789 0.21838 0.0
H601 H 0.10515 0.86125 0.23382 0.0
H602 H 0.22256 0.91808 0.20125 0.0
H603 H 0.16649 0.96535 0.18588 0.0
C604 C 0.02098 0.00956 0.09117 0.0
C605 C 0.06796 0.01959 0.08458 0.0
C606 C 0.01108 0.00394 0.11512 0.0
C607 C 0.04806 0.00834 0.13264 0.0
C608 C 0.0944 0.01911 0.12608 0.0
C609 C 0.10422 0.02471 0.10249 0.0
C610 C 0.04019 0.00136 0.15792 0.0
C611 C 0.06951 0.97338 0.16746 0.0
C612 C 0.00826 0.02451 0.17321 0.0
C613 C 0.97832 0.05616 0.16464 0.0
C614 C -0.00023 0.08818 0.15449 0.0
C615 C 0.97134 0.11833 0.14692 0.0
C616 C 0.92144 0.11702 0.14965 0.0
C617 C 0.89989 0.08559 0.15998 0.0
C618 C 0.92816 0.0553 0.16752 0.0
C619 C 0.08692 0.00203 0.27146 0.0
C620 C 0.04484 -0.00305 0.28447 0.0
C621 C 0.08485 0.00088 0.24647 0.0
C622 C 0.04084 0.99368 0.23399 0.0
C623 C 0.9988 0.98846 0.247 0.0
C624 C 0.00076 0.99017 0.27203 0.0
C625 C 0.03851 0.9931 0.20748 0.0
C626 C 0.00721 0.01952 0.19773 0.0
C627 C 0.06948 0.96914 0.19203 0.0
C628 C 0.1031 0.94027 0.20104 0.0
C629 C 0.08619 0.91054 0.21459 0.0
C630 C 0.11833 0.88399 0.22333 0.0
C631 C 0.16743 0.88673 0.21854 0.0
C632 C 0.18451 0.91597 0.20495 0.0
C633 C 0.15256 0.9426 0.19618 0.0
H634 H 0.19225 0.86617 0.22534 0.0
H635 H 0.8995 0.14045 0.14384 0.0
H636 H 0.09512 0.07948 0.93385 0.0
H637 H 0.10035 0.09437 0.89198 0.0
H638 H 0.01824 0.98634 0.86853 0.0
H639 H 0.0172 0.96997 0.90919 0.0
H640 H 0.07185 0.99243 0.83665 0.0
H641 H 0.97214 0.09013 0.88119 0.0
H642 H 0.94976 0.14602 0.91157 0.0
H643 H 0.05384 0.22255 0.88318 0.0
H644 H 0.07793 0.16682 0.8531 0.0
H645 H 0.95155 0.04391 0.73239 0.0
H646 H 0.9641 0.03794 0.77503 0.0
H647 H 0.09372 0.10978 0.77553 0.0
H648 H 0.08285 0.11456 0.73261 0.0
H649 H 0.02393 0.12657 0.81778 0.0
H650 H 0.11198 0.01814 0.76992 0.0
H651 H 0.11483 0.96003 0.73849 0.0
H652 H 0.00358 0.90077 0.77409 0.0
H653 H -0.00027 0.95873 0.80556 0.0
C654 C 0.08016 0.05824 0.9195 0.0
C655 C 0.0555 0.0237 0.92478 0.0
C656 C 0.08209 0.06719 0.89564 0.0
C657 C 0.05843 0.04216 0.87695 0.0
C658 C 0.03687 0.00639 0.8823 0.0
C659 C 0.03623 -0.00302 0.90573 0.0
C660 C 0.05437 0.05261 0.85185 0.0
C661 C 0.06096 0.02184 0.83281 0.0
C662 C 0.04041 0.09099 0.84635 0.0
C663 C 0.02749 0.12403 0.86516 0.0
C664 C 0.99087 0.11867 0.88169 0.0
C665 C 0.97785 0.15035 0.89885 0.0
C666 C 0.00074 0.1877 0.89947 0.0
C667 C 0.03661 0.19347 0.88289 0.0
C668 C 0.05002 0.16183 0.86581 0.0
C669 C 0.9829 0.05834 0.74146 0.0
C670 C 0.01651 0.07931 0.72887 0.0
C671 C 0.98968 0.05523 0.7659 0.0
C672 C 0.02988 0.07336 0.77832 0.0
C673 C 0.06232 0.09581 0.76622 0.0
C674 C 0.05591 0.09857 0.74168 0.0
C675 C 0.04003 0.06613 0.80338 0.0
C676 C 0.03496 0.09746 0.8221 0.0
C677 C 0.05259 0.02775 0.80884 0.0
C678 C 0.05541 0.99285 0.78999 0.0
C679 C 0.08794 0.99283 0.77094 0.0
C680 C 0.08977 0.95989 0.75315 0.0
C681 C 0.05937 0.92675 0.75427 0.0
C682 C 0.02712 0.92644 0.77323 0.0
C683 C 0.02515 0.95929 0.79106 0.0
H684 H 0.06084 0.9013 0.74048 0.0
H685 H 0.99046 0.21224 0.91268 0.0
H686 H 0.60716 0.46063 0.58386 0.0
H687 H 0.59348 0.4536 0.626 0.0
H688 H 0.48645 0.54578 0.62927 0.0
H689 H 0.5005 0.5531 0.58669 0.0
H690 H 0.55775 0.56208 0.66322 0.0
H691 H 0.45641 0.44607 0.63627 0.0
H692 H 0.4372 0.3801 0.61327 0.0
H693 H 0.55745 0.32849 0.64592 0.0
H694 H 0.57757 0.39388 0.66904 0.0
H695 H 0.49016 0.54418 0.78364 0.0
H696 H 0.48997 0.54408 0.74011 0.0
H697 H 0.60697 0.46082 0.73417 0.0
H698 H 0.60947 0.46231 0.77791 0.0
H699 H 0.5279 0.43925 0.70195 0.0
H700 H 0.63664 0.54531 0.72519 0.0
H701 H 0.66832 0.60704 0.74859 0.0
H702 H 0.55281 0.67387 0.72236 0.0
H703 H 0.51988 0.61225 0.69908 0.0
C704 C 0.5798 0.4787 0.59341 0.0
C705 C 0.55511 0.50764 0.58217 0.0
C706 C 0.57179 0.47447 0.61747 0.0
C707 C 0.53886 0.49906 0.63081 0.0
C708 C 0.51195 0.52641 0.61924 0.0
C709 C 0.5197 0.53042 0.59494 0.0
C710 C 0.53744 0.49952 0.65731 0.0
C711 C 0.5499 0.53545 0.6717 0.0
C712 C 0.5304 0.46416 0.6683 0.0
C713 C 0.51858 0.42493 0.65421 0.0
C714 C 0.47887 0.42067 0.63837 0.0
C715 C 0.46778 0.38344 0.62537 0.0
C716 C 0.49608 0.35028 0.62805 0.0
C717 C 0.53553 0.35421 0.64383 0.0
C718 C 0.54672 0.39131 0.65694 0.0
C719 C 0.5166 0.52643 0.77324 0.0
C720 C 0.54999 0.50338 0.78443 0.0
C721 C 0.51611 0.52619 0.74832 0.0
C722 C 0.54845 0.50247 0.73404 0.0
C723 C 0.58157 0.47915 0.74497 0.0
C724 C 0.58269 0.4799 0.76996 0.0
C725 C 0.54712 0.50184 0.70764 0.0
C726 C 0.53474 0.46597 0.69338 0.0
C727 C 0.55606 0.53679 0.69668 0.0
C728 C 0.57534 0.57402 0.71069 0.0
C729 C 0.6176 0.57306 0.72464 0.0
C730 C 0.63589 0.60805 0.73783 0.0
C731 C 0.61247 0.64433 0.73705 0.0
C732 C 0.57081 0.6457 0.723 0.0
C733 C 0.55231 0.61074 0.7098 0.0
H734 H 0.6267 0.67141 0.74726 0.0
H735 H 0.48736 0.32154 0.61794 0.0
H736 H 0.61198 0.55687 0.43093 0.0
H737 H 0.62242 0.56603 0.3881 0.0
H738 H 0.47986 0.51644 0.37221 0.0
H739 H 0.47105 0.50461 0.4131 0.0
H740 H 0.52956 0.48878 0.33906 0.0
H741 H 0.51141 0.62139 0.381 0.0
H742 H 0.53225 0.68126 0.40934 0.0
H743 H 0.66603 0.69388 0.3731 0.0
H744 H 0.64627 0.63363 0.34476 0.0
H745 H 0.44293 0.56561 0.23549 0.0
H746 H 0.45646 0.55889 0.27804 0.0
H747 H 0.60808 0.58233 0.27022 0.0
H748 H 0.59486 0.58909 0.22765 0.0
H749 H 0.56888 0.62121 0.3135 0.0
H750 H 0.56622 0.4864 0.26734 0.0
H751 H 0.52628 0.43319 0.2395 0.0
H752 H 0.4053 0.43379 0.28663 0.0
H753 H 0.44427 0.48724 0.31459 0.0
C754 C 0.58361 0.54717 0.41805 0.0
C755 C 0.54061 0.53035 0.42563 0.0
C756 C 0.58925 0.55286 0.39367 0.0
C757 C 0.5517 0.54226 0.37681 0.0
C758 C 0.50969 0.52464 0.38453 0.0
C759 C 0.50457 0.51822 0.40828 0.0
C760 C 0.55399 0.54921 0.35105 0.0
C761 C 0.53817 0.51791 0.33365 0.0
C762 C 0.56534 0.58701 0.34366 0.0
C763 C 0.5778 0.62257 0.36106 0.0
C764 C 0.54556 0.63662 0.37927 0.0
C765 C 0.5571 0.6707 0.39529 0.0
C766 C 0.60054 0.69127 0.3931 0.0
C767 C 0.63249 0.67781 0.37485 0.0
C768 C 0.62117 0.64367 0.35883 0.0
C769 C 0.47914 0.56935 0.24284 0.0
C770 C 0.51789 0.57751 0.22817 0.0
C771 C 0.48679 0.56567 0.26715 0.0
C772 C 0.5334 0.56958 0.27717 0.0
C773 C 0.57186 0.5792 0.26282 0.0
C774 C 0.56422 0.58308 0.23852 0.0
C775 C 0.5424 0.56139 0.30221 0.0
C776 C 0.56091 0.59215 0.31916 0.0
C777 C 0.53071 0.52382 0.30961 0.0
C778 C 0.50816 0.49086 0.29301 0.0
C779 C 0.53109 0.47521 0.27173 0.0
C780 C 0.5086 0.44502 0.25593 0.0
C781 C 0.46329 0.43014 0.26129 0.0
C782 C 0.44042 0.4453 0.2825 0.0
C783 C 0.46273 0.47547 0.29835 0.0
H784 H 0.44591 0.40683 0.24902 0.0
H785 H 0.60936 0.71771 0.40548 0.0
loop_
_geom_bond_atom_site_label_1
_geom_bond_atom_site_label_2
_geom_bond_distance
_geom_bond_site_symmetry_2
_ccdc_geom_bond_type
O0 Mn1 2.163 . S
O0 C14 1.244 1_455 S
Mn1 O0 2.163 . S
Mn1 O4 2.160 1_545 S
Mn1 O5 2.221 . S
Mn1 O7 2.163 . S
Mn1 O9 2.160 1_554 S
Mn1 O19 2.221 1_444 S
O2 Mn3 2.087 . S
O2 C14 1.256 1_556 S
Mn3 O2 2.087 . S
Mn3 O10 2.089 . S
Mn3 O19 2.290 1_545 S
Mn3 O20 2.251 1_546 S
O4 Mn1 2.160 1_565 S
O4 C15 1.240 . S
O5 Mn1 2.221 . S
O5 Mn6 2.290 . S
O5 C16 1.278 . S
Mn6 O5 2.290 . S
Mn6 O8 2.089 1_545 S
Mn6 O11 2.251 . S
Mn6 O12 2.087 . S
O7 Mn1 2.163 . S
O7 C17 1.244 . S
O8 Mn6 2.089 1_565 S
O8 C15 1.256 . S
O9 Mn1 2.160 1_556 S
O9 C18 1.239 . S
O10 Mn3 2.089 . S
O10 C18 1.256 1_655 S
O11 Mn6 2.251 . S
O11 C16 1.241 . S
O12 Mn6 2.087 . S
O12 C17 1.256 . S
C13 O19 1.278 1_554 S
C13 O20 1.241 . S
C14 O0 1.244 1_655 S
C14 O2 1.256 1_554 S
C15 O4 1.240 . S
C15 O8 1.256 . S
C16 O5 1.278 . S
C16 O11 1.241 . S
C17 O7 1.244 . S
C17 O12 1.256 . S
C18 O9 1.239 . S
C18 O10 1.256 1_455 S
O19 Mn1 2.221 1_666 S
O19 Mn3 2.290 1_565 S
O19 C13 1.278 1_556 S
O20 Mn3 2.251 1_564 S
O20 C13 1.241 . S
O21 Mn22 2.163 . S
O21 C35 1.244 . S
Mn22 O21 2.163 . S
Mn22 O25 2.160 . S
Mn22 O26 2.221 . S
Mn22 O28 2.163 . S
Mn22 O30 2.160 . S
Mn22 O40 2.221 . S
O23 Mn24 2.087 . S
O23 C35 1.256 . S
Mn24 O23 2.087 . S
Mn24 O31 2.089 . S
Mn24 O40 2.290 . S
Mn24 O41 2.251 . S
O25 Mn22 2.160 . S
O25 C36 1.239 . S
O26 Mn22 2.221 . S
O26 Mn27 2.290 . S
O26 C37 1.278 . S
Mn27 O26 2.290 . S
Mn27 O29 2.089 . S
Mn27 O32 2.251 . S
Mn27 O33 2.087 . S
O28 Mn22 2.163 . S
O28 C38 1.244 . S
O29 Mn27 2.089 . S
O29 C36 1.256 . S
O30 Mn22 2.160 . S
O30 C39 1.239 . S
O31 Mn24 2.089 . S
O31 C39 1.256 . S
O32 Mn27 2.251 . S
O32 C37 1.241 . S
O33 Mn27 2.087 . S
O33 C38 1.256 . S
C34 O40 1.278 . S
C34 O41 1.241 . S
C35 O21 1.244 . S
C35 O23 1.256 . S
C36 O25 1.239 . S
C36 O29 1.256 . S
C37 O26 1.278 . S
C37 O32 1.241 . S
C38 O28 1.244 . S
C38 O33 1.256 . S
C39 O30 1.239 . S
C39 O31 1.256 . S
O40 Mn22 2.221 . S
O40 Mn24 2.290 . S
O40 C34 1.278 . S
O41 Mn24 2.251 . S
O41 C34 1.241 . S
C42 C43 1.384 . S
C42 H55 0.947 . S
C42 C77 1.382 . S
C43 C42 1.384 . S
C43 C44 1.378 . S
C44 C43 1.378 . S
C44 C45 1.378 . S
C44 H56 0.952 . S
C45 C44 1.378 . S
C45 H57 0.950 1_655 S
C45 C76 1.383 . S
H46 C65 0.947 . S
H47 C66 0.946 . S
H48 C68 0.953 . S
H49 C69 0.945 . S
H50 C71 0.952 . S
H51 C72 0.949 . S
H52 C74 0.950 . S
H53 C75 0.948 . S
H54 C77 0.951 . S
H55 C42 0.947 . S
H56 C44 0.952 . S
H57 C45 0.950 1_455 S
N58 C61 1.382 1_545 S
N58 C63 1.363 . S
N59 C61 1.371 . S
N59 C62 1.372 1_565 S
N60 C62 1.361 . S
N60 C63 1.377 . S
C61 N58 1.382 1_565 S
C61 N59 1.371 . S
C61 C64 1.480 . S
C62 N59 1.372 1_545 S
C62 N60 1.361 . S
C62 C70 1.457 . S
C63 N58 1.363 . S
C63 N60 1.377 . S
C63 C76 1.479 1_455 S
C64 C61 1.480 . S
C64 C65 1.383 . S
C64 C69 1.385 . S
C65 H46 0.947 . S
C65 C64 1.383 . S
C65 C66 1.388 . S
C66 H47 0.946 . S
C66 C65 1.388 . S
C66 C67 1.384 . S
C67 C66 1.384 . S
C67 C68 1.377 . S
C68 H48 0.953 . S
C68 C67 1.377 . S
C68 C69 1.369 . S
C69 H49 0.945 . S
C69 C64 1.385 . S
C69 C68 1.369 . S
C70 C62 1.457 . S
C70 C71 1.372 1_545 S
C70 C75 1.364 . S
C71 H50 0.952 . S
C71 C70 1.372 1_565 S
C71 C72 1.389 . S
C72 H51 0.949 . S
C72 C71 1.389 . S
C72 C73 1.376 1_565 S
C73 C72 1.376 1_545 S
C73 C74 1.382 . S
C74 H52 0.950 . S
C74 C73 1.382 . S
C74 C75 1.379 . S
C75 H53 0.948 . S
C75 C70 1.364 . S
C75 C74 1.379 . S
C76 C45 1.383 . S
C76 C63 1.479 1_655 S
C76 C77 1.398 . S
C77 C42 1.382 . S
C77 H54 0.951 . S
C77 C76 1.398 . S
C78 C79 1.384 . S
C78 H91 0.947 . S
C78 C113 1.382 . S
C79 C78 1.384 . S
C79 C80 1.378 . S
C80 C79 1.378 . S
C80 C81 1.378 1_565 S
C80 H92 0.952 . S
C81 C80 1.378 1_545 S
C81 H93 0.950 . S
C81 C112 1.383 . S
H82 C101 0.947 . S
H83 C102 0.946 . S
H84 C104 0.953 . S
H85 C105 0.945 . S
H86 C107 0.952 . S
H87 C108 0.949 . S
H88 C110 0.950 . S
H89 C111 0.948 . S
H90 C113 0.951 1_545 S
H91 C78 0.947 . S
H92 C80 0.952 . S
H93 C81 0.950 . S
N94 C97 1.382 . S
N94 C99 1.363 1_455 S
N95 C97 1.371 . S
N95 C98 1.372 . S
N96 C98 1.361 1_655 S
N96 C99 1.377 . S
C97 N94 1.382 . S
C97 N95 1.371 . S
C97 C100 1.480 . S
C98 N95 1.372 . S
C98 N96 1.361 1_455 S
C98 C106 1.457 . S
C99 N94 1.363 1_655 S
C99 N96 1.377 . S
C99 C112 1.479 . S
C100 C97 1.480 . S
C100 C101 1.383 . S
C100 C105 1.385 . S
C101 H82 0.947 . S
C101 C100 1.383 . S
C101 C102 1.388 . S
C102 H83 0.946 . S
C102 C101 1.388 . S
C102 C103 1.384 . S
C103 C102 1.384 . S
C103 C104 1.377 . S
C104 H84 0.953 . S
C104 C103 1.377 . S
C104 C105 1.369 . S
C105 H85 0.945 . S
C105 C100 1.385 . S
C105 C104 1.369 . S
C106 C98 1.457 . S
C106 C107 1.372 . S
C106 C111 1.364 1_455 S
C107 H86 0.952 . S
C107 C106 1.372 . S
C107 C108 1.389 . S
C108 H87 0.949 . S
C108 C107 1.389 . S
C108 C109 1.387 . S
C109 C108 1.387 . S
C109 C110 1.372 1_455 S
C110 H88 0.950 . S
C110 C109 1.372 1_655 S
C110 C111 1.379 . S
C111 H89 0.948 . S
C111 C106 1.364 1_655 S
C111 C110 1.379 . S
C112 C81 1.383 . S
C112 C99 1.479 . S
C112 C113 1.398 1_545 S
C113 C78 1.382 . S
C113 H90 0.951 1_565 S
C113 C112 1.398 1_565 S
C114 C115 1.384 . S
C114 H127 0.947 . S
C114 C149 1.382 . S
C115 C114 1.384 . S
C115 C116 1.378 . S
C116 C115 1.378 . S
C116 C117 1.378 . S
C116 H128 0.997 . S
C117 C116 1.378 . S
C117 H129 0.950 . S
C117 C148 1.383 . S
H118 C137 0.947 . S
H119 C138 0.946 . S
H120 C140 0.953 . S
H121 C141 0.945 . S
H122 C143 0.952 . S
H123 C144 0.949 . S
H124 C146 0.950 . S
H125 C147 0.948 . S
H126 C149 0.951 . S
H127 C114 0.947 . S
H128 C116 0.997 . S
H129 C117 0.950 . S
N130 C133 1.382 . S
N130 C135 1.363 . S
N131 C133 1.371 . S
N131 C134 1.372 . S
N132 C134 1.361 . S
N132 C135 1.377 . S
C133 N130 1.382 . S
C133 N131 1.371 . S
C133 C136 1.480 . S
C134 N131 1.372 . S
C134 N132 1.361 . S
C134 C142 1.457 . S
C135 N130 1.363 . S
C135 N132 1.377 . S
C135 C148 1.479 . S
C136 C133 1.480 . S
C136 C137 1.383 . S
C136 C141 1.385 . S
C137 H118 0.947 . S
C137 C136 1.383 . S
C137 C138 1.388 . S
C138 H119 0.946 . S
C138 C137 1.388 . S
C138 C139 1.384 . S
C139 C138 1.384 . S
C139 C140 1.377 . S
C140 H120 0.953 . S
C140 C139 1.377 . S
C140 C141 1.369 . S
C141 H121 0.945 . S
C141 C136 1.385 . S
C141 C140 1.369 . S
C142 C134 1.457 . S
C142 C143 1.372 . S
C142 C147 1.364 . S
C143 H122 0.952 . S
C143 C142 1.372 . S
C143 C144 1.389 . S
C144 H123 0.949 . S
C144 C143 1.389 . S
C144 C145 1.387 . S
C145 C144 1.387 . S
C145 C146 1.372 . S
C146 H124 0.950 . S
C146 C145 1.372 . S
C146 C147 1.379 . S
C147 H125 0.948 . S
C147 C142 1.364 . S
C147 C146 1.379 . S
C148 C117 1.383 . S
C148 C135 1.479 . S
C148 C149 1.398 . S
C149 C114 1.382 . S
C149 H126 0.951 . S
C149 C148 1.398 . S
C150 C151 1.384 . S
C150 H163 0.947 . S
C150 C185 1.382 . S
C151 C150 1.384 . S
C151 C152 1.378 . S
C152 C151 1.378 . S
C152 C153 1.378 . S
C152 H164 0.952 . S
C153 C152 1.378 . S
C153 H165 0.950 . S
C153 C184 1.383 . S
H154 C173 0.947 . S
H155 C174 0.946 . S
H156 C176 0.953 . S
H157 C177 0.945 . S
H158 C179 0.952 . S
H159 C180 0.949 . S
H160 C182 0.950 . S
H161 C183 0.948 . S
H162 C185 0.951 . S
H163 C150 0.947 . S
H164 C152 0.952 . S
H165 C153 0.950 . S
N166 C169 1.382 . S
N166 C171 1.363 . S
N167 C169 1.371 . S
N167 C170 1.372 . S
N168 C170 1.361 . S
N168 C171 1.377 . S
C169 N166 1.382 . S
C169 N167 1.371 . S
C169 C172 1.480 . S
C170 N167 1.372 . S
C170 N168 1.361 . S
C170 C178 1.457 . S
C171 N166 1.363 . S
C171 N168 1.377 . S
C171 C184 1.479 . S
C172 C169 1.480 . S
C172 C173 1.383 . S
C172 C177 1.385 . S
C173 H154 0.947 . S
C173 C172 1.383 . S
C173 C174 1.388 . S
C174 H155 0.946 . S
C174 C173 1.388 . S
C174 C175 1.384 . S
C175 C174 1.384 . S
C175 C176 1.377 . S
C176 H156 0.953 . S
C176 C175 1.377 . S
C176 C177 1.369 . S
C177 H157 0.945 . S
C177 C172 1.385 . S
C177 C176 1.369 . S
C178 C170 1.457 . S
C178 C179 1.372 . S
C178 C183 1.364 . S
C179 H158 0.952 . S
C179 C178 1.372 . S
C179 C180 1.389 . S
C180 H159 0.949 . S
C180 C179 1.389 . S
C180 C181 1.387 . S
C181 C180 1.387 . S
C181 C182 1.372 . S
C182 H160 0.950 . S
C182 C181 1.372 . S
C182 C183 1.379 . S
C183 H161 0.948 . S
C183 C178 1.364 . S
C183 C182 1.379 . S
C184 C153 1.383 . S
C184 C171 1.479 . S
C184 C185 1.398 . S
C185 C150 1.382 . S
C185 H162 0.951 . S
C185 C184 1.398 . S
H186 C204 0.951 . S
H187 C206 0.951 . S
H188 C208 0.950 . S
H189 C209 0.950 . S
H190 C211 0.950 . S
H191 C214 0.950 . S
H192 C215 0.950 . S
H193 C217 0.950 . S
H194 C218 0.950 . S
H195 C219 0.951 . S
H196 C221 0.951 . S
H197 C223 0.950 . S
H198 C224 0.950 . S
H199 C226 0.950 1_556 S
H200 C229 0.950 . S
H201 C230 0.950 . S
H202 C232 0.950 . S
H203 C233 0.950 . S
C204 H186 0.951 . S
C204 C205 1.366 . S
C204 C206 1.388 . S
C205 C204 1.366 . S
C205 C209 1.385 . S
C206 H187 0.951 . S
C206 C204 1.388 . S
C206 C207 1.366 . S
C207 C206 1.366 . S
C207 C208 1.414 . S
C207 C210 1.499 . S
C208 H188 0.950 . S
C208 C207 1.414 . S
C208 C209 1.374 . S
C209 H189 0.950 . S
C209 C205 1.385 . S
C209 C208 1.374 . S
C210 C207 1.499 . S
C210 C211 1.373 . S
C210 C212 1.389 . S
C211 H190 0.950 . S
C211 C210 1.373 . S
C211 C227 1.377 . S
C212 C210 1.389 . S
C212 C213 1.524 1_554 S
C212 C226 1.377 . S
C213 C212 1.524 1_556 S
C213 C214 1.397 . S
C213 C218 1.363 . S
C214 H191 0.950 . S
C214 C213 1.397 . S
C214 C215 1.334 . S
C215 H192 0.950 . S
C215 C214 1.334 . S
C215 C216 1.287 . S
C216 C215 1.287 . S
C216 C217 1.524 . S
C216 H235 0.913 . S
C217 H193 0.950 . S
C217 C216 1.524 . S
C217 C218 1.415 . S
C218 H194 0.950 . S
C218 C213 1.363 . S
C218 C217 1.415 . S
C219 H195 0.951 . S
C219 C220 1.366 . S
C219 C221 1.388 . S
C220 C219 1.366 . S
C220 C224 1.385 . S
C221 H196 0.951 . S
C221 C219 1.388 . S
C221 C222 1.366 . S
C222 C221 1.366 . S
C222 C223 1.414 . S
C222 C225 1.499 . S
C223 H197 0.950 . S
C223 C222 1.414 . S
C223 C224 1.374 . S
C224 H198 0.950 . S
C224 C220 1.385 . S
C224 C223 1.374 . S
C225 C222 1.499 . S
C225 C226 1.373 . S
C225 C227 1.389 . S
C226 H199 0.950 1_554 S
C226 C212 1.377 . S
C226 C225 1.373 . S
C227 C211 1.377 . S
C227 C225 1.389 . S
C227 C228 1.524 . S
C228 C227 1.524 . S
C228 C229 1.397 . S
C228 C233 1.363 . S
C229 H200 0.950 . S
C229 C228 1.397 . S
C229 C230 1.334 . S
C230 H201 0.950 . S
C230 C229 1.334 . S
C230 C231 1.287 . S
C231 C230 1.287 . S
C231 C232 1.524 . S
C231 H234 0.999 . S
C232 H202 0.950 . S
C232 C231 1.524 . S
C232 C233 1.415 . S
C233 H203 0.950 . S
C233 C228 1.363 . S
C233 C232 1.415 . S
H234 C231 0.999 . S
H235 C216 0.913 . S
H236 C254 0.951 . S
H237 C256 0.951 . S
H238 C258 0.950 . S
H239 C259 0.950 . S
H240 C261 0.950 . S
H241 C264 0.950 . S
H242 C265 0.950 . S
H243 C267 0.950 . S
H244 C268 0.950 . S
H245 C269 0.951 . S
H246 C271 0.951 . S
H247 C273 0.950 . S
H248 C274 0.950 1_554 S
H249 C276 0.950 . S
H250 C279 0.950 . S
H251 C280 0.950 . S
H252 C282 0.950 . S
H253 C283 0.950 . S
C254 H236 0.951 . S
C254 C255 1.366 . S
C254 C256 1.388 . S
C255 C254 1.366 . S
C255 C259 1.385 1_554 S
C256 H237 0.951 . S
C256 C254 1.388 . S
C256 C257 1.348 1_554 S
C257 C256 1.348 1_556 S
C257 C258 1.431 . S
C257 C260 1.500 . S
C258 H238 0.950 . S
C258 C257 1.431 . S
C258 C259 1.374 . S
C259 H239 0.950 . S
C259 C255 1.385 1_556 S
C259 C258 1.374 . S
C260 C257 1.500 . S
C260 C261 1.373 . S
C260 C262 1.389 1_556 S
C261 H240 0.950 . S
C261 C260 1.373 . S
C261 C277 1.377 . S
C262 C260 1.389 1_554 S
C262 C263 1.524 . S
C262 C276 1.377 . S
C263 C262 1.524 . S
C263 C264 1.397 . S
C263 C268 1.363 . S
C264 H241 0.950 . S
C264 C263 1.397 . S
C264 C265 1.334 . S
C265 H242 0.950 . S
C265 C264 1.334 . S
C265 C266 1.287 . S
C266 C265 1.287 . S
C266 C267 1.524 . S
C266 H285 0.913 . S
C267 H243 0.950 . S
C267 C266 1.524 . S
C267 C268 1.415 . S
C268 H244 0.950 . S
C268 C263 1.363 . S
C268 C267 1.415 . S
C269 H245 0.951 . S
C269 C270 1.366 . S
C269 C271 1.388 . S
C270 C269 1.366 . S
C270 C274 1.385 . S
C271 H246 0.951 . S
C271 C269 1.388 . S
C271 C272 1.366 . S
C272 C271 1.366 . S
C272 C273 1.414 1_556 S
C272 C275 1.499 . S
C273 H247 0.950 . S
C273 C272 1.414 1_554 S
C273 C274 1.374 1_554 S
C274 H248 0.950 1_556 S
C274 C270 1.385 . S
C274 C273 1.374 1_556 S
C275 C272 1.499 . S
C275 C276 1.373 1_556 S
C275 C277 1.389 . S
C276 H249 0.950 . S
C276 C262 1.377 . S
C276 C275 1.373 1_554 S
C277 C261 1.377 . S
C277 C275 1.389 . S
C277 C278 1.524 . S
C278 C277 1.524 . S
C278 C279 1.397 . S
C278 C283 1.363 . S
C279 H250 0.950 . S
C279 C278 1.397 . S
C279 C280 1.334 . S
C280 H251 0.950 . S
C280 C279 1.334 . S
C280 C281 1.287 . S
C281 C280 1.287 . S
C281 C282 1.524 . S
C281 H284 0.999 . S
C282 H252 0.950 . S
C282 C281 1.524 . S
C282 C283 1.415 . S
C283 H253 0.950 . S
C283 C278 1.363 . S
C283 C282 1.415 . S
H284 C281 0.999 . S
H285 C266 0.913 . S
H286 C304 0.951 1_556 S
H287 C306 0.951 . S
H288 C308 0.950 . S
H289 C309 0.950 . S
H290 C311 0.950 . S
H291 C314 0.950 . S
H292 C315 0.950 . S
H293 C317 0.950 . S
H294 C318 0.950 . S
H295 C319 0.951 . S
H296 C321 0.951 . S
H297 C323 0.950 . S
H298 C324 0.950 . S
H299 C326 0.950 . S
H300 C329 0.950 1_556 S
H301 C330 0.956 . S
H302 C332 0.950 . S
H303 C333 0.950 . S
C304 H286 0.951 1_554 S
C304 C305 1.366 . S
C304 C306 1.388 . S
C305 C304 1.366 . S
C305 C309 1.385 . S
C306 H287 0.951 . S
C306 C304 1.388 . S
C306 C307 1.366 . S
C307 C306 1.366 . S
C307 C308 1.414 . S
C307 C310 1.499 . S
C308 H288 0.950 . S
C308 C307 1.414 . S
C308 C309 1.374 . S
C309 H289 0.950 . S
C309 C305 1.385 . S
C309 C308 1.374 . S
C310 C307 1.499 . S
C310 C311 1.373 . S
C310 C312 1.389 . S
C311 H290 0.950 . S
C311 C310 1.373 . S
C311 C327 1.377 . S
C312 C310 1.389 . S
C312 C313 1.524 . S
C312 C326 1.377 . S
C313 C312 1.524 . S
C313 C314 1.397 . S
C313 C318 1.363 . S
C314 H291 0.950 . S
C314 C313 1.397 . S
C314 C315 1.334 . S
C315 H292 0.950 . S
C315 C314 1.334 . S
C315 C316 1.287 . S
C316 C315 1.287 . S
C316 C317 1.524 . S
C316 H335 0.913 1_565 S
C317 H293 0.950 . S
C317 C316 1.524 . S
C317 C318 1.415 . S
C318 H294 0.950 . S
C318 C313 1.363 . S
C318 C317 1.415 . S
C319 H295 0.951 . S
C319 C320 1.366 . S
C319 C321 1.388 . S
C320 C319 1.366 . S
C320 C324 1.385 . S
C321 H296 0.951 . S
C321 C319 1.388 . S
C321 C322 1.366 . S
C322 C321 1.366 . S
C322 C323 1.414 . S
C322 C325 1.499 . S
C323 H297 0.950 . S
C323 C322 1.414 . S
C323 C324 1.374 . S
C324 H298 0.950 . S
C324 C320 1.385 . S
C324 C323 1.374 . S
C325 C322 1.499 . S
C325 C326 1.373 . S
C325 C327 1.389 . S
C326 H299 0.950 . S
C326 C312 1.377 . S
C326 C325 1.373 . S
C327 C311 1.377 . S
C327 C325 1.389 . S
C327 C328 1.524 . S
C328 C327 1.524 . S
C328 C329 1.397 . S
C328 C333 1.363 . S
C329 H300 0.950 1_554 S
C329 C328 1.397 . S
C329 C330 1.333 1_554 S
C330 H301 0.956 . S
C330 C329 1.333 1_556 S
C330 C331 1.282 1_556 S
C331 C330 1.282 1_554 S
C331 C332 1.524 . S
C331 H334 0.999 . S
C332 H302 0.950 . S
C332 C331 1.524 . S
C332 C333 1.415 . S
C333 H303 0.950 . S
C333 C328 1.363 . S
C333 C332 1.415 . S
H334 C331 0.999 . S
H335 C316 0.913 1_545 S
H336 C354 0.951 . S
H337 C356 0.951 . S
H338 C358 0.950 . S
H339 C359 0.950 . S
H340 C361 0.950 . S
H341 C364 0.950 . S
H342 C365 0.950 . S
H343 C367 0.950 . S
H344 C368 0.950 1_556 S
H345 C369 0.951 . S
H346 C371 0.951 . S
H347 C373 0.950 . S
H348 C374 0.950 . S
H349 C376 0.950 . S
H350 C379 0.950 . S
H351 C380 0.950 . S
H352 C382 0.950 . S
H353 C383 0.950 . S
C354 H336 0.951 . S
C354 C355 1.366 1_556 S
C354 C356 1.388 . S
C355 C354 1.366 1_554 S
C355 C359 1.385 . S
C356 H337 0.951 . S
C356 C354 1.388 . S
C356 C357 1.366 . S
C357 C356 1.366 . S
C357 C358 1.414 1_556 S
C357 C360 1.499 . S
C358 H338 0.950 . S
C358 C357 1.414 1_554 S
C358 C359 1.374 . S
C359 H339 0.950 . S
C359 C355 1.385 . S
C359 C358 1.374 . S
C360 C357 1.499 . S
C360 C361 1.373 . S
C360 C362 1.389 . S
C361 H340 0.950 . S
C361 C360 1.373 . S
C361 C377 1.377 . S
C362 C360 1.389 . S
C362 C363 1.524 1_556 S
C362 C376 1.377 . S
C363 C362 1.524 1_554 S
C363 C364 1.397 . S
C363 C368 1.363 . S
C364 H341 0.950 . S
C364 C363 1.397 . S
C364 C365 1.334 . S
C365 H342 0.950 . S
C365 C364 1.334 . S
C365 C366 1.287 . S
C366 C365 1.287 . S
C366 C367 1.524 . S
C366 H385 0.913 . S
C367 H343 0.950 . S
C367 C366 1.524 . S
C367 C368 1.415 . S
C368 H344 0.950 1_554 S
C368 C363 1.363 . S
C368 C367 1.415 . S
C369 H345 0.951 . S
C369 C370 1.366 . S
C369 C371 1.388 . S
C370 C369 1.366 . S
C370 C374 1.385 . S
C371 H346 0.951 . S
C371 C369 1.388 . S
C371 C372 1.366 . S
C372 C371 1.366 . S
C372 C373 1.414 . S
C372 C375 1.499 . S
C373 H347 0.950 . S
C373 C372 1.414 . S
C373 C374 1.374 . S
C374 H348 0.950 . S
C374 C370 1.385 . S
C374 C373 1.374 . S
C375 C372 1.499 . S
C375 C376 1.373 . S
C375 C377 1.389 . S
C376 H349 0.950 . S
C376 C362 1.377 . S
C376 C375 1.373 . S
C377 C361 1.377 . S
C377 C375 1.389 . S
C377 C378 1.524 . S
C378 C377 1.524 . S
C378 C379 1.397 . S
C378 C383 1.363 . S
C379 H350 0.950 . S
C379 C378 1.397 . S
C379 C380 1.334 . S
C380 H351 0.950 . S
C380 C379 1.334 . S
C380 C381 1.287 . S
C381 C380 1.287 . S
C381 C382 1.524 . S
C381 H384 0.999 . S
C382 H352 0.950 . S
C382 C381 1.524 . S
C382 C383 1.415 . S
C383 H353 0.950 . S
C383 C378 1.363 . S
C383 C382 1.415 . S
H384 C381 0.999 . S
H385 C366 0.913 . S
H386 C404 0.951 . S
H387 C406 0.951 . S
H388 C408 0.950 . S
H389 C409 0.950 . S
H390 C411 0.950 . S
H391 C414 0.950 . S
H392 C415 0.950 . S
H393 C417 0.950 . S
H394 C418 0.950 . S
H395 C419 0.951 . S
H396 C421 0.951 . S
H397 C423 0.950 . S
H398 C424 0.950 . S
H399 C426 0.950 . S
H400 C429 0.950 . S
H401 C430 0.950 . S
H402 C432 0.950 . S
H403 C433 0.950 . S
C404 H386 0.951 . S
C404 C405 1.366 . S
C404 C406 1.388 . S
C405 C404 1.366 . S
C405 C409 1.385 . S
C406 H387 0.951 . S
C406 C404 1.388 . S
C406 C407 1.366 . S
C407 C406 1.366 . S
C407 C408 1.414 . S
C407 C410 1.499 . S
C408 H388 0.950 . S
C408 C407 1.414 . S
C408 C409 1.374 . S
C409 H389 0.950 . S
C409 C405 1.385 . S
C409 C408 1.374 . S
C410 C407 1.499 . S
C410 C411 1.373 . S
C410 C412 1.389 . S
C411 H390 0.950 . S
C411 C410 1.373 . S
C411 C427 1.377 . S
C412 C410 1.389 . S
C412 C413 1.524 . S
C412 C426 1.377 . S
C413 C412 1.524 . S
C413 C414 1.397 . S
C413 C418 1.363 . S
C414 H391 0.950 . S
C414 C413 1.397 . S
C414 C415 1.334 . S
C415 H392 0.950 . S
C415 C414 1.334 . S
C415 C416 1.287 . S
C416 C415 1.287 . S
C416 C417 1.524 . S
C416 H435 0.913 . S
C417 H393 0.950 . S
C417 C416 1.524 . S
C417 C418 1.415 . S
C418 H394 0.950 . S
C418 C413 1.363 . S
C418 C417 1.415 . S
C419 H395 0.951 . S
C419 C420 1.366 . S
C419 C421 1.388 . S
C420 C419 1.366 . S
C420 C424 1.385 . S
C421 H396 0.951 . S
C421 C419 1.388 . S
C421 C422 1.366 . S
C422 C421 1.366 . S
C422 C423 1.414 . S
C422 C425 1.499 . S
C423 H397 0.950 . S
C423 C422 1.414 . S
C423 C424 1.374 . S
C424 H398 0.950 . S
C424 C420 1.385 . S
C424 C423 1.374 . S
C425 C422 1.499 . S
C425 C426 1.373 . S
C425 C427 1.389 . S
C426 H399 0.950 . S
C426 C412 1.377 . S
C426 C425 1.373 . S
C427 C411 1.377 . S
C427 C425 1.389 . S
C427 C428 1.524 . S
C428 C427 1.524 . S
C428 C429 1.397 . S
C428 C433 1.363 . S
C429 H400 0.950 . S
C429 C428 1.397 . S
C429 C430 1.334 . S
C430 H401 0.950 . S
C430 C429 1.334 . S
C430 C431 1.287 . S
C431 C430 1.287 . S
C431 C432 1.524 . S
C431 H434 0.999 . S
C432 H402 0.950 . S
C432 C431 1.524 . S
C432 C433 1.415 . S
C433 H403 0.950 . S
C433 C428 1.363 . S
C433 C432 1.415 . S
H434 C431 0.999 . S
H435 C416 0.913 . S
H436 C454 0.951 . S
H437 C456 0.951 . S
H438 C458 0.950 . S
H439 C459 0.950 . S
H440 C461 0.950 . S
H441 C464 0.950 . S
H442 C465 0.950 . S
H443 C467 0.950 . S
H444 C468 0.950 . S
H445 C469 0.951 . S
H446 C471 0.951 . S
H447 C473 0.950 . S
H448 C474 0.950 . S
H449 C476 0.950 . S
H450 C479 0.950 . S
H451 C480 0.950 . S
H452 C482 0.950 . S
H453 C483 0.950 . S
C454 H436 0.951 . S
C454 C455 1.366 . S
C454 C456 1.388 . S
C455 C454 1.366 . S
C455 C459 1.385 . S
C456 H437 0.951 . S
C456 C454 1.388 . S
C456 C457 1.366 . S
C457 C456 1.366 . S
C457 C458 1.414 . S
C457 C460 1.499 . S
C458 H438 0.950 . S
C458 C457 1.414 . S
C458 C459 1.374 . S
C459 H439 0.950 . S
C459 C455 1.385 . S
C459 C458 1.374 . S
C460 C457 1.499 . S
C460 C461 1.373 . S
C460 C462 1.389 . S
C461 H440 0.950 . S
C461 C460 1.373 . S
C461 C477 1.377 . S
C462 C460 1.389 . S
C462 C463 1.524 . S
C462 C476 1.377 . S
C463 C462 1.524 . S
C463 C464 1.397 . S
C463 C468 1.363 . S
C464 H441 0.950 . S
C464 C463 1.397 . S
C464 C465 1.334 . S
C465 H442 0.950 . S
C465 C464 1.334 . S
C465 C466 1.287 . S
C466 C465 1.287 . S
C466 C467 1.524 . S
C466 H485 0.913 . S
C467 H443 0.950 . S
C467 C466 1.524 . S
C467 C468 1.415 . S
C468 H444 0.950 . S
C468 C463 1.363 . S
C468 C467 1.415 . S
C469 H445 0.951 . S
C469 C470 1.366 . S
C469 C471 1.388 . S
C470 C469 1.366 . S
C470 C474 1.385 . S
C471 H446 0.951 . S
C471 C469 1.388 . S
C471 C472 1.366 . S
C472 C471 1.366 . S
C472 C473 1.414 . S
C472 C475 1.499 . S
C473 H447 0.950 . S
C473 C472 1.414 . S
C473 C474 1.374 . S
C474 H448 0.950 . S
C474 C470 1.385 . S
C474 C473 1.374 . S
C475 C472 1.499 . S
C475 C476 1.373 . S
C475 C477 1.389 . S
C476 H449 0.950 . S
C476 C462 1.377 . S
C476 C475 1.373 . S
C477 C461 1.377 . S
C477 C475 1.389 . S
C477 C478 1.524 . S
C478 C477 1.524 . S
C478 C479 1.397 . S
C478 C483 1.363 . S
C479 H450 0.950 . S
C479 C478 1.397 . S
C479 C480 1.334 . S
C480 H451 0.950 . S
C480 C479 1.334 . S
C480 C481 1.287 . S
C481 C480 1.287 . S
C481 C482 1.524 . S
C481 H484 0.999 . S
C482 H452 0.950 . S
C482 C481 1.524 . S
C482 C483 1.415 . S
C483 H453 0.950 . S
C483 C478 1.363 . S
C483 C482 1.415 . S
H484 C481 0.999 . S
H485 C466 0.913 . S
H486 C504 0.951 . S
H487 C506 0.951 . S
H488 C508 0.950 . S
H489 C509 0.950 . S
H490 C511 0.950 . S
H491 C514 0.950 . S
H492 C515 0.950 . S
H493 C517 0.950 . S
H494 C518 0.950 . S
H495 C519 0.951 . S
H496 C521 0.951 . S
H497 C523 0.950 . S
H498 C524 0.950 . S
H499 C526 0.950 . S
H500 C529 0.950 . S
H501 C530 0.950 . S
H502 C532 0.950 . S
H503 C533 0.950 . S
C504 H486 0.951 . S
C504 C505 1.366 . S
C504 C506 1.388 . S
C505 C504 1.366 . S
C505 C509 1.385 . S
C506 H487 0.951 . S
C506 C504 1.388 . S
C506 C507 1.366 . S
C507 C506 1.366 . S
C507 C508 1.414 . S
C507 C510 1.499 . S
C508 H488 0.950 . S
C508 C507 1.414 . S
C508 C509 1.374 . S
C509 H489 0.950 . S
C509 C505 1.385 . S
C509 C508 1.374 . S
C510 C507 1.499 . S
C510 C511 1.373 . S
C510 C512 1.389 . S
C511 H490 0.950 . S
C511 C510 1.373 . S
C511 C527 1.377 . S
C512 C510 1.389 . S
C512 C513 1.524 . S
C512 C526 1.377 . S
C513 C512 1.524 . S
C513 C514 1.397 . S
C513 C518 1.363 . S
C514 H491 0.950 . S
C514 C513 1.397 . S
C514 C515 1.334 . S
C515 H492 0.950 . S
C515 C514 1.334 . S
C515 C516 1.287 . S
C516 C515 1.287 . S
C516 C517 1.524 . S
C516 H535 0.913 . S
C517 H493 0.950 . S
C517 C516 1.524 . S
C517 C518 1.415 . S
C518 H494 0.950 . S
C518 C513 1.363 . S
C518 C517 1.415 . S
C519 H495 0.951 . S
C519 C520 1.366 . S
C519 C521 1.388 . S
C520 C519 1.366 . S
C520 C524 1.385 . S
C521 H496 0.951 . S
C521 C519 1.388 . S
C521 C522 1.366 . S
C522 C521 1.366 . S
C522 C523 1.414 . S
C522 C525 1.499 . S
C523 H497 0.950 . S
C523 C522 1.414 . S
C523 C524 1.374 . S
C524 H498 0.950 . S
C524 C520 1.385 . S
C524 C523 1.374 . S
C525 C522 1.499 . S
C525 C526 1.373 . S
C525 C527 1.389 . S
C526 H499 0.950 . S
C526 C512 1.377 . S
C526 C525 1.373 . S
C527 C511 1.377 . S
C527 C525 1.389 . S
C527 C528 1.524 . S
C528 C527 1.524 . S
C528 C529 1.397 . S
C528 C533 1.363 . S
C529 H500 0.950 . S
C529 C528 1.397 . S
C529 C530 1.334 . S
C530 H501 0.950 . S
C530 C529 1.334 . S
C530 C531 1.287 . S
C531 C530 1.287 . S
C531 C532 1.524 . S
C531 H534 0.999 . S
C532 H502 0.950 . S
C532 C531 1.524 . S
C532 C533 1.415 . S
C533 H503 0.950 . S
C533 C528 1.363 . S
C533 C532 1.415 . S
H534 C531 0.999 . S
H535 C516 0.913 . S
H536 C554 0.951 . S
H537 C556 0.951 . S
H538 C558 0.950 . S
H539 C559 0.950 . S
H540 C561 0.950 . S
H541 C564 0.950 . S
H542 C565 0.950 . S
H543 C567 0.950 . S
H544 C568 0.950 . S
H545 C569 0.951 . S
H546 C571 0.951 . S
H547 C573 0.950 . S
H548 C574 0.950 . S
H549 C576 0.950 . S
H550 C579 0.950 . S
H551 C580 0.950 . S
H552 C582 0.950 . S
H553 C583 0.950 . S
C554 H536 0.951 . S
C554 C555 1.366 . S
C554 C556 1.388 . S
C555 C554 1.366 . S
C555 C559 1.385 . S
C556 H537 0.951 . S
C556 C554 1.388 . S
C556 C557 1.366 . S
C557 C556 1.366 . S
C557 C558 1.414 . S
C557 C560 1.499 . S
C558 H538 0.950 . S
C558 C557 1.414 . S
C558 C559 1.374 . S
C559 H539 0.950 . S
C559 C555 1.385 . S
C559 C558 1.374 . S
C560 C557 1.499 . S
C560 C561 1.373 . S
C560 C562 1.389 . S
C561 H540 0.950 . S
C561 C560 1.373 . S
C561 C577 1.377 . S
C562 C560 1.389 . S
C562 C563 1.524 . S
C562 C576 1.377 . S
C563 C562 1.524 . S
C563 C564 1.397 . S
C563 C568 1.363 . S
C564 H541 0.950 . S
C564 C563 1.397 . S
C564 C565 1.334 . S
C565 H542 0.950 . S
C565 C564 1.334 . S
C565 C566 1.287 . S
C566 C565 1.287 . S
C566 C567 1.524 . S
C566 H585 0.913 . S
C567 H543 0.950 . S
C567 C566 1.524 . S
C567 C568 1.415 . S
C568 H544 0.950 . S
C568 C563 1.363 . S
C568 C567 1.415 . S
C569 H545 0.951 . S
C569 C570 1.366 . S
C569 C571 1.388 . S
C570 C569 1.366 . S
C570 C574 1.385 . S
C571 H546 0.951 . S
C571 C569 1.388 . S
C571 C572 1.366 . S
C572 C571 1.366 . S
C572 C573 1.414 . S
C572 C575 1.499 . S
C573 H547 0.950 . S
C573 C572 1.414 . S
C573 C574 1.374 . S
C574 H548 0.950 . S
C574 C570 1.385 . S
C574 C573 1.374 . S
C575 C572 1.499 . S
C575 C576 1.373 . S
C575 C577 1.389 . S
C576 H549 0.950 . S
C576 C562 1.377 . S
C576 C575 1.373 . S
C577 C561 1.377 . S
C577 C575 1.389 . S
C577 C578 1.524 . S
C578 C577 1.524 . S
C578 C579 1.397 . S
C578 C583 1.363 . S
C579 H550 0.950 . S
C579 C578 1.397 . S
C579 C580 1.334 . S
C580 H551 0.950 . S
C580 C579 1.334 . S
C580 C581 1.287 . S
C581 C580 1.287 . S
C581 C582 1.524 . S
C581 H584 0.999 . S
C582 H552 0.950 . S
C582 C581 1.524 . S
C582 C583 1.415 . S
C583 H553 0.950 . S
C583 C578 1.363 . S
C583 C582 1.415 . S
H584 C581 0.999 . S
H585 C566 0.913 . S
H586 C604 0.951 1_655 S
H587 C606 0.951 1_655 S
H588 C608 0.950 . S
H589 C609 0.950 . S
H590 C611 0.950 . S
H591 C614 0.950 . S
H592 C615 0.950 . S
H593 C617 0.950 . S
H594 C618 0.950 . S
H595 C619 0.951 . S
H596 C621 0.951 . S
H597 C623 0.950 1_655 S
H598 C624 0.950 1_655 S
H599 C626 0.950 1_655 S
H600 C629 0.950 . S
H601 C630 0.950 . S
H602 C632 0.950 . S
H603 C633 0.950 . S
C604 H586 0.951 1_455 S
C604 C605 1.366 . S
C604 C606 1.388 . S
C605 C604 1.366 . S
C605 C609 1.385 . S
C606 H587 0.951 1_455 S
C606 C604 1.388 . S
C606 C607 1.366 . S
C607 C606 1.366 . S
C607 C608 1.414 . S
C607 C610 1.499 . S
C608 H588 0.950 . S
C608 C607 1.414 . S
C608 C609 1.374 . S
C609 H589 0.950 . S
C609 C605 1.385 . S
C609 C608 1.374 . S
C610 C607 1.499 . S
C610 C611 1.373 1_545 S
C610 C612 1.389 . S
C611 H590 0.950 . S
C611 C610 1.373 1_565 S
C611 C627 1.377 . S
C612 C610 1.389 . S
C612 C613 1.524 1_455 S
C612 C626 1.377 . S
C613 C612 1.524 1_655 S
C613 C614 1.397 1_655 S
C613 C618 1.363 . S
C614 H591 0.950 . S
C614 C613 1.397 1_455 S
C614 C615 1.334 1_455 S
C615 H592 0.950 . S
C615 C614 1.334 1_655 S
C615 C616 1.287 . S
C616 C615 1.287 . S
C616 C617 1.524 . S
C616 H635 0.913 . S
C617 H593 0.950 . S
C617 C616 1.524 . S
C617 C618 1.415 . S
C618 H594 0.950 . S
C618 C613 1.363 . S
C618 C617 1.415 . S
C619 H595 0.951 . S
C619 C620 1.366 1_545 S
C619 C621 1.388 . S
C620 C619 1.366 1_565 S
C620 C624 1.385 . S
C621 H596 0.951 . S
C621 C619 1.388 . S
C621 C622 1.366 . S
C622 C621 1.366 . S
C622 C623 1.414 1_545 S
C622 C625 1.499 . S
C623 H597 0.950 1_455 S
C623 C622 1.414 1_565 S
C623 C624 1.374 . S
C624 H598 0.950 1_455 S
C624 C620 1.385 . S
C624 C623 1.374 . S
C625 C622 1.499 . S
C625 C626 1.373 . S
C625 C627 1.389 1_545 S
C626 H599 0.950 1_455 S
C626 C612 1.377 . S
C626 C625 1.373 . S
C627 C611 1.377 . S
C627 C625 1.389 1_565 S
C627 C628 1.524 . S
C628 C627 1.524 . S
C628 C629 1.397 . S
C628 C633 1.363 . S
C629 H600 0.950 . S
C629 C628 1.397 . S
C629 C630 1.334 . S
C630 H601 0.950 . S
C630 C629 1.334 . S
C630 C631 1.287 . S
C631 C630 1.287 . S
C631 C632 1.524 . S
C631 H634 0.999 . S
C632 H602 0.950 . S
C632 C631 1.524 . S
C632 C633 1.415 . S
C633 H603 0.950 . S
C633 C628 1.363 . S
C633 C632 1.415 . S
H634 C631 0.999 . S
H635 C616 0.913 . S
H636 C654 0.951 . S
H637 C656 0.951 . S
H638 C658 0.950 1_655 S
H639 C659 0.950 1_655 S
H640 C661 0.950 . S
H641 C664 0.950 . S
H642 C665 0.950 . S
H643 C667 0.950 . S
H644 C668 0.950 . S
H645 C669 0.951 . S
H646 C671 0.951 . S
H647 C673 0.950 . S
H648 C674 0.950 . S
H649 C676 0.950 . S
H650 C679 0.950 1_545 S
H651 C680 0.950 . S
H652 C682 0.950 . S
H653 C683 0.950 1_655 S
C654 H636 0.951 . S
C654 C655 1.366 . S
C654 C656 1.388 . S
C655 C654 1.366 . S
C655 C659 1.385 . S
C656 H637 0.951 . S
C656 C654 1.388 . S
C656 C657 1.366 . S
C657 C656 1.366 . S
C657 C658 1.414 . S
C657 C660 1.499 . S
C658 H638 0.950 1_455 S
C658 C657 1.414 . S
C658 C659 1.374 . S
C659 H639 0.950 1_455 S
C659 C655 1.385 . S
C659 C658 1.374 . S
C660 C657 1.499 . S
C660 C661 1.373 . S
C660 C662 1.389 . S
C661 H640 0.950 . S
C661 C660 1.373 . S
C661 C677 1.377 . S
C662 C660 1.389 . S
C662 C663 1.524 . S
C662 C676 1.377 . S
C663 C662 1.524 . S
C663 C664 1.397 1_455 S
C663 C668 1.363 . S
C664 H641 0.950 . S
C664 C663 1.397 1_655 S
C664 C665 1.334 . S
C665 H642 0.950 . S
C665 C664 1.334 . S
C665 C666 1.287 . S
C666 C665 1.287 . S
C666 C667 1.524 1_655 S
C666 H685 0.913 . S
C667 H643 0.950 . S
C667 C666 1.524 1_455 S
C667 C668 1.415 . S
C668 H644 0.950 . S
C668 C663 1.363 . S
C668 C667 1.415 . S
C669 H645 0.951 . S
C669 C670 1.366 1_655 S
C669 C671 1.388 . S
C670 C669 1.366 1_455 S
C670 C674 1.385 . S
C671 H646 0.951 . S
C671 C669 1.388 . S
C671 C672 1.366 1_655 S
C672 C671 1.366 1_455 S
C672 C673 1.414 . S
C672 C675 1.499 . S
C673 H647 0.950 . S
C673 C672 1.414 . S
C673 C674 1.374 . S
C674 H648 0.950 . S
C674 C670 1.385 . S
C674 C673 1.374 . S
C675 C672 1.499 . S
C675 C676 1.373 . S
C675 C677 1.389 . S
C676 H649 0.950 . S
C676 C662 1.377 . S
C676 C675 1.373 . S
C677 C661 1.377 . S
C677 C675 1.389 . S
C677 C678 1.524 1_545 S
C678 C677 1.524 1_565 S
C678 C679 1.397 . S
C678 C683 1.363 . S
C679 H650 0.950 1_565 S
C679 C678 1.397 . S
C679 C680 1.334 . S
C680 H651 0.950 . S
C680 C679 1.334 . S
C680 C681 1.287 . S
C681 C680 1.287 . S
C681 C682 1.524 . S
C681 H684 0.999 . S
C682 H652 0.950 . S
C682 C681 1.524 . S
C682 C683 1.415 . S
C683 H653 0.950 1_455 S
C683 C678 1.363 . S
C683 C682 1.415 . S
H684 C681 0.999 . S
H685 C666 0.913 . S
H686 C704 0.951 . S
H687 C706 0.951 . S
H688 C708 0.950 . S
H689 C709 0.950 . S
H690 C711 0.950 . S
H691 C714 0.950 . S
H692 C715 0.950 . S
H693 C717 0.950 . S
H694 C718 0.950 . S
H695 C719 0.951 . S
H696 C721 0.951 . S
H697 C723 0.950 . S
H698 C724 0.950 . S
H699 C726 0.950 . S
H700 C729 0.950 . S
H701 C730 0.950 . S
H702 C732 0.950 . S
H703 C733 0.950 . S
C704 H686 0.951 . S
C704 C705 1.366 . S
C704 C706 1.388 . S
C705 C704 1.366 . S
C705 C709 1.385 . S
C706 H687 0.951 . S
C706 C704 1.388 . S
C706 C707 1.366 . S
C707 C706 1.366 . S
C707 C708 1.414 . S
C707 C710 1.499 . S
C708 H688 0.950 . S
C708 C707 1.414 . S
C708 C709 1.374 . S
C709 H689 0.950 . S
C709 C705 1.385 . S
C709 C708 1.374 . S
C710 C707 1.499 . S
C710 C711 1.373 . S
C710 C712 1.389 . S
C711 H690 0.950 . S
C711 C710 1.373 . S
C711 C727 1.377 . S
C712 C710 1.389 . S
C712 C713 1.524 . S
C712 C726 1.377 . S
C713 C712 1.524 . S
C713 C714 1.397 . S
C713 C718 1.363 . S
C714 H691 0.950 . S
C714 C713 1.397 . S
C714 C715 1.334 . S
C715 H692 0.950 . S
C715 C714 1.334 . S
C715 C716 1.287 . S
C716 C715 1.287 . S
C716 C717 1.524 . S
C716 H735 0.913 . S
C717 H693 0.950 . S
C717 C716 1.524 . S
C717 C718 1.415 . S
C718 H694 0.950 . S
C718 C713 1.363 . S
C718 C717 1.415 . S
C719 H695 0.951 . S
C719 C720 1.366 . S
C719 C721 1.388 . S
C720 C719 1.366 . S
C720 C724 1.385 . S
C721 H696 0.951 . S
C721 C719 1.388 . S
C721 C722 1.366 . S
C722 C721 1.366 . S
C722 C723 1.414 . S
C722 C725 1.499 . S
C723 H697 0.950 . S
C723 C722 1.414 . S
C723 C724 1.374 . S
C724 H698 0.950 . S
C724 C720 1.385 . S
C724 C723 1.374 . S
C725 C722 1.499 . S
C725 C726 1.373 . S
C725 C727 1.389 . S
C726 H699 0.950 . S
C726 C712 1.377 . S
C726 C725 1.373 . S
C727 C711 1.377 . S
C727 C725 1.389 . S
C727 C728 1.524 . S
C728 C727 1.524 . S
C728 C729 1.397 . S
C728 C733 1.363 . S
C729 H700 0.950 . S
C729 C728 1.397 . S
C729 C730 1.334 . S
C730 H701 0.950 . S
C730 C729 1.334 . S
C730 C731 1.287 . S
C731 C730 1.287 . S
C731 C732 1.524 . S
C731 H734 0.999 . S
C732 H702 0.950 . S
C732 C731 1.524 . S
C732 C733 1.415 . S
C733 H703 0.950 . S
C733 C728 1.363 . S
C733 C732 1.415 . S
H734 C731 0.999 . S
H735 C716 0.913 . S
H736 C754 0.951 . S
H737 C756 0.951 . S
H738 C758 0.950 . S
H739 C759 0.950 . S
H740 C761 0.950 . S
H741 C764 0.950 . S
H742 C765 0.950 . S
H743 C767 0.950 . S
H744 C768 0.950 . S
H745 C769 0.951 . S
H746 C771 0.951 . S
H747 C773 0.950 . S
H748 C774 0.950 . S
H749 C776 0.950 . S
H750 C779 0.950 . S
H751 C780 0.950 . S
H752 C782 0.950 . S
H753 C783 0.950 . S
C754 H736 0.951 . S
C754 C755 1.366 . S
C754 C756 1.388 . S
C755 C754 1.366 . S
C755 C759 1.385 . S
C756 H737 0.951 . S
C756 C754 1.388 . S
C756 C757 1.366 . S
C757 C756 1.366 . S
C757 C758 1.414 . S
C757 C760 1.499 . S
C758 H738 0.950 . S
C758 C757 1.414 . S
C758 C759 1.374 . S
C759 H739 0.950 . S
C759 C755 1.385 . S
C759 C758 1.374 . S
C760 C757 1.499 . S
C760 C761 1.373 . S
C760 C762 1.389 . S
C761 H740 0.950 . S
C761 C760 1.373 . S
C761 C777 1.377 . S
C762 C760 1.389 . S
C762 C763 1.524 . S
C762 C776 1.377 . S
C763 C762 1.524 . S
C763 C764 1.397 . S
C763 C768 1.363 . S
C764 H741 0.950 . S
C764 C763 1.397 . S
C764 C765 1.334 . S
C765 H742 0.950 . S
C765 C764 1.334 . S
C765 C766 1.287 . S
C766 C765 1.287 . S
C766 C767 1.524 . S
C766 H785 0.913 . S
C767 H743 0.950 . S
C767 C766 1.524 . S
C767 C768 1.415 . S
C768 H744 0.950 . S
C768 C763 1.363 . S
C768 C767 1.415 . S
C769 H745 0.951 . S
C769 C770 1.366 . S
C769 C771 1.388 . S
C770 C769 1.366 . S
C770 C774 1.385 . S
C771 H746 0.951 . S
C771 C769 1.388 . S
C771 C772 1.366 . S
C772 C771 1.366 . S
C772 C773 1.414 . S
C772 C775 1.499 . S
C773 H747 0.950 . S
C773 C772 1.414 . S
C773 C774 1.374 . S
C774 H748 0.950 . S
C774 C770 1.385 . S
C774 C773 1.374 . S
C775 C772 1.499 . S
C775 C776 1.373 . S
C775 C777 1.389 . S
C776 H749 0.950 . S
C776 C762 1.377 . S
C776 C775 1.373 . S
C777 C761 1.377 . S
C777 C775 1.389 . S
C777 C778 1.524 . S
C778 C777 1.524 . S
C778 C779 1.397 . S
C778 C783 1.363 . S
C779 H750 0.950 . S
C779 C778 1.397 . S
C779 C780 1.334 . S
C780 H751 0.950 . S
C780 C779 1.334 . S
C780 C781 1.287 . S
C781 C780 1.287 . S
C781 C782 1.524 . S
C781 H784 0.999 . S
C782 H752 0.950 . S
C782 C781 1.524 . S
C782 C783 1.415 . S
C783 H753 0.950 . S
C783 C778 1.363 . S
C783 C782 1.415 . S
H784 C781 0.999 . S
H785 C766 0.913 . S
C220 C151 1.393 . S
C205 C16 1.241 . S
C255 C15 1.474 . S
C270 C115 1.469 . S
C305 C13 1.266 . S
C320 C175 1.412 . S
C355 C14 1.269 . S
C370 C139 1.295 . S
C405 C37 1.242 . S
C420 C79 1.394 . S
C455 C36 1.474 . S
C470 C43 1.469 . S
C520 C103 1.412 . S
C505 C34 1.264 . S
C570 C67 1.295 . S
C555 C35 1.269 . S
C605 C17 1.519 . S
C620 C73 1.556 1_565 S
C655 C18 1.368 . S
C670 C109 1.404 . S
C720 C145 1.555 . S
C705 C38 1.519 . S
C755 C39 1.367 . S
C770 C181 1.403 . S
