# Generated by pormake.
# Topology bpr, (3,3)-cn, num edge types: 1
# Building blocks:
#     Node 0, Type 0, BuildingBlock: WUSLED_clean_sbu_0, # of connection points: 3
#     Node 1, Type 0, BuildingBlock: WUSLED_clean_sbu_0, # of connection points: 3
#     Node 2, Type 0, BuildingBlock: WUSLED_clean_sbu_0, # of connection points: 3
#     Node 3, Type 0, BuildingBlock: WUSLED_clean_sbu_0, # of connection points: 3
#     Node 4, Type 0, BuildingBlock: WUSLED_clean_sbu_0, # of connection points: 3
#     Node 5, Type 0, BuildingBlock: WUSLED_clean_sbu_0, # of connection points: 3
#     Node 6, Type 0, BuildingBlock: WUSLED_clean_sbu_0, # of connection points: 3
#     Node 7, Type 0, BuildingBlock: WUSLED_clean_sbu_0, # of connection points: 3
#     Node 8, Type 0, BuildingBlock: WUSLED_clean_sbu_0, # of connection points: 3
#     Node 9, Type 0, BuildingBlock: WUSLED_clean_sbu_0, # of connection points: 3
#     Node 10, Type 0, BuildingBlock: WUSLED_clean_sbu_0, # of connection points: 3
#     Node 11, Type 0, BuildingBlock: WUSLED_clean_sbu_0, # of connection points: 3
#     Node 12, Type 0, BuildingBlock: WUSLED_clean_sbu_0, # of connection points: 3
#     Node 13, Type 0, BuildingBlock: WUSLED_clean_sbu_0, # of connection points: 3
#     Node 14, Type 0, BuildingBlock: WUSLED_clean_sbu_0, # of connection points: 3
#     Node 15, Type 0, BuildingBlock: WUSLED_clean_sbu_0, # of connection points: 3
#     Node 16, Type 0, BuildingBlock: WUSLED_clean_sbu_0, # of connection points: 3
#     Node 17, Type 0, BuildingBlock: WUSLED_clean_sbu_0, # of connection points: 3
#     Node 18, Type 0, BuildingBlock: WUSLED_clean_sbu_0, # of connection points: 3
#     Node 19, Type 0, BuildingBlock: WUSLED_clean_sbu_0, # of connection points: 3
#     Node 20, Type 0, BuildingBlock: WUSLED_clean_sbu_0, # of connection points: 3
#     Node 21, Type 0, BuildingBlock: WUSLED_clean_sbu_0, # of connection points: 3
#     Node 22, Type 0, BuildingBlock: WUSLED_clean_sbu_0, # of connection points: 3
#     Node 23, Type 0, BuildingBlock: WUSLED_clean_sbu_0, # of connection points: 3
#     Node 24, Type 0, BuildingBlock: WUSLED_clean_sbu_0, # of connection points: 3
#     Node 25, Type 0, BuildingBlock: WUSLED_clean_sbu_0, # of connection points: 3
#     Node 26, Type 0, BuildingBlock: WUSLED_clean_sbu_0, # of connection points: 3
#     Node 27, Type 0, BuildingBlock: WUSLED_clean_sbu_0, # of connection points: 3
#     Node 28, Type 0, BuildingBlock: WUSLED_clean_sbu_0, # of connection points: 3
#     Node 29, Type 0, BuildingBlock: WUSLED_clean_sbu_0, # of connection points: 3
#     Node 30, Type 0, BuildingBlock: WUSLED_clean_sbu_0, # of connection points: 3
#     Node 31, Type 0, BuildingBlock: WUSLED_clean_sbu_0, # of connection points: 3
#     Node 32, Type 0, BuildingBlock: WUSLED_clean_sbu_0, # of connection points: 3
#     Node 33, Type 0, BuildingBlock: WUSLED_clean_sbu_0, # of connection points: 3
#     Node 34, Type 0, BuildingBlock: WUSLED_clean_sbu_0, # of connection points: 3
#     Node 35, Type 0, BuildingBlock: WUSLED_clean_sbu_0, # of connection points: 3
#     Node 36, Type 0, BuildingBlock: WUSLED_clean_sbu_0, # of connection points: 3
#     Node 37, Type 0, BuildingBlock: WUSLED_clean_sbu_0, # of connection points: 3
#     Node 38, Type 0, BuildingBlock: WUSLED_clean_sbu_0, # of connection points: 3
#     Node 39, Type 0, BuildingBlock: WUSLED_clean_sbu_0, # of connection points: 3
#     Node 40, Type 0, BuildingBlock: WUSLED_clean_sbu_0, # of connection points: 3
#     Node 41, Type 0, BuildingBlock: WUSLED_clean_sbu_0, # of connection points: 3
#     Node 42, Type 0, BuildingBlock: WUSLED_clean_sbu_0, # of connection points: 3
#     Node 43, Type 0, BuildingBlock: WUSLED_clean_sbu_0, # of connection points: 3
#     Node 44, Type 0, BuildingBlock: WUSLED_clean_sbu_0, # of connection points: 3
#     Node 45, Type 0, BuildingBlock: WUSLED_clean_sbu_0, # of connection points: 3
#     Node 46, Type 0, BuildingBlock: WUSLED_clean_sbu_0, # of connection points: 3
#     Node 47, Type 0, BuildingBlock: WUSLED_clean_sbu_0, # of connection points: 3
#     Node 48, Type 1, BuildingBlock: BETDIP_clean_linker_0, # of connection points: 3
#     Node 49, Type 1, BuildingBlock: BETDIP_clean_linker_0, # of connection points: 3
#     Node 50, Type 1, BuildingBlock: BETDIP_clean_linker_0, # of connection points: 3
#     Node 51, Type 1, BuildingBlock: BETDIP_clean_linker_0, # of connection points: 3
#     Node 52, Type 1, BuildingBlock: BETDIP_clean_linker_0, # of connection points: 3
#     Node 53, Type 1, BuildingBlock: BETDIP_clean_linker_0, # of connection points: 3
#     Node 54, Type 1, BuildingBlock: BETDIP_clean_linker_0, # of connection points: 3
#     Node 55, Type 1, BuildingBlock: BETDIP_clean_linker_0, # of connection points: 3
#     Node 56, Type 1, BuildingBlock: BETDIP_clean_linker_0, # of connection points: 3
#     Node 57, Type 1, BuildingBlock: BETDIP_clean_linker_0, # of connection points: 3
#     Node 58, Type 1, BuildingBlock: BETDIP_clean_linker_0, # of connection points: 3
#     Node 59, Type 1, BuildingBlock: BETDIP_clean_linker_0, # of connection points: 3
#     Node 60, Type 1, BuildingBlock: BETDIP_clean_linker_0, # of connection points: 3
#     Node 61, Type 1, BuildingBlock: BETDIP_clean_linker_0, # of connection points: 3
#     Node 62, Type 1, BuildingBlock: BETDIP_clean_linker_0, # of connection points: 3
#     Node 63, Type 1, BuildingBlock: BETDIP_clean_linker_0, # of connection points: 3
#     Node 64, Type 1, BuildingBlock: BETDIP_clean_linker_0, # of connection points: 3
#     Node 65, Type 1, BuildingBlock: BETDIP_clean_linker_0, # of connection points: 3
#     Node 66, Type 1, BuildingBlock: BETDIP_clean_linker_0, # of connection points: 3
#     Node 67, Type 1, BuildingBlock: BETDIP_clean_linker_0, # of connection points: 3
#     Node 68, Type 1, BuildingBlock: BETDIP_clean_linker_0, # of connection points: 3
#     Node 69, Type 1, BuildingBlock: BETDIP_clean_linker_0, # of connection points: 3
#     Node 70, Type 1, BuildingBlock: BETDIP_clean_linker_0, # of connection points: 3
#     Node 71, Type 1, BuildingBlock: BETDIP_clean_linker_0, # of connection points: 3
#     Node 72, Type 1, BuildingBlock: BETDIP_clean_linker_0, # of connection points: 3
#     Node 73, Type 1, BuildingBlock: BETDIP_clean_linker_0, # of connection points: 3
#     Node 74, Type 1, BuildingBlock: BETDIP_clean_linker_0, # of connection points: 3
#     Node 75, Type 1, BuildingBlock: BETDIP_clean_linker_0, # of connection points: 3
#     Node 76, Type 1, BuildingBlock: BETDIP_clean_linker_0, # of connection points: 3
#     Node 77, Type 1, BuildingBlock: BETDIP_clean_linker_0, # of connection points: 3
#     Node 78, Type 1, BuildingBlock: BETDIP_clean_linker_0, # of connection points: 3
#     Node 79, Type 1, BuildingBlock: BETDIP_clean_linker_0, # of connection points: 3
#     Node 80, Type 1, BuildingBlock: BETDIP_clean_linker_0, # of connection points: 3
#     Node 81, Type 1, BuildingBlock: BETDIP_clean_linker_0, # of connection points: 3
#     Node 82, Type 1, BuildingBlock: BETDIP_clean_linker_0, # of connection points: 3
#     Node 83, Type 1, BuildingBlock: BETDIP_clean_linker_0, # of connection points: 3
#     Node 84, Type 1, BuildingBlock: BETDIP_clean_linker_0, # of connection points: 3
#     Node 85, Type 1, BuildingBlock: BETDIP_clean_linker_0, # of connection points: 3
#     Node 86, Type 1, BuildingBlock: BETDIP_clean_linker_0, # of connection points: 3
#     Node 87, Type 1, BuildingBlock: BETDIP_clean_linker_0, # of connection points: 3
#     Node 88, Type 1, BuildingBlock: BETDIP_clean_linker_0, # of connection points: 3
#     Node 89, Type 1, BuildingBlock: BETDIP_clean_linker_0, # of connection points: 3
#     Node 90, Type 1, BuildingBlock: BETDIP_clean_linker_0, # of connection points: 3
#     Node 91, Type 1, BuildingBlock: BETDIP_clean_linker_0, # of connection points: 3
#     Node 92, Type 1, BuildingBlock: BETDIP_clean_linker_0, # of connection points: 3
#     Node 93, Type 1, BuildingBlock: BETDIP_clean_linker_0, # of connection points: 3
#     Node 94, Type 1, BuildingBlock: BETDIP_clean_linker_0, # of connection points: 3
#     Node 95, Type 1, BuildingBlock: BETDIP_clean_linker_0, # of connection points: 3
#     Edge 96, Type (0, 1), BuildingBlock: KIFKEQ_clean_linker_1, # of connection points: 2
#     Edge 97, Type (0, 1), BuildingBlock: KIFKEQ_clean_linker_1, # of connection points: 2
#     Edge 98, Type (0, 1), BuildingBlock: KIFKEQ_clean_linker_1, # of connection points: 2
#     Edge 99, Type (0, 1), BuildingBlock: KIFKEQ_clean_linker_1, # of connection points: 2
#     Edge 100, Type (0, 1), BuildingBlock: KIFKEQ_clean_linker_1, # of connection points: 2
#     Edge 101, Type (0, 1), BuildingBlock: KIFKEQ_clean_linker_1, # of connection points: 2
#     Edge 102, Type (0, 1), BuildingBlock: KIFKEQ_clean_linker_1, # of connection points: 2
#     Edge 103, Type (0, 1), BuildingBlock: KIFKEQ_clean_linker_1, # of connection points: 2
#     Edge 104, Type (0, 1), BuildingBlock: KIFKEQ_clean_linker_1, # of connection points: 2
#     Edge 105, Type (0, 1), BuildingBlock: KIFKEQ_clean_linker_1, # of connection points: 2
#     Edge 106, Type (0, 1), BuildingBlock: KIFKEQ_clean_linker_1, # of connection points: 2
#     Edge 107, Type (0, 1), BuildingBlock: KIFKEQ_clean_linker_1, # of connection points: 2
#     Edge 108, Type (0, 1), BuildingBlock: KIFKEQ_clean_linker_1, # of connection points: 2
#     Edge 109, Type (0, 1), BuildingBlock: KIFKEQ_clean_linker_1, # of connection points: 2
#     Edge 110, Type (0, 1), BuildingBlock: KIFKEQ_clean_linker_1, # of connection points: 2
#     Edge 111, Type (0, 1), BuildingBlock: KIFKEQ_clean_linker_1, # of connection points: 2
#     Edge 112, Type (0, 1), BuildingBlock: KIFKEQ_clean_linker_1, # of connection points: 2
#     Edge 113, Type (0, 1), BuildingBlock: KIFKEQ_clean_linker_1, # of connection points: 2
#     Edge 114, Type (0, 1), BuildingBlock: KIFKEQ_clean_linker_1, # of connection points: 2
#     Edge 115, Type (0, 1), BuildingBlock: KIFKEQ_clean_linker_1, # of connection points: 2
#     Edge 116, Type (0, 1), BuildingBlock: KIFKEQ_clean_linker_1, # of connection points: 2
#     Edge 117, Type (0, 1), BuildingBlock: KIFKEQ_clean_linker_1, # of connection points: 2
#     Edge 118, Type (0, 1), BuildingBlock: KIFKEQ_clean_linker_1, # of connection points: 2
#     Edge 119, Type (0, 1), BuildingBlock: KIFKEQ_clean_linker_1, # of connection points: 2
#     Edge 120, Type (0, 1), BuildingBlock: KIFKEQ_clean_linker_1, # of connection points: 2
#     Edge 121, Type (0, 1), BuildingBlock: KIFKEQ_clean_linker_1, # of connection points: 2
#     Edge 122, Type (0, 1), BuildingBlock: KIFKEQ_clean_linker_1, # of connection points: 2
#     Edge 123, Type (0, 1), BuildingBlock: KIFKEQ_clean_linker_1, # of connection points: 2
#     Edge 124, Type (0, 1), BuildingBlock: KIFKEQ_clean_linker_1, # of connection points: 2
#     Edge 125, Type (0, 1), BuildingBlock: KIFKEQ_clean_linker_1, # of connection points: 2
#     Edge 126, Type (0, 1), BuildingBlock: KIFKEQ_clean_linker_1, # of connection points: 2
#     Edge 127, Type (0, 1), BuildingBlock: KIFKEQ_clean_linker_1, # of connection points: 2
#     Edge 128, Type (0, 1), BuildingBlock: KIFKEQ_clean_linker_1, # of connection points: 2
#     Edge 129, Type (0, 1), BuildingBlock: KIFKEQ_clean_linker_1, # of connection points: 2
#     Edge 130, Type (0, 1), BuildingBlock: KIFKEQ_clean_linker_1, # of connection points: 2
#     Edge 131, Type (0, 1), BuildingBlock: KIFKEQ_clean_linker_1, # of connection points: 2
#     Edge 132, Type (0, 1), BuildingBlock: KIFKEQ_clean_linker_1, # of connection points: 2
#     Edge 133, Type (0, 1), BuildingBlock: KIFKEQ_clean_linker_1, # of connection points: 2
#     Edge 134, Type (0, 1), BuildingBlock: KIFKEQ_clean_linker_1, # of connection points: 2
#     Edge 135, Type (0, 1), BuildingBlock: KIFKEQ_clean_linker_1, # of connection points: 2
#     Edge 136, Type (0, 1), BuildingBlock: KIFKEQ_clean_linker_1, # of connection points: 2
#     Edge 137, Type (0, 1), BuildingBlock: KIFKEQ_clean_linker_1, # of connection points: 2
#     Edge 138, Type (0, 1), BuildingBlock: KIFKEQ_clean_linker_1, # of connection points: 2
#     Edge 139, Type (0, 1), BuildingBlock: KIFKEQ_clean_linker_1, # of connection points: 2
#     Edge 140, Type (0, 1), BuildingBlock: KIFKEQ_clean_linker_1, # of connection points: 2
#     Edge 141, Type (0, 1), BuildingBlock: KIFKEQ_clean_linker_1, # of connection points: 2
#     Edge 142, Type (0, 1), BuildingBlock: KIFKEQ_clean_linker_1, # of connection points: 2
#     Edge 143, Type (0, 1), BuildingBlock: KIFKEQ_clean_linker_1, # of connection points: 2
#     Edge 144, Type (0, 1), BuildingBlock: KIFKEQ_clean_linker_1, # of connection points: 2
#     Edge 145, Type (0, 1), BuildingBlock: KIFKEQ_clean_linker_1, # of connection points: 2
#     Edge 146, Type (0, 1), BuildingBlock: KIFKEQ_clean_linker_1, # of connection points: 2
#     Edge 147, Type (0, 1), BuildingBlock: KIFKEQ_clean_linker_1, # of connection points: 2
#     Edge 148, Type (0, 1), BuildingBlock: KIFKEQ_clean_linker_1, # of connection points: 2
#     Edge 149, Type (0, 1), BuildingBlock: KIFKEQ_clean_linker_1, # of connection points: 2
#     Edge 150, Type (0, 1), BuildingBlock: KIFKEQ_clean_linker_1, # of connection points: 2
#     Edge 151, Type (0, 1), BuildingBlock: KIFKEQ_clean_linker_1, # of connection points: 2
#     Edge 152, Type (0, 1), BuildingBlock: KIFKEQ_clean_linker_1, # of connection points: 2
#     Edge 153, Type (0, 1), BuildingBlock: KIFKEQ_clean_linker_1, # of connection points: 2
#     Edge 154, Type (0, 1), BuildingBlock: KIFKEQ_clean_linker_1, # of connection points: 2
#     Edge 155, Type (0, 1), BuildingBlock: KIFKEQ_clean_linker_1, # of connection points: 2
#     Edge 156, Type (0, 1), BuildingBlock: KIFKEQ_clean_linker_1, # of connection points: 2
#     Edge 157, Type (0, 1), BuildingBlock: KIFKEQ_clean_linker_1, # of connection points: 2
#     Edge 158, Type (0, 1), BuildingBlock: KIFKEQ_clean_linker_1, # of connection points: 2
#     Edge 159, Type (0, 1), BuildingBlock: KIFKEQ_clean_linker_1, # of connection points: 2
#     Edge 160, Type (0, 1), BuildingBlock: KIFKEQ_clean_linker_1, # of connection points: 2
#     Edge 161, Type (0, 1), BuildingBlock: KIFKEQ_clean_linker_1, # of connection points: 2
#     Edge 162, Type (0, 1), BuildingBlock: KIFKEQ_clean_linker_1, # of connection points: 2
#     Edge 163, Type (0, 1), BuildingBlock: KIFKEQ_clean_linker_1, # of connection points: 2
#     Edge 164, Type (0, 1), BuildingBlock: KIFKEQ_clean_linker_1, # of connection points: 2
#     Edge 165, Type (0, 1), BuildingBlock: KIFKEQ_clean_linker_1, # of connection points: 2
#     Edge 166, Type (0, 1), BuildingBlock: KIFKEQ_clean_linker_1, # of connection points: 2
#     Edge 167, Type (0, 1), BuildingBlock: KIFKEQ_clean_linker_1, # of connection points: 2
#     Edge 168, Type (0, 1), BuildingBlock: KIFKEQ_clean_linker_1, # of connection points: 2
#     Edge 169, Type (0, 1), BuildingBlock: KIFKEQ_clean_linker_1, # of connection points: 2
#     Edge 170, Type (0, 1), BuildingBlock: KIFKEQ_clean_linker_1, # of connection points: 2
#     Edge 171, Type (0, 1), BuildingBlock: KIFKEQ_clean_linker_1, # of connection points: 2
#     Edge 172, Type (0, 1), BuildingBlock: KIFKEQ_clean_linker_1, # of connection points: 2
#     Edge 173, Type (0, 1), BuildingBlock: KIFKEQ_clean_linker_1, # of connection points: 2
#     Edge 174, Type (0, 1), BuildingBlock: KIFKEQ_clean_linker_1, # of connection points: 2
#     Edge 175, Type (0, 1), BuildingBlock: KIFKEQ_clean_linker_1, # of connection points: 2
#     Edge 176, Type (0, 1), BuildingBlock: KIFKEQ_clean_linker_1, # of connection points: 2
#     Edge 177, Type (0, 1), BuildingBlock: KIFKEQ_clean_linker_1, # of connection points: 2
#     Edge 178, Type (0, 1), BuildingBlock: KIFKEQ_clean_linker_1, # of connection points: 2
#     Edge 179, Type (0, 1), BuildingBlock: KIFKEQ_clean_linker_1, # of connection points: 2
#     Edge 180, Type (0, 1), BuildingBlock: KIFKEQ_clean_linker_1, # of connection points: 2
#     Edge 181, Type (0, 1), BuildingBlock: KIFKEQ_clean_linker_1, # of connection points: 2
#     Edge 182, Type (0, 1), BuildingBlock: KIFKEQ_clean_linker_1, # of connection points: 2
#     Edge 183, Type (0, 1), BuildingBlock: KIFKEQ_clean_linker_1, # of connection points: 2
#     Edge 184, Type (0, 1), BuildingBlock: KIFKEQ_clean_linker_1, # of connection points: 2
#     Edge 185, Type (0, 1), BuildingBlock: KIFKEQ_clean_linker_1, # of connection points: 2
#     Edge 186, Type (0, 1), BuildingBlock: KIFKEQ_clean_linker_1, # of connection points: 2
#     Edge 187, Type (0, 1), BuildingBlock: KIFKEQ_clean_linker_1, # of connection points: 2
#     Edge 188, Type (0, 1), BuildingBlock: KIFKEQ_clean_linker_1, # of connection points: 2
#     Edge 189, Type (0, 1), BuildingBlock: KIFKEQ_clean_linker_1, # of connection points: 2
#     Edge 190, Type (0, 1), BuildingBlock: KIFKEQ_clean_linker_1, # of connection points: 2
#     Edge 191, Type (0, 1), BuildingBlock: KIFKEQ_clean_linker_1, # of connection points: 2
#     Edge 192, Type (0, 1), BuildingBlock: KIFKEQ_clean_linker_1, # of connection points: 2
#     Edge 193, Type (0, 1), BuildingBlock: KIFKEQ_clean_linker_1, # of connection points: 2
#     Edge 194, Type (0, 1), BuildingBlock: KIFKEQ_clean_linker_1, # of connection points: 2
#     Edge 195, Type (0, 1), BuildingBlock: KIFKEQ_clean_linker_1, # of connection points: 2
#     Edge 196, Type (0, 1), BuildingBlock: KIFKEQ_clean_linker_1, # of connection points: 2
#     Edge 197, Type (0, 1), BuildingBlock: KIFKEQ_clean_linker_1, # of connection points: 2
#     Edge 198, Type (0, 1), BuildingBlock: KIFKEQ_clean_linker_1, # of connection points: 2
#     Edge 199, Type (0, 1), BuildingBlock: KIFKEQ_clean_linker_1, # of connection points: 2
#     Edge 200, Type (0, 1), BuildingBlock: KIFKEQ_clean_linker_1, # of connection points: 2
#     Edge 201, Type (0, 1), BuildingBlock: KIFKEQ_clean_linker_1, # of connection points: 2
#     Edge 202, Type (0, 1), BuildingBlock: KIFKEQ_clean_linker_1, # of connection points: 2
#     Edge 203, Type (0, 1), BuildingBlock: KIFKEQ_clean_linker_1, # of connection points: 2
#     Edge 204, Type (0, 1), BuildingBlock: KIFKEQ_clean_linker_1, # of connection points: 2
#     Edge 205, Type (0, 1), BuildingBlock: KIFKEQ_clean_linker_1, # of connection points: 2
#     Edge 206, Type (0, 1), BuildingBlock: KIFKEQ_clean_linker_1, # of connection points: 2
#     Edge 207, Type (0, 1), BuildingBlock: KIFKEQ_clean_linker_1, # of connection points: 2
#     Edge 208, Type (0, 1), BuildingBlock: KIFKEQ_clean_linker_1, # of connection points: 2
#     Edge 209, Type (0, 1), BuildingBlock: KIFKEQ_clean_linker_1, # of connection points: 2
#     Edge 210, Type (0, 1), BuildingBlock: KIFKEQ_clean_linker_1, # of connection points: 2
#     Edge 211, Type (0, 1), BuildingBlock: KIFKEQ_clean_linker_1, # of connection points: 2
#     Edge 212, Type (0, 1), BuildingBlock: KIFKEQ_clean_linker_1, # of connection points: 2
#     Edge 213, Type (0, 1), BuildingBlock: KIFKEQ_clean_linker_1, # of connection points: 2
#     Edge 214, Type (0, 1), BuildingBlock: KIFKEQ_clean_linker_1, # of connection points: 2
#     Edge 215, Type (0, 1), BuildingBlock: KIFKEQ_clean_linker_1, # of connection points: 2
#     Edge 216, Type (0, 1), BuildingBlock: KIFKEQ_clean_linker_1, # of connection points: 2
#     Edge 217, Type (0, 1), BuildingBlock: KIFKEQ_clean_linker_1, # of connection points: 2
#     Edge 218, Type (0, 1), BuildingBlock: KIFKEQ_clean_linker_1, # of connection points: 2
#     Edge 219, Type (0, 1), BuildingBlock: KIFKEQ_clean_linker_1, # of connection points: 2
#     Edge 220, Type (0, 1), BuildingBlock: KIFKEQ_clean_linker_1, # of connection points: 2
#     Edge 221, Type (0, 1), BuildingBlock: KIFKEQ_clean_linker_1, # of connection points: 2
#     Edge 222, Type (0, 1), BuildingBlock: KIFKEQ_clean_linker_1, # of connection points: 2
#     Edge 223, Type (0, 1), BuildingBlock: KIFKEQ_clean_linker_1, # of connection points: 2
#     Edge 224, Type (0, 1), BuildingBlock: KIFKEQ_clean_linker_1, # of connection points: 2
#     Edge 225, Type (0, 1), BuildingBlock: KIFKEQ_clean_linker_1, # of connection points: 2
#     Edge 226, Type (0, 1), BuildingBlock: KIFKEQ_clean_linker_1, # of connection points: 2
#     Edge 227, Type (0, 1), BuildingBlock: KIFKEQ_clean_linker_1, # of connection points: 2
#     Edge 228, Type (0, 1), BuildingBlock: KIFKEQ_clean_linker_1, # of connection points: 2
#     Edge 229, Type (0, 1), BuildingBlock: KIFKEQ_clean_linker_1, # of connection points: 2
#     Edge 230, Type (0, 1), BuildingBlock: KIFKEQ_clean_linker_1, # of connection points: 2
#     Edge 231, Type (0, 1), BuildingBlock: KIFKEQ_clean_linker_1, # of connection points: 2
#     Edge 232, Type (0, 1), BuildingBlock: KIFKEQ_clean_linker_1, # of connection points: 2
#     Edge 233, Type (0, 1), BuildingBlock: KIFKEQ_clean_linker_1, # of connection points: 2
#     Edge 234, Type (0, 1), BuildingBlock: KIFKEQ_clean_linker_1, # of connection points: 2
#     Edge 235, Type (0, 1), BuildingBlock: KIFKEQ_clean_linker_1, # of connection points: 2
#     Edge 236, Type (0, 1), BuildingBlock: KIFKEQ_clean_linker_1, # of connection points: 2
#     Edge 237, Type (0, 1), BuildingBlock: KIFKEQ_clean_linker_1, # of connection points: 2
#     Edge 238, Type (0, 1), BuildingBlock: KIFKEQ_clean_linker_1, # of connection points: 2
#     Edge 239, Type (0, 1), BuildingBlock: KIFKEQ_clean_linker_1, # of connection points: 2
# Relax obj value: 0.045
# Max RMSD: 0.116
# Mean RMSD: 0.055
data_MOF--net-bpr--node1-WUSLED_clean_sbu_0--node2-BETDIP_clean_linker_0--edge1-KIFKEQ_clean_linker_1
_symmetry_space_group_name_H-M    P1
_symmetry_Int_Tables_number       1
_symmetry_cell_setting            triclinic
loop_
_symmetry_equiv_pos_as_xyz
'x, y, z'
_cell_length_a     104.32112
_cell_length_b     107.74675
_cell_length_c     110.62904
_cell_angle_alpha  95.649088
_cell_angle_beta   93.322915
_cell_angle_gamma 97.71406
loop_
_atom_site_label
_atom_site_type_symbol
_atom_site_fract_x
_atom_site_fract_y
_atom_site_fract_z
_atom_type_partial_charge
C0 C 0.97016 0.38863 0.25723 0.0
C1 C 0.9727 0.39189 0.26983 0.0
C2 C 0.95176 0.39937 0.27112 0.0
C3 C 0.96363 0.39725 0.27668 0.0
C4 C 0.94914 0.39589 0.25853 0.0
C5 C 0.95831 0.39061 0.25163 0.0
U6 U 0.99885 0.37084 0.25627 0.0
O7 O 1.00439 0.35638 0.24277 0.0
O8 O 0.01734 0.37421 0.24784 0.0
C9 C 0.01516 0.36349 0.24077 0.0
C10 C 0.97984 0.38309 0.25003 0.0
C11 C 0.01819 0.36405 0.22797 0.0
C12 C 0.02132 0.37559 0.21031 0.0
C13 C 0.01663 0.37462 0.22184 0.0
C14 C 0.02857 0.35519 0.21067 0.0
C15 C 0.02762 0.36601 0.20471 0.0
C16 C 0.02392 0.35424 0.22219 0.0
C17 C 0.01157 0.36064 0.28622 0.0
C18 C 0.03277 0.35391 0.28882 0.0
C19 C 0.01852 0.35352 0.30537 0.0
C20 C 1.00913 0.35802 0.29809 0.0
C21 C 0.03054 0.35162 0.30089 0.0
C22 C 0.02334 0.35836 0.28154 0.0
C23 C 1.00206 0.36636 0.27907 0.0
O24 O 0.99188 0.38854 0.25258 0.0
O25 O 0.9787 0.37072 0.24898 0.0
O26 O 0.99456 0.35865 0.27082 0.0
O27 O 1.00661 0.37705 0.27508 0.0
H28 H 0.98172 0.39028 0.27437 0.0
H29 H 0.96584 0.39961 0.28639 0.0
H30 H 0.94009 0.39743 0.254 0.0
H31 H 0.95616 0.3881 0.24193 0.0
H32 H 0.02028 0.38397 0.2059 0.0
H33 H 0.01219 0.38228 0.22613 0.0
H34 H 0.03349 0.3477 0.20673 0.0
H35 H 0.02526 0.34604 0.22679 0.0
H36 H 0.04186 0.35241 0.28507 0.0
H37 H 0.01656 0.35198 0.31465 0.0
H38 H 1.00009 0.35975 0.30185 0.0
H39 H 0.02535 0.36028 0.27235 0.0
C40 C 0.93887 0.81327 0.55482 0.0
C41 C 0.94165 0.81468 0.56749 0.0
C42 C 0.93592 0.7921 0.5681 0.0
C43 C 0.94026 0.80421 0.57405 0.0
C44 C 0.9331 0.79071 0.5554 0.0
C45 C 0.9346 0.80121 0.54881 0.0
U46 U 0.93778 0.84793 0.5554 0.0
O47 O 0.94971 0.8631 0.54747 0.0
O48 O 0.92866 0.8594 0.54298 0.0
C49 C 0.93976 0.86597 0.54101 0.0
C50 C 0.93974 0.82444 0.54806 0.0
C51 C 0.94176 0.86797 0.52827 0.0
C52 C 0.94131 0.86028 0.50682 0.0
C53 C 0.9405 0.85791 0.51901 0.0
C54 C 0.94505 0.88273 0.51316 0.0
C55 C 0.94331 0.87275 0.50376 0.0
C56 C 0.94428 0.88035 0.52529 0.0
C57 C 0.93115 0.8646 0.58613 0.0
C58 C 0.92645 0.88615 0.58893 0.0
C59 C 0.92824 0.87428 0.60631 0.0
C60 C 0.9308 0.86395 0.59867 0.0
C61 C 0.92599 0.8855 0.60154 0.0
C62 C 0.92905 0.87577 0.58127 0.0
C63 C 0.93329 0.85339 0.57827 0.0
O64 O 0.92887 0.82923 0.54673 0.0
O65 O 0.94987 0.83304 0.55133 0.0
O66 O 0.94503 0.85343 0.57454 0.0
O67 O 0.92409 0.84923 0.56966 0.0
H68 H 0.94474 0.82393 0.57235 0.0
H69 H 0.94229 0.80564 0.58384 0.0
H70 H 0.92979 0.7815 0.55056 0.0
H71 H 0.9323 0.79995 0.53905 0.0
H72 H 0.93985 0.85241 0.49977 0.0
H73 H 0.93855 0.84827 0.52117 0.0
H74 H 0.94678 0.89241 0.51112 0.0
H75 H 0.94533 0.88822 0.53234 0.0
H76 H 0.92486 0.89468 0.58499 0.0
H77 H 0.92774 0.87338 0.61594 0.0
H78 H 0.93233 0.85536 0.60255 0.0
H79 H 0.9293 0.87641 0.57157 0.0
C80 C 0.48804 0.62982 0.72431 0.0
C81 C 0.47638 0.63478 0.7256 0.0
C82 C 0.47394 0.63609 0.70375 0.0
C83 C 0.46939 0.63785 0.71544 0.0
C84 C 0.48581 0.63135 0.70255 0.0
C85 C 0.49279 0.62822 0.71276 0.0
U86 U 0.48961 0.6283 0.75795 0.0
O87 O 0.49245 0.61294 0.76913 0.0
O88 O 0.50563 0.63085 0.77217 0.0
C89 C 0.50292 0.6193 0.77512 0.0
C90 C 0.49483 0.62593 0.73502 0.0
C91 C 0.51396 0.61234 0.77681 0.0
C92 C 0.53407 0.60547 0.77055 0.0
C93 C 0.52327 0.61156 0.7682 0.0
C94 C 0.52613 0.60066 0.78995 0.0
C95 C 0.53569 0.60004 0.78152 0.0
C96 C 0.5154 0.60674 0.7876 0.0
C97 C 0.46347 0.64283 0.775 0.0
C98 C 0.45774 0.63833 0.79524 0.0
C99 C 0.44916 0.6552 0.78591 0.0
C100 C 0.45589 0.65263 0.7756 0.0
C101 C 0.44984 0.64796 0.79579 0.0
C102 C 0.46453 0.63581 0.78495 0.0
C103 C 0.46988 0.63984 0.76381 0.0
O104 O 0.50055 0.63522 0.74293 0.0
O105 O 0.48807 0.61696 0.74016 0.0
O106 O 0.46872 0.62782 0.7598 0.0
O107 O 0.48167 0.64579 0.76337 0.0
H108 H 0.47254 0.63605 0.73446 0.0
H109 H 0.46019 0.64123 0.71674 0.0
H110 H 0.48968 0.63 0.69371 0.0
H111 H 0.5018 0.62441 0.71161 0.0
H112 H 0.54119 0.60508 0.76382 0.0
H113 H 0.52227 0.61582 0.75978 0.0
H114 H 0.52715 0.59684 0.79859 0.0
H115 H 0.50833 0.60729 0.79437 0.0
H116 H 0.45839 0.63247 0.8026 0.0
H117 H 0.44335 0.66282 0.7861 0.0
H118 H 0.45505 0.6582 0.76803 0.0
H119 H 0.4704 0.62823 0.78465 0.0
C120 C 0.61746 0.22172 0.05643 0.0
C121 C 0.62573 0.22482 0.06709 0.0
C122 C 0.61712 0.2446 0.07113 0.0
C123 C 0.62562 0.23618 0.07433 0.0
C124 C 0.60895 0.24153 0.06038 0.0
C125 C 0.60914 0.23019 0.05308 0.0
U126 U 0.62053 0.18724 0.05564 0.0
O127 O 0.60836 0.17037 0.04625 0.0
O128 O 0.629 0.17423 0.04287 0.0
C129 C 0.61786 0.16697 0.03996 0.0
C130 C 0.6168 0.20934 0.0493 0.0
C131 C 0.61464 0.16314 0.0269 0.0
C132 C 0.61321 0.16769 1.0058 0.0
C133 C 0.61559 0.17186 0.01825 0.0
C134 C 0.60862 0.14617 0.01066 0.0
C135 C 0.60991 0.15476 1.00187 0.0
C136 C 0.61098 0.15033 0.02303 0.0
C137 C 0.62934 0.17494 0.08571 0.0
C138 C 0.63107 0.15284 0.08693 0.0
C139 C 0.63361 0.16745 0.10531 0.0
C140 C 0.63166 0.17727 0.09837 0.0
C141 C 0.63327 0.15509 0.09969 0.0
C142 C 0.62912 0.16269 0.08 0.0
C143 C 0.6268 0.18528 0.07863 0.0
O144 O 0.6279 0.2049 0.04839 0.0
O145 O 0.6073 0.20086 0.05175 0.0
O146 O 0.61477 0.18465 0.07413 0.0
O147 O 0.63539 0.18834 0.0708 0.0
H148 H 0.63209 0.21832 0.06996 0.0
H149 H 0.63189 0.23819 0.08264 0.0
H150 H 0.60235 0.24786 0.05766 0.0
H151 H 0.60263 0.22792 0.04495 0.0
H152 H 0.61433 0.17453 0.99925 0.0
H153 H 0.61838 0.18181 0.02109 0.0
H154 H 0.60584 0.13618 0.00797 0.0
H155 H 0.61013 0.14348 0.0296 0.0
H156 H 0.63089 0.14347 0.08231 0.0
H157 H 0.63506 0.16948 0.11511 0.0
H158 H 0.63179 0.18668 0.10291 0.0
H159 H 0.62734 0.16075 0.0702 0.0
C160 C 0.98986 0.62416 0.24508 0.0
C161 C 0.98442 0.63345 0.23923 0.0
C162 C 0.96591 0.61809 0.23098 0.0
C163 C 0.97258 0.63045 0.23231 0.0
C164 C 0.97112 0.60893 0.23721 0.0
C165 C 0.98294 0.61195 0.24421 0.0
U166 U 0.02607 0.63331 0.24399 0.0
O167 O 0.04056 0.64594 0.25631 0.0
O168 O 0.04272 0.62597 0.2524 0.0
C169 C 0.04716 0.63681 0.25875 0.0
C170 C 1.00297 0.62685 0.25146 0.0
C171 C 0.0508 0.6362 0.27168 0.0
C172 C 0.04537 0.63213 0.29213 0.0
C173 C 0.0415 0.63303 0.27994 0.0
C174 C 0.06782 0.6377 0.28785 0.0
C175 C 0.05861 0.63431 0.29618 0.0
C176 C 0.06394 0.63863 0.27573 0.0
C177 C 0.03866 0.63904 0.21299 0.0
C178 C 0.06159 0.6416 0.20946 0.0
C179 C 0.04572 0.64404 0.1933 0.0
C180 C 0.03578 0.64156 0.20103 0.0
C181 C 0.05874 0.64402 0.19739 0.0
C182 C 0.05162 0.63916 0.21721 0.0
C183 C 0.02802 0.636 0.22081 0.0
O184 O 0.01084 0.61864 0.24853 0.0
O185 O 1.00868 0.6386 0.25233 0.0
O186 O 0.02595 0.64518 0.22888 0.0
O187 O 0.02768 0.6251 0.22525 0.0
H188 H 0.98942 0.64299 0.23976 0.0
H189 H 0.96872 0.63781 0.22785 0.0
H190 H 0.96633 0.59929 0.23632 0.0
H191 H 0.98689 0.60462 0.24865 0.0
H192 H 0.03806 0.62942 0.2983 0.0
H193 H 0.03129 0.63112 0.27692 0.0
H194 H 0.07806 0.63965 0.29072 0.0
H195 H 0.07124 0.64114 0.26948 0.0
H196 H 0.07152 0.64166 0.21294 0.0
H197 H 0.04318 0.64571 0.18402 0.0
H198 H 0.02581 0.64146 0.19762 0.0
H199 H 0.05401 0.63727 0.22645 0.0
C200 C 0.63225 0.76568 0.46964 0.0
C201 C 0.6343 0.76645 0.4573 0.0
C202 C 0.63596 0.74405 0.45441 0.0
C203 C 0.63611 0.75575 0.44976 0.0
C204 C 0.63422 0.74337 0.46687 0.0
C205 C 0.63233 0.75411 0.47443 0.0
U206 U 0.62957 0.80003 0.47181 0.0
O207 O 0.61501 0.81114 0.4792 0.0
O208 O 0.63547 0.81584 0.48603 0.0
C209 C 0.62356 0.81838 0.48692 0.0
C210 C 0.62967 0.77692 0.47726 0.0
C211 C 0.61953 0.82125 0.49928 0.0
C212 C 0.61768 0.81693 0.52033 0.0
C213 C 0.62107 0.8134 0.50851 0.0
C214 C 0.61105 0.83601 0.51366 0.0
C215 C 0.61268 0.82834 0.52305 0.0
C216 C 0.61441 0.83248 0.50192 0.0
C217 C 0.63624 0.81619 0.44309 0.0
C218 C 0.62746 0.83453 0.4368 0.0
C219 C 0.64713 0.82873 0.42862 0.0
C220 C 0.64643 0.81851 0.43553 0.0
C221 C 0.63756 0.83675 0.42907 0.0
C222 C 0.62684 0.82438 0.44381 0.0
C223 C 0.63544 0.80507 0.44991 0.0
O224 O 0.63969 0.78578 0.47984 0.0
O225 O 0.61906 0.78132 0.47374 0.0
O226 O 0.62376 0.80031 0.45246 0.0
O227 O 0.64421 0.80562 0.45904 0.0
H228 H 0.63433 0.77532 0.45346 0.0
H229 H 0.63762 0.75663 0.44026 0.0
H230 H 0.63398 0.73447 0.4707 0.0
H231 H 0.63076 0.75336 0.48394 0.0
H232 H 0.61898 0.81076 0.52732 0.0
H233 H 0.625 0.80467 0.50661 0.0
H234 H 0.60751 0.84497 0.51542 0.0
H235 H 0.61323 0.83869 0.49492 0.0
H236 H 0.62004 0.84065 0.43744 0.0
H237 H 0.65497 0.83017 0.42268 0.0
H238 H 0.65378 0.8123 0.43486 0.0
H239 H 0.61894 0.82287 0.44968 0.0
C240 C 0.53402 0.42099 0.73 0.0
C241 C 0.5318 0.4221 0.71755 0.0
C242 C 0.55481 0.42898 0.7161 0.0
C243 C 0.54209 0.42606 0.71067 0.0
C244 C 0.55694 0.42817 0.72867 0.0
C245 C 0.5466 0.42416 0.73556 0.0
U246 U 0.49896 0.40751 0.72984 0.0
O247 O 0.4891 0.39152 0.73826 0.0
O248 O 0.4839 0.4105 0.74248 0.0
C249 C 0.48213 0.39865 0.7447 0.0
C250 C 0.52323 0.41602 0.73693 0.0
C251 C 0.4812 0.39639 0.75751 0.0
C252 C 0.48909 0.40004 0.77886 0.0
C253 C 0.49073 0.40193 0.76665 0.0
C254 C 0.46855 0.38691 0.77279 0.0
C255 C 0.47791 0.39256 0.78208 0.0
C256 C 0.4702 0.38881 0.76066 0.0
C257 C 0.47865 0.40393 0.69948 0.0
C258 C 0.46014 0.38837 0.69177 0.0
C259 C 0.46185 0.40947 0.68566 0.0
C260 C 0.47358 0.41276 0.69274 0.0
C261 C 0.45502 0.39724 0.68508 0.0
C262 C 0.47181 0.3917 0.69896 0.0
C263 C 0.49103 0.40771 0.70693 0.0
O264 O 0.51386 0.42302 0.73788 0.0
O265 O 0.51895 0.404 0.73398 0.0
O266 O 0.49671 0.39858 0.71096 0.0
O267 O 0.4913 0.41745 0.71514 0.0
H268 H 0.52212 0.41971 0.71311 0.0
H269 H 0.54009 0.42677 0.70107 0.0
H270 H 0.56663 0.43026 0.73309 0.0
H271 H 0.54847 0.42332 0.74516 0.0
H272 H 0.49652 0.40445 0.78577 0.0
H273 H 0.49932 0.40781 0.76435 0.0
H274 H 0.45971 0.38132 0.77491 0.0
H275 H 0.46273 0.38451 0.75372 0.0
H276 H 0.45502 0.37891 0.69159 0.0
H277 H 0.45821 0.41646 0.6805 0.0
H278 H 0.4787 0.42223 0.69297 0.0
H279 H 0.47542 0.38469 0.70411 0.0
C280 C 0.87743 0.21175 0.01222 0.0
C281 C 0.87637 0.19857 0.01118 0.0
C282 C 0.88407 0.19925 0.03248 0.0
C283 C 0.8796 0.19239 0.0212 0.0
C284 C 0.88501 0.21249 0.03352 0.0
C285 C 0.88173 0.21869 0.02345 0.0
U286 U 0.8704 0.20892 0.97849 0.0
O287 O 0.85608 0.21629 0.9667 0.0
O288 O 0.87692 0.22064 0.96427 0.0
C289 C 0.86509 0.22256 0.96094 0.0
C290 C 0.87439 0.21808 1.00144 0.0
C291 C 0.86321 0.23548 0.9585 0.0
C292 C 0.87195 0.25724 0.95651 0.0
C293 C 0.87328 0.24566 0.96083 0.0
C294 C 0.85024 0.24886 0.94803 0.0
C295 C 0.86053 0.25886 0.94978 0.0
C296 C 0.8516 0.23729 0.95231 0.0
C297 C 0.87063 0.17626 0.96174 0.0
C298 C 0.86904 0.17239 0.93966 0.0
C299 C 0.86897 0.15492 0.9519 0.0
C300 C 0.87005 0.16331 0.96249 0.0
C301 C 0.86847 0.15936 0.94036 0.0
C302 C 0.87008 0.18078 0.95028 0.0
C303 C 0.87192 0.18493 0.97297 0.0
O304 O 0.88352 0.21886 0.99373 0.0
O305 O 0.86274 0.21435 0.99606 0.0
O306 O 0.86121 0.18913 0.97615 0.0
O307 O 0.88203 0.19376 0.97405 0.0
H308 H 0.87308 0.19304 1.00258 0.0
H309 H 0.87852 0.18219 0.0201 0.0
H310 H 0.88851 0.21807 0.04204 0.0
H311 H 0.88267 0.22888 0.02439 0.0
H312 H 0.87999 0.26482 0.95815 0.0
H313 H 0.88237 0.24458 0.96559 0.0
H314 H 0.84138 0.24972 0.94277 0.0
H315 H 0.84374 0.22956 0.95028 0.0
H316 H 0.86853 0.17609 0.93092 0.0
H317 H 0.86871 0.14496 0.95274 0.0
H318 H 0.8705 0.15969 0.97127 0.0
H319 H 0.87046 0.19078 0.94955 0.0
C320 C 0.24341 0.99318 0.35706 0.0
C321 C 0.24383 1.00064 0.34731 0.0
C322 C 0.22282 1.00684 0.35168 0.0
C323 C 0.23363 1.00731 0.34462 0.0
C324 C 0.22211 0.99885 0.36103 0.0
C325 C 0.23231 0.99209 0.36369 0.0
U326 U 0.27898 0.99893 0.36592 0.0
O327 O 0.29087 0.99373 0.38122 0.0
O328 O 0.29518 0.98828 0.36237 0.0
C329 C 0.29809 0.98768 0.37401 0.0
C330 C 0.25505 0.9879 0.3613 0.0
C331 C 0.30092 0.97544 0.37744 0.0
C332 C 0.29525 0.9529 0.37819 0.0
C333 C 0.29192 0.96443 0.37505 0.0
C334 C 0.31648 0.96342 0.38619 0.0
C335 C 0.3076 0.95227 0.3838 0.0
C336 C 0.31315 0.97486 0.38306 0.0
C337 C 0.29496 0.03283 0.3643 0.0
C338 C 0.31822 0.03967 0.36664 0.0
C339 C 0.30331 0.0551 0.36772 0.0
C340 C 0.29284 0.04543 0.36576 0.0
C341 C 0.31611 0.05234 0.36823 0.0
C342 C 0.30771 0.02997 0.36475 0.0
C343 C 0.28373 0.02287 0.36266 0.0
O344 O 0.264 0.98704 0.35347 0.0
O345 O 0.25987 0.99248 0.37233 0.0
O346 O 0.27956 0.01888 0.37276 0.0
O347 O 0.28412 0.0137 0.35397 0.0
H348 H 0.25226 1.00175 0.34205 0.0
H349 H 0.23439 0.01317 0.3372 0.0
H350 H 0.21399 0.99833 0.36673 0.0
H351 H 0.2318 0.98647 0.37129 0.0
H352 H 0.28817 0.94451 0.37628 0.0
H353 H 0.28241 0.96473 0.37071 0.0
H354 H 0.32615 0.96328 0.39024 0.0
H355 H 0.32024 0.98326 0.38491 0.0
H356 H 0.32797 0.03725 0.36711 0.0
H357 H 0.30139 0.06477 0.36877 0.0
H358 H 0.28306 0.04779 0.36544 0.0
H359 H 0.30952 0.02026 0.36374 0.0
C360 C 0.1897 0.97712 0.64349 0.0
C361 C 0.17611 0.97554 0.64248 0.0
C362 C 0.17536 0.95291 0.64304 0.0
C363 C 0.16901 0.96357 0.64229 0.0
C364 C 0.18902 0.95455 0.64399 0.0
C365 C 0.19613 0.96658 0.64421 0.0
U366 U 0.18926 0.01162 0.64141 0.0
O367 O 0.19961 0.02853 0.6524 0.0
O368 O 0.20164 0.02577 0.63269 0.0
C369 C 0.20523 0.03283 0.64302 0.0
C370 C 0.19705 0.98981 0.64388 0.0
C371 C 0.21907 0.03783 0.64499 0.0
C372 C 0.24184 0.03515 0.64696 0.0
C373 C 0.2287 0.02995 0.64574 0.0
C374 C 0.2357 0.05606 0.64689 0.0
C375 C 0.24547 0.04827 0.64736 0.0
C376 C 0.22265 0.05088 0.64572 0.0
C377 C 0.15667 0.02282 0.63522 0.0
C378 C 0.15114 0.04369 0.6411 0.0
C379 C 0.1398 0.0309 0.62347 0.0
C380 C 0.14721 0.02129 0.62544 0.0
C381 C 0.14165 0.04216 0.63133 0.0
C382 C 0.15864 0.03414 0.64299 0.0
C383 C 0.16447 0.01262 0.63706 0.0
O384 O 0.19686 0.99476 0.63349 0.0
O385 O 0.19497 0.9977 0.65317 0.0
O386 O 0.16997 0.01267 0.64807 0.0
O387 O 0.17218 0.0102 0.62841 0.0
H388 H 0.17098 0.9836 0.64195 0.0
H389 H 0.15852 0.96271 0.64177 0.0
H390 H 0.19422 0.94654 0.64446 0.0
H391 H 0.20663 0.96765 0.64496 0.0
H392 H 0.24915 0.02892 0.64725 0.0
H393 H 0.22606 0.01983 0.64518 0.0
H394 H 0.23816 0.0662 0.64739 0.0
H395 H 0.21533 0.05709 0.64521 0.0
H396 H 0.15288 0.05233 0.64721 0.0
H397 H 0.13249 0.02944 0.61592 0.0
H398 H 0.14556 0.01265 0.61933 0.0
H399 H 0.16599 0.03565 0.65052 0.0
C400 C 0.22497 0.02983 0.8824 0.0
C401 C 0.21201 0.02971 0.88519 0.0
C402 C 0.21351 0.05215 0.88312 0.0
C403 C 0.20633 0.04076 0.88553 0.0
C404 C 0.22659 0.05225 0.88054 0.0
C405 C 0.23226 0.04116 0.88018 0.0
U406 U 0.22074 0.99497 0.88452 0.0
O407 O 0.22597 0.97924 0.87245 0.0
O408 O 0.23357 0.98234 0.8916 0.0
C409 C 0.23368 0.9758 0.88093 0.0
C410 C 0.23064 0.01802 0.8814 0.0
C411 C 0.24645 0.97323 0.87721 0.0
C412 C 0.26883 0.98011 0.87324 0.0
C413 C 0.25671 0.98296 0.8766 0.0
C414 C 0.26041 0.95786 0.87093 0.0
C415 C 0.27082 0.96751 0.87039 0.0
C416 C 0.24837 0.96071 0.8743 0.0
C417 C 0.18763 0.98013 0.89325 0.0
C418 C 0.18274 0.95812 0.89668 0.0
C419 C 0.1654 0.97088 0.89501 0.0
C420 C 0.17443 0.98127 0.89336 0.0
C421 C 0.16944 0.95917 0.89659 0.0
C422 C 0.19178 0.96852 0.89497 0.0
C423 C 0.19683 0.99106 0.89095 0.0
O424 O 0.23232 0.01309 0.89169 0.0
O425 O 0.22536 0.00969 0.87241 0.0
O426 O 0.19975 0.99138 0.87959 0.0
O427 O 0.20697 0.99411 0.89883 0.0
H428 H 0.20622 0.02102 0.88688 0.0
H429 H 0.1962 0.04026 0.88735 0.0
H430 H 0.23244 0.06088 0.87878 0.0
H431 H 0.24229 0.04141 0.87803 0.0
H432 H 0.27661 0.98777 0.87282 0.0
H433 H 0.25536 0.9927 0.87877 0.0
H434 H 0.26165 0.94806 0.86901 0.0
H435 H 0.24055 0.95309 0.87475 0.0
H436 H 0.18612 0.94919 0.89777 0.0
H437 H 0.15524 0.97202 0.89505 0.0
H438 H 0.17108 0.99017 0.89206 0.0
H439 H 0.20196 0.96748 0.89483 0.0
C440 C 0.2747 0.02525 0.13538 0.0
C441 C 0.2749 0.01241 0.13639 0.0
C442 C 0.25316 0.01042 0.14352 0.0
C443 C 0.26426 1.00507 0.14039 0.0
C444 C 0.25294 0.02331 0.1424 0.0
C445 C 0.26366 0.03068 0.13838 0.0
U446 U 0.30859 0.02592 0.12636 0.0
O447 O 0.31909 0.03428 0.11172 0.0
O448 O 0.32646 0.03927 0.13085 0.0
C449 C 0.32769 0.04146 0.11945 0.0
C450 C 0.28615 0.03278 0.13133 0.0
C451 C 0.33088 0.05476 0.11709 0.0
C452 C 0.33586 0.07707 0.12431 0.0
C453 C 0.33108 0.06474 0.12633 0.0
C454 C 0.33975 0.06977 0.10363 0.0
C455 C 0.34053 0.0797 0.11302 0.0
C456 C 0.33503 0.05744 0.10567 0.0
C457 C 0.32184 0.99436 0.12742 0.0
C458 C 0.34447 0.99113 0.129 0.0
C459 C 0.32759 0.97328 0.124 0.0
C460 C 0.3182 0.98137 0.12453 0.0
C461 C 0.34083 0.97803 0.1264 0.0
C462 C 0.33504 0.99924 0.12949 0.0
C463 C 0.31165 1.00248 0.1287 0.0
O464 O 0.29631 0.03472 0.13924 0.0
O465 O 0.28903 0.02927 0.12021 0.0
O466 O 0.30688 1.00609 0.11858 0.0
O467 O 0.31366 0.01151 0.13777 0.0
H468 H 0.28334 1.00804 0.13408 0.0
H469 H 0.26468 0.99514 0.1409 0.0
H470 H 0.24457 0.02772 0.1448 0.0
H471 H 0.26337 0.04059 0.13767 0.0
H472 H 0.33644 0.08444 0.1318 0.0
H473 H 0.32798 0.06299 0.13526 0.0
H474 H 0.34305 0.07147 0.09476 0.0
H475 H 0.335 0.04991 0.0984 0.0
H476 H 0.35456 0.99509 0.13097 0.0
H477 H 0.32446 0.96329 0.12171 0.0
H478 H 0.30806 0.97745 0.12284 0.0
H479 H 0.33804 0.00926 0.1317 0.0
C480 C 0.42531 0.2919 0.0359 0.0
C481 C 0.4223 0.29298 0.04812 0.0
C482 C 0.42448 0.27092 0.0494 0.0
C483 C 0.42188 0.28261 0.0548 0.0
C484 C 0.42733 0.26983 0.03708 0.0
C485 C 0.42777 0.28026 0.03039 0.0
U486 U 0.42394 0.32648 0.03644 0.0
O487 O 0.43607 0.34167 0.02873 0.0
O488 O 0.4151 0.33793 0.02379 0.0
C489 C 0.42629 0.34442 0.02195 0.0
C490 C 0.42618 0.30303 0.02914 0.0
C491 C 0.42867 0.34597 0.00918 0.0
C492 C 0.42917 0.33746 0.98806 0.0
C493 C 0.42762 0.33559 1.00028 0.0
C494 C 0.43313 0.36003 0.99363 0.0
C495 C 0.43181 0.34973 0.98458 0.0
C496 C 0.43158 0.35816 1.0058 0.0
C497 C 0.41717 0.34286 0.06742 0.0
C498 C 0.41312 0.36457 0.07098 0.0
C499 C 0.41496 0.35211 0.08792 0.0
C500 C 0.41704 0.34186 0.07992 0.0
C501 C 0.41298 0.3636 0.08357 0.0
C502 C 0.41524 0.35427 0.06295 0.0
C503 C 0.4192 0.33181 0.05927 0.0
O504 O 0.41529 0.30777 0.02767 0.0
O505 O 0.4362 0.31166 0.03266 0.0
O506 O 0.43097 0.33181 0.05564 0.0
O507 O 0.41005 0.32791 0.05054 0.0
H508 H 0.42035 0.30191 0.05252 0.0
H509 H 0.41946 0.28374 0.0642 0.0
H510 H 0.4295 0.261 0.03268 0.0
H511 H 0.43015 0.27927 0.02098 0.0
H512 H 0.42822 0.32932 0.98134 0.0
H513 H 0.42543 0.3261 1.00276 0.0
H514 H 0.43495 0.3696 0.99128 0.0
H515 H 0.43238 0.36627 0.01256 0.0
H516 H 0.41172 0.37331 0.06736 0.0
H517 H 0.41468 0.35097 0.09753 0.0
H518 H 0.41845 0.3331 0.0835 0.0
H519 H 0.41535 0.35518 0.05329 0.0
C520 C 0.04273 0.91574 0.24419 0.0
C521 C 0.04138 0.91412 0.23142 0.0
C522 C 0.06453 0.92063 0.23058 0.0
C523 C 0.05216 0.91654 0.22469 0.0
C524 C 0.06581 0.92254 0.24339 0.0
C525 C 0.05497 0.92007 0.25015 0.0
U526 U 1.00717 0.90444 0.24345 0.0
O527 O 0.99567 0.89095 0.25369 0.0
O528 O 0.99156 0.91047 0.25414 0.0
C529 C 0.98869 0.89939 0.2581 0.0
C530 C 0.03135 0.91263 0.25112 0.0
C531 C 0.98617 0.89941 0.27101 0.0
C532 C 0.99245 0.90473 0.29261 0.0
C533 C 0.99561 0.90439 0.28043 0.0
C534 C 0.97056 0.89493 0.28594 0.0
C535 C 0.9798 0.90019 0.29545 0.0
C536 C 0.97373 0.89456 0.27386 0.0
C537 C 0.98858 0.89694 0.21256 0.0
C538 C 0.96508 0.89222 0.21096 0.0
C539 C 0.97696 0.89068 0.1928 0.0
C540 C 0.98863 0.89431 0.19992 0.0
C541 C 0.96504 0.88969 0.19823 0.0
C542 C 0.97676 0.89578 0.21807 0.0
C543 C 1.00085 0.90106 0.21994 0.0
O544 O 0.02245 0.92012 0.25021 0.0
O545 O 0.02648 0.90062 0.24981 0.0
O546 O 1.00525 0.89241 0.22597 0.0
O547 O 1.00151 0.912 0.22651 0.0
H548 H 0.03197 0.91085 0.22667 0.0
H549 H 0.05082 0.91517 0.21484 0.0
H550 H 0.07523 0.92561 0.24818 0.0
H551 H 0.05617 0.92138 0.26001 0.0
H552 H 0.99974 0.90885 0.29977 0.0
H553 H 1.00529 0.90816 0.27835 0.0
H554 H 0.96082 0.89116 0.28783 0.0
H555 H 0.96636 0.89061 0.2667 0.0
H556 H 0.95609 0.89138 0.21543 0.0
H557 H 0.97724 0.88892 0.18302 0.0
H558 H 0.99769 0.89516 0.19554 0.0
H559 H 0.97657 0.89772 0.22785 0.0
C560 C 0.10143 0.72293 0.56821 0.0
C561 C 0.10026 0.72288 0.58078 0.0
C562 C 0.10334 0.74583 0.58346 0.0
C563 C 0.10113 0.7342 0.58831 0.0
C564 C 0.10452 0.74582 0.57083 0.0
C565 C 0.10357 0.73446 0.56328 0.0
U566 U 0.10335 0.68827 0.56589 0.0
O567 O 0.09135 0.67191 0.55548 0.0
O568 O 0.11223 0.67565 0.55306 0.0
C569 C 0.10112 0.66856 0.54955 0.0
C570 C 0.10076 0.71096 0.5604 0.0
C571 C 0.09847 0.66504 0.53639 0.0
C572 C 0.0965 0.67023 0.51553 0.0
C573 C 0.09877 0.67406 0.52805 0.0
C574 C 0.0935 0.6484 0.51969 0.0
C575 C 0.09383 0.65733 0.51122 0.0
C576 C 0.09578 0.65223 0.53214 0.0
C577 C 0.11022 0.67429 0.59546 0.0
C578 C 0.11099 0.65189 0.59578 0.0
C579 C 0.11469 0.6659 0.61456 0.0
C580 C 0.11296 0.67612 0.60809 0.0
C581 C 0.1137 0.65366 0.60849 0.0
C582 C 0.10928 0.66214 0.58931 0.0
C583 C 0.10826 0.6851 0.58883 0.0
O584 O 0.11177 0.70632 0.5599 0.0
O585 O 0.09085 0.70245 0.56188 0.0
O586 O 0.09648 0.68488 0.58385 0.0
O587 O 0.11735 0.68844 0.58157 0.0
H588 H 0.09866 0.71407 0.58478 0.0
H589 H 0.09995 0.7338 0.59793 0.0
H590 H 0.10638 0.75459 0.5668 0.0
H591 H 0.1046 0.73467 0.55361 0.0
H592 H 0.09674 0.67734 0.50925 0.0
H593 H 0.10082 0.68401 0.53121 0.0
H594 H 0.09173 0.63841 0.51671 0.0
H595 H 0.09557 0.64514 0.53846 0.0
H596 H 0.11028 0.64261 0.59083 0.0
H597 H 0.11655 0.66756 0.62436 0.0
H598 H 0.11368 0.68544 0.61296 0.0
H599 H 0.10719 0.6606 0.57952 0.0
C600 C 0.99155 0.63866 0.79088 0.0
C601 C 0.97897 0.64188 0.78984 0.0
C602 C 0.97571 0.63727 0.81067 0.0
C603 C 0.97111 0.64116 0.79964 0.0
C604 C 0.98847 0.63437 0.81173 0.0
C605 C 0.9963 0.63504 0.8019 0.0
U606 U 0.9982 0.6478 0.75932 0.0
O607 O 0.01662 0.65383 0.75133 0.0
O608 O 1.00386 0.63677 0.74327 0.0
C609 C 0.01514 0.64385 0.74325 0.0
C610 C 0.99961 0.63869 0.78042 0.0
C611 C 0.02645 0.6371 0.74194 0.0
C612 C 0.03697 0.61845 0.74359 0.0
C613 C 0.0268 0.6253 0.74624 0.0
C614 C 0.04689 0.6354 0.73289 0.0
C615 C 0.04701 0.62333 0.73668 0.0
C616 C 0.03669 0.64219 0.73547 0.0
C617 C 0.97513 0.66617 0.74301 0.0
C618 C 0.97916 0.6728 0.72304 0.0
C619 C 0.95808 0.67358 0.73098 0.0
C620 C 0.96246 0.66901 0.74164 0.0
C621 C 0.96633 0.67542 0.72148 0.0
C622 C 0.98351 0.66818 0.7337 0.0
C623 C 0.97923 0.66044 0.75385 0.0
O624 O 0.99413 0.63209 0.77038 0.0
O625 O 1.00572 0.64975 0.77854 0.0
O626 O 0.99027 0.66575 0.75964 0.0
O627 O 0.97806 0.64808 0.75242 0.0
H628 H 0.97515 0.64471 0.78138 0.0
H629 H 0.9613 0.64332 0.79843 0.0
H630 H 0.9924 0.63154 0.82014 0.0
H631 H 1.00602 0.63259 0.80287 0.0
H632 H 0.03686 0.60923 0.74674 0.0
H633 H 0.01904 0.62121 0.75133 0.0
H634 H 0.05436 0.63937 0.72742 0.0
H635 H 0.03658 0.65127 0.73205 0.0
H636 H 0.98582 0.67424 0.71599 0.0
H637 H 0.94809 0.67528 0.73003 0.0
H638 H 0.95584 0.66741 0.7487 0.0
H639 H 0.99333 0.66597 0.73459 0.0
C640 C 0.10417 0.23519 0.46614 0.0
C641 C 0.11515 0.23957 0.46013 0.0
C642 C 0.10409 0.25609 0.45256 0.0
C643 C 0.11513 0.24997 0.45349 0.0
C644 C 0.09321 0.25183 0.45874 0.0
C645 C 0.09327 0.24151 0.4655 0.0
U646 U 0.10915 0.20109 0.4653 0.0
O647 O 0.11689 0.18989 0.47884 0.0
O648 O 0.09699 0.18442 0.47058 0.0
C649 C 0.10602 0.18205 0.47846 0.0
C650 C 0.10356 0.22355 0.47228 0.0
C651 C 0.10177 0.17814 0.49013 0.0
C652 C 0.09893 0.18222 0.51177 0.0
C653 C 0.10205 0.18666 0.50064 0.0
C654 C 0.09498 0.16085 0.50185 0.0
C655 C 0.09562 0.16922 0.51252 0.0
C656 C 0.09802 0.16527 0.4908 0.0
C657 C 0.12137 0.18608 0.43647 0.0
C658 C 0.12372 0.16387 0.43415 0.0
C659 C 0.12713 0.17631 0.41722 0.0
C660 C 0.12451 0.18695 0.42442 0.0
C661 C 0.12664 0.16461 0.42195 0.0
C662 C 0.12109 0.17452 0.44134 0.0
C663 C 0.1178 0.19712 0.44365 0.0
O664 O 0.09479 0.21424 0.46735 0.0
O665 O 0.11473 0.21989 0.47535 0.0
O666 O 0.12542 0.20141 0.45347 0.0
O667 O 0.10542 0.19644 0.44552 0.0
H668 H 0.12364 0.2348 0.46032 0.0
H669 H 0.12361 0.25294 0.44872 0.0
H670 H 0.0846 0.25643 0.45828 0.0
H671 H 0.08469 0.23828 0.47 0.0
H672 H 0.09951 0.18888 0.51985 0.0
H673 H 0.10493 0.19665 0.50028 0.0
H674 H 0.09223 0.15082 0.50207 0.0
H675 H 0.09771 0.15856 0.48278 0.0
H676 H 0.12339 0.15504 0.43811 0.0
H677 H 0.12914 0.17718 0.40782 0.0
H678 H 0.12468 0.1958 0.42051 0.0
H679 H 0.11865 0.17371 0.45065 0.0
C680 C 0.46839 0.39996 0.25268 0.0
C681 C 0.46127 0.39285 0.24254 0.0
C682 C 0.44969 0.41046 0.23891 0.0
C683 C 0.45198 0.39802 0.23578 0.0
C684 C 0.45666 0.4175 0.24917 0.0
C685 C 0.46587 0.41227 0.25602 0.0
U686 U 0.49884 0.38453 0.25184 0.0
O687 O 0.51748 0.38875 0.26286 0.0
O688 O 0.50593 0.37 0.26202 0.0
C689 C 0.51635 0.37754 0.26676 0.0
C690 C 0.47903 0.39503 0.25928 0.0
C691 C 0.51992 0.37711 0.27976 0.0
C692 C 0.51449 0.37435 0.30052 0.0
C693 C 0.51063 0.37566 0.2884 0.0
C694 C 0.5369 0.37619 0.29545 0.0
C695 C 0.52767 0.37441 0.30412 0.0
C696 C 0.53305 0.37751 0.28342 0.0
C697 C 0.5117 0.37636 0.22106 0.0
C698 C 0.53406 0.37316 0.21861 0.0
C699 C 0.51782 0.3669 0.20178 0.0
C700 C 0.50836 0.37106 0.20903 0.0
C701 C 0.53084 0.36805 0.20643 0.0
C702 C 0.52457 0.37721 0.22586 0.0
C703 C 0.50178 0.38122 0.22841 0.0
O704 O 0.47896 0.38275 0.25777 0.0
O705 O 0.49062 0.40141 0.25876 0.0
O706 O 0.50565 0.39192 0.2352 0.0
O707 O 0.49478 0.3729 0.23414 0.0
H708 H 0.46309 0.38339 0.23964 0.0
H709 H 0.44692 0.39243 0.22782 0.0
H710 H 0.45506 0.42708 0.25183 0.0
H711 H 0.47127 0.41794 0.26376 0.0
H712 H 0.50715 0.37298 0.30698 0.0
H713 H 0.50042 0.37533 0.28574 0.0
H714 H 0.54715 0.37657 0.29796 0.0
H715 H 0.54036 0.37865 0.27689 0.0
H716 H 0.54398 0.37436 0.22247 0.0
H717 H 0.51493 0.36281 0.19253 0.0
H718 H 0.49844 0.37024 0.2052 0.0
H719 H 0.52734 0.38121 0.23517 0.0
C720 C 0.38123 0.78041 0.96795 0.0
C721 C 0.37843 0.77974 0.95533 0.0
C722 C 0.38288 0.75807 0.95291 0.0
C723 C 0.37922 0.76868 0.94788 0.0
C724 C 0.38543 0.75871 0.96561 0.0
C725 C 0.38465 0.76983 0.97307 0.0
U726 U 0.37811 0.8147 0.9694 0.0
O727 O 0.36821 0.82711 0.98161 0.0
O728 O 0.38918 0.83146 0.97991 0.0
C729 C 0.37911 0.83429 0.98568 0.0
C730 C 0.3811 0.79235 0.97556 0.0
C731 C 0.38115 0.8375 0.99903 0.0
C732 C 0.39515 0.84091 0.01779 0.0
C733 C 0.3929 0.83636 1.00546 0.0
C734 C 0.37377 0.8473 0.01761 0.0
C735 C 0.38572 0.84669 0.02395 0.0
C736 C 0.37155 0.84281 1.00528 0.0
C737 C 0.37274 0.82746 0.93867 0.0
C738 C 0.36924 0.84902 0.93663 0.0
C739 C 0.37213 0.83504 0.91875 0.0
C740 C 0.37348 0.82538 0.92606 0.0
C741 C 0.36999 0.84698 0.92393 0.0
C742 C 0.37063 0.83932 0.94395 0.0
C743 C 0.37446 0.8172 0.94614 0.0
O744 O 0.39089 0.80107 0.97436 0.0
O745 O 0.36987 0.79662 0.97538 0.0
O746 O 0.36495 0.814 0.95301 0.0
O747 O 0.386 0.81792 0.95179 0.0
H748 H 0.37578 0.78785 0.95122 0.0
H749 H 0.37699 0.76845 0.93817 0.0
H750 H 0.38838 0.75074 0.96974 0.0
H751 H 0.3869 0.77022 0.9828 0.0
H752 H 0.4045 0.84039 0.02235 0.0
H753 H 0.40052 0.83232 1.0009 0.0
H754 H 0.36619 0.85148 0.02212 0.0
H755 H 0.36242 0.84381 1.00054 0.0
H756 H 0.36748 0.85805 0.9409 0.0
H757 H 0.37299 0.8332 0.90905 0.0
H758 H 0.3752 0.81629 0.92186 0.0
H759 H 0.37007 0.84108 0.9537 0.0
C760 C 1.00762 0.3991 0.7805 0.0
C761 C 1.00831 0.39786 0.79301 0.0
C762 C 0.0319 0.40119 0.79369 0.0
C763 C 0.02033 0.39892 0.79954 0.0
C764 C 0.03115 0.40252 0.78114 0.0
C765 C 0.01908 0.40147 0.77459 0.0
U766 U 0.97135 0.39181 0.78032 0.0
O767 O 0.95565 0.4009 0.77244 0.0
O768 O 0.9567 0.38096 0.76685 0.0
C769 C 0.95092 0.3908 0.76505 0.0
C770 C 0.99492 0.39781 0.77369 0.0
C771 C 0.94838 0.39289 0.75228 0.0
C772 C 0.95591 0.39795 0.73273 0.0
C773 C 0.95857 0.39585 0.74486 0.0
C774 C 0.93286 0.39409 0.73538 0.0
C775 C 0.94301 0.3971 0.72785 0.0
C776 C 0.93554 0.39201 0.74747 0.0
C777 C 0.95721 0.38347 0.81 0.0
C778 C 0.93419 0.38204 0.81295 0.0
C779 C 0.94888 0.37608 0.82844 0.0
C780 C 0.95928 0.37897 0.82131 0.0
C781 C 0.93623 0.37768 0.82439 0.0
C782 C 0.94459 0.38488 0.80579 0.0
C783 C 0.9683 0.38685 0.80281 0.0
O784 O 0.98865 0.38628 0.77196 0.0
O785 O 0.98753 0.40622 0.77731 0.0
O786 O 0.96948 0.39831 0.7995 0.0
O787 O 0.97017 0.37829 0.79403 0.0
H788 H 0.99953 0.39606 0.79771 0.0
H789 H 0.02054 0.39805 0.80922 0.0
H790 H 0.03987 0.40416 0.77634 0.0
H791 H 0.01869 0.40242 0.76493 0.0
H792 H 0.96394 0.40012 0.72716 0.0
H793 H 0.96856 0.39656 0.74845 0.0
H794 H 0.92283 0.39357 0.732 0.0
H795 H 0.92757 0.38978 0.75311 0.0
H796 H 0.92454 0.38322 0.80951 0.0
H797 H 0.95079 0.37287 0.83726 0.0
H798 H 0.96896 0.37784 0.82468 0.0
H799 H 0.94282 0.38827 0.79703 0.0
C800 C 0.36563 0.24118 0.53506 0.0
C801 C 0.36514 0.24166 0.54774 0.0
C802 C 0.36322 0.26401 0.54899 0.0
C803 C 0.364 0.25298 0.55465 0.0
C804 C 0.36329 0.26339 0.53622 0.0
C805 C 0.36454 0.25205 0.52932 0.0
U806 U 0.36727 0.20647 0.53407 0.0
O807 O 0.36076 0.19052 0.5201 0.0
O808 O 0.38132 0.19482 0.52663 0.0
C809 C 0.37257 0.18781 0.51893 0.0
C810 C 0.36766 0.22941 0.52797 0.0
C811 C 0.37635 0.18549 0.50641 0.0
C812 C 0.38267 0.1927 0.48719 0.0
C813 C 0.3788 0.19526 0.499 0.0
C814 C 0.3816 0.17061 0.49017 0.0
C815 C 0.3842 0.18033 0.48267 0.0
C816 C 0.37773 0.17318 0.50191 0.0
C817 C 0.36066 0.19131 0.56341 0.0
C818 C 0.36833 0.17237 0.56956 0.0
C819 C 0.35011 0.18011 0.57896 0.0
C820 C 0.35106 0.19008 0.57174 0.0
C821 C 0.35881 0.17121 0.57804 0.0
C822 C 0.36921 0.1823 0.56226 0.0
C823 C 0.36171 0.20216 0.55624 0.0
O824 O 0.37814 0.22484 0.53153 0.0
O825 O 0.35737 0.22079 0.52591 0.0
O826 O 0.35282 0.20161 0.54722 0.0
O827 O 0.37343 0.20643 0.55338 0.0
H828 H 0.36587 0.23332 0.55233 0.0
H829 H 0.3638 0.25312 0.56444 0.0
H830 H 0.3628 0.27175 0.53163 0.0
H831 H 0.36488 0.25183 0.51953 0.0
H832 H 0.38466 0.2004 0.48167 0.0
H833 H 0.37779 0.20485 0.50237 0.0
H834 H 0.38241 0.16095 0.48691 0.0
H835 H 0.37583 0.16551 0.50751 0.0
H836 H 0.37506 0.16558 0.56856 0.0
H837 H 0.34276 0.17953 0.58548 0.0
H838 H 0.34438 0.19693 0.57275 0.0
H839 H 0.37662 0.18299 0.5558 0.0
C840 C 0.47582 0.62077 0.26731 0.0
C841 C 0.4772 0.62242 0.28007 0.0
C842 C 0.45421 0.615 0.28098 0.0
C843 C 0.46651 0.61958 0.28684 0.0
C844 C 0.45289 0.61328 0.26816 0.0
C845 C 0.46363 0.61617 0.26138 0.0
U846 U 0.51174 0.63087 0.26726 0.0
O847 O 0.52657 0.62432 0.25588 0.0
O848 O 0.52321 0.64408 0.25668 0.0
C849 C 0.52924 0.63522 0.2515 0.0
C850 C 0.48717 0.62375 0.26029 0.0
C851 C 0.53018 0.63493 0.23819 0.0
C852 C 0.5292 0.62344 0.218 0.0
C853 C 0.52679 0.62375 0.23033 0.0
C854 C 0.5379 0.64559 0.22104 0.0
C855 C 0.53501 0.6343 0.21325 0.0
C856 C 0.53556 0.64588 0.23338 0.0
C857 C 0.53091 0.63688 0.29837 0.0
C858 C 0.55426 0.6376 0.30163 0.0
C859 C 0.5418 0.64442 0.31824 0.0
C860 C 0.53046 0.64172 0.31054 0.0
C861 C 0.55382 0.64228 0.31391 0.0
C862 C 0.5429 0.63497 0.2939 0.0
C863 C 0.51875 0.63353 0.29064 0.0
O864 O 0.49251 0.63562 0.26186 0.0
O865 O 0.49571 0.61585 0.26071 0.0
O866 O 0.51755 0.6227 0.28379 0.0
O867 O 0.51485 0.64263 0.28493 0.0
H868 H 0.48658 0.62589 0.2848 0.0
H869 H 0.46792 0.62081 0.29668 0.0
H870 H 0.44354 0.60986 0.26337 0.0
H871 H 0.46242 0.61483 0.25152 0.0
H872 H 0.52698 0.61454 0.21232 0.0
H873 H 0.52265 0.61513 0.23376 0.0
H874 H 0.54219 0.65418 0.21767 0.0
H875 H 0.53828 0.65461 0.23924 0.0
H876 H 0.56338 0.63599 0.298 0.0
H877 H 0.54111 0.64788 0.32768 0.0
H878 H 0.52129 0.64323 0.31414 0.0
H879 H 0.54345 0.63131 0.2845 0.0
C880 C 0.10509 0.79218 0.01796 0.0
C881 C 0.10436 0.80514 0.01879 0.0
C882 C 0.10067 0.80403 0.99674 0.0
C883 C 0.10215 0.811 0.0083 0.0
C884 C 0.10127 0.79099 0.99597 0.0
C885 C 0.10346 0.78512 1.00651 0.0
U886 U 0.1146 0.79626 0.05144 0.0
O887 O 0.10778 0.78599 0.06664 0.0
O888 O 0.12833 0.78772 0.06274 0.0
C889 C 0.11927 0.78286 0.06937 0.0
C890 C 0.10799 0.78623 0.02902 0.0
C891 C 0.11956 0.76975 0.072 0.0
C892 C 0.1245 0.7485 0.06688 0.0
C893 C 0.12361 0.76064 0.06365 0.0
C894 C 0.11709 0.75444 0.0867 0.0
C895 C 0.1213 0.74528 0.07848 0.0
C896 C 0.11623 0.76652 0.08348 0.0
C897 C 0.11953 0.83035 0.06681 0.0
C898 C 0.13467 0.84198 0.08288 0.0
C899 C 0.11286 0.84715 0.08031 0.0
C900 C 0.11008 0.83777 0.07051 0.0
C901 C 0.12521 0.84941 0.08656 0.0
C902 C 0.13186 0.83252 0.07312 0.0
C903 C 0.11643 0.82082 0.05611 0.0
O904 O 0.12011 0.78886 0.03351 0.0
O905 O 0.0996 0.78712 0.03738 0.0
O906 O 0.10546 0.81321 0.05608 0.0
O907 O 0.12598 0.81507 0.05219 0.0
H908 H 0.10569 0.81076 0.02756 0.0
H909 H 0.10196 0.82108 0.00923 0.0
H910 H 0.10005 0.78533 0.98723 0.0
H911 H 0.104 0.7751 1.0057 0.0
H912 H 0.12767 0.74164 0.0603 0.0
H913 H 0.12621 0.76294 0.05471 0.0
H914 H 0.11475 0.75238 0.09577 0.0
H915 H 0.11317 0.77344 0.09008 0.0
H916 H 0.14423 0.84343 0.08759 0.0
H917 H 0.10542 0.85283 0.08284 0.0
H918 H 0.10055 0.83638 0.06572 0.0
H919 H 0.13937 0.82697 0.0705 0.0
C920 C 0.7665 0.02608 0.64302 0.0
C921 C 0.76836 0.01937 0.65313 0.0
C922 C 0.79002 0.01632 0.64744 0.0
C923 C 0.78 0.01459 0.65533 0.0
C924 C 0.78823 0.02316 0.63743 0.0
C925 C 0.77662 0.02803 0.63528 0.0
U926 U 0.73031 0.01945 0.63435 0.0
O927 O 0.71385 0.02798 0.64141 0.0
O928 O 0.71759 0.02807 0.62207 0.0
C929 C 0.71051 0.0317 0.63086 0.0
C930 C 0.75402 0.03075 0.64026 0.0
C931 C 0.7072 0.04459 0.63123 0.0
C932 C 0.7124 0.06695 0.62911 0.0
C933 C 0.71612 0.05488 0.62883 0.0
C934 C 0.69092 0.05852 0.63422 0.0
C935 C 0.69976 0.0689 0.63188 0.0
C936 C 0.69461 0.04652 0.6339 0.0
C937 C 0.71495 0.9849 0.62976 0.0
C938 C 0.69169 0.97818 0.62881 0.0
C939 C 0.70631 0.96282 0.62478 0.0
C940 C 0.71688 0.97241 0.62668 0.0
C941 C 0.69359 0.96556 0.62597 0.0
C942 C 0.70229 0.98778 0.63067 0.0
C943 C 0.72625 0.99473 0.63233 0.0
O944 O 0.74913 0.02824 0.62891 0.0
O945 O 0.74522 0.02909 0.64823 0.0
O946 O 0.72655 1.0018 0.64275 0.0
O947 O 0.7295 1.00119 0.62324 0.0
H948 H 0.76078 0.01764 0.65929 0.0
H949 H 0.78102 0.00926 0.66305 0.0
H950 H 0.79583 0.02478 0.63126 0.0
H951 H 0.7755 0.03322 0.62747 0.0
H952 H 0.71946 0.07477 0.62735 0.0
H953 H 0.7259 0.05359 0.62677 0.0
H954 H 0.68106 0.05963 0.63618 0.0
H955 H 0.68757 0.03868 0.6357 0.0
H956 H 0.68206 0.98062 0.6299 0.0
H957 H 0.70811 0.95325 0.62239 0.0
H958 H 0.72659 0.97004 0.62588 0.0
H959 H 0.70063 0.99741 0.63303 0.0
C960 C 0.77833 1.00571 0.3696 0.0
C961 C 0.77658 0.9925 0.36792 0.0
C962 C 0.75316 0.99201 0.36752 0.0
C963 C 0.76411 0.98571 0.36686 0.0
C964 C 0.75498 1.00527 0.36905 0.0
C965 C 0.76748 0.01206 0.37008 0.0
U966 U 0.81438 1.00585 0.375 0.0
O967 O 0.83104 0.01633 0.36737 0.0
O968 O 0.82909 0.01843 0.38711 0.0
C969 C 0.83567 0.02217 0.37803 0.0
C970 C 0.79146 0.01282 0.37138 0.0
C971 C 0.8397 0.03579 0.37837 0.0
C972 C 0.83501 0.05736 0.3795 0.0
C973 C 0.83075 0.04442 0.37923 0.0
C974 C 0.85711 0.05304 0.37802 0.0
C975 C 0.84825 0.06179 0.37882 0.0
C976 C 0.85287 0.04018 0.37779 0.0
C977 C 0.82749 0.97488 0.37731 0.0
C978 C 0.84815 0.97252 0.38756 0.0
C979 C 0.83863 0.95722 0.37084 0.0
C980 C 0.82805 0.96383 0.36964 0.0
C981 C 0.84878 0.9615 0.37982 0.0
C982 C 0.83765 0.9792 0.38627 0.0
C983 C 0.81648 0.98195 0.37558 0.0
O984 O 0.79721 0.01287 0.38227 0.0
O985 O 0.79905 0.01069 0.36254 0.0
O986 O 0.816 0.98728 0.36541 0.0
O987 O 0.81391 0.98926 0.38511 0.0
H988 H 0.78489 0.98745 0.36763 0.0
H989 H 0.76306 0.97552 0.36586 0.0
H990 H 0.74674 0.0104 0.36948 0.0
H991 H 0.76867 0.02226 0.37139 0.0
H992 H 0.82795 0.06386 0.38005 0.0
H993 H 0.82052 0.04114 0.37965 0.0
H994 H 0.86739 0.05615 0.3777 0.0
H995 H 0.8599 0.03364 0.37718 0.0
H996 H 0.85591 0.9761 0.39446 0.0
H997 H 0.83882 0.9487 0.36481 0.0
H998 H 0.82034 0.96036 0.36266 0.0
H999 H 0.83754 0.9878 0.39221 0.0
C1000 C 0.79447 0.96902 0.15326 0.0
C1001 C 0.80805 0.96998 0.15422 0.0
C1002 C 0.80667 0.94714 0.15105 0.0
C1003 C 0.81409 0.95916 0.15317 0.0
C1004 C 0.79305 0.94622 0.15008 0.0
C1005 C 0.78701 0.95709 0.15119 0.0
U1006 U 0.7975 1.00407 0.15237 0.0
O1007 O 0.78531 0.016 0.14323 0.0
O1008 O 0.78929 0.01896 0.16311 0.0
C1009 C 0.78303 0.02223 0.15352 0.0
C1010 C 0.7882 0.98048 0.15393 0.0
C1011 C 0.76953 0.02435 0.15483 0.0
C1012 C 0.74803 0.01877 0.16179 0.0
C1013 C 0.76076 0.01622 0.16059 0.0
C1014 C 0.75279 0.03748 0.15144 0.0
C1015 C 0.7439 0.02941 0.15717 0.0
C1016 C 0.76546 0.03496 0.15029 0.0
C1017 C 0.83038 0.02164 0.14733 0.0
C1018 C 0.83264 0.04371 0.14386 0.0
C1019 C 0.85162 0.03302 0.14493 0.0
C1020 C 0.8438 0.02191 0.14691 0.0
C1021 C 0.84613 0.04404 0.14331 0.0
C1022 C 0.82484 0.03261 0.14587 0.0
C1023 C 0.82219 0.00985 0.14903 0.0
O1024 O 0.79197 0.98866 0.16352 0.0
O1025 O 0.78762 0.98574 0.14372 0.0
O1026 O 0.81332 1.00571 0.14011 0.0
O1027 O 0.81775 0.00929 0.15986 0.0
H1028 H 0.81398 0.97913 0.15566 0.0
H1029 H 0.82458 0.96021 0.15376 0.0
H1030 H 0.78708 0.93711 0.14853 0.0
H1031 H 0.77651 0.95619 0.15037 0.0
H1032 H 0.74138 0.01234 0.16617 0.0
H1033 H 0.76375 1.00796 0.16414 0.0
H1034 H 0.75001 0.04585 0.14796 0.0
H1035 H 0.77213 0.04137 0.14588 0.0
H1036 H 0.82807 0.05197 0.14251 0.0
H1037 H 0.86199 0.03298 0.14476 0.0
H1038 H 0.84822 0.01352 0.14806 0.0
H1039 H 0.81447 0.03254 0.14615 0.0
C1040 C 0.70683 0.96087 0.88312 0.0
C1041 C 0.69356 0.95959 0.88497 0.0
C1042 C 0.69343 0.93734 0.88736 0.0
C1043 C 0.68691 0.94794 0.88705 0.0
C1044 C 0.70681 0.93875 0.8857 0.0
C1045 C 0.71345 0.95043 0.88359 0.0
U1046 U 0.70637 0.99534 0.87992 0.0
O1047 O 0.72067 0.01212 0.88546 0.0
O1048 O 0.71411 1.00721 0.86614 0.0
C1049 C 0.72221 0.01457 0.87418 0.0
C1050 C 0.71366 0.97302 0.88045 0.0
C1051 C 0.73568 0.01743 0.87076 0.0
C1052 C 0.75896 0.01853 0.87512 0.0
C1053 C 0.74625 0.01451 0.87788 0.0
C1054 C 0.75074 0.02794 0.85778 0.0
C1055 C 0.76134 0.02547 0.86515 0.0
C1056 C 0.73805 0.024 0.86059 0.0
C1057 C 0.6752 0.00902 0.88635 0.0
C1058 C 0.67009 0.02898 0.88028 0.0
C1059 C 0.65868 0.01935 0.89622 0.0
C1060 C 0.66584 0.00929 0.89492 0.0
C1061 C 0.66072 0.02931 0.88892 0.0
C1062 C 0.67733 0.01895 0.87906 0.0
C1063 C 0.68278 0.99844 0.88537 0.0
O1064 O 0.70923 0.97713 0.87044 0.0
O1065 O 0.71582 0.98181 0.88974 0.0
O1066 O 0.69253 0.99923 0.89361 0.0
O1067 O 0.68568 0.99455 0.87435 0.0
H1068 H 0.68829 0.96758 0.88462 0.0
H1069 H 0.67659 0.94718 0.88809 0.0
H1070 H 0.71216 0.93082 0.88603 0.0
H1071 H 0.72372 0.95128 0.88222 0.0
H1072 H 0.76694 0.01637 0.88089 0.0
H1073 H 0.74473 0.00938 0.88574 0.0
H1074 H 0.75225 0.03337 0.85013 0.0
H1075 H 0.73005 0.0264 0.85501 0.0
H1076 H 0.67197 0.03658 0.87463 0.0
H1077 H 0.65145 0.01928 0.90286 0.0
H1078 H 0.66409 1.00172 0.90064 0.0
H1079 H 0.68462 0.01899 0.87247 0.0
C1080 C 0.60605 0.72633 0.96724 0.0
C1081 C 0.60604 0.72535 0.9545 0.0
C1082 C 0.60652 0.74804 0.95483 0.0
C1083 C 0.60625 0.73609 0.94836 0.0
C1084 C 0.60668 0.74899 0.96763 0.0
C1085 C 0.60642 0.7382 0.97379 0.0
U1086 U 0.60752 0.69167 0.9651 0.0
O1087 O 0.61747 0.67984 0.97661 0.0
O1088 O 0.59629 0.6761 0.973 0.0
C1089 C 0.60659 0.67305 0.9788 0.0
C1090 C 0.60577 0.71492 0.97357 0.0
C1091 C 0.60525 0.67031 0.99146 0.0
C1092 C 0.59864 0.67512 0.01193 0.0
C1093 C 0.60016 0.67841 1.00007 0.0
C1094 C 0.6074 0.65575 1.00659 0.0
C1095 C 0.60225 0.66373 0.01531 0.0
C1096 C 0.60889 0.65903 0.99482 0.0
C1097 C 0.61192 0.67566 0.93362 0.0
C1098 C 0.61214 0.65309 0.92985 0.0
C1099 C 0.61602 0.66637 0.9136 0.0
C1100 C 0.61458 0.67693 0.92152 0.0
C1101 C 0.61481 0.65432 0.91766 0.0
C1102 C 0.61073 0.66369 0.93778 0.0
C1103 C 0.61049 0.68688 0.94179 0.0
O1104 O 0.59558 0.70636 0.97046 0.0
O1105 O 0.61673 0.71016 0.97398 0.0
O1106 O 0.62022 0.69076 0.94995 0.0
O1107 O 0.59909 0.68692 0.94627 0.0
H1108 H 0.60587 0.71626 0.9493 0.0
H1109 H 0.60633 0.73504 0.93852 0.0
H1110 H 0.60678 0.75805 0.97287 0.0
H1111 H 0.60646 0.73912 0.98363 0.0
H1112 H 0.59471 0.6815 0.01844 0.0
H1113 H 0.5973 0.68718 0.99762 0.0
H1114 H 0.61003 0.6468 0.00876 0.0
H1115 H 0.61276 0.65263 0.98825 0.0
H1116 H 0.61127 0.64397 0.93328 0.0
H1117 H 0.61787 0.66761 0.90423 0.0
H1118 H 0.61551 0.68611 0.91817 0.0
H1119 H 0.60873 0.66257 0.94714 0.0
C1120 C 0.97254 0.11666 0.76268 0.0
C1121 C 0.96818 0.10473 0.76628 0.0
C1122 C 0.95004 0.11285 0.77574 0.0
C1123 C 0.95705 0.10285 0.77273 0.0
C1124 C 0.95416 0.12466 0.77181 0.0
C1125 C 0.96524 0.12652 0.7653 0.0
U1126 U 1.00936 0.12252 0.76442 0.0
O1127 O 0.02364 0.11566 0.7525 0.0
O1128 O 0.02294 0.13597 0.75601 0.0
C1129 C 0.02818 0.12703 0.74998 0.0
C1130 C 0.98481 0.11905 0.75658 0.0
C1131 C 0.02995 0.12841 0.73709 0.0
C1132 C 0.02151 0.12823 0.71611 0.0
C1133 C 0.01939 0.12715 0.72839 0.0
C1134 C 0.0447 0.13196 0.72122 0.0
C1135 C 0.03421 0.13062 0.71238 0.0
C1136 C 0.04258 0.13088 0.73343 0.0
C1137 C 0.02731 0.12314 0.79555 0.0
C1138 C 0.05081 0.12545 0.79824 0.0
C1139 C 0.03804 0.12547 0.81586 0.0
C1140 C 0.02668 0.12392 0.8082 0.0
C1141 C 0.05026 0.12626 0.81098 0.0
C1142 C 0.03942 0.12392 0.79059 0.0
C1143 C 0.01526 0.12165 0.78769 0.0
O1144 O 0.99156 0.13028 0.75944 0.0
O1145 O 0.99209 0.10997 0.75601 0.0
O1146 O 0.01331 0.11162 0.77967 0.0
O1147 O 0.01262 0.13191 0.78314 0.0
H1148 H 0.97349 0.09687 0.76434 0.0
H1149 H 0.95416 0.09366 0.77567 0.0
H1150 H 0.94884 0.1325 0.7738 0.0
H1151 H 0.96821 0.13577 0.7625 0.0
H1152 H 0.01321 0.12723 0.70956 0.0
H1153 H 0.00956 0.12525 0.73109 0.0
H1154 H 0.05461 0.13354 0.71867 0.0
H1155 H 0.05084 0.13183 0.74003 0.0
H1156 H 0.06004 0.1259 0.79418 0.0
H1157 H 0.03725 0.12628 0.82561 0.0
H1158 H 0.01739 0.1234 0.81218 0.0
H1159 H 0.04006 0.12334 0.78081 0.0
C1160 C 0.88022 0.29482 0.46772 0.0
C1161 C 0.87664 0.29253 0.4552 0.0
C1162 C 0.88189 0.27117 0.45497 0.0
C1163 C 0.87743 0.28081 0.44889 0.0
C1164 C 0.88524 0.27345 0.46759 0.0
C1165 C 0.88441 0.28519 0.47391 0.0
U1166 U 0.87846 0.32908 0.46563 0.0
O1167 O 0.86902 0.34307 0.47637 0.0
O1168 O 0.89011 0.34622 0.47501 0.0
C1169 C 0.88009 0.35014 0.48009 0.0
C1170 C 0.88039 0.30747 0.47407 0.0
C1171 C 0.88209 0.35416 0.49322 0.0
C1172 C 0.88222 0.34965 0.51432 0.0
C1173 C 0.88026 0.3455 0.50186 0.0
C1174 C 0.888 0.37107 0.50955 0.0
C1175 C 0.88614 0.36249 0.51829 0.0
C1176 C 0.88598 0.36694 0.49714 0.0
C1177 C 0.87421 0.33907 0.4336 0.0
C1178 C 0.87027 0.36006 0.42964 0.0
C1179 C 0.87521 0.3453 0.41316 0.0
C1180 C 0.87617 0.33628 0.42128 0.0
C1181 C 0.87224 0.3573 0.41724 0.0
C1182 C 0.8713 0.35103 0.43778 0.0
C1183 C 0.87539 0.32946 0.44197 0.0
O1184 O 0.89051 0.31557 0.47227 0.0
O1185 O 0.86939 0.31213 0.47311 0.0
O1186 O 0.86566 0.32724 0.44886 0.0
O1187 O 0.88679 0.33022 0.44789 0.0
H1188 H 0.87352 0.29992 0.45025 0.0
H1189 H 0.87498 0.27946 0.43915 0.0
H1190 H 0.8886 0.26618 0.47255 0.0
H1191 H 0.88725 0.28683 0.48357 0.0
H1192 H 0.88081 0.3428 0.52083 0.0
H1193 H 0.87733 0.33557 0.49897 0.0
H1194 H 0.89081 0.38104 0.5123 0.0
H1195 H 0.88743 0.37374 0.49058 0.0
H1196 H 0.8681 0.36926 0.43307 0.0
H1197 H 0.87662 0.34283 0.40365 0.0
H1198 H 0.87843 0.32708 0.41793 0.0
H1199 H 0.86985 0.35337 0.44731 0.0
C1200 C 0.47827 0.89277 0.76936 0.0
C1201 C 0.47291 0.88473 0.77757 0.0
C1202 C 0.45842 0.89972 0.7839 0.0
C1203 C 0.46304 0.88812 0.78468 0.0
C1204 C 0.46359 0.90762 0.77544 0.0
C1205 C 0.47342 0.90416 0.76824 0.0
U1206 U 0.51008 0.87988 0.76948 0.0
O1207 O 0.5191 0.86818 0.75591 0.0
O1208 O 0.52899 0.88701 0.76306 0.0
C1209 C 0.52901 0.87698 0.75526 0.0
C1210 C 0.4896 0.88988 0.76277 0.0
C1211 C 0.53323 0.87922 0.74303 0.0
C1212 C 0.53122 0.87462 0.72093 0.0
C1213 C 0.52611 0.87348 0.73228 0.0
C1214 C 0.55044 0.88753 0.73089 0.0
C1215 C 0.54353 0.88154 0.72012 0.0
C1216 C 0.54535 0.88636 0.74218 0.0
C1217 C 0.52168 0.86808 0.79905 0.0
C1218 C 0.54356 0.86321 0.80255 0.0
C1219 C 0.52831 0.86063 0.81813 0.0
C1220 C 0.51882 0.86464 0.81058 0.0
C1221 C 0.54085 0.86004 0.81427 0.0
C1222 C 0.53405 0.86718 0.79499 0.0
C1223 C 0.51193 0.8732 0.79163 0.0
O1224 O 0.50066 0.89666 0.76702 0.0
O1225 O 0.49054 0.87786 0.76023 0.0
O1226 O 0.50616 0.86563 0.78228 0.0
O1227 O 0.51543 0.88474 0.78902 0.0
H1228 H 0.47655 0.87592 0.7787 0.0
H1229 H 0.45915 0.88169 0.79092 0.0
H1230 H 0.46039 0.91668 0.77468 0.0
H1231 H 0.4775 0.91057 0.76205 0.0
H1232 H 0.5256 0.86998 0.71281 0.0
H1233 H 0.51674 0.86787 0.73263 0.0
H1234 H 0.56003 0.89275 0.73066 0.0
H1235 H 0.55111 0.89074 0.75034 0.0
H1236 H 0.55308 0.86271 0.79925 0.0
H1237 H 0.52595 0.85841 0.82715 0.0
H1238 H 0.50932 0.86533 0.81386 0.0
H1239 H 0.5364 0.86978 0.78608 0.0
C1240 C 1.00203 0.14056 0.23151 0.0
C1241 C 0.99556 0.15116 0.2312 0.0
C1242 C 0.98882 0.14511 0.20972 0.0
C1243 C 0.98909 0.15346 0.22039 0.0
C1244 C 0.99559 0.13467 0.21005 0.0
C1245 C 1.00214 0.13244 0.22084 0.0
U1246 U 1.00189 0.14139 0.26572 0.0
O1247 O 1.00355 0.12643 0.27768 0.0
O1248 O 0.01754 0.14379 0.28029 0.0
C1249 C 0.01421 0.13248 0.28359 0.0
C1250 C 1.00769 0.1373 0.24308 0.0
C1251 C 0.02482 0.12501 0.2854 0.0
C1252 C 0.04386 0.1163 0.27867 0.0
C1253 C 0.03343 0.1229 0.27637 0.0
C1254 C 0.03692 0.11362 0.29889 0.0
C1255 C 0.04578 0.11167 0.29002 0.0
C1256 C 0.02656 0.12021 0.29659 0.0
C1257 C 0.97662 0.15787 0.28179 0.0
C1258 C 0.9719 0.15479 0.30261 0.0
C1259 C 0.96212 0.17039 0.29228 0.0
C1260 C 0.96858 0.16729 0.2819 0.0
C1261 C 0.96357 0.16406 0.30272 0.0
C1262 C 0.97839 0.15176 0.29226 0.0
C1263 C 0.98283 0.15425 0.27065 0.0
O1264 O 0.01361 0.14678 0.25066 0.0
O1265 O 1.00007 0.12913 0.24842 0.0
O1266 O 0.98108 0.14211 0.26703 0.0
O1267 O 0.99486 0.15957 0.27015 0.0
H1268 H 0.99526 0.1575 0.23938 0.0
H1269 H 0.98415 0.16167 0.22045 0.0
H1270 H 0.99542 0.12791 0.2021 0.0
H1271 H 1.00695 0.12414 0.22095 0.0
H1272 H 0.05044 0.11488 0.27161 0.0
H1273 H 0.03219 0.12651 0.26764 0.0
H1274 H 0.03821 0.11042 0.3078 0.0
H1275 H 0.02002 0.12179 0.30367 0.0
H1276 H 0.97312 0.1496 0.3104 0.0
H1277 H 0.95595 0.1777 0.2921 0.0
H1278 H 0.96717 0.17215 0.27391 0.0
H1279 H 0.9846 0.14447 0.29234 0.0
C1280 C 0.48539 0.12578 0.7362 0.0
C1281 C 0.48153 0.13433 0.72838 0.0
C1282 C 0.46208 0.11971 0.72114 0.0
C1283 C 0.46997 0.13137 0.72101 0.0
C1284 C 0.46585 0.11128 0.72917 0.0
C1285 C 0.47737 0.11431 0.73663 0.0
U1286 U 0.52162 0.13585 0.73742 0.0
O1287 O 0.53522 0.14793 0.75101 0.0
O1288 O 0.53794 0.12826 0.74614 0.0
C1289 C 0.54178 0.13873 0.75331 0.0
C1290 C 0.49808 0.12832 0.7433 0.0
C1291 C 0.54434 0.13719 0.76623 0.0
C1292 C 0.53691 0.13268 0.78596 0.0
C1293 C 0.53419 0.13439 0.77374 0.0
C1294 C 0.55993 0.13664 0.78325 0.0
C1295 C 0.54984 0.13374 0.79085 0.0
C1296 C 0.55719 0.13836 0.77107 0.0
C1297 C 0.53588 0.144 0.70761 0.0
C1298 C 0.55902 0.14732 0.70507 0.0
C1299 C 0.54374 0.15025 0.68859 0.0
C1300 C 0.53346 0.1471 0.69578 0.0
C1301 C 0.55664 0.15032 0.69312 0.0
C1302 C 0.54871 0.14421 0.71227 0.0
C1303 C 0.52489 0.14019 0.71479 0.0
O1304 O 0.50629 0.12049 0.74029 0.0
O1305 O 0.50353 0.14016 0.74507 0.0
O1306 O 0.52223 0.1488 0.72318 0.0
O1307 O 0.52452 0.12897 0.71856 0.0
H1308 H 0.48753 0.14324 0.72779 0.0
H1309 H 0.46728 0.13819 0.71512 0.0
H1310 H 0.46013 0.10217 0.72942 0.0
H1311 H 0.4802 0.10754 0.74253 0.0
H1312 H 0.52891 0.13057 0.79158 0.0
H1313 H 0.52418 0.13347 0.77013 0.0
H1314 H 0.56998 0.1373 0.78662 0.0
H1315 H 0.56514 0.14047 0.76537 0.0
H1316 H 0.56884 0.14743 0.70887 0.0
H1317 H 0.54156 0.15234 0.67938 0.0
H1318 H 0.5236 0.14693 0.69203 0.0
H1319 H 0.55073 0.14185 0.72143 0.0
C1320 C 0.12379 0.25766 0.95982 0.0
C1321 C 0.12465 0.2575 0.9472 0.0
C1322 C 0.12822 0.23556 0.94574 0.0
C1323 C 0.12682 0.24656 0.94023 0.0
C1324 C 0.12763 0.23582 0.95845 0.0
C1325 C 0.12538 0.2468 0.96543 0.0
U1326 U 0.11987 0.29172 0.96043 0.0
O1327 O 0.10538 0.30275 0.96807 0.0
O1328 O 0.12605 0.30823 0.97381 0.0
C1329 C 0.11411 0.31043 0.97524 0.0
C1330 C 0.12107 0.26915 0.96694 0.0
C1331 C 0.11082 0.31331 0.98784 0.0
C1332 C 0.10793 0.30774 0.00837 0.0
C1333 C 0.11076 0.30445 0.99633 0.0
C1334 C 0.10508 0.32866 1.00341 0.0
C1335 C 0.1051 0.31992 0.01206 0.0
C1336 C 0.1079 0.32537 0.99144 0.0
C1337 C 0.12496 0.30662 0.9308 0.0
C1338 C 0.11635 0.32523 0.925 0.0
C1339 C 0.13494 0.31851 0.91542 0.0
C1340 C 0.13446 0.30839 0.92245 0.0
C1341 C 0.12584 0.32699 0.91656 0.0
C1342 C 0.11596 0.31518 0.93212 0.0
C1343 C 0.12461 0.29582 0.93802 0.0
O1344 O 0.13088 0.27831 0.9688 0.0
O1345 O 0.11014 0.27302 0.96348 0.0
O1346 O 0.11314 0.29112 0.94116 0.0
O1347 O 0.13377 0.29683 0.94687 0.0
H1348 H 0.12354 0.26584 0.94272 0.0
H1349 H 0.12743 0.24673 0.93051 0.0
H1350 H 0.12861 0.22747 0.96293 0.0
H1351 H 0.12477 0.24678 0.97517 0.0
H1352 H 0.10793 0.30076 0.01477 0.0
H1353 H 0.11298 0.29507 0.99367 0.0
H1354 H 0.10322 0.33818 1.00595 0.0
H1355 H 0.10796 0.33233 0.985 0.0
H1356 H 0.10931 0.33171 0.92618 0.0
H1357 H 0.14228 0.31957 0.90892 0.0
H1358 H 0.1415 0.3019 0.92132 0.0
H1359 H 0.10862 0.31408 0.93862 0.0
C1360 C 0.36568 0.70877 0.50741 0.0
C1361 C 0.36304 0.69559 0.50651 0.0
C1362 C 0.37129 0.69575 0.52759 0.0
C1363 C 0.36576 0.68915 0.51649 0.0
C1364 C 0.3738 0.709 0.52849 0.0
C1365 C 0.37103 0.71545 0.51846 0.0
U1366 U 0.35942 0.70648 0.47358 0.0
O1367 O 0.34627 0.71496 0.46157 0.0
O1368 O 0.36727 0.71799 0.45965 0.0
C1369 C 0.35581 0.72055 0.45594 0.0
C1370 C 0.36339 0.71535 0.49661 0.0
C1371 C 0.3551 0.73368 0.45375 0.0
C1372 C 0.35778 0.75612 0.46037 0.0
C1373 C 0.35806 0.74369 0.46302 0.0
C1374 C 0.3514 0.74853 0.43924 0.0
C1375 C 0.35451 0.75869 0.44841 0.0
C1376 C 0.35168 0.73618 0.4419 0.0
C1377 C 0.3578 0.6738 0.45643 0.0
C1378 C 0.35872 0.67034 0.43449 0.0
C1379 C 0.35349 0.6526 0.44607 0.0
C1380 C 0.35458 0.66082 0.45679 0.0
C1381 C 0.35566 0.65725 0.43479 0.0
C1382 C 0.35974 0.67855 0.44522 0.0
C1383 C 0.35928 0.68225 0.46783 0.0
O1384 O 0.3727 0.71557 0.48908 0.0
O1385 O 0.35174 0.71238 0.49102 0.0
O1386 O 0.34889 0.68717 0.47082 0.0
O1387 O 0.36993 0.69044 0.46935 0.0
H1388 H 0.35897 0.69025 0.49802 0.0
H1389 H 0.36347 0.67898 0.51551 0.0
H1390 H 0.37816 0.71437 0.53685 0.0
H1391 H 0.37323 0.72563 0.51928 0.0
H1392 H 0.36012 0.7637 0.46766 0.0
H1393 H 0.36071 0.7419 0.47224 0.0
H1394 H 0.34909 0.75013 0.4299 0.0
H1395 H 0.34942 0.72855 0.43462 0.0
H1396 H 0.36058 0.67424 0.426 0.0
H1397 H 0.35089 0.64261 0.44662 0.0
H1398 H 0.35296 0.65701 0.46537 0.0
H1399 H 0.3622 0.68859 0.44478 0.0
C1400 C 0.73105 0.48391 0.85587 0.0
C1401 C 0.73159 0.49373 0.84837 0.0
C1402 C 0.70886 0.49549 0.8509 0.0
C1403 C 0.7206 0.4994 0.84585 0.0
C1404 C 0.70823 0.48539 0.85811 0.0
C1405 C 0.71923 0.47964 0.86055 0.0
U1406 U 0.76652 0.49106 0.86532 0.0
O1407 O 0.77843 0.48562 0.88046 0.0
O1408 O 0.78329 0.48127 0.86159 0.0
C1409 C 0.78602 0.48019 0.87316 0.0
C1410 C 0.74301 0.47914 0.85994 0.0
C1411 C 0.78918 0.4679 0.87612 0.0
C1412 C 0.78435 0.44512 0.87549 0.0
C1413 C 0.78072 0.45667 0.87274 0.0
C1414 C 0.80478 0.45605 0.88508 0.0
C1415 C 0.79645 0.44469 0.88169 0.0
C1416 C 0.80116 0.46751 0.88233 0.0
C1417 C 0.78145 0.5255 0.86561 0.0
C1418 C 0.8046 0.53283 0.86838 0.0
C1419 C 0.78926 0.54777 0.87058 0.0
C1420 C 0.779 0.53794 0.86797 0.0
C1421 C 0.80217 0.54532 0.87086 0.0
C1422 C 0.79431 0.52297 0.86584 0.0
C1423 C 0.77046 0.51532 0.86329 0.0
O1424 O 0.75213 0.47931 0.85219 0.0
O1425 O 0.7475 0.4834 0.87114 0.0
O1426 O 0.76616 0.51061 0.87304 0.0
O1427 O 0.7713 0.50668 0.85423 0.0
H1428 H 0.74065 0.49737 0.84482 0.0
H1429 H 0.72147 0.50728 0.84043 0.0
H1430 H 0.69931 0.48213 0.86208 0.0
H1431 H 0.71863 0.47215 0.86644 0.0
H1432 H 0.77768 0.43656 0.87281 0.0
H1433 H 0.7714 0.45682 0.86795 0.0
H1434 H 0.81426 0.45608 0.88961 0.0
H1435 H 0.80783 0.47609 0.88495 0.0
H1436 H 0.81444 0.53064 0.86865 0.0
H1437 H 0.78708 0.55731 0.87232 0.0
H1438 H 0.76912 0.54005 0.86785 0.0
H1439 H 0.79638 0.51339 0.86415 0.0
C1440 C 0.69459 0.473 0.14838 0.0
C1441 C 0.681 0.47115 0.14692 0.0
C1442 C 0.6807 0.44846 0.14636 0.0
C1443 C 0.67412 0.45901 0.14593 0.0
C1444 C 0.69434 0.45038 0.14792 0.0
C1445 C 0.70123 0.46257 0.1489 0.0
U1446 U 0.69368 0.50764 0.14746 0.0
O1447 O 0.70444 0.52436 0.15837 0.0
O1448 O 0.7056 0.52197 0.13853 0.0
C1449 C 0.7098 0.52873 0.14889 0.0
C1450 C 0.70172 0.4858 0.14916 0.0
C1451 C 0.72381 0.533 0.15042 0.0
C1452 C 0.74603 0.52925 0.15453 0.0
C1453 C 0.73269 0.52491 0.15348 0.0
C1454 C 0.74163 0.54975 0.14954 0.0
C1455 C 0.75064 0.54169 0.15244 0.0
C1456 C 0.72836 0.54543 0.14854 0.0
C1457 C 0.66086 0.51857 0.14217 0.0
C1458 C 0.65884 0.53968 0.13708 0.0
C1459 C 0.6399 0.526 0.14201 0.0
C1460 C 0.64755 0.51653 0.14376 0.0
C1461 C 0.64545 0.53766 0.13859 0.0
C1462 C 0.66649 0.53023 0.13891 0.0
C1463 C 0.66875 0.50848 0.14388 0.0
O1464 O 0.7013 0.49108 0.13895 0.0
O1465 O 0.69964 0.49336 0.15869 0.0
O1466 O 0.67465 0.50893 0.15476 0.0
O1467 O 0.67621 0.50603 0.13502 0.0
H1468 H 0.67572 0.47912 0.14652 0.0
H1469 H 0.66363 0.4579 0.14496 0.0
H1470 H 0.69969 0.44246 0.14819 0.0
H1471 H 0.71173 0.46385 0.14999 0.0
H1472 H 0.75274 0.52281 0.1567 0.0
H1473 H 0.72931 0.51525 0.15493 0.0
H1474 H 0.74485 0.55943 0.14807 0.0
H1475 H 0.72162 0.5518 0.14621 0.0
H1476 H 0.66342 0.54861 0.1346 0.0
H1477 H 0.6296 0.52413 0.14314 0.0
H1478 H 0.64305 0.50758 0.14629 0.0
H1479 H 0.6768 0.53199 0.13773 0.0
C1480 C 0.71889 0.53332 0.37433 0.0
C1481 C 0.70546 0.53204 0.37545 0.0
C1482 C 0.70641 0.55482 0.37901 0.0
C1483 C 0.69929 0.54265 0.37771 0.0
C1484 C 0.71989 0.55608 0.37781 0.0
C1485 C 0.72608 0.54539 0.37551 0.0
U1486 U 0.71545 0.49843 0.37349 0.0
O1487 O 0.72119 0.4835 0.36075 0.0
O1488 O 0.72793 0.48526 0.38013 0.0
C1489 C 0.72824 0.47925 0.36924 0.0
C1490 C 0.72518 0.52194 0.37225 0.0
C1491 C 0.74088 0.47593 0.36592 0.0
C1492 C 0.76319 0.48129 0.36084 0.0
C1493 C 0.75122 0.48499 0.3637 0.0
C1494 C 0.75443 0.45953 0.36229 0.0
C1495 C 0.76495 0.46851 0.36026 0.0
C1496 C 0.74255 0.46322 0.3651 0.0
C1497 C 0.68219 0.48284 0.38117 0.0
C1498 C 0.67743 0.46069 0.3841 0.0
C1499 C 0.66008 0.47354 0.38344 0.0
C1500 C 0.66902 0.48397 0.38174 0.0
C1501 C 0.66418 0.46177 0.38463 0.0
C1502 C 0.68637 0.47114 0.38234 0.0
C1503 C 0.69137 0.49397 0.37937 0.0
O1504 O 0.72692 0.51611 0.38199 0.0
O1505 O 0.72032 0.51423 0.36263 0.0
O1506 O 0.69452 0.49483 0.36812 0.0
O1507 O 0.70134 0.49674 0.38744 0.0
H1508 H 0.69974 0.52279 0.37459 0.0
H1509 H 0.68888 0.5413 0.37832 0.0
H1510 H 0.72567 0.5653 0.37884 0.0
H1511 H 0.73647 0.54654 0.37473 0.0
H1512 H 0.77112 0.48842 0.35936 0.0
H1513 H 0.75006 0.49487 0.36429 0.0
H1514 H 0.75536 0.4496 0.36169 0.0
H1515 H 0.73464 0.45609 0.36671 0.0
H1516 H 0.68086 0.45172 0.38486 0.0
H1517 H 0.64998 0.47472 0.38397 0.0
H1518 H 0.66564 0.49295 0.38088 0.0
H1519 H 0.69653 0.47011 0.38186 0.0
C1520 C 0.76851 0.54354 0.63398 0.0
C1521 C 0.76824 0.53042 0.63267 0.0
C1522 C 0.74586 0.52752 0.63814 0.0
C1523 C 0.75705 0.52251 0.63472 0.0
C1524 C 0.74621 0.5407 0.63962 0.0
C1525 C 0.75747 0.54866 0.63752 0.0
U1526 U 0.80292 0.54493 0.62654 0.0
O1527 O 0.81453 0.55508 0.61364 0.0
O1528 O 0.82089 0.55742 0.63312 0.0
C1529 C 0.8229 0.56108 0.6223 0.0
C1530 C 0.78043 0.55161 0.63163 0.0
C1531 C 0.82675 0.57471 0.62163 0.0
C1532 C 0.83271 0.59613 0.63141 0.0
C1533 C 0.82735 0.58359 0.63193 0.0
C1534 C 0.83645 0.59128 0.61018 0.0
C1535 C 0.83759 0.60007 0.62059 0.0
C1536 C 0.83114 0.57874 0.61072 0.0
C1537 C 0.81471 0.51241 0.62335 0.0
C1538 C 0.83672 0.50746 0.62569 0.0
C1539 C 0.8195 0.49169 0.61595 0.0
C1540 C 0.81064 0.50023 0.61759 0.0
C1541 C 0.83261 0.49516 0.6201 0.0
C1542 C 0.82785 0.51605 0.62726 0.0
C1543 C 0.80493 0.52084 0.6256 0.0
O1544 O 0.7901 0.55207 0.63991 0.0
O1545 O 0.78396 0.54983 0.62044 0.0
O1546 O 0.80081 0.52614 0.61618 0.0
O1547 O 0.80687 0.52855 0.63572 0.0
H1548 H 0.77671 0.5263 0.63005 0.0
H1549 H 0.75721 0.51243 0.63373 0.0
H1550 H 0.73773 0.54483 0.64221 0.0
H1551 H 0.75754 0.55877 0.6386 0.0
H1552 H 0.83355 0.6026 0.63964 0.0
H1553 H 0.82411 0.58078 0.64051 0.0
H1554 H 0.83991 0.59402 0.60166 0.0
H1555 H 0.83083 0.57209 0.60266 0.0
H1556 H 0.84678 0.51044 0.62887 0.0
H1557 H 0.81599 0.48224 0.61175 0.0
H1558 H 0.80054 0.49725 0.61454 0.0
H1559 H 0.8312 0.52544 0.63168 0.0
C1560 C 0.49982 0.13446 0.27855 0.0
C1561 C 0.48707 0.13717 0.2771 0.0
C1562 C 0.48443 0.1357 0.29866 0.0
C1563 C 0.47942 0.13774 0.28705 0.0
C1564 C 0.49737 0.13343 0.30015 0.0
C1565 C 0.50498 0.13277 0.29016 0.0
U1566 U 0.50493 0.13899 0.24562 0.0
O1567 O 0.52257 0.14338 0.23597 0.0
O1568 O 0.5094 0.12576 0.23054 0.0
C1569 C 0.52051 0.13255 0.22904 0.0
C1570 C 0.50752 0.1329 0.26792 0.0
C1571 C 0.53162 0.12552 0.2275 0.0
C1572 C 0.5535 0.12157 0.23316 0.0
C1573 C 0.54282 0.12784 0.23554 0.0
C1574 C 0.54175 0.11038 0.21491 0.0
C1575 C 0.55311 0.11284 0.22275 0.0
C1576 C 0.53115 0.11666 0.21726 0.0
C1577 C 0.48087 0.15532 0.22803 0.0
C1578 C 0.48371 0.15983 0.20718 0.0
C1579 C 0.46307 0.16131 0.21582 0.0
C1580 C 0.46808 0.1579 0.22681 0.0
C1581 C 0.47079 0.16223 0.20582 0.0
C1582 C 0.48869 0.15636 0.21818 0.0
C1583 C 0.48569 0.151 0.23941 0.0
O1584 O 0.50164 0.12512 0.25877 0.0
O1585 O 0.51354 0.14336 0.2645 0.0
O1586 O 0.49704 0.15677 0.24415 0.0
O1587 O 0.48446 0.13871 0.23945 0.0
H1588 H 0.48294 0.13861 0.26821 0.0
H1589 H 0.46955 0.13966 0.28564 0.0
H1590 H 0.50146 0.13174 0.30896 0.0
H1591 H 0.51482 0.13068 0.29144 0.0
H1592 H 0.56208 0.12361 0.2394 0.0
H1593 H 0.54342 0.13461 0.24353 0.0
H1594 H 0.54118 0.10392 0.2067 0.0
H1595 H 0.52265 0.11479 0.2109 0.0
H1596 H 0.48996 0.16058 0.19973 0.0
H1597 H 0.45303 0.16285 0.21505 0.0
H1598 H 0.46189 0.15704 0.2343 0.0
H1599 H 0.49858 0.15434 0.21895 0.0
C1600 C 0.97049 0.91342 0.76525 0.0
C1601 C 0.96414 0.90767 0.75415 0.0
C1602 C 0.95275 0.92578 0.75226 0.0
C1603 C 0.95532 0.91375 0.74777 0.0
C1604 C 0.95909 0.93151 0.76338 0.0
C1605 C 0.96783 0.92535 0.76983 0.0
U1606 U 0.9995 0.8957 0.76472 0.0
O1607 O 0.01727 0.89756 0.77683 0.0
O1608 O 1.00417 0.8796 0.77411 0.0
C1609 C 0.0146 0.88612 0.78005 0.0
C1610 C 0.98027 0.90733 0.77181 0.0
C1611 C 0.01653 0.88453 0.79313 0.0
C1612 C 0.02297 0.89307 0.81413 0.0
C1613 C 0.01943 0.89488 0.80209 0.0
C1614 C 0.02021 0.87053 0.80855 0.0
C1615 C 0.02369 0.88088 0.81744 0.0
C1616 C 0.01672 0.87234 0.79653 0.0
C1617 C 0.01338 0.88826 0.73396 0.0
C1618 C 0.03559 0.8854 0.73022 0.0
C1619 C 0.0182 0.87724 0.71489 0.0
C1620 C 1.00924 0.8818 0.72249 0.0
C1621 C 0.03153 0.87913 0.71857 0.0
C1622 C 0.02661 0.88987 0.73785 0.0
C1623 C 1.00383 0.89358 0.74153 0.0
O1624 O 0.97929 0.89501 0.76955 0.0
O1625 O 0.99227 0.91301 0.77208 0.0
O1626 O 1.00831 0.9036 0.74911 0.0
O1627 O 0.99568 0.8854 0.74634 0.0
H1628 H 0.96612 0.89855 0.75028 0.0
H1629 H 0.95077 0.90918 0.73913 0.0
H1630 H 0.95728 0.94075 0.76708 0.0
H1631 H 0.97266 0.92998 0.77835 0.0
H1632 H 0.0257 0.90126 0.82072 0.0
H1633 H 0.01941 0.90441 0.79975 0.0
H1634 H 0.02046 0.86101 0.81081 0.0
H1635 H 0.01455 0.86421 0.78979 0.0
H1636 H 0.04577 0.88718 0.73333 0.0
H1637 H 0.01466 0.87225 0.7061 0.0
H1638 H 0.99906 0.88039 0.71935 0.0
H1639 H 0.03006 0.89477 0.7467 0.0
C1640 C 0.51855 0.89543 0.28863 0.0
C1641 C 0.51939 0.89428 0.30116 0.0
C1642 C 0.54289 0.89959 0.30194 0.0
C1643 C 0.53145 0.89635 0.30776 0.0
C1644 C 0.54196 0.90085 0.28939 0.0
C1645 C 0.52987 0.89877 0.28279 0.0
U1646 U 0.48214 0.88659 0.28767 0.0
O1647 O 0.46625 0.89408 0.27819 0.0
O1648 O 0.4686 0.87416 0.27423 0.0
C1649 C 0.46253 0.88345 0.2712 0.0
C1650 C 0.50589 0.89302 0.28165 0.0
C1651 C 0.46058 0.88441 0.25803 0.0
C1652 C 0.46427 0.89561 0.24023 0.0
C1653 C 0.46679 0.89463 0.25263 0.0
C1654 C 0.44964 0.87596 0.23836 0.0
C1655 C 0.45558 0.88633 0.23294 0.0
C1656 C 0.45208 0.87504 0.25078 0.0
C1657 C 0.46664 0.88026 0.31722 0.0
C1658 C 0.44334 0.87818 0.31876 0.0
C1659 C 0.45743 0.8747 0.33594 0.0
C1660 C 0.46822 0.87719 0.32917 0.0
C1661 C 0.44487 0.87529 0.33085 0.0
C1662 C 0.45413 0.88061 0.31199 0.0
C1663 C 0.47811 0.8834 0.31042 0.0
O1664 O 0.50019 0.88128 0.28071 0.0
O1665 O 0.49798 0.90124 0.28434 0.0
O1666 O 0.47907 0.89443 0.30619 0.0
O1667 O 0.48078 0.87436 0.3025 0.0
H1668 H 0.51071 0.89175 0.30581 0.0
H1669 H 0.53181 0.89548 0.31744 0.0
H1670 H 0.55058 0.90321 0.28462 0.0
H1671 H 0.52937 0.89967 0.27311 0.0
H1672 H 0.46891 0.90381 0.23643 0.0
H1673 H 0.47344 0.90197 0.25801 0.0
H1674 H 0.44308 0.86852 0.23301 0.0
H1675 H 0.44724 0.86704 0.25475 0.0
H1676 H 0.43378 0.87855 0.31454 0.0
H1677 H 0.45895 0.87264 0.34526 0.0
H1678 H 0.47781 0.8769 0.33334 0.0
H1679 H 0.45275 0.8829 0.30273 0.0
C1680 C 0.86619 0.7374 0.04515 0.0
C1681 C 0.86692 0.73815 0.0579 0.0
C1682 C 0.86648 0.76077 0.05917 0.0
C1683 C 0.8671 0.74972 0.06485 0.0
C1684 C 0.86541 0.75992 0.04636 0.0
C1685 C 0.86531 0.74831 0.0394 0.0
U1686 U 0.86595 0.70254 0.04468 0.0
O1687 O 0.85669 0.68641 0.03193 0.0
O1688 O 0.87785 0.68954 0.03571 0.0
C1689 C 0.86785 0.6828 0.0293 0.0
C1690 C 0.86661 0.72526 0.03796 0.0
C1691 C 0.86962 0.67973 0.01633 0.0
C1692 C 0.874 0.68585 0.99624 0.0
C1693 C 0.8717 0.68911 0.00843 0.0
C1694 C 0.87201 0.66386 0.9998 0.0
C1695 C 0.87432 0.67319 0.99183 0.0
C1696 C 0.8697 0.66711 0.01192 0.0
C1697 C 0.86332 0.68898 0.07519 0.0
C1698 C 0.85869 0.66661 0.07728 0.0
C1699 C 0.86674 0.68138 0.09489 0.0
C1700 C 0.86713 0.69131 0.08764 0.0
C1701 C 0.86246 0.66892 0.0898 0.0
C1702 C 0.85918 0.67656 0.07001 0.0
C1703 C 0.86382 0.69959 0.06777 0.0
O1704 O 0.87709 0.72012 0.04029 0.0
O1705 O 0.85588 0.71721 0.03739 0.0
O1706 O 0.85379 0.69942 0.05996 0.0
O1707 O 0.87499 0.70275 0.06319 0.0
H1708 H 0.8675 0.72979 0.06249 0.0
H1709 H 0.86774 0.75003 0.07469 0.0
H1710 H 0.86502 0.76828 0.04174 0.0
H1711 H 0.86472 0.74788 0.02956 0.0
H1712 H 0.8758 0.69325 0.99035 0.0
H1713 H 0.8717 0.69891 0.01173 0.0
H1714 H 0.87194 0.65401 0.99666 0.0
H1715 H 0.86808 0.65976 0.0179 0.0
H1716 H 0.85548 0.65711 0.07308 0.0
H1717 H 0.86957 0.68347 0.10453 0.0
H1718 H 0.87038 0.70084 0.09178 0.0
H1719 H 0.85631 0.67457 0.06037 0.0
C1720 C 0.61203 0.30086 0.51298 0.0
C1721 C 0.61267 0.31397 0.5132 0.0
C1722 C 0.60818 0.31194 0.4912 0.0
C1723 C 0.61077 0.31945 0.50244 0.0
C1724 C 0.60731 0.29876 0.49104 0.0
C1725 C 0.60925 0.29327 0.50185 0.0
U1726 U 0.62053 0.30643 0.54651 0.0
O1727 O 0.61306 0.29718 0.56209 0.0
O1728 O 0.63375 0.29841 0.55879 0.0
C1729 C 0.62441 0.29408 0.5654 0.0
C1730 C 0.61448 0.29532 0.52437 0.0
C1731 C 0.62444 0.2812 0.56882 0.0
C1732 C 0.62928 0.25972 0.56513 0.0
C1733 C 0.62856 0.27158 0.56111 0.0
C1734 C 0.62156 0.26696 0.58445 0.0
C1735 C 0.62584 0.2573 0.57689 0.0
C1736 C 0.62087 0.27875 0.58045 0.0
C1737 C 0.62543 0.34118 0.55975 0.0
C1738 C 0.62572 0.34867 0.58122 0.0
C1739 C 0.63187 0.36335 0.56662 0.0
C1740 C 0.6297 0.35348 0.55724 0.0
C1741 C 0.62977 0.3611 0.57871 0.0
C1742 C 0.62359 0.33878 0.57181 0.0
C1743 C 0.62261 0.33111 0.54961 0.0
O1744 O 0.62648 0.29797 0.52917 0.0
O1745 O 0.60584 0.29672 0.53242 0.0
O1746 O 0.61156 0.32366 0.54968 0.0
O1747 O 0.63231 0.32503 0.54675 0.0
H1748 H 0.61475 0.31999 0.52173 0.0
H1749 H 0.6113 0.3296 0.50293 0.0
H1750 H 0.60543 0.29272 0.48252 0.0
H1751 H 0.60872 0.28313 0.50152 0.0
H1752 H 0.63252 0.25246 0.55905 0.0
H1753 H 0.63137 0.27328 0.55207 0.0
H1754 H 0.61906 0.26554 0.59363 0.0
H1755 H 0.61776 0.28608 0.58657 0.0
H1756 H 0.62389 0.34662 0.5904 0.0
H1757 H 0.63522 0.37275 0.56439 0.0
H1758 H 0.63123 0.35547 0.54798 0.0
H1759 H 0.62031 0.32932 0.57392 0.0
C1760 C 0.26346 0.5115 0.13338 0.0
C1761 C 0.26535 0.50461 0.14335 0.0
C1762 C 0.28654 0.50077 0.13691 0.0
C1763 C 0.27678 0.49935 0.14511 0.0
C1764 C 0.28473 0.50781 0.12705 0.0
C1765 C 0.27334 0.51317 0.12534 0.0
U1766 U 0.22704 0.50578 0.12632 0.0
O1767 O 0.21127 0.51536 0.1334 0.0
O1768 O 0.21417 0.51403 0.11384 0.0
C1769 C 0.20758 0.51845 0.12267 0.0
C1770 C 0.25111 0.51653 0.13096 0.0
C1771 C 0.20481 0.53144 0.12235 0.0
C1772 C 0.2113 0.55413 0.12511 0.0
C1773 C 0.21448 0.54188 0.12509 0.0
C1774 C 0.18883 0.54552 0.11956 0.0
C1775 C 0.1984 0.55609 0.12239 0.0
C1776 C 0.19202 0.53335 0.11953 0.0
C1777 C 0.21059 0.47167 0.12328 0.0
C1778 C 0.18716 0.46606 0.12136 0.0
C1779 C 0.20102 0.44972 0.11973 0.0
C1780 C 0.21196 0.45889 0.12151 0.0
C1781 C 0.18848 0.45318 0.11971 0.0
C1782 C 0.19813 0.47524 0.12312 0.0
C1783 C 0.22222 0.48114 0.12538 0.0
O1784 O 0.24567 0.51368 0.11983 0.0
O1785 O 0.24272 0.51555 0.13937 0.0
O1786 O 0.22294 0.48868 0.13556 0.0
O1787 O 0.22548 0.48706 0.11595 0.0
H1788 H 0.25793 0.50308 0.1497 0.0
H1789 H 0.27782 0.49388 0.15273 0.0
H1790 H 0.29213 0.50919 0.12065 0.0
H1791 H 0.27216 0.51847 0.11762 0.0
H1792 H 0.21893 0.56204 0.12724 0.0
H1793 H 0.22443 0.54055 0.12729 0.0
H1794 H 0.17877 0.54664 0.11765 0.0
H1795 H 0.18441 0.52539 0.11746 0.0
H1796 H 0.17766 0.46905 0.12151 0.0
H1797 H 0.20239 0.43991 0.11828 0.0
H1798 H 0.22152 0.456 0.12155 0.0
H1799 H 0.19691 0.4851 0.12445 0.0
C1800 C 0.30842 0.52892 0.86748 0.0
C1801 C 0.322 0.53096 0.86796 0.0
C1802 C 0.32196 0.55357 0.87208 0.0
C1803 C 0.32871 0.54316 0.8702 0.0
C1804 C 0.30831 0.55146 0.87158 0.0
C1805 C 0.30159 0.53921 0.86931 0.0
U1806 U 0.30985 0.4941 0.86372 0.0
O1807 O 0.29818 0.47823 0.87077 0.0
O1808 O 0.29909 0.47869 0.85104 0.0
C1809 C 0.29368 0.47302 0.85984 0.0
C1810 C 0.30147 0.51603 0.86526 0.0
C1811 C 0.27955 0.46959 0.85819 0.0
C1812 C 0.25783 0.47538 0.85805 0.0
C1813 C 0.27129 0.47885 0.85913 0.0
C1814 C 0.26079 0.45339 0.85485 0.0
C1815 C 0.25242 0.46259 0.85599 0.0
C1816 C 0.27423 0.45688 0.85595 0.0
C1817 C 0.34339 0.48368 0.86656 0.0
C1818 C 0.34668 0.46205 0.86847 0.0
C1819 C 0.36502 0.47781 0.86622 0.0
C1820 C 0.35672 0.48692 0.86565 0.0
C1821 C 0.36013 0.46528 0.86774 0.0
C1822 C 0.33838 0.47118 0.86786 0.0
C1823 C 0.33491 0.4935 0.86641 0.0
O1824 O 0.30346 0.50984 0.85485 0.0
O1825 O 0.3022 0.50934 0.87452 0.0
O1826 O 0.32751 0.49432 0.87559 0.0
O1827 O 0.32879 0.4943 0.85585 0.0
H1828 H 0.32742 0.52309 0.86656 0.0
H1829 H 0.33919 0.54444 0.87031 0.0
H1830 H 0.30282 0.55925 0.87309 0.0
H1831 H 0.2911 0.53777 0.86902 0.0
H1832 H 0.25166 0.48269 0.85884 0.0
H1833 H 0.27527 0.48873 0.86083 0.0
H1834 H 0.25697 0.44347 0.85345 0.0
H1835 H 0.28049 0.44962 0.85524 0.0
H1836 H 0.3426 0.45253 0.86976 0.0
H1837 H 0.37528 0.48058 0.8654 0.0
H1838 H 0.36073 0.49653 0.86458 0.0
H1839 H 0.32807 0.46852 0.86857 0.0
C1840 C 0.27771 0.46677 0.64546 0.0
C1841 C 0.29125 0.46868 0.64516 0.0
C1842 C 0.29137 0.44608 0.64105 0.0
C1843 C 0.29802 0.45844 0.64301 0.0
C1844 C 0.27776 0.44422 0.64117 0.0
C1845 C 0.27099 0.4545 0.64339 0.0
U1846 U 0.27814 0.5019 0.64843 0.0
O1847 O 0.26425 0.51395 0.64221 0.0
O1848 O 0.27002 0.51475 0.66173 0.0
C1849 C 0.26241 0.5185 0.65335 0.0
C1850 C 0.27068 0.47761 0.64785 0.0
C1851 C 0.24887 0.51917 0.6563 0.0
C1852 C 0.22563 0.51479 0.65096 0.0
C1853 C 0.23829 0.51274 0.64872 0.0
C1854 C 0.2339 0.52927 0.6687 0.0
C1855 C 0.22332 0.52326 0.66085 0.0
C1856 C 0.24653 0.52727 0.66641 0.0
C1857 C 0.30971 0.5222 0.64312 0.0
C1858 C 0.311 0.54427 0.63975 0.0
C1859 C 0.33067 0.53514 0.64351 0.0
C1860 C 0.32327 0.52353 0.64451 0.0
C1861 C 0.32462 0.54562 0.64105 0.0
C1862 C 0.30359 0.53266 0.64084 0.0
C1863 C 0.3021 0.50983 0.64391 0.0
O1864 O 0.27469 0.48493 0.65795 0.0
O1865 O 0.26888 0.48393 0.63847 0.0
O1866 O 0.29269 0.50629 0.63535 0.0
O1867 O 0.29868 0.50763 0.65483 0.0
H1868 H 0.29659 0.47811 0.64662 0.0
H1869 H 0.30846 0.4602 0.64278 0.0
H1870 H 0.27238 0.43481 0.63976 0.0
H1871 H 0.26053 0.45287 0.64356 0.0
H1872 H 0.21767 0.50991 0.64484 0.0
H1873 H 0.23978 0.50638 0.64087 0.0
H1874 H 0.23246 0.53594 0.67631 0.0
H1875 H 0.25455 0.53238 0.67234 0.0
H1876 H 0.30607 0.5522 0.63799 0.0
H1877 H 0.34115 0.53586 0.64444 0.0
H1878 H 0.32813 0.51554 0.64627 0.0
H1879 H 0.29311 0.53182 0.63983 0.0
C1880 C 0.23661 0.5001 0.35518 0.0
C1881 C 0.23696 0.51311 0.35479 0.0
C1882 C 0.25915 0.51481 0.34876 0.0
C1883 C 0.24811 0.52039 0.3516 0.0
C1884 C 0.25876 0.50174 0.34917 0.0
C1885 C 0.24754 0.49443 0.35234 0.0
U1886 U 0.20338 0.49991 0.36622 0.0
O1887 O 0.1847 0.4882 0.36039 0.0
O1888 O 0.19274 0.48922 0.37934 0.0
C1889 C 0.18351 0.48398 0.37107 0.0
C1890 C 0.22481 0.49263 0.35867 0.0
C1891 C 0.17936 0.47033 0.37087 0.0
C1892 C 0.18305 0.44924 0.37498 0.0
C1893 C 0.18766 0.46208 0.3749 0.0
C1894 C 0.16194 0.4528 0.36684 0.0
C1895 C 0.17012 0.44447 0.37093 0.0
C1896 C 0.16652 0.46556 0.36682 0.0
C1897 C 0.19203 0.53232 0.37143 0.0
C1898 C 0.17255 0.53645 0.38125 0.0
C1899 C 0.18346 0.55191 0.36942 0.0
C1900 C 0.19278 0.54405 0.36689 0.0
C1901 C 0.1732 0.54819 0.37657 0.0
C1902 C 0.18187 0.52854 0.37864 0.0
C1903 C 0.20178 0.52412 0.36824 0.0
O1904 O 0.22265 0.49447 0.37026 0.0
O1905 O 0.21442 0.49269 0.35138 0.0
O1906 O 0.19906 0.51677 0.35797 0.0
O1907 O 0.20653 0.51842 0.3771 0.0
H1908 H 0.22862 0.51766 0.35703 0.0
H1909 H 0.24815 0.53045 0.35162 0.0
H1910 H 0.26708 0.49715 0.34697 0.0
H1911 H 0.24741 0.48439 0.3526 0.0
H1912 H 0.1896 0.44305 0.37811 0.0
H1913 H 0.19764 0.46556 0.37805 0.0
H1914 H 0.15188 0.4495 0.36388 0.0
H1915 H 0.15994 0.47177 0.36376 0.0
H1916 H 0.1647 0.5333 0.3867 0.0
H1917 H 0.18431 0.56095 0.36581 0.0
H1918 H 0.20056 0.54711 0.36131 0.0
H1919 H 0.18108 0.51944 0.38215 0.0
H1920 H 0.08493 0.35451 0.10322 0.0
H1921 H 0.10331 0.38853 0.12438 0.0
H1922 H 0.11805 0.37649 0.09046 0.0
H1923 H 0.09698 0.37753 0.13982 0.0
C1924 C 0.08716 0.37337 0.13661 0.0
C1925 C 0.09238 0.36266 0.10437 0.0
C1926 C 0.10136 0.36449 0.09546 0.0
C1927 C 0.09327 0.37104 0.11503 0.0
C1928 C 0.10292 0.38165 0.11651 0.0
C1929 C 0.11196 0.38365 0.10774 0.0
C1930 C 0.11108 0.37502 0.09725 0.0
N1931 N 0.08438 0.36865 0.12412 0.0
H1932 H 0.954 0.89383 0.38866 0.0
H1933 H 0.92302 0.90999 0.40563 0.0
H1934 H 0.92978 0.91509 0.36845 0.0
H1935 H 0.9214 0.89019 0.41298 0.0
C1936 C 0.93147 0.89079 0.41641 0.0
C1937 C 0.94613 0.89942 0.38824 0.0
C1938 C 0.94276 0.90429 0.37734 0.0
C1939 C 0.93877 0.90109 0.39837 0.0
C1940 C 0.92856 0.90839 0.39777 0.0
C1941 C 0.92521 0.91339 0.38699 0.0
C1942 C 0.93232 0.91124 0.37682 0.0
N1943 N 0.94146 0.89511 0.40897 0.0
H1944 H 0.41256 0.65138 0.62548 0.0
H1945 H 0.37587 0.62912 0.61323 0.0
H1946 H 0.39627 0.62218 0.64619 0.0
H1947 H 0.38293 0.63337 0.5947 0.0
C1948 C 0.38676 0.64331 0.59649 0.0
C1949 C 0.40486 0.64389 0.62671 0.0
C1950 C 0.40551 0.63726 0.63699 0.0
C1951 C 0.39432 0.64089 0.61798 0.0
C1952 C 0.38428 0.63122 0.61967 0.0
C1953 C 0.38485 0.62443 0.62986 0.0
C1954 C 0.39551 0.62757 0.63847 0.0
N1955 N 0.39391 0.64791 0.60775 0.0
H1956 H 0.58727 0.1286 0.90567 0.0
H1957 H 0.60046 0.09995 0.88146 0.0
H1958 H 0.61278 0.10416 0.9195 0.0
H1959 H 0.57945 0.09967 0.87297 0.0
C1960 C 0.57967 0.10973 0.87256 0.0
C1961 C 0.59297 0.12095 0.90419 0.0
C1962 C 0.59995 0.11706 0.91407 0.0
C1963 C 0.5928 0.1146 0.89247 0.0
C1964 C 0.60025 0.1047 0.89053 0.0
C1965 C 0.6074 0.10083 0.90026 0.0
C1966 C 0.60713 0.10701 0.91198 0.0
N1967 N 0.58512 0.11828 0.88275 0.0
H1968 H 0.08174 0.63119 0.39226 0.0
H1969 H 0.1076 0.60924 0.40959 0.0
H1970 H 0.10514 0.60893 0.37071 0.0
H1971 H 0.09125 0.60869 0.42327 0.0
C1972 C 0.09047 0.61869 0.42426 0.0
C1973 C 0.08881 0.62468 0.39161 0.0
C1974 C 0.09287 0.62059 0.38018 0.0
C1975 C 0.0939 0.62048 0.40225 0.0
C1976 C 0.10325 0.61218 0.40142 0.0
C1977 C 0.10747 0.60811 0.39007 0.0
C1978 C 0.10218 0.61232 0.37953 0.0
N1979 N 0.08998 0.62521 0.41371 0.0
H1980 H 0.59295 0.86402 0.61412 0.0
H1981 H 0.61272 0.89755 0.63516 0.0
H1982 H 0.62312 0.88759 0.59886 0.0
H1983 H 0.60854 0.88553 0.65063 0.0
C1984 C 0.59845 0.88173 0.64816 0.0
C1985 C 0.60024 0.87229 0.61497 0.0
C1986 C 0.60766 0.87502 0.6051 0.0
C1987 C 0.60218 0.88022 0.62595 0.0
C1988 C 0.61153 0.89106 0.62694 0.0
C1989 C 0.61918 0.8938 0.61724 0.0
C1990 C 0.61711 0.88574 0.60633 0.0
N1991 N 0.59444 0.87734 0.63578 0.0
H1992 H 0.4496 0.37961 0.87339 0.0
H1993 H 0.41914 0.39676 0.89014 0.0
H1994 H 0.42978 0.40538 0.85462 0.0
H1995 H 0.41556 0.3765 0.89641 0.0
C1996 C 0.42543 0.37602 0.89989 0.0
C1997 C 0.44238 0.38594 0.87316 0.0
C1998 C 0.4405 0.3923 0.86285 0.0
C1999 C 0.43445 0.38723 0.8829 0.0
C2000 C 0.42509 0.39551 0.88254 0.0
C2001 C 0.42332 0.40213 0.87238 0.0
C2002 C 0.431 0.40034 0.86253 0.0
N2003 N 0.43594 0.38011 0.89293 0.0
H2004 H 0.92757 0.15517 0.12934 0.0
H2005 H 0.89343 0.12935 0.11584 0.0
H2006 H 0.91728 0.12125 0.14619 0.0
H2007 H 0.8992 0.13639 0.098 0.0
C2008 C 0.90185 0.14646 0.10043 0.0
C2009 C 0.92109 0.14652 0.12986 0.0
C2010 C 0.92375 0.13853 0.13871 0.0
C2011 C 0.91041 0.1431 0.12131 0.0
C2012 C 0.90193 0.13191 0.12212 0.0
C2013 C 0.90441 0.12392 0.13101 0.0
C2014 C 0.91539 0.12727 0.13918 0.0
N2015 N 0.90849 0.15097 0.11195 0.0
H2016 H 0.12952 0.07214 0.32601 0.0
H2017 H 0.14521 0.08434 0.36282 0.0
H2018 H 0.11513 0.10242 0.34698 0.0
H2019 H 0.16358 0.07935 0.35431 0.0
C2020 C 0.15996 0.07026 0.34927 0.0
C2021 C 0.12964 0.07825 0.33442 0.0
C2022 C 0.12125 0.08742 0.33535 0.0
C2023 C 0.13865 0.07736 0.34413 0.0
C2024 C 0.13872 0.08529 0.35507 0.0
C2025 C 0.13019 0.09429 0.3562 0.0
C2026 C 0.12159 0.09533 0.34626 0.0
N2027 N 0.14759 0.06851 0.34272 0.0
H2028 H 0.12555 0.85903 0.63689 0.0
H2029 H 0.09373 0.84148 0.65514 0.0
H2030 H 0.10798 0.88073 0.66446 0.0
H2031 H 0.10319 0.82397 0.65023 0.0
C2032 C 0.10614 0.82518 0.64111 0.0
C2033 C 0.11851 0.85964 0.64369 0.0
C2034 C 0.11785 0.87122 0.65051 0.0
C2035 C 0.11004 0.84882 0.64541 0.0
C2036 C 0.10059 0.84966 0.65394 0.0
C2037 C 0.09985 0.86114 0.66091 0.0
C2038 C 0.10856 0.87184 0.65917 0.0
N2039 N 0.11093 0.83739 0.63808 0.0
H2040 H 0.36184 0.93922 0.84419 0.0
H2041 H 0.38209 0.91113 0.85866 0.0
H2042 H 0.34765 0.92069 0.87458 0.0
H2043 H 0.39951 0.92786 0.8539 0.0
C2044 C 0.39573 0.92661 0.84443 0.0
C2045 C 0.36264 0.93245 0.85072 0.0
C2046 C 0.35359 0.93105 0.85963 0.0
C2047 C 0.37309 0.9255 0.85052 0.0
C2048 C 0.37417 0.91668 0.85895 0.0
C2049 C 0.36503 0.9149 0.86766 0.0
C2050 C 0.35486 0.9222 0.86801 0.0
N2051 N 0.38236 0.92725 0.84169 0.0
H2052 H 0.39431 0.17051 0.10041 0.0
H2053 H 0.42898 0.18782 0.12204 0.0
H2054 H 0.40715 0.15427 0.13214 0.0
H2055 H 0.43341 0.19758 0.10596 0.0
C2056 C 0.42436 0.19843 0.10099 0.0
C2057 C 0.40124 0.17062 0.10812 0.0
C2058 C 0.39943 0.16127 0.1161 0.0
C2059 C 0.41189 0.18022 0.11008 0.0
C2060 C 0.42081 0.18043 0.12022 0.0
C2061 C 0.41925 0.17098 0.12813 0.0
C2062 C 0.40849 0.16153 0.12602 0.0
N2063 N 0.41309 0.1896 0.10183 0.0
H2064 H 0.14935 0.94665 0.18226 0.0
H2065 H 0.16072 0.92952 0.14849 0.0
H2066 H 0.12669 0.9129 0.16411 0.0
H2067 H 0.18109 0.93658 0.15948 0.0
C2068 C 0.17939 0.94625 0.16171 0.0
C2069 C 0.14761 0.9393 0.1747 0.0
C2070 C 0.13698 0.92971 0.17436 0.0
C2071 C 0.15643 0.93908 0.16558 0.0
C2072 C 0.15423 0.9295 0.15578 0.0
C2073 C 0.14345 0.92009 0.15514 0.0
C2074 C 0.13494 0.92024 0.16449 0.0
N2075 N 0.16741 0.94858 0.16636 0.0
H2076 H 0.34188 0.86669 0.40669 0.0
H2077 H 0.37395 0.85012 0.39239 0.0
H2078 H 0.36354 0.88388 0.37927 0.0
H2079 H 0.37614 0.84565 0.41233 0.0
C2080 C 0.36614 0.842 0.4136 0.0
C2081 C 0.34961 0.86672 0.40054 0.0
C2082 C 0.35172 0.87636 0.3929 0.0
C2083 C 0.35788 0.85747 0.40074 0.0
C2084 C 0.36789 0.85754 0.39272 0.0
C2085 C 0.36993 0.86696 0.38485 0.0
C2086 C 0.36186 0.87639 0.38509 0.0
N2087 N 0.35595 0.84818 0.40901 0.0
H2088 H 0.34672 0.08453 0.6642 0.0
H2089 H 0.3718 0.10972 0.64521 0.0
H2090 H 0.33109 0.10184 0.63424 0.0
H2091 H 0.3861 0.09543 0.65093 0.0
C2092 C 0.38411 0.09634 0.66049 0.0
C2093 C 0.34807 0.09059 0.65698 0.0
C2094 C 0.33741 0.0923 0.64927 0.0
C2095 C 0.36051 0.09674 0.65549 0.0
C2096 C 0.36225 0.10481 0.64628 0.0
C2097 C 0.35168 0.10674 0.63856 0.0
C2098 C 0.33932 0.1004 0.64012 0.0
N2099 N 0.37103 0.09518 0.66369 0.0
H2100 H 0.15519 0.15201 0.89853 0.0
H2101 H 0.13739 0.12797 0.86698 0.0
H2102 H 0.12081 0.16078 0.87973 0.0
H2103 H 0.15844 0.12496 0.86496 0.0
C2104 C 0.16153 0.12372 0.87426 0.0
C2105 C 0.14758 0.14981 0.89124 0.0
C2106 C 0.1381 0.15782 0.89001 0.0
C2107 C 0.1476 0.13921 0.8828 0.0
C2108 C 0.13768 0.1363 0.87336 0.0
C2109 C 0.12801 0.14409 0.87212 0.0
C2110 C 0.12837 0.15485 0.88046 0.0
N2111 N 0.15756 0.1315 0.88411 0.0
H2112 H 0.83348 0.3584 0.89965 0.0
H2113 H 0.8673 0.34556 0.88494 0.0
H2114 H 0.85568 0.38036 0.87565 0.0
H2115 H 0.85602 0.32644 0.88712 0.0
C2116 C 0.85259 0.32827 0.89613 0.0
C2117 C 0.84154 0.35966 0.89392 0.0
C2118 C 0.84372 0.37055 0.88788 0.0
C2119 C 0.84984 0.35045 0.89273 0.0
C2120 C 0.86047 0.35228 0.88548 0.0
C2121 C 0.86268 0.36305 0.87928 0.0
C2122 C 0.85423 0.37211 0.88055 0.0
N2123 N 0.84769 0.33975 0.89935 0.0
H2124 H 0.8522 0.57739 0.17145 0.0
H2125 H 0.87488 0.60722 0.15578 0.0
H2126 H 0.83614 0.59327 0.14073 0.0
H2127 H 0.89069 0.59355 0.16044 0.0
C2128 C 0.88854 0.59363 0.16995 0.0
C2129 C 0.85311 0.58403 0.1647 0.0
C2130 C 0.84275 0.58432 0.15606 0.0
C2131 C 0.86488 0.59194 0.16433 0.0
C2132 C 0.86603 0.60066 0.15566 0.0
C2133 C 0.85567 0.60131 0.14716 0.0
C2134 C 0.84414 0.59297 0.14735 0.0
N2135 N 0.8754 0.59121 0.17287 0.0
H2136 H 0.65589 0.65891 0.40432 0.0
H2137 H 0.63648 0.63715 0.37221 0.0
H2138 H 0.62463 0.67256 0.38487 0.0
H2139 H 0.64047 0.62112 0.38446 0.0
C2140 C 0.65074 0.62435 0.38669 0.0
C2141 C 0.64852 0.65778 0.39683 0.0
C2142 C 0.64057 0.66718 0.39547 0.0
C2143 C 0.6469 0.6468 0.38864 0.0
C2144 C 0.63744 0.64538 0.37882 0.0
C2145 C 0.6294 0.65467 0.37731 0.0
C2146 C 0.63106 0.66553 0.3857 0.0
N2147 N 0.65495 0.63736 0.39032 0.0
H2148 H 0.85432 0.43965 0.32941 0.0
H2149 H 0.87848 0.41579 0.34614 0.0
H2150 H 0.84263 0.42214 0.36117 0.0
H2151 H 0.89415 0.43191 0.33973 0.0
C2152 C 0.89013 0.43024 0.33033 0.0
C2153 C 0.85614 0.43373 0.33651 0.0
C2154 C 0.84707 0.43159 0.34529 0.0
C2155 C 0.86759 0.4282 0.33688 0.0
C2156 C 0.86981 0.4203 0.34595 0.0
C2157 C 0.86086 0.41808 0.35475 0.0
C2158 C 0.84958 0.42382 0.35438 0.0
N2159 N 0.8766 0.43026 0.32785 0.0
H2160 H 0.61918 0.5628 0.82068 0.0
H2161 H 0.63252 0.57454 0.85819 0.0
H2162 H 0.60408 0.59328 0.84069 0.0
H2163 H 0.65052 0.56767 0.85244 0.0
C2164 C 0.64721 0.55921 0.8463 0.0
C2165 C 0.61891 0.56891 0.82901 0.0
C2166 C 0.61061 0.5782 0.82946 0.0
C2167 C 0.62722 0.56779 0.83919 0.0
C2168 C 0.62671 0.57568 0.85006 0.0
C2169 C 0.6184 0.5849 0.85066 0.0
C2170 C 0.61045 0.5861 0.84031 0.0
N2171 N 0.63589 0.55862 0.83832 0.0
H2172 H 0.90316 0.64483 0.90232 0.0
H2173 H 0.88594 0.61338 0.87696 0.0
H2174 H 0.86645 0.62386 0.90868 0.0
H2175 H 0.9071 0.6118 0.87431 0.0
C2176 C 0.91117 0.62158 0.87404 0.0
C2177 C 0.89531 0.63723 0.89962 0.0
C2178 C 0.88462 0.63547 0.90678 0.0
C2179 C 0.89604 0.62914 0.88903 0.0
C2180 C 0.88577 0.61938 0.88538 0.0
C2181 C 0.87501 0.6175 0.89237 0.0
C2182 C 0.87453 0.62557 0.90304 0.0
N2183 N 0.90707 0.63115 0.8821 0.0
H2184 H 0.06158 0.13514 0.61935 0.0
H2185 H 0.08962 0.1142 0.60289 0.0
H2186 H 0.07881 0.10813 0.63888 0.0
H2187 H 0.07469 0.1156 0.58592 0.0
C2188 C 0.07524 0.1258 0.58734 0.0
C2189 C 0.06817 0.12822 0.61986 0.0
C2190 C 0.06915 0.12182 0.6303 0.0
C2191 C 0.07527 0.12529 0.60981 0.0
C2192 C 0.08379 0.11624 0.61043 0.0
C2193 C 0.08519 0.11013 0.62095 0.0
C2194 C 0.07781 0.11294 0.63079 0.0
N2195 N 0.07392 0.13164 0.59921 0.0
H2196 H 0.56984 0.35834 0.39253 0.0
H2197 H 0.6055 0.37994 0.40869 0.0
H2198 H 0.58541 0.39258 0.37833 0.0
H2199 H 0.6097 0.35985 0.41159 0.0
C2200 C 0.60064 0.35622 0.4152 0.0
C2201 C 0.57722 0.36648 0.3928 0.0
C2202 C 0.57617 0.37542 0.38446 0.0
C2203 C 0.58789 0.36788 0.4014 0.0
C2204 C 0.59745 0.37851 0.40184 0.0
C2205 C 0.59649 0.38755 0.39365 0.0
C2206 C 0.58587 0.3859 0.385 0.0
N2207 N 0.5887 0.35864 0.40967 0.0
H2208 H 0.41826 0.8823 0.11642 0.0
H2209 H 0.41023 0.91478 0.13898 0.0
H2210 H 0.39351 0.90709 0.10214 0.0
H2211 H 0.43237 0.91338 0.14575 0.0
C2212 C 0.43023 0.9036 0.14753 0.0
C2213 C 0.41349 0.89063 0.11757 0.0
C2214 C 0.40596 0.89401 0.1078 0.0
C2215 C 0.4153 0.89824 0.12874 0.0
C2216 C 0.40908 0.90904 0.13028 0.0
C2217 C 0.4012 0.91233 0.12072 0.0
C2218 C 0.3998 0.9048 0.1095 0.0
N2219 N 0.42305 0.89468 0.13846 0.0
H2220 H 0.90698 0.39619 0.61328 0.0
H2221 H 0.8958 0.42866 0.63355 0.0
H2222 H 0.88109 0.41838 0.59637 0.0
H2223 H 0.91562 0.42891 0.64356 0.0
C2224 C 0.91554 0.41895 0.6445 0.0
C2225 C 0.90168 0.40419 0.61368 0.0
C2226 C 0.89381 0.40621 0.6035 0.0
C2227 C 0.90271 0.41239 0.62445 0.0
C2228 C 0.89557 0.42261 0.62511 0.0
C2229 C 0.88765 0.42476 0.61505 0.0
C2230 C 0.88689 0.41655 0.60428 0.0
N2231 N 0.91051 0.40981 0.63463 0.0
H2232 H 0.41821 0.15156 0.39478 0.0
H2233 H 0.40104 0.119 0.37072 0.0
H2234 H 0.38108 0.13158 0.40139 0.0
H2235 H 0.4224 0.11687 0.36922 0.0
C2236 C 0.42633 0.12649 0.36799 0.0
C2237 C 0.41031 0.14395 0.3923 0.0
C2238 C 0.39942 0.14279 0.39928 0.0
C2239 C 0.41113 0.13526 0.38216 0.0
C2240 C 0.40079 0.12548 0.3788 0.0
C2241 C 0.38987 0.12419 0.38564 0.0
C2242 C 0.38929 0.13285 0.39585 0.0
N2243 N 0.42227 0.13667 0.37529 0.0
H2244 H 0.56805 0.63213 0.12182 0.0
H2245 H 0.59581 0.60921 0.10791 0.0
H2246 H 0.5811 0.60393 0.1427 0.0
H2247 H 0.58546 0.61191 0.09002 0.0
C2248 C 0.5847 0.62191 0.09123 0.0
C2249 C 0.57394 0.62469 0.12284 0.0
C2250 C 0.57351 0.61833 0.13336 0.0
C2251 C 0.58164 0.62121 0.11343 0.0
C2252 C 0.58947 0.6117 0.11488 0.0
C2253 C 0.58921 0.60533 0.12535 0.0
C2254 C 0.58113 0.60864 0.13448 0.0
N2255 N 0.58149 0.62747 0.10267 0.0
H2256 H 0.06862 0.86137 0.90345 0.0
H2257 H 0.10691 0.87835 0.91779 0.0
H2258 H 0.08818 0.89315 0.88794 0.0
H2259 H 0.10808 0.85815 0.92177 0.0
C2260 C 0.09872 0.85548 0.9253 0.0
C2261 C 0.07699 0.86848 0.90326 0.0
C2262 C 0.07703 0.87732 0.89471 0.0
C2263 C 0.08778 0.86863 0.9115 0.0
C2264 C 0.09862 0.87795 0.91135 0.0
C2265 C 0.09885 0.88678 0.9028 0.0
C2266 C 0.08801 0.8864 0.89459 0.0
N2267 N 0.08743 0.85942 0.91991 0.0
H2268 H 0.88804 0.96914 0.69241 0.0
H2269 H 0.88361 0.95572 0.65418 0.0
H2270 H 0.91299 0.94385 0.67747 0.0
H2271 H 0.87769 0.97566 0.65316 0.0
C2272 C 0.87132 0.97602 0.66058 0.0
C2273 C 0.89111 0.96361 0.68466 0.0
C2274 C 0.90135 0.95657 0.68624 0.0
C2275 C 0.88502 0.96381 0.67302 0.0
C2276 C 0.88876 0.95625 0.66304 0.0
C2277 C 0.8987 0.94882 0.66462 0.0
C2278 C 0.90514 0.94936 0.67618 0.0
N2279 N 0.87485 0.97127 0.67167 0.0
H2280 H 0.87998 0.16123 0.39599 0.0
H2281 H 0.90793 0.18574 0.379 0.0
H2282 H 0.90078 0.14628 0.3667 0.0
H2283 H 0.91018 0.19631 0.39788 0.0
C2284 C 0.90032 0.19578 0.40066 0.0
C2285 C 0.88698 0.16259 0.38921 0.0
C2286 C 0.88962 0.15223 0.38147 0.0
C2287 C 0.89377 0.17465 0.38864 0.0
C2288 C 0.90288 0.17645 0.37981 0.0
C2289 C 0.90556 0.1662 0.372 0.0
C2290 C 0.8989 0.15416 0.3729 0.0
N2291 N 0.8913 0.18474 0.39708 0.0
H2292 H 0.63531 0.07163 0.18779 0.0
H2293 H 0.65141 0.08134 0.15444 0.0
H2294 H 0.61935 0.09872 0.16751 0.0
H2295 H 0.65059 0.05797 0.15371 0.0
C2296 C 0.65665 0.05903 0.16219 0.0
C2297 C 0.63538 0.07705 0.18004 0.0
C2298 C 0.62614 0.08523 0.17853 0.0
C2299 C 0.64427 0.07536 0.17119 0.0
C2300 C 0.64437 0.08244 0.16115 0.0
C2301 C 0.63544 0.09095 0.15975 0.0
C2302 C 0.62627 0.09215 0.16843 0.0
N2303 N 0.6531 0.06652 0.17243 0.0
H2304 H 0.63754 0.84909 0.90334 0.0
H2305 H 0.60125 0.83151 0.88479 0.0
H2306 H 0.62195 0.86419 0.87194 0.0
H2307 H 0.59751 0.82523 0.90322 0.0
C2308 C 0.60684 0.82309 0.90665 0.0
C2309 C 0.63001 0.8488 0.89611 0.0
C2310 C 0.63119 0.85771 0.88762 0.0
C2311 C 0.61915 0.83946 0.89534 0.0
C2312 C 0.60946 0.83892 0.88581 0.0
C2313 C 0.6105 0.84774 0.87725 0.0
C2314 C 0.62135 0.8571 0.87827 0.0
N2315 N 0.61846 0.83056 0.90406 0.0
H2316 H 0.85077 0.07268 0.83598 0.0
H2317 H 0.87328 0.1062 0.8547 0.0
H2318 H 0.84328 0.08547 0.87264 0.0
H2319 H 0.8726 0.11137 0.83437 0.0
C2320 C 0.8757 0.10276 0.83033 0.0
C2321 C 0.85295 0.07938 0.84405 0.0
C2322 C 0.84595 0.07777 0.85439 0.0
C2323 C 0.86271 0.0897 0.84402 0.0
C2324 C 0.86553 0.0984 0.8545 0.0
C2325 C 0.85865 0.09687 0.86492 0.0
C2326 C 0.84892 0.0865 0.86477 0.0
N2327 N 0.86984 0.09095 0.83352 0.0
H2328 H 0.6537 0.17508 0.61279 0.0
H2329 H 0.63782 0.15279 0.63997 0.0
H2330 H 0.6188 0.18325 0.62906 0.0
H2331 H 0.66158 0.15533 0.64475 0.0
C2332 C 0.663 0.1511 0.63568 0.0
C2333 C 0.64623 0.17302 0.619 0.0
C2334 C 0.6362 0.18052 0.62009 0.0
C2335 C 0.64704 0.16322 0.62637 0.0
C2336 C 0.63746 0.16061 0.63456 0.0
C2337 C 0.62718 0.16773 0.63552 0.0
C2338 C 0.62666 0.17765 0.62826 0.0
N2339 N 0.65742 0.15593 0.6254 0.0
H2340 H 0.63788 0.92701 0.34646 0.0
H2341 H 0.65741 0.91388 0.37705 0.0
H2342 H 0.61975 0.89529 0.36312 0.0
H2343 H 0.66507 0.93512 0.38066 0.0
C2344 C 0.66759 0.93706 0.37158 0.0
C2345 C 0.63799 0.92052 0.35335 0.0
C2346 C 0.62748 0.91094 0.35369 0.0
C2347 C 0.64869 0.92183 0.36188 0.0
C2348 C 0.64904 0.91321 0.37062 0.0
C2349 C 0.6386 0.90365 0.37113 0.0
C2350 C 0.62785 0.90263 0.36269 0.0
N2351 N 0.65909 0.93171 0.36133 0.0
H2352 H 0.85001 0.86535 0.12285 0.0
H2353 H 0.88688 0.85461 0.13359 0.0
H2354 H 0.87349 0.88594 0.15359 0.0
H2355 H 0.88658 0.84923 0.11303 0.0
C2356 C 0.87673 0.84437 0.11122 0.0
C2357 C 0.85877 0.86685 0.12889 0.0
C2358 C 0.86046 0.87653 0.1386 0.0
C2359 C 0.86837 0.85911 0.12682 0.0
C2360 C 0.87965 0.86086 0.13477 0.0
C2361 C 0.88151 0.87046 0.14451 0.0
C2362 C 0.87188 0.87824 0.14634 0.0
N2363 N 0.86639 0.84946 0.11686 0.0
H2364 H 0.15002 0.66103 0.11034 0.0
H2365 H 0.1369 0.64202 0.14074 0.0
H2366 H 0.11695 0.67133 0.12844 0.0
H2367 H 0.15871 0.64036 0.14306 0.0
C2368 C 0.16022 0.63717 0.13369 0.0
C2369 C 0.14335 0.65985 0.11743 0.0
C2370 C 0.13331 0.66732 0.11844 0.0
C2371 C 0.14481 0.6508 0.12551 0.0
C2372 C 0.13601 0.64912 0.13459 0.0
C2373 C 0.12595 0.65653 0.13576 0.0
C2374 C 0.12469 0.66558 0.12763 0.0
N2375 N 0.15487 0.64316 0.12406 0.0
H2376 H 0.12744 0.42128 0.83794 0.0
H2377 H 0.14718 0.40419 0.86575 0.0
H2378 H 0.10756 0.38995 0.854 0.0
H2379 H 0.15614 0.42561 0.87027 0.0
C2380 C 0.15884 0.42712 0.86113 0.0
C2381 C 0.12737 0.41419 0.84425 0.0
C2382 C 0.11602 0.40575 0.84513 0.0
C2383 C 0.13852 0.4139 0.85186 0.0
C2384 C 0.1385 0.4047 0.86005 0.0
C2385 C 0.12733 0.3961 0.86093 0.0
C2386 C 0.11613 0.39674 0.8535 0.0
N2387 N 0.14973 0.42278 0.85104 0.0
H2388 H 0.33919 0.36717 0.61112 0.0
H2389 H 0.37738 0.35925 0.62164 0.0
H2390 H 0.36226 0.38992 0.64093 0.0
H2391 H 0.37689 0.35327 0.60128 0.0
C2392 C 0.3673 0.34779 0.59969 0.0
C2393 C 0.34807 0.36938 0.61697 0.0
C2394 C 0.3494 0.37938 0.62637 0.0
C2395 C 0.3582 0.36223 0.61502 0.0
C2396 C 0.36961 0.36489 0.62281 0.0
C2397 C 0.37115 0.37491 0.63212 0.0
C2398 C 0.36103 0.38211 0.6338 0.0
N2399 N 0.35665 0.3523 0.60533 0.0
H2400 H 0.119 0.57067 0.69589 0.0
H2401 H 0.13218 0.57772 0.66071 0.0
H2402 H 0.1024 0.59734 0.67552 0.0
H2403 H 0.13105 0.55432 0.66114 0.0
C2404 C 0.13776 0.55586 0.66921 0.0
C2405 C 0.11848 0.57557 0.68782 0.0
C2406 C 0.10951 0.58409 0.68664 0.0
C2407 C 0.12639 0.57296 0.67832 0.0
C2408 C 0.12582 0.57946 0.66791 0.0
C2409 C 0.11722 0.58831 0.66683 0.0
C2410 C 0.10898 0.59041 0.67617 0.0
N2411 N 0.13507 0.56397 0.6794 0.0
H2412 H 0.38344 0.44915 0.17745 0.0
H2413 H 0.3765 0.43533 0.13943 0.0
H2414 H 0.40632 0.42245 0.16139 0.0
H2415 H 0.37153 0.45569 0.13863 0.0
C2416 C 0.36559 0.45638 0.14636 0.0
C2417 C 0.38582 0.44331 0.16958 0.0
C2418 C 0.39577 0.43583 0.17071 0.0
C2419 C 0.37918 0.4436 0.15821 0.0
C2420 C 0.38207 0.43574 0.14806 0.0
C2421 C 0.39171 0.42789 0.14918 0.0
C2422 C 0.39869 0.42827 0.16047 0.0
N2423 N 0.36937 0.45153 0.15732 0.0
H2424 H 0.63295 0.35349 0.1327 0.0
H2425 H 0.59874 0.33484 0.14681 0.0
H2426 H 0.61236 0.37357 0.15907 0.0
H2427 H 0.60545 0.31744 0.13968 0.0
C2428 C 0.61139 0.31936 0.13216 0.0
C2429 C 0.62514 0.35367 0.13874 0.0
C2430 C 0.62372 0.36491 0.14582 0.0
C2431 C 0.61634 0.34268 0.13911 0.0
C2432 C 0.60588 0.34304 0.1466 0.0
C2433 C 0.6045 0.35412 0.15392 0.0
C2434 C 0.61348 0.36497 0.15351 0.0
N2435 N 0.61805 0.33167 0.13148 0.0
H2436 H 0.89395 0.6916 0.61611 0.0
H2437 H 0.92825 0.70721 0.63903 0.0
H2438 H 0.90542 0.67317 0.64693 0.0
H2439 H 0.92328 0.72543 0.63262 0.0
C2440 C 0.92005 0.72284 0.62309 0.0
C2441 C 0.90056 0.69118 0.62394 0.0
C2442 C 0.89835 0.68125 0.63124 0.0
C2443 C 0.91107 0.70081 0.62688 0.0
C2444 C 0.91976 0.70019 0.63698 0.0
C2445 C 0.91784 0.69017 0.6442 0.0
C2446 C 0.90703 0.68086 0.64133 0.0
N2447 N 0.9128 0.71079 0.61933 0.0
H2448 H 0.64022 0.46148 0.67104 0.0
H2449 H 0.65705 0.44269 0.64101 0.0
H2450 H 0.62016 0.42686 0.6521 0.0
H2451 H 0.67569 0.45134 0.65324 0.0
C2452 C 0.67342 0.46091 0.65472 0.0
C2453 C 0.63975 0.45368 0.66397 0.0
C2454 C 0.62893 0.44422 0.66248 0.0
C2455 C 0.65001 0.45312 0.65637 0.0
C2456 C 0.64929 0.44309 0.64707 0.0
C2457 C 0.63859 0.43354 0.64551 0.0
C2458 C 0.62847 0.43419 0.65326 0.0
N2459 N 0.66081 0.46287 0.65799 0.0
H2460 H 0.36998 0.6484 0.89294 0.0
H2461 H 0.39827 0.67031 0.87396 0.0
H2462 H 0.38508 0.6316 0.86087 0.0
H2463 H 0.40306 0.68117 0.89242 0.0
C2464 C 0.39379 0.68125 0.89638 0.0
C2465 C 0.37626 0.64912 0.8855 0.0
C2466 C 0.37656 0.63862 0.87698 0.0
C2467 C 0.38436 0.66046 0.88475 0.0
C2468 C 0.39246 0.66144 0.87502 0.0
C2469 C 0.39272 0.65108 0.86632 0.0
C2470 C 0.38483 0.63969 0.86746 0.0
N2471 N 0.38388 0.67074 0.89374 0.0
H2472 H 0.12734 0.35311 0.39101 0.0
H2473 H 0.09434 0.32831 0.37323 0.0
H2474 H 0.10963 0.36122 0.35708 0.0
H2475 H 0.09086 0.32688 0.39403 0.0
C2476 C 0.10045 0.32493 0.39694 0.0
C2477 C 0.12015 0.35063 0.38339 0.0
C2478 C 0.11952 0.35864 0.37412 0.0
C2479 C 0.11098 0.33978 0.38325 0.0
C2480 C 0.10137 0.33672 0.37353 0.0
C2481 C 0.10096 0.34437 0.36401 0.0
C2482 C 0.11011 0.3552 0.36435 0.0
N2483 N 0.11159 0.33209 0.39297 0.0
H2484 H 0.34796 0.57178 0.32983 0.0
H2485 H 0.36832 0.60394 0.35255 0.0
H2486 H 0.33126 0.58665 0.36192 0.0
H2487 H 0.38568 0.59462 0.34598 0.0
C2488 C 0.3828 0.59287 0.3363 0.0
C2489 C 0.34847 0.57858 0.3378 0.0
C2490 C 0.33822 0.57814 0.34554 0.0
C2491 C 0.35945 0.58773 0.34035 0.0
C2492 C 0.36001 0.59669 0.3506 0.0
C2493 C 0.34992 0.59631 0.35846 0.0
C2494 C 0.33907 0.58702 0.35585 0.0
N2495 N 0.36972 0.5879 0.33241 0.0
H2496 H 0.18512 0.43075 0.12954 0.0
H2497 H 0.16551 0.45337 0.10635 0.0
H2498 H 0.16641 0.41438 0.12659 0.0
H2499 H 0.14651 0.4372 0.10384 0.0
H2500 H 0.12142 0.39907 0.09102 0.0
H2501 H 0.13966 0.41604 0.09402 0.0
H2502 H 0.14437 0.4101 0.13199 0.0
H2503 H 0.12655 0.39278 0.12886 0.0
C2504 C 0.17682 0.43224 0.1238 0.0
C2505 C 0.17686 0.44336 0.11813 0.0
C2506 C 0.166 0.42291 0.12224 0.0
C2507 C 0.15493 0.42448 0.11501 0.0
C2508 C 0.15493 0.43563 0.10938 0.0
C2509 C 0.16576 0.44497 0.11093 0.0
C2510 C 0.12641 0.40134 0.09999 0.0
C2511 C 0.12256 0.39451 0.10969 0.0
C2512 C 0.13677 0.41117 0.10175 0.0
C2513 C 0.14352 0.41442 0.11324 0.0
C2514 C 0.1395 0.40774 0.12298 0.0
C2515 C 0.12917 0.39791 0.12122 0.0
H2516 H 0.86282 0.95256 0.36169 0.0
H2517 H 0.86022 0.95487 0.40062 0.0
H2518 H 0.88143 0.94125 0.36355 0.0
H2519 H 0.8786 0.9432 0.40252 0.0
H2520 H 0.91963 0.93268 0.40288 0.0
H2521 H 0.90137 0.94457 0.4012 0.0
H2522 H 0.88704 0.92151 0.36768 0.0
H2523 H 0.9055 0.90998 0.36923 0.0
C2524 C 0.86617 0.95052 0.37063 0.0
C2525 C 0.86007 0.95456 0.381 0.0
C2526 C 0.87681 0.944 0.37172 0.0
C2527 C 0.88153 0.94124 0.38319 0.0
C2528 C 0.8754 0.94532 0.39356 0.0
C2529 C 0.86483 0.95196 0.39248 0.0
C2530 C 0.91253 0.93017 0.39519 0.0
C2531 C 0.914 0.92047 0.38615 0.0
C2532 C 0.90204 0.93694 0.39423 0.0
C2533 C 0.89271 0.93405 0.38428 0.0
C2534 C 0.89415 0.92421 0.37533 0.0
C2535 C 0.90471 0.91755 0.37623 0.0
H2536 H 0.34587 0.55738 0.65534 0.0
H2537 H 0.32129 0.56147 0.62362 0.0
H2538 H 0.35948 0.577 0.65258 0.0
H2539 H 0.33478 0.58127 0.62099 0.0
H2540 H 0.3726 0.60626 0.61236 0.0
H2541 H 0.35716 0.58785 0.61519 0.0
H2542 H 0.35868 0.59994 0.6537 0.0
H2543 H 0.37399 0.61844 0.65087 0.0
C2544 C 0.34336 0.56249 0.6478 0.0
C2545 C 0.33254 0.55786 0.63967 0.0
C2546 C 0.35108 0.5738 0.64628 0.0
C2547 C 0.34819 0.58069 0.63657 0.0
C2548 C 0.33729 0.57612 0.6285 0.0
C2549 C 0.32952 0.56485 0.63007 0.0
C2550 C 0.36946 0.60512 0.62139 0.0
C2551 C 0.37461 0.61378 0.6314 0.0
C2552 C 0.36062 0.59456 0.62302 0.0
C2553 C 0.35678 0.59239 0.63469 0.0
C2554 C 0.36163 0.60124 0.64463 0.0
C2555 C 0.37041 0.61183 0.643 0.0
H2556 H 0.64888 0.04054 0.87105 0.0
H2557 H 0.65546 0.04222 0.9101 0.0
H2558 H 0.63587 0.05771 0.87354 0.0
H2559 H 0.64273 0.05955 0.91263 0.0
H2560 H 0.60812 0.08092 0.91358 0.0
H2561 H 0.62094 0.0637 0.91061 0.0
H2562 H 0.63706 0.0798 0.87957 0.0
H2563 H 0.62396 0.09688 0.88243 0.0
C2564 C 0.64766 0.04469 0.88016 0.0
C2565 C 0.65313 0.04 0.89038 0.0
C2566 C 0.64023 0.05455 0.8816 0.0
C2567 C 0.63818 0.06 0.89329 0.0
C2568 C 0.64385 0.05541 0.9035 0.0
C2569 C 0.65119 0.0455 0.90206 0.0
C2570 C 0.61444 0.08078 0.90615 0.0
C2571 C 0.61507 0.09026 0.89826 0.0
C2572 C 0.62183 0.07094 0.90446 0.0
C2573 C 0.63012 0.07038 0.89489 0.0
C2574 C 0.63066 0.07983 0.88694 0.0
C2575 C 0.62319 0.08963 0.88858 0.0
H2576 H 0.16277 0.55431 0.39819 0.0
H2577 H 0.16095 0.56082 0.36028 0.0
H2578 H 0.14705 0.56889 0.40212 0.0
H2579 H 0.14516 0.57516 0.36411 0.0
H2580 H 0.12867 0.61034 0.37678 0.0
H2581 H 0.14445 0.59577 0.37404 0.0
H2582 H 0.12458 0.57182 0.39823 0.0
H2583 H 0.10888 0.58661 0.40113 0.0
C2584 C 0.1589 0.55875 0.39068 0.0
C2585 C 0.16318 0.55652 0.37895 0.0
C2586 C 0.14989 0.56709 0.39292 0.0
C2587 C 0.14494 0.57331 0.38346 0.0
C2588 C 0.14901 0.57079 0.37168 0.0
C2589 C 0.15803 0.56254 0.36946 0.0
C2590 C 0.12767 0.60195 0.38151 0.0
C2591 C 0.11748 0.59955 0.38908 0.0
C2592 C 0.13668 0.59357 0.37991 0.0
C2593 C 0.1357 0.58252 0.38578 0.0
C2594 C 0.12569 0.58028 0.39364 0.0
C2595 C 0.11669 0.58874 0.39529 0.0
H2596 H 0.6925 0.94233 0.63416 0.0
H2597 H 0.66937 0.9654 0.61474 0.0
H2598 H 0.6744 0.92533 0.63185 0.0
H2599 H 0.65101 0.94854 0.61292 0.0
H2600 H 0.626 0.91029 0.60052 0.0
H2601 H 0.64384 0.92766 0.60254 0.0
H2602 H 0.65343 0.91996 0.63933 0.0
H2603 H 0.63603 0.90227 0.63712 0.0
C2604 C 0.68356 0.94377 0.62936 0.0
C2605 C 0.68242 0.95523 0.62459 0.0
C2606 C 0.67311 0.93407 0.62819 0.0
C2607 C 0.66121 0.93557 0.62226 0.0
C2608 C 0.66006 0.94702 0.61746 0.0
C2609 C 0.67055 0.95674 0.61862 0.0
C2610 C 0.63198 0.91225 0.60901 0.0
C2611 C 0.6296 0.90484 0.61864 0.0
C2612 C 0.64211 0.92231 0.61022 0.0
C2613 C 0.65011 0.92519 0.62108 0.0
C2614 C 0.64759 0.9179 0.63077 0.0
C2615 C 0.63749 0.90785 0.62956 0.0
H2616 H 0.38412 0.46823 0.87992 0.0
H2617 H 0.35634 0.44061 0.85778 0.0
H2618 H 0.39901 0.45276 0.88108 0.0
H2619 H 0.371 0.42495 0.85944 0.0
H2620 H 0.40667 0.40507 0.85315 0.0
H2621 H 0.39132 0.42016 0.85221 0.0
H2622 H 0.40189 0.43374 0.89002 0.0
H2623 H 0.41768 0.41904 0.89078 0.0
C2624 C 0.38118 0.45885 0.87529 0.0
C2625 C 0.36905 0.4557 0.8687 0.0
C2626 C 0.38965 0.44992 0.8761 0.0
C2627 C 0.3862 0.43759 0.87037 0.0
C2628 C 0.37403 0.4344 0.86386 0.0
C2629 C 0.36556 0.44334 0.86302 0.0
C2630 C 0.40579 0.41134 0.86124 0.0
C2631 C 0.41347 0.41089 0.87202 0.0
C2632 C 0.39687 0.41989 0.86074 0.0
C2633 C 0.39537 0.42819 0.87103 0.0
C2634 C 0.40291 0.4276 0.88187 0.0
C2635 C 0.41185 0.41907 0.88236 0.0
H2636 H 0.84447 0.06832 0.15245 0.0
H2637 H 0.86653 0.04636 0.12881 0.0
H2638 H 0.85819 0.08753 0.1487 0.0
H2639 H 0.8803 0.06557 0.12516 0.0
H2640 H 0.91106 0.10071 0.134 0.0
H2641 H 0.89675 0.08148 0.13662 0.0
H2642 H 0.86348 0.101 0.13234 0.0
H2643 H 0.87786 0.12037 0.13003 0.0
C2644 C 0.85216 0.06759 0.14636 0.0
C2645 C 0.85442 0.05578 0.14096 0.0
C2646 C 0.86002 0.07861 0.14421 0.0
C2647 C 0.87034 0.07807 0.13664 0.0
C2648 C 0.87254 0.06628 0.13118 0.0
C2649 C 0.86467 0.05527 0.13329 0.0
C2650 C 0.90069 0.1009 0.13364 0.0
C2651 C 0.89559 0.11207 0.13186 0.0
C2652 C 0.89249 0.08986 0.13503 0.0
C2653 C 0.87898 0.08972 0.1347 0.0
C2654 C 0.87385 0.10085 0.13275 0.0
C2655 C 0.88207 0.11189 0.1313 0.0
H2656 H 0.1445 0.16239 0.40493 0.0
H2657 H 0.11302 0.14092 0.42085 0.0
H2658 H 0.146 0.14425 0.39036 0.0
H2659 H 0.11491 0.12261 0.40662 0.0
H2660 H 0.10948 0.10103 0.36796 0.0
H2661 H 0.10962 0.11709 0.38506 0.0
H2662 H 0.15153 0.12299 0.38748 0.0
H2663 H 0.15136 0.10717 0.37002 0.0
C2664 C 0.13799 0.15376 0.4054 0.0
C2665 C 0.12855 0.15316 0.41398 0.0
C2666 C 0.13896 0.1433 0.39715 0.0
C2667 C 0.13053 0.13199 0.39728 0.0
C2668 C 0.12144 0.13123 0.40617 0.0
C2669 C 0.12046 0.14169 0.41443 0.0
C2670 C 0.11873 0.10573 0.37217 0.0
C2671 C 0.1304 0.10294 0.36755 0.0
C2672 C 0.11881 0.11484 0.38207 0.0
C2673 C 0.13059 0.12138 0.38761 0.0
C2674 C 0.14229 0.11823 0.38331 0.0
C2675 C 0.1422 0.10908 0.37339 0.0
H2676 H 0.0538 0.86918 0.72419 0.0
H2677 H 0.03126 0.87987 0.69386 0.0
H2678 H 0.07019 0.86369 0.71052 0.0
H2679 H 0.04748 0.87408 0.68022 0.0
H2680 H 0.07394 0.85236 0.65744 0.0
H2681 H 0.05714 0.85539 0.67156 0.0
H2682 H 0.08626 0.87555 0.69836 0.0
H2683 H 0.10304 0.87238 0.68431 0.0
C2684 C 0.05231 0.87037 0.71463 0.0
C2685 C 0.04118 0.87502 0.71016 0.0
C2686 C 0.06169 0.86717 0.70679 0.0
C2687 C 0.06011 0.86844 0.6943 0.0
C2688 C 0.04888 0.87282 0.68978 0.0
C2689 C 0.03956 0.87611 0.69761 0.0
C2690 C 0.07675 0.85727 0.66641 0.0
C2691 C 0.08978 0.86217 0.66976 0.0
C2692 C 0.06714 0.8591 0.67445 0.0
C2693 C 0.07038 0.86575 0.68605 0.0
C2694 C 0.08347 0.87031 0.68953 0.0
C2695 C 0.09305 0.86859 0.68145 0.0
H2696 H 0.3571 0.84523 0.90143 0.0
H2697 H 0.37998 0.872 0.92862 0.0
H2698 H 0.35593 0.86178 0.88808 0.0
H2699 H 0.37866 0.8886 0.91528 0.0
H2700 H 0.36199 0.91705 0.89217 0.0
H2701 H 0.36275 0.90079 0.90603 0.0
H2702 H 0.37099 0.87463 0.87629 0.0
H2703 H 0.36992 0.89076 0.86241 0.0
C2704 C 0.36193 0.85463 0.90454 0.0
C2705 C 0.36872 0.85725 0.91607 0.0
C2706 C 0.36125 0.86412 0.89689 0.0
C2707 C 0.36727 0.87647 0.90059 0.0
C2708 C 0.37381 0.87919 0.91222 0.0
C2709 C 0.37455 0.86968 0.91987 0.0
C2710 C 0.3639 0.9078 0.8886 0.0
C2711 C 0.36589 0.90518 0.8762 0.0
C2712 C 0.36445 0.89853 0.89655 0.0
C2713 C 0.36689 0.88642 0.89224 0.0
C2714 C 0.36894 0.88383 0.87985 0.0
C2715 C 0.36847 0.89311 0.87193 0.0
H2716 H 0.45381 0.17899 0.20163 0.0
H2717 H 0.47489 0.1519 0.18297 0.0
H2718 H 0.44283 0.18195 0.18231 0.0
H2719 H 0.46443 0.15537 0.1636 0.0
H2720 H 0.42949 0.15073 0.13544 0.0
H2721 H 0.4432 0.14975 0.15374 0.0
H2722 H 0.44474 0.1899 0.16274 0.0
H2723 H 0.43048 0.19076 0.14459 0.0
C2724 C 0.4562 0.17375 0.1934 0.0
C2725 C 0.46514 0.1651 0.1939 0.0
C2726 C 0.45003 0.17558 0.18228 0.0
C2727 C 0.45267 0.16884 0.17138 0.0
C2728 C 0.46201 0.16058 0.17183 0.0
C2729 C 0.46814 0.15871 0.18294 0.0
C2730 C 0.43275 0.15935 0.14133 0.0
C2731 C 0.42876 0.17079 0.13864 0.0
C2732 C 0.44076 0.15882 0.15175 0.0
C2733 C 0.44507 0.16974 0.15976 0.0
C2734 C 0.44146 0.18128 0.15685 0.0
C2735 C 0.43341 0.18181 0.14639 0.0
H2736 H 0.1103 0.8549 0.10533 0.0
H2737 H 0.14689 0.86699 0.09078 0.0
H2738 H 0.11496 0.87196 0.12181 0.0
H2739 H 0.15148 0.88424 0.10713 0.0
H2740 H 0.16092 0.90609 0.14506 0.0
H2741 H 0.15675 0.88888 0.12862 0.0
H2742 H 0.11644 0.89434 0.12531 0.0
H2743 H 0.1206 0.91133 0.14189 0.0
C2744 C 0.11931 0.86127 0.10562 0.0
C2745 C 0.12822 0.85962 0.09675 0.0
C2746 C 0.12197 0.87108 0.11504 0.0
C2747 C 0.13357 0.87954 0.11578 0.0
C2748 C 0.14253 0.87781 0.10695 0.0
C2749 C 0.1399 0.86794 0.09757 0.0
C2750 C 0.1512 0.90365 0.14074 0.0
C2751 C 0.14107 0.91 0.14479 0.0
C2752 C 0.1488 0.89381 0.13131 0.0
C2753 C 0.13623 0.89016 0.12567 0.0
C2754 C 0.12617 0.8967 0.12961 0.0
C2755 C 0.12856 0.90647 0.13908 0.0
H2756 H 0.43943 0.8572 0.34629 0.0
H2757 H 0.42463 0.88891 0.33225 0.0
H2758 H 0.42107 0.85439 0.35894 0.0
H2759 H 0.40638 0.88621 0.34496 0.0
H2760 H 0.36905 0.87127 0.3609 0.0
H2761 H 0.3868 0.8725 0.34747 0.0
H2762 H 0.41279 0.86453 0.37666 0.0
H2763 H 0.39497 0.86314 0.39002 0.0
C2764 C 0.43228 0.8636 0.34595 0.0
C2765 C 0.43348 0.87327 0.33826 0.0
C2766 C 0.42177 0.862 0.35321 0.0
C2767 C 0.41223 0.87007 0.35298 0.0
C2768 C 0.4134 0.87968 0.34521 0.0
C2769 C 0.42388 0.88124 0.33792 0.0
C2770 C 0.37857 0.8698 0.36444 0.0
C2771 C 0.38062 0.86716 0.37653 0.0
C2772 C 0.38875 0.87053 0.35675 0.0
C2773 C 0.40125 0.86868 0.36099 0.0
C2774 C 0.40325 0.86583 0.37304 0.0
C2775 C 0.39305 0.86505 0.38071 0.0
H2776 H 0.37884 0.16325 0.59076 0.0
H2777 H 0.33722 0.15614 0.58366 0.0
H2778 H 0.37763 0.14706 0.60482 0.0
H2779 H 0.33599 0.1401 0.59785 0.0
H2780 H 0.34042 0.10386 0.61523 0.0
H2781 H 0.34243 0.1189 0.60011 0.0
H2782 H 0.36906 0.14466 0.6252 0.0
H2783 H 0.36687 0.12977 0.64042 0.0
C2784 C 0.36945 0.15814 0.59212 0.0
C2785 C 0.35812 0.16097 0.58613 0.0
C2786 C 0.36875 0.14896 0.60025 0.0
C2787 C 0.35672 0.14234 0.60246 0.0
C2788 C 0.34542 0.14498 0.59626 0.0
C2789 C 0.34611 0.15423 0.58822 0.0
C2790 C 0.34664 0.11276 0.61756 0.0
C2791 C 0.35344 0.11561 0.62908 0.0
C2792 C 0.34781 0.12136 0.60888 0.0
C2793 C 0.35588 0.13297 0.61147 0.0
C2794 C 0.36289 0.13572 0.62288 0.0
C2795 C 0.36165 0.12717 0.63159 0.0
H2796 H 0.07311 0.14143 0.80874 0.0
H2797 H 0.05474 0.11529 0.83184 0.0
H2798 H 0.0926 0.14499 0.8226 0.0
H2799 H 0.07397 0.11929 0.84597 0.0
H2800 H 0.11428 0.12095 0.86407 0.0
H2801 H 0.09633 0.11602 0.84846 0.0
H2802 H 0.09941 0.15536 0.84268 0.0
H2803 H 0.11771 0.16018 0.85786 0.0
C2804 C 0.07325 0.13638 0.81673 0.0
C2805 C 0.06233 0.12811 0.81919 0.0
C2806 C 0.08437 0.13853 0.82475 0.0
C2807 C 0.08484 0.13248 0.83544 0.0
C2808 C 0.07401 0.12403 0.83777 0.0
C2809 C 0.0629 0.12186 0.82974 0.0
C2810 C 0.11127 0.12851 0.85932 0.0
C2811 C 0.11741 0.14097 0.86225 0.0
C2812 C 0.10087 0.12571 0.85047 0.0
C2813 C 0.09637 0.1353 0.84435 0.0
C2814 C 0.10269 0.14772 0.84711 0.0
C2815 C 0.11309 0.15051 0.85594 0.0
H2816 H 0.91688 0.39191 0.82881 0.0
H2817 H 0.93089 0.35774 0.83774 0.0
H2818 H 0.89917 0.38805 0.84202 0.0
H2819 H 0.91334 0.35404 0.85121 0.0
H2820 H 0.87164 0.34543 0.86354 0.0
H2821 H 0.88942 0.34869 0.85026 0.0
H2822 H 0.89653 0.3881 0.86401 0.0
H2823 H 0.8789 0.38485 0.87737 0.0
C2824 C 0.91613 0.38354 0.83354 0.0
C2825 C 0.92528 0.37513 0.83222 0.0
C2826 C 0.90608 0.3814 0.84121 0.0
C2827 C 0.9049 0.37078 0.84771 0.0
C2828 C 0.91394 0.36227 0.84627 0.0
C2829 C 0.92406 0.36445 0.83864 0.0
C2830 C 0.8771 0.35476 0.86384 0.0
C2831 C 0.87379 0.36489 0.87148 0.0
C2832 C 0.88727 0.35663 0.85621 0.0
C2833 C 0.89432 0.36867 0.85602 0.0
C2834 C 0.89113 0.37876 0.86378 0.0
C2835 C 0.88101 0.37689 0.87143 0.0
H2836 H 0.88056 0.66476 0.10726 0.0
H2837 H 0.8428 0.64945 0.08999 0.0
H2838 H 0.87899 0.64808 0.12076 0.0
H2839 H 0.84134 0.63262 0.10334 0.0
H2840 H 0.83725 0.61539 0.13983 0.0
H2841 H 0.83905 0.63112 0.12541 0.0
H2842 H 0.87845 0.62483 0.12012 0.0
H2843 H 0.87661 0.60889 0.1344 0.0
C2844 C 0.87194 0.65781 0.10634 0.0
C2845 C 0.86178 0.65844 0.0976 0.0
C2846 C 0.8711 0.6482 0.11398 0.0
C2847 C 0.86003 0.63906 0.11312 0.0
C2848 C 0.84993 0.6396 0.10429 0.0
C2849 C 0.85082 0.64916 0.09658 0.0
C2850 C 0.84624 0.6172 0.13546 0.0
C2851 C 0.85678 0.61084 0.13826 0.0
C2852 C 0.84727 0.62624 0.12721 0.0
C2853 C 0.85888 0.6292 0.12163 0.0
C2854 C 0.86942 0.62285 0.1244 0.0
C2855 C 0.86837 0.61374 0.1326 0.0
H2856 H 0.56168 0.6624 0.33101 0.0
H2857 H 0.57282 0.62725 0.31588 0.0
H2858 H 0.58047 0.66543 0.34574 0.0
H2859 H 0.59179 0.63043 0.33042 0.0
H2860 H 0.61326 0.63303 0.36865 0.0
H2861 H 0.59578 0.63029 0.35262 0.0
H2862 H 0.6044 0.66959 0.34713 0.0
H2863 H 0.62202 0.67232 0.36308 0.0
C2864 C 0.56818 0.65535 0.3308 0.0
C2865 C 0.56573 0.64456 0.32231 0.0
C2866 C 0.57901 0.65715 0.33916 0.0
C2867 C 0.5876 0.64815 0.33927 0.0
C2868 C 0.58528 0.63747 0.33064 0.0
C2869 C 0.57449 0.63571 0.32223 0.0
C2870 C 0.61158 0.64105 0.36391 0.0
C2871 C 0.61905 0.6529 0.36719 0.0
C2872 C 0.60154 0.63948 0.35472 0.0
C2873 C 0.59869 0.64973 0.34862 0.0
C2874 C 0.60624 0.66155 0.35178 0.0
C2875 C 0.61633 0.66311 0.36093 0.0
H2876 H 0.85368 0.37284 0.41547 0.0
H2877 H 0.88825 0.36321 0.39933 0.0
H2878 H 0.85135 0.38783 0.40062 0.0
H2879 H 0.88602 0.37829 0.38457 0.0
H2880 H 0.86911 0.39503 0.35167 0.0
H2881 H 0.87221 0.38076 0.36703 0.0
H2882 H 0.86095 0.40771 0.39457 0.0
H2883 H 0.85771 0.42191 0.37914 0.0
C2884 C 0.86087 0.37405 0.40884 0.0
C2885 C 0.87111 0.36681 0.40854 0.0
C2886 C 0.85955 0.38265 0.40034 0.0
C2887 C 0.86847 0.38424 0.39136 0.0
C2888 C 0.87884 0.37714 0.3912 0.0
C2889 C 0.88013 0.36851 0.39968 0.0
C2890 C 0.86743 0.39795 0.36103 0.0
C2891 C 0.86315 0.40958 0.3642 0.0
C2892 C 0.86922 0.38978 0.36984 0.0
C2893 C 0.86683 0.39308 0.38205 0.0
C2894 C 0.86268 0.40478 0.38523 0.0
C2895 C 0.86084 0.41293 0.3764 0.0
H2896 H 0.59994 0.63113 0.91524 0.0
H2897 H 0.63269 0.65216 0.90073 0.0
H2898 H 0.6014 0.61313 0.9004 0.0
H2899 H 0.63386 0.63438 0.88564 0.0
H2900 H 0.63911 0.59718 0.86543 0.0
H2901 H 0.63883 0.61286 0.8829 0.0
H2902 H 0.59698 0.60824 0.87846 0.0
H2903 H 0.59725 0.59229 0.8613 0.0
C2904 C 0.60752 0.63187 0.90896 0.0
C2905 C 0.61615 0.6431 0.90912 0.0
C2906 C 0.60828 0.62161 0.90038 0.0
C2907 C 0.61771 0.62234 0.8918 0.0
C2908 C 0.62656 0.63345 0.89219 0.0
C2909 C 0.62579 0.6437 0.90075 0.0
C2910 C 0.62985 0.59935 0.86834 0.0
C2911 C 0.61821 0.59357 0.86193 0.0
C2912 C 0.62969 0.60842 0.87827 0.0
C2913 C 0.61789 0.61187 0.88202 0.0
C2914 C 0.60623 0.60574 0.87588 0.0
C2915 C 0.60639 0.5967 0.86596 0.0
H2916 H 0.82474 0.54961 0.85952 0.0
H2917 H 0.80411 0.56464 0.88905 0.0
H2918 H 0.84233 0.56711 0.86428 0.0
H2919 H 0.82174 0.58198 0.89398 0.0
H2920 H 0.84891 0.61816 0.89194 0.0
H2921 H 0.83143 0.60076 0.88642 0.0
H2922 H 0.85967 0.57554 0.87923 0.0
H2923 H 0.87713 0.59304 0.88453 0.0
C2924 C 0.82403 0.5566 0.8671 0.0
C2925 C 0.81302 0.55579 0.87387 0.0
C2926 C 0.83411 0.56661 0.86985 0.0
C2927 C 0.83344 0.576 0.87949 0.0
C2928 C 0.82247 0.57508 0.88634 0.0
C2929 C 0.81237 0.56512 0.88354 0.0
C2930 C 0.85136 0.60889 0.8892 0.0
C2931 C 0.86438 0.60696 0.88868 0.0
C2932 C 0.84135 0.5989 0.88607 0.0
C2933 C 0.84412 0.58671 0.88244 0.0
C2934 C 0.85716 0.58482 0.88182 0.0
C2935 C 0.86718 0.59484 0.88487 0.0
H2936 H 0.12933 0.05522 0.64835 0.0
H2937 H 0.1358 0.05185 0.61006 0.0
H2938 H 0.11608 0.07178 0.6454 0.0
H2939 H 0.12285 0.06873 0.6071 0.0
H2940 H 0.08751 0.09008 0.60446 0.0
H2941 H 0.10131 0.0737 0.60667 0.0
H2942 H 0.11746 0.09301 0.64145 0.0
H2943 H 0.10335 0.10905 0.63936 0.0
C2944 C 0.12802 0.05814 0.63931 0.0
C2945 C 0.13361 0.05227 0.62944 0.0
C2946 C 0.12048 0.06768 0.63762 0.0
C2947 C 0.11845 0.0717 0.62601 0.0
C2948 C 0.12405 0.06579 0.61612 0.0
C2949 C 0.1315 0.05614 0.61781 0.0
C2950 C 0.09411 0.09083 0.61251 0.0
C2951 C 0.0943 0.10075 0.62178 0.0
C2952 C 0.10205 0.08148 0.61378 0.0
C2953 C 0.11044 0.08194 0.62431 0.0
C2954 C 0.1109 0.09215 0.63337 0.0
C2955 C 0.10287 0.10139 0.63215 0.0
H2956 H 0.64031 0.45459 0.3727 0.0
H2957 H 0.66636 0.44388 0.40035 0.0
H2958 H 0.62427 0.43679 0.3757 0.0
H2959 H 0.65022 0.42605 0.40346 0.0
H2960 H 0.62285 0.38798 0.39532 0.0
H2961 H 0.63948 0.40587 0.39358 0.0
H2962 H 0.60972 0.42993 0.39059 0.0
H2963 H 0.59316 0.41205 0.39217 0.0
C2964 C 0.64256 0.44849 0.3795 0.0
C2965 C 0.65458 0.45069 0.38633 0.0
C2966 C 0.63335 0.43829 0.38125 0.0
C2967 C 0.6359 0.43005 0.38991 0.0
C2968 C 0.64799 0.43215 0.39665 0.0
C2969 C 0.65724 0.44236 0.39486 0.0
C2970 C 0.6199 0.39714 0.39446 0.0
C2971 C 0.6067 0.3986 0.39377 0.0
C2972 C 0.62942 0.40739 0.39347 0.0
C2973 C 0.62593 0.41931 0.3918 0.0
C2974 C 0.61274 0.42082 0.39157 0.0
C2975 C 0.60325 0.41059 0.39252 0.0
H2976 H 0.33908 0.95523 0.1355 0.0
H2977 H 0.36494 0.98099 0.11746 0.0
H2978 H 0.35461 0.94033 0.13469 0.0
H2979 H 0.38083 0.96629 0.11719 0.0
H2980 H 0.39735 0.92968 0.10483 0.0
H2981 H 0.38354 0.94617 0.10687 0.0
H2982 H 0.37531 0.93667 0.14294 0.0
H2983 H 0.38856 0.91975 0.14064 0.0
C2984 C 0.34811 0.95774 0.13138 0.0
C2985 C 0.3507 0.96926 0.12642 0.0
C2986 C 0.35712 0.94926 0.13108 0.0
C2987 C 0.369 0.9521 0.12589 0.0
C2988 C 0.37172 0.96374 0.12114 0.0
C2989 C 0.36267 0.97223 0.12141 0.0
C2990 C 0.39257 0.93109 0.11319 0.0
C2991 C 0.39396 0.92329 0.12252 0.0
C2992 C 0.38478 0.94066 0.11442 0.0
C2993 C 0.37823 0.94271 0.12504 0.0
C2994 C 0.38004 0.93523 0.13456 0.0
C2995 C 0.38778 0.92562 0.1333 0.0
H2996 H 0.85093 0.49062 0.6372 0.0
H2997 H 0.83491 0.47836 0.60043 0.0
H2998 H 0.86469 0.47399 0.63589 0.0
H2999 H 0.84872 0.46181 0.59906 0.0
H3000 H 0.86249 0.42466 0.60665 0.0
H3001 H 0.84995 0.44217 0.60762 0.0
H3002 H 0.88297 0.46666 0.62605 0.0
H3003 H 0.89552 0.44905 0.62514 0.0
C3004 C 0.85051 0.48451 0.62877 0.0
C3005 C 0.84177 0.48575 0.61895 0.0
C3006 C 0.85839 0.47497 0.62802 0.0
C3007 C 0.85773 0.46649 0.61741 0.0
C3008 C 0.84928 0.46801 0.60746 0.0
C3009 C 0.84138 0.47751 0.60823 0.0
C3010 C 0.86711 0.4338 0.61082 0.0
C3011 C 0.88001 0.43547 0.61578 0.0
C3012 C 0.85993 0.44386 0.61135 0.0
C3013 C 0.86547 0.45585 0.61684 0.0
C3014 C 0.87836 0.45752 0.62187 0.0
C3015 C 0.88555 0.44743 0.62135 0.0
H3016 H 0.3185 0.07283 0.38517 0.0
H3017 H 0.33871 0.05517 0.35671 0.0
H3018 H 0.33638 0.09004 0.38896 0.0
H3019 H 0.35658 0.07254 0.36034 0.0
H3020 H 0.39172 0.09934 0.37932 0.0
H3021 H 0.37408 0.08185 0.37492 0.0
H3022 H 0.34619 0.10786 0.37989 0.0
H3023 H 0.36384 0.12525 0.3845 0.0
C3024 C 0.32673 0.0727 0.37965 0.0
C3025 C 0.32717 0.06268 0.37061 0.0
C3026 C 0.33697 0.08259 0.38179 0.0
C3027 C 0.3479 0.08275 0.37489 0.0
C3028 C 0.34839 0.07266 0.36591 0.0
C3029 C 0.33815 0.06271 0.36382 0.0
C3030 C 0.38181 0.1013 0.37935 0.0
C3031 C 0.37916 0.11364 0.38232 0.0
C3032 C 0.37169 0.0913 0.37682 0.0
C3033 C 0.35869 0.09342 0.37713 0.0
C3034 C 0.35607 0.10583 0.37983 0.0
C3035 C 0.36618 0.11581 0.38243 0.0
H3036 H 0.64581 0.55257 0.11996 0.0
H3037 H 0.62665 0.5453 0.15263 0.0
H3038 H 0.63219 0.56876 0.11645 0.0
H3039 H 0.61317 0.56161 0.14926 0.0
H3040 H 0.58214 0.58225 0.13306 0.0
H3041 H 0.59569 0.56589 0.13603 0.0
H3042 H 0.62848 0.58946 0.12426 0.0
H3043 H 0.61482 0.60573 0.1211 0.0
C3044 C 0.63877 0.55453 0.12646 0.0
C3045 C 0.63729 0.54765 0.13656 0.0
C3046 C 0.63097 0.56382 0.12446 0.0
C3047 C 0.62155 0.5665 0.13256 0.0
C3048 C 0.62015 0.55965 0.14271 0.0
C3049 C 0.6279 0.55032 0.14466 0.0
C3050 C 0.59226 0.58394 0.13115 0.0
C3051 C 0.59743 0.59527 0.12687 0.0
C3052 C 0.60004 0.57458 0.13288 0.0
C3053 C 0.61321 0.57637 0.13045 0.0
C3054 C 0.61834 0.58769 0.12607 0.0
C3055 C 0.61053 0.59702 0.12427 0.0
H3056 H 0.17037 0.94134 0.9126 0.0
H3057 H 0.14652 0.95182 0.88309 0.0
H3058 H 0.15413 0.92304 0.91432 0.0
H3059 H 0.13027 0.93379 0.88497 0.0
H3060 H 0.11038 0.89372 0.88254 0.0
H3061 H 0.12805 0.91066 0.88125 0.0
H3062 H 0.1313 0.91843 0.92043 0.0
H3063 H 0.11347 0.90145 0.92174 0.0
C3064 C 0.16168 0.93971 0.90647 0.0
C3065 C 0.1597 0.94803 0.89773 0.0
C3066 C 0.15236 0.92931 0.90752 0.0
C3067 C 0.14095 0.92696 0.89975 0.0
C3068 C 0.13903 0.93526 0.89099 0.0
C3069 C 0.14827 0.94567 0.89001 0.0
C3070 C 0.11484 0.89905 0.89089 0.0
C3071 C 0.1104 0.89636 0.90223 0.0
C3072 C 0.12497 0.90875 0.89014 0.0
C3073 C 0.13096 0.91598 0.90073 0.0
C3074 C 0.12691 0.91297 0.91212 0.0
C3075 C 0.11671 0.90326 0.91287 0.0
H3076 H 0.90755 0.90091 0.5976 0.0
H3077 H 0.93734 0.89446 0.62412 0.0
H3078 H 0.90094 0.91706 0.61217 0.0
H3079 H 0.93065 0.91041 0.63862 0.0
H3080 H 0.90337 0.9247 0.66567 0.0
H3081 H 0.9105 0.91056 0.64977 0.0
H3082 H 0.90853 0.93847 0.62452 0.0
H3083 H 0.90153 0.95288 0.64064 0.0
C3084 C 0.91283 0.90308 0.60645 0.0
C3085 C 0.92285 0.89626 0.60977 0.0
C3086 C 0.90903 0.9123 0.61478 0.0
C3087 C 0.91515 0.91484 0.62658 0.0
C3088 C 0.92556 0.90846 0.62967 0.0
C3089 C 0.92938 0.89931 0.62137 0.0
C3090 C 0.90457 0.92791 0.65677 0.0
C3091 C 0.90212 0.94001 0.65449 0.0
C3092 C 0.90865 0.91979 0.64766 0.0
C3093 C 0.91029 0.92349 0.63597 0.0
C3094 C 0.90736 0.93539 0.63347 0.0
C3095 C 0.90334 0.94361 0.64267 0.0
H3096 H 0.93838 0.1687 0.30288 0.0
H3097 H 0.97157 0.16524 0.32693 0.0
H3098 H 0.92544 0.17116 0.32036 0.0
H3099 H 0.95849 0.16746 0.3444 0.0
H3100 H 0.92515 0.15239 0.36776 0.0
H3101 H 0.94 0.15368 0.35156 0.0
H3102 H 0.92293 0.18507 0.33938 0.0
H3103 H 0.90791 0.18366 0.35559 0.0
C3104 C 0.943 0.1687 0.3119 0.0
C3105 C 0.95602 0.16667 0.31347 0.0
C3106 C 0.93556 0.1701 0.32192 0.0
C3107 C 0.94093 0.16943 0.33374 0.0
C3108 C 0.95405 0.16784 0.33537 0.0
C3109 C 0.96152 0.16652 0.32536 0.0
C3110 C 0.92463 0.15961 0.36167 0.0
C3111 C 0.91533 0.16787 0.36286 0.0
C3112 C 0.93321 0.16043 0.35246 0.0
C3113 C 0.93262 0.16946 0.34419 0.0
C3114 C 0.92354 0.17795 0.34558 0.0
C3115 C 0.91502 0.17721 0.35489 0.0
H3116 H 0.65019 0.15512 0.11957 0.0
H3117 H 0.61966 0.13129 0.09684 0.0
H3118 H 0.65123 0.1386 0.13297 0.0
H3119 H 0.6211 0.11455 0.10995 0.0
H3120 H 0.6149 0.09626 0.14564 0.0
H3121 H 0.61521 0.11091 0.13022 0.0
H3122 H 0.65706 0.11781 0.13477 0.0
H3123 H 0.6567 0.1035 0.15059 0.0
C3124 C 0.64377 0.14632 0.11738 0.0
C3125 C 0.63476 0.14458 0.10719 0.0
C3126 C 0.64448 0.13677 0.12498 0.0
C3127 C 0.63621 0.12525 0.12257 0.0
C3128 C 0.6275 0.12336 0.11215 0.0
C3129 C 0.62677 0.13291 0.10456 0.0
C3130 C 0.62417 0.1009 0.14335 0.0
C3131 C 0.63577 0.09882 0.14943 0.0
C3132 C 0.62436 0.10919 0.1344 0.0
C3133 C 0.63616 0.11558 0.13129 0.0
C3134 C 0.6478 0.11316 0.13707 0.0
C3135 C 0.6476 0.10486 0.14603 0.0
H3136 H 0.56598 0.87137 0.81811 0.0
H3137 H 0.53912 0.84146 0.82961 0.0
H3138 H 0.58266 0.867 0.83274 0.0
H3139 H 0.5559 0.83699 0.84425 0.0
H3140 H 0.58423 0.84477 0.87902 0.0
H3141 H 0.56743 0.84653 0.86322 0.0
H3142 H 0.59667 0.85186 0.83737 0.0
H3143 H 0.61344 0.85028 0.85321 0.0
C3144 C 0.56371 0.8637 0.82361 0.0
C3145 C 0.55122 0.85677 0.82269 0.0
C3146 C 0.57329 0.86118 0.83201 0.0
C3147 C 0.57064 0.85163 0.83968 0.0
C3148 C 0.55821 0.84453 0.83861 0.0
C3149 C 0.5486 0.84708 0.83021 0.0
C3150 C 0.58703 0.84612 0.86991 0.0
C3151 C 0.60016 0.84751 0.86738 0.0
C3152 C 0.5774 0.84712 0.86084 0.0
C3153 C 0.58071 0.84946 0.84904 0.0
C3154 C 0.59381 0.85033 0.84642 0.0
C3155 C 0.60341 0.84939 0.85548 0.0
H3156 H 0.85294 0.13667 0.93563 0.0
H3157 H 0.88145 0.16178 0.9197 0.0
H3158 H 0.85129 0.12176 0.91739 0.0
H3159 H 0.87988 0.1468 0.90144 0.0
H3160 H 0.86236 0.12259 0.86593 0.0
H3161 H 0.8651 0.13785 0.88406 0.0
H3162 H 0.86374 0.10738 0.90682 0.0
H3163 H 0.86088 0.09218 0.88871 0.0
C3164 C 0.85894 0.13896 0.92826 0.0
C3165 C 0.86735 0.15039 0.92913 0.0
C3166 C 0.85802 0.1304 0.91781 0.0
C3167 C 0.86551 0.13304 0.90797 0.0
C3168 C 0.87386 0.14453 0.90879 0.0
C3169 C 0.87476 0.15312 0.91925 0.0
C3170 C 0.86282 0.11918 0.87481 0.0
C3171 C 0.86132 0.10619 0.8759 0.0
C3172 C 0.86439 0.12792 0.8852 0.0
C3173 C 0.86453 0.12384 0.8969 0.0
C3174 C 0.8634 0.11084 0.89795 0.0
C3175 C 0.86179 0.10213 0.88758 0.0
H3176 H 0.57815 0.13849 0.69062 0.0
H3177 H 0.55967 0.16877 0.67779 0.0
H3178 H 0.59537 0.14263 0.67693 0.0
H3179 H 0.57688 0.17293 0.66413 0.0
H3180 H 0.60097 0.16697 0.63146 0.0
H3181 H 0.58431 0.16297 0.64568 0.0
H3182 H 0.61368 0.15812 0.67332 0.0
H3183 H 0.63038 0.16212 0.65904 0.0
C3184 C 0.57785 0.14613 0.685 0.0
C3185 C 0.5675 0.15326 0.68526 0.0
C3186 C 0.58772 0.1485 0.67714 0.0
C3187 C 0.58746 0.15806 0.66937 0.0
C3188 C 0.57724 0.16534 0.66982 0.0
C3189 C 0.56738 0.16296 0.67766 0.0
C3190 C 0.60389 0.16514 0.64059 0.0
C3191 C 0.61701 0.16492 0.64413 0.0
C3192 C 0.59434 0.16286 0.64876 0.0
C3193 C 0.59767 0.16031 0.66067 0.0
C3194 C 0.61077 0.15993 0.66417 0.0
C3195 C 0.62034 0.16221 0.65599 0.0
H3196 H 0.61757 0.84283 0.41493 0.0
H3197 H 0.65829 0.85405 0.4254 0.0
H3198 H 0.61811 0.85937 0.40141 0.0
H3199 H 0.65882 0.87091 0.41214 0.0
H3200 H 0.65805 0.89017 0.37688 0.0
H3201 H 0.65796 0.87439 0.39128 0.0
H3202 H 0.61978 0.88136 0.40091 0.0
H3203 H 0.61977 0.8968 0.38621 0.0
C3204 C 0.6266 0.84898 0.41446 0.0
C3205 C 0.63788 0.84716 0.42122 0.0
C3206 C 0.62691 0.8585 0.40674 0.0
C3207 C 0.6385 0.86654 0.40568 0.0
C3208 C 0.64977 0.86479 0.41256 0.0
C3209 C 0.64947 0.85516 0.4202 0.0
C3210 C 0.6497 0.88836 0.38217 0.0
C3211 C 0.63889 0.89463 0.3804 0.0
C3212 C 0.64965 0.87936 0.39045 0.0
C3213 C 0.63883 0.87652 0.39724 0.0
C3214 C 0.62816 0.88308 0.39566 0.0
C3215 C 0.62816 0.89197 0.38729 0.0
H3216 H 0.94283 0.90035 0.20026 0.0
H3217 H 0.95919 0.87136 0.17901 0.0
H3218 H 0.92262 0.89522 0.18749 0.0
H3219 H 0.93891 0.86609 0.16629 0.0
H3220 H 0.90637 0.87054 0.1379 0.0
H3221 H 0.92637 0.87471 0.15104 0.0
H3222 H 0.90413 0.87923 0.18255 0.0
H3223 H 0.88412 0.87521 0.16935 0.0
C3224 C 0.94204 0.89277 0.19295 0.0
C3225 C 0.95261 0.88627 0.19064 0.0
C3226 C 0.93045 0.8898 0.18563 0.0
C3227 C 0.92912 0.88024 0.17584 0.0
C3228 C 0.93966 0.87365 0.17362 0.0
C3229 C 0.95128 0.87665 0.18091 0.0
C3230 C 0.90575 0.8723 0.14765 0.0
C3231 C 0.89367 0.87257 0.15259 0.0
C3232 C 0.91722 0.87467 0.15519 0.0
C3233 C 0.91688 0.87733 0.16786 0.0
C3234 C 0.90477 0.87743 0.17281 0.0
C3235 C 0.8933 0.87511 0.16526 0.0
H3236 H 0.07976 0.63152 0.19462 0.0
H3237 H 0.06144 0.6616 0.18114 0.0
H3238 H 0.0966 0.63481 0.18037 0.0
H3239 H 0.07802 0.66461 0.16664 0.0
H3240 H 0.11674 0.6748 0.15042 0.0
H3241 H 0.10106 0.67204 0.16579 0.0
H3242 H 0.09861 0.63164 0.15837 0.0
H3243 H 0.11427 0.6344 0.14296 0.0
C3244 C 0.07937 0.63889 0.18867 0.0
C3245 C 0.06925 0.64629 0.18901 0.0
C3246 C 0.08894 0.64068 0.18042 0.0
C3247 C 0.08863 0.64995 0.17234 0.0
C3248 C 0.07861 0.65747 0.17281 0.0
C3249 C 0.06903 0.65565 0.18103 0.0
C3250 C 0.1128 0.66533 0.15202 0.0
C3251 C 0.11671 0.65482 0.14542 0.0
C3252 C 0.10382 0.66375 0.16083 0.0
C3253 C 0.09855 0.65162 0.16329 0.0
C3254 C 0.10261 0.64111 0.15682 0.0
C3255 C 0.11158 0.64269 0.14798 0.0
H3256 H 0.10545 0.33442 0.90395 0.0
H3257 H 0.14689 0.34325 0.91173 0.0
H3258 H 0.10595 0.35128 0.89075 0.0
H3259 H 0.14741 0.36036 0.89879 0.0
H3260 H 0.14552 0.38053 0.86435 0.0
H3261 H 0.14521 0.36406 0.87799 0.0
H3262 H 0.10896 0.3735 0.89076 0.0
H3263 H 0.10916 0.38972 0.87685 0.0
C3264 C 0.11465 0.34009 0.90295 0.0
C3265 C 0.12613 0.33752 0.90885 0.0
C3266 C 0.11494 0.34978 0.89541 0.0
C3267 C 0.12672 0.35721 0.89368 0.0
C3268 C 0.13819 0.3547 0.89972 0.0
C3269 C 0.1379 0.34493 0.90717 0.0
C3270 C 0.13755 0.37912 0.87015 0.0
C3271 C 0.12735 0.38637 0.86952 0.0
C3272 C 0.13737 0.36971 0.878 0.0
C3273 C 0.12705 0.36741 0.8855 0.0
C3274 C 0.11694 0.37482 0.88497 0.0
C3275 C 0.11706 0.38415 0.87703 0.0
H3276 H 0.44743 0.37604 0.66927 0.0
H3277 H 0.4346 0.41057 0.68383 0.0
H3278 H 0.42723 0.37056 0.65647 0.0
H3279 H 0.41425 0.40499 0.67132 0.0
H3280 H 0.3855 0.398 0.63806 0.0
H3281 H 0.40572 0.40324 0.65081 0.0
H3282 H 0.40455 0.36407 0.65686 0.0
H3283 H 0.38448 0.35885 0.6438 0.0
C3284 C 0.44021 0.38239 0.66983 0.0
C3285 C 0.44261 0.39375 0.67751 0.0
C3286 C 0.42861 0.37924 0.66252 0.0
C3287 C 0.41908 0.38734 0.66282 0.0
C3288 C 0.42145 0.39864 0.67065 0.0
C3289 C 0.4331 0.40183 0.67786 0.0
C3290 C 0.38955 0.39054 0.64217 0.0
C3291 C 0.38342 0.37803 0.63996 0.0
C3292 C 0.40112 0.39353 0.64952 0.0
C3293 C 0.40678 0.38409 0.65493 0.0
C3294 C 0.4006 0.37156 0.6527 0.0
C3295 C 0.38908 0.36856 0.64526 0.0
H3296 H 0.09924 0.63024 0.60552 0.0
H3297 H 0.13151 0.6525 0.62734 0.0
H3298 H 0.10084 0.61289 0.61789 0.0
H3299 H 0.13278 0.63538 0.63998 0.0
H3300 H 0.13808 0.5997 0.65621 0.0
H3301 H 0.13797 0.61413 0.64053 0.0
H3302 H 0.09607 0.60893 0.63847 0.0
H3303 H 0.0962 0.59418 0.65378 0.0
C3304 C 0.10676 0.63139 0.61287 0.0
C3305 C 0.1152 0.64279 0.6155 0.0
C3306 C 0.1076 0.62149 0.62003 0.0
C3307 C 0.11689 0.62277 0.62996 0.0
C3308 C 0.12559 0.63402 0.63233 0.0
C3309 C 0.12475 0.64391 0.62519 0.0
C3310 C 0.12885 0.60142 0.6522 0.0
C3311 C 0.11715 0.59588 0.6563 0.0
C3312 C 0.12879 0.6098 0.64331 0.0
C3313 C 0.11702 0.61279 0.63833 0.0
C3314 C 0.10531 0.60678 0.64204 0.0
C3315 C 0.10538 0.59843 0.65092 0.0
H3316 H 0.39517 0.37992 0.08091 0.0
H3317 H 0.42552 0.37165 0.10585 0.0
H3318 H 0.38998 0.3962 0.09617 0.0
H3319 H 0.42028 0.38776 0.12104 0.0
H3320 H 0.39571 0.4035 0.14982 0.0
H3321 H 0.40128 0.389 0.13337 0.0
H3322 H 0.39881 0.41712 0.10841 0.0
H3323 H 0.39336 0.43185 0.12505 0.0
C3324 C 0.40086 0.3817 0.08956 0.0
C3325 C 0.41063 0.37436 0.09224 0.0
C3326 C 0.39787 0.39101 0.09829 0.0
C3327 C 0.40459 0.39311 0.10986 0.0
C3328 C 0.41473 0.38616 0.11231 0.0
C3329 C 0.41773 0.37692 0.10361 0.0
C3330 C 0.39647 0.40668 0.14087 0.0
C3331 C 0.3943 0.41892 0.1388 0.0
C3332 C 0.39966 0.39835 0.13143 0.0
C3333 C 0.40069 0.40199 0.11965 0.0
C3334 C 0.39808 0.41407 0.11742 0.0
C3335 C 0.39494 0.42247 0.12693 0.0
H3336 H 0.55206 0.35679 0.21265 0.0
H3337 H 0.53299 0.3711 0.18227 0.0
H3338 H 0.56965 0.35228 0.20004 0.0
H3339 H 0.5504 0.36624 0.16965 0.0
H3340 H 0.5788 0.34591 0.14774 0.0
H3341 H 0.56056 0.3479 0.16041 0.0
H3342 H 0.5872 0.36555 0.19045 0.0
H3343 H 0.60541 0.36347 0.17782 0.0
C3344 C 0.55159 0.35897 0.2033 0.0
C3345 C 0.5411 0.36439 0.19852 0.0
C3346 C 0.56165 0.35633 0.19608 0.0
C3347 C 0.5614 0.35892 0.18387 0.0
C3348 C 0.55077 0.36399 0.17898 0.0
C3349 C 0.54077 0.36675 0.18623 0.0
C3350 C 0.58075 0.35006 0.1571 0.0
C3351 C 0.5935 0.35457 0.1618 0.0
C3352 C 0.57032 0.35128 0.16431 0.0
C3353 C 0.57246 0.3569 0.17641 0.0
C3354 C 0.58526 0.36109 0.1812 0.0
C3355 C 0.59566 0.35999 0.17395 0.0
H3356 H 0.94976 0.69273 0.71807 0.0
H3357 H 0.97143 0.66692 0.69834 0.0
H3358 H 0.93962 0.69726 0.6989 0.0
H3359 H 0.96181 0.67195 0.67918 0.0
H3360 H 0.92763 0.66924 0.65037 0.0
H3361 H 0.94075 0.66695 0.66867 0.0
H3362 H 0.94245 0.70671 0.68006 0.0
H3363 H 0.9288 0.70889 0.66185 0.0
C3364 C 0.95247 0.68812 0.70964 0.0
C3365 C 0.96131 0.67935 0.70978 0.0
C3366 C 0.94678 0.69085 0.69863 0.0
C3367 C 0.94982 0.6849 0.68748 0.0
C3368 C 0.9591 0.67656 0.6876 0.0
C3369 C 0.96474 0.67379 0.69861 0.0
C3370 C 0.9308 0.67751 0.65678 0.0
C3371 C 0.92703 0.68921 0.65474 0.0
C3372 C 0.93848 0.67623 0.66721 0.0
C3373 C 0.94265 0.68664 0.67588 0.0
C3374 C 0.93927 0.69847 0.67364 0.0
C3375 C 0.93156 0.69975 0.66316 0.0
H3376 H 0.62293 0.38465 0.57776 0.0
H3377 H 0.64046 0.36165 0.60206 0.0
H3378 H 0.62565 0.40209 0.59388 0.0
H3379 H 0.64305 0.37911 0.61825 0.0
H3380 H 0.63132 0.40849 0.64732 0.0
H3381 H 0.62948 0.39102 0.63122 0.0
H3382 H 0.64284 0.41695 0.60573 0.0
H3383 H 0.64434 0.43447 0.62177 0.0
C3384 C 0.6275 0.38335 0.5865 0.0
C3385 C 0.63152 0.37174 0.58859 0.0
C3386 C 0.62904 0.39335 0.59574 0.0
C3387 C 0.63459 0.39199 0.60733 0.0
C3388 C 0.6386 0.3804 0.60945 0.0
C3389 C 0.6371 0.37039 0.60018 0.0
C3390 C 0.6338 0.41046 0.63826 0.0
C3391 C 0.63792 0.42287 0.6358 0.0
C3392 C 0.63288 0.40044 0.62907 0.0
C3393 C 0.636 0.4026 0.6172 0.0
C3394 C 0.64024 0.41499 0.61476 0.0
C3395 C 0.64122 0.42501 0.62397 0.0
H3396 H 0.45664 0.64717 0.82003 0.0
H3397 H 0.42494 0.65337 0.79546 0.0
H3398 H 0.44292 0.64893 0.83706 0.0
H3399 H 0.41148 0.65576 0.81253 0.0
H3400 H 0.38656 0.64186 0.8425 0.0
H3401 H 0.40064 0.64211 0.82575 0.0
H3402 H 0.43191 0.66323 0.84974 0.0
H3403 H 0.41791 0.66249 0.86669 0.0
C3404 C 0.44678 0.649 0.81827 0.0
C3405 C 0.44188 0.65005 0.80635 0.0
C3406 C 0.43897 0.65017 0.82806 0.0
C3407 C 0.42607 0.65243 0.82616 0.0
C3408 C 0.42131 0.65384 0.8143 0.0
C3409 C 0.4291 0.65263 0.80452 0.0
C3410 C 0.39646 0.6465 0.84423 0.0
C3411 C 0.40114 0.65206 0.85596 0.0
C3412 C 0.4045 0.64679 0.83458 0.0
C3413 C 0.41742 0.6527 0.83639 0.0
C3414 C 0.42205 0.65848 0.84807 0.0
C3415 C 0.41399 0.65818 0.85775 0.0
H3416 H 0.0561 0.36156 0.30315 0.0
H3417 H 0.02857 0.33397 0.31722 0.0
H3418 H 0.07295 0.35732 0.31763 0.0
H3419 H 0.04556 0.32952 0.33168 0.0
H3420 H 0.07484 0.33987 0.36596 0.0
H3421 H 0.05775 0.3396 0.34986 0.0
H3422 H 0.08662 0.34267 0.3234 0.0
H3423 H 0.10366 0.34334 0.3396 0.0
C3424 C 0.05372 0.35437 0.30917 0.0
C3425 C 0.04099 0.34811 0.30904 0.0
C3426 C 0.0634 0.3519 0.31748 0.0
C3427 C 0.06065 0.34305 0.32584 0.0
C3428 C 0.04799 0.33652 0.32549 0.0
C3429 C 0.03826 0.33905 0.3172 0.0
C3430 C 0.07747 0.34019 0.35665 0.0
C3431 C 0.09055 0.34175 0.35402 0.0
C3432 C 0.06768 0.34003 0.3474 0.0
C3433 C 0.0708 0.34131 0.33533 0.0
C3434 C 0.08388 0.34199 0.33263 0.0
C3435 C 0.09364 0.34228 0.34188 0.0
H3436 H 0.36427 0.63431 0.43185 0.0
H3437 H 0.34545 0.66027 0.41201 0.0
H3438 H 0.36287 0.61975 0.41337 0.0
H3439 H 0.34425 0.64574 0.39346 0.0
H3440 H 0.35727 0.62184 0.36051 0.0
H3441 H 0.35883 0.63672 0.3789 0.0
H3442 H 0.34584 0.60617 0.39976 0.0
H3443 H 0.34455 0.5913 0.38147 0.0
C3444 C 0.35973 0.63688 0.42358 0.0
C3445 C 0.35491 0.64845 0.42345 0.0
C3446 C 0.35896 0.62854 0.41298 0.0
C3447 C 0.35342 0.63159 0.40197 0.0
C3448 C 0.34871 0.6432 0.40178 0.0
C3449 C 0.34941 0.65152 0.41241 0.0
C3450 C 0.35483 0.61832 0.36905 0.0
C3451 C 0.35078 0.60541 0.36956 0.0
C3452 C 0.35561 0.62684 0.37954 0.0
C3453 C 0.35247 0.62261 0.39077 0.0
C3454 C 0.34845 0.6097 0.39127 0.0
C3455 C 0.34758 0.60121 0.38078 0.0
H3456 H 0.11754 0.31416 0.03289 0.0
H3457 H 0.08729 0.33459 0.02043 0.0
H3458 H 0.11528 0.32252 0.05383 0.0
H3459 H 0.0855 0.34345 0.04124 0.0
H3460 H 0.07993 0.35342 0.08077 0.0
H3461 H 0.07945 0.34025 0.0614 0.0
H3462 H 0.12119 0.34259 0.06534 0.0
H3463 H 0.12158 0.35517 0.08485 0.0
C3464 C 0.11028 0.3203 0.03462 0.0
C3465 C 0.10271 0.32382 0.02494 0.0
C3466 C 0.10909 0.32522 0.04662 0.0
C3467 C 0.10032 0.33381 0.04924 0.0
C3468 C 0.0923 0.33682 0.03962 0.0
C3469 C 0.09345 0.33186 0.02763 0.0
C3470 C 0.08896 0.35088 0.0776 0.0
C3471 C 0.10081 0.35548 0.08428 0.0
C3472 C 0.08871 0.34345 0.06644 0.0
C3473 C 0.10029 0.34043 0.06173 0.0
C3474 C 0.11206 0.34459 0.06869 0.0
C3475 C 0.1123 0.35198 0.07982 0.0
H3476 H 0.99261 0.89428 0.31613 0.0
H3477 H 0.95812 0.90863 0.30345 0.0
H3478 H 0.98468 0.89429 0.33663 0.0
H3479 H 0.95031 0.90873 0.3237 0.0
H3480 H 0.93186 0.89376 0.35533 0.0
H3481 H 0.94196 0.89242 0.33605 0.0
H3482 H 0.97899 0.90823 0.35462 0.0
H3483 H 0.96878 0.90931 0.37411 0.0
C3484 C 0.98343 0.89757 0.31777 0.0
C3485 C 0.97587 0.90124 0.30816 0.0
C3486 C 0.9789 0.89756 0.32947 0.0
C3487 C 0.96674 0.90125 0.33172 0.0
C3488 C 0.95953 0.90547 0.3222 0.0
C3489 C 0.96402 0.90545 0.31059 0.0
C3490 C 0.94219 0.89679 0.35531 0.0
C3491 C 0.94953 0.90177 0.36615 0.0
C3492 C 0.94797 0.8961 0.34427 0.0
C3493 C 0.96122 0.9005 0.34377 0.0
C3494 C 0.96876 0.90479 0.35472 0.0
C3495 C 0.96294 0.90541 0.36585 0.0
H3496 H 0.38177 0.67377 0.527 0.0
H3497 H 0.36823 0.70183 0.55189 0.0
H3498 H 0.38596 0.66158 0.54382 0.0
H3499 H 0.37261 0.68963 0.56879 0.0
H3500 H 0.39375 0.669 0.59724 0.0
H3501 H 0.39063 0.68215 0.58076 0.0
H3502 H 0.37269 0.64921 0.55734 0.0
H3503 H 0.37589 0.63612 0.57374 0.0
C3504 C 0.37962 0.67732 0.53606 0.0
C3505 C 0.37451 0.68873 0.53805 0.0
C3506 C 0.38206 0.67033 0.54571 0.0
C3507 C 0.37952 0.67458 0.55763 0.0
C3508 C 0.37476 0.68616 0.55972 0.0
C3509 C 0.37227 0.69315 0.55003 0.0
C3510 C 0.38918 0.66459 0.58855 0.0
C3511 C 0.38511 0.65152 0.58672 0.0
C3512 C 0.38732 0.67212 0.57915 0.0
C3513 C 0.38146 0.66672 0.56773 0.0
C3514 C 0.37741 0.65365 0.56596 0.0
C3515 C 0.37918 0.64616 0.57536 0.0
H3516 H 0.53755 0.11559 0.80353 0.0
H3517 H 0.56905 0.14645 0.80722 0.0
H3518 H 0.54349 0.1107 0.82396 0.0
H3519 H 0.57537 0.14119 0.82744 0.0
H3520 H 0.57802 0.13403 0.86739 0.0
H3521 H 0.56953 0.14058 0.84829 0.0
H3522 H 0.56087 0.10157 0.83326 0.0
H3523 H 0.56906 0.09509 0.85237 0.0
C3524 C 0.54566 0.12142 0.80873 0.0
C3525 C 0.55287 0.13136 0.80367 0.0
C3526 C 0.54917 0.11852 0.82041 0.0
C3527 C 0.56 0.12546 0.82731 0.0
C3528 C 0.56694 0.13568 0.82242 0.0
C3529 C 0.56341 0.1386 0.81076 0.0
C3530 C 0.5742 0.12688 0.86002 0.0
C3531 C 0.57418 0.11404 0.86133 0.0
C3532 C 0.5694 0.13063 0.84906 0.0
C3533 C 0.56449 0.12161 0.83923 0.0
C3534 C 0.56435 0.10877 0.84068 0.0
C3535 C 0.56913 0.10505 0.8516 0.0
H3536 H 0.10704 0.66664 0.49254 0.0
H3537 H 0.07596 0.63823 0.49986 0.0
H3538 H 0.1051 0.65803 0.47113 0.0
H3539 H 0.07414 0.62958 0.47854 0.0
H3540 H 0.08856 0.60781 0.44513 0.0
H3541 H 0.08825 0.61798 0.46579 0.0
H3542 H 0.0905 0.65426 0.45194 0.0
H3543 H 0.09086 0.64403 0.43121 0.0
C3544 C 0.09965 0.65871 0.48955 0.0
C3545 C 0.09177 0.65303 0.49795 0.0
C3546 C 0.09855 0.65376 0.47729 0.0
C3547 C 0.08957 0.64303 0.47318 0.0
C3548 C 0.08133 0.6377 0.48147 0.0
C3549 C 0.08239 0.64266 0.49369 0.0
C3550 C 0.08889 0.61794 0.4465 0.0
C3551 C 0.08969 0.62511 0.43659 0.0
C3552 C 0.08865 0.62377 0.45832 0.0
C3553 C 0.0893 0.63693 0.4605 0.0
C3554 C 0.09006 0.64412 0.45055 0.0
C3555 C 0.09019 0.63825 0.43869 0.0
H3556 H 0.55777 0.90172 0.71169 0.0
H3557 H 0.54314 0.86237 0.70173 0.0
H3558 H 0.57002 0.90183 0.69359 0.0
H3559 H 0.55531 0.86256 0.68351 0.0
H3560 H 0.5726 0.87138 0.64688 0.0
H3561 H 0.55796 0.87168 0.66347 0.0
H3562 H 0.58925 0.89197 0.68794 0.0
H3563 H 0.60375 0.89169 0.67146 0.0
C3564 C 0.55711 0.89311 0.70561 0.0
C3565 C 0.54959 0.882 0.70827 0.0
C3566 C 0.56412 0.89318 0.69523 0.0
C3567 C 0.56376 0.88216 0.6872 0.0
C3568 C 0.55573 0.87121 0.68949 0.0
C3569 C 0.54873 0.87112 0.69993 0.0
C3570 C 0.57631 0.8759 0.65581 0.0
C3571 C 0.58931 0.88154 0.65791 0.0
C3572 C 0.56795 0.87604 0.6653 0.0
C3573 C 0.57242 0.88195 0.67699 0.0
C3574 C 0.58543 0.88754 0.679 0.0
C3575 C 0.59377 0.8873 0.66959 0.0
H3576 H 0.4486 0.36706 0.97457 0.0
H3577 H 0.41636 0.33743 0.96502 0.0
H3578 H 0.4478 0.37237 0.95365 0.0
H3579 H 0.41591 0.34239 0.944 0.0
H3580 H 0.4068 0.36715 0.91392 0.0
H3581 H 0.4093 0.35958 0.93383 0.0
H3582 H 0.45096 0.36566 0.93242 0.0
H3583 H 0.4484 0.37347 0.91249 0.0
C3584 C 0.44143 0.36159 0.96798 0.0
C3585 C 0.43245 0.35191 0.97152 0.0
C3586 C 0.44107 0.36454 0.95594 0.0
C3587 C 0.43171 0.35789 0.94716 0.0
C3588 C 0.42311 0.34784 0.95058 0.0
C3589 C 0.42347 0.34489 0.96261 0.0
C3590 C 0.41648 0.36678 0.91784 0.0
C3591 C 0.42738 0.3709 0.91168 0.0
C3592 C 0.41793 0.36236 0.92921 0.0
C3593 C 0.43033 0.36195 0.93472 0.0
C3594 C 0.44127 0.36594 0.92847 0.0
C3595 C 0.43981 0.37036 0.91704 0.0
H3596 H 0.99445 0.14073 0.18584 0.0
H3597 H 0.96497 0.15312 0.2082 0.0
H3598 H 0.98018 0.14105 0.16762 0.0
H3599 H 0.95093 0.15372 0.18999 0.0
H3600 H 0.93092 0.16017 0.15404 0.0
H3601 H 0.94818 0.16393 0.17057 0.0
H3602 H 0.95936 0.12749 0.15983 0.0
H3603 H 0.94221 0.1238 0.14341 0.0
C3604 C 0.98499 0.14361 0.18688 0.0
C3605 C 0.98084 0.14678 0.19853 0.0
C3606 C 0.97685 0.14385 0.17644 0.0
C3607 C 0.96442 0.14738 0.17738 0.0
C3608 C 0.96051 0.15113 0.18896 0.0
C3609 C 0.9686 0.15079 0.19941 0.0
C3610 C 0.93727 0.15312 0.1551 0.0
C3611 C 0.93523 0.14168 0.14753 0.0
C3612 C 0.94706 0.15522 0.16458 0.0
C3613 C 0.95509 0.14599 0.16651 0.0
C3614 C 0.95343 0.13484 0.15852 0.0
C3615 C 0.94357 0.13268 0.14917 0.0
H3616 H 0.07078 0.11837 0.28422 0.0
H3617 H 0.04712 0.09123 0.30272 0.0
H3618 H 0.09021 0.11049 0.29182 0.0
H3619 H 0.06655 0.08376 0.31078 0.0
H3620 H 0.10325 0.06964 0.32207 0.0
H3621 H 0.08566 0.07352 0.30784 0.0
H3622 H 0.10093 0.11315 0.31188 0.0
H3623 H 0.11849 0.10918 0.32573 0.0
C3624 C 0.06969 0.11056 0.28971 0.0
C3625 C 0.05739 0.10557 0.29302 0.0
C3626 C 0.08085 0.10612 0.29417 0.0
C3627 C 0.07998 0.09662 0.30207 0.0
C3628 C 0.06761 0.09104 0.30468 0.0
C3629 C 0.05646 0.09545 0.30019 0.0
C3630 C 0.10299 0.07909 0.31961 0.0
C3631 C 0.11211 0.08913 0.32508 0.0
C3632 C 0.09288 0.08134 0.31156 0.0
C3633 C 0.0918 0.09367 0.30879 0.0
C3634 C 0.10149 0.10353 0.31367 0.0
C3635 C 0.1115 0.10128 0.3217 0.0
H3636 H 0.09392 0.76768 0.57888 0.0
H3637 H 0.11518 0.7513 0.6065 0.0
H3638 H 0.09505 0.78707 0.59257 0.0
H3639 H 0.11605 0.77058 0.62019 0.0
H3640 H 0.10076 0.80088 0.6456 0.0
H3641 H 0.10044 0.7819 0.63147 0.0
H3642 H 0.11108 0.80491 0.60281 0.0
H3643 H 0.11135 0.8239 0.61694 0.0
C3644 C 0.09895 0.76824 0.58781 0.0
C3645 C 0.10438 0.75786 0.59159 0.0
C3646 C 0.09957 0.77935 0.59565 0.0
C3647 C 0.10556 0.78032 0.60749 0.0
C3648 C 0.11116 0.77004 0.61121 0.0
C3649 C 0.11063 0.75898 0.60335 0.0
C3650 C 0.10305 0.80186 0.63628 0.0
C3651 C 0.10612 0.81384 0.63239 0.0
C3652 C 0.10293 0.79101 0.62821 0.0
C3653 C 0.10577 0.79191 0.61603 0.0
C3654 C 0.10876 0.80392 0.61211 0.0
C3655 C 0.10898 0.81479 0.62022 0.0
H3656 H 0.45705 0.89616 0.80796 0.0
H3657 H 0.43797 0.91268 0.77907 0.0
H3658 H 0.44157 0.90282 0.82188 0.0
H3659 H 0.42282 0.92 0.79328 0.0
H3660 H 0.38986 0.91923 0.8199 0.0
H3661 H 0.40479 0.9129 0.80494 0.0
H3662 H 0.4366 0.92155 0.83262 0.0
H3663 H 0.42162 0.92743 0.84755 0.0
C3664 C 0.44951 0.90117 0.80453 0.0
C3665 C 0.44876 0.90381 0.79233 0.0
C3666 C 0.44073 0.90518 0.8126 0.0
C3667 C 0.43099 0.91207 0.80876 0.0
C3668 C 0.43014 0.91465 0.79654 0.0
C3669 C 0.43892 0.91057 0.78842 0.0
C3670 C 0.40006 0.91985 0.82273 0.0
C3671 C 0.40461 0.92377 0.83489 0.0
C3672 C 0.40863 0.91627 0.81415 0.0
C3673 C 0.4219 0.91657 0.81758 0.0
C3674 C 0.42642 0.9209 0.82969 0.0
C3675 C 0.41787 0.92438 0.83824 0.0
H3676 H 0.43456 0.27104 0.07278 0.0
H3677 H 0.41439 0.24619 0.04259 0.0
H3678 H 0.43423 0.25341 0.085 0.0
H3679 H 0.41439 0.22842 0.05475 0.0
H3680 H 0.40436 0.20317 0.08549 0.0
H3681 H 0.40443 0.22053 0.07282 0.0
H3682 H 0.44416 0.23416 0.08583 0.0
H3683 H 0.44402 0.21689 0.09858 0.0
C3684 C 0.43002 0.26181 0.06875 0.0
C3685 C 0.42446 0.26004 0.05671 0.0
C3686 C 0.42996 0.25167 0.07572 0.0
C3687 C 0.42431 0.2395 0.07085 0.0
C3688 C 0.41873 0.2377 0.05881 0.0
C3689 C 0.41884 0.24785 0.0518 0.0
C3690 C 0.4131 0.20987 0.08563 0.0
C3691 C 0.42419 0.20872 0.09305 0.0
C3692 C 0.41317 0.21977 0.07832 0.0
C3693 C 0.42429 0.22875 0.07833 0.0
C3694 C 0.43538 0.22751 0.08572 0.0
C3695 C 0.43533 0.21759 0.09297 0.0
H3696 H 0.08491 0.93998 0.23349 0.0
H3697 H 0.07019 0.90523 0.2112 0.0
H3698 H 0.10364 0.94275 0.22112 0.0
H3699 H 0.08857 0.90814 0.19875 0.0
H3700 H 0.12844 0.90939 0.18593 0.0
H3701 H 0.1119 0.90766 0.20054 0.0
H3702 H 0.10862 0.94714 0.19994 0.0
H3703 H 0.12536 0.94888 0.18528 0.0
C3704 C 0.0857 0.93293 0.22599 0.0
C3705 C 0.07605 0.92241 0.22329 0.0
C3706 C 0.09635 0.93457 0.21886 0.0
C3707 C 0.09762 0.92564 0.20899 0.0
C3708 C 0.08799 0.91511 0.20638 0.0
C3709 C 0.07737 0.91351 0.21344 0.0
C3710 C 0.12423 0.91772 0.18895 0.0
C3711 C 0.12803 0.92922 0.18432 0.0
C3712 C 0.11474 0.91673 0.19731 0.0
C3713 C 0.10879 0.92721 0.20125 0.0
C3714 C 0.11306 0.9389 0.19711 0.0
C3715 C 0.12262 0.9399 0.18872 0.0
H3716 H 0.33769 0.76789 0.43273 0.0
H3717 H 0.37225 0.77933 0.45681 0.0
H3718 H 0.33998 0.78859 0.42544 0.0
H3719 H 0.37416 0.80027 0.44999 0.0
H3720 H 0.38392 0.82846 0.42214 0.0
H3721 H 0.38037 0.80912 0.43191 0.0
H3722 H 0.33911 0.8107 0.4298 0.0
H3723 H 0.34272 0.82993 0.41967 0.0
C3724 C 0.3457 0.77487 0.43658 0.0
C3725 C 0.35489 0.77185 0.44524 0.0
C3726 C 0.34692 0.78682 0.43251 0.0
C3727 C 0.35733 0.7961 0.43703 0.0
C3728 C 0.36615 0.79329 0.44614 0.0
C3729 C 0.36496 0.78131 0.45018 0.0
C3730 C 0.3741 0.8247 0.42384 0.0
C3731 C 0.36361 0.83065 0.42011 0.0
C3732 C 0.37206 0.81367 0.42953 0.0
C3733 C 0.35945 0.80833 0.43169 0.0
C3734 C 0.34894 0.81446 0.42815 0.0
C3735 C 0.351 0.82551 0.4224 0.0
H3736 H 0.45893 0.12477 0.69746 0.0
H3737 H 0.43853 0.10655 0.72528 0.0
H3738 H 0.43988 0.11907 0.68337 0.0
H3739 H 0.41965 0.10015 0.71087 0.0
H3740 H 0.3837 0.10242 0.68523 0.0
H3741 H 0.40236 0.108 0.70007 0.0
H3742 H 0.42803 0.10126 0.67156 0.0
H3743 H 0.4094 0.09615 0.65673 0.0
C3744 C 0.45037 0.11958 0.70061 0.0
C3745 C 0.4503 0.11618 0.71256 0.0
C3746 C 0.43948 0.11612 0.69243 0.0
C3747 C 0.42822 0.10904 0.69592 0.0
C3748 C 0.4281 0.10568 0.70789 0.0
C3749 C 0.439 0.10922 0.71611 0.0
C3750 C 0.39334 0.10207 0.68217 0.0
C3751 C 0.39514 0.09889 0.66983 0.0
C3752 C 0.40404 0.10522 0.69069 0.0
C3753 C 0.41674 0.10518 0.68703 0.0
C3754 C 0.41844 0.10167 0.67469 0.0
C3755 C 0.40776 0.09863 0.6662 0.0
H3756 H 0.11507 0.22569 0.92422 0.0
H3757 H 0.14528 0.21889 0.95008 0.0
H3758 H 0.11828 0.207 0.91121 0.0
H3759 H 0.14867 0.20016 0.93691 0.0
H3760 H 0.14088 0.1603 0.91499 0.0
H3761 H 0.1389 0.17896 0.92891 0.0
H3762 H 0.13387 0.20003 0.8981 0.0
H3763 H 0.13557 0.18138 0.88431 0.0
C3764 C 0.12249 0.22024 0.92707 0.0
C3765 C 0.13 0.22384 0.93812 0.0
C3766 C 0.12437 0.20953 0.91959 0.0
C3767 C 0.13386 0.20214 0.92292 0.0
C3768 C 0.14122 0.20558 0.93411 0.0
C3769 C 0.13928 0.21631 0.94164 0.0
C3770 C 0.1395 0.16898 0.91124 0.0
C3771 C 0.13822 0.16936 0.89857 0.0
C3772 C 0.13837 0.17967 0.9192 0.0
C3773 C 0.13602 0.19097 0.91463 0.0
C3774 C 0.13531 0.19142 0.90195 0.0
C3775 C 0.13635 0.18075 0.89403 0.0
H3776 H 0.33379 0.10264 0.12146 0.0
H3777 H 0.36234 0.08583 0.10104 0.0
H3778 H 0.3461 0.12347 0.12071 0.0
H3779 H 0.37448 0.10657 0.10019 0.0
H3780 H 0.391 0.14624 0.09498 0.0
H3781 H 0.37478 0.12733 0.09253 0.0
H3782 H 0.36706 0.13392 0.1304 0.0
H3783 H 0.38303 0.15285 0.13274 0.0
C3784 C 0.34263 0.10338 0.11674 0.0
C3785 C 0.3471 0.09252 0.11138 0.0
C3786 C 0.34966 0.11531 0.11628 0.0
C3787 C 0.36129 0.11668 0.11042 0.0
C3788 C 0.36546 0.10589 0.10461 0.0
C3789 C 0.35847 0.09396 0.10511 0.0
C3790 C 0.3856 0.14378 0.10268 0.0
C3791 C 0.38834 0.15094 0.11407 0.0
C3792 C 0.37641 0.13291 0.10131 0.0
C3793 C 0.3697 0.12907 0.11129 0.0
C3794 C 0.37196 0.13665 0.1225 0.0
C3795 C 0.38119 0.14744 0.12388 0.0
H3796 H 0.79321 0.42233 0.86686 0.0
H3797 H 0.80956 0.4395 0.90233 0.0
H3798 H 0.80301 0.40342 0.87005 0.0
H3799 H 0.81951 0.42072 0.90536 0.0
H3800 H 0.85109 0.3954 0.89493 0.0
H3801 H 0.83779 0.41236 0.89483 0.0
H3802 H 0.80392 0.3852 0.88319 0.0
H3803 H 0.81737 0.36813 0.88338 0.0
C3804 C 0.79865 0.42198 0.87544 0.0
C3805 C 0.80077 0.43252 0.88426 0.0
C3806 C 0.80426 0.41115 0.87725 0.0
C3807 C 0.81215 0.41066 0.88789 0.0
C3808 C 0.81365 0.42091 0.89699 0.0
C3809 C 0.80799 0.43168 0.89522 0.0
C3810 C 0.84077 0.39306 0.89253 0.0
C3811 C 0.83523 0.3805 0.88915 0.0
C3812 C 0.83314 0.40274 0.89252 0.0
C3813 C 0.81981 0.40011 0.889 0.0
C3814 C 0.81418 0.38749 0.8859 0.0
C3815 C 0.82182 0.37775 0.88609 0.0
H3816 H 0.76352 0.55564 0.13654 0.0
H3817 H 0.76966 0.53819 0.16951 0.0
H3818 H 0.78632 0.56438 0.13783 0.0
H3819 H 0.79275 0.54669 0.17062 0.0
H3820 H 0.82831 0.5793 0.17537 0.0
H3821 H 0.80649 0.56743 0.17462 0.0
H3822 H 0.80758 0.55811 0.13584 0.0
H3823 H 0.82921 0.57006 0.13659 0.0
C3824 C 0.76977 0.55363 0.14406 0.0
C3825 C 0.76476 0.5463 0.15298 0.0
C3826 C 0.78289 0.55852 0.14472 0.0
C3827 C 0.79139 0.55619 0.15431 0.0
C3828 C 0.78644 0.54871 0.16317 0.0
C3829 C 0.77325 0.54376 0.16247 0.0
C3830 C 0.82395 0.57451 0.16674 0.0
C3831 C 0.83036 0.57575 0.15601 0.0
C3832 C 0.81147 0.5677 0.16631 0.0
C3833 C 0.80522 0.56199 0.15514 0.0
C3834 C 0.81199 0.56265 0.14454 0.0
C3835 C 0.82439 0.56947 0.14497 0.0
H3836 H 0.68701 0.55747 0.39426 0.0
H3837 H 0.71044 0.57758 0.36953 0.0
H3838 H 0.67434 0.57482 0.39687 0.0
H3839 H 0.69783 0.5951 0.37236 0.0
H3840 H 0.6775 0.62816 0.38907 0.0
H3841 H 0.69196 0.61195 0.38813 0.0
H3842 H 0.65863 0.58301 0.38283 0.0
H3843 H 0.64428 0.59913 0.38374 0.0
C3844 C 0.68948 0.56559 0.38938 0.0
C3845 C 0.69963 0.56602 0.38152 0.0
C3846 C 0.68223 0.57555 0.39091 0.0
C3847 C 0.685 0.58626 0.38472 0.0
C3848 C 0.69552 0.58699 0.3773 0.0
C3849 C 0.70275 0.57696 0.3757 0.0
C3850 C 0.6733 0.61833 0.38777 0.0
C3851 C 0.65977 0.61486 0.38653 0.0
C3852 C 0.68156 0.60907 0.38717 0.0
C3853 C 0.67642 0.59622 0.38548 0.0
C3854 C 0.66289 0.59283 0.38432 0.0
C3855 C 0.65467 0.60205 0.38478 0.0
H3856 H 0.25371 0.99246 0.15926 0.0
H3857 H 0.22719 0.01027 0.13753 0.0
H3858 H 0.23564 0.97777 0.16464 0.0
H3859 H 0.20903 0.99558 0.14307 0.0
H3860 H 0.17873 0.9719 0.16389 0.0
H3861 H 0.19638 0.98845 0.1606 0.0
H3862 H 0.22121 0.96011 0.15268 0.0
H3863 H 0.20368 0.9437 0.15597 0.0
C3864 C 0.24401 0.99326 0.15564 0.0
C3865 C 0.24193 1.00242 0.14781 0.0
C3866 C 0.23366 0.98485 0.15875 0.0
C3867 C 0.22094 0.98542 0.15416 0.0
C3868 C 0.21873 0.99495 0.1468 0.0
C3869 C 0.22913 1.00337 0.14364 0.0
C3870 C 0.188 0.96926 0.16153 0.0
C3871 C 0.1899 0.95654 0.16023 0.0
C3872 C 0.19806 0.97871 0.15958 0.0
C3873 C 0.2102 0.97558 0.15645 0.0
C3874 C 0.21205 0.96285 0.15527 0.0
C3875 C 0.202 0.95345 0.15709 0.0
H3876 H 0.18028 0.934 0.65682 0.0
H3877 H 0.153 0.94304 0.62925 0.0
H3878 H 0.16682 0.9138 0.65776 0.0
H3879 H 0.1395 0.92295 0.63033 0.0
H3880 H 0.11142 0.8946 0.64809 0.0
H3881 H 0.12582 0.9138 0.64561 0.0
H3882 H 0.15855 0.89314 0.64569 0.0
H3883 H 0.1441 0.87389 0.64841 0.0
C3884 C 0.17152 0.93162 0.65084 0.0
C3885 C 0.16767 0.94022 0.64304 0.0
C3886 C 0.1638 0.92004 0.65139 0.0
C3887 C 0.15204 0.91682 0.64419 0.0
C3888 C 0.14839 0.92525 0.63615 0.0
C3889 C 0.15612 0.93678 0.63556 0.0
C3890 C 0.12169 0.89416 0.64762 0.0
C3891 C 0.12664 0.88275 0.64851 0.0
C3892 C 0.12993 0.90513 0.64607 0.0
C3893 C 0.14332 0.90499 0.64543 0.0
C3894 C 0.14828 0.89356 0.64624 0.0
C3895 C 0.14001 0.88253 0.64769 0.0
H3896 H 0.78169 0.47592 0.34312 0.0
H3897 H 0.77703 0.45175 0.37193 0.0
H3898 H 0.80168 0.46744 0.33816 0.0
H3899 H 0.79679 0.44335 0.36701 0.0
H3900 H 0.82262 0.41992 0.34717 0.0
H3901 H 0.80309 0.4296 0.35009 0.0
H3902 H 0.82444 0.46609 0.34639 0.0
H3903 H 0.84411 0.45629 0.34336 0.0
C3904 C 0.785 0.46892 0.34847 0.0
C3905 C 0.77767 0.46435 0.35778 0.0
C3906 C 0.79642 0.46405 0.34562 0.0
C3907 C 0.80067 0.45454 0.35203 0.0
C3908 C 0.79359 0.4504 0.36166 0.0
C3909 C 0.78226 0.45524 0.36449 0.0
C3910 C 0.82313 0.43 0.34689 0.0
C3911 C 0.83492 0.43738 0.34522 0.0
C3912 C 0.81196 0.43556 0.3486 0.0
C3913 C 0.81228 0.44865 0.34873 0.0
C3914 C 0.82389 0.45598 0.34635 0.0
C3915 C 0.83513 0.45038 0.3446 0.0
H3916 H 0.69921 0.50425 0.83026 0.0
H3917 H 0.69368 0.50335 0.86857 0.0
H3918 H 0.68299 0.51859 0.82882 0.0
H3919 H 0.67739 0.51749 0.86708 0.0
H3920 H 0.66653 0.55717 0.86283 0.0
H3921 H 0.67993 0.54036 0.86362 0.0
H3922 H 0.659 0.52069 0.83097 0.0
H3923 H 0.64544 0.5376 0.83023 0.0
C3924 C 0.6944 0.50698 0.83832 0.0
C3925 C 0.69778 0.50272 0.84954 0.0
C3926 C 0.68506 0.5151 0.83747 0.0
C3927 C 0.67901 0.51924 0.84786 0.0
C3928 C 0.68199 0.51456 0.85895 0.0
C3929 C 0.69123 0.50636 0.85977 0.0
C3930 C 0.66474 0.54923 0.85586 0.0
C3931 C 0.65496 0.54868 0.84649 0.0
C3932 C 0.67235 0.53956 0.85635 0.0
C3933 C 0.67045 0.52917 0.84741 0.0
C3934 C 0.66068 0.52861 0.83797 0.0
C3935 C 0.65291 0.53825 0.83757 0.0
H3936 H 0.88998 0.65626 0.98369 0.0
H3937 H 0.86505 0.68194 0.97103 0.0
H3938 H 0.89324 0.64894 0.96274 0.0
H3939 H 0.86869 0.67491 0.94996 0.0
H3940 H 0.86379 0.64533 0.91573 0.0
H3941 H 0.86229 0.65597 0.93597 0.0
H3942 H 0.903 0.65464 0.94444 0.0
H3943 H 0.90437 0.64354 0.92435 0.0
C3944 C 0.88525 0.66041 0.97642 0.0
C3945 C 0.87713 0.66958 0.97903 0.0
C3946 C 0.88726 0.65632 0.96439 0.0
C3947 C 0.88122 0.66132 0.95465 0.0
C3948 C 0.87339 0.67078 0.95726 0.0
C3949 C 0.87139 0.67489 0.96932 0.0
C3950 C 0.87243 0.64735 0.9219 0.0
C3951 C 0.88416 0.64345 0.91847 0.0
C3952 C 0.87161 0.65359 0.93346 0.0
C3953 C 0.8825 0.65608 0.94188 0.0
C3954 C 0.89438 0.6527 0.93824 0.0
C3955 C 0.8952 0.64646 0.92667 0.0
H3956 H 0.02167 0.11571 0.69252 0.0
H3957 H 0.05246 0.14667 0.70258 0.0
H3958 H 0.0275 0.11491 0.67147 0.0
H3959 H 0.05869 0.14546 0.68169 0.0
H3960 H 0.06469 0.14448 0.64176 0.0
H3961 H 0.05375 0.14796 0.66056 0.0
H3962 H 0.0452 0.10769 0.66142 0.0
H3963 H 0.05564 0.1043 0.64255 0.0
C3964 C 0.02955 0.12247 0.69022 0.0
C3965 C 0.0367 0.13114 0.69929 0.0
C3966 C 0.03299 0.12193 0.67816 0.0
C3967 C 0.04369 0.13 0.67489 0.0
C3968 C 0.05036 0.13913 0.68383 0.0
C3969 C 0.0469 0.13971 0.69587 0.0
C3970 C 0.0602 0.13641 0.64585 0.0
C3971 C 0.06117 0.12413 0.64078 0.0
C3972 C 0.05405 0.13839 0.65667 0.0
C3973 C 0.04868 0.12811 0.66258 0.0
C3974 C 0.04909 0.11585 0.65711 0.0
C3975 C 0.05522 0.11389 0.64635 0.0
H3976 H 0.59042 0.30457 0.47162 0.0
H3977 H 0.62281 0.33291 0.48482 0.0
H3978 H 0.58829 0.31463 0.45284 0.0
H3979 H 0.62044 0.34313 0.46633 0.0
H3980 H 0.62214 0.35053 0.42687 0.0
H3981 H 0.62378 0.33923 0.44482 0.0
H3982 H 0.58205 0.3342 0.44558 0.0
H3983 H 0.58043 0.34538 0.42744 0.0
C3984 C 0.59709 0.31292 0.4705 0.0
C3985 C 0.60678 0.31794 0.47973 0.0
C3986 C 0.59579 0.31875 0.45981 0.0
C3987 C 0.60422 0.32967 0.45807 0.0
C3988 C 0.61389 0.33465 0.4673 0.0
C3989 C 0.61516 0.32887 0.47797 0.0
C3990 C 0.61332 0.34695 0.43084 0.0
C3991 C 0.60118 0.34886 0.42579 0.0
C3992 C 0.61425 0.34054 0.44116 0.0
C3993 C 0.60305 0.3359 0.4467 0.0
C3994 C 0.59086 0.33758 0.44149 0.0
C3995 C 0.58993 0.34403 0.43113 0.0
H3996 H 0.43201 0.88035 0.21989 0.0
H3997 H 0.47199 0.89543 0.2163 0.0
H3998 H 0.42665 0.88343 0.19877 0.0
H3999 H 0.46649 0.89879 0.19524 0.0
H4000 H 0.4464 0.9181 0.16485 0.0
H4001 H 0.45317 0.91304 0.18509 0.0
H4002 H 0.431 0.87597 0.17732 0.0
H4003 H 0.42423 0.88105 0.15705 0.0
C4004 C 0.43971 0.88416 0.21457 0.0
C4005 C 0.45245 0.88768 0.21986 0.0
C4006 C 0.43661 0.88594 0.20246 0.0
C4007 C 0.44614 0.89138 0.19536 0.0
C4008 C 0.45891 0.89472 0.20055 0.0
C4009 C 0.46204 0.89283 0.21263 0.0
C4010 C 0.44309 0.90883 0.16744 0.0
C4011 C 0.43482 0.89997 0.1594 0.0
C4012 C 0.44701 0.90591 0.17899 0.0
C4013 C 0.44262 0.89411 0.18279 0.0
C4014 C 0.43446 0.88517 0.17467 0.0
C4015 C 0.43065 0.88806 0.16305 0.0
H4016 H 0.87086 0.35566 0.53654 0.0
H4017 H 0.90573 0.37972 0.52986 0.0
H4018 H 0.87318 0.3644 0.55791 0.0
H4019 H 0.90783 0.38873 0.55108 0.0
H4020 H 0.91353 0.39676 0.59198 0.0
H4021 H 0.91218 0.3844 0.57208 0.0
H4022 H 0.87074 0.38465 0.56885 0.0
H4023 H 0.87205 0.39663 0.58885 0.0
C4024 C 0.8791 0.36271 0.53966 0.0
C4025 C 0.88806 0.36706 0.53148 0.0
C4026 C 0.88036 0.3678 0.55187 0.0
C4027 C 0.89065 0.37731 0.55619 0.0
C4028 C 0.89985 0.38134 0.54809 0.0
C4029 C 0.89857 0.37628 0.53589 0.0
C4030 C 0.90411 0.39396 0.58711 0.0
C4031 C 0.89291 0.39775 0.59194 0.0
C4032 C 0.90335 0.38699 0.57566 0.0
C4033 C 0.89137 0.38361 0.56884 0.0
C4034 C 0.88011 0.387 0.5739 0.0
C4035 C 0.88088 0.39399 0.5853 0.0
H4036 H 0.45975 0.12361 0.29847 0.0
H4037 H 0.48999 0.14666 0.32217 0.0
H4038 H 0.44595 0.12207 0.31547 0.0
H4039 H 0.47615 0.14502 0.33929 0.0
H4040 H 0.44033 0.14873 0.3628 0.0
H4041 H 0.45462 0.15153 0.34613 0.0
H4042 H 0.44687 0.11157 0.33478 0.0
H4043 H 0.4327 0.10879 0.35139 0.0
C4044 C 0.4634 0.12845 0.3073 0.0
C4045 C 0.47595 0.13527 0.30899 0.0
C4046 C 0.45554 0.12748 0.31705 0.0
C4047 C 0.46 0.13337 0.32871 0.0
C4048 C 0.47244 0.14042 0.33038 0.0
C4049 C 0.48039 0.14129 0.32062 0.0
C4050 C 0.44173 0.14056 0.35676 0.0
C4051 C 0.43538 0.12853 0.35833 0.0
C4052 C 0.44994 0.14215 0.34727 0.0
C4053 C 0.45177 0.13178 0.33911 0.0
C4054 C 0.44551 0.11977 0.34081 0.0
C4055 C 0.43746 0.11816 0.35035 0.0
H4056 H 0.61878 0.6526 0.02942 0.0
H4057 H 0.58156 0.66601 0.0293 0.0
H4058 H 0.61465 0.6436 0.0484 0.0
H4059 H 0.57755 0.65715 0.04852 0.0
H4060 H 0.58123 0.64657 0.08878 0.0
H4061 H 0.58589 0.65821 0.07114 0.0
H4062 H 0.59851 0.62527 0.05265 0.0
H4063 H 0.59383 0.61373 0.07012 0.0
C4064 C 0.60974 0.65369 0.03347 0.0
C4065 C 0.6004 0.65984 0.02771 0.0
C4066 C 0.6074 0.64856 0.04437 0.0
C4067 C 0.59571 0.64952 0.04985 0.0
C4068 C 0.58667 0.6563 0.04451 0.0
C4069 C 0.58898 0.66138 0.03352 0.0
C4070 C 0.585 0.64186 0.08093 0.0
C4071 C 0.58722 0.62926 0.08079 0.0
C4072 C 0.58762 0.64849 0.07085 0.0
C4073 C 0.59268 0.64268 0.06058 0.0
C4074 C 0.59482 0.63007 0.0605 0.0
C4075 C 0.59207 0.62344 0.07046 0.0
H4076 H 0.04061 0.86478 0.82332 0.0
H4077 H 0.01911 0.89292 0.83954 0.0
H4078 H 0.05092 0.86291 0.84317 0.0
H4079 H 0.02944 0.891 0.85954 0.0
H4080 H 0.06569 0.89701 0.88736 0.0
H4081 H 0.05081 0.89686 0.86956 0.0
H4082 H 0.04844 0.85637 0.8632 0.0
H4083 H 0.0638 0.85662 0.88079 0.0
C4084 C 0.03784 0.87037 0.83117 0.0
C4085 C 0.02903 0.87903 0.82981 0.0
C4086 C 0.04376 0.86928 0.8426 0.0
C4087 C 0.04103 0.8768 0.85299 0.0
C4088 C 0.0319 0.88518 0.85171 0.0
C4089 C 0.02598 0.88629 0.84025 0.0
C4090 C 0.06189 0.88806 0.88223 0.0
C4091 C 0.06609 0.87685 0.88537 0.0
C4092 C 0.05324 0.88795 0.87208 0.0
C4093 C 0.04853 0.87661 0.86484 0.0
C4094 C 0.05207 0.86529 0.86846 0.0
C4095 C 0.06075 0.86541 0.87862 0.0
H4096 H 0.92902 0.91623 0.7409 0.0
H4097 H 0.95657 0.95029 0.74717 0.0
H4098 H 0.91572 0.92632 0.72701 0.0
H4099 H 0.94314 0.96047 0.73338 0.0
H4100 H 0.9271 0.96227 0.6928 0.0
H4101 H 0.93862 0.9568 0.71091 0.0
H4102 H 0.90205 0.94344 0.72487 0.0
H4103 H 0.89052 0.94895 0.70662 0.0
C4104 C 0.93214 0.92594 0.73942 0.0
C4105 C 0.9439 0.93243 0.74503 0.0
C4106 C 0.92445 0.93176 0.73157 0.0
C4107 C 0.92839 0.94419 0.72907 0.0
C4108 C 0.93989 0.95086 0.73508 0.0
C4109 C 0.94753 0.94506 0.74302 0.0
C4110 C 0.92154 0.9585 0.69992 0.0
C4111 C 0.90795 0.95601 0.69835 0.0
C4112 C 0.92812 0.95539 0.71031 0.0
C4113 C 0.92125 0.94959 0.71929 0.0
C4114 C 0.9076 0.9478 0.71805 0.0
C4115 C 0.901 0.95105 0.70769 0.0
H4116 H 0.86575 0.25723 0.43667 0.0
H4117 H 0.90228 0.25788 0.45738 0.0
H4118 H 0.86984 0.23855 0.42394 0.0
H4119 H 0.90616 0.23899 0.44493 0.0
H4120 H 0.91637 0.21664 0.41015 0.0
H4121 H 0.91145 0.23421 0.4239 0.0
H4122 H 0.87193 0.21604 0.42402 0.0
H4123 H 0.87686 0.19851 0.4101 0.0
C4124 C 0.8746 0.25333 0.43856 0.0
C4125 C 0.88372 0.25909 0.44799 0.0
C4126 C 0.87688 0.24255 0.43135 0.0
C4127 C 0.88837 0.23733 0.43337 0.0
C4128 C 0.8973 0.24288 0.44303 0.0
C4129 C 0.895 0.25362 0.45026 0.0
C4130 C 0.90665 0.2164 0.41315 0.0
C4131 C 0.89703 0.20622 0.40908 0.0
C4132 C 0.90384 0.22641 0.42109 0.0
C4133 C 0.89131 0.22649 0.42512 0.0
C4134 C 0.88165 0.21629 0.42102 0.0
C4135 C 0.88449 0.20623 0.41309 0.0
H4136 H 0.57853 0.12379 0.22436 0.0
H4137 H 0.55389 0.08842 0.21359 0.0
H4138 H 0.59682 0.11499 0.21579 0.0
H4139 H 0.57216 0.0797 0.2049 0.0
H4140 H 0.60024 0.08026 0.17332 0.0
H4141 H 0.58318 0.0852 0.18639 0.0
H4142 H 0.61199 0.09848 0.21611 0.0
H4143 H 0.62915 0.09342 0.20288 0.0
C4144 C 0.57709 0.11404 0.22046 0.0
C4145 C 0.56469 0.10687 0.21948 0.0
C4146 C 0.58758 0.10899 0.21555 0.0
C4147 C 0.58588 0.0967 0.20954 0.0
C4148 C 0.57371 0.08927 0.2093 0.0
C4149 C 0.56324 0.09429 0.21424 0.0
C4150 C 0.60288 0.08399 0.18272 0.0
C4151 C 0.61594 0.08647 0.18713 0.0
C4152 C 0.59313 0.08676 0.19023 0.0
C4153 C 0.59624 0.09223 0.20229 0.0
C4154 C 0.60932 0.09432 0.20684 0.0
C4155 C 0.6191 0.09135 0.19934 0.0
H4156 H 0.59205 0.75043 0.93403 0.0
H4157 H 0.62101 0.77131 0.96057 0.0
H4158 H 0.59243 0.76873 0.9227 0.0
H4159 H 0.62112 0.7898 0.94939 0.0
H4160 H 0.62794 0.81487 0.91788 0.0
H4161 H 0.62782 0.79696 0.92986 0.0
H4162 H 0.58601 0.78975 0.92468 0.0
H4163 H 0.58618 0.80753 0.91258 0.0
C4164 C 0.59851 0.75894 0.93744 0.0
C4165 C 0.60653 0.75939 0.94818 0.0
C4166 C 0.59862 0.76948 0.93102 0.0
C4167 C 0.60678 0.78075 0.93515 0.0
C4168 C 0.6148 0.78123 0.94591 0.0
C4169 C 0.61464 0.77068 0.95238 0.0
C4170 C 0.61873 0.80947 0.91933 0.0
C4171 C 0.60705 0.81255 0.91427 0.0
C4172 C 0.61866 0.79926 0.92625 0.0
C4173 C 0.60691 0.7919 0.9282 0.0
C4174 C 0.59524 0.79511 0.92322 0.0
C4175 C 0.59532 0.80533 0.91635 0.0
H4176 H 0.93017 0.09314 0.77377 0.0
H4177 H 0.94452 0.1286 0.79498 0.0
H4178 H 0.91174 0.09041 0.78639 0.0
H4179 H 0.92633 0.12581 0.80771 0.0
H4180 H 0.88618 0.12375 0.82109 0.0
H4181 H 0.90358 0.12602 0.80735 0.0
H4182 H 0.90601 0.08621 0.80647 0.0
H4183 H 0.88827 0.08392 0.81992 0.0
C4184 C 0.92942 0.10031 0.78117 0.0
C4185 C 0.93875 0.11113 0.78332 0.0
C4186 C 0.91888 0.09874 0.78843 0.0
C4187 C 0.91748 0.10791 0.79805 0.0
C4188 C 0.9269 0.11868 0.80022 0.0
C4189 C 0.93736 0.12028 0.79293 0.0
C4190 C 0.89039 0.11548 0.81787 0.0
C4191 C 0.88589 0.10369 0.82156 0.0
C4192 C 0.90043 0.11678 0.81007 0.0
C4193 C 0.90631 0.10632 0.80586 0.0
C4194 C 0.90163 0.09445 0.80942 0.0
C4195 C 0.8915 0.09314 0.81717 0.0
H4196 H 0.6453 0.2426 0.57384 0.0
H4197 H 0.60901 0.24399 0.59053 0.0
H4198 H 0.64819 0.22355 0.58346 0.0
H4199 H 0.61203 0.22517 0.60023 0.0
H4200 H 0.63048 0.20369 0.62837 0.0
H4201 H 0.62783 0.22135 0.61685 0.0
H4202 H 0.63847 0.20054 0.58448 0.0
H4203 H 0.64092 0.18258 0.59603 0.0
C4204 C 0.63784 0.23875 0.57939 0.0
C4205 C 0.62701 0.24495 0.58155 0.0
C4206 C 0.63953 0.22785 0.58492 0.0
C4207 C 0.63045 0.22299 0.59276 0.0
C4208 C 0.61934 0.22886 0.59446 0.0
C4209 C 0.61763 0.23966 0.5889 0.0
C4210 C 0.63215 0.20278 0.61877 0.0
C4211 C 0.63568 0.1916 0.61308 0.0
C4212 C 0.63064 0.21293 0.61217 0.0
C4213 C 0.63273 0.21226 0.59971 0.0
C4214 C 0.63679 0.20131 0.59407 0.0
C4215 C 0.63822 0.19105 0.60069 0.0
H4216 H 0.55122 0.88543 0.31919 0.0
H4217 H 0.56364 0.91784 0.3005 0.0
H4218 H 0.57205 0.88851 0.33095 0.0
H4219 H 0.58474 0.92066 0.31202 0.0
H4220 H 0.61437 0.92949 0.34605 0.0
H4221 H 0.59432 0.9269 0.33291 0.0
H4222 H 0.59465 0.88666 0.32819 0.0
H4223 H 0.61459 0.88926 0.34133 0.0
C4224 C 0.5584 0.89323 0.3176 0.0
C4225 C 0.55574 0.90141 0.30894 0.0
C4226 C 0.57041 0.8949 0.32424 0.0
C4227 C 0.58009 0.90479 0.32239 0.0
C4228 C 0.57746 0.913 0.31372 0.0
C4229 C 0.56542 0.9113 0.30704 0.0
C4230 C 0.61024 0.92012 0.34205 0.0
C4231 C 0.61598 0.90957 0.34483 0.0
C4232 C 0.59876 0.91863 0.33453 0.0
C4233 C 0.5928 0.90655 0.32962 0.0
C4234 C 0.59882 0.89606 0.33205 0.0
C4235 C 0.61026 0.89755 0.33956 0.0
H4236 H 0.85198 0.77988 0.05636 0.0
H4237 H 0.88329 0.76962 0.07885 0.0
H4238 H 0.85401 0.80035 0.06865 0.0
H4239 H 0.88517 0.78988 0.09118 0.0
H4240 H 0.89509 0.83226 0.1011 0.0
H4241 H 0.89228 0.81222 0.08823 0.0
H4242 H 0.85077 0.80942 0.0901 0.0
H4243 H 0.8536 0.82958 0.10298 0.0
C4244 C 0.85929 0.782 0.06391 0.0
C4245 C 0.86747 0.77314 0.06664 0.0
C4246 C 0.86037 0.79366 0.071 0.0
C4247 C 0.86978 0.79673 0.08085 0.0
C4248 C 0.87792 0.78784 0.08357 0.0
C4249 C 0.87676 0.77619 0.07658 0.0
C4250 C 0.88536 0.82738 0.09872 0.0
C4251 C 0.87458 0.83244 0.10306 0.0
C4252 C 0.88375 0.81588 0.09141 0.0
C4253 C 0.87131 0.8092 0.08822 0.0
C4254 C 0.86047 0.81439 0.09235 0.0
C4255 C 0.86209 0.82589 0.09977 0.0
H4256 H 0.67398 0.93193 0.90249 0.0
H4257 H 0.69626 0.91432 0.87569 0.0
H4258 H 0.66047 0.91183 0.90335 0.0
H4259 H 0.68316 0.89408 0.87701 0.0
H4260 H 0.6451 0.86632 0.86925 0.0
H4261 H 0.66141 0.88484 0.87027 0.0
H4262 H 0.65923 0.89073 0.90927 0.0
H4263 H 0.64246 0.87241 0.90814 0.0
C4264 C 0.67608 0.92375 0.89687 0.0
C4265 C 0.68612 0.9248 0.88892 0.0
C4266 C 0.66844 0.91216 0.89749 0.0
C4267 C 0.67067 0.90132 0.8902 0.0
C4268 C 0.68105 0.90227 0.88263 0.0
C4269 C 0.68867 0.91386 0.88198 0.0
C4270 C 0.64814 0.87154 0.87805 0.0
C4271 C 0.64237 0.86798 0.88859 0.0
C4272 C 0.65761 0.88209 0.87867 0.0
C4273 C 0.66161 0.88934 0.88985 0.0
C4274 C 0.65625 0.88546 0.90048 0.0
C4275 C 0.64674 0.87488 0.89986 0.0
H4276 H 0.18104 0.56501 0.10703 0.0
H4277 H 0.2073 0.57648 0.13903 0.0
H4278 H 0.17304 0.58524 0.10934 0.0
H4279 H 0.19976 0.59699 0.14097 0.0
H4280 H 0.17 0.62374 0.15044 0.0
H4281 H 0.18058 0.60499 0.14709 0.0
H4282 H 0.17753 0.6075 0.10829 0.0
H4283 H 0.16659 0.62611 0.11169 0.0
C4284 C 0.18521 0.5719 0.1145 0.0
C4285 C 0.1947 0.56902 0.12294 0.0
C4286 C 0.18073 0.58359 0.11573 0.0
C4287 C 0.18567 0.59276 0.1254 0.0
C4288 C 0.19557 0.59009 0.13353 0.0
C4289 C 0.20002 0.57837 0.13232 0.0
C4290 C 0.17169 0.62032 0.1412 0.0
C4291 C 0.16743 0.62634 0.13134 0.0
C4292 C 0.17785 0.60963 0.13927 0.0
C4293 C 0.17995 0.6047 0.12741 0.0
C4294 C 0.17593 0.61093 0.11754 0.0
C4295 C 0.16972 0.62163 0.11948 0.0
H4296 H 0.23744 0.4441 0.84054 0.0
H4297 H 0.23511 0.47236 0.87057 0.0
H4298 H 0.21441 0.43651 0.84121 0.0
H4299 H 0.21201 0.46508 0.87093 0.0
H4300 H 0.17716 0.43676 0.87898 0.0
H4301 H 0.19935 0.44638 0.87702 0.0
H4302 H 0.19238 0.44173 0.83784 0.0
H4303 H 0.17016 0.4319 0.83985 0.0
C4304 C 0.23199 0.44876 0.84722 0.0
C4305 C 0.23815 0.45877 0.85557 0.0
C4306 C 0.21876 0.44451 0.8475 0.0
C4307 C 0.21138 0.45015 0.85617 0.0
C4308 C 0.21745 0.46043 0.86425 0.0
C4309 C 0.23067 0.46469 0.86395 0.0
C4310 C 0.18035 0.43789 0.86996 0.0
C4311 C 0.17197 0.43359 0.85959 0.0
C4312 C 0.19303 0.44347 0.86882 0.0
C4313 C 0.19763 0.44486 0.85727 0.0
C4314 C 0.18916 0.4407 0.84686 0.0
C4315 C 0.17642 0.43513 0.84801 0.0
H4316 H 0.31364 0.44232 0.65344 0.0
H4317 H 0.28571 0.42533 0.62415 0.0
H4318 H 0.32632 0.42513 0.64973 0.0
H4319 H 0.2983 0.40786 0.6206 0.0
H4320 H 0.3348 0.38924 0.60926 0.0
H4321 H 0.31958 0.40438 0.61287 0.0
H4322 H 0.32524 0.4026 0.65162 0.0
H4323 H 0.3404 0.38751 0.64801 0.0
C4324 C 0.31019 0.43489 0.64621 0.0
C4325 C 0.2987 0.43523 0.63904 0.0
C4326 C 0.31739 0.42495 0.64417 0.0
C4327 C 0.3133 0.41509 0.63489 0.0
C4328 C 0.30174 0.41535 0.62777 0.0
C4329 C 0.29448 0.42529 0.62987 0.0
C4330 C 0.33259 0.3919 0.61853 0.0
C4331 C 0.33893 0.38731 0.62836 0.0
C4332 C 0.32388 0.40058 0.6206 0.0
C4333 C 0.32134 0.40483 0.63255 0.0
C4334 C 0.32721 0.39973 0.64232 0.0
C4335 C 0.33588 0.39108 0.64025 0.0
H4336 H 0.7727 0.02601 0.84341 0.0
H4337 H 0.78019 0.0375 0.88195 0.0
H4338 H 0.79419 0.0365 0.83981 0.0
H4339 H 0.80142 0.04821 0.8784 0.0
H4340 H 0.84208 0.06094 0.87108 0.0
H4341 H 0.82257 0.0462 0.8729 0.0
H4342 H 0.8053 0.05728 0.83985 0.0
H4343 H 0.82508 0.07163 0.83786 0.0
C4344 C 0.77896 0.03075 0.85111 0.0
C4345 C 0.77476 0.03091 0.86297 0.0
C4346 C 0.79126 0.0368 0.84905 0.0
C4347 C 0.79959 0.04324 0.8588 0.0
C4348 C 0.79544 0.04314 0.87068 0.0
C4349 C 0.78322 0.03702 0.87273 0.0
C4350 C 0.83417 0.06001 0.8641 0.0
C4351 C 0.83502 0.06745 0.85437 0.0
C4352 C 0.82295 0.05165 0.86518 0.0
C4353 C 0.81222 0.05068 0.85665 0.0
C4354 C 0.81338 0.05766 0.84655 0.0
C4355 C 0.8247 0.06592 0.8454 0.0
H4356 H 0.8413 0.08163 0.39334 0.0
H4357 H 0.86585 0.07281 0.36449 0.0
H4358 H 0.85067 0.10387 0.39457 0.0
H4359 H 0.87517 0.09487 0.36573 0.0
H4360 H 0.90054 0.13068 0.38134 0.0
H4361 H 0.88969 0.10918 0.38079 0.0
H4362 H 0.85274 0.12288 0.38299 0.0
H4363 H 0.8637 0.14456 0.38354 0.0
C4364 C 0.84856 0.08446 0.38716 0.0
C4365 C 0.85297 0.07544 0.37894 0.0
C4366 C 0.85393 0.09718 0.38788 0.0
C4367 C 0.86381 0.10108 0.38039 0.0
C4368 C 0.86781 0.09211 0.37184 0.0
C4369 C 0.86246 0.07947 0.37112 0.0
C4370 C 0.8901 0.12912 0.38168 0.0
C4371 C 0.88295 0.1393 0.3823 0.0
C4372 C 0.88387 0.1168 0.38135 0.0
C4373 C 0.87033 0.11432 0.38163 0.0
C4374 C 0.86319 0.12451 0.38277 0.0
C4375 C 0.86946 0.1369 0.3831 0.0
H4376 H 0.20576 0.52815 0.64337 0.0
H4377 H 0.21111 0.52605 0.68207 0.0
H4378 H 0.18477 0.53506 0.64603 0.0
H4379 H 0.18989 0.53277 0.68477 0.0
H4380 H 0.15906 0.56005 0.68574 0.0
H4381 H 0.17929 0.55113 0.68406 0.0
H4382 H 0.16319 0.52866 0.65075 0.0
H4383 H 0.14322 0.53797 0.65225 0.0
C4384 C 0.20232 0.52892 0.65243 0.0
C4385 C 0.21009 0.52652 0.6625 0.0
C4386 C 0.19025 0.53288 0.65397 0.0
C4387 C 0.18558 0.53446 0.66562 0.0
C4388 C 0.19325 0.53183 0.67569 0.0
C4389 C 0.20539 0.52794 0.67414 0.0
C4390 C 0.15983 0.55313 0.67813 0.0
C4391 C 0.14962 0.54973 0.66908 0.0
C4392 C 0.1714 0.54795 0.67719 0.0
C4393 C 0.17294 0.53923 0.66721 0.0
C4394 C 0.16248 0.53553 0.65842 0.0
C4395 C 0.151 0.54079 0.65932 0.0
H4396 H 0.29819 0.48749 0.11943 0.0
H4397 H 0.30157 0.50003 0.1579 0.0
H4398 H 0.31721 0.47688 0.12195 0.0
H4399 H 0.32082 0.48967 0.16044 0.0
H4400 H 0.34682 0.45871 0.16262 0.0
H4401 H 0.32782 0.4695 0.16038 0.0
H4402 H 0.34 0.48058 0.12584 0.0
H4403 H 0.3587 0.4694 0.12794 0.0
C4404 C 0.30312 0.48812 0.12841 0.0
C4405 C 0.29839 0.49462 0.13846 0.0
C4406 C 0.31406 0.48205 0.12987 0.0
C4407 C 0.32063 0.48241 0.1414 0.0
C4408 C 0.31592 0.489 0.15145 0.0
C4409 C 0.3049 0.49498 0.15 0.0
C4410 C 0.34543 0.46348 0.15457 0.0
C4411 C 0.35422 0.46322 0.14544 0.0
C4412 C 0.33457 0.46973 0.15331 0.0
C4413 C 0.33231 0.47592 0.14291 0.0
C4414 C 0.34125 0.47575 0.13387 0.0
C4415 C 0.35203 0.46942 0.1351 0.0
H4416 H 0.59232 0.84027 0.53016 0.0
H4417 H 0.62639 0.82634 0.54459 0.0
H4418 H 0.58932 0.85022 0.55036 0.0
H4419 H 0.62315 0.83607 0.56487 0.0
H4420 H 0.6082 0.84959 0.60164 0.0
H4421 H 0.60771 0.83642 0.58213 0.0
H4422 H 0.60289 0.86871 0.56296 0.0
H4423 H 0.60346 0.88177 0.58236 0.0
C4424 C 0.59911 0.83923 0.53765 0.0
C4425 C 0.60973 0.83267 0.53568 0.0
C4426 C 0.59735 0.8449 0.54923 0.0
C4427 C 0.60607 0.84403 0.55917 0.0
C4428 C 0.61622 0.83683 0.55739 0.0
C4429 C 0.61806 0.83124 0.54576 0.0
C4430 C 0.60682 0.85377 0.59323 0.0
C4431 C 0.60588 0.86668 0.59346 0.0
C4432 C 0.60664 0.84628 0.5821 0.0
C4433 C 0.60526 0.85154 0.57103 0.0
C4434 C 0.60383 0.86435 0.57133 0.0
C4435 C 0.60422 0.87185 0.58241 0.0
H4436 H 0.4828 0.41051 0.8018 0.0
H4437 H 0.46745 0.37133 0.79171 0.0
H4438 H 0.47574 0.40887 0.82233 0.0
H4439 H 0.46015 0.36983 0.81213 0.0
H4440 H 0.43097 0.3814 0.84057 0.0
H4441 H 0.44227 0.38014 0.82186 0.0
H4442 H 0.47786 0.39788 0.84191 0.0
H4443 H 0.46643 0.39896 0.86076 0.0
C4444 C 0.4782 0.40147 0.80402 0.0
C4445 C 0.47551 0.39111 0.79504 0.0
C4446 C 0.47415 0.40055 0.81579 0.0
C4447 C 0.46726 0.38926 0.81877 0.0
C4448 C 0.46527 0.3787 0.81002 0.0
C4449 C 0.4694 0.37959 0.79832 0.0
C4450 C 0.44126 0.38479 0.84098 0.0
C4451 C 0.44788 0.39022 0.85203 0.0
C4452 C 0.44774 0.38404 0.83032 0.0
C4453 C 0.46095 0.38889 0.83044 0.0
C4454 C 0.46767 0.39409 0.84157 0.0
C4455 C 0.46119 0.39464 0.85233 0.0
H4456 H 0.87929 0.20424 0.05655 0.0
H4457 H 0.89734 0.17903 0.03224 0.0
H4458 H 0.88418 0.19214 0.07342 0.0
H4459 H 0.90203 0.16692 0.049 0.0
H4460 H 0.89234 0.13952 0.07725 0.0
H4461 H 0.88865 0.15291 0.06123 0.0
H4462 H 0.90264 0.18595 0.08625 0.0
H4463 H 0.90629 0.17246 0.10237 0.0
C4464 C 0.88443 0.19622 0.05483 0.0
C4465 C 0.88777 0.19251 0.04299 0.0
C4466 C 0.88722 0.18929 0.06449 0.0
C4467 C 0.89335 0.17849 0.06251 0.0
C4468 C 0.89705 0.17505 0.05077 0.0
C4469 C 0.89433 0.18198 0.04116 0.0
C4470 C 0.89465 0.14964 0.07932 0.0
C4471 C 0.89966 0.15494 0.091 0.0
C4472 C 0.8926 0.15731 0.07014 0.0
C4473 C 0.89545 0.17049 0.07245 0.0
C4474 C 0.9003 0.17583 0.08422 0.0
C4475 C 0.90245 0.16811 0.09341 0.0
H4476 H 0.04819 0.64223 0.31739 0.0
H4477 H 0.07881 0.6227 0.30372 0.0
H4478 H 0.05613 0.64022 0.33829 0.0
H4479 H 0.08664 0.62064 0.32443 0.0
H4480 H 0.10619 0.62965 0.36176 0.0
H4481 H 0.09747 0.63382 0.3419 0.0
H4482 H 0.05851 0.62464 0.3528 0.0
H4483 H 0.06734 0.62067 0.37285 0.0
C4484 C 0.05654 0.63743 0.31885 0.0
C4485 C 0.06296 0.63275 0.30891 0.0
C4486 C 0.06109 0.63629 0.33081 0.0
C4487 C 0.07214 0.63043 0.33305 0.0
C4488 C 0.07833 0.62551 0.32307 0.0
C4489 C 0.07382 0.62667 0.31118 0.0
C4490 C 0.09576 0.62863 0.35994 0.0
C4491 C 0.08744 0.6247 0.36878 0.0
C4492 C 0.09076 0.63095 0.34855 0.0
C4493 C 0.07729 0.62933 0.34567 0.0
C4494 C 0.06893 0.62602 0.35473 0.0
C4495 C 0.07397 0.62375 0.36621 0.0
H4496 H 0.59713 0.16448 0.98329 0.0
H4497 H 0.6191 0.13447 0.99064 0.0
H4498 H 0.59373 0.15589 0.96181 0.0
H4499 H 0.61576 0.12598 0.96936 0.0
H4500 H 0.59613 0.1056 0.93463 0.0
H4501 H 0.59793 0.11528 0.95558 0.0
H4502 H 0.6052 0.15214 0.94305 0.0
H4503 H 0.60324 0.14235 0.92193 0.0
C4504 C 0.60131 0.15612 0.98031 0.0
C4505 C 0.60823 0.15005 0.9887 0.0
C4506 C 0.59936 0.15121 0.96802 0.0
C4507 C 0.6043 0.14014 0.9639 0.0
C4508 C 0.61152 0.13432 0.97227 0.0
C4509 C 0.61344 0.1392 0.98448 0.0
C4510 C 0.59808 0.11577 0.93634 0.0
C4511 C 0.59973 0.12321 0.92666 0.0
C4512 C 0.59915 0.12133 0.94835 0.0
C4513 C 0.60195 0.13448 0.95101 0.0
C4514 C 0.60301 0.14199 0.9413 0.0
C4515 C 0.6019 0.13639 0.92922 0.0
H4516 H 0.02858 0.34844 0.18511 0.0
H4517 H 0.04184 0.38734 0.19852 0.0
H4518 H 0.042 0.35054 0.16785 0.0
H4519 H 0.05486 0.38954 0.18109 0.0
H4520 H 0.09043 0.38265 0.16021 0.0
H4521 H 0.07475 0.38137 0.17566 0.0
H4522 H 0.04574 0.36086 0.14893 0.0
H4523 H 0.06161 0.36207 0.13341 0.0
C4524 C 0.03421 0.35748 0.18429 0.0
C4525 C 0.03421 0.36769 0.19327 0.0
C4526 C 0.04181 0.35871 0.17433 0.0
C4527 C 0.04961 0.37017 0.17317 0.0
C4528 C 0.04911 0.38053 0.18183 0.0
C4529 C 0.04151 0.37931 0.19175 0.0
C4530 C 0.08069 0.3779 0.15763 0.0
C4531 C 0.07724 0.37246 0.14564 0.0
C4532 C 0.07167 0.37725 0.16645 0.0
C4533 C 0.05895 0.3711 0.16351 0.0
C4534 C 0.05548 0.36561 0.15149 0.0
C4535 C 0.06454 0.36634 0.1426 0.0
H4536 H 0.93021 0.88989 0.49383 0.0
H4537 H 0.95474 0.86164 0.4845 0.0
H4538 H 0.92832 0.89411 0.47263 0.0
H4539 H 0.95272 0.86583 0.46309 0.0
H4540 H 0.95501 0.88882 0.42843 0.0
H4541 H 0.95864 0.8842 0.44959 0.0
H4542 H 0.91744 0.88109 0.45358 0.0
H4543 H 0.91384 0.8856 0.43259 0.0
C4544 C 0.93532 0.88467 0.48726 0.0
C4545 C 0.94264 0.87544 0.49084 0.0
C4546 C 0.93414 0.88701 0.4751 0.0
C4547 C 0.94032 0.88025 0.46621 0.0
C4548 C 0.9479 0.87121 0.46978 0.0
C4549 C 0.94897 0.86875 0.48198 0.0
C4550 C 0.94676 0.88709 0.43384 0.0
C4551 C 0.93414 0.88762 0.42893 0.0
C4552 C 0.94883 0.8844 0.4459 0.0
C4553 C 0.93832 0.88239 0.45323 0.0
C4554 C 0.92573 0.88276 0.4482 0.0
C4555 C 0.92366 0.88528 0.43618 0.0
H4556 H 0.45945 0.65534 0.70168 0.0
H4557 H 0.47012 0.62246 0.68122 0.0
H4558 H 0.444 0.6577 0.68493 0.0
H4559 H 0.45493 0.62508 0.66437 0.0
H4560 H 0.43122 0.63803 0.63309 0.0
H4561 H 0.4494 0.63969 0.64856 0.0
H4562 H 0.42305 0.644 0.67689 0.0
H4563 H 0.40499 0.64229 0.66148 0.0
C4564 C 0.45859 0.64867 0.69359 0.0
C4565 C 0.46592 0.63859 0.6929 0.0
C4566 C 0.44978 0.65007 0.68398 0.0
C4567 C 0.4482 0.64153 0.67339 0.0
C4568 C 0.45603 0.63188 0.67238 0.0
C4569 C 0.46476 0.6304 0.68205 0.0
C4570 C 0.42942 0.63959 0.64263 0.0
C4571 C 0.41674 0.64001 0.64613 0.0
C4572 C 0.43977 0.64044 0.65146 0.0
C4573 C 0.43763 0.64195 0.66392 0.0
C4574 C 0.42502 0.64296 0.66737 0.0
C4575 C 0.41468 0.64192 0.65857 0.0
H4576 H 0.53762 0.57889 0.79302 0.0
H4577 H 0.56082 0.60866 0.77733 0.0
H4578 H 0.5572 0.57227 0.80171 0.0
H4579 H 0.58048 0.60159 0.78546 0.0
H4580 H 0.6074 0.60008 0.82014 0.0
H4581 H 0.59029 0.60365 0.80561 0.0
H4582 H 0.57708 0.5636 0.79988 0.0
H4583 H 0.59408 0.56012 0.81489 0.0
C4584 C 0.54692 0.58388 0.79123 0.0
C4585 C 0.54762 0.59449 0.7847 0.0
C4586 C 0.55819 0.57996 0.79607 0.0
C4587 C 0.57046 0.5865 0.79444 0.0
C4588 C 0.57119 0.59649 0.7871 0.0
C4589 C 0.5599 0.60046 0.78231 0.0
C4590 C 0.60095 0.59202 0.81564 0.0
C4591 C 0.60193 0.57985 0.8188 0.0
C4592 C 0.5912 0.59404 0.80719 0.0
C4593 C 0.58218 0.58393 0.80163 0.0
C4594 C 0.58373 0.57162 0.80414 0.0
C4595 C 0.59354 0.5696 0.81264 0.0
H4596 H 0.63721 0.2615 0.08246 0.0
H4597 H 0.59539 0.25391 0.07839 0.0
H4598 H 0.63594 0.27991 0.09692 0.0
H4599 H 0.59412 0.27239 0.09269 0.0
H4600 H 0.59804 0.29589 0.13023 0.0
H4601 H 0.59944 0.2782 0.11499 0.0
H4602 H 0.62865 0.3013 0.09783 0.0
H4603 H 0.62725 0.31902 0.1131 0.0
C4604 C 0.62776 0.2638 0.08462 0.0
C4605 C 0.6164 0.25625 0.0793 0.0
C4606 C 0.62703 0.27439 0.09281 0.0
C4607 C 0.61493 0.27756 0.09597 0.0
C4608 C 0.60358 0.27011 0.09052 0.0
C4609 C 0.60431 0.2596 0.08225 0.0
C4610 C 0.60474 0.29718 0.12318 0.0
C4611 C 0.61251 0.30881 0.12284 0.0
C4612 C 0.60549 0.28708 0.11443 0.0
C4613 C 0.61411 0.28838 0.10518 0.0
C4614 C 0.62197 0.30001 0.10489 0.0
C4615 C 0.62113 0.31016 0.1136 0.0
H4616 H 0.92554 0.39195 0.27083 0.0
H4617 H 0.95644 0.41978 0.28821 0.0
H4618 H 0.91031 0.40034 0.28436 0.0
H4619 H 0.94126 0.42832 0.30155 0.0
H4620 H 0.91555 0.42852 0.33354 0.0
H4621 H 0.93004 0.42184 0.31852 0.0
H4622 H 0.89883 0.41788 0.29034 0.0
H4623 H 0.88419 0.4243 0.30558 0.0
C4624 C 0.92902 0.39999 0.2774 0.0
C4625 C 0.94222 0.40511 0.27855 0.0
C4626 C 0.9203 0.40483 0.28514 0.0
C4627 C 0.92457 0.41493 0.29415 0.0
C4628 C 0.93768 0.42035 0.29492 0.0
C4629 C 0.94639 0.41547 0.28726 0.0
C4630 C 0.91182 0.42631 0.32411 0.0
C4631 C 0.89878 0.42695 0.32073 0.0
C4632 C 0.92014 0.42255 0.31547 0.0
C4633 C 0.91565 0.41937 0.30318 0.0
C4634 C 0.90259 0.42015 0.29975 0.0
C4635 C 0.89422 0.42391 0.30845 0.0
H4636 H 0.95223 0.78634 0.5863 0.0
H4637 H 0.91546 0.77303 0.56616 0.0
H4638 H 0.94866 0.76915 0.599 0.0
H4639 H 0.91174 0.75591 0.579 0.0
H4640 H 0.91425 0.72039 0.59826 0.0
H4641 H 0.91857 0.73654 0.58441 0.0
H4642 H 0.93525 0.76323 0.61482 0.0
H4643 H 0.93124 0.74698 0.62853 0.0
C4644 C 0.94335 0.77975 0.58461 0.0
C4645 C 0.93409 0.7811 0.57527 0.0
C4646 C 0.94128 0.7699 0.59192 0.0
C4647 C 0.92984 0.76119 0.59013 0.0
C4648 C 0.92072 0.76235 0.58057 0.0
C4649 C 0.92284 0.77218 0.5732 0.0
C4650 C 0.91885 0.72971 0.60196 0.0
C4651 C 0.92242 0.73245 0.61448 0.0
C4652 C 0.92127 0.73899 0.59403 0.0
C4653 C 0.9273 0.7512 0.59846 0.0
C4654 C 0.93081 0.75388 0.61102 0.0
C4655 C 0.92843 0.74461 0.61891 0.0
H4656 H 0.55887 0.41773 0.69379 0.0
H4657 H 0.57568 0.44762 0.7213 0.0
H4658 H 0.57668 0.42294 0.68117 0.0
H4659 H 0.59358 0.45299 0.70853 0.0
H4660 H 0.63043 0.44762 0.68739 0.0
H4661 H 0.6125 0.44499 0.70066 0.0
H4662 H 0.58518 0.43886 0.66903 0.0
H4663 H 0.60309 0.44119 0.65587 0.0
C4664 C 0.5663 0.42554 0.69707 0.0
C4665 C 0.5658 0.43232 0.70851 0.0
C4666 C 0.57652 0.42856 0.68981 0.0
C4667 C 0.58652 0.43849 0.69376 0.0
C4668 C 0.58609 0.44524 0.70525 0.0
C4669 C 0.57584 0.44217 0.71257 0.0
C4670 C 0.62057 0.44592 0.68333 0.0
C4671 C 0.61813 0.44446 0.67061 0.0
C4672 C 0.61029 0.44442 0.69091 0.0
C4673 C 0.5974 0.4415 0.68591 0.0
C4674 C 0.595 0.44076 0.67319 0.0
C4675 C 0.60524 0.44216 0.66564 0.0
H4676 H 0.83993 0.27215 0.9476 0.0
H4677 H 0.87933 0.2716 0.93771 0.0
H4678 H 0.83799 0.28954 0.93526 0.0
H4679 H 0.87748 0.28911 0.9257 0.0
H4680 H 0.86314 0.30685 0.89241 0.0
H4681 H 0.8653 0.29096 0.90635 0.0
H4682 H 0.84626 0.31218 0.93334 0.0
H4683 H 0.84403 0.32812 0.91928 0.0
C4684 C 0.84822 0.27583 0.94291 0.0
C4685 C 0.85977 0.27044 0.9436 0.0
C4686 C 0.84713 0.28585 0.93593 0.0
C4687 C 0.85754 0.29062 0.92941 0.0
C4688 C 0.86923 0.28553 0.93047 0.0
C4689 C 0.87033 0.27559 0.93749 0.0
C4690 C 0.85941 0.30811 0.90132 0.0
C4691 C 0.85344 0.3187 0.90476 0.0
C4692 C 0.86073 0.29907 0.90934 0.0
C4693 C 0.85606 0.30037 0.921 0.0
C4694 C 0.84991 0.3109 0.92441 0.0
C4695 C 0.84867 0.32003 0.91638 0.0
H4696 H 0.94378 0.60201 0.23405 0.0
H4697 H 0.96111 0.62625 0.20876 0.0
H4698 H 0.92489 0.59556 0.21959 0.0
H4699 H 0.94206 0.62032 0.19467 0.0
H4700 H 0.91398 0.5967 0.16623 0.0
H4701 H 0.93236 0.60231 0.18128 0.0
H4702 H 0.90608 0.60297 0.21006 0.0
H4703 H 0.88766 0.59699 0.19492 0.0
C4704 C 0.94355 0.60601 0.22545 0.0
C4705 C 0.954 0.61464 0.22258 0.0
C4706 C 0.93265 0.60241 0.21722 0.0
C4707 C 0.93198 0.60735 0.20593 0.0
C4708 C 0.94233 0.61616 0.20319 0.0
C4709 C 0.9532 0.61971 0.21137 0.0
C4710 C 0.91216 0.59797 0.17579 0.0
C4711 C 0.89943 0.59644 0.17941 0.0
C4712 C 0.92267 0.60128 0.18441 0.0
C4713 C 0.92071 0.60324 0.19689 0.0
C4714 C 0.90794 0.60145 0.20054 0.0
C4715 C 0.89739 0.59807 0.19187 0.0
H4716 H 0.65068 0.72532 0.45833 0.0
H4717 H 0.62396 0.73687 0.4318 0.0
H4718 H 0.65307 0.70688 0.4443 0.0
H4719 H 0.62612 0.71846 0.41792 0.0
H4720 H 0.64142 0.69161 0.39072 0.0
H4721 H 0.64122 0.71015 0.40518 0.0
H4722 H 0.64171 0.68697 0.43491 0.0
H4723 H 0.64222 0.66846 0.42037 0.0
C4724 C 0.64524 0.72386 0.44954 0.0
C4725 C 0.63722 0.73261 0.44613 0.0
C4726 C 0.6466 0.71329 0.4415 0.0
C4727 C 0.6399 0.71122 0.42991 0.0
C4728 C 0.63171 0.71989 0.42663 0.0
C4729 C 0.63042 0.73045 0.43461 0.0
C4730 C 0.64156 0.69051 0.40036 0.0
C4731 C 0.64174 0.67858 0.40441 0.0
C4732 C 0.64138 0.70111 0.40865 0.0
C4733 C 0.64125 0.70006 0.42122 0.0
C4734 C 0.64191 0.68817 0.42531 0.0
C4735 C 0.64219 0.67755 0.41699 0.0
H4736 H 0.83165 0.62241 0.63155 0.0
H4737 H 0.85975 0.60701 0.60944 0.0
H4738 H 0.84456 0.64323 0.63283 0.0
H4739 H 0.87255 0.62773 0.61068 0.0
H4740 H 0.89017 0.6679 0.60916 0.0
H4741 H 0.87369 0.64926 0.60515 0.0
H4742 H 0.86537 0.65271 0.64305 0.0
H4743 H 0.88153 0.67143 0.64693 0.0
C4744 C 0.84053 0.62347 0.62691 0.0
C4745 C 0.84467 0.61301 0.62044 0.0
C4746 C 0.84791 0.6354 0.62763 0.0
C4747 C 0.85961 0.63715 0.62188 0.0
C4748 C 0.86349 0.62678 0.61505 0.0
C4749 C 0.85614 0.61487 0.61434 0.0
C4750 C 0.8846 0.66482 0.61655 0.0
C4751 C 0.88722 0.67103 0.62838 0.0
C4752 C 0.87525 0.65409 0.61429 0.0
C4753 C 0.86829 0.64942 0.62381 0.0
C4754 C 0.87047 0.65607 0.63549 0.0
C4755 C 0.87982 0.66674 0.63774 0.0
H4756 H 0.30252 0.92913 0.37027 0.0
H4757 H 0.32177 0.94782 0.40413 0.0
H4758 H 0.31169 0.90999 0.37399 0.0
H4759 H 0.3311 0.92882 0.40765 0.0
H4760 H 0.36054 0.90131 0.39706 0.0
H4761 H 0.34812 0.91888 0.3962 0.0
H4762 H 0.31275 0.89271 0.38859 0.0
H4763 H 0.32531 0.87501 0.38956 0.0
C4764 C 0.30847 0.92909 0.37862 0.0
C4765 C 0.31158 0.94009 0.3868 0.0
C4766 C 0.31373 0.91813 0.38074 0.0
C4767 C 0.32224 0.91798 0.39103 0.0
C4768 C 0.32475 0.92874 0.39954 0.0
C4769 C 0.31943 0.93963 0.39748 0.0
C4770 C 0.35009 0.89933 0.39533 0.0
C4771 C 0.34386 0.88685 0.39335 0.0
C4772 C 0.34297 0.90936 0.3949 0.0
C4773 C 0.32946 0.90716 0.39235 0.0
C4774 C 0.32316 0.89466 0.39054 0.0
C4775 C 0.33031 0.88457 0.39117 0.0
H4776 H 0.26602 0.04292 0.6617 0.0
H4777 H 0.2562 0.06639 0.63406 0.0
H4778 H 0.28851 0.05337 0.66319 0.0
H4779 H 0.2785 0.07669 0.63545 0.0
H4780 H 0.31479 0.10232 0.64954 0.0
H4781 H 0.29287 0.09127 0.6497 0.0
H4782 H 0.30819 0.05619 0.65198 0.0
H4783 H 0.33024 0.06737 0.65199 0.0
C4784 C 0.26869 0.05021 0.65587 0.0
C4785 C 0.25931 0.05395 0.64788 0.0
C4786 C 0.28156 0.0562 0.65672 0.0
C4787 C 0.28526 0.06601 0.64958 0.0
C4788 C 0.27592 0.06942 0.64134 0.0
C4789 C 0.26313 0.06349 0.64051 0.0
C4790 C 0.31348 0.09226 0.65011 0.0
C4791 C 0.32421 0.08569 0.65061 0.0
C4792 C 0.30091 0.08591 0.65017 0.0
C4793 C 0.29875 0.0728 0.65064 0.0
C4794 C 0.30952 0.06629 0.65165 0.0
C4795 C 0.32214 0.07268 0.65165 0.0
H4796 H 0.21656 0.06991 0.86702 0.0
H4797 H 0.19596 0.06056 0.89841 0.0
H4798 H 0.20515 0.08806 0.86564 0.0
H4799 H 0.1841 0.07839 0.89669 0.0
H4800 H 0.17209 0.11758 0.89595 0.0
H4801 H 0.18575 0.10117 0.89869 0.0
H4802 H 0.18349 0.09151 0.8597 0.0
H4803 H 0.17013 0.10806 0.857 0.0
C4804 C 0.20969 0.07178 0.87371 0.0
C4805 C 0.20715 0.06372 0.88279 0.0
C4806 C 0.20302 0.08211 0.87282 0.0
C4807 C 0.1936 0.08463 0.88098 0.0
C4808 C 0.19134 0.07679 0.8903 0.0
C4809 C 0.19804 0.06647 0.8912 0.0
C4810 C 0.17459 0.11199 0.88798 0.0
C4811 C 0.17007 0.11409 0.87625 0.0
C4812 C 0.18236 0.10254 0.88955 0.0
C4813 C 0.18576 0.09502 0.87942 0.0
C4814 C 0.18127 0.09725 0.8677 0.0
C4815 C 0.17354 0.10667 0.86615 0.0
H4816 H 0.72949 0.52952 0.65661 0.0
H4817 H 0.73539 0.50592 0.62411 0.0
H4818 H 0.71132 0.51401 0.66079 0.0
H4819 H 0.71738 0.49051 0.62828 0.0
H4820 H 0.69743 0.459 0.64781 0.0
H4821 H 0.7142 0.47577 0.64373 0.0
H4822 H 0.68899 0.50338 0.65313 0.0
H4823 H 0.67217 0.48648 0.65736 0.0
C4824 C 0.72679 0.52113 0.65027 0.0
C4825 C 0.734 0.51886 0.64013 0.0
C4826 C 0.7164 0.51225 0.65267 0.0
C4827 C 0.71305 0.50094 0.64497 0.0
C4828 C 0.71991 0.49898 0.63455 0.0
C4829 C 0.73024 0.50782 0.63216 0.0
C4830 C 0.69549 0.46866 0.64905 0.0
C4831 C 0.68351 0.47143 0.65286 0.0
C4832 C 0.70505 0.47826 0.64663 0.0
C4833 C 0.70287 0.4909 0.64798 0.0
C4834 C 0.69096 0.49373 0.65205 0.0
C4835 C 0.68133 0.48407 0.65443 0.0
H4836 H 0.65957 0.43896 0.13082 0.0
H4837 H 0.68499 0.42876 0.1593 0.0
H4838 H 0.64639 0.41839 0.12989 0.0
H4839 H 0.67181 0.4081 0.15831 0.0
H4840 H 0.65028 0.36823 0.14592 0.0
H4841 H 0.66477 0.38798 0.14514 0.0
H4842 H 0.63158 0.40795 0.14331 0.0
H4843 H 0.6172 0.38829 0.1438 0.0
C4844 C 0.66233 0.43233 0.13691 0.0
C4845 C 0.67325 0.43557 0.14523 0.0
C4846 C 0.65479 0.42054 0.13635 0.0
C4847 C 0.65799 0.41165 0.14409 0.0
C4848 C 0.66915 0.4147 0.15215 0.0
C4849 C 0.6767 0.42654 0.15272 0.0
C4850 C 0.64612 0.37684 0.14523 0.0
C4851 C 0.63261 0.37673 0.14498 0.0
C4852 C 0.6544 0.38815 0.14488 0.0
C4853 C 0.64932 0.39953 0.14416 0.0
C4854 C 0.63581 0.39934 0.14373 0.0
C4855 C 0.62756 0.38809 0.14415 0.0
H4856 H 0.29472 0.97804 0.88097 0.0
H4857 H 0.27621 0.94959 0.85283 0.0
H4858 H 0.31568 0.97128 0.87725 0.0
H4859 H 0.29704 0.94249 0.84945 0.0
H4860 H 0.33762 0.93647 0.84083 0.0
H4861 H 0.3185 0.94728 0.84229 0.0
H4862 H 0.32563 0.95307 0.88144 0.0
H4863 H 0.34488 0.94271 0.87993 0.0
C4864 C 0.29514 0.97046 0.87388 0.0
C4865 C 0.28376 0.96428 0.86729 0.0
C4866 C 0.30714 0.96649 0.87183 0.0
C4867 C 0.30804 0.95625 0.86313 0.0
C4868 C 0.29674 0.95045 0.85616 0.0
C4869 C 0.28476 0.95442 0.85821 0.0
C4870 C 0.33522 0.94028 0.84971 0.0
C4871 C 0.34269 0.93862 0.86027 0.0
C4872 C 0.3242 0.94637 0.85056 0.0
C4873 C 0.32046 0.95098 0.86199 0.0
C4874 C 0.32826 0.94976 0.87248 0.0
C4875 C 0.33922 0.94367 0.87163 0.0
H4876 H 0.22715 0.03142 0.34713 0.0
H4877 H 0.1963 1.00197 0.35265 0.0
H4878 H 0.21155 0.04609 0.34553 0.0
H4879 H 0.18064 0.01691 0.35149 0.0
H4880 H 0.15526 0.04593 0.33782 0.0
H4881 H 0.17011 0.03008 0.33757 0.0
H4882 H 0.19874 0.05663 0.35991 0.0
H4883 H 0.18405 0.07238 0.36001 0.0
C4884 C 0.21701 0.02801 0.34786 0.0
C4885 C 0.213 0.01548 0.35 0.0
C4886 C 0.20807 0.03649 0.34709 0.0
C4887 C 0.19487 0.03271 0.3485 0.0
C4888 C 0.19075 0.0201 0.35031 0.0
C4889 C 0.19973 0.01158 0.35109 0.0
C4890 C 0.16475 0.04834 0.34264 0.0
C4891 C 0.16857 0.0604 0.34888 0.0
C4892 C 0.17321 0.03926 0.34254 0.0
C4893 C 0.18565 0.04212 0.34863 0.0
C4894 C 0.18934 0.05417 0.35493 0.0
C4895 C 0.1809 0.06318 0.35505 0.0
H4896 H 0.40135 0.16449 0.47546 0.0
H4897 H 0.37636 0.1895 0.46157 0.0
H4898 H 0.4062 0.15771 0.45482 0.0
H4899 H 0.38167 0.18312 0.44087 0.0
H4900 H 0.37851 0.15341 0.40689 0.0
H4901 H 0.37624 0.16449 0.42673 0.0
H4902 H 0.41661 0.16311 0.4369 0.0
H4903 H 0.4187 0.1515 0.41719 0.0
C4904 C 0.39699 0.16864 0.46799 0.0
C4905 C 0.38831 0.1774 0.47016 0.0
C4906 C 0.39992 0.16489 0.45615 0.0
C4907 C 0.39429 0.16982 0.44614 0.0
C4908 C 0.38605 0.179 0.44835 0.0
C4909 C 0.3831 0.18275 0.46023 0.0
C4910 C 0.38693 0.15554 0.41334 0.0
C4911 C 0.39873 0.15139 0.41053 0.0
C4912 C 0.38567 0.16204 0.42468 0.0
C4913 C 0.39621 0.1646 0.43349 0.0
C4914 C 0.40823 0.16111 0.43041 0.0
C4915 C 0.40948 0.15458 0.41905 0.0
H4916 H 0.52163 0.62113 0.19277 0.0
H4917 H 0.5572 0.64581 0.20472 0.0
H4918 H 0.52907 0.61839 0.17227 0.0
H4919 H 0.56449 0.6432 0.18427 0.0
H4920 H 0.57176 0.64185 0.14443 0.0
H4921 H 0.56065 0.64706 0.16279 0.0
H4922 H 0.54626 0.60764 0.16344 0.0
H4923 H 0.55713 0.60252 0.14507 0.0
C4924 C 0.53099 0.62603 0.19103 0.0
C4925 C 0.53883 0.63363 0.20045 0.0
C4926 C 0.53523 0.62449 0.17927 0.0
C4927 C 0.54738 0.63055 0.17665 0.0
C4928 C 0.55499 0.63854 0.18593 0.0
C4929 C 0.55079 0.64004 0.19768 0.0
C4930 C 0.56597 0.63436 0.14837 0.0
C4931 C 0.56539 0.62177 0.1434 0.0
C4932 C 0.55972 0.63732 0.15892 0.0
C4933 C 0.55265 0.62775 0.16462 0.0
C4934 C 0.55152 0.61525 0.15924 0.0
C4935 C 0.55784 0.61229 0.14878 0.0
H4936 H 0.11195 0.80014 0.97521 0.0
H4937 H 0.08578 0.82264 0.99299 0.0
H4938 H 0.11047 0.81167 0.95742 0.0
H4939 H 0.08468 0.83449 0.97536 0.0
H4940 H 0.07741 0.84652 0.93719 0.0
H4941 H 0.07699 0.83317 0.95386 0.0
H4942 H 0.11825 0.83276 0.95264 0.0
H4943 H 0.1186 0.8459 0.93591 0.0
C4944 C 0.10578 0.80746 0.97528 0.0
C4945 C 0.09904 0.81049 0.98557 0.0
C4946 C 0.10504 0.81417 0.96513 0.0
C4947 C 0.09754 0.82409 0.96499 0.0
C4948 C 0.09048 0.82687 0.97512 0.0
C4949 C 0.09123 0.82016 0.98529 0.0
C4950 C 0.08636 0.84351 0.94045 0.0
C4951 C 0.09805 0.84722 0.93525 0.0
C4952 C 0.08614 0.83592 0.95004 0.0
C4953 C 0.09758 0.83185 0.95457 0.0
C4954 C 0.10923 0.83553 0.94926 0.0
C4955 C 0.10945 0.84313 0.93973 0.0
H4956 H 0.9553 0.41546 0.71541 0.0
H4957 H 0.92401 0.38439 0.71134 0.0
H4958 H 0.94979 0.42014 0.69479 0.0
H4959 H 0.91815 0.3894 0.69093 0.0
H4960 H 0.9174 0.39511 0.65074 0.0
H4961 H 0.92513 0.3894 0.67043 0.0
H4962 H 0.93259 0.42879 0.68435 0.0
H4963 H 0.92513 0.43446 0.66459 0.0
C4964 C 0.94731 0.40956 0.71009 0.0
C4965 C 0.94006 0.39958 0.71506 0.0
C4966 C 0.94405 0.41234 0.69831 0.0
C4967 C 0.93347 0.4052 0.69121 0.0
C4968 C 0.92643 0.39503 0.69608 0.0
C4969 C 0.92968 0.39225 0.70785 0.0
C4970 C 0.92078 0.40254 0.65799 0.0
C4971 C 0.92066 0.41525 0.65617 0.0
C4972 C 0.92514 0.39927 0.66929 0.0
C4973 C 0.92946 0.40863 0.67899 0.0
C4974 C 0.92951 0.42134 0.67705 0.0
C4975 C 0.92516 0.4246 0.66576 0.0
H4976 H 0.37929 0.86919 0.03346 0.0
H4977 H 0.39893 0.83833 0.04314 0.0
H4978 H 0.3846 0.87984 0.05384 0.0
H4979 H 0.40478 0.84935 0.06353 0.0
H4980 H 0.4002 0.86833 0.10271 0.0
H4981 H 0.39552 0.85628 0.08261 0.0
H4982 H 0.40369 0.89065 0.06564 0.0
H4983 H 0.40816 0.9026 0.08562 0.0
C4984 C 0.38466 0.86461 0.03996 0.0
C4985 C 0.38864 0.85287 0.03664 0.0
C4986 C 0.38789 0.87083 0.05162 0.0
C4987 C 0.39526 0.86552 0.06029 0.0
C4988 C 0.39906 0.85367 0.05708 0.0
C4989 C 0.39581 0.84742 0.04536 0.0
C4990 C 0.40114 0.87324 0.09466 0.0
C4991 C 0.40438 0.88641 0.09572 0.0
C4992 C 0.39847 0.86636 0.08315 0.0
C4993 C 0.39903 0.87253 0.07252 0.0
C4994 C 0.40283 0.88564 0.07364 0.0
C4995 C 0.40543 0.89248 0.08508 0.0
H4996 H 0.95802 0.65244 0.81855 0.0
H4997 H 0.97369 0.61854 0.82576 0.0
H4998 H 0.94281 0.64899 0.83422 0.0
H4999 H 0.95896 0.61545 0.84178 0.0
H5000 H 0.92015 0.60502 0.85789 0.0
H5001 H 0.93615 0.60925 0.8431 0.0
H5002 H 0.941 0.6489 0.85601 0.0
H5003 H 0.92469 0.64464 0.87065 0.0
C5004 C 0.95828 0.64429 0.82351 0.0
C5005 C 0.96705 0.63573 0.82082 0.0
C5006 C 0.94966 0.6424 0.83261 0.0
C5007 C 0.94961 0.63191 0.83923 0.0
C5008 C 0.9586 0.62353 0.83674 0.0
C5009 C 0.96718 0.6254 0.82764 0.0
C5010 C 0.92467 0.61463 0.85758 0.0
C5011 C 0.92119 0.62448 0.86541 0.0
C5012 C 0.93391 0.61706 0.84916 0.0
C5013 C 0.93993 0.62941 0.84839 0.0
C5014 C 0.93646 0.63929 0.85628 0.0
C5015 C 0.92718 0.63685 0.86471 0.0
H5016 H 0.10525 0.14937 0.52123 0.0
H5017 H 0.08078 0.17763 0.53056 0.0
H5018 H 0.10026 0.13974 0.53967 0.0
H5019 H 0.07559 0.16784 0.54912 0.0
H5020 H 0.07916 0.15163 0.58678 0.0
H5021 H 0.08438 0.16302 0.56916 0.0
H5022 H 0.08155 0.12754 0.54658 0.0
H5023 H 0.07666 0.11629 0.56414 0.0
C5024 C 0.09875 0.1535 0.52722 0.0
C5025 C 0.09325 0.16414 0.52434 0.0
C5026 C 0.09585 0.14796 0.53779 0.0
C5027 C 0.08732 0.15287 0.54577 0.0
C5028 C 0.08221 0.16384 0.54317 0.0
C5029 C 0.08517 0.16944 0.53256 0.0
C5030 C 0.0796 0.14631 0.57803 0.0
C5031 C 0.07757 0.13307 0.57681 0.0
C5032 C 0.08255 0.15283 0.56793 0.0
C5033 C 0.08354 0.1462 0.55648 0.0
C5034 C 0.08115 0.13296 0.5553 0.0
C5035 C 0.07825 0.12649 0.56534 0.0
H5036 H 0.51939 0.38462 0.32555 0.0
H5037 H 0.5457 0.36001 0.31139 0.0
H5038 H 0.52812 0.3831 0.34627 0.0
H5039 H 0.55476 0.35891 0.33191 0.0
H5040 H 0.56638 0.35376 0.36992 0.0
H5041 H 0.55183 0.3518 0.35152 0.0
H5042 H 0.5481 0.39133 0.35795 0.0
H5043 H 0.56213 0.39311 0.37656 0.0
C5044 C 0.52692 0.37877 0.32686 0.0
C5045 C 0.53198 0.37258 0.31681 0.0
C5046 C 0.532 0.37798 0.33873 0.0
C5047 C 0.54222 0.37095 0.34078 0.0
C5048 C 0.54682 0.36431 0.33073 0.0
C5049 C 0.54175 0.36509 0.31892 0.0
C5050 C 0.56213 0.36192 0.36759 0.0
C5051 C 0.56556 0.37363 0.3746 0.0
C5052 C 0.55391 0.36085 0.35696 0.0
C5053 C 0.54896 0.37145 0.35312 0.0
C5054 C 0.55167 0.38294 0.36062 0.0
C5055 C 0.55984 0.384 0.37123 0.0
H5056 H 0.45355 0.43371 0.23073 0.0
H5057 H 0.42547 0.40017 0.22908 0.0
H5058 H 0.43975 0.44224 0.21594 0.0
H5059 H 0.41176 0.40862 0.21417 0.0
H5060 H 0.38605 0.43019 0.19223 0.0
H5061 H 0.39834 0.42586 0.21058 0.0
H5062 H 0.43415 0.43573 0.19379 0.0
H5063 H 0.42188 0.44003 0.17558 0.0
C5064 C 0.44432 0.42827 0.22738 0.0
C5065 C 0.44063 0.41623 0.23102 0.0
C5066 C 0.43647 0.43311 0.21885 0.0
C5067 C 0.42469 0.42608 0.21385 0.0
C5068 C 0.42072 0.41431 0.21793 0.0
C5069 C 0.42862 0.40942 0.22637 0.0
C5070 C 0.39655 0.43172 0.19264 0.0
C5071 C 0.40305 0.43541 0.18253 0.0
C5072 C 0.40358 0.42915 0.20307 0.0
C5073 C 0.41721 0.43039 0.2036 0.0
C5074 C 0.42367 0.43479 0.19372 0.0
C5075 C 0.41666 0.4372 0.18328 0.0
H5076 H 0.37522 0.73337 0.95638 0.0
H5077 H 0.39401 0.75677 0.93117 0.0
H5078 H 0.37792 0.71456 0.94303 0.0
H5079 H 0.39631 0.73806 0.9177 0.0
H5080 H 0.41116 0.70205 0.90316 0.0
H5081 H 0.40863 0.7204 0.91716 0.0
H5082 H 0.3698 0.70351 0.92291 0.0
H5083 H 0.37244 0.68507 0.90905 0.0
C5084 C 0.37993 0.7345 0.94801 0.0
C5085 C 0.38438 0.74657 0.94483 0.0
C5086 C 0.38136 0.72373 0.94031 0.0
C5087 C 0.38734 0.72481 0.92931 0.0
C5088 C 0.39179 0.73689 0.92617 0.0
C5089 C 0.39033 0.74762 0.93383 0.0
C5090 C 0.40211 0.70227 0.90745 0.0
C5091 C 0.39202 0.69217 0.90501 0.0
C5092 C 0.40062 0.71279 0.91541 0.0
C5093 C 0.38899 0.71344 0.92112 0.0
C5094 C 0.37893 0.70324 0.91876 0.0
C5095 C 0.38041 0.69272 0.91076 0.0
H5096 H 0.07313 0.63062 0.7359 0.0
H5097 H 0.04332 0.59846 0.72775 0.0
H5098 H 0.08862 0.61879 0.72581 0.0
H5099 H 0.05888 0.58655 0.71793 0.0
H5100 H 0.08333 0.58173 0.68391 0.0
H5101 H 0.06868 0.58933 0.69839 0.0
H5102 H 0.10092 0.6003 0.72534 0.0
H5103 H 0.11564 0.59262 0.71068 0.0
C5104 C 0.06995 0.62095 0.73215 0.0
C5105 C 0.05696 0.61553 0.7325 0.0
C5106 C 0.07886 0.61413 0.72649 0.0
C5107 C 0.07494 0.60177 0.72099 0.0
C5108 C 0.06215 0.5961 0.72198 0.0
C5109 C 0.05326 0.6029 0.7277 0.0
C5110 C 0.08722 0.58551 0.69302 0.0
C5111 C 0.10058 0.58664 0.6962 0.0
C5112 C 0.07884 0.5898 0.70135 0.0
C5113 C 0.08365 0.59545 0.71301 0.0
C5114 C 0.09695 0.59605 0.71639 0.0
C5115 C 0.10535 0.59159 0.70807 0.0
H5116 H 0.12272 0.27637 0.45137 0.0
H5117 H 0.08473 0.25929 0.43601 0.0
H5118 H 0.12211 0.29338 0.43838 0.0
H5119 H 0.08422 0.27599 0.42277 0.0
H5120 H 0.08111 0.31348 0.40883 0.0
H5121 H 0.08212 0.29741 0.42273 0.0
H5122 H 0.12308 0.29832 0.41797 0.0
H5123 H 0.12208 0.31482 0.40444 0.0
C5124 C 0.11427 0.27622 0.44515 0.0
C5125 C 0.10374 0.26654 0.44477 0.0
C5126 C 0.11394 0.28594 0.43766 0.0
C5127 C 0.1031 0.28614 0.42951 0.0
C5128 C 0.09262 0.27636 0.4291 0.0
C5129 C 0.0929 0.26674 0.43667 0.0
C5130 C 0.09034 0.31028 0.41083 0.0
C5131 C 0.1015 0.3154 0.40559 0.0
C5132 C 0.09092 0.30098 0.41873 0.0
C5133 C 0.10267 0.29643 0.42145 0.0
C5134 C 0.11389 0.30168 0.41624 0.0
C5135 C 0.11332 0.3111 0.40843 0.0
H5136 H 0.435 0.59465 0.27721 0.0
H5137 H 0.44777 0.62864 0.30131 0.0
H5138 H 0.41725 0.5892 0.29007 0.0
H5139 H 0.4301 0.62322 0.31412 0.0
H5140 H 0.40795 0.60215 0.34184 0.0
H5141 H 0.42469 0.60751 0.32801 0.0
H5142 H 0.39685 0.59557 0.29723 0.0
H5143 H 0.38009 0.59001 0.31116 0.0
C5144 C 0.43393 0.60103 0.28516 0.0
C5145 C 0.44289 0.61202 0.2883 0.0
C5146 C 0.42376 0.59791 0.29252 0.0
C5147 C 0.42234 0.6057 0.30319 0.0
C5148 C 0.43108 0.61686 0.30611 0.0
C5149 C 0.44121 0.61998 0.29877 0.0
C5150 C 0.40542 0.60064 0.33211 0.0
C5151 C 0.39275 0.59569 0.32758 0.0
C5152 C 0.41498 0.6038 0.32419 0.0
C5153 C 0.41209 0.60208 0.31151 0.0
C5154 C 0.39941 0.59694 0.30695 0.0
C5155 C 0.3898 0.5938 0.31492 0.0
H5156 H 0.14084 0.73103 0.07415 0.0
H5157 H 0.10477 0.73081 0.09147 0.0
H5158 H 0.14372 0.71099 0.0818 0.0
H5159 H 0.10791 0.7112 0.09954 0.0
H5160 H 0.11118 0.67159 0.10613 0.0
H5161 H 0.10813 0.68925 0.0946 0.0
H5162 H 0.14901 0.7033 0.10095 0.0
H5163 H 0.15206 0.6854 0.11225 0.0
C5164 C 0.13346 0.72665 0.07948 0.0
C5165 C 0.12261 0.73258 0.08226 0.0
C5166 C 0.13519 0.71523 0.08399 0.0
C5167 C 0.12609 0.70947 0.09134 0.0
C5168 C 0.11506 0.71524 0.0938 0.0
C5169 C 0.11333 0.72661 0.08929 0.0
C5170 C 0.11953 0.6784 0.10495 0.0
C5171 C 0.13183 0.67719 0.11018 0.0
C5172 C 0.11778 0.68856 0.09839 0.0
C5173 C 0.12828 0.69783 0.09698 0.0
C5174 C 0.14071 0.69629 0.10175 0.0
C5175 C 0.14248 0.68605 0.10824 0.0
H5176 H 0.05405 0.41776 0.79215 0.0
H5177 H 0.03864 0.38644 0.81106 0.0
H5178 H 0.07466 0.41951 0.80435 0.0
H5179 H 0.05911 0.38825 0.82323 0.0
H5180 H 0.09124 0.40387 0.8521 0.0
H5181 H 0.07127 0.40311 0.83937 0.0
H5182 H 0.09345 0.40805 0.80798 0.0
H5183 H 0.11354 0.40878 0.82078 0.0
C5184 C 0.05509 0.41118 0.79882 0.0
C5185 C 0.04465 0.40204 0.8007 0.0
C5186 C 0.06689 0.4122 0.80581 0.0
C5187 C 0.06847 0.40411 0.81484 0.0
C5188 C 0.05812 0.39481 0.81653 0.0
C5189 C 0.04637 0.39378 0.80955 0.0
C5190 C 0.09187 0.40475 0.84247 0.0
C5191 C 0.10397 0.40623 0.83742 0.0
C5192 C 0.08043 0.40431 0.83517 0.0
C5193 C 0.08077 0.40536 0.82263 0.0
C5194 C 0.09288 0.40728 0.81763 0.0
C5195 C 0.10437 0.4077 0.82495 0.0
H5196 H 0.37835 0.27343 0.56959 0.0
H5197 H 0.34772 0.28216 0.54525 0.0
H5198 H 0.37859 0.29361 0.58173 0.0
H5199 H 0.34806 0.30252 0.55741 0.0
H5200 H 0.34491 0.33181 0.59133 0.0
H5201 H 0.34337 0.31144 0.57889 0.0
H5202 H 0.38507 0.31617 0.57814 0.0
H5203 H 0.38659 0.33644 0.59047 0.0
C5204 C 0.37159 0.27963 0.56689 0.0
C5205 C 0.36301 0.2762 0.55647 0.0
C5206 C 0.37181 0.29123 0.57379 0.0
C5207 C 0.36339 0.29967 0.57048 0.0
C5208 C 0.35462 0.29618 0.5602 0.0
C5209 C 0.3545 0.28458 0.5532 0.0
C5210 C 0.35372 0.32849 0.58846 0.0
C5211 C 0.36589 0.33566 0.59189 0.0
C5212 C 0.35283 0.31688 0.58131 0.0
C5213 C 0.3641 0.31219 0.57762 0.0
C5214 C 0.37623 0.31946 0.58097 0.0
C5215 C 0.3771 0.33108 0.58798 0.0
H5216 H 0.15446 0.42919 0.35337 0.0
H5217 H 0.17393 0.42915 0.38891 0.0
H5218 H 0.14336 0.40806 0.35472 0.0
H5219 H 0.16285 0.40779 0.39017 0.0
H5220 H 0.14581 0.36424 0.38054 0.0
H5221 H 0.15963 0.38452 0.3799 0.0
H5222 H 0.12601 0.40101 0.36857 0.0
H5223 H 0.11231 0.38109 0.36943 0.0
C5224 C 0.15643 0.42464 0.36145 0.0
C5225 C 0.16489 0.43095 0.37113 0.0
C5226 C 0.15009 0.41253 0.36221 0.0
C5227 C 0.15208 0.40637 0.37264 0.0
C5228 C 0.16114 0.41232 0.38202 0.0
C5229 C 0.16749 0.42452 0.38129 0.0
C5230 C 0.1414 0.37226 0.37806 0.0
C5231 C 0.12801 0.37098 0.37478 0.0
C5232 C 0.1493 0.38383 0.37766 0.0
C5233 C 0.14392 0.39425 0.37393 0.0
C5234 C 0.13048 0.39306 0.37116 0.0
C5235 C 0.12264 0.38162 0.37164 0.0
H5236 H 0.68548 0.07969 0.64882 0.0
H5237 H 0.70473 0.08697 0.6162 0.0
H5238 H 0.67757 0.09992 0.64925 0.0
H5239 H 0.69711 0.10755 0.61684 0.0
H5240 H 0.66673 0.13587 0.61496 0.0
H5241 H 0.67672 0.11651 0.61398 0.0
H5242 H 0.68516 0.12216 0.65299 0.0
H5243 H 0.67496 0.14127 0.65395 0.0
C5244 C 0.68807 0.08564 0.64175 0.0
C5245 C 0.69568 0.08166 0.63244 0.0
C5246 C 0.68364 0.09732 0.64207 0.0
C5247 C 0.68673 0.1054 0.6331 0.0
C5248 C 0.69448 0.10151 0.62384 0.0
C5249 C 0.69895 0.08979 0.62354 0.0
C5250 C 0.67084 0.13301 0.62329 0.0
C5251 C 0.67001 0.14001 0.63455 0.0
C5252 C 0.67661 0.12195 0.62273 0.0
C5253 C 0.68164 0.11771 0.63342 0.0
C5254 C 0.68118 0.12501 0.6446 0.0
C5255 C 0.67541 0.136 0.64515 0.0
H5256 H 0.73343 0.99675 0.38175 0.0
H5257 H 0.74306 0.97074 0.35252 0.0
H5258 H 0.71222 0.98416 0.382 0.0
H5259 H 0.72196 0.95793 0.35303 0.0
H5260 H 0.67819 0.94389 0.35054 0.0
H5261 H 0.6984 0.95787 0.34895 0.0
H5262 H 0.7043 0.96347 0.38819 0.0
H5263 H 0.68408 0.94963 0.38975 0.0
C5264 C 0.73097 0.98842 0.37529 0.0
C5265 C 0.73995 0.98473 0.36714 0.0
C5266 C 0.71887 0.98113 0.37552 0.0
C5267 C 0.71544 0.97 0.36759 0.0
C5268 C 0.72427 0.96649 0.3592 0.0
C5269 C 0.73641 0.97376 0.359 0.0
C5270 C 0.68378 0.94817 0.35881 0.0
C5271 C 0.67958 0.94572 0.37029 0.0
C5272 C 0.69538 0.95612 0.3579 0.0
C5273 C 0.70293 0.96181 0.36844 0.0
C5274 C 0.69862 0.9594 0.3799 0.0
C5275 C 0.68708 0.95142 0.3808 0.0
H5276 H 0.82759 0.94204 0.16475 0.0
H5277 H 0.8006 0.92638 0.13426 0.0
H5278 H 0.83929 0.92402 0.16175 0.0
H5279 H 0.81212 0.9081 0.13146 0.0
H5280 H 0.8474 0.88757 0.12131 0.0
H5281 H 0.83319 0.90364 0.12459 0.0
H5282 H 0.83733 0.90146 0.16337 0.0
H5283 H 0.85153 0.8854 0.16009 0.0
C5284 C 0.82412 0.93471 0.15744 0.0
C5285 C 0.81321 0.93569 0.1497 0.0
C5286 C 0.83074 0.9243 0.1558 0.0
C5287 C 0.82664 0.9146 0.14637 0.0
C5288 C 0.81559 0.91546 0.13875 0.0
C5289 C 0.80892 0.92587 0.14043 0.0
C5290 C 0.84508 0.89035 0.13051 0.0
C5291 C 0.85069 0.88529 0.14045 0.0
C5292 C 0.83693 0.89957 0.1324 0.0
C5293 C 0.83422 0.90393 0.14426 0.0
C5294 C 0.83943 0.89849 0.15414 0.0
C5295 C 0.84755 0.88928 0.15226 0.0
H5296 H 0.28435 0.51357 0.35649 0.0
H5297 H 0.261 0.53414 0.33437 0.0
H5298 H 0.30362 0.52816 0.35347 0.0
H5299 H 0.28025 0.54873 0.33139 0.0
H5300 H 0.3128 0.58138 0.34601 0.0
H5301 H 0.29398 0.56517 0.3449 0.0
H5302 H 0.3187 0.53639 0.33872 0.0
H5303 H 0.33765 0.55272 0.34009 0.0
C5304 C 0.28337 0.52105 0.35078 0.0
C5305 C 0.27111 0.52278 0.3458 0.0
C5306 C 0.29442 0.52941 0.34904 0.0
C5307 C 0.29345 0.53968 0.34228 0.0
C5308 C 0.28128 0.54105 0.33683 0.0
C5309 C 0.27025 0.5327 0.33856 0.0
C5310 C 0.3142 0.57159 0.34431 0.0
C5311 C 0.3267 0.5683 0.34322 0.0
C5312 C 0.3034 0.5623 0.34356 0.0
C5313 C 0.30484 0.54947 0.34176 0.0
C5314 C 0.3173 0.54618 0.34023 0.0
C5315 C 0.32812 0.55552 0.3409 0.0
H5316 H 0.34443 0.56148 0.88635 0.0
H5317 H 0.3159 0.57502 0.863 0.0
H5318 H 0.35725 0.58233 0.88884 0.0
H5319 H 0.32869 0.59593 0.86562 0.0
H5320 H 0.35068 0.63463 0.88071 0.0
H5321 H 0.33688 0.61437 0.88088 0.0
H5322 H 0.37008 0.59503 0.87521 0.0
H5323 H 0.38382 0.6152 0.87525 0.0
C5324 C 0.34089 0.5689 0.88175 0.0
C5325 C 0.3292 0.56653 0.87437 0.0
C5326 C 0.34822 0.58085 0.8832 0.0
C5327 C 0.34402 0.59075 0.87737 0.0
C5328 C 0.33211 0.58853 0.87034 0.0
C5329 C 0.32479 0.57654 0.86884 0.0
C5330 C 0.35502 0.62604 0.87967 0.0
C5331 C 0.3683 0.62647 0.87791 0.0
C5332 C 0.34712 0.61446 0.87966 0.0
C5333 C 0.3524 0.60311 0.87804 0.0
C5334 C 0.36575 0.6036 0.87661 0.0
C5335 C 0.37359 0.61514 0.87652 0.0
H5336 H 0.72916 0.02808 0.17692 0.0
H5337 H 0.72816 0.03713 0.13973 0.0
H5338 H 0.70738 0.03387 0.17873 0.0
H5339 H 0.70674 0.04328 0.14165 0.0
H5340 H 0.66418 0.04337 0.14432 0.0
H5341 H 0.68454 0.03466 0.1435 0.0
H5342 H 0.69674 0.05293 0.17965 0.0
H5343 H 0.67614 0.06138 0.18055 0.0
C5344 C 0.72426 0.03121 0.16911 0.0
C5345 C 0.73041 0.0322 0.1582 0.0
C5346 C 0.71185 0.03464 0.17019 0.0
C5347 C 0.70531 0.03905 0.16034 0.0
C5348 C 0.7114 0.03979 0.14937 0.0
C5349 C 0.72376 0.0364 0.14831 0.0
C5350 C 0.67117 0.0454 0.15214 0.0
C5351 C 0.66863 0.05309 0.16245 0.0
C5352 C 0.68286 0.04048 0.15165 0.0
C5353 C 0.69235 0.04322 0.16146 0.0
C5354 C 0.68961 0.05057 0.17198 0.0
C5355 C 0.67784 0.05546 0.17248 0.0
H5356 H 0.80439 0.01632 0.66898 0.0
H5357 H 0.80307 1.00365 0.63062 0.0
H5358 H 0.82413 1.00693 0.6724 0.0
H5359 H 0.82261 0.99402 0.63402 0.0
H5360 H 0.86454 0.98861 0.64181 0.0
H5361 H 0.84527 0.9988 0.63881 0.0
H5362 H 0.83207 0.98721 0.67284 0.0
H5363 H 0.85162 0.97741 0.67598 0.0
C5364 C 0.80827 0.01145 0.66129 0.0
C5365 C 0.80218 0.01077 0.64952 0.0
C5366 C 0.81958 1.00602 0.66325 0.0
C5367 C 0.82502 0.99969 0.6535 0.0
C5368 C 0.81888 0.99901 0.64173 0.0
C5369 C 0.80764 1.00452 0.63977 0.0
C5370 C 0.85752 0.98831 0.64866 0.0
C5371 C 0.85959 0.98225 0.65912 0.0
C5372 C 0.84642 0.99406 0.64691 0.0
C5373 C 0.83702 0.9938 0.65555 0.0
C5374 C 0.83916 0.98776 0.66607 0.0
C5375 C 0.85034 0.98208 0.66785 0.0
loop_
_geom_bond_atom_site_label_1
_geom_bond_atom_site_label_2
_geom_bond_distance
_geom_bond_site_symmetry_2
_ccdc_geom_bond_type
C0 C1 1.264 . S
C0 C5 1.479 . S
C0 C10 1.465 . S
C1 C0 1.264 . S
C1 C3 1.339 . S
C1 H28 0.931 . S
C2 C3 1.395 . S
C2 C4 1.320 . S
C3 C1 1.339 . S
C3 C2 1.395 . S
C3 H29 0.929 . S
C4 C2 1.320 . S
C4 C5 1.405 . S
C4 H30 0.930 . S
C5 C0 1.479 . S
C5 C4 1.405 . S
C5 H31 0.931 . S
U6 O7 2.454 . S
U6 O8 2.458 1_655 S
U6 C9 2.984 1_655 S
U6 C10 2.847 . S
U6 C23 2.882 1_655 S
U6 O24 2.441 . S
U6 O25 2.420 . S
U6 O26 2.455 1_655 S
U6 O27 2.435 1_655 S
O7 U6 2.454 . S
O7 C9 1.353 1_655 S
O8 U6 2.458 1_455 S
O8 C9 1.286 . S
C9 U6 2.984 1_455 S
C9 O7 1.353 1_455 S
C9 O8 1.286 . S
C9 C11 1.363 . S
C10 C0 1.465 . S
C10 U6 2.847 . S
C10 O24 1.249 . S
C10 O25 1.202 . S
C11 C9 1.363 . S
C11 C13 1.420 . S
C11 C16 1.342 . S
C12 C13 1.318 . S
C12 C15 1.461 . S
C12 H32 0.932 1_455 S
C13 C11 1.420 . S
C13 C12 1.318 . S
C13 H33 0.910 1_455 S
C14 C15 1.474 . S
C14 C16 1.285 . S
C14 H34 0.929 . S
C15 C12 1.461 . S
C15 C14 1.474 . S
C16 C11 1.342 . S
C16 C14 1.285 . S
C16 H35 0.930 . S
C17 C20 1.424 . S
C17 C22 1.245 . S
C17 C23 1.428 . S
C18 C21 1.260 . S
C18 C22 1.477 . S
C18 H36 0.932 . S
C19 C20 1.384 . S
C19 C21 1.479 . S
C19 H37 0.929 . S
C20 C17 1.424 . S
C20 C19 1.384 . S
C20 H38 0.928 . S
C21 C18 1.260 . S
C21 C19 1.479 . S
C22 C17 1.245 . S
C22 C18 1.477 . S
C22 H39 0.932 . S
C23 U6 2.882 1_455 S
C23 C17 1.428 . S
C23 O26 1.301 . S
C23 O27 1.351 . S
O24 U6 2.441 . S
O24 C10 1.249 . S
O25 U6 2.420 . S
O25 C10 1.202 . S
O26 U6 2.455 1_455 S
O26 C23 1.301 . S
O27 U6 2.435 1_455 S
O27 C23 1.351 . S
H28 C1 0.931 . S
H29 C3 0.929 . S
H30 C4 0.930 . S
H31 C5 0.931 . S
H32 C12 0.932 1_655 S
H33 C13 0.910 1_655 S
H34 C14 0.929 . S
H35 C16 0.930 . S
H36 C18 0.932 . S
H37 C19 0.929 . S
H38 C20 0.928 . S
H39 C22 0.932 . S
C40 C41 1.264 . S
C40 C45 1.479 . S
C40 C50 1.465 . S
C41 C40 1.264 . S
C41 C43 1.339 . S
C41 H68 0.931 . S
C42 C43 1.395 . S
C42 C44 1.320 . S
C43 C41 1.339 . S
C43 C42 1.395 . S
C43 H69 0.929 . S
C44 C42 1.320 . S
C44 C45 1.405 . S
C44 H70 0.930 . S
C45 C40 1.479 . S
C45 C44 1.405 . S
C45 H71 0.931 . S
U46 O47 2.454 . S
U46 O48 2.458 . S
U46 C49 2.984 . S
U46 C50 2.847 . S
U46 C63 2.882 . S
U46 O64 2.441 . S
U46 O65 2.420 . S
U46 O66 2.455 . S
U46 O67 2.449 . S
O47 U46 2.454 . S
O47 C49 1.353 . S
O48 U46 2.458 . S
O48 C49 1.286 . S
C49 U46 2.984 . S
C49 O47 1.353 . S
C49 O48 1.286 . S
C49 C51 1.363 . S
C50 C40 1.465 . S
C50 U46 2.847 . S
C50 O64 1.249 . S
C50 O65 1.202 . S
C51 C49 1.363 . S
C51 C53 1.408 . S
C51 C56 1.342 . S
C52 C53 1.310 . S
C52 C55 1.461 . S
C52 H72 0.932 . S
C53 C51 1.408 . S
C53 C52 1.310 . S
C53 H73 0.930 . S
C54 C55 1.474 . S
C54 C56 1.285 . S
C54 H74 0.929 . S
C55 C52 1.461 . S
C55 C54 1.474 . S
C56 C51 1.342 . S
C56 C54 1.285 . S
C56 H75 0.930 . S
C57 C60 1.424 . S
C57 C62 1.245 . S
C57 C63 1.428 . S
C58 C61 1.260 . S
C58 C62 1.477 . S
C58 H76 0.932 . S
C59 C60 1.384 . S
C59 C61 1.479 . S
C59 H77 0.929 . S
C60 C57 1.424 . S
C60 C59 1.384 . S
C60 H78 0.928 . S
C61 C58 1.260 . S
C61 C59 1.479 . S
C62 C57 1.245 . S
C62 C58 1.477 . S
C62 H79 0.932 . S
C63 U46 2.882 . S
C63 C57 1.428 . S
C63 O66 1.301 . S
C63 O67 1.282 . S
O64 U46 2.441 . S
O64 C50 1.249 . S
O65 U46 2.420 . S
O65 C50 1.202 . S
O66 U46 2.455 . S
O66 C63 1.301 . S
O67 U46 2.449 . S
O67 C63 1.282 . S
H68 C41 0.931 . S
H69 C43 0.929 . S
H70 C44 0.930 . S
H71 C45 0.931 . S
H72 C52 0.932 . S
H73 C53 0.930 . S
H74 C54 0.929 . S
H75 C56 0.930 . S
H76 C58 0.932 . S
H77 C59 0.929 . S
H78 C60 0.928 . S
H79 C62 0.932 . S
C80 C81 1.264 . S
C80 C85 1.479 . S
C80 C90 1.465 . S
C81 C80 1.264 . S
C81 C83 1.339 . S
C81 H108 0.931 . S
C82 C83 1.395 . S
C82 C84 1.320 . S
C83 C81 1.339 . S
C83 C82 1.395 . S
C83 H109 0.929 . S
C84 C82 1.320 . S
C84 C85 1.405 . S
C84 H110 0.930 . S
C85 C80 1.479 . S
C85 C84 1.405 . S
C85 H111 0.931 . S
U86 O87 2.454 . S
U86 O88 2.458 . S
U86 C89 2.984 . S
U86 C90 2.847 . S
U86 C103 2.882 . S
U86 O104 2.441 . S
U86 O105 2.420 . S
U86 O106 2.455 . S
U86 O107 2.449 . S
O87 U86 2.454 . S
O87 C89 1.353 . S
O88 U86 2.458 . S
O88 C89 1.286 . S
C89 U86 2.984 . S
C89 O87 1.353 . S
C89 O88 1.286 . S
C89 C91 1.363 . S
C90 C80 1.465 . S
C90 U86 2.847 . S
C90 O104 1.249 . S
C90 O105 1.202 . S
C91 C89 1.363 . S
C91 C93 1.408 . S
C91 C96 1.342 . S
C92 C93 1.310 . S
C92 C95 1.461 . S
C92 H112 0.932 . S
C93 C91 1.408 . S
C93 C92 1.310 . S
C93 H113 0.930 . S
C94 C95 1.474 . S
C94 C96 1.285 . S
C94 H114 0.929 . S
C95 C92 1.461 . S
C95 C94 1.474 . S
C96 C91 1.342 . S
C96 C94 1.285 . S
C96 H115 0.930 . S
C97 C100 1.424 . S
C97 C102 1.245 . S
C97 C103 1.428 . S
C98 C101 1.260 . S
C98 C102 1.477 . S
C98 H116 0.932 . S
C99 C100 1.384 . S
C99 C101 1.479 . S
C99 H117 0.929 . S
C100 C97 1.424 . S
C100 C99 1.384 . S
C100 H118 0.928 . S
C101 C98 1.260 . S
C101 C99 1.479 . S
C102 C97 1.245 . S
C102 C98 1.477 . S
C102 H119 0.932 . S
C103 U86 2.882 . S
C103 C97 1.428 . S
C103 O106 1.301 . S
C103 O107 1.282 . S
O104 U86 2.441 . S
O104 C90 1.249 . S
O105 U86 2.420 . S
O105 C90 1.202 . S
O106 U86 2.455 . S
O106 C103 1.301 . S
O107 U86 2.449 . S
O107 C103 1.282 . S
H108 C81 0.931 . S
H109 C83 0.929 . S
H110 C84 0.930 . S
H111 C85 0.931 . S
H112 C92 0.932 . S
H113 C93 0.930 . S
H114 C94 0.929 . S
H115 C96 0.930 . S
H116 C98 0.932 . S
H117 C99 0.929 . S
H118 C100 0.928 . S
H119 C102 0.932 . S
C120 C121 1.264 . S
C120 C125 1.479 . S
C120 C130 1.465 . S
C121 C120 1.264 . S
C121 C123 1.339 . S
C121 H148 0.931 . S
C122 C123 1.395 . S
C122 C124 1.320 . S
C123 C121 1.339 . S
C123 C122 1.395 . S
C123 H149 0.929 . S
C124 C122 1.320 . S
C124 C125 1.405 . S
C124 H150 0.930 . S
C125 C120 1.479 . S
C125 C124 1.405 . S
C125 H151 0.931 . S
U126 O127 2.454 . S
U126 O128 2.458 . S
U126 C129 2.984 . S
U126 C130 2.847 . S
U126 C143 2.882 . S
U126 O144 2.441 . S
U126 O145 2.420 . S
U126 O146 2.455 . S
U126 O147 2.449 . S
O127 U126 2.454 . S
O127 C129 1.353 . S
O128 U126 2.458 . S
O128 C129 1.286 . S
C129 U126 2.984 . S
C129 O127 1.353 . S
C129 O128 1.286 . S
C129 C131 1.363 . S
C130 C120 1.465 . S
C130 U126 2.847 . S
C130 O144 1.249 . S
C130 O145 1.202 . S
C131 C129 1.363 . S
C131 C133 1.408 . S
C131 C136 1.342 . S
C132 C133 1.310 1_556 S
C132 C135 1.461 . S
C132 H152 0.932 . S
C133 C131 1.408 . S
C133 C132 1.310 1_554 S
C133 H153 0.930 . S
C134 C135 1.500 . S
C134 C136 1.254 1_556 S
C134 H154 0.936 . S
C135 C132 1.461 . S
C135 C134 1.500 . S
C136 C131 1.342 . S
C136 C134 1.254 1_554 S
C136 H155 0.930 . S
C137 C140 1.424 . S
C137 C142 1.245 . S
C137 C143 1.428 . S
C138 C141 1.260 . S
C138 C142 1.477 . S
C138 H156 0.932 . S
C139 C140 1.384 . S
C139 C141 1.479 . S
C139 H157 0.929 . S
C140 C137 1.424 . S
C140 C139 1.384 . S
C140 H158 0.928 . S
C141 C138 1.260 . S
C141 C139 1.479 . S
C142 C137 1.245 . S
C142 C138 1.477 . S
C142 H159 0.932 . S
C143 U126 2.882 . S
C143 C137 1.428 . S
C143 O146 1.301 . S
C143 O147 1.282 . S
O144 U126 2.441 . S
O144 C130 1.249 . S
O145 U126 2.420 . S
O145 C130 1.202 . S
O146 U126 2.455 . S
O146 C143 1.301 . S
O147 U126 2.449 . S
O147 C143 1.282 . S
H148 C121 0.931 . S
H149 C123 0.929 . S
H150 C124 0.930 . S
H151 C125 0.931 . S
H152 C132 0.932 . S
H153 C133 0.930 . S
H154 C134 0.936 . S
H155 C136 0.930 . S
H156 C138 0.932 . S
H157 C139 0.929 . S
H158 C140 0.928 . S
H159 C142 0.932 . S
C160 C161 1.264 . S
C160 C165 1.479 . S
C160 C170 1.465 . S
C161 C160 1.264 . S
C161 C163 1.339 . S
C161 H188 0.931 . S
C162 C163 1.395 . S
C162 C164 1.320 . S
C163 C161 1.339 . S
C163 C162 1.395 . S
C163 H189 0.929 . S
C164 C162 1.320 . S
C164 C165 1.405 . S
C164 H190 0.930 . S
C165 C160 1.479 . S
C165 C164 1.405 . S
C165 H191 0.931 . S
U166 O167 2.454 . S
U166 O168 2.458 . S
U166 C169 2.984 . S
U166 C170 2.847 1_455 S
U166 C183 2.882 . S
U166 O184 2.385 1_455 S
U166 O185 2.420 . S
U166 O186 2.455 . S
U166 O187 2.449 . S
O167 U166 2.454 . S
O167 C169 1.353 . S
O168 U166 2.458 . S
O168 C169 1.286 . S
C169 U166 2.984 . S
C169 O167 1.353 . S
C169 O168 1.286 . S
C169 C171 1.363 . S
C170 C160 1.465 . S
C170 U166 2.847 1_655 S
C170 O184 1.264 . S
C170 O185 1.202 1_655 S
C171 C169 1.363 . S
C171 C173 1.408 . S
C171 C176 1.342 . S
C172 C173 1.310 . S
C172 C175 1.461 . S
C172 H192 0.932 . S
C173 C171 1.408 . S
C173 C172 1.310 . S
C173 H193 0.930 . S
C174 C175 1.474 . S
C174 C176 1.285 . S
C174 H194 0.929 . S
C175 C172 1.461 . S
C175 C174 1.474 . S
C176 C171 1.342 . S
C176 C174 1.285 . S
C176 H195 0.930 . S
C177 C180 1.424 . S
C177 C182 1.245 . S
C177 C183 1.428 . S
C178 C181 1.260 . S
C178 C182 1.477 . S
C178 H196 0.932 . S
C179 C180 1.384 . S
C179 C181 1.479 . S
C179 H197 0.929 . S
C180 C177 1.424 . S
C180 C179 1.384 . S
C180 H198 0.928 . S
C181 C178 1.260 . S
C181 C179 1.479 . S
C182 C177 1.245 . S
C182 C178 1.477 . S
C182 H199 0.932 . S
C183 U166 2.882 . S
C183 C177 1.428 . S
C183 O186 1.301 . S
C183 O187 1.282 . S
O184 U166 2.385 1_655 S
O184 C170 1.264 . S
O185 U166 2.420 . S
O185 C170 1.202 1_455 S
O186 U166 2.455 . S
O186 C183 1.301 . S
O187 U166 2.449 . S
O187 C183 1.282 . S
H188 C161 0.931 . S
H189 C163 0.929 . S
H190 C164 0.930 . S
H191 C165 0.931 . S
H192 C172 0.932 . S
H193 C173 0.930 . S
H194 C174 0.929 . S
H195 C176 0.930 . S
H196 C178 0.932 . S
H197 C179 0.929 . S
H198 C180 0.928 . S
H199 C182 0.932 . S
C200 C201 1.264 . S
C200 C205 1.479 . S
C200 C210 1.465 . S
C201 C200 1.264 . S
C201 C203 1.339 . S
C201 H228 0.931 . S
C202 C203 1.395 . S
C202 C204 1.320 . S
C203 C201 1.339 . S
C203 C202 1.395 . S
C203 H229 0.929 . S
C204 C202 1.320 . S
C204 C205 1.405 . S
C204 H230 0.930 . S
C205 C200 1.479 . S
C205 C204 1.405 . S
C205 H231 0.931 . S
U206 O207 2.454 . S
U206 O208 2.458 . S
U206 C209 2.984 . S
U206 C210 2.847 . S
U206 C223 2.882 . S
U206 O224 2.441 . S
U206 O225 2.420 . S
U206 O226 2.455 . S
U206 O227 2.449 . S
O207 U206 2.454 . S
O207 C209 1.353 . S
O208 U206 2.458 . S
O208 C209 1.286 . S
C209 U206 2.984 . S
C209 O207 1.353 . S
C209 O208 1.286 . S
C209 C211 1.363 . S
C210 C200 1.465 . S
C210 U206 2.847 . S
C210 O224 1.249 . S
C210 O225 1.202 . S
C211 C209 1.363 . S
C211 C213 1.408 . S
C211 C216 1.342 . S
C212 C213 1.310 . S
C212 C215 1.461 . S
C212 H232 0.932 . S
C213 C211 1.408 . S
C213 C212 1.310 . S
C213 H233 0.930 . S
C214 C215 1.474 . S
C214 C216 1.285 . S
C214 H234 0.929 . S
C215 C212 1.461 . S
C215 C214 1.474 . S
C216 C211 1.342 . S
C216 C214 1.285 . S
C216 H235 0.930 . S
C217 C220 1.424 . S
C217 C222 1.245 . S
C217 C223 1.428 . S
C218 C221 1.260 . S
C218 C222 1.477 . S
C218 H236 0.932 . S
C219 C220 1.384 . S
C219 C221 1.479 . S
C219 H237 0.929 . S
C220 C217 1.424 . S
C220 C219 1.384 . S
C220 H238 0.928 . S
C221 C218 1.260 . S
C221 C219 1.479 . S
C222 C217 1.245 . S
C222 C218 1.477 . S
C222 H239 0.932 . S
C223 U206 2.882 . S
C223 C217 1.428 . S
C223 O226 1.301 . S
C223 O227 1.282 . S
O224 U206 2.441 . S
O224 C210 1.249 . S
O225 U206 2.420 . S
O225 C210 1.202 . S
O226 U206 2.455 . S
O226 C223 1.301 . S
O227 U206 2.449 . S
O227 C223 1.282 . S
H228 C201 0.931 . S
H229 C203 0.929 . S
H230 C204 0.930 . S
H231 C205 0.931 . S
H232 C212 0.932 . S
H233 C213 0.930 . S
H234 C214 0.929 . S
H235 C216 0.930 . S
H236 C218 0.932 . S
H237 C219 0.929 . S
H238 C220 0.928 . S
H239 C222 0.932 . S
C240 C241 1.264 . S
C240 C245 1.479 . S
C240 C250 1.465 . S
C241 C240 1.264 . S
C241 C243 1.339 . S
C241 H268 0.931 . S
C242 C243 1.395 . S
C242 C244 1.320 . S
C243 C241 1.339 . S
C243 C242 1.395 . S
C243 H269 0.929 . S
C244 C242 1.320 . S
C244 C245 1.405 . S
C244 H270 0.930 . S
C245 C240 1.479 . S
C245 C244 1.405 . S
C245 H271 0.931 . S
U246 O247 2.454 . S
U246 O248 2.458 . S
U246 C249 2.984 . S
U246 C250 2.847 . S
U246 C263 2.882 . S
U246 O264 2.441 . S
U246 O265 2.420 . S
U246 O266 2.455 . S
U246 O267 2.449 . S
O247 U246 2.454 . S
O247 C249 1.353 . S
O248 U246 2.458 . S
O248 C249 1.286 . S
C249 U246 2.984 . S
C249 O247 1.353 . S
C249 O248 1.286 . S
C249 C251 1.363 . S
C250 C240 1.465 . S
C250 U246 2.847 . S
C250 O264 1.249 . S
C250 O265 1.202 . S
C251 C249 1.363 . S
C251 C253 1.408 . S
C251 C256 1.342 . S
C252 C253 1.310 . S
C252 C255 1.461 . S
C252 H272 0.932 . S
C253 C251 1.408 . S
C253 C252 1.310 . S
C253 H273 0.930 . S
C254 C255 1.474 . S
C254 C256 1.285 . S
C254 H274 0.929 . S
C255 C252 1.461 . S
C255 C254 1.474 . S
C256 C251 1.342 . S
C256 C254 1.285 . S
C256 H275 0.930 . S
C257 C260 1.424 . S
C257 C262 1.245 . S
C257 C263 1.428 . S
C258 C261 1.260 . S
C258 C262 1.477 . S
C258 H276 0.932 . S
C259 C260 1.384 . S
C259 C261 1.479 . S
C259 H277 0.929 . S
C260 C257 1.424 . S
C260 C259 1.384 . S
C260 H278 0.928 . S
C261 C258 1.260 . S
C261 C259 1.479 . S
C262 C257 1.245 . S
C262 C258 1.477 . S
C262 H279 0.932 . S
C263 U246 2.882 . S
C263 C257 1.428 . S
C263 O266 1.301 . S
C263 O267 1.282 . S
O264 U246 2.441 . S
O264 C250 1.249 . S
O265 U246 2.420 . S
O265 C250 1.202 . S
O266 U246 2.455 . S
O266 C263 1.301 . S
O267 U246 2.449 . S
O267 C263 1.282 . S
H268 C241 0.931 . S
H269 C243 0.929 . S
H270 C244 0.930 . S
H271 C245 0.931 . S
H272 C252 0.932 . S
H273 C253 0.930 . S
H274 C254 0.929 . S
H275 C256 0.930 . S
H276 C258 0.932 . S
H277 C259 0.929 . S
H278 C260 0.928 . S
H279 C262 0.932 . S
C280 C281 1.289 . S
C280 C285 1.537 . S
C280 C290 1.389 1_554 S
C281 C280 1.289 . S
C281 C283 1.339 . S
C281 H308 0.931 1_554 S
C282 C283 1.395 . S
C282 C284 1.320 . S
C283 C281 1.339 . S
C283 C282 1.395 . S
C283 H309 0.929 . S
C284 C282 1.320 . S
C284 C285 1.405 . S
C284 H310 0.930 . S
C285 C280 1.537 . S
C285 C284 1.405 . S
C285 H311 0.931 . S
U286 O287 2.454 . S
U286 O288 2.458 . S
U286 C289 2.984 . S
U286 C290 2.847 . S
U286 C303 2.882 . S
U286 O304 2.441 . S
U286 O305 2.420 . S
U286 O306 2.455 . S
U286 O307 2.449 . S
O287 U286 2.454 . S
O287 C289 1.353 . S
O288 U286 2.458 . S
O288 C289 1.286 . S
C289 U286 2.984 . S
C289 O287 1.353 . S
C289 O288 1.286 . S
C289 C291 1.363 . S
C290 C280 1.389 1_556 S
C290 U286 2.847 . S
C290 O304 1.249 . S
C290 O305 1.202 . S
C291 C289 1.363 . S
C291 C293 1.408 . S
C291 C296 1.342 . S
C292 C293 1.310 . S
C292 C295 1.461 . S
C292 H312 0.932 . S
C293 C291 1.408 . S
C293 C292 1.310 . S
C293 H313 0.930 . S
C294 C295 1.474 . S
C294 C296 1.285 . S
C294 H314 0.929 . S
C295 C292 1.461 . S
C295 C294 1.474 . S
C296 C291 1.342 . S
C296 C294 1.285 . S
C296 H315 0.930 . S
C297 C300 1.424 . S
C297 C302 1.245 . S
C297 C303 1.428 . S
C298 C301 1.260 . S
C298 C302 1.477 . S
C298 H316 0.932 . S
C299 C300 1.384 . S
C299 C301 1.479 . S
C299 H317 0.929 . S
C300 C297 1.424 . S
C300 C299 1.384 . S
C300 H318 0.928 . S
C301 C298 1.260 . S
C301 C299 1.479 . S
C302 C297 1.245 . S
C302 C298 1.477 . S
C302 H319 0.932 . S
C303 U286 2.882 . S
C303 C297 1.428 . S
C303 O306 1.301 . S
C303 O307 1.282 . S
O304 U286 2.441 . S
O304 C290 1.249 . S
O305 U286 2.420 . S
O305 C290 1.202 . S
O306 U286 2.455 . S
O306 C303 1.301 . S
O307 U286 2.449 . S
O307 C303 1.282 . S
H308 C281 0.931 1_556 S
H309 C283 0.929 . S
H310 C284 0.930 . S
H311 C285 0.931 . S
H312 C292 0.932 . S
H313 C293 0.930 . S
H314 C294 0.929 . S
H315 C296 0.930 . S
H316 C298 0.932 . S
H317 C299 0.929 . S
H318 C300 0.928 . S
H319 C302 0.932 . S
C320 C321 1.264 . S
C320 C325 1.479 1_545 S
C320 C330 1.465 . S
C321 C320 1.264 . S
C321 C323 1.339 . S
C321 H348 0.931 . S
C322 C323 1.395 . S
C322 C324 1.320 1_545 S
C323 C321 1.339 . S
C323 C322 1.395 . S
C323 H349 0.929 . S
C324 C322 1.320 1_565 S
C324 C325 1.405 . S
C324 H350 0.930 . S
C325 C320 1.479 1_565 S
C325 C324 1.405 . S
C325 H351 0.931 . S
U326 O327 2.454 1_545 S
U326 O328 2.458 1_545 S
U326 C329 2.984 1_545 S
U326 C330 2.847 . S
U326 C343 2.882 . S
U326 O344 2.441 1_545 S
U326 O345 2.420 . S
U326 O346 2.455 . S
U326 O347 2.449 . S
O327 U326 2.454 1_565 S
O327 C329 1.353 . S
O328 U326 2.458 1_565 S
O328 C329 1.286 . S
C329 U326 2.984 1_565 S
C329 O327 1.353 . S
C329 O328 1.286 . S
C329 C331 1.363 . S
C330 C320 1.465 . S
C330 U326 2.847 . S
C330 O344 1.249 1_545 S
C330 O345 1.202 . S
C331 C329 1.363 . S
C331 C333 1.408 . S
C331 C336 1.342 . S
C332 C333 1.310 . S
C332 C335 1.461 . S
C332 H352 0.932 . S
C333 C331 1.408 . S
C333 C332 1.310 . S
C333 H353 0.930 . S
C334 C335 1.474 . S
C334 C336 1.285 . S
C334 H354 0.929 . S
C335 C332 1.461 . S
C335 C334 1.474 . S
C336 C331 1.342 . S
C336 C334 1.285 . S
C336 H355 0.930 . S
C337 C340 1.424 . S
C337 C342 1.245 . S
C337 C343 1.428 . S
C338 C341 1.260 . S
C338 C342 1.477 . S
C338 H356 0.932 . S
C339 C340 1.384 . S
C339 C341 1.479 . S
C339 H357 0.929 . S
C340 C337 1.424 . S
C340 C339 1.384 . S
C340 H358 0.928 . S
C341 C338 1.260 . S
C341 C339 1.479 . S
C342 C337 1.245 . S
C342 C338 1.477 . S
C342 H359 0.932 . S
C343 U326 2.882 . S
C343 C337 1.428 . S
C343 O346 1.301 . S
C343 O347 1.282 . S
O344 U326 2.441 1_565 S
O344 C330 1.249 1_565 S
O345 U326 2.420 . S
O345 C330 1.202 . S
O346 U326 2.455 . S
O346 C343 1.301 . S
O347 U326 2.449 . S
O347 C343 1.282 . S
H348 C321 0.931 . S
H349 C323 0.929 . S
H350 C324 0.930 . S
H351 C325 0.931 . S
H352 C332 0.932 . S
H353 C333 0.930 . S
H354 C334 0.929 . S
H355 C336 0.930 . S
H356 C338 0.932 . S
H357 C339 0.929 . S
H358 C340 0.928 . S
H359 C342 0.932 . S
C360 C361 1.264 . S
C360 C365 1.479 . S
C360 C370 1.465 . S
C361 C360 1.264 . S
C361 C363 1.339 . S
C361 H388 0.931 . S
C362 C363 1.395 . S
C362 C364 1.320 . S
C363 C361 1.339 . S
C363 C362 1.395 . S
C363 H389 0.929 . S
C364 C362 1.320 . S
C364 C365 1.405 . S
C364 H390 0.930 . S
C365 C360 1.479 . S
C365 C364 1.405 . S
C365 H391 0.931 . S
U366 O367 2.454 . S
U366 O368 2.458 . S
U366 C369 2.984 . S
U366 C370 2.847 1_545 S
U366 C383 2.882 . S
U366 O384 2.441 1_545 S
U366 O385 2.420 1_545 S
U366 O386 2.455 . S
U366 O387 2.449 . S
O367 U366 2.454 . S
O367 C369 1.353 . S
O368 U366 2.458 . S
O368 C369 1.286 . S
C369 U366 2.984 . S
C369 O367 1.353 . S
C369 O368 1.286 . S
C369 C371 1.363 . S
C370 C360 1.465 . S
C370 U366 2.847 1_565 S
C370 O384 1.249 . S
C370 O385 1.202 . S
C371 C369 1.363 . S
C371 C373 1.408 . S
C371 C376 1.342 . S
C372 C373 1.310 . S
C372 C375 1.461 . S
C372 H392 0.932 . S
C373 C371 1.408 . S
C373 C372 1.310 . S
C373 H393 0.930 . S
C374 C375 1.474 . S
C374 C376 1.285 . S
C374 H394 0.929 . S
C375 C372 1.461 . S
C375 C374 1.474 . S
C376 C371 1.342 . S
C376 C374 1.285 . S
C376 H395 0.930 . S
C377 C380 1.424 . S
C377 C382 1.245 . S
C377 C383 1.428 . S
C378 C381 1.260 . S
C378 C382 1.477 . S
C378 H396 0.932 . S
C379 C380 1.384 . S
C379 C381 1.479 . S
C379 H397 0.929 . S
C380 C377 1.424 . S
C380 C379 1.384 . S
C380 H398 0.928 . S
C381 C378 1.260 . S
C381 C379 1.479 . S
C382 C377 1.245 . S
C382 C378 1.477 . S
C382 H399 0.932 . S
C383 U366 2.882 . S
C383 C377 1.428 . S
C383 O386 1.301 . S
C383 O387 1.282 . S
O384 U366 2.441 1_565 S
O384 C370 1.249 . S
O385 U366 2.420 1_565 S
O385 C370 1.202 . S
O386 U366 2.455 . S
O386 C383 1.301 . S
O387 U366 2.449 . S
O387 C383 1.282 . S
H388 C361 0.931 . S
H389 C363 0.929 . S
H390 C364 0.930 . S
H391 C365 0.931 . S
H392 C372 0.932 . S
H393 C373 0.930 . S
H394 C374 0.929 . S
H395 C376 0.930 . S
H396 C378 0.932 . S
H397 C379 0.929 . S
H398 C380 0.928 . S
H399 C382 0.932 . S
C400 C401 1.264 . S
C400 C405 1.479 . S
C400 C410 1.465 . S
C401 C400 1.264 . S
C401 C403 1.339 . S
C401 H428 0.931 . S
C402 C403 1.395 . S
C402 C404 1.320 . S
C403 C401 1.339 . S
C403 C402 1.395 . S
C403 H429 0.929 . S
C404 C402 1.320 . S
C404 C405 1.405 . S
C404 H430 0.930 . S
C405 C400 1.479 . S
C405 C404 1.405 . S
C405 H431 0.931 . S
U406 O407 2.454 . S
U406 O408 2.458 . S
U406 C409 2.984 . S
U406 C410 2.847 1_565 S
U406 C423 2.882 . S
U406 O424 2.514 . S
U406 O425 2.420 . S
U406 O426 2.455 . S
U406 O427 2.449 . S
O407 U406 2.454 . S
O407 C409 1.353 . S
O408 U406 2.458 . S
O408 C409 1.286 . S
C409 U406 2.984 . S
C409 O407 1.353 . S
C409 O408 1.286 . S
C409 C411 1.363 . S
C410 C400 1.465 . S
C410 U406 2.847 1_545 S
C410 O424 1.223 1_545 S
C410 O425 1.202 1_545 S
C411 C409 1.363 . S
C411 C413 1.408 . S
C411 C416 1.342 . S
C412 C413 1.310 . S
C412 C415 1.461 . S
C412 H432 0.932 . S
C413 C411 1.408 . S
C413 C412 1.310 . S
C413 H433 0.930 . S
C414 C415 1.474 . S
C414 C416 1.285 . S
C414 H434 0.929 . S
C415 C412 1.461 . S
C415 C414 1.474 . S
C416 C411 1.342 . S
C416 C414 1.285 . S
C416 H435 0.930 . S
C417 C420 1.424 . S
C417 C422 1.245 . S
C417 C423 1.428 . S
C418 C421 1.260 . S
C418 C422 1.477 . S
C418 H436 0.932 . S
C419 C420 1.384 . S
C419 C421 1.479 . S
C419 H437 0.929 . S
C420 C417 1.424 . S
C420 C419 1.384 . S
C420 H438 0.928 . S
C421 C418 1.260 . S
C421 C419 1.479 . S
C422 C417 1.245 . S
C422 C418 1.477 . S
C422 H439 0.932 . S
C423 U406 2.882 . S
C423 C417 1.428 . S
C423 O426 1.301 . S
C423 O427 1.282 . S
O424 U406 2.514 . S
O424 C410 1.223 1_565 S
O425 U406 2.420 . S
O425 C410 1.202 1_565 S
O426 U406 2.455 . S
O426 C423 1.301 . S
O427 U406 2.449 . S
O427 C423 1.282 . S
H428 C401 0.931 . S
H429 C403 0.929 . S
H430 C404 0.930 . S
H431 C405 0.931 . S
H432 C412 0.932 . S
H433 C413 0.930 . S
H434 C414 0.929 . S
H435 C416 0.930 . S
H436 C418 0.932 . S
H437 C419 0.929 . S
H438 C420 0.928 . S
H439 C422 0.932 . S
C440 C441 1.264 . S
C440 C445 1.479 . S
C440 C450 1.465 . S
C441 C440 1.264 . S
C441 C443 1.339 . S
C441 H468 0.931 . S
C442 C443 1.395 . S
C442 C444 1.320 . S
C443 C441 1.339 . S
C443 C442 1.395 . S
C443 H469 0.929 . S
C444 C442 1.320 . S
C444 C445 1.405 . S
C444 H470 0.984 . S
C445 C440 1.479 . S
C445 C444 1.405 . S
C445 H471 0.931 1_565 S
U446 O447 2.444 1_565 S
U446 O448 2.451 1_565 S
U446 C449 2.975 1_565 S
U446 C450 2.849 . S
U446 C463 2.890 . S
U446 O464 2.438 1_565 S
U446 O465 2.426 . S
U446 O466 2.459 . S
U446 O467 2.459 . S
O447 U446 2.444 1_545 S
O447 C449 1.353 . S
O448 U446 2.451 1_545 S
O448 C449 1.286 . S
C449 U446 2.975 1_545 S
C449 O447 1.353 . S
C449 O448 1.286 . S
C449 C451 1.363 . S
C450 C440 1.465 . S
C450 U446 2.849 . S
C450 O464 1.249 1_565 S
C450 O465 1.202 . S
C451 C449 1.363 . S
C451 C453 1.408 . S
C451 C456 1.342 . S
C452 C453 1.310 . S
C452 C455 1.461 . S
C452 H472 0.932 . S
C453 C451 1.408 . S
C453 C452 1.310 . S
C453 H473 0.930 . S
C454 C455 1.474 . S
C454 C456 1.285 . S
C454 H474 0.929 . S
C455 C452 1.461 . S
C455 C454 1.474 . S
C456 C451 1.342 . S
C456 C454 1.285 . S
C456 H475 0.930 . S
C457 C460 1.424 . S
C457 C462 1.245 . S
C457 C463 1.428 . S
C458 C461 1.260 . S
C458 C462 1.477 . S
C458 H476 0.932 . S
C459 C460 1.384 . S
C459 C461 1.479 . S
C459 H477 0.929 . S
C460 C457 1.424 . S
C460 C459 1.384 . S
C460 H478 0.928 . S
C461 C458 1.260 . S
C461 C459 1.479 . S
C462 C457 1.245 . S
C462 C458 1.477 . S
C462 H479 0.932 . S
C463 U446 2.890 . S
C463 C457 1.428 . S
C463 O466 1.301 . S
C463 O467 1.282 . S
O464 U446 2.438 1_545 S
O464 C450 1.249 1_545 S
O465 U446 2.426 . S
O465 C450 1.202 . S
O466 U446 2.459 . S
O466 C463 1.301 . S
O467 U446 2.459 . S
O467 C463 1.282 . S
H468 C441 0.931 . S
H469 C443 0.929 . S
H470 C444 0.984 . S
H471 C445 0.931 1_545 S
H472 C452 0.932 . S
H473 C453 0.930 . S
H474 C454 0.929 . S
H475 C456 0.930 . S
H476 C458 0.932 . S
H477 C459 0.929 . S
H478 C460 0.928 . S
H479 C462 0.932 . S
C480 C481 1.264 . S
C480 C485 1.479 . S
C480 C490 1.465 . S
C481 C480 1.264 . S
C481 C483 1.339 . S
C481 H508 0.931 . S
C482 C483 1.395 . S
C482 C484 1.320 . S
C483 C481 1.339 . S
C483 C482 1.395 . S
C483 H509 0.929 . S
C484 C482 1.320 . S
C484 C485 1.405 . S
C484 H510 0.930 . S
C485 C480 1.479 . S
C485 C484 1.405 . S
C485 H511 0.931 . S
U486 O487 2.454 . S
U486 O488 2.458 . S
U486 C489 2.984 . S
U486 C490 2.847 . S
U486 C503 2.882 . S
U486 O504 2.441 . S
U486 O505 2.420 . S
U486 O506 2.455 . S
U486 O507 2.449 . S
O487 U486 2.454 . S
O487 C489 1.353 . S
O488 U486 2.458 . S
O488 C489 1.286 . S
C489 U486 2.984 . S
C489 O487 1.353 . S
C489 O488 1.286 . S
C489 C491 1.363 . S
C490 C480 1.465 . S
C490 U486 2.847 . S
C490 O504 1.249 . S
C490 O505 1.202 . S
C491 C489 1.363 . S
C491 C493 1.408 1_554 S
C491 C496 1.356 . S
C492 C493 1.310 . S
C492 C495 1.461 . S
C492 H512 0.932 . S
C493 C491 1.408 1_556 S
C493 C492 1.310 . S
C493 H513 0.930 . S
C494 C495 1.474 . S
C494 C496 1.241 1_556 S
C494 H514 0.929 . S
C495 C492 1.461 . S
C495 C494 1.474 . S
C496 C491 1.356 . S
C496 C494 1.241 1_554 S
C496 H515 0.962 . S
C497 C500 1.424 . S
C497 C502 1.245 . S
C497 C503 1.428 . S
C498 C501 1.260 . S
C498 C502 1.477 . S
C498 H516 0.932 . S
C499 C500 1.384 . S
C499 C501 1.479 . S
C499 H517 0.929 . S
C500 C497 1.424 . S
C500 C499 1.384 . S
C500 H518 0.928 . S
C501 C498 1.260 . S
C501 C499 1.479 . S
C502 C497 1.245 . S
C502 C498 1.477 . S
C502 H519 0.932 . S
C503 U486 2.882 . S
C503 C497 1.428 . S
C503 O506 1.301 . S
C503 O507 1.282 . S
O504 U486 2.441 . S
O504 C490 1.249 . S
O505 U486 2.420 . S
O505 C490 1.202 . S
O506 U486 2.455 . S
O506 C503 1.301 . S
O507 U486 2.449 . S
O507 C503 1.282 . S
H508 C481 0.931 . S
H509 C483 0.929 . S
H510 C484 0.930 . S
H511 C485 0.931 . S
H512 C492 0.932 . S
H513 C493 0.930 . S
H514 C494 0.929 . S
H515 C496 0.962 . S
H516 C498 0.932 . S
H517 C499 0.929 . S
H518 C500 0.928 . S
H519 C502 0.932 . S
C520 C521 1.264 . S
C520 C525 1.479 . S
C520 C530 1.465 . S
C521 C520 1.264 . S
C521 C523 1.339 . S
C521 H548 0.931 . S
C522 C523 1.395 . S
C522 C524 1.320 . S
C523 C521 1.339 . S
C523 C522 1.395 . S
C523 H549 0.929 . S
C524 C522 1.320 . S
C524 C525 1.405 . S
C524 H550 0.930 . S
C525 C520 1.479 . S
C525 C524 1.405 . S
C525 H551 0.931 . S
U526 O527 2.464 . S
U526 O528 2.458 . S
U526 C529 2.984 . S
U526 C530 2.847 1_655 S
U526 C543 2.882 . S
U526 O544 2.441 1_655 S
U526 O545 2.420 1_655 S
U526 O546 2.455 . S
U526 O547 2.449 . S
O527 U526 2.464 . S
O527 C529 1.418 . S
O528 U526 2.458 . S
O528 C529 1.286 . S
C529 U526 2.984 . S
C529 O527 1.418 . S
C529 O528 1.286 . S
C529 C531 1.363 . S
C530 C520 1.465 . S
C530 U526 2.847 1_455 S
C530 O544 1.249 . S
C530 O545 1.202 . S
C531 C529 1.363 . S
C531 C533 1.408 . S
C531 C536 1.342 . S
C532 C533 1.310 . S
C532 C535 1.461 . S
C532 H552 0.932 . S
C533 C531 1.408 . S
C533 C532 1.310 . S
C533 H553 0.930 1_655 S
C534 C535 1.474 . S
C534 C536 1.285 . S
C534 H554 0.929 . S
C535 C532 1.461 . S
C535 C534 1.474 . S
C536 C531 1.342 . S
C536 C534 1.285 . S
C536 H555 0.930 . S
C537 C540 1.424 . S
C537 C542 1.245 . S
C537 C543 1.428 . S
C538 C541 1.260 . S
C538 C542 1.477 . S
C538 H556 0.932 . S
C539 C540 1.384 . S
C539 C541 1.479 . S
C539 H557 0.929 . S
C540 C537 1.424 . S
C540 C539 1.384 . S
C540 H558 0.928 . S
C541 C538 1.260 . S
C541 C539 1.479 . S
C542 C537 1.245 . S
C542 C538 1.477 . S
C542 H559 0.932 . S
C543 U526 2.882 . S
C543 C537 1.428 . S
C543 O546 1.301 . S
C543 O547 1.282 . S
O544 U526 2.441 1_455 S
O544 C530 1.249 . S
O545 U526 2.420 1_455 S
O545 C530 1.202 . S
O546 U526 2.455 . S
O546 C543 1.301 . S
O547 U526 2.449 . S
O547 C543 1.282 . S
H548 C521 0.931 . S
H549 C523 0.929 . S
H550 C524 0.930 . S
H551 C525 0.931 . S
H552 C532 0.932 . S
H553 C533 0.930 1_455 S
H554 C534 0.929 . S
H555 C536 0.930 . S
H556 C538 0.932 . S
H557 C539 0.929 . S
H558 C540 0.928 . S
H559 C542 0.932 . S
C560 C561 1.264 . S
C560 C565 1.479 . S
C560 C570 1.465 . S
C561 C560 1.264 . S
C561 C563 1.339 . S
C561 H588 0.931 . S
C562 C563 1.395 . S
C562 C564 1.320 . S
C563 C561 1.339 . S
C563 C562 1.395 . S
C563 H589 0.929 . S
C564 C562 1.320 . S
C564 C565 1.405 . S
C564 H590 0.930 . S
C565 C560 1.479 . S
C565 C564 1.405 . S
C565 H591 0.931 . S
U566 O567 2.454 . S
U566 O568 2.458 . S
U566 C569 2.984 . S
U566 C570 2.847 . S
U566 C583 2.882 . S
U566 O584 2.441 . S
U566 O585 2.420 . S
U566 O586 2.455 . S
U566 O587 2.449 . S
O567 U566 2.454 . S
O567 C569 1.353 . S
O568 U566 2.458 . S
O568 C569 1.286 . S
C569 U566 2.984 . S
C569 O567 1.353 . S
C569 O568 1.286 . S
C569 C571 1.363 . S
C570 C560 1.465 . S
C570 U566 2.847 . S
C570 O584 1.249 . S
C570 O585 1.202 . S
C571 C569 1.363 . S
C571 C573 1.408 . S
C571 C576 1.342 . S
C572 C573 1.310 . S
C572 C575 1.461 . S
C572 H592 0.932 . S
C573 C571 1.408 . S
C573 C572 1.310 . S
C573 H593 0.930 . S
C574 C575 1.474 . S
C574 C576 1.285 . S
C574 H594 0.929 . S
C575 C572 1.461 . S
C575 C574 1.474 . S
C576 C571 1.342 . S
C576 C574 1.285 . S
C576 H595 0.930 . S
C577 C580 1.424 . S
C577 C582 1.245 . S
C577 C583 1.428 . S
C578 C581 1.260 . S
C578 C582 1.477 . S
C578 H596 0.932 . S
C579 C580 1.384 . S
C579 C581 1.479 . S
C579 H597 0.929 . S
C580 C577 1.424 . S
C580 C579 1.384 . S
C580 H598 0.928 . S
C581 C578 1.260 . S
C581 C579 1.479 . S
C582 C577 1.245 . S
C582 C578 1.477 . S
C582 H599 0.932 . S
C583 U566 2.882 . S
C583 C577 1.428 . S
C583 O586 1.301 . S
C583 O587 1.282 . S
O584 U566 2.441 . S
O584 C570 1.249 . S
O585 U566 2.420 . S
O585 C570 1.202 . S
O586 U566 2.455 . S
O586 C583 1.301 . S
O587 U566 2.449 . S
O587 C583 1.282 . S
H588 C561 0.931 . S
H589 C563 0.929 . S
H590 C564 0.930 . S
H591 C565 0.931 . S
H592 C572 0.932 . S
H593 C573 0.930 . S
H594 C574 0.929 . S
H595 C576 0.930 . S
H596 C578 0.932 . S
H597 C579 0.929 . S
H598 C580 0.928 . S
H599 C582 0.932 . S
C600 C601 1.264 . S
C600 C605 1.479 . S
C600 C610 1.465 . S
C601 C600 1.264 . S
C601 C603 1.339 . S
C601 H628 0.931 . S
C602 C603 1.395 . S
C602 C604 1.320 . S
C603 C601 1.339 . S
C603 C602 1.395 . S
C603 H629 0.929 . S
C604 C602 1.320 . S
C604 C605 1.405 . S
C604 H630 0.930 . S
C605 C600 1.479 . S
C605 C604 1.405 . S
C605 H631 0.931 1_655 S
U606 O607 2.454 . S
U606 O608 2.458 . S
U606 C609 2.984 . S
U606 C610 2.847 1_455 S
U606 C623 2.882 1_455 S
U606 O624 2.441 . S
U606 O625 2.420 1_455 S
U606 O626 2.455 . S
U606 O627 2.449 1_455 S
O607 U606 2.454 . S
O607 C609 1.353 . S
O608 U606 2.458 . S
O608 C609 1.286 . S
C609 U606 2.984 . S
C609 O607 1.353 . S
C609 O608 1.286 . S
C609 C611 1.363 . S
C610 C600 1.465 . S
C610 U606 2.847 1_655 S
C610 O624 1.249 1_655 S
C610 O625 1.202 . S
C611 C609 1.363 . S
C611 C613 1.408 . S
C611 C616 1.342 . S
C612 C613 1.310 . S
C612 C615 1.461 . S
C612 H632 0.932 . S
C613 C611 1.408 . S
C613 C612 1.310 . S
C613 H633 0.930 . S
C614 C615 1.474 . S
C614 C616 1.285 . S
C614 H634 0.929 . S
C615 C612 1.461 . S
C615 C614 1.474 . S
C616 C611 1.342 . S
C616 C614 1.285 . S
C616 H635 0.930 . S
C617 C620 1.424 . S
C617 C622 1.245 . S
C617 C623 1.428 . S
C618 C621 1.260 . S
C618 C622 1.477 . S
C618 H636 0.932 . S
C619 C620 1.384 . S
C619 C621 1.479 . S
C619 H637 0.929 . S
C620 C617 1.424 . S
C620 C619 1.384 . S
C620 H638 0.928 . S
C621 C618 1.260 . S
C621 C619 1.479 . S
C622 C617 1.245 . S
C622 C618 1.477 . S
C622 H639 0.932 . S
C623 U606 2.882 1_655 S
C623 C617 1.428 . S
C623 O626 1.301 1_655 S
C623 O627 1.282 . S
O624 U606 2.441 . S
O624 C610 1.249 1_455 S
O625 U606 2.420 1_655 S
O625 C610 1.202 . S
O626 U606 2.455 . S
O626 C623 1.301 1_455 S
O627 U606 2.449 1_655 S
O627 C623 1.282 . S
H628 C601 0.931 . S
H629 C603 0.929 . S
H630 C604 0.930 . S
H631 C605 0.931 1_455 S
H632 C612 0.932 . S
H633 C613 0.930 . S
H634 C614 0.929 . S
H635 C616 0.930 . S
H636 C618 0.932 . S
H637 C619 0.929 . S
H638 C620 0.928 . S
H639 C622 0.932 . S
C640 C641 1.264 . S
C640 C645 1.479 . S
C640 C650 1.465 . S
C641 C640 1.264 . S
C641 C643 1.339 . S
C641 H668 0.931 . S
C642 C643 1.395 . S
C642 C644 1.320 . S
C643 C641 1.339 . S
C643 C642 1.395 . S
C643 H669 0.929 . S
C644 C642 1.320 . S
C644 C645 1.405 . S
C644 H670 0.930 . S
C645 C640 1.479 . S
C645 C644 1.405 . S
C645 H671 0.931 . S
U646 O647 2.454 . S
U646 O648 2.458 . S
U646 C649 2.984 . S
U646 C650 2.847 . S
U646 C663 2.882 . S
U646 O664 2.441 . S
U646 O665 2.420 . S
U646 O666 2.455 . S
U646 O667 2.449 . S
O647 U646 2.454 . S
O647 C649 1.353 . S
O648 U646 2.458 . S
O648 C649 1.286 . S
C649 U646 2.984 . S
C649 O647 1.353 . S
C649 O648 1.286 . S
C649 C651 1.363 . S
C650 C640 1.465 . S
C650 U646 2.847 . S
C650 O664 1.249 . S
C650 O665 1.202 . S
C651 C649 1.363 . S
C651 C653 1.408 . S
C651 C656 1.342 . S
C652 C653 1.310 . S
C652 C655 1.461 . S
C652 H672 0.932 . S
C653 C651 1.408 . S
C653 C652 1.310 . S
C653 H673 0.930 . S
C654 C655 1.474 . S
C654 C656 1.285 . S
C654 H674 0.929 . S
C655 C652 1.461 . S
C655 C654 1.474 . S
C656 C651 1.342 . S
C656 C654 1.285 . S
C656 H675 0.930 . S
C657 C660 1.424 . S
C657 C662 1.245 . S
C657 C663 1.428 . S
C658 C661 1.260 . S
C658 C662 1.477 . S
C658 H676 0.932 . S
C659 C660 1.384 . S
C659 C661 1.479 . S
C659 H677 0.929 . S
C660 C657 1.424 . S
C660 C659 1.384 . S
C660 H678 0.928 . S
C661 C658 1.260 . S
C661 C659 1.479 . S
C662 C657 1.245 . S
C662 C658 1.477 . S
C662 H679 0.932 . S
C663 U646 2.882 . S
C663 C657 1.428 . S
C663 O666 1.301 . S
C663 O667 1.282 . S
O664 U646 2.441 . S
O664 C650 1.249 . S
O665 U646 2.420 . S
O665 C650 1.202 . S
O666 U646 2.455 . S
O666 C663 1.301 . S
O667 U646 2.449 . S
O667 C663 1.282 . S
H668 C641 0.931 . S
H669 C643 0.929 . S
H670 C644 0.930 . S
H671 C645 0.931 . S
H672 C652 0.932 . S
H673 C653 0.930 . S
H674 C654 0.929 . S
H675 C656 0.930 . S
H676 C658 0.932 . S
H677 C659 0.929 . S
H678 C660 0.928 . S
H679 C662 0.932 . S
C680 C681 1.264 . S
C680 C685 1.479 . S
C680 C690 1.465 . S
C681 C680 1.264 . S
C681 C683 1.339 . S
C681 H708 0.931 . S
C682 C683 1.395 . S
C682 C684 1.320 . S
C683 C681 1.339 . S
C683 C682 1.395 . S
C683 H709 0.929 . S
C684 C682 1.320 . S
C684 C685 1.405 . S
C684 H710 0.930 . S
C685 C680 1.479 . S
C685 C684 1.405 . S
C685 H711 0.931 . S
U686 O687 2.454 . S
U686 O688 2.458 . S
U686 C689 2.984 . S
U686 C690 2.847 . S
U686 C703 2.882 . S
U686 O704 2.441 . S
U686 O705 2.420 . S
U686 O706 2.455 . S
U686 O707 2.449 . S
O687 U686 2.454 . S
O687 C689 1.353 . S
O688 U686 2.458 . S
O688 C689 1.286 . S
C689 U686 2.984 . S
C689 O687 1.353 . S
C689 O688 1.286 . S
C689 C691 1.363 . S
C690 C680 1.465 . S
C690 U686 2.847 . S
C690 O704 1.249 . S
C690 O705 1.202 . S
C691 C689 1.363 . S
C691 C693 1.408 . S
C691 C696 1.342 . S
C692 C693 1.310 . S
C692 C695 1.461 . S
C692 H712 0.932 . S
C693 C691 1.408 . S
C693 C692 1.310 . S
C693 H713 0.930 . S
C694 C695 1.474 . S
C694 C696 1.285 . S
C694 H714 0.929 . S
C695 C692 1.461 . S
C695 C694 1.474 . S
C696 C691 1.342 . S
C696 C694 1.285 . S
C696 H715 0.930 . S
C697 C700 1.424 . S
C697 C702 1.245 . S
C697 C703 1.428 . S
C698 C701 1.260 . S
C698 C702 1.477 . S
C698 H716 0.932 . S
C699 C700 1.384 . S
C699 C701 1.479 . S
C699 H717 0.929 . S
C700 C697 1.424 . S
C700 C699 1.384 . S
C700 H718 0.928 . S
C701 C698 1.260 . S
C701 C699 1.479 . S
C702 C697 1.245 . S
C702 C698 1.477 . S
C702 H719 0.932 . S
C703 U686 2.882 . S
C703 C697 1.428 . S
C703 O706 1.301 . S
C703 O707 1.282 . S
O704 U686 2.441 . S
O704 C690 1.249 . S
O705 U686 2.420 . S
O705 C690 1.202 . S
O706 U686 2.455 . S
O706 C703 1.301 . S
O707 U686 2.449 . S
O707 C703 1.282 . S
H708 C681 0.931 . S
H709 C683 0.929 . S
H710 C684 0.930 . S
H711 C685 0.931 . S
H712 C692 0.932 . S
H713 C693 0.930 . S
H714 C694 0.929 . S
H715 C696 0.930 . S
H716 C698 0.932 . S
H717 C699 0.929 . S
H718 C700 0.928 . S
H719 C702 0.932 . S
C720 C721 1.264 . S
C720 C725 1.479 . S
C720 C730 1.465 . S
C721 C720 1.264 . S
C721 C723 1.339 . S
C721 H748 0.931 . S
C722 C723 1.395 . S
C722 C724 1.320 . S
C723 C721 1.339 . S
C723 C722 1.395 . S
C723 H749 0.929 . S
C724 C722 1.320 . S
C724 C725 1.405 . S
C724 H750 0.930 . S
C725 C720 1.479 . S
C725 C724 1.405 . S
C725 H751 0.931 . S
U726 O727 2.454 . S
U726 O728 2.458 . S
U726 C729 2.984 . S
U726 C730 2.847 . S
U726 C743 2.882 . S
U726 O744 2.441 . S
U726 O745 2.420 . S
U726 O746 2.455 . S
U726 O747 2.449 . S
O727 U726 2.454 . S
O727 C729 1.353 . S
O728 U726 2.458 . S
O728 C729 1.286 . S
C729 U726 2.984 . S
C729 O727 1.353 . S
C729 O728 1.286 . S
C729 C731 1.363 1_556 S
C730 C720 1.465 . S
C730 U726 2.847 . S
C730 O744 1.249 . S
C730 O745 1.202 . S
C731 C729 1.363 1_554 S
C731 C733 1.408 . S
C731 C736 1.342 . S
C732 C733 1.310 . S
C732 C735 1.461 . S
C732 H752 0.932 . S
C733 C731 1.408 . S
C733 C732 1.310 . S
C733 H753 0.930 . S
C734 C735 1.474 . S
C734 C736 1.285 . S
C734 H754 0.929 . S
C735 C732 1.461 . S
C735 C734 1.474 . S
C736 C731 1.342 . S
C736 C734 1.285 . S
C736 H755 0.950 . S
C737 C740 1.424 . S
C737 C742 1.245 . S
C737 C743 1.428 . S
C738 C741 1.260 . S
C738 C742 1.477 . S
C738 H756 0.932 . S
C739 C740 1.384 . S
C739 C741 1.479 . S
C739 H757 0.929 . S
C740 C737 1.424 . S
C740 C739 1.384 . S
C740 H758 0.928 . S
C741 C738 1.260 . S
C741 C739 1.479 . S
C742 C737 1.245 . S
C742 C738 1.477 . S
C742 H759 0.932 . S
C743 U726 2.882 . S
C743 C737 1.428 . S
C743 O746 1.301 . S
C743 O747 1.282 . S
O744 U726 2.441 . S
O744 C730 1.249 . S
O745 U726 2.420 . S
O745 C730 1.202 . S
O746 U726 2.455 . S
O746 C743 1.301 . S
O747 U726 2.449 . S
O747 C743 1.282 . S
H748 C721 0.931 . S
H749 C723 0.929 . S
H750 C724 0.930 . S
H751 C725 0.931 . S
H752 C732 0.932 . S
H753 C733 0.930 . S
H754 C734 0.929 . S
H755 C736 0.950 . S
H756 C738 0.932 . S
H757 C739 0.929 . S
H758 C740 0.928 . S
H759 C742 0.932 . S
C760 C761 1.264 . S
C760 C765 1.479 . S
C760 C770 1.465 1_455 S
C761 C760 1.264 . S
C761 C763 1.339 . S
C761 H788 0.931 . S
C762 C763 1.395 . S
C762 C764 1.320 . S
C763 C761 1.339 . S
C763 C762 1.395 . S
C763 H789 0.929 . S
C764 C762 1.320 . S
C764 C765 1.405 . S
C764 H790 0.930 . S
C765 C760 1.479 . S
C765 C764 1.405 . S
C765 H791 0.931 . S
U766 O767 2.454 . S
U766 O768 2.458 . S
U766 C769 2.984 . S
U766 C770 2.847 . S
U766 C783 2.882 . S
U766 O784 2.441 . S
U766 O785 2.420 . S
U766 O786 2.455 . S
U766 O787 2.449 . S
O767 U766 2.454 . S
O767 C769 1.353 . S
O768 U766 2.458 . S
O768 C769 1.286 . S
C769 U766 2.984 . S
C769 O767 1.353 . S
C769 O768 1.286 . S
C769 C771 1.363 . S
C770 C760 1.465 1_655 S
C770 U766 2.847 . S
C770 O784 1.249 . S
C770 O785 1.202 . S
C771 C769 1.363 . S
C771 C773 1.408 . S
C771 C776 1.342 . S
C772 C773 1.310 . S
C772 C775 1.461 . S
C772 H792 0.932 . S
C773 C771 1.408 . S
C773 C772 1.310 . S
C773 H793 0.930 . S
C774 C775 1.474 . S
C774 C776 1.285 . S
C774 H794 0.929 . S
C775 C772 1.461 . S
C775 C774 1.474 . S
C776 C771 1.342 . S
C776 C774 1.285 . S
C776 H795 0.930 . S
C777 C780 1.424 . S
C777 C782 1.245 . S
C777 C783 1.428 . S
C778 C781 1.260 . S
C778 C782 1.477 . S
C778 H796 0.932 . S
C779 C780 1.384 . S
C779 C781 1.479 . S
C779 H797 0.929 . S
C780 C777 1.424 . S
C780 C779 1.384 . S
C780 H798 0.928 . S
C781 C778 1.260 . S
C781 C779 1.479 . S
C782 C777 1.245 . S
C782 C778 1.477 . S
C782 H799 0.932 . S
C783 U766 2.882 . S
C783 C777 1.428 . S
C783 O786 1.301 . S
C783 O787 1.282 . S
O784 U766 2.441 . S
O784 C770 1.249 . S
O785 U766 2.420 . S
O785 C770 1.202 . S
O786 U766 2.455 . S
O786 C783 1.301 . S
O787 U766 2.449 . S
O787 C783 1.282 . S
H788 C761 0.931 . S
H789 C763 0.929 . S
H790 C764 0.930 . S
H791 C765 0.931 . S
H792 C772 0.932 . S
H793 C773 0.930 . S
H794 C774 0.929 . S
H795 C776 0.930 . S
H796 C778 0.932 . S
H797 C779 0.929 . S
H798 C780 0.928 . S
H799 C782 0.932 . S
C800 C801 1.264 . S
C800 C805 1.479 . S
C800 C810 1.465 . S
C801 C800 1.264 . S
C801 C803 1.339 . S
C801 H828 0.931 . S
C802 C803 1.395 . S
C802 C804 1.320 . S
C803 C801 1.339 . S
C803 C802 1.395 . S
C803 H829 0.929 . S
C804 C802 1.320 . S
C804 C805 1.405 . S
C804 H830 0.930 . S
C805 C800 1.479 . S
C805 C804 1.405 . S
C805 H831 0.931 . S
U806 O807 2.454 . S
U806 O808 2.458 . S
U806 C809 2.984 . S
U806 C810 2.847 . S
U806 C823 2.882 . S
U806 O824 2.441 . S
U806 O825 2.420 . S
U806 O826 2.455 . S
U806 O827 2.449 . S
O807 U806 2.454 . S
O807 C809 1.353 . S
O808 U806 2.458 . S
O808 C809 1.286 . S
C809 U806 2.984 . S
C809 O807 1.353 . S
C809 O808 1.286 . S
C809 C811 1.363 . S
C810 C800 1.465 . S
C810 U806 2.847 . S
C810 O824 1.249 . S
C810 O825 1.202 . S
C811 C809 1.363 . S
C811 C813 1.408 . S
C811 C816 1.342 . S
C812 C813 1.310 . S
C812 C815 1.461 . S
C812 H832 0.932 . S
C813 C811 1.408 . S
C813 C812 1.310 . S
C813 H833 0.930 . S
C814 C815 1.474 . S
C814 C816 1.285 . S
C814 H834 0.929 . S
C815 C812 1.461 . S
C815 C814 1.474 . S
C816 C811 1.342 . S
C816 C814 1.285 . S
C816 H835 0.930 . S
C817 C820 1.424 . S
C817 C822 1.245 . S
C817 C823 1.428 . S
C818 C821 1.260 . S
C818 C822 1.477 . S
C818 H836 0.932 . S
C819 C820 1.384 . S
C819 C821 1.479 . S
C819 H837 0.929 . S
C820 C817 1.424 . S
C820 C819 1.384 . S
C820 H838 0.928 . S
C821 C818 1.260 . S
C821 C819 1.479 . S
C822 C817 1.245 . S
C822 C818 1.477 . S
C822 H839 0.932 . S
C823 U806 2.882 . S
C823 C817 1.428 . S
C823 O826 1.301 . S
C823 O827 1.282 . S
O824 U806 2.441 . S
O824 C810 1.249 . S
O825 U806 2.420 . S
O825 C810 1.202 . S
O826 U806 2.455 . S
O826 C823 1.301 . S
O827 U806 2.449 . S
O827 C823 1.282 . S
H828 C801 0.931 . S
H829 C803 0.929 . S
H830 C804 0.930 . S
H831 C805 0.931 . S
H832 C812 0.932 . S
H833 C813 0.930 . S
H834 C814 0.929 . S
H835 C816 0.930 . S
H836 C818 0.932 . S
H837 C819 0.929 . S
H838 C820 0.928 . S
H839 C822 0.932 . S
C840 C841 1.264 . S
C840 C845 1.479 . S
C840 C850 1.465 . S
C841 C840 1.264 . S
C841 C843 1.339 . S
C841 H868 0.931 . S
C842 C843 1.395 . S
C842 C844 1.320 . S
C843 C841 1.339 . S
C843 C842 1.395 . S
C843 H869 0.929 . S
C844 C842 1.320 . S
C844 C845 1.405 . S
C844 H870 0.930 . S
C845 C840 1.479 . S
C845 C844 1.405 . S
C845 H871 0.931 . S
U846 O847 2.454 . S
U846 O848 2.458 . S
U846 C849 2.984 . S
U846 C850 2.847 . S
U846 C863 2.882 . S
U846 O864 2.441 . S
U846 O865 2.420 . S
U846 O866 2.455 . S
U846 O867 2.449 . S
O847 U846 2.454 . S
O847 C849 1.353 . S
O848 U846 2.458 . S
O848 C849 1.286 . S
C849 U846 2.984 . S
C849 O847 1.353 . S
C849 O848 1.286 . S
C849 C851 1.363 . S
C850 C840 1.465 . S
C850 U846 2.847 . S
C850 O864 1.249 . S
C850 O865 1.202 . S
C851 C849 1.363 . S
C851 C853 1.408 . S
C851 C856 1.342 . S
C852 C853 1.310 . S
C852 C855 1.461 . S
C852 H872 0.932 . S
C853 C851 1.408 . S
C853 C852 1.310 . S
C853 H873 0.930 . S
C854 C855 1.474 . S
C854 C856 1.285 . S
C854 H874 0.929 . S
C855 C852 1.461 . S
C855 C854 1.474 . S
C856 C851 1.342 . S
C856 C854 1.285 . S
C856 H875 0.930 . S
C857 C860 1.424 . S
C857 C862 1.245 . S
C857 C863 1.428 . S
C858 C861 1.260 . S
C858 C862 1.477 . S
C858 H876 0.932 . S
C859 C860 1.384 . S
C859 C861 1.479 . S
C859 H877 0.929 . S
C860 C857 1.424 . S
C860 C859 1.384 . S
C860 H878 0.928 . S
C861 C858 1.260 . S
C861 C859 1.479 . S
C862 C857 1.245 . S
C862 C858 1.477 . S
C862 H879 0.932 . S
C863 U846 2.882 . S
C863 C857 1.428 . S
C863 O866 1.301 . S
C863 O867 1.282 . S
O864 U846 2.441 . S
O864 C850 1.249 . S
O865 U846 2.420 . S
O865 C850 1.202 . S
O866 U846 2.455 . S
O866 C863 1.301 . S
O867 U846 2.449 . S
O867 C863 1.282 . S
H868 C841 0.931 . S
H869 C843 0.929 . S
H870 C844 0.930 . S
H871 C845 0.931 . S
H872 C852 0.932 . S
H873 C853 0.930 . S
H874 C854 0.929 . S
H875 C856 0.930 . S
H876 C858 0.932 . S
H877 C859 0.929 . S
H878 C860 0.928 . S
H879 C862 0.932 . S
C880 C881 1.264 . S
C880 C885 1.479 . S
C880 C890 1.465 . S
C881 C880 1.264 . S
C881 C883 1.339 . S
C881 H908 0.931 . S
C882 C883 1.395 . S
C882 C884 1.320 . S
C883 C881 1.339 . S
C883 C882 1.395 . S
C883 H909 0.929 . S
C884 C882 1.320 . S
C884 C885 1.405 . S
C884 H910 0.930 . S
C885 C880 1.479 . S
C885 C884 1.405 . S
C885 H911 0.931 . S
U886 O887 2.454 . S
U886 O888 2.458 . S
U886 C889 2.984 . S
U886 C890 2.847 . S
U886 C903 2.882 . S
U886 O904 2.441 . S
U886 O905 2.420 . S
U886 O906 2.455 . S
U886 O907 2.449 . S
O887 U886 2.454 . S
O887 C889 1.353 . S
O888 U886 2.458 . S
O888 C889 1.286 . S
C889 U886 2.984 . S
C889 O887 1.353 . S
C889 O888 1.286 . S
C889 C891 1.363 . S
C890 C880 1.465 . S
C890 U886 2.847 . S
C890 O904 1.249 . S
C890 O905 1.202 . S
C891 C889 1.363 . S
C891 C893 1.408 . S
C891 C896 1.342 . S
C892 C893 1.310 . S
C892 C895 1.461 . S
C892 H912 0.932 . S
C893 C891 1.408 . S
C893 C892 1.310 . S
C893 H913 0.930 . S
C894 C895 1.474 . S
C894 C896 1.285 . S
C894 H914 0.929 . S
C895 C892 1.461 . S
C895 C894 1.474 . S
C896 C891 1.342 . S
C896 C894 1.285 . S
C896 H915 0.930 . S
C897 C900 1.424 . S
C897 C902 1.245 . S
C897 C903 1.428 . S
C898 C901 1.260 . S
C898 C902 1.477 . S
C898 H916 0.932 . S
C899 C900 1.384 . S
C899 C901 1.479 . S
C899 H917 0.929 . S
C900 C897 1.424 . S
C900 C899 1.384 . S
C900 H918 0.928 . S
C901 C898 1.260 . S
C901 C899 1.479 . S
C902 C897 1.245 . S
C902 C898 1.477 . S
C902 H919 0.932 . S
C903 U886 2.882 . S
C903 C897 1.428 . S
C903 O906 1.301 . S
C903 O907 1.282 . S
O904 U886 2.441 . S
O904 C890 1.249 . S
O905 U886 2.420 . S
O905 C890 1.202 . S
O906 U886 2.455 . S
O906 C903 1.301 . S
O907 U886 2.449 . S
O907 C903 1.282 . S
H908 C881 0.931 . S
H909 C883 0.929 . S
H910 C884 0.930 . S
H911 C885 0.931 . S
H912 C892 0.932 . S
H913 C893 0.930 . S
H914 C894 0.929 . S
H915 C896 0.930 . S
H916 C898 0.932 . S
H917 C899 0.929 . S
H918 C900 0.928 . S
H919 C902 0.932 . S
C920 C921 1.264 . S
C920 C925 1.479 1_565 S
C920 C930 1.475 . S
C921 C920 1.264 . S
C921 C923 1.339 . S
C921 H948 0.931 . S
C922 C923 1.395 . S
C922 C924 1.320 1_565 S
C923 C921 1.339 . S
C923 C922 1.395 . S
C923 H949 0.929 . S
C924 C922 1.320 1_545 S
C924 C925 1.405 . S
C924 H950 0.930 . S
C925 C920 1.479 1_545 S
C925 C924 1.405 . S
C925 H951 0.931 . S
U926 O927 2.454 . S
U926 O928 2.458 . S
U926 C929 2.984 . S
U926 C930 2.840 1_545 S
U926 C943 2.882 1_545 S
U926 O944 2.441 . S
U926 O945 2.420 1_545 S
U926 O946 2.455 1_545 S
U926 O947 2.449 1_545 S
O927 U926 2.454 . S
O927 C929 1.353 . S
O928 U926 2.458 . S
O928 C929 1.286 . S
C929 U926 2.984 . S
C929 O927 1.353 . S
C929 O928 1.286 . S
C929 C931 1.363 . S
C930 C920 1.475 . S
C930 U926 2.840 1_565 S
C930 O944 1.222 1_565 S
C930 O945 1.221 . S
C931 C929 1.363 . S
C931 C933 1.408 . S
C931 C936 1.342 . S
C932 C933 1.310 . S
C932 C935 1.461 . S
C932 H952 0.932 . S
C933 C931 1.408 . S
C933 C932 1.310 . S
C933 H953 0.930 . S
C934 C935 1.474 . S
C934 C936 1.285 . S
C934 H954 0.929 . S
C935 C932 1.461 . S
C935 C934 1.474 . S
C936 C931 1.342 . S
C936 C934 1.285 . S
C936 H955 0.930 . S
C937 C940 1.424 . S
C937 C942 1.245 . S
C937 C943 1.428 . S
C938 C941 1.260 . S
C938 C942 1.477 . S
C938 H956 0.932 . S
C939 C940 1.384 . S
C939 C941 1.479 . S
C939 H957 0.929 . S
C940 C937 1.424 . S
C940 C939 1.384 . S
C940 H958 0.928 . S
C941 C938 1.260 . S
C941 C939 1.479 . S
C942 C937 1.245 . S
C942 C938 1.477 . S
C942 H959 0.932 . S
C943 U926 2.882 1_565 S
C943 C937 1.428 . S
C943 O946 1.301 . S
C943 O947 1.282 . S
O944 U926 2.441 . S
O944 C930 1.222 1_545 S
O945 U926 2.420 1_565 S
O945 C930 1.221 . S
O946 U926 2.455 1_565 S
O946 C943 1.301 . S
O947 U926 2.449 1_565 S
O947 C943 1.282 . S
H948 C921 0.931 . S
H949 C923 0.929 . S
H950 C924 0.930 . S
H951 C925 0.931 . S
H952 C932 0.932 . S
H953 C933 0.930 . S
H954 C934 0.929 . S
H955 C936 0.930 . S
H956 C938 0.932 . S
H957 C939 0.929 . S
H958 C940 0.928 . S
H959 C942 0.932 . S
C960 C961 1.264 . S
C960 C965 1.479 . S
C960 C970 1.465 . S
C961 C960 1.264 . S
C961 C963 1.339 . S
C961 H988 0.931 . S
C962 C963 1.395 . S
C962 C964 1.320 . S
C963 C961 1.339 . S
C963 C962 1.395 . S
C963 H989 0.929 . S
C964 C962 1.320 . S
C964 C965 1.405 . S
C964 H990 0.930 . S
C965 C960 1.479 . S
C965 C964 1.405 . S
C965 H991 0.931 1_565 S
U966 O967 2.513 . S
U966 O968 2.502 . S
U966 C969 3.042 . S
U966 C970 2.834 1_545 S
U966 C983 2.839 1_545 S
U966 O984 2.455 . S
U966 O985 2.384 1_545 S
U966 O986 2.435 1_545 S
U966 O987 2.392 1_545 S
O967 U966 2.513 . S
O967 C969 1.353 . S
O968 U966 2.502 . S
O968 C969 1.286 . S
C969 U966 3.042 . S
C969 O967 1.353 . S
C969 O968 1.286 . S
C969 C971 1.363 . S
C970 C960 1.465 . S
C970 U966 2.834 1_565 S
C970 O984 1.249 1_565 S
C970 O985 1.202 . S
C971 C969 1.363 . S
C971 C973 1.408 . S
C971 C976 1.342 . S
C972 C973 1.310 . S
C972 C975 1.461 . S
C972 H992 0.932 . S
C973 C971 1.408 . S
C973 C972 1.310 . S
C973 H993 0.930 . S
C974 C975 1.474 . S
C974 C976 1.285 . S
C974 H994 0.929 . S
C975 C972 1.461 . S
C975 C974 1.474 . S
C976 C971 1.342 . S
C976 C974 1.285 . S
C976 H995 0.930 . S
C977 C980 1.424 . S
C977 C982 1.245 . S
C977 C983 1.428 . S
C978 C981 1.260 . S
C978 C982 1.477 . S
C978 H996 0.932 . S
C979 C980 1.384 . S
C979 C981 1.479 . S
C979 H997 0.929 . S
C980 C977 1.424 . S
C980 C979 1.384 . S
C980 H998 0.928 . S
C981 C978 1.260 . S
C981 C979 1.479 . S
C982 C977 1.245 . S
C982 C978 1.477 . S
C982 H999 0.932 . S
C983 U966 2.839 1_565 S
C983 C977 1.428 . S
C983 O986 1.301 . S
C983 O987 1.282 . S
O984 U966 2.455 . S
O984 C970 1.249 1_545 S
O985 U966 2.384 1_565 S
O985 C970 1.202 . S
O986 U966 2.435 1_565 S
O986 C983 1.301 . S
O987 U966 2.392 1_565 S
O987 C983 1.282 . S
H988 C961 0.931 . S
H989 C963 0.929 . S
H990 C964 0.930 . S
H991 C965 0.931 1_545 S
H992 C972 0.932 . S
H993 C973 0.930 . S
H994 C974 0.929 . S
H995 C976 0.930 . S
H996 C978 0.932 . S
H997 C979 0.929 . S
H998 C980 0.928 . S
H999 C982 0.932 . S
C1000 C1001 1.264 . S
C1000 C1005 1.479 . S
C1000 C1010 1.465 . S
C1001 C1000 1.264 . S
C1001 C1003 1.339 . S
C1001 H1028 0.931 . S
C1002 C1003 1.395 . S
C1002 C1004 1.320 . S
C1003 C1001 1.339 . S
C1003 C1002 1.395 . S
C1003 H1029 0.929 . S
C1004 C1002 1.320 . S
C1004 C1005 1.405 . S
C1004 H1030 0.930 . S
C1005 C1000 1.479 . S
C1005 C1004 1.405 . S
C1005 H1031 0.931 . S
U1006 O1007 2.454 . S
U1006 O1008 2.458 1_565 S
U1006 C1009 2.984 1_565 S
U1006 C1010 2.847 . S
U1006 C1023 2.882 1_565 S
U1006 O1024 2.441 . S
U1006 O1025 2.420 . S
U1006 O1026 2.455 1_565 S
U1006 O1027 2.449 1_565 S
O1007 U1006 2.454 . S
O1007 C1009 1.353 1_565 S
O1008 U1006 2.458 1_545 S
O1008 C1009 1.286 . S
C1009 U1006 2.984 1_545 S
C1009 O1007 1.353 1_545 S
C1009 O1008 1.286 . S
C1009 C1011 1.363 . S
C1010 C1000 1.465 . S
C1010 U1006 2.847 . S
C1010 O1024 1.249 . S
C1010 O1025 1.202 . S
C1011 C1009 1.363 . S
C1011 C1013 1.408 1_545 S
C1011 C1016 1.342 . S
C1012 C1013 1.310 . S
C1012 C1015 1.461 1_565 S
C1012 H1032 0.932 . S
C1013 C1011 1.408 1_565 S
C1013 C1012 1.310 . S
C1013 H1033 0.930 . S
C1014 C1015 1.474 . S
C1014 C1016 1.285 . S
C1014 H1034 0.929 . S
C1015 C1012 1.461 1_545 S
C1015 C1014 1.474 . S
C1016 C1011 1.342 . S
C1016 C1014 1.285 . S
C1016 H1035 0.930 . S
C1017 C1020 1.424 . S
C1017 C1022 1.245 . S
C1017 C1023 1.428 . S
C1018 C1021 1.260 . S
C1018 C1022 1.477 . S
C1018 H1036 0.932 . S
C1019 C1020 1.384 . S
C1019 C1021 1.479 . S
C1019 H1037 0.929 . S
C1020 C1017 1.424 . S
C1020 C1019 1.384 . S
C1020 H1038 0.928 . S
C1021 C1018 1.260 . S
C1021 C1019 1.479 . S
C1022 C1017 1.245 . S
C1022 C1018 1.477 . S
C1022 H1039 0.932 . S
C1023 U1006 2.882 1_545 S
C1023 C1017 1.428 . S
C1023 O1026 1.301 . S
C1023 O1027 1.282 . S
O1024 U1006 2.441 . S
O1024 C1010 1.249 . S
O1025 U1006 2.420 . S
O1025 C1010 1.202 . S
O1026 U1006 2.455 1_545 S
O1026 C1023 1.301 . S
O1027 U1006 2.449 1_545 S
O1027 C1023 1.282 . S
H1028 C1001 0.931 . S
H1029 C1003 0.929 . S
H1030 C1004 0.930 . S
H1031 C1005 0.931 . S
H1032 C1012 0.932 . S
H1033 C1013 0.930 . S
H1034 C1014 0.929 . S
H1035 C1016 0.930 . S
H1036 C1018 0.932 . S
H1037 C1019 0.929 . S
H1038 C1020 0.928 . S
H1039 C1022 0.932 . S
C1040 C1041 1.264 . S
C1040 C1045 1.479 . S
C1040 C1050 1.465 . S
C1041 C1040 1.264 . S
C1041 C1043 1.339 . S
C1041 H1068 0.931 . S
C1042 C1043 1.395 . S
C1042 C1044 1.320 . S
C1043 C1041 1.339 . S
C1043 C1042 1.395 . S
C1043 H1069 0.929 . S
C1044 C1042 1.320 . S
C1044 C1045 1.405 . S
C1044 H1070 0.930 . S
C1045 C1040 1.479 . S
C1045 C1044 1.405 . S
C1045 H1071 0.931 . S
U1046 O1047 2.449 1_545 S
U1046 O1048 2.475 . S
U1046 C1049 2.991 . S
U1046 C1050 2.822 1_545 S
U1046 C1063 2.901 . S
U1046 O1064 2.415 1_545 S
U1046 O1065 2.401 1_545 S
U1046 O1066 2.480 . S
U1046 O1067 2.458 . S
O1047 U1046 2.449 1_565 S
O1047 C1049 1.353 1_565 S
O1048 U1046 2.475 . S
O1048 C1049 1.286 . S
C1049 U1046 2.991 . S
C1049 O1047 1.353 1_545 S
C1049 O1048 1.286 . S
C1049 C1051 1.363 . S
C1050 C1040 1.465 . S
C1050 U1046 2.822 1_565 S
C1050 O1064 1.249 . S
C1050 O1065 1.202 . S
C1051 C1049 1.363 . S
C1051 C1053 1.408 . S
C1051 C1056 1.342 . S
C1052 C1053 1.310 . S
C1052 C1055 1.461 . S
C1052 H1072 0.932 . S
C1053 C1051 1.408 . S
C1053 C1052 1.310 . S
C1053 H1073 0.930 1_545 S
C1054 C1055 1.474 . S
C1054 C1056 1.285 . S
C1054 H1074 0.929 . S
C1055 C1052 1.461 . S
C1055 C1054 1.474 . S
C1056 C1051 1.342 . S
C1056 C1054 1.285 . S
C1056 H1075 0.930 . S
C1057 C1060 1.424 . S
C1057 C1062 1.245 . S
C1057 C1063 1.428 . S
C1058 C1061 1.260 . S
C1058 C1062 1.477 . S
C1058 H1076 0.932 . S
C1059 C1060 1.384 . S
C1059 C1061 1.479 . S
C1059 H1077 0.929 . S
C1060 C1057 1.424 . S
C1060 C1059 1.384 . S
C1060 H1078 0.928 . S
C1061 C1058 1.260 . S
C1061 C1059 1.479 . S
C1062 C1057 1.245 . S
C1062 C1058 1.477 . S
C1062 H1079 0.932 . S
C1063 U1046 2.901 . S
C1063 C1057 1.428 . S
C1063 O1066 1.301 . S
C1063 O1067 1.282 . S
O1064 U1046 2.415 1_565 S
O1064 C1050 1.249 . S
O1065 U1046 2.401 1_565 S
O1065 C1050 1.202 . S
O1066 U1046 2.480 . S
O1066 C1063 1.301 . S
O1067 U1046 2.458 . S
O1067 C1063 1.282 . S
H1068 C1041 0.931 . S
H1069 C1043 0.929 . S
H1070 C1044 0.930 . S
H1071 C1045 0.931 . S
H1072 C1052 0.932 . S
H1073 C1053 0.930 1_565 S
H1074 C1054 0.929 . S
H1075 C1056 0.930 . S
H1076 C1058 0.932 . S
H1077 C1059 0.929 . S
H1078 C1060 0.928 . S
H1079 C1062 0.932 . S
C1080 C1081 1.264 . S
C1080 C1085 1.479 . S
C1080 C1090 1.465 . S
C1081 C1080 1.264 . S
C1081 C1083 1.339 . S
C1081 H1108 0.931 . S
C1082 C1083 1.395 . S
C1082 C1084 1.320 . S
C1083 C1081 1.339 . S
C1083 C1082 1.395 . S
C1083 H1109 0.929 . S
C1084 C1082 1.320 . S
C1084 C1085 1.405 . S
C1084 H1110 0.930 . S
C1085 C1080 1.479 . S
C1085 C1084 1.405 . S
C1085 H1111 0.931 . S
U1086 O1087 2.454 . S
U1086 O1088 2.458 . S
U1086 C1089 2.984 . S
U1086 C1090 2.847 . S
U1086 C1103 2.882 . S
U1086 O1104 2.441 . S
U1086 O1105 2.420 . S
U1086 O1106 2.455 . S
U1086 O1107 2.449 . S
O1087 U1086 2.454 . S
O1087 C1089 1.353 . S
O1088 U1086 2.458 . S
O1088 C1089 1.286 . S
C1089 U1086 2.984 . S
C1089 O1087 1.353 . S
C1089 O1088 1.286 . S
C1089 C1091 1.363 . S
C1090 C1080 1.465 . S
C1090 U1086 2.847 . S
C1090 O1104 1.249 . S
C1090 O1105 1.202 . S
C1091 C1089 1.363 . S
C1091 C1093 1.408 . S
C1091 C1096 1.342 . S
C1092 C1093 1.310 . S
C1092 C1095 1.448 1_556 S
C1092 H1112 0.932 1_556 S
C1093 C1091 1.408 . S
C1093 C1092 1.310 . S
C1093 H1113 0.930 . S
C1094 C1095 1.441 1_556 S
C1094 C1096 1.285 . S
C1094 H1114 0.929 . S
C1095 C1092 1.448 1_554 S
C1095 C1094 1.441 1_554 S
C1096 C1091 1.342 . S
C1096 C1094 1.285 . S
C1096 H1115 0.930 . S
C1097 C1100 1.424 . S
C1097 C1102 1.245 . S
C1097 C1103 1.428 . S
C1098 C1101 1.260 . S
C1098 C1102 1.477 . S
C1098 H1116 0.932 . S
C1099 C1100 1.384 . S
C1099 C1101 1.479 . S
C1099 H1117 0.929 . S
C1100 C1097 1.424 . S
C1100 C1099 1.384 . S
C1100 H1118 0.928 . S
C1101 C1098 1.260 . S
C1101 C1099 1.479 . S
C1102 C1097 1.245 . S
C1102 C1098 1.477 . S
C1102 H1119 0.932 . S
C1103 U1086 2.882 . S
C1103 C1097 1.428 . S
C1103 O1106 1.301 . S
C1103 O1107 1.282 . S
O1104 U1086 2.441 . S
O1104 C1090 1.249 . S
O1105 U1086 2.420 . S
O1105 C1090 1.202 . S
O1106 U1086 2.455 . S
O1106 C1103 1.301 . S
O1107 U1086 2.449 . S
O1107 C1103 1.282 . S
H1108 C1081 0.931 . S
H1109 C1083 0.929 . S
H1110 C1084 0.930 . S
H1111 C1085 0.931 . S
H1112 C1092 0.932 1_554 S
H1113 C1093 0.930 . S
H1114 C1094 0.929 . S
H1115 C1096 0.930 . S
H1116 C1098 0.932 . S
H1117 C1099 0.929 . S
H1118 C1100 0.928 . S
H1119 C1102 0.932 . S
C1120 C1121 1.264 . S
C1120 C1125 1.479 . S
C1120 C1130 1.465 . S
C1121 C1120 1.264 . S
C1121 C1123 1.339 . S
C1121 H1148 0.931 . S
C1122 C1123 1.395 . S
C1122 C1124 1.320 . S
C1123 C1121 1.339 . S
C1123 C1122 1.395 . S
C1123 H1149 0.929 . S
C1124 C1122 1.320 . S
C1124 C1125 1.405 . S
C1124 H1150 0.930 . S
C1125 C1120 1.479 . S
C1125 C1124 1.405 . S
C1125 H1151 0.931 . S
U1126 O1127 2.454 . S
U1126 O1128 2.458 . S
U1126 C1129 2.984 . S
U1126 C1130 2.847 1_455 S
U1126 C1143 2.882 . S
U1126 O1144 2.441 1_455 S
U1126 O1145 2.420 1_455 S
U1126 O1146 2.455 . S
U1126 O1147 2.449 . S
O1127 U1126 2.454 . S
O1127 C1129 1.353 . S
O1128 U1126 2.458 . S
O1128 C1129 1.286 . S
C1129 U1126 2.984 . S
C1129 O1127 1.353 . S
C1129 O1128 1.286 . S
C1129 C1131 1.363 . S
C1130 C1120 1.465 . S
C1130 U1126 2.847 1_655 S
C1130 O1144 1.249 . S
C1130 O1145 1.202 . S
C1131 C1129 1.363 . S
C1131 C1133 1.408 . S
C1131 C1136 1.342 . S
C1132 C1133 1.310 . S
C1132 C1135 1.461 . S
C1132 H1152 0.932 1_455 S
C1133 C1131 1.408 . S
C1133 C1132 1.310 . S
C1133 H1153 0.930 1_455 S
C1134 C1135 1.474 . S
C1134 C1136 1.285 . S
C1134 H1154 0.929 . S
C1135 C1132 1.461 . S
C1135 C1134 1.474 . S
C1136 C1131 1.342 . S
C1136 C1134 1.285 . S
C1136 H1155 0.930 . S
C1137 C1140 1.424 . S
C1137 C1142 1.245 . S
C1137 C1143 1.428 . S
C1138 C1141 1.260 . S
C1138 C1142 1.477 . S
C1138 H1156 0.932 . S
C1139 C1140 1.384 . S
C1139 C1141 1.479 . S
C1139 H1157 0.929 . S
C1140 C1137 1.424 . S
C1140 C1139 1.384 . S
C1140 H1158 0.928 . S
C1141 C1138 1.260 . S
C1141 C1139 1.479 . S
C1142 C1137 1.245 . S
C1142 C1138 1.477 . S
C1142 H1159 0.932 . S
C1143 U1126 2.882 . S
C1143 C1137 1.428 . S
C1143 O1146 1.301 . S
C1143 O1147 1.282 . S
O1144 U1126 2.441 1_655 S
O1144 C1130 1.249 . S
O1145 U1126 2.420 1_655 S
O1145 C1130 1.202 . S
O1146 U1126 2.455 . S
O1146 C1143 1.301 . S
O1147 U1126 2.449 . S
O1147 C1143 1.282 . S
H1148 C1121 0.931 . S
H1149 C1123 0.929 . S
H1150 C1124 0.930 . S
H1151 C1125 0.931 . S
H1152 C1132 0.932 1_655 S
H1153 C1133 0.930 1_655 S
H1154 C1134 0.929 . S
H1155 C1136 0.930 . S
H1156 C1138 0.932 . S
H1157 C1139 0.929 . S
H1158 C1140 0.928 . S
H1159 C1142 0.932 . S
C1160 C1161 1.264 . S
C1160 C1165 1.479 . S
C1160 C1170 1.465 . S
C1161 C1160 1.264 . S
C1161 C1163 1.339 . S
C1161 H1188 0.931 . S
C1162 C1163 1.395 . S
C1162 C1164 1.320 . S
C1163 C1161 1.339 . S
C1163 C1162 1.395 . S
C1163 H1189 0.929 . S
C1164 C1162 1.320 . S
C1164 C1165 1.405 . S
C1164 H1190 0.930 . S
C1165 C1160 1.479 . S
C1165 C1164 1.405 . S
C1165 H1191 0.931 . S
U1166 O1167 2.454 . S
U1166 O1168 2.458 . S
U1166 C1169 2.984 . S
U1166 C1170 2.847 . S
U1166 C1183 2.882 . S
U1166 O1184 2.441 . S
U1166 O1185 2.420 . S
U1166 O1186 2.455 . S
U1166 O1187 2.449 . S
O1167 U1166 2.454 . S
O1167 C1169 1.353 . S
O1168 U1166 2.458 . S
O1168 C1169 1.286 . S
C1169 U1166 2.984 . S
C1169 O1167 1.353 . S
C1169 O1168 1.286 . S
C1169 C1171 1.363 . S
C1170 C1160 1.465 . S
C1170 U1166 2.847 . S
C1170 O1184 1.249 . S
C1170 O1185 1.202 . S
C1171 C1169 1.363 . S
C1171 C1173 1.408 . S
C1171 C1176 1.342 . S
C1172 C1173 1.310 . S
C1172 C1175 1.461 . S
C1172 H1192 0.932 . S
C1173 C1171 1.408 . S
C1173 C1172 1.310 . S
C1173 H1193 0.930 . S
C1174 C1175 1.474 . S
C1174 C1176 1.285 . S
C1174 H1194 0.929 . S
C1175 C1172 1.461 . S
C1175 C1174 1.474 . S
C1176 C1171 1.342 . S
C1176 C1174 1.285 . S
C1176 H1195 0.930 . S
C1177 C1180 1.424 . S
C1177 C1182 1.245 . S
C1177 C1183 1.428 . S
C1178 C1181 1.260 . S
C1178 C1182 1.477 . S
C1178 H1196 0.932 . S
C1179 C1180 1.384 . S
C1179 C1181 1.479 . S
C1179 H1197 0.929 . S
C1180 C1177 1.424 . S
C1180 C1179 1.384 . S
C1180 H1198 0.928 . S
C1181 C1178 1.260 . S
C1181 C1179 1.479 . S
C1182 C1177 1.245 . S
C1182 C1178 1.477 . S
C1182 H1199 0.932 . S
C1183 U1166 2.882 . S
C1183 C1177 1.428 . S
C1183 O1186 1.301 . S
C1183 O1187 1.282 . S
O1184 U1166 2.441 . S
O1184 C1170 1.249 . S
O1185 U1166 2.420 . S
O1185 C1170 1.202 . S
O1186 U1166 2.455 . S
O1186 C1183 1.301 . S
O1187 U1166 2.449 . S
O1187 C1183 1.282 . S
H1188 C1161 0.931 . S
H1189 C1163 0.929 . S
H1190 C1164 0.930 . S
H1191 C1165 0.931 . S
H1192 C1172 0.932 . S
H1193 C1173 0.930 . S
H1194 C1174 0.929 . S
H1195 C1176 0.930 . S
H1196 C1178 0.932 . S
H1197 C1179 0.929 . S
H1198 C1180 0.928 . S
H1199 C1182 0.932 . S
C1200 C1201 1.264 . S
C1200 C1205 1.479 . S
C1200 C1210 1.465 . S
C1201 C1200 1.264 . S
C1201 C1203 1.339 . S
C1201 H1228 0.931 . S
C1202 C1203 1.395 . S
C1202 C1204 1.320 . S
C1203 C1201 1.339 . S
C1203 C1202 1.395 . S
C1203 H1229 0.929 . S
C1204 C1202 1.320 . S
C1204 C1205 1.405 . S
C1204 H1230 0.930 . S
C1205 C1200 1.479 . S
C1205 C1204 1.405 . S
C1205 H1231 0.931 . S
U1206 O1207 2.454 . S
U1206 O1208 2.458 . S
U1206 C1209 2.984 . S
U1206 C1210 2.847 . S
U1206 C1223 2.882 . S
U1206 O1224 2.441 . S
U1206 O1225 2.420 . S
U1206 O1226 2.455 . S
U1206 O1227 2.449 . S
O1207 U1206 2.454 . S
O1207 C1209 1.353 . S
O1208 U1206 2.458 . S
O1208 C1209 1.286 . S
C1209 U1206 2.984 . S
C1209 O1207 1.353 . S
C1209 O1208 1.286 . S
C1209 C1211 1.363 . S
C1210 C1200 1.465 . S
C1210 U1206 2.847 . S
C1210 O1224 1.249 . S
C1210 O1225 1.202 . S
C1211 C1209 1.363 . S
C1211 C1213 1.408 . S
C1211 C1216 1.342 . S
C1212 C1213 1.310 . S
C1212 C1215 1.461 . S
C1212 H1232 0.932 . S
C1213 C1211 1.408 . S
C1213 C1212 1.310 . S
C1213 H1233 0.930 . S
C1214 C1215 1.474 . S
C1214 C1216 1.285 . S
C1214 H1234 0.929 . S
C1215 C1212 1.461 . S
C1215 C1214 1.474 . S
C1216 C1211 1.342 . S
C1216 C1214 1.285 . S
C1216 H1235 0.930 . S
C1217 C1220 1.424 . S
C1217 C1222 1.245 . S
C1217 C1223 1.428 . S
C1218 C1221 1.260 . S
C1218 C1222 1.477 . S
C1218 H1236 0.932 . S
C1219 C1220 1.384 . S
C1219 C1221 1.479 . S
C1219 H1237 0.929 . S
C1220 C1217 1.424 . S
C1220 C1219 1.384 . S
C1220 H1238 0.928 . S
C1221 C1218 1.260 . S
C1221 C1219 1.479 . S
C1222 C1217 1.245 . S
C1222 C1218 1.477 . S
C1222 H1239 0.932 . S
C1223 U1206 2.882 . S
C1223 C1217 1.428 . S
C1223 O1226 1.301 . S
C1223 O1227 1.282 . S
O1224 U1206 2.441 . S
O1224 C1210 1.249 . S
O1225 U1206 2.420 . S
O1225 C1210 1.202 . S
O1226 U1206 2.455 . S
O1226 C1223 1.301 . S
O1227 U1206 2.449 . S
O1227 C1223 1.282 . S
H1228 C1201 0.931 . S
H1229 C1203 0.929 . S
H1230 C1204 0.930 . S
H1231 C1205 0.931 . S
H1232 C1212 0.932 . S
H1233 C1213 0.930 . S
H1234 C1214 0.929 . S
H1235 C1216 0.930 . S
H1236 C1218 0.932 . S
H1237 C1219 0.929 . S
H1238 C1220 0.928 . S
H1239 C1222 0.932 . S
C1240 C1241 1.264 . S
C1240 C1245 1.479 . S
C1240 C1250 1.465 . S
C1241 C1240 1.264 . S
C1241 C1243 1.339 . S
C1241 H1268 0.931 . S
C1242 C1243 1.395 . S
C1242 C1244 1.320 . S
C1243 C1241 1.339 . S
C1243 C1242 1.395 . S
C1243 H1269 0.929 . S
C1244 C1242 1.320 . S
C1244 C1245 1.405 . S
C1244 H1270 0.930 . S
C1245 C1240 1.479 . S
C1245 C1244 1.405 . S
C1245 H1271 0.931 . S
U1246 O1247 2.454 1_655 S
U1246 O1248 2.458 1_655 S
U1246 C1249 2.984 1_655 S
U1246 C1250 2.847 . S
U1246 C1263 2.882 . S
U1246 O1264 2.441 . S
U1246 O1265 2.420 . S
U1246 O1266 2.455 . S
U1246 O1267 2.449 . S
O1247 U1246 2.454 1_455 S
O1247 C1249 1.353 . S
O1248 U1246 2.458 1_455 S
O1248 C1249 1.286 . S
C1249 U1246 2.984 1_455 S
C1249 O1247 1.353 . S
C1249 O1248 1.286 . S
C1249 C1251 1.363 . S
C1250 C1240 1.465 . S
C1250 U1246 2.847 . S
C1250 O1264 1.249 . S
C1250 O1265 1.202 . S
C1251 C1249 1.363 . S
C1251 C1253 1.408 . S
C1251 C1256 1.342 . S
C1252 C1253 1.310 . S
C1252 C1255 1.461 . S
C1252 H1272 0.932 . S
C1253 C1251 1.408 . S
C1253 C1252 1.310 . S
C1253 H1273 0.930 . S
C1254 C1255 1.474 . S
C1254 C1256 1.285 . S
C1254 H1274 0.929 . S
C1255 C1252 1.461 . S
C1255 C1254 1.474 . S
C1256 C1251 1.342 . S
C1256 C1254 1.285 . S
C1256 H1275 0.930 . S
C1257 C1260 1.424 . S
C1257 C1262 1.245 . S
C1257 C1263 1.428 . S
C1258 C1261 1.260 . S
C1258 C1262 1.477 . S
C1258 H1276 0.932 . S
C1259 C1260 1.384 . S
C1259 C1261 1.479 . S
C1259 H1277 0.929 . S
C1260 C1257 1.424 . S
C1260 C1259 1.384 . S
C1260 H1278 0.928 . S
C1261 C1258 1.260 . S
C1261 C1259 1.479 . S
C1262 C1257 1.245 . S
C1262 C1258 1.477 . S
C1262 H1279 0.932 . S
C1263 U1246 2.882 . S
C1263 C1257 1.428 . S
C1263 O1266 1.301 . S
C1263 O1267 1.282 . S
O1264 U1246 2.441 . S
O1264 C1250 1.249 . S
O1265 U1246 2.420 . S
O1265 C1250 1.202 . S
O1266 U1246 2.455 . S
O1266 C1263 1.301 . S
O1267 U1246 2.449 . S
O1267 C1263 1.282 . S
H1268 C1241 0.931 . S
H1269 C1243 0.929 . S
H1270 C1244 0.930 . S
H1271 C1245 0.931 . S
H1272 C1252 0.932 . S
H1273 C1253 0.930 . S
H1274 C1254 0.929 . S
H1275 C1256 0.930 . S
H1276 C1258 0.932 . S
H1277 C1259 0.929 . S
H1278 C1260 0.928 . S
H1279 C1262 0.932 . S
C1280 C1281 1.264 . S
C1280 C1285 1.479 . S
C1280 C1290 1.465 . S
C1281 C1280 1.264 . S
C1281 C1283 1.339 . S
C1281 H1308 0.931 . S
C1282 C1283 1.395 . S
C1282 C1284 1.320 . S
C1283 C1281 1.339 . S
C1283 C1282 1.395 . S
C1283 H1309 0.929 . S
C1284 C1282 1.320 . S
C1284 C1285 1.405 . S
C1284 H1310 0.930 . S
C1285 C1280 1.479 . S
C1285 C1284 1.405 . S
C1285 H1311 0.931 . S
U1286 O1287 2.454 . S
U1286 O1288 2.458 . S
U1286 C1289 2.984 . S
U1286 C1290 2.847 . S
U1286 C1303 2.882 . S
U1286 O1304 2.441 . S
U1286 O1305 2.420 . S
U1286 O1306 2.455 . S
U1286 O1307 2.449 . S
O1287 U1286 2.454 . S
O1287 C1289 1.353 . S
O1288 U1286 2.458 . S
O1288 C1289 1.286 . S
C1289 U1286 2.984 . S
C1289 O1287 1.353 . S
C1289 O1288 1.286 . S
C1289 C1291 1.363 . S
C1290 C1280 1.465 . S
C1290 U1286 2.847 . S
C1290 O1304 1.249 . S
C1290 O1305 1.202 . S
C1291 C1289 1.363 . S
C1291 C1293 1.408 . S
C1291 C1296 1.342 . S
C1292 C1293 1.310 . S
C1292 C1295 1.461 . S
C1292 H1312 0.932 . S
C1293 C1291 1.408 . S
C1293 C1292 1.310 . S
C1293 H1313 0.930 . S
C1294 C1295 1.474 . S
C1294 C1296 1.285 . S
C1294 H1314 0.929 . S
C1295 C1292 1.461 . S
C1295 C1294 1.474 . S
C1296 C1291 1.342 . S
C1296 C1294 1.285 . S
C1296 H1315 0.930 . S
C1297 C1300 1.424 . S
C1297 C1302 1.245 . S
C1297 C1303 1.428 . S
C1298 C1301 1.260 . S
C1298 C1302 1.477 . S
C1298 H1316 0.932 . S
C1299 C1300 1.384 . S
C1299 C1301 1.479 . S
C1299 H1317 0.929 . S
C1300 C1297 1.424 . S
C1300 C1299 1.384 . S
C1300 H1318 0.928 . S
C1301 C1298 1.260 . S
C1301 C1299 1.479 . S
C1302 C1297 1.245 . S
C1302 C1298 1.477 . S
C1302 H1319 0.932 . S
C1303 U1286 2.882 . S
C1303 C1297 1.428 . S
C1303 O1306 1.301 . S
C1303 O1307 1.282 . S
O1304 U1286 2.441 . S
O1304 C1290 1.249 . S
O1305 U1286 2.420 . S
O1305 C1290 1.202 . S
O1306 U1286 2.455 . S
O1306 C1303 1.301 . S
O1307 U1286 2.449 . S
O1307 C1303 1.282 . S
H1308 C1281 0.931 . S
H1309 C1283 0.929 . S
H1310 C1284 0.930 . S
H1311 C1285 0.931 . S
H1312 C1292 0.932 . S
H1313 C1293 0.930 . S
H1314 C1294 0.929 . S
H1315 C1296 0.930 . S
H1316 C1298 0.932 . S
H1317 C1299 0.929 . S
H1318 C1300 0.928 . S
H1319 C1302 0.932 . S
C1320 C1321 1.264 . S
C1320 C1325 1.479 . S
C1320 C1330 1.465 . S
C1321 C1320 1.264 . S
C1321 C1323 1.339 . S
C1321 H1348 0.931 . S
C1322 C1323 1.395 . S
C1322 C1324 1.320 . S
C1323 C1321 1.339 . S
C1323 C1322 1.395 . S
C1323 H1349 0.929 . S
C1324 C1322 1.320 . S
C1324 C1325 1.405 . S
C1324 H1350 0.930 . S
C1325 C1320 1.479 . S
C1325 C1324 1.405 . S
C1325 H1351 0.931 . S
U1326 O1327 2.454 . S
U1326 O1328 2.458 . S
U1326 C1329 2.984 . S
U1326 C1330 2.847 . S
U1326 C1343 2.882 . S
U1326 O1344 2.441 . S
U1326 O1345 2.420 . S
U1326 O1346 2.455 . S
U1326 O1347 2.449 . S
O1327 U1326 2.454 . S
O1327 C1329 1.353 . S
O1328 U1326 2.458 . S
O1328 C1329 1.286 . S
C1329 U1326 2.984 . S
C1329 O1327 1.353 . S
C1329 O1328 1.286 . S
C1329 C1331 1.363 . S
C1330 C1320 1.465 . S
C1330 U1326 2.847 . S
C1330 O1344 1.249 . S
C1330 O1345 1.202 . S
C1331 C1329 1.363 . S
C1331 C1333 1.408 . S
C1331 C1336 1.342 . S
C1332 C1333 1.310 . S
C1332 C1335 1.474 . S
C1332 H1352 0.879 1_556 S
C1333 C1331 1.408 . S
C1333 C1332 1.310 . S
C1333 H1353 0.930 . S
C1334 C1335 1.519 . S
C1334 C1336 1.285 . S
C1334 H1354 0.929 . S
C1335 C1332 1.474 . S
C1335 C1334 1.519 . S
C1336 C1331 1.342 . S
C1336 C1334 1.285 . S
C1336 H1355 0.930 . S
C1337 C1340 1.424 . S
C1337 C1342 1.245 . S
C1337 C1343 1.428 . S
C1338 C1341 1.260 . S
C1338 C1342 1.477 . S
C1338 H1356 0.932 . S
C1339 C1340 1.384 . S
C1339 C1341 1.479 . S
C1339 H1357 0.929 . S
C1340 C1337 1.424 . S
C1340 C1339 1.384 . S
C1340 H1358 0.928 . S
C1341 C1338 1.260 . S
C1341 C1339 1.479 . S
C1342 C1337 1.245 . S
C1342 C1338 1.477 . S
C1342 H1359 0.932 . S
C1343 U1326 2.882 . S
C1343 C1337 1.428 . S
C1343 O1346 1.301 . S
C1343 O1347 1.282 . S
O1344 U1326 2.441 . S
O1344 C1330 1.249 . S
O1345 U1326 2.420 . S
O1345 C1330 1.202 . S
O1346 U1326 2.455 . S
O1346 C1343 1.301 . S
O1347 U1326 2.449 . S
O1347 C1343 1.282 . S
H1348 C1321 0.931 . S
H1349 C1323 0.929 . S
H1350 C1324 0.930 . S
H1351 C1325 0.931 . S
H1352 C1332 0.879 1_554 S
H1353 C1333 0.930 . S
H1354 C1334 0.929 . S
H1355 C1336 0.930 . S
H1356 C1338 0.932 . S
H1357 C1339 0.929 . S
H1358 C1340 0.928 . S
H1359 C1342 0.932 . S
C1360 C1361 1.264 . S
C1360 C1365 1.479 . S
C1360 C1370 1.465 . S
C1361 C1360 1.264 . S
C1361 C1363 1.339 . S
C1361 H1388 0.931 . S
C1362 C1363 1.395 . S
C1362 C1364 1.320 . S
C1363 C1361 1.339 . S
C1363 C1362 1.395 . S
C1363 H1389 0.929 . S
C1364 C1362 1.320 . S
C1364 C1365 1.405 . S
C1364 H1390 0.930 . S
C1365 C1360 1.479 . S
C1365 C1364 1.405 . S
C1365 H1391 0.931 . S
U1366 O1367 2.454 . S
U1366 O1368 2.458 . S
U1366 C1369 2.984 . S
U1366 C1370 2.847 . S
U1366 C1383 2.882 . S
U1366 O1384 2.441 . S
U1366 O1385 2.420 . S
U1366 O1386 2.455 . S
U1366 O1387 2.449 . S
O1367 U1366 2.454 . S
O1367 C1369 1.353 . S
O1368 U1366 2.458 . S
O1368 C1369 1.286 . S
C1369 U1366 2.984 . S
C1369 O1367 1.353 . S
C1369 O1368 1.286 . S
C1369 C1371 1.363 . S
C1370 C1360 1.465 . S
C1370 U1366 2.847 . S
C1370 O1384 1.249 . S
C1370 O1385 1.202 . S
C1371 C1369 1.363 . S
C1371 C1373 1.408 . S
C1371 C1376 1.342 . S
C1372 C1373 1.310 . S
C1372 C1375 1.461 . S
C1372 H1392 0.932 . S
C1373 C1371 1.408 . S
C1373 C1372 1.310 . S
C1373 H1393 0.930 . S
C1374 C1375 1.474 . S
C1374 C1376 1.285 . S
C1374 H1394 0.929 . S
C1375 C1372 1.461 . S
C1375 C1374 1.474 . S
C1376 C1371 1.342 . S
C1376 C1374 1.285 . S
C1376 H1395 0.930 . S
C1377 C1380 1.424 . S
C1377 C1382 1.245 . S
C1377 C1383 1.428 . S
C1378 C1381 1.260 . S
C1378 C1382 1.477 . S
C1378 H1396 0.932 . S
C1379 C1380 1.384 . S
C1379 C1381 1.479 . S
C1379 H1397 0.929 . S
C1380 C1377 1.424 . S
C1380 C1379 1.384 . S
C1380 H1398 0.928 . S
C1381 C1378 1.260 . S
C1381 C1379 1.479 . S
C1382 C1377 1.245 . S
C1382 C1378 1.477 . S
C1382 H1399 0.932 . S
C1383 U1366 2.882 . S
C1383 C1377 1.428 . S
C1383 O1386 1.301 . S
C1383 O1387 1.282 . S
O1384 U1366 2.441 . S
O1384 C1370 1.249 . S
O1385 U1366 2.420 . S
O1385 C1370 1.202 . S
O1386 U1366 2.455 . S
O1386 C1383 1.301 . S
O1387 U1366 2.449 . S
O1387 C1383 1.282 . S
H1388 C1361 0.931 . S
H1389 C1363 0.929 . S
H1390 C1364 0.930 . S
H1391 C1365 0.931 . S
H1392 C1372 0.932 . S
H1393 C1373 0.930 . S
H1394 C1374 0.929 . S
H1395 C1376 0.930 . S
H1396 C1378 0.932 . S
H1397 C1379 0.929 . S
H1398 C1380 0.928 . S
H1399 C1382 0.932 . S
C1400 C1401 1.264 . S
C1400 C1405 1.479 . S
C1400 C1410 1.465 . S
C1401 C1400 1.264 . S
C1401 C1403 1.339 . S
C1401 H1428 0.931 . S
C1402 C1403 1.395 . S
C1402 C1404 1.320 . S
C1403 C1401 1.339 . S
C1403 C1402 1.395 . S
C1403 H1429 0.929 . S
C1404 C1402 1.320 . S
C1404 C1405 1.405 . S
C1404 H1430 0.930 . S
C1405 C1400 1.479 . S
C1405 C1404 1.405 . S
C1405 H1431 0.931 . S
U1406 O1407 2.454 . S
U1406 O1408 2.458 . S
U1406 C1409 2.984 . S
U1406 C1410 2.847 . S
U1406 C1423 2.882 . S
U1406 O1424 2.441 . S
U1406 O1425 2.420 . S
U1406 O1426 2.455 . S
U1406 O1427 2.449 . S
O1407 U1406 2.454 . S
O1407 C1409 1.353 . S
O1408 U1406 2.458 . S
O1408 C1409 1.286 . S
C1409 U1406 2.984 . S
C1409 O1407 1.353 . S
C1409 O1408 1.286 . S
C1409 C1411 1.363 . S
C1410 C1400 1.465 . S
C1410 U1406 2.847 . S
C1410 O1424 1.249 . S
C1410 O1425 1.202 . S
C1411 C1409 1.363 . S
C1411 C1413 1.408 . S
C1411 C1416 1.342 . S
C1412 C1413 1.310 . S
C1412 C1415 1.461 . S
C1412 H1432 0.932 . S
C1413 C1411 1.408 . S
C1413 C1412 1.310 . S
C1413 H1433 0.930 . S
C1414 C1415 1.474 . S
C1414 C1416 1.285 . S
C1414 H1434 0.929 . S
C1415 C1412 1.461 . S
C1415 C1414 1.474 . S
C1416 C1411 1.342 . S
C1416 C1414 1.285 . S
C1416 H1435 0.930 . S
C1417 C1420 1.424 . S
C1417 C1422 1.245 . S
C1417 C1423 1.428 . S
C1418 C1421 1.260 . S
C1418 C1422 1.477 . S
C1418 H1436 0.932 . S
C1419 C1420 1.384 . S
C1419 C1421 1.479 . S
C1419 H1437 0.929 . S
C1420 C1417 1.424 . S
C1420 C1419 1.384 . S
C1420 H1438 0.928 . S
C1421 C1418 1.260 . S
C1421 C1419 1.479 . S
C1422 C1417 1.245 . S
C1422 C1418 1.477 . S
C1422 H1439 0.932 . S
C1423 U1406 2.882 . S
C1423 C1417 1.428 . S
C1423 O1426 1.301 . S
C1423 O1427 1.282 . S
O1424 U1406 2.441 . S
O1424 C1410 1.249 . S
O1425 U1406 2.420 . S
O1425 C1410 1.202 . S
O1426 U1406 2.455 . S
O1426 C1423 1.301 . S
O1427 U1406 2.449 . S
O1427 C1423 1.282 . S
H1428 C1401 0.931 . S
H1429 C1403 0.929 . S
H1430 C1404 0.930 . S
H1431 C1405 0.931 . S
H1432 C1412 0.932 . S
H1433 C1413 0.930 . S
H1434 C1414 0.929 . S
H1435 C1416 0.930 . S
H1436 C1418 0.932 . S
H1437 C1419 0.929 . S
H1438 C1420 0.928 . S
H1439 C1422 0.932 . S
C1440 C1441 1.264 . S
C1440 C1445 1.479 . S
C1440 C1450 1.465 . S
C1441 C1440 1.264 . S
C1441 C1443 1.339 . S
C1441 H1468 0.931 . S
C1442 C1443 1.395 . S
C1442 C1444 1.320 . S
C1443 C1441 1.339 . S
C1443 C1442 1.395 . S
C1443 H1469 0.929 . S
C1444 C1442 1.320 . S
C1444 C1445 1.405 . S
C1444 H1470 0.930 . S
C1445 C1440 1.479 . S
C1445 C1444 1.405 . S
C1445 H1471 0.931 . S
U1446 O1447 2.454 . S
U1446 O1448 2.458 . S
U1446 C1449 2.984 . S
U1446 C1450 2.847 . S
U1446 C1463 2.882 . S
U1446 O1464 2.441 . S
U1446 O1465 2.420 . S
U1446 O1466 2.455 . S
U1446 O1467 2.449 . S
O1447 U1446 2.454 . S
O1447 C1449 1.353 . S
O1448 U1446 2.458 . S
O1448 C1449 1.286 . S
C1449 U1446 2.984 . S
C1449 O1447 1.353 . S
C1449 O1448 1.286 . S
C1449 C1451 1.363 . S
C1450 C1440 1.465 . S
C1450 U1446 2.847 . S
C1450 O1464 1.249 . S
C1450 O1465 1.202 . S
C1451 C1449 1.363 . S
C1451 C1453 1.408 . S
C1451 C1456 1.342 . S
C1452 C1453 1.310 . S
C1452 C1455 1.461 . S
C1452 H1472 0.932 . S
C1453 C1451 1.408 . S
C1453 C1452 1.310 . S
C1453 H1473 0.930 . S
C1454 C1455 1.474 . S
C1454 C1456 1.285 . S
C1454 H1474 0.929 . S
C1455 C1452 1.461 . S
C1455 C1454 1.474 . S
C1456 C1451 1.342 . S
C1456 C1454 1.285 . S
C1456 H1475 0.930 . S
C1457 C1460 1.424 . S
C1457 C1462 1.245 . S
C1457 C1463 1.428 . S
C1458 C1461 1.260 . S
C1458 C1462 1.477 . S
C1458 H1476 0.932 . S
C1459 C1460 1.384 . S
C1459 C1461 1.479 . S
C1459 H1477 0.929 . S
C1460 C1457 1.424 . S
C1460 C1459 1.384 . S
C1460 H1478 0.928 . S
C1461 C1458 1.260 . S
C1461 C1459 1.479 . S
C1462 C1457 1.245 . S
C1462 C1458 1.477 . S
C1462 H1479 0.932 . S
C1463 U1446 2.882 . S
C1463 C1457 1.428 . S
C1463 O1466 1.301 . S
C1463 O1467 1.282 . S
O1464 U1446 2.441 . S
O1464 C1450 1.249 . S
O1465 U1446 2.420 . S
O1465 C1450 1.202 . S
O1466 U1446 2.455 . S
O1466 C1463 1.301 . S
O1467 U1446 2.449 . S
O1467 C1463 1.282 . S
H1468 C1441 0.931 . S
H1469 C1443 0.929 . S
H1470 C1444 0.930 . S
H1471 C1445 0.931 . S
H1472 C1452 0.932 . S
H1473 C1453 0.930 . S
H1474 C1454 0.929 . S
H1475 C1456 0.930 . S
H1476 C1458 0.932 . S
H1477 C1459 0.929 . S
H1478 C1460 0.928 . S
H1479 C1462 0.932 . S
C1480 C1481 1.264 . S
C1480 C1485 1.479 . S
C1480 C1490 1.465 . S
C1481 C1480 1.264 . S
C1481 C1483 1.339 . S
C1481 H1508 0.931 . S
C1482 C1483 1.395 . S
C1482 C1484 1.320 . S
C1483 C1481 1.339 . S
C1483 C1482 1.395 . S
C1483 H1509 0.929 . S
C1484 C1482 1.320 . S
C1484 C1485 1.405 . S
C1484 H1510 0.930 . S
C1485 C1480 1.479 . S
C1485 C1484 1.405 . S
C1485 H1511 0.931 . S
U1486 O1487 2.454 . S
U1486 O1488 2.458 . S
U1486 C1489 2.984 . S
U1486 C1490 2.847 . S
U1486 C1503 2.882 . S
U1486 O1504 2.441 . S
U1486 O1505 2.420 . S
U1486 O1506 2.455 . S
U1486 O1507 2.449 . S
O1487 U1486 2.454 . S
O1487 C1489 1.353 . S
O1488 U1486 2.458 . S
O1488 C1489 1.286 . S
C1489 U1486 2.984 . S
C1489 O1487 1.353 . S
C1489 O1488 1.286 . S
C1489 C1491 1.363 . S
C1490 C1480 1.465 . S
C1490 U1486 2.847 . S
C1490 O1504 1.249 . S
C1490 O1505 1.202 . S
C1491 C1489 1.363 . S
C1491 C1493 1.408 . S
C1491 C1496 1.342 . S
C1492 C1493 1.310 . S
C1492 C1495 1.461 . S
C1492 H1512 0.932 . S
C1493 C1491 1.408 . S
C1493 C1492 1.310 . S
C1493 H1513 0.930 . S
C1494 C1495 1.474 . S
C1494 C1496 1.285 . S
C1494 H1514 0.929 . S
C1495 C1492 1.461 . S
C1495 C1494 1.474 . S
C1496 C1491 1.342 . S
C1496 C1494 1.285 . S
C1496 H1515 0.930 . S
C1497 C1500 1.424 . S
C1497 C1502 1.245 . S
C1497 C1503 1.428 . S
C1498 C1501 1.260 . S
C1498 C1502 1.477 . S
C1498 H1516 0.932 . S
C1499 C1500 1.384 . S
C1499 C1501 1.479 . S
C1499 H1517 0.929 . S
C1500 C1497 1.424 . S
C1500 C1499 1.384 . S
C1500 H1518 0.928 . S
C1501 C1498 1.260 . S
C1501 C1499 1.479 . S
C1502 C1497 1.245 . S
C1502 C1498 1.477 . S
C1502 H1519 0.932 . S
C1503 U1486 2.882 . S
C1503 C1497 1.428 . S
C1503 O1506 1.301 . S
C1503 O1507 1.282 . S
O1504 U1486 2.441 . S
O1504 C1490 1.249 . S
O1505 U1486 2.420 . S
O1505 C1490 1.202 . S
O1506 U1486 2.455 . S
O1506 C1503 1.301 . S
O1507 U1486 2.449 . S
O1507 C1503 1.282 . S
H1508 C1481 0.931 . S
H1509 C1483 0.929 . S
H1510 C1484 0.930 . S
H1511 C1485 0.931 . S
H1512 C1492 0.932 . S
H1513 C1493 0.930 . S
H1514 C1494 0.929 . S
H1515 C1496 0.930 . S
H1516 C1498 0.932 . S
H1517 C1499 0.929 . S
H1518 C1500 0.928 . S
H1519 C1502 0.932 . S
C1520 C1521 1.264 . S
C1520 C1525 1.479 . S
C1520 C1530 1.465 . S
C1521 C1520 1.264 . S
C1521 C1523 1.339 . S
C1521 H1548 0.931 . S
C1522 C1523 1.395 . S
C1522 C1524 1.320 . S
C1523 C1521 1.339 . S
C1523 C1522 1.395 . S
C1523 H1549 0.929 . S
C1524 C1522 1.320 . S
C1524 C1525 1.405 . S
C1524 H1550 0.930 . S
C1525 C1520 1.479 . S
C1525 C1524 1.405 . S
C1525 H1551 0.931 . S
U1526 O1527 2.454 . S
U1526 O1528 2.458 . S
U1526 C1529 2.984 . S
U1526 C1530 2.847 . S
U1526 C1543 2.882 . S
U1526 O1544 2.441 . S
U1526 O1545 2.420 . S
U1526 O1546 2.455 . S
U1526 O1547 2.449 . S
O1527 U1526 2.454 . S
O1527 C1529 1.353 . S
O1528 U1526 2.458 . S
O1528 C1529 1.286 . S
C1529 U1526 2.984 . S
C1529 O1527 1.353 . S
C1529 O1528 1.286 . S
C1529 C1531 1.363 . S
C1530 C1520 1.465 . S
C1530 U1526 2.847 . S
C1530 O1544 1.249 . S
C1530 O1545 1.202 . S
C1531 C1529 1.363 . S
C1531 C1533 1.408 . S
C1531 C1536 1.342 . S
C1532 C1533 1.310 . S
C1532 C1535 1.461 . S
C1532 H1552 0.932 . S
C1533 C1531 1.408 . S
C1533 C1532 1.310 . S
C1533 H1553 0.930 . S
C1534 C1535 1.474 . S
C1534 C1536 1.285 . S
C1534 H1554 0.929 . S
C1535 C1532 1.461 . S
C1535 C1534 1.474 . S
C1536 C1531 1.342 . S
C1536 C1534 1.285 . S
C1536 H1555 0.930 . S
C1537 C1540 1.424 . S
C1537 C1542 1.245 . S
C1537 C1543 1.428 . S
C1538 C1541 1.260 . S
C1538 C1542 1.477 . S
C1538 H1556 0.932 . S
C1539 C1540 1.384 . S
C1539 C1541 1.479 . S
C1539 H1557 0.929 . S
C1540 C1537 1.424 . S
C1540 C1539 1.384 . S
C1540 H1558 0.928 . S
C1541 C1538 1.260 . S
C1541 C1539 1.479 . S
C1542 C1537 1.245 . S
C1542 C1538 1.477 . S
C1542 H1559 0.932 . S
C1543 U1526 2.882 . S
C1543 C1537 1.428 . S
C1543 O1546 1.301 . S
C1543 O1547 1.282 . S
O1544 U1526 2.441 . S
O1544 C1530 1.249 . S
O1545 U1526 2.420 . S
O1545 C1530 1.202 . S
O1546 U1526 2.455 . S
O1546 C1543 1.301 . S
O1547 U1526 2.449 . S
O1547 C1543 1.282 . S
H1548 C1521 0.931 . S
H1549 C1523 0.929 . S
H1550 C1524 0.930 . S
H1551 C1525 0.931 . S
H1552 C1532 0.932 . S
H1553 C1533 0.930 . S
H1554 C1534 0.929 . S
H1555 C1536 0.930 . S
H1556 C1538 0.932 . S
H1557 C1539 0.929 . S
H1558 C1540 0.928 . S
H1559 C1542 0.932 . S
C1560 C1561 1.264 . S
C1560 C1565 1.479 . S
C1560 C1570 1.465 . S
C1561 C1560 1.264 . S
C1561 C1563 1.339 . S
C1561 H1588 0.931 . S
C1562 C1563 1.395 . S
C1562 C1564 1.320 . S
C1563 C1561 1.339 . S
C1563 C1562 1.395 . S
C1563 H1589 0.929 . S
C1564 C1562 1.320 . S
C1564 C1565 1.405 . S
C1564 H1590 0.930 . S
C1565 C1560 1.479 . S
C1565 C1564 1.405 . S
C1565 H1591 0.931 . S
U1566 O1567 2.454 . S
U1566 O1568 2.458 . S
U1566 C1569 2.984 . S
U1566 C1570 2.847 . S
U1566 C1583 2.882 . S
U1566 O1584 2.441 . S
U1566 O1585 2.420 . S
U1566 O1586 2.455 . S
U1566 O1587 2.449 . S
O1567 U1566 2.454 . S
O1567 C1569 1.353 . S
O1568 U1566 2.458 . S
O1568 C1569 1.286 . S
C1569 U1566 2.984 . S
C1569 O1567 1.353 . S
C1569 O1568 1.286 . S
C1569 C1571 1.363 . S
C1570 C1560 1.465 . S
C1570 U1566 2.847 . S
C1570 O1584 1.249 . S
C1570 O1585 1.202 . S
C1571 C1569 1.363 . S
C1571 C1573 1.408 . S
C1571 C1576 1.342 . S
C1572 C1573 1.310 . S
C1572 C1575 1.461 . S
C1572 H1592 0.932 . S
C1573 C1571 1.408 . S
C1573 C1572 1.310 . S
C1573 H1593 0.930 . S
C1574 C1575 1.474 . S
C1574 C1576 1.285 . S
C1574 H1594 0.929 . S
C1575 C1572 1.461 . S
C1575 C1574 1.474 . S
C1576 C1571 1.342 . S
C1576 C1574 1.285 . S
C1576 H1595 0.930 . S
C1577 C1580 1.424 . S
C1577 C1582 1.245 . S
C1577 C1583 1.428 . S
C1578 C1581 1.260 . S
C1578 C1582 1.477 . S
C1578 H1596 0.932 . S
C1579 C1580 1.384 . S
C1579 C1581 1.479 . S
C1579 H1597 0.929 . S
C1580 C1577 1.424 . S
C1580 C1579 1.384 . S
C1580 H1598 0.928 . S
C1581 C1578 1.260 . S
C1581 C1579 1.479 . S
C1582 C1577 1.245 . S
C1582 C1578 1.477 . S
C1582 H1599 0.932 . S
C1583 U1566 2.882 . S
C1583 C1577 1.428 . S
C1583 O1586 1.301 . S
C1583 O1587 1.282 . S
O1584 U1566 2.441 . S
O1584 C1570 1.249 . S
O1585 U1566 2.420 . S
O1585 C1570 1.202 . S
O1586 U1566 2.455 . S
O1586 C1583 1.301 . S
O1587 U1566 2.449 . S
O1587 C1583 1.282 . S
H1588 C1561 0.931 . S
H1589 C1563 0.929 . S
H1590 C1564 0.930 . S
H1591 C1565 0.931 . S
H1592 C1572 0.932 . S
H1593 C1573 0.930 . S
H1594 C1574 0.929 . S
H1595 C1576 0.930 . S
H1596 C1578 0.932 . S
H1597 C1579 0.929 . S
H1598 C1580 0.928 . S
H1599 C1582 0.932 . S
C1600 C1601 1.264 . S
C1600 C1605 1.479 . S
C1600 C1610 1.465 . S
C1601 C1600 1.264 . S
C1601 C1603 1.339 . S
C1601 H1628 0.931 . S
C1602 C1603 1.395 . S
C1602 C1604 1.320 . S
C1603 C1601 1.339 . S
C1603 C1602 1.395 . S
C1603 H1629 0.929 . S
C1604 C1602 1.320 . S
C1604 C1605 1.405 . S
C1604 H1630 0.930 . S
C1605 C1600 1.479 . S
C1605 C1604 1.405 . S
C1605 H1631 0.931 . S
U1606 O1607 2.454 1_455 S
U1606 O1608 2.458 . S
U1606 C1609 2.984 . S
U1606 C1610 2.847 1_455 S
U1606 C1623 2.882 . S
U1606 O1624 2.441 1_455 S
U1606 O1625 2.420 1_455 S
U1606 O1626 2.455 . S
U1606 O1627 2.449 . S
O1607 U1606 2.454 1_655 S
O1607 C1609 1.353 1_655 S
O1608 U1606 2.458 . S
O1608 C1609 1.286 . S
C1609 U1606 2.984 . S
C1609 O1607 1.353 1_455 S
C1609 O1608 1.286 . S
C1609 C1611 1.363 . S
C1610 C1600 1.465 . S
C1610 U1606 2.847 1_655 S
C1610 O1624 1.249 . S
C1610 O1625 1.202 . S
C1611 C1609 1.363 . S
C1611 C1613 1.446 . S
C1611 C1616 1.342 . S
C1612 C1613 1.317 . S
C1612 C1615 1.461 . S
C1612 H1632 0.932 1_455 S
C1613 C1611 1.446 . S
C1613 C1612 1.317 . S
C1613 H1633 0.888 1_455 S
C1614 C1615 1.474 . S
C1614 C1616 1.285 . S
C1614 H1634 0.929 . S
C1615 C1612 1.461 . S
C1615 C1614 1.474 . S
C1616 C1611 1.342 . S
C1616 C1614 1.285 . S
C1616 H1635 0.930 . S
C1617 C1620 1.424 . S
C1617 C1622 1.245 . S
C1617 C1623 1.428 . S
C1618 C1621 1.260 . S
C1618 C1622 1.477 . S
C1618 H1636 0.932 . S
C1619 C1620 1.384 . S
C1619 C1621 1.479 . S
C1619 H1637 0.929 . S
C1620 C1617 1.424 . S
C1620 C1619 1.384 . S
C1620 H1638 0.928 . S
C1621 C1618 1.260 . S
C1621 C1619 1.479 . S
C1622 C1617 1.245 . S
C1622 C1618 1.477 . S
C1622 H1639 0.932 . S
C1623 U1606 2.882 . S
C1623 C1617 1.428 . S
C1623 O1626 1.301 . S
C1623 O1627 1.282 . S
O1624 U1606 2.441 1_655 S
O1624 C1610 1.249 . S
O1625 U1606 2.420 1_655 S
O1625 C1610 1.202 . S
O1626 U1606 2.455 . S
O1626 C1623 1.301 . S
O1627 U1606 2.449 . S
O1627 C1623 1.282 . S
H1628 C1601 0.931 . S
H1629 C1603 0.929 . S
H1630 C1604 0.930 . S
H1631 C1605 0.931 . S
H1632 C1612 0.932 1_655 S
H1633 C1613 0.888 1_655 S
H1634 C1614 0.929 . S
H1635 C1616 0.930 . S
H1636 C1618 0.932 . S
H1637 C1619 0.929 . S
H1638 C1620 0.928 . S
H1639 C1622 0.932 . S
C1640 C1641 1.264 . S
C1640 C1645 1.479 . S
C1640 C1650 1.465 . S
C1641 C1640 1.264 . S
C1641 C1643 1.339 . S
C1641 H1668 0.931 . S
C1642 C1643 1.395 . S
C1642 C1644 1.320 . S
C1643 C1641 1.339 . S
C1643 C1642 1.395 . S
C1643 H1669 0.929 . S
C1644 C1642 1.320 . S
C1644 C1645 1.405 . S
C1644 H1670 0.930 . S
C1645 C1640 1.479 . S
C1645 C1644 1.405 . S
C1645 H1671 0.931 . S
U1646 O1647 2.454 . S
U1646 O1648 2.458 . S
U1646 C1649 2.984 . S
U1646 C1650 2.847 . S
U1646 C1663 2.882 . S
U1646 O1664 2.441 . S
U1646 O1665 2.420 . S
U1646 O1666 2.455 . S
U1646 O1667 2.449 . S
O1647 U1646 2.454 . S
O1647 C1649 1.353 . S
O1648 U1646 2.458 . S
O1648 C1649 1.286 . S
C1649 U1646 2.984 . S
C1649 O1647 1.353 . S
C1649 O1648 1.286 . S
C1649 C1651 1.363 . S
C1650 C1640 1.465 . S
C1650 U1646 2.847 . S
C1650 O1664 1.249 . S
C1650 O1665 1.202 . S
C1651 C1649 1.363 . S
C1651 C1653 1.408 . S
C1651 C1656 1.342 . S
C1652 C1653 1.310 . S
C1652 C1655 1.461 . S
C1652 H1672 0.932 . S
C1653 C1651 1.408 . S
C1653 C1652 1.310 . S
C1653 H1673 0.930 . S
C1654 C1655 1.474 . S
C1654 C1656 1.285 . S
C1654 H1674 0.929 . S
C1655 C1652 1.461 . S
C1655 C1654 1.474 . S
C1656 C1651 1.342 . S
C1656 C1654 1.285 . S
C1656 H1675 0.930 . S
C1657 C1660 1.424 . S
C1657 C1662 1.245 . S
C1657 C1663 1.428 . S
C1658 C1661 1.260 . S
C1658 C1662 1.477 . S
C1658 H1676 0.932 . S
C1659 C1660 1.384 . S
C1659 C1661 1.479 . S
C1659 H1677 0.929 . S
C1660 C1657 1.424 . S
C1660 C1659 1.384 . S
C1660 H1678 0.928 . S
C1661 C1658 1.260 . S
C1661 C1659 1.479 . S
C1662 C1657 1.245 . S
C1662 C1658 1.477 . S
C1662 H1679 0.932 . S
C1663 U1646 2.882 . S
C1663 C1657 1.428 . S
C1663 O1666 1.301 . S
C1663 O1667 1.282 . S
O1664 U1646 2.441 . S
O1664 C1650 1.249 . S
O1665 U1646 2.420 . S
O1665 C1650 1.202 . S
O1666 U1646 2.455 . S
O1666 C1663 1.301 . S
O1667 U1646 2.449 . S
O1667 C1663 1.282 . S
H1668 C1641 0.931 . S
H1669 C1643 0.929 . S
H1670 C1644 0.930 . S
H1671 C1645 0.931 . S
H1672 C1652 0.932 . S
H1673 C1653 0.930 . S
H1674 C1654 0.929 . S
H1675 C1656 0.930 . S
H1676 C1658 0.932 . S
H1677 C1659 0.929 . S
H1678 C1660 0.928 . S
H1679 C1662 0.932 . S
C1680 C1681 1.264 . S
C1680 C1685 1.479 . S
C1680 C1690 1.465 . S
C1681 C1680 1.264 . S
C1681 C1683 1.339 . S
C1681 H1708 0.931 . S
C1682 C1683 1.395 . S
C1682 C1684 1.320 . S
C1683 C1681 1.339 . S
C1683 C1682 1.395 . S
C1683 H1709 0.929 . S
C1684 C1682 1.320 . S
C1684 C1685 1.405 . S
C1684 H1710 0.930 . S
C1685 C1680 1.479 . S
C1685 C1684 1.405 . S
C1685 H1711 0.931 . S
U1686 O1687 2.454 . S
U1686 O1688 2.458 . S
U1686 C1689 2.984 . S
U1686 C1690 2.847 . S
U1686 C1703 2.882 . S
U1686 O1704 2.441 . S
U1686 O1705 2.420 . S
U1686 O1706 2.455 . S
U1686 O1707 2.449 . S
O1687 U1686 2.454 . S
O1687 C1689 1.353 . S
O1688 U1686 2.458 . S
O1688 C1689 1.286 . S
C1689 U1686 2.984 . S
C1689 O1687 1.353 . S
C1689 O1688 1.286 . S
C1689 C1691 1.363 1_554 S
C1690 C1680 1.465 . S
C1690 U1686 2.847 . S
C1690 O1704 1.249 . S
C1690 O1705 1.202 . S
C1691 C1689 1.363 1_556 S
C1691 C1693 1.408 . S
C1691 C1696 1.342 . S
C1692 C1693 1.310 . S
C1692 C1695 1.461 . S
C1692 H1712 0.932 . S
C1693 C1691 1.408 . S
C1693 C1692 1.310 . S
C1693 H1713 0.930 . S
C1694 C1695 1.474 . S
C1694 C1696 1.285 . S
C1694 H1714 0.929 . S
C1695 C1692 1.461 . S
C1695 C1694 1.474 . S
C1696 C1691 1.342 . S
C1696 C1694 1.285 . S
C1696 H1715 0.930 . S
C1697 C1700 1.424 . S
C1697 C1702 1.245 . S
C1697 C1703 1.428 . S
C1698 C1701 1.260 . S
C1698 C1702 1.477 . S
C1698 H1716 0.932 . S
C1699 C1700 1.384 . S
C1699 C1701 1.479 . S
C1699 H1717 0.929 . S
C1700 C1697 1.424 . S
C1700 C1699 1.384 . S
C1700 H1718 0.928 . S
C1701 C1698 1.260 . S
C1701 C1699 1.479 . S
C1702 C1697 1.245 . S
C1702 C1698 1.477 . S
C1702 H1719 0.932 . S
C1703 U1686 2.882 . S
C1703 C1697 1.428 . S
C1703 O1706 1.301 . S
C1703 O1707 1.282 . S
O1704 U1686 2.441 . S
O1704 C1690 1.249 . S
O1705 U1686 2.420 . S
O1705 C1690 1.202 . S
O1706 U1686 2.455 . S
O1706 C1703 1.301 . S
O1707 U1686 2.449 . S
O1707 C1703 1.282 . S
H1708 C1681 0.931 . S
H1709 C1683 0.929 . S
H1710 C1684 0.930 . S
H1711 C1685 0.931 . S
H1712 C1692 0.932 . S
H1713 C1693 0.930 . S
H1714 C1694 0.929 . S
H1715 C1696 0.930 . S
H1716 C1698 0.932 . S
H1717 C1699 0.929 . S
H1718 C1700 0.928 . S
H1719 C1702 0.932 . S
C1720 C1721 1.264 . S
C1720 C1725 1.479 . S
C1720 C1730 1.465 . S
C1721 C1720 1.264 . S
C1721 C1723 1.339 . S
C1721 H1748 0.931 . S
C1722 C1723 1.395 . S
C1722 C1724 1.320 . S
C1723 C1721 1.339 . S
C1723 C1722 1.395 . S
C1723 H1749 0.929 . S
C1724 C1722 1.320 . S
C1724 C1725 1.405 . S
C1724 H1750 0.930 . S
C1725 C1720 1.479 . S
C1725 C1724 1.405 . S
C1725 H1751 0.931 . S
U1726 O1727 2.454 . S
U1726 O1728 2.458 . S
U1726 C1729 2.984 . S
U1726 C1730 2.847 . S
U1726 C1743 2.882 . S
U1726 O1744 2.441 . S
U1726 O1745 2.420 . S
U1726 O1746 2.455 . S
U1726 O1747 2.449 . S
O1727 U1726 2.454 . S
O1727 C1729 1.353 . S
O1728 U1726 2.458 . S
O1728 C1729 1.286 . S
C1729 U1726 2.984 . S
C1729 O1727 1.353 . S
C1729 O1728 1.286 . S
C1729 C1731 1.363 . S
C1730 C1720 1.465 . S
C1730 U1726 2.847 . S
C1730 O1744 1.249 . S
C1730 O1745 1.202 . S
C1731 C1729 1.363 . S
C1731 C1733 1.408 . S
C1731 C1736 1.342 . S
C1732 C1733 1.310 . S
C1732 C1735 1.461 . S
C1732 H1752 0.932 . S
C1733 C1731 1.408 . S
C1733 C1732 1.310 . S
C1733 H1753 0.930 . S
C1734 C1735 1.474 . S
C1734 C1736 1.285 . S
C1734 H1754 0.929 . S
C1735 C1732 1.461 . S
C1735 C1734 1.474 . S
C1736 C1731 1.342 . S
C1736 C1734 1.285 . S
C1736 H1755 0.930 . S
C1737 C1740 1.424 . S
C1737 C1742 1.245 . S
C1737 C1743 1.428 . S
C1738 C1741 1.260 . S
C1738 C1742 1.477 . S
C1738 H1756 0.932 . S
C1739 C1740 1.384 . S
C1739 C1741 1.479 . S
C1739 H1757 0.929 . S
C1740 C1737 1.424 . S
C1740 C1739 1.384 . S
C1740 H1758 0.928 . S
C1741 C1738 1.260 . S
C1741 C1739 1.479 . S
C1742 C1737 1.245 . S
C1742 C1738 1.477 . S
C1742 H1759 0.932 . S
C1743 U1726 2.882 . S
C1743 C1737 1.428 . S
C1743 O1746 1.301 . S
C1743 O1747 1.282 . S
O1744 U1726 2.441 . S
O1744 C1730 1.249 . S
O1745 U1726 2.420 . S
O1745 C1730 1.202 . S
O1746 U1726 2.455 . S
O1746 C1743 1.301 . S
O1747 U1726 2.449 . S
O1747 C1743 1.282 . S
H1748 C1721 0.931 . S
H1749 C1723 0.929 . S
H1750 C1724 0.930 . S
H1751 C1725 0.931 . S
H1752 C1732 0.932 . S
H1753 C1733 0.930 . S
H1754 C1734 0.929 . S
H1755 C1736 0.930 . S
H1756 C1738 0.932 . S
H1757 C1739 0.929 . S
H1758 C1740 0.928 . S
H1759 C1742 0.932 . S
C1760 C1761 1.264 . S
C1760 C1765 1.479 . S
C1760 C1770 1.465 . S
C1761 C1760 1.264 . S
C1761 C1763 1.339 . S
C1761 H1788 0.931 . S
C1762 C1763 1.395 . S
C1762 C1764 1.320 . S
C1763 C1761 1.339 . S
C1763 C1762 1.395 . S
C1763 H1789 0.929 . S
C1764 C1762 1.320 . S
C1764 C1765 1.405 . S
C1764 H1790 0.930 . S
C1765 C1760 1.479 . S
C1765 C1764 1.405 . S
C1765 H1791 0.931 . S
U1766 O1767 2.454 . S
U1766 O1768 2.458 . S
U1766 C1769 2.984 . S
U1766 C1770 2.847 . S
U1766 C1783 2.882 . S
U1766 O1784 2.441 . S
U1766 O1785 2.420 . S
U1766 O1786 2.455 . S
U1766 O1787 2.449 . S
O1767 U1766 2.454 . S
O1767 C1769 1.353 . S
O1768 U1766 2.458 . S
O1768 C1769 1.286 . S
C1769 U1766 2.984 . S
C1769 O1767 1.353 . S
C1769 O1768 1.286 . S
C1769 C1771 1.363 . S
C1770 C1760 1.465 . S
C1770 U1766 2.847 . S
C1770 O1784 1.249 . S
C1770 O1785 1.202 . S
C1771 C1769 1.363 . S
C1771 C1773 1.408 . S
C1771 C1776 1.342 . S
C1772 C1773 1.310 . S
C1772 C1775 1.461 . S
C1772 H1792 0.932 . S
C1773 C1771 1.408 . S
C1773 C1772 1.310 . S
C1773 H1793 0.930 . S
C1774 C1775 1.474 . S
C1774 C1776 1.285 . S
C1774 H1794 0.929 . S
C1775 C1772 1.461 . S
C1775 C1774 1.474 . S
C1776 C1771 1.342 . S
C1776 C1774 1.285 . S
C1776 H1795 0.930 . S
C1777 C1780 1.424 . S
C1777 C1782 1.245 . S
C1777 C1783 1.428 . S
C1778 C1781 1.260 . S
C1778 C1782 1.477 . S
C1778 H1796 0.932 . S
C1779 C1780 1.384 . S
C1779 C1781 1.479 . S
C1779 H1797 0.929 . S
C1780 C1777 1.424 . S
C1780 C1779 1.384 . S
C1780 H1798 0.928 . S
C1781 C1778 1.260 . S
C1781 C1779 1.479 . S
C1782 C1777 1.245 . S
C1782 C1778 1.477 . S
C1782 H1799 0.932 . S
C1783 U1766 2.882 . S
C1783 C1777 1.428 . S
C1783 O1786 1.301 . S
C1783 O1787 1.282 . S
O1784 U1766 2.441 . S
O1784 C1770 1.249 . S
O1785 U1766 2.420 . S
O1785 C1770 1.202 . S
O1786 U1766 2.455 . S
O1786 C1783 1.301 . S
O1787 U1766 2.449 . S
O1787 C1783 1.282 . S
H1788 C1761 0.931 . S
H1789 C1763 0.929 . S
H1790 C1764 0.930 . S
H1791 C1765 0.931 . S
H1792 C1772 0.932 . S
H1793 C1773 0.930 . S
H1794 C1774 0.929 . S
H1795 C1776 0.930 . S
H1796 C1778 0.932 . S
H1797 C1779 0.929 . S
H1798 C1780 0.928 . S
H1799 C1782 0.932 . S
C1800 C1801 1.264 . S
C1800 C1805 1.479 . S
C1800 C1810 1.465 . S
C1801 C1800 1.264 . S
C1801 C1803 1.339 . S
C1801 H1828 0.931 . S
C1802 C1803 1.395 . S
C1802 C1804 1.320 . S
C1803 C1801 1.339 . S
C1803 C1802 1.395 . S
C1803 H1829 0.929 . S
C1804 C1802 1.320 . S
C1804 C1805 1.405 . S
C1804 H1830 0.930 . S
C1805 C1800 1.479 . S
C1805 C1804 1.405 . S
C1805 H1831 0.931 . S
U1806 O1807 2.454 . S
U1806 O1808 2.458 . S
U1806 C1809 2.984 . S
U1806 C1810 2.847 . S
U1806 C1823 2.882 . S
U1806 O1824 2.441 . S
U1806 O1825 2.420 . S
U1806 O1826 2.455 . S
U1806 O1827 2.449 . S
O1807 U1806 2.454 . S
O1807 C1809 1.353 . S
O1808 U1806 2.458 . S
O1808 C1809 1.286 . S
C1809 U1806 2.984 . S
C1809 O1807 1.353 . S
C1809 O1808 1.286 . S
C1809 C1811 1.363 . S
C1810 C1800 1.465 . S
C1810 U1806 2.847 . S
C1810 O1824 1.249 . S
C1810 O1825 1.202 . S
C1811 C1809 1.363 . S
C1811 C1813 1.408 . S
C1811 C1816 1.342 . S
C1812 C1813 1.310 . S
C1812 C1815 1.461 . S
C1812 H1832 0.932 . S
C1813 C1811 1.408 . S
C1813 C1812 1.310 . S
C1813 H1833 0.930 . S
C1814 C1815 1.474 . S
C1814 C1816 1.285 . S
C1814 H1834 0.929 . S
C1815 C1812 1.461 . S
C1815 C1814 1.474 . S
C1816 C1811 1.342 . S
C1816 C1814 1.285 . S
C1816 H1835 0.930 . S
C1817 C1820 1.424 . S
C1817 C1822 1.245 . S
C1817 C1823 1.428 . S
C1818 C1821 1.260 . S
C1818 C1822 1.477 . S
C1818 H1836 0.932 . S
C1819 C1820 1.384 . S
C1819 C1821 1.479 . S
C1819 H1837 0.929 . S
C1820 C1817 1.424 . S
C1820 C1819 1.384 . S
C1820 H1838 0.928 . S
C1821 C1818 1.260 . S
C1821 C1819 1.479 . S
C1822 C1817 1.245 . S
C1822 C1818 1.477 . S
C1822 H1839 0.932 . S
C1823 U1806 2.882 . S
C1823 C1817 1.428 . S
C1823 O1826 1.301 . S
C1823 O1827 1.282 . S
O1824 U1806 2.441 . S
O1824 C1810 1.249 . S
O1825 U1806 2.420 . S
O1825 C1810 1.202 . S
O1826 U1806 2.455 . S
O1826 C1823 1.301 . S
O1827 U1806 2.449 . S
O1827 C1823 1.282 . S
H1828 C1801 0.931 . S
H1829 C1803 0.929 . S
H1830 C1804 0.930 . S
H1831 C1805 0.931 . S
H1832 C1812 0.932 . S
H1833 C1813 0.930 . S
H1834 C1814 0.929 . S
H1835 C1816 0.930 . S
H1836 C1818 0.932 . S
H1837 C1819 0.929 . S
H1838 C1820 0.928 . S
H1839 C1822 0.932 . S
C1840 C1841 1.264 . S
C1840 C1845 1.479 . S
C1840 C1850 1.465 . S
C1841 C1840 1.264 . S
C1841 C1843 1.339 . S
C1841 H1868 0.931 . S
C1842 C1843 1.395 . S
C1842 C1844 1.320 . S
C1843 C1841 1.339 . S
C1843 C1842 1.395 . S
C1843 H1869 0.929 . S
C1844 C1842 1.320 . S
C1844 C1845 1.405 . S
C1844 H1870 0.930 . S
C1845 C1840 1.479 . S
C1845 C1844 1.405 . S
C1845 H1871 0.931 . S
U1846 O1847 2.454 . S
U1846 O1848 2.458 . S
U1846 C1849 2.984 . S
U1846 C1850 2.847 . S
U1846 C1863 2.882 . S
U1846 O1864 2.441 . S
U1846 O1865 2.420 . S
U1846 O1866 2.455 . S
U1846 O1867 2.449 . S
O1847 U1846 2.454 . S
O1847 C1849 1.353 . S
O1848 U1846 2.458 . S
O1848 C1849 1.286 . S
C1849 U1846 2.984 . S
C1849 O1847 1.353 . S
C1849 O1848 1.286 . S
C1849 C1851 1.363 . S
C1850 C1840 1.465 . S
C1850 U1846 2.847 . S
C1850 O1864 1.249 . S
C1850 O1865 1.202 . S
C1851 C1849 1.363 . S
C1851 C1853 1.408 . S
C1851 C1856 1.342 . S
C1852 C1853 1.310 . S
C1852 C1855 1.461 . S
C1852 H1872 0.932 . S
C1853 C1851 1.408 . S
C1853 C1852 1.310 . S
C1853 H1873 0.930 . S
C1854 C1855 1.474 . S
C1854 C1856 1.285 . S
C1854 H1874 0.929 . S
C1855 C1852 1.461 . S
C1855 C1854 1.474 . S
C1856 C1851 1.342 . S
C1856 C1854 1.285 . S
C1856 H1875 0.930 . S
C1857 C1860 1.424 . S
C1857 C1862 1.245 . S
C1857 C1863 1.428 . S
C1858 C1861 1.260 . S
C1858 C1862 1.477 . S
C1858 H1876 0.932 . S
C1859 C1860 1.384 . S
C1859 C1861 1.479 . S
C1859 H1877 0.929 . S
C1860 C1857 1.424 . S
C1860 C1859 1.384 . S
C1860 H1878 0.928 . S
C1861 C1858 1.260 . S
C1861 C1859 1.479 . S
C1862 C1857 1.245 . S
C1862 C1858 1.477 . S
C1862 H1879 0.932 . S
C1863 U1846 2.882 . S
C1863 C1857 1.428 . S
C1863 O1866 1.301 . S
C1863 O1867 1.282 . S
O1864 U1846 2.441 . S
O1864 C1850 1.249 . S
O1865 U1846 2.420 . S
O1865 C1850 1.202 . S
O1866 U1846 2.455 . S
O1866 C1863 1.301 . S
O1867 U1846 2.449 . S
O1867 C1863 1.282 . S
H1868 C1841 0.931 . S
H1869 C1843 0.929 . S
H1870 C1844 0.930 . S
H1871 C1845 0.931 . S
H1872 C1852 0.932 . S
H1873 C1853 0.930 . S
H1874 C1854 0.929 . S
H1875 C1856 0.930 . S
H1876 C1858 0.932 . S
H1877 C1859 0.929 . S
H1878 C1860 0.928 . S
H1879 C1862 0.932 . S
C1880 C1881 1.264 . S
C1880 C1885 1.479 . S
C1880 C1890 1.465 . S
C1881 C1880 1.264 . S
C1881 C1883 1.339 . S
C1881 H1908 0.931 . S
C1882 C1883 1.395 . S
C1882 C1884 1.320 . S
C1883 C1881 1.339 . S
C1883 C1882 1.395 . S
C1883 H1909 0.929 . S
C1884 C1882 1.320 . S
C1884 C1885 1.405 . S
C1884 H1910 0.930 . S
C1885 C1880 1.479 . S
C1885 C1884 1.405 . S
C1885 H1911 0.931 . S
U1886 O1887 2.454 . S
U1886 O1888 2.458 . S
U1886 C1889 2.984 . S
U1886 C1890 2.847 . S
U1886 C1903 2.882 . S
U1886 O1904 2.441 . S
U1886 O1905 2.420 . S
U1886 O1906 2.455 . S
U1886 O1907 2.449 . S
O1887 U1886 2.454 . S
O1887 C1889 1.353 . S
O1888 U1886 2.458 . S
O1888 C1889 1.286 . S
C1889 U1886 2.984 . S
C1889 O1887 1.353 . S
C1889 O1888 1.286 . S
C1889 C1891 1.363 . S
C1890 C1880 1.465 . S
C1890 U1886 2.847 . S
C1890 O1904 1.249 . S
C1890 O1905 1.202 . S
C1891 C1889 1.363 . S
C1891 C1893 1.408 . S
C1891 C1896 1.342 . S
C1892 C1893 1.310 . S
C1892 C1895 1.461 . S
C1892 H1912 0.932 . S
C1893 C1891 1.408 . S
C1893 C1892 1.310 . S
C1893 H1913 0.930 . S
C1894 C1895 1.474 . S
C1894 C1896 1.285 . S
C1894 H1914 0.929 . S
C1895 C1892 1.461 . S
C1895 C1894 1.474 . S
C1896 C1891 1.342 . S
C1896 C1894 1.285 . S
C1896 H1915 0.930 . S
C1897 C1900 1.424 . S
C1897 C1902 1.245 . S
C1897 C1903 1.428 . S
C1898 C1901 1.260 . S
C1898 C1902 1.477 . S
C1898 H1916 0.932 . S
C1899 C1900 1.384 . S
C1899 C1901 1.479 . S
C1899 H1917 0.929 . S
C1900 C1897 1.424 . S
C1900 C1899 1.384 . S
C1900 H1918 0.928 . S
C1901 C1898 1.260 . S
C1901 C1899 1.479 . S
C1902 C1897 1.245 . S
C1902 C1898 1.477 . S
C1902 H1919 0.932 . S
C1903 U1886 2.882 . S
C1903 C1897 1.428 . S
C1903 O1906 1.301 . S
C1903 O1907 1.282 . S
O1904 U1886 2.441 . S
O1904 C1890 1.249 . S
O1905 U1886 2.420 . S
O1905 C1890 1.202 . S
O1906 U1886 2.455 . S
O1906 C1903 1.301 . S
O1907 U1886 2.449 . S
O1907 C1903 1.282 . S
H1908 C1881 0.931 . S
H1909 C1883 0.929 . S
H1910 C1884 0.930 . S
H1911 C1885 0.931 . S
H1912 C1892 0.932 . S
H1913 C1893 0.930 . S
H1914 C1894 0.929 . S
H1915 C1896 0.930 . S
H1916 C1898 0.932 . S
H1917 C1899 0.929 . S
H1918 C1900 0.928 . S
H1919 C1902 0.932 . S
H1920 C1925 0.930 . S
H1921 C1928 0.930 . S
H1922 C1930 0.930 . S
H1923 C1924 1.016 . S
C1924 H1923 1.016 . S
C1924 N1931 1.286 . S
C1925 H1920 0.930 . S
C1925 C1926 1.397 . S
C1925 C1927 1.361 . S
C1926 C1925 1.397 . S
C1926 C1930 1.390 . S
C1927 C1925 1.361 . S
C1927 C1928 1.393 . S
C1927 N1931 1.413 . S
C1928 H1921 0.930 . S
C1928 C1927 1.393 . S
C1928 C1929 1.399 . S
C1929 C1928 1.399 . S
C1929 C1930 1.381 . S
C1930 H1922 0.930 . S
C1930 C1926 1.390 . S
C1930 C1929 1.381 . S
N1931 C1924 1.286 . S
N1931 C1927 1.413 . S
H1932 C1937 0.930 . S
H1933 C1940 0.930 . S
H1934 C1942 0.930 . S
H1935 C1936 1.016 . S
C1936 H1935 1.016 . S
C1936 N1943 1.286 . S
C1937 H1932 0.930 . S
C1937 C1938 1.397 . S
C1937 C1939 1.361 . S
C1938 C1937 1.397 . S
C1938 C1942 1.390 . S
C1939 C1937 1.361 . S
C1939 C1940 1.393 . S
C1939 N1943 1.413 . S
C1940 H1933 0.930 . S
C1940 C1939 1.393 . S
C1940 C1941 1.399 . S
C1941 C1940 1.399 . S
C1941 C1942 1.381 . S
C1942 H1934 0.930 . S
C1942 C1938 1.390 . S
C1942 C1941 1.381 . S
N1943 C1936 1.286 . S
N1943 C1939 1.413 . S
H1944 C1949 0.930 . S
H1945 C1952 0.930 . S
H1946 C1954 0.930 . S
H1947 C1948 1.016 . S
C1948 H1947 1.016 . S
C1948 N1955 1.286 . S
C1949 H1944 0.930 . S
C1949 C1950 1.397 . S
C1949 C1951 1.361 . S
C1950 C1949 1.397 . S
C1950 C1954 1.390 . S
C1951 C1949 1.361 . S
C1951 C1952 1.393 . S
C1951 N1955 1.413 . S
C1952 H1945 0.930 . S
C1952 C1951 1.393 . S
C1952 C1953 1.399 . S
C1953 C1952 1.399 . S
C1953 C1954 1.381 . S
C1954 H1946 0.930 . S
C1954 C1950 1.390 . S
C1954 C1953 1.381 . S
N1955 C1948 1.286 . S
N1955 C1951 1.413 . S
H1956 C1961 0.930 . S
H1957 C1964 0.930 . S
H1958 C1966 0.930 . S
H1959 C1960 1.016 . S
C1960 H1959 1.016 . S
C1960 N1967 1.286 . S
C1961 H1956 0.930 . S
C1961 C1962 1.397 . S
C1961 C1963 1.361 . S
C1962 C1961 1.397 . S
C1962 C1966 1.390 . S
C1963 C1961 1.361 . S
C1963 C1964 1.393 . S
C1963 N1967 1.413 . S
C1964 H1957 0.930 . S
C1964 C1963 1.393 . S
C1964 C1965 1.399 . S
C1965 C1964 1.399 . S
C1965 C1966 1.381 . S
C1966 H1958 0.930 . S
C1966 C1962 1.390 . S
C1966 C1965 1.381 . S
N1967 C1960 1.286 . S
N1967 C1963 1.413 . S
H1968 C1973 0.930 . S
H1969 C1976 0.930 . S
H1970 C1978 0.930 . S
H1971 C1972 1.016 . S
C1972 H1971 1.016 . S
C1972 N1979 1.286 . S
C1973 H1968 0.930 . S
C1973 C1974 1.397 . S
C1973 C1975 1.361 . S
C1974 C1973 1.397 . S
C1974 C1978 1.390 . S
C1975 C1973 1.361 . S
C1975 C1976 1.393 . S
C1975 N1979 1.413 . S
C1976 H1969 0.930 . S
C1976 C1975 1.393 . S
C1976 C1977 1.399 . S
C1977 C1976 1.399 . S
C1977 C1978 1.381 . S
C1978 H1970 0.930 . S
C1978 C1974 1.390 . S
C1978 C1977 1.381 . S
N1979 C1972 1.286 . S
N1979 C1975 1.413 . S
H1980 C1985 0.930 . S
H1981 C1988 0.930 . S
H1982 C1990 0.930 . S
H1983 C1984 1.016 . S
C1984 H1983 1.016 . S
C1984 N1991 1.286 . S
C1985 H1980 0.930 . S
C1985 C1986 1.397 . S
C1985 C1987 1.361 . S
C1986 C1985 1.397 . S
C1986 C1990 1.390 . S
C1987 C1985 1.361 . S
C1987 C1988 1.393 . S
C1987 N1991 1.413 . S
C1988 H1981 0.930 . S
C1988 C1987 1.393 . S
C1988 C1989 1.399 . S
C1989 C1988 1.399 . S
C1989 C1990 1.381 . S
C1990 H1982 0.930 . S
C1990 C1986 1.390 . S
C1990 C1989 1.381 . S
N1991 C1984 1.286 . S
N1991 C1987 1.413 . S
H1992 C1997 0.930 . S
H1993 C2000 0.930 . S
H1994 C2002 0.930 . S
H1995 C1996 1.016 . S
C1996 H1995 1.016 . S
C1996 N2003 1.286 . S
C1997 H1992 0.930 . S
C1997 C1998 1.397 . S
C1997 C1999 1.361 . S
C1998 C1997 1.397 . S
C1998 C2002 1.390 . S
C1999 C1997 1.361 . S
C1999 C2000 1.393 . S
C1999 N2003 1.413 . S
C2000 H1993 0.930 . S
C2000 C1999 1.393 . S
C2000 C2001 1.399 . S
C2001 C2000 1.399 . S
C2001 C2002 1.381 . S
C2002 H1994 0.930 . S
C2002 C1998 1.390 . S
C2002 C2001 1.381 . S
N2003 C1996 1.286 . S
N2003 C1999 1.413 . S
H2004 C2009 0.930 . S
H2005 C2012 0.930 . S
H2006 C2014 0.930 . S
H2007 C2008 1.016 . S
C2008 H2007 1.016 . S
C2008 N2015 1.286 . S
C2009 H2004 0.930 . S
C2009 C2010 1.397 . S
C2009 C2011 1.361 . S
C2010 C2009 1.397 . S
C2010 C2014 1.390 . S
C2011 C2009 1.361 . S
C2011 C2012 1.393 . S
C2011 N2015 1.413 . S
C2012 H2005 0.930 . S
C2012 C2011 1.393 . S
C2012 C2013 1.399 . S
C2013 C2012 1.399 . S
C2013 C2014 1.381 . S
C2014 H2006 0.930 . S
C2014 C2010 1.390 . S
C2014 C2013 1.381 . S
N2015 C2008 1.286 . S
N2015 C2011 1.413 . S
H2016 C2021 0.930 . S
H2017 C2024 0.930 . S
H2018 C2026 0.930 . S
H2019 C2020 1.016 . S
C2020 H2019 1.016 . S
C2020 N2027 1.286 . S
C2021 H2016 0.930 . S
C2021 C2022 1.397 . S
C2021 C2023 1.361 . S
C2022 C2021 1.397 . S
C2022 C2026 1.390 . S
C2023 C2021 1.361 . S
C2023 C2024 1.393 . S
C2023 N2027 1.413 . S
C2024 H2017 0.930 . S
C2024 C2023 1.393 . S
C2024 C2025 1.399 . S
C2025 C2024 1.399 . S
C2025 C2026 1.381 . S
C2026 H2018 0.930 . S
C2026 C2022 1.390 . S
C2026 C2025 1.381 . S
N2027 C2020 1.286 . S
N2027 C2023 1.413 . S
H2028 C2033 0.930 . S
H2029 C2036 0.930 . S
H2030 C2038 0.930 . S
H2031 C2032 1.016 . S
C2032 H2031 1.016 . S
C2032 N2039 1.286 . S
C2033 H2028 0.930 . S
C2033 C2034 1.397 . S
C2033 C2035 1.361 . S
C2034 C2033 1.397 . S
C2034 C2038 1.390 . S
C2035 C2033 1.361 . S
C2035 C2036 1.393 . S
C2035 N2039 1.413 . S
C2036 H2029 0.930 . S
C2036 C2035 1.393 . S
C2036 C2037 1.399 . S
C2037 C2036 1.399 . S
C2037 C2038 1.381 . S
C2038 H2030 0.930 . S
C2038 C2034 1.390 . S
C2038 C2037 1.381 . S
N2039 C2032 1.286 . S
N2039 C2035 1.413 . S
H2040 C2045 0.930 . S
H2041 C2048 0.930 . S
H2042 C2050 0.930 . S
H2043 C2044 1.016 . S
C2044 H2043 1.016 . S
C2044 N2051 1.286 . S
C2045 H2040 0.930 . S
C2045 C2046 1.397 . S
C2045 C2047 1.361 . S
C2046 C2045 1.397 . S
C2046 C2050 1.390 . S
C2047 C2045 1.361 . S
C2047 C2048 1.393 . S
C2047 N2051 1.413 . S
C2048 H2041 0.930 . S
C2048 C2047 1.393 . S
C2048 C2049 1.399 . S
C2049 C2048 1.399 . S
C2049 C2050 1.381 . S
C2050 H2042 0.930 . S
C2050 C2046 1.390 . S
C2050 C2049 1.381 . S
N2051 C2044 1.286 . S
N2051 C2047 1.413 . S
H2052 C2057 0.930 . S
H2053 C2060 0.930 . S
H2054 C2062 0.930 . S
H2055 C2056 1.016 . S
C2056 H2055 1.016 . S
C2056 N2063 1.286 . S
C2057 H2052 0.930 . S
C2057 C2058 1.397 . S
C2057 C2059 1.361 . S
C2058 C2057 1.397 . S
C2058 C2062 1.390 . S
C2059 C2057 1.361 . S
C2059 C2060 1.393 . S
C2059 N2063 1.413 . S
C2060 H2053 0.930 . S
C2060 C2059 1.393 . S
C2060 C2061 1.399 . S
C2061 C2060 1.399 . S
C2061 C2062 1.381 . S
C2062 H2054 0.930 . S
C2062 C2058 1.390 . S
C2062 C2061 1.381 . S
N2063 C2056 1.286 . S
N2063 C2059 1.413 . S
H2064 C2069 0.930 . S
H2065 C2072 0.930 . S
H2066 C2074 0.930 . S
H2067 C2068 1.016 . S
C2068 H2067 1.016 . S
C2068 N2075 1.286 . S
C2069 H2064 0.930 . S
C2069 C2070 1.397 . S
C2069 C2071 1.361 . S
C2070 C2069 1.397 . S
C2070 C2074 1.390 . S
C2071 C2069 1.361 . S
C2071 C2072 1.393 . S
C2071 N2075 1.413 . S
C2072 H2065 0.930 . S
C2072 C2071 1.393 . S
C2072 C2073 1.399 . S
C2073 C2072 1.399 . S
C2073 C2074 1.381 . S
C2074 H2066 0.930 . S
C2074 C2070 1.390 . S
C2074 C2073 1.381 . S
N2075 C2068 1.286 . S
N2075 C2071 1.413 . S
H2076 C2081 0.930 . S
H2077 C2084 0.930 . S
H2078 C2086 0.930 . S
H2079 C2080 1.016 . S
C2080 H2079 1.016 . S
C2080 N2087 1.286 . S
C2081 H2076 0.930 . S
C2081 C2082 1.397 . S
C2081 C2083 1.361 . S
C2082 C2081 1.397 . S
C2082 C2086 1.390 . S
C2083 C2081 1.361 . S
C2083 C2084 1.393 . S
C2083 N2087 1.413 . S
C2084 H2077 0.930 . S
C2084 C2083 1.393 . S
C2084 C2085 1.399 . S
C2085 C2084 1.399 . S
C2085 C2086 1.381 . S
C2086 H2078 0.930 . S
C2086 C2082 1.390 . S
C2086 C2085 1.381 . S
N2087 C2080 1.286 . S
N2087 C2083 1.413 . S
H2088 C2093 0.930 . S
H2089 C2096 0.930 . S
H2090 C2098 0.930 . S
H2091 C2092 1.016 . S
C2092 H2091 1.016 . S
C2092 N2099 1.286 . S
C2093 H2088 0.930 . S
C2093 C2094 1.397 . S
C2093 C2095 1.361 . S
C2094 C2093 1.397 . S
C2094 C2098 1.390 . S
C2095 C2093 1.361 . S
C2095 C2096 1.393 . S
C2095 N2099 1.413 . S
C2096 H2089 0.930 . S
C2096 C2095 1.393 . S
C2096 C2097 1.399 . S
C2097 C2096 1.399 . S
C2097 C2098 1.381 . S
C2098 H2090 0.930 . S
C2098 C2094 1.390 . S
C2098 C2097 1.381 . S
N2099 C2092 1.286 . S
N2099 C2095 1.413 . S
H2100 C2105 0.930 . S
H2101 C2108 0.930 . S
H2102 C2110 0.930 . S
H2103 C2104 1.016 . S
C2104 H2103 1.016 . S
C2104 N2111 1.286 . S
C2105 H2100 0.930 . S
C2105 C2106 1.397 . S
C2105 C2107 1.361 . S
C2106 C2105 1.397 . S
C2106 C2110 1.390 . S
C2107 C2105 1.361 . S
C2107 C2108 1.393 . S
C2107 N2111 1.413 . S
C2108 H2101 0.930 . S
C2108 C2107 1.393 . S
C2108 C2109 1.399 . S
C2109 C2108 1.399 . S
C2109 C2110 1.381 . S
C2110 H2102 0.930 . S
C2110 C2106 1.390 . S
C2110 C2109 1.381 . S
N2111 C2104 1.286 . S
N2111 C2107 1.413 . S
H2112 C2117 0.930 . S
H2113 C2120 0.930 . S
H2114 C2122 0.930 . S
H2115 C2116 1.016 . S
C2116 H2115 1.016 . S
C2116 N2123 1.286 . S
C2117 H2112 0.930 . S
C2117 C2118 1.397 . S
C2117 C2119 1.361 . S
C2118 C2117 1.397 . S
C2118 C2122 1.390 . S
C2119 C2117 1.361 . S
C2119 C2120 1.393 . S
C2119 N2123 1.413 . S
C2120 H2113 0.930 . S
C2120 C2119 1.393 . S
C2120 C2121 1.399 . S
C2121 C2120 1.399 . S
C2121 C2122 1.381 . S
C2122 H2114 0.930 . S
C2122 C2118 1.390 . S
C2122 C2121 1.381 . S
N2123 C2116 1.286 . S
N2123 C2119 1.413 . S
H2124 C2129 0.930 . S
H2125 C2132 0.930 . S
H2126 C2134 0.930 . S
H2127 C2128 1.016 . S
C2128 H2127 1.016 . S
C2128 N2135 1.286 . S
C2129 H2124 0.930 . S
C2129 C2130 1.397 . S
C2129 C2131 1.361 . S
C2130 C2129 1.397 . S
C2130 C2134 1.390 . S
C2131 C2129 1.361 . S
C2131 C2132 1.393 . S
C2131 N2135 1.413 . S
C2132 H2125 0.930 . S
C2132 C2131 1.393 . S
C2132 C2133 1.399 . S
C2133 C2132 1.399 . S
C2133 C2134 1.381 . S
C2134 H2126 0.930 . S
C2134 C2130 1.390 . S
C2134 C2133 1.381 . S
N2135 C2128 1.286 . S
N2135 C2131 1.413 . S
H2136 C2141 0.930 . S
H2137 C2144 0.930 . S
H2138 C2146 0.930 . S
H2139 C2140 1.016 . S
C2140 H2139 1.016 . S
C2140 N2147 1.286 . S
C2141 H2136 0.930 . S
C2141 C2142 1.397 . S
C2141 C2143 1.361 . S
C2142 C2141 1.397 . S
C2142 C2146 1.390 . S
C2143 C2141 1.361 . S
C2143 C2144 1.393 . S
C2143 N2147 1.413 . S
C2144 H2137 0.930 . S
C2144 C2143 1.393 . S
C2144 C2145 1.399 . S
C2145 C2144 1.399 . S
C2145 C2146 1.381 . S
C2146 H2138 0.930 . S
C2146 C2142 1.390 . S
C2146 C2145 1.381 . S
N2147 C2140 1.286 . S
N2147 C2143 1.413 . S
H2148 C2153 0.930 . S
H2149 C2156 0.930 . S
H2150 C2158 0.930 . S
H2151 C2152 1.016 . S
C2152 H2151 1.016 . S
C2152 N2159 1.286 . S
C2153 H2148 0.930 . S
C2153 C2154 1.397 . S
C2153 C2155 1.361 . S
C2154 C2153 1.397 . S
C2154 C2158 1.390 . S
C2155 C2153 1.361 . S
C2155 C2156 1.393 . S
C2155 N2159 1.413 . S
C2156 H2149 0.930 . S
C2156 C2155 1.393 . S
C2156 C2157 1.399 . S
C2157 C2156 1.399 . S
C2157 C2158 1.381 . S
C2158 H2150 0.930 . S
C2158 C2154 1.390 . S
C2158 C2157 1.381 . S
N2159 C2152 1.286 . S
N2159 C2155 1.413 . S
H2160 C2165 0.930 . S
H2161 C2168 0.930 . S
H2162 C2170 0.930 . S
H2163 C2164 1.016 . S
C2164 H2163 1.016 . S
C2164 N2171 1.286 . S
C2165 H2160 0.930 . S
C2165 C2166 1.397 . S
C2165 C2167 1.361 . S
C2166 C2165 1.397 . S
C2166 C2170 1.390 . S
C2167 C2165 1.361 . S
C2167 C2168 1.393 . S
C2167 N2171 1.413 . S
C2168 H2161 0.930 . S
C2168 C2167 1.393 . S
C2168 C2169 1.399 . S
C2169 C2168 1.399 . S
C2169 C2170 1.381 . S
C2170 H2162 0.930 . S
C2170 C2166 1.390 . S
C2170 C2169 1.381 . S
N2171 C2164 1.286 . S
N2171 C2167 1.413 . S
H2172 C2177 0.930 . S
H2173 C2180 0.930 . S
H2174 C2182 0.930 . S
H2175 C2176 1.016 . S
C2176 H2175 1.016 . S
C2176 N2183 1.286 . S
C2177 H2172 0.930 . S
C2177 C2178 1.397 . S
C2177 C2179 1.361 . S
C2178 C2177 1.397 . S
C2178 C2182 1.390 . S
C2179 C2177 1.361 . S
C2179 C2180 1.393 . S
C2179 N2183 1.413 . S
C2180 H2173 0.930 . S
C2180 C2179 1.393 . S
C2180 C2181 1.399 . S
C2181 C2180 1.399 . S
C2181 C2182 1.381 . S
C2182 H2174 0.930 . S
C2182 C2178 1.390 . S
C2182 C2181 1.381 . S
N2183 C2176 1.286 . S
N2183 C2179 1.413 . S
H2184 C2189 0.930 . S
H2185 C2192 0.930 . S
H2186 C2194 0.930 . S
H2187 C2188 1.016 . S
C2188 H2187 1.016 . S
C2188 N2195 1.286 . S
C2189 H2184 0.930 . S
C2189 C2190 1.397 . S
C2189 C2191 1.361 . S
C2190 C2189 1.397 . S
C2190 C2194 1.390 . S
C2191 C2189 1.361 . S
C2191 C2192 1.393 . S
C2191 N2195 1.413 . S
C2192 H2185 0.930 . S
C2192 C2191 1.393 . S
C2192 C2193 1.399 . S
C2193 C2192 1.399 . S
C2193 C2194 1.381 . S
C2194 H2186 0.930 . S
C2194 C2190 1.390 . S
C2194 C2193 1.381 . S
N2195 C2188 1.286 . S
N2195 C2191 1.413 . S
H2196 C2201 0.930 . S
H2197 C2204 0.930 . S
H2198 C2206 0.930 . S
H2199 C2200 1.016 . S
C2200 H2199 1.016 . S
C2200 N2207 1.286 . S
C2201 H2196 0.930 . S
C2201 C2202 1.397 . S
C2201 C2203 1.361 . S
C2202 C2201 1.397 . S
C2202 C2206 1.390 . S
C2203 C2201 1.361 . S
C2203 C2204 1.393 . S
C2203 N2207 1.413 . S
C2204 H2197 0.930 . S
C2204 C2203 1.393 . S
C2204 C2205 1.399 . S
C2205 C2204 1.399 . S
C2205 C2206 1.381 . S
C2206 H2198 0.930 . S
C2206 C2202 1.390 . S
C2206 C2205 1.381 . S
N2207 C2200 1.286 . S
N2207 C2203 1.413 . S
H2208 C2213 0.930 . S
H2209 C2216 0.930 . S
H2210 C2218 0.930 . S
H2211 C2212 1.016 . S
C2212 H2211 1.016 . S
C2212 N2219 1.286 . S
C2213 H2208 0.930 . S
C2213 C2214 1.397 . S
C2213 C2215 1.361 . S
C2214 C2213 1.397 . S
C2214 C2218 1.390 . S
C2215 C2213 1.361 . S
C2215 C2216 1.393 . S
C2215 N2219 1.413 . S
C2216 H2209 0.930 . S
C2216 C2215 1.393 . S
C2216 C2217 1.399 . S
C2217 C2216 1.399 . S
C2217 C2218 1.381 . S
C2218 H2210 0.930 . S
C2218 C2214 1.390 . S
C2218 C2217 1.381 . S
N2219 C2212 1.286 . S
N2219 C2215 1.413 . S
H2220 C2225 0.930 . S
H2221 C2228 0.930 . S
H2222 C2230 0.930 . S
H2223 C2224 1.016 . S
C2224 H2223 1.016 . S
C2224 N2231 1.286 . S
C2225 H2220 0.930 . S
C2225 C2226 1.397 . S
C2225 C2227 1.361 . S
C2226 C2225 1.397 . S
C2226 C2230 1.390 . S
C2227 C2225 1.361 . S
C2227 C2228 1.393 . S
C2227 N2231 1.413 . S
C2228 H2221 0.930 . S
C2228 C2227 1.393 . S
C2228 C2229 1.399 . S
C2229 C2228 1.399 . S
C2229 C2230 1.381 . S
C2230 H2222 0.930 . S
C2230 C2226 1.390 . S
C2230 C2229 1.381 . S
N2231 C2224 1.286 . S
N2231 C2227 1.413 . S
H2232 C2237 0.930 . S
H2233 C2240 0.930 . S
H2234 C2242 0.930 . S
H2235 C2236 1.016 . S
C2236 H2235 1.016 . S
C2236 N2243 1.286 . S
C2237 H2232 0.930 . S
C2237 C2238 1.397 . S
C2237 C2239 1.361 . S
C2238 C2237 1.397 . S
C2238 C2242 1.390 . S
C2239 C2237 1.361 . S
C2239 C2240 1.393 . S
C2239 N2243 1.413 . S
C2240 H2233 0.930 . S
C2240 C2239 1.393 . S
C2240 C2241 1.399 . S
C2241 C2240 1.399 . S
C2241 C2242 1.381 . S
C2242 H2234 0.930 . S
C2242 C2238 1.390 . S
C2242 C2241 1.381 . S
N2243 C2236 1.286 . S
N2243 C2239 1.413 . S
H2244 C2249 0.930 . S
H2245 C2252 0.930 . S
H2246 C2254 0.930 . S
H2247 C2248 1.016 . S
C2248 H2247 1.016 . S
C2248 N2255 1.286 . S
C2249 H2244 0.930 . S
C2249 C2250 1.397 . S
C2249 C2251 1.361 . S
C2250 C2249 1.397 . S
C2250 C2254 1.390 . S
C2251 C2249 1.361 . S
C2251 C2252 1.393 . S
C2251 N2255 1.413 . S
C2252 H2245 0.930 . S
C2252 C2251 1.393 . S
C2252 C2253 1.399 . S
C2253 C2252 1.399 . S
C2253 C2254 1.381 . S
C2254 H2246 0.930 . S
C2254 C2250 1.390 . S
C2254 C2253 1.381 . S
N2255 C2248 1.286 . S
N2255 C2251 1.413 . S
H2256 C2261 0.930 . S
H2257 C2264 0.930 . S
H2258 C2266 0.930 . S
H2259 C2260 1.016 . S
C2260 H2259 1.016 . S
C2260 N2267 1.286 . S
C2261 H2256 0.930 . S
C2261 C2262 1.397 . S
C2261 C2263 1.361 . S
C2262 C2261 1.397 . S
C2262 C2266 1.390 . S
C2263 C2261 1.361 . S
C2263 C2264 1.393 . S
C2263 N2267 1.413 . S
C2264 H2257 0.930 . S
C2264 C2263 1.393 . S
C2264 C2265 1.399 . S
C2265 C2264 1.399 . S
C2265 C2266 1.381 . S
C2266 H2258 0.930 . S
C2266 C2262 1.390 . S
C2266 C2265 1.381 . S
N2267 C2260 1.286 . S
N2267 C2263 1.413 . S
H2268 C2273 0.930 . S
H2269 C2276 0.930 . S
H2270 C2278 0.930 . S
H2271 C2272 1.016 . S
C2272 H2271 1.016 . S
C2272 N2279 1.286 . S
C2273 H2268 0.930 . S
C2273 C2274 1.397 . S
C2273 C2275 1.361 . S
C2274 C2273 1.397 . S
C2274 C2278 1.390 . S
C2275 C2273 1.361 . S
C2275 C2276 1.393 . S
C2275 N2279 1.413 . S
C2276 H2269 0.930 . S
C2276 C2275 1.393 . S
C2276 C2277 1.399 . S
C2277 C2276 1.399 . S
C2277 C2278 1.381 . S
C2278 H2270 0.930 . S
C2278 C2274 1.390 . S
C2278 C2277 1.381 . S
N2279 C2272 1.286 . S
N2279 C2275 1.413 . S
H2280 C2285 0.930 . S
H2281 C2288 0.930 . S
H2282 C2290 0.930 . S
H2283 C2284 1.016 . S
C2284 H2283 1.016 . S
C2284 N2291 1.286 . S
C2285 H2280 0.930 . S
C2285 C2286 1.397 . S
C2285 C2287 1.361 . S
C2286 C2285 1.397 . S
C2286 C2290 1.390 . S
C2287 C2285 1.361 . S
C2287 C2288 1.393 . S
C2287 N2291 1.413 . S
C2288 H2281 0.930 . S
C2288 C2287 1.393 . S
C2288 C2289 1.399 . S
C2289 C2288 1.399 . S
C2289 C2290 1.381 . S
C2290 H2282 0.930 . S
C2290 C2286 1.390 . S
C2290 C2289 1.381 . S
N2291 C2284 1.286 . S
N2291 C2287 1.413 . S
H2292 C2297 0.930 . S
H2293 C2300 0.930 . S
H2294 C2302 0.930 . S
H2295 C2296 1.016 . S
C2296 H2295 1.016 . S
C2296 N2303 1.286 . S
C2297 H2292 0.930 . S
C2297 C2298 1.397 . S
C2297 C2299 1.361 . S
C2298 C2297 1.397 . S
C2298 C2302 1.390 . S
C2299 C2297 1.361 . S
C2299 C2300 1.393 . S
C2299 N2303 1.413 . S
C2300 H2293 0.930 . S
C2300 C2299 1.393 . S
C2300 C2301 1.399 . S
C2301 C2300 1.399 . S
C2301 C2302 1.381 . S
C2302 H2294 0.930 . S
C2302 C2298 1.390 . S
C2302 C2301 1.381 . S
N2303 C2296 1.286 . S
N2303 C2299 1.413 . S
H2304 C2309 0.930 . S
H2305 C2312 0.930 . S
H2306 C2314 0.930 . S
H2307 C2308 1.016 . S
C2308 H2307 1.016 . S
C2308 N2315 1.286 . S
C2309 H2304 0.930 . S
C2309 C2310 1.397 . S
C2309 C2311 1.361 . S
C2310 C2309 1.397 . S
C2310 C2314 1.390 . S
C2311 C2309 1.361 . S
C2311 C2312 1.393 . S
C2311 N2315 1.413 . S
C2312 H2305 0.930 . S
C2312 C2311 1.393 . S
C2312 C2313 1.399 . S
C2313 C2312 1.399 . S
C2313 C2314 1.381 . S
C2314 H2306 0.930 . S
C2314 C2310 1.390 . S
C2314 C2313 1.381 . S
N2315 C2308 1.286 . S
N2315 C2311 1.413 . S
H2316 C2321 0.930 . S
H2317 C2324 0.930 . S
H2318 C2326 0.930 . S
H2319 C2320 1.016 . S
C2320 H2319 1.016 . S
C2320 N2327 1.286 . S
C2321 H2316 0.930 . S
C2321 C2322 1.397 . S
C2321 C2323 1.361 . S
C2322 C2321 1.397 . S
C2322 C2326 1.390 . S
C2323 C2321 1.361 . S
C2323 C2324 1.393 . S
C2323 N2327 1.413 . S
C2324 H2317 0.930 . S
C2324 C2323 1.393 . S
C2324 C2325 1.399 . S
C2325 C2324 1.399 . S
C2325 C2326 1.381 . S
C2326 H2318 0.930 . S
C2326 C2322 1.390 . S
C2326 C2325 1.381 . S
N2327 C2320 1.286 . S
N2327 C2323 1.413 . S
H2328 C2333 0.930 . S
H2329 C2336 0.930 . S
H2330 C2338 0.930 . S
H2331 C2332 1.016 . S
C2332 H2331 1.016 . S
C2332 N2339 1.286 . S
C2333 H2328 0.930 . S
C2333 C2334 1.397 . S
C2333 C2335 1.361 . S
C2334 C2333 1.397 . S
C2334 C2338 1.390 . S
C2335 C2333 1.361 . S
C2335 C2336 1.393 . S
C2335 N2339 1.413 . S
C2336 H2329 0.930 . S
C2336 C2335 1.393 . S
C2336 C2337 1.399 . S
C2337 C2336 1.399 . S
C2337 C2338 1.381 . S
C2338 H2330 0.930 . S
C2338 C2334 1.390 . S
C2338 C2337 1.381 . S
N2339 C2332 1.286 . S
N2339 C2335 1.413 . S
H2340 C2345 0.930 . S
H2341 C2348 0.930 . S
H2342 C2350 0.930 . S
H2343 C2344 1.016 . S
C2344 H2343 1.016 . S
C2344 N2351 1.286 . S
C2345 H2340 0.930 . S
C2345 C2346 1.397 . S
C2345 C2347 1.361 . S
C2346 C2345 1.397 . S
C2346 C2350 1.390 . S
C2347 C2345 1.361 . S
C2347 C2348 1.393 . S
C2347 N2351 1.413 . S
C2348 H2341 0.930 . S
C2348 C2347 1.393 . S
C2348 C2349 1.399 . S
C2349 C2348 1.399 . S
C2349 C2350 1.381 . S
C2350 H2342 0.930 . S
C2350 C2346 1.390 . S
C2350 C2349 1.381 . S
N2351 C2344 1.286 . S
N2351 C2347 1.413 . S
H2352 C2357 0.930 . S
H2353 C2360 0.930 . S
H2354 C2362 0.930 . S
H2355 C2356 1.016 . S
C2356 H2355 1.016 . S
C2356 N2363 1.286 . S
C2357 H2352 0.930 . S
C2357 C2358 1.397 . S
C2357 C2359 1.361 . S
C2358 C2357 1.397 . S
C2358 C2362 1.390 . S
C2359 C2357 1.361 . S
C2359 C2360 1.393 . S
C2359 N2363 1.413 . S
C2360 H2353 0.930 . S
C2360 C2359 1.393 . S
C2360 C2361 1.399 . S
C2361 C2360 1.399 . S
C2361 C2362 1.381 . S
C2362 H2354 0.930 . S
C2362 C2358 1.390 . S
C2362 C2361 1.381 . S
N2363 C2356 1.286 . S
N2363 C2359 1.413 . S
H2364 C2369 0.930 . S
H2365 C2372 0.930 . S
H2366 C2374 0.930 . S
H2367 C2368 1.016 . S
C2368 H2367 1.016 . S
C2368 N2375 1.286 . S
C2369 H2364 0.930 . S
C2369 C2370 1.397 . S
C2369 C2371 1.361 . S
C2370 C2369 1.397 . S
C2370 C2374 1.390 . S
C2371 C2369 1.361 . S
C2371 C2372 1.393 . S
C2371 N2375 1.413 . S
C2372 H2365 0.930 . S
C2372 C2371 1.393 . S
C2372 C2373 1.399 . S
C2373 C2372 1.399 . S
C2373 C2374 1.381 . S
C2374 H2366 0.930 . S
C2374 C2370 1.390 . S
C2374 C2373 1.381 . S
N2375 C2368 1.286 . S
N2375 C2371 1.413 . S
H2376 C2381 0.930 . S
H2377 C2384 0.930 . S
H2378 C2386 0.930 . S
H2379 C2380 1.016 . S
C2380 H2379 1.016 . S
C2380 N2387 1.286 . S
C2381 H2376 0.930 . S
C2381 C2382 1.397 . S
C2381 C2383 1.361 . S
C2382 C2381 1.397 . S
C2382 C2386 1.390 . S
C2383 C2381 1.361 . S
C2383 C2384 1.393 . S
C2383 N2387 1.413 . S
C2384 H2377 0.930 . S
C2384 C2383 1.393 . S
C2384 C2385 1.399 . S
C2385 C2384 1.399 . S
C2385 C2386 1.381 . S
C2386 H2378 0.930 . S
C2386 C2382 1.390 . S
C2386 C2385 1.381 . S
N2387 C2380 1.286 . S
N2387 C2383 1.413 . S
H2388 C2393 0.930 . S
H2389 C2396 0.930 . S
H2390 C2398 0.930 . S
H2391 C2392 1.016 . S
C2392 H2391 1.016 . S
C2392 N2399 1.286 . S
C2393 H2388 0.930 . S
C2393 C2394 1.397 . S
C2393 C2395 1.361 . S
C2394 C2393 1.397 . S
C2394 C2398 1.390 . S
C2395 C2393 1.361 . S
C2395 C2396 1.393 . S
C2395 N2399 1.413 . S
C2396 H2389 0.930 . S
C2396 C2395 1.393 . S
C2396 C2397 1.399 . S
C2397 C2396 1.399 . S
C2397 C2398 1.381 . S
C2398 H2390 0.930 . S
C2398 C2394 1.390 . S
C2398 C2397 1.381 . S
N2399 C2392 1.286 . S
N2399 C2395 1.413 . S
H2400 C2405 0.930 . S
H2401 C2408 0.930 . S
H2402 C2410 0.930 . S
H2403 C2404 1.016 . S
C2404 H2403 1.016 . S
C2404 N2411 1.286 . S
C2405 H2400 0.930 . S
C2405 C2406 1.397 . S
C2405 C2407 1.361 . S
C2406 C2405 1.397 . S
C2406 C2410 1.390 . S
C2407 C2405 1.361 . S
C2407 C2408 1.393 . S
C2407 N2411 1.413 . S
C2408 H2401 0.930 . S
C2408 C2407 1.393 . S
C2408 C2409 1.399 . S
C2409 C2408 1.399 . S
C2409 C2410 1.381 . S
C2410 H2402 0.930 . S
C2410 C2406 1.390 . S
C2410 C2409 1.381 . S
N2411 C2404 1.286 . S
N2411 C2407 1.413 . S
H2412 C2417 0.930 . S
H2413 C2420 0.930 . S
H2414 C2422 0.930 . S
H2415 C2416 1.016 . S
C2416 H2415 1.016 . S
C2416 N2423 1.286 . S
C2417 H2412 0.930 . S
C2417 C2418 1.397 . S
C2417 C2419 1.361 . S
C2418 C2417 1.397 . S
C2418 C2422 1.390 . S
C2419 C2417 1.361 . S
C2419 C2420 1.393 . S
C2419 N2423 1.413 . S
C2420 H2413 0.930 . S
C2420 C2419 1.393 . S
C2420 C2421 1.399 . S
C2421 C2420 1.399 . S
C2421 C2422 1.381 . S
C2422 H2414 0.930 . S
C2422 C2418 1.390 . S
C2422 C2421 1.381 . S
N2423 C2416 1.286 . S
N2423 C2419 1.413 . S
H2424 C2429 0.930 . S
H2425 C2432 0.930 . S
H2426 C2434 0.930 . S
H2427 C2428 1.016 . S
C2428 H2427 1.016 . S
C2428 N2435 1.286 . S
C2429 H2424 0.930 . S
C2429 C2430 1.397 . S
C2429 C2431 1.361 . S
C2430 C2429 1.397 . S
C2430 C2434 1.390 . S
C2431 C2429 1.361 . S
C2431 C2432 1.393 . S
C2431 N2435 1.413 . S
C2432 H2425 0.930 . S
C2432 C2431 1.393 . S
C2432 C2433 1.399 . S
C2433 C2432 1.399 . S
C2433 C2434 1.381 . S
C2434 H2426 0.930 . S
C2434 C2430 1.390 . S
C2434 C2433 1.381 . S
N2435 C2428 1.286 . S
N2435 C2431 1.413 . S
H2436 C2441 0.930 . S
H2437 C2444 0.930 . S
H2438 C2446 0.930 . S
H2439 C2440 1.016 . S
C2440 H2439 1.016 . S
C2440 N2447 1.286 . S
C2441 H2436 0.930 . S
C2441 C2442 1.397 . S
C2441 C2443 1.361 . S
C2442 C2441 1.397 . S
C2442 C2446 1.390 . S
C2443 C2441 1.361 . S
C2443 C2444 1.393 . S
C2443 N2447 1.413 . S
C2444 H2437 0.930 . S
C2444 C2443 1.393 . S
C2444 C2445 1.399 . S
C2445 C2444 1.399 . S
C2445 C2446 1.381 . S
C2446 H2438 0.930 . S
C2446 C2442 1.390 . S
C2446 C2445 1.381 . S
N2447 C2440 1.286 . S
N2447 C2443 1.413 . S
H2448 C2453 0.930 . S
H2449 C2456 0.930 . S
H2450 C2458 0.930 . S
H2451 C2452 1.016 . S
C2452 H2451 1.016 . S
C2452 N2459 1.286 . S
C2453 H2448 0.930 . S
C2453 C2454 1.397 . S
C2453 C2455 1.361 . S
C2454 C2453 1.397 . S
C2454 C2458 1.390 . S
C2455 C2453 1.361 . S
C2455 C2456 1.393 . S
C2455 N2459 1.413 . S
C2456 H2449 0.930 . S
C2456 C2455 1.393 . S
C2456 C2457 1.399 . S
C2457 C2456 1.399 . S
C2457 C2458 1.381 . S
C2458 H2450 0.930 . S
C2458 C2454 1.390 . S
C2458 C2457 1.381 . S
N2459 C2452 1.286 . S
N2459 C2455 1.413 . S
H2460 C2465 0.930 . S
H2461 C2468 0.930 . S
H2462 C2470 0.930 . S
H2463 C2464 1.016 . S
C2464 H2463 1.016 . S
C2464 N2471 1.286 . S
C2465 H2460 0.930 . S
C2465 C2466 1.397 . S
C2465 C2467 1.361 . S
C2466 C2465 1.397 . S
C2466 C2470 1.390 . S
C2467 C2465 1.361 . S
C2467 C2468 1.393 . S
C2467 N2471 1.413 . S
C2468 H2461 0.930 . S
C2468 C2467 1.393 . S
C2468 C2469 1.399 . S
C2469 C2468 1.399 . S
C2469 C2470 1.381 . S
C2470 H2462 0.930 . S
C2470 C2466 1.390 . S
C2470 C2469 1.381 . S
N2471 C2464 1.286 . S
N2471 C2467 1.413 . S
H2472 C2477 0.930 . S
H2473 C2480 0.930 . S
H2474 C2482 0.930 . S
H2475 C2476 1.016 . S
C2476 H2475 1.016 . S
C2476 N2483 1.286 . S
C2477 H2472 0.930 . S
C2477 C2478 1.397 . S
C2477 C2479 1.361 . S
C2478 C2477 1.397 . S
C2478 C2482 1.390 . S
C2479 C2477 1.361 . S
C2479 C2480 1.393 . S
C2479 N2483 1.413 . S
C2480 H2473 0.930 . S
C2480 C2479 1.393 . S
C2480 C2481 1.399 . S
C2481 C2480 1.399 . S
C2481 C2482 1.381 . S
C2482 H2474 0.930 . S
C2482 C2478 1.390 . S
C2482 C2481 1.381 . S
N2483 C2476 1.286 . S
N2483 C2479 1.413 . S
H2484 C2489 0.930 . S
H2485 C2492 0.930 . S
H2486 C2494 0.930 . S
H2487 C2488 1.016 . S
C2488 H2487 1.016 . S
C2488 N2495 1.286 . S
C2489 H2484 0.930 . S
C2489 C2490 1.397 . S
C2489 C2491 1.361 . S
C2490 C2489 1.397 . S
C2490 C2494 1.390 . S
C2491 C2489 1.361 . S
C2491 C2492 1.393 . S
C2491 N2495 1.413 . S
C2492 H2485 0.930 . S
C2492 C2491 1.393 . S
C2492 C2493 1.399 . S
C2493 C2492 1.399 . S
C2493 C2494 1.381 . S
C2494 H2486 0.930 . S
C2494 C2490 1.390 . S
C2494 C2493 1.381 . S
N2495 C2488 1.286 . S
N2495 C2491 1.413 . S
H2496 C2504 0.950 . S
H2497 C2509 0.950 . S
H2498 C2506 0.950 . S
H2499 C2508 0.950 . S
H2500 C2510 0.950 . S
H2501 C2512 0.950 . S
H2502 C2514 0.950 . S
H2503 C2515 0.950 . S
C2504 H2496 0.950 . S
C2504 C2505 1.386 . S
C2504 C2506 1.391 . S
C2505 C2504 1.386 . S
C2505 C2509 1.393 . S
C2506 H2498 0.950 . S
C2506 C2504 1.391 . S
C2506 C2507 1.400 . S
C2507 C2506 1.400 . S
C2507 C2508 1.398 . S
C2507 C2513 1.491 . S
C2508 H2499 0.950 . S
C2508 C2507 1.398 . S
C2508 C2509 1.391 . S
C2509 H2497 0.950 . S
C2509 C2505 1.393 . S
C2509 C2508 1.391 . S
C2510 H2500 0.950 . S
C2510 C2511 1.386 . S
C2510 C2512 1.391 . S
C2511 C2510 1.386 . S
C2511 C2515 1.393 . S
C2512 H2501 0.950 . S
C2512 C2510 1.391 . S
C2512 C2513 1.400 . S
C2513 C2507 1.491 . S
C2513 C2512 1.400 . S
C2513 C2514 1.398 . S
C2514 H2502 0.950 . S
C2514 C2513 1.398 . S
C2514 C2515 1.391 . S
C2515 H2503 0.950 . S
C2515 C2511 1.393 . S
C2515 C2514 1.391 . S
H2516 C2524 0.950 . S
H2517 C2529 0.950 . S
H2518 C2526 0.950 . S
H2519 C2528 0.950 . S
H2520 C2530 0.950 . S
H2521 C2532 0.950 . S
H2522 C2534 0.950 . S
H2523 C2535 0.950 . S
C2524 H2516 0.950 . S
C2524 C2525 1.386 . S
C2524 C2526 1.391 . S
C2525 C2524 1.386 . S
C2525 C2529 1.393 . S
C2526 H2518 0.950 . S
C2526 C2524 1.391 . S
C2526 C2527 1.400 . S
C2527 C2526 1.400 . S
C2527 C2528 1.398 . S
C2527 C2533 1.491 . S
C2528 H2519 0.950 . S
C2528 C2527 1.398 . S
C2528 C2529 1.391 . S
C2529 H2517 0.950 . S
C2529 C2525 1.393 . S
C2529 C2528 1.391 . S
C2530 H2520 0.950 . S
C2530 C2531 1.386 . S
C2530 C2532 1.391 . S
C2531 C2530 1.386 . S
C2531 C2535 1.393 . S
C2532 H2521 0.950 . S
C2532 C2530 1.391 . S
C2532 C2533 1.400 . S
C2533 C2527 1.491 . S
C2533 C2532 1.400 . S
C2533 C2534 1.398 . S
C2534 H2522 0.950 . S
C2534 C2533 1.398 . S
C2534 C2535 1.391 . S
C2535 H2523 0.950 . S
C2535 C2531 1.393 . S
C2535 C2534 1.391 . S
H2536 C2544 0.950 . S
H2537 C2549 0.950 . S
H2538 C2546 0.950 . S
H2539 C2548 0.950 . S
H2540 C2550 0.950 . S
H2541 C2552 0.950 . S
H2542 C2554 0.950 . S
H2543 C2555 0.950 . S
C2544 H2536 0.950 . S
C2544 C2545 1.386 . S
C2544 C2546 1.391 . S
C2545 C2544 1.386 . S
C2545 C2549 1.393 . S
C2546 H2538 0.950 . S
C2546 C2544 1.391 . S
C2546 C2547 1.400 . S
C2547 C2546 1.400 . S
C2547 C2548 1.398 . S
C2547 C2553 1.491 . S
C2548 H2539 0.950 . S
C2548 C2547 1.398 . S
C2548 C2549 1.391 . S
C2549 H2537 0.950 . S
C2549 C2545 1.393 . S
C2549 C2548 1.391 . S
C2550 H2540 0.950 . S
C2550 C2551 1.386 . S
C2550 C2552 1.391 . S
C2551 C2550 1.386 . S
C2551 C2555 1.393 . S
C2552 H2541 0.950 . S
C2552 C2550 1.391 . S
C2552 C2553 1.400 . S
C2553 C2547 1.491 . S
C2553 C2552 1.400 . S
C2553 C2554 1.398 . S
C2554 H2542 0.950 . S
C2554 C2553 1.398 . S
C2554 C2555 1.391 . S
C2555 H2543 0.950 . S
C2555 C2551 1.393 . S
C2555 C2554 1.391 . S
H2556 C2564 0.950 . S
H2557 C2569 0.950 . S
H2558 C2566 0.950 . S
H2559 C2568 0.950 . S
H2560 C2570 0.950 . S
H2561 C2572 0.950 . S
H2562 C2574 0.950 . S
H2563 C2575 0.950 . S
C2564 H2556 0.950 . S
C2564 C2565 1.386 . S
C2564 C2566 1.391 . S
C2565 C2564 1.386 . S
C2565 C2569 1.393 . S
C2566 H2558 0.950 . S
C2566 C2564 1.391 . S
C2566 C2567 1.400 . S
C2567 C2566 1.400 . S
C2567 C2568 1.398 . S
C2567 C2573 1.491 . S
C2568 H2559 0.950 . S
C2568 C2567 1.398 . S
C2568 C2569 1.391 . S
C2569 H2557 0.950 . S
C2569 C2565 1.393 . S
C2569 C2568 1.391 . S
C2570 H2560 0.950 . S
C2570 C2571 1.386 . S
C2570 C2572 1.391 . S
C2571 C2570 1.386 . S
C2571 C2575 1.393 . S
C2572 H2561 0.950 . S
C2572 C2570 1.391 . S
C2572 C2573 1.400 . S
C2573 C2567 1.491 . S
C2573 C2572 1.400 . S
C2573 C2574 1.398 . S
C2574 H2562 0.950 . S
C2574 C2573 1.398 . S
C2574 C2575 1.391 . S
C2575 H2563 0.950 . S
C2575 C2571 1.393 . S
C2575 C2574 1.391 . S
H2576 C2584 0.950 . S
H2577 C2589 0.950 . S
H2578 C2586 0.950 . S
H2579 C2588 0.950 . S
H2580 C2590 0.950 . S
H2581 C2592 0.950 . S
H2582 C2594 0.950 . S
H2583 C2595 0.950 . S
C2584 H2576 0.950 . S
C2584 C2585 1.386 . S
C2584 C2586 1.391 . S
C2585 C2584 1.386 . S
C2585 C2589 1.393 . S
C2586 H2578 0.950 . S
C2586 C2584 1.391 . S
C2586 C2587 1.400 . S
C2587 C2586 1.400 . S
C2587 C2588 1.398 . S
C2587 C2593 1.491 . S
C2588 H2579 0.950 . S
C2588 C2587 1.398 . S
C2588 C2589 1.391 . S
C2589 H2577 0.950 . S
C2589 C2585 1.393 . S
C2589 C2588 1.391 . S
C2590 H2580 0.950 . S
C2590 C2591 1.386 . S
C2590 C2592 1.391 . S
C2591 C2590 1.386 . S
C2591 C2595 1.393 . S
C2592 H2581 0.950 . S
C2592 C2590 1.391 . S
C2592 C2593 1.400 . S
C2593 C2587 1.491 . S
C2593 C2592 1.400 . S
C2593 C2594 1.398 . S
C2594 H2582 0.950 . S
C2594 C2593 1.398 . S
C2594 C2595 1.391 . S
C2595 H2583 0.950 . S
C2595 C2591 1.393 . S
C2595 C2594 1.391 . S
H2596 C2604 0.950 . S
H2597 C2609 0.950 . S
H2598 C2606 0.950 . S
H2599 C2608 0.950 . S
H2600 C2610 0.950 . S
H2601 C2612 0.950 . S
H2602 C2614 0.950 . S
H2603 C2615 0.950 . S
C2604 H2596 0.950 . S
C2604 C2605 1.386 . S
C2604 C2606 1.391 . S
C2605 C2604 1.386 . S
C2605 C2609 1.393 . S
C2606 H2598 0.950 . S
C2606 C2604 1.391 . S
C2606 C2607 1.400 . S
C2607 C2606 1.400 . S
C2607 C2608 1.398 . S
C2607 C2613 1.491 . S
C2608 H2599 0.950 . S
C2608 C2607 1.398 . S
C2608 C2609 1.391 . S
C2609 H2597 0.950 . S
C2609 C2605 1.393 . S
C2609 C2608 1.391 . S
C2610 H2600 0.950 . S
C2610 C2611 1.386 . S
C2610 C2612 1.391 . S
C2611 C2610 1.386 . S
C2611 C2615 1.393 . S
C2612 H2601 0.950 . S
C2612 C2610 1.391 . S
C2612 C2613 1.400 . S
C2613 C2607 1.491 . S
C2613 C2612 1.400 . S
C2613 C2614 1.398 . S
C2614 H2602 0.950 . S
C2614 C2613 1.398 . S
C2614 C2615 1.391 . S
C2615 H2603 0.950 . S
C2615 C2611 1.393 . S
C2615 C2614 1.391 . S
H2616 C2624 0.950 . S
H2617 C2629 0.950 . S
H2618 C2626 0.950 . S
H2619 C2628 0.950 . S
H2620 C2630 0.950 . S
H2621 C2632 0.950 . S
H2622 C2634 0.950 . S
H2623 C2635 0.950 . S
C2624 H2616 0.950 . S
C2624 C2625 1.386 . S
C2624 C2626 1.391 . S
C2625 C2624 1.386 . S
C2625 C2629 1.393 . S
C2626 H2618 0.950 . S
C2626 C2624 1.391 . S
C2626 C2627 1.400 . S
C2627 C2626 1.400 . S
C2627 C2628 1.398 . S
C2627 C2633 1.491 . S
C2628 H2619 0.950 . S
C2628 C2627 1.398 . S
C2628 C2629 1.391 . S
C2629 H2617 0.950 . S
C2629 C2625 1.393 . S
C2629 C2628 1.391 . S
C2630 H2620 0.950 . S
C2630 C2631 1.386 . S
C2630 C2632 1.391 . S
C2631 C2630 1.386 . S
C2631 C2635 1.393 . S
C2632 H2621 0.950 . S
C2632 C2630 1.391 . S
C2632 C2633 1.400 . S
C2633 C2627 1.491 . S
C2633 C2632 1.400 . S
C2633 C2634 1.398 . S
C2634 H2622 0.950 . S
C2634 C2633 1.398 . S
C2634 C2635 1.391 . S
C2635 H2623 0.950 . S
C2635 C2631 1.393 . S
C2635 C2634 1.391 . S
H2636 C2644 0.950 . S
H2637 C2649 0.950 . S
H2638 C2646 0.950 . S
H2639 C2648 0.950 . S
H2640 C2650 0.950 . S
H2641 C2652 0.950 . S
H2642 C2654 0.950 . S
H2643 C2655 0.950 . S
C2644 H2636 0.950 . S
C2644 C2645 1.386 . S
C2644 C2646 1.391 . S
C2645 C2644 1.386 . S
C2645 C2649 1.393 . S
C2646 H2638 0.950 . S
C2646 C2644 1.391 . S
C2646 C2647 1.400 . S
C2647 C2646 1.400 . S
C2647 C2648 1.398 . S
C2647 C2653 1.491 . S
C2648 H2639 0.950 . S
C2648 C2647 1.398 . S
C2648 C2649 1.391 . S
C2649 H2637 0.950 . S
C2649 C2645 1.393 . S
C2649 C2648 1.391 . S
C2650 H2640 0.950 . S
C2650 C2651 1.386 . S
C2650 C2652 1.391 . S
C2651 C2650 1.386 . S
C2651 C2655 1.393 . S
C2652 H2641 0.950 . S
C2652 C2650 1.391 . S
C2652 C2653 1.400 . S
C2653 C2647 1.491 . S
C2653 C2652 1.400 . S
C2653 C2654 1.398 . S
C2654 H2642 0.950 . S
C2654 C2653 1.398 . S
C2654 C2655 1.391 . S
C2655 H2643 0.950 . S
C2655 C2651 1.393 . S
C2655 C2654 1.391 . S
H2656 C2664 0.950 . S
H2657 C2669 0.950 . S
H2658 C2666 0.950 . S
H2659 C2668 0.950 . S
H2660 C2670 0.950 . S
H2661 C2672 0.950 . S
H2662 C2674 0.950 . S
H2663 C2675 0.950 . S
C2664 H2656 0.950 . S
C2664 C2665 1.386 . S
C2664 C2666 1.391 . S
C2665 C2664 1.386 . S
C2665 C2669 1.393 . S
C2666 H2658 0.950 . S
C2666 C2664 1.391 . S
C2666 C2667 1.400 . S
C2667 C2666 1.400 . S
C2667 C2668 1.398 . S
C2667 C2673 1.491 . S
C2668 H2659 0.950 . S
C2668 C2667 1.398 . S
C2668 C2669 1.391 . S
C2669 H2657 0.950 . S
C2669 C2665 1.393 . S
C2669 C2668 1.391 . S
C2670 H2660 0.950 . S
C2670 C2671 1.386 . S
C2670 C2672 1.391 . S
C2671 C2670 1.386 . S
C2671 C2675 1.393 . S
C2672 H2661 0.950 . S
C2672 C2670 1.391 . S
C2672 C2673 1.400 . S
C2673 C2667 1.491 . S
C2673 C2672 1.400 . S
C2673 C2674 1.398 . S
C2674 H2662 0.950 . S
C2674 C2673 1.398 . S
C2674 C2675 1.391 . S
C2675 H2663 0.950 . S
C2675 C2671 1.393 . S
C2675 C2674 1.391 . S
H2676 C2684 0.950 . S
H2677 C2689 0.950 . S
H2678 C2686 0.950 . S
H2679 C2688 0.950 . S
H2680 C2690 0.950 . S
H2681 C2692 0.950 . S
H2682 C2694 0.950 . S
H2683 C2695 0.950 . S
C2684 H2676 0.950 . S
C2684 C2685 1.386 . S
C2684 C2686 1.391 . S
C2685 C2684 1.386 . S
C2685 C2689 1.393 . S
C2686 H2678 0.950 . S
C2686 C2684 1.391 . S
C2686 C2687 1.400 . S
C2687 C2686 1.400 . S
C2687 C2688 1.398 . S
C2687 C2693 1.491 . S
C2688 H2679 0.950 . S
C2688 C2687 1.398 . S
C2688 C2689 1.391 . S
C2689 H2677 0.950 . S
C2689 C2685 1.393 . S
C2689 C2688 1.391 . S
C2690 H2680 0.950 . S
C2690 C2691 1.386 . S
C2690 C2692 1.391 . S
C2691 C2690 1.386 . S
C2691 C2695 1.393 . S
C2692 H2681 0.950 . S
C2692 C2690 1.391 . S
C2692 C2693 1.400 . S
C2693 C2687 1.491 . S
C2693 C2692 1.400 . S
C2693 C2694 1.398 . S
C2694 H2682 0.950 . S
C2694 C2693 1.398 . S
C2694 C2695 1.391 . S
C2695 H2683 0.950 . S
C2695 C2691 1.393 . S
C2695 C2694 1.391 . S
H2696 C2704 0.950 . S
H2697 C2709 0.950 . S
H2698 C2706 0.950 . S
H2699 C2708 0.950 . S
H2700 C2710 0.950 . S
H2701 C2712 0.950 . S
H2702 C2714 0.950 . S
H2703 C2715 0.950 . S
C2704 H2696 0.950 . S
C2704 C2705 1.386 . S
C2704 C2706 1.391 . S
C2705 C2704 1.386 . S
C2705 C2709 1.393 . S
C2706 H2698 0.950 . S
C2706 C2704 1.391 . S
C2706 C2707 1.400 . S
C2707 C2706 1.400 . S
C2707 C2708 1.398 . S
C2707 C2713 1.491 . S
C2708 H2699 0.950 . S
C2708 C2707 1.398 . S
C2708 C2709 1.391 . S
C2709 H2697 0.950 . S
C2709 C2705 1.393 . S
C2709 C2708 1.391 . S
C2710 H2700 0.950 . S
C2710 C2711 1.386 . S
C2710 C2712 1.391 . S
C2711 C2710 1.386 . S
C2711 C2715 1.393 . S
C2712 H2701 0.950 . S
C2712 C2710 1.391 . S
C2712 C2713 1.400 . S
C2713 C2707 1.491 . S
C2713 C2712 1.400 . S
C2713 C2714 1.398 . S
C2714 H2702 0.950 . S
C2714 C2713 1.398 . S
C2714 C2715 1.391 . S
C2715 H2703 0.950 . S
C2715 C2711 1.393 . S
C2715 C2714 1.391 . S
H2716 C2724 0.950 . S
H2717 C2729 0.950 . S
H2718 C2726 0.950 . S
H2719 C2728 0.950 . S
H2720 C2730 0.950 . S
H2721 C2732 0.950 . S
H2722 C2734 0.950 . S
H2723 C2735 0.950 . S
C2724 H2716 0.950 . S
C2724 C2725 1.386 . S
C2724 C2726 1.391 . S
C2725 C2724 1.386 . S
C2725 C2729 1.393 . S
C2726 H2718 0.950 . S
C2726 C2724 1.391 . S
C2726 C2727 1.400 . S
C2727 C2726 1.400 . S
C2727 C2728 1.398 . S
C2727 C2733 1.491 . S
C2728 H2719 0.950 . S
C2728 C2727 1.398 . S
C2728 C2729 1.391 . S
C2729 H2717 0.950 . S
C2729 C2725 1.393 . S
C2729 C2728 1.391 . S
C2730 H2720 0.950 . S
C2730 C2731 1.386 . S
C2730 C2732 1.391 . S
C2731 C2730 1.386 . S
C2731 C2735 1.393 . S
C2732 H2721 0.950 . S
C2732 C2730 1.391 . S
C2732 C2733 1.400 . S
C2733 C2727 1.491 . S
C2733 C2732 1.400 . S
C2733 C2734 1.398 . S
C2734 H2722 0.950 . S
C2734 C2733 1.398 . S
C2734 C2735 1.391 . S
C2735 H2723 0.950 . S
C2735 C2731 1.393 . S
C2735 C2734 1.391 . S
H2736 C2744 0.950 . S
H2737 C2749 0.950 . S
H2738 C2746 0.950 . S
H2739 C2748 0.950 . S
H2740 C2750 0.950 . S
H2741 C2752 0.950 . S
H2742 C2754 0.950 . S
H2743 C2755 0.950 . S
C2744 H2736 0.950 . S
C2744 C2745 1.386 . S
C2744 C2746 1.391 . S
C2745 C2744 1.386 . S
C2745 C2749 1.393 . S
C2746 H2738 0.950 . S
C2746 C2744 1.391 . S
C2746 C2747 1.400 . S
C2747 C2746 1.400 . S
C2747 C2748 1.398 . S
C2747 C2753 1.491 . S
C2748 H2739 0.950 . S
C2748 C2747 1.398 . S
C2748 C2749 1.391 . S
C2749 H2737 0.950 . S
C2749 C2745 1.393 . S
C2749 C2748 1.391 . S
C2750 H2740 0.950 . S
C2750 C2751 1.386 . S
C2750 C2752 1.391 . S
C2751 C2750 1.386 . S
C2751 C2755 1.393 . S
C2752 H2741 0.950 . S
C2752 C2750 1.391 . S
C2752 C2753 1.400 . S
C2753 C2747 1.491 . S
C2753 C2752 1.400 . S
C2753 C2754 1.398 . S
C2754 H2742 0.950 . S
C2754 C2753 1.398 . S
C2754 C2755 1.391 . S
C2755 H2743 0.950 . S
C2755 C2751 1.393 . S
C2755 C2754 1.391 . S
H2756 C2764 0.950 . S
H2757 C2769 0.950 . S
H2758 C2766 0.950 . S
H2759 C2768 0.950 . S
H2760 C2770 0.950 . S
H2761 C2772 0.950 . S
H2762 C2774 0.950 . S
H2763 C2775 0.950 . S
C2764 H2756 0.950 . S
C2764 C2765 1.386 . S
C2764 C2766 1.391 . S
C2765 C2764 1.386 . S
C2765 C2769 1.393 . S
C2766 H2758 0.950 . S
C2766 C2764 1.391 . S
C2766 C2767 1.400 . S
C2767 C2766 1.400 . S
C2767 C2768 1.398 . S
C2767 C2773 1.491 . S
C2768 H2759 0.950 . S
C2768 C2767 1.398 . S
C2768 C2769 1.391 . S
C2769 H2757 0.950 . S
C2769 C2765 1.393 . S
C2769 C2768 1.391 . S
C2770 H2760 0.950 . S
C2770 C2771 1.386 . S
C2770 C2772 1.391 . S
C2771 C2770 1.386 . S
C2771 C2775 1.393 . S
C2772 H2761 0.950 . S
C2772 C2770 1.391 . S
C2772 C2773 1.400 . S
C2773 C2767 1.491 . S
C2773 C2772 1.400 . S
C2773 C2774 1.398 . S
C2774 H2762 0.950 . S
C2774 C2773 1.398 . S
C2774 C2775 1.391 . S
C2775 H2763 0.950 . S
C2775 C2771 1.393 . S
C2775 C2774 1.391 . S
H2776 C2784 0.950 . S
H2777 C2789 0.950 . S
H2778 C2786 0.950 . S
H2779 C2788 0.950 . S
H2780 C2790 0.950 . S
H2781 C2792 0.950 . S
H2782 C2794 0.950 . S
H2783 C2795 0.950 . S
C2784 H2776 0.950 . S
C2784 C2785 1.386 . S
C2784 C2786 1.391 . S
C2785 C2784 1.386 . S
C2785 C2789 1.393 . S
C2786 H2778 0.950 . S
C2786 C2784 1.391 . S
C2786 C2787 1.400 . S
C2787 C2786 1.400 . S
C2787 C2788 1.398 . S
C2787 C2793 1.491 . S
C2788 H2779 0.950 . S
C2788 C2787 1.398 . S
C2788 C2789 1.391 . S
C2789 H2777 0.950 . S
C2789 C2785 1.393 . S
C2789 C2788 1.391 . S
C2790 H2780 0.950 . S
C2790 C2791 1.386 . S
C2790 C2792 1.391 . S
C2791 C2790 1.386 . S
C2791 C2795 1.393 . S
C2792 H2781 0.950 . S
C2792 C2790 1.391 . S
C2792 C2793 1.400 . S
C2793 C2787 1.491 . S
C2793 C2792 1.400 . S
C2793 C2794 1.398 . S
C2794 H2782 0.950 . S
C2794 C2793 1.398 . S
C2794 C2795 1.391 . S
C2795 H2783 0.950 . S
C2795 C2791 1.393 . S
C2795 C2794 1.391 . S
H2796 C2804 0.950 . S
H2797 C2809 0.950 . S
H2798 C2806 0.950 . S
H2799 C2808 0.950 . S
H2800 C2810 0.950 . S
H2801 C2812 0.950 . S
H2802 C2814 0.950 . S
H2803 C2815 0.950 . S
C2804 H2796 0.950 . S
C2804 C2805 1.386 . S
C2804 C2806 1.391 . S
C2805 C2804 1.386 . S
C2805 C2809 1.393 . S
C2806 H2798 0.950 . S
C2806 C2804 1.391 . S
C2806 C2807 1.400 . S
C2807 C2806 1.400 . S
C2807 C2808 1.398 . S
C2807 C2813 1.491 . S
C2808 H2799 0.950 . S
C2808 C2807 1.398 . S
C2808 C2809 1.391 . S
C2809 H2797 0.950 . S
C2809 C2805 1.393 . S
C2809 C2808 1.391 . S
C2810 H2800 0.950 . S
C2810 C2811 1.386 . S
C2810 C2812 1.391 . S
C2811 C2810 1.386 . S
C2811 C2815 1.393 . S
C2812 H2801 0.950 . S
C2812 C2810 1.391 . S
C2812 C2813 1.400 . S
C2813 C2807 1.491 . S
C2813 C2812 1.400 . S
C2813 C2814 1.398 . S
C2814 H2802 0.950 . S
C2814 C2813 1.398 . S
C2814 C2815 1.391 . S
C2815 H2803 0.950 . S
C2815 C2811 1.393 . S
C2815 C2814 1.391 . S
H2816 C2824 0.950 . S
H2817 C2829 0.950 . S
H2818 C2826 0.950 . S
H2819 C2828 0.950 . S
H2820 C2830 0.950 . S
H2821 C2832 0.950 . S
H2822 C2834 0.950 . S
H2823 C2835 0.950 . S
C2824 H2816 0.950 . S
C2824 C2825 1.386 . S
C2824 C2826 1.391 . S
C2825 C2824 1.386 . S
C2825 C2829 1.393 . S
C2826 H2818 0.950 . S
C2826 C2824 1.391 . S
C2826 C2827 1.400 . S
C2827 C2826 1.400 . S
C2827 C2828 1.398 . S
C2827 C2833 1.491 . S
C2828 H2819 0.950 . S
C2828 C2827 1.398 . S
C2828 C2829 1.391 . S
C2829 H2817 0.950 . S
C2829 C2825 1.393 . S
C2829 C2828 1.391 . S
C2830 H2820 0.950 . S
C2830 C2831 1.386 . S
C2830 C2832 1.391 . S
C2831 C2830 1.386 . S
C2831 C2835 1.393 . S
C2832 H2821 0.950 . S
C2832 C2830 1.391 . S
C2832 C2833 1.400 . S
C2833 C2827 1.491 . S
C2833 C2832 1.400 . S
C2833 C2834 1.398 . S
C2834 H2822 0.950 . S
C2834 C2833 1.398 . S
C2834 C2835 1.391 . S
C2835 H2823 0.950 . S
C2835 C2831 1.393 . S
C2835 C2834 1.391 . S
H2836 C2844 0.950 . S
H2837 C2849 0.950 . S
H2838 C2846 0.950 . S
H2839 C2848 0.950 . S
H2840 C2850 0.950 . S
H2841 C2852 0.950 . S
H2842 C2854 0.950 . S
H2843 C2855 0.950 . S
C2844 H2836 0.950 . S
C2844 C2845 1.386 . S
C2844 C2846 1.391 . S
C2845 C2844 1.386 . S
C2845 C2849 1.393 . S
C2846 H2838 0.950 . S
C2846 C2844 1.391 . S
C2846 C2847 1.400 . S
C2847 C2846 1.400 . S
C2847 C2848 1.398 . S
C2847 C2853 1.491 . S
C2848 H2839 0.950 . S
C2848 C2847 1.398 . S
C2848 C2849 1.391 . S
C2849 H2837 0.950 . S
C2849 C2845 1.393 . S
C2849 C2848 1.391 . S
C2850 H2840 0.950 . S
C2850 C2851 1.386 . S
C2850 C2852 1.391 . S
C2851 C2850 1.386 . S
C2851 C2855 1.393 . S
C2852 H2841 0.950 . S
C2852 C2850 1.391 . S
C2852 C2853 1.400 . S
C2853 C2847 1.491 . S
C2853 C2852 1.400 . S
C2853 C2854 1.398 . S
C2854 H2842 0.950 . S
C2854 C2853 1.398 . S
C2854 C2855 1.391 . S
C2855 H2843 0.950 . S
C2855 C2851 1.393 . S
C2855 C2854 1.391 . S
H2856 C2864 0.950 . S
H2857 C2869 0.950 . S
H2858 C2866 0.950 . S
H2859 C2868 0.950 . S
H2860 C2870 0.950 . S
H2861 C2872 0.950 . S
H2862 C2874 0.950 . S
H2863 C2875 0.950 . S
C2864 H2856 0.950 . S
C2864 C2865 1.386 . S
C2864 C2866 1.391 . S
C2865 C2864 1.386 . S
C2865 C2869 1.393 . S
C2866 H2858 0.950 . S
C2866 C2864 1.391 . S
C2866 C2867 1.400 . S
C2867 C2866 1.400 . S
C2867 C2868 1.398 . S
C2867 C2873 1.491 . S
C2868 H2859 0.950 . S
C2868 C2867 1.398 . S
C2868 C2869 1.391 . S
C2869 H2857 0.950 . S
C2869 C2865 1.393 . S
C2869 C2868 1.391 . S
C2870 H2860 0.950 . S
C2870 C2871 1.386 . S
C2870 C2872 1.391 . S
C2871 C2870 1.386 . S
C2871 C2875 1.393 . S
C2872 H2861 0.950 . S
C2872 C2870 1.391 . S
C2872 C2873 1.400 . S
C2873 C2867 1.491 . S
C2873 C2872 1.400 . S
C2873 C2874 1.398 . S
C2874 H2862 0.950 . S
C2874 C2873 1.398 . S
C2874 C2875 1.391 . S
C2875 H2863 0.950 . S
C2875 C2871 1.393 . S
C2875 C2874 1.391 . S
H2876 C2884 0.950 . S
H2877 C2889 0.950 . S
H2878 C2886 0.950 . S
H2879 C2888 0.950 . S
H2880 C2890 0.950 . S
H2881 C2892 0.950 . S
H2882 C2894 0.950 . S
H2883 C2895 0.950 . S
C2884 H2876 0.950 . S
C2884 C2885 1.386 . S
C2884 C2886 1.391 . S
C2885 C2884 1.386 . S
C2885 C2889 1.393 . S
C2886 H2878 0.950 . S
C2886 C2884 1.391 . S
C2886 C2887 1.400 . S
C2887 C2886 1.400 . S
C2887 C2888 1.398 . S
C2887 C2893 1.491 . S
C2888 H2879 0.950 . S
C2888 C2887 1.398 . S
C2888 C2889 1.391 . S
C2889 H2877 0.950 . S
C2889 C2885 1.393 . S
C2889 C2888 1.391 . S
C2890 H2880 0.950 . S
C2890 C2891 1.386 . S
C2890 C2892 1.391 . S
C2891 C2890 1.386 . S
C2891 C2895 1.393 . S
C2892 H2881 0.950 . S
C2892 C2890 1.391 . S
C2892 C2893 1.400 . S
C2893 C2887 1.491 . S
C2893 C2892 1.400 . S
C2893 C2894 1.398 . S
C2894 H2882 0.950 . S
C2894 C2893 1.398 . S
C2894 C2895 1.391 . S
C2895 H2883 0.950 . S
C2895 C2891 1.393 . S
C2895 C2894 1.391 . S
H2896 C2904 0.950 . S
H2897 C2909 0.950 . S
H2898 C2906 0.950 . S
H2899 C2908 0.950 . S
H2900 C2910 0.950 . S
H2901 C2912 0.950 . S
H2902 C2914 0.950 . S
H2903 C2915 0.950 . S
C2904 H2896 0.950 . S
C2904 C2905 1.386 . S
C2904 C2906 1.391 . S
C2905 C2904 1.386 . S
C2905 C2909 1.393 . S
C2906 H2898 0.950 . S
C2906 C2904 1.391 . S
C2906 C2907 1.400 . S
C2907 C2906 1.400 . S
C2907 C2908 1.398 . S
C2907 C2913 1.491 . S
C2908 H2899 0.950 . S
C2908 C2907 1.398 . S
C2908 C2909 1.391 . S
C2909 H2897 0.950 . S
C2909 C2905 1.393 . S
C2909 C2908 1.391 . S
C2910 H2900 0.950 . S
C2910 C2911 1.386 . S
C2910 C2912 1.391 . S
C2911 C2910 1.386 . S
C2911 C2915 1.393 . S
C2912 H2901 0.950 . S
C2912 C2910 1.391 . S
C2912 C2913 1.400 . S
C2913 C2907 1.491 . S
C2913 C2912 1.400 . S
C2913 C2914 1.398 . S
C2914 H2902 0.950 . S
C2914 C2913 1.398 . S
C2914 C2915 1.391 . S
C2915 H2903 0.950 . S
C2915 C2911 1.393 . S
C2915 C2914 1.391 . S
H2916 C2924 0.950 . S
H2917 C2929 0.950 . S
H2918 C2926 0.950 . S
H2919 C2928 0.950 . S
H2920 C2930 0.950 . S
H2921 C2932 0.950 . S
H2922 C2934 0.950 . S
H2923 C2935 0.950 . S
C2924 H2916 0.950 . S
C2924 C2925 1.386 . S
C2924 C2926 1.391 . S
C2925 C2924 1.386 . S
C2925 C2929 1.393 . S
C2926 H2918 0.950 . S
C2926 C2924 1.391 . S
C2926 C2927 1.400 . S
C2927 C2926 1.400 . S
C2927 C2928 1.398 . S
C2927 C2933 1.491 . S
C2928 H2919 0.950 . S
C2928 C2927 1.398 . S
C2928 C2929 1.391 . S
C2929 H2917 0.950 . S
C2929 C2925 1.393 . S
C2929 C2928 1.391 . S
C2930 H2920 0.950 . S
C2930 C2931 1.386 . S
C2930 C2932 1.391 . S
C2931 C2930 1.386 . S
C2931 C2935 1.393 . S
C2932 H2921 0.950 . S
C2932 C2930 1.391 . S
C2932 C2933 1.400 . S
C2933 C2927 1.491 . S
C2933 C2932 1.400 . S
C2933 C2934 1.398 . S
C2934 H2922 0.950 . S
C2934 C2933 1.398 . S
C2934 C2935 1.391 . S
C2935 H2923 0.950 . S
C2935 C2931 1.393 . S
C2935 C2934 1.391 . S
H2936 C2944 0.950 . S
H2937 C2949 0.950 . S
H2938 C2946 0.950 . S
H2939 C2948 0.950 . S
H2940 C2950 0.950 . S
H2941 C2952 0.950 . S
H2942 C2954 0.950 . S
H2943 C2955 0.950 . S
C2944 H2936 0.950 . S
C2944 C2945 1.386 . S
C2944 C2946 1.391 . S
C2945 C2944 1.386 . S
C2945 C2949 1.393 . S
C2946 H2938 0.950 . S
C2946 C2944 1.391 . S
C2946 C2947 1.400 . S
C2947 C2946 1.400 . S
C2947 C2948 1.398 . S
C2947 C2953 1.491 . S
C2948 H2939 0.950 . S
C2948 C2947 1.398 . S
C2948 C2949 1.391 . S
C2949 H2937 0.950 . S
C2949 C2945 1.393 . S
C2949 C2948 1.391 . S
C2950 H2940 0.950 . S
C2950 C2951 1.386 . S
C2950 C2952 1.391 . S
C2951 C2950 1.386 . S
C2951 C2955 1.393 . S
C2952 H2941 0.950 . S
C2952 C2950 1.391 . S
C2952 C2953 1.400 . S
C2953 C2947 1.491 . S
C2953 C2952 1.400 . S
C2953 C2954 1.398 . S
C2954 H2942 0.950 . S
C2954 C2953 1.398 . S
C2954 C2955 1.391 . S
C2955 H2943 0.950 . S
C2955 C2951 1.393 . S
C2955 C2954 1.391 . S
H2956 C2964 0.950 . S
H2957 C2969 0.950 . S
H2958 C2966 0.950 . S
H2959 C2968 0.950 . S
H2960 C2970 0.950 . S
H2961 C2972 0.950 . S
H2962 C2974 0.950 . S
H2963 C2975 0.950 . S
C2964 H2956 0.950 . S
C2964 C2965 1.386 . S
C2964 C2966 1.391 . S
C2965 C2964 1.386 . S
C2965 C2969 1.393 . S
C2966 H2958 0.950 . S
C2966 C2964 1.391 . S
C2966 C2967 1.400 . S
C2967 C2966 1.400 . S
C2967 C2968 1.398 . S
C2967 C2973 1.491 . S
C2968 H2959 0.950 . S
C2968 C2967 1.398 . S
C2968 C2969 1.391 . S
C2969 H2957 0.950 . S
C2969 C2965 1.393 . S
C2969 C2968 1.391 . S
C2970 H2960 0.950 . S
C2970 C2971 1.386 . S
C2970 C2972 1.391 . S
C2971 C2970 1.386 . S
C2971 C2975 1.393 . S
C2972 H2961 0.950 . S
C2972 C2970 1.391 . S
C2972 C2973 1.400 . S
C2973 C2967 1.491 . S
C2973 C2972 1.400 . S
C2973 C2974 1.398 . S
C2974 H2962 0.950 . S
C2974 C2973 1.398 . S
C2974 C2975 1.391 . S
C2975 H2963 0.950 . S
C2975 C2971 1.393 . S
C2975 C2974 1.391 . S
H2976 C2984 0.950 . S
H2977 C2989 0.950 . S
H2978 C2986 0.950 . S
H2979 C2988 0.950 . S
H2980 C2990 0.950 . S
H2981 C2992 0.950 . S
H2982 C2994 0.950 . S
H2983 C2995 0.950 . S
C2984 H2976 0.950 . S
C2984 C2985 1.386 . S
C2984 C2986 1.391 . S
C2985 C2984 1.386 . S
C2985 C2989 1.393 . S
C2986 H2978 0.950 . S
C2986 C2984 1.391 . S
C2986 C2987 1.400 . S
C2987 C2986 1.400 . S
C2987 C2988 1.398 . S
C2987 C2993 1.491 . S
C2988 H2979 0.950 . S
C2988 C2987 1.398 . S
C2988 C2989 1.391 . S
C2989 H2977 0.950 . S
C2989 C2985 1.393 . S
C2989 C2988 1.391 . S
C2990 H2980 0.950 . S
C2990 C2991 1.386 . S
C2990 C2992 1.391 . S
C2991 C2990 1.386 . S
C2991 C2995 1.393 . S
C2992 H2981 0.950 . S
C2992 C2990 1.391 . S
C2992 C2993 1.400 . S
C2993 C2987 1.491 . S
C2993 C2992 1.400 . S
C2993 C2994 1.398 . S
C2994 H2982 0.950 . S
C2994 C2993 1.398 . S
C2994 C2995 1.391 . S
C2995 H2983 0.950 . S
C2995 C2991 1.393 . S
C2995 C2994 1.391 . S
H2996 C3004 0.950 . S
H2997 C3009 0.950 . S
H2998 C3006 0.950 . S
H2999 C3008 0.950 . S
H3000 C3010 0.950 . S
H3001 C3012 0.950 . S
H3002 C3014 0.950 . S
H3003 C3015 0.950 . S
C3004 H2996 0.950 . S
C3004 C3005 1.386 . S
C3004 C3006 1.391 . S
C3005 C3004 1.386 . S
C3005 C3009 1.393 . S
C3006 H2998 0.950 . S
C3006 C3004 1.391 . S
C3006 C3007 1.400 . S
C3007 C3006 1.400 . S
C3007 C3008 1.398 . S
C3007 C3013 1.491 . S
C3008 H2999 0.950 . S
C3008 C3007 1.398 . S
C3008 C3009 1.391 . S
C3009 H2997 0.950 . S
C3009 C3005 1.393 . S
C3009 C3008 1.391 . S
C3010 H3000 0.950 . S
C3010 C3011 1.386 . S
C3010 C3012 1.391 . S
C3011 C3010 1.386 . S
C3011 C3015 1.393 . S
C3012 H3001 0.950 . S
C3012 C3010 1.391 . S
C3012 C3013 1.400 . S
C3013 C3007 1.491 . S
C3013 C3012 1.400 . S
C3013 C3014 1.398 . S
C3014 H3002 0.950 . S
C3014 C3013 1.398 . S
C3014 C3015 1.391 . S
C3015 H3003 0.950 . S
C3015 C3011 1.393 . S
C3015 C3014 1.391 . S
H3016 C3024 0.950 . S
H3017 C3029 0.950 . S
H3018 C3026 0.950 . S
H3019 C3028 0.950 . S
H3020 C3030 0.950 . S
H3021 C3032 0.950 . S
H3022 C3034 0.950 . S
H3023 C3035 0.950 . S
C3024 H3016 0.950 . S
C3024 C3025 1.386 . S
C3024 C3026 1.391 . S
C3025 C3024 1.386 . S
C3025 C3029 1.393 . S
C3026 H3018 0.950 . S
C3026 C3024 1.391 . S
C3026 C3027 1.400 . S
C3027 C3026 1.400 . S
C3027 C3028 1.398 . S
C3027 C3033 1.491 . S
C3028 H3019 0.950 . S
C3028 C3027 1.398 . S
C3028 C3029 1.391 . S
C3029 H3017 0.950 . S
C3029 C3025 1.393 . S
C3029 C3028 1.391 . S
C3030 H3020 0.950 . S
C3030 C3031 1.386 . S
C3030 C3032 1.391 . S
C3031 C3030 1.386 . S
C3031 C3035 1.393 . S
C3032 H3021 0.950 . S
C3032 C3030 1.391 . S
C3032 C3033 1.400 . S
C3033 C3027 1.491 . S
C3033 C3032 1.400 . S
C3033 C3034 1.398 . S
C3034 H3022 0.950 . S
C3034 C3033 1.398 . S
C3034 C3035 1.391 . S
C3035 H3023 0.950 . S
C3035 C3031 1.393 . S
C3035 C3034 1.391 . S
H3036 C3044 0.950 . S
H3037 C3049 0.950 . S
H3038 C3046 0.950 . S
H3039 C3048 0.950 . S
H3040 C3050 0.950 . S
H3041 C3052 0.950 . S
H3042 C3054 0.950 . S
H3043 C3055 0.950 . S
C3044 H3036 0.950 . S
C3044 C3045 1.386 . S
C3044 C3046 1.391 . S
C3045 C3044 1.386 . S
C3045 C3049 1.393 . S
C3046 H3038 0.950 . S
C3046 C3044 1.391 . S
C3046 C3047 1.400 . S
C3047 C3046 1.400 . S
C3047 C3048 1.398 . S
C3047 C3053 1.491 . S
C3048 H3039 0.950 . S
C3048 C3047 1.398 . S
C3048 C3049 1.391 . S
C3049 H3037 0.950 . S
C3049 C3045 1.393 . S
C3049 C3048 1.391 . S
C3050 H3040 0.950 . S
C3050 C3051 1.386 . S
C3050 C3052 1.391 . S
C3051 C3050 1.386 . S
C3051 C3055 1.393 . S
C3052 H3041 0.950 . S
C3052 C3050 1.391 . S
C3052 C3053 1.400 . S
C3053 C3047 1.491 . S
C3053 C3052 1.400 . S
C3053 C3054 1.398 . S
C3054 H3042 0.950 . S
C3054 C3053 1.398 . S
C3054 C3055 1.391 . S
C3055 H3043 0.950 . S
C3055 C3051 1.393 . S
C3055 C3054 1.391 . S
H3056 C3064 0.950 . S
H3057 C3069 0.950 . S
H3058 C3066 0.950 . S
H3059 C3068 0.950 . S
H3060 C3070 0.950 . S
H3061 C3072 0.950 . S
H3062 C3074 0.950 . S
H3063 C3075 0.950 . S
C3064 H3056 0.950 . S
C3064 C3065 1.386 . S
C3064 C3066 1.391 . S
C3065 C3064 1.386 . S
C3065 C3069 1.393 . S
C3066 H3058 0.950 . S
C3066 C3064 1.391 . S
C3066 C3067 1.400 . S
C3067 C3066 1.400 . S
C3067 C3068 1.398 . S
C3067 C3073 1.491 . S
C3068 H3059 0.950 . S
C3068 C3067 1.398 . S
C3068 C3069 1.391 . S
C3069 H3057 0.950 . S
C3069 C3065 1.393 . S
C3069 C3068 1.391 . S
C3070 H3060 0.950 . S
C3070 C3071 1.386 . S
C3070 C3072 1.391 . S
C3071 C3070 1.386 . S
C3071 C3075 1.393 . S
C3072 H3061 0.950 . S
C3072 C3070 1.391 . S
C3072 C3073 1.400 . S
C3073 C3067 1.491 . S
C3073 C3072 1.400 . S
C3073 C3074 1.398 . S
C3074 H3062 0.950 . S
C3074 C3073 1.398 . S
C3074 C3075 1.391 . S
C3075 H3063 0.950 . S
C3075 C3071 1.393 . S
C3075 C3074 1.391 . S
H3076 C3084 0.950 . S
H3077 C3089 0.950 . S
H3078 C3086 0.950 . S
H3079 C3088 0.950 . S
H3080 C3090 0.950 . S
H3081 C3092 0.950 . S
H3082 C3094 0.950 . S
H3083 C3095 0.950 . S
C3084 H3076 0.950 . S
C3084 C3085 1.386 . S
C3084 C3086 1.391 . S
C3085 C3084 1.386 . S
C3085 C3089 1.393 . S
C3086 H3078 0.950 . S
C3086 C3084 1.391 . S
C3086 C3087 1.400 . S
C3087 C3086 1.400 . S
C3087 C3088 1.398 . S
C3087 C3093 1.491 . S
C3088 H3079 0.950 . S
C3088 C3087 1.398 . S
C3088 C3089 1.391 . S
C3089 H3077 0.950 . S
C3089 C3085 1.393 . S
C3089 C3088 1.391 . S
C3090 H3080 0.950 . S
C3090 C3091 1.386 . S
C3090 C3092 1.391 . S
C3091 C3090 1.386 . S
C3091 C3095 1.393 . S
C3092 H3081 0.950 . S
C3092 C3090 1.391 . S
C3092 C3093 1.400 . S
C3093 C3087 1.491 . S
C3093 C3092 1.400 . S
C3093 C3094 1.398 . S
C3094 H3082 0.950 . S
C3094 C3093 1.398 . S
C3094 C3095 1.391 . S
C3095 H3083 0.950 . S
C3095 C3091 1.393 . S
C3095 C3094 1.391 . S
H3096 C3104 0.950 . S
H3097 C3109 0.950 . S
H3098 C3106 0.950 . S
H3099 C3108 0.950 . S
H3100 C3110 0.950 . S
H3101 C3112 0.950 . S
H3102 C3114 0.950 . S
H3103 C3115 0.950 . S
C3104 H3096 0.950 . S
C3104 C3105 1.386 . S
C3104 C3106 1.391 . S
C3105 C3104 1.386 . S
C3105 C3109 1.393 . S
C3106 H3098 0.950 . S
C3106 C3104 1.391 . S
C3106 C3107 1.400 . S
C3107 C3106 1.400 . S
C3107 C3108 1.398 . S
C3107 C3113 1.491 . S
C3108 H3099 0.950 . S
C3108 C3107 1.398 . S
C3108 C3109 1.391 . S
C3109 H3097 0.950 . S
C3109 C3105 1.393 . S
C3109 C3108 1.391 . S
C3110 H3100 0.950 . S
C3110 C3111 1.386 . S
C3110 C3112 1.391 . S
C3111 C3110 1.386 . S
C3111 C3115 1.393 . S
C3112 H3101 0.950 . S
C3112 C3110 1.391 . S
C3112 C3113 1.400 . S
C3113 C3107 1.491 . S
C3113 C3112 1.400 . S
C3113 C3114 1.398 . S
C3114 H3102 0.950 . S
C3114 C3113 1.398 . S
C3114 C3115 1.391 . S
C3115 H3103 0.950 . S
C3115 C3111 1.393 . S
C3115 C3114 1.391 . S
H3116 C3124 0.950 . S
H3117 C3129 0.950 . S
H3118 C3126 0.950 . S
H3119 C3128 0.950 . S
H3120 C3130 0.950 . S
H3121 C3132 0.950 . S
H3122 C3134 0.950 . S
H3123 C3135 0.950 . S
C3124 H3116 0.950 . S
C3124 C3125 1.386 . S
C3124 C3126 1.391 . S
C3125 C3124 1.386 . S
C3125 C3129 1.393 . S
C3126 H3118 0.950 . S
C3126 C3124 1.391 . S
C3126 C3127 1.400 . S
C3127 C3126 1.400 . S
C3127 C3128 1.398 . S
C3127 C3133 1.491 . S
C3128 H3119 0.950 . S
C3128 C3127 1.398 . S
C3128 C3129 1.391 . S
C3129 H3117 0.950 . S
C3129 C3125 1.393 . S
C3129 C3128 1.391 . S
C3130 H3120 0.950 . S
C3130 C3131 1.386 . S
C3130 C3132 1.391 . S
C3131 C3130 1.386 . S
C3131 C3135 1.393 . S
C3132 H3121 0.950 . S
C3132 C3130 1.391 . S
C3132 C3133 1.400 . S
C3133 C3127 1.491 . S
C3133 C3132 1.400 . S
C3133 C3134 1.398 . S
C3134 H3122 0.950 . S
C3134 C3133 1.398 . S
C3134 C3135 1.391 . S
C3135 H3123 0.950 . S
C3135 C3131 1.393 . S
C3135 C3134 1.391 . S
H3136 C3144 0.950 . S
H3137 C3149 0.950 . S
H3138 C3146 0.950 . S
H3139 C3148 0.950 . S
H3140 C3150 0.950 . S
H3141 C3152 0.950 . S
H3142 C3154 0.950 . S
H3143 C3155 0.950 . S
C3144 H3136 0.950 . S
C3144 C3145 1.386 . S
C3144 C3146 1.391 . S
C3145 C3144 1.386 . S
C3145 C3149 1.393 . S
C3146 H3138 0.950 . S
C3146 C3144 1.391 . S
C3146 C3147 1.400 . S
C3147 C3146 1.400 . S
C3147 C3148 1.398 . S
C3147 C3153 1.491 . S
C3148 H3139 0.950 . S
C3148 C3147 1.398 . S
C3148 C3149 1.391 . S
C3149 H3137 0.950 . S
C3149 C3145 1.393 . S
C3149 C3148 1.391 . S
C3150 H3140 0.950 . S
C3150 C3151 1.386 . S
C3150 C3152 1.391 . S
C3151 C3150 1.386 . S
C3151 C3155 1.393 . S
C3152 H3141 0.950 . S
C3152 C3150 1.391 . S
C3152 C3153 1.400 . S
C3153 C3147 1.491 . S
C3153 C3152 1.400 . S
C3153 C3154 1.398 . S
C3154 H3142 0.950 . S
C3154 C3153 1.398 . S
C3154 C3155 1.391 . S
C3155 H3143 0.950 . S
C3155 C3151 1.393 . S
C3155 C3154 1.391 . S
H3156 C3164 0.950 . S
H3157 C3169 0.950 . S
H3158 C3166 0.950 . S
H3159 C3168 0.950 . S
H3160 C3170 0.950 . S
H3161 C3172 0.950 . S
H3162 C3174 0.950 . S
H3163 C3175 0.950 . S
C3164 H3156 0.950 . S
C3164 C3165 1.386 . S
C3164 C3166 1.391 . S
C3165 C3164 1.386 . S
C3165 C3169 1.393 . S
C3166 H3158 0.950 . S
C3166 C3164 1.391 . S
C3166 C3167 1.400 . S
C3167 C3166 1.400 . S
C3167 C3168 1.398 . S
C3167 C3173 1.491 . S
C3168 H3159 0.950 . S
C3168 C3167 1.398 . S
C3168 C3169 1.391 . S
C3169 H3157 0.950 . S
C3169 C3165 1.393 . S
C3169 C3168 1.391 . S
C3170 H3160 0.950 . S
C3170 C3171 1.386 . S
C3170 C3172 1.391 . S
C3171 C3170 1.386 . S
C3171 C3175 1.393 . S
C3172 H3161 0.950 . S
C3172 C3170 1.391 . S
C3172 C3173 1.400 . S
C3173 C3167 1.491 . S
C3173 C3172 1.400 . S
C3173 C3174 1.398 . S
C3174 H3162 0.950 . S
C3174 C3173 1.398 . S
C3174 C3175 1.391 . S
C3175 H3163 0.950 . S
C3175 C3171 1.393 . S
C3175 C3174 1.391 . S
H3176 C3184 0.950 . S
H3177 C3189 0.950 . S
H3178 C3186 0.950 . S
H3179 C3188 0.950 . S
H3180 C3190 0.950 . S
H3181 C3192 0.950 . S
H3182 C3194 0.950 . S
H3183 C3195 0.950 . S
C3184 H3176 0.950 . S
C3184 C3185 1.386 . S
C3184 C3186 1.391 . S
C3185 C3184 1.386 . S
C3185 C3189 1.393 . S
C3186 H3178 0.950 . S
C3186 C3184 1.391 . S
C3186 C3187 1.400 . S
C3187 C3186 1.400 . S
C3187 C3188 1.398 . S
C3187 C3193 1.491 . S
C3188 H3179 0.950 . S
C3188 C3187 1.398 . S
C3188 C3189 1.391 . S
C3189 H3177 0.950 . S
C3189 C3185 1.393 . S
C3189 C3188 1.391 . S
C3190 H3180 0.950 . S
C3190 C3191 1.386 . S
C3190 C3192 1.391 . S
C3191 C3190 1.386 . S
C3191 C3195 1.393 . S
C3192 H3181 0.950 . S
C3192 C3190 1.391 . S
C3192 C3193 1.400 . S
C3193 C3187 1.491 . S
C3193 C3192 1.400 . S
C3193 C3194 1.398 . S
C3194 H3182 0.950 . S
C3194 C3193 1.398 . S
C3194 C3195 1.391 . S
C3195 H3183 0.950 . S
C3195 C3191 1.393 . S
C3195 C3194 1.391 . S
H3196 C3204 0.950 . S
H3197 C3209 0.950 . S
H3198 C3206 0.950 . S
H3199 C3208 0.950 . S
H3200 C3210 0.950 . S
H3201 C3212 0.950 . S
H3202 C3214 0.950 . S
H3203 C3215 0.950 . S
C3204 H3196 0.950 . S
C3204 C3205 1.386 . S
C3204 C3206 1.391 . S
C3205 C3204 1.386 . S
C3205 C3209 1.393 . S
C3206 H3198 0.950 . S
C3206 C3204 1.391 . S
C3206 C3207 1.400 . S
C3207 C3206 1.400 . S
C3207 C3208 1.398 . S
C3207 C3213 1.491 . S
C3208 H3199 0.950 . S
C3208 C3207 1.398 . S
C3208 C3209 1.391 . S
C3209 H3197 0.950 . S
C3209 C3205 1.393 . S
C3209 C3208 1.391 . S
C3210 H3200 0.950 . S
C3210 C3211 1.386 . S
C3210 C3212 1.391 . S
C3211 C3210 1.386 . S
C3211 C3215 1.393 . S
C3212 H3201 0.950 . S
C3212 C3210 1.391 . S
C3212 C3213 1.400 . S
C3213 C3207 1.491 . S
C3213 C3212 1.400 . S
C3213 C3214 1.398 . S
C3214 H3202 0.950 . S
C3214 C3213 1.398 . S
C3214 C3215 1.391 . S
C3215 H3203 0.950 . S
C3215 C3211 1.393 . S
C3215 C3214 1.391 . S
H3216 C3224 0.950 . S
H3217 C3229 0.950 . S
H3218 C3226 0.950 . S
H3219 C3228 0.950 . S
H3220 C3230 0.950 . S
H3221 C3232 0.950 . S
H3222 C3234 0.950 . S
H3223 C3235 0.950 . S
C3224 H3216 0.950 . S
C3224 C3225 1.386 . S
C3224 C3226 1.391 . S
C3225 C3224 1.386 . S
C3225 C3229 1.393 . S
C3226 H3218 0.950 . S
C3226 C3224 1.391 . S
C3226 C3227 1.400 . S
C3227 C3226 1.400 . S
C3227 C3228 1.398 . S
C3227 C3233 1.491 . S
C3228 H3219 0.950 . S
C3228 C3227 1.398 . S
C3228 C3229 1.391 . S
C3229 H3217 0.950 . S
C3229 C3225 1.393 . S
C3229 C3228 1.391 . S
C3230 H3220 0.950 . S
C3230 C3231 1.386 . S
C3230 C3232 1.391 . S
C3231 C3230 1.386 . S
C3231 C3235 1.393 . S
C3232 H3221 0.950 . S
C3232 C3230 1.391 . S
C3232 C3233 1.400 . S
C3233 C3227 1.491 . S
C3233 C3232 1.400 . S
C3233 C3234 1.398 . S
C3234 H3222 0.950 . S
C3234 C3233 1.398 . S
C3234 C3235 1.391 . S
C3235 H3223 0.950 . S
C3235 C3231 1.393 . S
C3235 C3234 1.391 . S
H3236 C3244 0.950 . S
H3237 C3249 0.950 . S
H3238 C3246 0.950 . S
H3239 C3248 0.950 . S
H3240 C3250 0.950 . S
H3241 C3252 0.950 . S
H3242 C3254 0.950 . S
H3243 C3255 0.950 . S
C3244 H3236 0.950 . S
C3244 C3245 1.386 . S
C3244 C3246 1.391 . S
C3245 C3244 1.386 . S
C3245 C3249 1.393 . S
C3246 H3238 0.950 . S
C3246 C3244 1.391 . S
C3246 C3247 1.400 . S
C3247 C3246 1.400 . S
C3247 C3248 1.398 . S
C3247 C3253 1.491 . S
C3248 H3239 0.950 . S
C3248 C3247 1.398 . S
C3248 C3249 1.391 . S
C3249 H3237 0.950 . S
C3249 C3245 1.393 . S
C3249 C3248 1.391 . S
C3250 H3240 0.950 . S
C3250 C3251 1.386 . S
C3250 C3252 1.391 . S
C3251 C3250 1.386 . S
C3251 C3255 1.393 . S
C3252 H3241 0.950 . S
C3252 C3250 1.391 . S
C3252 C3253 1.400 . S
C3253 C3247 1.491 . S
C3253 C3252 1.400 . S
C3253 C3254 1.398 . S
C3254 H3242 0.950 . S
C3254 C3253 1.398 . S
C3254 C3255 1.391 . S
C3255 H3243 0.950 . S
C3255 C3251 1.393 . S
C3255 C3254 1.391 . S
H3256 C3264 0.950 . S
H3257 C3269 0.950 . S
H3258 C3266 0.950 . S
H3259 C3268 0.950 . S
H3260 C3270 0.950 . S
H3261 C3272 0.950 . S
H3262 C3274 0.950 . S
H3263 C3275 0.950 . S
C3264 H3256 0.950 . S
C3264 C3265 1.386 . S
C3264 C3266 1.391 . S
C3265 C3264 1.386 . S
C3265 C3269 1.393 . S
C3266 H3258 0.950 . S
C3266 C3264 1.391 . S
C3266 C3267 1.400 . S
C3267 C3266 1.400 . S
C3267 C3268 1.398 . S
C3267 C3273 1.491 . S
C3268 H3259 0.950 . S
C3268 C3267 1.398 . S
C3268 C3269 1.391 . S
C3269 H3257 0.950 . S
C3269 C3265 1.393 . S
C3269 C3268 1.391 . S
C3270 H3260 0.950 . S
C3270 C3271 1.386 . S
C3270 C3272 1.391 . S
C3271 C3270 1.386 . S
C3271 C3275 1.393 . S
C3272 H3261 0.950 . S
C3272 C3270 1.391 . S
C3272 C3273 1.400 . S
C3273 C3267 1.491 . S
C3273 C3272 1.400 . S
C3273 C3274 1.398 . S
C3274 H3262 0.950 . S
C3274 C3273 1.398 . S
C3274 C3275 1.391 . S
C3275 H3263 0.950 . S
C3275 C3271 1.393 . S
C3275 C3274 1.391 . S
H3276 C3284 0.950 . S
H3277 C3289 0.950 . S
H3278 C3286 0.950 . S
H3279 C3288 0.950 . S
H3280 C3290 0.950 . S
H3281 C3292 0.950 . S
H3282 C3294 0.950 . S
H3283 C3295 0.950 . S
C3284 H3276 0.950 . S
C3284 C3285 1.386 . S
C3284 C3286 1.391 . S
C3285 C3284 1.386 . S
C3285 C3289 1.393 . S
C3286 H3278 0.950 . S
C3286 C3284 1.391 . S
C3286 C3287 1.400 . S
C3287 C3286 1.400 . S
C3287 C3288 1.398 . S
C3287 C3293 1.491 . S
C3288 H3279 0.950 . S
C3288 C3287 1.398 . S
C3288 C3289 1.391 . S
C3289 H3277 0.950 . S
C3289 C3285 1.393 . S
C3289 C3288 1.391 . S
C3290 H3280 0.950 . S
C3290 C3291 1.386 . S
C3290 C3292 1.391 . S
C3291 C3290 1.386 . S
C3291 C3295 1.393 . S
C3292 H3281 0.950 . S
C3292 C3290 1.391 . S
C3292 C3293 1.400 . S
C3293 C3287 1.491 . S
C3293 C3292 1.400 . S
C3293 C3294 1.398 . S
C3294 H3282 0.950 . S
C3294 C3293 1.398 . S
C3294 C3295 1.391 . S
C3295 H3283 0.950 . S
C3295 C3291 1.393 . S
C3295 C3294 1.391 . S
H3296 C3304 0.950 . S
H3297 C3309 0.950 . S
H3298 C3306 0.950 . S
H3299 C3308 0.950 . S
H3300 C3310 0.950 . S
H3301 C3312 0.950 . S
H3302 C3314 0.950 . S
H3303 C3315 0.950 . S
C3304 H3296 0.950 . S
C3304 C3305 1.386 . S
C3304 C3306 1.391 . S
C3305 C3304 1.386 . S
C3305 C3309 1.393 . S
C3306 H3298 0.950 . S
C3306 C3304 1.391 . S
C3306 C3307 1.400 . S
C3307 C3306 1.400 . S
C3307 C3308 1.398 . S
C3307 C3313 1.491 . S
C3308 H3299 0.950 . S
C3308 C3307 1.398 . S
C3308 C3309 1.391 . S
C3309 H3297 0.950 . S
C3309 C3305 1.393 . S
C3309 C3308 1.391 . S
C3310 H3300 0.950 . S
C3310 C3311 1.386 . S
C3310 C3312 1.391 . S
C3311 C3310 1.386 . S
C3311 C3315 1.393 . S
C3312 H3301 0.950 . S
C3312 C3310 1.391 . S
C3312 C3313 1.400 . S
C3313 C3307 1.491 . S
C3313 C3312 1.400 . S
C3313 C3314 1.398 . S
C3314 H3302 0.950 . S
C3314 C3313 1.398 . S
C3314 C3315 1.391 . S
C3315 H3303 0.950 . S
C3315 C3311 1.393 . S
C3315 C3314 1.391 . S
H3316 C3324 0.950 . S
H3317 C3329 0.950 . S
H3318 C3326 0.950 . S
H3319 C3328 0.950 . S
H3320 C3330 0.950 . S
H3321 C3332 0.950 . S
H3322 C3334 0.950 . S
H3323 C3335 0.950 . S
C3324 H3316 0.950 . S
C3324 C3325 1.386 . S
C3324 C3326 1.391 . S
C3325 C3324 1.386 . S
C3325 C3329 1.393 . S
C3326 H3318 0.950 . S
C3326 C3324 1.391 . S
C3326 C3327 1.400 . S
C3327 C3326 1.400 . S
C3327 C3328 1.398 . S
C3327 C3333 1.491 . S
C3328 H3319 0.950 . S
C3328 C3327 1.398 . S
C3328 C3329 1.391 . S
C3329 H3317 0.950 . S
C3329 C3325 1.393 . S
C3329 C3328 1.391 . S
C3330 H3320 0.950 . S
C3330 C3331 1.386 . S
C3330 C3332 1.391 . S
C3331 C3330 1.386 . S
C3331 C3335 1.393 . S
C3332 H3321 0.950 . S
C3332 C3330 1.391 . S
C3332 C3333 1.400 . S
C3333 C3327 1.491 . S
C3333 C3332 1.400 . S
C3333 C3334 1.398 . S
C3334 H3322 0.950 . S
C3334 C3333 1.398 . S
C3334 C3335 1.391 . S
C3335 H3323 0.950 . S
C3335 C3331 1.393 . S
C3335 C3334 1.391 . S
H3336 C3344 0.950 . S
H3337 C3349 0.950 . S
H3338 C3346 0.950 . S
H3339 C3348 0.950 . S
H3340 C3350 0.950 . S
H3341 C3352 0.950 . S
H3342 C3354 0.950 . S
H3343 C3355 0.950 . S
C3344 H3336 0.950 . S
C3344 C3345 1.386 . S
C3344 C3346 1.391 . S
C3345 C3344 1.386 . S
C3345 C3349 1.393 . S
C3346 H3338 0.950 . S
C3346 C3344 1.391 . S
C3346 C3347 1.400 . S
C3347 C3346 1.400 . S
C3347 C3348 1.398 . S
C3347 C3353 1.491 . S
C3348 H3339 0.950 . S
C3348 C3347 1.398 . S
C3348 C3349 1.391 . S
C3349 H3337 0.950 . S
C3349 C3345 1.393 . S
C3349 C3348 1.391 . S
C3350 H3340 0.950 . S
C3350 C3351 1.386 . S
C3350 C3352 1.391 . S
C3351 C3350 1.386 . S
C3351 C3355 1.393 . S
C3352 H3341 0.950 . S
C3352 C3350 1.391 . S
C3352 C3353 1.400 . S
C3353 C3347 1.491 . S
C3353 C3352 1.400 . S
C3353 C3354 1.398 . S
C3354 H3342 0.950 . S
C3354 C3353 1.398 . S
C3354 C3355 1.391 . S
C3355 H3343 0.950 . S
C3355 C3351 1.393 . S
C3355 C3354 1.391 . S
H3356 C3364 0.950 . S
H3357 C3369 0.950 . S
H3358 C3366 0.950 . S
H3359 C3368 0.950 . S
H3360 C3370 0.950 . S
H3361 C3372 0.950 . S
H3362 C3374 0.950 . S
H3363 C3375 0.950 . S
C3364 H3356 0.950 . S
C3364 C3365 1.386 . S
C3364 C3366 1.391 . S
C3365 C3364 1.386 . S
C3365 C3369 1.393 . S
C3366 H3358 0.950 . S
C3366 C3364 1.391 . S
C3366 C3367 1.400 . S
C3367 C3366 1.400 . S
C3367 C3368 1.398 . S
C3367 C3373 1.491 . S
C3368 H3359 0.950 . S
C3368 C3367 1.398 . S
C3368 C3369 1.391 . S
C3369 H3357 0.950 . S
C3369 C3365 1.393 . S
C3369 C3368 1.391 . S
C3370 H3360 0.950 . S
C3370 C3371 1.386 . S
C3370 C3372 1.391 . S
C3371 C3370 1.386 . S
C3371 C3375 1.393 . S
C3372 H3361 0.950 . S
C3372 C3370 1.391 . S
C3372 C3373 1.400 . S
C3373 C3367 1.491 . S
C3373 C3372 1.400 . S
C3373 C3374 1.398 . S
C3374 H3362 0.950 . S
C3374 C3373 1.398 . S
C3374 C3375 1.391 . S
C3375 H3363 0.950 . S
C3375 C3371 1.393 . S
C3375 C3374 1.391 . S
H3376 C3384 0.950 . S
H3377 C3389 0.950 . S
H3378 C3386 0.950 . S
H3379 C3388 0.950 . S
H3380 C3390 0.950 . S
H3381 C3392 0.950 . S
H3382 C3394 0.950 . S
H3383 C3395 0.950 . S
C3384 H3376 0.950 . S
C3384 C3385 1.386 . S
C3384 C3386 1.391 . S
C3385 C3384 1.386 . S
C3385 C3389 1.393 . S
C3386 H3378 0.950 . S
C3386 C3384 1.391 . S
C3386 C3387 1.400 . S
C3387 C3386 1.400 . S
C3387 C3388 1.398 . S
C3387 C3393 1.491 . S
C3388 H3379 0.950 . S
C3388 C3387 1.398 . S
C3388 C3389 1.391 . S
C3389 H3377 0.950 . S
C3389 C3385 1.393 . S
C3389 C3388 1.391 . S
C3390 H3380 0.950 . S
C3390 C3391 1.386 . S
C3390 C3392 1.391 . S
C3391 C3390 1.386 . S
C3391 C3395 1.393 . S
C3392 H3381 0.950 . S
C3392 C3390 1.391 . S
C3392 C3393 1.400 . S
C3393 C3387 1.491 . S
C3393 C3392 1.400 . S
C3393 C3394 1.398 . S
C3394 H3382 0.950 . S
C3394 C3393 1.398 . S
C3394 C3395 1.391 . S
C3395 H3383 0.950 . S
C3395 C3391 1.393 . S
C3395 C3394 1.391 . S
H3396 C3404 0.950 . S
H3397 C3409 0.950 . S
H3398 C3406 0.950 . S
H3399 C3408 0.950 . S
H3400 C3410 0.950 . S
H3401 C3412 0.950 . S
H3402 C3414 0.950 . S
H3403 C3415 0.950 . S
C3404 H3396 0.950 . S
C3404 C3405 1.386 . S
C3404 C3406 1.391 . S
C3405 C3404 1.386 . S
C3405 C3409 1.393 . S
C3406 H3398 0.950 . S
C3406 C3404 1.391 . S
C3406 C3407 1.400 . S
C3407 C3406 1.400 . S
C3407 C3408 1.398 . S
C3407 C3413 1.491 . S
C3408 H3399 0.950 . S
C3408 C3407 1.398 . S
C3408 C3409 1.391 . S
C3409 H3397 0.950 . S
C3409 C3405 1.393 . S
C3409 C3408 1.391 . S
C3410 H3400 0.950 . S
C3410 C3411 1.386 . S
C3410 C3412 1.391 . S
C3411 C3410 1.386 . S
C3411 C3415 1.393 . S
C3412 H3401 0.950 . S
C3412 C3410 1.391 . S
C3412 C3413 1.400 . S
C3413 C3407 1.491 . S
C3413 C3412 1.400 . S
C3413 C3414 1.398 . S
C3414 H3402 0.950 . S
C3414 C3413 1.398 . S
C3414 C3415 1.391 . S
C3415 H3403 0.950 . S
C3415 C3411 1.393 . S
C3415 C3414 1.391 . S
H3416 C3424 0.950 . S
H3417 C3429 0.950 . S
H3418 C3426 0.950 . S
H3419 C3428 0.950 . S
H3420 C3430 0.950 . S
H3421 C3432 0.950 . S
H3422 C3434 0.950 . S
H3423 C3435 0.950 . S
C3424 H3416 0.950 . S
C3424 C3425 1.386 . S
C3424 C3426 1.391 . S
C3425 C3424 1.386 . S
C3425 C3429 1.393 . S
C3426 H3418 0.950 . S
C3426 C3424 1.391 . S
C3426 C3427 1.400 . S
C3427 C3426 1.400 . S
C3427 C3428 1.398 . S
C3427 C3433 1.491 . S
C3428 H3419 0.950 . S
C3428 C3427 1.398 . S
C3428 C3429 1.391 . S
C3429 H3417 0.950 . S
C3429 C3425 1.393 . S
C3429 C3428 1.391 . S
C3430 H3420 0.950 . S
C3430 C3431 1.386 . S
C3430 C3432 1.391 . S
C3431 C3430 1.386 . S
C3431 C3435 1.393 . S
C3432 H3421 0.950 . S
C3432 C3430 1.391 . S
C3432 C3433 1.400 . S
C3433 C3427 1.491 . S
C3433 C3432 1.400 . S
C3433 C3434 1.398 . S
C3434 H3422 0.950 . S
C3434 C3433 1.398 . S
C3434 C3435 1.391 . S
C3435 H3423 0.950 . S
C3435 C3431 1.393 . S
C3435 C3434 1.391 . S
H3436 C3444 0.950 . S
H3437 C3449 0.950 . S
H3438 C3446 0.950 . S
H3439 C3448 0.950 . S
H3440 C3450 0.950 . S
H3441 C3452 0.950 . S
H3442 C3454 0.950 . S
H3443 C3455 0.950 . S
C3444 H3436 0.950 . S
C3444 C3445 1.386 . S
C3444 C3446 1.391 . S
C3445 C3444 1.386 . S
C3445 C3449 1.393 . S
C3446 H3438 0.950 . S
C3446 C3444 1.391 . S
C3446 C3447 1.400 . S
C3447 C3446 1.400 . S
C3447 C3448 1.398 . S
C3447 C3453 1.491 . S
C3448 H3439 0.950 . S
C3448 C3447 1.398 . S
C3448 C3449 1.391 . S
C3449 H3437 0.950 . S
C3449 C3445 1.393 . S
C3449 C3448 1.391 . S
C3450 H3440 0.950 . S
C3450 C3451 1.386 . S
C3450 C3452 1.391 . S
C3451 C3450 1.386 . S
C3451 C3455 1.393 . S
C3452 H3441 0.950 . S
C3452 C3450 1.391 . S
C3452 C3453 1.400 . S
C3453 C3447 1.491 . S
C3453 C3452 1.400 . S
C3453 C3454 1.398 . S
C3454 H3442 0.950 . S
C3454 C3453 1.398 . S
C3454 C3455 1.391 . S
C3455 H3443 0.950 . S
C3455 C3451 1.393 . S
C3455 C3454 1.391 . S
H3456 C3464 0.950 . S
H3457 C3469 0.950 . S
H3458 C3466 0.950 . S
H3459 C3468 0.950 . S
H3460 C3470 0.950 . S
H3461 C3472 0.950 . S
H3462 C3474 0.950 . S
H3463 C3475 0.950 . S
C3464 H3456 0.950 . S
C3464 C3465 1.386 . S
C3464 C3466 1.391 . S
C3465 C3464 1.386 . S
C3465 C3469 1.393 . S
C3466 H3458 0.950 . S
C3466 C3464 1.391 . S
C3466 C3467 1.400 . S
C3467 C3466 1.400 . S
C3467 C3468 1.398 . S
C3467 C3473 1.491 . S
C3468 H3459 0.950 . S
C3468 C3467 1.398 . S
C3468 C3469 1.391 . S
C3469 H3457 0.950 . S
C3469 C3465 1.393 . S
C3469 C3468 1.391 . S
C3470 H3460 0.950 . S
C3470 C3471 1.386 . S
C3470 C3472 1.391 . S
C3471 C3470 1.386 . S
C3471 C3475 1.393 . S
C3472 H3461 0.950 . S
C3472 C3470 1.391 . S
C3472 C3473 1.400 . S
C3473 C3467 1.491 . S
C3473 C3472 1.400 . S
C3473 C3474 1.398 . S
C3474 H3462 0.950 . S
C3474 C3473 1.398 . S
C3474 C3475 1.391 . S
C3475 H3463 0.950 . S
C3475 C3471 1.393 . S
C3475 C3474 1.391 . S
H3476 C3484 0.950 . S
H3477 C3489 0.950 . S
H3478 C3486 0.950 . S
H3479 C3488 0.950 . S
H3480 C3490 0.950 . S
H3481 C3492 0.950 . S
H3482 C3494 0.950 . S
H3483 C3495 0.950 . S
C3484 H3476 0.950 . S
C3484 C3485 1.386 . S
C3484 C3486 1.391 . S
C3485 C3484 1.386 . S
C3485 C3489 1.393 . S
C3486 H3478 0.950 . S
C3486 C3484 1.391 . S
C3486 C3487 1.400 . S
C3487 C3486 1.400 . S
C3487 C3488 1.398 . S
C3487 C3493 1.491 . S
C3488 H3479 0.950 . S
C3488 C3487 1.398 . S
C3488 C3489 1.391 . S
C3489 H3477 0.950 . S
C3489 C3485 1.393 . S
C3489 C3488 1.391 . S
C3490 H3480 0.950 . S
C3490 C3491 1.386 . S
C3490 C3492 1.391 . S
C3491 C3490 1.386 . S
C3491 C3495 1.393 . S
C3492 H3481 0.950 . S
C3492 C3490 1.391 . S
C3492 C3493 1.400 . S
C3493 C3487 1.491 . S
C3493 C3492 1.400 . S
C3493 C3494 1.398 . S
C3494 H3482 0.950 . S
C3494 C3493 1.398 . S
C3494 C3495 1.391 . S
C3495 H3483 0.950 . S
C3495 C3491 1.393 . S
C3495 C3494 1.391 . S
H3496 C3504 0.950 . S
H3497 C3509 0.950 . S
H3498 C3506 0.950 . S
H3499 C3508 0.950 . S
H3500 C3510 0.950 . S
H3501 C3512 0.950 . S
H3502 C3514 0.950 . S
H3503 C3515 0.950 . S
C3504 H3496 0.950 . S
C3504 C3505 1.386 . S
C3504 C3506 1.391 . S
C3505 C3504 1.386 . S
C3505 C3509 1.393 . S
C3506 H3498 0.950 . S
C3506 C3504 1.391 . S
C3506 C3507 1.400 . S
C3507 C3506 1.400 . S
C3507 C3508 1.398 . S
C3507 C3513 1.491 . S
C3508 H3499 0.950 . S
C3508 C3507 1.398 . S
C3508 C3509 1.391 . S
C3509 H3497 0.950 . S
C3509 C3505 1.393 . S
C3509 C3508 1.391 . S
C3510 H3500 0.950 . S
C3510 C3511 1.386 . S
C3510 C3512 1.391 . S
C3511 C3510 1.386 . S
C3511 C3515 1.393 . S
C3512 H3501 0.950 . S
C3512 C3510 1.391 . S
C3512 C3513 1.400 . S
C3513 C3507 1.491 . S
C3513 C3512 1.400 . S
C3513 C3514 1.398 . S
C3514 H3502 0.950 . S
C3514 C3513 1.398 . S
C3514 C3515 1.391 . S
C3515 H3503 0.950 . S
C3515 C3511 1.393 . S
C3515 C3514 1.391 . S
H3516 C3524 0.950 . S
H3517 C3529 0.950 . S
H3518 C3526 0.950 . S
H3519 C3528 0.950 . S
H3520 C3530 0.950 . S
H3521 C3532 0.950 . S
H3522 C3534 0.950 . S
H3523 C3535 0.950 . S
C3524 H3516 0.950 . S
C3524 C3525 1.386 . S
C3524 C3526 1.391 . S
C3525 C3524 1.386 . S
C3525 C3529 1.393 . S
C3526 H3518 0.950 . S
C3526 C3524 1.391 . S
C3526 C3527 1.400 . S
C3527 C3526 1.400 . S
C3527 C3528 1.398 . S
C3527 C3533 1.491 . S
C3528 H3519 0.950 . S
C3528 C3527 1.398 . S
C3528 C3529 1.391 . S
C3529 H3517 0.950 . S
C3529 C3525 1.393 . S
C3529 C3528 1.391 . S
C3530 H3520 0.950 . S
C3530 C3531 1.386 . S
C3530 C3532 1.391 . S
C3531 C3530 1.386 . S
C3531 C3535 1.393 . S
C3532 H3521 0.950 . S
C3532 C3530 1.391 . S
C3532 C3533 1.400 . S
C3533 C3527 1.491 . S
C3533 C3532 1.400 . S
C3533 C3534 1.398 . S
C3534 H3522 0.950 . S
C3534 C3533 1.398 . S
C3534 C3535 1.391 . S
C3535 H3523 0.950 . S
C3535 C3531 1.393 . S
C3535 C3534 1.391 . S
H3536 C3544 0.950 . S
H3537 C3549 0.950 . S
H3538 C3546 0.950 . S
H3539 C3548 0.950 . S
H3540 C3550 0.950 . S
H3541 C3552 0.950 . S
H3542 C3554 0.950 . S
H3543 C3555 0.950 . S
C3544 H3536 0.950 . S
C3544 C3545 1.386 . S
C3544 C3546 1.391 . S
C3545 C3544 1.386 . S
C3545 C3549 1.393 . S
C3546 H3538 0.950 . S
C3546 C3544 1.391 . S
C3546 C3547 1.400 . S
C3547 C3546 1.400 . S
C3547 C3548 1.398 . S
C3547 C3553 1.491 . S
C3548 H3539 0.950 . S
C3548 C3547 1.398 . S
C3548 C3549 1.391 . S
C3549 H3537 0.950 . S
C3549 C3545 1.393 . S
C3549 C3548 1.391 . S
C3550 H3540 0.950 . S
C3550 C3551 1.386 . S
C3550 C3552 1.391 . S
C3551 C3550 1.386 . S
C3551 C3555 1.393 . S
C3552 H3541 0.950 . S
C3552 C3550 1.391 . S
C3552 C3553 1.400 . S
C3553 C3547 1.491 . S
C3553 C3552 1.400 . S
C3553 C3554 1.398 . S
C3554 H3542 0.950 . S
C3554 C3553 1.398 . S
C3554 C3555 1.391 . S
C3555 H3543 0.950 . S
C3555 C3551 1.393 . S
C3555 C3554 1.391 . S
H3556 C3564 0.950 . S
H3557 C3569 0.950 . S
H3558 C3566 0.950 . S
H3559 C3568 0.950 . S
H3560 C3570 0.950 . S
H3561 C3572 0.950 . S
H3562 C3574 0.950 . S
H3563 C3575 0.950 . S
C3564 H3556 0.950 . S
C3564 C3565 1.386 . S
C3564 C3566 1.391 . S
C3565 C3564 1.386 . S
C3565 C3569 1.393 . S
C3566 H3558 0.950 . S
C3566 C3564 1.391 . S
C3566 C3567 1.400 . S
C3567 C3566 1.400 . S
C3567 C3568 1.398 . S
C3567 C3573 1.491 . S
C3568 H3559 0.950 . S
C3568 C3567 1.398 . S
C3568 C3569 1.391 . S
C3569 H3557 0.950 . S
C3569 C3565 1.393 . S
C3569 C3568 1.391 . S
C3570 H3560 0.950 . S
C3570 C3571 1.386 . S
C3570 C3572 1.391 . S
C3571 C3570 1.386 . S
C3571 C3575 1.393 . S
C3572 H3561 0.950 . S
C3572 C3570 1.391 . S
C3572 C3573 1.400 . S
C3573 C3567 1.491 . S
C3573 C3572 1.400 . S
C3573 C3574 1.398 . S
C3574 H3562 0.950 . S
C3574 C3573 1.398 . S
C3574 C3575 1.391 . S
C3575 H3563 0.950 . S
C3575 C3571 1.393 . S
C3575 C3574 1.391 . S
H3576 C3584 0.950 . S
H3577 C3589 0.950 . S
H3578 C3586 0.950 . S
H3579 C3588 0.950 . S
H3580 C3590 0.950 . S
H3581 C3592 0.950 . S
H3582 C3594 0.950 . S
H3583 C3595 0.950 . S
C3584 H3576 0.950 . S
C3584 C3585 1.386 . S
C3584 C3586 1.391 . S
C3585 C3584 1.386 . S
C3585 C3589 1.393 . S
C3586 H3578 0.950 . S
C3586 C3584 1.391 . S
C3586 C3587 1.400 . S
C3587 C3586 1.400 . S
C3587 C3588 1.398 . S
C3587 C3593 1.491 . S
C3588 H3579 0.950 . S
C3588 C3587 1.398 . S
C3588 C3589 1.391 . S
C3589 H3577 0.950 . S
C3589 C3585 1.393 . S
C3589 C3588 1.391 . S
C3590 H3580 0.950 . S
C3590 C3591 1.386 . S
C3590 C3592 1.391 . S
C3591 C3590 1.386 . S
C3591 C3595 1.393 . S
C3592 H3581 0.950 . S
C3592 C3590 1.391 . S
C3592 C3593 1.400 . S
C3593 C3587 1.491 . S
C3593 C3592 1.400 . S
C3593 C3594 1.398 . S
C3594 H3582 0.950 . S
C3594 C3593 1.398 . S
C3594 C3595 1.391 . S
C3595 H3583 0.950 . S
C3595 C3591 1.393 . S
C3595 C3594 1.391 . S
H3596 C3604 0.950 . S
H3597 C3609 0.950 . S
H3598 C3606 0.950 . S
H3599 C3608 0.950 . S
H3600 C3610 0.950 . S
H3601 C3612 0.950 . S
H3602 C3614 0.950 . S
H3603 C3615 0.950 . S
C3604 H3596 0.950 . S
C3604 C3605 1.386 . S
C3604 C3606 1.391 . S
C3605 C3604 1.386 . S
C3605 C3609 1.393 . S
C3606 H3598 0.950 . S
C3606 C3604 1.391 . S
C3606 C3607 1.400 . S
C3607 C3606 1.400 . S
C3607 C3608 1.398 . S
C3607 C3613 1.491 . S
C3608 H3599 0.950 . S
C3608 C3607 1.398 . S
C3608 C3609 1.391 . S
C3609 H3597 0.950 . S
C3609 C3605 1.393 . S
C3609 C3608 1.391 . S
C3610 H3600 0.950 . S
C3610 C3611 1.386 . S
C3610 C3612 1.391 . S
C3611 C3610 1.386 . S
C3611 C3615 1.393 . S
C3612 H3601 0.950 . S
C3612 C3610 1.391 . S
C3612 C3613 1.400 . S
C3613 C3607 1.491 . S
C3613 C3612 1.400 . S
C3613 C3614 1.398 . S
C3614 H3602 0.950 . S
C3614 C3613 1.398 . S
C3614 C3615 1.391 . S
C3615 H3603 0.950 . S
C3615 C3611 1.393 . S
C3615 C3614 1.391 . S
H3616 C3624 0.950 . S
H3617 C3629 0.950 . S
H3618 C3626 0.950 . S
H3619 C3628 0.950 . S
H3620 C3630 0.950 . S
H3621 C3632 0.950 . S
H3622 C3634 0.950 . S
H3623 C3635 0.950 . S
C3624 H3616 0.950 . S
C3624 C3625 1.386 . S
C3624 C3626 1.391 . S
C3625 C3624 1.386 . S
C3625 C3629 1.393 . S
C3626 H3618 0.950 . S
C3626 C3624 1.391 . S
C3626 C3627 1.400 . S
C3627 C3626 1.400 . S
C3627 C3628 1.398 . S
C3627 C3633 1.491 . S
C3628 H3619 0.950 . S
C3628 C3627 1.398 . S
C3628 C3629 1.391 . S
C3629 H3617 0.950 . S
C3629 C3625 1.393 . S
C3629 C3628 1.391 . S
C3630 H3620 0.950 . S
C3630 C3631 1.386 . S
C3630 C3632 1.391 . S
C3631 C3630 1.386 . S
C3631 C3635 1.393 . S
C3632 H3621 0.950 . S
C3632 C3630 1.391 . S
C3632 C3633 1.400 . S
C3633 C3627 1.491 . S
C3633 C3632 1.400 . S
C3633 C3634 1.398 . S
C3634 H3622 0.950 . S
C3634 C3633 1.398 . S
C3634 C3635 1.391 . S
C3635 H3623 0.950 . S
C3635 C3631 1.393 . S
C3635 C3634 1.391 . S
H3636 C3644 0.950 . S
H3637 C3649 0.950 . S
H3638 C3646 0.950 . S
H3639 C3648 0.950 . S
H3640 C3650 0.950 . S
H3641 C3652 0.950 . S
H3642 C3654 0.950 . S
H3643 C3655 0.950 . S
C3644 H3636 0.950 . S
C3644 C3645 1.386 . S
C3644 C3646 1.391 . S
C3645 C3644 1.386 . S
C3645 C3649 1.393 . S
C3646 H3638 0.950 . S
C3646 C3644 1.391 . S
C3646 C3647 1.400 . S
C3647 C3646 1.400 . S
C3647 C3648 1.398 . S
C3647 C3653 1.491 . S
C3648 H3639 0.950 . S
C3648 C3647 1.398 . S
C3648 C3649 1.391 . S
C3649 H3637 0.950 . S
C3649 C3645 1.393 . S
C3649 C3648 1.391 . S
C3650 H3640 0.950 . S
C3650 C3651 1.386 . S
C3650 C3652 1.391 . S
C3651 C3650 1.386 . S
C3651 C3655 1.393 . S
C3652 H3641 0.950 . S
C3652 C3650 1.391 . S
C3652 C3653 1.400 . S
C3653 C3647 1.491 . S
C3653 C3652 1.400 . S
C3653 C3654 1.398 . S
C3654 H3642 0.950 . S
C3654 C3653 1.398 . S
C3654 C3655 1.391 . S
C3655 H3643 0.950 . S
C3655 C3651 1.393 . S
C3655 C3654 1.391 . S
H3656 C3664 0.950 . S
H3657 C3669 0.950 . S
H3658 C3666 0.950 . S
H3659 C3668 0.950 . S
H3660 C3670 0.950 . S
H3661 C3672 0.950 . S
H3662 C3674 0.950 . S
H3663 C3675 0.950 . S
C3664 H3656 0.950 . S
C3664 C3665 1.386 . S
C3664 C3666 1.391 . S
C3665 C3664 1.386 . S
C3665 C3669 1.393 . S
C3666 H3658 0.950 . S
C3666 C3664 1.391 . S
C3666 C3667 1.400 . S
C3667 C3666 1.400 . S
C3667 C3668 1.398 . S
C3667 C3673 1.491 . S
C3668 H3659 0.950 . S
C3668 C3667 1.398 . S
C3668 C3669 1.391 . S
C3669 H3657 0.950 . S
C3669 C3665 1.393 . S
C3669 C3668 1.391 . S
C3670 H3660 0.950 . S
C3670 C3671 1.386 . S
C3670 C3672 1.391 . S
C3671 C3670 1.386 . S
C3671 C3675 1.393 . S
C3672 H3661 0.950 . S
C3672 C3670 1.391 . S
C3672 C3673 1.400 . S
C3673 C3667 1.491 . S
C3673 C3672 1.400 . S
C3673 C3674 1.398 . S
C3674 H3662 0.950 . S
C3674 C3673 1.398 . S
C3674 C3675 1.391 . S
C3675 H3663 0.950 . S
C3675 C3671 1.393 . S
C3675 C3674 1.391 . S
H3676 C3684 0.950 . S
H3677 C3689 0.950 . S
H3678 C3686 0.950 . S
H3679 C3688 0.950 . S
H3680 C3690 0.950 . S
H3681 C3692 0.950 . S
H3682 C3694 0.950 . S
H3683 C3695 0.950 . S
C3684 H3676 0.950 . S
C3684 C3685 1.386 . S
C3684 C3686 1.391 . S
C3685 C3684 1.386 . S
C3685 C3689 1.393 . S
C3686 H3678 0.950 . S
C3686 C3684 1.391 . S
C3686 C3687 1.400 . S
C3687 C3686 1.400 . S
C3687 C3688 1.398 . S
C3687 C3693 1.491 . S
C3688 H3679 0.950 . S
C3688 C3687 1.398 . S
C3688 C3689 1.391 . S
C3689 H3677 0.950 . S
C3689 C3685 1.393 . S
C3689 C3688 1.391 . S
C3690 H3680 0.950 . S
C3690 C3691 1.386 . S
C3690 C3692 1.391 . S
C3691 C3690 1.386 . S
C3691 C3695 1.393 . S
C3692 H3681 0.950 . S
C3692 C3690 1.391 . S
C3692 C3693 1.400 . S
C3693 C3687 1.491 . S
C3693 C3692 1.400 . S
C3693 C3694 1.398 . S
C3694 H3682 0.950 . S
C3694 C3693 1.398 . S
C3694 C3695 1.391 . S
C3695 H3683 0.950 . S
C3695 C3691 1.393 . S
C3695 C3694 1.391 . S
H3696 C3704 0.950 . S
H3697 C3709 0.950 . S
H3698 C3706 0.950 . S
H3699 C3708 0.950 . S
H3700 C3710 0.950 . S
H3701 C3712 0.950 . S
H3702 C3714 0.950 . S
H3703 C3715 0.950 . S
C3704 H3696 0.950 . S
C3704 C3705 1.386 . S
C3704 C3706 1.391 . S
C3705 C3704 1.386 . S
C3705 C3709 1.393 . S
C3706 H3698 0.950 . S
C3706 C3704 1.391 . S
C3706 C3707 1.400 . S
C3707 C3706 1.400 . S
C3707 C3708 1.398 . S
C3707 C3713 1.491 . S
C3708 H3699 0.950 . S
C3708 C3707 1.398 . S
C3708 C3709 1.391 . S
C3709 H3697 0.950 . S
C3709 C3705 1.393 . S
C3709 C3708 1.391 . S
C3710 H3700 0.950 . S
C3710 C3711 1.386 . S
C3710 C3712 1.391 . S
C3711 C3710 1.386 . S
C3711 C3715 1.393 . S
C3712 H3701 0.950 . S
C3712 C3710 1.391 . S
C3712 C3713 1.400 . S
C3713 C3707 1.491 . S
C3713 C3712 1.400 . S
C3713 C3714 1.398 . S
C3714 H3702 0.950 . S
C3714 C3713 1.398 . S
C3714 C3715 1.391 . S
C3715 H3703 0.950 . S
C3715 C3711 1.393 . S
C3715 C3714 1.391 . S
H3716 C3724 0.950 . S
H3717 C3729 0.950 . S
H3718 C3726 0.950 . S
H3719 C3728 0.950 . S
H3720 C3730 0.950 . S
H3721 C3732 0.950 . S
H3722 C3734 0.950 . S
H3723 C3735 0.950 . S
C3724 H3716 0.950 . S
C3724 C3725 1.386 . S
C3724 C3726 1.391 . S
C3725 C3724 1.386 . S
C3725 C3729 1.393 . S
C3726 H3718 0.950 . S
C3726 C3724 1.391 . S
C3726 C3727 1.400 . S
C3727 C3726 1.400 . S
C3727 C3728 1.398 . S
C3727 C3733 1.491 . S
C3728 H3719 0.950 . S
C3728 C3727 1.398 . S
C3728 C3729 1.391 . S
C3729 H3717 0.950 . S
C3729 C3725 1.393 . S
C3729 C3728 1.391 . S
C3730 H3720 0.950 . S
C3730 C3731 1.386 . S
C3730 C3732 1.391 . S
C3731 C3730 1.386 . S
C3731 C3735 1.393 . S
C3732 H3721 0.950 . S
C3732 C3730 1.391 . S
C3732 C3733 1.400 . S
C3733 C3727 1.491 . S
C3733 C3732 1.400 . S
C3733 C3734 1.398 . S
C3734 H3722 0.950 . S
C3734 C3733 1.398 . S
C3734 C3735 1.391 . S
C3735 H3723 0.950 . S
C3735 C3731 1.393 . S
C3735 C3734 1.391 . S
H3736 C3744 0.950 . S
H3737 C3749 0.950 . S
H3738 C3746 0.950 . S
H3739 C3748 0.950 . S
H3740 C3750 0.950 . S
H3741 C3752 0.950 . S
H3742 C3754 0.950 . S
H3743 C3755 0.950 . S
C3744 H3736 0.950 . S
C3744 C3745 1.386 . S
C3744 C3746 1.391 . S
C3745 C3744 1.386 . S
C3745 C3749 1.393 . S
C3746 H3738 0.950 . S
C3746 C3744 1.391 . S
C3746 C3747 1.400 . S
C3747 C3746 1.400 . S
C3747 C3748 1.398 . S
C3747 C3753 1.491 . S
C3748 H3739 0.950 . S
C3748 C3747 1.398 . S
C3748 C3749 1.391 . S
C3749 H3737 0.950 . S
C3749 C3745 1.393 . S
C3749 C3748 1.391 . S
C3750 H3740 0.950 . S
C3750 C3751 1.386 . S
C3750 C3752 1.391 . S
C3751 C3750 1.386 . S
C3751 C3755 1.393 . S
C3752 H3741 0.950 . S
C3752 C3750 1.391 . S
C3752 C3753 1.400 . S
C3753 C3747 1.491 . S
C3753 C3752 1.400 . S
C3753 C3754 1.398 . S
C3754 H3742 0.950 . S
C3754 C3753 1.398 . S
C3754 C3755 1.391 . S
C3755 H3743 0.950 . S
C3755 C3751 1.393 . S
C3755 C3754 1.391 . S
H3756 C3764 0.950 . S
H3757 C3769 0.950 . S
H3758 C3766 0.950 . S
H3759 C3768 0.950 . S
H3760 C3770 0.950 . S
H3761 C3772 0.950 . S
H3762 C3774 0.950 . S
H3763 C3775 0.950 . S
C3764 H3756 0.950 . S
C3764 C3765 1.386 . S
C3764 C3766 1.391 . S
C3765 C3764 1.386 . S
C3765 C3769 1.393 . S
C3766 H3758 0.950 . S
C3766 C3764 1.391 . S
C3766 C3767 1.400 . S
C3767 C3766 1.400 . S
C3767 C3768 1.398 . S
C3767 C3773 1.491 . S
C3768 H3759 0.950 . S
C3768 C3767 1.398 . S
C3768 C3769 1.391 . S
C3769 H3757 0.950 . S
C3769 C3765 1.393 . S
C3769 C3768 1.391 . S
C3770 H3760 0.950 . S
C3770 C3771 1.386 . S
C3770 C3772 1.391 . S
C3771 C3770 1.386 . S
C3771 C3775 1.393 . S
C3772 H3761 0.950 . S
C3772 C3770 1.391 . S
C3772 C3773 1.400 . S
C3773 C3767 1.491 . S
C3773 C3772 1.400 . S
C3773 C3774 1.398 . S
C3774 H3762 0.950 . S
C3774 C3773 1.398 . S
C3774 C3775 1.391 . S
C3775 H3763 0.950 . S
C3775 C3771 1.393 . S
C3775 C3774 1.391 . S
H3776 C3784 0.950 . S
H3777 C3789 0.950 . S
H3778 C3786 0.950 . S
H3779 C3788 0.950 . S
H3780 C3790 0.950 . S
H3781 C3792 0.950 . S
H3782 C3794 0.950 . S
H3783 C3795 0.950 . S
C3784 H3776 0.950 . S
C3784 C3785 1.386 . S
C3784 C3786 1.391 . S
C3785 C3784 1.386 . S
C3785 C3789 1.393 . S
C3786 H3778 0.950 . S
C3786 C3784 1.391 . S
C3786 C3787 1.400 . S
C3787 C3786 1.400 . S
C3787 C3788 1.398 . S
C3787 C3793 1.491 . S
C3788 H3779 0.950 . S
C3788 C3787 1.398 . S
C3788 C3789 1.391 . S
C3789 H3777 0.950 . S
C3789 C3785 1.393 . S
C3789 C3788 1.391 . S
C3790 H3780 0.950 . S
C3790 C3791 1.386 . S
C3790 C3792 1.391 . S
C3791 C3790 1.386 . S
C3791 C3795 1.393 . S
C3792 H3781 0.950 . S
C3792 C3790 1.391 . S
C3792 C3793 1.400 . S
C3793 C3787 1.491 . S
C3793 C3792 1.400 . S
C3793 C3794 1.398 . S
C3794 H3782 0.950 . S
C3794 C3793 1.398 . S
C3794 C3795 1.391 . S
C3795 H3783 0.950 . S
C3795 C3791 1.393 . S
C3795 C3794 1.391 . S
H3796 C3804 0.950 . S
H3797 C3809 0.950 . S
H3798 C3806 0.950 . S
H3799 C3808 0.950 . S
H3800 C3810 0.950 . S
H3801 C3812 0.950 . S
H3802 C3814 0.950 . S
H3803 C3815 0.950 . S
C3804 H3796 0.950 . S
C3804 C3805 1.386 . S
C3804 C3806 1.391 . S
C3805 C3804 1.386 . S
C3805 C3809 1.393 . S
C3806 H3798 0.950 . S
C3806 C3804 1.391 . S
C3806 C3807 1.400 . S
C3807 C3806 1.400 . S
C3807 C3808 1.398 . S
C3807 C3813 1.491 . S
C3808 H3799 0.950 . S
C3808 C3807 1.398 . S
C3808 C3809 1.391 . S
C3809 H3797 0.950 . S
C3809 C3805 1.393 . S
C3809 C3808 1.391 . S
C3810 H3800 0.950 . S
C3810 C3811 1.386 . S
C3810 C3812 1.391 . S
C3811 C3810 1.386 . S
C3811 C3815 1.393 . S
C3812 H3801 0.950 . S
C3812 C3810 1.391 . S
C3812 C3813 1.400 . S
C3813 C3807 1.491 . S
C3813 C3812 1.400 . S
C3813 C3814 1.398 . S
C3814 H3802 0.950 . S
C3814 C3813 1.398 . S
C3814 C3815 1.391 . S
C3815 H3803 0.950 . S
C3815 C3811 1.393 . S
C3815 C3814 1.391 . S
H3816 C3824 0.950 . S
H3817 C3829 0.950 . S
H3818 C3826 0.950 . S
H3819 C3828 0.950 . S
H3820 C3830 0.950 . S
H3821 C3832 0.950 . S
H3822 C3834 0.950 . S
H3823 C3835 0.950 . S
C3824 H3816 0.950 . S
C3824 C3825 1.386 . S
C3824 C3826 1.391 . S
C3825 C3824 1.386 . S
C3825 C3829 1.393 . S
C3826 H3818 0.950 . S
C3826 C3824 1.391 . S
C3826 C3827 1.400 . S
C3827 C3826 1.400 . S
C3827 C3828 1.398 . S
C3827 C3833 1.491 . S
C3828 H3819 0.950 . S
C3828 C3827 1.398 . S
C3828 C3829 1.391 . S
C3829 H3817 0.950 . S
C3829 C3825 1.393 . S
C3829 C3828 1.391 . S
C3830 H3820 0.950 . S
C3830 C3831 1.386 . S
C3830 C3832 1.391 . S
C3831 C3830 1.386 . S
C3831 C3835 1.393 . S
C3832 H3821 0.950 . S
C3832 C3830 1.391 . S
C3832 C3833 1.400 . S
C3833 C3827 1.491 . S
C3833 C3832 1.400 . S
C3833 C3834 1.398 . S
C3834 H3822 0.950 . S
C3834 C3833 1.398 . S
C3834 C3835 1.391 . S
C3835 H3823 0.950 . S
C3835 C3831 1.393 . S
C3835 C3834 1.391 . S
H3836 C3844 0.950 . S
H3837 C3849 0.950 . S
H3838 C3846 0.950 . S
H3839 C3848 0.950 . S
H3840 C3850 0.950 . S
H3841 C3852 0.950 . S
H3842 C3854 0.950 . S
H3843 C3855 0.950 . S
C3844 H3836 0.950 . S
C3844 C3845 1.386 . S
C3844 C3846 1.391 . S
C3845 C3844 1.386 . S
C3845 C3849 1.393 . S
C3846 H3838 0.950 . S
C3846 C3844 1.391 . S
C3846 C3847 1.400 . S
C3847 C3846 1.400 . S
C3847 C3848 1.398 . S
C3847 C3853 1.491 . S
C3848 H3839 0.950 . S
C3848 C3847 1.398 . S
C3848 C3849 1.391 . S
C3849 H3837 0.950 . S
C3849 C3845 1.393 . S
C3849 C3848 1.391 . S
C3850 H3840 0.950 . S
C3850 C3851 1.386 . S
C3850 C3852 1.391 . S
C3851 C3850 1.386 . S
C3851 C3855 1.393 . S
C3852 H3841 0.950 . S
C3852 C3850 1.391 . S
C3852 C3853 1.400 . S
C3853 C3847 1.491 . S
C3853 C3852 1.400 . S
C3853 C3854 1.398 . S
C3854 H3842 0.950 . S
C3854 C3853 1.398 . S
C3854 C3855 1.391 . S
C3855 H3843 0.950 . S
C3855 C3851 1.393 . S
C3855 C3854 1.391 . S
H3856 C3864 0.950 . S
H3857 C3869 0.950 . S
H3858 C3866 0.950 . S
H3859 C3868 0.950 . S
H3860 C3870 0.950 . S
H3861 C3872 0.950 . S
H3862 C3874 0.950 . S
H3863 C3875 0.950 . S
C3864 H3856 0.950 . S
C3864 C3865 1.386 . S
C3864 C3866 1.391 . S
C3865 C3864 1.386 . S
C3865 C3869 1.393 . S
C3866 H3858 0.950 . S
C3866 C3864 1.391 . S
C3866 C3867 1.400 . S
C3867 C3866 1.400 . S
C3867 C3868 1.398 . S
C3867 C3873 1.491 . S
C3868 H3859 0.950 . S
C3868 C3867 1.398 . S
C3868 C3869 1.391 . S
C3869 H3857 0.950 . S
C3869 C3865 1.393 . S
C3869 C3868 1.391 . S
C3870 H3860 0.950 . S
C3870 C3871 1.386 . S
C3870 C3872 1.391 . S
C3871 C3870 1.386 . S
C3871 C3875 1.393 . S
C3872 H3861 0.950 . S
C3872 C3870 1.391 . S
C3872 C3873 1.400 . S
C3873 C3867 1.491 . S
C3873 C3872 1.400 . S
C3873 C3874 1.398 . S
C3874 H3862 0.950 . S
C3874 C3873 1.398 . S
C3874 C3875 1.391 . S
C3875 H3863 0.950 . S
C3875 C3871 1.393 . S
C3875 C3874 1.391 . S
H3876 C3884 0.950 . S
H3877 C3889 0.950 . S
H3878 C3886 0.950 . S
H3879 C3888 0.950 . S
H3880 C3890 0.950 . S
H3881 C3892 0.950 . S
H3882 C3894 0.950 . S
H3883 C3895 0.950 . S
C3884 H3876 0.950 . S
C3884 C3885 1.386 . S
C3884 C3886 1.391 . S
C3885 C3884 1.386 . S
C3885 C3889 1.393 . S
C3886 H3878 0.950 . S
C3886 C3884 1.391 . S
C3886 C3887 1.400 . S
C3887 C3886 1.400 . S
C3887 C3888 1.398 . S
C3887 C3893 1.491 . S
C3888 H3879 0.950 . S
C3888 C3887 1.398 . S
C3888 C3889 1.391 . S
C3889 H3877 0.950 . S
C3889 C3885 1.393 . S
C3889 C3888 1.391 . S
C3890 H3880 0.950 . S
C3890 C3891 1.386 . S
C3890 C3892 1.391 . S
C3891 C3890 1.386 . S
C3891 C3895 1.393 . S
C3892 H3881 0.950 . S
C3892 C3890 1.391 . S
C3892 C3893 1.400 . S
C3893 C3887 1.491 . S
C3893 C3892 1.400 . S
C3893 C3894 1.398 . S
C3894 H3882 0.950 . S
C3894 C3893 1.398 . S
C3894 C3895 1.391 . S
C3895 H3883 0.950 . S
C3895 C3891 1.393 . S
C3895 C3894 1.391 . S
H3896 C3904 0.950 . S
H3897 C3909 0.950 . S
H3898 C3906 0.950 . S
H3899 C3908 0.950 . S
H3900 C3910 0.950 . S
H3901 C3912 0.950 . S
H3902 C3914 0.950 . S
H3903 C3915 0.950 . S
C3904 H3896 0.950 . S
C3904 C3905 1.386 . S
C3904 C3906 1.391 . S
C3905 C3904 1.386 . S
C3905 C3909 1.393 . S
C3906 H3898 0.950 . S
C3906 C3904 1.391 . S
C3906 C3907 1.400 . S
C3907 C3906 1.400 . S
C3907 C3908 1.398 . S
C3907 C3913 1.491 . S
C3908 H3899 0.950 . S
C3908 C3907 1.398 . S
C3908 C3909 1.391 . S
C3909 H3897 0.950 . S
C3909 C3905 1.393 . S
C3909 C3908 1.391 . S
C3910 H3900 0.950 . S
C3910 C3911 1.386 . S
C3910 C3912 1.391 . S
C3911 C3910 1.386 . S
C3911 C3915 1.393 . S
C3912 H3901 0.950 . S
C3912 C3910 1.391 . S
C3912 C3913 1.400 . S
C3913 C3907 1.491 . S
C3913 C3912 1.400 . S
C3913 C3914 1.398 . S
C3914 H3902 0.950 . S
C3914 C3913 1.398 . S
C3914 C3915 1.391 . S
C3915 H3903 0.950 . S
C3915 C3911 1.393 . S
C3915 C3914 1.391 . S
H3916 C3924 0.950 . S
H3917 C3929 0.950 . S
H3918 C3926 0.950 . S
H3919 C3928 0.950 . S
H3920 C3930 0.950 . S
H3921 C3932 0.950 . S
H3922 C3934 0.950 . S
H3923 C3935 0.950 . S
C3924 H3916 0.950 . S
C3924 C3925 1.386 . S
C3924 C3926 1.391 . S
C3925 C3924 1.386 . S
C3925 C3929 1.393 . S
C3926 H3918 0.950 . S
C3926 C3924 1.391 . S
C3926 C3927 1.400 . S
C3927 C3926 1.400 . S
C3927 C3928 1.398 . S
C3927 C3933 1.491 . S
C3928 H3919 0.950 . S
C3928 C3927 1.398 . S
C3928 C3929 1.391 . S
C3929 H3917 0.950 . S
C3929 C3925 1.393 . S
C3929 C3928 1.391 . S
C3930 H3920 0.950 . S
C3930 C3931 1.386 . S
C3930 C3932 1.391 . S
C3931 C3930 1.386 . S
C3931 C3935 1.393 . S
C3932 H3921 0.950 . S
C3932 C3930 1.391 . S
C3932 C3933 1.400 . S
C3933 C3927 1.491 . S
C3933 C3932 1.400 . S
C3933 C3934 1.398 . S
C3934 H3922 0.950 . S
C3934 C3933 1.398 . S
C3934 C3935 1.391 . S
C3935 H3923 0.950 . S
C3935 C3931 1.393 . S
C3935 C3934 1.391 . S
H3936 C3944 0.950 . S
H3937 C3949 0.950 . S
H3938 C3946 0.950 . S
H3939 C3948 0.950 . S
H3940 C3950 0.950 . S
H3941 C3952 0.950 . S
H3942 C3954 0.950 . S
H3943 C3955 0.950 . S
C3944 H3936 0.950 . S
C3944 C3945 1.386 . S
C3944 C3946 1.391 . S
C3945 C3944 1.386 . S
C3945 C3949 1.393 . S
C3946 H3938 0.950 . S
C3946 C3944 1.391 . S
C3946 C3947 1.400 . S
C3947 C3946 1.400 . S
C3947 C3948 1.398 . S
C3947 C3953 1.491 . S
C3948 H3939 0.950 . S
C3948 C3947 1.398 . S
C3948 C3949 1.391 . S
C3949 H3937 0.950 . S
C3949 C3945 1.393 . S
C3949 C3948 1.391 . S
C3950 H3940 0.950 . S
C3950 C3951 1.386 . S
C3950 C3952 1.391 . S
C3951 C3950 1.386 . S
C3951 C3955 1.393 . S
C3952 H3941 0.950 . S
C3952 C3950 1.391 . S
C3952 C3953 1.400 . S
C3953 C3947 1.491 . S
C3953 C3952 1.400 . S
C3953 C3954 1.398 . S
C3954 H3942 0.950 . S
C3954 C3953 1.398 . S
C3954 C3955 1.391 . S
C3955 H3943 0.950 . S
C3955 C3951 1.393 . S
C3955 C3954 1.391 . S
H3956 C3964 0.950 . S
H3957 C3969 0.950 . S
H3958 C3966 0.950 . S
H3959 C3968 0.950 . S
H3960 C3970 0.950 . S
H3961 C3972 0.950 . S
H3962 C3974 0.950 . S
H3963 C3975 0.950 . S
C3964 H3956 0.950 . S
C3964 C3965 1.386 . S
C3964 C3966 1.391 . S
C3965 C3964 1.386 . S
C3965 C3969 1.393 . S
C3966 H3958 0.950 . S
C3966 C3964 1.391 . S
C3966 C3967 1.400 . S
C3967 C3966 1.400 . S
C3967 C3968 1.398 . S
C3967 C3973 1.491 . S
C3968 H3959 0.950 . S
C3968 C3967 1.398 . S
C3968 C3969 1.391 . S
C3969 H3957 0.950 . S
C3969 C3965 1.393 . S
C3969 C3968 1.391 . S
C3970 H3960 0.950 . S
C3970 C3971 1.386 . S
C3970 C3972 1.391 . S
C3971 C3970 1.386 . S
C3971 C3975 1.393 . S
C3972 H3961 0.950 . S
C3972 C3970 1.391 . S
C3972 C3973 1.400 . S
C3973 C3967 1.491 . S
C3973 C3972 1.400 . S
C3973 C3974 1.398 . S
C3974 H3962 0.950 . S
C3974 C3973 1.398 . S
C3974 C3975 1.391 . S
C3975 H3963 0.950 . S
C3975 C3971 1.393 . S
C3975 C3974 1.391 . S
H3976 C3984 0.950 . S
H3977 C3989 0.950 . S
H3978 C3986 0.950 . S
H3979 C3988 0.950 . S
H3980 C3990 0.950 . S
H3981 C3992 0.950 . S
H3982 C3994 0.950 . S
H3983 C3995 0.950 . S
C3984 H3976 0.950 . S
C3984 C3985 1.386 . S
C3984 C3986 1.391 . S
C3985 C3984 1.386 . S
C3985 C3989 1.393 . S
C3986 H3978 0.950 . S
C3986 C3984 1.391 . S
C3986 C3987 1.400 . S
C3987 C3986 1.400 . S
C3987 C3988 1.398 . S
C3987 C3993 1.491 . S
C3988 H3979 0.950 . S
C3988 C3987 1.398 . S
C3988 C3989 1.391 . S
C3989 H3977 0.950 . S
C3989 C3985 1.393 . S
C3989 C3988 1.391 . S
C3990 H3980 0.950 . S
C3990 C3991 1.386 . S
C3990 C3992 1.391 . S
C3991 C3990 1.386 . S
C3991 C3995 1.393 . S
C3992 H3981 0.950 . S
C3992 C3990 1.391 . S
C3992 C3993 1.400 . S
C3993 C3987 1.491 . S
C3993 C3992 1.400 . S
C3993 C3994 1.398 . S
C3994 H3982 0.950 . S
C3994 C3993 1.398 . S
C3994 C3995 1.391 . S
C3995 H3983 0.950 . S
C3995 C3991 1.393 . S
C3995 C3994 1.391 . S
H3996 C4004 0.950 . S
H3997 C4009 0.950 . S
H3998 C4006 0.950 . S
H3999 C4008 0.950 . S
H4000 C4010 0.950 . S
H4001 C4012 0.950 . S
H4002 C4014 0.950 . S
H4003 C4015 0.950 . S
C4004 H3996 0.950 . S
C4004 C4005 1.386 . S
C4004 C4006 1.391 . S
C4005 C4004 1.386 . S
C4005 C4009 1.393 . S
C4006 H3998 0.950 . S
C4006 C4004 1.391 . S
C4006 C4007 1.400 . S
C4007 C4006 1.400 . S
C4007 C4008 1.398 . S
C4007 C4013 1.491 . S
C4008 H3999 0.950 . S
C4008 C4007 1.398 . S
C4008 C4009 1.391 . S
C4009 H3997 0.950 . S
C4009 C4005 1.393 . S
C4009 C4008 1.391 . S
C4010 H4000 0.950 . S
C4010 C4011 1.386 . S
C4010 C4012 1.391 . S
C4011 C4010 1.386 . S
C4011 C4015 1.393 . S
C4012 H4001 0.950 . S
C4012 C4010 1.391 . S
C4012 C4013 1.400 . S
C4013 C4007 1.491 . S
C4013 C4012 1.400 . S
C4013 C4014 1.398 . S
C4014 H4002 0.950 . S
C4014 C4013 1.398 . S
C4014 C4015 1.391 . S
C4015 H4003 0.950 . S
C4015 C4011 1.393 . S
C4015 C4014 1.391 . S
H4016 C4024 0.950 . S
H4017 C4029 0.950 . S
H4018 C4026 0.950 . S
H4019 C4028 0.950 . S
H4020 C4030 0.950 . S
H4021 C4032 0.950 . S
H4022 C4034 0.950 . S
H4023 C4035 0.950 . S
C4024 H4016 0.950 . S
C4024 C4025 1.386 . S
C4024 C4026 1.391 . S
C4025 C4024 1.386 . S
C4025 C4029 1.393 . S
C4026 H4018 0.950 . S
C4026 C4024 1.391 . S
C4026 C4027 1.400 . S
C4027 C4026 1.400 . S
C4027 C4028 1.398 . S
C4027 C4033 1.491 . S
C4028 H4019 0.950 . S
C4028 C4027 1.398 . S
C4028 C4029 1.391 . S
C4029 H4017 0.950 . S
C4029 C4025 1.393 . S
C4029 C4028 1.391 . S
C4030 H4020 0.950 . S
C4030 C4031 1.386 . S
C4030 C4032 1.391 . S
C4031 C4030 1.386 . S
C4031 C4035 1.393 . S
C4032 H4021 0.950 . S
C4032 C4030 1.391 . S
C4032 C4033 1.400 . S
C4033 C4027 1.491 . S
C4033 C4032 1.400 . S
C4033 C4034 1.398 . S
C4034 H4022 0.950 . S
C4034 C4033 1.398 . S
C4034 C4035 1.391 . S
C4035 H4023 0.950 . S
C4035 C4031 1.393 . S
C4035 C4034 1.391 . S
H4036 C4044 0.950 . S
H4037 C4049 0.950 . S
H4038 C4046 0.950 . S
H4039 C4048 0.950 . S
H4040 C4050 0.950 . S
H4041 C4052 0.950 . S
H4042 C4054 0.950 . S
H4043 C4055 0.950 . S
C4044 H4036 0.950 . S
C4044 C4045 1.386 . S
C4044 C4046 1.391 . S
C4045 C4044 1.386 . S
C4045 C4049 1.393 . S
C4046 H4038 0.950 . S
C4046 C4044 1.391 . S
C4046 C4047 1.400 . S
C4047 C4046 1.400 . S
C4047 C4048 1.398 . S
C4047 C4053 1.491 . S
C4048 H4039 0.950 . S
C4048 C4047 1.398 . S
C4048 C4049 1.391 . S
C4049 H4037 0.950 . S
C4049 C4045 1.393 . S
C4049 C4048 1.391 . S
C4050 H4040 0.950 . S
C4050 C4051 1.386 . S
C4050 C4052 1.391 . S
C4051 C4050 1.386 . S
C4051 C4055 1.393 . S
C4052 H4041 0.950 . S
C4052 C4050 1.391 . S
C4052 C4053 1.400 . S
C4053 C4047 1.491 . S
C4053 C4052 1.400 . S
C4053 C4054 1.398 . S
C4054 H4042 0.950 . S
C4054 C4053 1.398 . S
C4054 C4055 1.391 . S
C4055 H4043 0.950 . S
C4055 C4051 1.393 . S
C4055 C4054 1.391 . S
H4056 C4064 0.950 . S
H4057 C4069 0.950 . S
H4058 C4066 0.950 . S
H4059 C4068 0.950 . S
H4060 C4070 0.950 . S
H4061 C4072 0.950 . S
H4062 C4074 0.950 . S
H4063 C4075 0.950 . S
C4064 H4056 0.950 . S
C4064 C4065 1.386 . S
C4064 C4066 1.391 . S
C4065 C4064 1.386 . S
C4065 C4069 1.393 . S
C4066 H4058 0.950 . S
C4066 C4064 1.391 . S
C4066 C4067 1.400 . S
C4067 C4066 1.400 . S
C4067 C4068 1.398 . S
C4067 C4073 1.491 . S
C4068 H4059 0.950 . S
C4068 C4067 1.398 . S
C4068 C4069 1.391 . S
C4069 H4057 0.950 . S
C4069 C4065 1.393 . S
C4069 C4068 1.391 . S
C4070 H4060 0.950 . S
C4070 C4071 1.386 . S
C4070 C4072 1.391 . S
C4071 C4070 1.386 . S
C4071 C4075 1.393 . S
C4072 H4061 0.950 . S
C4072 C4070 1.391 . S
C4072 C4073 1.400 . S
C4073 C4067 1.491 . S
C4073 C4072 1.400 . S
C4073 C4074 1.398 . S
C4074 H4062 0.950 . S
C4074 C4073 1.398 . S
C4074 C4075 1.391 . S
C4075 H4063 0.950 . S
C4075 C4071 1.393 . S
C4075 C4074 1.391 . S
H4076 C4084 0.950 . S
H4077 C4089 0.950 . S
H4078 C4086 0.950 . S
H4079 C4088 0.950 . S
H4080 C4090 0.950 . S
H4081 C4092 0.950 . S
H4082 C4094 0.950 . S
H4083 C4095 0.950 . S
C4084 H4076 0.950 . S
C4084 C4085 1.386 . S
C4084 C4086 1.391 . S
C4085 C4084 1.386 . S
C4085 C4089 1.393 . S
C4086 H4078 0.950 . S
C4086 C4084 1.391 . S
C4086 C4087 1.400 . S
C4087 C4086 1.400 . S
C4087 C4088 1.398 . S
C4087 C4093 1.491 . S
C4088 H4079 0.950 . S
C4088 C4087 1.398 . S
C4088 C4089 1.391 . S
C4089 H4077 0.950 . S
C4089 C4085 1.393 . S
C4089 C4088 1.391 . S
C4090 H4080 0.950 . S
C4090 C4091 1.386 . S
C4090 C4092 1.391 . S
C4091 C4090 1.386 . S
C4091 C4095 1.393 . S
C4092 H4081 0.950 . S
C4092 C4090 1.391 . S
C4092 C4093 1.400 . S
C4093 C4087 1.491 . S
C4093 C4092 1.400 . S
C4093 C4094 1.398 . S
C4094 H4082 0.950 . S
C4094 C4093 1.398 . S
C4094 C4095 1.391 . S
C4095 H4083 0.950 . S
C4095 C4091 1.393 . S
C4095 C4094 1.391 . S
H4096 C4104 0.950 . S
H4097 C4109 0.950 . S
H4098 C4106 0.950 . S
H4099 C4108 0.950 . S
H4100 C4110 0.950 . S
H4101 C4112 0.950 . S
H4102 C4114 0.950 . S
H4103 C4115 0.950 . S
C4104 H4096 0.950 . S
C4104 C4105 1.386 . S
C4104 C4106 1.391 . S
C4105 C4104 1.386 . S
C4105 C4109 1.393 . S
C4106 H4098 0.950 . S
C4106 C4104 1.391 . S
C4106 C4107 1.400 . S
C4107 C4106 1.400 . S
C4107 C4108 1.398 . S
C4107 C4113 1.491 . S
C4108 H4099 0.950 . S
C4108 C4107 1.398 . S
C4108 C4109 1.391 . S
C4109 H4097 0.950 . S
C4109 C4105 1.393 . S
C4109 C4108 1.391 . S
C4110 H4100 0.950 . S
C4110 C4111 1.386 . S
C4110 C4112 1.391 . S
C4111 C4110 1.386 . S
C4111 C4115 1.393 . S
C4112 H4101 0.950 . S
C4112 C4110 1.391 . S
C4112 C4113 1.400 . S
C4113 C4107 1.491 . S
C4113 C4112 1.400 . S
C4113 C4114 1.398 . S
C4114 H4102 0.950 . S
C4114 C4113 1.398 . S
C4114 C4115 1.391 . S
C4115 H4103 0.950 . S
C4115 C4111 1.393 . S
C4115 C4114 1.391 . S
H4116 C4124 0.950 . S
H4117 C4129 0.950 . S
H4118 C4126 0.950 . S
H4119 C4128 0.950 . S
H4120 C4130 0.950 . S
H4121 C4132 0.950 . S
H4122 C4134 0.950 . S
H4123 C4135 0.950 . S
C4124 H4116 0.950 . S
C4124 C4125 1.386 . S
C4124 C4126 1.391 . S
C4125 C4124 1.386 . S
C4125 C4129 1.393 . S
C4126 H4118 0.950 . S
C4126 C4124 1.391 . S
C4126 C4127 1.400 . S
C4127 C4126 1.400 . S
C4127 C4128 1.398 . S
C4127 C4133 1.491 . S
C4128 H4119 0.950 . S
C4128 C4127 1.398 . S
C4128 C4129 1.391 . S
C4129 H4117 0.950 . S
C4129 C4125 1.393 . S
C4129 C4128 1.391 . S
C4130 H4120 0.950 . S
C4130 C4131 1.386 . S
C4130 C4132 1.391 . S
C4131 C4130 1.386 . S
C4131 C4135 1.393 . S
C4132 H4121 0.950 . S
C4132 C4130 1.391 . S
C4132 C4133 1.400 . S
C4133 C4127 1.491 . S
C4133 C4132 1.400 . S
C4133 C4134 1.398 . S
C4134 H4122 0.950 . S
C4134 C4133 1.398 . S
C4134 C4135 1.391 . S
C4135 H4123 0.950 . S
C4135 C4131 1.393 . S
C4135 C4134 1.391 . S
H4136 C4144 0.950 . S
H4137 C4149 0.950 . S
H4138 C4146 0.950 . S
H4139 C4148 0.950 . S
H4140 C4150 0.950 . S
H4141 C4152 0.950 . S
H4142 C4154 0.950 . S
H4143 C4155 0.950 . S
C4144 H4136 0.950 . S
C4144 C4145 1.386 . S
C4144 C4146 1.391 . S
C4145 C4144 1.386 . S
C4145 C4149 1.393 . S
C4146 H4138 0.950 . S
C4146 C4144 1.391 . S
C4146 C4147 1.400 . S
C4147 C4146 1.400 . S
C4147 C4148 1.398 . S
C4147 C4153 1.491 . S
C4148 H4139 0.950 . S
C4148 C4147 1.398 . S
C4148 C4149 1.391 . S
C4149 H4137 0.950 . S
C4149 C4145 1.393 . S
C4149 C4148 1.391 . S
C4150 H4140 0.950 . S
C4150 C4151 1.386 . S
C4150 C4152 1.391 . S
C4151 C4150 1.386 . S
C4151 C4155 1.393 . S
C4152 H4141 0.950 . S
C4152 C4150 1.391 . S
C4152 C4153 1.400 . S
C4153 C4147 1.491 . S
C4153 C4152 1.400 . S
C4153 C4154 1.398 . S
C4154 H4142 0.950 . S
C4154 C4153 1.398 . S
C4154 C4155 1.391 . S
C4155 H4143 0.950 . S
C4155 C4151 1.393 . S
C4155 C4154 1.391 . S
H4156 C4164 0.950 . S
H4157 C4169 0.950 . S
H4158 C4166 0.950 . S
H4159 C4168 0.950 . S
H4160 C4170 0.950 . S
H4161 C4172 0.950 . S
H4162 C4174 0.950 . S
H4163 C4175 0.950 . S
C4164 H4156 0.950 . S
C4164 C4165 1.386 . S
C4164 C4166 1.391 . S
C4165 C4164 1.386 . S
C4165 C4169 1.393 . S
C4166 H4158 0.950 . S
C4166 C4164 1.391 . S
C4166 C4167 1.400 . S
C4167 C4166 1.400 . S
C4167 C4168 1.398 . S
C4167 C4173 1.491 . S
C4168 H4159 0.950 . S
C4168 C4167 1.398 . S
C4168 C4169 1.391 . S
C4169 H4157 0.950 . S
C4169 C4165 1.393 . S
C4169 C4168 1.391 . S
C4170 H4160 0.950 . S
C4170 C4171 1.386 . S
C4170 C4172 1.391 . S
C4171 C4170 1.386 . S
C4171 C4175 1.393 . S
C4172 H4161 0.950 . S
C4172 C4170 1.391 . S
C4172 C4173 1.400 . S
C4173 C4167 1.491 . S
C4173 C4172 1.400 . S
C4173 C4174 1.398 . S
C4174 H4162 0.950 . S
C4174 C4173 1.398 . S
C4174 C4175 1.391 . S
C4175 H4163 0.950 . S
C4175 C4171 1.393 . S
C4175 C4174 1.391 . S
H4176 C4184 0.950 . S
H4177 C4189 0.950 . S
H4178 C4186 0.950 . S
H4179 C4188 0.950 . S
H4180 C4190 0.950 . S
H4181 C4192 0.950 . S
H4182 C4194 0.950 . S
H4183 C4195 0.950 . S
C4184 H4176 0.950 . S
C4184 C4185 1.386 . S
C4184 C4186 1.391 . S
C4185 C4184 1.386 . S
C4185 C4189 1.393 . S
C4186 H4178 0.950 . S
C4186 C4184 1.391 . S
C4186 C4187 1.400 . S
C4187 C4186 1.400 . S
C4187 C4188 1.398 . S
C4187 C4193 1.491 . S
C4188 H4179 0.950 . S
C4188 C4187 1.398 . S
C4188 C4189 1.391 . S
C4189 H4177 0.950 . S
C4189 C4185 1.393 . S
C4189 C4188 1.391 . S
C4190 H4180 0.950 . S
C4190 C4191 1.386 . S
C4190 C4192 1.391 . S
C4191 C4190 1.386 . S
C4191 C4195 1.393 . S
C4192 H4181 0.950 . S
C4192 C4190 1.391 . S
C4192 C4193 1.400 . S
C4193 C4187 1.491 . S
C4193 C4192 1.400 . S
C4193 C4194 1.398 . S
C4194 H4182 0.950 . S
C4194 C4193 1.398 . S
C4194 C4195 1.391 . S
C4195 H4183 0.950 . S
C4195 C4191 1.393 . S
C4195 C4194 1.391 . S
H4196 C4204 0.950 . S
H4197 C4209 0.950 . S
H4198 C4206 0.950 . S
H4199 C4208 0.950 . S
H4200 C4210 0.950 . S
H4201 C4212 0.950 . S
H4202 C4214 0.950 . S
H4203 C4215 0.950 . S
C4204 H4196 0.950 . S
C4204 C4205 1.386 . S
C4204 C4206 1.391 . S
C4205 C4204 1.386 . S
C4205 C4209 1.393 . S
C4206 H4198 0.950 . S
C4206 C4204 1.391 . S
C4206 C4207 1.400 . S
C4207 C4206 1.400 . S
C4207 C4208 1.398 . S
C4207 C4213 1.491 . S
C4208 H4199 0.950 . S
C4208 C4207 1.398 . S
C4208 C4209 1.391 . S
C4209 H4197 0.950 . S
C4209 C4205 1.393 . S
C4209 C4208 1.391 . S
C4210 H4200 0.950 . S
C4210 C4211 1.386 . S
C4210 C4212 1.391 . S
C4211 C4210 1.386 . S
C4211 C4215 1.393 . S
C4212 H4201 0.950 . S
C4212 C4210 1.391 . S
C4212 C4213 1.400 . S
C4213 C4207 1.491 . S
C4213 C4212 1.400 . S
C4213 C4214 1.398 . S
C4214 H4202 0.950 . S
C4214 C4213 1.398 . S
C4214 C4215 1.391 . S
C4215 H4203 0.950 . S
C4215 C4211 1.393 . S
C4215 C4214 1.391 . S
H4216 C4224 0.950 . S
H4217 C4229 0.950 . S
H4218 C4226 0.950 . S
H4219 C4228 0.950 . S
H4220 C4230 0.950 . S
H4221 C4232 0.950 . S
H4222 C4234 0.950 . S
H4223 C4235 0.950 . S
C4224 H4216 0.950 . S
C4224 C4225 1.386 . S
C4224 C4226 1.391 . S
C4225 C4224 1.386 . S
C4225 C4229 1.393 . S
C4226 H4218 0.950 . S
C4226 C4224 1.391 . S
C4226 C4227 1.400 . S
C4227 C4226 1.400 . S
C4227 C4228 1.398 . S
C4227 C4233 1.491 . S
C4228 H4219 0.950 . S
C4228 C4227 1.398 . S
C4228 C4229 1.391 . S
C4229 H4217 0.950 . S
C4229 C4225 1.393 . S
C4229 C4228 1.391 . S
C4230 H4220 0.950 . S
C4230 C4231 1.386 . S
C4230 C4232 1.391 . S
C4231 C4230 1.386 . S
C4231 C4235 1.393 . S
C4232 H4221 0.950 . S
C4232 C4230 1.391 . S
C4232 C4233 1.400 . S
C4233 C4227 1.491 . S
C4233 C4232 1.400 . S
C4233 C4234 1.398 . S
C4234 H4222 0.950 . S
C4234 C4233 1.398 . S
C4234 C4235 1.391 . S
C4235 H4223 0.950 . S
C4235 C4231 1.393 . S
C4235 C4234 1.391 . S
H4236 C4244 0.950 . S
H4237 C4249 0.950 . S
H4238 C4246 0.950 . S
H4239 C4248 0.950 . S
H4240 C4250 0.950 . S
H4241 C4252 0.950 . S
H4242 C4254 0.950 . S
H4243 C4255 0.950 . S
C4244 H4236 0.950 . S
C4244 C4245 1.386 . S
C4244 C4246 1.391 . S
C4245 C4244 1.386 . S
C4245 C4249 1.393 . S
C4246 H4238 0.950 . S
C4246 C4244 1.391 . S
C4246 C4247 1.400 . S
C4247 C4246 1.400 . S
C4247 C4248 1.398 . S
C4247 C4253 1.491 . S
C4248 H4239 0.950 . S
C4248 C4247 1.398 . S
C4248 C4249 1.391 . S
C4249 H4237 0.950 . S
C4249 C4245 1.393 . S
C4249 C4248 1.391 . S
C4250 H4240 0.950 . S
C4250 C4251 1.386 . S
C4250 C4252 1.391 . S
C4251 C4250 1.386 . S
C4251 C4255 1.393 . S
C4252 H4241 0.950 . S
C4252 C4250 1.391 . S
C4252 C4253 1.400 . S
C4253 C4247 1.491 . S
C4253 C4252 1.400 . S
C4253 C4254 1.398 . S
C4254 H4242 0.950 . S
C4254 C4253 1.398 . S
C4254 C4255 1.391 . S
C4255 H4243 0.950 . S
C4255 C4251 1.393 . S
C4255 C4254 1.391 . S
H4256 C4264 0.950 . S
H4257 C4269 0.950 . S
H4258 C4266 0.950 . S
H4259 C4268 0.950 . S
H4260 C4270 0.950 . S
H4261 C4272 0.950 . S
H4262 C4274 0.950 . S
H4263 C4275 0.950 . S
C4264 H4256 0.950 . S
C4264 C4265 1.386 . S
C4264 C4266 1.391 . S
C4265 C4264 1.386 . S
C4265 C4269 1.393 . S
C4266 H4258 0.950 . S
C4266 C4264 1.391 . S
C4266 C4267 1.400 . S
C4267 C4266 1.400 . S
C4267 C4268 1.398 . S
C4267 C4273 1.491 . S
C4268 H4259 0.950 . S
C4268 C4267 1.398 . S
C4268 C4269 1.391 . S
C4269 H4257 0.950 . S
C4269 C4265 1.393 . S
C4269 C4268 1.391 . S
C4270 H4260 0.950 . S
C4270 C4271 1.386 . S
C4270 C4272 1.391 . S
C4271 C4270 1.386 . S
C4271 C4275 1.393 . S
C4272 H4261 0.950 . S
C4272 C4270 1.391 . S
C4272 C4273 1.400 . S
C4273 C4267 1.491 . S
C4273 C4272 1.400 . S
C4273 C4274 1.398 . S
C4274 H4262 0.950 . S
C4274 C4273 1.398 . S
C4274 C4275 1.391 . S
C4275 H4263 0.950 . S
C4275 C4271 1.393 . S
C4275 C4274 1.391 . S
H4276 C4284 0.950 . S
H4277 C4289 0.950 . S
H4278 C4286 0.950 . S
H4279 C4288 0.950 . S
H4280 C4290 0.950 . S
H4281 C4292 0.950 . S
H4282 C4294 0.950 . S
H4283 C4295 0.950 . S
C4284 H4276 0.950 . S
C4284 C4285 1.386 . S
C4284 C4286 1.391 . S
C4285 C4284 1.386 . S
C4285 C4289 1.393 . S
C4286 H4278 0.950 . S
C4286 C4284 1.391 . S
C4286 C4287 1.400 . S
C4287 C4286 1.400 . S
C4287 C4288 1.398 . S
C4287 C4293 1.491 . S
C4288 H4279 0.950 . S
C4288 C4287 1.398 . S
C4288 C4289 1.391 . S
C4289 H4277 0.950 . S
C4289 C4285 1.393 . S
C4289 C4288 1.391 . S
C4290 H4280 0.950 . S
C4290 C4291 1.386 . S
C4290 C4292 1.391 . S
C4291 C4290 1.386 . S
C4291 C4295 1.393 . S
C4292 H4281 0.950 . S
C4292 C4290 1.391 . S
C4292 C4293 1.400 . S
C4293 C4287 1.491 . S
C4293 C4292 1.400 . S
C4293 C4294 1.398 . S
C4294 H4282 0.950 . S
C4294 C4293 1.398 . S
C4294 C4295 1.391 . S
C4295 H4283 0.950 . S
C4295 C4291 1.393 . S
C4295 C4294 1.391 . S
H4296 C4304 0.950 . S
H4297 C4309 0.950 . S
H4298 C4306 0.950 . S
H4299 C4308 0.950 . S
H4300 C4310 0.950 . S
H4301 C4312 0.950 . S
H4302 C4314 0.950 . S
H4303 C4315 0.950 . S
C4304 H4296 0.950 . S
C4304 C4305 1.386 . S
C4304 C4306 1.391 . S
C4305 C4304 1.386 . S
C4305 C4309 1.393 . S
C4306 H4298 0.950 . S
C4306 C4304 1.391 . S
C4306 C4307 1.400 . S
C4307 C4306 1.400 . S
C4307 C4308 1.398 . S
C4307 C4313 1.491 . S
C4308 H4299 0.950 . S
C4308 C4307 1.398 . S
C4308 C4309 1.391 . S
C4309 H4297 0.950 . S
C4309 C4305 1.393 . S
C4309 C4308 1.391 . S
C4310 H4300 0.950 . S
C4310 C4311 1.386 . S
C4310 C4312 1.391 . S
C4311 C4310 1.386 . S
C4311 C4315 1.393 . S
C4312 H4301 0.950 . S
C4312 C4310 1.391 . S
C4312 C4313 1.400 . S
C4313 C4307 1.491 . S
C4313 C4312 1.400 . S
C4313 C4314 1.398 . S
C4314 H4302 0.950 . S
C4314 C4313 1.398 . S
C4314 C4315 1.391 . S
C4315 H4303 0.950 . S
C4315 C4311 1.393 . S
C4315 C4314 1.391 . S
H4316 C4324 0.950 . S
H4317 C4329 0.950 . S
H4318 C4326 0.950 . S
H4319 C4328 0.950 . S
H4320 C4330 0.950 . S
H4321 C4332 0.950 . S
H4322 C4334 0.950 . S
H4323 C4335 0.950 . S
C4324 H4316 0.950 . S
C4324 C4325 1.386 . S
C4324 C4326 1.391 . S
C4325 C4324 1.386 . S
C4325 C4329 1.393 . S
C4326 H4318 0.950 . S
C4326 C4324 1.391 . S
C4326 C4327 1.400 . S
C4327 C4326 1.400 . S
C4327 C4328 1.398 . S
C4327 C4333 1.491 . S
C4328 H4319 0.950 . S
C4328 C4327 1.398 . S
C4328 C4329 1.391 . S
C4329 H4317 0.950 . S
C4329 C4325 1.393 . S
C4329 C4328 1.391 . S
C4330 H4320 0.950 . S
C4330 C4331 1.386 . S
C4330 C4332 1.391 . S
C4331 C4330 1.386 . S
C4331 C4335 1.393 . S
C4332 H4321 0.950 . S
C4332 C4330 1.391 . S
C4332 C4333 1.400 . S
C4333 C4327 1.491 . S
C4333 C4332 1.400 . S
C4333 C4334 1.398 . S
C4334 H4322 0.950 . S
C4334 C4333 1.398 . S
C4334 C4335 1.391 . S
C4335 H4323 0.950 . S
C4335 C4331 1.393 . S
C4335 C4334 1.391 . S
H4336 C4344 0.950 . S
H4337 C4349 0.950 . S
H4338 C4346 0.950 . S
H4339 C4348 0.950 . S
H4340 C4350 0.950 . S
H4341 C4352 0.950 . S
H4342 C4354 0.950 . S
H4343 C4355 0.950 . S
C4344 H4336 0.950 . S
C4344 C4345 1.386 . S
C4344 C4346 1.391 . S
C4345 C4344 1.386 . S
C4345 C4349 1.393 . S
C4346 H4338 0.950 . S
C4346 C4344 1.391 . S
C4346 C4347 1.400 . S
C4347 C4346 1.400 . S
C4347 C4348 1.398 . S
C4347 C4353 1.491 . S
C4348 H4339 0.950 . S
C4348 C4347 1.398 . S
C4348 C4349 1.391 . S
C4349 H4337 0.950 . S
C4349 C4345 1.393 . S
C4349 C4348 1.391 . S
C4350 H4340 0.950 . S
C4350 C4351 1.386 . S
C4350 C4352 1.391 . S
C4351 C4350 1.386 . S
C4351 C4355 1.393 . S
C4352 H4341 0.950 . S
C4352 C4350 1.391 . S
C4352 C4353 1.400 . S
C4353 C4347 1.491 . S
C4353 C4352 1.400 . S
C4353 C4354 1.398 . S
C4354 H4342 0.950 . S
C4354 C4353 1.398 . S
C4354 C4355 1.391 . S
C4355 H4343 0.950 . S
C4355 C4351 1.393 . S
C4355 C4354 1.391 . S
H4356 C4364 0.950 . S
H4357 C4369 0.950 . S
H4358 C4366 0.950 . S
H4359 C4368 0.950 . S
H4360 C4370 0.950 . S
H4361 C4372 0.950 . S
H4362 C4374 0.950 . S
H4363 C4375 0.950 . S
C4364 H4356 0.950 . S
C4364 C4365 1.386 . S
C4364 C4366 1.391 . S
C4365 C4364 1.386 . S
C4365 C4369 1.393 . S
C4366 H4358 0.950 . S
C4366 C4364 1.391 . S
C4366 C4367 1.400 . S
C4367 C4366 1.400 . S
C4367 C4368 1.398 . S
C4367 C4373 1.491 . S
C4368 H4359 0.950 . S
C4368 C4367 1.398 . S
C4368 C4369 1.391 . S
C4369 H4357 0.950 . S
C4369 C4365 1.393 . S
C4369 C4368 1.391 . S
C4370 H4360 0.950 . S
C4370 C4371 1.386 . S
C4370 C4372 1.391 . S
C4371 C4370 1.386 . S
C4371 C4375 1.393 . S
C4372 H4361 0.950 . S
C4372 C4370 1.391 . S
C4372 C4373 1.400 . S
C4373 C4367 1.491 . S
C4373 C4372 1.400 . S
C4373 C4374 1.398 . S
C4374 H4362 0.950 . S
C4374 C4373 1.398 . S
C4374 C4375 1.391 . S
C4375 H4363 0.950 . S
C4375 C4371 1.393 . S
C4375 C4374 1.391 . S
H4376 C4384 0.950 . S
H4377 C4389 0.950 . S
H4378 C4386 0.950 . S
H4379 C4388 0.950 . S
H4380 C4390 0.950 . S
H4381 C4392 0.950 . S
H4382 C4394 0.950 . S
H4383 C4395 0.950 . S
C4384 H4376 0.950 . S
C4384 C4385 1.386 . S
C4384 C4386 1.391 . S
C4385 C4384 1.386 . S
C4385 C4389 1.393 . S
C4386 H4378 0.950 . S
C4386 C4384 1.391 . S
C4386 C4387 1.400 . S
C4387 C4386 1.400 . S
C4387 C4388 1.398 . S
C4387 C4393 1.491 . S
C4388 H4379 0.950 . S
C4388 C4387 1.398 . S
C4388 C4389 1.391 . S
C4389 H4377 0.950 . S
C4389 C4385 1.393 . S
C4389 C4388 1.391 . S
C4390 H4380 0.950 . S
C4390 C4391 1.386 . S
C4390 C4392 1.391 . S
C4391 C4390 1.386 . S
C4391 C4395 1.393 . S
C4392 H4381 0.950 . S
C4392 C4390 1.391 . S
C4392 C4393 1.400 . S
C4393 C4387 1.491 . S
C4393 C4392 1.400 . S
C4393 C4394 1.398 . S
C4394 H4382 0.950 . S
C4394 C4393 1.398 . S
C4394 C4395 1.391 . S
C4395 H4383 0.950 . S
C4395 C4391 1.393 . S
C4395 C4394 1.391 . S
H4396 C4404 0.950 . S
H4397 C4409 0.950 . S
H4398 C4406 0.950 . S
H4399 C4408 0.950 . S
H4400 C4410 0.950 . S
H4401 C4412 0.950 . S
H4402 C4414 0.950 . S
H4403 C4415 0.950 . S
C4404 H4396 0.950 . S
C4404 C4405 1.386 . S
C4404 C4406 1.391 . S
C4405 C4404 1.386 . S
C4405 C4409 1.393 . S
C4406 H4398 0.950 . S
C4406 C4404 1.391 . S
C4406 C4407 1.400 . S
C4407 C4406 1.400 . S
C4407 C4408 1.398 . S
C4407 C4413 1.491 . S
C4408 H4399 0.950 . S
C4408 C4407 1.398 . S
C4408 C4409 1.391 . S
C4409 H4397 0.950 . S
C4409 C4405 1.393 . S
C4409 C4408 1.391 . S
C4410 H4400 0.950 . S
C4410 C4411 1.386 . S
C4410 C4412 1.391 . S
C4411 C4410 1.386 . S
C4411 C4415 1.393 . S
C4412 H4401 0.950 . S
C4412 C4410 1.391 . S
C4412 C4413 1.400 . S
C4413 C4407 1.491 . S
C4413 C4412 1.400 . S
C4413 C4414 1.398 . S
C4414 H4402 0.950 . S
C4414 C4413 1.398 . S
C4414 C4415 1.391 . S
C4415 H4403 0.950 . S
C4415 C4411 1.393 . S
C4415 C4414 1.391 . S
H4416 C4424 0.950 . S
H4417 C4429 0.950 . S
H4418 C4426 0.950 . S
H4419 C4428 0.950 . S
H4420 C4430 0.950 . S
H4421 C4432 0.950 . S
H4422 C4434 0.950 . S
H4423 C4435 0.950 . S
C4424 H4416 0.950 . S
C4424 C4425 1.386 . S
C4424 C4426 1.391 . S
C4425 C4424 1.386 . S
C4425 C4429 1.393 . S
C4426 H4418 0.950 . S
C4426 C4424 1.391 . S
C4426 C4427 1.400 . S
C4427 C4426 1.400 . S
C4427 C4428 1.398 . S
C4427 C4433 1.491 . S
C4428 H4419 0.950 . S
C4428 C4427 1.398 . S
C4428 C4429 1.391 . S
C4429 H4417 0.950 . S
C4429 C4425 1.393 . S
C4429 C4428 1.391 . S
C4430 H4420 0.950 . S
C4430 C4431 1.386 . S
C4430 C4432 1.391 . S
C4431 C4430 1.386 . S
C4431 C4435 1.393 . S
C4432 H4421 0.950 . S
C4432 C4430 1.391 . S
C4432 C4433 1.400 . S
C4433 C4427 1.491 . S
C4433 C4432 1.400 . S
C4433 C4434 1.398 . S
C4434 H4422 0.950 . S
C4434 C4433 1.398 . S
C4434 C4435 1.391 . S
C4435 H4423 0.950 . S
C4435 C4431 1.393 . S
C4435 C4434 1.391 . S
H4436 C4444 0.950 . S
H4437 C4449 0.950 . S
H4438 C4446 0.950 . S
H4439 C4448 0.950 . S
H4440 C4450 0.950 . S
H4441 C4452 0.950 . S
H4442 C4454 0.950 . S
H4443 C4455 0.950 . S
C4444 H4436 0.950 . S
C4444 C4445 1.386 . S
C4444 C4446 1.391 . S
C4445 C4444 1.386 . S
C4445 C4449 1.393 . S
C4446 H4438 0.950 . S
C4446 C4444 1.391 . S
C4446 C4447 1.400 . S
C4447 C4446 1.400 . S
C4447 C4448 1.398 . S
C4447 C4453 1.491 . S
C4448 H4439 0.950 . S
C4448 C4447 1.398 . S
C4448 C4449 1.391 . S
C4449 H4437 0.950 . S
C4449 C4445 1.393 . S
C4449 C4448 1.391 . S
C4450 H4440 0.950 . S
C4450 C4451 1.386 . S
C4450 C4452 1.391 . S
C4451 C4450 1.386 . S
C4451 C4455 1.393 . S
C4452 H4441 0.950 . S
C4452 C4450 1.391 . S
C4452 C4453 1.400 . S
C4453 C4447 1.491 . S
C4453 C4452 1.400 . S
C4453 C4454 1.398 . S
C4454 H4442 0.950 . S
C4454 C4453 1.398 . S
C4454 C4455 1.391 . S
C4455 H4443 0.950 . S
C4455 C4451 1.393 . S
C4455 C4454 1.391 . S
H4456 C4464 0.950 . S
H4457 C4469 0.950 . S
H4458 C4466 0.950 . S
H4459 C4468 0.950 . S
H4460 C4470 0.950 . S
H4461 C4472 0.950 . S
H4462 C4474 0.950 . S
H4463 C4475 0.950 . S
C4464 H4456 0.950 . S
C4464 C4465 1.386 . S
C4464 C4466 1.391 . S
C4465 C4464 1.386 . S
C4465 C4469 1.393 . S
C4466 H4458 0.950 . S
C4466 C4464 1.391 . S
C4466 C4467 1.400 . S
C4467 C4466 1.400 . S
C4467 C4468 1.398 . S
C4467 C4473 1.491 . S
C4468 H4459 0.950 . S
C4468 C4467 1.398 . S
C4468 C4469 1.391 . S
C4469 H4457 0.950 . S
C4469 C4465 1.393 . S
C4469 C4468 1.391 . S
C4470 H4460 0.950 . S
C4470 C4471 1.386 . S
C4470 C4472 1.391 . S
C4471 C4470 1.386 . S
C4471 C4475 1.393 . S
C4472 H4461 0.950 . S
C4472 C4470 1.391 . S
C4472 C4473 1.400 . S
C4473 C4467 1.491 . S
C4473 C4472 1.400 . S
C4473 C4474 1.398 . S
C4474 H4462 0.950 . S
C4474 C4473 1.398 . S
C4474 C4475 1.391 . S
C4475 H4463 0.950 . S
C4475 C4471 1.393 . S
C4475 C4474 1.391 . S
H4476 C4484 0.950 . S
H4477 C4489 0.950 . S
H4478 C4486 0.950 . S
H4479 C4488 0.950 . S
H4480 C4490 0.950 . S
H4481 C4492 0.950 . S
H4482 C4494 0.950 . S
H4483 C4495 0.950 . S
C4484 H4476 0.950 . S
C4484 C4485 1.386 . S
C4484 C4486 1.391 . S
C4485 C4484 1.386 . S
C4485 C4489 1.393 . S
C4486 H4478 0.950 . S
C4486 C4484 1.391 . S
C4486 C4487 1.400 . S
C4487 C4486 1.400 . S
C4487 C4488 1.398 . S
C4487 C4493 1.491 . S
C4488 H4479 0.950 . S
C4488 C4487 1.398 . S
C4488 C4489 1.391 . S
C4489 H4477 0.950 . S
C4489 C4485 1.393 . S
C4489 C4488 1.391 . S
C4490 H4480 0.950 . S
C4490 C4491 1.386 . S
C4490 C4492 1.391 . S
C4491 C4490 1.386 . S
C4491 C4495 1.393 . S
C4492 H4481 0.950 . S
C4492 C4490 1.391 . S
C4492 C4493 1.400 . S
C4493 C4487 1.491 . S
C4493 C4492 1.400 . S
C4493 C4494 1.398 . S
C4494 H4482 0.950 . S
C4494 C4493 1.398 . S
C4494 C4495 1.391 . S
C4495 H4483 0.950 . S
C4495 C4491 1.393 . S
C4495 C4494 1.391 . S
H4496 C4504 0.950 . S
H4497 C4509 0.950 . S
H4498 C4506 0.950 . S
H4499 C4508 0.950 . S
H4500 C4510 0.950 . S
H4501 C4512 0.950 . S
H4502 C4514 0.950 . S
H4503 C4515 0.950 . S
C4504 H4496 0.950 . S
C4504 C4505 1.386 . S
C4504 C4506 1.391 . S
C4505 C4504 1.386 . S
C4505 C4509 1.393 . S
C4506 H4498 0.950 . S
C4506 C4504 1.391 . S
C4506 C4507 1.400 . S
C4507 C4506 1.400 . S
C4507 C4508 1.398 . S
C4507 C4513 1.491 . S
C4508 H4499 0.950 . S
C4508 C4507 1.398 . S
C4508 C4509 1.391 . S
C4509 H4497 0.950 . S
C4509 C4505 1.393 . S
C4509 C4508 1.391 . S
C4510 H4500 0.950 . S
C4510 C4511 1.386 . S
C4510 C4512 1.391 . S
C4511 C4510 1.386 . S
C4511 C4515 1.393 . S
C4512 H4501 0.950 . S
C4512 C4510 1.391 . S
C4512 C4513 1.400 . S
C4513 C4507 1.491 . S
C4513 C4512 1.400 . S
C4513 C4514 1.398 . S
C4514 H4502 0.950 . S
C4514 C4513 1.398 . S
C4514 C4515 1.391 . S
C4515 H4503 0.950 . S
C4515 C4511 1.393 . S
C4515 C4514 1.391 . S
H4516 C4524 0.950 . S
H4517 C4529 0.950 . S
H4518 C4526 0.950 . S
H4519 C4528 0.950 . S
H4520 C4530 0.950 . S
H4521 C4532 0.950 . S
H4522 C4534 0.950 . S
H4523 C4535 0.950 . S
C4524 H4516 0.950 . S
C4524 C4525 1.386 . S
C4524 C4526 1.391 . S
C4525 C4524 1.386 . S
C4525 C4529 1.393 . S
C4526 H4518 0.950 . S
C4526 C4524 1.391 . S
C4526 C4527 1.400 . S
C4527 C4526 1.400 . S
C4527 C4528 1.398 . S
C4527 C4533 1.491 . S
C4528 H4519 0.950 . S
C4528 C4527 1.398 . S
C4528 C4529 1.391 . S
C4529 H4517 0.950 . S
C4529 C4525 1.393 . S
C4529 C4528 1.391 . S
C4530 H4520 0.950 . S
C4530 C4531 1.386 . S
C4530 C4532 1.391 . S
C4531 C4530 1.386 . S
C4531 C4535 1.393 . S
C4532 H4521 0.950 . S
C4532 C4530 1.391 . S
C4532 C4533 1.400 . S
C4533 C4527 1.491 . S
C4533 C4532 1.400 . S
C4533 C4534 1.398 . S
C4534 H4522 0.950 . S
C4534 C4533 1.398 . S
C4534 C4535 1.391 . S
C4535 H4523 0.950 . S
C4535 C4531 1.393 . S
C4535 C4534 1.391 . S
H4536 C4544 0.950 . S
H4537 C4549 0.950 . S
H4538 C4546 0.950 . S
H4539 C4548 0.950 . S
H4540 C4550 0.950 . S
H4541 C4552 0.950 . S
H4542 C4554 0.950 . S
H4543 C4555 0.950 . S
C4544 H4536 0.950 . S
C4544 C4545 1.386 . S
C4544 C4546 1.391 . S
C4545 C4544 1.386 . S
C4545 C4549 1.393 . S
C4546 H4538 0.950 . S
C4546 C4544 1.391 . S
C4546 C4547 1.400 . S
C4547 C4546 1.400 . S
C4547 C4548 1.398 . S
C4547 C4553 1.491 . S
C4548 H4539 0.950 . S
C4548 C4547 1.398 . S
C4548 C4549 1.391 . S
C4549 H4537 0.950 . S
C4549 C4545 1.393 . S
C4549 C4548 1.391 . S
C4550 H4540 0.950 . S
C4550 C4551 1.386 . S
C4550 C4552 1.391 . S
C4551 C4550 1.386 . S
C4551 C4555 1.393 . S
C4552 H4541 0.950 . S
C4552 C4550 1.391 . S
C4552 C4553 1.400 . S
C4553 C4547 1.491 . S
C4553 C4552 1.400 . S
C4553 C4554 1.398 . S
C4554 H4542 0.950 . S
C4554 C4553 1.398 . S
C4554 C4555 1.391 . S
C4555 H4543 0.950 . S
C4555 C4551 1.393 . S
C4555 C4554 1.391 . S
H4556 C4564 0.950 . S
H4557 C4569 0.950 . S
H4558 C4566 0.950 . S
H4559 C4568 0.950 . S
H4560 C4570 0.950 . S
H4561 C4572 0.950 . S
H4562 C4574 0.950 . S
H4563 C4575 0.950 . S
C4564 H4556 0.950 . S
C4564 C4565 1.386 . S
C4564 C4566 1.391 . S
C4565 C4564 1.386 . S
C4565 C4569 1.393 . S
C4566 H4558 0.950 . S
C4566 C4564 1.391 . S
C4566 C4567 1.400 . S
C4567 C4566 1.400 . S
C4567 C4568 1.398 . S
C4567 C4573 1.491 . S
C4568 H4559 0.950 . S
C4568 C4567 1.398 . S
C4568 C4569 1.391 . S
C4569 H4557 0.950 . S
C4569 C4565 1.393 . S
C4569 C4568 1.391 . S
C4570 H4560 0.950 . S
C4570 C4571 1.386 . S
C4570 C4572 1.391 . S
C4571 C4570 1.386 . S
C4571 C4575 1.393 . S
C4572 H4561 0.950 . S
C4572 C4570 1.391 . S
C4572 C4573 1.400 . S
C4573 C4567 1.491 . S
C4573 C4572 1.400 . S
C4573 C4574 1.398 . S
C4574 H4562 0.950 . S
C4574 C4573 1.398 . S
C4574 C4575 1.391 . S
C4575 H4563 0.950 . S
C4575 C4571 1.393 . S
C4575 C4574 1.391 . S
H4576 C4584 0.950 . S
H4577 C4589 0.950 . S
H4578 C4586 0.950 . S
H4579 C4588 0.950 . S
H4580 C4590 0.950 . S
H4581 C4592 0.950 . S
H4582 C4594 0.950 . S
H4583 C4595 0.950 . S
C4584 H4576 0.950 . S
C4584 C4585 1.386 . S
C4584 C4586 1.391 . S
C4585 C4584 1.386 . S
C4585 C4589 1.393 . S
C4586 H4578 0.950 . S
C4586 C4584 1.391 . S
C4586 C4587 1.400 . S
C4587 C4586 1.400 . S
C4587 C4588 1.398 . S
C4587 C4593 1.491 . S
C4588 H4579 0.950 . S
C4588 C4587 1.398 . S
C4588 C4589 1.391 . S
C4589 H4577 0.950 . S
C4589 C4585 1.393 . S
C4589 C4588 1.391 . S
C4590 H4580 0.950 . S
C4590 C4591 1.386 . S
C4590 C4592 1.391 . S
C4591 C4590 1.386 . S
C4591 C4595 1.393 . S
C4592 H4581 0.950 . S
C4592 C4590 1.391 . S
C4592 C4593 1.400 . S
C4593 C4587 1.491 . S
C4593 C4592 1.400 . S
C4593 C4594 1.398 . S
C4594 H4582 0.950 . S
C4594 C4593 1.398 . S
C4594 C4595 1.391 . S
C4595 H4583 0.950 . S
C4595 C4591 1.393 . S
C4595 C4594 1.391 . S
H4596 C4604 0.950 . S
H4597 C4609 0.950 . S
H4598 C4606 0.950 . S
H4599 C4608 0.950 . S
H4600 C4610 0.950 . S
H4601 C4612 0.950 . S
H4602 C4614 0.950 . S
H4603 C4615 0.950 . S
C4604 H4596 0.950 . S
C4604 C4605 1.386 . S
C4604 C4606 1.391 . S
C4605 C4604 1.386 . S
C4605 C4609 1.393 . S
C4606 H4598 0.950 . S
C4606 C4604 1.391 . S
C4606 C4607 1.400 . S
C4607 C4606 1.400 . S
C4607 C4608 1.398 . S
C4607 C4613 1.491 . S
C4608 H4599 0.950 . S
C4608 C4607 1.398 . S
C4608 C4609 1.391 . S
C4609 H4597 0.950 . S
C4609 C4605 1.393 . S
C4609 C4608 1.391 . S
C4610 H4600 0.950 . S
C4610 C4611 1.386 . S
C4610 C4612 1.391 . S
C4611 C4610 1.386 . S
C4611 C4615 1.393 . S
C4612 H4601 0.950 . S
C4612 C4610 1.391 . S
C4612 C4613 1.400 . S
C4613 C4607 1.491 . S
C4613 C4612 1.400 . S
C4613 C4614 1.398 . S
C4614 H4602 0.950 . S
C4614 C4613 1.398 . S
C4614 C4615 1.391 . S
C4615 H4603 0.950 . S
C4615 C4611 1.393 . S
C4615 C4614 1.391 . S
H4616 C4624 0.950 . S
H4617 C4629 0.950 . S
H4618 C4626 0.950 . S
H4619 C4628 0.950 . S
H4620 C4630 0.950 . S
H4621 C4632 0.950 . S
H4622 C4634 0.950 . S
H4623 C4635 0.950 . S
C4624 H4616 0.950 . S
C4624 C4625 1.386 . S
C4624 C4626 1.391 . S
C4625 C4624 1.386 . S
C4625 C4629 1.393 . S
C4626 H4618 0.950 . S
C4626 C4624 1.391 . S
C4626 C4627 1.400 . S
C4627 C4626 1.400 . S
C4627 C4628 1.398 . S
C4627 C4633 1.491 . S
C4628 H4619 0.950 . S
C4628 C4627 1.398 . S
C4628 C4629 1.391 . S
C4629 H4617 0.950 . S
C4629 C4625 1.393 . S
C4629 C4628 1.391 . S
C4630 H4620 0.950 . S
C4630 C4631 1.386 . S
C4630 C4632 1.391 . S
C4631 C4630 1.386 . S
C4631 C4635 1.393 . S
C4632 H4621 0.950 . S
C4632 C4630 1.391 . S
C4632 C4633 1.400 . S
C4633 C4627 1.491 . S
C4633 C4632 1.400 . S
C4633 C4634 1.398 . S
C4634 H4622 0.950 . S
C4634 C4633 1.398 . S
C4634 C4635 1.391 . S
C4635 H4623 0.950 . S
C4635 C4631 1.393 . S
C4635 C4634 1.391 . S
H4636 C4644 0.950 . S
H4637 C4649 0.950 . S
H4638 C4646 0.950 . S
H4639 C4648 0.950 . S
H4640 C4650 0.950 . S
H4641 C4652 0.950 . S
H4642 C4654 0.950 . S
H4643 C4655 0.950 . S
C4644 H4636 0.950 . S
C4644 C4645 1.386 . S
C4644 C4646 1.391 . S
C4645 C4644 1.386 . S
C4645 C4649 1.393 . S
C4646 H4638 0.950 . S
C4646 C4644 1.391 . S
C4646 C4647 1.400 . S
C4647 C4646 1.400 . S
C4647 C4648 1.398 . S
C4647 C4653 1.491 . S
C4648 H4639 0.950 . S
C4648 C4647 1.398 . S
C4648 C4649 1.391 . S
C4649 H4637 0.950 . S
C4649 C4645 1.393 . S
C4649 C4648 1.391 . S
C4650 H4640 0.950 . S
C4650 C4651 1.386 . S
C4650 C4652 1.391 . S
C4651 C4650 1.386 . S
C4651 C4655 1.393 . S
C4652 H4641 0.950 . S
C4652 C4650 1.391 . S
C4652 C4653 1.400 . S
C4653 C4647 1.491 . S
C4653 C4652 1.400 . S
C4653 C4654 1.398 . S
C4654 H4642 0.950 . S
C4654 C4653 1.398 . S
C4654 C4655 1.391 . S
C4655 H4643 0.950 . S
C4655 C4651 1.393 . S
C4655 C4654 1.391 . S
H4656 C4664 0.950 . S
H4657 C4669 0.950 . S
H4658 C4666 0.950 . S
H4659 C4668 0.950 . S
H4660 C4670 0.950 . S
H4661 C4672 0.950 . S
H4662 C4674 0.950 . S
H4663 C4675 0.950 . S
C4664 H4656 0.950 . S
C4664 C4665 1.386 . S
C4664 C4666 1.391 . S
C4665 C4664 1.386 . S
C4665 C4669 1.393 . S
C4666 H4658 0.950 . S
C4666 C4664 1.391 . S
C4666 C4667 1.400 . S
C4667 C4666 1.400 . S
C4667 C4668 1.398 . S
C4667 C4673 1.491 . S
C4668 H4659 0.950 . S
C4668 C4667 1.398 . S
C4668 C4669 1.391 . S
C4669 H4657 0.950 . S
C4669 C4665 1.393 . S
C4669 C4668 1.391 . S
C4670 H4660 0.950 . S
C4670 C4671 1.386 . S
C4670 C4672 1.391 . S
C4671 C4670 1.386 . S
C4671 C4675 1.393 . S
C4672 H4661 0.950 . S
C4672 C4670 1.391 . S
C4672 C4673 1.400 . S
C4673 C4667 1.491 . S
C4673 C4672 1.400 . S
C4673 C4674 1.398 . S
C4674 H4662 0.950 . S
C4674 C4673 1.398 . S
C4674 C4675 1.391 . S
C4675 H4663 0.950 . S
C4675 C4671 1.393 . S
C4675 C4674 1.391 . S
H4676 C4684 0.950 . S
H4677 C4689 0.950 . S
H4678 C4686 0.950 . S
H4679 C4688 0.950 . S
H4680 C4690 0.950 . S
H4681 C4692 0.950 . S
H4682 C4694 0.950 . S
H4683 C4695 0.950 . S
C4684 H4676 0.950 . S
C4684 C4685 1.386 . S
C4684 C4686 1.391 . S
C4685 C4684 1.386 . S
C4685 C4689 1.393 . S
C4686 H4678 0.950 . S
C4686 C4684 1.391 . S
C4686 C4687 1.400 . S
C4687 C4686 1.400 . S
C4687 C4688 1.398 . S
C4687 C4693 1.491 . S
C4688 H4679 0.950 . S
C4688 C4687 1.398 . S
C4688 C4689 1.391 . S
C4689 H4677 0.950 . S
C4689 C4685 1.393 . S
C4689 C4688 1.391 . S
C4690 H4680 0.950 . S
C4690 C4691 1.386 . S
C4690 C4692 1.391 . S
C4691 C4690 1.386 . S
C4691 C4695 1.393 . S
C4692 H4681 0.950 . S
C4692 C4690 1.391 . S
C4692 C4693 1.400 . S
C4693 C4687 1.491 . S
C4693 C4692 1.400 . S
C4693 C4694 1.398 . S
C4694 H4682 0.950 . S
C4694 C4693 1.398 . S
C4694 C4695 1.391 . S
C4695 H4683 0.950 . S
C4695 C4691 1.393 . S
C4695 C4694 1.391 . S
H4696 C4704 0.950 . S
H4697 C4709 0.950 . S
H4698 C4706 0.950 . S
H4699 C4708 0.950 . S
H4700 C4710 0.950 . S
H4701 C4712 0.950 . S
H4702 C4714 0.950 . S
H4703 C4715 0.950 . S
C4704 H4696 0.950 . S
C4704 C4705 1.386 . S
C4704 C4706 1.391 . S
C4705 C4704 1.386 . S
C4705 C4709 1.393 . S
C4706 H4698 0.950 . S
C4706 C4704 1.391 . S
C4706 C4707 1.400 . S
C4707 C4706 1.400 . S
C4707 C4708 1.398 . S
C4707 C4713 1.491 . S
C4708 H4699 0.950 . S
C4708 C4707 1.398 . S
C4708 C4709 1.391 . S
C4709 H4697 0.950 . S
C4709 C4705 1.393 . S
C4709 C4708 1.391 . S
C4710 H4700 0.950 . S
C4710 C4711 1.386 . S
C4710 C4712 1.391 . S
C4711 C4710 1.386 . S
C4711 C4715 1.393 . S
C4712 H4701 0.950 . S
C4712 C4710 1.391 . S
C4712 C4713 1.400 . S
C4713 C4707 1.491 . S
C4713 C4712 1.400 . S
C4713 C4714 1.398 . S
C4714 H4702 0.950 . S
C4714 C4713 1.398 . S
C4714 C4715 1.391 . S
C4715 H4703 0.950 . S
C4715 C4711 1.393 . S
C4715 C4714 1.391 . S
H4716 C4724 0.950 . S
H4717 C4729 0.950 . S
H4718 C4726 0.950 . S
H4719 C4728 0.950 . S
H4720 C4730 0.950 . S
H4721 C4732 0.950 . S
H4722 C4734 0.950 . S
H4723 C4735 0.950 . S
C4724 H4716 0.950 . S
C4724 C4725 1.386 . S
C4724 C4726 1.391 . S
C4725 C4724 1.386 . S
C4725 C4729 1.393 . S
C4726 H4718 0.950 . S
C4726 C4724 1.391 . S
C4726 C4727 1.400 . S
C4727 C4726 1.400 . S
C4727 C4728 1.398 . S
C4727 C4733 1.491 . S
C4728 H4719 0.950 . S
C4728 C4727 1.398 . S
C4728 C4729 1.391 . S
C4729 H4717 0.950 . S
C4729 C4725 1.393 . S
C4729 C4728 1.391 . S
C4730 H4720 0.950 . S
C4730 C4731 1.386 . S
C4730 C4732 1.391 . S
C4731 C4730 1.386 . S
C4731 C4735 1.393 . S
C4732 H4721 0.950 . S
C4732 C4730 1.391 . S
C4732 C4733 1.400 . S
C4733 C4727 1.491 . S
C4733 C4732 1.400 . S
C4733 C4734 1.398 . S
C4734 H4722 0.950 . S
C4734 C4733 1.398 . S
C4734 C4735 1.391 . S
C4735 H4723 0.950 . S
C4735 C4731 1.393 . S
C4735 C4734 1.391 . S
H4736 C4744 0.950 . S
H4737 C4749 0.950 . S
H4738 C4746 0.950 . S
H4739 C4748 0.950 . S
H4740 C4750 0.950 . S
H4741 C4752 0.950 . S
H4742 C4754 0.950 . S
H4743 C4755 0.950 . S
C4744 H4736 0.950 . S
C4744 C4745 1.386 . S
C4744 C4746 1.391 . S
C4745 C4744 1.386 . S
C4745 C4749 1.393 . S
C4746 H4738 0.950 . S
C4746 C4744 1.391 . S
C4746 C4747 1.400 . S
C4747 C4746 1.400 . S
C4747 C4748 1.398 . S
C4747 C4753 1.491 . S
C4748 H4739 0.950 . S
C4748 C4747 1.398 . S
C4748 C4749 1.391 . S
C4749 H4737 0.950 . S
C4749 C4745 1.393 . S
C4749 C4748 1.391 . S
C4750 H4740 0.950 . S
C4750 C4751 1.386 . S
C4750 C4752 1.391 . S
C4751 C4750 1.386 . S
C4751 C4755 1.393 . S
C4752 H4741 0.950 . S
C4752 C4750 1.391 . S
C4752 C4753 1.400 . S
C4753 C4747 1.491 . S
C4753 C4752 1.400 . S
C4753 C4754 1.398 . S
C4754 H4742 0.950 . S
C4754 C4753 1.398 . S
C4754 C4755 1.391 . S
C4755 H4743 0.950 . S
C4755 C4751 1.393 . S
C4755 C4754 1.391 . S
H4756 C4764 0.950 . S
H4757 C4769 0.950 . S
H4758 C4766 0.950 . S
H4759 C4768 0.950 . S
H4760 C4770 0.950 . S
H4761 C4772 0.950 . S
H4762 C4774 0.950 . S
H4763 C4775 0.950 . S
C4764 H4756 0.950 . S
C4764 C4765 1.386 . S
C4764 C4766 1.391 . S
C4765 C4764 1.386 . S
C4765 C4769 1.393 . S
C4766 H4758 0.950 . S
C4766 C4764 1.391 . S
C4766 C4767 1.400 . S
C4767 C4766 1.400 . S
C4767 C4768 1.398 . S
C4767 C4773 1.491 . S
C4768 H4759 0.950 . S
C4768 C4767 1.398 . S
C4768 C4769 1.391 . S
C4769 H4757 0.950 . S
C4769 C4765 1.393 . S
C4769 C4768 1.391 . S
C4770 H4760 0.950 . S
C4770 C4771 1.386 . S
C4770 C4772 1.391 . S
C4771 C4770 1.386 . S
C4771 C4775 1.393 . S
C4772 H4761 0.950 . S
C4772 C4770 1.391 . S
C4772 C4773 1.400 . S
C4773 C4767 1.491 . S
C4773 C4772 1.400 . S
C4773 C4774 1.398 . S
C4774 H4762 0.950 . S
C4774 C4773 1.398 . S
C4774 C4775 1.391 . S
C4775 H4763 0.950 . S
C4775 C4771 1.393 . S
C4775 C4774 1.391 . S
H4776 C4784 0.950 . S
H4777 C4789 0.950 . S
H4778 C4786 0.950 . S
H4779 C4788 0.950 . S
H4780 C4790 0.950 . S
H4781 C4792 0.950 . S
H4782 C4794 0.950 . S
H4783 C4795 0.950 . S
C4784 H4776 0.950 . S
C4784 C4785 1.386 . S
C4784 C4786 1.391 . S
C4785 C4784 1.386 . S
C4785 C4789 1.393 . S
C4786 H4778 0.950 . S
C4786 C4784 1.391 . S
C4786 C4787 1.400 . S
C4787 C4786 1.400 . S
C4787 C4788 1.398 . S
C4787 C4793 1.491 . S
C4788 H4779 0.950 . S
C4788 C4787 1.398 . S
C4788 C4789 1.391 . S
C4789 H4777 0.950 . S
C4789 C4785 1.393 . S
C4789 C4788 1.391 . S
C4790 H4780 0.950 . S
C4790 C4791 1.386 . S
C4790 C4792 1.391 . S
C4791 C4790 1.386 . S
C4791 C4795 1.393 . S
C4792 H4781 0.950 . S
C4792 C4790 1.391 . S
C4792 C4793 1.400 . S
C4793 C4787 1.491 . S
C4793 C4792 1.400 . S
C4793 C4794 1.398 . S
C4794 H4782 0.950 . S
C4794 C4793 1.398 . S
C4794 C4795 1.391 . S
C4795 H4783 0.950 . S
C4795 C4791 1.393 . S
C4795 C4794 1.391 . S
H4796 C4804 0.950 . S
H4797 C4809 0.950 . S
H4798 C4806 0.950 . S
H4799 C4808 0.950 . S
H4800 C4810 0.950 . S
H4801 C4812 0.950 . S
H4802 C4814 0.950 . S
H4803 C4815 0.950 . S
C4804 H4796 0.950 . S
C4804 C4805 1.386 . S
C4804 C4806 1.391 . S
C4805 C4804 1.386 . S
C4805 C4809 1.393 . S
C4806 H4798 0.950 . S
C4806 C4804 1.391 . S
C4806 C4807 1.400 . S
C4807 C4806 1.400 . S
C4807 C4808 1.398 . S
C4807 C4813 1.491 . S
C4808 H4799 0.950 . S
C4808 C4807 1.398 . S
C4808 C4809 1.391 . S
C4809 H4797 0.950 . S
C4809 C4805 1.393 . S
C4809 C4808 1.391 . S
C4810 H4800 0.950 . S
C4810 C4811 1.386 . S
C4810 C4812 1.391 . S
C4811 C4810 1.386 . S
C4811 C4815 1.393 . S
C4812 H4801 0.950 . S
C4812 C4810 1.391 . S
C4812 C4813 1.400 . S
C4813 C4807 1.491 . S
C4813 C4812 1.400 . S
C4813 C4814 1.398 . S
C4814 H4802 0.950 . S
C4814 C4813 1.398 . S
C4814 C4815 1.391 . S
C4815 H4803 0.950 . S
C4815 C4811 1.393 . S
C4815 C4814 1.391 . S
H4816 C4824 0.950 . S
H4817 C4829 0.950 . S
H4818 C4826 0.950 . S
H4819 C4828 0.950 . S
H4820 C4830 0.950 . S
H4821 C4832 0.950 . S
H4822 C4834 0.950 . S
H4823 C4835 0.950 . S
C4824 H4816 0.950 . S
C4824 C4825 1.386 . S
C4824 C4826 1.391 . S
C4825 C4824 1.386 . S
C4825 C4829 1.393 . S
C4826 H4818 0.950 . S
C4826 C4824 1.391 . S
C4826 C4827 1.400 . S
C4827 C4826 1.400 . S
C4827 C4828 1.398 . S
C4827 C4833 1.491 . S
C4828 H4819 0.950 . S
C4828 C4827 1.398 . S
C4828 C4829 1.391 . S
C4829 H4817 0.950 . S
C4829 C4825 1.393 . S
C4829 C4828 1.391 . S
C4830 H4820 0.950 . S
C4830 C4831 1.386 . S
C4830 C4832 1.391 . S
C4831 C4830 1.386 . S
C4831 C4835 1.393 . S
C4832 H4821 0.950 . S
C4832 C4830 1.391 . S
C4832 C4833 1.400 . S
C4833 C4827 1.491 . S
C4833 C4832 1.400 . S
C4833 C4834 1.398 . S
C4834 H4822 0.950 . S
C4834 C4833 1.398 . S
C4834 C4835 1.391 . S
C4835 H4823 0.950 . S
C4835 C4831 1.393 . S
C4835 C4834 1.391 . S
H4836 C4844 0.950 . S
H4837 C4849 0.950 . S
H4838 C4846 0.950 . S
H4839 C4848 0.950 . S
H4840 C4850 0.950 . S
H4841 C4852 0.950 . S
H4842 C4854 0.950 . S
H4843 C4855 0.950 . S
C4844 H4836 0.950 . S
C4844 C4845 1.386 . S
C4844 C4846 1.391 . S
C4845 C4844 1.386 . S
C4845 C4849 1.393 . S
C4846 H4838 0.950 . S
C4846 C4844 1.391 . S
C4846 C4847 1.400 . S
C4847 C4846 1.400 . S
C4847 C4848 1.398 . S
C4847 C4853 1.491 . S
C4848 H4839 0.950 . S
C4848 C4847 1.398 . S
C4848 C4849 1.391 . S
C4849 H4837 0.950 . S
C4849 C4845 1.393 . S
C4849 C4848 1.391 . S
C4850 H4840 0.950 . S
C4850 C4851 1.386 . S
C4850 C4852 1.391 . S
C4851 C4850 1.386 . S
C4851 C4855 1.393 . S
C4852 H4841 0.950 . S
C4852 C4850 1.391 . S
C4852 C4853 1.400 . S
C4853 C4847 1.491 . S
C4853 C4852 1.400 . S
C4853 C4854 1.398 . S
C4854 H4842 0.950 . S
C4854 C4853 1.398 . S
C4854 C4855 1.391 . S
C4855 H4843 0.950 . S
C4855 C4851 1.393 . S
C4855 C4854 1.391 . S
H4856 C4864 0.950 . S
H4857 C4869 0.950 . S
H4858 C4866 0.950 . S
H4859 C4868 0.950 . S
H4860 C4870 0.950 . S
H4861 C4872 0.950 . S
H4862 C4874 0.950 . S
H4863 C4875 0.950 . S
C4864 H4856 0.950 . S
C4864 C4865 1.386 . S
C4864 C4866 1.391 . S
C4865 C4864 1.386 . S
C4865 C4869 1.393 . S
C4866 H4858 0.950 . S
C4866 C4864 1.391 . S
C4866 C4867 1.400 . S
C4867 C4866 1.400 . S
C4867 C4868 1.398 . S
C4867 C4873 1.491 . S
C4868 H4859 0.950 . S
C4868 C4867 1.398 . S
C4868 C4869 1.391 . S
C4869 H4857 0.950 . S
C4869 C4865 1.393 . S
C4869 C4868 1.391 . S
C4870 H4860 0.950 . S
C4870 C4871 1.386 . S
C4870 C4872 1.391 . S
C4871 C4870 1.386 . S
C4871 C4875 1.393 . S
C4872 H4861 0.950 . S
C4872 C4870 1.391 . S
C4872 C4873 1.400 . S
C4873 C4867 1.491 . S
C4873 C4872 1.400 . S
C4873 C4874 1.398 . S
C4874 H4862 0.950 . S
C4874 C4873 1.398 . S
C4874 C4875 1.391 . S
C4875 H4863 0.950 . S
C4875 C4871 1.393 . S
C4875 C4874 1.391 . S
H4876 C4884 0.950 . S
H4877 C4889 0.950 . S
H4878 C4886 0.950 . S
H4879 C4888 0.950 . S
H4880 C4890 0.950 . S
H4881 C4892 0.950 . S
H4882 C4894 0.950 . S
H4883 C4895 0.950 . S
C4884 H4876 0.950 . S
C4884 C4885 1.386 . S
C4884 C4886 1.391 . S
C4885 C4884 1.386 . S
C4885 C4889 1.393 . S
C4886 H4878 0.950 . S
C4886 C4884 1.391 . S
C4886 C4887 1.400 . S
C4887 C4886 1.400 . S
C4887 C4888 1.398 . S
C4887 C4893 1.491 . S
C4888 H4879 0.950 . S
C4888 C4887 1.398 . S
C4888 C4889 1.391 . S
C4889 H4877 0.950 . S
C4889 C4885 1.393 . S
C4889 C4888 1.391 . S
C4890 H4880 0.950 . S
C4890 C4891 1.386 . S
C4890 C4892 1.391 . S
C4891 C4890 1.386 . S
C4891 C4895 1.393 . S
C4892 H4881 0.950 . S
C4892 C4890 1.391 . S
C4892 C4893 1.400 . S
C4893 C4887 1.491 . S
C4893 C4892 1.400 . S
C4893 C4894 1.398 . S
C4894 H4882 0.950 . S
C4894 C4893 1.398 . S
C4894 C4895 1.391 . S
C4895 H4883 0.950 . S
C4895 C4891 1.393 . S
C4895 C4894 1.391 . S
H4896 C4904 0.950 . S
H4897 C4909 0.950 . S
H4898 C4906 0.950 . S
H4899 C4908 0.950 . S
H4900 C4910 0.950 . S
H4901 C4912 0.950 . S
H4902 C4914 0.950 . S
H4903 C4915 0.950 . S
C4904 H4896 0.950 . S
C4904 C4905 1.386 . S
C4904 C4906 1.391 . S
C4905 C4904 1.386 . S
C4905 C4909 1.393 . S
C4906 H4898 0.950 . S
C4906 C4904 1.391 . S
C4906 C4907 1.400 . S
C4907 C4906 1.400 . S
C4907 C4908 1.398 . S
C4907 C4913 1.491 . S
C4908 H4899 0.950 . S
C4908 C4907 1.398 . S
C4908 C4909 1.391 . S
C4909 H4897 0.950 . S
C4909 C4905 1.393 . S
C4909 C4908 1.391 . S
C4910 H4900 0.950 . S
C4910 C4911 1.386 . S
C4910 C4912 1.391 . S
C4911 C4910 1.386 . S
C4911 C4915 1.393 . S
C4912 H4901 0.950 . S
C4912 C4910 1.391 . S
C4912 C4913 1.400 . S
C4913 C4907 1.491 . S
C4913 C4912 1.400 . S
C4913 C4914 1.398 . S
C4914 H4902 0.950 . S
C4914 C4913 1.398 . S
C4914 C4915 1.391 . S
C4915 H4903 0.950 . S
C4915 C4911 1.393 . S
C4915 C4914 1.391 . S
H4916 C4924 0.950 . S
H4917 C4929 0.950 . S
H4918 C4926 0.950 . S
H4919 C4928 0.950 . S
H4920 C4930 0.950 . S
H4921 C4932 0.950 . S
H4922 C4934 0.950 . S
H4923 C4935 0.950 . S
C4924 H4916 0.950 . S
C4924 C4925 1.386 . S
C4924 C4926 1.391 . S
C4925 C4924 1.386 . S
C4925 C4929 1.393 . S
C4926 H4918 0.950 . S
C4926 C4924 1.391 . S
C4926 C4927 1.400 . S
C4927 C4926 1.400 . S
C4927 C4928 1.398 . S
C4927 C4933 1.491 . S
C4928 H4919 0.950 . S
C4928 C4927 1.398 . S
C4928 C4929 1.391 . S
C4929 H4917 0.950 . S
C4929 C4925 1.393 . S
C4929 C4928 1.391 . S
C4930 H4920 0.950 . S
C4930 C4931 1.386 . S
C4930 C4932 1.391 . S
C4931 C4930 1.386 . S
C4931 C4935 1.393 . S
C4932 H4921 0.950 . S
C4932 C4930 1.391 . S
C4932 C4933 1.400 . S
C4933 C4927 1.491 . S
C4933 C4932 1.400 . S
C4933 C4934 1.398 . S
C4934 H4922 0.950 . S
C4934 C4933 1.398 . S
C4934 C4935 1.391 . S
C4935 H4923 0.950 . S
C4935 C4931 1.393 . S
C4935 C4934 1.391 . S
H4936 C4944 0.957 . S
H4937 C4949 0.950 . S
H4938 C4946 0.950 . S
H4939 C4948 0.950 . S
H4940 C4950 0.950 . S
H4941 C4952 0.950 . S
H4942 C4954 0.950 . S
H4943 C4955 0.950 . S
C4944 H4936 0.957 . S
C4944 C4945 1.386 . S
C4944 C4946 1.391 . S
C4945 C4944 1.386 . S
C4945 C4949 1.393 . S
C4946 H4938 0.950 . S
C4946 C4944 1.391 . S
C4946 C4947 1.400 . S
C4947 C4946 1.400 . S
C4947 C4948 1.398 . S
C4947 C4953 1.491 . S
C4948 H4939 0.950 . S
C4948 C4947 1.398 . S
C4948 C4949 1.391 . S
C4949 H4937 0.950 . S
C4949 C4945 1.393 . S
C4949 C4948 1.391 . S
C4950 H4940 0.950 . S
C4950 C4951 1.386 . S
C4950 C4952 1.391 . S
C4951 C4950 1.386 . S
C4951 C4955 1.393 . S
C4952 H4941 0.950 . S
C4952 C4950 1.391 . S
C4952 C4953 1.400 . S
C4953 C4947 1.491 . S
C4953 C4952 1.400 . S
C4953 C4954 1.398 . S
C4954 H4942 0.950 . S
C4954 C4953 1.398 . S
C4954 C4955 1.391 . S
C4955 H4943 0.950 . S
C4955 C4951 1.393 . S
C4955 C4954 1.391 . S
H4956 C4964 0.950 . S
H4957 C4969 0.950 . S
H4958 C4966 0.950 . S
H4959 C4968 0.950 . S
H4960 C4970 0.950 . S
H4961 C4972 0.950 . S
H4962 C4974 0.950 . S
H4963 C4975 0.950 . S
C4964 H4956 0.950 . S
C4964 C4965 1.386 . S
C4964 C4966 1.391 . S
C4965 C4964 1.386 . S
C4965 C4969 1.393 . S
C4966 H4958 0.950 . S
C4966 C4964 1.391 . S
C4966 C4967 1.400 . S
C4967 C4966 1.400 . S
C4967 C4968 1.398 . S
C4967 C4973 1.491 . S
C4968 H4959 0.950 . S
C4968 C4967 1.398 . S
C4968 C4969 1.391 . S
C4969 H4957 0.950 . S
C4969 C4965 1.393 . S
C4969 C4968 1.391 . S
C4970 H4960 0.950 . S
C4970 C4971 1.386 . S
C4970 C4972 1.391 . S
C4971 C4970 1.386 . S
C4971 C4975 1.393 . S
C4972 H4961 0.950 . S
C4972 C4970 1.391 . S
C4972 C4973 1.400 . S
C4973 C4967 1.491 . S
C4973 C4972 1.400 . S
C4973 C4974 1.398 . S
C4974 H4962 0.950 . S
C4974 C4973 1.398 . S
C4974 C4975 1.391 . S
C4975 H4963 0.950 . S
C4975 C4971 1.393 . S
C4975 C4974 1.391 . S
H4976 C4984 0.950 . S
H4977 C4989 0.950 . S
H4978 C4986 0.950 . S
H4979 C4988 0.950 . S
H4980 C4990 0.950 . S
H4981 C4992 0.950 . S
H4982 C4994 0.950 . S
H4983 C4995 0.950 . S
C4984 H4976 0.950 . S
C4984 C4985 1.386 . S
C4984 C4986 1.391 . S
C4985 C4984 1.386 . S
C4985 C4989 1.393 . S
C4986 H4978 0.950 . S
C4986 C4984 1.391 . S
C4986 C4987 1.400 . S
C4987 C4986 1.400 . S
C4987 C4988 1.398 . S
C4987 C4993 1.491 . S
C4988 H4979 0.950 . S
C4988 C4987 1.398 . S
C4988 C4989 1.391 . S
C4989 H4977 0.950 . S
C4989 C4985 1.393 . S
C4989 C4988 1.391 . S
C4990 H4980 0.950 . S
C4990 C4991 1.386 . S
C4990 C4992 1.391 . S
C4991 C4990 1.386 . S
C4991 C4995 1.393 . S
C4992 H4981 0.950 . S
C4992 C4990 1.391 . S
C4992 C4993 1.400 . S
C4993 C4987 1.491 . S
C4993 C4992 1.400 . S
C4993 C4994 1.398 . S
C4994 H4982 0.950 . S
C4994 C4993 1.398 . S
C4994 C4995 1.391 . S
C4995 H4983 0.950 . S
C4995 C4991 1.393 . S
C4995 C4994 1.391 . S
H4996 C5004 0.950 . S
H4997 C5009 0.950 . S
H4998 C5006 0.950 . S
H4999 C5008 0.950 . S
H5000 C5010 0.950 . S
H5001 C5012 0.950 . S
H5002 C5014 0.950 . S
H5003 C5015 0.950 . S
C5004 H4996 0.950 . S
C5004 C5005 1.386 . S
C5004 C5006 1.391 . S
C5005 C5004 1.386 . S
C5005 C5009 1.393 . S
C5006 H4998 0.950 . S
C5006 C5004 1.391 . S
C5006 C5007 1.400 . S
C5007 C5006 1.400 . S
C5007 C5008 1.398 . S
C5007 C5013 1.491 . S
C5008 H4999 0.950 . S
C5008 C5007 1.398 . S
C5008 C5009 1.391 . S
C5009 H4997 0.950 . S
C5009 C5005 1.393 . S
C5009 C5008 1.391 . S
C5010 H5000 0.950 . S
C5010 C5011 1.386 . S
C5010 C5012 1.391 . S
C5011 C5010 1.386 . S
C5011 C5015 1.393 . S
C5012 H5001 0.950 . S
C5012 C5010 1.391 . S
C5012 C5013 1.400 . S
C5013 C5007 1.491 . S
C5013 C5012 1.400 . S
C5013 C5014 1.398 . S
C5014 H5002 0.950 . S
C5014 C5013 1.398 . S
C5014 C5015 1.391 . S
C5015 H5003 0.950 . S
C5015 C5011 1.393 . S
C5015 C5014 1.391 . S
H5016 C5024 0.950 . S
H5017 C5029 0.950 . S
H5018 C5026 0.950 . S
H5019 C5028 0.950 . S
H5020 C5030 0.950 . S
H5021 C5032 0.950 . S
H5022 C5034 0.950 . S
H5023 C5035 0.950 . S
C5024 H5016 0.950 . S
C5024 C5025 1.386 . S
C5024 C5026 1.391 . S
C5025 C5024 1.386 . S
C5025 C5029 1.393 . S
C5026 H5018 0.950 . S
C5026 C5024 1.391 . S
C5026 C5027 1.400 . S
C5027 C5026 1.400 . S
C5027 C5028 1.398 . S
C5027 C5033 1.491 . S
C5028 H5019 0.950 . S
C5028 C5027 1.398 . S
C5028 C5029 1.391 . S
C5029 H5017 0.950 . S
C5029 C5025 1.393 . S
C5029 C5028 1.391 . S
C5030 H5020 0.950 . S
C5030 C5031 1.386 . S
C5030 C5032 1.391 . S
C5031 C5030 1.386 . S
C5031 C5035 1.393 . S
C5032 H5021 0.950 . S
C5032 C5030 1.391 . S
C5032 C5033 1.400 . S
C5033 C5027 1.491 . S
C5033 C5032 1.400 . S
C5033 C5034 1.398 . S
C5034 H5022 0.950 . S
C5034 C5033 1.398 . S
C5034 C5035 1.391 . S
C5035 H5023 0.950 . S
C5035 C5031 1.393 . S
C5035 C5034 1.391 . S
H5036 C5044 0.950 . S
H5037 C5049 0.950 . S
H5038 C5046 0.950 . S
H5039 C5048 0.950 . S
H5040 C5050 0.950 . S
H5041 C5052 0.950 . S
H5042 C5054 0.950 . S
H5043 C5055 0.950 . S
C5044 H5036 0.950 . S
C5044 C5045 1.386 . S
C5044 C5046 1.391 . S
C5045 C5044 1.386 . S
C5045 C5049 1.393 . S
C5046 H5038 0.950 . S
C5046 C5044 1.391 . S
C5046 C5047 1.400 . S
C5047 C5046 1.400 . S
C5047 C5048 1.398 . S
C5047 C5053 1.491 . S
C5048 H5039 0.950 . S
C5048 C5047 1.398 . S
C5048 C5049 1.391 . S
C5049 H5037 0.950 . S
C5049 C5045 1.393 . S
C5049 C5048 1.391 . S
C5050 H5040 0.950 . S
C5050 C5051 1.386 . S
C5050 C5052 1.391 . S
C5051 C5050 1.386 . S
C5051 C5055 1.393 . S
C5052 H5041 0.950 . S
C5052 C5050 1.391 . S
C5052 C5053 1.400 . S
C5053 C5047 1.491 . S
C5053 C5052 1.400 . S
C5053 C5054 1.398 . S
C5054 H5042 0.950 . S
C5054 C5053 1.398 . S
C5054 C5055 1.391 . S
C5055 H5043 0.950 . S
C5055 C5051 1.393 . S
C5055 C5054 1.391 . S
H5056 C5064 0.950 . S
H5057 C5069 0.950 . S
H5058 C5066 0.950 . S
H5059 C5068 0.950 . S
H5060 C5070 0.950 . S
H5061 C5072 0.950 . S
H5062 C5074 0.950 . S
H5063 C5075 0.950 . S
C5064 H5056 0.950 . S
C5064 C5065 1.386 . S
C5064 C5066 1.391 . S
C5065 C5064 1.386 . S
C5065 C5069 1.393 . S
C5066 H5058 0.950 . S
C5066 C5064 1.391 . S
C5066 C5067 1.400 . S
C5067 C5066 1.400 . S
C5067 C5068 1.398 . S
C5067 C5073 1.491 . S
C5068 H5059 0.950 . S
C5068 C5067 1.398 . S
C5068 C5069 1.391 . S
C5069 H5057 0.950 . S
C5069 C5065 1.393 . S
C5069 C5068 1.391 . S
C5070 H5060 0.950 . S
C5070 C5071 1.386 . S
C5070 C5072 1.391 . S
C5071 C5070 1.386 . S
C5071 C5075 1.393 . S
C5072 H5061 0.950 . S
C5072 C5070 1.391 . S
C5072 C5073 1.400 . S
C5073 C5067 1.491 . S
C5073 C5072 1.400 . S
C5073 C5074 1.398 . S
C5074 H5062 0.950 . S
C5074 C5073 1.398 . S
C5074 C5075 1.391 . S
C5075 H5063 0.950 . S
C5075 C5071 1.393 . S
C5075 C5074 1.391 . S
H5076 C5084 0.950 . S
H5077 C5089 0.950 . S
H5078 C5086 0.950 . S
H5079 C5088 0.950 . S
H5080 C5090 0.950 . S
H5081 C5092 0.950 . S
H5082 C5094 0.950 . S
H5083 C5095 0.950 . S
C5084 H5076 0.950 . S
C5084 C5085 1.386 . S
C5084 C5086 1.391 . S
C5085 C5084 1.386 . S
C5085 C5089 1.393 . S
C5086 H5078 0.950 . S
C5086 C5084 1.391 . S
C5086 C5087 1.400 . S
C5087 C5086 1.400 . S
C5087 C5088 1.398 . S
C5087 C5093 1.491 . S
C5088 H5079 0.950 . S
C5088 C5087 1.398 . S
C5088 C5089 1.391 . S
C5089 H5077 0.950 . S
C5089 C5085 1.393 . S
C5089 C5088 1.391 . S
C5090 H5080 0.950 . S
C5090 C5091 1.386 . S
C5090 C5092 1.391 . S
C5091 C5090 1.386 . S
C5091 C5095 1.393 . S
C5092 H5081 0.950 . S
C5092 C5090 1.391 . S
C5092 C5093 1.400 . S
C5093 C5087 1.491 . S
C5093 C5092 1.400 . S
C5093 C5094 1.398 . S
C5094 H5082 0.950 . S
C5094 C5093 1.398 . S
C5094 C5095 1.391 . S
C5095 H5083 0.950 . S
C5095 C5091 1.393 . S
C5095 C5094 1.391 . S
H5096 C5104 0.950 . S
H5097 C5109 0.950 . S
H5098 C5106 0.950 . S
H5099 C5108 0.950 . S
H5100 C5110 0.950 . S
H5101 C5112 0.950 . S
H5102 C5114 0.950 . S
H5103 C5115 0.950 . S
C5104 H5096 0.950 . S
C5104 C5105 1.386 . S
C5104 C5106 1.391 . S
C5105 C5104 1.386 . S
C5105 C5109 1.393 . S
C5106 H5098 0.950 . S
C5106 C5104 1.391 . S
C5106 C5107 1.400 . S
C5107 C5106 1.400 . S
C5107 C5108 1.398 . S
C5107 C5113 1.491 . S
C5108 H5099 0.950 . S
C5108 C5107 1.398 . S
C5108 C5109 1.391 . S
C5109 H5097 0.950 . S
C5109 C5105 1.393 . S
C5109 C5108 1.391 . S
C5110 H5100 0.950 . S
C5110 C5111 1.386 . S
C5110 C5112 1.391 . S
C5111 C5110 1.386 . S
C5111 C5115 1.393 . S
C5112 H5101 0.950 . S
C5112 C5110 1.391 . S
C5112 C5113 1.400 . S
C5113 C5107 1.491 . S
C5113 C5112 1.400 . S
C5113 C5114 1.398 . S
C5114 H5102 0.950 . S
C5114 C5113 1.398 . S
C5114 C5115 1.391 . S
C5115 H5103 0.950 . S
C5115 C5111 1.393 . S
C5115 C5114 1.391 . S
H5116 C5124 0.950 . S
H5117 C5129 0.950 . S
H5118 C5126 0.950 . S
H5119 C5128 0.950 . S
H5120 C5130 0.950 . S
H5121 C5132 0.950 . S
H5122 C5134 0.950 . S
H5123 C5135 0.950 . S
C5124 H5116 0.950 . S
C5124 C5125 1.386 . S
C5124 C5126 1.391 . S
C5125 C5124 1.386 . S
C5125 C5129 1.393 . S
C5126 H5118 0.950 . S
C5126 C5124 1.391 . S
C5126 C5127 1.400 . S
C5127 C5126 1.400 . S
C5127 C5128 1.398 . S
C5127 C5133 1.491 . S
C5128 H5119 0.950 . S
C5128 C5127 1.398 . S
C5128 C5129 1.391 . S
C5129 H5117 0.950 . S
C5129 C5125 1.393 . S
C5129 C5128 1.391 . S
C5130 H5120 0.950 . S
C5130 C5131 1.386 . S
C5130 C5132 1.391 . S
C5131 C5130 1.386 . S
C5131 C5135 1.393 . S
C5132 H5121 0.950 . S
C5132 C5130 1.391 . S
C5132 C5133 1.400 . S
C5133 C5127 1.491 . S
C5133 C5132 1.400 . S
C5133 C5134 1.398 . S
C5134 H5122 0.950 . S
C5134 C5133 1.398 . S
C5134 C5135 1.391 . S
C5135 H5123 0.950 . S
C5135 C5131 1.393 . S
C5135 C5134 1.391 . S
H5136 C5144 0.950 . S
H5137 C5149 0.950 . S
H5138 C5146 0.950 . S
H5139 C5148 0.950 . S
H5140 C5150 0.950 . S
H5141 C5152 0.950 . S
H5142 C5154 0.950 . S
H5143 C5155 0.950 . S
C5144 H5136 0.950 . S
C5144 C5145 1.386 . S
C5144 C5146 1.391 . S
C5145 C5144 1.386 . S
C5145 C5149 1.393 . S
C5146 H5138 0.950 . S
C5146 C5144 1.391 . S
C5146 C5147 1.400 . S
C5147 C5146 1.400 . S
C5147 C5148 1.398 . S
C5147 C5153 1.491 . S
C5148 H5139 0.950 . S
C5148 C5147 1.398 . S
C5148 C5149 1.391 . S
C5149 H5137 0.950 . S
C5149 C5145 1.393 . S
C5149 C5148 1.391 . S
C5150 H5140 0.950 . S
C5150 C5151 1.386 . S
C5150 C5152 1.391 . S
C5151 C5150 1.386 . S
C5151 C5155 1.393 . S
C5152 H5141 0.950 . S
C5152 C5150 1.391 . S
C5152 C5153 1.400 . S
C5153 C5147 1.491 . S
C5153 C5152 1.400 . S
C5153 C5154 1.398 . S
C5154 H5142 0.950 . S
C5154 C5153 1.398 . S
C5154 C5155 1.391 . S
C5155 H5143 0.950 . S
C5155 C5151 1.393 . S
C5155 C5154 1.391 . S
H5156 C5164 0.950 . S
H5157 C5169 0.950 . S
H5158 C5166 0.950 . S
H5159 C5168 0.950 . S
H5160 C5170 0.950 . S
H5161 C5172 0.950 . S
H5162 C5174 0.950 . S
H5163 C5175 0.950 . S
C5164 H5156 0.950 . S
C5164 C5165 1.386 . S
C5164 C5166 1.391 . S
C5165 C5164 1.386 . S
C5165 C5169 1.393 . S
C5166 H5158 0.950 . S
C5166 C5164 1.391 . S
C5166 C5167 1.400 . S
C5167 C5166 1.400 . S
C5167 C5168 1.398 . S
C5167 C5173 1.491 . S
C5168 H5159 0.950 . S
C5168 C5167 1.398 . S
C5168 C5169 1.391 . S
C5169 H5157 0.950 . S
C5169 C5165 1.393 . S
C5169 C5168 1.391 . S
C5170 H5160 0.950 . S
C5170 C5171 1.386 . S
C5170 C5172 1.391 . S
C5171 C5170 1.386 . S
C5171 C5175 1.393 . S
C5172 H5161 0.950 . S
C5172 C5170 1.391 . S
C5172 C5173 1.400 . S
C5173 C5167 1.491 . S
C5173 C5172 1.400 . S
C5173 C5174 1.398 . S
C5174 H5162 0.950 . S
C5174 C5173 1.398 . S
C5174 C5175 1.391 . S
C5175 H5163 0.950 . S
C5175 C5171 1.393 . S
C5175 C5174 1.391 . S
H5176 C5184 0.950 . S
H5177 C5189 0.950 . S
H5178 C5186 0.950 . S
H5179 C5188 0.950 . S
H5180 C5190 0.950 . S
H5181 C5192 0.950 . S
H5182 C5194 0.950 . S
H5183 C5195 0.950 . S
C5184 H5176 0.950 . S
C5184 C5185 1.386 . S
C5184 C5186 1.391 . S
C5185 C5184 1.386 . S
C5185 C5189 1.393 . S
C5186 H5178 0.950 . S
C5186 C5184 1.391 . S
C5186 C5187 1.400 . S
C5187 C5186 1.400 . S
C5187 C5188 1.398 . S
C5187 C5193 1.491 . S
C5188 H5179 0.950 . S
C5188 C5187 1.398 . S
C5188 C5189 1.391 . S
C5189 H5177 0.950 . S
C5189 C5185 1.393 . S
C5189 C5188 1.391 . S
C5190 H5180 0.950 . S
C5190 C5191 1.386 . S
C5190 C5192 1.391 . S
C5191 C5190 1.386 . S
C5191 C5195 1.393 . S
C5192 H5181 0.950 . S
C5192 C5190 1.391 . S
C5192 C5193 1.400 . S
C5193 C5187 1.491 . S
C5193 C5192 1.400 . S
C5193 C5194 1.398 . S
C5194 H5182 0.950 . S
C5194 C5193 1.398 . S
C5194 C5195 1.391 . S
C5195 H5183 0.950 . S
C5195 C5191 1.393 . S
C5195 C5194 1.391 . S
H5196 C5204 0.950 . S
H5197 C5209 0.950 . S
H5198 C5206 0.950 . S
H5199 C5208 0.950 . S
H5200 C5210 0.950 . S
H5201 C5212 0.950 . S
H5202 C5214 0.950 . S
H5203 C5215 0.950 . S
C5204 H5196 0.950 . S
C5204 C5205 1.386 . S
C5204 C5206 1.391 . S
C5205 C5204 1.386 . S
C5205 C5209 1.393 . S
C5206 H5198 0.950 . S
C5206 C5204 1.391 . S
C5206 C5207 1.400 . S
C5207 C5206 1.400 . S
C5207 C5208 1.398 . S
C5207 C5213 1.491 . S
C5208 H5199 0.950 . S
C5208 C5207 1.398 . S
C5208 C5209 1.391 . S
C5209 H5197 0.950 . S
C5209 C5205 1.393 . S
C5209 C5208 1.391 . S
C5210 H5200 0.950 . S
C5210 C5211 1.386 . S
C5210 C5212 1.391 . S
C5211 C5210 1.386 . S
C5211 C5215 1.393 . S
C5212 H5201 0.950 . S
C5212 C5210 1.391 . S
C5212 C5213 1.400 . S
C5213 C5207 1.491 . S
C5213 C5212 1.400 . S
C5213 C5214 1.398 . S
C5214 H5202 0.950 . S
C5214 C5213 1.398 . S
C5214 C5215 1.391 . S
C5215 H5203 0.950 . S
C5215 C5211 1.393 . S
C5215 C5214 1.391 . S
H5216 C5224 0.950 . S
H5217 C5229 0.950 . S
H5218 C5226 0.950 . S
H5219 C5228 0.950 . S
H5220 C5230 0.950 . S
H5221 C5232 0.950 . S
H5222 C5234 0.950 . S
H5223 C5235 0.950 . S
C5224 H5216 0.950 . S
C5224 C5225 1.386 . S
C5224 C5226 1.391 . S
C5225 C5224 1.386 . S
C5225 C5229 1.393 . S
C5226 H5218 0.950 . S
C5226 C5224 1.391 . S
C5226 C5227 1.400 . S
C5227 C5226 1.400 . S
C5227 C5228 1.398 . S
C5227 C5233 1.491 . S
C5228 H5219 0.950 . S
C5228 C5227 1.398 . S
C5228 C5229 1.391 . S
C5229 H5217 0.950 . S
C5229 C5225 1.393 . S
C5229 C5228 1.391 . S
C5230 H5220 0.950 . S
C5230 C5231 1.386 . S
C5230 C5232 1.391 . S
C5231 C5230 1.386 . S
C5231 C5235 1.393 . S
C5232 H5221 0.950 . S
C5232 C5230 1.391 . S
C5232 C5233 1.400 . S
C5233 C5227 1.491 . S
C5233 C5232 1.400 . S
C5233 C5234 1.398 . S
C5234 H5222 0.950 . S
C5234 C5233 1.398 . S
C5234 C5235 1.391 . S
C5235 H5223 0.950 . S
C5235 C5231 1.393 . S
C5235 C5234 1.391 . S
H5236 C5244 0.950 . S
H5237 C5249 0.950 . S
H5238 C5246 0.950 . S
H5239 C5248 0.950 . S
H5240 C5250 0.950 . S
H5241 C5252 0.950 . S
H5242 C5254 0.950 . S
H5243 C5255 0.950 . S
C5244 H5236 0.950 . S
C5244 C5245 1.386 . S
C5244 C5246 1.391 . S
C5245 C5244 1.386 . S
C5245 C5249 1.393 . S
C5246 H5238 0.950 . S
C5246 C5244 1.391 . S
C5246 C5247 1.400 . S
C5247 C5246 1.400 . S
C5247 C5248 1.398 . S
C5247 C5253 1.491 . S
C5248 H5239 0.950 . S
C5248 C5247 1.398 . S
C5248 C5249 1.391 . S
C5249 H5237 0.950 . S
C5249 C5245 1.393 . S
C5249 C5248 1.391 . S
C5250 H5240 0.950 . S
C5250 C5251 1.386 . S
C5250 C5252 1.391 . S
C5251 C5250 1.386 . S
C5251 C5255 1.393 . S
C5252 H5241 0.950 . S
C5252 C5250 1.391 . S
C5252 C5253 1.400 . S
C5253 C5247 1.491 . S
C5253 C5252 1.400 . S
C5253 C5254 1.398 . S
C5254 H5242 0.950 . S
C5254 C5253 1.398 . S
C5254 C5255 1.391 . S
C5255 H5243 0.950 . S
C5255 C5251 1.393 . S
C5255 C5254 1.391 . S
H5256 C5264 0.950 . S
H5257 C5269 0.950 . S
H5258 C5266 0.950 . S
H5259 C5268 0.950 . S
H5260 C5270 0.950 . S
H5261 C5272 0.950 . S
H5262 C5274 0.950 . S
H5263 C5275 0.950 . S
C5264 H5256 0.950 . S
C5264 C5265 1.386 . S
C5264 C5266 1.391 . S
C5265 C5264 1.386 . S
C5265 C5269 1.393 . S
C5266 H5258 0.950 . S
C5266 C5264 1.391 . S
C5266 C5267 1.400 . S
C5267 C5266 1.400 . S
C5267 C5268 1.398 . S
C5267 C5273 1.491 . S
C5268 H5259 0.950 . S
C5268 C5267 1.398 . S
C5268 C5269 1.391 . S
C5269 H5257 0.950 . S
C5269 C5265 1.393 . S
C5269 C5268 1.391 . S
C5270 H5260 0.950 . S
C5270 C5271 1.386 . S
C5270 C5272 1.391 . S
C5271 C5270 1.386 . S
C5271 C5275 1.393 . S
C5272 H5261 0.950 . S
C5272 C5270 1.391 . S
C5272 C5273 1.400 . S
C5273 C5267 1.491 . S
C5273 C5272 1.400 . S
C5273 C5274 1.398 . S
C5274 H5262 0.950 . S
C5274 C5273 1.398 . S
C5274 C5275 1.391 . S
C5275 H5263 0.950 . S
C5275 C5271 1.393 . S
C5275 C5274 1.391 . S
H5276 C5284 0.950 . S
H5277 C5289 0.950 . S
H5278 C5286 0.950 . S
H5279 C5288 0.950 . S
H5280 C5290 0.950 . S
H5281 C5292 0.950 . S
H5282 C5294 0.950 . S
H5283 C5295 0.950 . S
C5284 H5276 0.950 . S
C5284 C5285 1.386 . S
C5284 C5286 1.391 . S
C5285 C5284 1.386 . S
C5285 C5289 1.393 . S
C5286 H5278 0.950 . S
C5286 C5284 1.391 . S
C5286 C5287 1.400 . S
C5287 C5286 1.400 . S
C5287 C5288 1.398 . S
C5287 C5293 1.491 . S
C5288 H5279 0.950 . S
C5288 C5287 1.398 . S
C5288 C5289 1.391 . S
C5289 H5277 0.950 . S
C5289 C5285 1.393 . S
C5289 C5288 1.391 . S
C5290 H5280 0.950 . S
C5290 C5291 1.386 . S
C5290 C5292 1.391 . S
C5291 C5290 1.386 . S
C5291 C5295 1.393 . S
C5292 H5281 0.950 . S
C5292 C5290 1.391 . S
C5292 C5293 1.400 . S
C5293 C5287 1.491 . S
C5293 C5292 1.400 . S
C5293 C5294 1.398 . S
C5294 H5282 0.950 . S
C5294 C5293 1.398 . S
C5294 C5295 1.391 . S
C5295 H5283 0.950 . S
C5295 C5291 1.393 . S
C5295 C5294 1.391 . S
H5296 C5304 0.950 . S
H5297 C5309 0.950 . S
H5298 C5306 0.950 . S
H5299 C5308 0.950 . S
H5300 C5310 0.950 . S
H5301 C5312 0.950 . S
H5302 C5314 0.950 . S
H5303 C5315 0.950 . S
C5304 H5296 0.950 . S
C5304 C5305 1.386 . S
C5304 C5306 1.391 . S
C5305 C5304 1.386 . S
C5305 C5309 1.393 . S
C5306 H5298 0.950 . S
C5306 C5304 1.391 . S
C5306 C5307 1.400 . S
C5307 C5306 1.400 . S
C5307 C5308 1.398 . S
C5307 C5313 1.491 . S
C5308 H5299 0.950 . S
C5308 C5307 1.398 . S
C5308 C5309 1.391 . S
C5309 H5297 0.950 . S
C5309 C5305 1.393 . S
C5309 C5308 1.391 . S
C5310 H5300 0.950 . S
C5310 C5311 1.386 . S
C5310 C5312 1.391 . S
C5311 C5310 1.386 . S
C5311 C5315 1.393 . S
C5312 H5301 0.950 . S
C5312 C5310 1.391 . S
C5312 C5313 1.400 . S
C5313 C5307 1.491 . S
C5313 C5312 1.400 . S
C5313 C5314 1.398 . S
C5314 H5302 0.950 . S
C5314 C5313 1.398 . S
C5314 C5315 1.391 . S
C5315 H5303 0.950 . S
C5315 C5311 1.393 . S
C5315 C5314 1.391 . S
H5316 C5324 0.950 . S
H5317 C5329 0.950 . S
H5318 C5326 0.950 . S
H5319 C5328 0.950 . S
H5320 C5330 0.950 . S
H5321 C5332 0.950 . S
H5322 C5334 0.950 . S
H5323 C5335 0.950 . S
C5324 H5316 0.950 . S
C5324 C5325 1.386 . S
C5324 C5326 1.391 . S
C5325 C5324 1.386 . S
C5325 C5329 1.393 . S
C5326 H5318 0.950 . S
C5326 C5324 1.391 . S
C5326 C5327 1.400 . S
C5327 C5326 1.400 . S
C5327 C5328 1.398 . S
C5327 C5333 1.491 . S
C5328 H5319 0.950 . S
C5328 C5327 1.398 . S
C5328 C5329 1.391 . S
C5329 H5317 0.950 . S
C5329 C5325 1.393 . S
C5329 C5328 1.391 . S
C5330 H5320 0.950 . S
C5330 C5331 1.386 . S
C5330 C5332 1.391 . S
C5331 C5330 1.386 . S
C5331 C5335 1.393 . S
C5332 H5321 0.950 . S
C5332 C5330 1.391 . S
C5332 C5333 1.400 . S
C5333 C5327 1.491 . S
C5333 C5332 1.400 . S
C5333 C5334 1.398 . S
C5334 H5322 0.950 . S
C5334 C5333 1.398 . S
C5334 C5335 1.391 . S
C5335 H5323 0.950 . S
C5335 C5331 1.393 . S
C5335 C5334 1.391 . S
H5336 C5344 0.950 . S
H5337 C5349 0.950 . S
H5338 C5346 0.950 . S
H5339 C5348 0.950 . S
H5340 C5350 0.950 . S
H5341 C5352 0.950 . S
H5342 C5354 0.950 . S
H5343 C5355 0.950 . S
C5344 H5336 0.950 . S
C5344 C5345 1.386 . S
C5344 C5346 1.391 . S
C5345 C5344 1.386 . S
C5345 C5349 1.393 . S
C5346 H5338 0.950 . S
C5346 C5344 1.391 . S
C5346 C5347 1.400 . S
C5347 C5346 1.400 . S
C5347 C5348 1.398 . S
C5347 C5353 1.491 . S
C5348 H5339 0.950 . S
C5348 C5347 1.398 . S
C5348 C5349 1.391 . S
C5349 H5337 0.950 . S
C5349 C5345 1.393 . S
C5349 C5348 1.391 . S
C5350 H5340 0.950 . S
C5350 C5351 1.386 . S
C5350 C5352 1.391 . S
C5351 C5350 1.386 . S
C5351 C5355 1.393 . S
C5352 H5341 0.950 . S
C5352 C5350 1.391 . S
C5352 C5353 1.400 . S
C5353 C5347 1.491 . S
C5353 C5352 1.400 . S
C5353 C5354 1.398 . S
C5354 H5342 0.950 . S
C5354 C5353 1.398 . S
C5354 C5355 1.391 . S
C5355 H5343 0.950 . S
C5355 C5351 1.393 . S
C5355 C5354 1.391 . S
H5356 C5364 0.950 . S
H5357 C5369 0.950 1_545 S
H5358 C5366 0.950 . S
H5359 C5368 0.974 . S
H5360 C5370 0.950 . S
H5361 C5372 0.989 . S
H5362 C5374 0.950 . S
H5363 C5375 0.950 . S
C5364 H5356 0.950 . S
C5364 C5365 1.386 . S
C5364 C5366 1.391 . S
C5365 C5364 1.386 . S
C5365 C5369 1.393 . S
C5366 H5358 0.950 . S
C5366 C5364 1.391 . S
C5366 C5367 1.400 . S
C5367 C5366 1.400 . S
C5367 C5368 1.398 . S
C5367 C5373 1.491 . S
C5368 H5359 0.974 . S
C5368 C5367 1.398 . S
C5368 C5369 1.391 . S
C5369 H5357 0.950 1_565 S
C5369 C5365 1.393 . S
C5369 C5368 1.391 . S
C5370 H5360 0.950 . S
C5370 C5371 1.386 . S
C5370 C5372 1.391 . S
C5371 C5370 1.386 . S
C5371 C5375 1.393 . S
C5372 H5361 0.989 . S
C5372 C5370 1.391 . S
C5372 C5373 1.400 . S
C5373 C5367 1.491 . S
C5373 C5372 1.400 . S
C5373 C5374 1.398 . S
C5374 H5362 0.950 . S
C5374 C5373 1.398 . S
C5374 C5375 1.391 . S
C5375 H5363 0.950 . S
C5375 C5371 1.393 . S
C5375 C5374 1.391 . S
C2505 C1781 1.731 . S
C2511 C1929 1.792 . S
C2525 C981 1.701 . S
C2531 C1941 1.660 . S
C2551 C1953 1.665 . S
C2545 C1861 1.612 . S
C2565 C1061 1.683 . S
C2571 C1965 1.631 . S
C2585 C1901 1.646 . S
C2591 C1977 1.618 . S
C2605 C941 1.707 . S
C2611 C1989 1.762 . S
C2625 C1821 1.607 . S
C2631 C2001 1.649 . S
C2645 C1021 1.667 . S
C2651 C2013 1.713 . S
C2665 C661 1.254 . S
C2671 C2025 1.237 . S
C2685 C1621 1.499 . S
C2691 C2037 1.506 . S
C2705 C741 1.808 . S
C2711 C2049 1.789 . S
C2725 C1581 1.764 . S
C2731 C2061 1.766 . S
C2745 C901 1.686 . S
C2751 C2073 1.653 . S
C2771 C2085 1.784 . S
C2765 C1661 1.735 . S
C2791 C2097 1.929 . S
C2785 C821 1.953 . S
C2805 C1141 1.581 . S
C2811 C2109 1.601 . S
C2831 C2121 1.758 . S
C2825 C781 1.722 . S
C2851 C2133 1.882 . S
C2845 C1701 1.910 . S
C2865 C861 1.599 . S
C2871 C2145 1.652 . S
C2885 C1181 1.745 . S
C2891 C2157 1.709 . S
C2911 C2169 1.404 . S
C2905 C1101 1.406 . S
C2925 C1421 1.374 . S
C2931 C2181 1.388 . S
C2951 C2193 1.615 . S
C2945 C381 1.640 . S
C2971 C2205 1.645 . S
C2965 C1501 1.627 . S
C2991 C2217 1.332 . S
C2985 C461 1.355 . S
C3011 C2229 1.555 . S
C3005 C1541 1.585 . S
C3025 C341 1.147 . S
C3031 C2241 1.156 . S
C3051 C2253 1.694 . S
C3045 C1461 1.727 . S
C3065 C421 1.675 . S
C3071 C2265 1.721 . S
C3091 C2277 1.577 . S
C3085 C61 1.601 . S
C3111 C2289 1.844 . S
C3105 C1261 1.764 . S
C3125 C141 1.535 . S
C3131 C2301 1.550 . S
C3151 C2313 1.518 . S
C3145 C1221 1.520 . S
C3171 C2325 1.477 . S
C3165 C301 1.509 . S
C3185 C1301 1.864 . S
C3191 C2337 1.837 . S
C3211 C2349 1.429 . S
C3205 C221 1.468 . S
C3231 C2361 1.572 . S
C3225 C541 1.588 . S
C3245 C181 1.686 . S
C3251 C2373 1.666 . S
C3271 C2385 1.421 . S
C3265 C1341 1.458 . S
C3285 C261 1.633 . S
C3291 C2397 1.628 . S
C3311 C2409 1.488 . S
C3305 C581 1.545 . S
C3325 C501 1.583 . S
C3331 C2421 1.561 . S
C3345 C701 1.474 . S
C3351 C2433 1.496 . S
C3371 C2445 1.808 . S
C3365 C621 1.797 . S
C3385 C1741 1.748 . S
C3391 C2457 1.719 . S
C3405 C101 1.663 . S
C3411 C2469 1.732 . S
C3431 C2481 1.507 . S
C3425 C21 1.504 . S
C3451 C2493 1.756 . S
C3445 C1381 1.780 . S
C3465 C1335 1.442 1_554 S
C3471 C1926 1.520 . S
C3485 C535 1.410 . S
C3491 C1938 1.396 . S
C3505 C1362 1.899 . S
C3511 C1948 1.822 . S
C3531 C1960 1.659 . S
C3525 C1295 1.630 . S
C3545 C575 1.311 . S
C3551 C1972 1.317 . S
C3565 C1215 1.365 . S
C3571 C1984 1.346 . S
C3591 C1996 1.535 . S
C3585 C495 1.547 . S
C3605 C1242 1.519 . S
C3611 C2010 1.575 . S
C3625 C1255 1.750 . S
C3631 C2022 1.723 . S
C3651 C2032 1.506 . S
C3645 C562 1.541 . S
C3665 C1202 1.462 . S
C3671 C2044 1.397 . S
C3691 C2056 1.611 . S
C3685 C482 1.663 . S
C3705 C522 1.253 . S
C3711 C2070 1.205 . S
C3725 C1375 1.719 . S
C3731 C2080 1.739 . S
C3751 C2092 1.776 . S
C3745 C1282 1.842 . S
C3771 C2106 1.663 . S
C3765 C1322 1.705 . S
C3785 C455 1.735 . S
C3791 C2058 1.763 . S
C3805 C1415 1.427 . S
C3811 C2118 1.448 . S
C3825 C1455 1.598 . S
C3831 C2130 1.596 . S
C3851 C2140 1.408 . S
C3845 C1482 1.457 . S
C3871 C2068 1.626 . S
C3865 C442 1.721 . S
C3885 C362 1.569 . S
C3891 C2034 1.549 . S
C3905 C1495 1.366 . S
C3911 C2154 1.313 . S
C3931 C2164 1.496 . S
C3925 C1402 1.551 . S
C3951 C2178 1.971 . S
C3945 C1695 1.977 . S
C3965 C1135 1.449 . S
C3971 C2190 1.448 . S
C3991 C2200 1.700 . S
C3985 C1722 1.706 . S
C4011 C2212 1.469 . S
C4005 C1655 1.488 . S
C4025 C1175 1.915 . S
C4031 C2226 1.892 . S
C4045 C1562 1.526 . S
C4051 C2236 1.500 . S
C4065 C1095 1.425 . S
C4071 C2248 1.378 . S
C4091 C2262 1.637 . S
C4085 C1615 1.616 . S
C4111 C2274 1.647 . S
C4105 C1602 1.676 . S
C4125 C1162 1.822 . S
C4131 C2284 1.839 . S
C4151 C2298 1.656 . S
C4145 C1575 1.719 . S
C4165 C1082 1.502 . S
C4171 C2308 1.486 . S
C4191 C2320 1.592 . S
C4185 C1122 1.618 . S
C4205 C1735 1.898 . S
C4211 C2334 1.864 . S
C4231 C2346 1.356 . S
C4225 C1642 1.358 . S
C4245 C1682 1.897 . S
C4251 C2356 1.907 . S
C4265 C1042 1.606 . S
C4271 C2310 1.611 . S
C4285 C1775 1.642 . S
C4291 C2368 1.671 . S
C4305 C1815 1.430 . S
C4311 C2380 1.458 . S
C4331 C2394 1.666 . S
C4325 C1842 1.639 . S
C4345 C1055 1.534 . S
C4351 C2322 1.475 . S
C4365 C975 1.580 . S
C4371 C2286 1.560 . S
C4391 C2404 1.798 . S
C4385 C1855 1.796 . S
C4405 C1762 1.808 . S
C4411 C2416 1.793 . S
C4431 C1986 1.531 . S
C4425 C215 1.526 . S
C4451 C1998 1.370 . S
C4445 C255 1.375 . S
C4471 C2008 1.748 . S
C4465 C282 1.812 . S
C4491 C1974 1.486 . S
C4485 C175 1.467 . S
C4511 C1962 1.417 . S
C4505 C135 1.427 . S
C4525 C15 1.398 . S
C4531 C1924 1.393 . S
C4545 C55 1.634 . S
C4551 C1936 1.645 . S
C4565 C82 1.569 . S
C4571 C1950 1.610 . S
C4585 C95 1.724 . S
C4591 C2166 1.689 . S
C4605 C122 1.414 . S
C4611 C2428 1.409 . S
C4625 C2 1.651 . S
C4631 C2152 1.593 . S
C4645 C42 1.767 . S
C4651 C2440 1.711 . S
C4665 C242 1.288 . S
C4671 C2454 1.243 . S
C4691 C2116 1.550 . S
C4685 C295 1.527 . S
C4705 C162 1.694 . S
C4711 C2128 1.644 . S
C4725 C202 1.676 . S
C4731 C2142 1.653 . S
C4751 C2442 1.605 . S
C4745 C1535 1.585 . S
C4765 C335 1.629 . S
C4771 C2082 1.643 . S
C4785 C375 1.635 . S
C4791 C2094 1.613 . S
C4805 C402 1.487 . S
C4811 C2104 1.495 . S
C4831 C2452 1.703 . S
C4825 C1522 1.765 . S
C4851 C2430 1.565 . S
C4845 C1442 1.602 . S
C4871 C2046 1.426 . S
C4865 C415 1.448 . S
C4885 C322 1.543 . S
C4891 C2020 1.494 . S
C4905 C815 2.005 . S
C4911 C2238 1.968 . S
C4925 C855 1.544 . S
C4931 C2250 1.575 . S
C4945 C882 1.806 1_556 S
C4951 C2260 1.806 . S
C4965 C775 1.538 . S
C4971 C2224 1.513 . S
C4991 C2214 1.829 . S
C4985 C735 1.865 . S
C5011 C2176 1.494 . S
C5005 C602 1.494 . S
C5031 C2188 1.388 . S
C5025 C655 1.406 . S
C5045 C695 1.637 . S
C5051 C2202 1.647 . S
C5071 C2418 1.606 . S
C5065 C682 1.605 . S
C5085 C722 1.701 . S
C5091 C2464 1.711 . S
C5105 C615 1.773 . S
C5111 C2406 1.709 . S
C5131 C2476 1.421 . S
C5125 C642 1.437 . S
C5145 C842 1.678 . S
C5151 C2488 1.675 . S
C5171 C2370 1.970 . S
C5165 C895 1.992 . S
C5185 C762 1.309 . S
C5191 C2382 1.314 . S
C5205 C802 1.872 . S
C5211 C2392 1.883 . S
C5225 C1895 1.581 . S
C5231 C2478 1.540 . S
C5251 C2332 1.797 . S
C5245 C935 1.792 . S
C5265 C962 1.519 . S
C5271 C2344 1.499 . S
C5285 C1002 1.665 . S
C5291 C2358 1.711 . S
C5305 C1882 1.515 . S
C5311 C2490 1.498 . S
C5325 C1802 1.454 . S
C5331 C2466 1.473 . S
C5351 C2296 1.719 . S
C5345 C1015 1.697 . S
C5371 C2272 1.907 . S
C5365 C922 1.920 . S
