# Generated by pormake.
# Topology pyr, (3,6)-cn, num edge types: 1
# Building blocks:
#     Node 0, Type 0, BuildingBlock: MIDCAF_clean_linker_0, # of connection points: 3
#     Node 1, Type 0, BuildingBlock: MIDCAF_clean_linker_0, # of connection points: 3
#     Node 2, Type 0, BuildingBlock: MIDCAF_clean_linker_0, # of connection points: 3
#     Node 3, Type 0, BuildingBlock: MIDCAF_clean_linker_0, # of connection points: 3
#     Node 4, Type 0, BuildingBlock: MIDCAF_clean_linker_0, # of connection points: 3
#     Node 5, Type 0, BuildingBlock: MIDCAF_clean_linker_0, # of connection points: 3
#     Node 6, Type 0, BuildingBlock: MIDCAF_clean_linker_0, # of connection points: 3
#     Node 7, Type 0, BuildingBlock: MIDCAF_clean_linker_0, # of connection points: 3
#     Node 8, Type 1, BuildingBlock: JUFBIX_clean_sbu_0, # of connection points: 6
#     Node 9, Type 1, BuildingBlock: JUFBIX_clean_sbu_0, # of connection points: 6
#     Node 10, Type 1, BuildingBlock: JUFBIX_clean_sbu_0, # of connection points: 6
#     Node 11, Type 1, BuildingBlock: JUFBIX_clean_sbu_0, # of connection points: 6
#     Edge 12, Type (0, 1), BuildingBlock: XUDNAN_clean_linker_2, # of connection points: 2
#     Edge 13, Type (0, 1), BuildingBlock: XUDNAN_clean_linker_2, # of connection points: 2
#     Edge 14, Type (0, 1), BuildingBlock: XUDNAN_clean_linker_2, # of connection points: 2
#     Edge 15, Type (0, 1), BuildingBlock: XUDNAN_clean_linker_2, # of connection points: 2
#     Edge 16, Type (0, 1), BuildingBlock: XUDNAN_clean_linker_2, # of connection points: 2
#     Edge 17, Type (0, 1), BuildingBlock: XUDNAN_clean_linker_2, # of connection points: 2
#     Edge 18, Type (0, 1), BuildingBlock: XUDNAN_clean_linker_2, # of connection points: 2
#     Edge 19, Type (0, 1), BuildingBlock: XUDNAN_clean_linker_2, # of connection points: 2
#     Edge 20, Type (0, 1), BuildingBlock: XUDNAN_clean_linker_2, # of connection points: 2
#     Edge 21, Type (0, 1), BuildingBlock: XUDNAN_clean_linker_2, # of connection points: 2
#     Edge 22, Type (0, 1), BuildingBlock: XUDNAN_clean_linker_2, # of connection points: 2
#     Edge 23, Type (0, 1), BuildingBlock: XUDNAN_clean_linker_2, # of connection points: 2
#     Edge 24, Type (0, 1), BuildingBlock: XUDNAN_clean_linker_2, # of connection points: 2
#     Edge 25, Type (0, 1), BuildingBlock: XUDNAN_clean_linker_2, # of connection points: 2
#     Edge 26, Type (0, 1), BuildingBlock: XUDNAN_clean_linker_2, # of connection points: 2
#     Edge 27, Type (0, 1), BuildingBlock: XUDNAN_clean_linker_2, # of connection points: 2
#     Edge 28, Type (0, 1), BuildingBlock: XUDNAN_clean_linker_2, # of connection points: 2
#     Edge 29, Type (0, 1), BuildingBlock: XUDNAN_clean_linker_2, # of connection points: 2
#     Edge 30, Type (0, 1), BuildingBlock: XUDNAN_clean_linker_2, # of connection points: 2
#     Edge 31, Type (0, 1), BuildingBlock: XUDNAN_clean_linker_2, # of connection points: 2
#     Edge 32, Type (0, 1), BuildingBlock: XUDNAN_clean_linker_2, # of connection points: 2
#     Edge 33, Type (0, 1), BuildingBlock: XUDNAN_clean_linker_2, # of connection points: 2
#     Edge 34, Type (0, 1), BuildingBlock: XUDNAN_clean_linker_2, # of connection points: 2
#     Edge 35, Type (0, 1), BuildingBlock: XUDNAN_clean_linker_2, # of connection points: 2
# Relax obj value: 0.046
# Max RMSD: 0.092
# Mean RMSD: 0.031
data_MOF--net-pyr--node1-JUFBIX_clean_sbu_0--node2-MIDCAF_clean_linker_0--edge1-XUDNAN_clean_linker_2
_symmetry_space_group_name_H-M    P1
_symmetry_Int_Tables_number       1
_symmetry_cell_setting            triclinic
loop_
_symmetry_equiv_pos_as_xyz
'x, y, z'
_cell_length_a     45.651256
_cell_length_b     43.539419
_cell_length_c     45.726083
_cell_angle_alpha  85.207854
_cell_angle_beta   90.242514
_cell_angle_gamma 91.676958
loop_
_atom_site_label
_atom_site_type_symbol
_atom_site_fract_x
_atom_site_fract_y
_atom_site_fract_z
_atom_type_partial_charge
C0 C 0.12366 0.1141 0.2436 0.0
C1 C 0.13745 0.10932 0.27119 0.0
C2 C 0.16809 0.1147 0.27246 0.0
C3 C 0.18392 0.12634 0.24721 0.0
H4 H 0.25688 0.1098 0.17538 0.0
H5 H 0.29761 0.08966 0.14857 0.0
H6 H 0.28014 0.15473 0.07465 0.0
H7 H 0.23977 0.17485 0.10115 0.0
H8 H 0.17487 0.21766 0.10121 0.0
H9 H 0.14622 0.26253 0.08397 0.0
H10 H 0.12922 0.27949 0.17407 0.0
H11 H 0.15598 0.23414 0.19077 0.0
H12 H 0.12746 0.13088 0.19835 0.0
H13 H 0.10041 0.10929 0.2412 0.0
H14 H 0.17959 0.11134 0.29318 0.0
H15 H 0.20714 0.13165 0.2491 0.0
N16 N 0.20784 0.14027 0.18126 0.0
N17 N 0.20551 0.18207 0.14497 0.0
N18 N 0.17123 0.17688 0.18321 0.0
C19 C 0.21885 0.15584 0.15619 0.0
C20 C 0.18189 0.19292 0.15861 0.0
C21 C 0.18383 0.15068 0.1947 0.0
C22 C 0.24463 0.14396 0.14053 0.0
C23 C 0.26175 0.11994 0.15345 0.0
C24 C 0.28532 0.10847 0.13813 0.0
C25 C 0.2922 0.12036 0.10929 0.0
C26 C 0.27539 0.14467 0.09665 0.0
C27 C 0.25216 0.15635 0.112 0.0
C28 C 0.16738 0.22196 0.14738 0.0
C29 C 0.16502 0.23114 0.11722 0.0
C30 C 0.14861 0.25702 0.10736 0.0
C31 C 0.13454 0.27465 0.12746 0.0
C32 C 0.13847 0.26614 0.15763 0.0
C33 C 0.1542 0.24011 0.16736 0.0
C34 C 0.16939 0.13307 0.22032 0.0
C35 C 0.13924 0.12619 0.21879 0.0
C36 C 0.32255 0.93159 0.61334 0.0
C37 C 0.30717 0.92156 0.58912 0.0
C38 C 0.32239 0.90787 0.56725 0.0
C39 C 0.35244 0.90313 0.57016 0.0
H40 H 0.40863 0.83431 0.55683 0.0
H41 H 0.41676 0.78105 0.54808 0.0
H42 H 0.49015 0.77898 0.60788 0.0
H43 H 0.48196 0.83273 0.61721 0.0
H44 H 0.47299 0.88509 0.67259 0.0
H45 H 0.48646 0.91086 0.71628 0.0
H46 H 0.46375 0.99842 0.67162 0.0
H47 H 0.4489 0.97228 0.62863 0.0
H48 H 0.36388 0.93485 0.63521 0.0
H49 H 0.3112 0.94249 0.6303 0.0
H50 H 0.31087 0.90007 0.54834 0.0
H51 H 0.36355 0.89163 0.55345 0.0
N52 N 0.40879 0.87857 0.58938 0.0
N53 N 0.45264 0.88392 0.6157 0.0
N54 N 0.41598 0.9205 0.61753 0.0
C55 C 0.43569 0.86808 0.59715 0.0
C56 C 0.44304 0.91059 0.62537 0.0
C57 C 0.39872 0.90459 0.59956 0.0
C58 C 0.44428 0.83769 0.58822 0.0
C59 C 0.42675 0.82281 0.56799 0.0
C60 C 0.43135 0.79227 0.56292 0.0
C61 C 0.45372 0.77593 0.57771 0.0
C62 C 0.47269 0.79122 0.5963 0.0
C63 C 0.46796 0.82192 0.60161 0.0
C64 C 0.45945 0.9267 0.64757 0.0
C65 C 0.47184 0.90996 0.67186 0.0
C66 C 0.47961 0.9248 0.69688 0.0
C67 C 0.47547 0.95664 0.69772 0.0
C68 C 0.46637 0.97375 0.672 0.0
C69 C 0.45807 0.95885 0.64731 0.0
C70 C 0.36782 0.91269 0.59466 0.0
C71 C 0.35269 0.9275 0.61595 0.0
C72 C 0.64886 0.26077 0.90353 0.0
C73 C 0.62165 0.25308 0.89103 0.0
C74 C 0.60893 0.27474 0.87063 0.0
C75 C 0.62328 0.30286 0.86229 0.0
H76 H 0.61492 0.40651 0.82988 0.0
H77 H 0.58777 0.42872 0.78781 0.0
H78 H 0.66453 0.42453 0.73343 0.0
H79 H 0.69219 0.40361 0.77652 0.0
H80 H 0.74552 0.4235 0.85117 0.0
H81 H 0.78738 0.44167 0.8795 0.0
H82 H 0.76722 0.3713 0.94917 0.0
H83 H 0.7258 0.35308 0.92119 0.0
H84 H 0.6844 0.294 0.90489 0.0
H85 H 0.6594 0.24459 0.91919 0.0
H86 H 0.58772 0.27 0.86102 0.0
H87 H 0.61271 0.31867 0.84631 0.0
N88 N 0.65546 0.35784 0.84108 0.0
N89 N 0.69461 0.39372 0.84406 0.0
N90 N 0.69137 0.34932 0.87723 0.0
C91 C 0.66938 0.38451 0.83084 0.0
C92 C 0.70563 0.37623 0.86759 0.0
C93 C 0.66634 0.33988 0.86401 0.0
C94 C 0.6556 0.4034 0.80643 0.0
C95 C 0.62618 0.41109 0.80908 0.0
C96 C 0.61054 0.42347 0.7848 0.0
C97 C 0.62361 0.42768 0.75685 0.0
C98 C 0.65368 0.42166 0.75453 0.0
C99 C 0.66958 0.40971 0.77918 0.0
C100 C 0.73205 0.38684 0.88382 0.0
C101 C 0.75008 0.41181 0.87247 0.0
C102 C 0.77418 0.42215 0.88864 0.0
C103 C 0.78053 0.40808 0.9167 0.0
C104 C 0.76276 0.38292 0.9278 0.0
C105 C 0.73901 0.37236 0.91158 0.0
C106 C 0.6508 0.31034 0.87419 0.0
C107 C 0.66327 0.28908 0.89522 0.0
C108 C 0.84142 0.60104 0.48489 0.0
C109 C 0.828 0.57358 0.47666 0.0
C110 C 0.84293 0.55594 0.45745 0.0
C111 C 0.87014 0.56605 0.44592 0.0
H112 H 0.93523 0.54286 0.38955 0.0
H113 H 0.94571 0.52072 0.34348 0.0
H114 H 0.99312 0.60427 0.31264 0.0
H115 H 0.98291 0.62651 0.35859 0.0
H116 H 1.00393 0.66254 0.44041 0.0
H117 H 0.02312 0.71338 0.4506 0.0
H118 H 0.93567 0.74902 0.44045 0.0
H119 H 0.91667 0.69757 0.43329 0.0
H120 H 0.87803 0.63279 0.47971 0.0
H121 H 0.83065 0.61495 0.49997 0.0
H122 H 0.83309 0.53486 0.45037 0.0
H123 H 0.88059 0.55217 0.43061 0.0
N124 N 0.92309 0.59052 0.41785 0.0
N125 N 0.95927 0.6296 0.40973 0.0
N126 N 0.9226 0.63385 0.44493 0.0
C127 C 0.94729 0.60205 0.40312 0.0
C128 C 0.94707 0.64547 0.43071 0.0
C129 C 0.91067 0.60612 0.43888 0.0
C130 C 0.95792 0.58664 0.37764 0.0
C131 C 0.94836 0.55633 0.37318 0.0
C132 C 0.95445 0.54355 0.34688 0.0
C133 C 0.96989 0.56095 0.32446 0.0
C134 C 0.98088 0.59052 0.32953 0.0
C135 C 0.97514 0.60317 0.35592 0.0
C136 C 0.95887 0.67626 0.43637 0.0
C137 C 0.98897 0.68138 0.44068 0.0
C138 C 0.99993 0.71071 0.44621 0.0
C139 C 0.98113 0.73585 0.44649 0.0
C140 C 0.95097 0.73046 0.44145 0.0
C141 C 0.93996 0.70094 0.43701 0.0
C142 C 0.8831 0.5941 0.45327 0.0
C143 C 0.86866 0.61119 0.47335 0.0
C144 C 0.74827 0.90931 0.87615 0.0
C145 C 0.7402 0.89682 0.9045 0.0
C146 C 0.75689 0.87262 0.91759 0.0
C147 C 0.78116 0.86173 0.90324 0.0
H148 H 0.83855 0.78549 0.90611 0.0
H149 H 0.86392 0.73865 0.92426 0.0
H150 H 0.93457 0.76311 0.86353 0.0
H151 H 0.90938 0.80895 0.84519 0.0
H152 H 0.90153 0.85452 0.79257 0.0
H153 H 0.92033 0.8778 0.74595 0.0
H154 H 0.85059 0.94288 0.74214 0.0
H155 H 0.83127 0.91909 0.7886 0.0
H156 H 0.77861 0.90919 0.84028 0.0
H157 H 0.73613 0.92806 0.86539 0.0
H158 H 0.75123 0.86204 0.93918 0.0
H159 H 0.79337 0.8433 0.91445 0.0
N160 N 0.83107 0.83864 0.87319 0.0
N161 N 0.86602 0.844 0.83558 0.0
N162 N 0.82758 0.87865 0.83535 0.0
C163 C 0.85576 0.82864 0.86073 0.0
C164 C 0.85233 0.8689 0.8226 0.0
C165 C 0.81677 0.86369 0.86076 0.0
C166 C 0.87157 0.80101 0.87379 0.0
C167 C 0.85957 0.78092 0.89674 0.0
C168 C 0.87419 0.75408 0.90727 0.0
C169 C 0.90116 0.74667 0.89509 0.0
C170 C 0.91354 0.76746 0.873 0.0
C171 C 0.89901 0.79401 0.8625 0.0
C172 C 0.86452 0.88459 0.79454 0.0
C173 C 0.89011 0.87387 0.78196 0.0
C174 C 0.90117 0.88744 0.75515 0.0
C175 C 0.88705 0.91221 0.73989 0.0
C176 C 0.8619 0.9235 0.75284 0.0
C177 C 0.8508 0.90991 0.77969 0.0
C178 C 0.78989 0.87476 0.87527 0.0
C179 C 0.77285 0.89858 0.86182 0.0
C180 C 0.59564 0.11245 0.30522 0.0
C181 C 0.56594 0.11484 0.29718 0.0
C182 C 0.54632 0.12628 0.31707 0.0
C183 C 0.55617 0.13469 0.3444 0.0
H184 H 0.56855 0.21943 0.39354 0.0
H185 H 0.55777 0.26799 0.41379 0.0
H186 H 0.60221 0.23758 0.49413 0.0
H187 H 0.61281 0.18907 0.47424 0.0
H188 H 0.66068 0.13806 0.47033 0.0
H189 H 0.70357 0.11054 0.48879 0.0
H190 H 0.69072 0.04514 0.42358 0.0
H191 H 0.64817 0.07272 0.40475 0.0
H192 H 0.62816 0.11752 0.33833 0.0
H193 H 0.61173 0.10492 0.29026 0.0
H194 H 0.52326 0.12819 0.31186 0.0
H195 H 0.54066 0.14315 0.35948 0.0
N196 N 0.58754 0.16383 0.39382 0.0
N197 N 0.61918 0.15267 0.43366 0.0
N198 N 0.61644 0.12004 0.39559 0.0
C199 C 0.59908 0.17124 0.41987 0.0
C200 C 0.62783 0.12691 0.42174 0.0
C201 C 0.5962 0.1382 0.38166 0.0
C202 C 0.59145 0.20026 0.4323 0.0
C203 C 0.5759 0.22301 0.41558 0.0
C204 C 0.56997 0.25094 0.42702 0.0
C205 C 0.57922 0.25651 0.45547 0.0
C206 C 0.59463 0.23377 0.47221 0.0
C207 C 0.60074 0.206 0.46074 0.0
C208 C 0.65126 0.10796 0.43568 0.0
C209 C 0.6667 0.11756 0.46016 0.0
C210 C 0.69119 0.10169 0.4709 0.0
C211 C 0.70064 0.07593 0.45738 0.0
C212 C 0.68418 0.06526 0.43408 0.0
C213 C 0.65977 0.08108 0.42334 0.0
C214 C 0.5856 0.13105 0.35254 0.0
C215 C 0.60521 0.11998 0.33272 0.0
C216 C 0.24606 0.6137 0.1391 0.0
C217 C 0.24973 0.60715 0.10959 0.0
C218 C 0.27832 0.61013 0.09781 0.0
C219 C 0.30186 0.62089 0.11421 0.0
H220 H 0.3427 0.72185 0.11445 0.0
H221 H 0.368 0.77008 0.09616 0.0
H222 H 0.43949 0.7495 0.15612 0.0
H223 H 0.41418 0.70229 0.17475 0.0
H224 H 0.39016 0.67213 0.23733 0.0
H225 H 0.4152 0.65061 0.28074 0.0
H226 H 0.37033 0.56301 0.27361 0.0
H227 H 0.34486 0.58466 0.22921 0.0
H228 H 0.2663 0.62911 0.17816 0.0
H229 H 0.22463 0.61224 0.14919 0.0
H230 H 0.28276 0.60433 0.07576 0.0
H231 H 0.32329 0.6238 0.10407 0.0
N232 N 0.33717 0.66719 0.14615 0.0
N233 N 0.36841 0.66806 0.1867 0.0
N234 N 0.33121 0.62975 0.18634 0.0
C235 C 0.36012 0.68046 0.15989 0.0
C236 C 0.35437 0.64289 0.20021 0.0
C237 C 0.32258 0.64195 0.15922 0.0
C238 C 0.37614 0.70835 0.14641 0.0
C239 C 0.36392 0.72758 0.12354 0.0
C240 C 0.37847 0.75518 0.11299 0.0
C241 C 0.40558 0.76402 0.12502 0.0
C242 C 0.41829 0.74397 0.14689 0.0
C243 C 0.40375 0.71671 0.15751 0.0
C244 C 0.36578 0.63002 0.22924 0.0
C245 C 0.38526 0.64829 0.24488 0.0
C246 C 0.3997 0.63598 0.26991 0.0
C247 C 0.39513 0.605 0.28034 0.0
C248 C 0.3743 0.58699 0.26601 0.0
C249 C 0.35976 0.59939 0.2406 0.0
C250 C 0.29793 0.62788 0.14328 0.0
C251 C 0.26996 0.62356 0.15583 0.0
C252 C 0.05171 0.29088 0.56294 0.0
C253 C 0.04186 0.2663 0.58262 0.0
C254 C 0.04683 0.26785 0.6128 0.0
C255 C 0.06209 0.29311 0.62307 0.0
H256 H 0.06623 0.36631 0.69229 0.0
H257 H 0.06869 0.37856 0.74323 0.0
H258 H 0.16256 0.39387 0.73514 0.0
H259 H 0.15943 0.38382 0.6837 0.0
H260 H 0.13097 0.44171 0.58576 0.0
H261 H 0.1716 0.46996 0.56013 0.0
H262 H 0.21743 0.38437 0.55814 0.0
H263 H 0.1757 0.35653 0.58121 0.0
H264 H 0.07535 0.33411 0.55733 0.0
H265 H 0.04837 0.29014 0.53954 0.0
H266 H 0.0393 0.24925 0.62844 0.0
H267 H 0.06613 0.29325 0.64642 0.0
N268 N 0.09226 0.34764 0.64271 0.0
N269 N 0.12901 0.38595 0.63341 0.0
N270 N 0.11044 0.35881 0.59486 0.0
C271 C 0.11087 0.36944 0.65259 0.0
C272 C 0.12867 0.38093 0.60459 0.0
C273 C 0.09191 0.34224 0.6138 0.0
C274 C 0.11254 0.37446 0.68406 0.0
C275 C 0.08733 0.3722 0.70156 0.0
C276 C 0.0889 0.37898 0.73089 0.0
C277 C 0.11589 0.38733 0.7436 0.0
C278 C 0.14127 0.38834 0.72614 0.0
C279 C 0.13954 0.38238 0.69665 0.0
C280 C 0.1504 0.39712 0.58506 0.0
C281 C 0.14948 0.42911 0.57883 0.0
C282 C 0.17296 0.44524 0.56452 0.0
C283 C 0.19827 0.42974 0.55723 0.0
C284 C 0.19835 0.39735 0.56262 0.0
C285 C 0.17449 0.38122 0.57608 0.0
C286 C 0.0731 0.3171 0.60329 0.0
C287 C 0.06735 0.31593 0.57315 0.0
Co288 Co 0.98775 0.00825 0.49104 0.0
C289 C 0.01528 0.95175 0.4891 0.0
Co290 Co 0.03029 1.00515 0.51359 0.0
C291 C 0.92619 0.01672 0.48421 0.0
C292 C 0.94454 0.99764 0.44697 0.0
N293 N 0.95165 0.00809 0.47308 0.0
N294 N 0.90334 0.01192 0.46622 0.0
C295 C 0.91482 1.00003 0.44265 0.0
H296 H 0.92455 0.02635 0.50519 0.0
H297 H 0.95989 0.98833 0.43232 0.0
C298 C 1.00244 0.06151 0.51595 0.0
N299 N 0.06689 1.0061 0.53113 0.0
C300 C 0.08329 0.98302 0.54326 0.0
C301 C 0.08486 0.03138 0.52985 0.0
N302 N 0.11077 0.99305 0.5491 0.0
C303 C 0.11181 0.0234 0.54078 0.0
C304 C 0.03306 0.02821 0.45356 0.0
O305 O 0.98288 0.04969 0.50019 0.0
O306 O 0.0243 0.04568 0.52419 0.0
O307 O 0.04848 0.02185 0.47647 0.0
O308 O 1.00555 0.02323 0.45511 0.0
O309 O 0.03588 0.96448 0.50289 0.0
H310 H 0.07931 0.0539 0.51996 0.0
H311 H 0.07594 0.95908 0.54589 0.0
O312 O 0.99252 0.96678 0.4821 0.0
O313 O 0.96998 0.99365 0.52697 0.0
O314 O 1.01155 0.98858 0.55063 0.0
C315 C 0.98355 0.98619 0.55068 0.0
H316 H 0.90258 0.99285 0.42396 0.0
H317 H 0.13111 0.0384 0.54138 0.0
Co318 Co 0.50322 0.99879 0.98464 0.0
C319 C 0.49691 0.95712 0.03377 0.0
Co320 Co 0.52452 0.01496 0.02397 0.0
C321 C 0.49228 0.99027 0.92372 0.0
C322 C 0.45598 0.97509 0.95136 0.0
N323 N 0.48375 0.98651 0.95204 0.0
N324 N 0.4707 0.98214 0.90548 0.0
C325 C 0.4478 0.97264 0.92268 0.0
H326 H 0.51322 1.00045 0.9165 0.0
H327 H 0.44215 0.97017 0.97043 0.0
C328 C 0.53088 0.0568 0.97521 0.0
N329 N 0.54364 0.02747 0.05691 0.0
C330 C 0.53133 0.03469 0.08213 0.0
C331 C 0.57273 0.03203 0.06084 0.0
N332 N 0.5515 0.04352 0.10149 0.0
C333 C 0.57764 0.04172 0.08837 0.0
C334 C 0.5613 0.98131 0.98889 0.0
O335 O 0.51557 0.03645 0.96317 0.0
O336 O 0.53738 0.05213 1.00223 0.0
O337 O 0.55941 0.99502 0.01233 0.0
O338 O 0.53866 0.97974 0.97265 0.0
O339 O 0.51168 0.97794 0.04569 0.0
H340 H 0.58934 0.02905 0.04461 0.0
H341 H 0.50801 0.03349 0.08641 0.0
O342 O 0.49098 0.96113 1.00653 0.0
O343 O 0.46786 0.01806 0.99653 0.0
O344 O 0.48929 0.03457 0.03521 0.0
C345 C 0.46635 0.03241 0.01961 0.0
H346 H 0.42647 0.96537 0.91493 0.0
H347 H 0.59862 0.04789 0.0977 0.0
Co348 Co 0.5318 0.52412 0.5124 0.0
C349 C 0.49233 0.52962 0.46485 0.0
Co350 Co 0.48776 0.50385 0.52208 0.0
C351 C 0.59481 0.53303 0.51011 0.0
C352 C 0.57213 0.57069 0.48818 0.0
N353 N 0.56772 0.5431 0.50339 0.0
N354 N 0.61603 0.55327 0.49964 0.0
C355 C 0.60172 0.57698 0.48579 0.0
H356 H 0.59875 0.51133 0.52261 0.0
H357 H 0.5549 0.58521 0.4792 0.0
C358 C 0.52714 0.49785 0.5695 0.0
N359 N 0.45178 0.48491 0.53074 0.0
C360 C 0.42488 0.49636 0.5258 0.0
C361 C 0.4469 0.45544 0.54164 0.0
N362 N 0.40354 0.475 0.53276 0.0
C363 C 0.41723 0.44923 0.54271 0.0
C364 C 0.52736 0.4631 0.50215 0.0
O365 O 0.54485 0.51256 0.55164 0.0
O366 O 0.50109 0.49216 0.56099 0.0
O367 O 0.50125 0.46666 0.51016 0.0
O368 O 0.5454 0.48595 0.50048 0.0
O369 O 0.47458 0.51555 0.48303 0.0
H370 H 0.46386 0.43936 0.54801 0.0
H371 H 0.42102 0.51961 0.51657 0.0
O372 O 0.51842 0.53531 0.4732 0.0
O373 O 0.51803 0.56205 0.52477 0.0
O374 O 0.47457 0.54103 0.53441 0.0
C375 C 0.49195 0.56434 0.53381 0.0
H376 H 0.61179 0.5972 0.47414 0.0
H377 H 0.40648 0.42758 0.55042 0.0
Co378 Co 0.02285 0.50135 0.99219 0.0
C379 C 0.96337 0.48477 1.00582 0.0
Co380 Co 1.00595 0.51712 0.03334 0.0
C381 C 0.05749 0.4733 0.94815 0.0
C382 C 0.01475 0.48698 0.93357 0.0
N383 N 0.03315 0.48703 0.95678 0.0
N384 N 0.05442 0.46427 0.92074 0.0
C385 C 0.02766 0.47284 0.91154 0.0
H386 H 0.07666 0.46937 0.96182 0.0
H387 H 0.99305 0.49635 0.93283 0.0
C388 C 0.06531 0.53366 0.02005 0.0
N389 N 0.99512 0.53268 0.06823 0.0
C390 C 0.98777 0.51841 0.09472 0.0
C391 C 0.99641 0.56297 0.07252 0.0
N392 N 0.98429 0.53877 0.11517 0.0
C393 C 0.98969 0.56676 0.10108 0.0
C394 C 0.03229 0.45946 0.04075 0.0
O395 O 0.06087 0.52025 0.99664 0.0
O396 O 0.04433 0.53501 0.03807 0.0
O397 O 0.01887 0.47947 0.05408 0.0
O398 O 0.03631 0.46426 0.01318 0.0
O399 O 0.96775 0.499 0.02872 0.0
H400 H 1.00321 0.58126 0.05631 0.0
H401 H 0.98576 0.49362 0.09906 0.0
O402 O 0.98452 0.48268 0.98817 0.0
O403 O 1.00965 0.5383 0.97132 0.0
O404 O 0.99283 0.55453 0.01166 0.0
C405 C 0.99648 0.55872 0.98407 0.0
H406 H 0.01829 0.4693 0.89024 0.0
H407 H 0.99039 0.58847 0.11104 0.0
H408 H 0.15008 0.07085 0.32208 0.0
H409 H 0.08313 0.13015 0.28262 0.0
H410 H 0.05081 0.11572 0.3244 0.0
H411 H 0.10153 0.01056 0.3535 0.0
H412 H 0.12168 1.00368 0.38728 0.0
H413 H 0.14051 0.0184 0.35426 0.0
H414 H 0.16072 0.06494 0.38057 0.0
H415 H 0.14201 0.0503 0.41372 0.0
H416 H 0.1356 0.08887 0.39798 0.0
H417 H 0.02406 0.09342 0.36816 0.0
H418 H 1.00543 0.06719 0.4143 0.0
H419 H 0.08937 0.02431 0.42987 0.0
C420 C 0.12873 0.081 0.32233 0.0
C421 C 0.11912 0.10115 0.29827 0.0
C422 C 0.09093 0.11387 0.2999 0.0
C423 C 0.07234 0.10604 0.32381 0.0
C424 C 0.08212 0.08573 0.34662 0.0
C425 C 0.10973 0.07361 0.34647 0.0
C426 C 0.11443 0.05243 0.37437 0.0
C427 C 0.11986 0.0193 0.3669 0.0
C428 C 0.13969 0.06488 0.39275 0.0
C429 C 0.08504 0.05444 0.38984 0.0
C430 C 0.06683 0.07371 0.37311 0.0
C431 C 0.0382 0.07851 0.38161 0.0
C432 C 0.02776 0.06334 0.40789 0.0
C433 C 0.04585 0.04371 0.42592 0.0
C434 C 0.07508 0.0394 0.41679 0.0
H435 H 0.51333 0.94634 0.74477 0.0
H436 H 0.43664 0.99743 0.71586 0.0
H437 H 0.43125 0.01473 0.76512 0.0
H438 H 0.48536 0.91752 0.81131 0.0
H439 H 0.51874 0.92038 0.83223 0.0
H440 H 0.52041 0.91633 0.79346 0.0
H441 H 0.55273 0.96625 0.78597 0.0
H442 H 0.55141 0.9703 0.82487 0.0
H443 H 0.54012 1.00141 0.79919 0.0
H444 H 0.42823 0.01884 0.81828 0.0
H445 H 0.43074 0.01299 0.87251 0.0
H446 H 0.50969 0.9609 0.86827 0.0
C447 C 0.49587 0.96179 0.74865 0.0
C448 C 0.47569 0.97081 0.7262 0.0
C449 C 0.45293 0.99082 0.7323 0.0
C450 C 0.44951 1.00066 0.76035 0.0
C451 C 0.46914 0.99056 0.78215 0.0
C452 C 0.49217 0.97197 0.77664 0.0
C453 C 0.50859 0.96239 0.80469 0.0
C454 C 0.50823 0.92706 0.81077 0.0
C455 C 0.54008 0.9759 0.80361 0.0
C456 C 0.49028 0.97729 0.82688 0.0
C457 C 0.46776 0.99361 0.81328 0.0
C458 C 0.44617 1.00683 0.82918 0.0
C459 C 0.44759 1.00324 0.85983 0.0
C460 C 0.47052 0.98683 0.87414 0.0
C461 C 0.49237 0.9741 0.85754 0.0
H462 H 0.63756 0.46541 0.70603 0.0
H463 H 0.56757 0.40725 0.74682 0.0
H464 H 0.53576 0.42039 0.70455 0.0
H465 H 0.59174 0.52491 0.67246 0.0
H466 H 0.61266 0.53058 0.639 0.0
H467 H 0.63038 0.51742 0.67285 0.0
H468 H 0.64886 0.46981 0.64884 0.0
H469 H 0.6313 0.4829 0.61489 0.0
H470 H 0.62288 0.44482 0.63186 0.0
H471 H 0.51094 0.43945 0.65858 0.0
H472 H 0.49524 0.46168 0.61002 0.0
H473 H 0.58101 0.50644 0.59658 0.0
C474 C 0.6156 0.45536 0.70604 0.0
C475 C 0.60504 0.43575 0.73033 0.0
C476 C 0.57608 0.42309 0.72917 0.0
C477 C 0.55779 0.4302 0.70505 0.0
C478 C 0.56867 0.44984 0.68182 0.0
C479 C 0.59692 0.46211 0.68187 0.0
C480 C 0.60304 0.48216 0.65355 0.0
C481 C 0.60986 0.51576 0.65985 0.0
C482 C 0.628 0.46913 0.63626 0.0
C483 C 0.57383 0.47913 0.63774 0.0
C484 C 0.55436 0.46045 0.65464 0.0
C485 C 0.52599 0.4541 0.64509 0.0
C486 C 0.51725 0.46695 0.61743 0.0
C487 C 0.53679 0.48592 0.59936 0.0
C488 C 0.56549 0.49212 0.60983 0.0
H489 H 0.95546 0.59177 0.27267 0.0
H490 H 0.98866 0.50473 0.30978 0.0
H491 H 0.99235 0.48699 0.25971 0.0
H492 H 0.91197 0.5601 0.21475 0.0
H493 H 0.91983 0.59287 0.18895 0.0
H494 H 0.91878 0.59765 0.22768 0.0
H495 H 0.97143 0.6218 0.22512 0.0
H496 H 0.97256 0.61726 0.18641 0.0
H497 H 1.00055 0.60076 0.21026 0.0
H498 H 0.99558 0.48095 0.20447 0.0
H499 H 0.99816 0.48728 0.15019 0.0
H500 H 0.95988 0.5772 0.151 0.0
C501 C 0.96356 0.56898 0.27025 0.0
C502 C 0.97211 0.5497 0.29491 0.0
C503 C 0.98207 0.51982 0.29102 0.0
C504 C 0.98418 0.50959 0.26274 0.0
C505 C 0.9757 0.52936 0.23878 0.0
C506 C 0.96538 0.55835 0.2424 0.0
C507 C 0.95816 0.57557 0.21336 0.0
C508 C 0.92523 0.58191 0.21106 0.0
C509 C 0.97679 0.60561 0.20851 0.0
C510 C 0.96684 0.55218 0.19265 0.0
C511 C 0.97675 0.52556 0.20754 0.0
C512 C 0.98748 0.50155 0.19263 0.0
C513 C 0.98871 0.50525 0.16178 0.0
C514 C 0.97933 0.5328 0.14628 0.0
C515 C 0.96753 0.55601 0.16211 0.0
H516 H 0.3489 0.10342 0.12601 0.0
H517 H 0.28857 0.10602 0.05232 0.0
H518 H 0.32618 0.08446 0.02206 0.0
H519 H 0.41408 0.12525 0.08316 0.0
H520 H 0.43788 0.10017 0.10501 0.0
H521 H 0.40615 0.11534 0.12144 0.0
H522 H 0.38787 0.0599 0.13842 0.0
H523 H 0.4196 0.04463 0.12207 0.0
H524 H 0.38337 0.03184 0.11178 0.0
H525 H 0.36986 0.06173 0.99954 0.0
H526 H 0.41711 0.04085 0.98596 0.0
H527 H 0.451 0.05395 0.07302 0.0
C528 C 0.34358 0.09929 0.10355 0.0
C529 C 0.31557 0.10667 0.09162 0.0
C530 C 0.30978 0.10106 0.06199 0.0
C531 C 0.33103 0.08862 0.0446 0.0
C532 C 0.35836 0.08191 0.05686 0.0
C533 C 0.36482 0.08712 0.08562 0.0
C534 C 0.39624 0.07825 0.09305 0.0
C535 C 0.41467 0.10643 0.10114 0.0
C536 C 0.39679 0.0521 0.1178 0.0
C537 C 0.40629 0.06719 0.06404 0.0
C538 C 0.38394 0.06938 0.04357 0.0
C539 C 0.38754 0.06006 0.01538 0.0
C540 C 0.41456 0.04817 1.00785 0.0
C541 C 0.43805 0.04581 0.02823 0.0
C542 C 0.4337 0.05564 0.05675 0.0
H543 H 0.27772 0.95225 0.5445 0.0
H544 H 0.26528 0.90037 0.62878 0.0
H545 H 0.21181 0.90861 0.62544 0.0
H546 H 0.22827 0.00971 0.55722 0.0
H547 H 0.21528 0.0147 0.5199 0.0
H548 H 0.25168 1.00136 0.52741 0.0
H549 H 0.24013 0.95305 0.49936 0.0
H550 H 0.2036 0.96626 0.49179 0.0
H551 H 0.20885 0.92845 0.50996 0.0
H552 H 0.15978 0.92446 0.61336 0.0
H553 H 0.11468 0.95107 0.59588 0.0
H554 H 0.16254 0.99476 0.52143 0.0
C555 C 0.26357 0.94219 0.56193 0.0
C556 C 0.27527 0.92543 0.58672 0.0
C557 C 0.25645 0.9132 0.60958 0.0
C558 C 0.22615 0.91761 0.60777 0.0
C559 C 0.21523 0.9345 0.58307 0.0
C560 C 0.23345 0.94682 0.56069 0.0
C561 C 0.21681 0.96647 0.53786 0.0
C562 C 0.22872 1.00004 0.53548 0.0
C563 C 0.21738 0.95273 0.50798 0.0
C564 C 0.1865 0.96379 0.55111 0.0
C565 C 0.18578 0.94474 0.57685 0.0
C566 C 0.16008 0.93934 0.59318 0.0
C567 C 0.13464 0.95436 0.58316 0.0
C568 C 0.13551 0.97488 0.55755 0.0
C569 C 0.16158 0.97921 0.54118 0.0
H570 H 0.83757 0.42387 0.90012 0.0
H571 H 0.77869 0.419 0.97468 0.0
H572 H 0.81885 0.43741 1.00572 0.0
H573 H 0.90111 0.3972 0.94064 0.0
H574 H 0.9266 0.42242 0.91953 0.0
H575 H 0.89309 0.40951 0.9029 0.0
H576 H 0.87944 0.46622 0.88899 0.0
H577 H 0.91297 0.47926 0.90547 0.0
H578 H 0.87831 0.49273 0.91719 0.0
H579 H 0.86547 0.4574 0.02868 0.0
H580 H 0.91517 0.47608 0.04177 0.0
H581 H 0.94421 0.46613 0.95289 0.0
C582 C 0.8331 0.42691 0.92292 0.0
C583 C 0.80492 0.41995 0.93495 0.0
C584 C 0.80012 0.42389 0.96501 0.0
C585 C 0.82278 0.43446 0.98282 0.0
C586 C 0.85034 0.44085 0.97039 0.0
C587 C 0.85563 0.43713 0.94115 0.0
C588 C 0.88741 0.44511 0.9334 0.0
C589 C 0.90296 0.41687 0.92354 0.0
C590 C 0.88965 0.47246 0.90987 0.0
C591 C 0.89907 0.45399 0.96277 0.0
C592 C 0.87732 0.45154 0.9838 0.0
C593 C 0.88272 0.45924 0.0124 0.0
C594 C 0.91103 0.46982 0.01967 0.0
C595 C 0.93373 0.47237 0.99851 0.0
C596 C 0.92751 0.46413 0.96974 0.0
H597 H 0.78123 0.61096 0.48023 0.0
H598 H 0.8061 0.51538 0.49396 0.0
H599 H 0.75451 0.4999 0.5049 0.0
H600 H 0.72435 0.60714 0.53792 0.0
H601 H 0.70112 0.63291 0.51613 0.0
H602 H 0.74037 0.63649 0.51222 0.0
H603 H 0.73508 0.63123 0.45638 0.0
H604 H 0.69592 0.62734 0.46013 0.0
H605 H 0.71587 0.59796 0.44392 0.0
H606 H 0.69947 0.4946 0.51004 0.0
H607 H 0.64583 0.49995 0.50942 0.0
H608 H 0.6578 0.5993 0.49416 0.0
C609 C 0.77604 0.58686 0.48636 0.0
C610 C 0.79775 0.5644 0.48635 0.0
C611 C 0.7898 0.53298 0.49364 0.0
C612 C 0.7606 0.52399 0.50006 0.0
C613 C 0.73967 0.54671 0.4993 0.0
C614 C 0.74709 0.57753 0.49286 0.0
C615 C 0.72032 0.59725 0.49179 0.0
C616 C 0.72162 0.61977 0.51596 0.0
C617 C 0.71659 0.61444 0.46124 0.0
C618 C 0.69656 0.57264 0.49787 0.0
C619 C 0.70811 0.54367 0.5024 0.0
C620 C 0.6902 0.51724 0.50697 0.0
C621 C 0.6597 0.52054 0.50668 0.0
C622 C 0.64738 0.55006 0.50175 0.0
C623 C 0.66629 0.57636 0.49772 0.0
H624 H 0.13857 0.31634 0.07724 0.0
H625 H 0.08498 0.29273 0.1547 0.0
H626 H 0.05427 0.33694 0.14122 0.0
H627 H 0.13536 0.39849 0.07684 0.0
H628 H 0.13203 0.40532 0.03756 0.0
H629 H 0.15068 0.37193 0.05325 0.0
H630 H 0.11595 0.33651 0.02524 0.0
H631 H 0.09727 0.36982 1.00938 0.0
H632 H 0.07687 0.33895 0.02952 0.0
H633 H 0.03031 0.3854 0.12113 0.0
H634 H 1.01233 0.43213 0.09315 0.0
H635 H 0.07768 0.42277 0.02609 0.0
C636 C 0.12025 0.32017 0.09129 0.0
C637 C 0.11501 0.30101 0.11762 0.0
C638 C 0.09055 0.30732 0.13508 0.0
C639 C 0.0726 0.33237 0.12744 0.0
C640 C 0.07871 0.35097 0.10184 0.0
C641 C 0.10165 0.34499 0.08373 0.0
C642 C 0.10284 0.36843 0.05705 0.0
C643 C 0.13196 0.38715 0.05613 0.0
C644 C 0.09794 0.35247 0.02861 0.0
C645 C 0.07719 0.38853 0.06321 0.0
C646 C 0.06378 0.37813 0.08934 0.0
C647 C 0.04042 0.39353 0.10045 0.0
C648 C 0.03038 0.42015 0.08442 0.0
C649 C 0.0433 0.43104 0.05726 0.0
C650 C 0.06701 0.41481 0.04656 0.0
H651 H 0.617 0.21963 0.94518 0.0
H652 H 0.59268 0.21679 0.8535 0.0
H653 H 0.56641 0.16712 0.86527 0.0
H654 H 0.62938 0.13766 0.95883 0.0
H655 H 0.61474 0.13525 0.99553 0.0
H656 H 0.63165 0.17078 0.97999 0.0
H657 H 0.58442 0.19969 0.99015 0.0
H658 H 0.56733 0.16421 1.00557 0.0
H659 H 0.5499 0.18648 0.97574 0.0
H660 H 0.54224 0.11802 0.88676 0.0
H661 H 0.52304 0.07196 0.91644 0.0
H662 H 0.56365 0.10559 0.99417 0.0
C663 C 0.60639 0.20845 0.92752 0.0
C664 C 0.60674 0.22243 0.89841 0.0
C665 C 0.59229 0.207 0.87606 0.0
C666 C 0.57743 0.17862 0.88248 0.0
C667 C 0.57722 0.16571 0.91138 0.0
C668 C 0.59143 0.17998 0.93354 0.0
C669 C 0.58781 0.16099 0.96276 0.0
C670 C 0.61767 0.15055 0.97499 0.0
C671 C 0.57138 0.17892 0.98485 0.0
C672 C 0.56934 0.13389 0.9535 0.0
C673 C 0.56346 0.13714 0.92377 0.0
C674 C 0.54674 0.11519 0.91007 0.0
C675 C 0.53587 0.0891 0.92716 0.0
C676 C 0.54176 0.08507 0.95768 0.0
C677 C 0.5587 0.10793 0.97092 0.0
H678 H 0.95239 0.78251 0.47127 0.0
H679 H 0.03629 0.76192 0.43371 0.0
H680 H 0.05508 0.81368 0.44313 0.0
H681 H 0.95099 0.85931 0.43638 0.0
H682 H 0.9327 0.87447 0.46669 0.0
H683 H 0.92679 0.83469 0.45964 0.0
H684 H 0.94284 0.8177 0.51285 0.0
H685 H 0.94894 0.85742 0.52003 0.0
H686 H 0.97808 0.83052 0.5259 0.0
H687 H 0.06509 0.86818 0.45776 0.0
H688 H 0.0633 0.92223 0.47108 0.0
H689 H 0.97108 0.90857 0.492 0.0
C690 C 0.97461 0.78866 0.46452 0.0
C691 C 0.99275 0.76744 0.45192 0.0
C692 C 0.02194 0.777 0.44418 0.0
C693 C 0.03285 0.8066 0.4492 0.0
C694 C 0.01421 0.82678 0.46144 0.0
C695 C 0.98557 0.81833 0.46852 0.0
C696 C 0.96934 0.84485 0.47961 0.0
C697 C 0.94343 0.85386 0.45937 0.0
C698 C 0.95921 0.83715 0.51149 0.0
C699 C 0.99335 0.86959 0.47767 0.0
C700 C 0.01928 0.85863 0.4677 0.0
C701 C 0.04481 0.87709 0.46527 0.0
C702 C 0.04365 0.90764 0.47292 0.0
C703 C 0.01699 0.91945 0.48213 0.0
C704 C 0.99162 0.90015 0.48454 0.0
H705 H 0.50128 0.74305 0.563 0.0
H706 H 0.40941 0.73363 0.58688 0.0
H707 H 0.41005 0.67797 0.5804 0.0
H708 H 0.49763 0.69201 0.50656 0.0
H709 H 0.53298 0.67568 0.51409 0.0
H710 H 0.52624 0.71439 0.52289 0.0
H711 H 0.54143 0.70011 0.57688 0.0
H712 H 0.54836 0.66136 0.56819 0.0
H713 H 0.52342 0.6678 0.59737 0.0
H714 H 0.41955 0.62466 0.56915 0.0
H715 H 0.43739 0.57582 0.55354 0.0
H716 H 0.5232 0.61915 0.53597 0.0
C717 C 0.48152 0.72906 0.56726 0.0
C718 C 0.45528 0.74242 0.57539 0.0
C719 C 0.42964 0.72369 0.58043 0.0
C720 C 0.42982 0.69211 0.57694 0.0
C721 C 0.45583 0.67967 0.56838 0.0
C722 C 0.48125 0.69742 0.56361 0.0
C723 C 0.50577 0.67836 0.5531 0.0
C724 C 0.51626 0.69086 0.52233 0.0
C725 C 0.53125 0.67682 0.57521 0.0
C726 C 0.48997 0.64732 0.55237 0.0
C727 C 0.46127 0.64863 0.56149 0.0
C728 C 0.44203 0.62321 0.56213 0.0
C729 C 0.45239 0.59559 0.55315 0.0
C730 C 0.4817 0.59365 0.54356 0.0
C731 C 0.50071 0.61989 0.54327 0.0
H732 H 0.94433 0.92172 0.71842 0.0
H733 H 0.85309 0.931 0.69261 0.0
H734 H 0.86855 0.9509 0.64305 0.0
H735 H 0.97218 0.99056 0.67552 0.0
H736 H 1.00572 0.97346 0.66524 0.0
H737 H 0.98797 0.96028 0.69933 0.0
H738 H 0.98641 0.90443 0.68387 0.0
H739 H 1.00413 0.91744 0.64973 0.0
H740 H 0.96952 0.89644 0.6495 0.0
H741 H 0.89274 0.96855 0.59626 0.0
H742 H 0.92424 0.98436 0.55434 0.0
H743 H 1.00149 0.96451 0.60782 0.0
C744 C 0.92757 0.92788 0.70235 0.0
C745 C 0.89729 0.92497 0.70989 0.0
C746 C 0.87631 0.93354 0.68797 0.0
C747 C 0.8849 0.94467 0.65953 0.0
C748 C 0.91468 0.94725 0.65293 0.0
C749 C 0.93582 0.93922 0.67359 0.0
C750 C 0.96639 0.94437 0.66024 0.0
C751 C 0.98411 0.96861 0.67603 0.0
C752 C 0.98257 0.91385 0.66088 0.0
C753 C 0.95901 0.95641 0.62884 0.0
C754 C 0.92895 0.95772 0.62539 0.0
C755 C 0.91629 0.96768 0.59872 0.0
C756 C 0.93461 0.97663 0.57489 0.0
C757 C 0.96565 0.97582 0.57739 0.0
C758 C 0.97797 0.9655 0.60498 0.0
H759 H 0.58691 0.06821 0.26687 0.0
H760 H 0.52242 0.13999 0.26124 0.0
H761 H 0.50815 0.12561 0.21201 0.0
H762 H 0.61232 0.08459 0.19486 0.0
H763 H 0.61931 0.04503 0.18904 0.0
H764 H 0.62115 0.05763 0.22549 0.0
H765 H 0.58296 0.01494 0.24328 0.0
H766 H 0.58099 1.00219 0.20682 0.0
H767 H 0.54811 0.01266 0.22478 0.0
H768 H 0.50278 0.10496 0.16208 0.0
H769 H 0.50968 0.0828 0.11445 0.0
H770 H 0.58139 0.02932 0.15147 0.0
C771 C 0.56983 0.08114 0.25544 0.0
C772 C 0.55585 0.10531 0.26818 0.0
C773 C 0.53317 0.12099 0.25238 0.0
C774 C 0.52498 0.11309 0.22428 0.0
C775 C 0.53983 0.08967 0.21221 0.0
C776 C 0.56194 0.07412 0.22724 0.0
C777 C 0.57646 0.05192 0.20855 0.0
C778 C 0.60924 0.06031 0.20423 0.0
C779 C 0.57184 0.01845 0.22164 0.0
C780 C 0.55946 0.05782 0.18035 0.0
C781 C 0.53795 0.07912 0.18305 0.0
C782 C 0.51952 0.08825 0.15975 0.0
C783 C 0.52352 0.07557 0.13289 0.0
C784 C 0.54614 0.05461 0.12954 0.0
C785 C 0.56412 0.0455 0.15361 0.0
H786 H 0.37912 0.57158 0.33266 0.0
H787 H 0.45441 0.60886 0.28256 0.0
H788 H 0.48712 0.59154 0.32326 0.0
H789 H 0.40426 0.59373 0.40179 0.0
H790 H 0.39052 0.55959 0.42295 0.0
H791 H 0.37277 0.57264 0.38911 0.0
H792 H 0.37966 0.51929 0.36936 0.0
H793 H 0.39733 0.50605 0.40323 0.0
H794 H 0.41581 0.50376 0.36876 0.0
H795 H 0.51162 0.57348 0.36987 0.0
H796 H 0.52675 0.55464 0.41978 0.0
H797 H 0.43632 0.52841 0.44113 0.0
C798 C 0.40254 0.57554 0.33017 0.0
C799 C 0.41423 0.59162 0.30441 0.0
C800 C 0.44496 0.59679 0.30213 0.0
C801 C 0.46375 0.58696 0.3251 0.0
C802 C 0.4516 0.57184 0.35041 0.0
C803 C 0.42176 0.56596 0.35316 0.0
C804 C 0.41458 0.55038 0.38342 0.0
C805 C 0.39433 0.57028 0.40031 0.0
C806 C 0.40104 0.51794 0.38104 0.0
C807 C 0.44496 0.54886 0.39721 0.0
C808 C 0.46593 0.56128 0.37763 0.0
C809 C 0.49543 0.56345 0.38534 0.0
C810 C 0.50381 0.55271 0.41383 0.0
C811 C 0.48283 0.53987 0.43447 0.0
C812 C 0.45298 0.53783 0.42585 0.0
H813 H 0.08162 0.36536 0.79076 0.0
H814 H 0.1525 0.43109 0.76616 0.0
H815 H 0.15132 0.44976 0.81534 0.0
H816 H 0.04068 0.41708 0.82295 0.0
H817 H 0.02568 0.39027 0.85159 0.0
H818 H 0.0372 0.37655 0.81766 0.0
H819 H 0.07163 0.33835 0.84637 0.0
H820 H 0.06032 0.35229 0.88049 0.0
H821 H 0.09865 0.3527 0.87109 0.0
H822 H 0.1375 0.46725 0.86406 0.0
H823 H 0.10868 0.48514 0.90496 0.0
H824 H 0.04463 0.41154 0.89585 0.0
C825 C 0.09722 0.38339 0.79569 0.0
C826 C 0.11731 0.39642 0.77436 0.0
C827 C 0.13736 0.41995 0.78211 0.0
C828 C 0.13685 0.43084 0.81012 0.0
C829 C 0.11614 0.41811 0.83024 0.0
C830 C 0.09658 0.39497 0.82328 0.0
C831 C 0.07343 0.38861 0.84674 0.0
C832 C 0.04244 0.39345 0.83397 0.0
C833 C 0.07619 0.35605 0.86208 0.0
C834 C 0.08203 0.41297 0.86716 0.0
C835 C 0.10735 0.42903 0.8579 0.0
C836 C 0.11802 0.45442 0.87189 0.0
C837 C 0.10172 0.46435 0.89513 0.0
C838 C 0.07488 0.44931 0.9035 0.0
C839 C 0.06551 0.42279 0.89004 0.0
H840 H 0.68414 0.91406 0.8854 0.0
H841 H 0.74078 0.90939 0.96203 0.0
H842 H 0.70147 0.92954 0.99108 0.0
H843 H 0.64832 0.98485 0.90016 0.0
H844 H 0.61274 0.97236 0.88773 0.0
H845 H 0.64536 0.95782 0.87242 0.0
H846 H 0.62671 0.90193 0.88685 0.0
H847 H 0.59408 0.91635 0.90227 0.0
H848 H 0.61702 0.89066 0.92449 0.0
H849 H 0.65668 0.95087 0.01221 0.0
H850 H 0.60884 0.97114 0.02433 0.0
H851 H 0.579 0.96156 0.93518 0.0
C852 C 0.6883 0.91744 0.90825 0.0
C853 C 0.71577 0.90981 0.92136 0.0
C854 C 0.72001 0.91448 0.95144 0.0
C855 C 0.69778 0.92612 0.96817 0.0
C856 C 0.67103 0.93306 0.95477 0.0
C857 C 0.66605 0.92887 0.92552 0.0
C858 C 0.63492 0.93791 0.91687 0.0
C859 C 0.63537 0.96484 0.89287 0.0
C860 C 0.61713 0.91005 0.90704 0.0
C861 C 0.62335 0.94787 0.94578 0.0
C862 C 0.64472 0.94495 0.96724 0.0
C863 C 0.63976 0.95314 0.99559 0.0
C864 C 0.61238 0.9647 1.00227 0.0
C865 C 0.58984 0.96792 0.98088 0.0
C866 C 0.59553 0.95917 0.95219 0.0
H867 H 0.7431 0.06049 0.4202 0.0
H868 H 0.72282 0.06157 0.51271 0.0
H869 H 0.77227 0.04252 0.52538 0.0
H870 H 0.78711 0.99126 0.42638 0.0
H871 H 0.81244 0.00688 0.39847 0.0
H872 H 0.77477 0.01816 0.39711 0.0
H873 H 0.79176 0.07561 0.39589 0.0
H874 H 0.82942 0.06453 0.39742 0.0
H875 H 0.81545 0.08803 0.42455 0.0
H876 H 0.82489 0.026 0.52747 0.0
H877 H 0.87638 0.01348 0.51903 0.0
H878 H 0.86155 0.0244 0.42496 0.0
C879 C 0.74874 0.05597 0.44316 0.0
C880 C 0.72908 0.06214 0.46552 0.0
C881 C 0.73763 0.05694 0.49528 0.0
C882 C 0.76556 0.04602 0.50265 0.0
C883 C 0.78453 0.04051 0.47997 0.0
C884 C 0.77642 0.04524 0.45084 0.0
C885 C 0.80127 0.0393 0.43052 0.0
C886 C 0.79343 0.01229 0.41204 0.0
C887 C 0.80998 0.06861 0.41096 0.0
C888 C 0.82485 0.03082 0.45276 0.0
C889 C 0.81478 0.03145 0.48116 0.0
C890 C 0.83297 0.02533 0.50533 0.0
C891 C 0.86225 0.0185 0.50029 0.0
C892 C 0.87306 0.01803 0.4713 0.0
C893 C 0.85391 0.0241 0.44735 0.0
H894 H 0.19683 0.57702 0.12673 0.0
H895 H 0.2432 0.61763 0.04933 0.0
H896 H 0.20251 0.60171 0.01836 0.0
H897 H 0.16224 0.51312 0.09481 0.0
H898 H 0.12795 0.51593 0.11366 0.0
H899 H 0.16158 0.52883 0.13005 0.0
H900 H 0.14001 0.58268 0.13421 0.0
H901 H 0.10628 0.56988 0.11794 0.0
H902 H 0.12577 0.6037 0.10185 0.0
H903 H 0.15696 0.57952 0.99492 0.0
H904 H 0.10819 0.55776 0.98214 0.0
H905 H 0.0891 0.53754 0.07467 0.0
C906 C 0.19857 0.58298 0.10335 0.0
C907 C 0.2241 0.59814 0.09084 0.0
C908 C 0.22482 0.60504 0.05987 0.0
C909 C 0.20151 0.59637 0.04188 0.0
C910 C 0.177 0.58132 0.05497 0.0
C911 C 0.17514 0.57516 0.08505 0.0
C912 C 0.14571 0.56 0.09367 0.0
C913 C 0.14962 0.52755 0.10895 0.0
C914 C 0.12842 0.58028 0.11306 0.0
C915 C 0.13143 0.55852 0.06375 0.0
C916 C 0.15 0.57052 0.04165 0.0
C917 C 0.1421 0.5704 0.0121 0.0
C918 C 0.11442 0.55794 1.005 0.0
C919 C 0.09473 0.54636 0.02736 0.0
C920 C 0.10349 0.54673 0.05709 0.0
H921 H 0.24199 0.41124 0.52152 0.0
H922 H 0.21753 0.48744 0.57116 0.0
H923 H 0.26579 0.51221 0.5613 0.0
H924 H 0.30842 0.40347 0.55426 0.0
H925 H 0.32779 0.39249 0.52266 0.0
H926 H 0.28902 0.38486 0.52587 0.0
H927 H 0.28064 0.41525 0.47546 0.0
H928 H 0.31956 0.42286 0.472 0.0
H929 H 0.29469 0.45437 0.4692 0.0
H930 H 0.31906 0.52507 0.55302 0.0
H931 H 0.37315 0.52255 0.54999 0.0
H932 H 0.36422 0.43522 0.5116 0.0
C933 C 0.24643 0.43335 0.53003 0.0
C934 C 0.22551 0.44722 0.54705 0.0
C935 C 0.23254 0.47643 0.55737 0.0
C936 C 0.26013 0.49075 0.55201 0.0
C937 C 0.28064 0.47559 0.53648 0.0
C938 C 0.27412 0.44746 0.52568 0.0
C939 C 0.30121 0.43347 0.514 0.0
C940 C 0.30694 0.40172 0.53018 0.0
C941 C 0.29888 0.43138 0.48068 0.0
C942 C 0.32421 0.45733 0.52132 0.0
C943 C 0.31182 0.48201 0.53331 0.0
C944 C 0.32896 0.50609 0.54327 0.0
C945 C 0.35955 0.50453 0.54149 0.0
C946 C 0.3725 0.47868 0.53064 0.0
C947 C 0.35461 0.45518 0.51994 0.0
H948 H 0.90784 0.71617 0.95095 0.0
H949 H 0.92788 0.70914 0.85903 0.0
H950 H 0.95455 0.66173 0.87219 0.0
H951 H 0.97663 0.68866 0.98002 0.0
H952 H 0.96088 0.6668 0.01162 0.0
H953 H 0.94283 0.70035 0.99541 0.0
H954 H 0.89533 0.6676 0.98911 0.0
H955 H 0.9132 0.63398 1.00545 0.0
H956 H 0.89668 0.63333 0.96963 0.0
H957 H 0.97985 0.61567 0.89459 0.0
H958 H 1.00081 0.57236 0.92489 0.0
H959 H 0.9646 0.60699 1.00304 0.0
C960 C 0.91763 0.70452 0.93359 0.0
C961 C 0.91598 0.71691 0.90388 0.0
C962 C 0.92928 0.70078 0.88196 0.0
C963 C 0.94439 0.67361 0.88919 0.0
C964 C 0.94607 0.66238 0.91854 0.0
C965 C 0.93295 0.67711 0.94046 0.0
C966 C 0.93826 0.65978 0.97029 0.0
C967 C 0.95569 0.68012 0.99053 0.0
C968 C 0.90913 0.64797 0.98445 0.0
C969 C 0.95644 0.63319 0.96161 0.0
C970 C 0.96063 0.63531 0.9316 0.0
C971 C 0.97667 0.61373 0.91811 0.0
C972 C 0.98859 0.58916 0.93562 0.0
C973 C 0.98453 0.58607 0.96647 0.0
C974 C 0.96824 0.60862 0.97957 0.0
H975 H 0.41068 0.79459 0.06934 0.0
H976 H 0.43334 0.80292 0.16076 0.0
H977 H 0.45957 0.85207 0.14696 0.0
H978 H 0.47815 0.82661 0.03838 0.0
H979 H 0.46119 0.84738 1.00733 0.0
H980 H 0.4439 0.81256 0.02404 0.0
H981 H 0.39645 0.84199 0.03191 0.0
H982 H 0.41354 0.87685 0.01507 0.0
H983 H 0.39828 0.87631 0.05141 0.0
H984 H 0.4841 0.89962 0.12385 0.0
H985 H 0.50379 0.94431 0.0928 0.0
H986 H 0.46462 0.9071 0.016 0.0
C987 C 0.42094 0.80688 0.08647 0.0
C988 C 0.42023 0.79449 0.11614 0.0
C989 C 0.4341 0.81139 0.13781 0.0
C990 C 0.44894 0.83951 0.13024 0.0
C991 C 0.44964 0.85077 0.10087 0.0
C992 C 0.43587 0.83521 0.07929 0.0
C993 C 0.43996 0.85279 0.04937 0.0
C994 C 0.4568 0.83369 0.02856 0.0
C995 C 0.41029 0.86257 0.03617 0.0
C996 C 0.45824 0.88052 0.05761 0.0
C997 C 0.46356 0.87873 0.08745 0.0
C998 C 0.48003 0.90135 0.10045 0.0
C999 C 0.49118 0.92665 0.08256 0.0
C1000 C 0.48583 0.92932 0.0519 0.0
C1001 C 0.46916 0.90577 0.03933 0.0
H1002 H 0.05698 0.20697 0.59712 0.0
H1003 H 0.9976 0.26233 0.54214 0.0
H1004 H 0.97806 0.21513 0.52122 0.0
H1005 H 0.07541 0.15761 0.54377 0.0
H1006 H 0.07793 0.12373 0.56904 0.0
H1007 H 0.08485 0.1613 0.58167 0.0
H1008 H 0.04501 0.15031 0.62173 0.0
H1009 H 0.03803 0.11259 0.60928 0.0
H1010 H 1.00844 0.13884 0.61126 0.0
H1011 H 0.96672 0.16156 0.50491 0.0
H1012 H 0.96647 0.10709 0.49287 0.0
H1013 H 0.03473 0.08821 0.5577 0.0
C1014 C 0.03938 0.20905 0.58117 0.0
C1015 C 0.02848 0.23814 0.57148 0.0
C1016 C 1.00612 0.24015 0.54989 0.0
C1017 C 0.99484 0.2135 0.53802 0.0
C1018 C 1.00633 0.18513 0.54786 0.0
C1019 C 0.02819 0.18283 0.5689 0.0
C1020 C 0.03839 0.15012 0.57427 0.0
C1021 C 0.07107 0.14809 0.56673 0.0
C1022 C 0.03208 0.13721 0.60602 0.0
C1023 C 0.01914 0.13438 0.55271 0.0
C1024 C 1.0005 0.15476 0.53791 0.0
C1025 C 0.98114 0.14538 0.51647 0.0
C1026 C 0.98112 0.11444 0.5098 0.0
C1027 C 1.00061 0.09347 0.52429 0.0
C1028 C 0.01958 0.10367 0.54619 0.0
H1029 H 0.58485 0.3157 0.42952 0.0
H1030 H 0.55732 0.26266 0.50983 0.0
H1031 H 0.54462 0.31062 0.53124 0.0
H1032 H 0.61609 0.38188 0.4647 0.0
H1033 H 0.60354 0.40968 0.43633 0.0
H1034 H 0.61204 0.37134 0.42756 0.0
H1035 H 0.56001 0.36443 0.40577 0.0
H1036 H 0.55139 0.40274 0.41438 0.0
H1037 H 0.52847 0.3703 0.42801 0.0
H1038 H 0.53146 0.36258 0.54258 0.0
H1039 H 0.51924 0.41716 0.54404 0.0
H1040 H 0.55662 0.43817 0.45738 0.0
C1041 C 0.57621 0.31429 0.45163 0.0
C1042 C 0.57215 0.28554 0.46814 0.0
C1043 C 0.56094 0.2845 0.49702 0.0
C1044 C 0.55362 0.31157 0.50932 0.0
C1045 C 0.55786 0.33949 0.49252 0.0
C1046 C 0.569 0.34119 0.46438 0.0
C1047 C 0.57056 0.37426 0.45092 0.0
C1048 C 0.60246 0.38491 0.44451 0.0
C1049 C 0.55147 0.37815 0.42313 0.0
C1050 C 0.55791 0.39073 0.4757 0.0
C1051 C 0.55084 0.37007 0.49945 0.0
C1052 C 0.53723 0.37907 0.52434 0.0
C1053 C 0.5303 0.41001 0.52492 0.0
C1054 C 0.53723 0.43156 0.50091 0.0
C1055 C 0.55163 0.42204 0.47615 0.0
loop_
_geom_bond_atom_site_label_1
_geom_bond_atom_site_label_2
_geom_bond_distance
_geom_bond_site_symmetry_2
_ccdc_geom_bond_type
C0 C1 1.384 . S
C0 H13 0.947 . S
C0 C35 1.382 . S
C1 C0 1.384 . S
C1 C2 1.378 . S
C2 C1 1.378 . S
C2 C3 1.378 . S
C2 H14 0.952 . S
C3 C2 1.378 . S
C3 H15 0.950 . S
C3 C34 1.383 . S
H4 C23 0.947 . S
H5 C24 0.946 . S
H6 C26 0.953 . S
H7 C27 0.945 . S
H8 C29 0.952 . S
H9 C30 0.949 . S
H10 C32 0.950 . S
H11 C33 0.948 . S
H12 C35 0.951 . S
H13 C0 0.947 . S
H14 C2 0.952 . S
H15 C3 0.950 . S
N16 C19 1.382 . S
N16 C21 1.363 . S
N17 C19 1.371 . S
N17 C20 1.372 . S
N18 C20 1.361 . S
N18 C21 1.377 . S
C19 N16 1.382 . S
C19 N17 1.371 . S
C19 C22 1.480 . S
C20 N17 1.372 . S
C20 N18 1.361 . S
C20 C28 1.457 . S
C21 N16 1.363 . S
C21 N18 1.377 . S
C21 C34 1.479 . S
C22 C19 1.480 . S
C22 C23 1.383 . S
C22 C27 1.385 . S
C23 H4 0.947 . S
C23 C22 1.383 . S
C23 C24 1.388 . S
C24 H5 0.946 . S
C24 C23 1.388 . S
C24 C25 1.384 . S
C25 C24 1.384 . S
C25 C26 1.377 . S
C26 H6 0.953 . S
C26 C25 1.377 . S
C26 C27 1.369 . S
C27 H7 0.945 . S
C27 C22 1.385 . S
C27 C26 1.369 . S
C28 C20 1.457 . S
C28 C29 1.372 . S
C28 C33 1.364 . S
C29 H8 0.952 . S
C29 C28 1.372 . S
C29 C30 1.389 . S
C30 H9 0.949 . S
C30 C29 1.389 . S
C30 C31 1.387 . S
C31 C30 1.387 . S
C31 C32 1.372 . S
C32 H10 0.950 . S
C32 C31 1.372 . S
C32 C33 1.379 . S
C33 H11 0.948 . S
C33 C28 1.364 . S
C33 C32 1.379 . S
C34 C3 1.383 . S
C34 C21 1.479 . S
C34 C35 1.398 . S
C35 C0 1.382 . S
C35 H12 0.951 . S
C35 C34 1.398 . S
C36 C37 1.384 . S
C36 H49 0.947 . S
C36 C71 1.382 . S
C37 C36 1.384 . S
C37 C38 1.378 . S
C38 C37 1.378 . S
C38 C39 1.378 . S
C38 H50 0.952 . S
C39 C38 1.378 . S
C39 H51 0.950 . S
C39 C70 1.383 . S
H40 C59 0.947 . S
H41 C60 0.946 . S
H42 C62 0.953 . S
H43 C63 0.945 . S
H44 C65 0.952 . S
H45 C66 0.949 . S
H46 C68 0.950 . S
H47 C69 0.948 . S
H48 C71 0.951 . S
H49 C36 0.947 . S
H50 C38 0.952 . S
H51 C39 0.950 . S
N52 C55 1.382 . S
N52 C57 1.363 . S
N53 C55 1.371 . S
N53 C56 1.372 . S
N54 C56 1.361 . S
N54 C57 1.377 . S
C55 N52 1.382 . S
C55 N53 1.371 . S
C55 C58 1.480 . S
C56 N53 1.372 . S
C56 N54 1.361 . S
C56 C64 1.457 . S
C57 N52 1.363 . S
C57 N54 1.377 . S
C57 C70 1.479 . S
C58 C55 1.480 . S
C58 C59 1.383 . S
C58 C63 1.385 . S
C59 H40 0.947 . S
C59 C58 1.383 . S
C59 C60 1.388 . S
C60 H41 0.946 . S
C60 C59 1.388 . S
C60 C61 1.384 . S
C61 C60 1.384 . S
C61 C62 1.377 . S
C62 H42 0.953 . S
C62 C61 1.377 . S
C62 C63 1.369 . S
C63 H43 0.945 . S
C63 C58 1.385 . S
C63 C62 1.369 . S
C64 C56 1.457 . S
C64 C65 1.372 . S
C64 C69 1.364 . S
C65 H44 0.952 . S
C65 C64 1.372 . S
C65 C66 1.389 . S
C66 H45 0.949 . S
C66 C65 1.389 . S
C66 C67 1.387 . S
C67 C66 1.387 . S
C67 C68 1.372 . S
C68 H46 0.950 . S
C68 C67 1.372 . S
C68 C69 1.379 . S
C69 H47 0.948 . S
C69 C64 1.364 . S
C69 C68 1.379 . S
C70 C39 1.383 . S
C70 C57 1.479 . S
C70 C71 1.398 . S
C71 C36 1.382 . S
C71 H48 0.951 . S
C71 C70 1.398 . S
C72 C73 1.384 . S
C72 H85 0.947 . S
C72 C107 1.382 . S
C73 C72 1.384 . S
C73 C74 1.378 . S
C74 C73 1.378 . S
C74 C75 1.378 . S
C74 H86 0.952 . S
C75 C74 1.378 . S
C75 H87 0.950 . S
C75 C106 1.383 . S
H76 C95 0.947 . S
H77 C96 0.946 . S
H78 C98 0.953 . S
H79 C99 0.945 . S
H80 C101 0.952 . S
H81 C102 0.949 . S
H82 C104 0.950 . S
H83 C105 0.948 . S
H84 C107 0.951 . S
H85 C72 0.947 . S
H86 C74 0.952 . S
H87 C75 0.950 . S
N88 C91 1.382 . S
N88 C93 1.363 . S
N89 C91 1.371 . S
N89 C92 1.372 . S
N90 C92 1.361 . S
N90 C93 1.377 . S
C91 N88 1.382 . S
C91 N89 1.371 . S
C91 C94 1.480 . S
C92 N89 1.372 . S
C92 N90 1.361 . S
C92 C100 1.457 . S
C93 N88 1.363 . S
C93 N90 1.377 . S
C93 C106 1.479 . S
C94 C91 1.480 . S
C94 C95 1.383 . S
C94 C99 1.385 . S
C95 H76 0.947 . S
C95 C94 1.383 . S
C95 C96 1.388 . S
C96 H77 0.946 . S
C96 C95 1.388 . S
C96 C97 1.384 . S
C97 C96 1.384 . S
C97 C98 1.377 . S
C98 H78 0.953 . S
C98 C97 1.377 . S
C98 C99 1.369 . S
C99 H79 0.945 . S
C99 C94 1.385 . S
C99 C98 1.369 . S
C100 C92 1.457 . S
C100 C101 1.372 . S
C100 C105 1.364 . S
C101 H80 0.952 . S
C101 C100 1.372 . S
C101 C102 1.389 . S
C102 H81 0.949 . S
C102 C101 1.389 . S
C102 C103 1.387 . S
C103 C102 1.387 . S
C103 C104 1.372 . S
C104 H82 0.950 . S
C104 C103 1.372 . S
C104 C105 1.379 . S
C105 H83 0.948 . S
C105 C100 1.364 . S
C105 C104 1.379 . S
C106 C75 1.383 . S
C106 C93 1.479 . S
C106 C107 1.398 . S
C107 C72 1.382 . S
C107 H84 0.951 . S
C107 C106 1.398 . S
C108 C109 1.384 . S
C108 H121 0.947 . S
C108 C143 1.382 . S
C109 C108 1.384 . S
C109 C110 1.378 . S
C110 C109 1.378 . S
C110 C111 1.378 . S
C110 H122 0.952 . S
C111 C110 1.378 . S
C111 H123 0.950 . S
C111 C142 1.383 . S
H112 C131 0.947 . S
H113 C132 0.946 . S
H114 C134 0.953 . S
H115 C135 0.945 . S
H116 C137 0.952 . S
H117 C138 0.949 . S
H118 C140 0.950 . S
H119 C141 0.948 . S
H120 C143 0.951 . S
H121 C108 0.947 . S
H122 C110 0.952 . S
H123 C111 0.950 . S
N124 C127 1.382 . S
N124 C129 1.363 . S
N125 C127 1.371 . S
N125 C128 1.372 . S
N126 C128 1.361 . S
N126 C129 1.377 . S
C127 N124 1.382 . S
C127 N125 1.371 . S
C127 C130 1.480 . S
C128 N125 1.372 . S
C128 N126 1.361 . S
C128 C136 1.457 . S
C129 N124 1.363 . S
C129 N126 1.377 . S
C129 C142 1.479 . S
C130 C127 1.480 . S
C130 C131 1.383 . S
C130 C135 1.385 . S
C131 H112 0.947 . S
C131 C130 1.383 . S
C131 C132 1.388 . S
C132 H113 0.946 . S
C132 C131 1.388 . S
C132 C133 1.384 . S
C133 C132 1.384 . S
C133 C134 1.377 . S
C134 H114 0.953 . S
C134 C133 1.377 . S
C134 C135 1.369 . S
C135 H115 0.945 . S
C135 C130 1.385 . S
C135 C134 1.369 . S
C136 C128 1.457 . S
C136 C137 1.372 . S
C136 C141 1.364 . S
C137 H116 0.952 . S
C137 C136 1.372 . S
C137 C138 1.389 . S
C138 H117 0.949 . S
C138 C137 1.389 . S
C138 C139 1.387 . S
C139 C138 1.387 . S
C139 C140 1.372 . S
C140 H118 0.950 . S
C140 C139 1.372 . S
C140 C141 1.379 . S
C141 H119 0.948 . S
C141 C136 1.364 . S
C141 C140 1.379 . S
C142 C111 1.383 . S
C142 C129 1.479 . S
C142 C143 1.398 . S
C143 C108 1.382 . S
C143 H120 0.951 . S
C143 C142 1.398 . S
C144 C145 1.384 . S
C144 H157 0.947 . S
C144 C179 1.382 . S
C145 C144 1.384 . S
C145 C146 1.378 . S
C146 C145 1.378 . S
C146 C147 1.378 . S
C146 H158 0.952 . S
C147 C146 1.378 . S
C147 H159 0.950 . S
C147 C178 1.383 . S
H148 C167 0.947 . S
H149 C168 0.946 . S
H150 C170 0.953 . S
H151 C171 0.945 . S
H152 C173 0.952 . S
H153 C174 0.949 . S
H154 C176 0.950 . S
H155 C177 0.948 . S
H156 C179 0.951 . S
H157 C144 0.947 . S
H158 C146 0.952 . S
H159 C147 0.950 . S
N160 C163 1.382 . S
N160 C165 1.363 . S
N161 C163 1.371 . S
N161 C164 1.372 . S
N162 C164 1.361 . S
N162 C165 1.377 . S
C163 N160 1.382 . S
C163 N161 1.371 . S
C163 C166 1.480 . S
C164 N161 1.372 . S
C164 N162 1.361 . S
C164 C172 1.457 . S
C165 N160 1.363 . S
C165 N162 1.377 . S
C165 C178 1.479 . S
C166 C163 1.480 . S
C166 C167 1.383 . S
C166 C171 1.385 . S
C167 H148 0.947 . S
C167 C166 1.383 . S
C167 C168 1.388 . S
C168 H149 0.946 . S
C168 C167 1.388 . S
C168 C169 1.384 . S
C169 C168 1.384 . S
C169 C170 1.377 . S
C170 H150 0.953 . S
C170 C169 1.377 . S
C170 C171 1.369 . S
C171 H151 0.945 . S
C171 C166 1.385 . S
C171 C170 1.369 . S
C172 C164 1.457 . S
C172 C173 1.372 . S
C172 C177 1.364 . S
C173 H152 0.952 . S
C173 C172 1.372 . S
C173 C174 1.389 . S
C174 H153 0.949 . S
C174 C173 1.389 . S
C174 C175 1.387 . S
C175 C174 1.387 . S
C175 C176 1.372 . S
C176 H154 0.950 . S
C176 C175 1.372 . S
C176 C177 1.379 . S
C177 H155 0.948 . S
C177 C172 1.364 . S
C177 C176 1.379 . S
C178 C147 1.383 . S
C178 C165 1.479 . S
C178 C179 1.398 . S
C179 C144 1.382 . S
C179 H156 0.951 . S
C179 C178 1.398 . S
C180 C181 1.384 . S
C180 H193 0.947 . S
C180 C215 1.382 . S
C181 C180 1.384 . S
C181 C182 1.378 . S
C182 C181 1.378 . S
C182 C183 1.378 . S
C182 H194 0.952 . S
C183 C182 1.378 . S
C183 H195 0.950 . S
C183 C214 1.383 . S
H184 C203 0.947 . S
H185 C204 0.946 . S
H186 C206 0.953 . S
H187 C207 0.945 . S
H188 C209 0.952 . S
H189 C210 0.949 . S
H190 C212 0.950 . S
H191 C213 0.948 . S
H192 C215 0.951 . S
H193 C180 0.947 . S
H194 C182 0.952 . S
H195 C183 0.950 . S
N196 C199 1.382 . S
N196 C201 1.363 . S
N197 C199 1.371 . S
N197 C200 1.372 . S
N198 C200 1.361 . S
N198 C201 1.377 . S
C199 N196 1.382 . S
C199 N197 1.371 . S
C199 C202 1.480 . S
C200 N197 1.372 . S
C200 N198 1.361 . S
C200 C208 1.457 . S
C201 N196 1.363 . S
C201 N198 1.377 . S
C201 C214 1.479 . S
C202 C199 1.480 . S
C202 C203 1.383 . S
C202 C207 1.385 . S
C203 H184 0.947 . S
C203 C202 1.383 . S
C203 C204 1.388 . S
C204 H185 0.946 . S
C204 C203 1.388 . S
C204 C205 1.384 . S
C205 C204 1.384 . S
C205 C206 1.377 . S
C206 H186 0.953 . S
C206 C205 1.377 . S
C206 C207 1.369 . S
C207 H187 0.945 . S
C207 C202 1.385 . S
C207 C206 1.369 . S
C208 C200 1.457 . S
C208 C209 1.372 . S
C208 C213 1.364 . S
C209 H188 0.952 . S
C209 C208 1.372 . S
C209 C210 1.389 . S
C210 H189 0.949 . S
C210 C209 1.389 . S
C210 C211 1.387 . S
C211 C210 1.387 . S
C211 C212 1.372 . S
C212 H190 0.950 . S
C212 C211 1.372 . S
C212 C213 1.379 . S
C213 H191 0.948 . S
C213 C208 1.364 . S
C213 C212 1.379 . S
C214 C183 1.383 . S
C214 C201 1.479 . S
C214 C215 1.398 . S
C215 C180 1.382 . S
C215 H192 0.951 . S
C215 C214 1.398 . S
C216 C217 1.384 . S
C216 H229 0.947 . S
C216 C251 1.382 . S
C217 C216 1.384 . S
C217 C218 1.378 . S
C218 C217 1.378 . S
C218 C219 1.378 . S
C218 H230 0.952 . S
C219 C218 1.378 . S
C219 H231 0.950 . S
C219 C250 1.383 . S
H220 C239 0.947 . S
H221 C240 0.946 . S
H222 C242 0.953 . S
H223 C243 0.945 . S
H224 C245 0.952 . S
H225 C246 0.949 . S
H226 C248 0.950 . S
H227 C249 0.948 . S
H228 C251 0.951 . S
H229 C216 0.947 . S
H230 C218 0.952 . S
H231 C219 0.950 . S
N232 C235 1.382 . S
N232 C237 1.363 . S
N233 C235 1.371 . S
N233 C236 1.372 . S
N234 C236 1.361 . S
N234 C237 1.377 . S
C235 N232 1.382 . S
C235 N233 1.371 . S
C235 C238 1.480 . S
C236 N233 1.372 . S
C236 N234 1.361 . S
C236 C244 1.457 . S
C237 N232 1.363 . S
C237 N234 1.377 . S
C237 C250 1.479 . S
C238 C235 1.480 . S
C238 C239 1.383 . S
C238 C243 1.385 . S
C239 H220 0.947 . S
C239 C238 1.383 . S
C239 C240 1.388 . S
C240 H221 0.946 . S
C240 C239 1.388 . S
C240 C241 1.384 . S
C241 C240 1.384 . S
C241 C242 1.377 . S
C242 H222 0.953 . S
C242 C241 1.377 . S
C242 C243 1.369 . S
C243 H223 0.945 . S
C243 C238 1.385 . S
C243 C242 1.369 . S
C244 C236 1.457 . S
C244 C245 1.372 . S
C244 C249 1.364 . S
C245 H224 0.952 . S
C245 C244 1.372 . S
C245 C246 1.389 . S
C246 H225 0.949 . S
C246 C245 1.389 . S
C246 C247 1.387 . S
C247 C246 1.387 . S
C247 C248 1.372 . S
C248 H226 0.950 . S
C248 C247 1.372 . S
C248 C249 1.379 . S
C249 H227 0.948 . S
C249 C244 1.364 . S
C249 C248 1.379 . S
C250 C219 1.383 . S
C250 C237 1.479 . S
C250 C251 1.398 . S
C251 C216 1.382 . S
C251 H228 0.951 . S
C251 C250 1.398 . S
C252 C253 1.384 . S
C252 H265 0.947 . S
C252 C287 1.382 . S
C253 C252 1.384 . S
C253 C254 1.378 . S
C254 C253 1.378 . S
C254 C255 1.378 . S
C254 H266 0.952 . S
C255 C254 1.378 . S
C255 H267 0.950 . S
C255 C286 1.383 . S
H256 C275 0.947 . S
H257 C276 0.946 . S
H258 C278 0.953 . S
H259 C279 0.945 . S
H260 C281 0.952 . S
H261 C282 0.949 . S
H262 C284 0.950 . S
H263 C285 0.948 . S
H264 C287 0.951 . S
H265 C252 0.947 . S
H266 C254 0.952 . S
H267 C255 0.950 . S
N268 C271 1.382 . S
N268 C273 1.363 . S
N269 C271 1.371 . S
N269 C272 1.372 . S
N270 C272 1.361 . S
N270 C273 1.377 . S
C271 N268 1.382 . S
C271 N269 1.371 . S
C271 C274 1.480 . S
C272 N269 1.372 . S
C272 N270 1.361 . S
C272 C280 1.457 . S
C273 N268 1.363 . S
C273 N270 1.377 . S
C273 C286 1.479 . S
C274 C271 1.480 . S
C274 C275 1.383 . S
C274 C279 1.385 . S
C275 H256 0.947 . S
C275 C274 1.383 . S
C275 C276 1.388 . S
C276 H257 0.946 . S
C276 C275 1.388 . S
C276 C277 1.384 . S
C277 C276 1.384 . S
C277 C278 1.377 . S
C278 H258 0.953 . S
C278 C277 1.377 . S
C278 C279 1.369 . S
C279 H259 0.945 . S
C279 C274 1.385 . S
C279 C278 1.369 . S
C280 C272 1.457 . S
C280 C281 1.372 . S
C280 C285 1.364 . S
C281 H260 0.952 . S
C281 C280 1.372 . S
C281 C282 1.389 . S
C282 H261 0.949 . S
C282 C281 1.389 . S
C282 C283 1.387 . S
C283 C282 1.387 . S
C283 C284 1.372 . S
C284 H262 0.950 . S
C284 C283 1.372 . S
C284 C285 1.379 . S
C285 H263 0.948 . S
C285 C280 1.364 . S
C285 C284 1.379 . S
C286 C255 1.383 . S
C286 C273 1.479 . S
C286 C287 1.398 . S
C287 C252 1.382 . S
C287 H264 0.951 . S
C287 C286 1.398 . S
Co288 N293 2.057 . S
Co288 O305 2.021 . S
Co288 O308 2.062 . S
Co288 O312 2.117 1_545 S
Co288 O313 2.020 1_545 S
C289 O309 1.259 1_655 S
C289 O312 1.258 . S
Co290 N299 2.057 . S
Co290 O306 2.117 1_565 S
Co290 O307 2.020 1_565 S
Co290 O309 2.021 . S
Co290 O314 2.062 . S
C291 N293 1.316 . S
C291 N294 1.347 . S
C291 H296 0.931 . S
C292 N293 1.375 1_565 S
C292 C295 1.350 1_565 S
C292 H297 0.930 . S
N293 Co288 2.057 . S
N293 C291 1.316 . S
N293 C292 1.375 1_545 S
N294 C291 1.347 . S
N294 C295 1.373 . S
C295 C292 1.350 1_545 S
C295 N294 1.373 . S
C295 H316 0.931 1_545 S
H296 C291 0.931 . S
H297 C292 0.930 . S
C298 O305 1.259 1_455 S
C298 O306 1.258 . S
N299 Co290 2.057 . S
N299 C300 1.316 . S
N299 C301 1.375 1_565 S
C300 N299 1.316 . S
C300 N302 1.347 . S
C300 H311 0.931 . S
C301 N299 1.375 1_545 S
C301 C303 1.350 1_545 S
C301 H310 0.930 . S
N302 C300 1.347 . S
N302 C303 1.373 . S
C303 C301 1.350 1_565 S
C303 N302 1.373 . S
C303 H317 0.931 1_565 S
C304 O307 1.256 . S
C304 O308 1.255 1_455 S
O305 Co288 2.021 . S
O305 C298 1.259 1_655 S
O306 Co290 2.117 1_545 S
O306 C298 1.258 . S
O307 Co290 2.020 1_545 S
O307 C304 1.256 . S
O308 Co288 2.062 . S
O308 C304 1.255 1_655 S
O309 C289 1.259 1_455 S
O309 Co290 2.021 . S
H310 C301 0.930 . S
H311 C300 0.931 . S
O312 Co288 2.117 1_565 S
O312 C289 1.258 . S
O313 Co288 2.020 1_565 S
O313 C315 1.256 . S
O314 Co290 2.062 . S
O314 C315 1.255 1_455 S
C315 O313 1.256 . S
C315 O314 1.255 1_655 S
H316 C295 0.931 1_565 S
H317 C303 0.931 1_545 S
Co318 N323 2.057 . S
Co318 O335 2.021 1_565 S
Co318 O338 2.062 . S
Co318 O342 2.117 . S
Co318 O343 2.020 1_565 S
C319 O339 1.259 . S
C319 O342 1.258 1_554 S
Co320 N329 2.057 . S
Co320 O336 2.117 . S
Co320 O337 2.020 1_545 S
Co320 O339 2.021 1_545 S
Co320 O344 2.062 . S
C321 N323 1.316 . S
C321 N324 1.347 . S
C321 H326 0.931 1_565 S
C322 N323 1.375 . S
C322 C325 1.350 . S
C322 H327 0.930 . S
N323 Co318 2.057 . S
N323 C321 1.316 . S
N323 C322 1.375 . S
N324 C321 1.347 . S
N324 C325 1.373 . S
C325 C322 1.350 . S
C325 N324 1.373 . S
C325 H346 0.931 . S
H326 C321 0.931 1_545 S
H327 C322 0.930 . S
C328 O335 1.259 . S
C328 O336 1.258 1_556 S
N329 Co320 2.057 . S
N329 C330 1.316 . S
N329 C331 1.375 . S
C330 N329 1.316 . S
C330 N332 1.347 . S
C330 H341 0.931 1_545 S
C331 N329 1.375 . S
C331 C333 1.350 . S
C331 H340 0.930 . S
N332 C330 1.347 . S
N332 C333 1.373 . S
C333 C331 1.350 . S
C333 N332 1.373 . S
C333 H347 0.931 . S
C334 O337 1.256 1_556 S
C334 O338 1.255 . S
O335 Co318 2.021 1_545 S
O335 C328 1.259 . S
O336 Co320 2.117 . S
O336 C328 1.258 1_554 S
O337 Co320 2.020 1_565 S
O337 C334 1.256 1_554 S
O338 Co318 2.062 . S
O338 C334 1.255 . S
O339 C319 1.259 . S
O339 Co320 2.021 1_565 S
H340 C331 0.930 . S
H341 C330 0.931 1_565 S
O342 Co318 2.117 . S
O342 C319 1.258 1_556 S
O343 Co318 2.020 1_545 S
O343 C345 1.256 1_556 S
O344 Co320 2.062 . S
O344 C345 1.255 . S
C345 O343 1.256 1_554 S
C345 O344 1.255 . S
H346 C325 0.931 . S
H347 C333 0.931 . S
Co348 N353 2.057 . S
Co348 O365 2.021 . S
Co348 O368 2.062 . S
Co348 O372 2.117 . S
Co348 O373 2.020 . S
C349 O369 1.259 . S
C349 O372 1.258 . S
Co350 N359 2.057 . S
Co350 O366 2.117 . S
Co350 O367 2.020 . S
Co350 O369 2.021 . S
Co350 O374 2.062 . S
C351 N353 1.316 . S
C351 N354 1.347 . S
C351 H356 0.931 . S
C352 N353 1.375 . S
C352 C355 1.350 . S
C352 H357 0.930 . S
N353 Co348 2.057 . S
N353 C351 1.316 . S
N353 C352 1.375 . S
N354 C351 1.347 . S
N354 C355 1.373 . S
C355 C352 1.350 . S
C355 N354 1.373 . S
C355 H376 0.931 . S
H356 C351 0.931 . S
H357 C352 0.930 . S
C358 O365 1.259 . S
C358 O366 1.258 . S
N359 Co350 2.057 . S
N359 C360 1.316 . S
N359 C361 1.375 . S
C360 N359 1.316 . S
C360 N362 1.347 . S
C360 H371 0.931 . S
C361 N359 1.375 . S
C361 C363 1.350 . S
C361 H370 0.930 . S
N362 C360 1.347 . S
N362 C363 1.373 . S
C363 C361 1.350 . S
C363 N362 1.373 . S
C363 H377 0.931 . S
C364 O367 1.256 . S
C364 O368 1.255 . S
O365 Co348 2.021 . S
O365 C358 1.259 . S
O366 Co350 2.117 . S
O366 C358 1.258 . S
O367 Co350 2.020 . S
O367 C364 1.256 . S
O368 Co348 2.062 . S
O368 C364 1.255 . S
O369 C349 1.259 . S
O369 Co350 2.021 . S
H370 C361 0.930 . S
H371 C360 0.931 . S
O372 Co348 2.117 . S
O372 C349 1.258 . S
O373 Co348 2.020 . S
O373 C375 1.256 . S
O374 Co350 2.062 . S
O374 C375 1.255 . S
C375 O373 1.256 . S
C375 O374 1.255 . S
H376 C355 0.931 . S
H377 C363 0.931 . S
Co378 N383 2.057 . S
Co378 O395 2.021 . S
Co378 O398 2.062 . S
Co378 O402 2.117 1_455 S
Co378 O403 2.020 1_455 S
C379 O399 1.259 1_556 S
C379 O402 1.258 . S
Co380 N389 2.057 . S
Co380 O396 2.117 1_655 S
Co380 O397 2.020 1_655 S
Co380 O399 2.021 . S
Co380 O404 2.062 . S
C381 N383 1.316 . S
C381 N384 1.347 . S
C381 H386 0.931 . S
C382 N383 1.375 1_655 S
C382 C385 1.350 1_655 S
C382 H387 0.930 . S
N383 Co378 2.057 . S
N383 C381 1.316 . S
N383 C382 1.375 1_455 S
N384 C381 1.347 . S
N384 C385 1.373 . S
C385 C382 1.350 1_455 S
C385 N384 1.373 . S
C385 H406 0.931 1_455 S
H386 C381 0.931 . S
H387 C382 0.930 . S
C388 O395 1.259 1_554 S
C388 O396 1.258 . S
N389 Co380 2.057 . S
N389 C390 1.316 . S
N389 C391 1.375 1_655 S
C390 N389 1.316 . S
C390 N392 1.347 . S
C390 H401 0.931 . S
C391 N389 1.375 1_455 S
C391 C393 1.350 1_455 S
C391 H400 0.930 . S
N392 C390 1.347 . S
N392 C393 1.373 . S
C393 C391 1.350 1_655 S
C393 N392 1.373 . S
C393 H407 0.931 1_655 S
C394 O397 1.256 . S
C394 O398 1.255 1_554 S
O395 Co378 2.021 . S
O395 C388 1.259 1_556 S
O396 Co380 2.117 1_455 S
O396 C388 1.258 . S
O397 Co380 2.020 1_455 S
O397 C394 1.256 . S
O398 Co378 2.062 . S
O398 C394 1.255 1_556 S
O399 C379 1.259 1_554 S
O399 Co380 2.021 . S
H400 C391 0.930 . S
H401 C390 0.931 . S
O402 Co378 2.117 1_655 S
O402 C379 1.258 . S
O403 Co378 2.020 1_655 S
O403 C405 1.256 . S
O404 Co380 2.062 . S
O404 C405 1.255 1_554 S
C405 O403 1.256 . S
C405 O404 1.255 1_556 S
H406 C385 0.931 1_655 S
H407 C393 0.931 1_455 S
H408 C420 0.930 . S
H409 C422 0.930 . S
H410 C423 0.930 . S
H411 C427 0.959 . S
H412 C427 0.959 . S
H413 C427 0.961 . S
H414 C428 0.960 . S
H415 C428 0.961 . S
H416 C428 0.959 . S
H417 C431 0.929 . S
H418 C432 0.931 . S
H419 C434 0.930 1_565 S
C420 H408 0.930 . S
C420 C421 1.399 . S
C420 C425 1.399 . S
C421 C420 1.399 . S
C421 C422 1.376 . S
C422 H409 0.930 . S
C422 C421 1.376 . S
C422 C423 1.388 . S
C423 H410 0.930 . S
C423 C422 1.388 . S
C423 C424 1.390 . S
C424 C423 1.390 . S
C424 C425 1.394 . S
C424 C430 1.465 . S
C425 C420 1.399 . S
C425 C424 1.394 . S
C425 C426 1.516 . S
C426 C425 1.516 . S
C426 C427 1.502 1_545 S
C426 C428 1.561 . S
C426 C429 1.526 . S
C427 H411 0.959 . S
C427 H412 0.959 . S
C427 H413 0.961 . S
C427 C426 1.502 1_565 S
C428 H414 0.960 . S
C428 H415 0.961 . S
C428 H416 0.959 . S
C428 C426 1.561 . S
C429 C426 1.526 . S
C429 C430 1.396 . S
C429 C434 1.390 . S
C430 C424 1.465 . S
C430 C429 1.396 . S
C430 C431 1.399 . S
C431 H417 0.929 . S
C431 C430 1.399 . S
C431 C432 1.385 . S
C432 H418 0.931 . S
C432 C431 1.385 . S
C432 C433 1.389 . S
C433 C432 1.389 . S
C433 C434 1.387 . S
C434 H419 0.930 1_545 S
C434 C429 1.390 . S
C434 C433 1.387 . S
H435 C447 0.930 . S
H436 C449 0.930 . S
H437 C450 0.930 . S
H438 C454 0.959 . S
H439 C454 0.959 . S
H440 C454 0.961 . S
H441 C455 0.960 1_545 S
H442 C455 0.961 1_545 S
H443 C455 0.959 . S
H444 C458 0.929 . S
H445 C459 0.931 . S
H446 C461 0.930 . S
C447 H435 0.930 . S
C447 C448 1.399 . S
C447 C452 1.399 . S
C448 C447 1.399 . S
C448 C449 1.376 . S
C449 H436 0.930 . S
C449 C448 1.376 . S
C449 C450 1.388 . S
C450 H437 0.930 . S
C450 C449 1.388 . S
C450 C451 1.390 . S
C451 C450 1.390 . S
C451 C452 1.394 . S
C451 C457 1.465 . S
C452 C447 1.399 . S
C452 C451 1.394 . S
C452 C453 1.516 . S
C453 C452 1.516 . S
C453 C454 1.502 . S
C453 C455 1.561 . S
C453 C456 1.526 . S
C454 H438 0.959 . S
C454 H439 0.959 . S
C454 H440 0.961 . S
C454 C453 1.502 . S
C455 H441 0.960 1_565 S
C455 H442 0.961 1_565 S
C455 H443 0.959 . S
C455 C453 1.561 . S
C456 C453 1.526 . S
C456 C457 1.396 . S
C456 C461 1.390 . S
C457 C451 1.465 . S
C457 C456 1.396 . S
C457 C458 1.399 . S
C458 H444 0.929 . S
C458 C457 1.399 . S
C458 C459 1.385 . S
C459 H445 0.931 . S
C459 C458 1.385 . S
C459 C460 1.389 . S
C460 C459 1.389 . S
C460 C461 1.387 . S
C461 H446 0.930 . S
C461 C456 1.390 . S
C461 C460 1.387 . S
H462 C474 0.930 . S
H463 C476 0.930 . S
H464 C477 0.930 . S
H465 C481 0.959 . S
H466 C481 0.959 . S
H467 C481 0.961 . S
H468 C482 0.960 . S
H469 C482 0.961 . S
H470 C482 0.959 . S
H471 C485 0.929 . S
H472 C486 0.931 . S
H473 C488 0.930 . S
C474 H462 0.930 . S
C474 C475 1.399 . S
C474 C479 1.399 . S
C475 C474 1.399 . S
C475 C476 1.376 . S
C476 H463 0.930 . S
C476 C475 1.376 . S
C476 C477 1.388 . S
C477 H464 0.930 . S
C477 C476 1.388 . S
C477 C478 1.390 . S
C478 C477 1.390 . S
C478 C479 1.394 . S
C478 C484 1.465 . S
C479 C474 1.399 . S
C479 C478 1.394 . S
C479 C480 1.516 . S
C480 C479 1.516 . S
C480 C481 1.502 . S
C480 C482 1.561 . S
C480 C483 1.526 . S
C481 H465 0.959 . S
C481 H466 0.959 . S
C481 H467 0.961 . S
C481 C480 1.502 . S
C482 H468 0.960 . S
C482 H469 0.961 . S
C482 H470 0.959 . S
C482 C480 1.561 . S
C483 C480 1.526 . S
C483 C484 1.396 . S
C483 C488 1.390 . S
C484 C478 1.465 . S
C484 C483 1.396 . S
C484 C485 1.399 . S
C485 H471 0.929 . S
C485 C484 1.399 . S
C485 C486 1.385 . S
C486 H472 0.931 . S
C486 C485 1.385 . S
C486 C487 1.389 . S
C487 C486 1.389 . S
C487 C488 1.387 . S
C488 H473 0.930 . S
C488 C483 1.390 . S
C488 C487 1.387 . S
H489 C501 0.930 . S
H490 C503 0.930 . S
H491 C504 0.930 . S
H492 C508 0.959 . S
H493 C508 0.959 . S
H494 C508 0.961 . S
H495 C509 0.960 . S
H496 C509 0.961 . S
H497 C509 0.959 . S
H498 C512 0.929 . S
H499 C513 0.931 . S
H500 C515 0.930 . S
C501 H489 0.930 . S
C501 C502 1.399 . S
C501 C506 1.399 . S
C502 C501 1.399 . S
C502 C503 1.376 . S
C503 H490 0.930 . S
C503 C502 1.376 . S
C503 C504 1.388 . S
C504 H491 0.930 . S
C504 C503 1.388 . S
C504 C505 1.390 . S
C505 C504 1.390 . S
C505 C506 1.394 . S
C505 C511 1.465 . S
C506 C501 1.399 . S
C506 C505 1.394 . S
C506 C507 1.516 . S
C507 C506 1.516 . S
C507 C508 1.502 . S
C507 C509 1.561 . S
C507 C510 1.526 . S
C508 H492 0.959 . S
C508 H493 0.959 . S
C508 H494 0.961 . S
C508 C507 1.502 . S
C509 H495 0.960 . S
C509 H496 0.961 . S
C509 H497 0.959 . S
C509 C507 1.561 . S
C510 C507 1.526 . S
C510 C511 1.396 . S
C510 C515 1.390 . S
C511 C505 1.465 . S
C511 C510 1.396 . S
C511 C512 1.399 . S
C512 H498 0.929 . S
C512 C511 1.399 . S
C512 C513 1.385 . S
C513 H499 0.931 . S
C513 C512 1.385 . S
C513 C514 1.389 . S
C514 C513 1.389 . S
C514 C515 1.387 . S
C515 H500 0.930 . S
C515 C510 1.390 . S
C515 C514 1.387 . S
H516 C528 0.930 . S
H517 C530 0.930 . S
H518 C531 0.930 1_556 S
H519 C535 0.959 . S
H520 C535 0.959 . S
H521 C535 0.961 . S
H522 C536 0.960 . S
H523 C536 0.961 . S
H524 C536 0.959 . S
H525 C539 0.914 1_556 S
H526 C540 0.921 1_556 S
H527 C542 0.930 . S
C528 H516 0.930 . S
C528 C529 1.399 . S
C528 C533 1.399 . S
C529 C528 1.399 . S
C529 C530 1.376 . S
C530 H517 0.930 . S
C530 C529 1.376 . S
C530 C531 1.388 . S
C531 H518 0.930 1_554 S
C531 C530 1.388 . S
C531 C532 1.390 . S
C532 C531 1.390 . S
C532 C533 1.394 . S
C532 C538 1.465 . S
C533 C528 1.399 . S
C533 C532 1.394 . S
C533 C534 1.516 . S
C534 C533 1.516 . S
C534 C535 1.502 . S
C534 C536 1.561 1_545 S
C534 C537 1.526 . S
C535 H519 0.959 . S
C535 H520 0.959 . S
C535 H521 0.961 . S
C535 C534 1.502 . S
C536 H522 0.960 . S
C536 H523 0.961 . S
C536 H524 0.959 . S
C536 C534 1.561 1_565 S
C537 C534 1.526 . S
C537 C538 1.396 . S
C537 C542 1.390 . S
C538 C532 1.465 . S
C538 C537 1.396 . S
C538 C539 1.415 . S
C539 H525 0.914 1_554 S
C539 C538 1.415 . S
C539 C540 1.385 . S
C540 H526 0.921 1_554 S
C540 C539 1.385 . S
C540 C541 1.399 . S
C541 C540 1.399 . S
C541 C542 1.387 . S
C542 H527 0.930 . S
C542 C537 1.390 . S
C542 C541 1.387 . S
H543 C555 0.930 . S
H544 C557 0.930 . S
H545 C558 0.930 . S
H546 C562 0.959 . S
H547 C562 0.959 . S
H548 C562 0.961 . S
H549 C563 0.960 . S
H550 C563 0.961 . S
H551 C563 0.959 . S
H552 C566 0.929 . S
H553 C567 0.931 . S
H554 C569 0.930 . S
C555 H543 0.930 . S
C555 C556 1.399 . S
C555 C560 1.399 . S
C556 C555 1.399 . S
C556 C557 1.376 . S
C557 H544 0.930 . S
C557 C556 1.376 . S
C557 C558 1.388 . S
C558 H545 0.930 . S
C558 C557 1.388 . S
C558 C559 1.390 . S
C559 C558 1.390 . S
C559 C560 1.394 . S
C559 C565 1.465 . S
C560 C555 1.399 . S
C560 C559 1.394 . S
C560 C561 1.516 . S
C561 C560 1.516 . S
C561 C562 1.502 . S
C561 C563 1.561 . S
C561 C564 1.526 . S
C562 H546 0.959 . S
C562 H547 0.959 . S
C562 H548 0.961 . S
C562 C561 1.502 . S
C563 H549 0.960 . S
C563 H550 0.961 . S
C563 H551 0.959 . S
C563 C561 1.561 . S
C564 C561 1.526 . S
C564 C565 1.396 . S
C564 C569 1.390 . S
C565 C559 1.465 . S
C565 C564 1.396 . S
C565 C566 1.399 . S
C566 H552 0.929 . S
C566 C565 1.399 . S
C566 C567 1.385 . S
C567 H553 0.931 . S
C567 C566 1.385 . S
C567 C568 1.389 . S
C568 C567 1.389 . S
C568 C569 1.387 . S
C569 H554 0.930 . S
C569 C564 1.390 . S
C569 C568 1.387 . S
H570 C582 0.930 . S
H571 C584 0.930 . S
H572 C585 0.930 . S
H573 C589 0.959 . S
H574 C589 0.959 . S
H575 C589 0.961 . S
H576 C590 0.960 . S
H577 C590 0.961 . S
H578 C590 0.959 . S
H579 C593 0.924 1_554 S
H580 C594 0.931 1_554 S
H581 C596 0.930 . S
C582 H570 0.930 . S
C582 C583 1.399 . S
C582 C587 1.399 . S
C583 C582 1.399 . S
C583 C584 1.376 . S
C584 H571 0.930 . S
C584 C583 1.376 . S
C584 C585 1.388 . S
C585 H572 0.930 . S
C585 C584 1.388 . S
C585 C586 1.390 . S
C586 C585 1.390 . S
C586 C587 1.394 . S
C586 C592 1.465 . S
C587 C582 1.399 . S
C587 C586 1.394 . S
C587 C588 1.516 . S
C588 C587 1.516 . S
C588 C589 1.502 . S
C588 C590 1.561 . S
C588 C591 1.526 . S
C589 H573 0.959 . S
C589 H574 0.959 . S
C589 H575 0.961 . S
C589 C588 1.502 . S
C590 H576 0.960 . S
C590 H577 0.961 . S
C590 H578 0.959 . S
C590 C588 1.561 . S
C591 C588 1.526 . S
C591 C592 1.396 . S
C591 C596 1.390 . S
C592 C586 1.465 . S
C592 C591 1.396 . S
C592 C593 1.399 . S
C593 H579 0.924 1_556 S
C593 C592 1.399 . S
C593 C594 1.385 . S
C594 H580 0.931 1_556 S
C594 C593 1.385 . S
C594 C595 1.389 . S
C595 C594 1.389 . S
C595 C596 1.387 . S
C596 H581 0.930 . S
C596 C591 1.390 . S
C596 C595 1.387 . S
H597 C609 0.930 . S
H598 C611 0.930 . S
H599 C612 0.930 . S
H600 C616 0.959 . S
H601 C616 0.959 . S
H602 C616 0.961 . S
H603 C617 0.960 . S
H604 C617 0.961 . S
H605 C617 0.959 . S
H606 C620 0.929 . S
H607 C621 0.931 . S
H608 C623 0.930 . S
C609 H597 0.930 . S
C609 C610 1.399 . S
C609 C614 1.399 . S
C610 C609 1.399 . S
C610 C611 1.376 . S
C611 H598 0.930 . S
C611 C610 1.376 . S
C611 C612 1.388 . S
C612 H599 0.930 . S
C612 C611 1.388 . S
C612 C613 1.390 . S
C613 C612 1.390 . S
C613 C614 1.394 . S
C613 C619 1.465 . S
C614 C609 1.399 . S
C614 C613 1.394 . S
C614 C615 1.516 . S
C615 C614 1.516 . S
C615 C616 1.502 . S
C615 C617 1.561 . S
C615 C618 1.526 . S
C616 H600 0.959 . S
C616 H601 0.959 . S
C616 H602 0.961 . S
C616 C615 1.502 . S
C617 H603 0.960 . S
C617 H604 0.961 . S
C617 H605 0.959 . S
C617 C615 1.561 . S
C618 C615 1.526 . S
C618 C619 1.396 . S
C618 C623 1.390 . S
C619 C613 1.465 . S
C619 C618 1.396 . S
C619 C620 1.399 . S
C620 H606 0.929 . S
C620 C619 1.399 . S
C620 C621 1.385 . S
C621 H607 0.931 . S
C621 C620 1.385 . S
C621 C622 1.389 . S
C622 C621 1.389 . S
C622 C623 1.387 . S
C623 H608 0.930 . S
C623 C618 1.390 . S
C623 C622 1.387 . S
H624 C636 0.930 . S
H625 C638 0.930 . S
H626 C639 0.930 . S
H627 C643 0.959 . S
H628 C643 0.959 . S
H629 C643 0.961 . S
H630 C644 0.960 . S
H631 C644 0.961 . S
H632 C644 0.959 . S
H633 C647 0.929 1_655 S
H634 C648 0.931 1_655 S
H635 C650 0.930 . S
C636 H624 0.930 . S
C636 C637 1.399 . S
C636 C641 1.399 . S
C637 C636 1.399 . S
C637 C638 1.376 . S
C638 H625 0.930 . S
C638 C637 1.376 . S
C638 C639 1.388 . S
C639 H626 0.930 . S
C639 C638 1.388 . S
C639 C640 1.390 . S
C640 C639 1.390 . S
C640 C641 1.394 . S
C640 C646 1.465 . S
C641 C636 1.399 . S
C641 C640 1.394 . S
C641 C642 1.516 . S
C642 C641 1.516 . S
C642 C643 1.502 . S
C642 C644 1.561 1_554 S
C642 C645 1.526 . S
C643 H627 0.959 . S
C643 H628 0.959 . S
C643 H629 0.961 . S
C643 C642 1.502 . S
C644 H630 0.960 . S
C644 H631 0.961 . S
C644 H632 0.959 . S
C644 C642 1.561 1_556 S
C645 C642 1.526 . S
C645 C646 1.396 . S
C645 C650 1.390 . S
C646 C640 1.465 . S
C646 C645 1.396 . S
C646 C647 1.399 . S
C647 H633 0.929 1_455 S
C647 C646 1.399 . S
C647 C648 1.385 . S
C648 H634 0.931 1_455 S
C648 C647 1.385 . S
C648 C649 1.389 . S
C649 C648 1.389 . S
C649 C650 1.387 . S
C650 H635 0.930 . S
C650 C645 1.390 . S
C650 C649 1.387 . S
H651 C663 0.930 . S
H652 C665 0.930 . S
H653 C666 0.930 . S
H654 C670 0.959 . S
H655 C670 0.959 1_554 S
H656 C670 0.961 . S
H657 C671 0.960 . S
H658 C671 0.961 . S
H659 C671 0.959 . S
H660 C674 0.929 . S
H661 C675 0.931 . S
H662 C677 0.933 . S
C663 H651 0.930 . S
C663 C664 1.399 . S
C663 C668 1.399 . S
C664 C663 1.399 . S
C664 C665 1.376 . S
C665 H652 0.930 . S
C665 C664 1.376 . S
C665 C666 1.388 . S
C666 H653 0.930 . S
C666 C665 1.388 . S
C666 C667 1.390 . S
C667 C666 1.390 . S
C667 C668 1.394 . S
C667 C673 1.465 . S
C668 C663 1.399 . S
C668 C667 1.394 . S
C668 C669 1.516 . S
C669 C668 1.516 . S
C669 C670 1.502 . S
C669 C671 1.561 1_556 S
C669 C672 1.526 . S
C670 H654 0.959 . S
C670 H655 0.959 1_556 S
C670 H656 0.961 . S
C670 C669 1.502 . S
C671 H657 0.960 . S
C671 H658 0.961 . S
C671 H659 0.959 . S
C671 C669 1.561 1_554 S
C672 C669 1.526 . S
C672 C673 1.396 . S
C672 C677 1.390 . S
C673 C667 1.465 . S
C673 C672 1.396 . S
C673 C674 1.399 . S
C674 H660 0.929 . S
C674 C673 1.399 . S
C674 C675 1.385 . S
C675 H661 0.931 . S
C675 C674 1.385 . S
C675 C676 1.389 . S
C676 C675 1.389 . S
C676 C677 1.387 . S
C677 H662 0.933 . S
C677 C672 1.390 . S
C677 C676 1.387 . S
H678 C690 0.930 . S
H679 C692 0.930 . S
H680 C693 0.930 . S
H681 C697 0.959 . S
H682 C697 0.959 . S
H683 C697 0.961 . S
H684 C698 0.960 . S
H685 C698 0.961 . S
H686 C698 0.959 1_455 S
H687 C701 0.929 . S
H688 C702 0.931 . S
H689 C704 0.930 . S
C690 H678 0.930 . S
C690 C691 1.399 . S
C690 C695 1.399 . S
C691 C690 1.399 . S
C691 C692 1.376 . S
C692 H679 0.930 . S
C692 C691 1.376 . S
C692 C693 1.388 . S
C693 H680 0.930 . S
C693 C692 1.388 . S
C693 C694 1.390 . S
C694 C693 1.390 . S
C694 C695 1.394 . S
C694 C700 1.465 . S
C695 C690 1.399 . S
C695 C694 1.394 . S
C695 C696 1.516 . S
C696 C695 1.516 . S
C696 C697 1.502 . S
C696 C698 1.561 . S
C696 C699 1.526 . S
C697 H681 0.959 . S
C697 H682 0.959 . S
C697 H683 0.961 . S
C697 C696 1.502 . S
C698 H684 0.960 . S
C698 H685 0.961 . S
C698 H686 0.959 1_655 S
C698 C696 1.561 . S
C699 C696 1.526 . S
C699 C700 1.396 . S
C699 C704 1.390 . S
C700 C694 1.465 . S
C700 C699 1.396 . S
C700 C701 1.399 . S
C701 H687 0.929 . S
C701 C700 1.399 . S
C701 C702 1.385 . S
C702 H688 0.931 . S
C702 C701 1.385 . S
C702 C703 1.389 . S
C703 C702 1.389 . S
C703 C704 1.387 . S
C704 H689 0.930 . S
C704 C699 1.390 . S
C704 C703 1.387 . S
H705 C717 0.930 . S
H706 C719 0.930 . S
H707 C720 0.930 . S
H708 C724 0.959 . S
H709 C724 0.959 . S
H710 C724 0.961 . S
H711 C725 0.960 . S
H712 C725 0.961 . S
H713 C725 0.959 . S
H714 C728 0.929 . S
H715 C729 0.931 . S
H716 C731 0.930 . S
C717 H705 0.930 . S
C717 C718 1.399 . S
C717 C722 1.399 . S
C718 C717 1.399 . S
C718 C719 1.376 . S
C719 H706 0.930 . S
C719 C718 1.376 . S
C719 C720 1.388 . S
C720 H707 0.930 . S
C720 C719 1.388 . S
C720 C721 1.390 . S
C721 C720 1.390 . S
C721 C722 1.394 . S
C721 C727 1.465 . S
C722 C717 1.399 . S
C722 C721 1.394 . S
C722 C723 1.516 . S
C723 C722 1.516 . S
C723 C724 1.502 . S
C723 C725 1.561 . S
C723 C726 1.526 . S
C724 H708 0.959 . S
C724 H709 0.959 . S
C724 H710 0.961 . S
C724 C723 1.502 . S
C725 H711 0.960 . S
C725 H712 0.961 . S
C725 H713 0.959 . S
C725 C723 1.561 . S
C726 C723 1.526 . S
C726 C727 1.396 . S
C726 C731 1.390 . S
C727 C721 1.465 . S
C727 C726 1.396 . S
C727 C728 1.399 . S
C728 H714 0.929 . S
C728 C727 1.399 . S
C728 C729 1.385 . S
C729 H715 0.931 . S
C729 C728 1.385 . S
C729 C730 1.389 . S
C730 C729 1.389 . S
C730 C731 1.387 . S
C731 H716 0.930 . S
C731 C726 1.390 . S
C731 C730 1.387 . S
H732 C744 0.930 . S
H733 C746 0.930 . S
H734 C747 0.930 . S
H735 C751 0.959 . S
H736 C751 0.959 . S
H737 C751 0.961 . S
H738 C752 0.960 . S
H739 C752 0.961 . S
H740 C752 0.959 . S
H741 C755 0.929 1_545 S
H742 C756 0.931 1_545 S
H743 C758 0.930 . S
C744 H732 0.930 . S
C744 C745 1.399 . S
C744 C749 1.399 . S
C745 C744 1.399 . S
C745 C746 1.376 . S
C746 H733 0.930 . S
C746 C745 1.376 . S
C746 C747 1.388 . S
C747 H734 0.930 . S
C747 C746 1.388 . S
C747 C748 1.390 . S
C748 C747 1.390 . S
C748 C749 1.394 . S
C748 C754 1.465 . S
C749 C744 1.399 . S
C749 C748 1.394 . S
C749 C750 1.516 . S
C750 C749 1.516 . S
C750 C751 1.502 1_655 S
C750 C752 1.561 . S
C750 C753 1.526 . S
C751 H735 0.959 . S
C751 H736 0.959 . S
C751 H737 0.961 . S
C751 C750 1.502 1_455 S
C752 H738 0.960 . S
C752 H739 0.961 . S
C752 H740 0.959 . S
C752 C750 1.561 . S
C753 C750 1.526 . S
C753 C754 1.396 . S
C753 C758 1.390 . S
C754 C748 1.465 . S
C754 C753 1.396 . S
C754 C755 1.399 . S
C755 H741 0.929 1_565 S
C755 C754 1.399 . S
C755 C756 1.385 . S
C756 H742 0.931 1_565 S
C756 C755 1.385 . S
C756 C757 1.389 . S
C757 C756 1.389 . S
C757 C758 1.387 . S
C758 H743 0.930 . S
C758 C753 1.390 . S
C758 C757 1.387 . S
H759 C771 0.930 . S
H760 C773 0.930 . S
H761 C774 0.930 . S
H762 C778 0.959 . S
H763 C778 0.959 1_565 S
H764 C778 0.961 . S
H765 C779 0.955 1_565 S
H766 C779 0.961 1_565 S
H767 C779 0.959 . S
H768 C782 0.929 . S
H769 C783 0.931 . S
H770 C785 0.930 . S
C771 H759 0.930 . S
C771 C772 1.399 . S
C771 C776 1.399 . S
C772 C771 1.399 . S
C772 C773 1.376 . S
C773 H760 0.930 . S
C773 C772 1.376 . S
C773 C774 1.388 . S
C774 H761 0.930 . S
C774 C773 1.388 . S
C774 C775 1.390 . S
C775 C774 1.390 . S
C775 C776 1.394 . S
C775 C781 1.465 . S
C776 C771 1.399 . S
C776 C775 1.394 . S
C776 C777 1.516 . S
C777 C776 1.516 . S
C777 C778 1.502 . S
C777 C779 1.561 . S
C777 C780 1.526 . S
C778 H762 0.959 . S
C778 H763 0.959 1_545 S
C778 H764 0.961 . S
C778 C777 1.502 . S
C779 H765 0.955 1_545 S
C779 H766 0.961 1_545 S
C779 H767 0.959 . S
C779 C777 1.561 . S
C780 C777 1.526 . S
C780 C781 1.396 . S
C780 C785 1.390 . S
C781 C775 1.465 . S
C781 C780 1.396 . S
C781 C782 1.399 . S
C782 H768 0.929 . S
C782 C781 1.399 . S
C782 C783 1.385 . S
C783 H769 0.931 . S
C783 C782 1.385 . S
C783 C784 1.389 . S
C784 C783 1.389 . S
C784 C785 1.387 . S
C785 H770 0.930 . S
C785 C780 1.390 . S
C785 C784 1.387 . S
H786 C798 0.930 . S
H787 C800 0.930 . S
H788 C801 0.930 . S
H789 C805 0.959 . S
H790 C805 0.959 . S
H791 C805 0.961 . S
H792 C806 0.960 . S
H793 C806 0.961 . S
H794 C806 0.959 . S
H795 C809 0.929 . S
H796 C810 0.931 . S
H797 C812 0.930 . S
C798 H786 0.930 . S
C798 C799 1.399 . S
C798 C803 1.399 . S
C799 C798 1.399 . S
C799 C800 1.376 . S
C800 H787 0.930 . S
C800 C799 1.376 . S
C800 C801 1.388 . S
C801 H788 0.930 . S
C801 C800 1.388 . S
C801 C802 1.390 . S
C802 C801 1.390 . S
C802 C803 1.394 . S
C802 C808 1.465 . S
C803 C798 1.399 . S
C803 C802 1.394 . S
C803 C804 1.516 . S
C804 C803 1.516 . S
C804 C805 1.502 . S
C804 C806 1.561 . S
C804 C807 1.526 . S
C805 H789 0.959 . S
C805 H790 0.959 . S
C805 H791 0.961 . S
C805 C804 1.502 . S
C806 H792 0.960 . S
C806 H793 0.961 . S
C806 H794 0.959 . S
C806 C804 1.561 . S
C807 C804 1.526 . S
C807 C808 1.396 . S
C807 C812 1.390 . S
C808 C802 1.465 . S
C808 C807 1.396 . S
C808 C809 1.399 . S
C809 H795 0.929 . S
C809 C808 1.399 . S
C809 C810 1.385 . S
C810 H796 0.931 . S
C810 C809 1.385 . S
C810 C811 1.389 . S
C811 C810 1.389 . S
C811 C812 1.387 . S
C812 H797 0.930 . S
C812 C807 1.390 . S
C812 C811 1.387 . S
H813 C825 0.930 . S
H814 C827 0.930 . S
H815 C828 0.930 . S
H816 C832 0.959 . S
H817 C832 0.959 . S
H818 C832 0.961 . S
H819 C833 0.960 . S
H820 C833 0.961 . S
H821 C833 0.959 . S
H822 C836 0.929 . S
H823 C837 0.931 . S
H824 C839 0.930 . S
C825 H813 0.930 . S
C825 C826 1.399 . S
C825 C830 1.399 . S
C826 C825 1.399 . S
C826 C827 1.376 . S
C827 H814 0.930 . S
C827 C826 1.376 . S
C827 C828 1.388 . S
C828 H815 0.930 . S
C828 C827 1.388 . S
C828 C829 1.390 . S
C829 C828 1.390 . S
C829 C830 1.394 . S
C829 C835 1.465 . S
C830 C825 1.399 . S
C830 C829 1.394 . S
C830 C831 1.516 . S
C831 C830 1.516 . S
C831 C832 1.502 . S
C831 C833 1.561 . S
C831 C834 1.526 . S
C832 H816 0.959 . S
C832 H817 0.959 . S
C832 H818 0.961 . S
C832 C831 1.502 . S
C833 H819 0.960 . S
C833 H820 0.961 . S
C833 H821 0.959 . S
C833 C831 1.561 . S
C834 C831 1.526 . S
C834 C835 1.396 . S
C834 C839 1.390 . S
C835 C829 1.465 . S
C835 C834 1.396 . S
C835 C836 1.399 . S
C836 H822 0.929 . S
C836 C835 1.399 . S
C836 C837 1.385 . S
C837 H823 0.931 . S
C837 C836 1.385 . S
C837 C838 1.389 . S
C838 C837 1.389 . S
C838 C839 1.387 . S
C839 H824 0.930 . S
C839 C834 1.390 . S
C839 C838 1.387 . S
H840 C852 0.930 . S
H841 C854 0.930 . S
H842 C855 0.930 . S
H843 C859 0.959 . S
H844 C859 0.959 . S
H845 C859 0.961 . S
H846 C860 0.960 . S
H847 C860 0.961 1_545 S
H848 C860 0.959 . S
H849 C863 0.929 . S
H850 C864 0.931 . S
H851 C866 0.930 1_545 S
C852 H840 0.930 . S
C852 C853 1.399 . S
C852 C857 1.399 . S
C853 C852 1.399 . S
C853 C854 1.376 . S
C854 H841 0.930 . S
C854 C853 1.376 . S
C854 C855 1.388 . S
C855 H842 0.930 . S
C855 C854 1.388 . S
C855 C856 1.390 . S
C856 C855 1.390 . S
C856 C857 1.394 . S
C856 C862 1.465 . S
C857 C852 1.399 . S
C857 C856 1.394 . S
C857 C858 1.516 . S
C858 C857 1.516 . S
C858 C859 1.502 1_565 S
C858 C860 1.561 . S
C858 C861 1.526 . S
C859 H843 0.959 . S
C859 H844 0.959 . S
C859 H845 0.961 . S
C859 C858 1.502 1_545 S
C860 H846 0.960 . S
C860 H847 0.961 1_565 S
C860 H848 0.959 . S
C860 C858 1.561 . S
C861 C858 1.526 . S
C861 C862 1.396 . S
C861 C866 1.390 . S
C862 C856 1.465 . S
C862 C861 1.396 . S
C862 C863 1.399 . S
C863 H849 0.929 . S
C863 C862 1.399 . S
C863 C864 1.385 . S
C864 H850 0.931 . S
C864 C863 1.385 . S
C864 C865 1.389 . S
C865 C864 1.389 . S
C865 C866 1.387 . S
C866 H851 0.930 1_565 S
C866 C861 1.390 . S
C866 C865 1.387 . S
H867 C879 0.930 . S
H868 C881 0.930 . S
H869 C882 0.930 . S
H870 C886 0.959 . S
H871 C886 0.959 . S
H872 C886 0.961 . S
H873 C887 0.960 . S
H874 C887 0.961 . S
H875 C887 0.959 . S
H876 C890 0.929 . S
H877 C891 0.931 . S
H878 C893 0.930 . S
C879 H867 0.930 . S
C879 C880 1.399 . S
C879 C884 1.399 . S
C880 C879 1.399 . S
C880 C881 1.376 . S
C881 H868 0.930 . S
C881 C880 1.376 . S
C881 C882 1.388 . S
C882 H869 0.930 . S
C882 C881 1.388 . S
C882 C883 1.390 . S
C883 C882 1.390 . S
C883 C884 1.394 . S
C883 C889 1.465 . S
C884 C879 1.399 . S
C884 C883 1.394 . S
C884 C885 1.516 . S
C885 C884 1.516 . S
C885 C886 1.502 . S
C885 C887 1.561 . S
C885 C888 1.526 . S
C886 H870 0.959 . S
C886 H871 0.959 . S
C886 H872 0.961 . S
C886 C885 1.502 . S
C887 H873 0.960 . S
C887 H874 0.961 . S
C887 H875 0.959 . S
C887 C885 1.561 . S
C888 C885 1.526 . S
C888 C889 1.396 . S
C888 C893 1.390 . S
C889 C883 1.465 . S
C889 C888 1.396 . S
C889 C890 1.399 . S
C890 H876 0.929 . S
C890 C889 1.399 . S
C890 C891 1.385 . S
C891 H877 0.931 . S
C891 C890 1.385 . S
C891 C892 1.389 . S
C892 C891 1.389 . S
C892 C893 1.387 . S
C893 H878 0.930 . S
C893 C888 1.390 . S
C893 C892 1.387 . S
H894 C906 0.930 . S
H895 C908 0.930 . S
H896 C909 0.930 . S
H897 C913 0.959 . S
H898 C913 0.959 . S
H899 C913 0.961 . S
H900 C914 0.960 . S
H901 C914 0.961 . S
H902 C914 0.959 . S
H903 C917 0.929 . S
H904 C918 0.936 . S
H905 C920 0.930 . S
C906 H894 0.930 . S
C906 C907 1.399 . S
C906 C911 1.399 . S
C907 C906 1.399 . S
C907 C908 1.376 . S
C908 H895 0.930 . S
C908 C907 1.376 . S
C908 C909 1.388 . S
C909 H896 0.930 . S
C909 C908 1.388 . S
C909 C910 1.390 . S
C910 C909 1.390 . S
C910 C911 1.394 . S
C910 C916 1.465 . S
C911 C906 1.399 . S
C911 C910 1.394 . S
C911 C912 1.516 . S
C912 C911 1.516 . S
C912 C913 1.502 . S
C912 C914 1.561 . S
C912 C915 1.526 . S
C913 H897 0.959 . S
C913 H898 0.959 . S
C913 H899 0.961 . S
C913 C912 1.502 . S
C914 H900 0.960 . S
C914 H901 0.961 . S
C914 H902 0.959 . S
C914 C912 1.561 . S
C915 C912 1.526 . S
C915 C916 1.396 . S
C915 C920 1.390 . S
C916 C910 1.465 . S
C916 C915 1.396 . S
C916 C917 1.399 . S
C917 H903 0.929 . S
C917 C916 1.399 . S
C917 C918 1.385 . S
C918 H904 0.936 . S
C918 C917 1.385 . S
C918 C919 1.389 . S
C919 C918 1.389 . S
C919 C920 1.387 . S
C920 H905 0.930 . S
C920 C915 1.390 . S
C920 C919 1.387 . S
H921 C933 0.930 . S
H922 C935 0.930 . S
H923 C936 0.930 . S
H924 C940 0.959 . S
H925 C940 0.959 . S
H926 C940 0.961 . S
H927 C941 0.960 . S
H928 C941 0.961 . S
H929 C941 0.959 . S
H930 C944 0.929 . S
H931 C945 0.931 . S
H932 C947 0.930 . S
C933 H921 0.930 . S
C933 C934 1.399 . S
C933 C938 1.399 . S
C934 C933 1.399 . S
C934 C935 1.376 . S
C935 H922 0.930 . S
C935 C934 1.376 . S
C935 C936 1.388 . S
C936 H923 0.930 . S
C936 C935 1.388 . S
C936 C937 1.390 . S
C937 C936 1.390 . S
C937 C938 1.394 . S
C937 C943 1.465 . S
C938 C933 1.399 . S
C938 C937 1.394 . S
C938 C939 1.516 . S
C939 C938 1.516 . S
C939 C940 1.502 . S
C939 C941 1.561 . S
C939 C942 1.526 . S
C940 H924 0.959 . S
C940 H925 0.959 . S
C940 H926 0.961 . S
C940 C939 1.502 . S
C941 H927 0.960 . S
C941 H928 0.961 . S
C941 H929 0.959 . S
C941 C939 1.561 . S
C942 C939 1.526 . S
C942 C943 1.396 . S
C942 C947 1.390 . S
C943 C937 1.465 . S
C943 C942 1.396 . S
C943 C944 1.399 . S
C944 H930 0.929 . S
C944 C943 1.399 . S
C944 C945 1.385 . S
C945 H931 0.931 . S
C945 C944 1.385 . S
C945 C946 1.389 . S
C946 C945 1.389 . S
C946 C947 1.387 . S
C947 H932 0.930 . S
C947 C942 1.390 . S
C947 C946 1.387 . S
H948 C960 0.930 . S
H949 C962 0.930 . S
H950 C963 0.930 . S
H951 C967 0.955 1_455 S
H952 C967 0.955 1_454 S
H953 C967 0.961 1_454 S
H954 C968 0.960 . S
H955 C968 0.961 . S
H956 C968 0.959 . S
H957 C971 0.929 . S
H958 C972 0.931 . S
H959 C974 0.930 1_554 S
C960 H948 0.930 . S
C960 C961 1.399 . S
C960 C965 1.399 . S
C961 C960 1.399 . S
C961 C962 1.376 . S
C962 H949 0.930 . S
C962 C961 1.376 . S
C962 C963 1.388 . S
C963 H950 0.930 . S
C963 C962 1.388 . S
C963 C964 1.390 . S
C964 C963 1.390 . S
C964 C965 1.394 . S
C964 C970 1.465 . S
C965 C960 1.399 . S
C965 C964 1.394 . S
C965 C966 1.516 . S
C966 C965 1.516 . S
C966 C967 1.510 . S
C966 C968 1.561 1_556 S
C966 C969 1.526 . S
C967 H951 0.955 1_655 S
C967 H952 0.955 1_656 S
C967 H953 0.961 1_656 S
C967 C966 1.510 . S
C968 H954 0.960 . S
C968 H955 0.961 . S
C968 H956 0.959 . S
C968 C966 1.561 1_554 S
C969 C966 1.526 . S
C969 C970 1.396 . S
C969 C974 1.390 . S
C970 C964 1.465 . S
C970 C969 1.396 . S
C970 C971 1.399 . S
C971 H957 0.929 . S
C971 C970 1.399 . S
C971 C972 1.385 . S
C972 H958 0.931 . S
C972 C971 1.385 . S
C972 C973 1.389 . S
C973 C972 1.389 . S
C973 C974 1.387 . S
C974 H959 0.930 1_556 S
C974 C969 1.390 . S
C974 C973 1.387 . S
H975 C987 0.930 . S
H976 C989 0.930 . S
H977 C990 0.930 . S
H978 C994 0.959 1_554 S
H979 C994 0.959 . S
H980 C994 0.961 . S
H981 C995 0.960 . S
H982 C995 0.961 . S
H983 C995 0.959 1_554 S
H984 C998 0.929 . S
H985 C999 0.931 . S
H986 C1001 0.900 1_556 S
C987 H975 0.930 . S
C987 C988 1.399 . S
C987 C992 1.399 . S
C988 C987 1.399 . S
C988 C989 1.376 . S
C989 H976 0.930 . S
C989 C988 1.376 . S
C989 C990 1.388 . S
C990 H977 0.930 . S
C990 C989 1.388 . S
C990 C991 1.390 . S
C991 C990 1.390 . S
C991 C992 1.394 . S
C991 C997 1.465 . S
C992 C987 1.399 . S
C992 C991 1.394 . S
C992 C993 1.516 . S
C993 C992 1.516 . S
C993 C994 1.502 1_554 S
C993 C995 1.561 1_554 S
C993 C996 1.526 . S
C994 H978 0.959 1_556 S
C994 H979 0.959 . S
C994 H980 0.961 . S
C994 C993 1.502 1_556 S
C995 H981 0.960 . S
C995 H982 0.961 . S
C995 H983 0.959 1_556 S
C995 C993 1.561 1_556 S
C996 C993 1.526 . S
C996 C997 1.396 . S
C996 C1001 1.390 . S
C997 C991 1.465 . S
C997 C996 1.396 . S
C997 C998 1.399 . S
C998 H984 0.929 . S
C998 C997 1.399 . S
C998 C999 1.385 . S
C999 H985 0.931 . S
C999 C998 1.385 . S
C999 C1000 1.389 . S
C1000 C999 1.389 . S
C1000 C1001 1.387 . S
C1001 H986 0.900 1_554 S
C1001 C996 1.390 . S
C1001 C1000 1.387 . S
H1002 C1014 0.930 . S
H1003 C1016 0.930 . S
H1004 C1017 0.930 . S
H1005 C1021 0.959 . S
H1006 C1021 0.959 . S
H1007 C1021 0.961 . S
H1008 C1022 0.960 . S
H1009 C1022 0.961 . S
H1010 C1022 0.959 1_655 S
H1011 C1025 0.929 . S
H1012 C1026 0.931 . S
H1013 C1028 0.930 . S
C1014 H1002 0.930 . S
C1014 C1015 1.399 . S
C1014 C1019 1.399 . S
C1015 C1014 1.399 . S
C1015 C1016 1.376 . S
C1016 H1003 0.930 . S
C1016 C1015 1.376 . S
C1016 C1017 1.388 . S
C1017 H1004 0.930 . S
C1017 C1016 1.388 . S
C1017 C1018 1.390 . S
C1018 C1017 1.390 . S
C1018 C1019 1.394 . S
C1018 C1024 1.465 . S
C1019 C1014 1.399 . S
C1019 C1018 1.394 . S
C1019 C1020 1.516 . S
C1020 C1019 1.516 . S
C1020 C1021 1.502 . S
C1020 C1022 1.561 . S
C1020 C1023 1.526 . S
C1021 H1005 0.959 . S
C1021 H1006 0.959 . S
C1021 H1007 0.961 . S
C1021 C1020 1.502 . S
C1022 H1008 0.960 . S
C1022 H1009 0.961 . S
C1022 H1010 0.959 1_455 S
C1022 C1020 1.561 . S
C1023 C1020 1.526 . S
C1023 C1024 1.396 . S
C1023 C1028 1.390 . S
C1024 C1018 1.465 . S
C1024 C1023 1.396 . S
C1024 C1025 1.399 . S
C1025 H1011 0.929 . S
C1025 C1024 1.399 . S
C1025 C1026 1.385 . S
C1026 H1012 0.931 . S
C1026 C1025 1.385 . S
C1026 C1027 1.389 . S
C1027 C1026 1.389 . S
C1027 C1028 1.387 . S
C1028 H1013 0.930 . S
C1028 C1023 1.390 . S
C1028 C1027 1.387 . S
H1029 C1041 0.930 . S
H1030 C1043 0.930 . S
H1031 C1044 0.930 . S
H1032 C1048 0.959 . S
H1033 C1048 0.959 . S
H1034 C1048 0.961 . S
H1035 C1049 0.960 . S
H1036 C1049 0.961 . S
H1037 C1049 0.959 . S
H1038 C1052 0.929 . S
H1039 C1053 0.931 . S
H1040 C1055 0.930 . S
C1041 H1029 0.930 . S
C1041 C1042 1.399 . S
C1041 C1046 1.399 . S
C1042 C1041 1.399 . S
C1042 C1043 1.376 . S
C1043 H1030 0.930 . S
C1043 C1042 1.376 . S
C1043 C1044 1.388 . S
C1044 H1031 0.930 . S
C1044 C1043 1.388 . S
C1044 C1045 1.390 . S
C1045 C1044 1.390 . S
C1045 C1046 1.394 . S
C1045 C1051 1.465 . S
C1046 C1041 1.399 . S
C1046 C1045 1.394 . S
C1046 C1047 1.516 . S
C1047 C1046 1.516 . S
C1047 C1048 1.502 . S
C1047 C1049 1.561 . S
C1047 C1050 1.526 . S
C1048 H1032 0.959 . S
C1048 H1033 0.959 . S
C1048 H1034 0.961 . S
C1048 C1047 1.502 . S
C1049 H1035 0.960 . S
C1049 H1036 0.961 . S
C1049 H1037 0.959 . S
C1049 C1047 1.561 . S
C1050 C1047 1.526 . S
C1050 C1051 1.396 . S
C1050 C1055 1.390 . S
C1051 C1045 1.465 . S
C1051 C1050 1.396 . S
C1051 C1052 1.399 . S
C1052 H1038 0.929 . S
C1052 C1051 1.399 . S
C1052 C1053 1.385 . S
C1053 H1039 0.931 . S
C1053 C1052 1.385 . S
C1053 C1054 1.389 . S
C1054 C1053 1.389 . S
C1054 C1055 1.387 . S
C1055 H1040 0.930 . S
C1055 C1050 1.390 . S
C1055 C1054 1.387 . S
C421 C1 2.118 . S
C433 C304 2.170 . S
C448 C67 1.069 . S
C460 N324 1.078 . S
C487 C358 1.989 . S
C475 C97 1.923 . S
C502 C133 1.384 . S
C514 N392 1.249 . S
C541 C345 2.336 . S
C529 C25 2.309 . S
C568 N302 1.214 . S
C556 C37 1.155 . S
C595 C379 1.995 . S
C583 C103 1.987 . S
C622 N354 1.063 . S
C610 C109 1.040 . S
C637 C31 1.811 . S
C649 C394 1.850 . S
C676 C328 1.712 . S
C664 C73 1.674 . S
C691 C139 1.506 . S
C703 C289 1.499 . S
C718 C61 1.393 . S
C730 C375 1.470 . S
C757 C315 2.170 . S
C745 C175 2.171 . S
C772 C181 1.114 . S
C784 N332 1.086 . S
C799 C247 2.011 . S
C811 C349 1.994 . S
C826 C277 1.339 . S
C838 N384 1.275 . S
C853 C145 2.319 . S
C865 C334 2.338 . S
C892 N294 1.175 . S
C880 C211 1.205 . S
C919 C388 1.989 . S
C907 C217 1.966 . S
C946 N362 1.034 . S
C934 C283 1.047 . S
C961 C169 1.824 . S
C973 C405 1.843 . S
C1000 C319 1.718 . S
C988 C241 1.697 . S
C1027 C298 1.477 . S
C1015 C253 1.507 . S
C1042 C205 1.465 . S
C1054 C364 1.457 . S
