# Generated by pormake.
# Topology cml, (3,6)-cn, num edge types: 1
# Building blocks:
#     Node 0, Type 0, BuildingBlock: PAMTOO_clean_linker_0, # of connection points: 3
#     Node 1, Type 0, BuildingBlock: PAMTOO_clean_linker_0, # of connection points: 3
#     Node 2, Type 0, BuildingBlock: PAMTOO_clean_linker_0, # of connection points: 3
#     Node 3, Type 0, BuildingBlock: PAMTOO_clean_linker_0, # of connection points: 3
#     Node 4, Type 0, BuildingBlock: PAMTOO_clean_linker_0, # of connection points: 3
#     Node 5, Type 0, BuildingBlock: PAMTOO_clean_linker_0, # of connection points: 3
#     Node 6, Type 0, BuildingBlock: PAMTOO_clean_linker_0, # of connection points: 3
#     Node 7, Type 0, BuildingBlock: PAMTOO_clean_linker_0, # of connection points: 3
#     Node 8, Type 1, BuildingBlock: IZENUY_clean_sbu_0, # of connection points: 6
#     Node 9, Type 1, BuildingBlock: IZENUY_clean_sbu_0, # of connection points: 6
#     Node 10, Type 1, BuildingBlock: IZENUY_clean_sbu_0, # of connection points: 6
#     Node 11, Type 1, BuildingBlock: IZENUY_clean_sbu_0, # of connection points: 6
#     Edge 12, Type (0, 1), BuildingBlock: MIFKUJ_clean_linker_0, # of connection points: 2
#     Edge 13, Type (0, 1), BuildingBlock: MIFKUJ_clean_linker_0, # of connection points: 2
#     Edge 14, Type (0, 1), BuildingBlock: MIFKUJ_clean_linker_0, # of connection points: 2
#     Edge 15, Type (0, 1), BuildingBlock: MIFKUJ_clean_linker_0, # of connection points: 2
#     Edge 16, Type (0, 1), BuildingBlock: MIFKUJ_clean_linker_0, # of connection points: 2
#     Edge 17, Type (0, 1), BuildingBlock: MIFKUJ_clean_linker_0, # of connection points: 2
#     Edge 18, Type (0, 1), BuildingBlock: MIFKUJ_clean_linker_0, # of connection points: 2
#     Edge 19, Type (0, 1), BuildingBlock: MIFKUJ_clean_linker_0, # of connection points: 2
#     Edge 20, Type (0, 1), BuildingBlock: MIFKUJ_clean_linker_0, # of connection points: 2
#     Edge 21, Type (0, 1), BuildingBlock: MIFKUJ_clean_linker_0, # of connection points: 2
#     Edge 22, Type (0, 1), BuildingBlock: MIFKUJ_clean_linker_0, # of connection points: 2
#     Edge 23, Type (0, 1), BuildingBlock: MIFKUJ_clean_linker_0, # of connection points: 2
#     Edge 24, Type (0, 1), BuildingBlock: MIFKUJ_clean_linker_0, # of connection points: 2
#     Edge 25, Type (0, 1), BuildingBlock: MIFKUJ_clean_linker_0, # of connection points: 2
#     Edge 26, Type (0, 1), BuildingBlock: MIFKUJ_clean_linker_0, # of connection points: 2
#     Edge 27, Type (0, 1), BuildingBlock: MIFKUJ_clean_linker_0, # of connection points: 2
#     Edge 28, Type (0, 1), BuildingBlock: MIFKUJ_clean_linker_0, # of connection points: 2
#     Edge 29, Type (0, 1), BuildingBlock: MIFKUJ_clean_linker_0, # of connection points: 2
#     Edge 30, Type (0, 1), BuildingBlock: MIFKUJ_clean_linker_0, # of connection points: 2
#     Edge 31, Type (0, 1), BuildingBlock: MIFKUJ_clean_linker_0, # of connection points: 2
#     Edge 32, Type (0, 1), BuildingBlock: MIFKUJ_clean_linker_0, # of connection points: 2
#     Edge 33, Type (0, 1), BuildingBlock: MIFKUJ_clean_linker_0, # of connection points: 2
#     Edge 34, Type (0, 1), BuildingBlock: MIFKUJ_clean_linker_0, # of connection points: 2
#     Edge 35, Type (0, 1), BuildingBlock: MIFKUJ_clean_linker_0, # of connection points: 2
# Relax obj value: 0.004
# Max RMSD: 0.072
# Mean RMSD: 0.054
data_MOF--net-cml--node1-IZENUY_clean_sbu_0--node2-PAMTOO_clean_linker_0--edge1-MIFKUJ_clean_linker_0
_symmetry_space_group_name_H-M    P1
_symmetry_Int_Tables_number       1
_symmetry_cell_setting            triclinic
loop_
_symmetry_equiv_pos_as_xyz
'x, y, z'
_cell_length_a     48.12275
_cell_length_b     54.042314
_cell_length_c     46.688545
_cell_angle_alpha  89.991794
_cell_angle_beta   88.670654
_cell_angle_gamma 90.176983
loop_
_atom_site_label
_atom_site_type_symbol
_atom_site_fract_x
_atom_site_fract_y
_atom_site_fract_z
_atom_type_partial_charge
H0 H 0.33841 0.41383 0.03121 0.0
H1 H 0.28447 0.39225 0.96344 0.0
H2 H 0.28365 0.35107 0.0423 0.0
H3 H 0.27854 0.31992 0.99382 0.0
C4 C 0.26823 0.33231 0.97831 0.0
O5 O 0.26194 0.35461 0.99143 0.0
H6 H 0.28283 0.33573 0.95987 0.0
C7 C 0.32239 0.40165 0.02324 0.0
C8 C 0.31227 0.38207 0.04038 0.0
C9 C 0.31251 0.40545 0.99561 0.0
C10 C 0.29223 0.38945 0.98479 0.0
C11 C 0.28189 0.36978 1.00164 0.0
C12 C 0.2919 0.36617 0.02937 0.0
H13 H 0.66679 0.60007 0.52884 0.0
H14 H 0.72016 0.6642 0.52866 0.0
H15 H 0.72206 0.61498 0.45695 0.0
H16 H 0.77765 0.62964 0.47657 0.0
C17 C 0.77238 0.64813 0.48564 0.0
O18 O 0.74504 0.65362 0.48014 0.0
H19 H 0.77551 0.64733 0.50918 0.0
C20 C 0.682 0.61184 0.51809 0.0
C21 C 0.69235 0.60509 0.49074 0.0
C22 C 0.69131 0.63336 0.53196 0.0
C23 C 0.7125 0.64751 0.51867 0.0
C24 C 0.72394 0.64038 0.49211 0.0
C25 C 0.71358 0.61957 0.47797 0.0
H26 H 0.66522 0.41108 0.02642 0.0
H27 H 0.7175 0.34657 0.02787 0.0
H28 H 0.71244 0.38946 0.95106 0.0
H29 H 0.71605 0.33658 0.94102 0.0
C30 C 0.7274 0.33085 0.96042 0.0
O31 O 0.73582 0.35153 0.97522 0.0
H32 H 0.71295 0.3195 0.97404 0.0
C33 C 0.6793 0.39838 0.01557 0.0
C34 C 0.68693 0.40268 0.98672 0.0
C35 C 0.68984 0.37807 0.0307 0.0
C36 C 0.70921 0.36248 0.01688 0.0
C37 C 0.71741 0.36682 0.98835 0.0
C38 C 0.70633 0.3868 0.97333 0.0
H39 H 0.3366 0.59431 0.5332 0.0
H40 H 0.2848 0.61439 0.46301 0.0
H41 H 0.28863 0.6614 0.53704 0.0
H42 H 0.2326 0.64968 0.51435 0.0
C43 C 0.23762 0.65158 0.49104 0.0
O44 O 0.2659 0.65515 0.48702 0.0
H45 H 0.2313 0.6341 0.4804 0.0
C46 C 0.32174 0.60678 0.52378 0.0
C47 C 0.31386 0.62835 0.53862 0.0
C48 C 0.31151 0.6015 0.49653 0.0
C49 C 0.29308 0.61822 0.48393 0.0
C50 C 0.28461 0.63966 0.4987 0.0
C51 C 0.29527 0.64482 0.52582 0.0
H52 H 0.84455 0.90757 0.02954 0.0
H53 H 0.78818 0.89193 0.9616 0.0
H54 H 0.79215 0.84278 0.03371 0.0
H55 H 0.78982 0.82001 0.97604 0.0
C56 C 0.77374 0.83214 0.96664 0.0
O57 O 0.76767 0.85141 0.9852 0.0
H58 H 0.7824 0.8397 0.94613 0.0
C59 C 0.82871 0.89587 0.02037 0.0
C60 C 0.82003 0.8743 0.0349 0.0
C61 C 0.81749 0.90244 0.99394 0.0
C62 C 0.79707 0.88716 0.98198 0.0
C63 C 0.78778 0.86579 0.99649 0.0
C64 C 0.79919 0.85949 0.02291 0.0
H65 H 0.16029 0.10465 0.52184 0.0
H66 H 0.22419 0.15997 0.53185 0.0
H67 H 0.22486 0.11326 0.4575 0.0
H68 H 0.28024 0.12513 0.47857 0.0
C69 C 0.27594 0.14352 0.48841 0.0
O70 O 0.24912 0.15059 0.48281 0.0
H71 H 0.27869 0.14182 0.51195 0.0
C72 C 0.17901 0.11399 0.5142 0.0
C73 C 0.19128 0.10658 0.48809 0.0
C74 C 0.19081 0.13297 0.53061 0.0
C75 C 0.21464 0.14524 0.51976 0.0
C76 C 0.22674 0.13821 0.4934 0.0
C77 C 0.21528 0.1187 0.47777 0.0
H78 H 0.17369 0.91638 0.02927 0.0
H79 H 0.2275 0.85307 0.02984 0.0
H80 H 0.21337 0.89088 0.95089 0.0
H81 H 0.21786 0.83645 0.94531 0.0
C82 C 0.23112 0.83277 0.96405 0.0
O83 O 0.24017 0.85493 0.9752 0.0
H84 H 0.21838 0.82251 0.98036 0.0
C85 C 0.18731 0.90367 0.01784 0.0
C86 C 0.19169 0.90628 0.98806 0.0
C87 C 0.19968 0.88436 0.03304 0.0
C88 C 0.21763 0.86802 0.01845 0.0
C89 C 0.22274 0.8707 0.98899 0.0
C90 C 0.20973 0.88963 0.97382 0.0
H91 H 0.8474 0.10221 0.52333 0.0
H92 H 0.79992 0.12592 0.45109 0.0
H93 H 0.79419 0.16574 0.53048 0.0
H94 H 0.7409 0.15604 0.50375 0.0
C95 C 0.74726 0.15739 0.48073 0.0
O96 O 0.77539 0.16243 0.47834 0.0
H97 H 0.74291 0.13921 0.47053 0.0
C98 C 0.83287 0.11482 0.51369 0.0
C99 C 0.82205 0.13439 0.53026 0.0
C100 C 0.82553 0.11155 0.48491 0.0
C101 C 0.80604 0.12787 0.47315 0.0
C102 C 0.79453 0.14716 0.48969 0.0
C103 C 0.80294 0.15064 0.51799 0.0
Fe104 Fe 0.00946 0.83349 0.32708 0.0
Fe105 Fe 0.00623 0.86406 0.38252 0.0
O106 O 0.00728 0.86249 0.34461 0.0
Fe107 Fe 0.00629 0.89011 0.32422 0.0
O108 O 0.98849 0.87637 0.29362 0.0
O109 O 0.97743 0.83892 0.30807 0.0
O110 O 0.98827 0.81699 0.35418 0.0
C111 C 0.97145 0.82476 0.37342 0.0
C112 C 0.04624 0.86427 0.29457 0.0
O113 O 0.97454 0.84583 0.38459 0.0
C114 C 0.04025 0.90325 0.37058 0.0
O115 O 0.0416 0.82579 0.34459 0.0
O116 O 0.028 0.83656 0.38799 0.0
O117 O 0.0401 0.8838 0.30808 0.0
O118 O 0.03116 0.84505 0.297 0.0
C119 C 0.96827 0.90164 0.36599 0.0
O120 O 0.03793 0.88252 0.38291 0.0
O121 O 0.02414 0.9091 0.35067 0.0
C122 C 0.04481 0.82531 0.3713 0.0
O123 O 0.98421 0.89185 0.38405 0.0
O124 O 0.97239 0.89826 0.33944 0.0
C125 C 0.97388 0.85699 0.29151 0.0
Fe126 Fe 1.00125 0.1467 0.88416 0.0
Fe127 Fe 0.00582 0.12114 0.82553 0.0
O128 O 0.00386 0.14855 0.84623 0.0
Fe129 Fe 0.00463 0.17781 0.82891 0.0
O130 O 0.02294 0.19384 0.85771 0.0
O131 O 0.0332 0.16438 0.88806 0.0
O132 O 0.02239 0.11857 0.8868 0.0
C133 C 0.03933 0.10833 0.86936 0.0
C134 C 0.96466 0.18583 0.87042 0.0
O135 O 0.03741 0.11158 0.84274 0.0
C136 C 0.97124 0.14841 0.7925 0.0
O137 O 0.96927 0.12863 0.88311 0.0
O138 O 0.98414 0.10252 0.85018 0.0
O139 O 0.97099 0.18583 0.84408 0.0
O140 O 0.97939 0.17442 0.88828 0.0
C141 C 0.04346 0.1535 0.79629 0.0
O142 O 0.97436 0.12883 0.8068 0.0
O143 O 0.98639 0.16721 0.79691 0.0
C144 C 0.96705 0.10825 0.87008 0.0
O145 O 0.02787 0.13459 0.79708 0.0
O146 O 0.03841 0.17182 0.81228 0.0
C147 C 0.03781 0.18557 0.87757 0.0
Fe148 Fe 0.50671 0.33482 0.32988 0.0
Fe149 Fe 0.50455 0.36435 0.38622 0.0
O150 O 0.50543 0.36353 0.34824 0.0
Fe151 Fe 0.50521 0.3915 0.32852 0.0
O152 O 0.47307 0.38306 0.31146 0.0
O153 O 0.48621 0.34547 0.2994 0.0
O154 O 0.47424 0.32478 0.3465 0.0
C155 C 0.46941 0.32374 0.37313 0.0
C156 C 0.54267 0.36165 0.29622 0.0
O157 O 0.48439 0.33556 0.39047 0.0
C158 C 0.54062 0.40414 0.37091 0.0
O159 O 0.52726 0.31896 0.357 0.0
O160 O 0.53747 0.34802 0.38799 0.0
O161 O 0.52605 0.37967 0.29824 0.0
O162 O 0.53946 0.34284 0.31191 0.0
C163 C 0.46776 0.40138 0.37492 0.0
O164 O 0.52446 0.39331 0.38874 0.0
O165 O 0.53744 0.40171 0.34431 0.0
C166 C 0.54259 0.32733 0.37649 0.0
O167 O 0.47163 0.38089 0.3872 0.0
O168 O 0.48413 0.40863 0.355 0.0
C169 C 0.46987 0.36369 0.29678 0.0
Fe170 Fe 0.50276 0.64599 0.88586 0.0
Fe171 Fe 0.5053 0.62059 0.82715 0.0
O172 O 0.50423 0.64794 0.84795 0.0
Fe173 Fe 0.50466 0.67716 0.83075 0.0
O174 O 0.52426 0.69296 0.85883 0.0
O175 O 0.53504 0.6633 0.88876 0.0
O176 O 0.52372 0.61764 0.88751 0.0
C177 C 0.54038 0.60772 0.8695 0.0
C178 C 0.46609 0.68538 0.87366 0.0
O179 O 0.53772 0.61114 0.84295 0.0
C180 C 0.46932 0.64806 0.79606 0.0
O181 O 0.47045 0.62824 0.88562 0.0
O182 O 0.48486 0.60186 0.8528 0.0
O183 O 0.4716 0.68535 0.84716 0.0
O184 O 0.48145 0.67399 0.89095 0.0
C185 C 0.54153 0.65287 0.796 0.0
O186 O 0.47296 0.62838 0.81006 0.0
O187 O 0.485 0.66668 0.79961 0.0
C188 C 0.46811 0.6077 0.87296 0.0
O189 O 0.52584 0.63407 0.79752 0.0
O190 O 0.53784 0.67088 0.81281 0.0
C191 C 0.53968 0.68443 0.87811 0.0
H192 H 0.26515 0.29852 0.93533 0.0
H193 H 0.22485 0.27497 0.91949 0.0
H194 H 0.17307 0.31221 0.98253 0.0
H195 H 0.21365 0.33515 0.99912 0.0
H196 H 0.15946 0.26584 0.9819 0.0
H197 H 0.17189 0.32698 0.90909 0.0
H198 H 0.19725 0.3515 0.87235 0.0
H199 H 0.21447 0.28542 0.82413 0.0
H200 H 0.18952 0.26045 0.8608 0.0
H201 H 0.04727 0.23476 0.86709 0.0
H202 H 0.08403 0.261 0.88571 0.0
H203 H 0.11614 0.19898 0.93265 0.0
H204 H 0.07884 0.17274 0.91472 0.0
H205 H 0.13697 0.26074 0.87892 0.0
H206 H 0.14859 0.21835 0.9923 0.0
H207 H 0.1194 0.19805 0.02961 0.0
H208 H 0.04708 0.23426 0.99775 0.0
H209 H 0.07587 0.25503 0.96051 0.0
C210 C 0.24508 0.30189 0.94556 0.0
C211 C 0.24245 0.31929 0.96781 0.0
C212 C 0.22202 0.28844 0.93647 0.0
C213 C 0.19565 0.29214 0.94932 0.0
C214 C 0.19307 0.30913 0.97204 0.0
C215 C 0.21625 0.32244 0.98134 0.0
C216 C 0.17098 0.27798 0.93929 0.0
C217 C 0.15455 0.26477 0.95937 0.0
C218 C 0.16405 0.27688 0.90997 0.0
C219 C 0.17904 0.29183 0.88783 0.0
C220 C 0.18125 0.31765 0.89076 0.0
C221 C 0.19553 0.33164 0.86993 0.0
C222 C 0.20752 0.32002 0.84596 0.0
C223 C 0.2052 0.29439 0.84273 0.0
C224 C 0.19097 0.28032 0.86352 0.0
C225 C 0.06202 0.22668 0.88152 0.0
C226 C 0.05996 0.2016 0.88948 0.0
C227 C 0.08314 0.24174 0.89211 0.0
C228 C 0.10284 0.23214 0.91084 0.0
C229 C 0.10094 0.20705 0.91871 0.0
C230 C 0.07962 0.192 0.90833 0.0
C231 C 0.12569 0.24827 0.92146 0.0
C232 C 0.14184 0.26182 0.90146 0.0
C233 C 0.13183 0.25024 0.95093 0.0
C234 C 0.11437 0.23804 0.97344 0.0
C235 C 0.12648 0.22205 0.99333 0.0
C236 C 0.11 0.21045 0.01445 0.0
C237 C 0.08139 0.2148 0.01599 0.0
C238 C 0.06922 0.23083 0.99647 0.0
C239 C 0.08561 0.2425 0.97532 0.0
H240 H 0.06867 0.20579 0.03234 0.0
H241 H 0.21857 0.33087 0.82985 0.0
H242 H 0.78251 0.69447 0.50636 0.0
H243 H 0.81454 0.72595 0.48671 0.0
H244 H 0.83571 0.67735 0.41623 0.0
H245 H 0.80388 0.64586 0.43601 0.0
H246 H 0.88157 0.69663 0.44029 0.0
H247 H 0.79458 0.72739 0.40654 0.0
H248 H 0.74599 0.74144 0.41128 0.0
H249 H 0.77099 0.80013 0.46716 0.0
H250 H 0.81971 0.78621 0.46307 0.0
H251 H 0.95643 0.7798 0.35194 0.0
H252 H 0.92104 0.7514 0.37075 0.0
H253 H 0.90086 0.80283 0.43869 0.0
H254 H 0.93599 0.8317 0.41966 0.0
H255 H 0.85448 0.78275 0.4172 0.0
H256 H 0.94102 0.75249 0.45133 0.0
H257 H 0.98975 0.73872 0.44731 0.0
H258 H 0.96576 0.67922 0.39208 0.0
H259 H 0.91691 0.69286 0.39544 0.0
C260 C 0.79399 0.69066 0.48663 0.0
C261 C 0.79113 0.66773 0.47286 0.0
C262 C 0.81213 0.70862 0.47535 0.0
C263 C 0.82746 0.70401 0.44995 0.0
C264 C 0.82417 0.68125 0.4359 0.0
C265 C 0.80601 0.66331 0.44716 0.0
C266 C 0.84771 0.72251 0.43854 0.0
C267 C 0.87557 0.71536 0.43486 0.0
C268 C 0.84003 0.74717 0.43231 0.0
C269 C 0.81076 0.7556 0.43473 0.0
C270 C 0.78969 0.74317 0.42003 0.0
C271 C 0.76213 0.75113 0.42256 0.0
C272 C 0.7554 0.77162 0.43957 0.0
C273 C 0.77623 0.78424 0.45402 0.0
C274 C 0.80382 0.77633 0.45159 0.0
C275 C 0.94449 0.78515 0.37088 0.0
C276 C 0.94928 0.80795 0.38446 0.0
C277 C 0.92428 0.76883 0.38165 0.0
C278 C 0.90863 0.7748 0.40642 0.0
C279 C 0.91279 0.79781 0.41961 0.0
C280 C 0.93294 0.81425 0.40875 0.0
C281 C 0.88828 0.75677 0.41869 0.0
C282 C 0.86046 0.76402 0.42264 0.0
C283 C 0.89599 0.7322 0.42533 0.0
C284 C 0.92533 0.72384 0.42344 0.0
C285 C 0.94616 0.73658 0.43816 0.0
C286 C 0.9738 0.72878 0.43603 0.0
C287 C 0.98086 0.70814 0.4194 0.0
C288 C 0.96027 0.69522 0.40493 0.0
C289 C 0.9326 0.70296 0.40696 0.0
H290 H 1.00228 0.70214 0.41777 0.0
H291 H 0.73405 0.77776 0.44149 0.0
H292 H 0.76101 0.33646 0.91286 0.0
H293 H 0.80194 0.312 0.89874 0.0
H294 H 0.79139 0.26762 0.9751 0.0
H295 H 0.75069 0.29237 0.98942 0.0
H296 H 0.84544 0.2797 0.9652 0.0
H297 H 0.77063 0.24586 0.91046 0.0
H298 H 0.73147 0.2477 0.87738 0.0
H299 H 0.78573 0.27686 0.81123 0.0
H300 H 0.82515 0.2755 0.84405 0.0
H301 H 0.93639 0.18241 0.92179 0.0
H302 H 0.89636 0.20685 0.93811 0.0
H303 H 0.89962 0.24811 0.85893 0.0
H304 H 0.93885 0.22315 0.8421 0.0
H305 H 0.84868 0.23705 0.8711 0.0
H306 H 0.92332 0.2718 0.92484 0.0
H307 H 0.96295 0.2709 0.95738 0.0
H308 H 0.91011 0.24156 0.02462 0.0
H309 H 0.87023 0.24198 0.99235 0.0
C310 C 0.76744 0.32139 0.92648 0.0
C311 C 0.75244 0.31581 0.95181 0.0
C312 C 0.79073 0.30744 0.91844 0.0
C313 C 0.7994 0.28769 0.93562 0.0
C314 C 0.78494 0.28265 0.96143 0.0
C315 C 0.76167 0.29665 0.96951 0.0
C316 C 0.82341 0.27217 0.92652 0.0
C317 C 0.84604 0.2701 0.94479 0.0
C318 C 0.82443 0.26013 0.89961 0.0
C319 C 0.80078 0.26078 0.8798 0.0
C320 C 0.77417 0.25282 0.88892 0.0
C321 C 0.75193 0.25376 0.87021 0.0
C322 C 0.7561 0.26245 0.84224 0.0
C323 C 0.78253 0.27016 0.83291 0.0
C324 C 0.80483 0.26929 0.85154 0.0
C325 C 0.92862 0.19676 0.90793 0.0
C326 C 0.94083 0.2009 0.8807 0.0
C327 C 0.90581 0.2108 0.91733 0.0
C328 C 0.89518 0.22961 0.89993 0.0
C329 C 0.9074 0.23372 0.87274 0.0
C330 C 0.92988 0.21945 0.86317 0.0
C331 C 0.87096 0.2447 0.90965 0.0
C332 C 0.84819 0.24664 0.89152 0.0
C333 C 0.86994 0.25678 0.93659 0.0
C334 C 0.89385 0.2567 0.95609 0.0
C335 C 0.9202 0.265 0.94651 0.0
C336 C 0.9427 0.2646 0.96491 0.0
C337 C 0.93907 0.25612 0.99303 0.0
C338 C 0.9129 0.2481 0.00283 0.0
C339 C 0.89034 0.24843 0.9845 0.0
H340 H 0.95652 0.25582 0.00724 0.0
H341 H 0.73885 0.26316 0.82779 0.0
H342 H 0.20498 0.68585 0.51924 0.0
H343 H 0.17485 0.71722 0.49845 0.0
H344 H 0.20316 0.69602 0.41365 0.0
H345 H 0.23352 0.66459 0.43453 0.0
H346 H 0.19775 0.74666 0.4188 0.0
H347 H 0.14236 0.67458 0.43916 0.0
H348 H 0.123 0.64079 0.46904 0.0
H349 H 0.08555 0.69385 0.52634 0.0
H350 H 0.10504 0.72799 0.497 0.0
H351 H 0.08476 0.79836 0.34231 0.0
H352 H 0.11973 0.77106 0.36242 0.0
H353 H 0.09011 0.78904 0.44777 0.0
H354 H 0.0549 0.81617 0.42787 0.0
H355 H 0.09681 0.74016 0.44185 0.0
H356 H 0.15154 0.81242 0.42094 0.0
H357 H 0.17058 0.84614 0.39073 0.0
H358 H 0.20891 0.79296 0.3342 0.0
H359 H 0.18975 0.75888 0.36386 0.0
C360 C 0.20501 0.68809 0.49618 0.0
C361 C 0.22144 0.67272 0.47844 0.0
C362 C 0.18771 0.70594 0.48431 0.0
C363 C 0.1864 0.70875 0.45445 0.0
C364 C 0.20375 0.69416 0.43673 0.0
C365 C 0.22104 0.67623 0.44862 0.0
C366 C 0.16602 0.72608 0.4418 0.0
C367 C 0.17564 0.74508 0.42356 0.0
C368 C 0.13719 0.72433 0.44838 0.0
C369 C 0.12541 0.70384 0.46605 0.0
C370 C 0.13019 0.67905 0.45827 0.0
C371 C 0.11916 0.65983 0.47508 0.0
C372 C 0.10312 0.66517 0.49962 0.0
C373 C 0.09802 0.68974 0.50735 0.0
C374 C 0.10904 0.70904 0.49063 0.0
C375 C 0.08573 0.79663 0.36538 0.0
C376 C 0.06691 0.80949 0.38344 0.0
C377 C 0.10586 0.78107 0.37686 0.0
C378 C 0.10774 0.7781 0.40665 0.0
C379 C 0.0891 0.79101 0.42472 0.0
C380 C 0.06899 0.80659 0.41328 0.0
C381 C 0.1285 0.76093 0.419 0.0
C382 C 0.11892 0.74186 0.43714 0.0
C383 C 0.15732 0.76265 0.41228 0.0
C384 C 0.16898 0.78309 0.39447 0.0
C385 C 0.16384 0.80791 0.40194 0.0
C386 C 0.17469 0.82709 0.38493 0.0
C387 C 0.19088 0.8217 0.36051 0.0
C388 C 0.19633 0.79711 0.3531 0.0
C389 C 0.1855 0.77785 0.37001 0.0
H390 H 0.19926 0.83657 0.34738 0.0
H391 H 0.09459 0.65026 0.51261 0.0
H392 H 0.7275 0.8472 0.93832 0.0
H393 H 0.68679 0.82249 0.92527 0.0
H394 H 0.72125 0.75904 0.96768 0.0
H395 H 0.76197 0.78368 0.98053 0.0
H396 H 0.70275 0.74656 0.91577 0.0
H397 H 0.66637 0.79074 0.99729 0.0
H398 H 0.65533 0.82749 0.02665 0.0
H399 H 0.60461 0.85599 0.95982 0.0
H400 H 0.61567 0.81955 0.92988 0.0
H401 H 0.58164 0.67058 0.91352 0.0
H402 H 0.62034 0.69592 0.93008 0.0
H403 H 0.5888 0.75868 0.88413 0.0
H404 H 0.55007 0.73351 0.86744 0.0
H405 H 0.6055 0.77131 0.93838 0.0
H406 H 0.64229 0.72776 0.85665 0.0
H407 H 0.65288 0.69103 0.8271 0.0
H408 H 0.70267 0.66149 0.89408 0.0
H409 H 0.69201 0.6979 0.92424 0.0
C410 C 0.72616 0.82804 0.94506 0.0
C411 C 0.74782 0.81737 0.96045 0.0
C412 C 0.70292 0.81393 0.93765 0.0
C413 C 0.70082 0.78887 0.94561 0.0
C414 C 0.72237 0.77829 0.96125 0.0
C415 C 0.74556 0.7924 0.9687 0.0
C416 C 0.67658 0.77352 0.93697 0.0
C417 C 0.68151 0.7518 0.92112 0.0
C418 C 0.64878 0.7806 0.94327 0.0
C419 C 0.64208 0.80253 0.96122 0.0
C420 C 0.65306 0.80494 0.98875 0.0
C421 C 0.64676 0.8257 0.00552 0.0
C422 C 0.62934 0.8441 0.99508 0.0
C423 C 0.61813 0.84174 0.96787 0.0
C424 C 0.62439 0.82103 0.951 0.0
C425 C 0.58282 0.6898 0.90703 0.0
C426 C 0.56271 0.69996 0.88908 0.0
C427 C 0.60505 0.70425 0.91644 0.0
C428 C 0.60761 0.72918 0.90819 0.0
C429 C 0.58727 0.73951 0.89078 0.0
C430 C 0.56517 0.72503 0.88117 0.0
C431 C 0.63173 0.74438 0.9173 0.0
C432 C 0.62676 0.76606 0.93316 0.0
C433 C 0.6595 0.7373 0.91097 0.0
C434 C 0.66611 0.71545 0.89283 0.0
C435 C 0.65531 0.71334 0.86518 0.0
C436 C 0.66135 0.69259 0.8483 0.0
C437 C 0.67838 0.6739 0.85873 0.0
C438 C 0.68945 0.67596 0.88605 0.0
C439 C 0.68342 0.69666 0.90304 0.0
H440 H 0.68304 0.65786 0.84563 0.0
H441 H 0.62448 0.86015 0.0081 0.0
H442 H 0.29815 0.18377 0.51532 0.0
H443 H 0.32978 0.21517 0.49502 0.0
H444 H 0.32855 0.17802 0.41322 0.0
H445 H 0.29728 0.14637 0.43373 0.0
H446 H 0.38033 0.19085 0.42606 0.0
H447 H 0.29217 0.23135 0.42504 0.0
H448 H 0.2476 0.24664 0.44511 0.0
H449 H 0.29124 0.29263 0.50421 0.0
H450 H 0.3361 0.27733 0.48476 0.0
H451 H 0.441 0.28825 0.34373 0.0
H452 H 0.40705 0.25853 0.36299 0.0
H453 H 0.41464 0.29043 0.4471 0.0
H454 H 0.44872 0.32025 0.42808 0.0
H455 H 0.35938 0.28057 0.43239 0.0
H456 H 0.44763 0.23903 0.43321 0.0
H457 H 0.49184 0.224 0.412 0.0
H458 H 0.44708 0.18007 0.35175 0.0
H459 H 0.40257 0.19515 0.37234 0.0
C460 C 0.30484 0.18229 0.49307 0.0
C461 C 0.2958 0.1625 0.47616 0.0
C462 C 0.3227 0.2003 0.48143 0.0
C463 C 0.33141 0.19905 0.45252 0.0
C464 C 0.3222 0.17931 0.43558 0.0
C465 C 0.30439 0.16128 0.44725 0.0
C466 C 0.35041 0.21813 0.44007 0.0
C467 C 0.37553 0.21044 0.42708 0.0
C468 C 0.34443 0.24374 0.44189 0.0
C469 C 0.3175 0.253 0.45363 0.0
C470 C 0.29227 0.24457 0.44248 0.0
C471 C 0.26695 0.25326 0.45371 0.0
C472 C 0.26659 0.27054 0.47597 0.0
C473 C 0.29155 0.27921 0.487 0.0
C474 C 0.31693 0.27055 0.47586 0.0
C475 C 0.43538 0.28907 0.3663 0.0
C476 C 0.44776 0.30653 0.38442 0.0
C477 C 0.41602 0.27202 0.37727 0.0
C478 C 0.40855 0.27215 0.40651 0.0
C479 C 0.42019 0.29001 0.42448 0.0
C480 C 0.43974 0.30695 0.41359 0.0
C481 C 0.38917 0.25323 0.41846 0.0
C482 C 0.36406 0.26096 0.43135 0.0
C483 C 0.39505 0.22765 0.41642 0.0
C484 C 0.42178 0.21842 0.40413 0.0
C485 C 0.44722 0.22633 0.41529 0.0
C486 C 0.47233 0.21777 0.4034 0.0
C487 C 0.47227 0.20114 0.38049 0.0
C488 C 0.44709 0.19298 0.36947 0.0
C489 C 0.42192 0.20151 0.38125 0.0
H490 H 0.49173 0.19453 0.37132 0.0
H491 H 0.24697 0.27726 0.48464 0.0
H492 H 0.26904 0.81186 0.99913 0.0
H493 H 0.30939 0.78631 0.98571 0.0
H494 H 0.289 0.79344 0.89657 0.0
H495 H 0.24865 0.81888 0.91 0.0
H496 H 0.30126 0.74589 0.9105 0.0
H497 H 0.3416 0.82643 0.9237 0.0
H498 H 0.35175 0.86493 0.94984 0.0
H499 H 0.39121 0.82312 0.01562 0.0
H500 H 0.38093 0.78431 0.99005 0.0
H501 H 0.42645 0.70845 0.84249 0.0
H502 H 0.38691 0.73253 0.86024 0.0
H503 H 0.41172 0.71996 0.94719 0.0
H504 H 0.45161 0.69579 0.92961 0.0
H505 H 0.39723 0.7688 0.93707 0.0
H506 H 0.35865 0.68832 0.92268 0.0
H507 H 0.34915 0.64998 0.89598 0.0
H508 H 0.30662 0.69171 0.83224 0.0
H509 H 0.31625 0.73037 0.85835 0.0
C510 C 0.27329 0.80792 0.97671 0.0
C511 C 0.25582 0.8172 0.95559 0.0
C512 C 0.29631 0.79344 0.96905 0.0
C513 C 0.30228 0.7881 0.94012 0.0
C514 C 0.28474 0.79731 0.91901 0.0
C515 C 0.26178 0.81185 0.92667 0.0
C516 C 0.32668 0.77276 0.93179 0.0
C517 C 0.32227 0.75104 0.91604 0.0
C518 C 0.35401 0.77914 0.93971 0.0
C519 C 0.3602 0.80245 0.95513 0.0
C520 C 0.35221 0.82542 0.94387 0.0
C521 C 0.35803 0.84731 0.95856 0.0
C522 C 0.37203 0.84647 0.98442 0.0
C523 C 0.38031 0.82374 0.99561 0.0
C524 C 0.37451 0.8018 0.98102 0.0
C525 C 0.42361 0.7108 0.86541 0.0
C526 C 0.44223 0.70015 0.88464 0.0
C527 C 0.4009 0.7245 0.87551 0.0
C528 C 0.39624 0.72783 0.90503 0.0
C529 C 0.41494 0.71755 0.92432 0.0
C530 C 0.43765 0.70369 0.91423 0.0
C531 C 0.3718 0.7421 0.91554 0.0
C532 C 0.37619 0.76358 0.93171 0.0
C533 C 0.34443 0.73552 0.90801 0.0
C534 C 0.33838 0.71228 0.89236 0.0
C535 C 0.34745 0.68935 0.90286 0.0
C536 C 0.34202 0.66755 0.88785 0.0
C537 C 0.32734 0.66841 0.86239 0.0
C538 C 0.31801 0.69107 0.85195 0.0
C539 C 0.32343 0.71294 0.86686 0.0
H540 H 0.32316 0.65152 0.8508 0.0
H541 H 0.37654 0.86343 0.99575 0.0
H542 H 0.74469 0.2065 0.49532 0.0
H543 H 0.71384 0.23843 0.47642 0.0
H544 H 0.68025 0.18524 0.41751 0.0
H545 H 0.71142 0.15358 0.43594 0.0
H546 H 0.68627 0.22903 0.39176 0.0
H547 H 0.64668 0.19994 0.48168 0.0
H548 H 0.64654 0.19107 0.53351 0.0
H549 H 0.66137 0.26789 0.55125 0.0
H550 H 0.66195 0.27715 0.49947 0.0
H551 H 0.55582 0.28004 0.36054 0.0
H552 H 0.59366 0.25439 0.37736 0.0
H553 H 0.62012 0.31348 0.43261 0.0
H554 H 0.5818 0.33925 0.41623 0.0
H555 H 0.62089 0.27016 0.46018 0.0
H556 H 0.65577 0.29983 0.36993 0.0
H557 H 0.65393 0.30848 0.31815 0.0
H558 H 0.6472 0.23072 0.30069 0.0
H559 H 0.64852 0.22161 0.35242 0.0
C560 C 0.73098 0.20182 0.47804 0.0
C561 C 0.73043 0.17762 0.46709 0.0
C562 C 0.71324 0.21999 0.46737 0.0
C563 C 0.69436 0.21419 0.44578 0.0
C564 C 0.69457 0.19022 0.43415 0.0
C565 C 0.71235 0.17211 0.44473 0.0
C566 C 0.67356 0.23264 0.4361 0.0
C567 C 0.67186 0.23789 0.40671 0.0
C568 C 0.6551 0.24472 0.4556 0.0
C569 C 0.65468 0.23918 0.48671 0.0
C570 C 0.65012 0.2149 0.49663 0.0
C571 C 0.64993 0.20981 0.52599 0.0
C572 C 0.65403 0.22889 0.54566 0.0
C573 C 0.65825 0.25312 0.536 0.0
C574 C 0.6585 0.2583 0.50665 0.0
C575 C 0.56965 0.28768 0.37625 0.0
C576 C 0.56572 0.3118 0.38696 0.0
C577 C 0.59144 0.27298 0.38575 0.0
C578 C 0.61009 0.28209 0.40593 0.0
C579 C 0.60609 0.30605 0.41694 0.0
C580 C 0.58417 0.32079 0.40752 0.0
C581 C 0.63337 0.26633 0.41582 0.0
C582 C 0.63551 0.26156 0.44524 0.0
C583 C 0.6522 0.25469 0.39633 0.0
C584 C 0.65205 0.26005 0.36512 0.0
C585 C 0.65375 0.28458 0.35507 0.0
C586 C 0.6528 0.28956 0.32572 0.0
C587 C 0.6504 0.27017 0.30615 0.0
C588 C 0.64905 0.24573 0.31588 0.0
C589 C 0.64992 0.24064 0.34522 0.0
H590 H 0.64962 0.27407 0.28344 0.0
H591 H 0.65386 0.22492 0.56838 0.0
H592 H 0.29381 0.45278 0.994 0.0
H593 H 0.31731 0.48861 0.97179 0.0
H594 H 0.38157 0.44056 0.93794 0.0
H595 H 0.35816 0.40486 0.9605 0.0
H596 H 0.40373 0.47935 0.96398 0.0
H597 H 0.33323 0.46738 0.8944 0.0
H598 H 0.28549 0.46236 0.87719 0.0
H599 H 0.26396 0.53414 0.9101 0.0
H600 H 0.3115 0.53946 0.92787 0.0
H601 H 0.47122 0.55802 0.86416 0.0
H602 H 0.44168 0.52562 0.88472 0.0
H603 H 0.39171 0.58063 0.92834 0.0
H604 H 0.42173 0.61353 0.90807 0.0
H605 H 0.36096 0.54066 0.89944 0.0
H606 H 0.43366 0.55341 0.96552 0.0
H607 H 0.48206 0.55818 0.98067 0.0
H608 H 0.49988 0.48376 0.95423 0.0
H609 H 0.4519 0.47887 0.93756 0.0
C610 C 0.3126 0.44993 0.98121 0.0
C611 C 0.32405 0.42618 0.97845 0.0
C612 C 0.32605 0.47035 0.96859 0.0
C613 C 0.35118 0.46731 0.95302 0.0
C614 C 0.36223 0.44339 0.9498 0.0
C615 C 0.34878 0.423 0.96243 0.0
C616 C 0.36677 0.48914 0.94145 0.0
C617 C 0.39445 0.49255 0.94957 0.0
C618 C 0.35445 0.50686 0.92336 0.0
C619 C 0.32584 0.5037 0.91275 0.0
C620 C 0.31825 0.482 0.8982 0.0
C621 C 0.29124 0.47912 0.88829 0.0
C622 C 0.27168 0.49789 0.89262 0.0
C623 C 0.27912 0.5196 0.90681 0.0
C624 C 0.3061 0.52257 0.91678 0.0
C625 C 0.45384 0.56338 0.87793 0.0
C626 C 0.44887 0.58843 0.88451 0.0
C627 C 0.43701 0.54476 0.88973 0.0
C628 C 0.41461 0.55071 0.90814 0.0
C629 C 0.40894 0.57569 0.91416 0.0
C630 C 0.42614 0.59443 0.90268 0.0
C631 C 0.39791 0.53053 0.92166 0.0
C632 C 0.37011 0.52747 0.91396 0.0
C633 C 0.41017 0.51303 0.94003 0.0
C634 C 0.43918 0.5159 0.94988 0.0
C635 C 0.44799 0.53819 0.96242 0.0
C636 C 0.47539 0.54092 0.97125 0.0
C637 C 0.49411 0.52136 0.96813 0.0
C638 C 0.48543 0.49899 0.95629 0.0
C639 C 0.45814 0.49625 0.94706 0.0
H640 H 0.5153 0.52348 0.97506 0.0
H641 H 0.25078 0.49562 0.88493 0.0
H642 H 0.71929 0.57173 0.45489 0.0
H643 H 0.69921 0.53574 0.43089 0.0
H644 H 0.61918 0.55207 0.46945 0.0
H645 H 0.63831 0.58879 0.49198 0.0
H646 H 0.64683 0.49849 0.47455 0.0
H647 H 0.61809 0.56593 0.41024 0.0
H648 H 0.62902 0.601 0.37804 0.0
H649 H 0.68159 0.55417 0.3261 0.0
H650 H 0.67126 0.5189 0.35829 0.0
H651 H 0.53827 0.42864 0.4217 0.0
H652 H 0.56987 0.4602 0.4389 0.0
H653 H 0.62071 0.45252 0.36202 0.0
H654 H 0.58802 0.42158 0.34394 0.0
H655 H 0.61715 0.49844 0.37346 0.0
H656 H 0.64112 0.4296 0.42989 0.0
H657 H 0.63411 0.39313 0.46098 0.0
H658 H 0.59765 0.43909 0.52668 0.0
H659 H 0.60404 0.4758 0.49583 0.0
C660 C 0.69731 0.56798 0.45792 0.0
C661 C 0.68055 0.5832 0.47568 0.0
C662 C 0.68597 0.54728 0.44434 0.0
C663 C 0.65782 0.54129 0.44861 0.0
C664 C 0.64104 0.55635 0.46614 0.0
C665 C 0.65214 0.57725 0.47921 0.0
C666 C 0.64557 0.51913 0.43526 0.0
C667 C 0.64023 0.49837 0.45248 0.0
C668 C 0.63817 0.51875 0.40619 0.0
C669 C 0.64423 0.53991 0.38687 0.0
C670 C 0.63223 0.5632 0.39214 0.0
C671 C 0.63825 0.58309 0.37385 0.0
C672 C 0.65607 0.57984 0.3501 0.0
C673 C 0.66784 0.55668 0.34454 0.0
C674 C 0.66191 0.53674 0.36279 0.0
C675 C 0.55629 0.43349 0.40851 0.0
C676 C 0.56077 0.4225 0.38154 0.0
C677 C 0.57451 0.45147 0.41847 0.0
C678 C 0.59817 0.45839 0.40214 0.0
C679 C 0.60272 0.44743 0.37512 0.0
C680 C 0.58409 0.42973 0.36483 0.0
C681 C 0.61728 0.47777 0.41305 0.0
C682 C 0.62407 0.4981 0.3954 0.0
C683 C 0.62666 0.47746 0.44164 0.0
C684 C 0.62294 0.45546 0.46044 0.0
C685 C 0.63146 0.43192 0.4509 0.0
C686 C 0.62761 0.4112 0.46849 0.0
C687 C 0.61541 0.41379 0.49577 0.0
C688 C 0.6071 0.43712 0.50554 0.0
C689 C 0.61087 0.4579 0.48802 0.0
H690 H 0.61243 0.39772 0.50935 0.0
H691 H 0.6607 0.59526 0.33596 0.0
H692 H 0.71136 0.43369 0.94656 0.0
H693 H 0.6898 0.46803 0.92125 0.0
H694 H 0.61212 0.45344 0.96622 0.0
H695 H 0.63296 0.41833 0.99018 0.0
H696 H 0.60191 0.46383 0.91351 0.0
H697 H 0.65859 0.50071 0.98604 0.0
H698 H 0.70202 0.50902 0.01143 0.0
H699 H 0.73928 0.53857 0.93422 0.0
H700 H 0.69616 0.53014 0.90828 0.0
H701 H 0.53477 0.57976 0.91769 0.0
H702 H 0.56353 0.545 0.93218 0.0
H703 H 0.6178 0.5567 0.85862 0.0
H704 H 0.58851 0.59132 0.84337 0.0
H705 H 0.64311 0.54796 0.91893 0.0
H706 H 0.58207 0.51479 0.84861 0.0
H707 H 0.53665 0.50842 0.82642 0.0
H708 H 0.50585 0.47237 0.90268 0.0
H709 H 0.55081 0.47939 0.92586 0.0
C710 C 0.68959 0.43757 0.95076 0.0
C711 C 0.67402 0.42337 0.9707 0.0
C712 C 0.67735 0.4574 0.93648 0.0
C713 C 0.64942 0.46363 0.94216 0.0
C714 C 0.63372 0.44912 0.96154 0.0
C715 C 0.64581 0.42919 0.97553 0.0
C716 C 0.63642 0.48544 0.92846 0.0
C717 C 0.61093 0.4822 0.91483 0.0
C718 C 0.64838 0.50943 0.92959 0.0
C719 C 0.67429 0.51451 0.94514 0.0
C720 C 0.67613 0.5088 0.97443 0.0
C721 C 0.70067 0.51356 0.98892 0.0
C722 C 0.72343 0.52424 0.97442 0.0
C723 C 0.72166 0.53025 0.94541 0.0
C724 C 0.69717 0.52549 0.9308 0.0
C725 C 0.55301 0.57519 0.90473 0.0
C726 C 0.55943 0.58827 0.87937 0.0
C727 C 0.56934 0.55527 0.91301 0.0
C728 C 0.59265 0.54833 0.8964 0.0
C729 C 0.59983 0.56188 0.87166 0.0
C730 C 0.5831 0.58154 0.86298 0.0
C731 C 0.60861 0.52622 0.90459 0.0
C732 C 0.63448 0.52945 0.91724 0.0
C733 C 0.59684 0.50229 0.90293 0.0
C734 C 0.56976 0.49791 0.88911 0.0
C735 C 0.5655 0.50585 0.86085 0.0
C736 C 0.53983 0.50213 0.8481 0.0
C737 C 0.51832 0.49018 0.86325 0.0
C738 C 0.52248 0.48184 0.89113 0.0
C739 C 0.54805 0.4857 0.90409 0.0
H740 H 0.49846 0.48727 0.85333 0.0
H741 H 0.74241 0.52792 0.98569 0.0
H742 H 0.31312 0.55476 0.51831 0.0
H743 H 0.33395 0.51803 0.49624 0.0
H744 H 0.35213 0.55966 0.41917 0.0
H745 H 0.33086 0.5965 0.44114 0.0
H746 H 0.33665 0.51272 0.40655 0.0
H747 H 0.40142 0.55149 0.46922 0.0
H748 H 0.41702 0.5691 0.51486 0.0
H749 H 0.40442 0.49883 0.55618 0.0
H750 H 0.38832 0.48089 0.51085 0.0
H751 H 0.45115 0.44454 0.35051 0.0
H752 H 0.41902 0.4752 0.37019 0.0
H753 H 0.40333 0.42882 0.44402 0.0
H754 H 0.43587 0.39793 0.42452 0.0
H755 H 0.41502 0.47611 0.4591 0.0
H756 H 0.35372 0.43666 0.394 0.0
H757 H 0.33937 0.41986 0.3475 0.0
H758 H 0.34705 0.49205 0.30966 0.0
H759 H 0.36184 0.50923 0.35584 0.0
C760 C 0.32131 0.55601 0.49655 0.0
C761 C 0.32069 0.57857 0.48156 0.0
C762 C 0.33323 0.53502 0.48396 0.0
C763 C 0.34516 0.5362 0.45627 0.0
C764 C 0.34316 0.55833 0.44062 0.0
C765 C 0.33099 0.57935 0.45315 0.0
C766 C 0.36119 0.51487 0.44445 0.0
C767 C 0.35393 0.50484 0.41791 0.0
C768 C 0.38344 0.50425 0.45951 0.0
C769 C 0.39339 0.51492 0.48672 0.0
C770 C 0.40179 0.53984 0.48809 0.0
C771 C 0.41074 0.54988 0.5139 0.0
C772 C 0.41164 0.53511 0.53842 0.0
C773 C 0.40367 0.51026 0.53717 0.0
C774 C 0.39464 0.50014 0.51143 0.0
C775 C 0.44072 0.44067 0.37084 0.0
C776 C 0.44623 0.41877 0.38599 0.0
C777 C 0.42218 0.45821 0.38198 0.0
C778 C 0.40856 0.45427 0.40848 0.0
C779 C 0.41356 0.43223 0.42348 0.0
C780 C 0.4321 0.41456 0.41227 0.0
C781 C 0.39052 0.4739 0.42118 0.0
C782 C 0.39752 0.48374 0.44787 0.0
C783 C 0.36821 0.48442 0.40612 0.0
C784 C 0.3591 0.47419 0.37836 0.0
C785 C 0.35254 0.44892 0.37572 0.0
C786 C 0.3443 0.43934 0.34942 0.0
C787 C 0.34236 0.45487 0.32563 0.0
C788 C 0.34858 0.48004 0.32811 0.0
C789 C 0.35686 0.48971 0.35435 0.0
H790 H 0.33598 0.44741 0.30529 0.0
H791 H 0.41857 0.54292 0.55839 0.0
H792 H 0.83742 0.90646 0.93879 0.0
H793 H 0.85966 0.94272 0.91614 0.0
H794 H 0.84357 0.98537 0.99276 0.0
H795 H 0.82165 0.94914 0.01554 0.0
H796 H 0.83306 0.01164 0.94151 0.0
H797 H 0.90423 0.96242 0.98349 0.0
H798 H 0.93192 0.92499 0.9922 0.0
H799 H 0.95693 0.92272 0.90336 0.0
H800 H 0.92889 0.95985 0.89397 0.0
H801 H 0.93204 0.10979 0.91765 0.0
H802 H 0.90297 0.07612 0.93698 0.0
H803 H 0.92794 0.0297 0.86584 0.0
H804 H 0.95711 0.06293 0.84663 0.0
H805 H 0.9331 0.00555 0.91446 0.0
H806 H 0.86205 0.05426 0.87178 0.0
H807 H 0.83515 0.09209 0.86265 0.0
H808 H 0.81072 0.09575 0.95159 0.0
H809 H 0.83781 0.05811 0.96133 0.0
C810 C 0.83826 0.9237 0.95058 0.0
C811 C 0.8279 0.925 0.97893 0.0
C812 C 0.85108 0.94434 0.93771 0.0
C813 C 0.85346 0.9667 0.95286 0.0
C814 C 0.84199 0.96832 0.9807 0.0
C815 C 0.82957 0.94761 0.99371 0.0
C816 C 0.86903 0.98804 0.94026 0.0
C817 C 0.85499 0.01041 0.9358 0.0
C818 C 0.89755 0.9863 0.93241 0.0
C819 C 0.91405 0.9637 0.93793 0.0
C820 C 0.91529 0.95374 0.96571 0.0
C821 C 0.93112 0.93261 0.9708 0.0
C822 C 0.94607 0.92142 0.94833 0.0
C823 C 0.94525 0.93135 0.92073 0.0
C824 C 0.92936 0.95242 0.91551 0.0
C825 C 0.93106 0.09252 0.90594 0.0
C826 C 0.94705 0.0891 0.88063 0.0
C827 C 0.91437 0.07328 0.91699 0.0
C828 C 0.91318 0.05034 0.90283 0.0
C829 C 0.92856 0.04716 0.87722 0.0
C830 C 0.94521 0.06628 0.86622 0.0
C831 C 0.8971 0.02915 0.91527 0.0
C832 C 0.91111 0.0068 0.91991 0.0
C833 C 0.86857 0.03091 0.92312 0.0
C834 C 0.85219 0.0535 0.91733 0.0
C835 C 0.85113 0.06324 0.88944 0.0
C836 C 0.83581 0.08463 0.88414 0.0
C837 C 0.8213 0.09636 0.90654 0.0
C838 C 0.82201 0.08667 0.93427 0.0
C839 C 0.83732 0.06529 0.93968 0.0
H840 H 0.80945 0.11292 0.9024 0.0
H841 H 0.95838 0.9051 0.95232 0.0
H842 H 0.21532 0.06248 0.47441 0.0
H843 H 0.19266 0.02603 0.45401 0.0
H844 H 0.1169 0.06781 0.44555 0.0
H845 H 0.13922 0.10372 0.46729 0.0
H846 H 0.10426 0.02633 0.46729 0.0
H847 H 0.16183 0.05023 0.38672 0.0
H848 H 0.20539 0.06115 0.36079 0.0
H849 H 0.23912 0.98976 0.3801 0.0
H850 H 0.19587 0.97852 0.40647 0.0
H851 H 0.03397 0.95303 0.36653 0.0
H852 H 0.06313 0.98533 0.38665 0.0
H853 H 0.11751 0.92992 0.42074 0.0
H854 H 0.08788 0.89712 0.40106 0.0
H855 H 0.14308 0.97483 0.38811 0.0
H856 H 0.08073 0.95142 0.46609 0.0
H857 H 0.03449 0.94202 0.48724 0.0
H858 H 0.0072 0.0156 0.46801 0.0
H859 H 0.05313 0.02529 0.44613 0.0
C860 C 0.19397 0.06386 0.46773 0.0
C861 C 0.17895 0.08578 0.47222 0.0
C862 C 0.18103 0.04308 0.45603 0.0
C863 C 0.15306 0.04413 0.44799 0.0
C864 C 0.13841 0.06642 0.4517 0.0
C865 C 0.15117 0.08697 0.46392 0.0
C866 C 0.13849 0.02182 0.43707 0.0
C867 C 0.11274 0.01528 0.44979 0.0
C868 C 0.1497 0.00693 0.41465 0.0
C869 C 0.17573 0.01365 0.39885 0.0
C870 C 0.17862 0.03693 0.38564 0.0
C871 C 0.20324 0.04317 0.37083 0.0
C872 C 0.22504 0.02619 0.36888 0.0
C873 C 0.22223 1.00291 0.38168 0.0
C874 C 0.19767 0.99659 0.39654 0.0
C875 C 0.05222 0.94762 0.37813 0.0
C876 C 0.05868 0.92251 0.38223 0.0
C877 C 0.06881 0.96613 0.38963 0.0
C878 C 0.09239 0.95994 0.4051 0.0
C879 C 0.09937 0.93496 0.40876 0.0
C880 C 0.08241 0.91631 0.39768 0.0
C881 C 0.10899 0.97986 0.41811 0.0
C882 C 0.13497 0.98588 0.4058 0.0
C883 C 0.09778 0.99461 0.44049 0.0
C884 C 0.07031 0.98899 0.45417 0.0
C885 C 0.0648 0.96553 0.4661 0.0
C886 C 0.03864 0.96016 0.47825 0.0
C887 C 0.01788 0.97817 0.47885 0.0
C888 C 0.02329 1.00165 0.46745 0.0
C889 C 0.04938 0.00709 0.45517 0.0
H890 H 0.99764 0.97398 0.48824 0.0
H891 H 0.24408 0.03104 0.35739 0.0
H892 H 0.21038 0.93335 0.94128 0.0
H893 H 0.18602 0.96614 0.91628 0.0
H894 H 0.11591 0.95793 0.97489 0.0
H895 H 0.13883 0.92368 0.99806 0.0
H896 H 0.09669 0.96621 0.92669 0.0
H897 H 0.16893 0.0054 0.97996 0.0
H898 H 0.21696 0.01324 0.99501 0.0
H899 H 0.24066 0.03305 0.90876 0.0
H900 H 0.19282 0.02503 0.89313 0.0
H901 H 0.03729 0.08553 0.92149 0.0
H902 H 0.06515 0.05064 0.93727 0.0
H903 H 0.11191 0.05221 0.85741 0.0
H904 H 0.08377 0.08706 0.84109 0.0
H905 H 0.14402 0.0469 0.91077 0.0
H906 H 0.06606 0.01168 0.86144 0.0
H907 H 0.01619 0.00665 0.85184 0.0
H908 H 1.0012 0.98187 0.93821 0.0
H909 H 0.05092 0.98727 0.94853 0.0
C910 C 0.18957 0.93816 0.94854 0.0
C911 C 0.17686 0.92599 0.97211 0.0
C912 C 0.17579 0.95724 0.93445 0.0
C913 C 0.14934 0.96503 0.94408 0.0
C914 C 0.13637 0.95247 0.96708 0.0
C915 C 0.14979 0.93307 0.98069 0.0
C916 C 0.13513 0.98644 0.93073 0.0
C917 C 0.10707 0.98386 0.92346 0.0
C918 C 0.14865 0.0095 0.92599 0.0
C919 C 0.1774 0.01433 0.93532 0.0
C920 C 0.18445 0.01126 0.96417 0.0
C921 C 0.21162 0.01576 0.97281 0.0
C922 C 0.23187 0.02357 0.95283 0.0
C923 C 0.22497 0.02696 0.92419 0.0
C924 C 0.19783 0.02244 0.91543 0.0
C925 C 0.05369 0.0787 0.90734 0.0
C926 C 0.05825 0.08901 0.87995 0.0
C927 C 0.06949 0.05869 0.91637 0.0
C928 C 0.09032 0.04877 0.89836 0.0
C929 C 0.09581 0.05962 0.87152 0.0
C930 C 0.07971 0.07946 0.86225 0.0
C931 C 0.10573 0.02661 0.90744 0.0
C932 C 0.1339 0.02909 0.91381 0.0
C933 C 0.09212 1.0037 0.91215 0.0
C934 C 0.06223 1.00011 0.90583 0.0
C935 C 0.05211 0.00538 0.87847 0.0
C936 C 0.02386 1.00244 0.8729 0.0
C937 C 0.00552 0.99401 0.89443 0.0
C938 C 0.01542 0.98844 0.92157 0.0
C939 C 0.04364 0.99143 0.92729 0.0
H940 H 0.98367 0.99174 0.89007 0.0
H941 H 0.25289 0.02705 0.95956 0.0
H942 H 0.80195 0.08277 0.4429 0.0
H943 H 0.82308 0.04825 0.41664 0.0
H944 H 0.89891 0.05847 0.46284 0.0
H945 H 0.87897 0.09417 0.48703 0.0
H946 H 0.91301 0.04686 0.41304 0.0
H947 H 0.84574 0.01237 0.47985 0.0
H948 H 0.79932 0.00638 0.50236 0.0
H949 H 0.7675 0.98184 0.42199 0.0
H950 H 0.81368 0.98797 0.39893 0.0
H951 H 0.96862 0.92624 0.41689 0.0
H952 H 0.94069 0.96186 0.43137 0.0
H953 H 0.896 0.95761 0.35258 0.0
H954 H 0.92452 0.92203 0.33737 0.0
H955 H 0.86372 0.96609 0.41185 0.0
H956 H 0.93738 0.99652 0.3486 0.0
H957 H 0.98639 0.9991 0.33231 0.0
H958 H 0.00872 0.02951 0.41353 0.0
H959 H 0.96 0.02617 0.43078 0.0
C960 C 0.82331 0.07801 0.44708 0.0
C961 C 0.83849 0.09115 0.46759 0.0
C962 C 0.83527 0.05796 0.43231 0.0
C963 C 0.86244 0.0502 0.43819 0.0
C964 C 0.87787 0.06382 0.45794 0.0
C965 C 0.86619 0.08411 0.47218 0.0
C966 C 0.8749 0.02772 0.42445 0.0
C967 C 0.90213 0.02925 0.41293 0.0
C968 C 0.86081 0.00461 0.4238 0.0
C969 C 0.83305 1.00092 0.4376 0.0
C970 C 0.82878 0.00587 0.46695 0.0
C971 C 0.80253 1.00242 0.47981 0.0
C972 C 0.78045 0.99382 0.46359 0.0
C973 C 0.7846 0.98856 0.4345 0.0
C974 C 0.81081 0.99201 0.42153 0.0
C975 C 0.9526 0.93255 0.40272 0.0
C976 C 0.94885 0.92129 0.37589 0.0
C977 C 0.9367 0.95298 0.41106 0.0
C978 C 0.91642 0.96236 0.393 0.0
C979 C 0.9116 0.95056 0.36679 0.0
C980 C 0.92792 0.93031 0.35813 0.0
C981 C 0.90164 0.98542 0.40109 0.0
C982 C 0.87418 0.98391 0.41159 0.0
C983 C 0.91576 0.00839 0.40156 0.0
C984 C 0.94503 0.01083 0.39108 0.0
C985 C 0.95278 1.00344 0.36315 0.0
C986 C 0.98053 0.005 0.35376 0.0
C987 C 1.0007 0.01427 0.37198 0.0
C988 C 0.99312 0.0221 0.39957 0.0
C989 C 0.96543 0.02036 0.40917 0.0
H990 H 0.02217 0.0155 0.36467 0.0
H991 H 0.76014 0.99115 0.47359 0.0
H992 H 0.32921 0.33872 0.06496 0.0
H993 H 0.35254 0.33362 0.11071 0.0
H994 H 0.34449 0.4119 0.12691 0.0
H995 H 0.32141 0.41708 0.08125 0.0
H996 H 0.39602 0.39758 0.13531 0.0
H997 H 0.30526 0.36794 0.16421 0.0
H998 H 0.26345 0.34165 0.1613 0.0
H999 H 0.3132 0.27668 0.17241 0.0
H1000 H 0.35539 0.30257 0.175 0.0
H1001 H 0.4377 0.40214 0.27864 0.0
H1002 H 0.40763 0.40303 0.23721 0.0
H1003 H 0.42566 0.32624 0.22032 0.0
H1004 H 0.45584 0.32511 0.26178 0.0
H1005 H 0.3695 0.33823 0.21237 0.0
H1006 H 0.45989 0.36741 0.18326 0.0
H1007 H 0.50197 0.3933 0.18659 0.0
H1008 H 0.45299 0.45874 0.17542 0.0
H1009 H 0.41052 0.43324 0.17255 0.0
C1010 C 0.33198 0.35474 0.07855 0.0
C1011 C 0.32362 0.37832 0.06943 0.0
C1012 C 0.34534 0.35182 0.10468 0.0
C1013 C 0.35026 0.37239 0.12234 0.0
C1014 C 0.34111 0.39579 0.11361 0.0
C1015 C 0.32793 0.39872 0.0875 0.0
C1016 C 0.36623 0.36992 0.14912 0.0
C1017 C 0.38992 0.38484 0.15231 0.0
C1018 C 0.35887 0.35277 0.17098 0.0
C1019 C 0.33352 0.33718 0.16951 0.0
C1020 C 0.30732 0.34803 0.1658 0.0
C1021 C 0.28355 0.33321 0.16425 0.0
C1022 C 0.28568 0.30751 0.16659 0.0
C1023 C 0.31159 0.29659 0.17056 0.0
C1024 C 0.33543 0.31133 0.1721 0.0
C1025 C 0.43509 0.38533 0.26634 0.0
C1026 C 0.44947 0.36362 0.2734 0.0
C1027 C 0.41791 0.3859 0.24262 0.0
C1028 C 0.41468 0.36478 0.22549 0.0
C1029 C 0.42791 0.34275 0.23322 0.0
C1030 C 0.44526 0.34219 0.25686 0.0
C1031 C 0.39885 0.36618 0.19861 0.0
C1032 C 0.37542 0.35099 0.19535 0.0
C1033 C 0.40643 0.38304 0.17658 0.0
C1034 C 0.43198 0.39842 0.17798 0.0
C1035 C 0.45806 0.38733 0.18175 0.0
C1036 C 0.48198 0.40193 0.18352 0.0
C1037 C 0.48014 0.42765 0.18128 0.0
C1038 C 0.45438 0.43881 0.17719 0.0
C1039 C 0.43037 0.42429 0.17548 0.0
H1040 H 0.49869 0.43893 0.18265 0.0
H1041 H 0.26725 0.29606 0.16538 0.0
H1042 H 0.63693 0.62839 0.54975 0.0
H1043 H 0.61622 0.63854 0.59602 0.0
H1044 H 0.69462 0.66805 0.62359 0.0
H1045 H 0.71632 0.6558 0.57791 0.0
H1046 H 0.6734 0.64366 0.66512 0.0
H1047 H 0.63645 0.70632 0.60653 0.0
H1048 H 0.61411 0.72522 0.56491 0.0
H1049 H 0.53946 0.68389 0.58328 0.0
H1050 H 0.56152 0.66436 0.62466 0.0
H1051 H 0.58843 0.68187 0.78996 0.0
H1052 H 0.61845 0.68622 0.74672 0.0
H1053 H 0.56612 0.6349 0.70197 0.0
H1054 H 0.5367 0.63008 0.7447 0.0
H1055 H 0.57937 0.68089 0.67202 0.0
H1056 H 0.62289 0.61357 0.72585 0.0
H1057 H 0.64537 0.59767 0.76907 0.0
H1058 H 0.70872 0.65352 0.76072 0.0
H1059 H 0.68637 0.66992 0.71761 0.0
C1060 C 0.65002 0.6367 0.56568 0.0
C1061 C 0.67846 0.64104 0.55997 0.0
C1062 C 0.63792 0.64302 0.59207 0.0
C1063 C 0.65362 0.65467 0.61321 0.0
C1064 C 0.68197 0.65928 0.60759 0.0
C1065 C 0.6943 0.65247 0.58128 0.0
C1066 C 0.64046 0.66073 0.64152 0.0
C1067 C 0.65315 0.65239 0.66658 0.0
C1068 C 0.61405 0.67224 0.64374 0.0
C1069 C 0.6007 0.68383 0.61871 0.0
C1070 C 0.61534 0.70113 0.60159 0.0
C1071 C 0.60272 0.71196 0.57803 0.0
C1072 C 0.57539 0.70575 0.57144 0.0
C1073 C 0.56062 0.6887 0.58841 0.0
C1074 C 0.57316 0.67777 0.61195 0.0
C1075 C 0.5835 0.67149 0.77088 0.0
C1076 C 0.56039 0.65549 0.77076 0.0
C1077 C 0.60058 0.674 0.7463 0.0
C1078 C 0.59437 0.6609 0.72125 0.0
C1079 C 0.57119 0.64518 0.7211 0.0
C1080 C 0.55453 0.64232 0.74564 0.0
C1081 C 0.61188 0.66295 0.69493 0.0
C1082 C 0.59997 0.67284 0.67037 0.0
C1083 C 0.63912 0.65335 0.69326 0.0
C1084 C 0.65282 0.64312 0.71874 0.0
C1085 C 0.64151 0.62254 0.73335 0.0
C1086 C 0.65424 0.61343 0.75779 0.0
C1087 C 0.67841 0.62463 0.76769 0.0
C1088 C 0.68998 0.64489 0.75306 0.0
C1089 C 0.6773 0.65409 0.72861 0.0
H1090 H 0.68822 0.61757 0.78664 0.0
H1091 H 0.56566 0.71417 0.5532 0.0
H1092 H 0.63704 0.38289 0.05262 0.0
H1093 H 0.621 0.37766 0.10212 0.0
H1094 H 0.70315 0.3553 0.12605 0.0
H1095 H 0.71989 0.36145 0.07645 0.0
H1096 H 0.65223 0.32542 0.14938 0.0
H1097 H 0.69268 0.40686 0.14519 0.0
H1098 H 0.70122 0.44781 0.12333 0.0
H1099 H 0.61405 0.4642 0.1299 0.0
H1100 H 0.60493 0.42318 0.15138 0.0
H1101 H 0.59245 0.33685 0.2924 0.0
H1102 H 0.62626 0.33766 0.25212 0.0
H1103 H 0.57178 0.38567 0.20544 0.0
H1104 H 0.53903 0.38588 0.24575 0.0
H1105 H 0.62119 0.40197 0.19913 0.0
H1106 H 0.57926 0.31937 0.19381 0.0
H1107 H 0.56815 0.27804 0.21356 0.0
H1108 H 0.65509 0.26358 0.22357 0.0
H1109 H 0.66666 0.30492 0.20409 0.0
C1110 C 0.65186 0.37708 0.06835 0.0
C1111 C 0.67991 0.37304 0.06058 0.0
C1112 C 0.64256 0.37385 0.09658 0.0
C1113 C 0.66095 0.36624 0.11764 0.0
C1114 C 0.68868 0.36113 0.10997 0.0
C1115 C 0.69815 0.36463 0.08164 0.0
C1116 C 0.65101 0.3652 0.14781 0.0
C1117 C 0.64597 0.34212 0.16066 0.0
C1118 C 0.64267 0.38702 0.16223 0.0
C1119 C 0.64812 0.41189 0.14976 0.0
C1120 C 0.67531 0.41913 0.1418 0.0
C1121 C 0.68026 0.44236 0.1295 0.0
C1122 C 0.65819 0.45858 0.1252 0.0
C1123 C 0.63113 0.45162 0.13325 0.0
C1124 C 0.62607 0.4284 0.14553 0.0
C1125 C 0.58787 0.34758 0.2735 0.0
C1126 C 0.56322 0.36139 0.27224 0.0
C1127 C 0.60711 0.34797 0.25047 0.0
C1128 C 0.60155 0.36163 0.22558 0.0
C1129 C 0.57677 0.3752 0.22443 0.0
C1130 C 0.55798 0.37526 0.24752 0.0
C1131 C 0.62098 0.36207 0.20034 0.0
C1132 C 0.62796 0.38518 0.18835 0.0
C1133 C 0.63074 0.34025 0.18665 0.0
C1134 C 0.62379 0.31527 0.19779 0.0
C1135 C 0.59598 0.30738 0.20032 0.0
C1136 C 0.58961 0.28397 0.21146 0.0
C1137 C 0.6109 0.26823 0.21989 0.0
C1138 C 0.63862 0.27581 0.21706 0.0
C1139 C 0.6451 0.29921 0.20596 0.0
H1140 H 0.60593 0.25013 0.22857 0.0
H1141 H 0.66205 0.47656 0.11565 0.0
H1142 H 0.31854 0.59608 0.58316 0.0
H1143 H 0.34172 0.60278 0.62849 0.0
H1144 H 0.35882 0.67848 0.60448 0.0
H1145 H 0.33591 0.67172 0.55865 0.0
H1146 H 0.40497 0.65507 0.62457 0.0
H1147 H 0.31045 0.66608 0.65563 0.0
H1148 H 0.26074 0.65537 0.6608 0.0
H1149 H 0.28154 0.58887 0.70573 0.0
H1150 H 0.33142 0.599 0.70048 0.0
H1151 H 0.45773 0.68644 0.76008 0.0
H1152 H 0.42804 0.68587 0.7184 0.0
H1153 H 0.40621 0.60984 0.73602 0.0
H1154 H 0.43566 0.61027 0.77804 0.0
H1155 H 0.36137 0.63641 0.71953 0.0
H1156 H 0.45552 0.62395 0.68651 0.0
H1157 H 0.50539 0.63424 0.68198 0.0
H1158 H 0.48565 0.70258 0.64032 0.0
H1159 H 0.43558 0.69296 0.64517 0.0
C1160 C 0.32711 0.6142 0.58757 0.0
C1161 C 0.32548 0.63336 0.56729 0.0
C1162 C 0.3402 0.61805 0.61358 0.0
C1163 C 0.35189 0.64117 0.61998 0.0
C1164 C 0.3499 0.6605 0.6 0.0
C1165 C 0.33663 0.65668 0.57396 0.0
C1166 C 0.36712 0.64467 0.64704 0.0
C1167 C 0.3953 0.65146 0.64538 0.0
C1168 C 0.35469 0.63933 0.67415 0.0
C1169 C 0.3247 0.63321 0.67745 0.0
C1170 C 0.30444 0.64907 0.66642 0.0
C1171 C 0.27623 0.64312 0.6694 0.0
C1172 C 0.26799 0.62143 0.68353 0.0
C1173 C 0.28795 0.60566 0.69477 0.0
C1174 C 0.3162 0.61151 0.69183 0.0
C1175 C 0.44647 0.66962 0.75529 0.0
C1176 C 0.44935 0.6483 0.7723 0.0
C1177 C 0.42955 0.66933 0.73137 0.0
C1178 C 0.41526 0.6477 0.72381 0.0
C1179 C 0.41714 0.62671 0.74139 0.0
C1180 C 0.43405 0.62697 0.76537 0.0
C1181 C 0.39922 0.64668 0.69702 0.0
C1182 C 0.37095 0.64026 0.69874 0.0
C1183 C 0.41161 0.65225 0.66994 0.0
C1184 C 0.44175 0.65786 0.66651 0.0
C1185 C 0.46178 0.64127 0.67658 0.0
C1186 C 0.49009 0.64697 0.67395 0.0
C1187 C 0.49867 0.66908 0.66096 0.0
C1188 C 0.47896 0.68548 0.65045 0.0
C1189 C 0.45061 0.67992 0.65314 0.0
H1190 H 0.52059 0.6735 0.65903 0.0
H1191 H 0.24614 0.61685 0.68582 0.0
H1192 H 0.79501 0.85731 0.08475 0.0
H1193 H 0.8173 0.84824 0.13034 0.0
H1194 H 0.89717 0.86697 0.09231 0.0
H1195 H 0.87524 0.87539 0.04678 0.0
H1196 H 0.90096 0.82658 0.12485 0.0
H1197 H 0.86035 0.90807 0.13447 0.0
H1198 H 0.82192 0.93816 0.13469 0.0
H1199 H 0.77996 0.89744 0.20189 0.0
H1200 H 0.81801 0.86692 0.20179 0.0
H1201 H 0.98367 0.87396 0.23751 0.0
H1202 H 0.95404 0.8697 0.19586 0.0
H1203 H 0.89309 0.83028 0.24752 0.0
H1204 H 0.92336 0.83361 0.28923 0.0
H1205 H 0.8744 0.87461 0.21171 0.0
H1206 H 0.92185 0.7978 0.20752 0.0
H1207 H 0.96113 0.76873 0.20627 0.0
H1208 H 0.99102 0.80063 0.12714 0.0
H1209 H 0.95273 0.83073 0.12859 0.0
C1210 C 0.81736 0.85917 0.08606 0.0
C1211 C 0.83332 0.86732 0.06222 0.0
C1212 C 0.83004 0.85417 0.11217 0.0
C1213 C 0.8589 0.8572 0.11488 0.0
C1214 C 0.87489 0.86455 0.09082 0.0
C1215 C 0.86227 0.86958 0.06484 0.0
C1216 C 0.87268 0.85348 0.14276 0.0
C1217 C 0.89529 0.83717 0.14382 0.0
C1218 C 0.86468 0.86672 0.16778 0.0
C1219 C 0.84183 0.88505 0.16787 0.0
C1220 C 0.84281 0.90542 0.14912 0.0
C1221 C 0.82112 0.92257 0.14925 0.0
C1222 C 0.79846 0.91967 0.16822 0.0
C1223 C 0.79749 0.89964 0.18716 0.0
C1224 C 0.81911 0.88241 0.18708 0.0
C1225 C 0.96398 0.86434 0.23999 0.0
C1226 C 0.9557 0.85422 0.2666 0.0
C1227 C 0.94716 0.86182 0.21617 0.0
C1228 C 0.92144 0.84963 0.21863 0.0
C1229 C 0.91294 0.83967 0.24523 0.0
C1230 C 0.93019 0.84156 0.26895 0.0
C1231 C 0.90325 0.8483 0.19346 0.0
C1232 C 0.87985 0.86371 0.1929 0.0
C1233 C 0.91075 0.8344 0.16879 0.0
C1234 C 0.93453 0.81688 0.16844 0.0
C1235 C 0.93712 0.79906 0.19019 0.0
C1236 C 0.95922 0.78232 0.18941 0.0
C1237 C 0.97866 0.78291 0.16673 0.0
C1238 C 0.97602 0.80024 0.14477 0.0
C1239 C 0.95418 0.81724 0.14565 0.0
H1240 H 0.99569 0.76988 0.16611 0.0
H1241 H 0.78169 0.93297 0.16831 0.0
H1242 H 0.18475 0.17904 0.55535 0.0
H1243 H 0.16253 0.18894 0.60179 0.0
H1244 H 0.14596 0.11145 0.61627 0.0
H1245 H 0.16898 0.10127 0.57084 0.0
H1246 H 0.09875 0.14357 0.62381 0.0
H1247 H 0.19581 0.13613 0.6504 0.0
H1248 H 0.24538 0.14777 0.6474 0.0
H1249 H 0.22478 0.22238 0.6711 0.0
H1250 H 0.17501 0.21124 0.67384 0.0
H1251 H 0.06392 0.11615 0.76325 0.0
H1252 H 0.09175 0.11966 0.71925 0.0
H1253 H 0.09819 0.19857 0.73121 0.0
H1254 H 0.0701 0.19527 0.77569 0.0
H1255 H 0.14827 0.17511 0.70856 0.0
H1256 H 0.05243 0.1822 0.68861 0.0
H1257 H 1.00264 0.17146 0.69229 0.0
H1258 H 0.01957 0.1003 0.65508 0.0
H1259 H 0.06957 0.11039 0.65171 0.0
C1260 C 0.17674 0.16408 0.56861 0.0
C1261 C 0.17838 0.13936 0.55914 0.0
C1262 C 0.16394 0.1698 0.59503 0.0
C1263 C 0.15246 0.15092 0.61225 0.0
C1264 C 0.15443 0.12629 0.60309 0.0
C1265 C 0.16746 0.12055 0.57699 0.0
C1266 C 0.13787 0.15644 0.63973 0.0
C1267 C 0.10954 0.15046 0.64234 0.0
C1268 C 0.15179 0.1663 0.66353 0.0
C1269 C 0.18168 0.17294 0.66194 0.0
C1270 C 0.20183 0.15508 0.65468 0.0
C1271 C 0.22997 0.16157 0.65309 0.0
C1272 C 0.23822 0.18583 0.65895 0.0
C1273 C 0.21835 0.20362 0.6665 0.0
C1274 C 0.19018 0.19722 0.66808 0.0
C1275 C 0.07154 0.13426 0.75684 0.0
C1276 C 0.06439 0.15549 0.77271 0.0
C1277 C 0.08745 0.13621 0.73168 0.0
C1278 C 0.0965 0.15942 0.72176 0.0
C1279 C 0.0912 0.18052 0.73851 0.0
C1280 C 0.07519 0.17858 0.76387 0.0
C1281 C 0.10944 0.16136 0.69281 0.0
C1282 C 0.13732 0.16876 0.68987 0.0
C1283 C 0.09502 0.15311 0.66851 0.0
C1284 C 0.06485 0.14701 0.67008 0.0
C1285 C 0.04559 0.16418 0.6814 0.0
C1286 C 0.01731 0.15822 0.68342 0.0
C1287 C 0.00795 0.13521 0.67396 0.0
C1288 C 0.02686 0.11812 0.66241 0.0
C1289 C 0.05518 0.12396 0.66042 0.0
H1290 H 0.98605 0.13063 0.67554 0.0
H1291 H 0.26002 0.19082 0.65772 0.0
H1292 H 0.19756 0.91871 0.07605 0.0
H1293 H 0.17815 0.91319 0.1246 0.0
H1294 H 0.16438 0.83576 0.10735 0.0
H1295 H 0.18359 0.84121 0.05872 0.0
H1296 H 0.11716 0.86025 0.12726 0.0
H1297 H 0.21287 0.85205 0.1533 0.0
H1298 H 0.26204 0.86472 0.1553 0.0
H1299 H 0.23846 0.93121 0.19981 0.0
H1300 H 0.18908 0.91911 0.19771 0.0
H1301 H 0.06542 0.82595 0.26164 0.0
H1302 H 0.09886 0.82791 0.22163 0.0
H1303 H 0.11202 0.9056 0.23764 0.0
H1304 H 0.07873 0.90383 0.27802 0.0
H1305 H 0.16116 0.88044 0.21957 0.0
H1306 H 0.06771 0.89296 0.18962 0.0
H1307 H 0.01778 0.88247 0.19008 0.0
H1308 H 0.03654 0.81145 0.15332 0.0
H1309 H 0.0866 0.82146 0.1529 0.0
C1310 C 0.19076 0.90045 0.0828 0.0
C1311 C 0.19199 0.88039 0.06363 0.0
C1312 C 0.17983 0.89729 0.11055 0.0
C1313 C 0.16988 0.87406 0.11954 0.0
C1314 C 0.17202 0.85382 0.1008 0.0
C1315 C 0.18316 0.85692 0.07313 0.0
C1316 C 0.15504 0.87137 0.14752 0.0
C1317 C 0.12698 0.86423 0.14745 0.0
C1318 C 0.16755 0.87749 0.17375 0.0
C1319 C 0.19724 0.88477 0.17511 0.0
C1320 C 0.21814 0.86947 0.16329 0.0
C1321 C 0.24606 0.87653 0.16449 0.0
C1322 C 0.25337 0.89878 0.17761 0.0
C1323 C 0.23277 0.91399 0.18962 0.0
C1324 C 0.20481 0.90703 0.18847 0.0
C1325 C 0.07567 0.8434 0.25697 0.0
C1326 C 0.06898 0.86485 0.27269 0.0
C1327 C 0.09487 0.84445 0.23416 0.0
C1328 C 0.1076 0.86697 0.22651 0.0
C1329 C 0.10239 0.88806 0.24325 0.0
C1330 C 0.0832 0.88703 0.26617 0.0
C1331 C 0.12359 0.869 0.19916 0.0
C1332 C 0.15159 0.87623 0.19933 0.0
C1333 C 0.111 0.86344 0.17286 0.0
C1334 C 0.08087 0.85788 0.17141 0.0
C1335 C 0.06115 0.87511 0.18162 0.0
C1336 C 0.03284 0.86926 0.1819 0.0
C1337 C 0.02398 0.8463 0.17181 0.0
C1338 C 0.04339 0.82924 0.16112 0.0
C1339 C 0.07175 0.83501 0.1608 0.0
H1340 H 1.00207 0.84179 0.17234 0.0
H1341 H 0.27499 0.90422 0.17852 0.0
H1342 H 0.8401 0.17715 0.55526 0.0
H1343 H 0.86162 0.18164 0.60211 0.0
H1344 H 0.84798 0.10401 0.61887 0.0
H1345 H 0.82622 0.0995 0.57228 0.0
H1346 H 0.83801 0.13248 0.66694 0.0
H1347 H 0.90958 0.12297 0.59405 0.0
H1348 H 0.93505 0.13331 0.54918 0.0
H1349 H 0.95302 0.2058 0.58168 0.0
H1350 H 0.92726 0.19601 0.6266 0.0
H1351 H 0.93907 0.11023 0.77284 0.0
H1352 H 0.91038 0.10983 0.73034 0.0
H1353 H 0.93176 0.18614 0.7137 0.0
H1354 H 0.96087 0.1866 0.75581 0.0
H1355 H 0.9365 0.16001 0.66613 0.0
H1356 H 0.86671 0.16885 0.74033 0.0
H1357 H 0.84186 0.15805 0.78541 0.0
H1358 H 0.82083 0.0869 0.75105 0.0
H1359 H 0.8459 0.09714 0.70587 0.0
C1360 C 0.8412 0.16117 0.5692 0.0
C1361 C 0.83169 0.13793 0.56002 0.0
C1362 C 0.85367 0.16371 0.59585 0.0
C1363 C 0.85675 0.14307 0.61382 0.0
C1364 C 0.84592 0.12015 0.60533 0.0
C1365 C 0.83364 0.11758 0.57865 0.0
C1366 C 0.87265 0.14494 0.64067 0.0
C1367 C 0.85959 0.13834 0.66678 0.0
C1368 C 0.90069 0.15296 0.64052 0.0
C1369 C 0.9162 0.15887 0.61354 0.0
C1370 C 0.91874 0.14119 0.59153 0.0
C1371 C 0.93327 0.14694 0.5661 0.0
C1372 C 0.94557 0.17022 0.56255 0.0
C1373 C 0.94343 0.18779 0.58444 0.0
C1374 C 0.92887 0.18215 0.60989 0.0
C1375 C 0.93752 0.12701 0.76029 0.0
C1376 C 0.9523 0.14846 0.76783 0.0
C1377 C 0.92099 0.12677 0.73602 0.0
C1378 C 0.91864 0.14804 0.71893 0.0
C1379 C 0.9332 0.16951 0.72654 0.0
C1380 C 0.94978 0.16975 0.75073 0.0
C1381 C 0.90185 0.14768 0.69256 0.0
C1382 C 0.91481 0.15442 0.66644 0.0
C1383 C 0.87373 0.13982 0.69276 0.0
C1384 C 0.85839 0.13369 0.7198 0.0
C1385 C 0.85695 0.15084 0.74245 0.0
C1386 C 0.8428 0.14482 0.76801 0.0
C1387 C 0.82984 0.12178 0.77112 0.0
C1388 C 0.83091 0.10473 0.74862 0.0
C1389 C 0.84506 0.11064 0.72302 0.0
H1390 H 0.81891 0.11714 0.79094 0.0
H1391 H 0.95683 0.17463 0.54286 0.0
loop_
_geom_bond_atom_site_label_1
_geom_bond_atom_site_label_2
_geom_bond_distance
_geom_bond_site_symmetry_2
_ccdc_geom_bond_type
H0 C7 0.929 . S
H1 C10 0.930 . S
H2 C12 0.929 . S
H3 C4 0.969 . S
C4 H3 0.969 . S
C4 O5 1.550 1_556 S
C4 H6 0.973 . S
O5 C4 1.550 1_554 S
O5 C11 1.412 . S
H6 C4 0.973 . S
C7 H0 0.929 . S
C7 C8 1.400 . S
C7 C9 1.341 1_554 S
C8 C7 1.400 . S
C8 C12 1.377 . S
C9 C7 1.341 1_556 S
C9 C10 1.382 . S
C10 H1 0.930 . S
C10 C9 1.382 . S
C10 C11 1.383 1_556 S
C11 O5 1.412 . S
C11 C10 1.383 1_554 S
C11 C12 1.394 . S
C12 H2 0.929 . S
C12 C8 1.377 . S
C12 C11 1.394 . S
H13 C20 0.929 . S
H14 C23 0.930 . S
H15 C25 0.929 . S
H16 C17 0.969 . S
C17 H16 0.969 . S
C17 O18 1.550 . S
C17 H19 0.973 . S
O18 C17 1.550 . S
O18 C24 1.412 . S
H19 C17 0.973 . S
C20 H13 0.929 . S
C20 C21 1.400 . S
C20 C22 1.364 . S
C21 C20 1.400 . S
C21 C25 1.377 . S
C22 C20 1.364 . S
C22 C23 1.374 . S
C23 H14 0.930 . S
C23 C22 1.374 . S
C23 C24 1.383 . S
C24 O18 1.412 . S
C24 C23 1.383 . S
C24 C25 1.394 . S
C25 H15 0.929 . S
C25 C21 1.377 . S
C25 C24 1.394 . S
H26 C33 0.929 . S
H27 C36 0.930 . S
H28 C38 0.929 . S
H29 C30 0.969 . S
C30 H29 0.969 . S
C30 O31 1.550 . S
C30 H32 0.973 1_556 S
O31 C30 1.550 . S
O31 C37 1.412 . S
H32 C30 0.973 1_554 S
C33 H26 0.929 . S
C33 C34 1.400 1_554 S
C33 C35 1.364 . S
C34 C33 1.400 1_556 S
C34 C38 1.377 . S
C35 C33 1.364 . S
C35 C36 1.374 . S
C36 H27 0.930 . S
C36 C35 1.374 . S
C36 C37 1.383 1_554 S
C37 O31 1.412 . S
C37 C36 1.383 1_556 S
C37 C38 1.394 . S
C38 H28 0.929 . S
C38 C34 1.377 . S
C38 C37 1.394 . S
H39 C46 0.929 . S
H40 C49 0.930 . S
H41 C51 0.929 . S
H42 C43 0.969 . S
C43 H42 0.969 . S
C43 O44 1.550 . S
C43 H45 0.973 . S
O44 C43 1.550 . S
O44 C50 1.412 . S
H45 C43 0.973 . S
C46 H39 0.929 . S
C46 C47 1.400 . S
C46 C48 1.364 . S
C47 C46 1.400 . S
C47 C51 1.377 . S
C48 C46 1.364 . S
C48 C49 1.374 . S
C49 H40 0.930 . S
C49 C48 1.374 . S
C49 C50 1.383 . S
C50 O44 1.412 . S
C50 C49 1.383 . S
C50 C51 1.394 . S
C51 H41 0.929 . S
C51 C47 1.377 . S
C51 C50 1.394 . S
H52 C59 0.929 . S
H53 C62 0.930 . S
H54 C64 0.929 . S
H55 C56 0.969 . S
C56 H55 0.969 . S
C56 O57 1.550 1_556 S
C56 H58 0.973 . S
O57 C56 1.550 1_554 S
O57 C63 1.412 . S
H58 C56 0.973 . S
C59 H52 0.929 . S
C59 C60 1.400 . S
C59 C61 1.341 1_554 S
C60 C59 1.400 . S
C60 C64 1.377 . S
C61 C59 1.341 1_556 S
C61 C62 1.381 . S
C62 H53 0.930 . S
C62 C61 1.381 . S
C62 C63 1.383 1_556 S
C63 O57 1.412 . S
C63 C62 1.383 1_554 S
C63 C64 1.394 . S
C64 H54 0.929 . S
C64 C60 1.377 . S
C64 C63 1.394 . S
H65 C72 0.929 . S
H66 C75 0.930 . S
H67 C77 0.929 . S
H68 C69 0.969 . S
C69 H68 0.969 . S
C69 O70 1.550 . S
C69 H71 0.973 . S
O70 C69 1.550 . S
O70 C76 1.412 . S
H71 C69 0.973 . S
C72 H65 0.929 . S
C72 C73 1.400 . S
C72 C74 1.364 . S
C73 C72 1.400 . S
C73 C77 1.377 . S
C74 C72 1.364 . S
C74 C75 1.374 . S
C75 H66 0.930 . S
C75 C74 1.374 . S
C75 C76 1.383 . S
C76 O70 1.412 . S
C76 C75 1.383 . S
C76 C77 1.394 . S
C77 H67 0.929 . S
C77 C73 1.377 . S
C77 C76 1.394 . S
H78 C85 0.929 . S
H79 C88 0.930 . S
H80 C90 0.929 . S
H81 C82 0.969 . S
C82 H81 0.969 . S
C82 O83 1.550 . S
C82 H84 0.973 1_556 S
O83 C82 1.550 . S
O83 C89 1.412 . S
H84 C82 0.973 1_554 S
C85 H78 0.929 . S
C85 C86 1.400 1_554 S
C85 C87 1.364 . S
C86 C85 1.400 1_556 S
C86 C90 1.377 . S
C87 C85 1.364 . S
C87 C88 1.374 . S
C88 H79 0.930 . S
C88 C87 1.374 . S
C88 C89 1.383 1_554 S
C89 O83 1.412 . S
C89 C88 1.383 1_556 S
C89 C90 1.394 . S
C90 H80 0.929 . S
C90 C86 1.377 . S
C90 C89 1.394 . S
H91 C98 0.929 . S
H92 C101 0.930 . S
H93 C103 0.929 . S
H94 C95 0.969 . S
C95 H94 0.969 . S
C95 O96 1.550 . S
C95 H97 0.973 . S
O96 C95 1.550 . S
O96 C102 1.412 . S
H97 C95 0.973 . S
C98 H91 0.929 . S
C98 C99 1.400 . S
C98 C100 1.364 . S
C99 C98 1.400 . S
C99 C103 1.377 . S
C100 C98 1.364 . S
C100 C101 1.374 . S
C101 H92 0.930 . S
C101 C100 1.374 . S
C101 C102 1.383 . S
C102 O96 1.412 . S
C102 C101 1.383 . S
C102 C103 1.394 . S
C103 H93 0.929 . S
C103 C99 1.377 . S
C103 C102 1.394 . S
Fe104 O106 1.918 . S
Fe104 O109 1.997 1_455 S
Fe104 O110 2.002 1_455 S
Fe104 O115 1.976 . S
Fe104 O118 1.996 . S
Fe105 O106 1.918 . S
Fe105 O113 1.997 1_455 S
Fe105 O116 1.996 . S
Fe105 O120 1.976 . S
Fe105 O123 2.002 1_455 S
O106 Fe104 1.918 . S
O106 Fe105 1.918 . S
O106 Fe107 1.918 . S
Fe107 O106 1.918 . S
Fe107 O108 2.002 1_455 S
Fe107 O117 1.976 . S
Fe107 O121 1.996 . S
Fe107 O124 1.997 1_455 S
O108 Fe107 2.002 1_655 S
O108 C125 1.295 . S
O109 Fe104 1.997 1_655 S
O109 C125 1.235 . S
O110 Fe104 2.002 1_655 S
O110 C111 1.295 . S
C111 O110 1.295 . S
C111 O113 1.235 . S
C112 O117 1.287 . S
C112 O118 1.255 . S
O113 Fe105 1.997 1_655 S
O113 C111 1.235 . S
C114 O120 1.287 . S
C114 O121 1.255 . S
O115 Fe104 1.976 . S
O115 C122 1.287 . S
O116 Fe105 1.996 . S
O116 C122 1.255 . S
O117 Fe107 1.976 . S
O117 C112 1.287 . S
O118 Fe104 1.996 . S
O118 C112 1.255 . S
C119 O123 1.295 . S
C119 O124 1.235 . S
O120 Fe105 1.976 . S
O120 C114 1.287 . S
O121 Fe107 1.996 . S
O121 C114 1.255 . S
C122 O115 1.287 . S
C122 O116 1.255 . S
O123 Fe105 2.002 1_655 S
O123 C119 1.295 . S
O124 Fe107 1.997 1_655 S
O124 C119 1.235 . S
C125 O108 1.295 . S
C125 O109 1.235 . S
Fe126 O128 1.918 . S
Fe126 O131 1.997 1_655 S
Fe126 O132 2.002 1_655 S
Fe126 O137 1.976 . S
Fe126 O140 1.996 . S
Fe127 O128 1.919 . S
Fe127 O135 1.974 1_655 S
Fe127 O138 2.018 . S
Fe127 O142 1.999 . S
Fe127 O145 1.980 1_655 S
O128 Fe126 1.918 . S
O128 Fe127 1.919 . S
O128 Fe129 1.919 . S
Fe129 O128 1.919 . S
Fe129 O130 1.982 1_655 S
Fe129 O139 1.995 . S
Fe129 O143 2.015 . S
Fe129 O146 1.977 1_655 S
O130 Fe129 1.982 1_455 S
O130 C147 1.295 . S
O131 Fe126 1.997 1_455 S
O131 C147 1.235 . S
O132 Fe126 2.002 1_455 S
O132 C133 1.295 . S
C133 O132 1.295 . S
C133 O135 1.235 . S
C134 O139 1.287 . S
C134 O140 1.255 . S
O135 Fe127 1.974 1_455 S
O135 C133 1.235 . S
C136 O142 1.287 . S
C136 O143 1.255 . S
O137 Fe126 1.976 . S
O137 C144 1.287 . S
O138 Fe127 2.018 . S
O138 C144 1.255 . S
O139 Fe129 1.995 . S
O139 C134 1.287 . S
O140 Fe126 1.996 . S
O140 C134 1.255 . S
C141 O145 1.295 . S
C141 O146 1.235 . S
O142 Fe127 1.999 . S
O142 C136 1.287 . S
O143 Fe129 2.015 . S
O143 C136 1.255 . S
C144 O137 1.287 . S
C144 O138 1.255 . S
O145 Fe127 1.980 1_455 S
O145 C141 1.295 . S
O146 Fe129 1.977 1_455 S
O146 C141 1.235 . S
C147 O130 1.295 . S
C147 O131 1.235 . S
Fe148 O150 1.918 . S
Fe148 O153 1.997 . S
Fe148 O154 2.002 . S
Fe148 O159 1.976 . S
Fe148 O162 1.996 . S
Fe149 O150 1.918 . S
Fe149 O157 1.997 . S
Fe149 O160 1.996 . S
Fe149 O164 1.976 . S
Fe149 O167 2.002 . S
O150 Fe148 1.918 . S
O150 Fe149 1.918 . S
O150 Fe151 1.918 . S
Fe151 O150 1.918 . S
Fe151 O152 2.002 . S
Fe151 O161 1.976 . S
Fe151 O165 1.996 . S
Fe151 O168 1.997 . S
O152 Fe151 2.002 . S
O152 C169 1.295 . S
O153 Fe148 1.997 . S
O153 C169 1.235 . S
O154 Fe148 2.002 . S
O154 C155 1.295 . S
C155 O154 1.295 . S
C155 O157 1.235 . S
C156 O161 1.287 . S
C156 O162 1.255 . S
O157 Fe149 1.997 . S
O157 C155 1.235 . S
C158 O164 1.287 . S
C158 O165 1.255 . S
O159 Fe148 1.976 . S
O159 C166 1.287 . S
O160 Fe149 1.996 . S
O160 C166 1.255 . S
O161 Fe151 1.976 . S
O161 C156 1.287 . S
O162 Fe148 1.996 . S
O162 C156 1.255 . S
C163 O167 1.295 . S
C163 O168 1.235 . S
O164 Fe149 1.976 . S
O164 C158 1.287 . S
O165 Fe151 1.996 . S
O165 C158 1.255 . S
C166 O159 1.287 . S
C166 O160 1.255 . S
O167 Fe149 2.002 . S
O167 C163 1.295 . S
O168 Fe151 1.997 . S
O168 C163 1.235 . S
C169 O152 1.295 . S
C169 O153 1.235 . S
Fe170 O172 1.918 . S
Fe170 O175 1.997 . S
Fe170 O176 2.002 . S
Fe170 O181 1.976 . S
Fe170 O184 1.996 . S
Fe171 O172 1.918 . S
Fe171 O179 1.997 . S
Fe171 O182 1.996 . S
Fe171 O186 1.976 . S
Fe171 O189 2.002 . S
O172 Fe170 1.918 . S
O172 Fe171 1.918 . S
O172 Fe173 1.918 . S
Fe173 O172 1.918 . S
Fe173 O174 2.002 . S
Fe173 O183 1.976 . S
Fe173 O187 1.996 . S
Fe173 O190 1.997 . S
O174 Fe173 2.002 . S
O174 C191 1.295 . S
O175 Fe170 1.997 . S
O175 C191 1.235 . S
O176 Fe170 2.002 . S
O176 C177 1.295 . S
C177 O176 1.295 . S
C177 O179 1.235 . S
C178 O183 1.287 . S
C178 O184 1.255 . S
O179 Fe171 1.997 . S
O179 C177 1.235 . S
C180 O186 1.287 . S
C180 O187 1.255 . S
O181 Fe170 1.976 . S
O181 C188 1.287 . S
O182 Fe171 1.996 . S
O182 C188 1.255 . S
O183 Fe173 1.976 . S
O183 C178 1.287 . S
O184 Fe170 1.996 . S
O184 C178 1.255 . S
C185 O189 1.295 . S
C185 O190 1.235 . S
O186 Fe171 1.976 . S
O186 C180 1.287 . S
O187 Fe173 1.996 . S
O187 C180 1.255 . S
C188 O181 1.287 . S
C188 O182 1.255 . S
O189 Fe171 2.002 . S
O189 C185 1.295 . S
O190 Fe173 1.997 . S
O190 C185 1.235 . S
C191 O174 1.295 . S
C191 O175 1.235 . S
H192 C210 0.951 . S
H193 C212 0.951 . S
H194 C214 0.950 . S
H195 C215 0.950 . S
H196 C217 0.950 . S
H197 C220 0.950 . S
H198 C221 0.950 . S
H199 C223 0.950 . S
H200 C224 0.950 . S
H201 C225 0.951 . S
H202 C227 0.951 . S
H203 C229 0.950 . S
H204 C230 0.950 . S
H205 C232 0.950 . S
H206 C235 0.950 . S
H207 C236 0.950 . S
H208 C238 0.950 . S
H209 C239 0.950 . S
C210 H192 0.951 . S
C210 C211 1.366 . S
C210 C212 1.388 . S
C211 C210 1.366 . S
C211 C215 1.385 . S
C212 H193 0.951 . S
C212 C210 1.388 . S
C212 C213 1.366 . S
C213 C212 1.366 . S
C213 C214 1.414 . S
C213 C216 1.499 . S
C214 H194 0.950 . S
C214 C213 1.414 . S
C214 C215 1.374 . S
C215 H195 0.950 . S
C215 C211 1.385 . S
C215 C214 1.374 . S
C216 C213 1.499 . S
C216 C217 1.373 . S
C216 C218 1.389 . S
C217 H196 0.950 . S
C217 C216 1.373 . S
C217 C233 1.377 . S
C218 C216 1.389 . S
C218 C219 1.524 . S
C218 C232 1.377 . S
C219 C218 1.524 . S
C219 C220 1.397 . S
C219 C224 1.363 . S
C220 H197 0.950 . S
C220 C219 1.397 . S
C220 C221 1.334 . S
C221 H198 0.950 . S
C221 C220 1.334 . S
C221 C222 1.287 . S
C222 C221 1.287 . S
C222 C223 1.524 . S
C222 H241 0.913 . S
C223 H199 0.950 . S
C223 C222 1.524 . S
C223 C224 1.415 . S
C224 H200 0.950 . S
C224 C219 1.363 . S
C224 C223 1.415 . S
C225 H201 0.951 . S
C225 C226 1.366 . S
C225 C227 1.388 . S
C226 C225 1.366 . S
C226 C230 1.385 . S
C227 H202 0.951 . S
C227 C225 1.388 . S
C227 C228 1.366 . S
C228 C227 1.366 . S
C228 C229 1.414 . S
C228 C231 1.499 . S
C229 H203 0.950 . S
C229 C228 1.414 . S
C229 C230 1.374 . S
C230 H204 0.950 . S
C230 C226 1.385 . S
C230 C229 1.374 . S
C231 C228 1.499 . S
C231 C232 1.373 . S
C231 C233 1.389 . S
C232 H205 0.950 . S
C232 C218 1.377 . S
C232 C231 1.373 . S
C233 C217 1.377 . S
C233 C231 1.389 . S
C233 C234 1.524 . S
C234 C233 1.524 . S
C234 C235 1.397 . S
C234 C239 1.363 . S
C235 H206 0.950 . S
C235 C234 1.397 . S
C235 C236 1.334 . S
C236 H207 0.950 . S
C236 C235 1.334 . S
C236 C237 1.287 1_556 S
C237 C236 1.287 1_554 S
C237 C238 1.524 . S
C237 H240 0.999 . S
C238 H208 0.950 . S
C238 C237 1.524 . S
C238 C239 1.415 1_554 S
C239 H209 0.950 . S
C239 C234 1.363 . S
C239 C238 1.415 1_556 S
H240 C237 0.999 . S
H241 C222 0.913 . S
H242 C260 0.951 . S
H243 C262 0.951 . S
H244 C264 0.950 . S
H245 C265 0.950 . S
H246 C267 0.950 . S
H247 C270 0.950 . S
H248 C271 0.950 . S
H249 C273 0.950 . S
H250 C274 0.950 . S
H251 C275 0.951 . S
H252 C277 0.951 . S
H253 C279 0.950 . S
H254 C280 0.950 . S
H255 C282 0.950 . S
H256 C285 0.950 . S
H257 C286 0.950 . S
H258 C288 0.950 . S
H259 C289 0.950 . S
C260 H242 0.951 . S
C260 C261 1.366 . S
C260 C262 1.388 . S
C261 C260 1.366 . S
C261 C265 1.385 . S
C262 H243 0.951 . S
C262 C260 1.388 . S
C262 C263 1.366 . S
C263 C262 1.366 . S
C263 C264 1.414 . S
C263 C266 1.499 . S
C264 H244 0.950 . S
C264 C263 1.414 . S
C264 C265 1.374 . S
C265 H245 0.950 . S
C265 C261 1.385 . S
C265 C264 1.374 . S
C266 C263 1.499 . S
C266 C267 1.373 . S
C266 C268 1.389 . S
C267 H246 0.950 . S
C267 C266 1.373 . S
C267 C283 1.377 . S
C268 C266 1.389 . S
C268 C269 1.524 . S
C268 C282 1.377 . S
C269 C268 1.524 . S
C269 C270 1.397 . S
C269 C274 1.363 . S
C270 H247 0.950 . S
C270 C269 1.397 . S
C270 C271 1.334 . S
C271 H248 0.950 . S
C271 C270 1.334 . S
C271 C272 1.287 . S
C272 C271 1.287 . S
C272 C273 1.524 . S
C272 H291 0.913 . S
C273 H249 0.950 . S
C273 C272 1.524 . S
C273 C274 1.415 . S
C274 H250 0.950 . S
C274 C269 1.363 . S
C274 C273 1.415 . S
C275 H251 0.951 . S
C275 C276 1.366 . S
C275 C277 1.388 . S
C276 C275 1.366 . S
C276 C280 1.385 . S
C277 H252 0.951 . S
C277 C275 1.388 . S
C277 C278 1.366 . S
C278 C277 1.366 . S
C278 C279 1.414 . S
C278 C281 1.499 . S
C279 H253 0.950 . S
C279 C278 1.414 . S
C279 C280 1.374 . S
C280 H254 0.950 . S
C280 C276 1.385 . S
C280 C279 1.374 . S
C281 C278 1.499 . S
C281 C282 1.373 . S
C281 C283 1.389 . S
C282 H255 0.950 . S
C282 C268 1.377 . S
C282 C281 1.373 . S
C283 C267 1.377 . S
C283 C281 1.389 . S
C283 C284 1.524 . S
C284 C283 1.524 . S
C284 C285 1.397 . S
C284 C289 1.363 . S
C285 H256 0.950 . S
C285 C284 1.397 . S
C285 C286 1.334 . S
C286 H257 0.950 . S
C286 C285 1.334 . S
C286 C287 1.287 . S
C287 C286 1.287 . S
C287 C288 1.524 . S
C287 H290 0.999 . S
C288 H258 0.950 . S
C288 C287 1.524 . S
C288 C289 1.415 . S
C289 H259 0.950 . S
C289 C284 1.363 . S
C289 C288 1.415 . S
H290 C287 0.999 . S
H291 C272 0.913 . S
H292 C310 0.951 . S
H293 C312 0.951 . S
H294 C314 0.950 . S
H295 C315 0.950 . S
H296 C317 0.950 . S
H297 C320 0.950 . S
H298 C321 0.950 . S
H299 C323 0.950 . S
H300 C324 0.950 . S
H301 C325 0.951 . S
H302 C327 0.951 . S
H303 C329 0.950 . S
H304 C330 0.950 . S
H305 C332 0.950 . S
H306 C335 0.950 . S
H307 C336 0.950 . S
H308 C338 0.950 . S
H309 C339 0.950 . S
C310 H292 0.951 . S
C310 C311 1.366 . S
C310 C312 1.388 . S
C311 C310 1.366 . S
C311 C315 1.385 . S
C312 H293 0.951 . S
C312 C310 1.388 . S
C312 C313 1.366 . S
C313 C312 1.366 . S
C313 C314 1.414 . S
C313 C316 1.499 . S
C314 H294 0.950 . S
C314 C313 1.414 . S
C314 C315 1.374 . S
C315 H295 0.950 . S
C315 C311 1.385 . S
C315 C314 1.374 . S
C316 C313 1.499 . S
C316 C317 1.373 . S
C316 C318 1.389 . S
C317 H296 0.950 . S
C317 C316 1.373 . S
C317 C333 1.377 . S
C318 C316 1.389 . S
C318 C319 1.524 . S
C318 C332 1.377 . S
C319 C318 1.524 . S
C319 C320 1.397 . S
C319 C324 1.363 . S
C320 H297 0.950 . S
C320 C319 1.397 . S
C320 C321 1.334 . S
C321 H298 0.950 . S
C321 C320 1.334 . S
C321 C322 1.287 . S
C322 C321 1.287 . S
C322 C323 1.524 . S
C322 H341 0.913 . S
C323 H299 0.950 . S
C323 C322 1.524 . S
C323 C324 1.415 . S
C324 H300 0.950 . S
C324 C319 1.363 . S
C324 C323 1.415 . S
C325 H301 0.951 . S
C325 C326 1.366 . S
C325 C327 1.388 . S
C326 C325 1.366 . S
C326 C330 1.385 . S
C327 H302 0.951 . S
C327 C325 1.388 . S
C327 C328 1.366 . S
C328 C327 1.366 . S
C328 C329 1.414 . S
C328 C331 1.499 . S
C329 H303 0.950 . S
C329 C328 1.414 . S
C329 C330 1.374 . S
C330 H304 0.950 . S
C330 C326 1.385 . S
C330 C329 1.374 . S
C331 C328 1.499 . S
C331 C332 1.373 . S
C331 C333 1.389 . S
C332 H305 0.950 . S
C332 C318 1.377 . S
C332 C331 1.373 . S
C333 C317 1.377 . S
C333 C331 1.389 . S
C333 C334 1.524 . S
C334 C333 1.524 . S
C334 C335 1.397 . S
C334 C339 1.363 . S
C335 H306 0.950 . S
C335 C334 1.397 . S
C335 C336 1.334 . S
C336 H307 0.950 . S
C336 C335 1.334 . S
C336 C337 1.287 . S
C337 C336 1.287 . S
C337 C338 1.524 . S
C337 H340 0.999 1_556 S
C338 H308 0.950 . S
C338 C337 1.524 . S
C338 C339 1.415 . S
C339 H309 0.950 . S
C339 C334 1.363 . S
C339 C338 1.415 . S
H340 C337 0.999 1_554 S
H341 C322 0.913 . S
H342 C360 0.951 . S
H343 C362 0.951 . S
H344 C364 0.950 . S
H345 C365 0.950 . S
H346 C367 0.950 . S
H347 C370 0.950 . S
H348 C371 0.950 . S
H349 C373 0.950 . S
H350 C374 0.950 . S
H351 C375 0.951 . S
H352 C377 0.951 . S
H353 C379 0.950 . S
H354 C380 0.950 . S
H355 C382 0.950 . S
H356 C385 0.950 . S
H357 C386 0.950 . S
H358 C388 0.950 . S
H359 C389 0.950 . S
C360 H342 0.951 . S
C360 C361 1.366 . S
C360 C362 1.388 . S
C361 C360 1.366 . S
C361 C365 1.385 . S
C362 H343 0.951 . S
C362 C360 1.388 . S
C362 C363 1.366 . S
C363 C362 1.366 . S
C363 C364 1.414 . S
C363 C366 1.499 . S
C364 H344 0.950 . S
C364 C363 1.414 . S
C364 C365 1.374 . S
C365 H345 0.950 . S
C365 C361 1.385 . S
C365 C364 1.374 . S
C366 C363 1.499 . S
C366 C367 1.373 . S
C366 C368 1.389 . S
C367 H346 0.950 . S
C367 C366 1.373 . S
C367 C383 1.377 . S
C368 C366 1.389 . S
C368 C369 1.524 . S
C368 C382 1.377 . S
C369 C368 1.524 . S
C369 C370 1.397 . S
C369 C374 1.363 . S
C370 H347 0.950 . S
C370 C369 1.397 . S
C370 C371 1.334 . S
C371 H348 0.950 . S
C371 C370 1.334 . S
C371 C372 1.287 . S
C372 C371 1.287 . S
C372 C373 1.524 . S
C372 H391 0.913 . S
C373 H349 0.950 . S
C373 C372 1.524 . S
C373 C374 1.415 . S
C374 H350 0.950 . S
C374 C369 1.363 . S
C374 C373 1.415 . S
C375 H351 0.951 . S
C375 C376 1.366 . S
C375 C377 1.388 . S
C376 C375 1.366 . S
C376 C380 1.385 . S
C377 H352 0.951 . S
C377 C375 1.388 . S
C377 C378 1.366 . S
C378 C377 1.366 . S
C378 C379 1.414 . S
C378 C381 1.499 . S
C379 H353 0.950 . S
C379 C378 1.414 . S
C379 C380 1.374 . S
C380 H354 0.950 . S
C380 C376 1.385 . S
C380 C379 1.374 . S
C381 C378 1.499 . S
C381 C382 1.373 . S
C381 C383 1.389 . S
C382 H355 0.950 . S
C382 C368 1.377 . S
C382 C381 1.373 . S
C383 C367 1.377 . S
C383 C381 1.389 . S
C383 C384 1.524 . S
C384 C383 1.524 . S
C384 C385 1.397 . S
C384 C389 1.363 . S
C385 H356 0.950 . S
C385 C384 1.397 . S
C385 C386 1.334 . S
C386 H357 0.950 . S
C386 C385 1.334 . S
C386 C387 1.287 . S
C387 C386 1.287 . S
C387 C388 1.524 . S
C387 H390 0.999 . S
C388 H358 0.950 . S
C388 C387 1.524 . S
C388 C389 1.415 . S
C389 H359 0.950 . S
C389 C384 1.363 . S
C389 C388 1.415 . S
H390 C387 0.999 . S
H391 C372 0.913 . S
H392 C410 0.951 . S
H393 C412 0.951 . S
H394 C414 0.950 . S
H395 C415 0.950 . S
H396 C417 0.950 . S
H397 C420 0.950 1_556 S
H398 C421 0.950 . S
H399 C423 0.950 . S
H400 C424 0.950 . S
H401 C425 0.951 . S
H402 C427 0.951 . S
H403 C429 0.950 . S
H404 C430 0.950 . S
H405 C432 0.950 . S
H406 C435 0.950 . S
H407 C436 0.950 . S
H408 C438 0.950 . S
H409 C439 0.950 . S
C410 H392 0.951 . S
C410 C411 1.366 . S
C410 C412 1.388 . S
C411 C410 1.366 . S
C411 C415 1.385 . S
C412 H393 0.951 . S
C412 C410 1.388 . S
C412 C413 1.366 . S
C413 C412 1.366 . S
C413 C414 1.414 . S
C413 C416 1.499 . S
C414 H394 0.950 . S
C414 C413 1.414 . S
C414 C415 1.374 . S
C415 H395 0.950 . S
C415 C411 1.385 . S
C415 C414 1.374 . S
C416 C413 1.499 . S
C416 C417 1.373 . S
C416 C418 1.389 . S
C417 H396 0.950 . S
C417 C416 1.373 . S
C417 C433 1.377 . S
C418 C416 1.389 . S
C418 C419 1.524 . S
C418 C432 1.377 . S
C419 C418 1.524 . S
C419 C420 1.397 1_556 S
C419 C424 1.363 . S
C420 H397 0.950 1_554 S
C420 C419 1.397 1_554 S
C420 C421 1.334 . S
C421 H398 0.950 . S
C421 C420 1.334 . S
C421 C422 1.287 . S
C422 C421 1.287 . S
C422 C423 1.524 . S
C422 H441 0.913 . S
C423 H399 0.950 . S
C423 C422 1.524 . S
C423 C424 1.415 1_554 S
C424 H400 0.950 . S
C424 C419 1.363 . S
C424 C423 1.415 1_556 S
C425 H401 0.951 . S
C425 C426 1.366 . S
C425 C427 1.388 . S
C426 C425 1.366 . S
C426 C430 1.385 . S
C427 H402 0.951 . S
C427 C425 1.388 . S
C427 C428 1.366 . S
C428 C427 1.366 . S
C428 C429 1.414 . S
C428 C431 1.499 . S
C429 H403 0.950 . S
C429 C428 1.414 . S
C429 C430 1.374 . S
C430 H404 0.950 . S
C430 C426 1.385 . S
C430 C429 1.374 . S
C431 C428 1.499 . S
C431 C432 1.373 . S
C431 C433 1.389 . S
C432 H405 0.950 . S
C432 C418 1.377 . S
C432 C431 1.373 . S
C433 C417 1.377 . S
C433 C431 1.389 . S
C433 C434 1.524 . S
C434 C433 1.524 . S
C434 C435 1.397 . S
C434 C439 1.363 . S
C435 H406 0.950 . S
C435 C434 1.397 . S
C435 C436 1.334 . S
C436 H407 0.950 . S
C436 C435 1.334 . S
C436 C437 1.287 . S
C437 C436 1.287 . S
C437 C438 1.524 . S
C437 H440 0.999 . S
C438 H408 0.950 . S
C438 C437 1.524 . S
C438 C439 1.415 . S
C439 H409 0.950 . S
C439 C434 1.363 . S
C439 C438 1.415 . S
H440 C437 0.999 . S
H441 C422 0.913 . S
H442 C460 0.951 . S
H443 C462 0.951 . S
H444 C464 0.950 . S
H445 C465 0.950 . S
H446 C467 0.950 . S
H447 C470 0.950 . S
H448 C471 0.950 . S
H449 C473 0.950 . S
H450 C474 0.950 . S
H451 C475 0.951 . S
H452 C477 0.951 . S
H453 C479 0.950 . S
H454 C480 0.950 . S
H455 C482 0.950 . S
H456 C485 0.950 . S
H457 C486 0.950 . S
H458 C488 0.950 . S
H459 C489 0.950 . S
C460 H442 0.951 . S
C460 C461 1.366 . S
C460 C462 1.388 . S
C461 C460 1.366 . S
C461 C465 1.385 . S
C462 H443 0.951 . S
C462 C460 1.388 . S
C462 C463 1.366 . S
C463 C462 1.366 . S
C463 C464 1.414 . S
C463 C466 1.499 . S
C464 H444 0.950 . S
C464 C463 1.414 . S
C464 C465 1.374 . S
C465 H445 0.950 . S
C465 C461 1.385 . S
C465 C464 1.374 . S
C466 C463 1.499 . S
C466 C467 1.373 . S
C466 C468 1.389 . S
C467 H446 0.950 . S
C467 C466 1.373 . S
C467 C483 1.377 . S
C468 C466 1.389 . S
C468 C469 1.524 . S
C468 C482 1.377 . S
C469 C468 1.524 . S
C469 C470 1.397 . S
C469 C474 1.363 . S
C470 H447 0.950 . S
C470 C469 1.397 . S
C470 C471 1.334 . S
C471 H448 0.950 . S
C471 C470 1.334 . S
C471 C472 1.287 . S
C472 C471 1.287 . S
C472 C473 1.524 . S
C472 H491 0.913 . S
C473 H449 0.950 . S
C473 C472 1.524 . S
C473 C474 1.415 . S
C474 H450 0.950 . S
C474 C469 1.363 . S
C474 C473 1.415 . S
C475 H451 0.951 . S
C475 C476 1.366 . S
C475 C477 1.388 . S
C476 C475 1.366 . S
C476 C480 1.385 . S
C477 H452 0.951 . S
C477 C475 1.388 . S
C477 C478 1.366 . S
C478 C477 1.366 . S
C478 C479 1.414 . S
C478 C481 1.499 . S
C479 H453 0.950 . S
C479 C478 1.414 . S
C479 C480 1.374 . S
C480 H454 0.950 . S
C480 C476 1.385 . S
C480 C479 1.374 . S
C481 C478 1.499 . S
C481 C482 1.373 . S
C481 C483 1.389 . S
C482 H455 0.950 . S
C482 C468 1.377 . S
C482 C481 1.373 . S
C483 C467 1.377 . S
C483 C481 1.389 . S
C483 C484 1.524 . S
C484 C483 1.524 . S
C484 C485 1.397 . S
C484 C489 1.363 . S
C485 H456 0.950 . S
C485 C484 1.397 . S
C485 C486 1.334 . S
C486 H457 0.950 . S
C486 C485 1.334 . S
C486 C487 1.287 . S
C487 C486 1.287 . S
C487 C488 1.524 . S
C487 H490 0.999 . S
C488 H458 0.950 . S
C488 C487 1.524 . S
C488 C489 1.415 . S
C489 H459 0.950 . S
C489 C484 1.363 . S
C489 C488 1.415 . S
H490 C487 0.999 . S
H491 C472 0.913 . S
H492 C510 0.951 . S
H493 C512 0.951 . S
H494 C514 0.950 . S
H495 C515 0.950 . S
H496 C517 0.950 . S
H497 C520 0.950 . S
H498 C521 0.950 . S
H499 C523 0.950 . S
H500 C524 0.950 . S
H501 C525 0.951 . S
H502 C527 0.951 . S
H503 C529 0.950 . S
H504 C530 0.950 . S
H505 C532 0.950 . S
H506 C535 0.950 . S
H507 C536 0.950 . S
H508 C538 0.950 . S
H509 C539 0.950 . S
C510 H492 0.951 . S
C510 C511 1.366 . S
C510 C512 1.388 . S
C511 C510 1.366 . S
C511 C515 1.385 . S
C512 H493 0.951 . S
C512 C510 1.388 . S
C512 C513 1.366 . S
C513 C512 1.366 . S
C513 C514 1.414 . S
C513 C516 1.499 . S
C514 H494 0.950 . S
C514 C513 1.414 . S
C514 C515 1.374 . S
C515 H495 0.950 . S
C515 C511 1.385 . S
C515 C514 1.374 . S
C516 C513 1.499 . S
C516 C517 1.373 . S
C516 C518 1.389 . S
C517 H496 0.950 . S
C517 C516 1.373 . S
C517 C533 1.377 . S
C518 C516 1.389 . S
C518 C519 1.524 . S
C518 C532 1.377 . S
C519 C518 1.524 . S
C519 C520 1.397 . S
C519 C524 1.363 . S
C520 H497 0.950 . S
C520 C519 1.397 . S
C520 C521 1.334 . S
C521 H498 0.950 . S
C521 C520 1.334 . S
C521 C522 1.287 . S
C522 C521 1.287 . S
C522 C523 1.524 . S
C522 H541 0.913 . S
C523 H499 0.950 . S
C523 C522 1.524 . S
C523 C524 1.415 . S
C524 H500 0.950 . S
C524 C519 1.363 . S
C524 C523 1.415 . S
C525 H501 0.951 . S
C525 C526 1.366 . S
C525 C527 1.388 . S
C526 C525 1.366 . S
C526 C530 1.385 . S
C527 H502 0.951 . S
C527 C525 1.388 . S
C527 C528 1.366 . S
C528 C527 1.366 . S
C528 C529 1.414 . S
C528 C531 1.499 . S
C529 H503 0.950 . S
C529 C528 1.414 . S
C529 C530 1.374 . S
C530 H504 0.950 . S
C530 C526 1.385 . S
C530 C529 1.374 . S
C531 C528 1.499 . S
C531 C532 1.373 . S
C531 C533 1.389 . S
C532 H505 0.950 . S
C532 C518 1.377 . S
C532 C531 1.373 . S
C533 C517 1.377 . S
C533 C531 1.389 . S
C533 C534 1.524 . S
C534 C533 1.524 . S
C534 C535 1.397 . S
C534 C539 1.363 . S
C535 H506 0.950 . S
C535 C534 1.397 . S
C535 C536 1.334 . S
C536 H507 0.950 . S
C536 C535 1.334 . S
C536 C537 1.287 . S
C537 C536 1.287 . S
C537 C538 1.524 . S
C537 H540 0.999 . S
C538 H508 0.950 . S
C538 C537 1.524 . S
C538 C539 1.415 . S
C539 H509 0.950 . S
C539 C534 1.363 . S
C539 C538 1.415 . S
H540 C537 0.999 . S
H541 C522 0.913 . S
H542 C560 0.951 . S
H543 C562 0.951 . S
H544 C564 0.950 . S
H545 C565 0.950 . S
H546 C567 0.950 . S
H547 C570 0.950 . S
H548 C571 0.950 . S
H549 C573 0.950 . S
H550 C574 0.950 . S
H551 C575 0.951 . S
H552 C577 0.951 . S
H553 C579 0.950 . S
H554 C580 0.950 . S
H555 C582 0.950 . S
H556 C585 0.950 . S
H557 C586 0.950 . S
H558 C588 0.950 . S
H559 C589 0.950 . S
C560 H542 0.951 . S
C560 C561 1.366 . S
C560 C562 1.388 . S
C561 C560 1.366 . S
C561 C565 1.385 . S
C562 H543 0.951 . S
C562 C560 1.388 . S
C562 C563 1.366 . S
C563 C562 1.366 . S
C563 C564 1.414 . S
C563 C566 1.499 . S
C564 H544 0.950 . S
C564 C563 1.414 . S
C564 C565 1.374 . S
C565 H545 0.950 . S
C565 C561 1.385 . S
C565 C564 1.374 . S
C566 C563 1.499 . S
C566 C567 1.373 . S
C566 C568 1.389 . S
C567 H546 0.950 . S
C567 C566 1.373 . S
C567 C583 1.377 . S
C568 C566 1.389 . S
C568 C569 1.524 . S
C568 C582 1.377 . S
C569 C568 1.524 . S
C569 C570 1.397 . S
C569 C574 1.363 . S
C570 H547 0.950 . S
C570 C569 1.397 . S
C570 C571 1.334 . S
C571 H548 0.950 . S
C571 C570 1.334 . S
C571 C572 1.287 . S
C572 C571 1.287 . S
C572 C573 1.524 . S
C572 H591 0.913 . S
C573 H549 0.950 . S
C573 C572 1.524 . S
C573 C574 1.415 . S
C574 H550 0.950 . S
C574 C569 1.363 . S
C574 C573 1.415 . S
C575 H551 0.951 . S
C575 C576 1.366 . S
C575 C577 1.388 . S
C576 C575 1.366 . S
C576 C580 1.385 . S
C577 H552 0.951 . S
C577 C575 1.388 . S
C577 C578 1.366 . S
C578 C577 1.366 . S
C578 C579 1.414 . S
C578 C581 1.499 . S
C579 H553 0.950 . S
C579 C578 1.414 . S
C579 C580 1.374 . S
C580 H554 0.950 . S
C580 C576 1.385 . S
C580 C579 1.374 . S
C581 C578 1.499 . S
C581 C582 1.373 . S
C581 C583 1.389 . S
C582 H555 0.950 . S
C582 C568 1.377 . S
C582 C581 1.373 . S
C583 C567 1.377 . S
C583 C581 1.389 . S
C583 C584 1.524 . S
C584 C583 1.524 . S
C584 C585 1.397 . S
C584 C589 1.363 . S
C585 H556 0.950 . S
C585 C584 1.397 . S
C585 C586 1.334 . S
C586 H557 0.950 . S
C586 C585 1.334 . S
C586 C587 1.287 . S
C587 C586 1.287 . S
C587 C588 1.524 . S
C587 H590 0.999 . S
C588 H558 0.950 . S
C588 C587 1.524 . S
C588 C589 1.415 . S
C589 H559 0.950 . S
C589 C584 1.363 . S
C589 C588 1.415 . S
H590 C587 0.999 . S
H591 C572 0.913 . S
H592 C610 0.951 . S
H593 C612 0.951 . S
H594 C614 0.950 . S
H595 C615 0.950 . S
H596 C617 0.950 . S
H597 C620 0.950 . S
H598 C621 0.950 . S
H599 C623 0.950 . S
H600 C624 0.950 . S
H601 C625 0.951 . S
H602 C627 0.951 . S
H603 C629 0.950 . S
H604 C630 0.950 . S
H605 C632 0.950 . S
H606 C635 0.950 . S
H607 C636 0.950 . S
H608 C638 0.950 . S
H609 C639 0.950 . S
C610 H592 0.951 . S
C610 C611 1.366 . S
C610 C612 1.388 . S
C611 C610 1.366 . S
C611 C615 1.385 . S
C612 H593 0.951 . S
C612 C610 1.388 . S
C612 C613 1.366 . S
C613 C612 1.366 . S
C613 C614 1.414 . S
C613 C616 1.499 . S
C614 H594 0.950 . S
C614 C613 1.414 . S
C614 C615 1.374 . S
C615 H595 0.950 . S
C615 C611 1.385 . S
C615 C614 1.374 . S
C616 C613 1.499 . S
C616 C617 1.373 . S
C616 C618 1.389 . S
C617 H596 0.950 . S
C617 C616 1.373 . S
C617 C633 1.377 . S
C618 C616 1.389 . S
C618 C619 1.524 . S
C618 C632 1.377 . S
C619 C618 1.524 . S
C619 C620 1.397 . S
C619 C624 1.363 . S
C620 H597 0.950 . S
C620 C619 1.397 . S
C620 C621 1.334 . S
C621 H598 0.950 . S
C621 C620 1.334 . S
C621 C622 1.287 . S
C622 C621 1.287 . S
C622 C623 1.524 . S
C622 H641 0.913 . S
C623 H599 0.950 . S
C623 C622 1.524 . S
C623 C624 1.415 . S
C624 H600 0.950 . S
C624 C619 1.363 . S
C624 C623 1.415 . S
C625 H601 0.951 . S
C625 C626 1.366 . S
C625 C627 1.388 . S
C626 C625 1.366 . S
C626 C630 1.385 . S
C627 H602 0.951 . S
C627 C625 1.388 . S
C627 C628 1.366 . S
C628 C627 1.366 . S
C628 C629 1.414 . S
C628 C631 1.499 . S
C629 H603 0.950 . S
C629 C628 1.414 . S
C629 C630 1.374 . S
C630 H604 0.950 . S
C630 C626 1.385 . S
C630 C629 1.374 . S
C631 C628 1.499 . S
C631 C632 1.373 . S
C631 C633 1.389 . S
C632 H605 0.950 . S
C632 C618 1.377 . S
C632 C631 1.373 . S
C633 C617 1.377 . S
C633 C631 1.389 . S
C633 C634 1.524 . S
C634 C633 1.524 . S
C634 C635 1.397 . S
C634 C639 1.363 . S
C635 H606 0.950 . S
C635 C634 1.397 . S
C635 C636 1.334 . S
C636 H607 0.950 . S
C636 C635 1.334 . S
C636 C637 1.287 . S
C637 C636 1.287 . S
C637 C638 1.524 . S
C637 H640 1.012 . S
C638 H608 0.950 . S
C638 C637 1.524 . S
C638 C639 1.415 . S
C639 H609 0.950 . S
C639 C634 1.363 . S
C639 C638 1.415 . S
H640 C637 1.012 . S
H641 C622 0.913 . S
H642 C660 0.951 . S
H643 C662 0.951 . S
H644 C664 0.950 . S
H645 C665 0.950 . S
H646 C667 0.950 . S
H647 C670 0.950 . S
H648 C671 0.950 . S
H649 C673 0.950 . S
H650 C674 0.950 . S
H651 C675 0.951 . S
H652 C677 0.951 . S
H653 C679 0.950 . S
H654 C680 0.950 . S
H655 C682 0.950 . S
H656 C685 0.950 . S
H657 C686 0.950 . S
H658 C688 0.950 . S
H659 C689 0.950 . S
C660 H642 0.951 . S
C660 C661 1.366 . S
C660 C662 1.388 . S
C661 C660 1.366 . S
C661 C665 1.385 . S
C662 H643 0.951 . S
C662 C660 1.388 . S
C662 C663 1.366 . S
C663 C662 1.366 . S
C663 C664 1.414 . S
C663 C666 1.499 . S
C664 H644 0.950 . S
C664 C663 1.414 . S
C664 C665 1.374 . S
C665 H645 0.950 . S
C665 C661 1.385 . S
C665 C664 1.374 . S
C666 C663 1.499 . S
C666 C667 1.373 . S
C666 C668 1.389 . S
C667 H646 0.950 . S
C667 C666 1.373 . S
C667 C683 1.377 . S
C668 C666 1.389 . S
C668 C669 1.524 . S
C668 C682 1.377 . S
C669 C668 1.524 . S
C669 C670 1.397 . S
C669 C674 1.363 . S
C670 H647 0.950 . S
C670 C669 1.397 . S
C670 C671 1.334 . S
C671 H648 0.950 . S
C671 C670 1.334 . S
C671 C672 1.287 . S
C672 C671 1.287 . S
C672 C673 1.524 . S
C672 H691 0.913 . S
C673 H649 0.950 . S
C673 C672 1.524 . S
C673 C674 1.415 . S
C674 H650 0.950 . S
C674 C669 1.363 . S
C674 C673 1.415 . S
C675 H651 0.951 . S
C675 C676 1.366 . S
C675 C677 1.388 . S
C676 C675 1.366 . S
C676 C680 1.385 . S
C677 H652 0.951 . S
C677 C675 1.388 . S
C677 C678 1.366 . S
C678 C677 1.366 . S
C678 C679 1.414 . S
C678 C681 1.499 . S
C679 H653 0.950 . S
C679 C678 1.414 . S
C679 C680 1.374 . S
C680 H654 0.950 . S
C680 C676 1.385 . S
C680 C679 1.374 . S
C681 C678 1.499 . S
C681 C682 1.373 . S
C681 C683 1.389 . S
C682 H655 0.950 . S
C682 C668 1.377 . S
C682 C681 1.373 . S
C683 C667 1.377 . S
C683 C681 1.389 . S
C683 C684 1.524 . S
C684 C683 1.524 . S
C684 C685 1.397 . S
C684 C689 1.363 . S
C685 H656 0.950 . S
C685 C684 1.397 . S
C685 C686 1.334 . S
C686 H657 0.950 . S
C686 C685 1.334 . S
C686 C687 1.287 . S
C687 C686 1.287 . S
C687 C688 1.524 . S
C687 H690 0.999 . S
C688 H658 0.950 . S
C688 C687 1.524 . S
C688 C689 1.415 . S
C689 H659 0.950 . S
C689 C684 1.363 . S
C689 C688 1.415 . S
H690 C687 0.999 . S
H691 C672 0.913 . S
H692 C710 0.951 . S
H693 C712 0.951 . S
H694 C714 0.950 . S
H695 C715 0.950 1_554 S
H696 C717 0.950 . S
H697 C720 0.950 . S
H698 C721 0.950 . S
H699 C723 0.950 . S
H700 C724 0.950 . S
H701 C725 0.951 . S
H702 C727 0.951 . S
H703 C729 0.950 . S
H704 C730 0.950 . S
H705 C732 0.950 . S
H706 C735 0.950 . S
H707 C736 0.950 . S
H708 C738 0.950 . S
H709 C739 0.950 . S
C710 H692 0.951 . S
C710 C711 1.366 . S
C710 C712 1.388 . S
C711 C710 1.366 . S
C711 C715 1.385 . S
C712 H693 0.951 . S
C712 C710 1.388 . S
C712 C713 1.366 . S
C713 C712 1.366 . S
C713 C714 1.414 . S
C713 C716 1.499 . S
C714 H694 0.950 . S
C714 C713 1.414 . S
C714 C715 1.374 . S
C715 H695 0.950 1_556 S
C715 C711 1.385 . S
C715 C714 1.374 . S
C716 C713 1.499 . S
C716 C717 1.373 . S
C716 C718 1.389 . S
C717 H696 0.950 . S
C717 C716 1.373 . S
C717 C733 1.377 . S
C718 C716 1.389 . S
C718 C719 1.524 . S
C718 C732 1.377 . S
C719 C718 1.524 . S
C719 C720 1.397 . S
C719 C724 1.363 . S
C720 H697 0.950 . S
C720 C719 1.397 . S
C720 C721 1.334 . S
C721 H698 0.950 . S
C721 C720 1.334 . S
C721 C722 1.287 . S
C722 C721 1.287 . S
C722 C723 1.524 . S
C722 H741 0.913 . S
C723 H699 0.950 . S
C723 C722 1.524 . S
C723 C724 1.415 . S
C724 H700 0.950 . S
C724 C719 1.363 . S
C724 C723 1.415 . S
C725 H701 0.951 . S
C725 C726 1.366 . S
C725 C727 1.388 . S
C726 C725 1.366 . S
C726 C730 1.385 . S
C727 H702 0.951 . S
C727 C725 1.388 . S
C727 C728 1.366 . S
C728 C727 1.366 . S
C728 C729 1.414 . S
C728 C731 1.499 . S
C729 H703 0.950 . S
C729 C728 1.414 . S
C729 C730 1.374 . S
C730 H704 0.950 . S
C730 C726 1.385 . S
C730 C729 1.374 . S
C731 C728 1.499 . S
C731 C732 1.373 . S
C731 C733 1.389 . S
C732 H705 0.950 . S
C732 C718 1.377 . S
C732 C731 1.373 . S
C733 C717 1.377 . S
C733 C731 1.389 . S
C733 C734 1.524 . S
C734 C733 1.524 . S
C734 C735 1.397 . S
C734 C739 1.363 . S
C735 H706 0.950 . S
C735 C734 1.397 . S
C735 C736 1.334 . S
C736 H707 0.950 . S
C736 C735 1.334 . S
C736 C737 1.287 . S
C737 C736 1.287 . S
C737 C738 1.524 . S
C737 H740 0.999 . S
C738 H708 0.950 . S
C738 C737 1.524 . S
C738 C739 1.415 . S
C739 H709 0.950 . S
C739 C734 1.363 . S
C739 C738 1.415 . S
H740 C737 0.999 . S
H741 C722 0.913 . S
H742 C760 0.951 . S
H743 C762 0.951 . S
H744 C764 0.950 . S
H745 C765 0.950 . S
H746 C767 0.950 . S
H747 C770 0.950 . S
H748 C771 0.950 . S
H749 C773 0.950 . S
H750 C774 0.950 . S
H751 C775 0.951 . S
H752 C777 0.951 . S
H753 C779 0.950 . S
H754 C780 0.950 . S
H755 C782 0.950 . S
H756 C785 0.950 . S
H757 C786 0.950 . S
H758 C788 0.950 . S
H759 C789 0.950 . S
C760 H742 0.951 . S
C760 C761 1.366 . S
C760 C762 1.388 . S
C761 C760 1.366 . S
C761 C765 1.385 . S
C762 H743 0.951 . S
C762 C760 1.388 . S
C762 C763 1.366 . S
C763 C762 1.366 . S
C763 C764 1.414 . S
C763 C766 1.499 . S
C764 H744 0.950 . S
C764 C763 1.414 . S
C764 C765 1.374 . S
C765 H745 0.950 . S
C765 C761 1.385 . S
C765 C764 1.374 . S
C766 C763 1.499 . S
C766 C767 1.373 . S
C766 C768 1.389 . S
C767 H746 0.950 . S
C767 C766 1.373 . S
C767 C783 1.377 . S
C768 C766 1.389 . S
C768 C769 1.524 . S
C768 C782 1.377 . S
C769 C768 1.524 . S
C769 C770 1.397 . S
C769 C774 1.363 . S
C770 H747 0.950 . S
C770 C769 1.397 . S
C770 C771 1.334 . S
C771 H748 0.950 . S
C771 C770 1.334 . S
C771 C772 1.287 . S
C772 C771 1.287 . S
C772 C773 1.524 . S
C772 H791 0.913 . S
C773 H749 0.950 . S
C773 C772 1.524 . S
C773 C774 1.415 . S
C774 H750 0.950 . S
C774 C769 1.363 . S
C774 C773 1.415 . S
C775 H751 0.951 . S
C775 C776 1.366 . S
C775 C777 1.388 . S
C776 C775 1.366 . S
C776 C780 1.385 . S
C777 H752 0.951 . S
C777 C775 1.388 . S
C777 C778 1.366 . S
C778 C777 1.366 . S
C778 C779 1.414 . S
C778 C781 1.499 . S
C779 H753 0.950 . S
C779 C778 1.414 . S
C779 C780 1.374 . S
C780 H754 0.950 . S
C780 C776 1.385 . S
C780 C779 1.374 . S
C781 C778 1.499 . S
C781 C782 1.373 . S
C781 C783 1.389 . S
C782 H755 0.950 . S
C782 C768 1.377 . S
C782 C781 1.373 . S
C783 C767 1.377 . S
C783 C781 1.389 . S
C783 C784 1.524 . S
C784 C783 1.524 . S
C784 C785 1.397 . S
C784 C789 1.363 . S
C785 H756 0.950 . S
C785 C784 1.397 . S
C785 C786 1.334 . S
C786 H757 0.950 . S
C786 C785 1.334 . S
C786 C787 1.287 . S
C787 C786 1.287 . S
C787 C788 1.524 . S
C787 H790 0.999 . S
C788 H758 0.950 . S
C788 C787 1.524 . S
C788 C789 1.415 . S
C789 H759 0.950 . S
C789 C784 1.363 . S
C789 C788 1.415 . S
H790 C787 0.999 . S
H791 C772 0.913 . S
H792 C810 0.951 . S
H793 C812 0.951 . S
H794 C814 0.950 . S
H795 C815 0.950 . S
H796 C817 0.950 . S
H797 C820 0.950 1_554 S
H798 C821 0.950 . S
H799 C823 0.950 . S
H800 C824 0.950 . S
H801 C825 0.951 . S
H802 C827 0.951 . S
H803 C829 0.950 . S
H804 C830 0.950 . S
H805 C832 0.950 . S
H806 C835 0.950 . S
H807 C836 0.950 . S
H808 C838 0.950 . S
H809 C839 0.950 . S
C810 H792 0.951 . S
C810 C811 1.366 . S
C810 C812 1.388 . S
C811 C810 1.366 . S
C811 C815 1.385 . S
C812 H793 0.951 . S
C812 C810 1.388 . S
C812 C813 1.366 . S
C813 C812 1.366 . S
C813 C814 1.414 . S
C813 C816 1.499 . S
C814 H794 0.950 . S
C814 C813 1.414 . S
C814 C815 1.374 . S
C815 H795 0.950 . S
C815 C811 1.385 . S
C815 C814 1.374 . S
C816 C813 1.499 . S
C816 C817 1.373 . S
C816 C818 1.389 . S
C817 H796 0.950 . S
C817 C816 1.373 . S
C817 C833 1.377 1_565 S
C818 C816 1.389 . S
C818 C819 1.524 . S
C818 C832 1.377 . S
C819 C818 1.524 . S
C819 C820 1.397 . S
C819 C824 1.363 . S
C820 H797 0.950 1_556 S
C820 C819 1.397 . S
C820 C821 1.334 1_556 S
C821 H798 0.950 . S
C821 C820 1.334 1_554 S
C821 C822 1.287 . S
C822 C821 1.287 . S
C822 C823 1.524 1_554 S
C822 H841 0.913 . S
C823 H799 0.950 . S
C823 C822 1.524 1_556 S
C823 C824 1.415 . S
C824 H800 0.950 . S
C824 C819 1.363 . S
C824 C823 1.415 . S
C825 H801 0.951 . S
C825 C826 1.366 . S
C825 C827 1.388 . S
C826 C825 1.366 . S
C826 C830 1.385 . S
C827 H802 0.951 . S
C827 C825 1.388 . S
C827 C828 1.366 . S
C828 C827 1.366 . S
C828 C829 1.414 . S
C828 C831 1.499 . S
C829 H803 0.950 . S
C829 C828 1.414 . S
C829 C830 1.374 . S
C830 H804 0.950 . S
C830 C826 1.385 . S
C830 C829 1.374 . S
C831 C828 1.499 . S
C831 C832 1.373 1_545 S
C831 C833 1.389 . S
C832 H805 0.950 . S
C832 C818 1.377 . S
C832 C831 1.373 1_565 S
C833 C817 1.377 1_545 S
C833 C831 1.389 . S
C833 C834 1.524 . S
C834 C833 1.524 . S
C834 C835 1.397 . S
C834 C839 1.363 . S
C835 H806 0.950 . S
C835 C834 1.397 . S
C835 C836 1.334 . S
C836 H807 0.950 . S
C836 C835 1.334 . S
C836 C837 1.287 . S
C837 C836 1.287 . S
C837 C838 1.524 . S
C837 H840 0.999 . S
C838 H808 0.950 . S
C838 C837 1.524 . S
C838 C839 1.415 . S
C839 H809 0.950 . S
C839 C834 1.363 . S
C839 C838 1.415 . S
H840 C837 0.999 . S
H841 C822 0.913 . S
H842 C860 0.951 . S
H843 C862 0.951 . S
H844 C864 0.950 . S
H845 C865 0.950 . S
H846 C867 0.950 . S
H847 C870 0.950 . S
H848 C871 0.950 . S
H849 C873 0.950 . S
H850 C874 0.950 1_565 S
H851 C875 0.951 . S
H852 C877 0.951 . S
H853 C879 0.950 . S
H854 C880 0.950 . S
H855 C882 0.950 . S
H856 C885 0.950 . S
H857 C886 0.950 . S
H858 C888 0.950 . S
H859 C889 0.950 1_545 S
C860 H842 0.951 . S
C860 C861 1.366 . S
C860 C862 1.388 . S
C861 C860 1.366 . S
C861 C865 1.385 . S
C862 H843 0.951 . S
C862 C860 1.388 . S
C862 C863 1.366 . S
C863 C862 1.366 . S
C863 C864 1.414 . S
C863 C866 1.499 . S
C864 H844 0.950 . S
C864 C863 1.414 . S
C864 C865 1.374 . S
C865 H845 0.950 . S
C865 C861 1.385 . S
C865 C864 1.374 . S
C866 C863 1.499 . S
C866 C867 1.373 . S
C866 C868 1.389 . S
C867 H846 0.950 . S
C867 C866 1.373 . S
C867 C883 1.377 1_545 S
C868 C866 1.389 . S
C868 C869 1.524 . S
C868 C882 1.377 1_545 S
C869 C868 1.524 . S
C869 C870 1.397 . S
C869 C874 1.363 . S
C870 H847 0.950 . S
C870 C869 1.397 . S
C870 C871 1.334 . S
C871 H848 0.950 . S
C871 C870 1.334 . S
C871 C872 1.287 . S
C872 C871 1.287 . S
C872 C873 1.524 . S
C872 H891 0.913 . S
C873 H849 0.950 . S
C873 C872 1.524 . S
C873 C874 1.415 . S
C874 H850 0.950 1_545 S
C874 C869 1.363 . S
C874 C873 1.415 . S
C875 H851 0.951 . S
C875 C876 1.366 . S
C875 C877 1.388 . S
C876 C875 1.366 . S
C876 C880 1.385 . S
C877 H852 0.951 . S
C877 C875 1.388 . S
C877 C878 1.366 . S
C878 C877 1.366 . S
C878 C879 1.414 . S
C878 C881 1.499 . S
C879 H853 0.950 . S
C879 C878 1.414 . S
C879 C880 1.374 . S
C880 H854 0.950 . S
C880 C876 1.385 . S
C880 C879 1.374 . S
C881 C878 1.499 . S
C881 C882 1.373 . S
C881 C883 1.389 . S
C882 H855 0.950 . S
C882 C868 1.377 1_565 S
C882 C881 1.373 . S
C883 C867 1.377 1_565 S
C883 C881 1.389 . S
C883 C884 1.524 . S
C884 C883 1.524 . S
C884 C885 1.397 . S
C884 C889 1.363 . S
C885 H856 0.950 . S
C885 C884 1.397 . S
C885 C886 1.334 . S
C886 H857 0.950 . S
C886 C885 1.334 . S
C886 C887 1.287 . S
C887 C886 1.287 . S
C887 C888 1.524 . S
C887 H890 0.999 . S
C888 H858 0.950 . S
C888 C887 1.524 . S
C888 C889 1.415 . S
C889 H859 0.950 1_565 S
C889 C884 1.363 . S
C889 C888 1.415 . S
H890 C887 0.999 . S
H891 C872 0.913 . S
H892 C910 0.951 . S
H893 C912 0.951 . S
H894 C914 0.950 . S
H895 C915 0.949 . S
H896 C917 0.950 . S
H897 C920 0.950 . S
H898 C921 0.950 1_554 S
H899 C923 0.950 . S
H900 C924 0.950 . S
H901 C925 0.951 . S
H902 C927 0.951 . S
H903 C929 0.950 . S
H904 C930 0.950 . S
H905 C932 0.950 . S
H906 C935 0.950 . S
H907 C936 0.950 . S
H908 C938 0.950 . S
H909 C939 0.950 . S
C910 H892 0.951 . S
C910 C911 1.366 . S
C910 C912 1.388 . S
C911 C910 1.366 . S
C911 C915 1.385 . S
C912 H893 0.951 . S
C912 C910 1.388 . S
C912 C913 1.366 . S
C913 C912 1.366 . S
C913 C914 1.414 . S
C913 C916 1.499 . S
C914 H894 0.950 . S
C914 C913 1.414 . S
C914 C915 1.374 . S
C915 H895 0.949 . S
C915 C911 1.385 . S
C915 C914 1.374 . S
C916 C913 1.499 . S
C916 C917 1.373 . S
C916 C918 1.389 1_565 S
C917 H896 0.950 . S
C917 C916 1.373 . S
C917 C933 1.377 . S
C918 C916 1.389 1_545 S
C918 C919 1.524 . S
C918 C932 1.377 . S
C919 C918 1.524 . S
C919 C920 1.397 . S
C919 C924 1.363 . S
C920 H897 0.950 . S
C920 C919 1.397 . S
C920 C921 1.334 . S
C921 H898 0.950 1_556 S
C921 C920 1.334 . S
C921 C922 1.287 . S
C922 C921 1.287 . S
C922 C923 1.524 . S
C922 H941 0.913 . S
C923 H899 0.950 . S
C923 C922 1.524 . S
C923 C924 1.415 . S
C924 H900 0.950 . S
C924 C919 1.363 . S
C924 C923 1.415 . S
C925 H901 0.951 . S
C925 C926 1.366 . S
C925 C927 1.388 . S
C926 C925 1.366 . S
C926 C930 1.385 . S
C927 H902 0.951 . S
C927 C925 1.388 . S
C927 C928 1.366 . S
C928 C927 1.366 . S
C928 C929 1.414 . S
C928 C931 1.499 . S
C929 H903 0.950 . S
C929 C928 1.414 . S
C929 C930 1.374 . S
C930 H904 0.950 . S
C930 C926 1.385 . S
C930 C929 1.374 . S
C931 C928 1.499 . S
C931 C932 1.373 . S
C931 C933 1.389 1_545 S
C932 H905 0.950 . S
C932 C918 1.377 . S
C932 C931 1.373 . S
C933 C917 1.377 . S
C933 C931 1.389 1_565 S
C933 C934 1.524 . S
C934 C933 1.524 . S
C934 C935 1.397 . S
C934 C939 1.363 . S
C935 H906 0.950 . S
C935 C934 1.397 . S
C935 C936 1.334 . S
C936 H907 0.950 . S
C936 C935 1.334 . S
C936 C937 1.287 . S
C937 C936 1.287 . S
C937 C938 1.524 . S
C937 H940 0.999 . S
C938 H908 0.950 . S
C938 C937 1.524 . S
C938 C939 1.415 . S
C939 H909 0.950 . S
C939 C934 1.363 . S
C939 C938 1.415 . S
H940 C937 0.999 . S
H941 C922 0.913 . S
H942 C960 0.951 . S
H943 C962 0.951 . S
H944 C964 0.950 . S
H945 C965 0.950 . S
H946 C967 0.950 . S
H947 C970 0.950 . S
H948 C971 0.950 . S
H949 C973 0.950 . S
H950 C974 0.950 . S
H951 C975 0.951 . S
H952 C977 0.951 . S
H953 C979 0.950 . S
H954 C980 0.950 . S
H955 C982 0.950 . S
H956 C985 0.950 . S
H957 C986 0.950 . S
H958 C988 0.950 . S
H959 C989 0.950 . S
C960 H942 0.951 . S
C960 C961 1.366 . S
C960 C962 1.388 . S
C961 C960 1.366 . S
C961 C965 1.385 . S
C962 H943 0.951 . S
C962 C960 1.388 . S
C962 C963 1.366 . S
C963 C962 1.366 . S
C963 C964 1.414 . S
C963 C966 1.499 . S
C964 H944 0.950 . S
C964 C963 1.414 . S
C964 C965 1.374 . S
C965 H945 0.950 . S
C965 C961 1.385 . S
C965 C964 1.374 . S
C966 C963 1.499 . S
C966 C967 1.373 . S
C966 C968 1.389 1_545 S
C967 H946 0.950 . S
C967 C966 1.373 . S
C967 C983 1.377 . S
C968 C966 1.389 1_565 S
C968 C969 1.524 . S
C968 C982 1.377 . S
C969 C968 1.524 . S
C969 C970 1.397 . S
C969 C974 1.363 . S
C970 H947 0.950 . S
C970 C969 1.397 . S
C970 C971 1.334 . S
C971 H948 0.950 . S
C971 C970 1.334 . S
C971 C972 1.287 . S
C972 C971 1.287 . S
C972 C973 1.524 . S
C972 H991 0.913 . S
C973 H949 0.950 . S
C973 C972 1.524 . S
C973 C974 1.415 . S
C974 H950 0.950 . S
C974 C969 1.363 . S
C974 C973 1.415 . S
C975 H951 0.951 . S
C975 C976 1.366 . S
C975 C977 1.388 . S
C976 C975 1.366 . S
C976 C980 1.385 . S
C977 H952 0.951 . S
C977 C975 1.388 . S
C977 C978 1.366 . S
C978 C977 1.366 . S
C978 C979 1.414 . S
C978 C981 1.499 . S
C979 H953 0.950 . S
C979 C978 1.414 . S
C979 C980 1.374 . S
C980 H954 0.950 . S
C980 C976 1.385 . S
C980 C979 1.374 . S
C981 C978 1.499 . S
C981 C982 1.373 . S
C981 C983 1.389 1_565 S
C982 H955 0.950 . S
C982 C968 1.377 . S
C982 C981 1.373 . S
C983 C967 1.377 . S
C983 C981 1.389 1_545 S
C983 C984 1.524 . S
C984 C983 1.524 . S
C984 C985 1.397 . S
C984 C989 1.363 . S
C985 H956 0.950 . S
C985 C984 1.397 . S
C985 C986 1.334 . S
C986 H957 0.950 . S
C986 C985 1.334 . S
C986 C987 1.287 . S
C987 C986 1.287 . S
C987 C988 1.524 . S
C987 H990 0.999 . S
C988 H958 0.950 . S
C988 C987 1.524 . S
C988 C989 1.415 . S
C989 H959 0.950 . S
C989 C984 1.363 . S
C989 C988 1.415 . S
H990 C987 0.999 . S
H991 C972 0.913 . S
H992 C1010 0.951 . S
H993 C1012 0.951 . S
H994 C1014 0.950 . S
H995 C1015 0.950 . S
H996 C1017 0.950 . S
H997 C1020 0.950 . S
H998 C1021 0.950 . S
H999 C1023 0.950 . S
H1000 C1024 0.950 . S
H1001 C1025 0.951 . S
H1002 C1027 0.951 . S
H1003 C1029 0.950 . S
H1004 C1030 0.950 . S
H1005 C1032 0.950 . S
H1006 C1035 0.950 . S
H1007 C1036 0.950 . S
H1008 C1038 0.950 . S
H1009 C1039 0.950 . S
C1010 H992 0.951 . S
C1010 C1011 1.366 . S
C1010 C1012 1.388 . S
C1011 C1010 1.366 . S
C1011 C1015 1.385 . S
C1012 H993 0.951 . S
C1012 C1010 1.388 . S
C1012 C1013 1.366 . S
C1013 C1012 1.366 . S
C1013 C1014 1.414 . S
C1013 C1016 1.499 . S
C1014 H994 0.950 . S
C1014 C1013 1.414 . S
C1014 C1015 1.374 . S
C1015 H995 0.950 . S
C1015 C1011 1.385 . S
C1015 C1014 1.374 . S
C1016 C1013 1.499 . S
C1016 C1017 1.373 . S
C1016 C1018 1.389 . S
C1017 H996 0.950 . S
C1017 C1016 1.373 . S
C1017 C1033 1.377 . S
C1018 C1016 1.389 . S
C1018 C1019 1.524 . S
C1018 C1032 1.377 . S
C1019 C1018 1.524 . S
C1019 C1020 1.397 . S
C1019 C1024 1.363 . S
C1020 H997 0.950 . S
C1020 C1019 1.397 . S
C1020 C1021 1.334 . S
C1021 H998 0.950 . S
C1021 C1020 1.334 . S
C1021 C1022 1.287 . S
C1022 C1021 1.287 . S
C1022 C1023 1.524 . S
C1022 H1041 0.913 . S
C1023 H999 0.950 . S
C1023 C1022 1.524 . S
C1023 C1024 1.415 . S
C1024 H1000 0.950 . S
C1024 C1019 1.363 . S
C1024 C1023 1.415 . S
C1025 H1001 0.951 . S
C1025 C1026 1.366 . S
C1025 C1027 1.388 . S
C1026 C1025 1.366 . S
C1026 C1030 1.385 . S
C1027 H1002 0.951 . S
C1027 C1025 1.388 . S
C1027 C1028 1.366 . S
C1028 C1027 1.366 . S
C1028 C1029 1.414 . S
C1028 C1031 1.499 . S
C1029 H1003 0.950 . S
C1029 C1028 1.414 . S
C1029 C1030 1.374 . S
C1030 H1004 0.950 . S
C1030 C1026 1.385 . S
C1030 C1029 1.374 . S
C1031 C1028 1.499 . S
C1031 C1032 1.373 . S
C1031 C1033 1.389 . S
C1032 H1005 0.950 . S
C1032 C1018 1.377 . S
C1032 C1031 1.373 . S
C1033 C1017 1.377 . S
C1033 C1031 1.389 . S
C1033 C1034 1.524 . S
C1034 C1033 1.524 . S
C1034 C1035 1.397 . S
C1034 C1039 1.363 . S
C1035 H1006 0.950 . S
C1035 C1034 1.397 . S
C1035 C1036 1.334 . S
C1036 H1007 0.950 . S
C1036 C1035 1.334 . S
C1036 C1037 1.287 . S
C1037 C1036 1.287 . S
C1037 C1038 1.524 . S
C1037 H1040 0.999 . S
C1038 H1008 0.950 . S
C1038 C1037 1.524 . S
C1038 C1039 1.415 . S
C1039 H1009 0.950 . S
C1039 C1034 1.363 . S
C1039 C1038 1.415 . S
H1040 C1037 0.999 . S
H1041 C1022 0.913 . S
H1042 C1060 0.951 . S
H1043 C1062 0.951 . S
H1044 C1064 0.950 . S
H1045 C1065 0.950 . S
H1046 C1067 0.950 . S
H1047 C1070 0.950 . S
H1048 C1071 0.950 . S
H1049 C1073 0.950 . S
H1050 C1074 0.950 . S
H1051 C1075 0.951 . S
H1052 C1077 0.951 . S
H1053 C1079 0.950 . S
H1054 C1080 0.950 . S
H1055 C1082 0.950 . S
H1056 C1085 0.950 . S
H1057 C1086 0.950 . S
H1058 C1088 0.950 . S
H1059 C1089 0.950 . S
C1060 H1042 0.951 . S
C1060 C1061 1.366 . S
C1060 C1062 1.388 . S
C1061 C1060 1.366 . S
C1061 C1065 1.385 . S
C1062 H1043 0.951 . S
C1062 C1060 1.388 . S
C1062 C1063 1.366 . S
C1063 C1062 1.366 . S
C1063 C1064 1.414 . S
C1063 C1066 1.499 . S
C1064 H1044 0.950 . S
C1064 C1063 1.414 . S
C1064 C1065 1.374 . S
C1065 H1045 0.950 . S
C1065 C1061 1.385 . S
C1065 C1064 1.374 . S
C1066 C1063 1.499 . S
C1066 C1067 1.373 . S
C1066 C1068 1.389 . S
C1067 H1046 0.950 . S
C1067 C1066 1.373 . S
C1067 C1083 1.377 . S
C1068 C1066 1.389 . S
C1068 C1069 1.524 . S
C1068 C1082 1.377 . S
C1069 C1068 1.524 . S
C1069 C1070 1.397 . S
C1069 C1074 1.363 . S
C1070 H1047 0.950 . S
C1070 C1069 1.397 . S
C1070 C1071 1.334 . S
C1071 H1048 0.950 . S
C1071 C1070 1.334 . S
C1071 C1072 1.287 . S
C1072 C1071 1.287 . S
C1072 C1073 1.524 . S
C1072 H1091 0.913 . S
C1073 H1049 0.950 . S
C1073 C1072 1.524 . S
C1073 C1074 1.415 . S
C1074 H1050 0.950 . S
C1074 C1069 1.363 . S
C1074 C1073 1.415 . S
C1075 H1051 0.951 . S
C1075 C1076 1.366 . S
C1075 C1077 1.388 . S
C1076 C1075 1.366 . S
C1076 C1080 1.385 . S
C1077 H1052 0.951 . S
C1077 C1075 1.388 . S
C1077 C1078 1.366 . S
C1078 C1077 1.366 . S
C1078 C1079 1.414 . S
C1078 C1081 1.499 . S
C1079 H1053 0.950 . S
C1079 C1078 1.414 . S
C1079 C1080 1.374 . S
C1080 H1054 0.950 . S
C1080 C1076 1.385 . S
C1080 C1079 1.374 . S
C1081 C1078 1.499 . S
C1081 C1082 1.373 . S
C1081 C1083 1.389 . S
C1082 H1055 0.950 . S
C1082 C1068 1.377 . S
C1082 C1081 1.373 . S
C1083 C1067 1.377 . S
C1083 C1081 1.389 . S
C1083 C1084 1.524 . S
C1084 C1083 1.524 . S
C1084 C1085 1.397 . S
C1084 C1089 1.363 . S
C1085 H1056 0.950 . S
C1085 C1084 1.397 . S
C1085 C1086 1.334 . S
C1086 H1057 0.950 . S
C1086 C1085 1.334 . S
C1086 C1087 1.287 . S
C1087 C1086 1.287 . S
C1087 C1088 1.524 . S
C1087 H1090 0.999 . S
C1088 H1058 0.950 . S
C1088 C1087 1.524 . S
C1088 C1089 1.415 . S
C1089 H1059 0.950 . S
C1089 C1084 1.363 . S
C1089 C1088 1.415 . S
H1090 C1087 0.999 . S
H1091 C1072 0.913 . S
H1092 C1110 0.951 . S
H1093 C1112 0.951 . S
H1094 C1114 0.950 . S
H1095 C1115 0.950 . S
H1096 C1117 0.950 . S
H1097 C1120 0.950 . S
H1098 C1121 0.950 . S
H1099 C1123 0.950 . S
H1100 C1124 0.950 . S
H1101 C1125 0.951 . S
H1102 C1127 0.951 . S
H1103 C1129 0.950 . S
H1104 C1130 0.950 . S
H1105 C1132 0.950 . S
H1106 C1135 0.950 . S
H1107 C1136 0.950 . S
H1108 C1138 0.950 . S
H1109 C1139 0.950 . S
C1110 H1092 0.951 . S
C1110 C1111 1.366 . S
C1110 C1112 1.388 . S
C1111 C1110 1.366 . S
C1111 C1115 1.385 . S
C1112 H1093 0.951 . S
C1112 C1110 1.388 . S
C1112 C1113 1.366 . S
C1113 C1112 1.366 . S
C1113 C1114 1.414 . S
C1113 C1116 1.499 . S
C1114 H1094 0.950 . S
C1114 C1113 1.414 . S
C1114 C1115 1.374 . S
C1115 H1095 0.950 . S
C1115 C1111 1.385 . S
C1115 C1114 1.374 . S
C1116 C1113 1.499 . S
C1116 C1117 1.373 . S
C1116 C1118 1.389 . S
C1117 H1096 0.950 . S
C1117 C1116 1.373 . S
C1117 C1133 1.377 . S
C1118 C1116 1.389 . S
C1118 C1119 1.524 . S
C1118 C1132 1.377 . S
C1119 C1118 1.524 . S
C1119 C1120 1.397 . S
C1119 C1124 1.363 . S
C1120 H1097 0.950 . S
C1120 C1119 1.397 . S
C1120 C1121 1.334 . S
C1121 H1098 0.950 . S
C1121 C1120 1.334 . S
C1121 C1122 1.287 . S
C1122 C1121 1.287 . S
C1122 C1123 1.524 . S
C1122 H1141 0.913 . S
C1123 H1099 0.950 . S
C1123 C1122 1.524 . S
C1123 C1124 1.415 . S
C1124 H1100 0.950 . S
C1124 C1119 1.363 . S
C1124 C1123 1.415 . S
C1125 H1101 0.951 . S
C1125 C1126 1.366 . S
C1125 C1127 1.388 . S
C1126 C1125 1.366 . S
C1126 C1130 1.385 . S
C1127 H1102 0.951 . S
C1127 C1125 1.388 . S
C1127 C1128 1.366 . S
C1128 C1127 1.366 . S
C1128 C1129 1.414 . S
C1128 C1131 1.499 . S
C1129 H1103 0.950 . S
C1129 C1128 1.414 . S
C1129 C1130 1.374 . S
C1130 H1104 0.950 . S
C1130 C1126 1.385 . S
C1130 C1129 1.374 . S
C1131 C1128 1.499 . S
C1131 C1132 1.373 . S
C1131 C1133 1.389 . S
C1132 H1105 0.950 . S
C1132 C1118 1.377 . S
C1132 C1131 1.373 . S
C1133 C1117 1.377 . S
C1133 C1131 1.389 . S
C1133 C1134 1.524 . S
C1134 C1133 1.524 . S
C1134 C1135 1.397 . S
C1134 C1139 1.363 . S
C1135 H1106 0.950 . S
C1135 C1134 1.397 . S
C1135 C1136 1.334 . S
C1136 H1107 0.950 . S
C1136 C1135 1.334 . S
C1136 C1137 1.287 . S
C1137 C1136 1.287 . S
C1137 C1138 1.524 . S
C1137 H1140 0.999 . S
C1138 H1108 0.950 . S
C1138 C1137 1.524 . S
C1138 C1139 1.415 . S
C1139 H1109 0.950 . S
C1139 C1134 1.363 . S
C1139 C1138 1.415 . S
H1140 C1137 0.999 . S
H1141 C1122 0.913 . S
H1142 C1160 0.951 . S
H1143 C1162 0.951 . S
H1144 C1164 0.950 . S
H1145 C1165 0.950 . S
H1146 C1167 0.950 . S
H1147 C1170 0.950 . S
H1148 C1171 0.950 . S
H1149 C1173 0.950 . S
H1150 C1174 0.950 . S
H1151 C1175 0.951 . S
H1152 C1177 0.951 . S
H1153 C1179 0.950 . S
H1154 C1180 0.950 . S
H1155 C1182 0.950 . S
H1156 C1185 0.950 . S
H1157 C1186 0.950 . S
H1158 C1188 0.950 . S
H1159 C1189 0.950 . S
C1160 H1142 0.951 . S
C1160 C1161 1.366 . S
C1160 C1162 1.388 . S
C1161 C1160 1.366 . S
C1161 C1165 1.385 . S
C1162 H1143 0.951 . S
C1162 C1160 1.388 . S
C1162 C1163 1.366 . S
C1163 C1162 1.366 . S
C1163 C1164 1.414 . S
C1163 C1166 1.499 . S
C1164 H1144 0.950 . S
C1164 C1163 1.414 . S
C1164 C1165 1.374 . S
C1165 H1145 0.950 . S
C1165 C1161 1.385 . S
C1165 C1164 1.374 . S
C1166 C1163 1.499 . S
C1166 C1167 1.373 . S
C1166 C1168 1.389 . S
C1167 H1146 0.950 . S
C1167 C1166 1.373 . S
C1167 C1183 1.377 . S
C1168 C1166 1.389 . S
C1168 C1169 1.524 . S
C1168 C1182 1.377 . S
C1169 C1168 1.524 . S
C1169 C1170 1.397 . S
C1169 C1174 1.363 . S
C1170 H1147 0.950 . S
C1170 C1169 1.397 . S
C1170 C1171 1.334 . S
C1171 H1148 0.950 . S
C1171 C1170 1.334 . S
C1171 C1172 1.287 . S
C1172 C1171 1.287 . S
C1172 C1173 1.524 . S
C1172 H1191 0.913 . S
C1173 H1149 0.950 . S
C1173 C1172 1.524 . S
C1173 C1174 1.415 . S
C1174 H1150 0.950 . S
C1174 C1169 1.363 . S
C1174 C1173 1.415 . S
C1175 H1151 0.951 . S
C1175 C1176 1.366 . S
C1175 C1177 1.388 . S
C1176 C1175 1.366 . S
C1176 C1180 1.385 . S
C1177 H1152 0.951 . S
C1177 C1175 1.388 . S
C1177 C1178 1.366 . S
C1178 C1177 1.366 . S
C1178 C1179 1.414 . S
C1178 C1181 1.499 . S
C1179 H1153 0.950 . S
C1179 C1178 1.414 . S
C1179 C1180 1.374 . S
C1180 H1154 0.950 . S
C1180 C1176 1.385 . S
C1180 C1179 1.374 . S
C1181 C1178 1.499 . S
C1181 C1182 1.373 . S
C1181 C1183 1.389 . S
C1182 H1155 0.950 . S
C1182 C1168 1.377 . S
C1182 C1181 1.373 . S
C1183 C1167 1.377 . S
C1183 C1181 1.389 . S
C1183 C1184 1.524 . S
C1184 C1183 1.524 . S
C1184 C1185 1.397 . S
C1184 C1189 1.363 . S
C1185 H1156 0.950 . S
C1185 C1184 1.397 . S
C1185 C1186 1.334 . S
C1186 H1157 0.950 . S
C1186 C1185 1.334 . S
C1186 C1187 1.287 . S
C1187 C1186 1.287 . S
C1187 C1188 1.524 . S
C1187 H1190 0.999 . S
C1188 H1158 0.950 . S
C1188 C1187 1.524 . S
C1188 C1189 1.415 . S
C1189 H1159 0.950 . S
C1189 C1184 1.363 . S
C1189 C1188 1.415 . S
H1190 C1187 0.999 . S
H1191 C1172 0.913 . S
H1192 C1210 0.951 . S
H1193 C1212 0.951 . S
H1194 C1214 0.950 . S
H1195 C1215 0.950 . S
H1196 C1217 0.950 . S
H1197 C1220 0.950 . S
H1198 C1221 0.950 . S
H1199 C1223 0.950 . S
H1200 C1224 0.950 . S
H1201 C1225 0.951 . S
H1202 C1227 0.951 . S
H1203 C1229 0.950 . S
H1204 C1230 0.950 . S
H1205 C1232 0.950 . S
H1206 C1235 0.950 . S
H1207 C1236 0.950 . S
H1208 C1238 0.950 . S
H1209 C1239 0.950 . S
C1210 H1192 0.951 . S
C1210 C1211 1.366 . S
C1210 C1212 1.388 . S
C1211 C1210 1.366 . S
C1211 C1215 1.385 . S
C1212 H1193 0.951 . S
C1212 C1210 1.388 . S
C1212 C1213 1.366 . S
C1213 C1212 1.366 . S
C1213 C1214 1.414 . S
C1213 C1216 1.499 . S
C1214 H1194 0.950 . S
C1214 C1213 1.414 . S
C1214 C1215 1.374 . S
C1215 H1195 0.950 . S
C1215 C1211 1.385 . S
C1215 C1214 1.374 . S
C1216 C1213 1.499 . S
C1216 C1217 1.373 . S
C1216 C1218 1.389 . S
C1217 H1196 0.950 . S
C1217 C1216 1.373 . S
C1217 C1233 1.377 . S
C1218 C1216 1.389 . S
C1218 C1219 1.524 . S
C1218 C1232 1.377 . S
C1219 C1218 1.524 . S
C1219 C1220 1.397 . S
C1219 C1224 1.363 . S
C1220 H1197 0.950 . S
C1220 C1219 1.397 . S
C1220 C1221 1.334 . S
C1221 H1198 0.950 . S
C1221 C1220 1.334 . S
C1221 C1222 1.287 . S
C1222 C1221 1.287 . S
C1222 C1223 1.524 . S
C1222 H1241 0.913 . S
C1223 H1199 0.950 . S
C1223 C1222 1.524 . S
C1223 C1224 1.415 . S
C1224 H1200 0.950 . S
C1224 C1219 1.363 . S
C1224 C1223 1.415 . S
C1225 H1201 0.951 . S
C1225 C1226 1.366 . S
C1225 C1227 1.388 . S
C1226 C1225 1.366 . S
C1226 C1230 1.385 . S
C1227 H1202 0.951 . S
C1227 C1225 1.388 . S
C1227 C1228 1.366 . S
C1228 C1227 1.366 . S
C1228 C1229 1.414 . S
C1228 C1231 1.499 . S
C1229 H1203 0.950 . S
C1229 C1228 1.414 . S
C1229 C1230 1.374 . S
C1230 H1204 0.950 . S
C1230 C1226 1.385 . S
C1230 C1229 1.374 . S
C1231 C1228 1.499 . S
C1231 C1232 1.373 . S
C1231 C1233 1.389 . S
C1232 H1205 0.950 . S
C1232 C1218 1.377 . S
C1232 C1231 1.373 . S
C1233 C1217 1.377 . S
C1233 C1231 1.389 . S
C1233 C1234 1.524 . S
C1234 C1233 1.524 . S
C1234 C1235 1.397 . S
C1234 C1239 1.363 . S
C1235 H1206 0.950 . S
C1235 C1234 1.397 . S
C1235 C1236 1.334 . S
C1236 H1207 0.950 . S
C1236 C1235 1.334 . S
C1236 C1237 1.287 . S
C1237 C1236 1.287 . S
C1237 C1238 1.524 . S
C1237 H1240 0.999 . S
C1238 H1208 0.950 . S
C1238 C1237 1.524 . S
C1238 C1239 1.415 . S
C1239 H1209 0.950 . S
C1239 C1234 1.363 . S
C1239 C1238 1.415 . S
H1240 C1237 0.999 . S
H1241 C1222 0.913 . S
H1242 C1260 0.951 . S
H1243 C1262 0.951 . S
H1244 C1264 0.950 . S
H1245 C1265 0.950 . S
H1246 C1267 0.950 . S
H1247 C1270 0.950 . S
H1248 C1271 0.950 . S
H1249 C1273 0.950 . S
H1250 C1274 0.950 . S
H1251 C1275 0.951 . S
H1252 C1277 0.951 . S
H1253 C1279 0.950 . S
H1254 C1280 0.950 . S
H1255 C1282 0.950 . S
H1256 C1285 0.950 . S
H1257 C1286 0.950 . S
H1258 C1288 0.950 . S
H1259 C1289 0.950 . S
C1260 H1242 0.951 . S
C1260 C1261 1.366 . S
C1260 C1262 1.388 . S
C1261 C1260 1.366 . S
C1261 C1265 1.385 . S
C1262 H1243 0.951 . S
C1262 C1260 1.388 . S
C1262 C1263 1.366 . S
C1263 C1262 1.366 . S
C1263 C1264 1.414 . S
C1263 C1266 1.499 . S
C1264 H1244 0.950 . S
C1264 C1263 1.414 . S
C1264 C1265 1.374 . S
C1265 H1245 0.950 . S
C1265 C1261 1.385 . S
C1265 C1264 1.374 . S
C1266 C1263 1.499 . S
C1266 C1267 1.373 . S
C1266 C1268 1.389 . S
C1267 H1246 0.950 . S
C1267 C1266 1.373 . S
C1267 C1283 1.377 . S
C1268 C1266 1.389 . S
C1268 C1269 1.524 . S
C1268 C1282 1.377 . S
C1269 C1268 1.524 . S
C1269 C1270 1.397 . S
C1269 C1274 1.363 . S
C1270 H1247 0.950 . S
C1270 C1269 1.397 . S
C1270 C1271 1.334 . S
C1271 H1248 0.950 . S
C1271 C1270 1.334 . S
C1271 C1272 1.287 . S
C1272 C1271 1.287 . S
C1272 C1273 1.524 . S
C1272 H1291 0.913 . S
C1273 H1249 0.950 . S
C1273 C1272 1.524 . S
C1273 C1274 1.415 . S
C1274 H1250 0.950 . S
C1274 C1269 1.363 . S
C1274 C1273 1.415 . S
C1275 H1251 0.951 . S
C1275 C1276 1.366 . S
C1275 C1277 1.388 . S
C1276 C1275 1.366 . S
C1276 C1280 1.385 . S
C1277 H1252 0.951 . S
C1277 C1275 1.388 . S
C1277 C1278 1.366 . S
C1278 C1277 1.366 . S
C1278 C1279 1.414 . S
C1278 C1281 1.499 . S
C1279 H1253 0.950 . S
C1279 C1278 1.414 . S
C1279 C1280 1.374 . S
C1280 H1254 0.950 . S
C1280 C1276 1.385 . S
C1280 C1279 1.374 . S
C1281 C1278 1.499 . S
C1281 C1282 1.373 . S
C1281 C1283 1.389 . S
C1282 H1255 0.950 . S
C1282 C1268 1.377 . S
C1282 C1281 1.373 . S
C1283 C1267 1.377 . S
C1283 C1281 1.389 . S
C1283 C1284 1.524 . S
C1284 C1283 1.524 . S
C1284 C1285 1.397 . S
C1284 C1289 1.363 . S
C1285 H1256 0.950 . S
C1285 C1284 1.397 . S
C1285 C1286 1.334 . S
C1286 H1257 0.950 . S
C1286 C1285 1.334 . S
C1286 C1287 1.287 . S
C1287 C1286 1.287 . S
C1287 C1288 1.524 . S
C1287 H1290 0.999 . S
C1288 H1258 0.950 . S
C1288 C1287 1.524 . S
C1288 C1289 1.415 . S
C1289 H1259 0.950 . S
C1289 C1284 1.363 . S
C1289 C1288 1.415 . S
H1290 C1287 0.999 . S
H1291 C1272 0.913 . S
H1292 C1310 0.951 . S
H1293 C1312 0.951 . S
H1294 C1314 0.950 . S
H1295 C1315 0.950 . S
H1296 C1317 0.950 . S
H1297 C1320 0.950 . S
H1298 C1321 0.950 . S
H1299 C1323 0.950 . S
H1300 C1324 0.950 . S
H1301 C1325 0.951 . S
H1302 C1327 0.951 . S
H1303 C1329 0.950 . S
H1304 C1330 0.950 . S
H1305 C1332 0.950 . S
H1306 C1335 0.950 . S
H1307 C1336 0.950 . S
H1308 C1338 0.950 . S
H1309 C1339 0.950 . S
C1310 H1292 0.951 . S
C1310 C1311 1.366 . S
C1310 C1312 1.388 . S
C1311 C1310 1.366 . S
C1311 C1315 1.385 . S
C1312 H1293 0.951 . S
C1312 C1310 1.388 . S
C1312 C1313 1.366 . S
C1313 C1312 1.366 . S
C1313 C1314 1.414 . S
C1313 C1316 1.499 . S
C1314 H1294 0.950 . S
C1314 C1313 1.414 . S
C1314 C1315 1.374 . S
C1315 H1295 0.950 . S
C1315 C1311 1.385 . S
C1315 C1314 1.374 . S
C1316 C1313 1.499 . S
C1316 C1317 1.373 . S
C1316 C1318 1.389 . S
C1317 H1296 0.950 . S
C1317 C1316 1.373 . S
C1317 C1333 1.377 . S
C1318 C1316 1.389 . S
C1318 C1319 1.524 . S
C1318 C1332 1.377 . S
C1319 C1318 1.524 . S
C1319 C1320 1.397 . S
C1319 C1324 1.363 . S
C1320 H1297 0.950 . S
C1320 C1319 1.397 . S
C1320 C1321 1.334 . S
C1321 H1298 0.950 . S
C1321 C1320 1.334 . S
C1321 C1322 1.287 . S
C1322 C1321 1.287 . S
C1322 C1323 1.524 . S
C1322 H1341 0.913 . S
C1323 H1299 0.950 . S
C1323 C1322 1.524 . S
C1323 C1324 1.415 . S
C1324 H1300 0.950 . S
C1324 C1319 1.363 . S
C1324 C1323 1.415 . S
C1325 H1301 0.951 . S
C1325 C1326 1.366 . S
C1325 C1327 1.388 . S
C1326 C1325 1.366 . S
C1326 C1330 1.385 . S
C1327 H1302 0.951 . S
C1327 C1325 1.388 . S
C1327 C1328 1.366 . S
C1328 C1327 1.366 . S
C1328 C1329 1.414 . S
C1328 C1331 1.499 . S
C1329 H1303 0.950 . S
C1329 C1328 1.414 . S
C1329 C1330 1.374 . S
C1330 H1304 0.950 . S
C1330 C1326 1.385 . S
C1330 C1329 1.374 . S
C1331 C1328 1.499 . S
C1331 C1332 1.373 . S
C1331 C1333 1.389 . S
C1332 H1305 0.950 . S
C1332 C1318 1.377 . S
C1332 C1331 1.373 . S
C1333 C1317 1.377 . S
C1333 C1331 1.389 . S
C1333 C1334 1.524 . S
C1334 C1333 1.524 . S
C1334 C1335 1.397 . S
C1334 C1339 1.363 . S
C1335 H1306 0.950 . S
C1335 C1334 1.397 . S
C1335 C1336 1.334 . S
C1336 H1307 0.950 . S
C1336 C1335 1.334 . S
C1336 C1337 1.287 . S
C1337 C1336 1.287 . S
C1337 C1338 1.524 . S
C1337 H1340 0.999 . S
C1338 H1308 0.950 . S
C1338 C1337 1.524 . S
C1338 C1339 1.415 . S
C1339 H1309 0.950 . S
C1339 C1334 1.363 . S
C1339 C1338 1.415 . S
H1340 C1337 0.999 . S
H1341 C1322 0.913 . S
H1342 C1360 0.951 . S
H1343 C1362 0.951 . S
H1344 C1364 0.950 . S
H1345 C1365 0.950 . S
H1346 C1367 0.950 . S
H1347 C1370 0.950 . S
H1348 C1371 0.950 . S
H1349 C1373 0.950 . S
H1350 C1374 0.950 . S
H1351 C1375 0.951 . S
H1352 C1377 0.951 . S
H1353 C1379 0.950 . S
H1354 C1380 0.950 . S
H1355 C1382 0.950 . S
H1356 C1385 0.950 . S
H1357 C1386 0.950 . S
H1358 C1388 0.950 . S
H1359 C1389 0.950 . S
C1360 H1342 0.951 . S
C1360 C1361 1.366 . S
C1360 C1362 1.388 . S
C1361 C1360 1.366 . S
C1361 C1365 1.385 . S
C1362 H1343 0.951 . S
C1362 C1360 1.388 . S
C1362 C1363 1.366 . S
C1363 C1362 1.366 . S
C1363 C1364 1.414 . S
C1363 C1366 1.499 . S
C1364 H1344 0.950 . S
C1364 C1363 1.414 . S
C1364 C1365 1.374 . S
C1365 H1345 0.950 . S
C1365 C1361 1.385 . S
C1365 C1364 1.374 . S
C1366 C1363 1.499 . S
C1366 C1367 1.373 . S
C1366 C1368 1.389 . S
C1367 H1346 0.950 . S
C1367 C1366 1.373 . S
C1367 C1383 1.377 . S
C1368 C1366 1.389 . S
C1368 C1369 1.524 . S
C1368 C1382 1.377 . S
C1369 C1368 1.524 . S
C1369 C1370 1.397 . S
C1369 C1374 1.363 . S
C1370 H1347 0.950 . S
C1370 C1369 1.397 . S
C1370 C1371 1.334 . S
C1371 H1348 0.950 . S
C1371 C1370 1.334 . S
C1371 C1372 1.287 . S
C1372 C1371 1.287 . S
C1372 C1373 1.524 . S
C1372 H1391 0.913 . S
C1373 H1349 0.950 . S
C1373 C1372 1.524 . S
C1373 C1374 1.415 . S
C1374 H1350 0.950 . S
C1374 C1369 1.363 . S
C1374 C1373 1.415 . S
C1375 H1351 0.951 . S
C1375 C1376 1.366 . S
C1375 C1377 1.388 . S
C1376 C1375 1.366 . S
C1376 C1380 1.385 . S
C1377 H1352 0.951 . S
C1377 C1375 1.388 . S
C1377 C1378 1.366 . S
C1378 C1377 1.366 . S
C1378 C1379 1.414 . S
C1378 C1381 1.499 . S
C1379 H1353 0.950 . S
C1379 C1378 1.414 . S
C1379 C1380 1.374 . S
C1380 H1354 0.950 . S
C1380 C1376 1.385 . S
C1380 C1379 1.374 . S
C1381 C1378 1.499 . S
C1381 C1382 1.373 . S
C1381 C1383 1.389 . S
C1382 H1355 0.950 . S
C1382 C1368 1.377 . S
C1382 C1381 1.373 . S
C1383 C1367 1.377 . S
C1383 C1381 1.389 . S
C1383 C1384 1.524 . S
C1384 C1383 1.524 . S
C1384 C1385 1.397 . S
C1384 C1389 1.363 . S
C1385 H1356 0.950 . S
C1385 C1384 1.397 . S
C1385 C1386 1.334 . S
C1386 H1357 0.950 . S
C1386 C1385 1.334 . S
C1386 C1387 1.287 . S
C1387 C1386 1.287 . S
C1387 C1388 1.524 . S
C1387 H1390 0.999 . S
C1388 H1358 0.950 . S
C1388 C1387 1.524 . S
C1388 C1389 1.415 . S
C1389 H1359 0.950 . S
C1389 C1384 1.363 . S
C1389 C1388 1.415 . S
H1390 C1387 0.999 . S
H1391 C1372 0.913 . S
C211 C4 1.563 . S
C226 C147 1.625 . S
C276 C111 1.474 . S
C261 C17 1.454 . S
C326 C134 1.470 . S
C311 C30 1.399 . S
C376 C122 1.621 . S
C361 C43 1.589 . S
C426 C191 1.625 . S
C411 C56 1.562 . S
C476 C155 1.474 . S
C461 C69 1.454 . S
C511 C82 1.399 . S
C526 C178 1.470 . S
C576 C166 1.621 . S
C561 C95 1.588 . S
C611 C9 1.560 . S
C626 C188 1.576 . S
C676 C158 1.435 . S
C661 C21 1.427 . S
C711 C34 1.455 . S
C726 C177 1.459 . S
C761 C48 1.581 . S
C776 C163 1.600 . S
C826 C144 1.576 . S
C811 C61 1.561 . S
C861 C73 1.427 . S
C876 C114 1.435 . S
C926 C133 1.459 . S
C911 C86 1.456 . S
C976 C119 1.600 . S
C961 C100 1.581 . S
C1026 C169 1.530 . S
C1011 C8 1.528 . S
C1076 C185 1.534 . S
C1061 C22 1.520 . S
C1111 C35 1.475 . S
C1126 C156 1.501 . S
C1176 C180 1.497 . S
C1161 C47 1.488 . S
C1226 C125 1.530 . S
C1211 C60 1.528 . S
C1261 C74 1.519 . S
C1276 C141 1.535 . S
C1311 C87 1.474 . S
C1326 C112 1.502 . S
C1361 C99 1.489 . S
C1376 C136 1.497 . S
