# Generated by pormake.
# Topology hwx, (6,3)-cn, num edge types: 1
# Building blocks:
#     Node 0, Type 0, BuildingBlock: IZENUY_clean_sbu_0, # of connection points: 6
#     Node 1, Type 0, BuildingBlock: IZENUY_clean_sbu_0, # of connection points: 6
#     Node 2, Type 0, BuildingBlock: IZENUY_clean_sbu_0, # of connection points: 6
#     Node 3, Type 0, BuildingBlock: IZENUY_clean_sbu_0, # of connection points: 6
#     Node 4, Type 1, BuildingBlock: BETDAH_clean_linker_0, # of connection points: 3
#     Node 5, Type 1, BuildingBlock: BETDAH_clean_linker_0, # of connection points: 3
#     Node 6, Type 1, BuildingBlock: BETDAH_clean_linker_0, # of connection points: 3
#     Node 7, Type 1, BuildingBlock: BETDAH_clean_linker_0, # of connection points: 3
#     Node 8, Type 1, BuildingBlock: BETDAH_clean_linker_0, # of connection points: 3
#     Node 9, Type 1, BuildingBlock: BETDAH_clean_linker_0, # of connection points: 3
#     Node 10, Type 1, BuildingBlock: BETDAH_clean_linker_0, # of connection points: 3
#     Node 11, Type 1, BuildingBlock: BETDAH_clean_linker_0, # of connection points: 3
#     Edge 12, Type (0, 1), BuildingBlock: CIFDUS_clean_linker_0, # of connection points: 2
#     Edge 13, Type (0, 1), BuildingBlock: CIFDUS_clean_linker_0, # of connection points: 2
#     Edge 14, Type (0, 1), BuildingBlock: CIFDUS_clean_linker_0, # of connection points: 2
#     Edge 15, Type (0, 1), BuildingBlock: CIFDUS_clean_linker_0, # of connection points: 2
#     Edge 16, Type (0, 1), BuildingBlock: CIFDUS_clean_linker_0, # of connection points: 2
#     Edge 17, Type (0, 1), BuildingBlock: CIFDUS_clean_linker_0, # of connection points: 2
#     Edge 18, Type (0, 1), BuildingBlock: CIFDUS_clean_linker_0, # of connection points: 2
#     Edge 19, Type (0, 1), BuildingBlock: CIFDUS_clean_linker_0, # of connection points: 2
#     Edge 20, Type (0, 1), BuildingBlock: CIFDUS_clean_linker_0, # of connection points: 2
#     Edge 21, Type (0, 1), BuildingBlock: CIFDUS_clean_linker_0, # of connection points: 2
#     Edge 22, Type (0, 1), BuildingBlock: CIFDUS_clean_linker_0, # of connection points: 2
#     Edge 23, Type (0, 1), BuildingBlock: CIFDUS_clean_linker_0, # of connection points: 2
#     Edge 24, Type (0, 1), BuildingBlock: CIFDUS_clean_linker_0, # of connection points: 2
#     Edge 25, Type (0, 1), BuildingBlock: CIFDUS_clean_linker_0, # of connection points: 2
#     Edge 26, Type (0, 1), BuildingBlock: CIFDUS_clean_linker_0, # of connection points: 2
#     Edge 27, Type (0, 1), BuildingBlock: CIFDUS_clean_linker_0, # of connection points: 2
#     Edge 28, Type (0, 1), BuildingBlock: CIFDUS_clean_linker_0, # of connection points: 2
#     Edge 29, Type (0, 1), BuildingBlock: CIFDUS_clean_linker_0, # of connection points: 2
#     Edge 30, Type (0, 1), BuildingBlock: CIFDUS_clean_linker_0, # of connection points: 2
#     Edge 31, Type (0, 1), BuildingBlock: CIFDUS_clean_linker_0, # of connection points: 2
#     Edge 32, Type (0, 1), BuildingBlock: CIFDUS_clean_linker_0, # of connection points: 2
#     Edge 33, Type (0, 1), BuildingBlock: CIFDUS_clean_linker_0, # of connection points: 2
#     Edge 34, Type (0, 1), BuildingBlock: CIFDUS_clean_linker_0, # of connection points: 2
#     Edge 35, Type (0, 1), BuildingBlock: CIFDUS_clean_linker_0, # of connection points: 2
# Relax obj value: 0.004
# Max RMSD: 0.057
# Mean RMSD: 0.047
data_MOF--net-hwx--node1-IZENUY_clean_sbu_0--node2-BETDAH_clean_linker_0--edge1-CIFDUS_clean_linker_0
_symmetry_space_group_name_H-M    P1
_symmetry_Int_Tables_number       1
_symmetry_cell_setting            triclinic
loop_
_symmetry_equiv_pos_as_xyz
'x, y, z'
_cell_length_a     45.311717
_cell_length_b     45.001379
_cell_length_c     18.18465
_cell_angle_alpha  91.941386
_cell_angle_beta   92.074715
_cell_angle_gamma 90.084084
loop_
_atom_site_label
_atom_site_type_symbol
_atom_site_fract_x
_atom_site_fract_y
_atom_site_fract_z
_atom_type_partial_charge
Fe0 Fe 0.24891 0.24445 0.10165 0.0
Fe1 Fe 0.24439 0.24922 0.9337 0.0
O2 O 0.23027 0.23571 0.01591 0.0
Fe3 Fe 0.19776 0.2134 0.01392 0.0
O4 O 0.17879 0.23971 0.0747 0.0
O5 O 0.21569 0.24327 0.15564 0.0
O6 O 0.24196 0.28381 0.09107 0.0
C7 C 0.24851 0.29855 0.03595 0.0
C8 C 0.23622 0.18569 0.11783 0.0
O9 O 0.25597 0.28549 0.97634 0.0
C10 C 0.22679 0.18972 0.89478 0.0
O11 O 0.28622 0.24772 0.06562 0.0
O12 O 0.28019 0.23235 0.95097 0.0
O13 O 0.2105 0.19089 0.09132 0.0
O14 O 0.25636 0.20523 0.11673 0.0
C15 C 0.18494 0.25447 0.90069 0.0
O16 O 0.23511 0.21546 0.87797 0.0
O17 O 0.21394 0.18539 0.95391 0.0
C18 C 0.2968 0.23724 0.00696 0.0
O19 O 0.20986 0.26695 0.90757 0.0
O20 O 0.1795 0.2312 0.9349 0.0
C21 C 0.18861 0.24666 0.13891 0.0
Fe22 Fe 0.26145 0.74678 0.57843 0.0
Fe23 Fe 0.31023 0.71407 0.49516 0.0
O24 O 0.27725 0.73547 0.49454 0.0
Fe25 Fe 0.25995 0.74543 0.40975 0.0
O26 O 0.26414 0.7851 0.43307 0.0
O27 O 0.24779 0.78241 0.54493 0.0
O28 O 0.29474 0.76635 0.61029 0.0
C29 C 0.31988 0.75459 0.61754 0.0
C30 C 0.21094 0.73327 0.49732 0.0
O31 O 0.32592 0.73087 0.58173 0.0
C32 C 0.27606 0.68803 0.37573 0.0
O33 O 0.27228 0.71329 0.62677 0.0
O34 O 0.29291 0.68425 0.54371 0.0
O35 O 0.22197 0.74512 0.44244 0.0
O36 O 0.2269 0.72799 0.55352 0.0
C37 C 0.32097 0.75189 0.38454 0.0
O38 O 0.3006 0.69331 0.40922 0.0
O39 O 0.25494 0.70633 0.38058 0.0
C40 C 0.27968 0.68766 0.60337 0.0
O41 O 0.32987 0.74222 0.44594 0.0
O42 O 0.29451 0.74797 0.36147 0.0
C43 C 0.25517 0.79771 0.49128 0.0
Fe44 Fe 0.75577 0.77583 0.94558 0.0
Fe45 Fe 0.76598 0.78058 0.11313 0.0
O46 O 0.77479 0.79176 0.02421 0.0
Fe47 Fe 0.80244 0.8191 0.01416 0.0
O48 O 0.78498 0.83497 0.93145 0.0
O49 O 0.74222 0.81193 0.91802 0.0
O50 O 0.72047 0.77088 0.99101 0.0
C51 C 0.71064 0.78379 0.0481 0.0
C52 C 0.81489 0.78146 0.89929 0.0
O53 O 0.72804 0.79258 0.10005 0.0
C54 C 0.82576 0.78482 0.13193 0.0
O55 O 0.76813 0.73855 0.96757 0.0
O56 O 0.75674 0.74209 0.08393 0.0
O57 O 0.82452 0.79356 0.95916 0.0
O58 O 0.78739 0.77833 0.88593 0.0
C59 C 0.77371 0.84274 0.13187 0.0
O60 O 0.8035 0.76799 0.1323 0.0
O61 O 0.82472 0.80852 0.09612 0.0
C62 C 0.76352 0.72646 0.02777 0.0
O63 O 0.77341 0.81712 0.15851 0.0
O64 O 0.78197 0.84651 0.06743 0.0
C65 C 0.75852 0.83394 0.9063 0.0
Fe66 Fe 0.70752 0.32152 0.51306 0.0
Fe67 Fe 0.74657 0.27421 0.5865 0.0
O68 O 0.73122 0.29027 0.50602 0.0
Fe69 Fe 0.73956 0.27539 0.41775 0.0
O70 O 0.73721 0.31122 0.37208 0.0
O71 O 0.73251 0.34416 0.46269 0.0
O72 O 0.72516 0.33741 0.59774 0.0
C73 C 0.75058 0.33359 0.62671 0.0
C74 C 0.6807 0.28661 0.39608 0.0
O75 O 0.76376 0.30914 0.61791 0.0
C76 C 0.73466 0.22367 0.5019 0.0
O77 O 0.68126 0.30099 0.56408 0.0
O78 O 0.71365 0.28114 0.64127 0.0
O79 O 0.70078 0.26715 0.39593 0.0
O80 O 0.68504 0.31149 0.42952 0.0
C81 C 0.7942 0.27357 0.48826 0.0
O82 O 0.73078 0.23787 0.56176 0.0
O83 O 0.74355 0.23688 0.44646 0.0
C84 C 0.68719 0.28755 0.62253 0.0
O85 O 0.78205 0.26457 0.54533 0.0
O86 O 0.77877 0.28261 0.43418 0.0
C87 C 0.74007 0.33754 0.39826 0.0
H88 H 0.25374 0.61023 0.00456 0.0
H89 H 0.23274 0.52411 0.08458 0.0
H90 H 0.2321 0.53812 0.85123 0.0
C91 C 0.24827 0.58697 0.99367 0.0
C92 C 0.24392 0.57637 0.92081 0.0
C93 C 0.24428 0.56848 0.05293 0.0
C94 C 0.23677 0.53836 0.03915 0.0
C95 C 0.23305 0.52719 0.96591 0.0
C96 C 0.2364 0.54638 0.90729 0.0
N97 N 0.22169 0.49822 0.94953 0.0
C98 C 0.23409 0.47197 0.97466 0.0
H99 H 0.90155 0.74969 0.51709 0.0
H100 H 0.98625 0.76316 0.42403 0.0
H101 H 0.97831 0.76642 0.65865 0.0
C102 C 0.92503 0.75384 0.52484 0.0
C103 C 0.93753 0.75762 0.59637 0.0
C104 C 0.94203 0.75691 0.46233 0.0
C105 C 0.97288 0.76041 0.47153 0.0
C106 C 0.98592 0.76305 0.54309 0.0
C107 C 0.9681 0.76236 0.60444 0.0
N108 N 0.01621 0.77006 0.55634 0.0
C109 C 0.03952 0.75999 0.51466 0.0
H110 H 0.7594 0.41432 0.98362 0.0
H111 H 0.78648 0.50041 0.91544 0.0
H112 H 0.77356 0.48549 0.14475 0.0
C113 C 0.76496 0.43732 0.99757 0.0
C114 C 0.76435 0.44767 0.07103 0.0
C115 C 0.77278 0.45598 0.94126 0.0
C116 C 0.7801 0.4859 0.95848 0.0
C117 C 0.78091 0.49628 0.0326 0.0
C118 C 0.77316 0.47709 0.08817 0.0
N119 N 0.79198 0.52484 0.05444 0.0
C120 C 0.78531 0.5512 0.01973 0.0
H121 H 0.09413 0.28833 0.50964 0.0
H122 H 0.02346 0.24371 0.61528 0.0
H123 H 0.02666 0.24127 0.38162 0.0
C124 C 0.0746 0.27453 0.50745 0.0
C125 C 0.06334 0.2644 0.43784 0.0
C126 C 0.06218 0.26545 0.57327 0.0
C127 C 0.03421 0.2513 0.56726 0.0
C128 C 0.02064 0.24457 0.49787 0.0
C129 C 0.03589 0.24978 0.43392 0.0
N130 N 0.99412 0.22778 0.49175 0.0
C131 C 0.96665 0.23942 0.50869 0.0
H132 H 0.76426 0.92065 0.54632 0.0
H133 H 0.72919 0.9899 0.41084 0.0
H134 H 0.71643 0.99323 0.6443 0.0
C135 C 0.75303 0.94177 0.54071 0.0
C136 C 0.74142 0.95576 0.6032 0.0
C137 C 0.74915 0.95395 0.47095 0.0
C138 C 0.73318 0.98057 0.46445 0.0
C139 C 0.72195 0.99513 0.52704 0.0
C140 C 0.72614 0.98269 0.5965 0.0
N141 N 0.70289 0.01976 0.51816 0.0
C142 C 0.71192 0.04901 0.53219 0.0
H143 H 0.61086 0.24666 0.02955 0.0
H144 H 0.52092 0.24771 0.09791 0.0
H145 H 0.53967 0.25033 0.8676 0.0
C146 C 0.58741 0.24657 0.01521 0.0
C147 C 0.57793 0.24818 0.94134 0.0
C148 C 0.56718 0.24626 0.07173 0.0
C149 C 0.53661 0.24747 0.05435 0.0
C150 C 0.52675 0.24884 0.97992 0.0
C151 C 0.5475 0.24927 0.92447 0.0
N152 N 0.49649 0.25083 0.95699 0.0
C153 C 0.47165 0.24689 0.99852 0.0
H154 H 0.27645 0.11053 0.4936 0.0
H155 H 0.24315 0.03781 0.61375 0.0
H156 H 0.25166 0.0285 0.3796 0.0
C157 C 0.26969 0.08746 0.49544 0.0
C158 C 0.26638 0.07066 0.42916 0.0
C159 C 0.26144 0.07607 0.56262 0.0
C160 C 0.25036 0.04688 0.56294 0.0
C161 C 0.24767 0.02931 0.49767 0.0
C162 C 0.25553 0.04131 0.43059 0.0
N163 N 0.232 1.00204 0.49917 0.0
C164 C 0.243 0.97435 0.47746 0.0
H165 H 0.40248 0.76615 0.01163 0.0
H166 H 0.47827 0.79743 0.90088 0.0
H167 H 0.47874 0.79883 0.13742 0.0
C168 C 0.42475 0.7751 0.01391 0.0
C169 C 0.43909 0.78117 0.08258 0.0
C170 C 0.43872 0.78058 0.94805 0.0
C171 C 0.46763 0.79203 0.95118 0.0
C172 C 0.4821 0.79846 0.01952 0.0
C173 C 0.46788 0.79282 0.08492 0.0
N174 N 0.50852 0.81532 0.02285 0.0
C175 C 0.53633 0.80263 0.01788 0.0
H176 H 0.1281 0.25615 0.13239 0.0
H177 H 0.20363 0.25245 0.28418 0.0
H178 H 0.17188 0.25859 0.38742 0.0
H179 H 0.12326 0.26102 0.43604 0.0
H180 H 0.0466 0.26879 0.28974 0.0
H181 H 0.07823 0.26438 0.18362 0.0
C182 C 0.13758 0.25697 0.18802 0.0
C183 C 0.16833 0.25345 0.19984 0.0
C184 C 0.11904 0.26087 0.24852 0.0
C185 C 0.18016 0.25486 0.27262 0.0
C186 C 0.16198 0.25834 0.33222 0.0
C187 C 0.11319 0.26281 0.38141 0.0
C188 C 0.08231 0.26538 0.37193 0.0
C189 C 0.13144 0.26092 0.32091 0.0
C190 C 0.07017 0.26643 0.29953 0.0
C191 C 0.08831 0.26406 0.23854 0.0
H192 H 0.24269 0.68598 0.716 0.0
H193 H 0.30426 0.63159 0.59628 0.0
H194 H 0.29706 0.59107 0.68088 0.0
H195 H 0.27539 0.57246 0.79474 0.0
H196 H 0.2144 0.6283 0.91237 0.0
H197 H 0.21916 0.66681 0.82255 0.0
C198 C 0.25459 0.66528 0.70813 0.0
C199 C 0.27432 0.66203 0.65048 0.0
C200 C 0.25045 0.64231 0.75685 0.0
C201 C 0.28906 0.63478 0.64046 0.0
C202 C 0.28498 0.61162 0.68892 0.0
C203 C 0.26291 0.59293 0.79983 0.0
C204 C 0.24484 0.59772 0.8605 0.0
C205 C 0.26602 0.61529 0.74808 0.0
C206 C 0.22877 0.62431 0.86671 0.0
C207 C 0.23146 0.64633 0.81539 0.0
H208 H 0.87651 0.75136 0.14661 0.0
H209 H 0.82174 0.81506 0.25925 0.0
H210 H 0.85424 0.81385 0.36868 0.0
H211 H 0.89663 0.79341 0.43438 0.0
H212 H 0.95197 0.72849 0.32806 0.0
H213 H 0.92145 0.73172 0.21367 0.0
C214 C 0.872 0.76501 0.19517 0.0
C215 C 0.84699 0.78357 0.19508 0.0
C216 C 0.89086 0.76395 0.25875 0.0
C217 C 0.84112 0.80108 0.25803 0.0
C218 C 0.85961 0.80026 0.32066 0.0
C219 C 0.90205 0.7799 0.38617 0.0
C220 C 0.9262 0.76037 0.38993 0.0
C221 C 0.88431 0.78162 0.32186 0.0
C222 C 0.93341 0.7436 0.32652 0.0
C223 C 0.91584 0.74535 0.2614 0.0
H224 H 0.73145 0.39058 0.64829 0.0
H225 H 0.79821 0.3289 0.72247 0.0
H226 H 0.81483 0.36464 0.81908 0.0
H227 H 0.80579 0.41019 0.89288 0.0
H228 H 0.73807 0.47112 0.82276 0.0
H229 H 0.72698 0.43938 0.7128 0.0
C230 C 0.74986 0.38505 0.68506 0.0
C231 C 0.76313 0.35677 0.67898 0.0
C232 C 0.75921 0.40567 0.741 0.0
C233 C 0.78732 0.35028 0.72627 0.0
C234 C 0.79687 0.37073 0.78162 0.0
C235 C 0.78928 0.41693 0.85208 0.0
C236 C 0.77273 0.44285 0.86551 0.0
C237 C 0.78238 0.39806 0.79085 0.0
C238 C 0.75127 0.45142 0.81294 0.0
C239 C 0.74466 0.43304 0.75077 0.0
H240 H 0.65917 0.23488 0.33097 0.0
H241 H 0.64127 0.32891 0.35266 0.0
H242 H 0.60007 0.32355 0.26336 0.0
H243 H 0.57335 0.29344 0.16662 0.0
H244 H 0.59189 0.19995 0.14222 0.0
H245 H 0.62781 0.20354 0.24602 0.0
C246 C 0.64605 0.25414 0.31676 0.0
C247 C 0.65374 0.28233 0.3477 0.0
C248 C 0.62223 0.25094 0.26509 0.0
C249 C 0.63614 0.30695 0.32941 0.0
C250 C 0.61248 0.30394 0.27822 0.0
C251 C 0.58436 0.27369 0.18634 0.0
C252 C 0.57969 0.24638 0.14798 0.0
C253 C 0.60579 0.27621 0.24426 0.0
C254 C 0.59473 0.22104 0.1722 0.0
C255 C 0.61561 0.22321 0.23072 0.0
H256 H 0.2716 0.18099 0.80182 0.0
H257 H 0.19046 0.14181 0.86927 0.0
H258 H 0.19493 0.10182 0.77573 0.0
H259 H 0.22013 0.08016 0.66892 0.0
H260 H 0.30312 0.11762 0.60736 0.0
H261 H 0.2997 0.15601 0.70448 0.0
C262 C 0.25497 0.16362 0.79608 0.0
C263 C 0.23053 0.16455 0.84153 0.0
C264 C 0.25797 0.14042 0.74315 0.0
C265 C 0.20943 0.14161 0.83467 0.0
C266 C 0.21196 0.11877 0.78115 0.0
C267 C 0.23786 0.09622 0.67772 0.0
C268 C 0.26161 0.09616 0.62975 0.0
C269 C 0.23595 0.11816 0.73439 0.0
C270 C 0.28421 0.11746 0.64213 0.0
C271 C 0.28234 0.13943 0.69785 0.0
H272 H 0.38048 0.74131 0.37429 0.0
H273 H 0.30789 0.79033 0.27766 0.0
H274 H 0.33876 0.80536 0.17865 0.0
H275 H 0.38463 0.80101 0.11308 0.0
H276 H 0.45766 0.75179 0.20559 0.0
H277 H 0.42864 0.74069 0.31285 0.0
C278 C 0.37168 0.75574 0.3323 0.0
C279 C 0.34183 0.76441 0.33291 0.0
C280 C 0.38952 0.76399 0.27431 0.0
C281 C 0.33068 0.78304 0.27796 0.0
C282 C 0.34829 0.79164 0.22119 0.0
C283 C 0.39421 0.78794 0.15693 0.0
C284 C 0.423 0.77683 0.15109 0.0
C285 C 0.37742 0.78157 0.21768 0.0
C286 C 0.43545 0.76049 0.20891 0.0
C287 C 0.41883 0.75407 0.27002 0.0
H288 H 0.78317 0.88801 0.88417 0.0
H289 H 0.71068 0.83084 0.81011 0.0
H290 H 0.69705 0.86549 0.71428 0.0
H291 H 0.70871 0.90956 0.64372 0.0
H292 H 0.78095 0.96671 0.7169 0.0
H293 H 0.79159 0.93481 0.82146 0.0
C294 C 0.76422 0.88325 0.84751 0.0
C295 C 0.74824 0.85661 0.8538 0.0
C296 C 0.75648 0.9033 0.7924 0.0
C297 C 0.72348 0.85105 0.80644 0.0
C298 C 0.71569 0.87084 0.75142 0.0
C299 C 0.72628 0.91531 0.68385 0.0
C300 C 0.74393 0.94041 0.67361 0.0
C301 C 0.7324 0.89668 0.74291 0.0
C302 C 0.76693 0.94764 0.72474 0.0
C303 C 0.77312 0.92928 0.78394 0.0
H304 H 0.87166 0.76021 0.90009 0.0
H305 H 0.80238 0.79501 0.75864 0.0
H306 H 0.83422 0.79133 0.65388 0.0
H307 H 0.88163 0.77975 0.60296 0.0
H308 H 0.95003 0.73968 0.73818 0.0
H309 H 0.91896 0.74466 0.84496 0.0
C310 C 0.86365 0.76684 0.84617 0.0
C311 C 0.83474 0.77779 0.83702 0.0
C312 C 0.88194 0.76398 0.78517 0.0
C313 C 0.82446 0.78621 0.76692 0.0
C314 C 0.84269 0.78425 0.70698 0.0
C315 C 0.8897 0.77126 0.65499 0.0
C316 C 0.91829 0.75917 0.6616 0.0
C317 C 0.87141 0.77318 0.71544 0.0
C318 C 0.92836 0.74948 0.73101 0.0
C319 C 0.91049 0.75211 0.79224 0.0
H320 H 0.71649 0.34504 0.26281 0.0
H321 H 0.77851 0.38379 0.42371 0.0
H322 H 0.79128 0.42227 0.33741 0.0
H323 H 0.78623 0.44307 0.21337 0.0
H324 H 0.72002 0.40647 0.05872 0.0
H325 H 0.70756 0.36892 0.14531 0.0
C326 C 0.73281 0.36195 0.27877 0.0
C327 C 0.74698 0.36148 0.34852 0.0
C328 C 0.73934 0.38426 0.22993 0.0
C329 C 0.76754 0.38378 0.36977 0.0
C330 C 0.7748 0.40569 0.32052 0.0
C331 C 0.76873 0.42725 0.199 0.0
C332 C 0.75472 0.42724 0.1285 0.0
C333 C 0.761 0.40599 0.25007 0.0
C334 C 0.73201 0.40646 0.11133 0.0
C335 C 0.72464 0.38503 0.16106 0.0
H336 H 0.12411 0.25393 0.89241 0.0
H337 H 0.20091 0.27271 0.76808 0.0
H338 H 0.1699 0.27839 0.65755 0.0
H339 H 0.12268 0.27274 0.59447 0.0
H340 H 0.04368 0.26187 0.71838 0.0
H341 H 0.07421 0.25746 0.83012 0.0
C342 C 0.13389 0.25982 0.84133 0.0
C343 C 0.16484 0.26278 0.83856 0.0
C344 C 0.11573 0.26384 0.77756 0.0
C345 C 0.17721 0.27055 0.77209 0.0
C346 C 0.15948 0.27358 0.70856 0.0
C347 C 0.1113 0.2707 0.64524 0.0
C348 C 0.0802 0.26741 0.64524 0.0
C349 C 0.12881 0.26969 0.71036 0.0
C350 C 0.06732 0.26362 0.71399 0.0
C351 C 0.08486 0.26137 0.7789 0.0
H352 H 0.22701 0.65703 0.32144 0.0
H353 H 0.32189 0.66139 0.30863 0.0
H354 H 0.32084 0.62144 0.21536 0.0
H355 H 0.29287 0.58843 0.12844 0.0
H356 H 0.1984 0.58262 0.1398 0.0
H357 H 0.19934 0.61914 0.24331 0.0
C358 C 0.2474 0.64907 0.29842 0.0
C359 C 0.27442 0.66253 0.32158 0.0
C360 C 0.24677 0.62554 0.24492 0.0
C361 C 0.30073 0.65161 0.29194 0.0
C362 C 0.30022 0.62868 0.23843 0.0
C363 C 0.27266 0.59443 0.1555 0.0
C364 C 0.24569 0.58263 0.12764 0.0
C365 C 0.27339 0.6158 0.21366 0.0
C366 C 0.21948 0.59099 0.16165 0.0
C367 C 0.22 0.61221 0.22 0.0
H368 H 0.3773 0.73822 0.64493 0.0
H369 H 0.30893 0.79616 0.72602 0.0
H370 H 0.34026 0.8102 0.83325 0.0
H371 H 0.38558 0.80344 0.90886 0.0
H372 H 0.45472 0.74686 0.82814 0.0
H373 H 0.42474 0.73502 0.71576 0.0
C374 C 0.36936 0.75415 0.68565 0.0
C375 C 0.34059 0.76582 0.6775 0.0
C376 C 0.38757 0.76225 0.74754 0.0
C377 C 0.33086 0.78669 0.73063 0.0
C378 C 0.34874 0.79469 0.79231 0.0
C379 C 0.39411 0.78868 0.8663 0.0
C380 C 0.4221 0.77575 0.87682 0.0
C381 C 0.37686 0.78217 0.80205 0.0
C382 C 0.43319 0.75703 0.82105 0.0
C383 C 0.41601 0.75019 0.75707 0.0
H384 H 0.80759 0.86474 0.24564 0.0
H385 H 0.72526 0.87801 0.12595 0.0
H386 H 0.71119 0.91641 0.21729 0.0
H387 H 0.72042 0.94214 0.33831 0.0
H388 H 0.80308 0.92815 0.45731 0.0
H389 H 0.81899 0.89407 0.35943 0.0
C390 C 0.78671 0.87626 0.23953 0.0
C391 C 0.76731 0.8686 0.18011 0.0
C392 C 0.7788 0.89797 0.29239 0.0
C393 C 0.74048 0.88381 0.17153 0.0
C394 C 0.73243 0.90558 0.22386 0.0
C395 C 0.74217 0.93217 0.34195 0.0
C396 C 0.76037 0.93738 0.40553 0.0
C397 C 0.75113 0.91235 0.28552 0.0
C398 C 0.78844 0.92411 0.40957 0.0
C399 C 0.79759 0.90464 0.35361 0.0
H400 H 0.68757 0.24943 0.73574 0.0
H401 H 0.63245 0.31284 0.62294 0.0
H402 H 0.59344 0.30537 0.70944 0.0
H403 H 0.57586 0.28277 0.82075 0.0
H404 H 0.63001 0.21772 0.93056 0.0
H405 H 0.66848 0.22412 0.84199 0.0
C406 C 0.66701 0.26158 0.73003 0.0
C407 C 0.66311 0.28185 0.6733 0.0
C408 C 0.64449 0.25702 0.77966 0.0
C409 C 0.63613 0.29711 0.66611 0.0
C410 C 0.61377 0.29291 0.71567 0.0
C411 C 0.59581 0.26955 0.82463 0.0
C412 C 0.60005 0.25001 0.88289 0.0
C413 C 0.6178 0.27311 0.77304 0.0
C414 C 0.62632 0.23338 0.88727 0.0
C415 C 0.64832 0.23691 0.8364 0.0
H416 H 0.28506 0.1693 0.20078 0.0
H417 H 0.19738 0.14003 0.13046 0.0
H418 H 0.20115 0.09839 0.21197 0.0
H419 H 0.22636 0.0742 0.31549 0.0
H420 H 0.3133 0.10379 0.38899 0.0
H421 H 0.31307 0.14072 0.29328 0.0
C422 C 0.26694 0.15359 0.2025 0.0
C423 C 0.24075 0.15832 0.16048 0.0
C424 C 0.26908 0.12961 0.25029 0.0
C425 C 0.21765 0.13741 0.16296 0.0
C426 C 0.21976 0.11344 0.20958 0.0
C427 C 0.24566 0.08801 0.30881 0.0
C428 C 0.26976 0.08633 0.3593 0.0
C429 C 0.24498 0.10982 0.25515 0.0
C430 C 0.29446 0.10472 0.35072 0.0
C431 C 0.29422 0.12602 0.29644 0.0
H432 H 0.27073 0.33825 0.9414 0.0
H433 H 0.22283 0.33348 0.14157 0.0
H434 H 0.21613 0.38731 0.14418 0.0
H435 H 0.22045 0.43566 0.08412 0.0
H436 H 0.26848 0.44031 0.8848 0.0
H437 H 0.2788 0.38694 0.88761 0.0
C438 C 0.25906 0.34898 0.98601 0.0
C439 C 0.24716 0.33165 0.0409 0.0
C440 C 0.25529 0.38007 0.98732 0.0
C441 C 0.23228 0.34612 0.09853 0.0
C442 C 0.22833 0.37698 0.10001 0.0
C443 C 0.2337 0.42498 0.04237 0.0
C444 C 0.24396 0.44171 0.98465 0.0
C445 C 0.2393 0.39417 0.04408 0.0
C446 C 0.2607 0.42777 0.93013 0.0
C447 C 0.26641 0.39724 0.93148 0.0
H448 H 0.16841 0.75569 0.40426 0.0
H449 H 0.18005 0.7044 0.59967 0.0
H450 H 0.1269 0.7051 0.6164 0.0
H451 H 0.0778 0.72492 0.58367 0.0
H452 H 0.06604 0.77824 0.39276 0.0
H453 H 0.1184 0.77185 0.36532 0.0
C454 C 0.15931 0.74424 0.44984 0.0
C455 C 0.17835 0.73027 0.50106 0.0
C456 C 0.12866 0.7452 0.46001 0.0
C457 C 0.16604 0.71557 0.55978 0.0
C458 C 0.1356 0.71596 0.56947 0.0
C459 C 0.08666 0.73446 0.53505 0.0
C460 C 0.06836 0.75171 0.48968 0.0
C461 C 0.11681 0.73135 0.52111 0.0
C462 C 0.07986 0.76454 0.42767 0.0
C463 C 0.10979 0.76107 0.41245 0.0
H464 H 0.78216 0.68448 0.92593 0.0
H465 H 0.74526 0.69408 0.14128 0.0
H466 H 0.74672 0.64057 0.1542 0.0
H467 H 0.7606 0.59103 0.10818 0.0
H468 H 0.79899 0.58009 0.89602 0.0
H469 H 0.79458 0.63388 0.87746 0.0
C470 C 0.77427 0.67484 0.97544 0.0
C471 C 0.76374 0.69351 0.03262 0.0
C472 C 0.77538 0.64373 0.98305 0.0
C473 C 0.75368 0.68049 0.09645 0.0
C474 C 0.75443 0.64978 0.104 0.0
C475 C 0.76756 0.60047 0.05743 0.0
C476 C 0.77978 0.58193 0.00316 0.0
C477 C 0.76548 0.63124 0.04815 0.0
C478 C 0.78919 0.59414 0.93805 0.0
C479 C 0.78682 0.62484 0.92778 0.0
H480 H 0.83479 0.25739 0.59447 0.0
H481 H 0.82731 0.28406 0.36866 0.0
H482 H 0.88039 0.27759 0.35664 0.0
H483 H 0.92887 0.2619 0.40817 0.0
H484 H 0.93647 0.23498 0.63299 0.0
H485 H 0.88359 0.24416 0.64781 0.0
C486 C 0.84473 0.2619 0.54263 0.0
C487 C 0.82684 0.27096 0.48239 0.0
C488 C 0.87539 0.25811 0.53598 0.0
C489 C 0.84034 0.27692 0.41593 0.0
C490 C 0.87077 0.27322 0.40892 0.0
C491 C 0.9189 0.25849 0.4606 0.0
C492 C 0.9363 0.24801 0.51966 0.0
C493 C 0.88848 0.26353 0.46826 0.0
C494 C 0.92336 0.24329 0.58713 0.0
C495 C 0.89315 0.2484 0.59539 0.0
H496 H 0.72716 0.18521 0.61393 0.0
H497 H 0.73402 0.18799 0.37795 0.0
H498 H 0.72884 0.13417 0.3672 0.0
H499 H 0.7216 0.086 0.42391 0.0
H500 H 0.71465 0.08235 0.65885 0.0
H501 H 0.72085 0.13659 0.6712 0.0
C502 C 0.72748 0.17405 0.56017 0.0
C503 C 0.73098 0.1908 0.4969 0.0
C504 C 0.72465 0.14284 0.55422 0.0
C505 C 0.73146 0.17582 0.42772 0.0
C506 C 0.7285 0.14495 0.42137 0.0
C507 C 0.72176 0.09718 0.47776 0.0
C508 C 0.71795 0.08053 0.54048 0.0
C509 C 0.72509 0.12823 0.48411 0.0
C510 C 0.71784 0.09495 0.61001 0.0
C511 C 0.72123 0.1259 0.61693 0.0
H512 H 0.34122 0.25758 0.10279 0.0
H513 H 0.32567 0.20832 0.89699 0.0
H514 H 0.37867 0.20472 0.88063 0.0
H515 H 0.42943 0.21841 0.91967 0.0
H516 H 0.4459 0.26926 0.12172 0.0
H517 H 0.39275 0.26916 0.14531 0.0
C518 C 0.34943 0.24581 0.05474 0.0
C519 C 0.3293 0.23344 0.00094 0.0
C520 C 0.38016 0.24411 0.04504 0.0
C521 C 0.34048 0.2183 0.93899 0.0
C522 C 0.37086 0.21617 0.92956 0.0
C523 C 0.42134 0.22897 0.96955 0.0
C524 C 0.44131 0.24351 0.01943 0.0
C525 C 0.39086 0.22936 0.98151 0.0
C526 C 0.43079 0.25761 0.08319 0.0
C527 C 0.40043 0.2577 0.09627 0.0
H528 H 0.26966 0.84013 0.39188 0.0
H529 H 0.23265 0.82978 0.60535 0.0
H530 H 0.22686 0.88318 0.61984 0.0
H531 H 0.23146 0.93314 0.57282 0.0
H532 H 0.26758 0.94531 0.36031 0.0
H533 H 0.27471 0.89121 0.3446 0.0
C534 C 0.26026 0.84956 0.44141 0.0
C535 C 0.25152 0.83064 0.49719 0.0
C536 C 0.25694 0.88074 0.44984 0.0
C537 C 0.23954 0.84348 0.5612 0.0
C538 C 0.23621 0.87417 0.56981 0.0
C539 C 0.2411 0.92388 0.52331 0.0
C540 C 0.24921 0.94289 0.46802 0.0
C541 C 0.24479 0.89299 0.51468 0.0
C542 C 0.26141 0.93089 0.40377 0.0
C543 C 0.26536 0.90001 0.3948 0.0
H544 H 0.66618 0.76492 0.9518 0.0
H545 H 0.68221 0.81165 0.16091 0.0
H546 H 0.6294 0.82005 0.17152 0.0
H547 H 0.57862 0.81606 0.11933 0.0
H548 H 0.56217 0.77028 0.91013 0.0
H549 H 0.61508 0.75934 0.90166 0.0
C550 C 0.65814 0.7768 0.99991 0.0
C551 C 0.67829 0.78763 0.05541 0.0
C552 C 0.62762 0.7817 0.00565 0.0
C553 C 0.66734 0.80299 0.11733 0.0
C554 C 0.63708 0.80786 0.1235 0.0
C555 C 0.58672 0.80339 0.07243 0.0
C556 C 0.56688 0.79375 0.01561 0.0
C557 C 0.61706 0.79755 0.0678 0.0
C558 C 0.57729 0.77764 0.95462 0.0
C559 C 0.60747 0.77154 0.94973 0.0
loop_
_geom_bond_atom_site_label_1
_geom_bond_atom_site_label_2
_geom_bond_distance
_geom_bond_site_symmetry_2
_ccdc_geom_bond_type
Fe0 O2 1.918 . S
Fe0 O5 1.997 . S
Fe0 O6 2.002 . S
Fe0 O11 1.976 . S
Fe0 O14 1.996 . S
Fe1 O2 1.918 1_556 S
Fe1 O9 1.997 . S
Fe1 O12 1.996 . S
Fe1 O16 1.976 . S
Fe1 O19 2.002 . S
O2 Fe0 1.918 . S
O2 Fe1 1.918 1_554 S
O2 Fe3 1.918 1_554 S
Fe3 O2 1.918 1_556 S
Fe3 O4 1.992 1_556 S
Fe3 O13 1.965 1_556 S
Fe3 O17 2.006 . S
Fe3 O20 2.007 . S
O4 Fe3 1.992 1_554 S
O4 C21 1.295 . S
O5 Fe0 1.997 . S
O5 C21 1.235 . S
O6 Fe0 2.002 . S
O6 C7 1.295 . S
C7 O6 1.295 . S
C7 O9 1.235 1_554 S
C8 O13 1.287 . S
C8 O14 1.255 . S
O9 Fe1 1.997 . S
O9 C7 1.235 1_556 S
C10 O16 1.287 . S
C10 O17 1.255 . S
O11 Fe0 1.976 . S
O11 C18 1.287 . S
O12 Fe1 1.996 . S
O12 C18 1.255 1_556 S
O13 Fe3 1.965 1_554 S
O13 C8 1.287 . S
O14 Fe0 1.996 . S
O14 C8 1.255 . S
C15 O19 1.295 . S
C15 O20 1.235 . S
O16 Fe1 1.976 . S
O16 C10 1.287 . S
O17 Fe3 2.006 . S
O17 C10 1.255 . S
C18 O11 1.287 . S
C18 O12 1.255 1_554 S
O19 Fe1 2.002 . S
O19 C15 1.295 . S
O20 Fe3 2.007 . S
O20 C15 1.235 . S
C21 O4 1.295 . S
C21 O5 1.235 . S
Fe22 O24 1.918 . S
Fe22 O27 1.997 . S
Fe22 O28 2.002 . S
Fe22 O33 1.976 . S
Fe22 O36 1.996 . S
Fe23 O24 1.918 . S
Fe23 O31 1.997 . S
Fe23 O34 1.996 . S
Fe23 O38 1.976 . S
Fe23 O41 2.002 . S
O24 Fe22 1.918 . S
O24 Fe23 1.918 . S
O24 Fe25 1.918 . S
Fe25 O24 1.918 . S
Fe25 O26 2.002 . S
Fe25 O35 1.976 . S
Fe25 O39 1.996 . S
Fe25 O42 1.997 . S
O26 Fe25 2.002 . S
O26 C43 1.295 . S
O27 Fe22 1.997 . S
O27 C43 1.235 . S
O28 Fe22 2.002 . S
O28 C29 1.295 . S
C29 O28 1.295 . S
C29 O31 1.235 . S
C30 O35 1.287 . S
C30 O36 1.255 . S
O31 Fe23 1.997 . S
O31 C29 1.235 . S
C32 O38 1.287 . S
C32 O39 1.255 . S
O33 Fe22 1.976 . S
O33 C40 1.287 . S
O34 Fe23 1.996 . S
O34 C40 1.255 . S
O35 Fe25 1.976 . S
O35 C30 1.287 . S
O36 Fe22 1.996 . S
O36 C30 1.255 . S
C37 O41 1.295 . S
C37 O42 1.235 . S
O38 Fe23 1.976 . S
O38 C32 1.287 . S
O39 Fe25 1.996 . S
O39 C32 1.255 . S
C40 O33 1.287 . S
C40 O34 1.255 . S
O41 Fe23 2.002 . S
O41 C37 1.295 . S
O42 Fe25 1.997 . S
O42 C37 1.235 . S
C43 O26 1.295 . S
C43 O27 1.235 . S
Fe44 O46 1.918 1_556 S
Fe44 O49 1.997 . S
Fe44 O50 2.002 . S
Fe44 O55 1.976 . S
Fe44 O58 1.996 . S
Fe45 O46 1.918 . S
Fe45 O53 1.997 . S
Fe45 O56 1.996 . S
Fe45 O60 1.976 . S
Fe45 O63 2.002 . S
O46 Fe44 1.918 1_554 S
O46 Fe45 1.918 . S
O46 Fe47 1.918 . S
Fe47 O46 1.918 . S
Fe47 O48 2.002 1_554 S
Fe47 O57 1.976 1_554 S
Fe47 O61 1.996 . S
Fe47 O64 1.997 . S
O48 Fe47 2.002 1_556 S
O48 C65 1.295 . S
O49 Fe44 1.997 . S
O49 C65 1.235 . S
O50 Fe44 2.002 . S
O50 C51 1.295 1_556 S
C51 O50 1.295 1_554 S
C51 O53 1.235 . S
C52 O57 1.287 . S
C52 O58 1.255 . S
O53 Fe45 1.997 . S
O53 C51 1.235 . S
C54 O60 1.287 . S
C54 O61 1.255 . S
O55 Fe44 1.976 . S
O55 C62 1.287 1_556 S
O56 Fe45 1.996 . S
O56 C62 1.255 . S
O57 Fe47 1.976 1_556 S
O57 C52 1.287 . S
O58 Fe44 1.996 . S
O58 C52 1.255 . S
C59 O63 1.295 . S
C59 O64 1.235 . S
O60 Fe45 1.976 . S
O60 C54 1.287 . S
O61 Fe47 1.996 . S
O61 C54 1.255 . S
C62 O55 1.287 1_554 S
C62 O56 1.255 . S
O63 Fe45 2.002 . S
O63 C59 1.295 . S
O64 Fe47 1.997 . S
O64 C59 1.235 . S
C65 O48 1.295 . S
C65 O49 1.235 . S
Fe66 O68 1.918 . S
Fe66 O71 1.997 . S
Fe66 O72 2.002 . S
Fe66 O77 1.976 . S
Fe66 O80 1.996 . S
Fe67 O68 1.918 . S
Fe67 O75 1.997 . S
Fe67 O78 1.996 . S
Fe67 O82 1.976 . S
Fe67 O85 2.002 . S
O68 Fe66 1.918 . S
O68 Fe67 1.918 . S
O68 Fe69 1.918 . S
Fe69 O68 1.918 . S
Fe69 O70 2.002 . S
Fe69 O79 1.976 . S
Fe69 O83 1.996 . S
Fe69 O86 1.997 . S
O70 Fe69 2.002 . S
O70 C87 1.295 . S
O71 Fe66 1.997 . S
O71 C87 1.235 . S
O72 Fe66 2.002 . S
O72 C73 1.295 . S
C73 O72 1.295 . S
C73 O75 1.235 . S
C74 O79 1.287 . S
C74 O80 1.255 . S
O75 Fe67 1.997 . S
O75 C73 1.235 . S
C76 O82 1.287 . S
C76 O83 1.255 . S
O77 Fe66 1.976 . S
O77 C84 1.287 . S
O78 Fe67 1.996 . S
O78 C84 1.255 . S
O79 Fe69 1.976 . S
O79 C74 1.287 . S
O80 Fe66 1.996 . S
O80 C74 1.255 . S
C81 O85 1.295 . S
C81 O86 1.235 . S
O82 Fe67 1.976 . S
O82 C76 1.287 . S
O83 Fe69 1.996 . S
O83 C76 1.255 . S
C84 O77 1.287 . S
C84 O78 1.255 . S
O85 Fe67 2.002 . S
O85 C81 1.295 . S
O86 Fe69 1.997 . S
O86 C81 1.235 . S
C87 O70 1.295 . S
C87 O71 1.235 . S
H88 C91 0.929 1_554 S
H89 C94 0.929 . S
H90 C96 0.930 . S
C91 H88 0.929 1_556 S
C91 C92 1.406 . S
C91 C93 1.389 1_556 S
C92 C91 1.406 . S
C92 C96 1.407 . S
C93 C91 1.389 1_554 S
C93 C94 1.394 . S
C94 H89 0.929 . S
C94 C93 1.394 . S
C94 C95 1.382 1_554 S
C95 C94 1.382 1_556 S
C95 C96 1.392 . S
C95 N97 1.420 . S
C96 H90 0.930 . S
C96 C92 1.407 . S
C96 C95 1.392 . S
N97 C95 1.420 . S
N97 C98 1.244 1_556 S
C98 N97 1.244 1_554 S
H99 C102 0.929 . S
H100 C105 0.936 . S
H101 C107 0.930 . S
C102 H99 0.929 . S
C102 C103 1.398 . S
C102 C104 1.396 . S
C103 C102 1.398 . S
C103 C107 1.407 . S
C104 C102 1.396 . S
C104 C105 1.394 . S
C105 H100 0.936 . S
C105 C104 1.394 . S
C105 C106 1.382 1_655 S
C106 C105 1.382 1_455 S
C106 C107 1.392 1_455 S
C106 N108 1.420 . S
C107 H101 0.930 . S
C107 C103 1.407 . S
C107 C106 1.392 1_655 S
N108 C106 1.420 . S
N108 C109 1.244 . S
C109 N108 1.244 . S
H110 C113 0.929 . S
H111 C116 0.929 . S
H112 C118 0.930 . S
C113 H110 0.929 . S
C113 C114 1.398 . S
C113 C115 1.396 1_554 S
C114 C113 1.398 . S
C114 C118 1.407 . S
C115 C113 1.396 1_556 S
C115 C116 1.394 . S
C116 H111 0.929 . S
C116 C115 1.394 . S
C116 C117 1.382 1_556 S
C117 C116 1.382 1_554 S
C117 C118 1.392 . S
C117 N119 1.420 . S
C118 H112 0.930 . S
C118 C114 1.407 . S
C118 C117 1.392 . S
N119 C117 1.420 . S
N119 C120 1.244 . S
C120 N119 1.244 . S
H121 C124 0.929 . S
H122 C127 0.929 . S
H123 C129 0.930 . S
C124 H121 0.929 . S
C124 C125 1.398 . S
C124 C126 1.396 . S
C125 C124 1.398 . S
C125 C129 1.407 . S
C126 C124 1.396 . S
C126 C127 1.394 . S
C127 H122 0.929 . S
C127 C126 1.394 . S
C127 C128 1.373 1_455 S
C128 C127 1.373 1_655 S
C128 C129 1.378 1_655 S
C128 N130 1.442 . S
C129 H123 0.930 . S
C129 C125 1.407 . S
C129 C128 1.378 1_455 S
N130 C128 1.442 . S
N130 C131 1.244 . S
C131 N130 1.244 . S
H132 C135 0.929 . S
H133 C138 0.929 1_545 S
H134 C140 0.930 . S
C135 H132 0.929 . S
C135 C136 1.398 . S
C135 C137 1.396 . S
C136 C135 1.398 . S
C136 C140 1.407 . S
C137 C135 1.396 . S
C137 C138 1.394 . S
C138 H133 0.929 1_565 S
C138 C137 1.394 . S
C138 C139 1.382 1_565 S
C139 C138 1.382 1_545 S
C139 C140 1.392 1_545 S
C139 N141 1.420 . S
C140 H134 0.930 . S
C140 C136 1.407 . S
C140 C139 1.392 1_565 S
N141 C139 1.420 . S
N141 C142 1.244 . S
C142 N141 1.244 . S
H143 C146 0.929 . S
H144 C149 0.929 . S
H145 C151 0.930 . S
C146 H143 0.929 . S
C146 C147 1.398 1_554 S
C146 C148 1.396 . S
C147 C146 1.398 1_556 S
C147 C151 1.407 . S
C148 C146 1.396 . S
C148 C149 1.394 . S
C149 H144 0.929 . S
C149 C148 1.394 . S
C149 C150 1.382 1_554 S
C150 C149 1.382 1_556 S
C150 C151 1.392 . S
C150 N152 1.420 . S
C151 H145 0.930 . S
C151 C147 1.407 . S
C151 C150 1.392 . S
N152 C150 1.420 . S
N152 C153 1.244 1_556 S
C153 N152 1.244 1_554 S
H154 C157 0.929 . S
H155 C160 0.928 1_565 S
H156 C162 0.930 . S
C157 H154 0.929 . S
C157 C158 1.398 . S
C157 C159 1.396 . S
C158 C157 1.398 . S
C158 C162 1.407 . S
C159 C157 1.396 . S
C159 C160 1.394 . S
C160 H155 0.928 1_545 S
C160 C159 1.394 . S
C160 C161 1.382 1_545 S
C161 C160 1.382 1_565 S
C161 C162 1.392 1_565 S
C161 N163 1.420 . S
C162 H156 0.930 . S
C162 C158 1.407 . S
C162 C161 1.392 1_545 S
N163 C161 1.420 . S
N163 C164 1.244 . S
C164 N163 1.244 . S
H165 C168 0.929 . S
H166 C171 0.929 . S
H167 C173 0.930 . S
C168 H165 0.929 . S
C168 C169 1.398 . S
C168 C170 1.396 1_554 S
C169 C168 1.398 . S
C169 C173 1.407 . S
C170 C168 1.396 1_556 S
C170 C171 1.394 . S
C171 H166 0.929 . S
C171 C170 1.394 . S
C171 C172 1.382 1_556 S
C172 C171 1.382 1_554 S
C172 C173 1.392 . S
C172 N174 1.420 . S
C173 H167 0.930 . S
C173 C169 1.407 . S
C173 C172 1.392 . S
N174 C172 1.420 . S
N174 C175 1.246 . S
C175 N174 1.246 . S
H176 C182 0.930 . S
H177 C185 0.930 . S
H178 C186 0.930 . S
H179 C187 0.930 . S
H180 C190 0.930 . S
H181 C191 0.930 . S
C182 H176 0.930 . S
C182 C183 1.355 . S
C182 C184 1.415 . S
C183 C182 1.355 . S
C183 C185 1.419 . S
C184 C182 1.415 . S
C184 C189 1.425 . S
C184 C191 1.409 . S
C185 H177 0.930 . S
C185 C183 1.419 . S
C185 C186 1.362 . S
C186 H178 0.930 . S
C186 C185 1.362 . S
C186 C189 1.409 . S
C187 H179 0.930 . S
C187 C188 1.355 . S
C187 C189 1.415 . S
C188 C187 1.355 . S
C188 C190 1.419 . S
C189 C184 1.425 . S
C189 C186 1.409 . S
C189 C187 1.415 . S
C190 H180 0.930 . S
C190 C188 1.419 . S
C190 C191 1.362 . S
C191 H181 0.930 . S
C191 C184 1.409 . S
C191 C190 1.362 . S
H192 C198 0.930 . S
H193 C201 0.930 . S
H194 C202 0.930 . S
H195 C203 0.930 . S
H196 C206 0.930 . S
H197 C207 0.930 . S
C198 H192 0.930 . S
C198 C199 1.355 . S
C198 C200 1.415 . S
C199 C198 1.355 . S
C199 C201 1.419 . S
C200 C198 1.415 . S
C200 C205 1.425 . S
C200 C207 1.409 . S
C201 H193 0.930 . S
C201 C199 1.419 . S
C201 C202 1.362 . S
C202 H194 0.930 . S
C202 C201 1.362 . S
C202 C205 1.409 . S
C203 H195 0.930 . S
C203 C204 1.355 . S
C203 C205 1.415 . S
C204 C203 1.355 . S
C204 C206 1.419 . S
C205 C200 1.425 . S
C205 C202 1.409 . S
C205 C203 1.415 . S
C206 H196 0.930 . S
C206 C204 1.419 . S
C206 C207 1.362 . S
C207 H197 0.930 . S
C207 C200 1.409 . S
C207 C206 1.362 . S
H208 C214 0.930 . S
H209 C217 0.930 . S
H210 C218 0.930 . S
H211 C219 0.930 . S
H212 C222 0.930 . S
H213 C223 0.930 . S
C214 H208 0.930 . S
C214 C215 1.355 . S
C214 C216 1.415 . S
C215 C214 1.355 . S
C215 C217 1.419 . S
C216 C214 1.415 . S
C216 C221 1.425 . S
C216 C223 1.409 . S
C217 H209 0.930 . S
C217 C215 1.419 . S
C217 C218 1.362 . S
C218 H210 0.930 . S
C218 C217 1.362 . S
C218 C221 1.409 . S
C219 H211 0.930 . S
C219 C220 1.355 . S
C219 C221 1.415 . S
C220 C219 1.355 . S
C220 C222 1.419 . S
C221 C216 1.425 . S
C221 C218 1.409 . S
C221 C219 1.415 . S
C222 H212 0.930 . S
C222 C220 1.419 . S
C222 C223 1.362 . S
C223 H213 0.930 . S
C223 C216 1.409 . S
C223 C222 1.362 . S
H224 C230 0.930 . S
H225 C233 0.930 . S
H226 C234 0.930 . S
H227 C235 0.930 . S
H228 C238 0.930 . S
H229 C239 0.930 . S
C230 H224 0.930 . S
C230 C231 1.355 . S
C230 C232 1.415 . S
C231 C230 1.355 . S
C231 C233 1.419 . S
C232 C230 1.415 . S
C232 C237 1.425 . S
C232 C239 1.409 . S
C233 H225 0.930 . S
C233 C231 1.419 . S
C233 C234 1.362 . S
C234 H226 0.930 . S
C234 C233 1.362 . S
C234 C237 1.409 . S
C235 H227 0.930 . S
C235 C236 1.355 . S
C235 C237 1.415 . S
C236 C235 1.355 . S
C236 C238 1.419 . S
C237 C232 1.425 . S
C237 C234 1.409 . S
C237 C235 1.415 . S
C238 H228 0.930 . S
C238 C236 1.419 . S
C238 C239 1.362 . S
C239 H229 0.930 . S
C239 C232 1.409 . S
C239 C238 1.362 . S
H240 C246 0.930 . S
H241 C249 0.930 . S
H242 C250 0.930 . S
H243 C251 0.930 . S
H244 C254 0.930 . S
H245 C255 0.930 . S
C246 H240 0.930 . S
C246 C247 1.355 . S
C246 C248 1.415 . S
C247 C246 1.355 . S
C247 C249 1.419 . S
C248 C246 1.415 . S
C248 C253 1.425 . S
C248 C255 1.409 . S
C249 H241 0.930 . S
C249 C247 1.419 . S
C249 C250 1.362 . S
C250 H242 0.930 . S
C250 C249 1.362 . S
C250 C253 1.409 . S
C251 H243 0.930 . S
C251 C252 1.355 . S
C251 C253 1.415 . S
C252 C251 1.355 . S
C252 C254 1.419 . S
C253 C248 1.425 . S
C253 C250 1.409 . S
C253 C251 1.415 . S
C254 H244 0.930 . S
C254 C252 1.419 . S
C254 C255 1.362 . S
C255 H245 0.930 . S
C255 C248 1.409 . S
C255 C254 1.362 . S
H256 C262 0.930 . S
H257 C265 0.930 . S
H258 C266 0.930 . S
H259 C267 0.930 . S
H260 C270 0.930 . S
H261 C271 0.930 . S
C262 H256 0.930 . S
C262 C263 1.355 . S
C262 C264 1.415 . S
C263 C262 1.355 . S
C263 C265 1.419 . S
C264 C262 1.415 . S
C264 C269 1.425 . S
C264 C271 1.409 . S
C265 H257 0.930 . S
C265 C263 1.419 . S
C265 C266 1.362 . S
C266 H258 0.930 . S
C266 C265 1.362 . S
C266 C269 1.409 . S
C267 H259 0.930 . S
C267 C268 1.355 . S
C267 C269 1.415 . S
C268 C267 1.355 . S
C268 C270 1.419 . S
C269 C264 1.425 . S
C269 C266 1.409 . S
C269 C267 1.415 . S
C270 H260 0.930 . S
C270 C268 1.419 . S
C270 C271 1.362 . S
C271 H261 0.930 . S
C271 C264 1.409 . S
C271 C270 1.362 . S
H272 C278 0.930 . S
H273 C281 0.930 . S
H274 C282 0.930 . S
H275 C283 0.930 . S
H276 C286 0.930 . S
H277 C287 0.930 . S
C278 H272 0.930 . S
C278 C279 1.355 . S
C278 C280 1.415 . S
C279 C278 1.355 . S
C279 C281 1.419 . S
C280 C278 1.415 . S
C280 C285 1.425 . S
C280 C287 1.409 . S
C281 H273 0.930 . S
C281 C279 1.419 . S
C281 C282 1.362 . S
C282 H274 0.930 . S
C282 C281 1.362 . S
C282 C285 1.409 . S
C283 H275 0.930 . S
C283 C284 1.355 . S
C283 C285 1.415 . S
C284 C283 1.355 . S
C284 C286 1.419 . S
C285 C280 1.425 . S
C285 C282 1.409 . S
C285 C283 1.415 . S
C286 H276 0.930 . S
C286 C284 1.419 . S
C286 C287 1.362 . S
C287 H277 0.930 . S
C287 C280 1.409 . S
C287 C286 1.362 . S
H288 C294 0.930 . S
H289 C297 0.930 . S
H290 C298 0.930 . S
H291 C299 0.930 . S
H292 C302 0.930 . S
H293 C303 0.930 . S
C294 H288 0.930 . S
C294 C295 1.355 . S
C294 C296 1.415 . S
C295 C294 1.355 . S
C295 C297 1.419 . S
C296 C294 1.415 . S
C296 C301 1.425 . S
C296 C303 1.409 . S
C297 H289 0.930 . S
C297 C295 1.419 . S
C297 C298 1.362 . S
C298 H290 0.930 . S
C298 C297 1.362 . S
C298 C301 1.409 . S
C299 H291 0.930 . S
C299 C300 1.355 . S
C299 C301 1.415 . S
C300 C299 1.355 . S
C300 C302 1.419 . S
C301 C296 1.425 . S
C301 C298 1.409 . S
C301 C299 1.415 . S
C302 H292 0.930 . S
C302 C300 1.419 . S
C302 C303 1.362 . S
C303 H293 0.930 . S
C303 C296 1.409 . S
C303 C302 1.362 . S
H304 C310 0.930 . S
H305 C313 0.930 . S
H306 C314 0.930 . S
H307 C315 0.930 . S
H308 C318 0.930 . S
H309 C319 0.930 . S
C310 H304 0.930 . S
C310 C311 1.355 . S
C310 C312 1.415 . S
C311 C310 1.355 . S
C311 C313 1.419 . S
C312 C310 1.415 . S
C312 C317 1.425 . S
C312 C319 1.409 . S
C313 H305 0.930 . S
C313 C311 1.419 . S
C313 C314 1.362 . S
C314 H306 0.930 . S
C314 C313 1.362 . S
C314 C317 1.409 . S
C315 H307 0.930 . S
C315 C316 1.355 . S
C315 C317 1.415 . S
C316 C315 1.355 . S
C316 C318 1.419 . S
C317 C312 1.425 . S
C317 C314 1.409 . S
C317 C315 1.415 . S
C318 H308 0.930 . S
C318 C316 1.419 . S
C318 C319 1.362 . S
C319 H309 0.930 . S
C319 C312 1.409 . S
C319 C318 1.362 . S
H320 C326 0.930 . S
H321 C329 0.930 . S
H322 C330 0.930 . S
H323 C331 0.930 . S
H324 C334 0.930 . S
H325 C335 0.930 . S
C326 H320 0.930 . S
C326 C327 1.355 . S
C326 C328 1.415 . S
C327 C326 1.355 . S
C327 C329 1.419 . S
C328 C326 1.415 . S
C328 C333 1.425 . S
C328 C335 1.409 . S
C329 H321 0.930 . S
C329 C327 1.419 . S
C329 C330 1.362 . S
C330 H322 0.930 . S
C330 C329 1.362 . S
C330 C333 1.409 . S
C331 H323 0.930 . S
C331 C332 1.355 . S
C331 C333 1.415 . S
C332 C331 1.355 . S
C332 C334 1.419 . S
C333 C328 1.425 . S
C333 C330 1.409 . S
C333 C331 1.415 . S
C334 H324 0.930 . S
C334 C332 1.419 . S
C334 C335 1.362 . S
C335 H325 0.930 . S
C335 C328 1.409 . S
C335 C334 1.362 . S
H336 C342 0.930 . S
H337 C345 0.930 . S
H338 C346 0.930 . S
H339 C347 0.930 . S
H340 C350 0.930 . S
H341 C351 0.930 . S
C342 H336 0.930 . S
C342 C343 1.355 . S
C342 C344 1.415 . S
C343 C342 1.355 . S
C343 C345 1.419 . S
C344 C342 1.415 . S
C344 C349 1.425 . S
C344 C351 1.409 . S
C345 H337 0.930 . S
C345 C343 1.419 . S
C345 C346 1.362 . S
C346 H338 0.930 . S
C346 C345 1.362 . S
C346 C349 1.409 . S
C347 H339 0.930 . S
C347 C348 1.355 . S
C347 C349 1.415 . S
C348 C347 1.355 . S
C348 C350 1.419 . S
C349 C344 1.425 . S
C349 C346 1.409 . S
C349 C347 1.415 . S
C350 H340 0.930 . S
C350 C348 1.419 . S
C350 C351 1.362 . S
C351 H341 0.930 . S
C351 C344 1.409 . S
C351 C350 1.362 . S
H352 C358 0.930 . S
H353 C361 0.930 . S
H354 C362 0.930 . S
H355 C363 0.930 . S
H356 C366 0.930 . S
H357 C367 0.930 . S
C358 H352 0.930 . S
C358 C359 1.355 . S
C358 C360 1.415 . S
C359 C358 1.355 . S
C359 C361 1.419 . S
C360 C358 1.415 . S
C360 C365 1.425 . S
C360 C367 1.409 . S
C361 H353 0.930 . S
C361 C359 1.419 . S
C361 C362 1.362 . S
C362 H354 0.930 . S
C362 C361 1.362 . S
C362 C365 1.409 . S
C363 H355 0.930 . S
C363 C364 1.355 . S
C363 C365 1.415 . S
C364 C363 1.355 . S
C364 C366 1.419 . S
C365 C360 1.425 . S
C365 C362 1.409 . S
C365 C363 1.415 . S
C366 H356 0.930 . S
C366 C364 1.419 . S
C366 C367 1.362 . S
C367 H357 0.930 . S
C367 C360 1.409 . S
C367 C366 1.362 . S
H368 C374 0.930 . S
H369 C377 0.930 . S
H370 C378 0.930 . S
H371 C379 0.930 . S
H372 C382 0.930 . S
H373 C383 0.930 . S
C374 H368 0.930 . S
C374 C375 1.355 . S
C374 C376 1.415 . S
C375 C374 1.355 . S
C375 C377 1.419 . S
C376 C374 1.415 . S
C376 C381 1.425 . S
C376 C383 1.409 . S
C377 H369 0.930 . S
C377 C375 1.419 . S
C377 C378 1.362 . S
C378 H370 0.930 . S
C378 C377 1.362 . S
C378 C381 1.409 . S
C379 H371 0.930 . S
C379 C380 1.355 . S
C379 C381 1.415 . S
C380 C379 1.355 . S
C380 C382 1.419 . S
C381 C376 1.425 . S
C381 C378 1.409 . S
C381 C379 1.415 . S
C382 H372 0.930 . S
C382 C380 1.419 . S
C382 C383 1.362 . S
C383 H373 0.930 . S
C383 C376 1.409 . S
C383 C382 1.362 . S
H384 C390 0.930 . S
H385 C393 0.930 . S
H386 C394 0.930 . S
H387 C395 0.930 . S
H388 C398 0.930 . S
H389 C399 0.930 . S
C390 H384 0.930 . S
C390 C391 1.355 . S
C390 C392 1.415 . S
C391 C390 1.355 . S
C391 C393 1.419 . S
C392 C390 1.415 . S
C392 C397 1.425 . S
C392 C399 1.409 . S
C393 H385 0.930 . S
C393 C391 1.419 . S
C393 C394 1.362 . S
C394 H386 0.930 . S
C394 C393 1.362 . S
C394 C397 1.409 . S
C395 H387 0.930 . S
C395 C396 1.355 . S
C395 C397 1.415 . S
C396 C395 1.355 . S
C396 C398 1.419 . S
C397 C392 1.425 . S
C397 C394 1.409 . S
C397 C395 1.415 . S
C398 H388 0.930 . S
C398 C396 1.419 . S
C398 C399 1.362 . S
C399 H389 0.930 . S
C399 C392 1.409 . S
C399 C398 1.362 . S
H400 C406 0.930 . S
H401 C409 0.930 . S
H402 C410 0.930 . S
H403 C411 0.930 . S
H404 C414 0.930 . S
H405 C415 0.930 . S
C406 H400 0.930 . S
C406 C407 1.355 . S
C406 C408 1.415 . S
C407 C406 1.355 . S
C407 C409 1.419 . S
C408 C406 1.415 . S
C408 C413 1.425 . S
C408 C415 1.409 . S
C409 H401 0.930 . S
C409 C407 1.419 . S
C409 C410 1.362 . S
C410 H402 0.930 . S
C410 C409 1.362 . S
C410 C413 1.409 . S
C411 H403 0.930 . S
C411 C412 1.355 . S
C411 C413 1.415 . S
C412 C411 1.355 . S
C412 C414 1.419 . S
C413 C408 1.425 . S
C413 C410 1.409 . S
C413 C411 1.415 . S
C414 H404 0.930 . S
C414 C412 1.419 . S
C414 C415 1.362 . S
C415 H405 0.930 . S
C415 C408 1.409 . S
C415 C414 1.362 . S
H416 C422 0.930 . S
H417 C425 0.930 . S
H418 C426 0.930 . S
H419 C427 0.930 . S
H420 C430 0.930 . S
H421 C431 0.930 . S
C422 H416 0.930 . S
C422 C423 1.355 . S
C422 C424 1.415 . S
C423 C422 1.355 . S
C423 C425 1.419 . S
C424 C422 1.415 . S
C424 C429 1.425 . S
C424 C431 1.409 . S
C425 H417 0.930 . S
C425 C423 1.419 . S
C425 C426 1.362 . S
C426 H418 0.930 . S
C426 C425 1.362 . S
C426 C429 1.409 . S
C427 H419 0.930 . S
C427 C428 1.355 . S
C427 C429 1.415 . S
C428 C427 1.355 . S
C428 C430 1.419 . S
C429 C424 1.425 . S
C429 C426 1.409 . S
C429 C427 1.415 . S
C430 H420 0.930 . S
C430 C428 1.419 . S
C430 C431 1.362 . S
C431 H421 0.930 . S
C431 C424 1.409 . S
C431 C430 1.362 . S
H432 C438 0.930 . S
H433 C441 0.930 . S
H434 C442 0.930 . S
H435 C443 0.930 . S
H436 C446 0.930 . S
H437 C447 0.930 . S
C438 H432 0.930 . S
C438 C439 1.355 1_556 S
C438 C440 1.415 . S
C439 C438 1.355 1_554 S
C439 C441 1.419 . S
C440 C438 1.415 . S
C440 C445 1.425 1_556 S
C440 C447 1.409 . S
C441 H433 0.930 . S
C441 C439 1.419 . S
C441 C442 1.362 . S
C442 H434 0.930 . S
C442 C441 1.362 . S
C442 C445 1.409 . S
C443 H435 0.930 . S
C443 C444 1.354 1_554 S
C443 C445 1.415 . S
C444 C443 1.354 1_556 S
C444 C446 1.420 . S
C445 C440 1.425 1_554 S
C445 C442 1.409 . S
C445 C443 1.415 . S
C446 H436 0.930 . S
C446 C444 1.420 . S
C446 C447 1.362 . S
C447 H437 0.930 . S
C447 C440 1.409 . S
C447 C446 1.362 . S
H448 C454 0.930 . S
H449 C457 0.930 . S
H450 C458 0.930 . S
H451 C459 0.930 . S
H452 C462 0.930 . S
H453 C463 0.930 . S
C454 H448 0.930 . S
C454 C455 1.355 . S
C454 C456 1.415 . S
C455 C454 1.355 . S
C455 C457 1.419 . S
C456 C454 1.415 . S
C456 C461 1.425 . S
C456 C463 1.409 . S
C457 H449 0.930 . S
C457 C455 1.419 . S
C457 C458 1.362 . S
C458 H450 0.930 . S
C458 C457 1.362 . S
C458 C461 1.409 . S
C459 H451 0.930 . S
C459 C460 1.355 . S
C459 C461 1.415 . S
C460 C459 1.355 . S
C460 C462 1.419 . S
C461 C456 1.425 . S
C461 C458 1.409 . S
C461 C459 1.415 . S
C462 H452 0.930 . S
C462 C460 1.419 . S
C462 C463 1.362 . S
C463 H453 0.930 . S
C463 C456 1.409 . S
C463 C462 1.362 . S
H464 C470 0.930 1_556 S
H465 C473 0.930 . S
H466 C474 0.930 . S
H467 C475 0.930 . S
H468 C478 0.930 1_556 S
H469 C479 0.929 1_556 S
C470 H464 0.930 1_554 S
C470 C471 1.355 . S
C470 C472 1.415 . S
C471 C470 1.355 . S
C471 C473 1.419 . S
C472 C470 1.415 . S
C472 C477 1.425 . S
C472 C479 1.410 . S
C473 H465 0.930 . S
C473 C471 1.419 . S
C473 C474 1.362 . S
C474 H466 0.930 . S
C474 C473 1.362 . S
C474 C477 1.409 . S
C475 H467 0.930 . S
C475 C476 1.355 . S
C475 C477 1.415 . S
C476 C475 1.355 . S
C476 C478 1.419 . S
C477 C472 1.425 . S
C477 C474 1.409 . S
C477 C475 1.415 . S
C478 H468 0.930 1_554 S
C478 C476 1.419 . S
C478 C479 1.363 . S
C479 H469 0.929 1_554 S
C479 C472 1.410 . S
C479 C478 1.363 . S
H480 C486 0.930 . S
H481 C489 0.930 . S
H482 C490 0.930 . S
H483 C491 0.930 . S
H484 C494 0.930 . S
H485 C495 0.930 . S
C486 H480 0.930 . S
C486 C487 1.355 . S
C486 C488 1.415 . S
C487 C486 1.355 . S
C487 C489 1.419 . S
C488 C486 1.415 . S
C488 C493 1.425 . S
C488 C495 1.409 . S
C489 H481 0.930 . S
C489 C487 1.419 . S
C489 C490 1.362 . S
C490 H482 0.930 . S
C490 C489 1.362 . S
C490 C493 1.409 . S
C491 H483 0.930 . S
C491 C492 1.355 . S
C491 C493 1.415 . S
C492 C491 1.355 . S
C492 C494 1.419 . S
C493 C488 1.425 . S
C493 C490 1.409 . S
C493 C491 1.415 . S
C494 H484 0.930 . S
C494 C492 1.419 . S
C494 C495 1.362 . S
C495 H485 0.930 . S
C495 C488 1.409 . S
C495 C494 1.362 . S
H496 C502 0.930 . S
H497 C505 0.930 . S
H498 C506 0.930 . S
H499 C507 0.930 . S
H500 C510 0.930 . S
H501 C511 0.930 . S
C502 H496 0.930 . S
C502 C503 1.355 . S
C502 C504 1.415 . S
C503 C502 1.355 . S
C503 C505 1.419 . S
C504 C502 1.415 . S
C504 C509 1.425 . S
C504 C511 1.409 . S
C505 H497 0.930 . S
C505 C503 1.419 . S
C505 C506 1.362 . S
C506 H498 0.930 . S
C506 C505 1.362 . S
C506 C509 1.409 . S
C507 H499 0.930 . S
C507 C508 1.355 . S
C507 C509 1.415 . S
C508 C507 1.355 . S
C508 C510 1.419 . S
C509 C504 1.425 . S
C509 C506 1.409 . S
C509 C507 1.415 . S
C510 H500 0.930 . S
C510 C508 1.419 . S
C510 C511 1.362 . S
C511 H501 0.930 . S
C511 C504 1.409 . S
C511 C510 1.362 . S
H512 C518 0.930 . S
H513 C521 0.930 . S
H514 C522 0.930 . S
H515 C523 0.930 . S
H516 C526 0.930 . S
H517 C527 0.930 . S
C518 H512 0.930 . S
C518 C519 1.363 . S
C518 C520 1.415 . S
C519 C518 1.363 . S
C519 C521 1.408 1_554 S
C520 C518 1.415 . S
C520 C525 1.425 1_554 S
C520 C527 1.409 . S
C521 H513 0.930 . S
C521 C519 1.408 1_556 S
C521 C522 1.362 . S
C522 H514 0.930 . S
C522 C521 1.362 . S
C522 C525 1.409 . S
C523 H515 0.930 . S
C523 C524 1.355 1_556 S
C523 C525 1.415 . S
C524 C523 1.355 1_554 S
C524 C526 1.419 . S
C525 C520 1.425 1_556 S
C525 C522 1.409 . S
C525 C523 1.415 . S
C526 H516 0.930 . S
C526 C524 1.419 . S
C526 C527 1.362 . S
C527 H517 0.930 . S
C527 C520 1.409 . S
C527 C526 1.362 . S
H528 C534 0.930 . S
H529 C537 0.930 . S
H530 C538 0.930 . S
H531 C539 0.930 . S
H532 C542 0.930 . S
H533 C543 0.930 . S
C534 H528 0.930 . S
C534 C535 1.355 . S
C534 C536 1.415 . S
C535 C534 1.355 . S
C535 C537 1.419 . S
C536 C534 1.415 . S
C536 C541 1.425 . S
C536 C543 1.409 . S
C537 H529 0.930 . S
C537 C535 1.419 . S
C537 C538 1.362 . S
C538 H530 0.930 . S
C538 C537 1.362 . S
C538 C541 1.409 . S
C539 H531 0.930 . S
C539 C540 1.355 . S
C539 C541 1.415 . S
C540 C539 1.355 . S
C540 C542 1.419 . S
C541 C536 1.425 . S
C541 C538 1.409 . S
C541 C539 1.415 . S
C542 H532 0.930 . S
C542 C540 1.419 . S
C542 C543 1.362 . S
C543 H533 0.930 . S
C543 C536 1.409 . S
C543 C542 1.362 . S
H544 C550 0.930 . S
H545 C553 0.930 . S
H546 C554 0.930 . S
H547 C555 0.930 . S
H548 C558 0.930 . S
H549 C559 0.930 . S
C550 H544 0.930 . S
C550 C551 1.355 1_556 S
C550 C552 1.415 . S
C551 C550 1.355 1_554 S
C551 C553 1.419 . S
C552 C550 1.415 . S
C552 C557 1.425 1_556 S
C552 C559 1.409 . S
C553 H545 0.930 . S
C553 C551 1.419 . S
C553 C554 1.362 . S
C554 H546 0.930 . S
C554 C553 1.362 . S
C554 C557 1.409 . S
C555 H547 0.930 . S
C555 C556 1.355 . S
C555 C557 1.415 . S
C556 C555 1.355 . S
C556 C558 1.419 1_554 S
C557 C552 1.425 1_554 S
C557 C554 1.409 . S
C557 C555 1.415 . S
C558 H548 0.930 . S
C558 C556 1.419 1_556 S
C558 C559 1.362 . S
C559 H549 0.930 . S
C559 C552 1.409 . S
C559 C558 1.362 . S
C183 C21 1.466 . S
C188 C125 1.499 . S
C199 C40 1.493 . S
C204 C92 1.478 . S
C220 C104 1.472 . S
C215 C54 1.466 . S
C231 C73 1.536 . S
C236 C115 1.478 . S
C252 C148 1.414 . S
C247 C74 1.461 . S
C268 C159 1.488 . S
C263 C10 1.510 . S
C284 C169 1.497 . S
C279 C37 1.505 . S
C300 C136 1.491 . S
C295 C65 1.518 . S
C311 C52 1.430 . S
C316 C103 1.448 . S
C327 C87 1.526 . S
C332 C114 1.487 . S
C343 C15 1.494 . S
C348 C126 1.510 . S
C364 C93 1.458 . S
C359 C32 1.501 . S
C375 C29 1.482 . S
C380 C170 1.510 . S
C396 C137 1.492 . S
C391 C59 1.543 . S
C412 C147 1.430 . S
C407 C84 1.456 . S
C423 C8 1.483 . S
C428 C158 1.453 . S
C444 C98 1.530 1_556 S
C439 C7 1.530 . S
C460 C109 1.489 . S
C455 C30 1.493 . S
C471 C62 1.532 . S
C476 C120 1.538 . S
C487 C81 1.512 . S
C492 C131 1.504 . S
C508 C142 1.524 . S
C503 C76 1.533 . S
C519 C18 1.477 . S
C524 C153 1.470 . S
C535 C43 1.525 . S
C540 C164 1.540 . S
C551 C51 1.513 . S
C556 C175 1.506 . S
