# Generated by pormake.
# Topology wbl, (4,4)-cn, num edge types: 1
# Building blocks:
#     Node 0, Type 0, BuildingBlock: MUDLON_clean_linker_0, # of connection points: 4
#     Node 1, Type 0, BuildingBlock: MUDLON_clean_linker_0, # of connection points: 4
#     Node 2, Type 0, BuildingBlock: MUDLON_clean_linker_0, # of connection points: 4
#     Node 3, Type 0, BuildingBlock: MUDLON_clean_linker_0, # of connection points: 4
#     Node 4, Type 0, BuildingBlock: MUDLON_clean_linker_0, # of connection points: 4
#     Node 5, Type 0, BuildingBlock: MUDLON_clean_linker_0, # of connection points: 4
#     Node 6, Type 0, BuildingBlock: MUDLON_clean_linker_0, # of connection points: 4
#     Node 7, Type 0, BuildingBlock: MUDLON_clean_linker_0, # of connection points: 4
#     Node 8, Type 1, BuildingBlock: NAHDIM_clean_sbu_0, # of connection points: 4
#     Node 9, Type 1, BuildingBlock: NAHDIM_clean_sbu_0, # of connection points: 4
#     Node 10, Type 1, BuildingBlock: NAHDIM_clean_sbu_0, # of connection points: 4
#     Node 11, Type 1, BuildingBlock: NAHDIM_clean_sbu_0, # of connection points: 4
#     Node 12, Type 1, BuildingBlock: NAHDIM_clean_sbu_0, # of connection points: 4
#     Node 13, Type 1, BuildingBlock: NAHDIM_clean_sbu_0, # of connection points: 4
#     Node 14, Type 1, BuildingBlock: NAHDIM_clean_sbu_0, # of connection points: 4
#     Node 15, Type 1, BuildingBlock: NAHDIM_clean_sbu_0, # of connection points: 4
#     Edge 16, Type (0, 1), BuildingBlock: XIVTED_clean_linker_0, # of connection points: 2
#     Edge 17, Type (0, 1), BuildingBlock: XIVTED_clean_linker_0, # of connection points: 2
#     Edge 18, Type (0, 1), BuildingBlock: XIVTED_clean_linker_0, # of connection points: 2
#     Edge 19, Type (0, 1), BuildingBlock: XIVTED_clean_linker_0, # of connection points: 2
#     Edge 20, Type (0, 1), BuildingBlock: XIVTED_clean_linker_0, # of connection points: 2
#     Edge 21, Type (0, 1), BuildingBlock: XIVTED_clean_linker_0, # of connection points: 2
#     Edge 22, Type (0, 1), BuildingBlock: XIVTED_clean_linker_0, # of connection points: 2
#     Edge 23, Type (0, 1), BuildingBlock: XIVTED_clean_linker_0, # of connection points: 2
#     Edge 24, Type (0, 1), BuildingBlock: XIVTED_clean_linker_0, # of connection points: 2
#     Edge 25, Type (0, 1), BuildingBlock: XIVTED_clean_linker_0, # of connection points: 2
#     Edge 26, Type (0, 1), BuildingBlock: XIVTED_clean_linker_0, # of connection points: 2
#     Edge 27, Type (0, 1), BuildingBlock: XIVTED_clean_linker_0, # of connection points: 2
#     Edge 28, Type (0, 1), BuildingBlock: XIVTED_clean_linker_0, # of connection points: 2
#     Edge 29, Type (0, 1), BuildingBlock: XIVTED_clean_linker_0, # of connection points: 2
#     Edge 30, Type (0, 1), BuildingBlock: XIVTED_clean_linker_0, # of connection points: 2
#     Edge 31, Type (0, 1), BuildingBlock: XIVTED_clean_linker_0, # of connection points: 2
#     Edge 32, Type (0, 1), BuildingBlock: XIVTED_clean_linker_0, # of connection points: 2
#     Edge 33, Type (0, 1), BuildingBlock: XIVTED_clean_linker_0, # of connection points: 2
#     Edge 34, Type (0, 1), BuildingBlock: XIVTED_clean_linker_0, # of connection points: 2
#     Edge 35, Type (0, 1), BuildingBlock: XIVTED_clean_linker_0, # of connection points: 2
#     Edge 36, Type (0, 1), BuildingBlock: XIVTED_clean_linker_0, # of connection points: 2
#     Edge 37, Type (0, 1), BuildingBlock: XIVTED_clean_linker_0, # of connection points: 2
#     Edge 38, Type (0, 1), BuildingBlock: XIVTED_clean_linker_0, # of connection points: 2
#     Edge 39, Type (0, 1), BuildingBlock: XIVTED_clean_linker_0, # of connection points: 2
#     Edge 40, Type (0, 1), BuildingBlock: XIVTED_clean_linker_0, # of connection points: 2
#     Edge 41, Type (0, 1), BuildingBlock: XIVTED_clean_linker_0, # of connection points: 2
#     Edge 42, Type (0, 1), BuildingBlock: XIVTED_clean_linker_0, # of connection points: 2
#     Edge 43, Type (0, 1), BuildingBlock: XIVTED_clean_linker_0, # of connection points: 2
#     Edge 44, Type (0, 1), BuildingBlock: XIVTED_clean_linker_0, # of connection points: 2
#     Edge 45, Type (0, 1), BuildingBlock: XIVTED_clean_linker_0, # of connection points: 2
#     Edge 46, Type (0, 1), BuildingBlock: XIVTED_clean_linker_0, # of connection points: 2
#     Edge 47, Type (0, 1), BuildingBlock: XIVTED_clean_linker_0, # of connection points: 2
# Relax obj value: 0.108
# Max RMSD: 0.121
# Mean RMSD: 0.110
data_MOF--net-wbl--node1-NAHDIM_clean_sbu_0--node2-MUDLON_clean_linker_0--edge1-XIVTED_clean_linker_0
_symmetry_space_group_name_H-M    P1
_symmetry_Int_Tables_number       1
_symmetry_cell_setting            triclinic
loop_
_symmetry_equiv_pos_as_xyz
'x, y, z'
_cell_length_a     54.936634
_cell_length_b     53.329234
_cell_length_c     74.564272
_cell_angle_alpha  89.994753
_cell_angle_beta   89.978254
_cell_angle_gamma 89.94793
loop_
_atom_site_label
_atom_site_type_symbol
_atom_site_fract_x
_atom_site_fract_y
_atom_site_fract_z
_atom_type_partial_charge
H0 H 0.12177 0.99681 0.34621 0.0
N1 N 0.09245 0.98139 0.32007 0.0
H2 H 0.12957 0.97618 0.37509 0.0
H3 H 0.06894 0.93979 0.33337 0.0
H4 H 0.07645 0.91946 0.36192 0.0
H5 H 0.09747 0.93228 0.30953 0.0
H6 H 0.13049 0.91567 0.29146 0.0
H7 H 0.12198 0.00759 0.2991 0.0
H8 H 0.15398 0.99131 0.27958 0.0
H9 H 0.07639 0.02813 0.3215 0.0
H10 H 0.05484 0.95346 0.30656 0.0
H11 H 0.03488 0.04292 0.31698 0.0
H12 H 0.01271 0.96703 0.30421 0.0
H13 H 0.91415 0.07803 0.33109 0.0
H14 H 0.90121 0.09234 0.36045 0.0
H15 H 0.8957 0.01568 0.37848 0.0
H16 H 0.90795 0.00107 0.34845 0.0
H17 H 0.87535 0.01406 0.30697 0.0
H18 H 0.84781 0.03764 0.28743 0.0
H19 H 0.90239 0.09523 0.28131 0.0
H20 H 0.93007 0.07122 0.30057 0.0
H21 H 0.95707 0.05398 0.33482 0.0
H22 H 0.99931 0.04319 0.33169 0.0
H23 H 0.98055 0.9872 0.29196 0.0
N24 N 0.91801 0.02907 0.31966 0.0
H25 H 0.93755 0.99655 0.2967 0.0
C26 C 0.09485 0.97 0.33755 0.0
C27 C 0.11163 0.98011 0.34971 0.0
C28 C 0.11599 0.96836 0.36618 0.0
C29 C 0.10372 0.94611 0.37069 0.0
C30 C 0.08641 0.9364 0.35871 0.0
C31 C 0.08197 0.94822 0.34234 0.0
C32 C 0.1078 0.97125 0.30618 0.0
C33 C 0.1096 0.94533 0.303 0.0
C34 C 0.12848 0.93581 0.29239 0.0
C35 C 0.14552 0.95206 0.28438 0.0
C36 C 0.14189 0.97812 0.28607 0.0
C37 C 0.1234 0.98754 0.29703 0.0
C38 C 0.06848 0.98964 0.31503 0.0
C39 C 0.06254 0.01491 0.31735 0.0
C40 C 0.03864 0.02319 0.31501 0.0
C41 C 0.0199 0.00611 0.31088 0.0
C42 C 0.02635 0.98093 0.30743 0.0
C43 C 0.05049 0.97291 0.30913 0.0
C44 C 0.91145 0.03825 0.3373 0.0
C45 C 0.90981 0.0641 0.34109 0.0
C46 C 0.90253 0.07236 0.35798 0.0
C47 C 0.89721 0.05509 0.3716 0.0
C48 C 0.89966 0.02933 0.36813 0.0
C49 C 0.90657 0.021 0.35104 0.0
C50 C 0.90457 0.04093 0.30535 0.0
C51 C 0.88161 0.03137 0.30094 0.0
C52 C 0.86595 0.04486 0.28979 0.0
C53 C 0.87293 0.06836 0.28301 0.0
C54 C 0.89653 0.07725 0.2865 0.0
C55 C 0.91237 0.0635 0.29742 0.0
C56 C 0.94376 0.02556 0.31633 0.0
C57 C 0.96177 0.03927 0.32548 0.0
C58 C 0.98634 0.03327 0.32341 0.0
C59 C 0.99377 0.01405 0.31163 0.0
C60 C 0.97576 0.00156 0.30159 0.0
C61 C 0.95109 0.00706 0.3041 0.0
H62 H 0.003 0.35562 0.57643 0.0
N63 N 0.99609 0.39551 0.55563 0.0
H64 H 0.98747 0.34886 0.60686 0.0
H65 H 0.97307 0.43036 0.57675 0.0
H66 H 0.95832 0.42415 0.60711 0.0
H67 H 0.94622 0.39966 0.55644 0.0
H68 H 0.91827 0.37436 0.53927 0.0
H69 H 0.00637 0.37147 0.52525 0.0
H70 H 0.97815 0.34814 0.50641 0.0
H71 H 0.04372 0.39311 0.55085 0.0
H72 H 0.98302 0.44402 0.54855 0.0
H73 H 0.0718 0.42775 0.54596 0.0
H74 H 0.01094 0.47945 0.54574 0.0
H75 H 0.15406 0.54401 0.56779 0.0
H76 H 0.16311 0.55507 0.599 0.0
H77 H 0.08606 0.55994 0.61013 0.0
H78 H 0.07722 0.54868 0.57897 0.0
H79 H 0.07571 0.57677 0.5543 0.0
H80 H 0.07848 0.61822 0.54081 0.0
H81 H 0.14358 0.59547 0.51256 0.0
H82 H 0.14107 0.55412 0.52674 0.0
H83 H 0.11652 0.49357 0.56422 0.0
H84 H 0.08849 0.45874 0.56259 0.0
H85 H 0.03911 0.50393 0.53095 0.0
N86 N 0.11056 0.54 0.55243 0.0
H87 H 0.06646 0.53936 0.53383 0.0
C88 C 0.98941 0.39345 0.57429 0.0
C89 C 0.9936 0.37074 0.58322 0.0
C90 C 0.98478 0.36698 0.60061 0.0
C91 C 0.97152 0.38594 0.60937 0.0
C92 C 0.96816 0.40904 0.60064 0.0
C93 C 0.97693 0.41275 0.58328 0.0
C94 C 0.97865 0.3867 0.54261 0.0
C95 C 0.95342 0.38859 0.54552 0.0
C96 C 0.93724 0.37416 0.5354 0.0
C97 C 0.94581 0.35824 0.52168 0.0
C98 C 0.9708 0.35906 0.51738 0.0
C99 C 0.98703 0.37279 0.52793 0.0
C100 C 0.01151 0.41615 0.55069 0.0
C101 C 0.03654 0.41192 0.5494 0.0
C102 C 0.05255 0.43188 0.54686 0.0
C103 C 0.04388 0.45674 0.54614 0.0
C104 C 0.01848 0.46072 0.54632 0.0
C105 C 0.00242 0.44051 0.54825 0.0
C106 C 0.11509 0.54568 0.57106 0.0
C107 C 0.13919 0.54734 0.57703 0.0
C108 C 0.14429 0.55353 0.59484 0.0
C109 C 0.12528 0.5584 0.60698 0.0
C110 C 0.10107 0.55656 0.60101 0.0
C111 C 0.096 0.55014 0.58323 0.0
C112 C 0.10838 0.56234 0.54162 0.0
C113 C 0.09033 0.5805 0.54497 0.0
C114 C 0.09185 0.60422 0.5371 0.0
C115 C 0.11145 0.61032 0.52576 0.0
C116 C 0.1285 0.59154 0.52149 0.0
C117 C 0.12697 0.56784 0.52939 0.0
C118 C 0.09372 0.51945 0.54959 0.0
C119 C 0.09961 0.49603 0.55696 0.0
C120 C 0.08357 0.47591 0.55577 0.0
C121 C 0.06133 0.47824 0.54654 0.0
C122 C 0.05576 0.50145 0.53849 0.0
C123 C 0.07164 0.52189 0.54009 0.0
H124 H 0.60959 0.45158 0.80887 0.0
N125 N 0.5671 0.43984 0.79152 0.0
H126 H 0.62133 0.43897 0.83902 0.0
H127 H 0.54071 0.41381 0.81507 0.0
H128 H 0.55257 0.40073 0.84542 0.0
H129 H 0.58097 0.39467 0.78078 0.0
H130 H 0.61854 0.38358 0.76542 0.0
H131 H 0.59687 0.47317 0.77289 0.0
H132 H 0.63354 0.46224 0.75677 0.0
H133 H 0.5828 0.48614 0.80284 0.0
H134 H 0.52287 0.44727 0.77799 0.0
H135 H 0.55897 0.52449 0.80375 0.0
H136 H 0.49845 0.48577 0.77925 0.0
H137 H 0.47157 0.63607 0.82386 0.0
H138 H 0.45574 0.64333 0.85414 0.0
H139 H 0.42619 0.56825 0.85479 0.0
H140 H 0.44193 0.56127 0.82456 0.0
H141 H 0.42833 0.56403 0.79461 0.0
H142 H 0.39086 0.57631 0.77929 0.0
H143 H 0.4199 0.65067 0.77121 0.0
H144 H 0.45748 0.63819 0.78656 0.0
H145 H 0.49996 0.57549 0.82573 0.0
H146 H 0.52493 0.53872 0.82105 0.0
H147 H 0.49401 0.52921 0.76828 0.0
N148 N 0.46604 0.59537 0.80359 0.0
H149 H 0.46855 0.56587 0.77294 0.0
C150 C 0.5742 0.43347 0.80964 0.0
C151 C 0.59692 0.44063 0.81674 0.0
C152 C 0.60371 0.43325 0.83397 0.0
C153 C 0.58797 0.41867 0.84454 0.0
C154 C 0.56503 0.41209 0.83763 0.0
C155 C 0.55827 0.41941 0.82031 0.0
C156 C 0.58603 0.43466 0.77848 0.0
C157 C 0.59211 0.4095 0.77521 0.0
C158 C 0.61365 0.4032 0.76633 0.0
C159 C 0.6295 0.42202 0.76015 0.0
C160 C 0.62224 0.44723 0.76188 0.0
C161 C 0.60091 0.45353 0.77108 0.0
C162 C 0.55458 0.46364 0.79034 0.0
C163 C 0.56455 0.48583 0.79745 0.0
C164 C 0.5508 0.50781 0.79806 0.0
C165 C 0.52667 0.50813 0.7918 0.0
C166 C 0.51704 0.48622 0.78407 0.0
C167 C 0.5309 0.4642 0.78337 0.0
C168 C 0.4579 0.59828 0.82193 0.0
C169 C 0.46185 0.62117 0.83065 0.0
C170 C 0.45288 0.6252 0.84794 0.0
C171 C 0.43965 0.60637 0.85684 0.0
C172 C 0.436 0.58325 0.84819 0.0
C173 C 0.44502 0.57922 0.83091 0.0
C174 C 0.44585 0.60024 0.79165 0.0
C175 C 0.4269 0.58279 0.7892 0.0
C176 C 0.40551 0.58981 0.78038 0.0
C177 C 0.40245 0.61448 0.77416 0.0
C178 C 0.42174 0.63157 0.77598 0.0
C179 C 0.44325 0.62444 0.78458 0.0
C180 C 0.48059 0.57289 0.80038 0.0
C181 C 0.49788 0.5653 0.81327 0.0
C182 C 0.51261 0.54438 0.81046 0.0
C183 C 0.51124 0.53078 0.79438 0.0
C184 C 0.49499 0.53888 0.78103 0.0
C185 C 0.48017 0.55991 0.78384 0.0
H186 H 0.51112 0.88115 0.0903 0.0
N187 N 0.49052 0.90592 0.06337 0.0
H188 H 0.49599 0.8771 0.12117 0.0
H189 H 0.4509 0.92995 0.07771 0.0
H190 H 0.43603 0.92633 0.10834 0.0
H191 H 0.44999 0.92451 0.04666 0.0
H192 H 0.41972 0.89944 0.03034 0.0
H193 H 0.49559 0.85924 0.05217 0.0
H194 H 0.46597 0.83428 0.0355 0.0
H195 H 0.53406 0.90343 0.04823 0.0
H196 H 0.47854 0.95592 0.0643 0.0
H197 H 0.56133 0.93819 0.04109 0.0
H198 H 0.50605 0.99059 0.05866 0.0
H199 H 0.64758 0.05698 0.06977 0.0
H200 H 0.65614 0.06875 0.10091 0.0
H201 H 0.57972 0.06165 0.11358 0.0
H202 H 0.57134 0.0499 0.08253 0.0
H203 H 0.57024 0.08546 0.06076 0.0
H204 H 0.57275 0.12854 0.05017 0.0
H205 H 0.6358 0.1093 0.01837 0.0
H206 H 0.6329 0.06586 0.02887 0.0
H207 H 0.61346 0.00045 0.05896 0.0
H208 H 0.58498 0.9657 0.05751 0.0
H209 H 0.52849 0.01654 0.0398 0.0
N210 N 0.60433 0.04876 0.05491 0.0
H211 H 0.55664 0.05128 0.04221 0.0
C212 C 0.48238 0.90597 0.08173 0.0
C213 C 0.49492 0.89131 0.09428 0.0
C214 C 0.48622 0.88895 0.11182 0.0
C215 C 0.46488 0.90147 0.11712 0.0
C216 C 0.45272 0.91678 0.10468 0.0
C217 C 0.46125 0.91885 0.08711 0.0
C218 C 0.47482 0.89348 0.05082 0.0
C219 C 0.45365 0.9049 0.04409 0.0
C220 C 0.43643 0.8906 0.03477 0.0
C221 C 0.44045 0.8649 0.03173 0.0
C222 C 0.46245 0.85408 0.03746 0.0
C223 C 0.47937 0.86824 0.04699 0.0
C224 C 0.50456 0.92697 0.0572 0.0
C225 C 0.52776 0.9225 0.05014 0.0
C226 C 0.54338 0.94241 0.04627 0.0
C227 C 0.53623 0.96731 0.04971 0.0
C228 C 0.5123 0.97177 0.05575 0.0
C229 C 0.49652 0.95181 0.05925 0.0
C230 C 0.60896 0.05247 0.07381 0.0
C231 C 0.6328 0.05756 0.07937 0.0
C232 C 0.63759 0.06444 0.09708 0.0
C233 C 0.61856 0.06625 0.10963 0.0
C234 C 0.59477 0.06019 0.10425 0.0
C235 C 0.58996 0.0535 0.08648 0.0
C236 C 0.60147 0.07231 0.04557 0.0
C237 C 0.58413 0.09021 0.05106 0.0
C238 C 0.58572 0.11495 0.04511 0.0
C239 C 0.60473 0.1224 0.03369 0.0
C240 C 0.62087 0.10411 0.02711 0.0
C241 C 0.61924 0.07929 0.03305 0.0
C242 C 0.58746 0.02864 0.05101 0.0
C243 C 0.595 0.00403 0.05454 0.0
C244 C 0.57864 0.98411 0.05356 0.0
C245 C 0.55423 0.9882 0.04863 0.0
C246 C 0.54696 0.0127 0.04406 0.0
C247 C 0.56329 0.03275 0.04536 0.0
H248 H 0.11253 0.51209 0.92896 0.0
N249 N 0.0746 0.53115 0.9464 0.0
H250 H 0.12506 0.52064 0.89798 0.0
H251 H 0.04825 0.55729 0.921 0.0
H252 H 0.06056 0.56579 0.89045 0.0
H253 H 0.07115 0.58244 0.94429 0.0
H254 H 0.09777 0.61241 0.95919 0.0
H255 H 0.10581 0.5217 0.97265 0.0
H256 H 0.13294 0.5516 0.98742 0.0
H257 H 0.05927 0.48521 0.95384 0.0
H258 H 0.03465 0.56176 0.95056 0.0
H259 H 0.01753 0.47133 0.95895 0.0
H260 H 0.99291 0.54817 0.95373 0.0
H261 H 0.89975 0.43121 0.93986 0.0
H262 H 0.89103 0.40982 0.91183 0.0
H263 H 0.88448 0.48131 0.88499 0.0
H264 H 0.89341 0.5028 0.91336 0.0
H265 H 0.85808 0.50234 0.95179 0.0
H266 H 0.82629 0.48626 0.97154 0.0
H267 H 0.87559 0.42891 0.99055 0.0
H268 H 0.90739 0.44532 0.97065 0.0
H269 H 0.94137 0.45207 0.93917 0.0
H270 H 0.98327 0.46401 0.94303 0.0
H271 H 0.96032 0.53286 0.96881 0.0
N272 N 0.90118 0.48208 0.94538 0.0
H273 H 0.91798 0.52165 0.96313 0.0
C274 C 0.07942 0.53377 0.92743 0.0
C275 C 0.10089 0.52339 0.92046 0.0
C276 C 0.10808 0.52844 0.90284 0.0
C277 C 0.0938 0.54393 0.89179 0.0
C278 C 0.0718 0.55349 0.89853 0.0
C279 C 0.06472 0.54861 0.91616 0.0
C280 C 0.08654 0.54968 0.95736 0.0
C281 C 0.08402 0.57555 0.95408 0.0
C282 C 0.09946 0.59271 0.96249 0.0
C283 C 0.11767 0.58438 0.97433 0.0
C284 C 0.11899 0.55869 0.9785 0.0
C285 C 0.10356 0.54155 0.97006 0.0
C286 C 0.05011 0.52435 0.95136 0.0
C287 C 0.0448 0.499 0.9542 0.0
C288 C 0.02082 0.49112 0.95689 0.0
C289 C 0.00144 0.50844 0.9563 0.0
C290 C 0.00708 0.5341 0.95444 0.0
C291 C 0.03115 0.54199 0.95231 0.0
C292 C 0.89698 0.46877 0.92878 0.0
C293 C 0.89632 0.4424 0.92805 0.0
C294 C 0.8913 0.43013 0.91196 0.0
C295 C 0.88686 0.44387 0.89622 0.0
C296 C 0.88798 0.4702 0.89687 0.0
C297 C 0.89297 0.4825 0.91304 0.0
C298 C 0.88491 0.47496 0.95965 0.0
C299 C 0.86219 0.48675 0.9606 0.0
C300 C 0.84409 0.47755 0.97194 0.0
C301 C 0.84837 0.45618 0.98253 0.0
C302 C 0.87169 0.44524 0.98239 0.0
C303 C 0.88989 0.45464 0.97111 0.0
C304 C 0.92626 0.48641 0.95033 0.0
C305 C 0.94512 0.46978 0.94561 0.0
C306 C 0.96942 0.47656 0.94813 0.0
C307 C 0.97556 0.49974 0.95599 0.0
C308 C 0.95654 0.51529 0.96211 0.0
C309 C 0.93224 0.5088 0.95909 0.0
H310 H 0.49263 0.35652 0.17271 0.0
N311 N 0.49587 0.39427 0.19577 0.0
H312 H 0.50807 0.3549 0.14193 0.0
H313 H 0.51624 0.43334 0.17709 0.0
H314 H 0.53117 0.4321 0.14636 0.0
H315 H 0.5405 0.41592 0.20163 0.0
H316 H 0.57468 0.39615 0.21705 0.0
H317 H 0.49398 0.35455 0.217 0.0
H318 H 0.52809 0.33454 0.2324 0.0
H319 H 0.44794 0.39047 0.19545 0.0
H320 H 0.50604 0.44159 0.20834 0.0
H321 H 0.41815 0.42395 0.20001 0.0
H322 H 0.47653 0.47543 0.21228 0.0
H323 H 0.33927 0.547 0.1824 0.0
H324 H 0.33542 0.56531 0.1524 0.0
H325 H 0.41379 0.56562 0.14723 0.0
H326 H 0.41742 0.54766 0.17723 0.0
H327 H 0.4211 0.56555 0.20632 0.0
H328 H 0.4224 0.6065 0.22062 0.0
H329 H 0.34578 0.60025 0.23325 0.0
H330 H 0.34517 0.55853 0.21985 0.0
H331 H 0.3806 0.49561 0.18047 0.0
H332 H 0.40804 0.46011 0.18243 0.0
H333 H 0.44174 0.49256 0.22929 0.0
N334 N 0.38007 0.53737 0.20045 0.0
H335 H 0.4144 0.52821 0.22739 0.0
C336 C 0.50318 0.39493 0.17721 0.0
C337 C 0.50077 0.37313 0.16691 0.0
C338 C 0.5095 0.37231 0.14932 0.0
C339 C 0.5209 0.39338 0.1417 0.0
C340 C 0.52277 0.41546 0.15191 0.0
C341 C 0.51404 0.41624 0.1695 0.0
C342 C 0.51463 0.38654 0.20807 0.0
C343 C 0.5374 0.39856 0.20875 0.0
C344 C 0.55703 0.38714 0.21748 0.0
C345 C 0.55419 0.36363 0.22576 0.0
C346 C 0.53089 0.35274 0.22629 0.0
C347 C 0.51135 0.3641 0.21749 0.0
C348 C 0.47913 0.41352 0.20136 0.0
C349 C 0.45419 0.40887 0.19952 0.0
C350 C 0.43726 0.42807 0.20197 0.0
C351 C 0.445 0.45249 0.20618 0.0
C352 C 0.46996 0.45682 0.2091 0.0
C353 C 0.48691 0.43748 0.20674 0.0
C354 C 0.37851 0.546 0.18207 0.0
C355 C 0.35555 0.55079 0.17467 0.0
C356 C 0.35342 0.56117 0.15753 0.0
C357 C 0.37432 0.56702 0.14745 0.0
C358 C 0.39735 0.5617 0.15475 0.0
C359 C 0.39946 0.55133 0.17188 0.0
C360 C 0.38298 0.55878 0.21215 0.0
C361 C 0.40478 0.57261 0.21268 0.0
C362 C 0.40539 0.59626 0.22069 0.0
C363 C 0.38407 0.60705 0.2278 0.0
C364 C 0.36266 0.59258 0.22812 0.0
C365 C 0.36221 0.56868 0.22045 0.0
C366 C 0.39622 0.51592 0.20286 0.0
C367 C 0.39406 0.49541 0.19108 0.0
C368 C 0.40959 0.47483 0.19237 0.0
C369 C 0.42739 0.47368 0.20586 0.0
C370 C 0.42868 0.49326 0.21842 0.0
C371 C 0.41303 0.51395 0.21716 0.0
H372 H 0.42225 0.97286 0.42808 0.0
N373 N 0.43674 0.94378 0.45652 0.0
H374 H 0.41526 0.9587 0.39745 0.0
H375 H 0.44459 0.89826 0.44319 0.0
H376 H 0.43722 0.88375 0.41249 0.0
H377 H 0.43325 0.91638 0.48622 0.0
H378 H 0.39609 0.90571 0.5029 0.0
H379 H 0.39083 0.96222 0.45023 0.0
H380 H 0.35405 0.95175 0.46665 0.0
H381 H 0.41895 0.99184 0.46192 0.0
H382 H 0.48472 0.94819 0.45656 0.0
H383 H 0.44277 0.03001 0.46333 0.0
H384 H 0.50878 0.98665 0.45722 0.0
H385 H 0.53396 0.14299 0.43264 0.0
H386 H 0.54666 0.15065 0.40163 0.0
H387 H 0.56349 0.07193 0.39556 0.0
H388 H 0.55097 0.06451 0.42655 0.0
H389 H 0.57944 0.07417 0.45016 0.0
H390 H 0.61625 0.08424 0.46673 0.0
H391 H 0.57933 0.14634 0.4921 0.0
H392 H 0.54207 0.13598 0.47535 0.0
H393 H 0.49075 0.09298 0.44009 0.0
H394 H 0.46572 0.05554 0.44345 0.0
H395 H 0.52254 0.02089 0.47494 0.0
N396 N 0.53635 0.10013 0.45081 0.0
H397 H 0.54762 0.05755 0.47118 0.0
C398 C 0.43402 0.93652 0.43798 0.0
C399 C 0.42583 0.95345 0.4248 0.0
C400 C 0.42167 0.94528 0.40728 0.0
C401 C 0.42557 0.92007 0.40256 0.0
C402 C 0.4343 0.90335 0.41564 0.0
C403 C 0.43843 0.91154 0.43318 0.0
C404 C 0.41498 0.94017 0.46707 0.0
C405 C 0.41603 0.92445 0.48211 0.0
C406 C 0.39482 0.91827 0.49153 0.0
C407 C 0.37218 0.92794 0.4861 0.0
C408 C 0.37126 0.9443 0.47134 0.0
C409 C 0.39237 0.95024 0.46187 0.0
C410 C 0.45007 0.96682 0.45924 0.0
C411 C 0.43851 0.99026 0.46122 0.0
C412 C 0.45222 0.0123 0.46185 0.0
C413 C 0.47772 0.01151 0.46029 0.0
C414 C 0.48922 0.98803 0.45874 0.0
C415 C 0.47552 0.966 0.45829 0.0
C416 C 0.54155 0.10332 0.43194 0.0
C417 C 0.54007 0.12738 0.4245 0.0
C418 C 0.54725 0.13167 0.40679 0.0
C419 C 0.55619 0.11189 0.39618 0.0
C420 C 0.557 0.0876 0.40348 0.0
C421 C 0.54973 0.08332 0.42117 0.0
C422 C 0.55778 0.10422 0.46166 0.0
C423 C 0.57905 0.0898 0.45938 0.0
C424 C 0.60009 0.09547 0.46897 0.0
C425 C 0.60058 0.11597 0.48078 0.0
C426 C 0.5794 0.13042 0.48308 0.0
C427 C 0.55815 0.12446 0.47365 0.0
C428 C 0.52146 0.07833 0.45483 0.0
C429 C 0.49779 0.07734 0.44778 0.0
C430 C 0.48341 0.05595 0.44984 0.0
C431 C 0.49222 0.03503 0.45932 0.0
C432 C 0.51543 0.0364 0.46715 0.0
C433 C 0.52992 0.05769 0.46495 0.0
H434 H 0.03956 0.89317 0.69843 0.0
N435 N 0.05096 0.93529 0.7177 0.0
H436 H 0.05137 0.88406 0.66763 0.0
H437 H 0.07489 0.96519 0.69516 0.0
H438 H 0.08725 0.95598 0.66422 0.0
H439 H 0.09618 0.92433 0.72718 0.0
H440 H 0.11082 0.8854 0.74044 0.0
H441 H 0.02204 0.90004 0.73527 0.0
H442 H 0.03649 0.86177 0.74901 0.0
H443 H 0.0058 0.91692 0.7088 0.0
H444 H 0.04316 0.98067 0.73118 0.0
H445 H 0.96754 0.93947 0.7101 0.0
H446 H 0.00499 0.0043 0.73135 0.0
H447 H 0.853 0.03297 0.69521 0.0
H448 H 0.84283 0.04711 0.66477 0.0
H449 H 0.91843 0.06479 0.65535 0.0
H450 H 0.92842 0.05112 0.68575 0.0
H451 H 0.92614 0.07548 0.71292 0.0
H452 H 0.91546 0.11612 0.72562 0.0
H453 H 0.84901 0.08447 0.74689 0.0
H454 H 0.85951 0.04402 0.73343 0.0
H455 H 0.91155 0.99542 0.69115 0.0
H456 H 0.94815 0.97077 0.69443 0.0
H457 H 0.96567 0.01091 0.74308 0.0
N458 N 0.8963 0.03442 0.7113 0.0
H459 H 0.9297 0.03667 0.73927 0.0
C460 C 0.05647 0.92994 0.69914 0.0
C461 C 0.04971 0.90714 0.69104 0.0
C462 C 0.05665 0.90185 0.67345 0.0
C463 C 0.07042 0.91921 0.66354 0.0
C464 C 0.0765 0.9423 0.67146 0.0
C465 C 0.06958 0.94756 0.68912 0.0
C466 C 0.05807 0.91524 0.72973 0.0
C467 C 0.08304 0.91102 0.73234 0.0
C468 C 0.09138 0.88869 0.73998 0.0
C469 C 0.07484 0.8701 0.74546 0.0
C470 C 0.04977 0.87532 0.74441 0.0
C471 C 0.04143 0.89753 0.73655 0.0
C472 C 0.02747 0.94699 0.72019 0.0
C473 C 0.00579 0.93571 0.71422 0.0
C474 C 0.98383 0.94887 0.71471 0.0
C475 C 0.98306 0.97395 0.72059 0.0
C476 C 0.00469 0.98496 0.72696 0.0
C477 C 0.02658 0.97153 0.72682 0.0
C478 C 0.8914 0.04069 0.69274 0.0
C479 C 0.86736 0.03964 0.68648 0.0
C480 C 0.86159 0.04784 0.6692 0.0
C481 C 0.87988 0.05697 0.65776 0.0
C482 C 0.90405 0.05759 0.66386 0.0
C483 C 0.90975 0.04982 0.68124 0.0
C484 C 0.89345 0.05672 0.72212 0.0
C485 C 0.9095 0.07717 0.72059 0.0
C486 C 0.9034 0.10041 0.72799 0.0
C487 C 0.88118 0.10369 0.73709 0.0
C488 C 0.86603 0.08273 0.73967 0.0
C489 C 0.87211 0.05953 0.73219 0.0
C490 C 0.91828 0.0195 0.71408 0.0
C491 C 0.92346 0.9995 0.70233 0.0
C492 C 0.94433 0.98492 0.70444 0.0
C493 C 0.96023 0.98896 0.71893 0.0
C494 C 0.95434 0.00778 0.73142 0.0
C495 C 0.93357 0.02271 0.72914 0.0
C496 C 0.27422 0.66442 0.00685 0.0
O497 O 0.28322 0.66318 0.02315 0.0
O498 O 0.33351 0.65055 0.01983 0.0
Zn499 Zn 0.32491 0.66931 0.99722 0.0
O500 O 0.34113 0.6526 0.97619 0.0
C501 C 0.32977 0.72237 0.00799 0.0
O502 O 0.31134 0.71831 0.01884 0.0
O503 O 0.28856 0.66799 0.99369 0.0
C504 C 0.36395 0.65525 0.97406 0.0
O505 O 0.37635 0.66808 0.986 0.0
C506 C 0.35066 0.65681 0.03035 0.0
O507 O 0.36413 0.6764 0.02644 0.0
O508 O 0.33747 0.70469 0.99808 0.0
C509 C 0.30556 0.87462 0.25298 0.0
O510 O 0.3249 0.88905 0.25369 0.0
O511 O 0.36209 0.85178 0.23268 0.0
Zn512 Zn 0.34347 0.83934 0.25423 0.0
O513 O 0.35743 0.85374 0.27696 0.0
C514 C 0.36537 0.79181 0.24819 0.0
O515 O 0.38224 0.8067 0.24171 0.0
O516 O 0.30851 0.85097 0.25264 0.0
C517 C 0.3789 0.84974 0.28262 0.0
O518 O 0.39361 0.83537 0.27328 0.0
C519 C 0.37529 0.87131 0.23199 0.0
O520 O 0.37684 0.88607 0.24605 0.0
O521 O 0.34609 0.80142 0.25472 0.0
C522 C 0.20493 0.87311 0.51948 0.0
O523 O 0.18747 0.88979 0.52121 0.0
O524 O 0.14799 0.85204 0.54053 0.0
Zn525 Zn 0.1637 0.84121 0.51741 0.0
O526 O 0.14876 0.85898 0.4963 0.0
C527 C 0.13865 0.79461 0.51211 0.0
O528 O 0.11987 0.80976 0.51076 0.0
O529 O 0.19928 0.85011 0.51791 0.0
C530 C 0.15211 0.85003 0.48071 0.0
O531 O 0.16443 0.82904 0.47894 0.0
C532 C 0.13599 0.87226 0.54238 0.0
O533 O 0.13325 0.88729 0.52856 0.0
O534 O 0.15965 0.80386 0.51483 0.0
C535 C 0.22956 0.65272 0.74354 0.0
O536 O 0.21936 0.64674 0.72821 0.0
O537 O 0.16705 0.64297 0.73342 0.0
Zn538 Zn 0.17936 0.65826 0.75643 0.0
O539 O 0.16824 0.63754 0.77752 0.0
C540 C 0.14332 0.69664 0.7554 0.0
O541 O 0.13006 0.67726 0.75067 0.0
O542 O 0.21621 0.65886 0.75679 0.0
C543 C 0.14852 0.62507 0.77772 0.0
O544 O 0.13425 0.62549 0.76359 0.0
C545 C 0.17057 0.62007 0.72949 0.0
O546 O 0.18268 0.60573 0.7407 0.0
O547 O 0.1658 0.69335 0.75873 0.0
C548 C 0.7722 0.14597 0.5165 0.0
O549 O 0.78507 0.12689 0.52235 0.0
O550 O 0.83112 0.14989 0.53512 0.0
Zn551 Zn 0.81997 0.16501 0.51155 0.0
O552 O 0.83101 0.14401 0.49049 0.0
C553 C 0.84536 0.20779 0.49592 0.0
O554 O 0.84852 0.19255 0.48229 0.0
O555 O 0.78323 0.16555 0.51117 0.0
C556 C 0.8526 0.13611 0.48802 0.0
O557 O 0.86955 0.14148 0.49984 0.0
C558 C 0.83769 0.12715 0.53701 0.0
O559 O 0.83758 0.11211 0.52307 0.0
O560 O 0.83338 0.20034 0.50952 0.0
C561 C 0.80236 0.3691 0.74315 0.0
O562 O 0.82015 0.38548 0.74435 0.0
O563 O 0.86181 0.3496 0.72553 0.0
Zn564 Zn 0.84302 0.33747 0.74692 0.0
O565 O 0.85461 0.35529 0.76904 0.0
C566 C 0.83247 0.28369 0.74825 0.0
O567 O 0.80999 0.2905 0.74471 0.0
O568 O 0.80751 0.34587 0.7436 0.0
C569 C 0.84394 0.35035 0.78373 0.0
O570 O 0.82646 0.33354 0.78383 0.0
C571 C 0.88408 0.34371 0.72359 0.0
O572 O 0.89472 0.32989 0.7359 0.0
O573 O 0.84882 0.30037 0.74983 0.0
C574 C 0.68683 0.38497 0.01185 0.0
O575 O 0.66918 0.39971 0.01738 0.0
O576 O 0.62657 0.36752 0.02307 0.0
Zn577 Zn 0.64648 0.35301 0.00296 0.0
O578 O 0.63352 0.36491 0.97925 0.0
C579 C 0.64429 0.30496 0.0194 0.0
O580 O 0.64785 0.31887 0.03371 0.0
O581 O 0.68154 0.36362 0.00537 0.0
C582 C 0.64635 0.36117 0.96533 0.0
O583 O 0.66747 0.34982 0.967 0.0
C584 C 0.60427 0.36159 0.02458 0.0
O585 O 0.59442 0.34686 0.01247 0.0
O586 O 0.64367 0.31544 0.00411 0.0
C587 C 0.72171 0.15537 0.24584 0.0
O588 O 0.71023 0.15016 0.23085 0.0
O589 O 0.66123 0.15896 0.23331 0.0
Zn590 Zn 0.67396 0.17273 0.25665 0.0
O591 O 0.65682 0.15617 0.27734 0.0
C592 C 0.66931 0.22442 0.24485 0.0
O593 O 0.68036 0.21619 0.23037 0.0
O594 O 0.71017 0.16596 0.25856 0.0
C595 C 0.63456 0.16136 0.28019 0.0
O596 O 0.62328 0.17679 0.26924 0.0
C597 C 0.65245 0.13703 0.23174 0.0
O598 O 0.65058 0.1227 0.246 0.0
O599 O 0.66588 0.20948 0.25787 0.0
H600 H 0.19112 0.97297 0.28488 0.0
H601 H 0.26092 0.85105 0.25244 0.0
H602 H 0.1525 0.90779 0.26549 0.0
H603 H 0.29423 0.92415 0.25625 0.0
H604 H 0.22094 0.87062 0.2571 0.0
H605 H 0.22886 0.95494 0.27418 0.0
C606 C 0.19035 0.95509 0.27805 0.0
C607 C 0.16829 0.94202 0.27611 0.0
C608 C 0.23702 0.88234 0.25671 0.0
C609 C 0.21214 0.92068 0.26433 0.0
C610 C 0.25983 0.87119 0.2541 0.0
C611 C 0.281 0.88595 0.25414 0.0
C612 C 0.23548 0.90834 0.25956 0.0
C613 C 0.27849 0.91197 0.25626 0.0
C614 C 0.21211 0.94465 0.27206 0.0
C615 C 0.16899 0.91846 0.2676 0.0
N616 N 0.25622 0.92226 0.25906 0.0
N617 N 0.19059 0.90842 0.2622 0.0
H618 H 0.07746 0.64514 0.51482 0.0
H619 H 0.17348 0.75799 0.51455 0.0
H620 H 0.15452 0.63597 0.52412 0.0
H621 H 0.09608 0.76848 0.50788 0.0
H622 H 0.1672 0.7127 0.51501 0.0
H623 H 0.08424 0.68979 0.50917 0.0
C624 C 0.09582 0.65245 0.51555 0.0
C625 C 0.11542 0.63673 0.52004 0.0
C626 C 0.15159 0.72488 0.51335 0.0
C627 C 0.12332 0.68783 0.51356 0.0
C628 C 0.15516 0.75078 0.51309 0.0
C629 C 0.13525 0.76709 0.51133 0.0
C630 C 0.12791 0.71516 0.51187 0.0
C631 C 0.11195 0.75663 0.50938 0.0
C632 C 0.09968 0.67794 0.51227 0.0
C633 C 0.13886 0.64722 0.52051 0.0
N634 N 0.10891 0.73134 0.50981 0.0
N635 N 0.14211 0.67209 0.51746 0.0
H636 H 0.37726 0.65649 0.7837 0.0
H637 H 0.26163 0.6271 0.72223 0.0
H638 H 0.3729 0.59141 0.7495 0.0
H639 H 0.25798 0.67188 0.77038 0.0
H640 H 0.30498 0.6198 0.72789 0.0
H641 H 0.33605 0.66834 0.77456 0.0
C642 C 0.36775 0.64491 0.77404 0.0
C643 C 0.37846 0.62292 0.76735 0.0
C644 C 0.29468 0.63136 0.73712 0.0
C645 C 0.33133 0.6363 0.75693 0.0
C646 C 0.26999 0.63564 0.73388 0.0
C647 C 0.25614 0.65 0.74593 0.0
C648 C 0.30565 0.64182 0.75237 0.0
C649 C 0.26793 0.66054 0.76082 0.0
C650 C 0.3442 0.65158 0.76895 0.0
C651 C 0.3652 0.60841 0.75507 0.0
N652 N 0.29201 0.65623 0.76363 0.0
N653 N 0.34229 0.61535 0.75024 0.0
H654 H 0.3923 0.86361 0.04103 0.0
H655 H 0.36885 0.73602 0.98754 0.0
H656 H 0.44474 0.82861 0.00596 0.0
H657 H 0.32116 0.76371 0.02912 0.0
H658 H 0.39313 0.77404 0.99011 0.0
H659 H 0.36242 0.83169 0.03253 0.0
C660 C 0.39734 0.84954 0.03123 0.0
C661 C 0.42108 0.8486 0.02429 0.0
C662 C 0.37725 0.77192 0.99858 0.0
C663 C 0.38717 0.81189 0.01473 0.0
C664 C 0.36333 0.75019 0.99713 0.0
C665 C 0.34307 0.74649 0.00831 0.0
C666 C 0.37095 0.79018 0.01132 0.0
C667 C 0.33674 0.76566 0.02035 0.0
C668 C 0.38036 0.83121 0.02651 0.0
C669 C 0.42673 0.8298 0.0118 0.0
N670 N 0.35076 0.7866 0.02165 0.0
N671 N 0.40997 0.81208 0.00754 0.0
H672 H 0.14102 0.62073 0.95506 0.0
H673 H 0.24055 0.64696 0.03091 0.0
H674 H 0.13879 0.58725 0.00774 0.0
H675 H 0.24891 0.66783 0.9753 0.0
H676 H 0.19945 0.632 0.02432 0.0
H677 H 0.17638 0.6452 0.96414 0.0
C678 C 0.14764 0.61889 0.96867 0.0
C679 C 0.13696 0.60178 0.98063 0.0
C680 C 0.2102 0.64009 0.01361 0.0
C681 C 0.17785 0.62946 0.991 0.0
C682 C 0.23365 0.64872 0.01736 0.0
C683 C 0.24832 0.65839 0.00358 0.0
C684 C 0.20133 0.64125 0.99597 0.0
C685 C 0.23836 0.66027 0.9863 0.0
C686 C 0.168 0.63272 0.97379 0.0
C687 C 0.14666 0.59994 0.99801 0.0
N688 N 0.21556 0.6516 0.98297 0.0
N689 N 0.16667 0.61346 0.00263 0.0
H690 H 0.40887 0.64597 0.21227 0.0
H691 H 0.33635 0.75451 0.26225 0.0
H692 H 0.35743 0.6302 0.25466 0.0
H693 H 0.40223 0.76645 0.23184 0.0
H694 H 0.34225 0.70906 0.25915 0.0
H695 H 0.4056 0.6903 0.21898 0.0
C696 C 0.39721 0.65168 0.22324 0.0
C697 C 0.38352 0.63405 0.23296 0.0
C698 C 0.35546 0.7217 0.25329 0.0
C699 C 0.37906 0.68537 0.24031 0.0
C700 C 0.35206 0.74761 0.25499 0.0
C701 C 0.36875 0.76432 0.24721 0.0
C702 C 0.37551 0.71255 0.24358 0.0
C703 C 0.38884 0.75434 0.23802 0.0
C704 C 0.39518 0.67716 0.22695 0.0
C705 C 0.36812 0.64301 0.24663 0.0
N706 N 0.39154 0.72917 0.23636 0.0
N707 N 0.36616 0.66807 0.24981 0.0
H708 H 0.35891 0.88049 0.49618 0.0
H709 H 0.22266 0.92096 0.52079 0.0
H710 H 0.33317 0.95695 0.4958 0.0
H711 H 0.24565 0.84397 0.51474 0.0
H712 H 0.26454 0.93448 0.51589 0.0
H713 H 0.31919 0.86694 0.5074 0.0
C714 C 0.34503 0.89448 0.49875 0.0
C715 C 0.34928 0.91987 0.49492 0.0
C716 C 0.26047 0.91461 0.51574 0.0
C717 C 0.30372 0.90447 0.50753 0.0
C718 C 0.23654 0.90686 0.51856 0.0
C719 C 0.23057 0.88129 0.518 0.0
C720 C 0.27863 0.89669 0.51233 0.0
C721 C 0.24939 0.86389 0.51516 0.0
C722 C 0.32231 0.88671 0.50502 0.0
C723 C 0.33054 0.93715 0.49831 0.0
N724 N 0.27255 0.87193 0.51231 0.0
N725 N 0.30855 0.92911 0.50431 0.0
H726 H 0.11614 0.85666 0.76434 0.0
H727 H 0.09651 0.70979 0.74745 0.0
H728 H 0.05396 0.82495 0.73713 0.0
H729 H 0.16479 0.74117 0.76523 0.0
H730 H 0.07876 0.75167 0.74755 0.0
H731 H 0.13232 0.81428 0.76862 0.0
C732 C 0.10579 0.84086 0.75936 0.0
C733 C 0.08364 0.84453 0.75029 0.0
C734 C 0.09761 0.74943 0.75149 0.0
C735 C 0.10201 0.79596 0.75529 0.0
C736 C 0.10778 0.72548 0.75145 0.0
C737 C 0.13226 0.72195 0.75621 0.0
C738 C 0.11195 0.77012 0.75636 0.0
C739 C 0.14589 0.74303 0.76135 0.0
C740 C 0.11503 0.81667 0.76186 0.0
C741 C 0.07089 0.82321 0.74444 0.0
N742 N 0.13557 0.76625 0.76123 0.0
N743 N 0.08031 0.79994 0.74696 0.0
H744 H 0.64462 0.38053 0.74079 0.0
H745 H 0.78555 0.41706 0.7464 0.0
H746 H 0.67183 0.44828 0.76546 0.0
H747 H 0.76087 0.341 0.73859 0.0
H748 H 0.74329 0.43097 0.74753 0.0
H749 H 0.68659 0.36801 0.73431 0.0
C750 C 0.65929 0.39288 0.74476 0.0
C751 C 0.65448 0.41549 0.75382 0.0
C752 C 0.74711 0.41125 0.74547 0.0
C753 C 0.70253 0.40137 0.74613 0.0
C754 C 0.77125 0.40327 0.74479 0.0
C755 C 0.77678 0.37777 0.74256 0.0
C756 C 0.72827 0.39365 0.74381 0.0
C757 C 0.75743 0.36081 0.74047 0.0
C758 C 0.68324 0.38572 0.74098 0.0
C759 C 0.67437 0.43089 0.75823 0.0
N760 N 0.73399 0.36905 0.74121 0.0
N761 N 0.69744 0.42349 0.75441 0.0
H762 H 0.6177 0.14596 0.00219 0.0
H763 H 0.63857 0.27827 0.05034 0.0
H764 H 0.60322 0.16025 0.05815 0.0
H765 H 0.63854 0.26988 0.99274 0.0
H766 H 0.62859 0.23397 0.05334 0.0
H767 H 0.62791 0.19046 0.99825 0.0
C768 C 0.61655 0.15847 0.0136 0.0
C769 C 0.6094 0.14943 0.03048 0.0
C770 C 0.63076 0.24178 0.04002 0.0
C771 C 0.62123 0.2001 0.02615 0.0
C772 C 0.63658 0.26709 0.0383 0.0
C773 C 0.63936 0.27783 0.02126 0.0
C774 C 0.62782 0.22697 0.0246 0.0
C775 C 0.63651 0.26237 0.00615 0.0
C776 C 0.62232 0.18382 0.01135 0.0
C777 C 0.60819 0.16645 0.04482 0.0
N778 N 0.63091 0.23768 0.00817 0.0
N779 N 0.61415 0.19087 0.04234 0.0
H780 H 0.86225 0.11716 0.29057 0.0
H781 H 0.74729 0.12242 0.225 0.0
H782 H 0.84143 0.05609 0.25591 0.0
H783 H 0.75338 0.1673 0.27298 0.0
H784 H 0.78706 0.10395 0.23147 0.0
H785 H 0.82777 0.14165 0.27924 0.0
C786 C 0.85073 0.10913 0.28027 0.0
C787 C 0.8546 0.08455 0.27418 0.0
C788 C 0.77977 0.11801 0.24047 0.0
C789 C 0.81514 0.11232 0.26133 0.0
C790 C 0.75711 0.12865 0.23678 0.0
C791 C 0.74687 0.14626 0.24859 0.0
C792 C 0.79242 0.12524 0.25596 0.0
C793 C 0.76048 0.15362 0.26361 0.0
C794 C 0.83097 0.12302 0.27395 0.0
C795 C 0.83893 0.07491 0.26103 0.0
N796 N 0.78254 0.14299 0.26692 0.0
N797 N 0.81981 0.08879 0.25508 0.0
H798 H 0.89567 0.35976 0.51641 0.0
H799 H 0.88542 0.22176 0.47679 0.0
H800 H 0.95824 0.31161 0.50848 0.0
H801 H 0.83396 0.24943 0.51583 0.0
H802 H 0.90855 0.26078 0.47973 0.0
H803 H 0.86933 0.3248 0.50787 0.0
C804 C 0.90404 0.3421 0.5128 0.0
C805 C 0.92949 0.33886 0.51353 0.0
C806 C 0.89201 0.25837 0.48745 0.0
C807 C 0.89923 0.29918 0.50299 0.0
C808 C 0.87876 0.2362 0.48576 0.0
C809 C 0.85788 0.23229 0.49623 0.0
C810 C 0.88402 0.27695 0.49938 0.0
C811 C 0.85013 0.25163 0.50767 0.0
C812 C 0.88889 0.32223 0.50781 0.0
C813 C 0.93895 0.31554 0.50799 0.0
N814 N 0.86323 0.27319 0.50896 0.0
N815 N 0.92384 0.29667 0.50301 0.0
H816 H 0.62198 0.1622 0.48337 0.0
H817 H 0.74382 0.10645 0.52657 0.0
H818 H 0.63164 0.08483 0.49867 0.0
H819 H 0.73965 0.18005 0.50263 0.0
H820 H 0.70043 0.10091 0.52121 0.0
H821 H 0.66262 0.17161 0.4952 0.0
C822 C 0.6325 0.1473 0.4895 0.0
C823 C 0.6236 0.12266 0.48991 0.0
C824 C 0.70894 0.11836 0.51722 0.0
C825 C 0.66999 0.1332 0.5033 0.0
C826 C 0.73375 0.12155 0.52029 0.0
C827 C 0.74548 0.14363 0.51483 0.0
C828 C 0.69567 0.13735 0.5086 0.0
C829 C 0.73139 0.16264 0.50692 0.0
C830 C 0.65572 0.15264 0.49613 0.0
C831 C 0.63801 0.104 0.49786 0.0
N832 N 0.70723 0.15898 0.50391 0.0
N833 N 0.66053 0.10963 0.50414 0.0
H834 H 0.83518 0.12325 0.73442 0.0
H835 H 0.87696 0.26331 0.75621 0.0
H836 H 0.90807 0.14274 0.75097 0.0
H837 H 0.80312 0.24278 0.74295 0.0
H838 H 0.88812 0.21899 0.75625 0.0
H839 H 0.82248 0.16637 0.73975 0.0
C840 C 0.84846 0.13646 0.73949 0.0
C841 C 0.8728 0.12926 0.7422 0.0
C842 C 0.86944 0.22415 0.75345 0.0
C843 C 0.8584 0.17904 0.74791 0.0
C844 C 0.86304 0.24948 0.7534 0.0
C845 C 0.83908 0.25682 0.74943 0.0
C846 C 0.8518 0.20597 0.74942 0.0
C847 C 0.82182 0.23803 0.746 0.0
C848 C 0.84121 0.1612 0.74238 0.0
C849 C 0.88922 0.14747 0.74842 0.0
N850 N 0.82857 0.2135 0.74595 0.0
N851 N 0.88176 0.17154 0.75094 0.0
H852 H 0.83742 0.40617 0.98395 0.0
H853 H 0.7041 0.43049 0.02309 0.0
H854 H 0.81186 0.47839 0.00209 0.0
H855 H 0.72765 0.36007 0.00035 0.0
H856 H 0.74554 0.44649 0.0201 0.0
H857 H 0.79981 0.3872 0.99489 0.0
C858 C 0.82414 0.41797 0.9906 0.0
C859 C 0.82771 0.44397 0.99195 0.0
C860 C 0.74169 0.42746 0.01591 0.0
C861 C 0.78433 0.42243 0.00416 0.0
C862 C 0.71802 0.41829 0.01761 0.0
C863 C 0.7123 0.39399 0.01175 0.0
C864 C 0.75982 0.41225 0.00826 0.0
C865 C 0.73116 0.379 0.00488 0.0
C866 C 0.80254 0.40715 0.99669 0.0
C867 C 0.80968 0.45834 0.0005 0.0
N868 N 0.75401 0.38845 0.00319 0.0
N869 N 0.78868 0.44742 0.00611 0.0
H870 H 0.59797 0.35854 0.20868 0.0
H871 H 0.64029 0.2448 0.27096 0.0
H872 H 0.55923 0.33458 0.25602 0.0
H873 H 0.6711 0.2609 0.21894 0.0
H874 H 0.61612 0.28313 0.2689 0.0
H875 H 0.63037 0.32879 0.21572 0.0
C876 C 0.59652 0.34745 0.2208 0.0
C877 C 0.57571 0.34892 0.2317 0.0
C878 C 0.62838 0.27843 0.25803 0.0
C879 C 0.61259 0.31442 0.23964 0.0
C880 C 0.64226 0.25656 0.2592 0.0
C881 C 0.65751 0.2494 0.24496 0.0
C882 C 0.62975 0.2933 0.24253 0.0
C883 C 0.6594 0.26552 0.23014 0.0
C884 C 0.61495 0.33028 0.22471 0.0
C885 C 0.57475 0.33378 0.24709 0.0
N886 N 0.64548 0.28657 0.22923 0.0
N887 N 0.5928 0.31699 0.25051 0.0
H888 H 0.11011 0.965 0.40463 0.0
H889 H 0.15085 0.83331 0.4461 0.0
H890 H 0.11128 0.89583 0.37462 0.0
H891 H 0.13383 0.89783 0.47876 0.0
H892 H 0.13819 0.85665 0.41953 0.0
H893 H 0.12083 0.94151 0.43179 0.0
C894 C 0.11264 0.94489 0.40377 0.0
C895 C 0.10973 0.93232 0.38738 0.0
C896 C 0.13711 0.86568 0.43252 0.0
C897 C 0.12198 0.9054 0.41829 0.0
C898 C 0.14438 0.85237 0.44769 0.0
C899 C 0.14342 0.86365 0.46467 0.0
C900 C 0.12905 0.89056 0.43427 0.0
C901 C 0.13482 0.88839 0.46593 0.0
C902 C 0.11861 0.93149 0.41927 0.0
C903 C 0.11304 0.90623 0.38702 0.0
N904 N 0.12809 0.90109 0.45091 0.0
N905 N 0.11909 0.89367 0.40222 0.0
H906 H 0.15857 0.53777 0.63001 0.0
H907 H 0.14013 0.64252 0.7053 0.0
H908 H 0.10457 0.59635 0.62641 0.0
H909 H 0.18204 0.57507 0.71389 0.0
H910 H 0.12786 0.62657 0.67597 0.0
H911 H 0.16854 0.55183 0.66038 0.0
C912 C 0.14882 0.55359 0.63563 0.0
C913 C 0.13076 0.56596 0.62568 0.0
C914 C 0.13964 0.61519 0.6843 0.0
C915 C 0.14204 0.58213 0.66037 0.0
C916 C 0.14671 0.62432 0.70104 0.0
C917 C 0.16221 0.61013 0.71204 0.0
C918 C 0.14831 0.59182 0.67843 0.0
C919 C 0.17007 0.58662 0.70585 0.0
C920 C 0.15441 0.56151 0.65298 0.0
C921 C 0.11847 0.58615 0.63368 0.0
N922 N 0.16316 0.57827 0.6894 0.0
N923 N 0.12446 0.59372 0.6505 0.0
H924 H 0.39442 0.59333 0.86919 0.0
H925 H 0.41177 0.6603 0.96442 0.0
H926 H 0.46063 0.63041 0.88546 0.0
H927 H 0.34384 0.62828 0.94649 0.0
H928 H 0.43094 0.64646 0.93658 0.0
H929 H 0.37665 0.60286 0.89844 0.0
C930 C 0.40532 0.60326 0.87898 0.0
C931 C 0.42904 0.61114 0.87484 0.0
C932 C 0.41187 0.64237 0.93876 0.0
C933 C 0.40869 0.62236 0.90832 0.0
C934 C 0.4009 0.65023 0.95468 0.0
C935 C 0.37611 0.64557 0.95777 0.0
C936 C 0.39797 0.62972 0.92581 0.0
C937 C 0.36298 0.63238 0.94466 0.0
C938 C 0.3951 0.60883 0.89565 0.0
C939 C 0.44217 0.62427 0.88798 0.0
N940 N 0.37405 0.62501 0.92923 0.0
N941 N 0.4318 0.62951 0.9041 0.0
H942 H 0.45821 0.85684 0.13426 0.0
H943 H 0.39735 0.91537 0.22214 0.0
H944 H 0.44706 0.93642 0.14072 0.0
H945 H 0.38601 0.83907 0.20473 0.0
H946 H 0.42108 0.92318 0.1948 0.0
H947 H 0.43775 0.84971 0.16294 0.0
C948 C 0.45174 0.87283 0.14185 0.0
C949 C 0.45428 0.89725 0.13513 0.0
C950 C 0.41336 0.90476 0.19702 0.0
C951 C 0.43072 0.88923 0.16783 0.0
C952 C 0.39988 0.90028 0.2126 0.0
C953 C 0.3896 0.87658 0.21565 0.0
C954 C 0.41687 0.88528 0.18462 0.0
C955 C 0.39344 0.85769 0.20286 0.0
C956 C 0.43988 0.86875 0.15812 0.0
C957 C 0.44526 0.91729 0.14539 0.0
N958 N 0.40684 0.86242 0.18795 0.0
N959 N 0.43387 0.91285 0.16127 0.0
H960 H 0.06778 0.54779 0.86049 0.0
H961 H 0.17532 0.61724 0.80815 0.0
H962 H 0.13974 0.55861 0.88232 0.0
H963 H 0.10588 0.59994 0.78407 0.0
H964 H 0.16297 0.59455 0.83507 0.0
H965 H 0.08174 0.56533 0.83197 0.0
C966 C 0.08656 0.5537 0.85923 0.0
C967 C 0.10259 0.55182 0.87383 0.0
C968 C 0.15046 0.5956 0.82387 0.0
C969 C 0.11868 0.57199 0.84127 0.0
C970 C 0.15749 0.60862 0.8085 0.0
C971 C 0.14155 0.61063 0.79386 0.0
C972 C 0.12726 0.58461 0.8247 0.0
C973 C 0.11872 0.59894 0.79505 0.0
C974 C 0.09454 0.56365 0.84295 0.0
C975 C 0.12681 0.55949 0.87139 0.0
N976 N 0.1122 0.58656 0.81025 0.0
N977 N 0.13405 0.56943 0.85549 0.0
H978 H 0.40193 0.60533 0.1338 0.0
H979 H 0.32545 0.61607 0.04274 0.0
H980 H 0.34151 0.55705 0.12061 0.0
H981 H 0.38538 0.66494 0.05611 0.0
H982 H 0.33196 0.59335 0.07074 0.0
H983 H 0.39722 0.62629 0.1049 0.0
C984 C 0.38781 0.59897 0.12476 0.0
C985 C 0.37209 0.57938 0.12966 0.0
C986 C 0.34374 0.609 0.06754 0.0
C987 C 0.36638 0.60357 0.0966 0.0
C988 C 0.34004 0.622 0.05154 0.0
C989 C 0.35487 0.6425 0.04707 0.0
C990 C 0.3624 0.61653 0.07922 0.0
C991 C 0.37348 0.64929 0.05901 0.0
C992 C 0.38503 0.61107 0.10829 0.0
C993 C 0.35385 0.57226 0.1175 0.0
N994 N 0.37668 0.63637 0.07455 0.0
N995 N 0.35149 0.58436 0.10156 0.0
H996 H 0.38581 0.93205 0.38222 0.0
H997 H 0.42215 0.84246 0.30027 0.0
H998 H 0.45132 0.88733 0.38132 0.0
H999 H 0.35403 0.88258 0.30402 0.0
H1000 H 0.43447 0.86051 0.32903 0.0
H1001 H 0.37533 0.91614 0.35256 0.0
C1002 C 0.39813 0.91906 0.3757 0.0
C1003 C 0.41951 0.91104 0.38427 0.0
C1004 C 0.41685 0.86538 0.32353 0.0
C1005 C 0.40742 0.89243 0.35034 0.0
C1006 C 0.40982 0.85511 0.3071 0.0
C1007 C 0.38698 0.86094 0.29975 0.0
C1008 C 0.40097 0.88165 0.33264 0.0
C1009 C 0.37176 0.87746 0.3092 0.0
C1010 C 0.39204 0.90983 0.35881 0.0
C1011 C 0.43454 0.89381 0.37529 0.0
N1012 N 0.37902 0.8872 0.32514 0.0
N1013 N 0.4282 0.88506 0.35881 0.0
H1014 H 0.07177 0.94906 0.63349 0.0
H1015 H 0.13594 0.84403 0.57298 0.0
H1016 H 0.08945 0.87462 0.65213 0.0
H1017 H 0.11258 0.91567 0.55215 0.0
H1018 H 0.11949 0.85547 0.60221 0.0
H1019 H 0.08728 0.93782 0.60375 0.0
C1020 C 0.07894 0.93038 0.63133 0.0
C1021 C 0.07924 0.91273 0.6453 0.0
C1022 C 0.1179 0.86869 0.59126 0.0
C1023 C 0.09693 0.89972 0.61134 0.0
C1024 C 0.12732 0.86218 0.57454 0.0
C1025 C 0.12566 0.87893 0.56007 0.0
C1026 C 0.10678 0.89219 0.59361 0.0
C1027 C 0.11425 0.90216 0.56292 0.0
C1028 C 0.08768 0.92394 0.61434 0.0
C1029 C 0.08853 0.88872 0.6417 0.0
N1030 N 0.10529 0.90814 0.57938 0.0
N1031 N 0.09704 0.88296 0.62512 0.0
H1032 H 0.56149 0.41744 0.87579 0.0
H1033 H 0.67047 0.35834 0.93333 0.0
H1034 H 0.63234 0.39979 0.85417 0.0
H1035 H 0.60249 0.38266 0.95667 0.0
H1036 H 0.656 0.37195 0.90399 0.0
H1037 H 0.57528 0.40309 0.9053 0.0
C1038 C 0.5799 0.41045 0.87724 0.0
C1039 C 0.59583 0.40992 0.86252 0.0
C1040 C 0.64423 0.37433 0.91552 0.0
C1041 C 0.61175 0.39359 0.8962 0.0
C1042 C 0.65248 0.36653 0.93229 0.0
C1043 C 0.63769 0.36938 0.9475 0.0
C1044 C 0.62095 0.385 0.91387 0.0
C1045 C 0.61453 0.38014 0.94531 0.0
C1046 C 0.58781 0.40239 0.89409 0.0
C1047 C 0.61956 0.4009 0.86519 0.0
N1048 N 0.60686 0.38754 0.9288 0.0
N1049 N 0.62678 0.39308 0.88168 0.0
H1050 H 0.60127 0.04824 0.1417 0.0
H1051 H 0.66059 0.15908 0.1992 0.0
H1052 H 0.64627 0.10654 0.11914 0.0
H1053 H 0.63021 0.09249 0.22335 0.0
H1054 H 0.65198 0.14176 0.16961 0.0
H1055 H 0.60851 0.06567 0.17166 0.0
C1056 C 0.61267 0.06469 0.14307 0.0
C1057 C 0.6233 0.0759 0.12794 0.0
C1058 C 0.64717 0.13093 0.18138 0.0
C1059 C 0.63153 0.09596 0.16206 0.0
C1060 C 0.65198 0.14086 0.19829 0.0
C1061 C 0.64617 0.12718 0.21379 0.0
C1062 C 0.6363 0.1072 0.17989 0.0
C1063 C 0.63507 0.10364 0.21176 0.0
C1064 C 0.61686 0.07457 0.16015 0.0
C1065 C 0.63801 0.0971 0.13046 0.0
N1066 N 0.63048 0.09438 0.19511 0.0
N1067 N 0.64161 0.10649 0.14717 0.0
H1068 H 0.86011 0.08748 0.3783 0.0
H1069 H 0.89415 0.10944 0.48064 0.0
H1070 H 0.9156 0.04395 0.40484 0.0
H1071 H 0.82469 0.13028 0.45802 0.0
H1072 H 0.904 0.08721 0.45277 0.0
H1073 H 0.84829 0.10534 0.40721 0.0
C1074 C 0.8697 0.08163 0.39029 0.0
C1075 C 0.88887 0.06432 0.38926 0.0
C1076 C 0.88655 0.09651 0.454 0.0
C1077 C 0.87566 0.08481 0.42232 0.0
C1078 C 0.88096 0.10929 0.46985 0.0
C1079 C 0.85861 0.12182 0.47162 0.0
C1080 C 0.86981 0.09662 0.43978 0.0
C1081 C 0.84214 0.1209 0.45725 0.0
C1082 C 0.86292 0.09173 0.40677 0.0
C1083 C 0.90065 0.05718 0.40515 0.0
N1084 N 0.84816 0.10872 0.44189 0.0
N1085 N 0.89404 0.06769 0.42106 0.0
H1086 H 0.99032 0.36069 0.63843 0.0
H1087 H 0.86762 0.37273 0.69586 0.0
H1088 H 0.92603 0.39992 0.62046 0.0
H1089 H 0.93117 0.33263 0.7143 0.0
H1090 H 0.88958 0.38432 0.66868 0.0
H1091 H 0.96974 0.35143 0.66679 0.0
C1092 C 0.97191 0.36738 0.64045 0.0
C1093 C 0.95992 0.38114 0.62704 0.0
C1094 C 0.89878 0.37304 0.67868 0.0
C1095 C 0.93629 0.37071 0.65947 0.0
C1096 C 0.88623 0.36641 0.69423 0.0
C1097 C 0.89753 0.35159 0.70736 0.0
C1098 C 0.92283 0.36478 0.67619 0.0
C1099 C 0.92172 0.34402 0.70451 0.0
C1100 C 0.9602 0.36218 0.65666 0.0
C1101 C 0.93615 0.38958 0.63049 0.0
N1102 N 0.93354 0.35063 0.6892 0.0
N1103 N 0.92512 0.38416 0.64631 0.0
H1104 H 0.53689 0.1422 0.37003 0.0
H1105 H 0.65185 0.12779 0.30494 0.0
H1106 H 0.59771 0.09322 0.38087 0.0
H1107 H 0.58859 0.17236 0.29202 0.0
H1108 H 0.63157 0.11364 0.33228 0.0
H1109 H 0.55483 0.15239 0.3409 0.0
C1110 C 0.55398 0.13354 0.36625 0.0
C1111 C 0.56585 0.1169 0.37793 0.0
C1112 C 0.62206 0.12641 0.32341 0.0
C1113 C 0.58648 0.12843 0.34461 0.0
C1114 C 0.63365 0.13451 0.3078 0.0
C1115 C 0.62196 0.15141 0.29621 0.0
C1116 C 0.59866 0.13536 0.32755 0.0
C1117 C 0.59833 0.15939 0.30058 0.0
C1118 C 0.56417 0.13927 0.3496 0.0
C1119 C 0.5878 0.10596 0.37224 0.0
N1120 N 0.58753 0.15142 0.31595 0.0
N1121 N 0.59748 0.11205 0.35605 0.0
H1122 H 0.90168 0.04573 0.62579 0.0
H1123 H 0.82804 0.14798 0.5698 0.0
H1124 H 0.84427 0.09048 0.64891 0.0
H1125 H 0.86239 0.08402 0.54489 0.0
H1126 H 0.83827 0.13071 0.59928 0.0
H1127 H 0.89176 0.06301 0.59618 0.0
C1128 C 0.887 0.0592 0.62459 0.0
C1129 C 0.8737 0.06666 0.63974 0.0
C1130 C 0.84354 0.12048 0.58734 0.0
C1131 C 0.86246 0.08662 0.60611 0.0
C1132 C 0.83784 0.13038 0.57053 0.0
C1133 C 0.84434 0.11738 0.55488 0.0
C1134 C 0.85618 0.09765 0.58849 0.0
C1135 C 0.85693 0.09459 0.55662 0.0
C1136 C 0.8813 0.06896 0.60774 0.0
C1137 C 0.85478 0.08408 0.63751 0.0
N1138 N 0.86255 0.08549 0.57313 0.0
N1139 N 0.84982 0.09362 0.62101 0.0
H1140 H 0.90326 0.45374 0.86214 0.0
H1141 H 0.82587 0.34289 0.81747 0.0
H1142 H 0.8563 0.4039 0.89182 0.0
H1143 H 0.87685 0.38857 0.78791 0.0
H1144 H 0.83625 0.3658 0.84471 0.0
H1145 H 0.89299 0.43112 0.83459 0.0
C1146 C 0.8907 0.43812 0.86284 0.0
C1147 C 0.88069 0.43064 0.87932 0.0
C1148 C 0.84521 0.37081 0.83228 0.0
C1149 C 0.86899 0.40459 0.8479 0.0
C1150 C 0.83929 0.35772 0.8167 0.0
C1151 C 0.85051 0.3638 0.80038 0.0
C1152 C 0.86245 0.39023 0.83156 0.0
C1153 C 0.86777 0.38322 0.80022 0.0
C1154 C 0.88496 0.42513 0.84714 0.0
C1155 C 0.86473 0.4101 0.87947 0.0
N1156 N 0.87317 0.39578 0.81557 0.0
N1157 N 0.85937 0.39783 0.86402 0.0
H1158 H 0.56455 0.41253 0.13043 0.0
H1159 H 0.55713 0.34986 0.03312 0.0
H1160 H 0.50246 0.37056 0.11159 0.0
H1161 H 0.61956 0.39073 0.05263 0.0
H1162 H 0.53547 0.36009 0.0608 0.0
H1163 H 0.58351 0.40773 0.10105 0.0
C1164 C 0.55475 0.40257 0.12005 0.0
C1165 C 0.53188 0.39187 0.12352 0.0
C1166 C 0.55386 0.36695 0.05898 0.0
C1167 C 0.55371 0.38594 0.08987 0.0
C1168 C 0.56623 0.36114 0.04316 0.0
C1169 C 0.59026 0.3693 0.0406 0.0
C1170 C 0.5656 0.381 0.07235 0.0
C1171 C 0.6011 0.38392 0.05406 0.0
C1172 C 0.56567 0.39968 0.10329 0.0
C1173 C 0.52026 0.3788 0.1096 0.0
N1174 N 0.58873 0.38917 0.06939 0.0
N1175 N 0.53134 0.37612 0.09342 0.0
loop_
_geom_bond_atom_site_label_1
_geom_bond_atom_site_label_2
_geom_bond_distance
_geom_bond_site_symmetry_2
_ccdc_geom_bond_type
H0 C27 0.929 . S
N1 C26 1.433 . S
N1 C32 1.435 . S
N1 C38 1.423 . S
H2 C28 0.930 . S
H3 C31 0.931 . S
H4 C30 0.929 . S
H5 C33 0.930 . S
H6 C34 0.932 . S
H7 C37 0.929 . S
H8 C36 0.931 . S
H9 C39 0.929 . S
H10 C43 0.932 . S
H11 C40 0.931 . S
H12 C42 0.929 . S
H13 C45 0.929 . S
H14 C46 0.930 . S
H15 C48 0.929 . S
H16 C49 0.931 . S
H17 C51 0.930 . S
H18 C52 0.932 . S
H19 C54 0.931 . S
H20 C55 0.929 . S
H21 C57 0.929 . S
H22 C58 0.931 1_455 S
H23 C60 0.929 . S
N24 C44 1.433 . S
N24 C50 1.435 . S
N24 C56 1.423 . S
H25 C61 0.932 . S
C26 N1 1.433 . S
C26 C27 1.363 . S
C26 C31 1.370 . S
C27 H0 0.929 . S
C27 C26 1.363 . S
C27 C28 1.385 . S
C28 H2 0.930 . S
C28 C27 1.385 . S
C28 C29 1.357 . S
C29 C28 1.357 . S
C29 C30 1.406 . S
C30 H4 0.929 . S
C30 C29 1.406 . S
C30 C31 1.391 . S
C31 H3 0.931 . S
C31 C26 1.370 . S
C31 C30 1.391 . S
C32 N1 1.435 . S
C32 C33 1.358 . S
C32 C37 1.371 . S
C33 H5 0.930 . S
C33 C32 1.358 . S
C33 C34 1.405 . S
C34 H6 0.932 . S
C34 C33 1.405 . S
C34 C35 1.383 . S
C35 C34 1.383 . S
C35 C36 1.393 . S
C36 H8 0.931 . S
C36 C35 1.393 . S
C36 C37 1.382 . S
C37 H7 0.929 . S
C37 C32 1.371 . S
C37 C36 1.382 . S
C38 N1 1.423 . S
C38 C39 1.362 . S
C38 C43 1.388 . S
C39 H9 0.929 . S
C39 C38 1.362 . S
C39 C40 1.376 1_565 S
C40 H11 0.931 . S
C40 C39 1.376 1_545 S
C40 C41 1.396 . S
C41 C40 1.396 . S
C41 C42 1.348 1_545 S
C41 C59 1.473 1_455 S
C42 H12 0.929 . S
C42 C41 1.348 1_565 S
C42 C43 1.443 . S
C43 H10 0.932 . S
C43 C38 1.388 . S
C43 C42 1.443 . S
C44 N24 1.433 . S
C44 C45 1.363 . S
C44 C49 1.370 . S
C45 H13 0.929 . S
C45 C44 1.363 . S
C45 C46 1.385 . S
C46 H14 0.930 . S
C46 C45 1.385 . S
C46 C47 1.357 . S
C47 C46 1.357 . S
C47 C48 1.406 . S
C48 H15 0.929 . S
C48 C47 1.406 . S
C48 C49 1.391 . S
C49 H16 0.931 . S
C49 C44 1.370 . S
C49 C48 1.391 . S
C50 N24 1.435 . S
C50 C51 1.358 . S
C50 C55 1.371 . S
C51 H17 0.930 . S
C51 C50 1.358 . S
C51 C52 1.405 . S
C52 H18 0.932 . S
C52 C51 1.405 . S
C52 C53 1.383 . S
C53 C52 1.383 . S
C53 C54 1.393 . S
C54 H19 0.931 . S
C54 C53 1.393 . S
C54 C55 1.382 . S
C55 H20 0.929 . S
C55 C50 1.371 . S
C55 C54 1.382 . S
C56 N24 1.423 . S
C56 C57 1.362 . S
C56 C61 1.388 . S
C57 H21 0.929 . S
C57 C56 1.362 . S
C57 C58 1.376 . S
C58 H22 0.931 1_655 S
C58 C57 1.376 . S
C58 C59 1.396 . S
C59 C41 1.473 1_655 S
C59 C58 1.396 . S
C59 C60 1.347 . S
C60 H23 0.929 . S
C60 C59 1.347 . S
C60 C61 1.443 . S
C61 H25 0.932 . S
C61 C56 1.388 . S
C61 C60 1.443 . S
H62 C89 0.929 . S
N63 C88 1.433 . S
N63 C94 1.435 . S
N63 C100 1.423 . S
H64 C90 0.930 . S
H65 C93 0.931 . S
H66 C92 0.929 . S
H67 C95 0.930 . S
H68 C96 0.932 . S
H69 C99 0.929 . S
H70 C98 0.931 . S
H71 C101 0.929 . S
H72 C105 0.932 . S
H73 C102 0.931 . S
H74 C104 0.929 . S
H75 C107 0.929 . S
H76 C108 0.930 . S
H77 C110 0.929 . S
H78 C111 0.931 . S
H79 C113 0.930 . S
H80 C114 0.932 . S
H81 C116 0.931 . S
H82 C117 0.929 . S
H83 C119 0.929 . S
H84 C120 0.931 . S
H85 C122 0.929 . S
N86 C106 1.433 . S
N86 C112 1.435 . S
N86 C118 1.423 . S
H87 C123 0.932 . S
C88 N63 1.433 . S
C88 C89 1.363 . S
C88 C93 1.370 . S
C89 H62 0.929 . S
C89 C88 1.363 . S
C89 C90 1.385 . S
C90 H64 0.930 . S
C90 C89 1.385 . S
C90 C91 1.357 . S
C91 C90 1.357 . S
C91 C92 1.406 . S
C92 H66 0.929 . S
C92 C91 1.406 . S
C92 C93 1.391 . S
C93 H65 0.931 . S
C93 C88 1.370 . S
C93 C92 1.391 . S
C94 N63 1.435 . S
C94 C95 1.358 . S
C94 C99 1.371 . S
C95 H67 0.930 . S
C95 C94 1.358 . S
C95 C96 1.405 . S
C96 H68 0.932 . S
C96 C95 1.405 . S
C96 C97 1.383 . S
C97 C96 1.383 . S
C97 C98 1.393 . S
C98 H70 0.931 . S
C98 C97 1.393 . S
C98 C99 1.382 . S
C99 H69 0.929 . S
C99 C94 1.371 . S
C99 C98 1.382 . S
C100 N63 1.423 . S
C100 C101 1.362 . S
C100 C105 1.388 . S
C101 H71 0.929 . S
C101 C100 1.362 . S
C101 C102 1.376 1_655 S
C102 H73 0.931 . S
C102 C101 1.376 1_455 S
C102 C103 1.396 . S
C103 C102 1.396 . S
C103 C104 1.348 1_455 S
C103 C121 1.472 . S
C104 H74 0.929 . S
C104 C103 1.348 1_655 S
C104 C105 1.443 . S
C105 H72 0.932 . S
C105 C100 1.388 . S
C105 C104 1.443 . S
C106 N86 1.433 . S
C106 C107 1.363 . S
C106 C111 1.370 . S
C107 H75 0.929 . S
C107 C106 1.363 . S
C107 C108 1.385 . S
C108 H76 0.930 . S
C108 C107 1.385 . S
C108 C109 1.357 . S
C109 C108 1.357 . S
C109 C110 1.406 . S
C110 H77 0.929 . S
C110 C109 1.406 . S
C110 C111 1.391 . S
C111 H78 0.931 . S
C111 C106 1.370 . S
C111 C110 1.391 . S
C112 N86 1.435 . S
C112 C113 1.358 . S
C112 C117 1.371 . S
C113 H79 0.930 . S
C113 C112 1.358 . S
C113 C114 1.405 . S
C114 H80 0.932 . S
C114 C113 1.405 . S
C114 C115 1.383 . S
C115 C114 1.383 . S
C115 C116 1.393 . S
C116 H81 0.931 . S
C116 C115 1.393 . S
C116 C117 1.382 . S
C117 H82 0.929 . S
C117 C112 1.371 . S
C117 C116 1.382 . S
C118 N86 1.423 . S
C118 C119 1.362 . S
C118 C123 1.388 . S
C119 H83 0.929 . S
C119 C118 1.362 . S
C119 C120 1.376 . S
C120 H84 0.931 . S
C120 C119 1.376 . S
C120 C121 1.396 . S
C121 C103 1.472 . S
C121 C120 1.396 . S
C121 C122 1.348 . S
C122 H85 0.929 . S
C122 C121 1.348 . S
C122 C123 1.443 . S
C123 H87 0.932 . S
C123 C118 1.388 . S
C123 C122 1.443 . S
H124 C151 0.929 . S
N125 C150 1.433 . S
N125 C156 1.435 . S
N125 C162 1.423 . S
H126 C152 0.930 . S
H127 C155 0.931 . S
H128 C154 0.929 . S
H129 C157 0.930 . S
H130 C158 0.932 . S
H131 C161 0.929 . S
H132 C160 0.931 . S
H133 C163 0.929 . S
H134 C167 0.932 . S
H135 C164 0.931 . S
H136 C166 0.929 . S
H137 C169 0.929 . S
H138 C170 0.930 . S
H139 C172 0.929 . S
H140 C173 0.931 . S
H141 C175 0.930 . S
H142 C176 0.932 . S
H143 C178 0.931 . S
H144 C179 0.929 . S
H145 C181 0.929 . S
H146 C182 0.931 . S
H147 C184 0.929 . S
N148 C168 1.433 . S
N148 C174 1.435 . S
N148 C180 1.423 . S
H149 C185 0.932 . S
C150 N125 1.433 . S
C150 C151 1.363 . S
C150 C155 1.370 . S
C151 H124 0.929 . S
C151 C150 1.363 . S
C151 C152 1.385 . S
C152 H126 0.930 . S
C152 C151 1.385 . S
C152 C153 1.357 . S
C153 C152 1.357 . S
C153 C154 1.406 . S
C154 H128 0.929 . S
C154 C153 1.406 . S
C154 C155 1.391 . S
C155 H127 0.931 . S
C155 C150 1.370 . S
C155 C154 1.391 . S
C156 N125 1.435 . S
C156 C157 1.358 . S
C156 C161 1.371 . S
C157 H129 0.930 . S
C157 C156 1.358 . S
C157 C158 1.405 . S
C158 H130 0.932 . S
C158 C157 1.405 . S
C158 C159 1.383 . S
C159 C158 1.383 . S
C159 C160 1.393 . S
C160 H132 0.931 . S
C160 C159 1.393 . S
C160 C161 1.382 . S
C161 H131 0.929 . S
C161 C156 1.371 . S
C161 C160 1.382 . S
C162 N125 1.423 . S
C162 C163 1.362 . S
C162 C167 1.388 . S
C163 H133 0.929 . S
C163 C162 1.362 . S
C163 C164 1.376 . S
C164 H135 0.931 . S
C164 C163 1.376 . S
C164 C165 1.396 . S
C165 C164 1.396 . S
C165 C166 1.348 . S
C165 C183 1.472 . S
C166 H136 0.929 . S
C166 C165 1.348 . S
C166 C167 1.443 . S
C167 H134 0.932 . S
C167 C162 1.388 . S
C167 C166 1.443 . S
C168 N148 1.433 . S
C168 C169 1.363 . S
C168 C173 1.370 . S
C169 H137 0.929 . S
C169 C168 1.363 . S
C169 C170 1.385 . S
C170 H138 0.930 . S
C170 C169 1.385 . S
C170 C171 1.357 . S
C171 C170 1.357 . S
C171 C172 1.406 . S
C172 H139 0.929 . S
C172 C171 1.406 . S
C172 C173 1.391 . S
C173 H140 0.931 . S
C173 C168 1.370 . S
C173 C172 1.391 . S
C174 N148 1.435 . S
C174 C175 1.358 . S
C174 C179 1.371 . S
C175 H141 0.930 . S
C175 C174 1.358 . S
C175 C176 1.405 . S
C176 H142 0.932 . S
C176 C175 1.405 . S
C176 C177 1.383 . S
C177 C176 1.383 . S
C177 C178 1.393 . S
C178 H143 0.931 . S
C178 C177 1.393 . S
C178 C179 1.382 . S
C179 H144 0.929 . S
C179 C174 1.371 . S
C179 C178 1.382 . S
C180 N148 1.423 . S
C180 C181 1.362 . S
C180 C185 1.388 . S
C181 H145 0.929 . S
C181 C180 1.362 . S
C181 C182 1.376 . S
C182 H146 0.931 . S
C182 C181 1.376 . S
C182 C183 1.396 . S
C183 C165 1.472 . S
C183 C182 1.396 . S
C183 C184 1.348 . S
C184 H147 0.929 . S
C184 C183 1.348 . S
C184 C185 1.443 . S
C185 H149 0.932 . S
C185 C180 1.388 . S
C185 C184 1.443 . S
H186 C213 0.929 . S
N187 C212 1.433 . S
N187 C218 1.435 . S
N187 C224 1.423 . S
H188 C214 0.930 . S
H189 C217 0.931 . S
H190 C216 0.929 . S
H191 C219 0.930 . S
H192 C220 0.932 . S
H193 C223 0.929 . S
H194 C222 0.931 . S
H195 C225 0.929 . S
H196 C229 0.932 . S
H197 C226 0.931 . S
H198 C228 0.929 . S
H199 C231 0.929 . S
H200 C232 0.930 . S
H201 C234 0.929 . S
H202 C235 0.931 . S
H203 C237 0.930 . S
H204 C238 0.932 . S
H205 C240 0.931 . S
H206 C241 0.929 . S
H207 C243 0.929 . S
H208 C244 0.931 1_565 S
H209 C246 0.929 . S
N210 C230 1.433 . S
N210 C236 1.435 . S
N210 C242 1.423 . S
H211 C247 0.932 . S
C212 N187 1.433 . S
C212 C213 1.363 . S
C212 C217 1.370 . S
C213 H186 0.929 . S
C213 C212 1.363 . S
C213 C214 1.385 . S
C214 H188 0.930 . S
C214 C213 1.385 . S
C214 C215 1.357 . S
C215 C214 1.357 . S
C215 C216 1.406 . S
C216 H190 0.929 . S
C216 C215 1.406 . S
C216 C217 1.391 . S
C217 H189 0.931 . S
C217 C212 1.370 . S
C217 C216 1.391 . S
C218 N187 1.435 . S
C218 C219 1.358 . S
C218 C223 1.371 . S
C219 H191 0.930 . S
C219 C218 1.358 . S
C219 C220 1.405 . S
C220 H192 0.932 . S
C220 C219 1.405 . S
C220 C221 1.383 . S
C221 C220 1.383 . S
C221 C222 1.393 . S
C222 H194 0.931 . S
C222 C221 1.393 . S
C222 C223 1.382 . S
C223 H193 0.929 . S
C223 C218 1.371 . S
C223 C222 1.382 . S
C224 N187 1.423 . S
C224 C225 1.362 . S
C224 C229 1.388 . S
C225 H195 0.929 . S
C225 C224 1.362 . S
C225 C226 1.376 . S
C226 H197 0.931 . S
C226 C225 1.376 . S
C226 C227 1.396 . S
C227 C226 1.396 . S
C227 C228 1.348 . S
C227 C245 1.489 . S
C228 H198 0.929 . S
C228 C227 1.348 . S
C228 C229 1.443 . S
C229 H196 0.932 . S
C229 C224 1.388 . S
C229 C228 1.443 . S
C230 N210 1.433 . S
C230 C231 1.363 . S
C230 C235 1.370 . S
C231 H199 0.929 . S
C231 C230 1.363 . S
C231 C232 1.385 . S
C232 H200 0.930 . S
C232 C231 1.385 . S
C232 C233 1.357 . S
C233 C232 1.357 . S
C233 C234 1.406 . S
C234 H201 0.929 . S
C234 C233 1.406 . S
C234 C235 1.391 . S
C235 H202 0.931 . S
C235 C230 1.370 . S
C235 C234 1.391 . S
C236 N210 1.435 . S
C236 C237 1.358 . S
C236 C241 1.371 . S
C237 H203 0.930 . S
C237 C236 1.358 . S
C237 C238 1.405 . S
C238 H204 0.932 . S
C238 C237 1.405 . S
C238 C239 1.383 . S
C239 C238 1.383 . S
C239 C240 1.393 . S
C240 H205 0.931 . S
C240 C239 1.393 . S
C240 C241 1.382 . S
C241 H206 0.929 . S
C241 C236 1.371 . S
C241 C240 1.382 . S
C242 N210 1.423 . S
C242 C243 1.362 . S
C242 C247 1.388 . S
C243 H207 0.929 . S
C243 C242 1.362 . S
C243 C244 1.376 . S
C244 H208 0.931 1_545 S
C244 C243 1.376 . S
C244 C245 1.394 1_545 S
C245 C227 1.489 . S
C245 C244 1.394 1_565 S
C245 C246 1.332 1_565 S
C246 H209 0.929 . S
C246 C245 1.332 1_545 S
C246 C247 1.443 . S
C247 H211 0.932 . S
C247 C242 1.388 . S
C247 C246 1.443 . S
H248 C275 0.929 . S
N249 C274 1.433 . S
N249 C280 1.435 . S
N249 C286 1.423 . S
H250 C276 0.930 . S
H251 C279 0.931 . S
H252 C278 0.929 . S
H253 C281 0.930 . S
H254 C282 0.932 . S
H255 C285 0.929 . S
H256 C284 0.931 . S
H257 C287 0.929 . S
H258 C291 0.932 . S
H259 C288 0.931 . S
H260 C290 0.929 . S
H261 C293 0.929 . S
H262 C294 0.930 . S
H263 C296 0.929 . S
H264 C297 0.931 . S
H265 C299 0.930 . S
H266 C300 0.932 . S
H267 C302 0.931 . S
H268 C303 0.929 . S
H269 C305 0.929 . S
H270 C306 0.931 1_455 S
H271 C308 0.929 . S
N272 C292 1.433 . S
N272 C298 1.435 . S
N272 C304 1.423 . S
H273 C309 0.932 . S
C274 N249 1.433 . S
C274 C275 1.363 . S
C274 C279 1.370 . S
C275 H248 0.929 . S
C275 C274 1.363 . S
C275 C276 1.385 . S
C276 H250 0.930 . S
C276 C275 1.385 . S
C276 C277 1.357 . S
C277 C276 1.357 . S
C277 C278 1.406 . S
C278 H252 0.929 . S
C278 C277 1.406 . S
C278 C279 1.391 . S
C279 H251 0.931 . S
C279 C274 1.370 . S
C279 C278 1.391 . S
C280 N249 1.435 . S
C280 C281 1.358 . S
C280 C285 1.371 . S
C281 H253 0.930 . S
C281 C280 1.358 . S
C281 C282 1.405 . S
C282 H254 0.932 . S
C282 C281 1.405 . S
C282 C283 1.383 . S
C283 C282 1.383 . S
C283 C284 1.393 . S
C284 H256 0.931 . S
C284 C283 1.393 . S
C284 C285 1.382 . S
C285 H255 0.929 . S
C285 C280 1.371 . S
C285 C284 1.382 . S
C286 N249 1.423 . S
C286 C287 1.362 . S
C286 C291 1.388 . S
C287 H257 0.929 . S
C287 C286 1.362 . S
C287 C288 1.376 . S
C288 H259 0.931 . S
C288 C287 1.376 . S
C288 C289 1.396 . S
C289 C288 1.396 . S
C289 C290 1.348 . S
C289 C307 1.473 1_455 S
C290 H260 0.929 . S
C290 C289 1.348 . S
C290 C291 1.443 . S
C291 H258 0.932 . S
C291 C286 1.388 . S
C291 C290 1.443 . S
C292 N272 1.433 . S
C292 C293 1.363 . S
C292 C297 1.370 . S
C293 H261 0.929 . S
C293 C292 1.363 . S
C293 C294 1.385 . S
C294 H262 0.930 . S
C294 C293 1.385 . S
C294 C295 1.357 . S
C295 C294 1.357 . S
C295 C296 1.406 . S
C296 H263 0.929 . S
C296 C295 1.406 . S
C296 C297 1.391 . S
C297 H264 0.931 . S
C297 C292 1.370 . S
C297 C296 1.391 . S
C298 N272 1.435 . S
C298 C299 1.358 . S
C298 C303 1.371 . S
C299 H265 0.930 . S
C299 C298 1.358 . S
C299 C300 1.405 . S
C300 H266 0.932 . S
C300 C299 1.405 . S
C300 C301 1.383 . S
C301 C300 1.383 . S
C301 C302 1.393 . S
C302 H267 0.931 . S
C302 C301 1.393 . S
C302 C303 1.382 . S
C303 H268 0.929 . S
C303 C298 1.371 . S
C303 C302 1.382 . S
C304 N272 1.423 . S
C304 C305 1.362 . S
C304 C309 1.388 . S
C305 H269 0.929 . S
C305 C304 1.362 . S
C305 C306 1.376 . S
C306 H270 0.931 1_655 S
C306 C305 1.376 . S
C306 C307 1.396 . S
C307 C289 1.473 1_655 S
C307 C306 1.396 . S
C307 C308 1.347 . S
C308 H271 0.929 . S
C308 C307 1.347 . S
C308 C309 1.443 . S
C309 H273 0.932 . S
C309 C304 1.388 . S
C309 C308 1.443 . S
H310 C337 0.929 . S
N311 C336 1.433 . S
N311 C342 1.435 . S
N311 C348 1.423 . S
H312 C338 0.930 . S
H313 C341 0.931 . S
H314 C340 0.929 . S
H315 C343 0.930 . S
H316 C344 0.932 . S
H317 C347 0.929 . S
H318 C346 0.931 . S
H319 C349 0.929 . S
H320 C353 0.932 . S
H321 C350 0.931 . S
H322 C352 0.929 . S
H323 C355 0.929 . S
H324 C356 0.930 . S
H325 C358 0.929 . S
H326 C359 0.931 . S
H327 C361 0.930 . S
H328 C362 0.932 . S
H329 C364 0.931 . S
H330 C365 0.929 . S
H331 C367 0.929 . S
H332 C368 0.931 . S
H333 C370 0.929 . S
N334 C354 1.433 . S
N334 C360 1.435 . S
N334 C366 1.423 . S
H335 C371 0.932 . S
C336 N311 1.433 . S
C336 C337 1.363 . S
C336 C341 1.370 . S
C337 H310 0.929 . S
C337 C336 1.363 . S
C337 C338 1.385 . S
C338 H312 0.930 . S
C338 C337 1.385 . S
C338 C339 1.357 . S
C339 C338 1.357 . S
C339 C340 1.406 . S
C340 H314 0.929 . S
C340 C339 1.406 . S
C340 C341 1.391 . S
C341 H313 0.931 . S
C341 C336 1.370 . S
C341 C340 1.391 . S
C342 N311 1.435 . S
C342 C343 1.358 . S
C342 C347 1.371 . S
C343 H315 0.930 . S
C343 C342 1.358 . S
C343 C344 1.405 . S
C344 H316 0.932 . S
C344 C343 1.405 . S
C344 C345 1.383 . S
C345 C344 1.383 . S
C345 C346 1.393 . S
C346 H318 0.931 . S
C346 C345 1.393 . S
C346 C347 1.382 . S
C347 H317 0.929 . S
C347 C342 1.371 . S
C347 C346 1.382 . S
C348 N311 1.423 . S
C348 C349 1.362 . S
C348 C353 1.388 . S
C349 H319 0.929 . S
C349 C348 1.362 . S
C349 C350 1.376 . S
C350 H321 0.931 . S
C350 C349 1.376 . S
C350 C351 1.396 . S
C351 C350 1.396 . S
C351 C352 1.348 . S
C351 C369 1.472 . S
C352 H322 0.929 . S
C352 C351 1.348 . S
C352 C353 1.443 . S
C353 H320 0.932 . S
C353 C348 1.388 . S
C353 C352 1.443 . S
C354 N334 1.433 . S
C354 C355 1.363 . S
C354 C359 1.370 . S
C355 H323 0.929 . S
C355 C354 1.363 . S
C355 C356 1.385 . S
C356 H324 0.930 . S
C356 C355 1.385 . S
C356 C357 1.357 . S
C357 C356 1.357 . S
C357 C358 1.406 . S
C358 H325 0.929 . S
C358 C357 1.406 . S
C358 C359 1.391 . S
C359 H326 0.931 . S
C359 C354 1.370 . S
C359 C358 1.391 . S
C360 N334 1.435 . S
C360 C361 1.358 . S
C360 C365 1.371 . S
C361 H327 0.930 . S
C361 C360 1.358 . S
C361 C362 1.405 . S
C362 H328 0.932 . S
C362 C361 1.405 . S
C362 C363 1.383 . S
C363 C362 1.383 . S
C363 C364 1.393 . S
C364 H329 0.931 . S
C364 C363 1.393 . S
C364 C365 1.382 . S
C365 H330 0.929 . S
C365 C360 1.371 . S
C365 C364 1.382 . S
C366 N334 1.423 . S
C366 C367 1.362 . S
C366 C371 1.388 . S
C367 H331 0.929 . S
C367 C366 1.362 . S
C367 C368 1.376 . S
C368 H332 0.931 . S
C368 C367 1.376 . S
C368 C369 1.396 . S
C369 C351 1.472 . S
C369 C368 1.396 . S
C369 C370 1.348 . S
C370 H333 0.929 . S
C370 C369 1.348 . S
C370 C371 1.443 . S
C371 H335 0.932 . S
C371 C366 1.388 . S
C371 C370 1.443 . S
H372 C399 0.929 . S
N373 C398 1.433 . S
N373 C404 1.435 . S
N373 C410 1.423 . S
H374 C400 0.930 . S
H375 C403 0.931 . S
H376 C402 0.929 . S
H377 C405 0.930 . S
H378 C406 0.932 . S
H379 C409 0.929 . S
H380 C408 0.931 . S
H381 C411 0.929 . S
H382 C415 0.932 . S
H383 C412 0.931 . S
H384 C414 0.929 . S
H385 C417 0.929 . S
H386 C418 0.930 . S
H387 C420 0.929 . S
H388 C421 0.931 . S
H389 C423 0.930 . S
H390 C424 0.932 . S
H391 C426 0.931 . S
H392 C427 0.929 . S
H393 C429 0.929 . S
H394 C430 0.931 . S
H395 C432 0.929 . S
N396 C416 1.433 . S
N396 C422 1.435 . S
N396 C428 1.423 . S
H397 C433 0.932 . S
C398 N373 1.433 . S
C398 C399 1.363 . S
C398 C403 1.370 . S
C399 H372 0.929 . S
C399 C398 1.363 . S
C399 C400 1.385 . S
C400 H374 0.930 . S
C400 C399 1.385 . S
C400 C401 1.357 . S
C401 C400 1.357 . S
C401 C402 1.406 . S
C402 H376 0.929 . S
C402 C401 1.406 . S
C402 C403 1.391 . S
C403 H375 0.931 . S
C403 C398 1.370 . S
C403 C402 1.391 . S
C404 N373 1.435 . S
C404 C405 1.358 . S
C404 C409 1.371 . S
C405 H377 0.930 . S
C405 C404 1.358 . S
C405 C406 1.405 . S
C406 H378 0.932 . S
C406 C405 1.405 . S
C406 C407 1.383 . S
C407 C406 1.383 . S
C407 C408 1.393 . S
C408 H380 0.931 . S
C408 C407 1.393 . S
C408 C409 1.382 . S
C409 H379 0.929 . S
C409 C404 1.371 . S
C409 C408 1.382 . S
C410 N373 1.423 . S
C410 C411 1.362 . S
C410 C415 1.388 . S
C411 H381 0.929 . S
C411 C410 1.362 . S
C411 C412 1.376 1_565 S
C412 H383 0.931 . S
C412 C411 1.376 1_545 S
C412 C413 1.396 . S
C413 C412 1.396 . S
C413 C414 1.348 1_545 S
C413 C431 1.472 . S
C414 H384 0.929 . S
C414 C413 1.348 1_565 S
C414 C415 1.443 . S
C415 H382 0.932 . S
C415 C410 1.388 . S
C415 C414 1.443 . S
C416 N396 1.433 . S
C416 C417 1.363 . S
C416 C421 1.370 . S
C417 H385 0.929 . S
C417 C416 1.363 . S
C417 C418 1.385 . S
C418 H386 0.930 . S
C418 C417 1.385 . S
C418 C419 1.357 . S
C419 C418 1.357 . S
C419 C420 1.406 . S
C420 H387 0.929 . S
C420 C419 1.406 . S
C420 C421 1.391 . S
C421 H388 0.931 . S
C421 C416 1.370 . S
C421 C420 1.391 . S
C422 N396 1.435 . S
C422 C423 1.358 . S
C422 C427 1.371 . S
C423 H389 0.930 . S
C423 C422 1.358 . S
C423 C424 1.405 . S
C424 H390 0.932 . S
C424 C423 1.405 . S
C424 C425 1.383 . S
C425 C424 1.383 . S
C425 C426 1.393 . S
C426 H391 0.931 . S
C426 C425 1.393 . S
C426 C427 1.382 . S
C427 H392 0.929 . S
C427 C422 1.371 . S
C427 C426 1.382 . S
C428 N396 1.423 . S
C428 C429 1.362 . S
C428 C433 1.388 . S
C429 H393 0.929 . S
C429 C428 1.362 . S
C429 C430 1.376 . S
C430 H394 0.931 . S
C430 C429 1.376 . S
C430 C431 1.396 . S
C431 C413 1.472 . S
C431 C430 1.396 . S
C431 C432 1.348 . S
C432 H395 0.929 . S
C432 C431 1.348 . S
C432 C433 1.443 . S
C433 H397 0.932 . S
C433 C428 1.388 . S
C433 C432 1.443 . S
H434 C461 0.929 . S
N435 C460 1.433 . S
N435 C466 1.435 . S
N435 C472 1.423 . S
H436 C462 0.930 . S
H437 C465 0.931 . S
H438 C464 0.929 . S
H439 C467 0.930 . S
H440 C468 0.932 . S
H441 C471 0.929 . S
H442 C470 0.931 . S
H443 C473 0.929 . S
H444 C477 0.932 . S
H445 C474 0.931 . S
H446 C476 0.929 . S
H447 C479 0.929 . S
H448 C480 0.930 . S
H449 C482 0.929 . S
H450 C483 0.931 . S
H451 C485 0.930 . S
H452 C486 0.932 . S
H453 C488 0.931 . S
H454 C489 0.929 . S
H455 C491 0.929 . S
H456 C492 0.931 1_565 S
H457 C494 0.929 . S
N458 C478 1.433 . S
N458 C484 1.435 . S
N458 C490 1.423 . S
H459 C495 0.932 . S
C460 N435 1.433 . S
C460 C461 1.363 . S
C460 C465 1.370 . S
C461 H434 0.929 . S
C461 C460 1.363 . S
C461 C462 1.385 . S
C462 H436 0.930 . S
C462 C461 1.385 . S
C462 C463 1.357 . S
C463 C462 1.357 . S
C463 C464 1.406 . S
C464 H438 0.929 . S
C464 C463 1.406 . S
C464 C465 1.391 . S
C465 H437 0.931 . S
C465 C460 1.370 . S
C465 C464 1.391 . S
C466 N435 1.435 . S
C466 C467 1.358 . S
C466 C471 1.371 . S
C467 H439 0.930 . S
C467 C466 1.358 . S
C467 C468 1.405 . S
C468 H440 0.932 . S
C468 C467 1.405 . S
C468 C469 1.383 . S
C469 C468 1.383 . S
C469 C470 1.393 . S
C470 H442 0.931 . S
C470 C469 1.393 . S
C470 C471 1.382 . S
C471 H441 0.929 . S
C471 C466 1.371 . S
C471 C470 1.382 . S
C472 N435 1.423 . S
C472 C473 1.362 . S
C472 C477 1.388 . S
C473 H443 0.929 . S
C473 C472 1.362 . S
C473 C474 1.376 1_455 S
C474 H445 0.931 . S
C474 C473 1.376 1_655 S
C474 C475 1.396 . S
C475 C474 1.396 . S
C475 C476 1.348 1_655 S
C475 C493 1.489 . S
C476 H446 0.929 . S
C476 C475 1.348 1_455 S
C476 C477 1.443 . S
C477 H444 0.932 . S
C477 C472 1.388 . S
C477 C476 1.443 . S
C478 N458 1.433 . S
C478 C479 1.363 . S
C478 C483 1.370 . S
C479 H447 0.929 . S
C479 C478 1.363 . S
C479 C480 1.385 . S
C480 H448 0.930 . S
C480 C479 1.385 . S
C480 C481 1.357 . S
C481 C480 1.357 . S
C481 C482 1.406 . S
C482 H449 0.929 . S
C482 C481 1.406 . S
C482 C483 1.391 . S
C483 H450 0.931 . S
C483 C478 1.370 . S
C483 C482 1.391 . S
C484 N458 1.435 . S
C484 C485 1.358 . S
C484 C489 1.371 . S
C485 H451 0.930 . S
C485 C484 1.358 . S
C485 C486 1.405 . S
C486 H452 0.932 . S
C486 C485 1.405 . S
C486 C487 1.383 . S
C487 C486 1.383 . S
C487 C488 1.393 . S
C488 H453 0.931 . S
C488 C487 1.393 . S
C488 C489 1.382 . S
C489 H454 0.929 . S
C489 C484 1.371 . S
C489 C488 1.382 . S
C490 N458 1.423 . S
C490 C491 1.362 . S
C490 C495 1.388 . S
C491 H455 0.929 . S
C491 C490 1.362 . S
C491 C492 1.376 . S
C492 H456 0.931 1_545 S
C492 C491 1.376 . S
C492 C493 1.394 1_545 S
C493 C475 1.489 . S
C493 C492 1.394 1_565 S
C493 C494 1.332 1_565 S
C494 H457 0.929 . S
C494 C493 1.332 1_545 S
C494 C495 1.443 . S
C495 H459 0.932 . S
C495 C490 1.388 . S
C495 C494 1.443 . S
C496 O497 1.160 . S
C496 O503 1.185 . S
O497 C496 1.160 . S
O498 Zn499 1.899 . S
O498 C506 1.284 . S
Zn499 O498 1.899 . S
Zn499 O500 2.032 1_554 S
Zn499 O503 2.086 . S
Zn499 O508 1.977 . S
O500 Zn499 2.032 1_556 S
O500 C504 1.278 . S
C501 O502 1.203 . S
C501 O508 1.267 . S
O502 C501 1.203 . S
O503 C496 1.185 . S
O503 Zn499 2.086 . S
C504 O500 1.278 . S
C504 O505 1.211 . S
O505 C504 1.211 . S
C506 O498 1.284 . S
C506 O507 1.273 . S
O507 C506 1.273 . S
O508 Zn499 1.977 . S
O508 C501 1.267 . S
C509 O510 1.160 . S
C509 O516 1.185 . S
O510 C509 1.160 . S
O511 Zn512 1.899 . S
O511 C519 1.284 . S
Zn512 O511 1.899 . S
Zn512 O513 2.032 . S
Zn512 O516 2.086 . S
Zn512 O521 1.977 . S
O513 Zn512 2.032 . S
O513 C517 1.278 . S
C514 O515 1.203 . S
C514 O521 1.267 . S
O515 C514 1.203 . S
O516 C509 1.185 . S
O516 Zn512 2.086 . S
C517 O513 1.278 . S
C517 O518 1.211 . S
O518 C517 1.211 . S
C519 O511 1.284 . S
C519 O520 1.273 . S
O520 C519 1.273 . S
O521 Zn512 1.977 . S
O521 C514 1.267 . S
C522 O523 1.160 . S
C522 O529 1.185 . S
O523 C522 1.160 . S
O524 Zn525 1.899 . S
O524 C532 1.284 . S
Zn525 O524 1.899 . S
Zn525 O526 2.032 . S
Zn525 O529 2.086 . S
Zn525 O534 1.977 . S
O526 Zn525 2.032 . S
O526 C530 1.278 . S
C527 O528 1.203 . S
C527 O534 1.267 . S
O528 C527 1.203 . S
O529 C522 1.185 . S
O529 Zn525 2.086 . S
C530 O526 1.278 . S
C530 O531 1.211 . S
O531 C530 1.211 . S
C532 O524 1.284 . S
C532 O533 1.273 . S
O533 C532 1.273 . S
O534 Zn525 1.977 . S
O534 C527 1.267 . S
C535 O536 1.160 . S
C535 O542 1.185 . S
O536 C535 1.160 . S
O537 Zn538 1.899 . S
O537 C545 1.284 . S
Zn538 O537 1.899 . S
Zn538 O539 2.032 . S
Zn538 O542 2.086 . S
Zn538 O547 1.977 . S
O539 Zn538 2.032 . S
O539 C543 1.278 . S
C540 O541 1.203 . S
C540 O547 1.267 . S
O541 C540 1.203 . S
O542 C535 1.185 . S
O542 Zn538 2.086 . S
C543 O539 1.278 . S
C543 O544 1.211 . S
O544 C543 1.211 . S
C545 O537 1.284 . S
C545 O546 1.273 . S
O546 C545 1.273 . S
O547 Zn538 1.977 . S
O547 C540 1.267 . S
C548 O549 1.160 . S
C548 O555 1.185 . S
O549 C548 1.160 . S
O550 Zn551 1.899 . S
O550 C558 1.284 . S
Zn551 O550 1.899 . S
Zn551 O552 2.032 . S
Zn551 O555 2.086 . S
Zn551 O560 1.977 . S
O552 Zn551 2.032 . S
O552 C556 1.278 . S
C553 O554 1.203 . S
C553 O560 1.267 . S
O554 C553 1.203 . S
O555 C548 1.185 . S
O555 Zn551 2.086 . S
C556 O552 1.278 . S
C556 O557 1.211 . S
O557 C556 1.211 . S
C558 O550 1.284 . S
C558 O559 1.273 . S
O559 C558 1.273 . S
O560 Zn551 1.977 . S
O560 C553 1.267 . S
C561 O562 1.160 . S
C561 O568 1.185 . S
O562 C561 1.160 . S
O563 Zn564 1.899 . S
O563 C571 1.284 . S
Zn564 O563 1.899 . S
Zn564 O565 2.032 . S
Zn564 O568 2.086 . S
Zn564 O573 1.977 . S
O565 Zn564 2.032 . S
O565 C569 1.278 . S
C566 O567 1.203 . S
C566 O573 1.267 . S
O567 C566 1.203 . S
O568 C561 1.185 . S
O568 Zn564 2.086 . S
C569 O565 1.278 . S
C569 O570 1.211 . S
O570 C569 1.211 . S
C571 O563 1.284 . S
C571 O572 1.273 . S
O572 C571 1.273 . S
O573 Zn564 1.977 . S
O573 C566 1.267 . S
C574 O575 1.160 . S
C574 O581 1.185 . S
O575 C574 1.160 . S
O576 Zn577 1.899 . S
O576 C584 1.284 . S
Zn577 O576 1.899 . S
Zn577 O578 2.032 1_554 S
Zn577 O581 2.086 . S
Zn577 O586 1.977 . S
O578 Zn577 2.032 1_556 S
O578 C582 1.278 . S
C579 O580 1.203 . S
C579 O586 1.267 . S
O580 C579 1.203 . S
O581 C574 1.185 . S
O581 Zn577 2.086 . S
C582 O578 1.278 . S
C582 O583 1.211 . S
O583 C582 1.211 . S
C584 O576 1.284 . S
C584 O585 1.273 . S
O585 C584 1.273 . S
O586 Zn577 1.977 . S
O586 C579 1.267 . S
C587 O588 1.160 . S
C587 O594 1.185 . S
O588 C587 1.160 . S
O589 Zn590 1.899 . S
O589 C597 1.284 . S
Zn590 O589 1.899 . S
Zn590 O591 2.032 . S
Zn590 O594 2.086 . S
Zn590 O599 1.977 . S
O591 Zn590 2.032 . S
O591 C595 1.278 . S
C592 O593 1.203 . S
C592 O599 1.267 . S
O593 C592 1.203 . S
O594 C587 1.185 . S
O594 Zn590 2.086 . S
C595 O591 1.278 . S
C595 O596 1.211 . S
O596 C595 1.211 . S
C597 O589 1.284 . S
C597 O598 1.273 . S
O598 C597 1.273 . S
O599 Zn590 1.977 . S
O599 C592 1.267 . S
H600 C606 0.930 . S
H601 C610 0.930 . S
H602 C615 0.929 . S
H603 C613 0.929 . S
H604 C608 0.929 . S
H605 C614 0.929 . S
C606 H600 0.930 . S
C606 C607 1.367 . S
C606 C614 1.378 . S
C607 C606 1.367 . S
C607 C615 1.433 . S
C608 H604 0.929 . S
C608 C610 1.378 . S
C608 C612 1.350 . S
C609 C612 1.463 . S
C609 C614 1.350 . S
C609 N617 1.427 . S
C610 H601 0.930 . S
C610 C608 1.378 . S
C610 C611 1.367 . S
C611 C610 1.367 . S
C611 C613 1.433 . S
C612 C608 1.350 . S
C612 C609 1.463 . S
C612 N616 1.427 . S
C613 H603 0.929 . S
C613 C611 1.433 . S
C613 N616 1.384 . S
C614 H605 0.929 . S
C614 C606 1.378 . S
C614 C609 1.350 . S
C615 H602 0.929 . S
C615 C607 1.433 . S
C615 N617 1.384 . S
N616 C612 1.427 . S
N616 C613 1.384 . S
N617 C609 1.427 . S
N617 C615 1.384 . S
H618 C624 0.930 . S
H619 C628 0.930 . S
H620 C633 0.929 . S
H621 C631 0.929 . S
H622 C626 0.929 . S
H623 C632 0.929 . S
C624 H618 0.930 . S
C624 C625 1.367 . S
C624 C632 1.378 . S
C625 C624 1.367 . S
C625 C633 1.433 . S
C626 H622 0.929 . S
C626 C628 1.378 . S
C626 C630 1.350 . S
C627 C630 1.463 . S
C627 C632 1.350 . S
C627 N635 1.427 . S
C628 H619 0.930 . S
C628 C626 1.378 . S
C628 C629 1.367 . S
C629 C628 1.367 . S
C629 C631 1.433 . S
C630 C626 1.350 . S
C630 C627 1.463 . S
C630 N634 1.427 . S
C631 H621 0.929 . S
C631 C629 1.433 . S
C631 N634 1.384 . S
C632 H623 0.929 . S
C632 C624 1.378 . S
C632 C627 1.350 . S
C633 H620 0.929 . S
C633 C625 1.433 . S
C633 N635 1.384 . S
N634 C630 1.427 . S
N634 C631 1.384 . S
N635 C627 1.427 . S
N635 C633 1.384 . S
H636 C642 0.930 . S
H637 C646 0.930 . S
H638 C651 0.929 . S
H639 C649 0.929 . S
H640 C644 0.929 . S
H641 C650 0.929 . S
C642 H636 0.930 . S
C642 C643 1.367 . S
C642 C650 1.378 . S
C643 C642 1.367 . S
C643 C651 1.433 . S
C644 H640 0.929 . S
C644 C646 1.378 . S
C644 C648 1.350 . S
C645 C648 1.463 . S
C645 C650 1.350 . S
C645 N653 1.427 . S
C646 H637 0.930 . S
C646 C644 1.378 . S
C646 C647 1.367 . S
C647 C646 1.367 . S
C647 C649 1.433 . S
C648 C644 1.350 . S
C648 C645 1.463 . S
C648 N652 1.427 . S
C649 H639 0.929 . S
C649 C647 1.433 . S
C649 N652 1.384 . S
C650 H641 0.929 . S
C650 C642 1.378 . S
C650 C645 1.350 . S
C651 H638 0.929 . S
C651 C643 1.433 . S
C651 N653 1.384 . S
N652 C648 1.427 . S
N652 C649 1.384 . S
N653 C645 1.427 . S
N653 C651 1.384 . S
H654 C660 0.930 . S
H655 C664 0.930 1_556 S
H656 C669 0.929 1_556 S
H657 C667 0.929 . S
H658 C662 0.929 1_556 S
H659 C668 0.929 . S
C660 H654 0.930 . S
C660 C661 1.367 . S
C660 C668 1.378 . S
C661 C660 1.367 . S
C661 C669 1.433 . S
C662 H658 0.929 1_554 S
C662 C664 1.378 . S
C662 C666 1.350 . S
C663 C666 1.463 . S
C663 C668 1.350 . S
C663 N671 1.427 . S
C664 H655 0.930 1_554 S
C664 C662 1.378 . S
C664 C665 1.367 . S
C665 C664 1.367 . S
C665 C667 1.433 . S
C666 C662 1.350 . S
C666 C663 1.463 . S
C666 N670 1.427 . S
C667 H657 0.929 . S
C667 C665 1.433 . S
C667 N670 1.384 . S
C668 H659 0.929 . S
C668 C660 1.378 . S
C668 C663 1.350 . S
C669 H656 0.929 1_554 S
C669 C661 1.433 . S
C669 N671 1.384 . S
N670 C666 1.427 . S
N670 C667 1.384 . S
N671 C663 1.427 . S
N671 C669 1.384 . S
H672 C678 0.930 . S
H673 C682 0.930 . S
H674 C687 0.929 . S
H675 C685 0.929 . S
H676 C680 0.929 . S
H677 C686 0.929 . S
C678 H672 0.930 . S
C678 C679 1.367 . S
C678 C686 1.378 . S
C679 C678 1.367 . S
C679 C687 1.433 1_556 S
C680 H676 0.929 . S
C680 C682 1.378 . S
C680 C684 1.350 1_554 S
C681 C684 1.463 . S
C681 C686 1.350 . S
C681 N689 1.427 1_556 S
C682 H673 0.930 . S
C682 C680 1.378 . S
C682 C683 1.337 1_554 S
C683 C682 1.337 1_556 S
C683 C685 1.467 . S
C684 C680 1.350 1_556 S
C684 C681 1.463 . S
C684 N688 1.427 . S
C685 H675 0.929 . S
C685 C683 1.467 . S
C685 N688 1.384 . S
C686 H677 0.929 . S
C686 C678 1.378 . S
C686 C681 1.350 . S
C687 H674 0.929 . S
C687 C679 1.433 1_554 S
C687 N689 1.384 . S
N688 C684 1.427 . S
N688 C685 1.384 . S
N689 C681 1.427 1_554 S
N689 C687 1.384 . S
H690 C696 0.930 . S
H691 C700 0.930 . S
H692 C705 0.929 . S
H693 C703 0.929 . S
H694 C698 0.929 . S
H695 C704 0.929 . S
C696 H690 0.930 . S
C696 C697 1.367 . S
C696 C704 1.378 . S
C697 C696 1.367 . S
C697 C705 1.433 . S
C698 H694 0.929 . S
C698 C700 1.378 . S
C698 C702 1.350 . S
C699 C702 1.463 . S
C699 C704 1.350 . S
C699 N707 1.427 . S
C700 H691 0.930 . S
C700 C698 1.378 . S
C700 C701 1.367 . S
C701 C700 1.367 . S
C701 C703 1.433 . S
C702 C698 1.350 . S
C702 C699 1.463 . S
C702 N706 1.427 . S
C703 H693 0.929 . S
C703 C701 1.433 . S
C703 N706 1.384 . S
C704 H695 0.929 . S
C704 C696 1.378 . S
C704 C699 1.350 . S
C705 H692 0.929 . S
C705 C697 1.433 . S
C705 N707 1.384 . S
N706 C702 1.427 . S
N706 C703 1.384 . S
N707 C699 1.427 . S
N707 C705 1.384 . S
H708 C714 0.930 . S
H709 C718 0.930 . S
H710 C723 0.929 . S
H711 C721 0.929 . S
H712 C716 0.929 . S
H713 C722 0.929 . S
C714 H708 0.930 . S
C714 C715 1.367 . S
C714 C722 1.378 . S
C715 C714 1.367 . S
C715 C723 1.433 . S
C716 H712 0.929 . S
C716 C718 1.378 . S
C716 C720 1.350 . S
C717 C720 1.463 . S
C717 C722 1.350 . S
C717 N725 1.427 . S
C718 H709 0.930 . S
C718 C716 1.378 . S
C718 C719 1.367 . S
C719 C718 1.367 . S
C719 C721 1.433 . S
C720 C716 1.350 . S
C720 C717 1.463 . S
C720 N724 1.427 . S
C721 H711 0.929 . S
C721 C719 1.433 . S
C721 N724 1.384 . S
C722 H713 0.929 . S
C722 C714 1.378 . S
C722 C717 1.350 . S
C723 H710 0.929 . S
C723 C715 1.433 . S
C723 N725 1.384 . S
N724 C720 1.427 . S
N724 C721 1.384 . S
N725 C717 1.427 . S
N725 C723 1.384 . S
H726 C732 0.930 . S
H727 C736 0.930 . S
H728 C741 0.929 . S
H729 C739 0.929 . S
H730 C734 0.929 . S
H731 C740 0.929 . S
C732 H726 0.930 . S
C732 C733 1.367 . S
C732 C740 1.378 . S
C733 C732 1.367 . S
C733 C741 1.433 . S
C734 H730 0.929 . S
C734 C736 1.378 . S
C734 C738 1.350 . S
C735 C738 1.463 . S
C735 C740 1.350 . S
C735 N743 1.427 . S
C736 H727 0.930 . S
C736 C734 1.378 . S
C736 C737 1.367 . S
C737 C736 1.367 . S
C737 C739 1.433 . S
C738 C734 1.350 . S
C738 C735 1.463 . S
C738 N742 1.427 . S
C739 H729 0.929 . S
C739 C737 1.433 . S
C739 N742 1.384 . S
C740 H731 0.929 . S
C740 C732 1.378 . S
C740 C735 1.350 . S
C741 H728 0.929 . S
C741 C733 1.433 . S
C741 N743 1.384 . S
N742 C738 1.427 . S
N742 C739 1.384 . S
N743 C735 1.427 . S
N743 C741 1.384 . S
H744 C750 0.930 . S
H745 C754 0.930 . S
H746 C759 0.929 . S
H747 C757 0.929 . S
H748 C752 0.929 . S
H749 C758 0.929 . S
C750 H744 0.930 . S
C750 C751 1.367 . S
C750 C758 1.378 . S
C751 C750 1.367 . S
C751 C759 1.433 . S
C752 H748 0.929 . S
C752 C754 1.378 . S
C752 C756 1.350 . S
C753 C756 1.463 . S
C753 C758 1.350 . S
C753 N761 1.427 . S
C754 H745 0.930 . S
C754 C752 1.378 . S
C754 C755 1.367 . S
C755 C754 1.367 . S
C755 C757 1.433 . S
C756 C752 1.350 . S
C756 C753 1.463 . S
C756 N760 1.427 . S
C757 H747 0.929 . S
C757 C755 1.433 . S
C757 N760 1.384 . S
C758 H749 0.929 . S
C758 C750 1.378 . S
C758 C753 1.350 . S
C759 H746 0.929 . S
C759 C751 1.433 . S
C759 N761 1.384 . S
N760 C756 1.427 . S
N760 C757 1.384 . S
N761 C753 1.427 . S
N761 C759 1.384 . S
H762 C768 0.935 . S
H763 C772 0.930 . S
H764 C777 0.929 . S
H765 C775 0.929 . S
H766 C770 0.929 . S
H767 C776 0.950 . S
C768 H762 0.935 . S
C768 C769 1.362 1_556 S
C768 C776 1.378 . S
C769 C768 1.362 1_554 S
C769 C777 1.433 . S
C770 H766 0.929 . S
C770 C772 1.378 . S
C770 C774 1.350 . S
C771 C774 1.463 . S
C771 C776 1.329 1_554 S
C771 N779 1.427 . S
C772 H763 0.930 . S
C772 C770 1.378 . S
C772 C773 1.367 . S
C773 C772 1.367 . S
C773 C775 1.433 1_554 S
C774 C770 1.350 . S
C774 C771 1.463 . S
C774 N778 1.427 1_554 S
C775 H765 0.929 . S
C775 C773 1.433 1_556 S
C775 N778 1.384 . S
C776 H767 0.950 . S
C776 C768 1.378 . S
C776 C771 1.329 1_556 S
C777 H764 0.929 . S
C777 C769 1.433 . S
C777 N779 1.384 . S
N778 C774 1.427 1_556 S
N778 C775 1.384 . S
N779 C771 1.427 . S
N779 C777 1.384 . S
H780 C786 0.930 . S
H781 C790 0.930 . S
H782 C795 0.929 . S
H783 C793 0.929 . S
H784 C788 0.929 . S
H785 C794 0.929 . S
C786 H780 0.930 . S
C786 C787 1.367 . S
C786 C794 1.378 . S
C787 C786 1.367 . S
C787 C795 1.433 . S
C788 H784 0.929 . S
C788 C790 1.378 . S
C788 C792 1.350 . S
C789 C792 1.463 . S
C789 C794 1.350 . S
C789 N797 1.427 . S
C790 H781 0.930 . S
C790 C788 1.378 . S
C790 C791 1.367 . S
C791 C790 1.367 . S
C791 C793 1.433 . S
C792 C788 1.350 . S
C792 C789 1.463 . S
C792 N796 1.427 . S
C793 H783 0.929 . S
C793 C791 1.433 . S
C793 N796 1.384 . S
C794 H785 0.929 . S
C794 C786 1.378 . S
C794 C789 1.350 . S
C795 H782 0.929 . S
C795 C787 1.433 . S
C795 N797 1.384 . S
N796 C792 1.427 . S
N796 C793 1.384 . S
N797 C789 1.427 . S
N797 C795 1.384 . S
H798 C804 0.930 . S
H799 C808 0.930 . S
H800 C813 0.929 . S
H801 C811 0.929 . S
H802 C806 0.929 . S
H803 C812 0.929 . S
C804 H798 0.930 . S
C804 C805 1.367 . S
C804 C812 1.378 . S
C805 C804 1.367 . S
C805 C813 1.433 . S
C806 H802 0.929 . S
C806 C808 1.378 . S
C806 C810 1.350 . S
C807 C810 1.463 . S
C807 C812 1.350 . S
C807 N815 1.427 . S
C808 H799 0.930 . S
C808 C806 1.378 . S
C808 C809 1.367 . S
C809 C808 1.367 . S
C809 C811 1.433 . S
C810 C806 1.350 . S
C810 C807 1.463 . S
C810 N814 1.427 . S
C811 H801 0.929 . S
C811 C809 1.433 . S
C811 N814 1.384 . S
C812 H803 0.929 . S
C812 C804 1.378 . S
C812 C807 1.350 . S
C813 H800 0.929 . S
C813 C805 1.433 . S
C813 N815 1.384 . S
N814 C810 1.427 . S
N814 C811 1.384 . S
N815 C807 1.427 . S
N815 C813 1.384 . S
H816 C822 0.930 . S
H817 C826 0.930 . S
H818 C831 0.929 . S
H819 C829 0.929 . S
H820 C824 0.929 . S
H821 C830 0.929 . S
C822 H816 0.930 . S
C822 C823 1.367 . S
C822 C830 1.378 . S
C823 C822 1.367 . S
C823 C831 1.433 . S
C824 H820 0.929 . S
C824 C826 1.378 . S
C824 C828 1.350 . S
C825 C828 1.463 . S
C825 C830 1.350 . S
C825 N833 1.427 . S
C826 H817 0.930 . S
C826 C824 1.378 . S
C826 C827 1.367 . S
C827 C826 1.367 . S
C827 C829 1.433 . S
C828 C824 1.350 . S
C828 C825 1.463 . S
C828 N832 1.427 . S
C829 H819 0.929 . S
C829 C827 1.433 . S
C829 N832 1.384 . S
C830 H821 0.929 . S
C830 C822 1.378 . S
C830 C825 1.350 . S
C831 H818 0.929 . S
C831 C823 1.433 . S
C831 N833 1.384 . S
N832 C828 1.427 . S
N832 C829 1.384 . S
N833 C825 1.427 . S
N833 C831 1.384 . S
H834 C840 0.930 . S
H835 C844 0.930 . S
H836 C849 0.929 . S
H837 C847 0.929 . S
H838 C842 0.929 . S
H839 C848 0.929 . S
C840 H834 0.930 . S
C840 C841 1.367 . S
C840 C848 1.378 . S
C841 C840 1.367 . S
C841 C849 1.433 . S
C842 H838 0.929 . S
C842 C844 1.378 . S
C842 C846 1.350 . S
C843 C846 1.463 . S
C843 C848 1.350 . S
C843 N851 1.427 . S
C844 H835 0.930 . S
C844 C842 1.378 . S
C844 C845 1.367 . S
C845 C844 1.367 . S
C845 C847 1.433 . S
C846 C842 1.350 . S
C846 C843 1.463 . S
C846 N850 1.427 . S
C847 H837 0.929 . S
C847 C845 1.433 . S
C847 N850 1.384 . S
C848 H839 0.929 . S
C848 C840 1.378 . S
C848 C843 1.350 . S
C849 H836 0.929 . S
C849 C841 1.433 . S
C849 N851 1.384 . S
N850 C846 1.427 . S
N850 C847 1.384 . S
N851 C843 1.427 . S
N851 C849 1.384 . S
H852 C858 0.930 . S
H853 C862 0.930 . S
H854 C867 0.929 . S
H855 C865 0.929 . S
H856 C860 0.929 . S
H857 C866 0.929 . S
C858 H852 0.930 . S
C858 C859 1.367 . S
C858 C866 1.378 . S
C859 C858 1.367 . S
C859 C867 1.433 1_556 S
C860 H856 0.929 . S
C860 C862 1.378 . S
C860 C864 1.350 1_554 S
C861 C864 1.463 . S
C861 C866 1.350 . S
C861 N869 1.427 1_556 S
C862 H853 0.930 . S
C862 C860 1.378 . S
C862 C863 1.332 1_554 S
C863 C862 1.332 1_556 S
C863 C865 1.472 . S
C864 C860 1.350 1_556 S
C864 C861 1.463 . S
C864 N868 1.427 . S
C865 H855 0.929 . S
C865 C863 1.472 . S
C865 N868 1.384 . S
C866 H857 0.929 . S
C866 C858 1.378 . S
C866 C861 1.350 . S
C867 H854 0.929 . S
C867 C859 1.433 1_554 S
C867 N869 1.384 . S
N868 C864 1.427 . S
N868 C865 1.384 . S
N869 C861 1.427 1_554 S
N869 C867 1.384 . S
H870 C876 0.930 . S
H871 C880 0.930 . S
H872 C885 0.929 . S
H873 C883 0.929 . S
H874 C878 0.929 . S
H875 C884 0.929 . S
C876 H870 0.930 . S
C876 C877 1.367 . S
C876 C884 1.378 . S
C877 C876 1.367 . S
C877 C885 1.433 . S
C878 H874 0.929 . S
C878 C880 1.378 . S
C878 C882 1.350 . S
C879 C882 1.463 . S
C879 C884 1.350 . S
C879 N887 1.427 . S
C880 H871 0.930 . S
C880 C878 1.378 . S
C880 C881 1.367 . S
C881 C880 1.367 . S
C881 C883 1.433 . S
C882 C878 1.350 . S
C882 C879 1.463 . S
C882 N886 1.427 . S
C883 H873 0.929 . S
C883 C881 1.433 . S
C883 N886 1.384 . S
C884 H875 0.929 . S
C884 C876 1.378 . S
C884 C879 1.350 . S
C885 H872 0.929 . S
C885 C877 1.433 . S
C885 N887 1.384 . S
N886 C882 1.427 . S
N886 C883 1.384 . S
N887 C879 1.427 . S
N887 C885 1.384 . S
H888 C894 0.930 . S
H889 C898 0.930 . S
H890 C903 0.929 . S
H891 C901 0.929 . S
H892 C896 0.929 . S
H893 C902 0.929 . S
C894 H888 0.930 . S
C894 C895 1.367 . S
C894 C902 1.378 . S
C895 C894 1.367 . S
C895 C903 1.433 . S
C896 H892 0.929 . S
C896 C898 1.378 . S
C896 C900 1.350 . S
C897 C900 1.463 . S
C897 C902 1.350 . S
C897 N905 1.427 . S
C898 H889 0.930 . S
C898 C896 1.378 . S
C898 C899 1.367 . S
C899 C898 1.367 . S
C899 C901 1.433 . S
C900 C896 1.350 . S
C900 C897 1.463 . S
C900 N904 1.427 . S
C901 H891 0.929 . S
C901 C899 1.433 . S
C901 N904 1.384 . S
C902 H893 0.929 . S
C902 C894 1.378 . S
C902 C897 1.350 . S
C903 H890 0.929 . S
C903 C895 1.433 . S
C903 N905 1.384 . S
N904 C900 1.427 . S
N904 C901 1.384 . S
N905 C897 1.427 . S
N905 C903 1.384 . S
H906 C912 0.930 . S
H907 C916 0.930 . S
H908 C921 0.929 . S
H909 C919 0.929 . S
H910 C914 0.929 . S
H911 C920 0.929 . S
C912 H906 0.930 . S
C912 C913 1.367 . S
C912 C920 1.378 . S
C913 C912 1.367 . S
C913 C921 1.433 . S
C914 H910 0.929 . S
C914 C916 1.378 . S
C914 C918 1.350 . S
C915 C918 1.463 . S
C915 C920 1.350 . S
C915 N923 1.427 . S
C916 H907 0.930 . S
C916 C914 1.378 . S
C916 C917 1.367 . S
C917 C916 1.367 . S
C917 C919 1.433 . S
C918 C914 1.350 . S
C918 C915 1.463 . S
C918 N922 1.427 . S
C919 H909 0.929 . S
C919 C917 1.433 . S
C919 N922 1.384 . S
C920 H911 0.929 . S
C920 C912 1.378 . S
C920 C915 1.350 . S
C921 H908 0.929 . S
C921 C913 1.433 . S
C921 N923 1.384 . S
N922 C918 1.427 . S
N922 C919 1.384 . S
N923 C915 1.427 . S
N923 C921 1.384 . S
H924 C930 0.930 . S
H925 C934 0.930 . S
H926 C939 0.929 . S
H927 C937 0.929 . S
H928 C932 0.929 . S
H929 C938 0.929 . S
C930 H924 0.930 . S
C930 C931 1.367 . S
C930 C938 1.378 . S
C931 C930 1.367 . S
C931 C939 1.433 . S
C932 H928 0.929 . S
C932 C934 1.378 . S
C932 C936 1.350 . S
C933 C936 1.463 . S
C933 C938 1.350 . S
C933 N941 1.427 . S
C934 H925 0.930 . S
C934 C932 1.378 . S
C934 C935 1.367 . S
C935 C934 1.367 . S
C935 C937 1.433 . S
C936 C932 1.350 . S
C936 C933 1.463 . S
C936 N940 1.427 . S
C937 H927 0.929 . S
C937 C935 1.433 . S
C937 N940 1.384 . S
C938 H929 0.929 . S
C938 C930 1.378 . S
C938 C933 1.350 . S
C939 H926 0.929 . S
C939 C931 1.433 . S
C939 N941 1.384 . S
N940 C936 1.427 . S
N940 C937 1.384 . S
N941 C933 1.427 . S
N941 C939 1.384 . S
H942 C948 0.930 . S
H943 C952 0.930 . S
H944 C957 0.929 . S
H945 C955 0.929 . S
H946 C950 0.929 . S
H947 C956 0.929 . S
C948 H942 0.930 . S
C948 C949 1.367 . S
C948 C956 1.378 . S
C949 C948 1.367 . S
C949 C957 1.433 . S
C950 H946 0.929 . S
C950 C952 1.378 . S
C950 C954 1.350 . S
C951 C954 1.463 . S
C951 C956 1.350 . S
C951 N959 1.427 . S
C952 H943 0.930 . S
C952 C950 1.378 . S
C952 C953 1.367 . S
C953 C952 1.367 . S
C953 C955 1.433 . S
C954 C950 1.350 . S
C954 C951 1.463 . S
C954 N958 1.427 . S
C955 H945 0.929 . S
C955 C953 1.433 . S
C955 N958 1.384 . S
C956 H947 0.929 . S
C956 C948 1.378 . S
C956 C951 1.350 . S
C957 H944 0.929 . S
C957 C949 1.433 . S
C957 N959 1.384 . S
N958 C954 1.427 . S
N958 C955 1.384 . S
N959 C951 1.427 . S
N959 C957 1.384 . S
H960 C966 0.930 . S
H961 C970 0.930 . S
H962 C975 0.929 . S
H963 C973 0.929 . S
H964 C968 0.929 . S
H965 C974 0.929 . S
C966 H960 0.930 . S
C966 C967 1.367 . S
C966 C974 1.378 . S
C967 C966 1.367 . S
C967 C975 1.433 . S
C968 H964 0.929 . S
C968 C970 1.378 . S
C968 C972 1.350 . S
C969 C972 1.463 . S
C969 C974 1.350 . S
C969 N977 1.427 . S
C970 H961 0.930 . S
C970 C968 1.378 . S
C970 C971 1.367 . S
C971 C970 1.367 . S
C971 C973 1.433 . S
C972 C968 1.350 . S
C972 C969 1.463 . S
C972 N976 1.427 . S
C973 H963 0.929 . S
C973 C971 1.433 . S
C973 N976 1.384 . S
C974 H965 0.929 . S
C974 C966 1.378 . S
C974 C969 1.350 . S
C975 H962 0.929 . S
C975 C967 1.433 . S
C975 N977 1.384 . S
N976 C972 1.427 . S
N976 C973 1.384 . S
N977 C969 1.427 . S
N977 C975 1.384 . S
H978 C984 0.930 . S
H979 C988 0.930 . S
H980 C993 0.929 . S
H981 C991 0.929 . S
H982 C986 0.929 . S
H983 C992 0.929 . S
C984 H978 0.930 . S
C984 C985 1.367 . S
C984 C992 1.378 . S
C985 C984 1.367 . S
C985 C993 1.433 . S
C986 H982 0.929 . S
C986 C988 1.378 . S
C986 C990 1.350 . S
C987 C990 1.463 . S
C987 C992 1.350 . S
C987 N995 1.427 . S
C988 H979 0.930 . S
C988 C986 1.378 . S
C988 C989 1.367 . S
C989 C988 1.367 . S
C989 C991 1.433 . S
C990 C986 1.350 . S
C990 C987 1.463 . S
C990 N994 1.427 . S
C991 H981 0.929 . S
C991 C989 1.433 . S
C991 N994 1.384 . S
C992 H983 0.929 . S
C992 C984 1.378 . S
C992 C987 1.350 . S
C993 H980 0.929 . S
C993 C985 1.433 . S
C993 N995 1.384 . S
N994 C990 1.427 . S
N994 C991 1.384 . S
N995 C987 1.427 . S
N995 C993 1.384 . S
H996 C1002 0.930 . S
H997 C1006 0.930 . S
H998 C1011 0.929 . S
H999 C1009 0.929 . S
H1000 C1004 0.929 . S
H1001 C1010 0.929 . S
C1002 H996 0.930 . S
C1002 C1003 1.367 . S
C1002 C1010 1.378 . S
C1003 C1002 1.367 . S
C1003 C1011 1.433 . S
C1004 H1000 0.929 . S
C1004 C1006 1.378 . S
C1004 C1008 1.350 . S
C1005 C1008 1.463 . S
C1005 C1010 1.350 . S
C1005 N1013 1.427 . S
C1006 H997 0.930 . S
C1006 C1004 1.378 . S
C1006 C1007 1.367 . S
C1007 C1006 1.367 . S
C1007 C1009 1.433 . S
C1008 C1004 1.350 . S
C1008 C1005 1.463 . S
C1008 N1012 1.427 . S
C1009 H999 0.929 . S
C1009 C1007 1.433 . S
C1009 N1012 1.384 . S
C1010 H1001 0.929 . S
C1010 C1002 1.378 . S
C1010 C1005 1.350 . S
C1011 H998 0.929 . S
C1011 C1003 1.433 . S
C1011 N1013 1.384 . S
N1012 C1008 1.427 . S
N1012 C1009 1.384 . S
N1013 C1005 1.427 . S
N1013 C1011 1.384 . S
H1014 C1020 0.930 . S
H1015 C1024 0.930 . S
H1016 C1029 0.929 . S
H1017 C1027 0.929 . S
H1018 C1022 0.929 . S
H1019 C1028 0.929 . S
C1020 H1014 0.930 . S
C1020 C1021 1.367 . S
C1020 C1028 1.378 . S
C1021 C1020 1.367 . S
C1021 C1029 1.433 . S
C1022 H1018 0.929 . S
C1022 C1024 1.378 . S
C1022 C1026 1.350 . S
C1023 C1026 1.463 . S
C1023 C1028 1.350 . S
C1023 N1031 1.427 . S
C1024 H1015 0.930 . S
C1024 C1022 1.378 . S
C1024 C1025 1.367 . S
C1025 C1024 1.367 . S
C1025 C1027 1.433 . S
C1026 C1022 1.350 . S
C1026 C1023 1.463 . S
C1026 N1030 1.427 . S
C1027 H1017 0.929 . S
C1027 C1025 1.433 . S
C1027 N1030 1.384 . S
C1028 H1019 0.929 . S
C1028 C1020 1.378 . S
C1028 C1023 1.350 . S
C1029 H1016 0.929 . S
C1029 C1021 1.433 . S
C1029 N1031 1.384 . S
N1030 C1026 1.427 . S
N1030 C1027 1.384 . S
N1031 C1023 1.427 . S
N1031 C1029 1.384 . S
H1032 C1038 0.930 . S
H1033 C1042 0.930 . S
H1034 C1047 0.929 . S
H1035 C1045 0.929 . S
H1036 C1040 0.929 . S
H1037 C1046 0.929 . S
C1038 H1032 0.930 . S
C1038 C1039 1.367 . S
C1038 C1046 1.378 . S
C1039 C1038 1.367 . S
C1039 C1047 1.433 . S
C1040 H1036 0.929 . S
C1040 C1042 1.378 . S
C1040 C1044 1.350 . S
C1041 C1044 1.463 . S
C1041 C1046 1.350 . S
C1041 N1049 1.427 . S
C1042 H1033 0.930 . S
C1042 C1040 1.378 . S
C1042 C1043 1.367 . S
C1043 C1042 1.367 . S
C1043 C1045 1.433 . S
C1044 C1040 1.350 . S
C1044 C1041 1.463 . S
C1044 N1048 1.427 . S
C1045 H1035 0.929 . S
C1045 C1043 1.433 . S
C1045 N1048 1.384 . S
C1046 H1037 0.929 . S
C1046 C1038 1.378 . S
C1046 C1041 1.350 . S
C1047 H1034 0.929 . S
C1047 C1039 1.433 . S
C1047 N1049 1.384 . S
N1048 C1044 1.427 . S
N1048 C1045 1.384 . S
N1049 C1041 1.427 . S
N1049 C1047 1.384 . S
H1050 C1056 0.930 . S
H1051 C1060 0.930 . S
H1052 C1065 0.929 . S
H1053 C1063 0.929 . S
H1054 C1058 0.929 . S
H1055 C1064 0.929 . S
C1056 H1050 0.930 . S
C1056 C1057 1.367 . S
C1056 C1064 1.378 . S
C1057 C1056 1.367 . S
C1057 C1065 1.433 . S
C1058 H1054 0.929 . S
C1058 C1060 1.378 . S
C1058 C1062 1.350 . S
C1059 C1062 1.463 . S
C1059 C1064 1.350 . S
C1059 N1067 1.427 . S
C1060 H1051 0.930 . S
C1060 C1058 1.378 . S
C1060 C1061 1.367 . S
C1061 C1060 1.367 . S
C1061 C1063 1.433 . S
C1062 C1058 1.350 . S
C1062 C1059 1.463 . S
C1062 N1066 1.427 . S
C1063 H1053 0.929 . S
C1063 C1061 1.433 . S
C1063 N1066 1.384 . S
C1064 H1055 0.929 . S
C1064 C1056 1.378 . S
C1064 C1059 1.350 . S
C1065 H1052 0.929 . S
C1065 C1057 1.433 . S
C1065 N1067 1.384 . S
N1066 C1062 1.427 . S
N1066 C1063 1.384 . S
N1067 C1059 1.427 . S
N1067 C1065 1.384 . S
H1068 C1074 0.930 . S
H1069 C1078 0.930 . S
H1070 C1083 0.929 . S
H1071 C1081 0.929 . S
H1072 C1076 0.929 . S
H1073 C1082 0.929 . S
C1074 H1068 0.930 . S
C1074 C1075 1.367 . S
C1074 C1082 1.378 . S
C1075 C1074 1.367 . S
C1075 C1083 1.433 . S
C1076 H1072 0.929 . S
C1076 C1078 1.378 . S
C1076 C1080 1.350 . S
C1077 C1080 1.463 . S
C1077 C1082 1.350 . S
C1077 N1085 1.427 . S
C1078 H1069 0.930 . S
C1078 C1076 1.378 . S
C1078 C1079 1.367 . S
C1079 C1078 1.367 . S
C1079 C1081 1.433 . S
C1080 C1076 1.350 . S
C1080 C1077 1.463 . S
C1080 N1084 1.427 . S
C1081 H1071 0.929 . S
C1081 C1079 1.433 . S
C1081 N1084 1.384 . S
C1082 H1073 0.929 . S
C1082 C1074 1.378 . S
C1082 C1077 1.350 . S
C1083 H1070 0.929 . S
C1083 C1075 1.433 . S
C1083 N1085 1.384 . S
N1084 C1080 1.427 . S
N1084 C1081 1.384 . S
N1085 C1077 1.427 . S
N1085 C1083 1.384 . S
H1086 C1092 0.930 . S
H1087 C1096 0.930 . S
H1088 C1101 0.929 . S
H1089 C1099 0.929 . S
H1090 C1094 0.929 . S
H1091 C1100 0.929 . S
C1092 H1086 0.930 . S
C1092 C1093 1.367 . S
C1092 C1100 1.378 . S
C1093 C1092 1.367 . S
C1093 C1101 1.433 . S
C1094 H1090 0.929 . S
C1094 C1096 1.378 . S
C1094 C1098 1.350 . S
C1095 C1098 1.463 . S
C1095 C1100 1.350 . S
C1095 N1103 1.427 . S
C1096 H1087 0.930 . S
C1096 C1094 1.378 . S
C1096 C1097 1.367 . S
C1097 C1096 1.367 . S
C1097 C1099 1.433 . S
C1098 C1094 1.350 . S
C1098 C1095 1.463 . S
C1098 N1102 1.427 . S
C1099 H1089 0.929 . S
C1099 C1097 1.433 . S
C1099 N1102 1.384 . S
C1100 H1091 0.929 . S
C1100 C1092 1.378 . S
C1100 C1095 1.350 . S
C1101 H1088 0.929 . S
C1101 C1093 1.433 . S
C1101 N1103 1.384 . S
N1102 C1098 1.427 . S
N1102 C1099 1.384 . S
N1103 C1095 1.427 . S
N1103 C1101 1.384 . S
H1104 C1110 0.930 . S
H1105 C1114 0.930 . S
H1106 C1119 0.929 . S
H1107 C1117 0.929 . S
H1108 C1112 0.929 . S
H1109 C1118 0.929 . S
C1110 H1104 0.930 . S
C1110 C1111 1.367 . S
C1110 C1118 1.378 . S
C1111 C1110 1.367 . S
C1111 C1119 1.433 . S
C1112 H1108 0.929 . S
C1112 C1114 1.378 . S
C1112 C1116 1.350 . S
C1113 C1116 1.463 . S
C1113 C1118 1.350 . S
C1113 N1121 1.427 . S
C1114 H1105 0.930 . S
C1114 C1112 1.378 . S
C1114 C1115 1.367 . S
C1115 C1114 1.367 . S
C1115 C1117 1.433 . S
C1116 C1112 1.350 . S
C1116 C1113 1.463 . S
C1116 N1120 1.427 . S
C1117 H1107 0.929 . S
C1117 C1115 1.433 . S
C1117 N1120 1.384 . S
C1118 H1109 0.929 . S
C1118 C1110 1.378 . S
C1118 C1113 1.350 . S
C1119 H1106 0.929 . S
C1119 C1111 1.433 . S
C1119 N1121 1.384 . S
N1120 C1116 1.427 . S
N1120 C1117 1.384 . S
N1121 C1113 1.427 . S
N1121 C1119 1.384 . S
H1122 C1128 0.930 . S
H1123 C1132 0.930 . S
H1124 C1137 0.929 . S
H1125 C1135 0.929 . S
H1126 C1130 0.929 . S
H1127 C1136 0.929 . S
C1128 H1122 0.930 . S
C1128 C1129 1.367 . S
C1128 C1136 1.378 . S
C1129 C1128 1.367 . S
C1129 C1137 1.433 . S
C1130 H1126 0.929 . S
C1130 C1132 1.378 . S
C1130 C1134 1.350 . S
C1131 C1134 1.463 . S
C1131 C1136 1.350 . S
C1131 N1139 1.427 . S
C1132 H1123 0.930 . S
C1132 C1130 1.378 . S
C1132 C1133 1.367 . S
C1133 C1132 1.367 . S
C1133 C1135 1.433 . S
C1134 C1130 1.350 . S
C1134 C1131 1.463 . S
C1134 N1138 1.427 . S
C1135 H1125 0.929 . S
C1135 C1133 1.433 . S
C1135 N1138 1.384 . S
C1136 H1127 0.929 . S
C1136 C1128 1.378 . S
C1136 C1131 1.350 . S
C1137 H1124 0.929 . S
C1137 C1129 1.433 . S
C1137 N1139 1.384 . S
N1138 C1134 1.427 . S
N1138 C1135 1.384 . S
N1139 C1131 1.427 . S
N1139 C1137 1.384 . S
H1140 C1146 0.930 . S
H1141 C1150 0.930 . S
H1142 C1155 0.929 . S
H1143 C1153 0.929 . S
H1144 C1148 0.929 . S
H1145 C1154 0.929 . S
C1146 H1140 0.930 . S
C1146 C1147 1.367 . S
C1146 C1154 1.378 . S
C1147 C1146 1.367 . S
C1147 C1155 1.433 . S
C1148 H1144 0.929 . S
C1148 C1150 1.378 . S
C1148 C1152 1.350 . S
C1149 C1152 1.463 . S
C1149 C1154 1.350 . S
C1149 N1157 1.427 . S
C1150 H1141 0.930 . S
C1150 C1148 1.378 . S
C1150 C1151 1.367 . S
C1151 C1150 1.367 . S
C1151 C1153 1.433 . S
C1152 C1148 1.350 . S
C1152 C1149 1.463 . S
C1152 N1156 1.427 . S
C1153 H1143 0.929 . S
C1153 C1151 1.433 . S
C1153 N1156 1.384 . S
C1154 H1145 0.929 . S
C1154 C1146 1.378 . S
C1154 C1149 1.350 . S
C1155 H1142 0.929 . S
C1155 C1147 1.433 . S
C1155 N1157 1.384 . S
N1156 C1152 1.427 . S
N1156 C1153 1.384 . S
N1157 C1149 1.427 . S
N1157 C1155 1.384 . S
H1158 C1164 0.930 . S
H1159 C1168 0.930 . S
H1160 C1173 0.929 . S
H1161 C1171 0.929 . S
H1162 C1166 0.929 . S
H1163 C1172 0.929 . S
C1164 H1158 0.930 . S
C1164 C1165 1.367 . S
C1164 C1172 1.378 . S
C1165 C1164 1.367 . S
C1165 C1173 1.433 . S
C1166 H1162 0.929 . S
C1166 C1168 1.378 . S
C1166 C1170 1.350 . S
C1167 C1170 1.463 . S
C1167 C1172 1.350 . S
C1167 N1175 1.427 . S
C1168 H1159 0.930 . S
C1168 C1166 1.378 . S
C1168 C1169 1.367 . S
C1169 C1168 1.367 . S
C1169 C1171 1.433 . S
C1170 C1166 1.350 . S
C1170 C1167 1.463 . S
C1170 N1174 1.427 . S
C1171 H1161 0.929 . S
C1171 C1169 1.433 . S
C1171 N1174 1.384 . S
C1172 H1163 0.929 . S
C1172 C1164 1.378 . S
C1172 C1167 1.350 . S
C1173 H1160 0.929 . S
C1173 C1165 1.433 . S
C1173 N1175 1.384 . S
N1174 C1170 1.427 . S
N1174 C1171 1.384 . S
N1175 C1167 1.427 . S
N1175 C1173 1.384 . S
C611 C509 1.424 . S
C607 C35 1.337 . S
C629 C527 1.464 . S
C625 C115 1.368 . S
C647 C535 1.418 . S
C643 C177 1.358 . S
C661 C221 1.347 . S
C665 C501 1.458 . S
C679 C283 1.342 . S
C683 C496 1.397 1_556 S
C697 C363 1.353 . S
C701 C514 1.461 . S
C719 C522 1.418 . S
C715 C407 1.339 . S
C737 C540 1.452 . S
C733 C469 1.367 . S
C751 C159 1.343 . S
C755 C561 1.415 . S
C773 C579 1.453 . S
C769 C239 1.372 . S
C787 C53 1.353 . S
C791 C587 1.420 . S
C809 C553 1.450 . S
C805 C97 1.364 . S
C823 C425 1.357 . S
C827 C548 1.416 . S
C841 C487 1.352 . S
C845 C566 1.454 . S
C863 C574 1.404 1_556 S
C859 C301 1.350 . S
C877 C345 1.344 . S
C881 C592 1.456 . S
C899 C530 1.672 . S
C895 C29 1.653 . S
C917 C545 1.637 . S
C913 C109 1.612 . S
C931 C171 1.623 . S
C935 C504 1.671 . S
C949 C215 1.645 . S
C953 C519 1.637 . S
C967 C277 1.653 . S
C971 C543 1.671 . S
C989 C506 1.642 . S
C985 C357 1.621 . S
C1007 C517 1.672 . S
C1003 C401 1.646 . S
C1025 C532 1.644 . S
C1021 C463 1.653 . S
C1043 C582 1.673 . S
C1039 C153 1.653 . S
C1061 C597 1.638 . S
C1057 C233 1.614 . S
C1075 C47 1.610 . S
C1079 C556 1.671 . S
C1097 C571 1.643 . S
C1093 C91 1.654 . S
C1115 C595 1.674 . S
C1111 C419 1.607 . S
C1129 C481 1.617 . S
C1133 C558 1.640 . S
C1151 C569 1.672 . S
C1147 C295 1.624 . S
C1169 C584 1.633 . S
C1165 C339 1.647 . S
