# Generated by pormake.
# Topology anh, (6,3)-cn, num edge types: 1
# Building blocks:
#     Node 0, Type 0, BuildingBlock: NUHQIS_clean_sbu_0, # of connection points: 6
#     Node 1, Type 0, BuildingBlock: NUHQIS_clean_sbu_0, # of connection points: 6
#     Node 2, Type 0, BuildingBlock: NUHQIS_clean_sbu_0, # of connection points: 6
#     Node 3, Type 1, BuildingBlock: BETDAH_clean_linker_0, # of connection points: 3
#     Node 4, Type 1, BuildingBlock: BETDAH_clean_linker_0, # of connection points: 3
#     Node 5, Type 1, BuildingBlock: BETDAH_clean_linker_0, # of connection points: 3
#     Node 6, Type 1, BuildingBlock: BETDAH_clean_linker_0, # of connection points: 3
#     Node 7, Type 1, BuildingBlock: BETDAH_clean_linker_0, # of connection points: 3
#     Node 8, Type 1, BuildingBlock: BETDAH_clean_linker_0, # of connection points: 3
#     Edge 9, Type (0, 1), BuildingBlock: OJICUG_clean_linker_0, # of connection points: 2
#     Edge 10, Type (0, 1), BuildingBlock: OJICUG_clean_linker_0, # of connection points: 2
#     Edge 11, Type (0, 1), BuildingBlock: OJICUG_clean_linker_0, # of connection points: 2
#     Edge 12, Type (0, 1), BuildingBlock: OJICUG_clean_linker_0, # of connection points: 2
#     Edge 13, Type (0, 1), BuildingBlock: OJICUG_clean_linker_0, # of connection points: 2
#     Edge 14, Type (0, 1), BuildingBlock: OJICUG_clean_linker_0, # of connection points: 2
#     Edge 15, Type (0, 1), BuildingBlock: OJICUG_clean_linker_0, # of connection points: 2
#     Edge 16, Type (0, 1), BuildingBlock: OJICUG_clean_linker_0, # of connection points: 2
#     Edge 17, Type (0, 1), BuildingBlock: OJICUG_clean_linker_0, # of connection points: 2
#     Edge 18, Type (0, 1), BuildingBlock: OJICUG_clean_linker_0, # of connection points: 2
#     Edge 19, Type (0, 1), BuildingBlock: OJICUG_clean_linker_0, # of connection points: 2
#     Edge 20, Type (0, 1), BuildingBlock: OJICUG_clean_linker_0, # of connection points: 2
#     Edge 21, Type (0, 1), BuildingBlock: OJICUG_clean_linker_0, # of connection points: 2
#     Edge 22, Type (0, 1), BuildingBlock: OJICUG_clean_linker_0, # of connection points: 2
#     Edge 23, Type (0, 1), BuildingBlock: OJICUG_clean_linker_0, # of connection points: 2
#     Edge 24, Type (0, 1), BuildingBlock: OJICUG_clean_linker_0, # of connection points: 2
#     Edge 25, Type (0, 1), BuildingBlock: OJICUG_clean_linker_0, # of connection points: 2
#     Edge 26, Type (0, 1), BuildingBlock: OJICUG_clean_linker_0, # of connection points: 2
# Relax obj value: 0.367
# Max RMSD: 0.161
# Mean RMSD: 0.115
data_MOF--net-anh--node1-NUHQIS_clean_sbu_0--node2-BETDAH_clean_linker_0--edge1-OJICUG_clean_linker_0
_symmetry_space_group_name_H-M    P1
_symmetry_Int_Tables_number       1
_symmetry_cell_setting            triclinic
loop_
_symmetry_equiv_pos_as_xyz
'x, y, z'
_cell_length_a     22.150854
_cell_length_b     22.211849
_cell_length_c     36.566126
_cell_angle_alpha  90.680978
_cell_angle_beta   94.906159
_cell_angle_gamma 120.53153
loop_
_atom_site_label
_atom_site_type_symbol
_atom_site_fract_x
_atom_site_fract_y
_atom_site_fract_z
_atom_type_partial_charge
Tb0 Tb 0.29981 0.68952 0.1608 0.0
Eu1 Eu 0.23012 0.78327 0.17089 0.0
C2 C 0.28402 0.72664 0.23814 0.0
C3 C 1.13475 0.61425 0.17156 0.0
C4 C 0.37708 0.56649 0.14731 0.0
C5 C 0.40837 0.48421 0.17204 0.0
C6 C 0.39007 0.5349 0.17748 0.0
C7 C 0.38406 0.54848 0.11181 0.0
C8 C 0.40328 0.49869 0.10639 0.0
C9 C 0.41461 0.46518 0.13637 0.0
C10 C 0.34854 0.61194 0.15232 0.0
O11 O 0.30637 0.73611 0.10867 0.0
O12 O 0.21056 0.74807 0.10994 0.0
O13 O 0.34101 0.86113 0.15892 0.0
O14 O 0.39001 0.79615 0.17817 0.0
C15 C 0.25525 0.74114 0.09134 0.0
O16 O 1.16869 0.82961 0.15012 0.0
O17 O 0.2155 0.85329 0.20657 0.0
O18 O 0.28475 0.78216 0.22596 0.0
O19 O 0.27022 0.67443 0.21567 0.0
O20 O 1.18525 0.61221 0.15576 0.0
O21 O 1.14337 0.67463 0.18335 0.0
C22 C 0.39669 0.85732 0.17056 0.0
O23 O 0.36807 0.65524 0.18121 0.0
O24 O 0.30426 0.61466 0.12746 0.0
C25 C 1.09994 0.8322 0.19431 0.0
C26 C 0.95433 0.75122 0.1991 0.0
C27 C 0.98148 0.80571 0.17487 0.0
C28 C 1.05375 0.84589 0.17258 0.0
C29 C 1.07404 0.78429 0.22183 0.0
C30 C 1.00172 0.7447 0.22451 0.0
C31 C 1.16978 0.85537 0.18256 0.0
H32 H 0.41662 0.45929 0.19566 0.0
H33 H 0.38373 0.54765 0.20506 0.0
H34 H 0.37413 0.57252 0.08822 0.0
H35 H 0.40992 0.48704 0.07868 0.0
H36 H 0.94705 0.81233 0.15462 0.0
H37 H 1.07276 0.88252 0.15118 0.0
H38 H 1.10871 0.77279 0.2391 0.0
H39 H 0.98266 0.70426 0.24398 0.0
Tb40 Tb 0.78724 0.29853 0.51072 0.0
Eu41 Eu 0.62168 0.22375 0.49022 0.0
C42 C 0.6841 0.25231 0.56986 0.0
C43 C 0.70265 0.13358 0.5029 0.0
C44 C 0.98057 0.36778 0.52086 0.0
C45 C 1.09402 0.37935 0.53823 0.0
C46 C 1.03031 0.36962 0.54787 0.0
C47 C 0.9935 0.37249 0.48384 0.0
C48 C 1.05747 0.38299 0.47422 0.0
C49 C 1.10902 0.38803 0.50144 0.0
C50 C 0.91703 0.36366 0.53212 0.0
O51 O 0.77864 0.29339 0.45015 0.0
O52 O 0.66009 0.21323 0.43692 0.0
O53 O 0.65931 0.33841 0.48068 0.0
O54 O 0.75862 0.37901 0.52079 0.0
C55 C 0.72372 0.2507 0.42673 0.0
O56 O 0.51998 0.17182 0.45629 0.0
O57 O 0.52431 0.18634 0.51516 0.0
O58 O 0.65209 0.2736 0.54706 0.0
O59 O 0.73523 0.24665 0.5585 0.0
O60 O 0.76122 0.19085 0.49611 0.0
O61 O 0.64518 0.13662 0.50674 0.0
C62 C 0.71193 0.39009 0.50187 0.0
O63 O 0.88656 0.38833 0.5101 0.0
O64 O 0.87185 0.30454 0.54453 0.0
C65 C 0.43858 1.07662 0.48855 0.0
C66 C 0.38537 0.93572 0.50281 0.0
C67 C 0.40504 0.95885 0.46788 0.0
C68 C 0.43141 1.02867 0.46075 0.0
C69 C 0.41335 1.05196 0.52267 0.0
C70 C 0.38761 0.98183 0.52994 0.0
C71 C 0.48475 0.15238 0.48507 0.0
H72 H 1.13231 0.38201 0.55969 0.0
H73 H 1.02055 0.36526 0.57653 0.0
H74 H 0.95526 0.3704 0.4625 0.0
H75 H 1.06771 0.39048 0.4457 0.0
H76 H 0.4037 0.92348 0.4467 0.0
H77 H 0.45042 1.0457 0.43428 0.0
H78 H 0.41829 1.08791 0.54461 0.0
H79 H 0.37255 0.96449 0.557 0.0
Tb80 Tb 0.78613 0.76846 0.84171 0.0
Eu81 Eu 0.6991 0.60322 0.82151 0.0
C82 C 0.76101 0.65959 0.9019 0.0
C83 C 0.87191 0.68874 0.83432 0.0
C84 C 0.81618 0.94101 0.8419 0.0
C85 C 0.70732 0.94291 0.83655 0.0
C86 C 0.75979 0.93873 0.8582 0.0
C87 C 0.82702 0.96302 0.80589 0.0
C88 C 0.77473 0.96773 0.7843 0.0
C89 C 0.71202 0.95168 0.79881 0.0
C90 C 0.84522 0.89802 0.85633 0.0
O91 O 0.77771 0.75925 0.78076 0.0
O92 O 0.68478 0.64735 0.76934 0.0
O93 O 0.62274 0.63156 0.84394 0.0
O94 O 0.67716 0.74663 0.8317 0.0
C95 C 0.72849 0.70837 0.75773 0.0
O96 O 0.66855 0.5062 0.7899 0.0
O97 O 0.61086 0.50554 0.83545 0.0
O98 O 0.75612 0.61612 0.87616 0.0
O99 O 0.7586 0.7158 0.89355 0.0
O100 O 0.8689 0.74186 0.8486 0.0
O101 O 0.81438 0.633 0.81811 0.0
C102 C 0.62086 0.68945 0.84027 0.0
O103 O 0.80724 0.85151 0.87867 0.0
O104 O 0.86504 0.87045 0.83177 0.0
C105 C 0.61152 0.4018 0.8225 0.0
C106 C 0.56643 0.25967 0.82786 0.0
C107 C 0.62674 0.30332 0.81028 0.0
C108 C 0.64892 0.37394 0.80744 0.0
C109 C 0.55754 0.36052 0.84434 0.0
C110 C 0.53539 0.28994 0.84719 0.0
C111 C 0.61929 0.46823 0.81088 0.0
H112 H 0.66 0.93241 0.84845 0.0
H113 H 0.75095 0.92399 0.88625 0.0
H114 H 0.87091 0.96706 0.79281 0.0
H115 H 0.77985 0.97576 0.7553 0.0
H116 H 0.65175 0.28156 0.79496 0.0
H117 H 0.69128 0.40481 0.79082 0.0
H118 H 0.52825 0.38107 0.85655 0.0
H119 H 0.48927 0.25754 0.86117 0.0
H120 H 0.6281 1.10496 0.26969 0.0
H121 H 0.81936 0.30157 0.25835 0.0
H122 H 0.69645 0.16349 0.16309 0.0
C123 C 0.66725 0.14162 0.25301 0.0
C124 C 0.65636 1.1252 0.21495 0.0
C125 C 0.72554 0.20476 0.26951 0.0
C126 C 0.77389 0.25326 0.24646 0.0
C127 C 0.76369 0.239 0.20791 0.0
C128 C 0.70441 0.17496 0.19258 0.0
N129 N 0.8107 0.28655 0.1833 0.0
C130 C 0.87432 0.35122 0.19104 0.0
H131 H 0.72165 0.62298 0.59911 0.0
H132 H 0.71268 0.81128 0.58784 0.0
H133 H 0.70487 0.69185 0.49136 0.0
C134 C 0.71833 0.66048 0.58158 0.0
C135 C 0.71431 0.64982 0.54328 0.0
C136 C 0.71713 0.71762 0.59799 0.0
C137 C 0.71362 0.76733 0.57539 0.0
C138 C 0.70878 0.75857 0.53665 0.0
C139 C 0.70841 0.699 0.52098 0.0
N140 N 0.70342 0.80694 0.51234 0.0
C141 C 0.70437 0.87013 0.52032 0.0
H142 H 1.11753 0.70702 0.92965 0.0
H143 H 0.31278 0.71085 0.92098 0.0
H144 H 1.17326 0.68102 0.8237 0.0
C145 C 1.15492 0.70506 0.91316 0.0
C146 C 1.13823 0.69506 0.87485 0.0
C147 C 0.21745 0.71137 0.93051 0.0
C148 C 0.26413 0.70546 0.90836 0.0
C149 C 0.24851 0.69381 0.86971 0.0
C150 C 1.18513 0.6886 0.85333 0.0
N151 N 0.29467 0.68821 0.84612 0.0
C152 C 0.35939 0.69073 0.85511 0.0
H153 H 0.34373 0.76139 0.41219 0.0
H154 H 0.39866 0.61695 0.3682 0.0
H155 H 0.40838 0.65 0.48509 0.0
C156 C 0.35966 0.72292 0.41609 0.0
C157 C 0.37249 0.70742 0.45192 0.0
C158 C 0.36866 0.69101 0.38549 0.0
C159 C 0.39385 0.64469 0.39128 0.0
C160 C 0.40811 0.62974 0.42701 0.0
C161 C 0.39791 0.66176 0.45741 0.0
N162 N 0.4227 0.57516 0.432 0.0
C163 C 0.37644 0.51903 0.45067 0.0
H164 H 0.52034 0.14214 0.7076 0.0
H165 H 0.46731 0.96813 0.63245 0.0
H166 H 0.39906 0.93246 0.74066 0.0
C167 C 0.49099 1.08616 0.70043 0.0
C168 C 0.45565 1.04006 0.7271 0.0
C169 C 0.49552 1.06086 0.66626 0.0
C170 C 0.46081 0.98833 0.65803 0.0
C171 C 0.42467 0.94167 0.68452 0.0
C172 C 0.42176 0.96792 0.7191 0.0
N173 N 0.41321 0.87329 0.68117 0.0
C174 C 0.46488 0.8651 0.7003 0.0
H175 H 0.7722 0.63536 0.07632 0.0
H176 H 0.65567 0.43467 0.01597 0.0
H177 H 0.68252 0.44616 0.13398 0.0
C178 C 0.7402 0.57875 0.07605 0.0
C179 C 0.72927 0.54553 0.10929 0.0
C180 C 0.7153 0.53939 0.04232 0.0
C181 C 0.67719 0.46581 0.04187 0.0
C182 C 0.66394 0.4322 0.07482 0.0
C183 C 0.69104 0.47224 0.10847 0.0
N184 N 0.61673 0.35901 0.07417 0.0
C185 C 0.55718 0.33709 0.09217 0.0
C186 C 0.41176 0.36945 0.09808 0.0
C187 C 0.43757 0.41428 0.13025 0.0
H188 H 0.43044 0.30721 0.06067 0.0
C189 C 0.49216 0.41663 0.15399 0.0
H190 H 0.36852 0.36518 0.07972 0.0
C191 C 0.52543 0.38106 0.14369 0.0
C192 C 0.5051 0.34368 0.10945 0.0
H193 H 0.51353 0.45081 0.17887 0.0
H194 H 0.57169 0.38901 0.16072 0.0
C195 C 0.446 0.33498 0.08752 0.0
C196 C 0.19024 0.3864 0.45829 0.0
C197 C 1.18059 0.41007 0.49191 0.0
H198 H 0.26261 0.40292 0.41885 0.0
C199 C 0.23979 0.46177 0.51442 0.0
H200 H 1.14567 0.34628 0.44053 0.0
C201 C 0.30655 0.49265 0.50234 0.0
C202 C 0.3149 0.47232 0.46769 0.0
H203 H 0.23405 0.48218 0.54011 0.0
H204 H 0.35053 0.53616 0.5188 0.0
C205 C 0.25707 0.41782 0.44613 0.0
C206 C 0.58842 0.86351 0.77543 0.0
C207 C 0.64795 0.9305 0.77372 0.0
H208 H 0.4826 0.78916 0.75274 0.0
C209 C 0.64745 0.97351 0.74616 0.0
H210 H 0.5888 0.82864 0.79562 0.0
C211 C 0.58761 0.95023 0.72115 0.0
C212 C 0.52825 0.88354 0.72323 0.0
H213 H 0.69299 1.02503 0.74418 0.0
H214 H 0.58724 0.98485 0.70061 0.0
C215 C 0.52855 0.84028 0.75049 0.0
C216 C 0.82831 0.70419 0.17451 0.0
C217 C 0.88086 0.69203 0.19054 0.0
H218 H 0.73698 0.66561 0.13541 0.0
C219 C 0.86864 0.6233 0.18842 0.0
H220 H 0.83488 0.75591 0.17673 0.0
C221 C 0.81227 0.57157 0.16519 0.0
C222 C 0.76751 0.58793 0.14384 0.0
H223 H 0.90726 0.61131 0.20062 0.0
H224 H 0.80941 0.52186 0.16054 0.0
C225 C 0.77226 0.65257 0.15092 0.0
C226 C 0.42713 0.85526 0.51874 0.0
C227 C 0.36969 0.86493 0.51041 0.0
H228 H 0.47236 0.79311 0.50631 0.0
C229 C 0.30512 0.80859 0.49495 0.0
H230 H 0.47733 0.89843 0.5308 0.0
C231 C 0.30203 0.74811 0.48137 0.0
C232 C 0.3639 0.74484 0.48267 0.0
H233 H 0.26039 0.81535 0.4883 0.0
H234 H 0.25457 0.70923 0.46479 0.0
C235 C 0.42432 0.79504 0.50473 0.0
C236 C 0.45616 0.15662 0.7995 0.0
C237 C 0.52552 0.1843 0.81623 0.0
H238 H 0.37815 1.08598 0.75713 0.0
C239 C 0.56029 0.14714 0.8114 0.0
H240 H 0.42811 0.18431 0.80243 0.0
C241 C 0.53088 1.09011 0.78561 0.0
C242 C 0.46671 1.07015 0.76461 0.0
H243 H 0.61356 0.16724 0.82412 0.0
H244 H 0.56238 1.06781 0.77866 0.0
C245 C 0.42719 1.10014 0.7735 0.0
C246 C 0.64186 1.00279 0.51577 0.0
C247 C 0.70286 1.06548 0.50818 0.0
H248 H 0.5945 0.89295 0.52596 0.0
C249 C 0.76494 1.06255 0.50655 0.0
H250 H 0.59295 1.00205 0.51748 0.0
C251 C 0.76576 0.99979 0.51172 0.0
C252 C 0.70475 0.93734 0.51895 0.0
H253 H 0.81336 1.10896 0.50103 0.0
H254 H 0.8143 0.99997 0.50946 0.0
C255 C 0.64278 0.93994 0.52092 0.0
C256 C 0.95103 0.63552 0.82887 0.0
C257 C 0.94176 0.69112 0.84031 0.0
H258 H 1.02026 0.5932 0.8299 0.0
C259 C 1.00035 0.74966 0.8599 0.0
H260 H 0.90765 0.58942 0.81379 0.0
C261 C 1.06422 0.7516 0.86908 0.0
C262 C 1.07305 0.69547 0.85889 0.0
H263 H 0.99658 0.79394 0.86928 0.0
H264 H 1.10664 0.79681 0.88528 0.0
C265 C 1.0159 0.63782 0.8379 0.0
C266 C 0.52082 0.92806 0.20334 0.0
C267 C 0.46677 0.92454 0.17846 0.0
H268 H 0.622 0.99339 0.2343 0.0
C269 C 0.47852 0.9875 0.16342 0.0
H270 H 0.51401 0.88129 0.21579 0.0
C271 C 0.54137 1.05188 0.17355 0.0
C272 C 0.59393 1.05569 0.19965 0.0
H273 H 0.43838 0.98732 0.14422 0.0
H274 H 0.54747 1.09922 0.16216 0.0
C275 C 0.5829 0.99259 0.21404 0.0
C276 C 0.76738 0.51046 0.5349 0.0
C277 C 0.71494 0.45926 0.50889 0.0
H278 H 0.80885 0.60914 0.5653 0.0
C279 C 0.66483 0.47439 0.49173 0.0
H280 H 0.80726 0.50191 0.54886 0.0
C281 C 0.66624 0.53747 0.50113 0.0
C282 C 0.71734 0.58717 0.52828 0.0
H283 H 0.62344 0.43678 0.4716 0.0
H284 H 0.62552 0.54591 0.48823 0.0
C285 C 0.76836 0.57262 0.54444 0.0
C286 C 0.55505 0.75209 0.85555 0.0
C287 C 0.55389 0.68969 0.84603 0.0
H288 H 0.49537 0.8018 0.8659 0.0
C289 C 0.48754 0.62714 0.84218 0.0
H290 H 0.60481 0.80108 0.85959 0.0
C291 C 0.42476 0.62743 0.84638 0.0
C292 C 0.42599 0.69006 0.85499 0.0
H293 H 0.48382 0.57782 0.83505 0.0
H294 H 0.37484 0.5785 0.84208 0.0
C295 C 0.49218 0.75241 0.85966 0.0
C296 C 1.01015 0.54643 0.19148 0.0
C297 C 1.06764 0.54652 0.1773 0.0
H298 H 0.90441 0.48528 0.20708 0.0
C299 C 1.06078 0.48072 0.16958 0.0
H300 H 1.01289 0.5955 0.19799 0.0
C301 C 0.99881 0.41757 0.17536 0.0
C302 C 0.94143 0.41774 0.1891 0.0
H303 H 1.10342 0.47781 0.15892 0.0
H304 H 0.99537 0.36828 0.16843 0.0
C305 C 0.94791 0.48308 0.19705 0.0
C306 C 0.27436 0.70085 0.03106 0.0
C307 C 0.24776 0.73626 0.05031 0.0
H308 H 0.2847 0.66381 0.9789 0.0
C309 C 0.21454 0.76641 0.02993 0.0
H310 H 0.30013 0.67669 0.04591 0.0
C311 C 0.20775 0.76101 -0.00867 0.0
C312 C 0.23184 0.72322 0.97182 0.0
H313 H 0.19446 0.79491 0.04381 0.0
H314 H 1.18321 0.7866 0.97684 0.0
C315 C 0.26603 0.69392 -0.00755 0.0
C316 C 0.76344 0.29842 0.36525 0.0
C317 C 0.73286 0.2415 0.38763 0.0
H318 H 0.78349 0.33207 0.3105 0.0
C319 C 0.70557 0.17376 0.37166 0.0
H320 H 0.78454 0.35126 0.37686 0.0
C321 C 0.70724 0.16272 0.33409 0.0
C322 C 0.7335 0.21886 0.31072 0.0
H323 H 0.6824 0.12894 0.38832 0.0
H324 H 0.68668 1.10945 0.32341 0.0
C325 C 0.76306 0.28723 0.32715 0.0
C326 C 0.67119 0.65873 0.6938 0.0
C327 C 0.72304 0.7162 0.71703 0.0
H328 H 0.62839 0.61495 0.63885 0.0
C329 C 0.76988 0.77761 0.70051 0.0
H330 H 0.63364 0.61046 0.70502 0.0
C331 C 0.76626 0.78013 0.6618 0.0
C332 C 0.71615 0.72114 0.63889 0.0
H333 H 0.81036 0.82297 0.71739 0.0
H334 H 0.80443 0.82703 0.64978 0.0
C335 C 0.66796 0.66115 0.65557 0.0
C336 C 0.59337 0.22079 0.61278 0.0
C337 C 0.64424 0.20944 0.599 0.0
H338 H 0.50509 0.18142 0.64416 0.0
C339 C 0.64698 0.14955 0.60808 0.0
H340 H 0.5899 0.26633 0.60588 0.0
C341 C 0.59758 1.10035 0.62936 0.0
C342 C 0.54526 1.11073 0.64209 0.0
H343 H 0.68503 0.13899 0.59736 0.0
H344 H 0.60036 1.05434 0.63595 0.0
C345 C 0.54444 0.17197 0.63423 0.0
C346 C 0.73595 0.66334 0.96735 0.0
C347 C 0.75887 0.63749 0.93984 0.0
H348 H 0.70305 0.65152 0.02168 0.0
C349 C 0.77191 0.5829 0.94736 0.0
H350 H 0.72523 0.70513 0.96223 0.0
C351 C 0.7584 0.55191 0.98078 0.0
C352 C 0.73218 0.57513 0.00764 0.0
H353 H 0.79055 0.56237 0.92691 0.0
H354 H 0.76787 0.50919 0.98548 0.0
C355 C 0.72284 0.6324 0.00115 0.0
C356 C 0.36641 0.71502 0.28305 0.0
C357 C 0.30928 0.72553 0.27619 0.0
H358 H 0.43177 0.69853 0.32302 0.0
C359 C 0.27299 0.72727 0.3052 0.0
H360 H 0.39491 0.71347 0.26073 0.0
C361 C 0.29222 0.71602 0.34071 0.0
C362 C 0.34925 0.70463 0.34784 0.0
H363 H 0.22795 0.73406 0.30014 0.0
H364 H 0.26087 0.71418 0.36228 0.0
C365 C 0.38683 0.70555 0.31859 0.0
loop_
_geom_bond_atom_site_label_1
_geom_bond_atom_site_label_2
_geom_bond_distance
_geom_bond_site_symmetry_2
_ccdc_geom_bond_type
Tb0 C10 2.825 . S
Tb0 O11 2.347 . S
Tb0 O14 2.366 . S
Tb0 O19 2.418 . S
Tb0 O20 2.384 1_455 S
Tb0 O23 2.479 . S
Tb0 O24 2.471 . S
Eu1 O12 2.418 . S
Eu1 O13 2.384 1_655 S
Eu1 O16 2.479 . S
Eu1 O17 2.471 . S
Eu1 O18 2.347 1_655 S
Eu1 O21 2.366 . S
Eu1 C31 2.825 . S
C2 O18 1.259 . S
C2 O19 1.265 . S
C3 O20 1.255 . S
C3 O21 1.265 . S
C4 C6 1.380 . S
C4 C7 1.374 . S
C4 C10 1.507 . S
C5 C6 1.384 . S
C5 C9 1.387 . S
C5 H32 0.930 . S
C6 C4 1.380 . S
C6 C5 1.384 . S
C6 H33 0.931 . S
C7 C4 1.374 . S
C7 C8 1.390 . S
C7 H34 0.930 . S
C8 C7 1.390 . S
C8 C9 1.391 . S
C8 H35 0.930 . S
C9 C5 1.387 . S
C9 C8 1.391 . S
C10 Tb0 2.825 . S
C10 C4 1.507 . S
C10 O23 1.238 . S
C10 O24 1.247 . S
O11 Tb0 2.347 . S
O11 C15 1.259 . S
O12 Eu1 2.418 . S
O12 C15 1.265 1_655 S
O13 Eu1 2.384 1_455 S
O13 C22 1.255 . S
O14 Tb0 2.366 . S
O14 C22 1.265 . S
C15 O11 1.259 . S
C15 O12 1.265 1_455 S
O16 Eu1 2.479 . S
O16 C31 1.238 . S
O17 Eu1 2.471 . S
O17 C31 1.247 . S
O18 Eu1 2.347 1_455 S
O18 C2 1.259 . S
O19 Tb0 2.418 . S
O19 C2 1.265 . S
O20 Tb0 2.384 1_655 S
O20 C3 1.255 . S
O21 Eu1 2.366 . S
O21 C3 1.265 . S
C22 O13 1.255 . S
C22 O14 1.265 . S
O23 Tb0 2.479 . S
O23 C10 1.238 . S
O24 Tb0 2.471 . S
O24 C10 1.247 . S
C25 C28 1.380 . S
C25 C29 1.374 . S
C25 C31 1.507 . S
C26 C27 1.387 . S
C26 C30 1.391 . S
C27 C26 1.387 . S
C27 C28 1.384 . S
C27 H36 0.930 . S
C28 C25 1.380 . S
C28 C27 1.384 . S
C28 H37 0.931 . S
C29 C25 1.374 . S
C29 C30 1.390 . S
C29 H38 0.930 . S
C30 C26 1.391 . S
C30 C29 1.390 . S
C30 H39 0.930 . S
C31 Eu1 2.825 . S
C31 O16 1.238 . S
C31 O17 1.247 . S
C31 C25 1.507 . S
H32 C5 0.930 . S
H33 C6 0.931 . S
H34 C7 0.930 . S
H35 C8 0.930 . S
H36 C27 0.930 . S
H37 C28 0.931 . S
H38 C29 0.930 . S
H39 C30 0.930 . S
Tb40 C50 2.825 . S
Tb40 O51 2.347 . S
Tb40 O54 2.366 . S
Tb40 O59 2.418 . S
Tb40 O60 2.378 1_545 S
Tb40 O63 2.479 . S
Tb40 O64 2.471 . S
Eu41 O52 2.418 . S
Eu41 O53 2.384 . S
Eu41 O56 2.479 1_545 S
Eu41 O57 2.471 1_545 S
Eu41 O58 2.347 . S
Eu41 O61 2.366 1_545 S
Eu41 C71 2.825 1_545 S
C42 O58 1.259 . S
C42 O59 1.265 . S
C43 O60 1.258 . S
C43 O61 1.265 . S
C44 C46 1.380 . S
C44 C47 1.374 . S
C44 C50 1.507 . S
C45 C46 1.384 . S
C45 C49 1.387 . S
C45 H72 0.930 . S
C46 C44 1.380 . S
C46 C45 1.384 . S
C46 H73 0.931 . S
C47 C44 1.374 . S
C47 C48 1.390 . S
C47 H74 0.930 . S
C48 C47 1.390 . S
C48 C49 1.391 . S
C48 H75 0.930 . S
C49 C45 1.387 . S
C49 C48 1.391 . S
C50 Tb40 2.825 . S
C50 C44 1.507 . S
C50 O63 1.238 . S
C50 O64 1.247 . S
O51 Tb40 2.347 . S
O51 C55 1.259 . S
O52 Eu41 2.418 . S
O52 C55 1.265 . S
O53 Eu41 2.384 . S
O53 C62 1.255 . S
O54 Tb40 2.366 . S
O54 C62 1.265 . S
C55 O51 1.259 . S
C55 O52 1.265 . S
O56 Eu41 2.479 1_565 S
O56 C71 1.238 . S
O57 Eu41 2.471 1_565 S
O57 C71 1.247 . S
O58 Eu41 2.347 . S
O58 C42 1.259 . S
O59 Tb40 2.418 . S
O59 C42 1.265 . S
O60 Tb40 2.378 1_565 S
O60 C43 1.258 . S
O61 Eu41 2.366 1_565 S
O61 C43 1.265 . S
C62 O53 1.255 . S
C62 O54 1.265 . S
O63 Tb40 2.479 . S
O63 C50 1.238 . S
O64 Tb40 2.471 . S
O64 C50 1.247 . S
C65 C68 1.380 . S
C65 C69 1.374 . S
C65 C71 1.507 . S
C66 C67 1.387 . S
C66 C70 1.391 . S
C67 C66 1.387 . S
C67 C68 1.384 . S
C67 H76 0.930 . S
C68 C65 1.380 . S
C68 C67 1.384 . S
C68 H77 0.931 . S
C69 C65 1.374 . S
C69 C70 1.390 . S
C69 H78 0.930 . S
C70 C66 1.391 . S
C70 C69 1.390 . S
C70 H79 0.930 . S
C71 Eu41 2.825 1_565 S
C71 O56 1.238 . S
C71 O57 1.247 . S
C71 C65 1.507 . S
H72 C45 0.930 . S
H73 C46 0.931 . S
H74 C47 0.930 . S
H75 C48 0.930 . S
H76 C67 0.930 . S
H77 C68 0.931 . S
H78 C69 0.930 . S
H79 C70 0.930 . S
Tb80 C90 2.825 . S
Tb80 O91 2.347 . S
Tb80 O94 2.366 . S
Tb80 O99 2.418 . S
Tb80 O100 2.384 . S
Tb80 O103 2.479 . S
Tb80 O104 2.471 . S
Eu81 O92 2.418 . S
Eu81 O93 2.384 . S
Eu81 O96 2.479 . S
Eu81 O97 2.471 . S
Eu81 O98 2.347 . S
Eu81 O101 2.366 . S
Eu81 C111 2.825 . S
C82 O98 1.259 . S
C82 O99 1.265 . S
C83 O100 1.255 . S
C83 O101 1.265 . S
C84 C86 1.380 . S
C84 C87 1.374 . S
C84 C90 1.507 . S
C85 C86 1.384 . S
C85 C89 1.387 . S
C85 H112 0.930 . S
C86 C84 1.380 . S
C86 C85 1.384 . S
C86 H113 0.931 . S
C87 C84 1.374 . S
C87 C88 1.390 . S
C87 H114 0.930 . S
C88 C87 1.390 . S
C88 C89 1.391 . S
C88 H115 0.930 . S
C89 C85 1.387 . S
C89 C88 1.391 . S
C90 Tb80 2.825 . S
C90 C84 1.507 . S
C90 O103 1.238 . S
C90 O104 1.247 . S
O91 Tb80 2.347 . S
O91 C95 1.259 . S
O92 Eu81 2.418 . S
O92 C95 1.265 . S
O93 Eu81 2.384 . S
O93 C102 1.255 . S
O94 Tb80 2.366 . S
O94 C102 1.265 . S
C95 O91 1.259 . S
C95 O92 1.265 . S
O96 Eu81 2.479 . S
O96 C111 1.238 . S
O97 Eu81 2.471 . S
O97 C111 1.247 . S
O98 Eu81 2.347 . S
O98 C82 1.259 . S
O99 Tb80 2.418 . S
O99 C82 1.265 . S
O100 Tb80 2.384 . S
O100 C83 1.255 . S
O101 Eu81 2.366 . S
O101 C83 1.265 . S
C102 O93 1.255 . S
C102 O94 1.265 . S
O103 Tb80 2.479 . S
O103 C90 1.238 . S
O104 Tb80 2.471 . S
O104 C90 1.247 . S
C105 C108 1.380 . S
C105 C109 1.374 . S
C105 C111 1.507 . S
C106 C107 1.387 . S
C106 C110 1.391 . S
C107 C106 1.387 . S
C107 C108 1.384 . S
C107 H116 0.930 . S
C108 C105 1.380 . S
C108 C107 1.384 . S
C108 H117 0.931 . S
C109 C105 1.374 . S
C109 C110 1.390 . S
C109 H118 0.930 . S
C110 C106 1.391 . S
C110 C109 1.390 . S
C110 H119 0.930 . S
C111 Eu81 2.825 . S
C111 O96 1.238 . S
C111 O97 1.247 . S
C111 C105 1.507 . S
H112 C85 0.930 . S
H113 C86 0.931 . S
H114 C87 0.930 . S
H115 C88 0.930 . S
H116 C107 0.930 . S
H117 C108 0.931 . S
H118 C109 0.930 . S
H119 C110 0.930 . S
H120 C123 0.929 . S
H121 C126 0.929 . S
H122 C128 0.930 . S
C123 H120 0.929 . S
C123 C124 1.398 . S
C123 C125 1.396 1_565 S
C124 C123 1.398 . S
C124 C128 1.407 1_565 S
C125 C123 1.396 1_545 S
C125 C126 1.394 . S
C126 H121 0.929 . S
C126 C125 1.394 . S
C126 C127 1.382 . S
C127 C126 1.382 . S
C127 C128 1.392 . S
C127 N129 1.420 . S
C128 H122 0.930 . S
C128 C124 1.407 1_545 S
C128 C127 1.392 . S
N129 C127 1.420 . S
N129 C130 1.244 . S
C130 N129 1.244 . S
H131 C134 0.929 . S
H132 C137 0.929 . S
H133 C139 0.930 . S
C134 H131 0.929 . S
C134 C135 1.398 . S
C134 C136 1.396 . S
C135 C134 1.398 . S
C135 C139 1.407 . S
C136 C134 1.396 . S
C136 C137 1.394 . S
C137 H132 0.929 . S
C137 C136 1.394 . S
C137 C138 1.382 . S
C138 C137 1.382 . S
C138 C139 1.392 . S
C138 N140 1.420 . S
C139 H133 0.930 . S
C139 C135 1.407 . S
C139 C138 1.392 . S
N140 C138 1.420 . S
N140 C141 1.244 . S
C141 N140 1.244 . S
H142 C145 0.929 . S
H143 C148 0.929 . S
H144 C150 0.930 . S
C145 H142 0.929 . S
C145 C146 1.398 . S
C145 C147 1.396 1_655 S
C146 C145 1.398 . S
C146 C150 1.407 . S
C147 C145 1.396 1_455 S
C147 C148 1.394 . S
C148 H143 0.929 . S
C148 C147 1.394 . S
C148 C149 1.382 . S
C149 C148 1.382 . S
C149 C150 1.392 1_455 S
C149 N151 1.420 . S
C150 H144 0.930 . S
C150 C146 1.407 . S
C150 C149 1.392 1_655 S
N151 C149 1.420 . S
N151 C152 1.244 . S
C152 N151 1.244 . S
H153 C156 0.929 . S
H154 C159 0.929 . S
H155 C161 0.930 . S
C156 H153 0.929 . S
C156 C157 1.398 . S
C156 C158 1.396 . S
C157 C156 1.398 . S
C157 C161 1.407 . S
C158 C156 1.396 . S
C158 C159 1.394 1_455 S
C159 H154 0.929 . S
C159 C158 1.394 1_655 S
C159 C160 1.382 1_655 S
C160 C159 1.382 1_455 S
C160 C161 1.392 . S
C160 N162 1.420 1_455 S
C161 H155 0.930 . S
C161 C157 1.407 . S
C161 C160 1.392 . S
N162 C160 1.420 1_655 S
N162 C163 1.244 . S
C163 N162 1.244 . S
H164 C167 0.929 . S
H165 C170 0.929 . S
H166 C172 0.930 . S
C167 H164 0.929 . S
C167 C168 1.398 . S
C167 C169 1.396 . S
C168 C167 1.398 . S
C168 C172 1.407 . S
C169 C167 1.396 . S
C169 C170 1.394 1_545 S
C170 H165 0.929 . S
C170 C169 1.394 1_565 S
C170 C171 1.382 1_565 S
C171 C170 1.382 1_545 S
C171 C172 1.392 . S
C171 N173 1.420 1_545 S
C172 H166 0.930 . S
C172 C168 1.407 . S
C172 C171 1.392 . S
N173 C171 1.420 1_565 S
N173 C174 1.244 . S
C174 N173 1.244 . S
H175 C178 0.929 . S
H176 C181 0.929 . S
H177 C183 0.930 . S
C178 H175 0.929 . S
C178 C179 1.398 . S
C178 C180 1.396 . S
C179 C178 1.398 . S
C179 C183 1.407 . S
C180 C178 1.396 . S
C180 C181 1.394 . S
C181 H176 0.929 . S
C181 C180 1.394 . S
C181 C182 1.382 . S
C182 C181 1.382 . S
C182 C183 1.392 . S
C182 N184 1.420 . S
C183 H177 0.930 . S
C183 C179 1.407 . S
C183 C182 1.392 . S
N184 C182 1.420 . S
N184 C185 1.244 . S
C185 N184 1.244 . S
C186 C187 1.387 . S
C186 H190 0.950 . S
C186 C195 1.390 . S
C187 C186 1.387 . S
C187 C189 1.387 . S
H188 C195 0.950 . S
C189 C187 1.387 . S
C189 C191 1.390 . S
C189 H193 0.950 . S
H190 C186 0.950 . S
C191 C189 1.390 . S
C191 C192 1.387 . S
C191 H194 0.950 . S
C192 C191 1.387 . S
C192 C195 1.387 . S
H193 C189 0.950 . S
H194 C191 0.950 . S
C195 C186 1.390 . S
C195 H188 0.950 . S
C195 C192 1.387 . S
C196 C197 1.387 . S
C196 H200 0.950 . S
C196 C205 1.390 . S
C197 C196 1.387 . S
C197 C199 1.387 . S
H198 C205 0.950 . S
C199 C197 1.387 . S
C199 C201 1.390 . S
C199 H203 0.950 . S
H200 C196 0.950 . S
C201 C199 1.390 . S
C201 C202 1.387 . S
C201 H204 0.950 . S
C202 C201 1.387 . S
C202 C205 1.387 . S
H203 C199 0.950 . S
H204 C201 0.950 . S
C205 C196 1.390 . S
C205 H198 0.950 . S
C205 C202 1.387 . S
C206 C207 1.387 . S
C206 H210 0.950 . S
C206 C215 1.390 . S
C207 C206 1.387 . S
C207 C209 1.387 . S
H208 C215 0.950 . S
C209 C207 1.387 . S
C209 C211 1.390 . S
C209 H213 0.950 . S
H210 C206 0.950 . S
C211 C209 1.390 . S
C211 C212 1.387 . S
C211 H214 0.950 . S
C212 C211 1.387 . S
C212 C215 1.387 . S
H213 C209 0.950 . S
H214 C211 0.950 . S
C215 C206 1.390 . S
C215 H208 0.950 . S
C215 C212 1.387 . S
C216 C217 1.387 . S
C216 H220 0.950 . S
C216 C225 1.390 . S
C217 C216 1.387 . S
C217 C219 1.387 . S
H218 C225 0.950 . S
C219 C217 1.387 . S
C219 C221 1.390 . S
C219 H223 0.950 . S
H220 C216 0.950 . S
C221 C219 1.390 . S
C221 C222 1.387 . S
C221 H224 0.950 . S
C222 C221 1.387 . S
C222 C225 1.387 . S
H223 C219 0.950 . S
H224 C221 0.950 . S
C225 C216 1.390 . S
C225 H218 0.950 . S
C225 C222 1.387 . S
C226 C227 1.387 . S
C226 H230 0.950 . S
C226 C235 1.390 . S
C227 C226 1.387 . S
C227 C229 1.387 . S
H228 C235 0.950 . S
C229 C227 1.387 . S
C229 C231 1.390 . S
C229 H233 0.950 . S
H230 C226 0.950 . S
C231 C229 1.390 . S
C231 C232 1.387 . S
C231 H234 0.950 . S
C232 C231 1.387 . S
C232 C235 1.387 . S
H233 C229 0.950 . S
H234 C231 0.950 . S
C235 C226 1.390 . S
C235 H228 0.950 . S
C235 C232 1.387 . S
C236 C237 1.387 . S
C236 H240 0.950 . S
C236 C245 1.390 . S
C237 C236 1.387 . S
C237 C239 1.387 . S
H238 C245 0.950 . S
C239 C237 1.387 . S
C239 C241 1.390 . S
C239 H243 0.950 . S
H240 C236 0.950 . S
C241 C239 1.390 . S
C241 C242 1.387 . S
C241 H244 0.950 . S
C242 C241 1.387 . S
C242 C245 1.387 . S
H243 C239 0.950 . S
H244 C241 0.950 . S
C245 C236 1.390 . S
C245 H238 0.950 . S
C245 C242 1.387 . S
C246 C247 1.387 . S
C246 H250 0.950 . S
C246 C255 1.390 . S
C247 C246 1.387 . S
C247 C249 1.387 . S
H248 C255 0.950 . S
C249 C247 1.387 . S
C249 C251 1.390 . S
C249 H253 0.950 . S
H250 C246 0.950 . S
C251 C249 1.390 . S
C251 C252 1.387 . S
C251 H254 0.950 . S
C252 C251 1.387 . S
C252 C255 1.387 . S
H253 C249 0.950 . S
H254 C251 0.950 . S
C255 C246 1.390 . S
C255 H248 0.950 . S
C255 C252 1.387 . S
C256 C257 1.387 . S
C256 H260 0.950 . S
C256 C265 1.390 . S
C257 C256 1.387 . S
C257 C259 1.387 . S
H258 C265 0.950 . S
C259 C257 1.387 . S
C259 C261 1.390 . S
C259 H263 0.950 . S
H260 C256 0.950 . S
C261 C259 1.390 . S
C261 C262 1.387 . S
C261 H264 0.950 . S
C262 C261 1.387 . S
C262 C265 1.387 . S
H263 C259 0.950 . S
H264 C261 0.950 . S
C265 C256 1.390 . S
C265 H258 0.950 . S
C265 C262 1.387 . S
C266 C267 1.387 . S
C266 H270 0.950 . S
C266 C275 1.390 . S
C267 C266 1.387 . S
C267 C269 1.387 . S
H268 C275 0.950 . S
C269 C267 1.387 . S
C269 C271 1.390 . S
C269 H273 0.950 . S
H270 C266 0.950 . S
C271 C269 1.390 . S
C271 C272 1.387 . S
C271 H274 0.950 . S
C272 C271 1.387 . S
C272 C275 1.387 . S
H273 C269 0.950 . S
H274 C271 0.950 . S
C275 C266 1.390 . S
C275 H268 0.950 . S
C275 C272 1.387 . S
C276 C277 1.387 . S
C276 H280 0.950 . S
C276 C285 1.390 . S
C277 C276 1.387 . S
C277 C279 1.387 . S
H278 C285 0.950 . S
C279 C277 1.387 . S
C279 C281 1.390 . S
C279 H283 0.950 . S
H280 C276 0.950 . S
C281 C279 1.390 . S
C281 C282 1.387 . S
C281 H284 0.950 . S
C282 C281 1.387 . S
C282 C285 1.387 . S
H283 C279 0.950 . S
H284 C281 0.950 . S
C285 C276 1.390 . S
C285 H278 0.950 . S
C285 C282 1.387 . S
C286 C287 1.387 . S
C286 H290 0.950 . S
C286 C295 1.390 . S
C287 C286 1.387 . S
C287 C289 1.387 . S
H288 C295 0.950 . S
C289 C287 1.387 . S
C289 C291 1.390 . S
C289 H293 0.950 . S
H290 C286 0.950 . S
C291 C289 1.390 . S
C291 C292 1.387 . S
C291 H294 0.950 . S
C292 C291 1.387 . S
C292 C295 1.387 . S
H293 C289 0.950 . S
H294 C291 0.950 . S
C295 C286 1.390 . S
C295 H288 0.950 . S
C295 C292 1.387 . S
C296 C297 1.387 . S
C296 H300 0.950 . S
C296 C305 1.390 . S
C297 C296 1.387 . S
C297 C299 1.387 . S
H298 C305 0.950 . S
C299 C297 1.387 . S
C299 C301 1.390 . S
C299 H303 0.950 . S
H300 C296 0.950 . S
C301 C299 1.390 . S
C301 C302 1.387 . S
C301 H304 0.950 . S
C302 C301 1.387 . S
C302 C305 1.387 . S
H303 C299 0.950 . S
H304 C301 0.950 . S
C305 C296 1.390 . S
C305 H298 0.950 . S
C305 C302 1.387 . S
C306 C307 1.387 . S
C306 H310 0.950 . S
C306 C315 1.390 . S
C307 C306 1.387 . S
C307 C309 1.387 . S
H308 C315 0.950 1_556 S
C309 C307 1.387 . S
C309 C311 1.390 1_554 S
C309 H313 0.950 . S
H310 C306 0.950 . S
C311 C309 1.390 1_556 S
C311 C312 1.387 . S
C311 H314 0.950 . S
C312 C311 1.387 . S
C312 C315 1.387 1_556 S
H313 C309 0.950 . S
H314 C311 0.950 . S
C315 C306 1.390 . S
C315 H308 0.950 1_554 S
C315 C312 1.387 1_554 S
C316 C317 1.387 . S
C316 H320 0.950 . S
C316 C325 1.390 . S
C317 C316 1.387 . S
C317 C319 1.387 . S
H318 C325 0.950 . S
C319 C317 1.387 . S
C319 C321 1.390 . S
C319 H323 0.950 1_545 S
H320 C316 0.950 . S
C321 C319 1.390 . S
C321 C322 1.387 . S
C321 H324 0.950 1_545 S
C322 C321 1.387 . S
C322 C325 1.387 . S
H323 C319 0.950 1_565 S
H324 C321 0.950 1_565 S
C325 C316 1.390 . S
C325 H318 0.950 . S
C325 C322 1.387 . S
C326 C327 1.387 . S
C326 H330 0.950 . S
C326 C335 1.390 . S
C327 C326 1.387 . S
C327 C329 1.387 . S
H328 C335 0.950 . S
C329 C327 1.387 . S
C329 C331 1.390 . S
C329 H333 0.950 . S
H330 C326 0.950 . S
C331 C329 1.390 . S
C331 C332 1.387 . S
C331 H334 0.950 . S
C332 C331 1.387 . S
C332 C335 1.387 . S
H333 C329 0.950 . S
H334 C331 0.950 . S
C335 C326 1.390 . S
C335 H328 0.950 . S
C335 C332 1.387 . S
C336 C337 1.387 . S
C336 H340 0.950 1_545 S
C336 C345 1.394 . S
C337 C336 1.387 . S
C337 C339 1.387 . S
H338 C345 0.945 1_565 S
C339 C337 1.387 . S
C339 C341 1.390 . S
C339 H343 0.950 . S
H340 C336 0.950 1_565 S
C341 C339 1.390 . S
C341 C342 1.387 . S
C341 H344 0.950 . S
C342 C341 1.387 . S
C342 C345 1.389 . S
H343 C339 0.950 . S
H344 C341 0.950 . S
C345 C336 1.394 . S
C345 H338 0.945 1_545 S
C345 C342 1.389 . S
C346 C347 1.387 . S
C346 H350 0.950 . S
C346 C355 1.390 1_556 S
C347 C346 1.387 . S
C347 C349 1.387 . S
H348 C355 0.950 . S
C349 C347 1.387 . S
C349 C351 1.390 . S
C349 H353 0.950 . S
H350 C346 0.950 . S
C351 C349 1.390 . S
C351 C352 1.387 1_556 S
C351 H354 0.950 . S
C352 C351 1.387 1_554 S
C352 C355 1.387 . S
H353 C349 0.950 . S
H354 C351 0.950 . S
C355 C346 1.390 1_554 S
C355 H348 0.950 . S
C355 C352 1.387 . S
C356 C357 1.387 . S
C356 H360 0.950 . S
C356 C365 1.390 . S
C357 C356 1.387 . S
C357 C359 1.387 . S
H358 C365 0.950 1_655 S
C359 C357 1.387 . S
C359 C361 1.390 . S
C359 H363 0.950 . S
H360 C356 0.950 . S
C361 C359 1.390 . S
C361 C362 1.387 . S
C361 H364 0.950 . S
C362 C361 1.387 . S
C362 C365 1.387 . S
H363 C359 0.950 . S
H364 C361 0.950 . S
C365 C356 1.390 . S
C365 H358 0.950 1_455 S
C365 C362 1.387 . S
C187 C9 0.868 . S
C192 C185 0.922 . S
C197 C49 0.677 . S
C202 C163 0.636 . S
C207 C89 0.613 . S
C212 C174 0.555 . S
C217 C26 0.728 . S
C222 C179 0.709 . S
C232 C157 0.551 . S
C227 C66 0.656 . S
C242 C168 0.686 . S
C237 C106 0.725 . S
C247 C43 3.081 . S
C252 C141 3.013 . S
C257 C83 3.057 . S
C262 C146 3.003 . S
C267 C22 3.086 . S
C272 C124 3.024 . S
C282 C135 3.029 . S
C277 C62 3.086 . S
C292 C152 3.025 . S
C287 C102 3.099 . S
C297 C3 3.085 . S
C302 C130 3.023 . S
C312 C147 1.763 . S
C307 C15 1.735 . S
C317 C55 1.768 . S
C322 C125 1.789 . S
C327 C95 1.754 . S
C332 C136 1.787 . S
C342 C169 1.104 . S
C337 C42 1.088 . S
C352 C180 1.142 . S
C347 C82 1.146 . S
C357 C2 1.077 . S
C362 C158 1.094 . S
