# Generated by pormake.
# Topology anh, (6,3)-cn, num edge types: 1
# Building blocks:
#     Node 0, Type 0, BuildingBlock: BETGAK_clean_sbu_0, # of connection points: 6
#     Node 1, Type 0, BuildingBlock: BETGAK_clean_sbu_0, # of connection points: 6
#     Node 2, Type 0, BuildingBlock: BETGAK_clean_sbu_0, # of connection points: 6
#     Node 3, Type 1, BuildingBlock: BETDIP_clean_linker_0, # of connection points: 3
#     Node 4, Type 1, BuildingBlock: BETDIP_clean_linker_0, # of connection points: 3
#     Node 5, Type 1, BuildingBlock: BETDIP_clean_linker_0, # of connection points: 3
#     Node 6, Type 1, BuildingBlock: BETDIP_clean_linker_0, # of connection points: 3
#     Node 7, Type 1, BuildingBlock: BETDIP_clean_linker_0, # of connection points: 3
#     Node 8, Type 1, BuildingBlock: BETDIP_clean_linker_0, # of connection points: 3
#     Edge 9, Type (0, 1), BuildingBlock: CIFDUS_clean_linker_0, # of connection points: 2
#     Edge 10, Type (0, 1), BuildingBlock: CIFDUS_clean_linker_0, # of connection points: 2
#     Edge 11, Type (0, 1), BuildingBlock: CIFDUS_clean_linker_0, # of connection points: 2
#     Edge 12, Type (0, 1), BuildingBlock: CIFDUS_clean_linker_0, # of connection points: 2
#     Edge 13, Type (0, 1), BuildingBlock: CIFDUS_clean_linker_0, # of connection points: 2
#     Edge 14, Type (0, 1), BuildingBlock: CIFDUS_clean_linker_0, # of connection points: 2
#     Edge 15, Type (0, 1), BuildingBlock: CIFDUS_clean_linker_0, # of connection points: 2
#     Edge 16, Type (0, 1), BuildingBlock: CIFDUS_clean_linker_0, # of connection points: 2
#     Edge 17, Type (0, 1), BuildingBlock: CIFDUS_clean_linker_0, # of connection points: 2
#     Edge 18, Type (0, 1), BuildingBlock: CIFDUS_clean_linker_0, # of connection points: 2
#     Edge 19, Type (0, 1), BuildingBlock: CIFDUS_clean_linker_0, # of connection points: 2
#     Edge 20, Type (0, 1), BuildingBlock: CIFDUS_clean_linker_0, # of connection points: 2
#     Edge 21, Type (0, 1), BuildingBlock: CIFDUS_clean_linker_0, # of connection points: 2
#     Edge 22, Type (0, 1), BuildingBlock: CIFDUS_clean_linker_0, # of connection points: 2
#     Edge 23, Type (0, 1), BuildingBlock: CIFDUS_clean_linker_0, # of connection points: 2
#     Edge 24, Type (0, 1), BuildingBlock: CIFDUS_clean_linker_0, # of connection points: 2
#     Edge 25, Type (0, 1), BuildingBlock: CIFDUS_clean_linker_0, # of connection points: 2
#     Edge 26, Type (0, 1), BuildingBlock: CIFDUS_clean_linker_0, # of connection points: 2
# Relax obj value: 0.185
# Max RMSD: 0.188
# Mean RMSD: 0.130
data_MOF--net-anh--node1-BETGAK_clean_sbu_0--node2-BETDIP_clean_linker_0--edge1-CIFDUS_clean_linker_0
_symmetry_space_group_name_H-M    P1
_symmetry_Int_Tables_number       1
_symmetry_cell_setting            triclinic
loop_
_symmetry_equiv_pos_as_xyz
'x, y, z'
_cell_length_a     28.490043
_cell_length_b     34.164328
_cell_length_c     43.464393
_cell_angle_alpha  95.003636
_cell_angle_beta   89.523295
_cell_angle_gamma 131.12195
loop_
_atom_site_label
_atom_site_type_symbol
_atom_site_fract_x
_atom_site_fract_y
_atom_site_fract_z
_atom_type_partial_charge
La0 La 0.16768 0.55735 0.15487 0.0
La1 La 0.09932 0.59052 0.15107 0.0
C2 C 0.24929 0.55143 0.15051 0.0
C3 C 0.31447 0.59268 0.16154 0.0
C4 C 0.33866 0.58494 0.18569 0.0
C5 C 0.40247 0.6208 0.1932 0.0
C6 C 0.44226 0.6604 0.17369 0.0
C7 C 0.41661 0.67674 0.15719 0.0
C8 C 0.35257 0.6414 0.14966 0.0
C9 C 0.12768 0.56175 0.20878 0.0
C10 C 0.24377 0.68003 0.15758 0.0
C11 C 1.0395 0.61655 0.16958 0.0
C12 C 0.97878 0.58461 0.18274 0.0
C13 C 0.92754 0.56529 0.16337 0.0
C14 C 0.86832 0.53032 0.17323 0.0
C15 C 0.85821 0.51515 0.20348 0.0
C16 C 0.90959 0.53428 0.22308 0.0
C17 C 0.96976 0.56829 0.21255 0.0
C18 C 0.11126 0.57158 0.09255 0.0
C19 C 1.02605 0.46844 0.14942 0.0
O20 O 0.21022 0.53149 0.17233 0.0
O21 O 0.23025 0.56063 0.12715 0.0
O22 O 0.12732 0.52513 0.19798 0.0
O23 O 0.15042 0.59477 0.18919 0.0
O24 O 0.24378 0.64287 0.16393 0.0
O25 O 0.19116 0.66824 0.14917 0.0
O26 O 1.03804 0.60169 0.14063 0.0
O27 O 0.08552 0.62755 0.18615 0.0
O28 O 0.084 0.58861 0.10185 0.0
O29 O 0.13241 0.56624 0.11588 0.0
O30 O 1.02527 0.50625 0.15828 0.0
O31 O 1.07827 0.48076 0.14064 0.0
H32 H 0.30907 0.54981 0.19734 0.0
H33 H 0.41972 0.61056 0.20991 0.0
H34 H 0.44606 0.71122 0.14503 0.0
H35 H 0.33403 0.65079 0.13305 0.0
H36 H 0.93309 0.57683 0.14021 0.0
H37 H 0.83121 0.51782 0.15712 0.0
H38 H 0.90328 0.52399 0.24655 0.0
H39 H 1.0088 0.58204 0.22779 0.0
La40 La 0.61838 0.03622 0.47497 0.0
La41 La 0.53681 0.05764 0.47854 0.0
C42 C 0.66524 0.99592 0.48197 0.0
C43 C 0.63625 0.94106 0.48254 0.0
C44 C 0.64688 0.91745 0.45894 0.0
C45 C 0.62115 0.86596 0.45943 0.0
C46 C 0.58495 0.83737 0.48377 0.0
C47 C 0.57156 0.86012 0.5065 0.0
C48 C 0.59678 0.91145 0.50584 0.0
C49 C 0.59331 0.05118 0.42138 0.0
C50 C 0.46717 0.94069 0.47296 0.0
C51 C 0.48987 0.09771 0.47077 0.0
C52 C 0.51649 0.15226 0.47473 0.0
C53 C 0.49815 0.16814 0.49919 0.0
C54 C 0.52257 0.2194 0.50367 0.0
C55 C 0.56537 0.25575 0.48357 0.0
C56 C 0.5857 0.2407 0.4597 0.0
C57 C 0.56124 0.18914 0.45522 0.0
C58 C 0.56366 0.04408 0.5323 0.0
C59 C 0.68639 0.15426 0.4801 0.0
O60 O 0.65973 1.00791 0.45531 0.0
O61 O 0.65558 0.01664 0.50511 0.0
O62 O 0.64746 0.0685 0.43098 0.0
O63 O 0.55453 0.02467 0.44135 0.0
O64 O 0.52398 0.95689 0.4777 0.0
O65 O 0.46053 0.97449 0.46861 0.0
O66 O 0.48639 0.07841 0.49624 0.0
O67 O 0.50946 0.08479 0.44814 0.0
O68 O 0.50941 0.0275 0.52358 0.0
O69 O 0.60134 0.06948 0.51184 0.0
O70 O 0.62874 0.13622 0.47674 0.0
O71 O 0.69577 0.12152 0.48288 0.0
H72 H 0.67599 0.93914 0.44036 0.0
H73 H 0.63127 0.84907 0.44129 0.0
H74 H 0.54424 0.83928 0.5257 0.0
H75 H 0.58651 0.92818 0.52401 0.0
H76 H 0.46462 0.14077 0.51483 0.0
H77 H 0.50737 0.23054 0.52272 0.0
H78 H 0.61904 0.2683 0.44411 0.0
H79 H 0.5772 0.17825 0.43647 0.0
La80 La 0.66373 0.58785 0.83038 0.0
La81 La 0.57768 0.47818 0.82978 0.0
C82 C 0.71708 0.67857 0.81815 0.0
C83 C 0.69704 0.70882 0.81802 0.0
C84 C 0.72224 0.7508 0.84095 0.0
C85 C 0.70794 0.78261 0.8396 0.0
C86 C 0.66802 0.77256 0.81543 0.0
C87 C 0.63976 0.72895 0.79356 0.0
C88 C 0.65413 0.69718 0.79481 0.0
C89 C 0.64574 0.55767 0.88529 0.0
C90 C 0.51198 0.52791 0.83479 0.0
C91 C 0.5226 0.38541 0.83839 0.0
C92 C 0.53502 0.35052 0.82911 0.0
C93 C 0.52848 0.3322 0.79784 0.0
C94 C 0.53708 0.29712 0.78949 0.0
C95 C 0.55232 0.27956 0.81216 0.0
C96 C 0.56219 0.29992 0.84321 0.0
C97 C 0.55332 0.335 0.85163 0.0
C98 C 0.59928 0.51006 0.77409 0.0
C99 C 0.72961 0.53823 0.83343 0.0
O100 O 0.72313 0.66802 0.84526 0.0
O101 O 0.69001 0.63855 0.797 0.0
O102 O 0.69938 0.59712 0.87638 0.0
O103 O 0.60341 0.53766 0.86423 0.0
O104 O 0.56996 0.57122 0.82885 0.0
O105 O 0.50605 0.48651 0.83937 0.0
O106 O 0.50599 0.39829 0.81614 0.0
O107 O 0.56292 0.4253 0.8588 0.0
O108 O 0.54531 0.4705 0.78237 0.0
O109 O 0.63935 0.52857 0.79607 0.0
O110 O 0.66995 0.49525 0.83666 0.0
O111 O 0.73893 0.58105 0.82793 0.0
H112 H 0.75463 0.76007 0.85933 0.0
H113 H 0.72994 0.81626 0.85663 0.0
H114 H 0.60904 0.72103 0.77467 0.0
H115 H 0.63317 0.66466 0.77704 0.0
H116 H 0.51565 0.34413 0.77977 0.0
H117 H 0.53059 0.28286 0.76527 0.0
H118 H 0.5742 0.28709 0.86108 0.0
H119 H 0.5595 0.34917 0.87583 0.0
H120 H 0.58822 0.02455 0.14914 0.0
H121 H 0.67244 0.1309 0.23296 0.0
H122 H 0.5012 0.97421 0.23559 0.0
H123 H 0.76016 0.16626 0.20555 0.0
C124 C 0.74361 0.1704 0.1847 0.0
C125 C 0.58745 0.03212 0.17376 0.0
C126 C 0.53993 0.99068 0.19088 0.0
C127 C 0.63538 0.08352 0.18874 0.0
C128 C 0.63567 0.09247 0.22108 0.0
C129 C 0.58867 0.05244 0.23827 0.0
C130 C 0.54002 1.00322 0.22261 0.0
N131 N 0.68219 0.12603 0.17141 0.0
H132 H 0.62512 0.54178 0.50521 0.0
H133 H 0.62289 0.60919 0.59299 0.0
H134 H 0.5931 0.46793 0.5874 0.0
H135 H 0.54552 0.59606 0.54829 0.0
C136 C 0.58573 0.62223 0.53489 0.0
C137 C 0.62291 0.54206 0.53014 0.0
C138 C 0.61021 0.50133 0.54451 0.0
C139 C 0.62689 0.58059 0.54751 0.0
C140 C 0.62099 0.57979 0.57968 0.0
C141 C 0.61005 0.53965 0.59425 0.0
C142 C 0.60442 0.5004 0.57649 0.0
N143 N 0.63084 0.61693 0.53177 0.0
H144 H 0.08048 0.54473 0.8191 0.0
H145 H 0.15479 0.5358 0.90252 0.0
H146 H 1.00674 0.53731 0.9086 0.0
H147 H 0.18215 0.49564 0.86991 0.0
C148 C 0.20758 0.52447 0.85352 0.0
C149 C 1.0795 0.54163 0.8437 0.0
C150 C 1.03206 0.53923 0.86117 0.0
C151 C 0.12528 0.53934 0.85826 0.0
C152 C 0.12221 0.53625 0.89031 0.0
C153 C 1.07959 0.53525 0.90763 0.0
C154 C 1.03631 0.53663 0.89335 0.0
N155 N 0.17566 0.54312 0.84261 0.0
H156 H 0.14429 0.5957 0.48312 0.0
H157 H 1.03547 0.49277 0.40017 0.0
H158 H 0.1923 0.65489 0.39403 0.0
H159 H 0.95371 0.46486 0.44211 0.0
C160 C 0.97696 0.45475 0.45438 0.0
C161 C 0.13407 0.5898 0.45837 0.0
C162 C 0.17361 0.63236 0.44033 0.0
C163 C 0.08209 0.53917 0.44405 0.0
C164 C 1.07233 0.5317 0.41159 0.0
C165 C 0.11209 0.57316 0.3935 0.0
C166 C 0.16079 0.6233 0.40812 0.0
N167 N 1.04307 0.49493 0.46155 0.0
H168 H 0.63743 0.07129 0.8019 0.0
H169 H 0.6087 0.9829 0.71617 0.0
H170 H 0.59423 0.10028 0.71658 0.0
H171 H 0.53395 0.92728 0.77577 0.0
C172 C 0.58104 0.94241 0.78047 0.0
C173 C 0.62871 0.06395 0.77696 0.0
C174 C 0.61592 0.09043 0.76126 0.0
C175 C 0.62573 0.02507 0.76068 0.0
C176 C 0.61191 1.01362 0.72854 0.0
C177 C 0.60134 0.0413 0.71262 0.0
C178 C 0.60353 0.07958 0.729 0.0
N179 N 0.633 0.99527 0.77694 0.0
H180 H 0.61804 0.55948 0.13663 0.0
H181 H 0.63911 0.49162 0.05718 0.0
H182 H 0.47669 0.47579 0.06183 0.0
H183 H 0.74059 0.53646 0.08086 0.0
C184 C 0.7305 0.54372 0.10375 0.0
C185 C 0.59753 0.53337 0.11527 0.0
C186 C 0.53798 0.5107 0.10346 0.0
C187 C 0.63414 0.52776 0.09823 0.0
C188 C 0.6094 0.49498 0.07055 0.0
C189 C 0.55559 0.4805 0.0558 0.0
C190 C 0.51743 0.48534 0.07306 0.0
N191 N 0.69868 0.56212 0.10641 0.0
H192 H 0.51093 0.63865 0.19781 0.0
H193 H 0.48202 0.68082 0.11353 0.0
H194 H 0.49979 0.62954 0.08325 0.0
H195 H 0.50796 0.56232 0.08007 0.0
H196 H 0.51119 0.50453 0.16368 0.0
H197 H 0.50886 0.5663 0.19474 0.0
C198 C 0.50757 0.63626 0.1728 0.0
C199 C 0.48893 0.65979 0.15843 0.0
C200 C 0.50802 0.60041 0.15522 0.0
C201 C 0.49274 0.66122 0.12597 0.0
C202 C 0.50109 0.63047 0.10825 0.0
C203 C 0.50544 0.56173 0.10497 0.0
C204 C 0.50966 0.52923 0.11972 0.0
C205 C 0.50448 0.59729 0.12259 0.0
C206 C 0.50734 0.52918 0.15203 0.0
C207 C 0.50785 0.56535 0.16975 0.0
H208 H 0.81532 0.21345 0.47354 0.0
H209 H 0.67695 0.22815 0.48761 0.0
H210 H 0.75403 0.32059 0.48254 0.0
H211 H 0.8586 0.39744 0.47057 0.0
H212 H 1.00191 0.389 0.45896 0.0
H213 H 0.92638 0.29548 0.4668 0.0
C214 C 0.80227 0.23701 0.47587 0.0
C215 C 0.7391 0.21256 0.48035 0.0
C216 C 0.84808 0.29186 0.47327 0.0
C217 C 0.72405 0.24458 0.48345 0.0
C218 C 0.76849 0.29804 0.48069 0.0
C219 C 0.87374 0.37542 0.4703 0.0
C220 C 0.93606 0.40053 0.46431 0.0
C221 C 0.83022 0.32199 0.47503 0.0
C222 C 0.95459 0.37112 0.46396 0.0
C223 C 0.91104 0.31735 0.46818 0.0
H224 H 0.57272 0.76949 0.82862 0.0
H225 H 0.75237 0.86131 0.7898 0.0
H226 H 0.74331 0.92446 0.77678 0.0
H227 H 0.68196 0.95099 0.77441 0.0
H228 H 0.49992 0.8575 0.81092 0.0
H229 H 0.51236 0.79792 0.82767 0.0
C230 C 0.60986 0.80374 0.81764 0.0
C231 C 0.66322 0.81156 0.81024 0.0
C232 C 0.60391 0.83941 0.81 0.0
C233 C 0.71129 0.85544 0.79585 0.0
C234 C 0.706 0.89125 0.78837 0.0
C235 C 0.64537 0.91785 0.78631 0.0
C236 C 0.59018 0.90834 0.7916 0.0
C237 C 0.65228 0.88335 0.79507 0.0
C238 C 0.54263 0.86506 0.80659 0.0
C239 C 0.54974 0.83115 0.81613 0.0
H240 H 0.74403 0.41667 0.18688 0.0
H241 H 0.82625 0.55486 0.24789 0.0
H242 H 0.77213 0.57393 0.2187 0.0
H243 H 0.7465 0.57271 0.16443 0.0
H244 H 0.69208 0.44682 0.09725 0.0
H245 H 0.68952 0.40083 0.13832 0.0
C246 C 0.74601 0.44876 0.19484 0.0
C247 C 0.79624 0.48953 0.21546 0.0
C248 C 0.72122 0.4623 0.17494 0.0
C249 C 0.79287 0.52634 0.22912 0.0
C250 C 0.76329 0.53821 0.21181 0.0
C251 C 0.73251 0.53451 0.15915 0.0
C252 C 0.72223 0.51362 0.12826 0.0
C253 C 0.73481 0.51028 0.18256 0.0
C254 C 0.7029 0.46404 0.12108 0.0
C255 C 0.70005 0.4374 0.14458 0.0
H256 H 0.4492 0.8519 0.45446 0.0
H257 H 0.35384 0.902 0.49232 0.0
H258 H 0.2562 0.81116 0.49011 0.0
H259 H 0.19426 0.71667 0.47245 0.0
H260 H 0.28925 0.66738 0.43289 0.0
H261 H 0.389 0.75726 0.44047 0.0
C262 C 0.40721 0.8429 0.46251 0.0
C263 C 0.40923 0.88421 0.47325 0.0
C264 C 0.3503 0.79009 0.46064 0.0
C265 C 0.35387 0.87137 0.48345 0.0
C266 C 0.29774 0.81918 0.48228 0.0
C267 C 0.23713 0.72545 0.46648 0.0
C268 C 0.2342 0.6848 0.45273 0.0
C269 C 0.29482 0.77803 0.47031 0.0
C270 C 0.29023 0.69747 0.44421 0.0
C271 C 0.34737 0.74914 0.44822 0.0
H272 H 0.63983 0.27406 0.82941 0.0
H273 H 0.46549 0.18981 0.77558 0.0
H274 H 0.46744 0.12145 0.75769 0.0
H275 H 0.52115 0.08846 0.75453 0.0
H276 H 0.69708 0.1719 0.80619 0.0
H277 H 0.6911 0.23692 0.82881 0.0
C278 C 0.60211 0.2404 0.81403 0.0
C279 C 0.55316 0.23731 0.80334 0.0
C280 C 0.60369 0.20118 0.80362 0.0
C281 C 0.50437 0.19355 0.7835 0.0
C282 C 0.50519 0.15431 0.77343 0.0
C283 C 0.55826 0.12097 0.77072 0.0
C284 C 0.61014 0.12636 0.77816 0.0
C285 C 0.55514 0.15831 0.78283 0.0
C286 C 0.65693 0.16744 0.79996 0.0
C287 C 0.65366 0.20465 0.81269 0.0
H288 H 0.65863 0.81434 0.47514 0.0
H289 H 0.47558 0.74871 0.50265 0.0
H290 H 0.45814 0.67357 0.5191 0.0
H291 H 0.50007 0.63208 0.53079 0.0
H292 H 0.68327 0.69875 0.50301 0.0
H293 H 0.69506 0.76772 0.48088 0.0
C294 C 0.6141 0.78291 0.48384 0.0
C295 C 0.5687 0.78729 0.48796 0.0
C296 C 0.6048 0.74045 0.49352 0.0
C297 C 0.51165 0.74655 0.49974 0.0
C298 C 0.50167 0.70367 0.50913 0.0
C299 C 0.54223 0.66153 0.51961 0.0
C300 C 0.59104 0.66105 0.51894 0.0
C301 C 0.54881 0.70119 0.50708 0.0
C302 C 0.64525 0.69871 0.50409 0.0
C303 C 0.65205 0.73814 0.49142 0.0
H304 H 0.83955 0.56738 0.79942 0.0
H305 H 0.74992 0.50729 0.88421 0.0
H306 H 0.82792 0.50199 0.89895 0.0
H307 H 0.92025 0.51058 0.88904 0.0
H308 H 1.01417 0.56919 0.80492 0.0
H309 H 0.93664 0.57569 0.78918 0.0
C310 C 0.83657 0.55329 0.82134 0.0
C311 C 0.7854 0.53819 0.84053 0.0
C312 C 0.88332 0.54893 0.83001 0.0
C313 C 0.78581 0.51947 0.86834 0.0
C314 C 0.83158 0.51628 0.87699 0.0
C315 C 0.92675 0.52627 0.86736 0.0
C316 C 0.97869 0.54058 0.84921 0.0
C317 C 0.88081 0.53052 0.85822 0.0
C318 C 0.97824 0.55782 0.82054 0.0
C319 C 0.93271 0.56188 0.81136 0.0
H320 H 0.3088 0.7642 0.12226 0.0
H321 H 0.30732 0.7217 0.21304 0.0
H322 H 0.3998 0.81192 0.23021 0.0
H323 H 0.48195 0.90162 0.21977 0.0
H324 H 0.48395 0.9493 0.13063 0.0
H325 H 0.39454 0.85796 0.1118 0.0
C326 C 0.32905 0.77486 0.14573 0.0
C327 C 0.30121 0.73589 0.16632 0.0
C328 C 0.3835 0.82752 0.15553 0.0
C329 C 0.32814 0.75046 0.19662 0.0
C330 C 0.38113 0.80218 0.20647 0.0
C331 C 0.46232 0.8931 0.1964 0.0
C332 C 0.48934 0.93402 0.17726 0.0
C333 C 0.40929 0.84096 0.18616 0.0
C334 C 0.46462 0.91977 0.14635 0.0
C335 C 0.41271 0.86725 0.13559 0.0
H336 H 0.49106 0.27761 0.48899 0.0
H337 H 0.68456 0.35083 0.48583 0.0
H338 H 0.71643 0.43683 0.50037 0.0
H339 H 0.68827 0.48846 0.52143 0.0
H340 H 0.49424 0.41218 0.52736 0.0
H341 H 0.46292 0.32956 0.50436 0.0
C342 C 0.54021 0.31253 0.49128 0.0
C343 C 0.58553 0.30823 0.48716 0.0
C344 C 0.55779 0.36091 0.5004 0.0
C345 C 0.64901 0.35353 0.48922 0.0
C346 C 0.66713 0.40246 0.4977 0.0
C347 C 0.63934 0.45378 0.51697 0.0
C348 C 0.5933 0.45544 0.52598 0.0
C349 C 0.6219 0.40629 0.50446 0.0
C350 C 0.52994 0.41097 0.52044 0.0
C351 C 0.51219 0.36398 0.50745 0.0
H352 H 0.48755 0.59939 0.8249 0.0
H353 H 0.39389 0.4457 0.85163 0.0
H354 H 0.29922 0.43188 0.85808 0.0
H355 H 0.238 0.46122 0.85822 0.0
H356 H 0.32455 0.61201 0.82987 0.0
H357 H 0.42179 0.62771 0.8226 0.0
C358 C 0.44682 0.56255 0.83215 0.0
C359 C 0.45214 0.5239 0.8378 0.0
C360 C 0.38862 0.55374 0.83574 0.0
C361 C 0.39547 0.47715 0.84699 0.0
C362 C 0.33962 0.46888 0.85078 0.0
C363 C 0.27741 0.49767 0.84994 0.0
C364 C 0.26975 0.5346 0.84435 0.0
C365 C 0.33479 0.50654 0.84545 0.0
C366 C 0.32474 0.58134 0.83404 0.0
C367 C 0.38193 0.59063 0.83005 0.0
H368 H 0.90406 0.38701 0.12402 0.0
H369 H 1.0381 0.42708 0.19515 0.0
H370 H 0.96385 0.34015 0.21168 0.0
H371 H 0.86109 0.25225 0.20665 0.0
H372 H 0.72551 0.20685 0.13488 0.0
H373 H 0.79936 0.29497 0.11775 0.0
C374 C 0.91659 0.37666 0.14325 0.0
C375 C 0.97669 0.41439 0.15866 0.0
C376 C 0.87332 0.32512 0.15242 0.0
C377 C 0.99238 0.39965 0.1831 0.0
C378 C 0.94981 0.34956 0.19256 0.0
C379 C 0.84754 0.26143 0.18715 0.0
C380 C 0.78752 0.22267 0.17218 0.0
C381 C 0.89024 0.31197 0.17747 0.0
C382 C 0.77118 0.23559 0.14691 0.0
C383 C 0.81354 0.28622 0.13717 0.0
H384 H 1.03862 0.48846 0.04834 0.0
H385 H 0.20642 0.65046 0.0622 0.0
H386 H 0.21231 0.65399 0.00609 0.0
H387 H 0.16545 0.6124 0.95272 0.0
H388 H 0.99543 0.45126 0.93889 0.0
H389 H 0.9949 0.44545 0.9948 0.0
C390 C 1.07764 0.52392 0.03897 0.0
C391 C 0.12335 0.56866 0.05944 0.0
C392 C 1.07969 0.52592 0.00653 0.0
C393 C 0.17209 0.61501 0.04697 0.0
C394 C 0.17491 0.61721 0.01484 0.0
C395 C 0.12852 0.57605 0.96205 0.0
C396 C 0.08021 0.53238 0.94176 0.0
C397 C 0.12834 0.57321 0.99435 0.0
C398 C 1.03262 0.48549 0.95409 0.0
C399 C 1.03251 0.48216 0.98606 0.0
H400 H 0.61977 0.12031 0.38273 0.0
H401 H 0.53478 0.96 0.38565 0.0
H402 H 0.52737 0.94668 0.32902 0.0
H403 H 0.55226 0.98246 0.2794 0.0
H404 H 0.62939 0.14091 0.27541 0.0
H405 H 0.63414 0.1536 0.33187 0.0
C406 C 0.59818 0.08221 0.37077 0.0
C407 C 0.57693 0.04089 0.388 0.0
C408 C 0.59393 0.0749 0.33821 0.0
C409 C 0.55007 0.99187 0.37263 0.0
C410 C 0.54654 0.9845 0.34034 0.0
C411 C 0.56872 0.01952 0.29061 0.0
C412 C 0.5904 0.06061 0.2728 0.0
C413 C 0.56926 0.02598 0.32295 0.0
C414 C 0.61338 0.10874 0.28826 0.0
C415 C 0.61553 0.11591 0.32062 0.0
H416 H 0.51574 0.46626 0.72525 0.0
H417 H 0.71145 0.59057 0.75208 0.0
H418 H 0.73143 0.61514 0.6991 0.0
H419 H 0.69366 0.59674 0.644 0.0
H420 H 0.49869 0.46916 0.61766 0.0
H421 H 0.47765 0.45038 0.67151 0.0
C422 C 0.56275 0.49887 0.71955 0.0
C423 C 0.61205 0.52643 0.74248 0.0
C424 C 0.57389 0.51209 0.68907 0.0
C425 C 0.6727 0.56869 0.73478 0.0
C426 C 0.68413 0.58271 0.7045 0.0
C427 C 0.64656 0.56558 0.65037 0.0
C428 C 0.59753 0.53448 0.62727 0.0
C429 C 0.63519 0.5542 0.68132 0.0
C430 C 0.53676 0.49364 0.63534 0.0
C431 C 0.52488 0.48278 0.66601 0.0
H432 H 0.48603 0.99267 0.57775 0.0
H433 H 0.68047 0.09474 0.55828 0.0
H434 H 0.70926 0.09912 0.61225 0.0
H435 H 0.67926 0.07886 0.666 0.0
H436 H 0.48505 0.97841 0.68519 0.0
H437 H 0.45563 0.96785 0.63032 0.0
C438 C 0.53467 1.01557 0.58528 0.0
C439 C 0.58112 0.04373 0.56418 0.0
C440 C 0.55076 0.01806 0.61629 0.0
C441 C 0.64391 0.07291 0.57416 0.0
C442 C 0.66037 0.07546 0.605 0.0
C443 C 0.63056 0.05387 0.65784 0.0
C444 C 0.58411 0.02891 0.67916 0.0
C445 C 0.61427 0.04884 0.62638 0.0
C446 C 0.52118 0.99734 0.66885 0.0
C447 C 0.50452 0.99164 0.63761 0.0
H448 H 0.53727 0.47749 0.91014 0.0
H449 H 0.73209 0.61338 0.93246 0.0
H450 H 0.71875 0.60111 0.98675 0.0
H451 H 0.65352 0.5558 0.02742 0.0
H452 H 0.4606 0.4152 0.00908 0.0
H453 H 0.47053 0.42635 0.95327 0.0
C454 C 0.57651 0.50405 0.92704 0.0
C455 C 0.63545 0.54661 0.91753 0.0
C456 C 0.56878 0.49633 0.95858 0.0
C457 C 0.6863 0.58063 0.9393 0.0
C458 C 0.67878 0.57376 0.97034 0.0
C459 C 0.61371 0.52635 0.01129 0.0
C460 C 0.55705 0.48359 0.02209 0.0
C461 C 0.62045 0.53217 0.98008 0.0
C462 C 0.50507 0.44784 0.00106 0.0
C463 C 0.51091 0.45424 0.96932 0.0
H464 H 0.12772 0.51335 0.25469 0.0
H465 H 0.1205 0.63227 0.23937 0.0
H466 H 0.10807 0.64241 0.29451 0.0
H467 H 0.10395 0.61984 0.34804 0.0
H468 H 0.11981 0.50568 0.36276 0.0
H469 H 0.12654 0.49274 0.3073 0.0
C470 C 0.12331 0.54151 0.26329 0.0
C471 C 0.12328 0.57096 0.2425 0.0
C472 C 0.11871 0.54852 0.2952 0.0
C473 C 0.11902 0.60805 0.25442 0.0
C474 C 0.11243 0.61417 0.28613 0.0
C475 C 0.10805 0.5917 0.33891 0.0
C476 C 0.10997 0.56284 0.35936 0.0
C477 C 0.11251 0.58477 0.30682 0.0
C478 C 0.11635 0.52714 0.34739 0.0
C479 C 0.12072 0.52006 0.31571 0.0
loop_
_geom_bond_atom_site_label_1
_geom_bond_atom_site_label_2
_geom_bond_distance
_geom_bond_site_symmetry_2
_ccdc_geom_bond_type
La0 C2 2.928 . S
La0 O20 2.521 . S
La0 O21 2.628 . S
La0 O22 2.554 . S
La0 O23 2.757 . S
La0 O24 2.470 . S
La0 O29 2.482 . S
La0 O31 2.503 1_455 S
La1 C11 2.928 1_455 S
La1 O23 2.482 . S
La1 O25 2.503 . S
La1 O26 2.521 1_455 S
La1 O27 2.628 1_455 S
La1 O28 2.554 . S
La1 O29 2.757 . S
La1 O30 2.470 1_455 S
C2 La0 2.928 . S
C2 C3 1.503 . S
C2 O20 1.261 . S
C2 O21 1.243 . S
C3 C2 1.503 . S
C3 C4 1.394 . S
C3 C8 1.373 . S
C4 C3 1.394 . S
C4 C5 1.380 . S
C4 H32 0.930 . S
C5 C4 1.380 . S
C5 C6 1.376 . S
C5 H33 0.930 . S
C6 C5 1.376 . S
C6 C7 1.370 . S
C7 C6 1.370 . S
C7 C8 1.396 . S
C7 H34 0.929 . S
C8 C3 1.373 . S
C8 C7 1.396 . S
C8 H35 0.929 . S
C9 O22 1.240 . S
C9 O23 1.289 . S
C10 O24 1.258 . S
C10 O25 1.256 . S
C11 La1 2.928 1_655 S
C11 C12 1.503 . S
C11 O26 1.261 . S
C11 O27 1.243 . S
C12 C11 1.503 . S
C12 C13 1.394 . S
C12 C17 1.373 . S
C13 C12 1.394 . S
C13 C14 1.380 . S
C13 H36 0.930 . S
C14 C13 1.380 . S
C14 C15 1.376 . S
C14 H37 0.930 . S
C15 C14 1.376 . S
C15 C16 1.370 . S
C16 C15 1.370 . S
C16 C17 1.396 . S
C16 H38 0.929 . S
C17 C12 1.373 . S
C17 C16 1.396 . S
C17 H39 0.929 . S
C18 O28 1.240 . S
C18 O29 1.289 . S
C19 O30 1.258 . S
C19 O31 1.256 . S
O20 La0 2.521 . S
O20 C2 1.261 . S
O21 La0 2.628 . S
O21 C2 1.243 . S
O22 La0 2.554 . S
O22 C9 1.240 . S
O23 La0 2.757 . S
O23 La1 2.482 . S
O23 C9 1.289 . S
O24 La0 2.470 . S
O24 C10 1.258 . S
O25 La1 2.503 . S
O25 C10 1.256 . S
O26 La1 2.521 1_655 S
O26 C11 1.261 . S
O27 La1 2.628 1_655 S
O27 C11 1.243 . S
O28 La1 2.554 . S
O28 C18 1.240 . S
O29 La0 2.482 . S
O29 La1 2.757 . S
O29 C18 1.289 . S
O30 La1 2.470 1_655 S
O30 C19 1.258 . S
O31 La0 2.503 1_655 S
O31 C19 1.256 . S
H32 C4 0.930 . S
H33 C5 0.930 . S
H34 C7 0.929 . S
H35 C8 0.929 . S
H36 C13 0.930 . S
H37 C14 0.930 . S
H38 C16 0.929 . S
H39 C17 0.929 . S
La40 C42 2.928 1_545 S
La40 O60 2.521 1_545 S
La40 O61 2.628 1_545 S
La40 O62 2.554 . S
La40 O63 2.757 . S
La40 O64 2.470 1_545 S
La40 O69 2.482 . S
La40 O71 2.503 . S
La41 C51 2.928 . S
La41 O63 2.482 . S
La41 O65 2.503 1_545 S
La41 O66 2.521 . S
La41 O67 2.628 . S
La41 O68 2.554 . S
La41 O69 2.757 . S
La41 O70 2.470 . S
C42 La40 2.928 1_565 S
C42 C43 1.503 . S
C42 O60 1.261 . S
C42 O61 1.243 . S
C43 C42 1.503 . S
C43 C44 1.394 . S
C43 C48 1.373 . S
C44 C43 1.394 . S
C44 C45 1.380 . S
C44 H72 0.930 . S
C45 C44 1.380 . S
C45 C46 1.376 . S
C45 H73 0.930 . S
C46 C45 1.376 . S
C46 C47 1.370 . S
C47 C46 1.370 . S
C47 C48 1.396 . S
C47 H74 0.929 . S
C48 C43 1.373 . S
C48 C47 1.396 . S
C48 H75 0.929 . S
C49 O62 1.240 . S
C49 O63 1.289 . S
C50 O64 1.258 . S
C50 O65 1.256 . S
C51 La41 2.928 . S
C51 C52 1.503 . S
C51 O66 1.261 . S
C51 O67 1.243 . S
C52 C51 1.503 . S
C52 C53 1.394 . S
C52 C57 1.373 . S
C53 C52 1.394 . S
C53 C54 1.380 . S
C53 H76 0.930 . S
C54 C53 1.380 . S
C54 C55 1.376 . S
C54 H77 0.930 . S
C55 C54 1.376 . S
C55 C56 1.370 . S
C56 C55 1.370 . S
C56 C57 1.396 . S
C56 H78 0.929 . S
C57 C52 1.373 . S
C57 C56 1.396 . S
C57 H79 0.929 . S
C58 O68 1.240 . S
C58 O69 1.289 . S
C59 O70 1.258 . S
C59 O71 1.256 . S
O60 La40 2.521 1_565 S
O60 C42 1.261 . S
O61 La40 2.628 1_565 S
O61 C42 1.243 . S
O62 La40 2.554 . S
O62 C49 1.240 . S
O63 La40 2.757 . S
O63 La41 2.482 . S
O63 C49 1.289 . S
O64 La40 2.470 1_565 S
O64 C50 1.258 . S
O65 La41 2.503 1_565 S
O65 C50 1.256 . S
O66 La41 2.521 . S
O66 C51 1.261 . S
O67 La41 2.628 . S
O67 C51 1.243 . S
O68 La41 2.554 . S
O68 C58 1.240 . S
O69 La40 2.482 . S
O69 La41 2.757 . S
O69 C58 1.289 . S
O70 La41 2.470 . S
O70 C59 1.258 . S
O71 La40 2.503 . S
O71 C59 1.256 . S
H72 C44 0.930 . S
H73 C45 0.930 . S
H74 C47 0.929 . S
H75 C48 0.929 . S
H76 C53 0.930 . S
H77 C54 0.930 . S
H78 C56 0.929 . S
H79 C57 0.929 . S
La80 C82 2.928 . S
La80 O100 2.521 . S
La80 O101 2.628 . S
La80 O102 2.554 . S
La80 O103 2.757 . S
La80 O104 2.470 . S
La80 O109 2.482 . S
La80 O111 2.503 . S
La81 C91 2.928 . S
La81 O103 2.482 . S
La81 O105 2.503 . S
La81 O106 2.521 . S
La81 O107 2.628 . S
La81 O108 2.554 . S
La81 O109 2.757 . S
La81 O110 2.470 . S
C82 La80 2.928 . S
C82 C83 1.503 . S
C82 O100 1.261 . S
C82 O101 1.243 . S
C83 C82 1.503 . S
C83 C84 1.394 . S
C83 C88 1.373 . S
C84 C83 1.394 . S
C84 C85 1.380 . S
C84 H112 0.930 . S
C85 C84 1.380 . S
C85 C86 1.376 . S
C85 H113 0.930 . S
C86 C85 1.376 . S
C86 C87 1.370 . S
C87 C86 1.370 . S
C87 C88 1.396 . S
C87 H114 0.929 . S
C88 C83 1.373 . S
C88 C87 1.396 . S
C88 H115 0.929 . S
C89 O102 1.240 . S
C89 O103 1.289 . S
C90 O104 1.258 . S
C90 O105 1.256 . S
C91 La81 2.928 . S
C91 C92 1.503 . S
C91 O106 1.261 . S
C91 O107 1.243 . S
C92 C91 1.503 . S
C92 C93 1.394 . S
C92 C97 1.373 . S
C93 C92 1.394 . S
C93 C94 1.380 . S
C93 H116 0.930 . S
C94 C93 1.380 . S
C94 C95 1.376 . S
C94 H117 0.930 . S
C95 C94 1.376 . S
C95 C96 1.370 . S
C96 C95 1.370 . S
C96 C97 1.396 . S
C96 H118 0.929 . S
C97 C92 1.373 . S
C97 C96 1.396 . S
C97 H119 0.929 . S
C98 O108 1.240 . S
C98 O109 1.289 . S
C99 O110 1.258 . S
C99 O111 1.256 . S
O100 La80 2.521 . S
O100 C82 1.261 . S
O101 La80 2.628 . S
O101 C82 1.243 . S
O102 La80 2.554 . S
O102 C89 1.240 . S
O103 La80 2.757 . S
O103 La81 2.482 . S
O103 C89 1.289 . S
O104 La80 2.470 . S
O104 C90 1.258 . S
O105 La81 2.503 . S
O105 C90 1.256 . S
O106 La81 2.521 . S
O106 C91 1.261 . S
O107 La81 2.628 . S
O107 C91 1.243 . S
O108 La81 2.554 . S
O108 C98 1.240 . S
O109 La80 2.482 . S
O109 La81 2.757 . S
O109 C98 1.289 . S
O110 La81 2.470 . S
O110 C99 1.258 . S
O111 La80 2.503 . S
O111 C99 1.256 . S
H112 C84 0.930 . S
H113 C85 0.930 . S
H114 C87 0.929 . S
H115 C88 0.929 . S
H116 C93 0.930 . S
H117 C94 0.930 . S
H118 C96 0.929 . S
H119 C97 0.929 . S
H120 C125 0.930 . S
H121 C128 0.930 . S
H122 C130 0.930 . S
H123 C124 1.016 . S
C124 H123 1.016 . S
C124 N131 1.286 . S
C125 H120 0.930 . S
C125 C126 1.397 1_545 S
C125 C127 1.361 . S
C126 C125 1.397 1_565 S
C126 C130 1.390 . S
C127 C125 1.361 . S
C127 C128 1.393 . S
C127 N131 1.413 . S
C128 H121 0.930 . S
C128 C127 1.393 . S
C128 C129 1.399 . S
C129 C128 1.399 . S
C129 C130 1.381 1_545 S
C130 H122 0.930 . S
C130 C126 1.390 . S
C130 C129 1.381 1_565 S
N131 C124 1.286 . S
N131 C127 1.413 . S
H132 C137 0.930 . S
H133 C140 0.930 . S
H134 C142 0.930 . S
H135 C136 1.016 . S
C136 H135 1.016 . S
C136 N143 1.286 . S
C137 H132 0.930 . S
C137 C138 1.397 . S
C137 C139 1.361 . S
C138 C137 1.397 . S
C138 C142 1.390 . S
C139 C137 1.361 . S
C139 C140 1.393 . S
C139 N143 1.413 . S
C140 H133 0.930 . S
C140 C139 1.393 . S
C140 C141 1.399 . S
C141 C140 1.399 . S
C141 C142 1.381 . S
C142 H134 0.930 . S
C142 C138 1.390 . S
C142 C141 1.381 . S
N143 C136 1.286 . S
N143 C139 1.413 . S
H144 C149 0.932 . S
H145 C152 0.930 . S
H146 C154 0.930 . S
H147 C148 1.016 . S
C148 H147 1.016 . S
C148 N155 1.286 . S
C149 H144 0.932 . S
C149 C150 1.397 1_455 S
C149 C151 1.361 . S
C150 C149 1.397 1_655 S
C150 C154 1.390 . S
C151 C149 1.361 . S
C151 C152 1.393 . S
C151 N155 1.413 . S
C152 H145 0.930 . S
C152 C151 1.393 . S
C152 C153 1.399 . S
C153 C152 1.399 . S
C153 C154 1.381 1_455 S
C154 H146 0.930 . S
C154 C150 1.390 . S
C154 C153 1.381 1_655 S
N155 C148 1.286 . S
N155 C151 1.413 . S
H156 C161 0.930 . S
H157 C164 0.930 . S
H158 C166 0.930 . S
H159 C160 1.016 . S
C160 H159 1.016 . S
C160 N167 1.286 . S
C161 H156 0.930 . S
C161 C162 1.397 . S
C161 C163 1.361 1_455 S
C162 C161 1.397 . S
C162 C166 1.390 . S
C163 C161 1.361 1_655 S
C163 C164 1.393 . S
C163 N167 1.413 . S
C164 H157 0.930 . S
C164 C163 1.393 . S
C164 C165 1.399 1_655 S
C165 C164 1.399 1_455 S
C165 C166 1.381 . S
C166 H158 0.930 . S
C166 C162 1.390 . S
C166 C165 1.381 . S
N167 C160 1.286 . S
N167 C163 1.413 . S
H168 C173 0.930 . S
H169 C176 0.930 1_565 S
H170 C178 0.930 . S
H171 C172 1.016 . S
C172 H171 1.016 . S
C172 N179 1.286 . S
C173 H168 0.930 . S
C173 C174 1.397 . S
C173 C175 1.361 . S
C174 C173 1.397 . S
C174 C178 1.390 . S
C175 C173 1.361 . S
C175 C176 1.393 . S
C175 N179 1.413 1_545 S
C176 H169 0.930 1_545 S
C176 C175 1.393 . S
C176 C177 1.399 . S
C177 C176 1.399 . S
C177 C178 1.381 . S
C178 H170 0.930 . S
C178 C174 1.390 . S
C178 C177 1.381 . S
N179 C172 1.286 . S
N179 C175 1.413 1_565 S
H180 C185 0.930 . S
H181 C188 0.930 . S
H182 C190 0.930 . S
H183 C184 1.016 . S
C184 H183 1.016 . S
C184 N191 1.286 . S
C185 H180 0.930 . S
C185 C186 1.397 . S
C185 C187 1.361 . S
C186 C185 1.397 . S
C186 C190 1.390 . S
C187 C185 1.361 . S
C187 C188 1.393 . S
C187 N191 1.413 . S
C188 H181 0.930 . S
C188 C187 1.393 . S
C188 C189 1.399 . S
C189 C188 1.399 . S
C189 C190 1.381 . S
C190 H182 0.930 . S
C190 C186 1.390 . S
C190 C189 1.381 . S
N191 C184 1.286 . S
N191 C187 1.413 . S
H192 C198 0.930 . S
H193 C201 0.930 . S
H194 C202 0.930 . S
H195 C203 0.930 . S
H196 C206 0.930 . S
H197 C207 0.930 . S
C198 H192 0.930 . S
C198 C199 1.355 . S
C198 C200 1.415 . S
C199 C198 1.355 . S
C199 C201 1.419 . S
C200 C198 1.415 . S
C200 C205 1.425 . S
C200 C207 1.409 . S
C201 H193 0.930 . S
C201 C199 1.419 . S
C201 C202 1.362 . S
C202 H194 0.930 . S
C202 C201 1.362 . S
C202 C205 1.409 . S
C203 H195 0.930 . S
C203 C204 1.355 . S
C203 C205 1.415 . S
C204 C203 1.355 . S
C204 C206 1.419 . S
C205 C200 1.425 . S
C205 C202 1.409 . S
C205 C203 1.415 . S
C206 H196 0.930 . S
C206 C204 1.419 . S
C206 C207 1.362 . S
C207 H197 0.930 . S
C207 C200 1.409 . S
C207 C206 1.362 . S
H208 C214 0.930 . S
H209 C217 0.930 . S
H210 C218 0.930 . S
H211 C219 0.930 . S
H212 C222 0.930 . S
H213 C223 0.930 . S
C214 H208 0.930 . S
C214 C215 1.355 . S
C214 C216 1.415 . S
C215 C214 1.355 . S
C215 C217 1.419 . S
C216 C214 1.415 . S
C216 C221 1.425 . S
C216 C223 1.409 . S
C217 H209 0.930 . S
C217 C215 1.419 . S
C217 C218 1.362 . S
C218 H210 0.930 . S
C218 C217 1.362 . S
C218 C221 1.409 . S
C219 H211 0.930 . S
C219 C220 1.355 . S
C219 C221 1.415 . S
C220 C219 1.355 . S
C220 C222 1.419 . S
C221 C216 1.425 . S
C221 C218 1.409 . S
C221 C219 1.415 . S
C222 H212 0.930 . S
C222 C220 1.419 . S
C222 C223 1.362 . S
C223 H213 0.930 . S
C223 C216 1.409 . S
C223 C222 1.362 . S
H224 C230 0.930 . S
H225 C233 0.930 . S
H226 C234 0.930 . S
H227 C235 0.930 . S
H228 C238 0.930 . S
H229 C239 0.930 . S
C230 H224 0.930 . S
C230 C231 1.355 . S
C230 C232 1.415 . S
C231 C230 1.355 . S
C231 C233 1.419 . S
C232 C230 1.415 . S
C232 C237 1.425 . S
C232 C239 1.409 . S
C233 H225 0.930 . S
C233 C231 1.419 . S
C233 C234 1.362 . S
C234 H226 0.930 . S
C234 C233 1.362 . S
C234 C237 1.409 . S
C235 H227 0.930 . S
C235 C236 1.355 . S
C235 C237 1.415 . S
C236 C235 1.355 . S
C236 C238 1.419 . S
C237 C232 1.425 . S
C237 C234 1.409 . S
C237 C235 1.415 . S
C238 H228 0.930 . S
C238 C236 1.419 . S
C238 C239 1.362 . S
C239 H229 0.930 . S
C239 C232 1.409 . S
C239 C238 1.362 . S
H240 C246 0.930 . S
H241 C249 0.930 . S
H242 C250 0.930 . S
H243 C251 0.930 . S
H244 C254 0.930 . S
H245 C255 0.930 . S
C246 H240 0.930 . S
C246 C247 1.355 . S
C246 C248 1.415 . S
C247 C246 1.355 . S
C247 C249 1.419 . S
C248 C246 1.415 . S
C248 C253 1.425 . S
C248 C255 1.409 . S
C249 H241 0.930 . S
C249 C247 1.419 . S
C249 C250 1.362 . S
C250 H242 0.930 . S
C250 C249 1.362 . S
C250 C253 1.409 . S
C251 H243 0.930 . S
C251 C252 1.355 . S
C251 C253 1.415 . S
C252 C251 1.355 . S
C252 C254 1.419 . S
C253 C248 1.425 . S
C253 C250 1.409 . S
C253 C251 1.415 . S
C254 H244 0.930 . S
C254 C252 1.419 . S
C254 C255 1.362 . S
C255 H245 0.930 . S
C255 C248 1.409 . S
C255 C254 1.362 . S
H256 C262 0.930 . S
H257 C265 0.930 . S
H258 C266 0.930 . S
H259 C267 0.930 . S
H260 C270 0.930 . S
H261 C271 0.930 . S
C262 H256 0.930 . S
C262 C263 1.355 . S
C262 C264 1.415 . S
C263 C262 1.355 . S
C263 C265 1.419 . S
C264 C262 1.415 . S
C264 C269 1.425 . S
C264 C271 1.409 . S
C265 H257 0.930 . S
C265 C263 1.419 . S
C265 C266 1.362 . S
C266 H258 0.930 . S
C266 C265 1.362 . S
C266 C269 1.409 . S
C267 H259 0.930 . S
C267 C268 1.355 . S
C267 C269 1.415 . S
C268 C267 1.355 . S
C268 C270 1.419 . S
C269 C264 1.425 . S
C269 C266 1.409 . S
C269 C267 1.415 . S
C270 H260 0.930 . S
C270 C268 1.419 . S
C270 C271 1.362 . S
C271 H261 0.930 . S
C271 C264 1.409 . S
C271 C270 1.362 . S
H272 C278 0.930 . S
H273 C281 0.930 . S
H274 C282 0.930 . S
H275 C283 0.930 . S
H276 C286 0.930 . S
H277 C287 0.930 . S
C278 H272 0.930 . S
C278 C279 1.355 . S
C278 C280 1.415 . S
C279 C278 1.355 . S
C279 C281 1.419 . S
C280 C278 1.415 . S
C280 C285 1.425 . S
C280 C287 1.409 . S
C281 H273 0.930 . S
C281 C279 1.419 . S
C281 C282 1.362 . S
C282 H274 0.930 . S
C282 C281 1.362 . S
C282 C285 1.409 . S
C283 H275 0.930 . S
C283 C284 1.355 . S
C283 C285 1.415 . S
C284 C283 1.355 . S
C284 C286 1.419 . S
C285 C280 1.425 . S
C285 C282 1.409 . S
C285 C283 1.415 . S
C286 H276 0.930 . S
C286 C284 1.419 . S
C286 C287 1.362 . S
C287 H277 0.930 . S
C287 C280 1.409 . S
C287 C286 1.362 . S
H288 C294 0.930 . S
H289 C297 0.930 . S
H290 C298 0.930 . S
H291 C299 0.930 . S
H292 C302 0.930 . S
H293 C303 0.930 . S
C294 H288 0.930 . S
C294 C295 1.355 . S
C294 C296 1.415 . S
C295 C294 1.355 . S
C295 C297 1.419 . S
C296 C294 1.415 . S
C296 C301 1.425 . S
C296 C303 1.409 . S
C297 H289 0.930 . S
C297 C295 1.419 . S
C297 C298 1.362 . S
C298 H290 0.930 . S
C298 C297 1.362 . S
C298 C301 1.409 . S
C299 H291 0.930 . S
C299 C300 1.355 . S
C299 C301 1.415 . S
C300 C299 1.355 . S
C300 C302 1.419 . S
C301 C296 1.425 . S
C301 C298 1.409 . S
C301 C299 1.415 . S
C302 H292 0.930 . S
C302 C300 1.419 . S
C302 C303 1.362 . S
C303 H293 0.930 . S
C303 C296 1.409 . S
C303 C302 1.362 . S
H304 C310 0.930 . S
H305 C313 0.930 . S
H306 C314 0.930 . S
H307 C315 0.930 . S
H308 C318 0.930 . S
H309 C319 0.930 . S
C310 H304 0.930 . S
C310 C311 1.355 . S
C310 C312 1.415 . S
C311 C310 1.355 . S
C311 C313 1.419 . S
C312 C310 1.415 . S
C312 C317 1.425 . S
C312 C319 1.409 . S
C313 H305 0.930 . S
C313 C311 1.419 . S
C313 C314 1.362 . S
C314 H306 0.930 . S
C314 C313 1.362 . S
C314 C317 1.409 . S
C315 H307 0.930 . S
C315 C316 1.355 . S
C315 C317 1.415 . S
C316 C315 1.355 . S
C316 C318 1.419 . S
C317 C312 1.425 . S
C317 C314 1.409 . S
C317 C315 1.415 . S
C318 H308 0.930 . S
C318 C316 1.419 . S
C318 C319 1.362 . S
C319 H309 0.930 . S
C319 C312 1.409 . S
C319 C318 1.362 . S
H320 C326 0.930 . S
H321 C329 0.930 . S
H322 C330 0.930 . S
H323 C331 0.930 . S
H324 C334 0.930 . S
H325 C335 0.930 . S
C326 H320 0.930 . S
C326 C327 1.355 . S
C326 C328 1.415 . S
C327 C326 1.355 . S
C327 C329 1.419 . S
C328 C326 1.415 . S
C328 C333 1.425 . S
C328 C335 1.409 . S
C329 H321 0.930 . S
C329 C327 1.419 . S
C329 C330 1.362 . S
C330 H322 0.930 . S
C330 C329 1.362 . S
C330 C333 1.409 . S
C331 H323 0.930 . S
C331 C332 1.355 . S
C331 C333 1.415 . S
C332 C331 1.355 . S
C332 C334 1.419 . S
C333 C328 1.425 . S
C333 C330 1.409 . S
C333 C331 1.415 . S
C334 H324 0.930 . S
C334 C332 1.419 . S
C334 C335 1.362 . S
C335 H325 0.930 . S
C335 C328 1.409 . S
C335 C334 1.362 . S
H336 C342 0.930 . S
H337 C345 0.930 . S
H338 C346 0.930 . S
H339 C347 0.930 . S
H340 C350 0.930 . S
H341 C351 0.930 . S
C342 H336 0.930 . S
C342 C343 1.355 . S
C342 C344 1.415 . S
C343 C342 1.355 . S
C343 C345 1.419 . S
C344 C342 1.415 . S
C344 C349 1.425 . S
C344 C351 1.409 . S
C345 H337 0.930 . S
C345 C343 1.419 . S
C345 C346 1.362 . S
C346 H338 0.930 . S
C346 C345 1.362 . S
C346 C349 1.409 . S
C347 H339 0.930 . S
C347 C348 1.355 . S
C347 C349 1.415 . S
C348 C347 1.355 . S
C348 C350 1.419 . S
C349 C344 1.425 . S
C349 C346 1.409 . S
C349 C347 1.415 . S
C350 H340 0.930 . S
C350 C348 1.419 . S
C350 C351 1.362 . S
C351 H341 0.930 . S
C351 C344 1.409 . S
C351 C350 1.362 . S
H352 C358 0.930 . S
H353 C361 0.930 . S
H354 C362 0.930 . S
H355 C363 0.930 . S
H356 C366 0.930 . S
H357 C367 0.930 . S
C358 H352 0.930 . S
C358 C359 1.355 . S
C358 C360 1.415 . S
C359 C358 1.355 . S
C359 C361 1.419 . S
C360 C358 1.415 . S
C360 C365 1.425 . S
C360 C367 1.409 . S
C361 H353 0.930 . S
C361 C359 1.419 . S
C361 C362 1.362 . S
C362 H354 0.930 . S
C362 C361 1.362 . S
C362 C365 1.409 . S
C363 H355 0.930 . S
C363 C364 1.355 . S
C363 C365 1.415 . S
C364 C363 1.355 . S
C364 C366 1.419 . S
C365 C360 1.425 . S
C365 C362 1.409 . S
C365 C363 1.415 . S
C366 H356 0.930 . S
C366 C364 1.419 . S
C366 C367 1.362 . S
C367 H357 0.930 . S
C367 C360 1.409 . S
C367 C366 1.362 . S
H368 C374 0.930 . S
H369 C377 0.930 . S
H370 C378 0.930 . S
H371 C379 0.930 . S
H372 C382 0.930 . S
H373 C383 0.930 . S
C374 H368 0.930 . S
C374 C375 1.355 . S
C374 C376 1.415 . S
C375 C374 1.355 . S
C375 C377 1.419 . S
C376 C374 1.415 . S
C376 C381 1.425 . S
C376 C383 1.409 . S
C377 H369 0.930 . S
C377 C375 1.419 . S
C377 C378 1.362 . S
C378 H370 0.930 . S
C378 C377 1.362 . S
C378 C381 1.409 . S
C379 H371 0.930 . S
C379 C380 1.355 . S
C379 C381 1.415 . S
C380 C379 1.355 . S
C380 C382 1.419 . S
C381 C376 1.425 . S
C381 C378 1.409 . S
C381 C379 1.415 . S
C382 H372 0.930 . S
C382 C380 1.419 . S
C382 C383 1.362 . S
C383 H373 0.930 . S
C383 C376 1.409 . S
C383 C382 1.362 . S
H384 C390 0.930 . S
H385 C393 0.930 . S
H386 C394 0.930 . S
H387 C395 0.930 . S
H388 C398 0.930 1_655 S
H389 C399 0.930 1_655 S
C390 H384 0.930 . S
C390 C391 1.355 . S
C390 C392 1.415 . S
C391 C390 1.355 . S
C391 C393 1.419 . S
C392 C390 1.415 . S
C392 C397 1.425 . S
C392 C399 1.409 1_554 S
C393 H385 0.930 . S
C393 C391 1.419 . S
C393 C394 1.362 . S
C394 H386 0.930 . S
C394 C393 1.362 . S
C394 C397 1.409 . S
C395 H387 0.930 . S
C395 C396 1.355 . S
C395 C397 1.415 1_556 S
C396 C395 1.355 . S
C396 C398 1.419 . S
C397 C392 1.425 . S
C397 C394 1.409 . S
C397 C395 1.415 1_554 S
C398 H388 0.930 1_455 S
C398 C396 1.419 . S
C398 C399 1.362 . S
C399 H389 0.930 1_455 S
C399 C392 1.409 1_556 S
C399 C398 1.362 . S
H400 C406 0.930 . S
H401 C409 0.930 . S
H402 C410 0.930 . S
H403 C411 0.930 1_565 S
H404 C414 0.930 . S
H405 C415 0.930 . S
C406 H400 0.930 . S
C406 C407 1.355 . S
C406 C408 1.415 . S
C407 C406 1.355 . S
C407 C409 1.419 1_545 S
C408 C406 1.415 . S
C408 C413 1.425 . S
C408 C415 1.409 . S
C409 H401 0.930 . S
C409 C407 1.419 1_565 S
C409 C410 1.362 . S
C410 H402 0.930 . S
C410 C409 1.362 . S
C410 C413 1.409 1_565 S
C411 H403 0.930 1_545 S
C411 C412 1.355 . S
C411 C413 1.415 . S
C412 C411 1.355 . S
C412 C414 1.419 . S
C413 C408 1.425 . S
C413 C410 1.409 1_545 S
C413 C411 1.415 . S
C414 H404 0.930 . S
C414 C412 1.419 . S
C414 C415 1.362 . S
C415 H405 0.930 . S
C415 C408 1.409 . S
C415 C414 1.362 . S
H416 C422 0.930 . S
H417 C425 0.930 . S
H418 C426 0.930 . S
H419 C427 0.930 . S
H420 C430 0.930 . S
H421 C431 0.930 . S
C422 H416 0.930 . S
C422 C423 1.355 . S
C422 C424 1.415 . S
C423 C422 1.355 . S
C423 C425 1.419 . S
C424 C422 1.415 . S
C424 C429 1.425 . S
C424 C431 1.409 . S
C425 H417 0.930 . S
C425 C423 1.419 . S
C425 C426 1.362 . S
C426 H418 0.930 . S
C426 C425 1.362 . S
C426 C429 1.409 . S
C427 H419 0.930 . S
C427 C428 1.355 . S
C427 C429 1.415 . S
C428 C427 1.355 . S
C428 C430 1.419 . S
C429 C424 1.425 . S
C429 C426 1.409 . S
C429 C427 1.415 . S
C430 H420 0.930 . S
C430 C428 1.419 . S
C430 C431 1.362 . S
C431 H421 0.930 . S
C431 C424 1.409 . S
C431 C430 1.362 . S
H432 C438 0.930 1_565 S
H433 C441 0.930 . S
H434 C442 0.930 . S
H435 C443 0.930 . S
H436 C446 0.930 . S
H437 C447 0.930 . S
C438 H432 0.930 1_545 S
C438 C439 1.355 . S
C438 C440 1.415 . S
C439 C438 1.355 . S
C439 C441 1.419 . S
C440 C438 1.415 . S
C440 C445 1.425 . S
C440 C447 1.409 1_545 S
C441 H433 0.930 . S
C441 C439 1.419 . S
C441 C442 1.362 . S
C442 H434 0.930 . S
C442 C441 1.362 . S
C442 C445 1.409 . S
C443 H435 0.930 . S
C443 C444 1.355 . S
C443 C445 1.415 . S
C444 C443 1.355 . S
C444 C446 1.419 1_545 S
C445 C440 1.425 . S
C445 C442 1.409 . S
C445 C443 1.415 . S
C446 H436 0.930 . S
C446 C444 1.419 1_565 S
C446 C447 1.362 . S
C447 H437 0.930 . S
C447 C440 1.409 1_565 S
C447 C446 1.362 . S
H448 C454 0.930 . S
H449 C457 0.930 . S
H450 C458 0.930 . S
H451 C459 0.930 . S
H452 C462 0.930 . S
H453 C463 0.930 . S
C454 H448 0.930 . S
C454 C455 1.355 . S
C454 C456 1.415 . S
C455 C454 1.355 . S
C455 C457 1.419 . S
C456 C454 1.415 . S
C456 C461 1.425 . S
C456 C463 1.409 . S
C457 H449 0.930 . S
C457 C455 1.419 . S
C457 C458 1.362 . S
C458 H450 0.930 . S
C458 C457 1.362 . S
C458 C461 1.409 . S
C459 H451 0.930 . S
C459 C460 1.355 . S
C459 C461 1.415 1_554 S
C460 C459 1.355 . S
C460 C462 1.419 . S
C461 C456 1.425 . S
C461 C458 1.409 . S
C461 C459 1.415 1_556 S
C462 H452 0.930 . S
C462 C460 1.419 . S
C462 C463 1.362 1_554 S
C463 H453 0.930 . S
C463 C456 1.409 . S
C463 C462 1.362 1_556 S
H464 C470 0.930 . S
H465 C473 0.930 1_655 S
H466 C474 0.930 . S
H467 C475 0.930 1_655 S
H468 C478 0.930 . S
H469 C479 0.930 . S
C470 H464 0.930 . S
C470 C471 1.355 . S
C470 C472 1.415 . S
C471 C470 1.355 . S
C471 C473 1.419 . S
C472 C470 1.415 . S
C472 C477 1.425 . S
C472 C479 1.409 . S
C473 H465 0.930 1_455 S
C473 C471 1.419 . S
C473 C474 1.362 1_455 S
C474 H466 0.930 . S
C474 C473 1.362 1_655 S
C474 C477 1.409 1_655 S
C475 H467 0.930 1_455 S
C475 C476 1.355 . S
C475 C477 1.415 . S
C476 C475 1.355 . S
C476 C478 1.419 . S
C477 C472 1.425 . S
C477 C474 1.409 1_455 S
C477 C475 1.415 . S
C478 H468 0.930 . S
C478 C476 1.419 . S
C478 C479 1.362 . S
C479 H469 0.930 . S
C479 C472 1.409 . S
C479 C478 1.362 . S
C199 C6 0.895 . S
C204 C186 0.964 . S
C215 C59 1.947 . S
C220 C160 1.868 . S
C231 C86 1.287 . S
C236 C172 1.335 . S
C247 C15 0.334 . S
C252 C184 0.236 . S
C268 C162 1.824 . S
C263 C50 1.877 . S
C284 C174 1.212 . S
C279 C95 1.172 . S
C295 C46 1.326 . S
C300 C136 1.328 . S
C311 C99 3.350 . S
C316 C150 3.333 . S
C327 C10 1.875 . S
C332 C126 1.910 . S
C348 C138 1.181 . S
C343 C55 1.183 . S
C364 C148 2.769 . S
C359 C90 2.855 . S
C375 C19 1.954 . S
C380 C124 1.930 . S
C396 C153 1.784 . S
C391 C18 1.693 . S
C407 C49 1.371 . S
C412 C129 1.476 . S
C423 C98 1.513 . S
C428 C141 1.521 . S
C444 C177 1.520 . S
C439 C58 1.511 . S
C460 C189 1.228 . S
C455 C89 1.145 . S
C471 C9 1.408 . S
C476 C165 1.418 . S
