# Generated by pormake.
# Topology bwt, (3,3)-cn, num edge types: 1
# Building blocks:
#     Node 0, Type 0, BuildingBlock: WUSLED_clean_sbu_0, # of connection points: 3
#     Node 1, Type 0, BuildingBlock: WUSLED_clean_sbu_0, # of connection points: 3
#     Node 2, Type 0, BuildingBlock: WUSLED_clean_sbu_0, # of connection points: 3
#     Node 3, Type 0, BuildingBlock: WUSLED_clean_sbu_0, # of connection points: 3
#     Node 4, Type 0, BuildingBlock: WUSLED_clean_sbu_0, # of connection points: 3
#     Node 5, Type 0, BuildingBlock: WUSLED_clean_sbu_0, # of connection points: 3
#     Node 6, Type 0, BuildingBlock: WUSLED_clean_sbu_0, # of connection points: 3
#     Node 7, Type 0, BuildingBlock: WUSLED_clean_sbu_0, # of connection points: 3
#     Node 8, Type 0, BuildingBlock: WUSLED_clean_sbu_0, # of connection points: 3
#     Node 9, Type 0, BuildingBlock: WUSLED_clean_sbu_0, # of connection points: 3
#     Node 10, Type 0, BuildingBlock: WUSLED_clean_sbu_0, # of connection points: 3
#     Node 11, Type 0, BuildingBlock: WUSLED_clean_sbu_0, # of connection points: 3
#     Node 12, Type 0, BuildingBlock: WUSLED_clean_sbu_0, # of connection points: 3
#     Node 13, Type 0, BuildingBlock: WUSLED_clean_sbu_0, # of connection points: 3
#     Node 14, Type 0, BuildingBlock: WUSLED_clean_sbu_0, # of connection points: 3
#     Node 15, Type 0, BuildingBlock: WUSLED_clean_sbu_0, # of connection points: 3
#     Node 16, Type 0, BuildingBlock: WUSLED_clean_sbu_0, # of connection points: 3
#     Node 17, Type 0, BuildingBlock: WUSLED_clean_sbu_0, # of connection points: 3
#     Node 18, Type 0, BuildingBlock: WUSLED_clean_sbu_0, # of connection points: 3
#     Node 19, Type 0, BuildingBlock: WUSLED_clean_sbu_0, # of connection points: 3
#     Node 20, Type 0, BuildingBlock: WUSLED_clean_sbu_0, # of connection points: 3
#     Node 21, Type 0, BuildingBlock: WUSLED_clean_sbu_0, # of connection points: 3
#     Node 22, Type 0, BuildingBlock: WUSLED_clean_sbu_0, # of connection points: 3
#     Node 23, Type 0, BuildingBlock: WUSLED_clean_sbu_0, # of connection points: 3
#     Node 24, Type 1, BuildingBlock: PAMTOO_clean_linker_0, # of connection points: 3
#     Node 25, Type 1, BuildingBlock: PAMTOO_clean_linker_0, # of connection points: 3
#     Node 26, Type 1, BuildingBlock: PAMTOO_clean_linker_0, # of connection points: 3
#     Node 27, Type 1, BuildingBlock: PAMTOO_clean_linker_0, # of connection points: 3
#     Node 28, Type 1, BuildingBlock: PAMTOO_clean_linker_0, # of connection points: 3
#     Node 29, Type 1, BuildingBlock: PAMTOO_clean_linker_0, # of connection points: 3
#     Node 30, Type 1, BuildingBlock: PAMTOO_clean_linker_0, # of connection points: 3
#     Node 31, Type 1, BuildingBlock: PAMTOO_clean_linker_0, # of connection points: 3
#     Node 32, Type 1, BuildingBlock: PAMTOO_clean_linker_0, # of connection points: 3
#     Node 33, Type 1, BuildingBlock: PAMTOO_clean_linker_0, # of connection points: 3
#     Node 34, Type 1, BuildingBlock: PAMTOO_clean_linker_0, # of connection points: 3
#     Node 35, Type 1, BuildingBlock: PAMTOO_clean_linker_0, # of connection points: 3
#     Node 36, Type 1, BuildingBlock: PAMTOO_clean_linker_0, # of connection points: 3
#     Node 37, Type 1, BuildingBlock: PAMTOO_clean_linker_0, # of connection points: 3
#     Node 38, Type 1, BuildingBlock: PAMTOO_clean_linker_0, # of connection points: 3
#     Node 39, Type 1, BuildingBlock: PAMTOO_clean_linker_0, # of connection points: 3
#     Node 40, Type 1, BuildingBlock: PAMTOO_clean_linker_0, # of connection points: 3
#     Node 41, Type 1, BuildingBlock: PAMTOO_clean_linker_0, # of connection points: 3
#     Node 42, Type 1, BuildingBlock: PAMTOO_clean_linker_0, # of connection points: 3
#     Node 43, Type 1, BuildingBlock: PAMTOO_clean_linker_0, # of connection points: 3
#     Node 44, Type 1, BuildingBlock: PAMTOO_clean_linker_0, # of connection points: 3
#     Node 45, Type 1, BuildingBlock: PAMTOO_clean_linker_0, # of connection points: 3
#     Node 46, Type 1, BuildingBlock: PAMTOO_clean_linker_0, # of connection points: 3
#     Node 47, Type 1, BuildingBlock: PAMTOO_clean_linker_0, # of connection points: 3
#     Edge 48, Type (0, 1), BuildingBlock: KIFKEQ_clean_linker_1, # of connection points: 2
#     Edge 49, Type (0, 1), BuildingBlock: KIFKEQ_clean_linker_1, # of connection points: 2
#     Edge 50, Type (0, 1), BuildingBlock: KIFKEQ_clean_linker_1, # of connection points: 2
#     Edge 51, Type (0, 1), BuildingBlock: KIFKEQ_clean_linker_1, # of connection points: 2
#     Edge 52, Type (0, 1), BuildingBlock: KIFKEQ_clean_linker_1, # of connection points: 2
#     Edge 53, Type (0, 1), BuildingBlock: KIFKEQ_clean_linker_1, # of connection points: 2
#     Edge 54, Type (0, 1), BuildingBlock: KIFKEQ_clean_linker_1, # of connection points: 2
#     Edge 55, Type (0, 1), BuildingBlock: KIFKEQ_clean_linker_1, # of connection points: 2
#     Edge 56, Type (0, 1), BuildingBlock: KIFKEQ_clean_linker_1, # of connection points: 2
#     Edge 57, Type (0, 1), BuildingBlock: KIFKEQ_clean_linker_1, # of connection points: 2
#     Edge 58, Type (0, 1), BuildingBlock: KIFKEQ_clean_linker_1, # of connection points: 2
#     Edge 59, Type (0, 1), BuildingBlock: KIFKEQ_clean_linker_1, # of connection points: 2
#     Edge 60, Type (0, 1), BuildingBlock: KIFKEQ_clean_linker_1, # of connection points: 2
#     Edge 61, Type (0, 1), BuildingBlock: KIFKEQ_clean_linker_1, # of connection points: 2
#     Edge 62, Type (0, 1), BuildingBlock: KIFKEQ_clean_linker_1, # of connection points: 2
#     Edge 63, Type (0, 1), BuildingBlock: KIFKEQ_clean_linker_1, # of connection points: 2
#     Edge 64, Type (0, 1), BuildingBlock: KIFKEQ_clean_linker_1, # of connection points: 2
#     Edge 65, Type (0, 1), BuildingBlock: KIFKEQ_clean_linker_1, # of connection points: 2
#     Edge 66, Type (0, 1), BuildingBlock: KIFKEQ_clean_linker_1, # of connection points: 2
#     Edge 67, Type (0, 1), BuildingBlock: KIFKEQ_clean_linker_1, # of connection points: 2
#     Edge 68, Type (0, 1), BuildingBlock: KIFKEQ_clean_linker_1, # of connection points: 2
#     Edge 69, Type (0, 1), BuildingBlock: KIFKEQ_clean_linker_1, # of connection points: 2
#     Edge 70, Type (0, 1), BuildingBlock: KIFKEQ_clean_linker_1, # of connection points: 2
#     Edge 71, Type (0, 1), BuildingBlock: KIFKEQ_clean_linker_1, # of connection points: 2
#     Edge 72, Type (0, 1), BuildingBlock: KIFKEQ_clean_linker_1, # of connection points: 2
#     Edge 73, Type (0, 1), BuildingBlock: KIFKEQ_clean_linker_1, # of connection points: 2
#     Edge 74, Type (0, 1), BuildingBlock: KIFKEQ_clean_linker_1, # of connection points: 2
#     Edge 75, Type (0, 1), BuildingBlock: KIFKEQ_clean_linker_1, # of connection points: 2
#     Edge 76, Type (0, 1), BuildingBlock: KIFKEQ_clean_linker_1, # of connection points: 2
#     Edge 77, Type (0, 1), BuildingBlock: KIFKEQ_clean_linker_1, # of connection points: 2
#     Edge 78, Type (0, 1), BuildingBlock: KIFKEQ_clean_linker_1, # of connection points: 2
#     Edge 79, Type (0, 1), BuildingBlock: KIFKEQ_clean_linker_1, # of connection points: 2
#     Edge 80, Type (0, 1), BuildingBlock: KIFKEQ_clean_linker_1, # of connection points: 2
#     Edge 81, Type (0, 1), BuildingBlock: KIFKEQ_clean_linker_1, # of connection points: 2
#     Edge 82, Type (0, 1), BuildingBlock: KIFKEQ_clean_linker_1, # of connection points: 2
#     Edge 83, Type (0, 1), BuildingBlock: KIFKEQ_clean_linker_1, # of connection points: 2
#     Edge 84, Type (0, 1), BuildingBlock: KIFKEQ_clean_linker_1, # of connection points: 2
#     Edge 85, Type (0, 1), BuildingBlock: KIFKEQ_clean_linker_1, # of connection points: 2
#     Edge 86, Type (0, 1), BuildingBlock: KIFKEQ_clean_linker_1, # of connection points: 2
#     Edge 87, Type (0, 1), BuildingBlock: KIFKEQ_clean_linker_1, # of connection points: 2
#     Edge 88, Type (0, 1), BuildingBlock: KIFKEQ_clean_linker_1, # of connection points: 2
#     Edge 89, Type (0, 1), BuildingBlock: KIFKEQ_clean_linker_1, # of connection points: 2
#     Edge 90, Type (0, 1), BuildingBlock: KIFKEQ_clean_linker_1, # of connection points: 2
#     Edge 91, Type (0, 1), BuildingBlock: KIFKEQ_clean_linker_1, # of connection points: 2
#     Edge 92, Type (0, 1), BuildingBlock: KIFKEQ_clean_linker_1, # of connection points: 2
#     Edge 93, Type (0, 1), BuildingBlock: KIFKEQ_clean_linker_1, # of connection points: 2
#     Edge 94, Type (0, 1), BuildingBlock: KIFKEQ_clean_linker_1, # of connection points: 2
#     Edge 95, Type (0, 1), BuildingBlock: KIFKEQ_clean_linker_1, # of connection points: 2
#     Edge 96, Type (0, 1), BuildingBlock: KIFKEQ_clean_linker_1, # of connection points: 2
#     Edge 97, Type (0, 1), BuildingBlock: KIFKEQ_clean_linker_1, # of connection points: 2
#     Edge 98, Type (0, 1), BuildingBlock: KIFKEQ_clean_linker_1, # of connection points: 2
#     Edge 99, Type (0, 1), BuildingBlock: KIFKEQ_clean_linker_1, # of connection points: 2
#     Edge 100, Type (0, 1), BuildingBlock: KIFKEQ_clean_linker_1, # of connection points: 2
#     Edge 101, Type (0, 1), BuildingBlock: KIFKEQ_clean_linker_1, # of connection points: 2
#     Edge 102, Type (0, 1), BuildingBlock: KIFKEQ_clean_linker_1, # of connection points: 2
#     Edge 103, Type (0, 1), BuildingBlock: KIFKEQ_clean_linker_1, # of connection points: 2
#     Edge 104, Type (0, 1), BuildingBlock: KIFKEQ_clean_linker_1, # of connection points: 2
#     Edge 105, Type (0, 1), BuildingBlock: KIFKEQ_clean_linker_1, # of connection points: 2
#     Edge 106, Type (0, 1), BuildingBlock: KIFKEQ_clean_linker_1, # of connection points: 2
#     Edge 107, Type (0, 1), BuildingBlock: KIFKEQ_clean_linker_1, # of connection points: 2
#     Edge 108, Type (0, 1), BuildingBlock: KIFKEQ_clean_linker_1, # of connection points: 2
#     Edge 109, Type (0, 1), BuildingBlock: KIFKEQ_clean_linker_1, # of connection points: 2
#     Edge 110, Type (0, 1), BuildingBlock: KIFKEQ_clean_linker_1, # of connection points: 2
#     Edge 111, Type (0, 1), BuildingBlock: KIFKEQ_clean_linker_1, # of connection points: 2
#     Edge 112, Type (0, 1), BuildingBlock: KIFKEQ_clean_linker_1, # of connection points: 2
#     Edge 113, Type (0, 1), BuildingBlock: KIFKEQ_clean_linker_1, # of connection points: 2
#     Edge 114, Type (0, 1), BuildingBlock: KIFKEQ_clean_linker_1, # of connection points: 2
#     Edge 115, Type (0, 1), BuildingBlock: KIFKEQ_clean_linker_1, # of connection points: 2
#     Edge 116, Type (0, 1), BuildingBlock: KIFKEQ_clean_linker_1, # of connection points: 2
#     Edge 117, Type (0, 1), BuildingBlock: KIFKEQ_clean_linker_1, # of connection points: 2
#     Edge 118, Type (0, 1), BuildingBlock: KIFKEQ_clean_linker_1, # of connection points: 2
#     Edge 119, Type (0, 1), BuildingBlock: KIFKEQ_clean_linker_1, # of connection points: 2
# Relax obj value: 0.117
# Max RMSD: 0.171
# Mean RMSD: 0.084
data_MOF--net-bwt--node1-WUSLED_clean_sbu_0--node2-PAMTOO_clean_linker_0--edge1-KIFKEQ_clean_linker_1
_symmetry_space_group_name_H-M    P1
_symmetry_Int_Tables_number       1
_symmetry_cell_setting            triclinic
loop_
_symmetry_equiv_pos_as_xyz
'x, y, z'
_cell_length_a     69.864249
_cell_length_b     69.886256
_cell_length_c     69.84457
_cell_angle_alpha  95.203071
_cell_angle_beta   95.177965
_cell_angle_gamma 95.173479
loop_
_atom_site_label
_atom_site_type_symbol
_atom_site_fract_x
_atom_site_fract_y
_atom_site_fract_z
_atom_type_partial_charge
C0 C 0.35023 0.6395 0.36072 0.0
C1 C 0.3627 0.62932 0.37195 0.0
C2 C 0.38971 0.64099 0.35522 0.0
C3 C 0.38224 0.62995 0.36914 0.0
C4 C 0.37723 0.65117 0.34392 0.0
C5 C 0.35751 0.65023 0.34651 0.0
U6 U 0.31289 0.62304 0.39173 0.0
O7 O 0.29043 0.63755 0.40582 0.0
O8 O 0.28251 0.61107 0.38618 0.0
C9 C 0.2764 0.62511 0.39712 0.0
C10 C 0.32994 0.63941 0.3647 0.0
C11 C 0.2591 0.6332 0.3891 0.0
C12 C 0.24203 0.6504 0.36523 0.0
C13 C 0.25918 0.64379 0.37296 0.0
C14 C 0.22486 0.63609 0.38988 0.0
C15 C 0.22462 0.64649 0.37354 0.0
C16 C 0.24191 0.62957 0.39756 0.0
C17 C 0.33034 0.59287 0.43133 0.0
C18 C 0.31065 0.58469 0.45686 0.0
C19 C 0.34182 0.57228 0.45514 0.0
C20 C 0.34446 0.58172 0.43864 0.0
C21 C 0.32502 0.57388 0.46462 0.0
C22 C 0.31329 0.59408 0.44032 0.0
C23 C 0.3338 0.6036 0.41469 0.0
O24 O 0.3199 0.62238 0.36159 0.0
O25 O 0.32741 0.64879 0.38132 0.0
O26 O 0.33301 0.62234 0.41764 0.0
O27 O 0.32474 0.59593 0.3981 0.0
H28 H 0.35732 0.62102 0.38305 0.0
H29 H 0.39162 0.62208 0.37806 0.0
H30 H 0.38272 0.65971 0.33305 0.0
H31 H 0.34806 0.65815 0.33772 0.0
H32 H 0.2424 0.65847 0.35272 0.0
H33 H 0.27239 0.64671 0.36626 0.0
H34 H 0.21172 0.63241 0.39642 0.0
H35 H 0.2416 0.62132 0.40997 0.0
H36 H 0.29767 0.58646 0.46393 0.0
H37 H 0.35304 0.56388 0.4606 0.0
H38 H 0.35766 0.58057 0.43176 0.0
H39 H 0.30223 0.60263 0.4348 0.0
C40 C 0.17147 0.34261 0.74262 0.0
C41 C 0.16162 0.35107 0.75732 0.0
C42 C 0.13081 0.34113 0.73834 0.0
C43 C 0.14151 0.35026 0.75525 0.0
C44 C 0.14075 0.33245 0.72371 0.0
C45 C 0.16095 0.33322 0.72584 0.0
U46 U 0.21727 0.36793 0.76827 0.0
O47 O 0.24469 0.35752 0.77922 0.0
O48 O 0.24458 0.37943 0.75853 0.0
C49 C 0.25485 0.368 0.76828 0.0
C50 C 0.1927 0.34446 0.74461 0.0
C51 C 0.26974 0.35858 0.75818 0.0
C52 C 0.28734 0.35385 0.7299 0.0
C53 C 0.27113 0.35965 0.73836 0.0
C54 C 0.30043 0.34462 0.76062 0.0
C55 C 0.30248 0.3468 0.74106 0.0
C56 C 0.28427 0.35053 0.76909 0.0
C57 C 0.21273 0.40812 0.80725 0.0
C58 C 0.24125 0.424 0.82668 0.0
C59 C 0.2102 0.4364 0.8294 0.0
C60 C 0.20157 0.42172 0.81554 0.0
C61 C 0.23014 0.43768 0.83517 0.0
C62 C 0.23263 0.4094 0.8128 0.0
C63 C 0.20366 0.39288 0.79258 0.0
O64 O 0.20076 0.36082 0.73975 0.0
O65 O 0.2007 0.33954 0.76099 0.0
O66 O 0.20631 0.37515 0.7963 0.0
O67 O 0.20621 0.39604 0.7747 0.0
H68 H 0.16952 0.35847 0.77036 0.0
H69 H 0.13435 0.35681 0.76693 0.0
H70 H 0.13296 0.32549 0.71043 0.0
H71 H 0.16835 0.32674 0.71429 0.0
H72 H 0.28846 0.35597 0.71486 0.0
H73 H 0.26018 0.36582 0.72954 0.0
H74 H 0.31164 0.33897 0.76957 0.0
H75 H 0.28355 0.34959 0.78442 0.0
H76 H 0.25657 0.42435 0.831 0.0
H77 H 0.20127 0.44681 0.8355 0.0
H78 H 0.18621 0.421 0.81127 0.0
H79 H 0.24146 0.39902 0.80646 0.0
C80 C 0.72179 0.98701 0.66153 0.0
C81 C 0.73664 0.99358 0.65076 0.0
C82 C 0.76074 0.98406 0.67451 0.0
C83 C 0.75594 0.99223 0.65725 0.0
C84 C 0.74582 0.97778 0.68541 0.0
C85 C 0.7265 0.97927 0.67897 0.0
U86 U 0.68481 0.98507 0.61851 0.0
O87 O 0.6566 0.96803 0.6115 0.0
O88 O 0.65851 0.99967 0.61326 0.0
C89 C 0.64712 0.98344 0.61137 0.0
C90 C 0.70144 0.98671 0.65386 0.0
C91 C 0.63063 0.98343 0.623 0.0
C92 C 0.61757 0.98388 0.65406 0.0
C93 C 0.63332 0.9831 0.64309 0.0
C94 C 0.59629 0.98507 0.62489 0.0
C95 C 0.59888 0.98507 0.6451 0.0
C96 C 0.61205 0.98427 0.61395 0.0
C97 C 0.70335 0.9829 0.56862 0.0
C98 C 0.68416 0.97049 0.53862 0.0
C99 C 0.71562 0.98797 0.53785 0.0
C100 C 0.71784 0.99053 0.55804 0.0
C101 C 0.69891 0.97761 0.52795 0.0
C102 C 0.68632 0.9732 0.5588 0.0
C103 C 0.70658 0.98447 0.58981 0.0
O104 O 0.69682 0.00211 0.64566 0.0
O105 O 0.69422 0.97046 0.64381 0.0
O106 O 0.70078 0.96897 0.59787 0.0
O107 O 0.7022 0.00056 0.59888 0.0
H108 H 0.7333 0.99933 0.63709 0.0
H109 H 0.76706 0.99693 0.64838 0.0
H110 H 0.74908 0.97154 0.69883 0.0
H111 H 0.71522 0.97399 0.68739 0.0
H112 H 0.62003 0.98361 0.66956 0.0
H113 H 0.64761 0.98242 0.65029 0.0
H114 H 0.58217 0.98623 0.61756 0.0
H115 H 0.60976 0.9846 0.59843 0.0
H116 H 0.67104 0.96265 0.53135 0.0
H117 H 0.72728 0.99348 0.53002 0.0
H118 H 0.73106 0.99808 0.56541 0.0
H119 H 0.67487 0.96737 0.56673 0.0
C120 C 0.73615 0.01065 0.28744 0.0
C121 C 0.72753 0.02758 0.29225 0.0
C122 C 0.69603 0.00911 0.29098 0.0
C123 C 0.70767 0.02684 0.29393 0.0
C124 C 0.70485 0.99209 0.28693 0.0
C125 C 0.72466 0.99285 0.2851 0.0
U126 U 0.77037 0.99903 0.25092 0.0
O127 O 0.79399 0.01647 0.23973 0.0
O128 O 0.79949 0.9894 0.25211 0.0
C129 C 0.80682 0.00465 0.24454 0.0
C130 C 0.75637 0.01198 0.28253 0.0
C131 C 0.8259 0.01353 0.25323 0.0
C132 C 0.8503 0.0217 0.28057 0.0
C133 C 0.83125 0.01513 0.27322 0.0
C134 C 0.8585 0.02565 0.2481 0.0
C135 C 0.86425 0.02673 0.26803 0.0
C136 C 0.83955 0.01915 0.24082 0.0
C137 C 0.74671 0.97154 0.20369 0.0
C138 C 0.76049 0.97143 0.17299 0.0
C139 C 0.7317 0.95026 0.176 0.0
C140 C 0.73226 0.95722 0.19546 0.0
C141 C 0.74553 0.95762 0.16441 0.0
C142 C 0.7611 0.97829 0.19249 0.0
C143 C 0.74585 0.98013 0.22354 0.0
O144 O 0.76446 0.99568 0.28094 0.0
O145 O 0.75974 0.02281 0.26853 0.0
O146 O 0.74885 0.99906 0.22606 0.0
O147 O 0.75479 0.97163 0.23728 0.0
H148 H 0.73603 0.04149 0.29398 0.0
H149 H 0.70133 0.04025 0.29676 0.0
H150 H 0.69639 0.97817 0.2849 0.0
H151 H 0.7308 0.9795 0.28128 0.0
H152 H 0.85416 0.02255 0.29601 0.0
H153 H 0.82088 0.01088 0.28305 0.0
H154 H 0.86883 0.02901 0.23793 0.0
H155 H 0.83572 0.01789 0.22534 0.0
H156 H 0.77126 0.97757 0.16449 0.0
H157 H 0.72021 0.93937 0.16995 0.0
H158 H 0.72112 0.95177 0.20395 0.0
H159 H 0.77243 0.98931 0.19865 0.0
C160 C 0.3499 0.34556 0.64135 0.0
C161 C 0.36161 0.35903 0.63274 0.0
C162 C 0.342 0.38446 0.64256 0.0
C163 C 0.35765 0.37824 0.63325 0.0
C164 C 0.32992 0.37085 0.65074 0.0
C165 C 0.33378 0.35146 0.65001 0.0
U166 U 0.39085 0.31596 0.63944 0.0
O167 O 0.40256 0.29512 0.65809 0.0
O168 O 0.39473 0.28672 0.62705 0.0
C169 C 0.4006 0.28115 0.64391 0.0
C170 C 0.3562 0.32623 0.64313 0.0
C171 C 0.39216 0.26216 0.64836 0.0
C172 C 0.39676 0.23259 0.66322 0.0
C173 C 0.40332 0.25148 0.66032 0.0
C174 C 0.36734 0.23498 0.64278 0.0
C175 C 0.3789 0.22393 0.65411 0.0
C176 C 0.37391 0.25395 0.63992 0.0
C177 C 0.43703 0.34421 0.62727 0.0
C178 C 0.46807 0.33114 0.62782 0.0
C179 C 0.46327 0.36027 0.61237 0.0
C180 C 0.4443 0.35935 0.61731 0.0
C181 C 0.4753 0.34608 0.61741 0.0
C182 C 0.44904 0.33017 0.63264 0.0
C183 C 0.41668 0.3428 0.63105 0.0
O184 O 0.36095 0.31741 0.62705 0.0
O185 O 0.36898 0.32547 0.65798 0.0
O186 O 0.41318 0.34002 0.64881 0.0
O187 O 0.40486 0.33191 0.61791 0.0
H188 H 0.3743 0.35485 0.62623 0.0
H189 H 0.36737 0.3884 0.62706 0.0
H190 H 0.3177 0.37527 0.65793 0.0
H191 H 0.32468 0.34129 0.65685 0.0
H192 H 0.40586 0.22462 0.67232 0.0
H193 H 0.4174 0.25758 0.66703 0.0
H194 H 0.35358 0.22872 0.63544 0.0
H195 H 0.36499 0.26194 0.63067 0.0
H196 H 0.47694 0.3199 0.63175 0.0
H197 H 0.46852 0.37207 0.60458 0.0
H198 H 0.43518 0.37032 0.61309 0.0
H199 H 0.44359 0.3183 0.64025 0.0
C200 C 0.30486 0.76673 0.96995 0.0
C201 C 0.29182 0.75133 0.96118 0.0
C202 C 0.31572 0.72881 0.96701 0.0
C203 C 0.29721 0.73256 0.95969 0.0
C204 C 0.32897 0.74433 0.97533 0.0
C205 C 0.32355 0.7632 0.97682 0.0
U206 U 0.26262 0.79532 0.97149 0.0
O207 O 0.25613 0.82327 0.96187 0.0
O208 O 0.2552 0.81832 0.99242 0.0
C209 C 0.25393 0.83073 0.97941 0.0
C210 C 0.29812 0.78594 0.97341 0.0
C211 C 0.26369 0.85016 0.98511 0.0
C212 C 0.29193 0.87355 0.98746 0.0
C213 C 0.28347 0.85448 0.98359 0.0
C214 C 0.26105 0.88388 0.99505 0.0
C215 C 0.28072 0.88854 0.99293 0.0
C216 C 0.25265 0.86488 0.99118 0.0
C217 C 0.21352 0.76618 0.9589 0.0
C218 C 0.18326 0.77898 0.96508 0.0
C219 C 0.18307 0.74762 0.94707 0.0
C220 C 0.20325 0.7496 0.94887 0.0
C221 C 0.17286 0.76217 0.95537 0.0
C222 C 0.20345 0.781 0.96678 0.0
C223 C 0.23469 0.76759 0.96141 0.0
O224 O 0.28971 0.79258 0.9581 0.0
O225 O 0.28844 0.78799 0.98863 0.0
O226 O 0.24257 0.77189 0.97926 0.0
O227 O 0.24347 0.77717 0.94884 0.0
H228 H 0.27722 0.75374 0.95604 0.0
H229 H 0.28646 0.72101 0.95359 0.0
H230 H 0.34341 0.74194 0.98093 0.0
H231 H 0.33376 0.77491 0.98376 0.0
H232 H 0.30714 0.87661 0.98587 0.0
H233 H 0.29222 0.84321 0.97897 0.0
H234 H 0.25188 0.89504 0.99888 0.0
H235 H 0.23735 0.86178 0.99236 0.0
H236 H 0.17578 0.79052 0.97143 0.0
H237 H 0.17548 0.73442 0.93971 0.0
H238 H 0.21084 0.73805 0.9427 0.0
H239 H 0.21121 0.79398 0.97445 0.0
C240 C 0.73848 0.15421 0.35776 0.0
C241 C 0.75421 0.14321 0.35581 0.0
C242 C 0.73282 0.11338 0.35343 0.0
C243 C 0.75139 0.12306 0.35355 0.0
C244 C 0.7171 0.12446 0.35538 0.0
C245 C 0.71991 0.14465 0.35745 0.0
U246 U 0.76491 0.19909 0.38554 0.0
O247 O 0.77747 0.22635 0.37612 0.0
O248 O 0.75553 0.22671 0.39681 0.0
C249 C 0.76647 0.23682 0.38622 0.0
C250 C 0.74138 0.17552 0.36099 0.0
C251 C 0.75777 0.25235 0.37662 0.0
C252 C 0.7299 0.26869 0.36626 0.0
C253 C 0.73769 0.25236 0.37272 0.0
C254 C 0.76216 0.28472 0.3666 0.0
C255 C 0.74204 0.28525 0.36359 0.0
C256 C 0.7699 0.26845 0.37306 0.0
C257 C 0.80313 0.19318 0.42583 0.0
C258 C 0.82385 0.22113 0.44108 0.0
C259 C 0.82555 0.19009 0.45375 0.0
C260 C 0.81113 0.18185 0.43941 0.0
C261 C 0.83218 0.20982 0.45467 0.0
C262 C 0.80942 0.21289 0.42684 0.0
C263 C 0.78828 0.18446 0.41058 0.0
O264 O 0.73623 0.18309 0.37745 0.0
O265 O 0.75796 0.1836 0.35661 0.0
O266 O 0.79224 0.18691 0.39287 0.0
O267 O 0.7705 0.18764 0.41363 0.0
H268 H 0.76876 0.15013 0.35612 0.0
H269 H 0.7638 0.11507 0.35177 0.0
H270 H 0.70263 0.11755 0.35565 0.0
H271 H 0.70759 0.15282 0.35909 0.0
H272 H 0.71435 0.26853 0.36384 0.0
H273 H 0.728 0.24006 0.37528 0.0
H274 H 0.77195 0.29726 0.36496 0.0
H275 H 0.78543 0.26877 0.37608 0.0
H276 H 0.82882 0.23627 0.44112 0.0
H277 H 0.83149 0.18103 0.46411 0.0
H278 H 0.80631 0.16661 0.43888 0.0
H279 H 0.80333 0.22186 0.41646 0.0
C280 C 0.65085 0.72286 0.96994 0.0
C281 C 0.63872 0.73496 0.96078 0.0
C282 C 0.66298 0.76238 0.96914 0.0
C283 C 0.64477 0.75448 0.96028 0.0
C284 C 0.67506 0.75027 0.97845 0.0
C285 C 0.66906 0.73063 0.97878 0.0
U286 U 0.60943 0.68502 0.97135 0.0
O287 O 0.60221 0.65608 0.95579 0.0
O288 O 0.6056 0.65961 0.98751 0.0
C289 C 0.60288 0.64747 0.97177 0.0
C290 C 0.64419 0.70237 0.97085 0.0
C291 C 0.61417 0.63073 0.97192 0.0
C292 C 0.64485 0.61687 0.97409 0.0
C293 C 0.63441 0.63301 0.97327 0.0
C294 C 0.61489 0.59606 0.97189 0.0
C295 C 0.63521 0.59821 0.97359 0.0
C296 C 0.60449 0.61218 0.97106 0.0
C297 C 0.55921 0.70327 0.97115 0.0
C298 C 0.52808 0.68644 0.95842 0.0
C299 C 0.52964 0.71427 0.98209 0.0
C300 C 0.54979 0.71613 0.98274 0.0
C301 C 0.51858 0.6996 0.96968 0.0
C302 C 0.54823 0.68819 0.95922 0.0
C303 C 0.58036 0.70631 0.97124 0.0
O304 O 0.63691 0.69843 0.98693 0.0
O305 O 0.6338 0.69384 0.95526 0.0
O306 O 0.58757 0.6998 0.95544 0.0
O307 O 0.59042 0.70289 0.98717 0.0
H308 H 0.62447 0.72936 0.95413 0.0
H309 H 0.63501 0.7635 0.9533 0.0
H310 H 0.68919 0.75596 0.98535 0.0
H311 H 0.67856 0.72155 0.98603 0.0
H312 H 0.66048 0.61906 0.97563 0.0
H313 H 0.6421 0.64727 0.97396 0.0
H314 H 0.60701 0.5819 0.9712 0.0
H315 H 0.58885 0.61018 0.96993 0.0
H316 H 0.51991 0.67486 0.94891 0.0
H317 H 0.5227 0.72468 0.99081 0.0
H318 H 0.55801 0.72784 0.99205 0.0
H319 H 0.55518 0.67795 0.95028 0.0
C320 C 0.647 0.34949 0.3617 0.0
C321 C 0.64418 0.36513 0.37489 0.0
C322 C 0.65154 0.34635 0.40182 0.0
C323 C 0.64656 0.36363 0.39475 0.0
C324 C 0.65415 0.33062 0.38856 0.0
C325 C 0.65198 0.33222 0.36864 0.0
U326 U 0.62814 0.37626 0.32088 0.0
O327 O 0.64211 0.38782 0.29685 0.0
O328 O 0.61617 0.36719 0.29082 0.0
C329 C 0.6302 0.37717 0.28358 0.0
C330 C 0.64517 0.35147 0.34081 0.0
C331 C 0.63883 0.36767 0.26699 0.0
C332 C 0.66353 0.36849 0.24447 0.0
C333 C 0.65684 0.37516 0.26189 0.0
C334 C 0.63475 0.34611 0.23713 0.0
C335 C 0.65234 0.35424 0.23164 0.0
C336 C 0.62803 0.35281 0.25456 0.0
C337 C 0.59924 0.4184 0.33494 0.0
C338 C 0.58944 0.44088 0.31228 0.0
C339 C 0.58271 0.4459 0.34571 0.0
C340 C 0.59131 0.42919 0.34959 0.0
C341 C 0.58195 0.45212 0.32708 0.0
C342 C 0.59803 0.42415 0.31619 0.0
C343 C 0.60959 0.40183 0.33968 0.0
O344 O 0.62761 0.34768 0.33201 0.0
O345 O 0.6543 0.36728 0.33589 0.0
O346 O 0.62828 0.40404 0.33837 0.0
O347 O 0.60141 0.3848 0.33219 0.0
H348 H 0.64026 0.37859 0.36982 0.0
H349 H 0.64421 0.3759 0.40458 0.0
H350 H 0.65812 0.31717 0.3936 0.0
H351 H 0.6543 0.32003 0.35867 0.0
H352 H 0.67724 0.3749 0.24077 0.0
H353 H 0.66547 0.38675 0.27099 0.0
H354 H 0.62565 0.33529 0.2275 0.0
H355 H 0.61396 0.34692 0.25785 0.0
H356 H 0.58888 0.44515 0.29773 0.0
H357 H 0.57733 0.45434 0.35748 0.0
H358 H 0.5922 0.42495 0.36416 0.0
H359 H 0.60408 0.41593 0.3047 0.0
C360 C 0.97214 0.27763 0.75095 0.0
C361 C 0.98601 0.27088 0.73929 0.0
C362 C 0.97346 0.28809 0.71287 0.0
C363 C 0.98665 0.27605 0.72052 0.0
C364 C 0.95934 0.29455 0.72437 0.0
C365 C 0.95881 0.28951 0.74329 0.0
U366 U 0.96484 0.23793 0.78346 0.0
O367 O 0.98131 0.23174 0.81014 0.0
O368 O 0.9504 0.23553 0.80999 0.0
C369 C 0.96653 0.23314 0.82039 0.0
C370 C 0.97109 0.2718 0.77073 0.0
C371 C 0.97061 0.24421 0.83965 0.0
C372 C 0.98954 0.24861 0.871 0.0
C373 C 0.98663 0.24042 0.85185 0.0
C374 C 0.96077 0.26515 0.86604 0.0
C375 C 0.97638 0.26068 0.87848 0.0
C376 C 0.95788 0.25696 0.84681 0.0
C377 C 0.95451 0.18656 0.75806 0.0
C378 C 0.93844 0.15802 0.76946 0.0
C379 C 0.96157 0.1546 0.74583 0.0
C380 C 0.96447 0.17464 0.74606 0.0
C381 C 0.94853 0.14608 0.7575 0.0
C382 C 0.94149 0.17812 0.76983 0.0
C383 C 0.95798 0.20765 0.7579 0.0
O384 O 0.95394 0.26484 0.77474 0.0
O385 O 0.98506 0.26193 0.77721 0.0
O386 O 0.97549 0.21526 0.76442 0.0
O387 O 0.94436 0.21793 0.76376 0.0
H388 H 0.99638 0.26149 0.74458 0.0
H389 H 0.99746 0.2705 0.71193 0.0
H390 H 0.94903 0.30392 0.71892 0.0
H391 H 0.94793 0.29485 0.75192 0.0
H392 H 0.00185 0.24509 0.88011 0.0
H393 H 0.99662 0.23057 0.84674 0.0
H394 H 0.95026 0.27424 0.87138 0.0
H395 H 0.94533 0.26011 0.83782 0.0
H396 H 0.92842 0.15182 0.77871 0.0
H397 H 0.96937 0.14575 0.7363 0.0
H398 H 0.97452 0.18086 0.73684 0.0
H399 H 0.93371 0.18702 0.77932 0.0
C400 C 0.34519 0.73441 0.17131 0.0
C401 C 0.3594 0.73756 0.15864 0.0
C402 C 0.33717 0.72249 0.13151 0.0
C403 C 0.35547 0.73154 0.13893 0.0
C404 C 0.32296 0.71945 0.14425 0.0
C405 C 0.32697 0.72532 0.164 0.0
U406 U 0.3723 0.76946 0.21105 0.0
O407 O 0.36231 0.78442 0.23697 0.0
O408 O 0.38581 0.76568 0.23984 0.0
C409 C 0.37399 0.77618 0.24877 0.0
C410 C 0.34899 0.74127 0.19196 0.0
C411 C 0.36557 0.76795 0.26519 0.0
C412 C 0.35762 0.74056 0.28308 0.0
C413 C 0.36293 0.74792 0.26616 0.0
C414 C 0.35631 0.77308 0.29783 0.0
C415 C 0.35475 0.75307 0.29932 0.0
C416 C 0.36175 0.78043 0.28094 0.0
C417 C 0.40914 0.80805 0.19871 0.0
C418 C 0.42456 0.83182 0.22419 0.0
C419 C 0.4343 0.83196 0.19176 0.0
C420 C 0.42083 0.81604 0.18562 0.0
C421 C 0.43624 0.8401 0.21111 0.0
C422 C 0.41118 0.81591 0.21806 0.0
C423 C 0.3948 0.79156 0.19228 0.0
O424 O 0.3662 0.73882 0.20012 0.0
O425 O 0.34356 0.75844 0.19672 0.0
O426 O 0.37684 0.79464 0.19468 0.0
O427 O 0.39941 0.77496 0.19782 0.0
H428 H 0.37349 0.74481 0.16396 0.0
H429 H 0.36662 0.7343 0.12944 0.0
H430 H 0.30879 0.71237 0.13897 0.0
H431 H 0.31579 0.72289 0.17356 0.0
H432 H 0.35677 0.72508 0.28373 0.0
H433 H 0.36572 0.73798 0.25414 0.0
H434 H 0.35387 0.78312 0.3099 0.0
H435 H 0.36362 0.79594 0.28044 0.0
H436 H 0.4254 0.8379 0.2391 0.0
H437 H 0.4432 0.83787 0.18137 0.0
H438 H 0.41949 0.81003 0.17065 0.0
H439 H 0.40224 0.80987 0.22836 0.0
C440 C 0.97794 0.65954 0.73348 0.0
C441 C 0.96905 0.64671 0.74511 0.0
C442 C 0.97791 0.66966 0.77356 0.0
C443 C 0.96893 0.65176 0.76491 0.0
C444 C 0.98689 0.68247 0.76189 0.0
C445 C 0.98685 0.67746 0.74199 0.0
U446 U 0.97938 0.61975 0.69397 0.0
O447 O 0.96394 0.61338 0.66485 0.0
O448 O 0.99567 0.61687 0.66856 0.0
C449 C 0.97999 0.61388 0.65635 0.0
C450 C 0.97869 0.65383 0.71272 0.0
C451 C 0.98024 0.62414 0.63892 0.0
C452 C 0.98548 0.65332 0.62288 0.0
C453 C 0.98407 0.64427 0.63988 0.0
C454 C 0.97882 0.62222 0.60395 0.0
C455 C 0.98316 0.64233 0.60474 0.0
C456 C 0.97738 0.61324 0.62088 0.0
C457 C 0.97986 0.56882 0.70841 0.0
C458 C 0.97394 0.54078 0.68469 0.0
C459 C 0.98671 0.53727 0.71749 0.0
C460 C 0.98643 0.55708 0.72232 0.0
C461 C 0.98032 0.52889 0.69866 0.0
C462 C 0.97381 0.56062 0.6895 0.0
C463 C 0.97956 0.58959 0.7137 0.0
O464 O 0.9948 0.64694 0.70825 0.0
O465 O 0.96312 0.64362 0.70391 0.0
O466 O 0.96366 0.59689 0.70768 0.0
O467 O 0.99535 0.60031 0.71107 0.0
H468 H 0.96237 0.63265 0.73893 0.0
H469 H 0.96218 0.64145 0.77353 0.0
H470 H 0.99386 0.69639 0.76814 0.0
H471 H 0.99391 0.68749 0.73329 0.0
H472 H 0.98899 0.66882 0.62397 0.0
H473 H 0.98635 0.65289 0.65373 0.0
H474 H 0.97666 0.61338 0.59022 0.0
H475 H 0.97434 0.59768 0.6199 0.0
H476 H 0.96912 0.53475 0.67003 0.0
H477 H 0.99151 0.52843 0.7286 0.0
H478 H 0.99123 0.56322 0.73696 0.0
H479 H 0.9689 0.56954 0.6785 0.0
C480 C 0.66648 0.36431 0.66536 0.0
C481 C 0.65358 0.37241 0.65258 0.0
C482 C 0.6277 0.36623 0.67296 0.0
C483 C 0.6344 0.37337 0.65634 0.0
C484 C 0.64085 0.35872 0.6861 0.0
C485 C 0.66012 0.35774 0.68229 0.0
U486 U 0.70092 0.36702 0.62773 0.0
O487 O 0.73133 0.37842 0.62836 0.0
O488 O 0.7224 0.34802 0.61798 0.0
C489 C 0.73687 0.36153 0.62253 0.0
C490 C 0.68609 0.36179 0.66021 0.0
C491 C 0.75469 0.35578 0.63269 0.0
C492 C 0.78002 0.334 0.63352 0.0
C493 C 0.76178 0.33838 0.62627 0.0
C494 C 0.78425 0.36403 0.65428 0.0
C495 C 0.79171 0.347 0.64725 0.0
C496 C 0.76597 0.36839 0.64708 0.0
C497 C 0.68081 0.38407 0.58021 0.0
C498 C 0.70041 0.38815 0.55364 0.0
C499 C 0.66803 0.39817 0.55184 0.0
C500 C 0.66578 0.3921 0.57011 0.0
C501 C 0.68545 0.39645 0.54346 0.0
C502 C 0.6981 0.38201 0.57186 0.0
C503 C 0.67855 0.37873 0.59977 0.0
O504 O 0.68702 0.34765 0.64666 0.0
O505 O 0.69636 0.37782 0.65738 0.0
O506 O 0.68837 0.39051 0.61368 0.0
O507 O 0.67959 0.36042 0.60224 0.0
H508 H 0.65824 0.37755 0.63941 0.0
H509 H 0.62474 0.37952 0.64608 0.0
H510 H 0.6361 0.35301 0.69897 0.0
H511 H 0.66988 0.35135 0.69226 0.0
H512 H 0.78517 0.32063 0.62797 0.0
H513 H 0.75349 0.32845 0.6151 0.0
H514 H 0.79291 0.37451 0.66466 0.0
H515 H 0.76106 0.382 0.65226 0.0
H516 H 0.71409 0.3868 0.54774 0.0
H517 H 0.6561 0.40415 0.54428 0.0
H518 H 0.65232 0.39374 0.57637 0.0
H519 H 0.7099 0.37594 0.57958 0.0
C520 C 0.84661 0.64741 0.27638 0.0
C521 C 0.85803 0.63414 0.26786 0.0
C522 C 0.88732 0.65407 0.28163 0.0
C523 C 0.87816 0.63737 0.27055 0.0
C524 C 0.87576 0.66736 0.29009 0.0
C525 C 0.85559 0.66403 0.28749 0.0
U526 U 0.80218 0.62416 0.24545 0.0
O527 O 0.7752 0.60897 0.25231 0.0
O528 O 0.77425 0.63515 0.23716 0.0
C529 C 0.76448 0.62188 0.24559 0.0
C530 C 0.82541 0.64425 0.27311 0.0
C531 C 0.74955 0.62837 0.25772 0.0
C532 C 0.73307 0.62699 0.28688 0.0
C533 C 0.74909 0.62368 0.27685 0.0
C534 C 0.71831 0.64094 0.25939 0.0
C535 C 0.71728 0.63515 0.27805 0.0
C536 C 0.73426 0.63748 0.24929 0.0
C537 C 0.80962 0.59274 0.1997 0.0
C538 C 0.78355 0.58107 0.17486 0.0
C539 C 0.81456 0.56813 0.17427 0.0
C540 C 0.82154 0.58016 0.191 0.0
C541 C 0.79554 0.56857 0.16593 0.0
C542 C 0.79051 0.593 0.19166 0.0
C543 C 0.81726 0.6054 0.21717 0.0
O544 O 0.81774 0.65189 0.25807 0.0
O545 O 0.81793 0.62651 0.27439 0.0
O546 O 0.81452 0.59827 0.23358 0.0
O547 O 0.81373 0.62357 0.21718 0.0
H548 H 0.85137 0.62127 0.25909 0.0
H549 H 0.88653 0.62666 0.26406 0.0
H550 H 0.88228 0.6805 0.29847 0.0
H551 H 0.84699 0.67452 0.29401 0.0
H552 H 0.73274 0.62258 0.30133 0.0
H553 H 0.7607 0.61674 0.28381 0.0
H554 H 0.70629 0.64709 0.25215 0.0
H555 H 0.73424 0.64113 0.23454 0.0
H556 H 0.76876 0.58155 0.16891 0.0
H557 H 0.82418 0.55879 0.16762 0.0
H558 H 0.83631 0.57974 0.19707 0.0
H559 H 0.78102 0.60248 0.19832 0.0
C560 C 0.24637 0.02907 0.3518 0.0
C561 C 0.23399 0.03158 0.36638 0.0
C562 C 0.207 0.03339 0.34223 0.0
C563 C 0.21452 0.03377 0.36165 0.0
C564 C 0.21938 0.03047 0.32763 0.0
C565 C 0.23895 0.02839 0.33241 0.0
U566 U 0.2863 0.0245 0.39036 0.0
O567 O 0.31173 0.00812 0.39111 0.0
O568 O 0.31548 0.03972 0.39679 0.0
C569 C 0.32396 0.02375 0.39453 0.0
C570 C 0.26701 0.02761 0.35699 0.0
C571 C 0.34044 0.02446 0.38289 0.0
C572 C 0.35389 0.02301 0.35198 0.0
C573 C 0.33786 0.02317 0.36265 0.0
C574 C 0.37514 0.02583 0.38172 0.0
C575 C 0.37273 0.02419 0.36141 0.0
C576 C 0.35914 0.02596 0.39233 0.0
C577 C 0.27347 0.02127 0.44157 0.0
C578 C 0.29809 0.02632 0.46885 0.0
C579 C 0.26542 0.01404 0.4734 0.0
C580 C 0.25995 0.01468 0.45372 0.0
C581 C 0.28452 0.02007 0.48125 0.0
C582 C 0.29263 0.02683 0.44919 0.0
C583 C 0.2675 0.0225 0.42106 0.0
O584 O 0.27599 0.04249 0.36813 0.0
O585 O 0.27124 0.01093 0.36272 0.0
O586 O 0.26989 0.00726 0.40939 0.0
O587 O 0.27319 0.03888 0.41446 0.0
H588 H 0.23947 0.03202 0.38145 0.0
H589 H 0.20531 0.03569 0.37321 0.0
H590 H 0.21405 0.03025 0.31256 0.0
H591 H 0.24832 0.02647 0.32098 0.0
H592 H 0.35155 0.02194 0.33636 0.0
H593 H 0.32347 0.02207 0.35514 0.0
H594 H 0.38937 0.02645 0.38945 0.0
H595 H 0.36136 0.02692 0.40796 0.0
H596 H 0.31283 0.03135 0.47439 0.0
H597 H 0.25468 0.00886 0.48245 0.0
H598 H 0.24513 0.01017 0.44801 0.0
H599 H 0.30331 0.03187 0.43997 0.0
C600 C 0.24352 0.97752 0.71217 0.0
C601 C 0.25204 0.9963 0.71093 0.0
C602 C 0.28385 0.9869 0.72124 0.0
C603 C 0.27189 0.00096 0.7155 0.0
C604 C 0.27517 0.96829 0.7232 0.0
C605 C 0.25529 0.96363 0.7186 0.0
U606 U 0.18849 0.97171 0.71696 0.0
O607 O 0.16683 0.94831 0.70374 0.0
O608 O 0.16512 0.97779 0.69581 0.0
C609 C 0.15644 0.96019 0.6948 0.0
C610 C 0.223 0.97195 0.70482 0.0
C611 C 0.13608 0.95916 0.69868 0.0
C612 C 0.10201 0.95225 0.68751 0.0
C613 C 0.12143 0.95249 0.68394 0.0
C614 C 0.11183 0.96512 0.7207 0.0
C615 C 0.097 0.95878 0.70589 0.0
C616 C 0.13118 0.96531 0.71712 0.0
C617 C 0.19803 0.99055 0.77107 0.0
C618 C 0.20249 0.99271 0.80604 0.0
C619 C 0.22745 0.00723 0.78843 0.0
C620 C 0.21621 0.00091 0.77096 0.0
C621 C 0.22072 0.00304 0.80613 0.0
C622 C 0.19127 0.98657 0.78868 0.0
C623 C 0.18568 0.98361 0.75322 0.0
O624 O 0.21422 0.95681 0.71145 0.0
O625 O 0.21196 0.9861 0.70301 0.0
O626 O 0.18526 0.99512 0.73933 0.0
O627 O 0.18634 0.96539 0.747 0.0
H628 H 0.24351 0.00732 0.70575 0.0
H629 H 0.27792 0.01536 0.71346 0.0
H630 H 0.28376 0.95715 0.72794 0.0
H631 H 0.24923 0.94897 0.71958 0.0
H632 H 0.09093 0.94745 0.67577 0.0
H633 H 0.12499 0.94772 0.66961 0.0
H634 H 0.10846 0.96998 0.73507 0.0
H635 H 0.14235 0.97044 0.7287 0.0
H636 H 0.1968 0.98951 0.81944 0.0
H637 H 0.24149 0.01507 0.7881 0.0
H638 H 0.22171 0.00404 0.75745 0.0
H639 H 0.17726 0.97864 0.78902 0.0
C640 C 0.66546 0.65309 0.35815 0.0
C641 C 0.65634 0.63973 0.36906 0.0
C642 C 0.67967 0.6169 0.36183 0.0
C643 C 0.66339 0.62187 0.37093 0.0
C644 C 0.68881 0.63038 0.35091 0.0
C645 C 0.68175 0.64835 0.34911 0.0
U646 U 0.62364 0.68266 0.36243 0.0
O647 O 0.62167 0.71227 0.37515 0.0
O648 O 0.61145 0.7039 0.34461 0.0
C649 C 0.61465 0.71793 0.35874 0.0
C650 C 0.65753 0.67164 0.35591 0.0
C651 C 0.62339 0.73661 0.35396 0.0
C652 C 0.64889 0.75656 0.34159 0.0
C653 C 0.64069 0.73833 0.34522 0.0
C654 C 0.62252 0.77133 0.35537 0.0
C655 C 0.63993 0.77332 0.34671 0.0
C656 C 0.61436 0.75319 0.3589 0.0
C657 C 0.57856 0.65829 0.38031 0.0
C658 C 0.55004 0.67517 0.38403 0.0
C659 C 0.55203 0.64389 0.39608 0.0
C660 C 0.57031 0.64307 0.38953 0.0
C661 C 0.54167 0.65997 0.39344 0.0
C662 C 0.56835 0.67435 0.37758 0.0
C663 C 0.59813 0.65764 0.37434 0.0
O664 O 0.64322 0.67109 0.34222 0.0
O665 O 0.65421 0.6812 0.37217 0.0
O666 O 0.61174 0.66809 0.38597 0.0
O667 O 0.59987 0.65941 0.35599 0.0
H668 H 0.64356 0.64302 0.37593 0.0
H669 H 0.65573 0.61173 0.37908 0.0
H670 H 0.70142 0.62707 0.34378 0.0
H671 H 0.68889 0.65845 0.34052 0.0
H672 H 0.66222 0.75753 0.33478 0.0
H673 H 0.6479 0.72565 0.34136 0.0
H674 H 0.6154 0.78387 0.35992 0.0
H675 H 0.60106 0.75213 0.3658 0.0
H676 H 0.54235 0.6876 0.38142 0.0
H677 H 0.54618 0.63205 0.40347 0.0
H678 H 0.5781 0.63062 0.39187 0.0
H679 H 0.57455 0.68627 0.3705 0.0
C680 C 0.72498 0.25175 0.97144 0.0
C681 C 0.73355 0.25861 0.99003 0.0
C682 C 0.73298 0.2919 0.98205 0.0
C683 C 0.73756 0.27849 0.99527 0.0
C684 C 0.72545 0.28474 0.9631 0.0
C685 C 0.72143 0.26491 0.9579 0.0
U686 U 0.72656 0.1975 0.9766 0.0
O687 O 0.70216 0.17528 0.97686 0.0
O688 O 0.72118 0.1735 0.95357 0.0
C689 C 0.707 0.16488 0.96173 0.0
C690 C 0.71822 0.23121 0.96626 0.0
C691 C 0.70853 0.14437 0.96408 0.0
C692 C 0.69546 0.11082 0.95705 0.0
C693 C 0.69403 0.13041 0.95519 0.0
C694 C 0.72596 0.11897 0.97678 0.0
C695 C 0.71147 0.10485 0.96783 0.0
C696 C 0.72448 0.13856 0.97495 0.0
C697 C 0.77098 0.21116 0.01297 0.0
C698 C 0.79716 0.21874 0.03857 0.0
C699 C 0.79223 0.2408 0.01414 0.0
C700 C 0.77623 0.22862 0.00547 0.0
C701 C 0.80322 0.23573 0.03049 0.0
C702 C 0.78122 0.20654 0.02983 0.0
C703 C 0.75604 0.19692 0.00251 0.0
O704 O 0.73004 0.22068 0.95738 0.0
O705 O 0.70973 0.22245 0.97957 0.0
O706 O 0.73831 0.19814 0.00707 0.0
O707 O 0.75714 0.194 0.98381 0.0
H708 H 0.73655 0.24865 1.00067 0.0
H709 H 0.74386 0.2833 0.00983 0.0
H710 H 0.72165 0.2944 0.95244 0.0
H711 H 0.71477 0.25989 0.94349 0.0
H712 H 0.68416 0.10032 0.94982 0.0
H713 H 0.68164 0.13467 0.9467 0.0
H714 H 0.73834 0.11489 0.98539 0.0
H715 H 0.73579 0.14918 0.98197 0.0
H716 H 0.80509 0.21458 0.05134 0.0
H717 H 0.79655 0.25364 0.00739 0.0
H718 H 0.76846 0.23243 0.99245 0.0
H719 H 0.77728 0.19315 0.03586 0.0
C720 C 0.27668 0.84617 0.64797 0.0
C721 C 0.27208 0.85816 0.6335 0.0
C722 C 0.28403 0.88672 0.65546 0.0
C723 C 0.27581 0.87821 0.63717 0.0
C724 C 0.28838 0.87459 0.66998 0.0
C725 C 0.28477 0.85451 0.66623 0.0
U726 U 0.24689 0.80216 0.62134 0.0
O727 O 0.25505 0.77502 0.60762 0.0
O728 O 0.2366 0.77437 0.63147 0.0
C729 C 0.24651 0.76445 0.61963 0.0
C730 C 0.27273 0.82503 0.64427 0.0
C731 C 0.25756 0.74945 0.62773 0.0
C732 C 0.28623 0.73206 0.62944 0.0
C733 C 0.27704 0.74818 0.62462 0.0
C734 C 0.25711 0.71879 0.64178 0.0
C735 C 0.27619 0.71695 0.63757 0.0
C736 C 0.24786 0.73484 0.6368 0.0
C737 C 0.20516 0.80948 0.58472 0.0
C738 C 0.18282 0.7826 0.5696 0.0
C739 C 0.18133 0.81437 0.55856 0.0
C740 C 0.19673 0.82164 0.57225 0.0
C741 C 0.17409 0.79478 0.55715 0.0
C742 C 0.19825 0.78987 0.58322 0.0
C743 C 0.22119 0.81734 0.59916 0.0
O744 O 0.25643 0.81774 0.64994 0.0
O745 O 0.27598 0.81755 0.62704 0.0
O746 O 0.2385 0.81448 0.59428 0.0
O747 O 0.21887 0.81397 0.61707 0.0
H748 H 0.26566 0.85202 0.61932 0.0
H749 H 0.27251 0.88702 0.62556 0.0
H750 H 0.2944 0.8806 0.68432 0.0
H751 H 0.28823 0.84549 0.67764 0.0
H752 H 0.30101 0.7311 0.62621 0.0
H753 H 0.28498 0.75923 0.61773 0.0
H754 H 0.24897 0.7073 0.64788 0.0
H755 H 0.23282 0.73542 0.63924 0.0
H756 H 0.17745 0.76752 0.56913 0.0
H757 H 0.17515 0.82409 0.54905 0.0
H758 H 0.20202 0.83679 0.57313 0.0
H759 H 0.20466 0.78025 0.59272 0.0
C760 C 0.36474 0.26858 0.99433 0.0
C761 C 0.37604 0.25384 0.98868 0.0
C762 C 0.34898 0.22968 0.99003 0.0
C763 C 0.36822 0.23458 0.98647 0.0
C764 C 0.33765 0.24453 0.99552 0.0
C765 C 0.34549 0.26385 0.99764 0.0
U766 U 0.4097 0.30292 0.00419 0.0
O767 O 0.41868 0.33066 0.99361 0.0
O768 O 0.41715 0.32892 0.02468 0.0
C769 C 0.42027 0.34011 0.01091 0.0
C770 C 0.37347 0.28865 0.99798 0.0
C771 C 0.41154 0.35841 0.01213 0.0
C772 C 0.38358 0.37665 0.01014 0.0
C773 C 0.39144 0.35893 0.01028 0.0
C774 C 0.41586 0.39337 0.01408 0.0
C775 C 0.39574 0.39404 0.01171 0.0
C776 C 0.42366 0.3757 0.01429 0.0
C777 C 0.45807 0.28369 0.00729 0.0
C778 C 0.48615 0.30615 0.01862 0.0
C779 C 0.49021 0.27318 0.00687 0.0
C780 C 0.47014 0.26922 0.00316 0.0
C781 C 0.49835 0.29163 0.01489 0.0
C782 C 0.46618 0.30223 0.01479 0.0
C783 C 0.43702 0.27963 0.00393 0.0
O784 O 0.38241 0.2932 0.01539 0.0
O785 O 0.38342 0.29487 0.98425 0.0
O786 O 0.42918 0.28591 0.98817 0.0
O787 O 0.42779 0.28366 0.01914 0.0
H788 H 0.39105 0.2572 0.98634 0.0
H789 H 0.37741 0.22348 0.98253 0.0
H790 H 0.32275 0.24121 0.99822 0.0
H791 H 0.33662 0.27505 0.00214 0.0
H792 H 0.36804 0.37672 0.00811 0.0
H793 H 0.3819 0.34565 0.00853 0.0
H794 H 0.42557 0.40652 0.01554 0.0
H795 H 0.43922 0.37551 0.01577 0.0
H796 H 0.49205 0.32056 0.02455 0.0
H797 H 0.4993 0.26171 0.00396 0.0
H798 H 0.46406 0.25486 0.99727 0.0
H799 H 0.45704 0.31363 0.01786 0.0
C800 C 0.35741 0.66225 0.65808 0.0
C801 C 0.36818 0.6517 0.64561 0.0
C802 C 0.36144 0.67277 0.62046 0.0
C803 C 0.37025 0.65695 0.62707 0.0
C804 C 0.35103 0.68364 0.63316 0.0
C805 C 0.34898 0.67835 0.65184 0.0
U806 U 0.35865 0.62156 0.68893 0.0
O807 O 0.37003 0.61942 0.7189 0.0
O808 O 0.33939 0.61043 0.70962 0.0
C809 C 0.35307 0.61337 0.72409 0.0
C810 C 0.35418 0.65548 0.67698 0.0
C811 C 0.34785 0.6228 0.74234 0.0
C812 C 0.34895 0.65089 0.76579 0.0
C813 C 0.35219 0.64271 0.74745 0.0
C814 C 0.33625 0.6195 0.77376 0.0
C815 C 0.34125 0.6393 0.77929 0.0
C816 C 0.33955 0.61134 0.75548 0.0
C817 C 0.37537 0.57542 0.66487 0.0
C818 C 0.38293 0.54847 0.68283 0.0
C819 C 0.38818 0.54771 0.64894 0.0
C820 C 0.38123 0.5658 0.64825 0.0
C821 C 0.38938 0.53897 0.66632 0.0
C822 C 0.37597 0.56656 0.68211 0.0
C823 C 0.37004 0.59521 0.66438 0.0
O824 O 0.33981 0.64189 0.67657 0.0
O825 O 0.36989 0.6517 0.68721 0.0
O826 O 0.38193 0.60843 0.67507 0.0
O827 O 0.35178 0.59756 0.66591 0.0
H828 H 0.3747 0.63914 0.65011 0.0
H829 H 0.37863 0.64847 0.61783 0.0
H830 H 0.34391 0.69578 0.62845 0.0
H831 H 0.34043 0.68652 0.66119 0.0
H832 H 0.35273 0.66623 0.76951 0.0
H833 H 0.35852 0.65183 0.73747 0.0
H834 H 0.33051 0.61012 0.78384 0.0
H835 H 0.33617 0.59593 0.7518 0.0
H836 H 0.38339 0.54197 0.69634 0.0
H837 H 0.39314 0.54082 0.63603 0.0
H838 H 0.38089 0.57251 0.63484 0.0
H839 H 0.37146 0.57382 0.69508 0.0
C840 C 0.99931 0.73031 0.24723 0.0
C841 C 0.01632 0.72309 0.25451 0.0
C842 C 0.0048 0.72278 0.28645 0.0
C843 C 0.01909 0.71949 0.27388 0.0
C844 C 0.98749 0.72938 0.27897 0.0
C845 C 0.98477 0.73309 0.25962 0.0
U846 U 0.00144 0.76985 0.21399 0.0
O847 O 0.01353 0.7728 0.18632 0.0
O848 O 0.98267 0.7755 0.18846 0.0
C849 C 0.99667 0.77478 0.17709 0.0
C850 C 0.99737 0.73599 0.22721 0.0
C851 C 0.99186 0.76412 0.15768 0.0
C852 C 0.97131 0.76005 0.12723 0.0
C853 C 0.97473 0.76716 0.14672 0.0
C854 C 0.00174 0.74597 0.1294 0.0
C855 C 0.98504 0.74986 0.11817 0.0
C856 C 0.00514 0.75306 0.14893 0.0
C857 C 0.01396 0.82132 0.23954 0.0
C858 C 0.03443 0.85034 0.235 0.0
C859 C 0.00399 0.85306 0.24858 0.0
C860 C 1.00055 0.83298 0.24711 0.0
C861 C 0.02102 0.86197 0.24266 0.0
C862 C 0.03094 0.8302 0.23342 0.0
C863 C 0.01048 0.80011 0.23934 0.0
O864 O 0.98269 0.74582 0.22269 0.0
O865 O 0.01347 0.74293 0.2208 0.0
O866 O 0.0234 0.78975 0.23209 0.0
O867 O 0.99262 0.79256 0.23429 0.0
H868 H 0.02771 0.72056 0.24532 0.0
H869 H 0.03244 0.714 0.27894 0.0
H870 H 0.97621 0.73224 0.28818 0.0
H871 H 0.97141 0.73855 0.25453 0.0
H872 H 0.95817 0.76307 0.11909 0.0
H873 H 0.96429 0.77575 0.15302 0.0
H874 H 0.01272 0.73836 0.12288 0.0
H875 H 0.01857 0.75056 0.15689 0.0
H876 H 0.04764 0.85681 0.23024 0.0
H877 H 0.99353 0.86162 0.25487 0.0
H878 H 0.98751 0.82655 0.25223 0.0
H879 H 0.04165 0.82164 0.22763 0.0
C880 C 0.65721 0.26526 0.85426 0.0
C881 C 0.64329 0.25875 0.86608 0.0
C882 C 0.66415 0.27227 0.89489 0.0
C883 C 0.64668 0.26228 0.88619 0.0
C884 C 0.67807 0.27876 0.88292 0.0
C885 C 0.67461 0.27529 0.86279 0.0
U886 U 0.62956 0.236 0.81079 0.0
O887 O 0.61749 0.24377 0.78277 0.0
O888 O 0.63931 0.22302 0.78379 0.0
C889 C 0.62874 0.23332 0.77296 0.0
C890 C 0.65391 0.26103 0.83313 0.0
C891 C 0.63815 0.24245 0.75747 0.0
C892 C 0.64528 0.27033 0.7399 0.0
C893 C 0.63892 0.26245 0.7562 0.0
C894 C 0.65122 0.23854 0.72637 0.0
C895 C 0.65108 0.25842 0.72455 0.0
C896 C 0.64475 0.23065 0.74262 0.0
C897 C 0.5899 0.19771 0.81974 0.0
C898 C 0.57311 0.17541 0.79367 0.0
C899 C 0.56339 0.17501 0.82609 0.0
C900 C 0.57773 0.19003 0.8326 0.0
C901 C 0.56101 0.16739 0.80657 0.0
C902 C 0.58741 0.19046 0.8002 0.0
C903 C 0.60524 0.21311 0.82689 0.0
O904 O 0.65836 0.24397 0.82645 0.0
O905 O 0.63726 0.26535 0.8252 0.0
O906 O 0.60176 0.23053 0.82282 0.0
O907 O 0.62287 0.20915 0.82404 0.0
H908 H 0.62979 0.25088 0.85975 0.0
H909 H 0.63554 0.25729 0.89489 0.0
H910 H 0.69179 0.28624 0.88911 0.0
H911 H 0.68559 0.28026 0.85389 0.0
H912 H 0.64473 0.28566 0.73896 0.0
H913 H 0.63393 0.27193 0.76743 0.0
H914 H 0.65588 0.22896 0.71501 0.0
H915 H 0.64429 0.21519 0.74327 0.0
H916 H 0.57187 0.16973 0.77861 0.0
H917 H 0.55417 0.16935 0.83634 0.0
H918 H 0.57941 0.19558 0.84772 0.0
H919 H 0.5967 0.19627 0.79006 0.0
C920 C 0.99486 0.34517 0.26173 0.0
C921 C 0.99002 0.35822 0.24838 0.0
C922 C 0.99319 0.33417 0.22168 0.0
C923 C 0.9891 0.35276 0.22857 0.0
C924 C 0.99772 0.32101 0.23514 0.0
C925 C 0.99857 0.3265 0.25502 0.0
U926 U 0.00275 0.38651 0.30044 0.0
O927 O 0.99078 0.39248 0.32817 0.0
O928 O 0.02209 0.39178 0.32744 0.0
C929 C 0.00775 0.39358 0.33822 0.0
C930 C 0.99738 0.3516 0.28252 0.0
C931 C 0.00842 0.38332 0.35564 0.0
C932 C 0.00775 0.35383 0.37158 0.0
C933 C 0.00782 0.36314 0.35464 0.0
C934 C 0.00909 0.38483 0.39052 0.0
C935 C 0.00824 0.36459 0.38972 0.0
C936 C 0.00919 0.39408 0.37364 0.0
C937 C 0.00679 0.43701 0.28503 0.0
C938 C 0.01962 0.46439 0.30788 0.0
C939 C 0.0051 0.46963 0.27616 0.0
C940 C 0.00131 0.44967 0.27156 0.0
C941 C 0.01457 0.47715 0.29426 0.0
C942 C 0.01567 0.44448 0.30334 0.0
C943 C 0.00355 0.41608 0.27988 0.0
O944 O 0.01458 0.36026 0.28876 0.0
O945 O 0.98324 0.3607 0.28909 0.0
O946 O 0.98749 0.40768 0.28503 0.0
O947 O 0.01864 0.40662 0.28374 0.0
H948 H 0.98724 0.37278 0.2533 0.0
H949 H 0.98528 0.36315 0.21864 0.0
H950 H 0.00116 0.30666 0.23034 0.0
H951 H 0.00254 0.31632 0.26513 0.0
H952 H 0.00727 0.33824 0.37046 0.0
H953 H 0.00723 0.35463 0.3408 0.0
H954 H 0.00911 0.39356 0.40416 0.0
H955 H 0.00957 0.40968 0.37463 0.0
H956 H 0.02672 0.46981 0.32201 0.0
H957 H 0.00119 0.47915 0.26536 0.0
H958 H 0.99437 0.44411 0.2574 0.0
H959 H 0.0198 0.43488 0.314 0.0
H960 H 0.31087 0.58783 0.59963 0.0
H961 H 0.31707 0.52888 0.60938 0.0
H962 H 0.31595 0.5715 0.65771 0.0
H963 H 0.34003 0.53582 0.66891 0.0
C964 C 0.33617 0.52911 0.65385 0.0
O965 O 0.31851 0.53473 0.64717 0.0
H966 H 0.3477 0.5341 0.64493 0.0
C967 C 0.31251 0.57687 0.60954 0.0
C968 C 0.31348 0.58208 0.62949 0.0
C969 C 0.31369 0.55777 0.60216 0.0
C970 C 0.31601 0.54366 0.61496 0.0
C971 C 0.31675 0.54858 0.63498 0.0
C972 C 0.31536 0.56777 0.64225 0.0
H973 H 0.31415 0.48726 0.95366 0.0
H974 H 0.3078 0.54593 0.94219 0.0
H975 H 0.34895 0.53428 0.98802 0.0
H976 H 0.33167 0.57027 0.99761 0.0
C977 C 0.32543 0.57239 0.98282 0.0
O978 O 0.33418 0.56125 0.96951 0.0
H979 H 0.30963 0.56791 0.98174 0.0
C980 C 0.31791 0.50263 0.95737 0.0
C981 C 0.33237 0.50903 0.97246 0.0
C982 C 0.30888 0.51572 0.94635 0.0
C983 C 0.31459 0.53555 0.95047 0.0
C984 C 0.32896 0.54213 0.96551 0.0
C985 C 0.33789 0.52894 0.97641 0.0
H986 H 0.6886 0.91027 0.38929 0.0
H987 H 0.69923 0.96856 0.37469 0.0
H988 H 0.69081 0.9216 0.32989 0.0
H989 H 0.71361 0.96378 0.31622 0.0
C990 C 0.71362 0.96708 0.33207 0.0
O991 O 0.69632 0.95918 0.33753 0.0
H992 H 0.72606 0.9605 0.3391 0.0
C993 C 0.69103 0.9203 0.3786 0.0
C994 C 0.6897 0.91329 0.35896 0.0
C995 C 0.69462 0.94016 0.38459 0.0
C996 C 0.69649 0.95317 0.37052 0.0
C997 C 0.69511 0.94643 0.35091 0.0
C998 C 0.69181 0.92657 0.34513 0.0
H999 H 0.73043 0.97646 0.0232 0.0
H1000 H 0.71985 0.91471 0.01158 0.0
H1001 H 0.71009 0.95062 0.96576 0.0
H1002 H 0.68184 0.91292 0.95958 0.0
C1003 C 0.68887 0.90758 0.97272 0.0
O1004 O 0.70803 0.91507 0.97514 0.0
H1005 H 0.68112 0.91251 0.98524 0.0
C1006 C 0.72651 0.96375 0.01304 0.0
C1007 C 0.72075 0.96593 0.9936 0.0
C1008 C 0.72622 0.94537 0.01974 0.0
C1009 C 0.72021 0.929 0.00671 0.0
C1010 C 0.71435 0.93096 0.98735 0.0
C1011 C 0.71466 0.94935 0.98079 0.0
H1012 H 0.61187 0.32574 0.61504 0.0
H1013 H 0.61214 0.33688 0.55562 0.0
H1014 H 0.6609 0.31397 0.58421 0.0
H1015 H 0.67217 0.34166 0.55364 0.0
C1016 C 0.65718 0.34132 0.54665 0.0
O1017 O 0.64631 0.32534 0.55161 0.0
H1018 H 0.65113 0.35482 0.55182 0.0
C1019 C 0.61937 0.32612 0.60213 0.0
C1020 C 0.63763 0.31925 0.60191 0.0
C1021 C 0.61011 0.33261 0.58565 0.0
C1022 C 0.61918 0.33206 0.56854 0.0
C1023 C 0.63759 0.32559 0.56814 0.0
C1024 C 0.64676 0.31909 0.58474 0.0
H1025 H 0.0311 0.73973 0.98837 0.0
H1026 H 0.02237 0.72155 0.92738 0.0
H1027 H 0.97487 0.71606 0.96209 0.0
H1028 H 0.97088 0.6846 0.92498 0.0
C1029 C 0.98378 0.69203 0.91959 0.0
O1030 O 0.98554 0.71123 0.92691 0.0
H1031 H 0.99665 0.68482 0.92457 0.0
C1032 C 0.02173 0.73361 0.97566 0.0
C1033 C 0.00217 0.72825 0.97744 0.0
C1034 C 0.02933 0.73109 0.95776 0.0
C1035 C 0.01688 0.72363 0.94135 0.0
C1036 C 0.99733 0.71818 0.94293 0.0
C1037 C 0.99002 0.72025 0.96099 0.0
H1038 H 0.95469 0.28834 0.49196 0.0
H1039 H 0.94839 0.28823 0.55269 0.0
H1040 H 0.99246 0.32675 0.53351 0.0
H1041 H 0.00508 0.31707 0.57362 0.0
C1042 C 0.99133 0.30803 0.57455 0.0
O1043 O 0.97666 0.31521 0.56363 0.0
H1044 H 0.99337 0.29299 0.56887 0.0
C1045 C 0.95963 0.2935 0.50685 0.0
C1046 C 0.97504 0.30808 0.51081 0.0
C1047 C 0.94985 0.28621 0.52176 0.0
C1048 C 0.95569 0.29368 0.54095 0.0
C1049 C 0.97107 0.3082 0.54511 0.0
C1050 C 0.98061 0.3155 0.53008 0.0
H1051 H 0.37858 0.68556 0.91732 0.0
H1052 H 0.36776 0.69304 0.97441 0.0
H1053 H 0.32143 0.67501 0.92642 0.0
H1054 H 0.30027 0.65973 0.98916 0.0
C1055 C 0.30375 0.67564 0.99009 0.0
O1056 O 0.31754 0.68114 0.97704 0.0
H1057 H 0.28985 0.68126 0.98552 0.0
C1058 C 0.36793 0.68538 0.92773 0.0
C1059 C 0.34883 0.68069 0.92155 0.0
C1060 C 0.37359 0.68911 0.94708 0.0
C1061 C 0.35973 0.68845 0.96052 0.0
C1062 C 0.33793 0.68296 0.95708 0.0
C1063 C 0.33506 0.67933 0.93503 0.0
H1064 H 0.59007 0.58788 0.31524 0.0
H1065 H 0.53115 0.59621 0.32386 0.0
H1066 H 0.5722 0.64533 0.32071 0.0
H1067 H 0.54006 0.65803 0.34389 0.0
C1068 C 0.5331 0.64297 0.34252 0.0
O1069 O 0.53605 0.63399 0.32476 0.0
H1070 H 0.53991 0.63562 0.35451 0.0
C1071 C 0.57896 0.59753 0.31741 0.0
C1072 C 0.5836 0.61754 0.31816 0.0
C1073 C 0.56015 0.58971 0.31932 0.0
C1074 C 0.54574 0.60208 0.32223 0.0
C1075 C 0.55009 0.62212 0.32252 0.0
C1076 C 0.56895 0.62983 0.32032 0.0
H1077 H 0.96937 0.00541 0.73785 0.0
H1078 H 0.90743 0.99354 0.73014 0.0
H1079 H 0.94329 0.94867 0.71574 0.0
H1080 H 0.89824 0.93856 0.69338 0.0
C1081 C 0.89927 0.95426 0.69808 0.0
O1082 O 0.90771 0.95737 0.71691 0.0
H1083 H 0.90839 0.96166 0.6881 0.0
C1084 C 0.95658 0.99534 0.73401 0.0
C1085 C 0.95864 0.97625 0.72697 0.0
C1086 C 0.93823 0.00183 0.73522 0.0
C1087 C 0.92174 0.98889 0.7293 0.0
C1088 C 0.92364 0.96978 0.72236 0.0
C1089 C 0.94202 0.96348 0.72117 0.0
H1090 H 0.4697 0.97003 0.27878 0.0
H1091 H 0.53007 0.96714 0.27217 0.0
H1092 H 0.51215 0.01351 0.30882 0.0
H1093 H 0.54691 0.02602 0.28858 0.0
C1094 C 0.55074 0.01127 0.28414 0.0
O1095 O 0.54177 0.99839 0.29515 0.0
H1096 H 0.54574 0.00766 0.26852 0.0
C1097 C 0.48459 0.97622 0.28176 0.0
C1098 C 0.48899 0.99309 0.29449 0.0
C1099 C 0.49921 0.96666 0.2736 0.0
C1100 C 0.51854 0.97423 0.27832 0.0
C1101 C 0.52312 0.99118 0.29085 0.0
C1102 C 0.50841 1.0005 0.29904 0.0
H1103 H 0.93127 0.38672 0.67312 0.0
H1104 H 0.9886 0.37704 0.69521 0.0
H1105 H 0.94256 0.33152 0.69215 0.0
H1106 H 0.97776 0.33134 0.7288 0.0
C1107 C 0.98538 0.34328 0.72218 0.0
O1108 O 0.97958 0.34167 0.70259 0.0
H1109 H 0.98152 0.35702 0.72958 0.0
C1110 C 0.94138 0.37713 0.67858 0.0
C1111 C 0.93466 0.35806 0.68121 0.0
C1112 C 0.96071 0.38427 0.68399 0.0
C1113 C 0.97356 0.37187 0.6914 0.0
C1114 C 0.96701 0.35303 0.69462 0.0
C1115 C 0.94753 0.34614 0.68968 0.0
H1116 H 0.70598 0.40427 0.40515 0.0
H1117 H 0.69881 0.46497 0.41042 0.0
H1118 H 0.70694 0.43582 0.35512 0.0
H1119 H 0.72429 0.47614 0.35826 0.0
C1120 C 0.71804 0.48126 0.37166 0.0
O1121 O 0.70177 0.46917 0.37378 0.0
H1122 H 0.72924 0.48093 0.38402 0.0
C1123 C 0.70507 0.41774 0.39865 0.0
C1124 C 0.70666 0.41804 0.37886 0.0
C1125 C 0.70232 0.43453 0.41016 0.0
C1126 C 0.70094 0.45186 0.40167 0.0
C1127 C 0.70276 0.45237 0.38184 0.0
C1128 C 0.70559 0.43542 0.37042 0.0
H1129 H 0.72857 0.51902 0.03414 0.0
H1130 H 0.74796 0.46367 0.04392 0.0
H1131 H 0.70815 0.46906 0.99455 0.0
H1132 H 0.69997 0.43333 0.01299 0.0
C1133 C 0.71475 0.43167 0.0196 0.0
O1134 O 0.72783 0.44513 0.01335 0.0
H1135 H 0.71468 0.43407 0.03558 0.0
C1136 C 0.72884 0.50381 0.02953 0.0
C1137 C 0.71735 0.49561 0.01277 0.0
C1138 C 0.73994 0.49253 0.04094 0.0
C1139 C 0.73947 0.47266 0.03537 0.0
C1140 C 0.72803 0.46424 0.01866 0.0
C1141 C 0.71695 0.47569 0.00742 0.0
H1142 H 0.33243 0.08134 0.61391 0.0
H1143 H 0.32212 0.02577 0.63509 0.0
H1144 H 0.34061 0.07581 0.67496 0.0
H1145 H 0.30294 0.04002 0.67554 0.0
C1146 C 0.31549 0.03209 0.68002 0.0
O1147 O 0.33163 0.03839 0.67139 0.0
H1148 H 0.31861 0.03521 0.69591 0.0
C1149 C 0.33226 0.07246 0.62586 0.0
C1150 C 0.33735 0.08108 0.64481 0.0
C1151 C 0.32658 0.05259 0.62217 0.0
C1152 C 0.3261 0.0412 0.63769 0.0
C1153 C 0.33106 0.04964 0.65665 0.0
C1154 C 0.33646 0.06954 0.66024 0.0
H1155 H 0.28519 0.00859 0.94303 0.0
H1156 H 0.29663 0.06979 0.93997 0.0
H1157 H 0.31629 0.04444 0.99115 0.0
H1158 H 0.30339 0.08316 0.00082 0.0
C1159 C 0.30271 0.0878 0.98598 0.0
O1160 O 0.31401 0.07683 0.97504 0.0
H1161 H 0.28732 0.0856 0.97976 0.0
C1162 C 0.29135 0.02275 0.94951 0.0
C1163 C 0.30098 0.0246 0.96815 0.0
C1164 C 0.28979 0.03889 0.9391 0.0
C1165 C 0.29798 0.0571 0.94763 0.0
C1166 C 0.30731 0.0591 0.96646 0.0
C1167 C 0.30909 0.04281 0.9766 0.0
H1168 H 0.40245 0.68358 0.40225 0.0
H1169 H 0.41026 0.67311 0.46207 0.0
H1170 H 0.35952 0.69772 0.44031 0.0
H1171 H 0.37456 0.71434 0.47942 0.0
C1172 C 0.38267 0.70233 0.48416 0.0
O1173 O 0.37795 0.68629 0.47095 0.0
H1174 H 0.3984 0.70704 0.48489 0.0
C1175 C 0.39701 0.68347 0.4163 0.0
C1176 C 0.37942 0.69103 0.41921 0.0
C1177 C 0.40834 0.67704 0.43159 0.0
C1178 C 0.40172 0.67794 0.45003 0.0
C1179 C 0.38411 0.68533 0.45311 0.0
C1180 C 0.37301 0.69188 0.43774 0.0
H1181 H 0.93227 0.28778 0.01089 0.0
H1182 H 0.94834 0.3053 0.07132 0.0
H1183 H 0.99172 0.3054 0.03147 0.0
H1184 H 0.00994 0.29927 0.07387 0.0
C1185 C 0.99487 0.29883 0.07784 0.0
O1186 O 0.98524 0.31183 0.06781 0.0
H1187 H 0.98817 0.28372 0.07388 0.0
C1188 C 0.94318 0.2932 0.02263 0.0
C1189 C 0.96254 0.2963 0.01882 0.0
C1190 C 0.93782 0.29647 0.04146 0.0
C1191 C 0.95214 0.30291 0.05665 0.0
C1192 C 0.9715 0.30617 0.053 0.0
C1193 C 0.97667 0.30312 0.03409 0.0
H1194 H 0.04639 0.72268 0.51263 0.0
H1195 H 0.05397 0.73294 0.45385 0.0
H1196 H 0.00536 0.69554 0.46625 0.0
H1197 H 0.02125 0.68236 0.42931 0.0
C1198 C 0.02888 0.69641 0.42671 0.0
O1199 O 0.02296 0.71093 0.43888 0.0
H1200 H 0.04469 0.69555 0.4297 0.0
C1201 C 0.04127 0.72056 0.49739 0.0
C1202 C 0.02438 0.70829 0.49124 0.0
C1203 C 0.05207 0.72956 0.48414 0.0
C1204 C 0.0459 0.72605 0.46433 0.0
C1205 C 0.0291 0.71377 0.45794 0.0
C1206 C 0.01839 0.70488 0.47135 0.0
H1207 H 0.63092 0.32304 0.0889 0.0
H1208 H 0.65325 0.30985 0.03438 0.0
H1209 H 0.69192 0.3197 0.08653 0.0
H1210 H 0.68749 0.28283 0.04802 0.0
C1211 C 0.69427 0.29494 0.04081 0.0
O1212 O 0.68938 0.3125 0.04869 0.0
H1213 H 0.71016 0.29475 0.04342 0.0
C1214 C 0.64307 0.32079 0.08061 0.0
C1215 C 0.66176 0.32213 0.09017 0.0
C1216 C 0.63981 0.31605 0.06056 0.0
C1217 C 0.65553 0.31307 0.04993 0.0
C1218 C 0.67426 0.31432 0.05927 0.0
C1219 C 0.67736 0.31852 0.07943 0.0
H1220 H 0.40821 0.40285 0.68299 0.0
H1221 H 0.46739 0.41048 0.67086 0.0
H1222 H 0.443 0.35504 0.68413 0.0
H1223 H 0.48143 0.36543 0.70297 0.0
C1224 C 0.48712 0.37616 0.69353 0.0
O1225 O 0.47464 0.37514 0.67686 0.0
H1226 H 0.488 0.39081 0.70148 0.0
C1227 C 0.4217 0.39674 0.68091 0.0
C1228 C 0.42336 0.37729 0.68359 0.0
C1229 C 0.43735 0.40876 0.67626 0.0
C1230 C 0.45505 0.40122 0.67408 0.0
C1231 C 0.45711 0.38189 0.67717 0.0
C1232 C 0.44125 0.36991 0.68174 0.0
H1233 H 0.99913 1.00016 0.27401 0.0
H1234 H 0.05837 0.00965 0.29876 0.0
H1235 H 0.01868 0.05111 0.31252 0.0
H1236 H 0.06478 0.07075 0.31916 0.0
C1237 C 0.06679 0.05649 0.31161 0.0
O1238 O 0.05445 0.04252 0.31819 0.0
H1239 H 0.06336 0.05756 0.29586 0.0
C1240 C 0.01075 0.00917 0.28274 0.0
C1241 C 0.00673 0.0265 0.29265 0.0
C1242 C 0.02925 0.00278 0.28493 0.0
C1243 C 0.04397 0.01424 0.29689 0.0
C1244 C 0.04019 0.03172 0.3066 0.0
C1245 C 0.02155 0.03773 0.30469 0.0
H1246 H 0.51221 0.04078 0.73628 0.0
H1247 H 0.45426 0.04819 0.74976 0.0
H1248 H 0.4647 0.0012 0.70917 0.0
H1249 H 0.42924 0.01984 0.69863 0.0
C1250 C 0.42576 0.02492 0.71336 0.0
O1251 O 0.43827 0.01809 0.72697 0.0
H1252 H 0.42744 0.04099 0.71487 0.0
C1253 C 0.49693 0.03583 0.73468 0.0
C1254 C 0.49014 0.01956 0.72179 0.0
C1255 C 0.48419 0.04636 0.74479 0.0
C1256 C 0.46433 0.04032 0.74202 0.0
C1257 C 0.45736 0.02401 0.72926 0.0
C1258 C 0.47023 0.01373 0.71906 0.0
H1259 H 0.08848 0.61365 0.32328 0.0
H1260 H 0.03088 0.6303 0.31311 0.0
H1261 H 0.07889 0.67376 0.32442 0.0
H1262 H 0.03985 0.66544 0.28814 0.0
C1263 C 0.0339 0.67311 0.30065 0.0
O1264 O 0.04129 0.66721 0.31793 0.0
H1265 H 0.03839 0.68872 0.30061 0.0
C1266 C 0.07879 0.62476 0.32153 0.0
C1267 C 0.08633 0.64428 0.324 0.0
C1268 C 0.05886 0.61941 0.31739 0.0
C1269 C 0.04631 0.63396 0.31638 0.0
C1270 C 0.05359 0.65343 0.31895 0.0
C1271 C 0.07351 0.65861 0.32266 0.0
H1272 H 0.19484 0.65996 0.39208 0.0
H1273 H 0.21197 0.64555 0.33505 0.0
H1274 H 0.16233 0.66312 0.37816 0.0
H1275 H 0.1797 0.64998 0.32095 0.0
H1276 H 0.11539 0.62666 0.30823 0.0
H1277 H 0.14964 0.6314 0.31882 0.0
H1278 H 0.13989 0.67901 0.35963 0.0
H1279 H 0.10528 0.6734 0.34978 0.0
C1280 C 0.19176 0.65778 0.37652 0.0
C1281 C 0.20595 0.65206 0.36474 0.0
C1282 C 0.17312 0.65989 0.36847 0.0
C1283 C 0.16822 0.65655 0.3484 0.0
C1284 C 0.18282 0.65225 0.33651 0.0
C1285 C 0.20144 0.64996 0.34458 0.0
C1286 C 0.12054 0.63815 0.31946 0.0
C1287 C 0.10752 0.64936 0.32844 0.0
C1288 C 0.14029 0.6411 0.32535 0.0
C1289 C 0.14763 0.65551 0.34024 0.0
C1290 C 0.13474 0.66754 0.34837 0.0
C1291 C 0.11489 0.66448 0.34257 0.0
H1292 H 0.33914 0.35604 0.75881 0.0
H1293 H 0.30807 0.33141 0.70456 0.0
H1294 H 0.36926 0.357 0.74383 0.0
H1295 H 0.33836 0.33272 0.68954 0.0
H1296 H 0.38587 0.37617 0.66897 0.0
H1297 H 0.35759 0.36373 0.68341 0.0
H1298 H 0.39391 0.33901 0.72589 0.0
H1299 H 0.42264 0.35268 0.71215 0.0
C1300 C 0.33876 0.35025 0.74385 0.0
C1301 C 0.32107 0.3439 0.73283 0.0
C1302 C 0.35609 0.35081 0.73527 0.0
C1303 C 0.35611 0.34514 0.71548 0.0
C1304 C 0.33868 0.33745 0.70478 0.0
C1305 C 0.32134 0.33679 0.71337 0.0
C1306 C 0.38787 0.36779 0.68118 0.0
C1307 C 0.4065 0.3656 0.68955 0.0
C1308 C 0.37162 0.36041 0.68925 0.0
C1309 C 0.37349 0.35013 0.70553 0.0
C1310 C 0.39207 0.34683 0.71325 0.0
C1311 C 0.40847 0.35447 0.70528 0.0
H1312 H 0.56162 0.96804 0.63731 0.0
H1313 H 0.59858 0.00716 0.67935 0.0
H1314 H 0.53422 0.97294 0.65603 0.0
H1315 H 0.57137 0.01202 0.69795 0.0
H1316 H 0.52398 0.00734 0.73599 0.0
H1317 H 0.54961 0.99602 0.71773 0.0
H1318 H 0.51381 0.99854 0.66441 0.0
H1319 H 0.488 0.00955 0.68282 0.0
C1320 C 0.5639 0.97767 0.65054 0.0
C1321 C 0.58232 0.98717 0.65685 0.0
C1322 C 0.54821 0.98046 0.66126 0.0
C1323 C 0.55061 0.99279 0.67854 0.0
C1324 C 0.56907 0.00209 0.68493 0.0
C1325 C 0.58471 0.99932 0.67424 0.0
C1326 C 0.52151 0.00517 0.72037 0.0
C1327 C 0.50411 0.0095 0.71079 0.0
C1328 C 0.53621 0.9988 0.70991 0.0
C1329 C 0.53391 0.99672 0.6896 0.0
C1330 C 0.51603 0.9999 0.68004 0.0
C1331 C 0.50123 0.0062 0.69056 0.0
H1332 H 0.8903 0.05378 0.25593 0.0
H1333 H 0.88545 0.01065 0.29632 0.0
H1334 H 0.92527 0.05773 0.26371 0.0
H1335 H 0.92035 0.01507 0.30441 0.0
H1336 H 0.98409 0.0346 0.32166 0.0
H1337 H 0.94943 0.03864 0.31827 0.0
H1338 H 0.94976 0.03426 0.25623 0.0
H1339 H 0.9842 0.03011 0.25966 0.0
C1340 C 0.89663 0.0453 0.26663 0.0
C1341 C 0.88502 0.03166 0.27526 0.0
C1342 C 0.91666 0.04765 0.27113 0.0
C1343 C 0.92555 0.0366 0.28454 0.0
C1344 C 0.91388 0.02391 0.29414 0.0
C1345 C 0.89385 0.02141 0.2895 0.0
C1346 C 0.97677 0.03495 0.30736 0.0
C1347 C 0.98673 0.03203 0.2909 0.0
C1348 C 0.95697 0.03711 0.30542 0.0
C1349 C 0.9469 0.03673 0.28699 0.0
C1350 C 0.95715 0.03481 0.27062 0.0
C1351 C 0.97682 0.03235 0.27255 0.0
H1352 H 0.34288 0.20637 0.65832 0.0
H1353 H 0.40173 0.19426 0.65234 0.0
H1354 H 0.33322 0.17176 0.65773 0.0
H1355 H 0.39221 0.15993 0.65239 0.0
H1356 H 0.36314 0.10112 0.62532 0.0
H1357 H 0.37312 0.13563 0.62926 0.0
H1358 H 0.33717 0.14293 0.67605 0.0
H1359 H 0.32681 0.10819 0.67179 0.0
C1360 C 0.35376 0.19636 0.65703 0.0
C1361 C 0.37306 0.2031 0.65532 0.0
C1362 C 0.34827 0.17657 0.6569 0.0
C1363 C 0.36194 0.16311 0.65492 0.0
C1364 C 0.3813 0.16991 0.65372 0.0
C1365 C 0.38679 0.18963 0.65391 0.0
C1366 C 0.35732 0.11008 0.63643 0.0
C1367 C 0.34409 0.10198 0.64817 0.0
C1368 C 0.36319 0.12983 0.63882 0.0
C1369 C 0.35597 0.14201 0.65299 0.0
C1370 C 0.34288 0.13392 0.66491 0.0
C1371 C 0.33708 0.11405 0.6626 0.0
H1372 H 0.30545 0.90598 0.97009 0.0
H1373 H 0.27407 0.91783 0.0197 0.0
H1374 H 0.31399 0.94041 0.9694 0.0
H1375 H 0.28244 0.95239 0.0188 0.0
H1376 H 0.27165 0.00588 0.98374 0.0
H1377 H 0.27058 0.9736 0.9946 0.0
H1378 H 0.33079 0.97146 0.98564 0.0
H1379 H 0.3317 0.00396 0.97475 0.0
C1380 C 0.30084 0.91587 0.98121 0.0
C1381 C 0.28883 0.90913 0.99478 0.0
C1382 C 0.30575 0.93566 0.98081 0.0
C1383 C 0.29872 0.94913 0.99393 0.0
C1384 C 0.28783 0.94235 0.00833 0.0
C1385 C 0.28299 0.92256 0.00879 0.0
C1386 C 0.28477 0.99869 0.98472 0.0
C1387 C 0.30177 0.00727 0.97859 0.0
C1388 C 0.28422 0.98026 0.99096 0.0
C1389 C 0.3006 0.96996 0.99092 0.0
C1390 C 0.31793 0.97903 0.98573 0.0
C1391 C 0.31851 0.9976 0.97965 0.0
H1392 H 0.71168 0.30057 0.3792 0.0
H1393 H 0.75439 0.31188 0.33954 0.0
H1394 H 0.70148 0.33258 0.37686 0.0
H1395 H 0.74411 0.34416 0.33716 0.0
H1396 H 0.74044 0.40702 0.36741 0.0
H1397 H 0.74727 0.3738 0.35866 0.0
H1398 H 0.68669 0.35466 0.35774 0.0
H1399 H 0.68008 0.38785 0.36714 0.0
C1400 C 0.71854 0.30968 0.36953 0.0
C1401 C 0.73395 0.30365 0.35966 0.0
C1402 C 0.71268 0.32813 0.36817 0.0
C1403 C 0.72203 0.34105 0.35686 0.0
C1404 C 0.7368 0.33469 0.34621 0.0
C1405 C 0.74268 0.31619 0.34758 0.0
C1406 C 0.72854 0.39576 0.36456 0.0
C1407 C 0.70974 0.39984 0.36774 0.0
C1408 C 0.7324 0.37672 0.3596 0.0
C1409 C 0.71749 0.36151 0.3578 0.0
C1410 C 0.69846 0.366 0.35939 0.0
C1411 C 0.69463 0.38496 0.36448 0.0
H1412 H 0.66796 0.58981 0.95694 0.0
H1413 H 0.62756 0.56805 0.99501 0.0
H1414 H 0.68721 0.56293 0.96218 0.0
H1415 H 0.64676 0.5413 1.00027 0.0
H1416 H 0.679 0.48877 0.99951 0.0
H1417 H 0.65826 0.51181 0.98629 0.0
H1418 H 0.70786 0.554 0.98887 0.0
H1419 H 0.72849 0.53085 0.00147 0.0
C1420 C 0.66317 0.57928 0.9664 0.0
C1421 C 0.64627 0.58115 0.97564 0.0
C1422 C 0.67417 0.56385 0.96936 0.0
C1423 C 0.66856 0.54995 0.98167 0.0
C1424 C 0.65135 0.55152 0.99043 0.0
C1425 C 0.64035 0.56692 0.98745 0.0
C1426 C 0.68549 0.50279 0.99674 0.0
C1427 C 0.70531 0.5081 0.00169 0.0
C1428 C 0.67361 0.51607 0.98938 0.0
C1429 C 0.68135 0.53485 0.98674 0.0
C1430 C 0.70139 0.53966 0.99058 0.0
C1431 C 0.71321 0.52644 0.99796 0.0
H1432 H 0.65015 0.31842 0.21125 0.0
H1433 H 0.66704 0.37879 0.20715 0.0
H1434 H 0.65583 0.31103 0.17743 0.0
H1435 H 0.67309 0.37135 0.17362 0.0
H1436 H 0.64937 0.35329 0.10955 0.0
H1437 H 0.65037 0.36094 0.14438 0.0
H1438 H 0.68114 0.31111 0.15348 0.0
H1439 H 0.68008 0.30344 0.11832 0.0
C1440 C 0.65531 0.33006 0.20323 0.0
C1441 C 0.65803 0.34921 0.2119 0.0
C1442 C 0.65875 0.3258 0.18392 0.0
C1443 C 0.66481 0.34063 0.17284 0.0
C1444 C 0.66827 0.35964 0.18174 0.0
C1445 C 0.66496 0.36387 0.20103 0.0
C1446 C 0.65655 0.34411 0.119 0.0
C1447 C 0.66459 0.32775 0.11129 0.0
C1448 C 0.65723 0.34854 0.13894 0.0
C1449 C 0.66582 0.33662 0.15169 0.0
C1450 C 0.67433 0.32049 0.144 0.0
C1451 C 0.67387 0.31619 0.12393 0.0
H1452 H 0.98542 0.2396 0.90845 0.0
H1453 H 0.97063 0.29623 0.89613 0.0
H1454 H 0.9853 0.24889 0.94286 0.0
H1455 H 0.97001 0.30537 0.93073 0.0
H1456 H 0.98426 0.31871 0.99691 0.0
H1457 H 0.99047 0.31095 0.96312 0.0
H1458 H 0.9584 0.25506 0.96259 0.0
H1459 H 0.95239 0.26275 0.99608 0.0
C1460 C 0.98246 0.25416 0.91309 0.0
C1461 C 0.97798 0.26716 0.8995 0.0
C1462 C 0.98221 0.25941 0.93282 0.0
C1463 C 0.9775 0.2778 0.93949 0.0
C1464 C 0.9738 0.29112 0.92602 0.0
C1465 C 0.97395 0.28583 0.90621 0.0
C1466 C 0.9788 0.30471 0.98955 0.0
C1467 C 0.96777 0.29136 0.99901 0.0
C1468 C 0.98221 0.30033 0.97024 0.0
C1469 C 0.97492 0.2824 0.96022 0.0
C1470 C 0.96439 0.26891 0.96995 0.0
C1471 C 0.96081 0.27336 0.98908 0.0
H1472 H 0.3334 0.71979 0.3062 0.0
H1473 H 0.37045 0.76866 0.33527 0.0
H1474 H 0.33371 0.70474 0.33644 0.0
H1475 H 0.37045 0.7538 0.36537 0.0
H1476 H 0.36392 0.72571 0.41962 0.0
H1477 H 0.35224 0.74152 0.39154 0.0
H1478 H 0.36062 0.69103 0.35409 0.0
H1479 H 0.37169 0.67509 0.38209 0.0
C1480 C 0.34139 0.72745 0.31905 0.0
C1481 C 0.35209 0.74534 0.3182 0.0
C1482 C 0.34148 0.71887 0.33639 0.0
C1483 C 0.35219 0.72803 0.35326 0.0
C1484 C 0.36183 0.74647 0.3527 0.0
C1485 C 0.36183 0.755 0.33538 0.0
C1486 C 0.36262 0.71777 0.40544 0.0
C1487 C 0.36881 0.69919 0.40298 0.0
C1488 C 0.3561 0.72687 0.38936 0.0
C1489 C 0.35554 0.71748 0.3706 0.0
C1490 C 0.36054 0.69846 0.36835 0.0
C1491 C 0.36706 0.68941 0.38435 0.0
H1492 H 0.97026 0.67606 0.59385 0.0
H1493 H 0.00296 0.62951 0.57497 0.0
H1494 H 0.97635 0.69163 0.56474 0.0
H1495 H 0.00928 0.64509 0.54614 0.0
H1496 H 0.00927 0.6705 0.48972 0.0
H1497 H 0.99592 0.65418 0.51578 0.0
H1498 H 0.00306 0.70829 0.55213 0.0
H1499 H 0.01551 0.72461 0.5259 0.0
C1500 C 0.97876 0.66917 0.5835 0.0
C1501 C 0.98614 0.65157 0.58673 0.0
C1502 C 0.98224 0.67807 0.5668 0.0
C1503 C 0.9933 0.66962 0.55304 0.0
C1504 C 1.00037 0.65184 0.55618 0.0
C1505 C 0.99682 0.64293 0.57278 0.0
C1506 C 0.00751 0.67896 0.50312 0.0
C1507 C 0.01368 0.69879 0.50584 0.0
C1508 C 1.00009 0.66958 0.51815 0.0
C1509 C 0.99866 0.67985 0.53619 0.0
C1510 C 0.00382 0.6999 0.53846 0.0
C1511 C 0.01118 0.70924 0.52346 0.0
H1512 H 0.81221 0.35433 0.68309 0.0
H1513 H 0.81772 0.33255 0.62414 0.0
H1514 H 0.84679 0.35308 0.69108 0.0
H1515 H 0.85201 0.33057 0.63233 0.0
H1516 H 0.91376 0.36162 0.64725 0.0
H1517 H 0.879 0.35526 0.63944 0.0
H1518 H 0.87389 0.33286 0.69462 0.0
H1519 H 0.90893 0.33964 0.70257 0.0
C1520 C 0.82072 0.34902 0.67191 0.0
C1521 C 0.81216 0.34373 0.65293 0.0
C1522 C 0.84052 0.34808 0.67655 0.0
C1523 C 0.85221 0.34186 0.66231 0.0
C1524 C 0.84347 0.33566 0.64358 0.0
C1525 C 0.82372 0.3366 0.63895 0.0
C1526 C 0.90524 0.35511 0.65761 0.0
C1527 C 0.91401 0.35127 0.67557 0.0
C1528 C 0.88532 0.35131 0.65309 0.0
C1529 C 0.87362 0.34361 0.66644 0.0
C1530 C 0.88249 0.33898 0.68411 0.0
C1531 C 0.90254 0.34267 0.68859 0.0
H1532 H 0.69893 0.60612 0.29479 0.0
H1533 H 0.69402 0.66474 0.2816 0.0
H1534 H 0.66738 0.60479 0.3066 0.0
H1535 H 0.66246 0.66381 0.29435 0.0
H1536 H 0.59674 0.64332 0.29382 0.0
H1537 H 0.63009 0.65007 0.28642 0.0
H1538 H 0.64906 0.61468 0.3307 0.0
H1539 H 0.616 0.60819 0.33806 0.0
C1540 C 0.69128 0.61894 0.2949 0.0
C1541 C 0.69898 0.63554 0.2873 0.0
C1542 C 0.67312 0.61822 0.30175 0.0
C1543 C 0.66225 0.63422 0.30152 0.0
C1544 C 0.67024 0.65111 0.29447 0.0
C1545 C 0.68837 0.6517 0.28729 0.0
C1546 C 0.60819 0.6375 0.3023 0.0
C1547 C 0.60381 0.62501 0.31629 0.0
C1548 C 0.62732 0.64132 0.29808 0.0
C1549 C 0.64237 0.63274 0.30781 0.0
C1550 C 0.63794 0.62133 0.3227 0.0
C1551 C 0.61895 0.61761 0.32695 0.0
H1552 H 0.37575 1.00017 0.32891 0.0
H1553 H 0.40842 0.04476 0.36877 0.0
H1554 H 0.40432 0.99584 0.31212 0.0
H1555 H 0.43711 0.04039 0.35193 0.0
H1556 H 0.48758 0.00567 0.33256 0.0
H1557 H 0.4596 0.01584 0.3479 0.0
H1558 H 0.42655 0.01097 0.29202 0.0
H1559 H 0.45446 0.00064 0.27677 0.0
C1560 C 0.38893 0.00932 0.33387 0.0
C1561 C 0.38978 0.02277 0.35023 0.0
C1562 C 0.40535 0.00684 0.32424 0.0
C1563 C 0.42303 0.01776 0.33069 0.0
C1564 C 0.42378 0.03156 0.34675 0.0
C1565 C 0.40734 0.03406 0.35639 0.0
C1566 C 0.47446 0.00719 0.32354 0.0
C1567 C 0.47313 0.00215 0.3035 0.0
C1568 C 0.45841 0.01301 0.33232 0.0
C1569 C 0.44074 0.01397 0.32121 0.0
C1570 C 0.4398 0.00997 0.30104 0.0
C1571 C 0.4558 0.00412 0.2923 0.0
H1572 H 0.0813 0.98794 0.72566 0.0
H1573 H 0.06618 0.93175 0.69411 0.0
H1574 H 0.04773 0.98989 0.73145 0.0
H1575 H 0.0324 0.9336 0.70008 0.0
H1576 H 0.97163 0.95683 0.69568 0.0
H1577 H 0.00496 0.951 0.69104 0.0
H1578 H 0.02313 0.97623 0.74938 0.0
H1579 H 0.98994 0.98237 0.75378 0.0
C1580 C 0.07082 0.97587 0.72019 0.0
C1581 C 0.07644 0.95965 0.70951 0.0
C1582 C 0.05155 0.97696 0.72354 0.0
C1583 C 0.03735 0.96183 0.71637 0.0
C1584 C 0.04293 0.94558 0.70566 0.0
C1585 C 0.06228 0.94452 0.70224 0.0
C1586 C 0.98273 0.96079 0.70759 0.0
C1587 C 0.97825 0.97022 0.72501 0.0
C1588 C 0.00182 0.95746 0.70495 0.0
C1589 C 0.01678 0.9634 0.71974 0.0
C1590 C 0.01206 0.97191 0.73751 0.0
C1591 C 0.99304 0.97534 0.74009 0.0
H1592 H 0.62184 0.80426 0.3354 0.0
H1593 H 0.67837 0.78695 0.35176 0.0
H1594 H 0.63574 0.83737 0.33548 0.0
H1595 H 0.69251 0.81994 0.35065 0.0
H1596 H 0.70419 0.88353 0.37657 0.0
H1597 H 0.69351 0.84933 0.3704 0.0
H1598 H 0.65526 0.86069 0.32145 0.0
H1599 H 0.66519 0.89518 0.32838 0.0
C1600 C 0.63729 0.80746 0.33879 0.0
C1601 C 0.6489 0.79293 0.34393 0.0
C1602 C 0.64534 0.82647 0.33853 0.0
C1603 C 0.66528 0.83147 0.34324 0.0
C1604 C 0.67705 0.81672 0.3473 0.0
C1605 C 0.66896 0.79771 0.3477 0.0
C1606 C 0.69351 0.87875 0.36446 0.0
C1607 C 0.6853 0.89218 0.35319 0.0
C1608 C 0.68756 0.85904 0.36074 0.0
C1609 C 0.67337 0.85215 0.3455 0.0
C1610 C 0.66596 0.86548 0.33353 0.0
C1611 C 0.67183 0.88526 0.33735 0.0
H1612 H 0.6829 0.07739 0.97424 0.0
H1613 H 0.74351 0.08515 0.9659 0.0
H1614 H 0.68558 0.04346 0.97842 0.0
H1615 H 0.7462 0.05116 0.96996 0.0
H1616 H 0.74779 0.99695 0.00289 0.0
H1617 H 0.74558 0.03007 0.9954 0.0
H1618 H 0.69075 0.01264 0.96185 0.0
H1619 H 0.69262 0.97957 0.97002 0.0
C1620 C 0.69675 0.07179 0.97305 0.0
C1621 C 0.713 0.08401 0.96982 0.0
C1622 C 0.69828 0.05231 0.9754 0.0
C1623 C 0.71611 0.04455 0.97454 0.0
C1624 C 0.73231 0.05672 0.97101 0.0
C1625 C 0.73078 0.07621 0.9687 0.0
C1626 C 0.73526 1.00018 0.99391 0.0
C1627 C 0.72031 0.98564 0.98719 0.0
C1628 C 0.73409 0.01915 0.98943 0.0
C1629 C 0.71794 0.02407 0.97809 0.0
C1630 C 0.70326 0.0094 0.97084 0.0
C1631 C 0.70445 0.99039 0.97532 0.0
H1632 H 0.29428 0.69677 0.61082 0.0
H1633 H 0.27692 0.69513 0.66843 0.0
H1634 H 0.30535 0.66507 0.61198 0.0
H1635 H 0.28894 0.66342 0.67013 0.0
H1636 H 0.28862 0.59699 0.65375 0.0
H1637 H 0.28163 0.6307 0.65822 0.0
H1638 H 0.32797 0.64658 0.62391 0.0
H1639 H 0.33496 0.61327 0.61984 0.0
C1640 C 0.29331 0.68979 0.62398 0.0
C1641 C 0.28478 0.69846 0.63955 0.0
C1642 C 0.29974 0.67154 0.62472 0.0
C1643 C 0.29817 0.66152 0.64121 0.0
C1644 C 0.29013 0.67049 0.65707 0.0
C1645 C 0.28336 0.68871 0.65617 0.0
C1646 C 0.29767 0.6079 0.64778 0.0
C1647 C 0.31216 0.60256 0.63628 0.0
C1648 C 0.29367 0.62723 0.65026 0.0
C1649 C 0.30411 0.64152 0.64125 0.0
C1650 C 0.31945 0.63613 0.63089 0.0
C1651 C 0.32352 0.61699 0.62858 0.0
H1652 H 0.36496 0.4077 0.0284 0.0
H1653 H 0.408 0.4224 0.99011 0.0
H1654 H 0.35054 0.43765 0.02321 0.0
H1655 H 0.3935 0.45195 0.98458 0.0
H1656 H 0.37097 0.50913 0.98392 0.0
H1657 H 0.3872 0.48322 0.99747 0.0
H1658 H 0.33196 0.45 0.99776 0.0
H1659 H 0.31577 0.47629 0.98531 0.0
C1660 C 0.37134 0.41736 0.01891 0.0
C1661 C 0.38758 0.4127 0.00964 0.0
C1662 C 0.3631 0.4345 0.01592 0.0
C1663 C 0.37084 0.44725 0.00346 0.0
C1664 C 0.38737 0.44273 0.99458 0.0
C1665 C 0.39566 0.42571 0.99768 0.0
C1666 C 0.36228 0.49652 0.98738 0.0
C1667 C 0.3421 0.49465 0.98325 0.0
C1668 C 0.37159 0.48155 0.99492 0.0
C1669 C 0.36093 0.46436 0.99841 0.0
C1670 C 0.34067 0.46302 0.99536 0.0
C1671 C 0.33138 0.47802 0.98797 0.0
H1672 H 0.36746 0.66457 0.80243 0.0
H1673 H 0.31175 0.63218 0.80196 0.0
H1674 H 0.36651 0.67581 0.83624 0.0
H1675 H 0.31066 0.64362 0.83592 0.0
H1676 H 0.33031 0.64749 0.90208 0.0
H1677 H 0.32626 0.63882 0.86711 0.0
H1678 H 0.35135 0.69587 0.85852 0.0
H1679 H 0.35584 0.70418 0.89344 0.0
C1680 C 0.35479 0.66017 0.80944 0.0
C1681 C 0.33968 0.64747 0.79946 0.0
C1682 C 0.35422 0.66664 0.82888 0.0
C1683 C 0.33848 0.66065 0.83888 0.0
C1684 C 0.32312 0.64831 0.82877 0.0
C1685 C 0.32373 0.64178 0.8093 0.0
C1686 C 0.33458 0.65823 0.89262 0.0
C1687 C 0.34347 0.67644 0.90038 0.0
C1688 C 0.33226 0.65332 0.8726 0.0
C1689 C 0.3387 0.66658 0.85996 0.0
C1690 C 0.34663 0.68516 0.8678 0.0
C1691 C 0.34907 0.68999 0.88778 0.0
H1692 H 0.99352 0.71682 0.09747 0.0
H1693 H 0.97209 0.77212 0.09047 0.0
H1694 H 0.99396 0.71102 0.06247 0.0
H1695 H 0.97196 0.76604 0.0556 0.0
H1696 H 0.00628 0.76123 0.00171 0.0
H1697 H 0.99863 0.76531 0.03508 0.0
H1698 H 0.97427 0.70582 0.03026 0.0
H1699 H 0.98216 0.70174 0.99665 0.0
C1700 C 0.98865 0.7276 0.08847 0.0
C1701 C 0.9829 0.74499 0.09682 0.0
C1702 C 0.9887 0.72419 0.0684 0.0
C1703 C 0.98311 0.73813 0.05627 0.0
C1704 C 0.97654 0.7551 0.06457 0.0
C1705 C 0.97643 0.75849 0.08458 0.0
C1706 C 0.99905 0.74911 0.00771 0.0
C1707 C 0.99488 0.73116 0.99667 0.0
C1708 C 0.99455 0.75146 0.02678 0.0
C1709 C 0.98587 0.73587 0.03535 0.0
C1710 C 0.98108 0.71805 0.02409 0.0
C1711 C 0.98542 0.71575 0.00485 0.0
H1712 H 0.64115 0.24171 0.68751 0.0
H1713 H 0.67029 0.29353 0.71973 0.0
H1714 H 0.64372 0.25658 0.65757 0.0
H1715 H 0.67248 0.30852 0.68966 0.0
H1716 H 0.63794 0.3344 0.63919 0.0
H1717 H 0.64603 0.31914 0.6683 0.0
H1718 H 0.66475 0.27108 0.63407 0.0
H1719 H 0.65606 0.28624 0.60458 0.0
C1720 C 0.64858 0.25608 0.68822 0.0
C1721 C 0.65531 0.26648 0.70614 0.0
C1722 C 0.65006 0.2646 0.67099 0.0
C1723 C 0.65818 0.28377 0.67125 0.0
C1724 C 0.66593 0.29379 0.68903 0.0
C1725 C 0.66457 0.28523 0.70626 0.0
C1726 C 0.64419 0.32081 0.63785 0.0
C1727 C 0.64627 0.31155 0.61955 0.0
C1728 C 0.64902 0.31215 0.65458 0.0
C1729 C 0.65615 0.294 0.65353 0.0
C1730 C 0.65923 0.28509 0.63532 0.0
C1731 C 0.65443 0.29385 0.61846 0.0
H1732 H 0.02756 0.3756 0.42557 0.0
H1733 H 0.98565 0.33169 0.3947 0.0
H1734 H 0.02276 0.36145 0.4557 0.0
H1735 H 0.98107 0.31748 0.4247 0.0
H1736 H 0.98604 0.28785 0.47901 0.0
H1737 H 0.99704 0.30062 0.4501 0.0
H1738 H 0.9962 0.35873 0.47678 0.0
H1739 H 0.98512 0.34593 0.5057 0.0
C1740 C 0.01738 0.36289 0.42519 0.0
C1741 C 0.00689 0.35486 0.40771 0.0
C1742 C 0.01467 0.35479 0.44244 0.0
C1743 C 0.00151 0.33839 0.4426 0.0
C1744 C 0.99153 0.32996 0.42504 0.0
C1745 C 0.99418 0.3381 0.40781 0.0
C1746 C 0.98834 0.30336 0.47875 0.0
C1747 C 0.98447 0.31589 0.49454 0.0
C1748 C 0.99462 0.31066 0.46219 0.0
C1749 C 0.99726 0.33067 0.46106 0.0
C1750 C 0.99444 0.34323 0.47725 0.0
C1751 C 0.9881 0.33591 0.49384 0.0
H1752 H 0.29259 0.55558 0.47691 0.0
H1753 H 0.35288 0.57354 0.49461 0.0
H1754 H 0.28853 0.54585 0.50913 0.0
H1755 H 0.34885 0.56373 0.52662 0.0
H1756 H 0.33939 0.53914 0.58192 0.0
H1757 H 0.34141 0.53751 0.54696 0.0
H1758 H 0.28871 0.56525 0.54018 0.0
H1759 H 0.28662 0.56654 0.57486 0.0
C1760 C 0.30501 0.55727 0.4876 0.0
C1761 C 0.32301 0.56552 0.48324 0.0
C1762 C 0.30269 0.55163 0.50601 0.0
C1763 C 0.31834 0.55409 0.52044 0.0
C1764 C 0.33657 0.56136 0.51576 0.0
C1765 C 0.33887 0.56703 0.49738 0.0
C1766 C 0.32798 0.54433 0.57281 0.0
C1767 C 0.31296 0.55314 0.58101 0.0
C1768 C 0.32921 0.54356 0.55287 0.0
C1769 C 0.31533 0.55143 0.54084 0.0
C1770 C 0.29956 0.55892 0.54898 0.0
C1771 C 0.29842 0.5598 0.56885 0.0
H1772 H 0.26537 0.45861 0.83635 0.0
H1773 H 0.21569 0.45093 0.86853 0.0
H1774 H 0.28197 0.48048 0.86299 0.0
H1775 H 0.23193 0.47359 0.8948 0.0
H1776 H 0.2792 0.48765 0.94647 0.0
H1777 H 0.25823 0.47172 0.91889 0.0
H1778 H 0.2837 0.51133 0.88205 0.0
H1779 H 0.30532 0.52682 0.90968 0.0
C1780 C 0.2579 0.46176 0.84903 0.0
C1781 C 0.23931 0.45279 0.85041 0.0
C1782 C 0.26731 0.47454 0.8642 0.0
C1783 C 0.25833 0.47873 0.8811 0.0
C1784 C 0.23937 0.47048 0.88209 0.0
C1785 C 0.22998 0.45763 0.86694 0.0
C1786 C 0.28022 0.49305 0.9325 0.0
C1787 C 0.2941 0.50828 0.93017 0.0
C1788 C 0.26804 0.48406 0.91671 0.0
C1789 C 0.26937 0.49015 0.8982 0.0
C1790 C 0.28251 0.50612 0.89607 0.0
C1791 C 0.29475 0.51512 0.91192 0.0
H1792 H 0.68764 0.94294 0.50723 0.0
H1793 H 0.70711 0.00221 0.50071 0.0
H1794 H 0.68679 0.93494 0.47242 0.0
H1795 H 0.70639 0.99412 0.46573 0.0
H1796 H 0.68065 0.97232 0.40185 0.0
H1797 H 0.6817 0.9824 0.43642 0.0
H1798 H 0.71256 0.93355 0.44917 0.0
H1799 H 0.71206 0.92375 0.41477 0.0
C1800 C 0.69153 0.9543 0.49832 0.0
C1801 C 0.69742 0.9732 0.50667 0.0
C1802 C 0.69123 0.94968 0.47843 0.0
C1803 C 0.69665 0.96389 0.46643 0.0
C1804 C 0.70209 0.98291 0.47467 0.0
C1805 C 0.70261 0.9875 0.49465 0.0
C1806 C 0.68794 0.96391 0.412 0.0
C1807 C 0.6961 0.94709 0.40551 0.0
C1808 C 0.68847 0.96966 0.43179 0.0
C1809 C 0.697 0.95862 0.44544 0.0
C1810 C 0.70556 0.94212 0.43895 0.0
C1811 C 0.70521 0.93649 0.41924 0.0
H1812 H 0.77421 0.95106 0.14082 0.0
H1813 H 0.71235 0.95198 0.13987 0.0
H1814 H 0.77089 0.9451 0.1056 0.0
H1815 H 0.70908 0.9458 0.1049 0.0
H1816 H 0.70687 0.92238 0.04278 0.0
H1817 H 0.71276 0.92195 0.07771 0.0
H1818 H 0.76188 0.96441 0.07882 0.0
H1819 H 0.75631 0.96443 0.04383 0.0
C1820 C 0.75992 0.94988 0.13314 0.0
C1821 C 0.74356 0.95205 0.1432 0.0
C1822 C 0.75802 0.94644 0.11298 0.0
C1823 C 0.73973 0.94499 0.10248 0.0
C1824 C 0.72335 0.94651 0.11258 0.0
C1825 C 0.72524 0.95004 0.13268 0.0
C1826 C 0.71918 0.93129 0.05043 0.0
C1827 C 0.73105 0.94354 0.04059 0.0
C1828 C 0.72244 0.93118 0.07045 0.0
C1829 C 0.73769 0.94326 0.08103 0.0
C1830 C 0.7501 0.95484 0.07107 0.0
C1831 C 0.74679 0.955 0.05106 0.0
H1832 H 0.48721 0.35304 0.58217 0.0
H1833 H 0.50823 0.33989 0.63912 0.0
H1834 H 0.51995 0.35281 0.57218 0.0
H1835 H 0.5406 0.33893 0.62883 0.0
H1836 H 0.59912 0.35938 0.61193 0.0
H1837 H 0.5661 0.36499 0.61819 0.0
H1838 H 0.54402 0.32573 0.56822 0.0
H1839 H 0.57718 0.3201 0.56193 0.0
C1840 C 0.49884 0.35029 0.59259 0.0
C1841 C 0.49518 0.34656 0.61146 0.0
C1842 C 0.51749 0.35002 0.58681 0.0
C1843 C 0.53282 0.3462 0.59986 0.0
C1844 C 0.52915 0.3425 0.6187 0.0
C1845 C 0.51056 0.34274 0.62447 0.0
C1846 C 0.58719 0.35219 0.60214 0.0
C1847 C 0.5906 0.33908 0.58666 0.0
C1848 C 0.56836 0.35532 0.60577 0.0
C1849 C 0.55258 0.34543 0.59396 0.0
C1850 C 0.55598 0.33349 0.57755 0.0
C1851 C 0.5749 0.33032 0.57393 0.0
H1852 H 0.14678 0.74793 0.9246 0.0
H1853 H 0.15075 0.76978 0.98485 0.0
H1854 H 0.11182 0.7409 0.92451 0.0
H1855 H 0.11587 0.76313 0.98463 0.0
H1856 H 0.05934 0.7241 0.98315 0.0
H1857 H 0.09365 0.7329 0.98194 0.0
H1858 H 0.08143 0.75731 0.92808 0.0
H1859 H 0.04685 0.74882 0.92942 0.0
C1860 C 0.14016 0.75134 0.93777 0.0
C1861 C 0.15151 0.75933 0.95475 0.0
C1862 C 0.12016 0.74747 0.93767 0.0
C1863 C 0.11116 0.75135 0.95459 0.0
C1864 C 0.12245 0.75978 0.97143 0.0
C1865 C 0.14239 0.76376 0.9715 0.0
C1866 C 0.06389 0.73157 0.97115 0.0
C1867 C 0.05031 0.73594 0.95648 0.0
C1868 C 0.08357 0.73658 0.97046 0.0
C1869 C 0.0902 0.74596 0.95501 0.0
C1870 C 0.07672 0.75001 0.94011 0.0
C1871 C 0.05694 0.7451 0.94086 0.0
H1872 H 0.83602 0.24559 0.47499 0.0
H1873 H 0.86491 0.19374 0.46694 0.0
H1874 H 0.86436 0.26148 0.49487 0.0
H1875 H 0.89288 0.20929 0.48775 0.0
H1876 H 0.94685 0.25422 0.49584 0.0
H1877 H 0.91771 0.2337 0.48324 0.0
H1878 H 0.88551 0.26406 0.52425 0.0
H1879 H 0.91468 0.28524 0.53628 0.0
C1880 C 0.84833 0.23749 0.47769 0.0
C1881 C 0.8483 0.2185 0.46908 0.0
C1882 C 0.86449 0.24651 0.48936 0.0
C1883 C 0.88099 0.23672 0.49282 0.0
C1884 C 0.88053 0.21735 0.48514 0.0
C1885 C 0.86439 0.20836 0.47337 0.0
C1886 C 0.93358 0.2564 0.50229 0.0
C1887 C 0.93298 0.27155 0.51682 0.0
C1888 C 0.91689 0.24447 0.49522 0.0
C1889 C 0.89918 0.24733 0.50259 0.0
C1890 C 0.89885 0.26168 0.51803 0.0
C1891 C 0.91559 0.27367 0.52508 0.0
H1892 H 0.4945 0.70198 0.99851 0.0
H1893 H 0.49448 0.69522 0.93643 0.0
H1894 H 0.45917 0.70115 0.99492 0.0
H1895 H 0.45935 0.69427 0.93287 0.0
H1896 H 0.39967 0.71429 0.93285 0.0
H1897 H 0.43476 0.71769 0.93962 0.0
H1898 H 0.43028 0.67666 0.98204 0.0
H1899 H 0.39509 0.67301 0.97503 0.0
C1900 C 0.48694 0.70033 0.98414 0.0
C1901 C 0.4972 0.69861 0.96775 0.0
C1902 C 0.46677 0.69977 0.98209 0.0
C1903 C 0.45657 0.69778 0.96363 0.0
C1904 C 0.46686 0.69606 0.94728 0.0
C1905 C 0.48694 0.69639 0.94932 0.0
C1906 C 0.40618 0.7061 0.94371 0.0
C1907 C 0.39466 0.69325 0.95328 0.0
C1908 C 0.42624 0.70802 0.94756 0.0
C1909 C 0.43523 0.69726 0.96118 0.0
C1910 C 0.4237 0.68519 0.97153 0.0
C1911 C 0.40359 0.68314 0.96755 0.0
H1912 H 0.55021 0.46754 0.34039 0.0
H1913 H 0.59748 0.47952 0.30603 0.0
H1914 H 0.54016 0.49974 0.33663 0.0
H1915 H 0.58757 0.51147 0.30235 0.0
H1916 H 0.56222 0.56419 0.2883 0.0
H1917 H 0.56335 0.52936 0.28806 0.0
H1918 H 0.55212 0.53299 0.34808 0.0
H1919 H 0.55035 0.56782 0.34794 0.0
C1920 C 0.55839 0.477 0.33196 0.0
C1921 C 0.57464 0.47094 0.32349 0.0
C1922 C 0.55263 0.49543 0.32981 0.0
C1923 C 0.56299 0.50818 0.31914 0.0
C1924 C 0.57896 0.50191 0.31031 0.0
C1925 C 0.58468 0.48354 0.31243 0.0
C1926 C 0.5594 0.55736 0.30122 0.0
C1927 C 0.5562 0.56852 0.31813 0.0
C1928 C 0.56024 0.53749 0.30118 0.0
C1929 C 0.55822 0.52843 0.31816 0.0
C1930 C 0.55364 0.53946 0.33472 0.0
C1931 C 0.5526 0.55938 0.33469 0.0
H1932 H 0.97611 0.12099 0.75908 0.0
H1933 H 0.91431 0.12313 0.75491 0.0
H1934 H 0.97149 0.08585 0.75615 0.0
H1935 H 0.90964 0.08777 0.75227 0.0
H1936 H 0.95888 0.02385 0.76577 0.0
H1937 H 0.95979 0.05865 0.77367 0.0
H1938 H 0.91497 0.06114 0.7274 0.0
H1939 H 0.91411 0.02628 0.71942 0.0
C1940 C 0.96153 0.11391 0.75765 0.0
C1941 C 0.94557 0.12477 0.7571 0.0
C1942 C 0.95888 0.09379 0.75618 0.0
C1943 C 0.9402 0.08405 0.75402 0.0
C1944 C 0.9242 0.0949 0.75382 0.0
C1945 C 0.92687 0.1151 0.75547 0.0
C1946 C 0.94912 0.03181 0.75738 0.0
C1947 C 0.93662 0.02238 0.74179 0.0
C1948 C 0.94964 0.05172 0.76191 0.0
C1949 C 0.93764 0.06265 0.751 0.0
C1950 C 0.92431 0.05308 0.73615 0.0
C1951 C 0.92382 0.03312 0.73158 0.0
H1952 H 0.44354 0.87188 0.19166 0.0
H1953 H 0.45931 0.84821 0.24525 0.0
H1954 H 0.46274 0.9021 0.20374 0.0
H1955 H 0.47766 0.87872 0.2577 0.0
H1956 H 0.51656 0.93304 0.27401 0.0
H1957 H 0.50506 0.90185 0.25606 0.0
H1958 H 0.45801 0.92786 0.22732 0.0
H1959 H 0.46995 0.959 0.24459 0.0
C1960 C 0.45133 0.873 0.2059 0.0
C1961 C 0.44968 0.85769 0.21758 0.0
C1962 C 0.46217 0.89042 0.21291 0.0
C1963 C 0.47156 0.89294 0.23177 0.0
C1964 C 0.47074 0.87727 0.24305 0.0
C1965 C 0.45997 0.85984 0.23602 0.0
C1966 C 0.50406 0.93215 0.26348 0.0
C1967 C 0.49401 0.9484 0.26088 0.0
C1968 C 0.49735 0.91426 0.25334 0.0
C1969 C 0.48049 0.91229 0.24039 0.0
C1970 C 0.47112 0.92882 0.23704 0.0
C1971 C 0.47783 0.94666 0.24712 0.0
H1972 H 0.9509 0.50482 0.67871 0.0
H1973 H 0.00813 0.50521 0.7079 0.0
H1974 H 0.94855 0.46977 0.67305 0.0
H1975 H 0.00601 0.47008 0.70189 0.0
H1976 H 0.98231 0.40833 0.71226 0.0
H1977 H 0.98901 0.44318 0.71372 0.0
H1978 H 0.95979 0.44224 0.65632 0.0
H1979 H 0.95275 0.40725 0.65509 0.0
C1980 C 0.96314 0.49741 0.68358 0.0
C1981 C 0.97964 0.50772 0.69386 0.0
C1982 C 0.96183 0.4773 0.68027 0.0
C1983 C 0.97707 0.46706 0.68706 0.0
C1984 C 0.99387 0.47748 0.69676 0.0
C1985 C 0.99511 0.49759 0.70019 0.0
C1986 C 0.97767 0.41551 0.69979 0.0
C1987 C 0.96692 0.40508 0.6836 0.0
C1988 C 0.98153 0.43553 0.7006 0.0
C1989 C 0.97483 0.44558 0.68519 0.0
C1990 C 0.96484 0.435 0.66861 0.0
C1991 C 0.96086 0.41497 0.66785 0.0
H1992 H 0.67347 0.42932 0.5295 0.0
H1993 H 0.70366 0.37973 0.51411 0.0
H1994 H 0.67819 0.44099 0.49822 0.0
H1995 H 0.70794 0.39108 0.48281 0.0
H1996 H 0.72946 0.42343 0.43578 0.0
H1997 H 0.72583 0.41591 0.46874 0.0
H1998 H 0.66818 0.43408 0.46401 0.0
H1999 H 0.67226 0.44221 0.43111 0.0
C2000 C 0.68089 0.42076 0.51936 0.0
C2001 C 0.6881 0.4035 0.52431 0.0
C2002 C 0.68361 0.42748 0.50143 0.0
C2003 C 0.69356 0.41706 0.48802 0.0
C2004 C 0.70061 0.39973 0.49294 0.0
C2005 C 0.69803 0.39313 0.51088 0.0
C2006 C 0.71619 0.42617 0.442 0.0
C2007 C 0.70113 0.43338 0.43103 0.0
C2008 C 0.71399 0.42167 0.46076 0.0
C2009 C 0.69657 0.42402 0.46891 0.0
C2010 C 0.68183 0.43217 0.45822 0.0
C2011 C 0.68413 0.43687 0.43943 0.0
H2012 H 0.77483 0.57934 0.1344 0.0
H2013 H 0.80018 0.53048 0.15619 0.0
H2014 H 0.76323 0.55973 0.10426 0.0
H2015 H 0.78882 0.51088 0.12575 0.0
H2016 H 0.74258 0.47926 0.07676 0.0
H2017 H 0.75738 0.49686 0.10717 0.0
H2018 H 0.7773 0.54433 0.07615 0.0
H2019 H 0.76268 0.52677 0.04587 0.0
C2020 C 0.77786 0.56438 0.13277 0.0
C2021 C 0.78839 0.55645 0.14768 0.0
C2022 C 0.77141 0.5532 0.11542 0.0
C2023 C 0.77525 0.5338 0.11258 0.0
C2024 C 0.78561 0.52577 0.12755 0.0
C2025 C 0.79222 0.53702 0.14489 0.0
C2026 C 0.75049 0.49327 0.07642 0.0
C2027 C 0.75125 0.50174 0.05897 0.0
C2028 C 0.75892 0.50336 0.09382 0.0
C2029 C 0.76821 0.5221 0.09406 0.0
C2030 C 0.76985 0.53009 0.07647 0.0
C2031 C 0.76151 0.52002 0.05914 0.0
H2032 H 0.26326 0.03064 0.51088 0.0
H2033 H 0.31857 0.01122 0.49958 0.0
H2034 H 0.2736 0.03482 0.54537 0.0
H2035 H 0.32902 0.01592 0.53412 0.0
H2036 H 0.34654 0.05731 0.59096 0.0
H2037 H 0.33615 0.04604 0.55721 0.0
H2038 H 0.28391 0.01725 0.57416 0.0
H2039 H 0.29433 0.02867 0.60806 0.0
C2040 C 0.27748 0.02689 0.51574 0.0
C2041 C 0.29014 0.02075 0.50239 0.0
C2042 C 0.2834 0.02932 0.53553 0.0
C2043 C 0.30215 0.0258 0.54241 0.0
C2044 C 0.31456 0.01897 0.52918 0.0
C2045 C 0.30859 0.01638 0.5094 0.0
C2046 C 0.33292 0.04842 0.58747 0.0
C2047 C 0.32116 0.04396 0.60205 0.0
C2048 C 0.32705 0.04184 0.56819 0.0
C2049 C 0.3092 0.03081 0.56307 0.0
C2050 C 0.29768 0.02583 0.57772 0.0
C2051 C 0.30369 0.03224 0.59707 0.0
H2052 H 0.22771 0.98129 0.83583 0.0
H2053 H 0.24033 0.03845 0.81848 0.0
H2054 H 0.24457 0.99157 0.86758 0.0
H2055 H 0.25714 0.04894 0.85058 0.0
H2056 H 0.30143 0.05244 0.90596 0.0
H2057 H 0.28552 0.04469 0.87305 0.0
H2058 H 0.23845 0.01221 0.89556 0.0
H2059 H 0.25445 0.01966 0.92814 0.0
C2060 C 0.23407 0.9961 0.83886 0.0
C2061 C 0.23251 0.00913 0.82478 0.0
C2062 C 0.24367 0.00203 0.85708 0.0
C2063 C 0.25188 0.02119 0.86174 0.0
C2064 C 0.25098 0.03408 0.84742 0.0
C2065 C 0.24139 0.02809 0.82906 0.0
C2066 C 0.28756 0.04387 0.9038 0.0
C2067 C 0.27928 0.0364 0.91951 0.0
C2068 C 0.27846 0.03943 0.885 0.0
C2069 C 0.26091 0.02752 0.88166 0.0
C2070 C 0.25222 0.02095 0.89756 0.0
C2071 C 0.26133 0.02529 0.91623 0.0
H2072 H 0.51262 0.63061 0.39284 0.0
H2073 H 0.52676 0.69153 0.41031 0.0
H2074 H 0.48049 0.63258 0.40353 0.0
H2075 H 0.49465 0.69349 0.42078 0.0
H2076 H 0.44237 0.68799 0.45385 0.0
H2077 H 0.47484 0.68223 0.44596 0.0
H2078 H 0.45068 0.64757 0.39355 0.0
H2079 H 0.41818 0.65311 0.40157 0.0
C2080 C 0.50893 0.6444 0.399 0.0
C2081 C 0.52224 0.66096 0.40047 0.0
C2082 C 0.49048 0.64553 0.40504 0.0
C2083 C 0.48505 0.66317 0.41305 0.0
C2084 C 0.49846 0.67963 0.41486 0.0
C2085 C 0.5168 0.67855 0.40861 0.0
C2086 C 0.44398 0.67878 0.44088 0.0
C2087 C 0.42775 0.67108 0.4283 0.0
C2088 C 0.46257 0.67567 0.43624 0.0
C2089 C 0.46532 0.66468 0.41899 0.0
C2090 C 0.44904 0.65611 0.40692 0.0
C2091 C 0.43045 0.65935 0.41148 0.0
H2092 H 0.81195 0.27516 0.03434 0.0
H2093 H 0.83707 0.22186 0.0427 0.0
H2094 H 0.84391 0.29298 0.04157 0.0
H2095 H 0.86874 0.23961 0.05008 0.0
H2096 H 0.9239 0.27567 0.06942 0.0
H2097 H 0.89029 0.26358 0.07167 0.0
H2098 H 0.87227 0.29429 0.02323 0.0
H2099 H 0.90569 0.30667 0.02132 0.0
C2100 C 0.82422 0.26727 0.03794 0.0
C2101 C 0.82194 0.24705 0.03778 0.0
C2102 C 0.8425 0.27749 0.04213 0.0
C2103 C 0.85887 0.26771 0.04631 0.0
C2104 C 0.85641 0.24764 0.04721 0.0
C2105 C 0.83819 0.23744 0.04297 0.0
C2106 C 0.91267 0.28025 0.05963 0.0
C2107 C 0.91739 0.29191 0.04505 0.0
C2108 C 0.89346 0.27321 0.0608 0.0
C2109 C 0.87864 0.27782 0.0475 0.0
C2110 C 0.88329 0.29056 0.03379 0.0
C2111 C 0.90246 0.29751 0.03256 0.0
H2112 H 0.14161 0.81252 0.54778 0.0
H2113 H 0.168 0.75982 0.53513 0.0
H2114 H 0.11283 0.79928 0.52684 0.0
H2115 H 0.13882 0.74622 0.51493 0.0
H2116 H 0.08767 0.72979 0.47049 0.0
H2117 H 0.11793 0.74765 0.48535 0.0
H2118 H 0.08699 0.77488 0.52949 0.0
H2119 H 0.0569 0.7576 0.51433 0.0
C2120 C 0.14139 0.79819 0.54036 0.0
C2121 C 0.15709 0.78719 0.54328 0.0
C2122 C 0.12478 0.79052 0.5285 0.0
C2123 C 0.12343 0.77163 0.51932 0.0
C2124 C 0.13941 0.76088 0.52164 0.0
C2125 C 0.15605 0.76858 0.53347 0.0
C2126 C 0.08734 0.73995 0.4831 0.0
C2127 C 0.06997 0.74218 0.49136 0.0
C2128 C 0.10468 0.75001 0.49173 0.0
C2129 C 0.10493 0.76258 0.50871 0.0
C2130 C 0.08735 0.76548 0.51635 0.0
C2131 C 0.07011 0.75543 0.50777 0.0
H2132 H 0.5276 0.28251 0.99314 0.0
H2133 H 0.51658 0.30966 0.04854 0.0
H2134 H 0.56238 0.28967 0.002 0.0
H2135 H 0.55108 0.31638 0.05762 0.0
H2136 H 0.61247 0.34116 0.06406 0.0
H2137 H 0.57863 0.33615 0.05107 0.0
H2138 H 0.58826 0.28052 0.02315 0.0
H2139 H 0.6223 0.28596 0.03567 0.0
C2140 C 0.53265 0.2899 0.00724 0.0
C2141 C 0.51944 0.29565 0.02011 0.0
C2142 C 0.55253 0.29398 0.01234 0.0
C2143 C 0.55955 0.30376 0.03047 0.0
C2144 C 0.54624 0.30929 0.04335 0.0
C2145 C 0.52644 0.30537 0.0382 0.0
C2146 C 0.60733 0.32796 0.05498 0.0
C2147 C 0.61988 0.31386 0.05099 0.0
C2148 C 0.58795 0.32502 0.04762 0.0
C2149 C 0.58062 0.30778 0.03633 0.0
C2150 C 0.59342 0.29403 0.03167 0.0
C2151 C 0.6129 0.29709 0.03886 0.0
H2152 H 0.41528 0.52957 0.69467 0.0
H2153 H 0.38328 0.50658 0.64043 0.0
H2154 H 0.42979 0.49931 0.6967 0.0
H2155 H 0.39777 0.47616 0.6425 0.0
H2156 H 0.43921 0.42916 0.64477 0.0
H2157 H 0.42909 0.46165 0.64181 0.0
H2158 H 0.4186 0.46635 0.70202 0.0
H2159 H 0.42884 0.43422 0.70485 0.0
C2160 C 0.41124 0.51799 0.68324 0.0
C2161 C 0.39807 0.52043 0.66744 0.0
C2162 C 0.41962 0.50068 0.68437 0.0
C2163 C 0.41499 0.48535 0.66974 0.0
C2164 C 0.40192 0.48783 0.65383 0.0
C2165 C 0.39356 0.5052 0.65268 0.0
C2166 C 0.43521 0.43745 0.6574 0.0
C2167 C 0.43489 0.42939 0.67505 0.0
C2168 C 0.42919 0.45588 0.65569 0.0
C2169 C 0.42294 0.46652 0.67166 0.0
C2170 C 0.4235 0.45866 0.68949 0.0
C2171 C 0.42935 0.44028 0.69114 0.0
H2172 H 0.05484 0.8835 0.25684 0.0
H2173 H 0.996 0.88863 0.23461 0.0
H2174 H 0.06021 0.91855 0.26421 0.0
H2175 H 0.00114 0.92346 0.24247 0.0
H2176 H 0.04829 0.97495 0.30135 0.0
H2177 H 0.049 0.94151 0.2883 0.0
H2178 H 0.01805 0.9534 0.23498 0.0
H2179 H 0.01726 0.98687 0.24811 0.0
C2180 C 0.04315 0.89214 0.25326 0.0
C2181 C 0.02495 0.88332 0.24528 0.0
C2182 C 0.04618 0.91218 0.25764 0.0
C2183 C 0.03109 0.92379 0.25401 0.0
C2184 C 0.01314 0.91499 0.24527 0.0
C2185 C 0.01011 0.895 0.24097 0.0
C2186 C 0.04208 0.97055 0.28666 0.0
C2187 C 0.03251 0.98347 0.27584 0.0
C2188 C 0.04249 0.95138 0.27917 0.0
C2189 C 0.03337 0.94474 0.26068 0.0
C2190 C 0.02487 0.95799 0.24941 0.0
C2191 C 0.02443 0.97714 0.25692 0.0
H2192 H 0.55198 0.13546 0.82521 0.0
H2193 H 0.53737 0.16131 0.77259 0.0
H2194 H 0.53016 0.1069 0.81316 0.0
H2195 H 0.51618 0.13238 0.7602 0.0
H2196 H 0.47069 0.08199 0.7462 0.0
H2197 H 0.4865 0.11211 0.76352 0.0
H2198 H 0.53151 0.08072 0.78842 0.0
H2199 H 0.51546 0.05074 0.77161 0.0
C2200 C 0.54393 0.13518 0.81117 0.0
C2201 C 0.54655 0.15064 0.79981 0.0
C2202 C 0.53156 0.11871 0.80419 0.0
C2203 C 0.52153 0.11728 0.78566 0.0
C2204 C 0.52355 0.13305 0.7746 0.0
C2205 C 0.53591 0.14954 0.7816 0.0
C2206 C 0.48369 0.08152 0.75577 0.0
C2207 C 0.49194 0.06407 0.75745 0.0
C2208 C 0.49286 0.09878 0.76552 0.0
C2209 C 0.51036 0.09886 0.77722 0.0
C2210 C 0.51798 0.0812 0.77968 0.0
C2211 C 0.50888 0.06402 0.76991 0.0
H2212 H 0.99227 0.50675 0.28829 0.0
H2213 H 0.04948 0.49488 0.30976 0.0
H2214 H 0.00223 0.54151 0.29416 0.0
H2215 H 0.05935 0.52946 0.31568 0.0
H2216 H 0.07513 0.59025 0.29803 0.0
H2217 H 0.06378 0.55606 0.29327 0.0
H2218 H 0.01387 0.5672 0.32313 0.0
H2219 H 0.02551 0.60151 0.32856 0.0
C2220 C 0.00692 0.51159 0.29431 0.0
C2221 C 0.02011 0.49816 0.29857 0.0
C2222 C 0.01256 0.53142 0.29778 0.0
C2223 C 0.03157 0.53811 0.30528 0.0
C2224 C 0.04466 0.52467 0.30973 0.0
C2225 C 0.03897 0.50491 0.30649 0.0
C2226 C 0.06187 0.58545 0.30385 0.0
C2227 C 0.05137 0.59865 0.31389 0.0
C2228 C 0.05535 0.56586 0.30103 0.0
C2229 C 0.03804 0.55901 0.30795 0.0
C2230 C 0.02722 0.57217 0.31757 0.0
C2231 C 0.03388 0.5918 0.32061 0.0
H2232 H 0.41014 0.61065 0.3468 0.0
H2233 H 0.41596 0.67268 0.35803 0.0
H2234 H 0.44451 0.61123 0.34313 0.0
H2235 H 0.45068 0.67342 0.35543 0.0
H2236 H 0.50915 0.66985 0.33175 0.0
H2237 H 0.47445 0.66954 0.33415 0.0
H2238 H 0.47488 0.61568 0.36018 0.0
H2239 H 0.50927 0.61563 0.35658 0.0
C2240 C 0.41891 0.62442 0.34858 0.0
C2241 C 0.41049 0.64163 0.35255 0.0
C2242 C 0.43865 0.62478 0.34666 0.0
C2243 C 0.45055 0.64237 0.34906 0.0
C2244 C 0.442 0.65963 0.35308 0.0
C2245 C 0.42214 0.65926 0.35466 0.0
C2246 C 0.50169 0.65799 0.33794 0.0
C2247 C 0.51181 0.64292 0.34427 0.0
C2248 C 0.48186 0.65785 0.33948 0.0
C2249 C 0.47173 0.64263 0.34745 0.0
C2250 C 0.482 0.62749 0.35365 0.0
C2251 C 0.50175 0.62751 0.3518 0.0
H2252 H 0.10366 0.31168 0.72259 0.0
H2253 H 0.10952 0.37071 0.74852 0.0
H2254 H 0.0686 0.31206 0.71859 0.0
H2255 H 0.07461 0.37078 0.74536 0.0
H2256 H 0.01341 0.37188 0.71767 0.0
H2257 H 0.04832 0.37094 0.72082 0.0
H2258 H 0.04086 0.31282 0.73737 0.0
H2259 H 0.00582 0.31377 0.7337 0.0
C2260 C 0.09749 0.32473 0.72743 0.0
C2261 C 0.10942 0.34115 0.7359 0.0
C2262 C 0.07738 0.32487 0.72535 0.0
C2263 C 0.06877 0.34145 0.73166 0.0
C2264 C 0.08074 0.35784 0.74013 0.0
C2265 C 0.10078 0.35771 0.74217 0.0
C2266 C 0.01925 0.35889 0.72183 0.0
C2267 C 0.00694 0.34282 0.7252 0.0
C2268 C 0.03926 0.35838 0.72382 0.0
C2269 C 0.04743 0.3418 0.72935 0.0
C2270 C 0.03506 0.32572 0.73282 0.0
C2271 C 0.01501 0.32626 0.73081 0.0
H2272 H 0.77471 0.95195 0.68774 0.0
H2273 H 0.7929 0.00954 0.67447 0.0
H2274 H 0.80829 0.9461 0.695 0.0
H2275 H 0.82658 0.00387 0.68208 0.0
H2276 H 0.88338 0.97727 0.6724 0.0
H2277 H 0.85016 0.98549 0.66838 0.0
H2278 H 0.83684 0.95396 0.71678 0.0
H2279 H 0.87 0.94523 0.72025 0.0
C2280 C 0.78589 0.9635 0.68674 0.0
C2281 C 0.78115 0.98118 0.68048 0.0
C2282 C 0.80518 0.96016 0.69093 0.0
C2283 C 0.82021 0.97448 0.68907 0.0
C2284 C 0.81541 0.99238 0.68333 0.0
C2285 C 0.79612 0.99567 0.67902 0.0
C2286 C 0.87336 0.97228 0.68227 0.0
C2287 C 0.87925 0.96076 0.69674 0.0
C2288 C 0.85434 0.97707 0.68007 0.0
C2289 C 0.84076 0.97041 0.69227 0.0
C2290 C 0.84682 0.95914 0.70697 0.0
C2291 C 0.86582 0.95427 0.70909 0.0
H2292 H 0.67547 0.02997 0.31563 0.0
H2293 H 0.66812 0.98695 0.26648 0.0
H2294 H 0.64063 0.02977 0.31519 0.0
H2295 H 0.63322 0.98693 0.26576 0.0
H2296 H 0.57068 0.9795 0.2796 0.0
H2297 H 0.60568 0.97811 0.28245 0.0
H2298 H 0.61408 0.04009 0.29592 0.0
H2299 H 0.57915 0.04124 0.29365 0.0
C2300 C 0.66645 0.02048 0.30473 0.0
C2301 C 0.67468 0.00844 0.29119 0.0
C2302 C 0.64642 0.0204 0.3044 0.0
C2303 C 0.63406 0.00838 0.2904 0.0
C2304 C 0.64226 0.99616 0.27696 0.0
C2305 C 0.66231 0.99617 0.27738 0.0
C2306 C 0.58009 0.99274 0.2834 0.0
C2307 C 0.57228 0.01043 0.28668 0.0
C2308 C 0.60011 0.992 0.28486 0.0
C2309 C 0.61274 0.00899 0.28946 0.0
C2310 C 0.60482 0.02668 0.29272 0.0
C2311 C 0.58482 0.02739 0.29133 0.0
H2312 H 0.3426 0.40894 0.61434 0.0
H2313 H 0.33532 0.40704 0.67489 0.0
H2314 H 0.34077 0.44374 0.61772 0.0
H2315 H 0.33314 0.44197 0.67824 0.0
H2316 H 0.35464 0.50743 0.67914 0.0
H2317 H 0.35516 0.47228 0.67678 0.0
H2318 H 0.31705 0.46698 0.62393 0.0
H2319 H 0.31673 0.50186 0.6262 0.0
C2320 C 0.34045 0.41597 0.62834 0.0
C2321 C 0.33905 0.40528 0.64434 0.0
C2322 C 0.33929 0.43588 0.63026 0.0
C2323 C 0.33682 0.4456 0.64825 0.0
C2324 C 0.3352 0.43489 0.66423 0.0
C2325 C 0.33621 0.41489 0.66227 0.0
C2326 C 0.34617 0.49867 0.66719 0.0
C2327 C 0.33533 0.50739 0.65308 0.0
C2328 C 0.34644 0.47859 0.66585 0.0
C2329 C 0.33605 0.46686 0.65022 0.0
C2330 C 0.3253 0.47562 0.63608 0.0
C2331 C 0.32502 0.49564 0.63744 0.0
H2332 H 0.34765 0.71397 0.99688 0.0
H2333 H 0.29349 0.69156 0.94044 0.0
H2334 H 0.3391 0.6631 0.98212 0.0
H2335 H 0.30038 0.65002 0.94382 0.0
H2336 H 0.31294 0.58866 0.95045 0.0
H2337 H 0.31528 0.62284 0.94513 0.0
H2338 H 0.34615 0.63715 0.00175 0.0
H2339 H 0.34423 0.60292 0.0068 0.0
C2340 C 0.33981 0.7026 0.98691 0.0
C2341 C 0.32052 0.7087 0.9673 0.0
C2342 C 0.34471 0.67565 0.98957 0.0
C2343 C 0.32973 0.6547 0.97161 0.0
C2344 C 0.30952 0.6612 0.95289 0.0
C2345 C 0.30486 0.68826 0.95082 0.0
C2346 C 0.32034 0.59919 0.96164 0.0
C2347 C 0.32823 0.59326 0.97908 0.0
C2348 C 0.32154 0.61878 0.9587 0.0
C2349 C 0.33048 0.63275 0.97324 0.0
C2350 C 0.33911 0.62669 0.99032 0.0
C2351 C 0.33795 0.60714 0.99325 0.0
H2352 H 0.7564 0.08791 0.36862 0.0
H2353 H 0.70263 0.08995 0.33337 0.0
H2354 H 0.75188 0.05273 0.36444 0.0
H2355 H 0.69791 0.05495 0.32978 0.0
H2356 H 0.68641 0.99233 0.34139 0.0
H2357 H 0.69141 0.0273 0.34815 0.0
H2358 H 0.75155 0.02606 0.33876 0.0
H2359 H 0.74672 0.99085 0.33282 0.0
C2360 C 0.74368 0.08091 0.35988 0.0
C2361 C 0.72991 0.09187 0.35128 0.0
C2362 C 0.74107 0.06072 0.35754 0.0
C2363 C 0.72455 0.05097 0.34672 0.0
C2364 C 0.7107 0.06192 0.33835 0.0
C2365 C 0.71339 0.08207 0.34049 0.0
C2366 C 0.70079 0.99942 0.34107 0.0
C2367 C 0.71632 0.98875 0.33697 0.0
C2368 C 0.7036 0.01953 0.34474 0.0
C2369 C 0.72185 0.0295 0.34393 0.0
C2370 C 0.73737 0.01882 0.33982 0.0
C2371 C 0.73461 0.99869 0.33634 0.0
H2372 H 0.65987 0.78401 0.93857 0.0
H2373 H 0.67953 0.78798 0.99931 0.0
H2374 H 0.66773 0.81871 0.9386 0.0
H2375 H 0.68699 0.82279 0.99955 0.0
H2376 H 0.71211 0.88321 0.99077 0.0
H2377 H 0.70757 0.84804 0.98907 0.0
H2378 H 0.65572 0.8479 0.95025 0.0
H2379 H 0.66075 0.88298 0.95147 0.0
C2380 C 0.66584 0.79234 0.95195 0.0
C2381 C 0.669 0.7833 0.96896 0.0
C2382 C 0.67029 0.81225 0.952 0.0
C2383 C 0.67786 0.82365 0.96911 0.0
C2384 C 0.68143 0.81448 0.98604 0.0
C2385 C 0.67712 0.79452 0.98594 0.0
C2386 C 0.69996 0.87561 0.9816 0.0
C2387 C 0.68706 0.88579 0.97081 0.0
C2388 C 0.69722 0.85545 0.98078 0.0
C2389 C 0.68133 0.84505 0.96943 0.0
C2390 C 0.66837 0.85533 0.95878 0.0
C2391 C 0.67119 0.87544 0.95951 0.0
H2392 H 0.63668 0.31694 0.42101 0.0
H2393 H 0.67081 0.37224 0.43039 0.0
H2394 H 0.63864 0.31501 0.45592 0.0
H2395 H 0.67265 0.37036 0.4653 0.0
H2396 H 0.68755 0.3495 0.52549 0.0
H2397 H 0.68697 0.35023 0.49042 0.0
H2398 H 0.62558 0.33332 0.48418 0.0
H2399 H 0.62619 0.33277 0.51923 0.0
C2400 C 0.64475 0.32858 0.43053 0.0
C2401 C 0.65356 0.34474 0.42297 0.0
C2402 C 0.64572 0.32756 0.4505 0.0
C2403 C 0.65575 0.34255 0.46334 0.0
C2404 C 0.66493 0.35853 0.45577 0.0
C2405 C 0.66376 0.35966 0.4358 0.0
C2406 C 0.67399 0.3458 0.51656 0.0
C2407 C 0.657 0.34068 0.52499 0.0
C2408 C 0.67363 0.34633 0.49655 0.0
C2409 C 0.65625 0.34173 0.48456 0.0
C2410 C 0.63924 0.33664 0.49302 0.0
C2411 C 0.63958 0.33632 0.51305 0.0
H2412 H 0.00604 0.29907 0.69619 0.0
H2413 H 0.9439 0.29052 0.68476 0.0
H2414 H 0.00865 0.30644 0.66315 0.0
H2415 H 0.94651 0.29835 0.6516 0.0
H2416 H 0.96433 0.28408 0.58892 0.0
H2417 H 0.95844 0.28192 0.62272 0.0
H2418 H 0.00173 0.32998 0.64012 0.0
H2419 H 0.0077 0.3319 0.60632 0.0
C2420 C 0.99291 0.29889 0.68665 0.0
C2421 C 0.97477 0.29399 0.69308 0.0
C2422 C 0.9944 0.30334 0.66775 0.0
C2423 C 0.97779 0.30292 0.65472 0.0
C2424 C 0.95958 0.29859 0.66126 0.0
C2425 C 0.95808 0.29424 0.68027 0.0
C2426 C 0.9724 0.29426 0.60002 0.0
C2427 C 0.98666 0.30793 0.59515 0.0
C2428 C 0.96896 0.29314 0.61932 0.0
C2429 C 0.97973 0.30569 0.63411 0.0
C2430 C 0.99341 0.31992 0.62908 0.0
C2431 C 0.99681 0.32106 0.60977 0.0
H2432 H 0.35977 0.70349 0.10773 0.0
H2433 H 0.30502 0.72764 0.10793 0.0
H2434 H 0.35271 0.69315 0.07324 0.0
H2435 H 0.29783 0.71705 0.0735 0.0
H2436 H 0.3008 0.71184 0.00763 0.0
H2437 H 0.3096 0.72398 0.04165 0.0
H2438 H 0.32927 0.66883 0.05287 0.0
H2439 H 0.32043 0.65681 0.01896 0.0
C2440 C 0.34628 0.70666 0.10037 0.0
C2441 C 0.33293 0.71633 0.11053 0.0
C2442 C 0.34217 0.70063 0.08068 0.0
C2443 C 0.32472 0.70429 0.07068 0.0
C2444 C 0.31148 0.71418 0.08079 0.0
C2445 C 0.3155 0.72005 0.10052 0.0
C2446 C 0.30705 0.70241 0.01744 0.0
C2447 C 0.3099 0.68341 0.0108 0.0
C2448 C 0.31201 0.70929 0.03686 0.0
C2449 C 0.32008 0.69733 0.04992 0.0
C2450 C 0.32326 0.67844 0.04312 0.0
C2451 C 0.31814 0.67153 0.02378 0.0
H2452 H 0.94805 0.66489 0.79596 0.0
H2453 H 0.0085 0.68545 0.79905 0.0
H2454 H 0.94886 0.67141 0.83092 0.0
H2455 H 0.00952 0.69158 0.83408 0.0
H2456 H 0.0015 0.71547 0.89523 0.0
H2457 H 0.9994 0.71136 0.86003 0.0
H2458 H 0.96118 0.65908 0.85969 0.0
H2459 H 0.96279 0.6637 0.89486 0.0
C2460 C 0.96154 0.67075 0.80415 0.0
C2461 C 0.97822 0.67461 0.79475 0.0
C2462 C 0.96204 0.67442 0.82421 0.0
C2463 C 0.97929 0.68192 0.83542 0.0
C2464 C 0.9959 0.68608 0.82594 0.0
C2465 C 0.99535 0.68253 0.80584 0.0
C2466 C 0.9924 0.70329 0.88759 0.0
C2467 C 0.98186 0.69019 0.89777 0.0
C2468 C 0.99136 0.7008 0.86741 0.0
C2469 C 0.98003 0.68494 0.85692 0.0
C2470 C 0.9697 0.67171 0.86718 0.0
C2471 C 0.97065 0.67429 0.88735 0.0
H2472 H 0.61191 0.37594 0.7067 0.0
H2473 H 0.59652 0.3562 0.64645 0.0
H2474 H 0.57773 0.37711 0.71127 0.0
H2475 H 0.56251 0.35759 0.65101 0.0
H2476 H 0.50625 0.38489 0.66193 0.0
H2477 H 0.54005 0.38153 0.65713 0.0
H2478 H 0.54756 0.35658 0.71137 0.0
H2479 H 0.5138 0.36008 0.71614 0.0
C2480 C 0.60123 0.3717 0.69447 0.0
C2481 C 0.60694 0.36622 0.67615 0.0
C2482 C 0.58164 0.37236 0.69708 0.0
C2483 C 0.56736 0.36753 0.68141 0.0
C2484 C 0.57312 0.36171 0.66322 0.0
C2485 C 0.59263 0.36099 0.66063 0.0
C2486 C 0.51505 0.37837 0.67263 0.0
C2487 C 0.50728 0.37231 0.6892 0.0
C2488 C 0.53442 0.37647 0.66992 0.0
C2489 C 0.54655 0.36881 0.6839 0.0
C2490 C 0.53871 0.36271 0.70042 0.0
C2491 C 0.51933 0.36451 0.70306 0.0
H2492 H 0.91052 0.66969 0.31417 0.0
H2493 H 0.91293 0.64636 0.25507 0.0
H2494 H 0.94564 0.67491 0.31852 0.0
H2495 H 0.94801 0.65044 0.2598 0.0
H2496 H 0.01037 0.67735 0.26861 0.0
H2497 H 0.97515 0.67404 0.26391 0.0
H2498 H 0.97314 0.65728 0.32184 0.0
H2499 H 0.00817 0.66167 0.32683 0.0
C2500 C 0.9185 0.66569 0.30208 0.0
C2501 C 0.90881 0.65752 0.28428 0.0
C2502 C 0.93869 0.66844 0.30467 0.0
C2503 C 0.94972 0.66296 0.28957 0.0
C2504 C 0.94003 0.65499 0.27171 0.0
C2505 C 0.91986 0.65238 0.26909 0.0
C2506 C 0.00233 0.67298 0.2803 0.0
C2507 C 0.0121 0.66974 0.29799 0.0
C2508 C 0.98216 0.67093 0.27759 0.0
C2509 C 0.97123 0.66531 0.29247 0.0
C2510 C 0.98104 0.66186 0.31013 0.0
C2511 C 0.00121 0.66417 0.31292 0.0
H2512 H 0.1811 0.01345 0.31395 0.0
H2513 H 0.1864 0.06028 0.35948 0.0
H2514 H 0.14711 0.01819 0.30652 0.0
H2515 H 0.15263 0.06527 0.35191 0.0
H2516 H 0.0872 0.05726 0.34688 0.0
H2517 H 0.12077 0.05086 0.35421 0.0
H2518 H 0.12626 0.04004 0.2931 0.0
H2519 H 0.09248 0.04582 0.28598 0.0
C2520 C 0.17504 0.02487 0.32225 0.0
C2521 C 0.18641 0.03642 0.33737 0.0
C2522 C 0.15557 0.02762 0.31799 0.0
C2523 C 0.14705 0.04207 0.32867 0.0
C2524 C 0.15854 0.05373 0.34365 0.0
C2525 C 0.17794 0.05091 0.34797 0.0
C2526 C 0.09565 0.05345 0.33509 0.0
C2527 C 0.08739 0.0522 0.3159 0.0
C2528 C 0.11489 0.0499 0.33923 0.0
C2529 C 0.12633 0.04509 0.32424 0.0
C2530 C 0.11787 0.04353 0.30502 0.0
C2531 C 0.09858 0.04698 0.3009 0.0
H2532 H 0.31138 0.96257 0.71266 0.0
H2533 H 0.3053 0.02127 0.73489 0.0
H2534 H 0.34593 0.97055 0.713 0.0
H2535 H 0.33969 0.02951 0.73398 0.0
H2536 H 0.40516 0.03595 0.74316 0.0
H2537 H 0.37158 0.02561 0.74768 0.0
H2538 H 0.36683 0.98831 0.69422 0.0
H2539 H 0.40046 0.99836 0.69012 0.0
C2540 C 0.31735 0.97712 0.71789 0.0
C2541 C 0.30532 0.99129 0.72354 0.0
C2542 C 0.33722 0.98177 0.7178 0.0
C2543 C 0.34562 0.00074 0.72325 0.0
C2544 C 0.33378 0.01471 0.72975 0.0
C2545 C 0.31393 0.01003 0.72999 0.0
C2546 C 0.39686 0.02548 0.73249 0.0
C2547 C 0.40526 0.01807 0.71624 0.0
C2548 C 0.37763 0.01962 0.73498 0.0
C2549 C 0.36642 0.00619 0.72127 0.0
C2550 C 0.37505 0.99851 0.7052 0.0
C2551 C 0.39427 0.00435 0.70274 0.0
H2552 H 0.68228 0.59688 0.3937 0.0
H2553 H 0.69265 0.59294 0.33349 0.0
H2554 H 0.69137 0.56432 0.39586 0.0
H2555 H 0.70264 0.5606 0.33588 0.0
H2556 H 0.69762 0.49531 0.34167 0.0
H2557 H 0.68898 0.52824 0.33921 0.0
H2558 H 0.71841 0.54573 0.39608 0.0
H2559 H 0.72645 0.51271 0.39862 0.0
C2560 C 0.68658 0.58909 0.38092 0.0
C2561 C 0.68661 0.59752 0.36339 0.0
C2562 C 0.69202 0.57046 0.38222 0.0
C2563 C 0.69773 0.55976 0.36605 0.0
C2564 C 0.69808 0.56831 0.34857 0.0
C2565 C 0.69259 0.58697 0.34726 0.0
C2566 C 0.70218 0.50627 0.35359 0.0
C2567 C 0.71277 0.50156 0.37026 0.0
C2568 C 0.69739 0.52514 0.35216 0.0
C2569 C 0.70306 0.53971 0.36741 0.0
C2570 C 0.7136 0.53487 0.38414 0.0
C2571 C 0.71832 0.516 0.38557 0.0
H2572 H 0.74122 0.32248 0.96066 0.0
H2573 H 0.72792 0.30977 0.01772 0.0
H2574 H 0.73874 0.35656 0.96964 0.0
H2575 H 0.72553 0.34373 0.02659 0.0
H2576 H 0.7359 0.40879 0.04142 0.0
H2577 H 0.74326 0.37572 0.03264 0.0
H2578 H 0.71271 0.37661 0.97614 0.0
H2579 H 0.70568 0.40976 0.98496 0.0
C2580 C 0.73773 0.32683 0.9751 0.0
C2581 C 0.73436 0.31308 0.98829 0.0
C2582 C 0.73635 0.34644 0.98025 0.0
C2583 C 0.73171 0.35288 0.99876 0.0
C2584 C 0.72931 0.33934 0.01225 0.0
C2585 C 0.73069 0.31974 0.00712 0.0
C2586 C 0.73084 0.40185 0.02713 0.0
C2587 C 0.71992 0.4116 0.01396 0.0
C2588 C 0.73498 0.38293 0.02211 0.0
C2589 C 0.72847 0.37345 0.00373 0.0
C2590 C 0.7181 0.38352 0.99036 0.0
C2591 C 0.71392 0.40242 0.99541 0.0
H2592 H 0.31513 0.90727 0.67717 0.0
H2593 H 0.26243 0.91473 0.64242 0.0
H2594 H 0.32214 0.94209 0.68314 0.0
H2595 H 0.27006 0.94957 0.64738 0.0
H2596 H 0.27983 0.0117 0.67558 0.0
H2597 H 0.27188 0.97677 0.67037 0.0
H2598 H 0.33244 0.96932 0.66799 0.0
H2599 H 0.3403 0.00407 0.67448 0.0
C2600 C 0.30499 0.91632 0.67083 0.0
C2601 C 0.28821 0.9081 0.65928 0.0
C2602 C 0.30917 0.93635 0.67402 0.0
C2603 C 0.29676 0.94875 0.66564 0.0
C2604 C 0.27989 0.94054 0.65423 0.0
C2605 C 0.27564 0.92049 0.65115 0.0
C2606 C 0.29137 0.00252 0.67385 0.0
C2607 C 0.31063 0.01061 0.67518 0.0
C2608 C 0.28684 0.98251 0.67071 0.0
C2609 C 0.30149 0.97012 0.66866 0.0
C2610 C 0.32076 0.97831 0.66974 0.0
C2611 C 0.32529 0.99828 0.67324 0.0
H2612 H 0.35338 0.20079 0.96208 0.0
H2613 H 0.32697 0.21199 0.01503 0.0
H2614 H 0.34222 0.16655 0.961 0.0
H2615 H 0.31536 0.17785 0.01366 0.0
H2616 H 0.31887 0.11283 0.01699 0.0
H2617 H 0.32945 0.14721 0.01751 0.0
H2618 H 0.31233 0.14444 0.95622 0.0
H2619 H 0.30195 0.10995 0.95578 0.0
C2620 C 0.34512 0.19594 0.97344 0.0
C2621 C 0.3411 0.20909 0.98867 0.0
C2622 C 0.33859 0.17637 0.97273 0.0
C2623 C 0.32797 0.16948 0.98728 0.0
C2624 C 0.32371 0.18267 0.00236 0.0
C2625 C 0.33016 0.20226 0.00301 0.0
C2626 C 0.31742 0.11962 0.00367 0.0
C2627 C 0.30961 0.10885 0.98634 0.0
C2628 C 0.32334 0.1393 0.00397 0.0
C2629 C 0.32164 0.14857 0.98692 0.0
C2630 C 0.31398 0.13769 0.96955 0.0
C2631 C 0.30798 0.11802 0.96929 0.0
H2632 H 0.35828 0.64748 0.58788 0.0
H2633 H 0.36742 0.7084 0.60711 0.0
H2634 H 0.36246 0.65453 0.55492 0.0
H2635 H 0.37148 0.71549 0.57399 0.0
H2636 H 0.36039 0.72119 0.5088 0.0
H2637 H 0.35405 0.7142 0.54148 0.0
H2638 H 0.38901 0.66634 0.537 0.0
H2639 H 0.39515 0.67332 0.50428 0.0
C2640 C 0.36129 0.66239 0.58509 0.0
C2641 C 0.36278 0.67737 0.6002 0.0
C2642 C 0.36366 0.66643 0.56618 0.0
C2643 C 0.36749 0.68556 0.56184 0.0
C2644 C 0.3684 0.7006 0.57682 0.0
C2645 C 0.36607 0.69655 0.5958 0.0
C2646 C 0.36657 0.7091 0.5148 0.0
C2647 C 0.37805 0.69761 0.50397 0.0
C2648 C 0.36307 0.70518 0.53354 0.0
C2649 C 0.37097 0.68968 0.54183 0.0
C2650 C 0.38245 0.6782 0.53093 0.0
C2651 C 0.38602 0.68219 0.51225 0.0
H2652 H 0.97842 0.70815 0.30963 0.0
H2653 H 0.03845 0.72988 0.31056 0.0
H2654 H 0.98385 0.70234 0.34344 0.0
H2655 H 0.04407 0.72309 0.34402 0.0
H2656 H 0.04313 0.72748 0.40956 0.0
H2657 H 0.03698 0.73436 0.37596 0.0
H2658 H 0.99982 0.68094 0.36358 0.0
H2659 H 0.00563 0.67446 0.39734 0.0
C2660 C 0.99276 0.7118 0.31703 0.0
C2661 C 0.008 0.71943 0.30724 0.0
C2662 C 0.99593 0.70821 0.33638 0.0
C2663 C 0.01442 0.71218 0.34648 0.0
C2664 C 0.0296 0.72001 0.33677 0.0
C2665 C 0.02641 0.72369 0.31746 0.0
C2666 C 0.03359 0.71732 0.39961 0.0
C2667 C 0.02478 0.70053 0.40601 0.0
C2668 C 0.03016 0.72114 0.38036 0.0
C2669 C 0.0179 0.7082 0.36703 0.0
C2670 C 0.0091 0.69136 0.3735 0.0
C2671 C 0.0125 0.68758 0.39279 0.0
H2672 H 0.65472 0.24772 0.92184 0.0
H2673 H 0.68206 0.30471 0.91662 0.0
H2674 H 0.66041 0.2535 0.95682 0.0
H2675 H 0.68874 0.31013 0.95153 0.0
H2676 H 0.68423 0.32173 0.01534 0.0
H2677 H 0.67585 0.3162 0.9807 0.0
H2678 H 0.68446 0.25586 0.98251 0.0
H2679 H 0.6922 0.26139 0.01742 0.0
C2680 C 0.66192 0.26152 0.92815 0.0
C2681 C 0.66788 0.27576 0.91634 0.0
C2682 C 0.66543 0.26476 0.94827 0.0
C2683 C 0.6751 0.28229 0.95717 0.0
C2684 C 0.68097 0.29656 0.94533 0.0
C2685 C 0.67742 0.29333 0.92521 0.0
C2686 C 0.68404 0.3072 0.00843 0.0
C2687 C 0.68843 0.29185 0.01925 0.0
C2688 C 0.67944 0.30406 0.98843 0.0
C2689 C 0.67939 0.28554 0.97863 0.0
C2690 C 0.68392 0.27024 0.98949 0.0
C2691 C 0.68845 0.27339 0.00951 0.0
H2692 H 0.00715 0.35649 0.19485 0.0
H2693 H 0.97958 0.29973 0.20067 0.0
H2694 H 0.007 0.34813 0.16027 0.0
H2695 H 0.98021 0.29105 0.1661 0.0
H2696 H 0.96605 0.28958 0.10038 0.0
H2697 H 0.96535 0.29811 0.13507 0.0
H2698 H 0.02256 0.32813 0.1378 0.0
H2699 H 0.0229 0.31995 0.10307 0.0
C2700 C 0.001 0.34223 0.18875 0.0
C2701 C 0.99328 0.32882 0.20056 0.0
C2702 C 0.00115 0.33735 0.16893 0.0
C2703 C 0.99364 0.3189 0.16038 0.0
C2704 C 0.98593 0.30546 0.17217 0.0
C2705 C 0.98577 0.31036 0.19204 0.0
C2706 C 0.97844 0.29797 0.1085 0.0
C2707 C 0.99463 0.30391 0.09921 0.0
C2708 C 0.97811 0.30277 0.12834 0.0
C2709 C 0.99394 0.31373 0.13926 0.0
C2710 C 0.01005 0.31983 0.12982 0.0
C2711 C 0.01034 0.31505 0.10998 0.0
loop_
_geom_bond_atom_site_label_1
_geom_bond_atom_site_label_2
_geom_bond_distance
_geom_bond_site_symmetry_2
_ccdc_geom_bond_type
C0 C1 1.264 . S
C0 C5 1.479 . S
C0 C10 1.465 . S
C1 C0 1.264 . S
C1 C3 1.339 . S
C1 H28 0.931 . S
C2 C3 1.395 . S
C2 C4 1.320 . S
C3 C1 1.339 . S
C3 C2 1.395 . S
C3 H29 0.929 . S
C4 C2 1.320 . S
C4 C5 1.405 . S
C4 H30 0.930 . S
C5 C0 1.479 . S
C5 C4 1.405 . S
C5 H31 0.931 . S
U6 O7 2.454 . S
U6 O8 2.458 . S
U6 C9 2.984 . S
U6 C10 2.847 . S
U6 C23 2.882 . S
U6 O24 2.441 . S
U6 O25 2.420 . S
U6 O26 2.455 . S
U6 O27 2.449 . S
O7 U6 2.454 . S
O7 C9 1.353 . S
O8 U6 2.458 . S
O8 C9 1.286 . S
C9 U6 2.984 . S
C9 O7 1.353 . S
C9 O8 1.286 . S
C9 C11 1.363 . S
C10 C0 1.465 . S
C10 U6 2.847 . S
C10 O24 1.249 . S
C10 O25 1.202 . S
C11 C9 1.363 . S
C11 C13 1.408 . S
C11 C16 1.342 . S
C12 C13 1.310 . S
C12 C15 1.461 . S
C12 H32 0.932 . S
C13 C11 1.408 . S
C13 C12 1.310 . S
C13 H33 0.930 . S
C14 C15 1.474 . S
C14 C16 1.285 . S
C14 H34 0.929 . S
C15 C12 1.461 . S
C15 C14 1.474 . S
C16 C11 1.342 . S
C16 C14 1.285 . S
C16 H35 0.930 . S
C17 C20 1.424 . S
C17 C22 1.245 . S
C17 C23 1.428 . S
C18 C21 1.260 . S
C18 C22 1.477 . S
C18 H36 0.932 . S
C19 C20 1.384 . S
C19 C21 1.479 . S
C19 H37 0.929 . S
C20 C17 1.424 . S
C20 C19 1.384 . S
C20 H38 0.928 . S
C21 C18 1.260 . S
C21 C19 1.479 . S
C22 C17 1.245 . S
C22 C18 1.477 . S
C22 H39 0.932 . S
C23 U6 2.882 . S
C23 C17 1.428 . S
C23 O26 1.301 . S
C23 O27 1.282 . S
O24 U6 2.441 . S
O24 C10 1.249 . S
O25 U6 2.420 . S
O25 C10 1.202 . S
O26 U6 2.455 . S
O26 C23 1.301 . S
O27 U6 2.449 . S
O27 C23 1.282 . S
H28 C1 0.931 . S
H29 C3 0.929 . S
H30 C4 0.930 . S
H31 C5 0.931 . S
H32 C12 0.932 . S
H33 C13 0.930 . S
H34 C14 0.929 . S
H35 C16 0.930 . S
H36 C18 0.932 . S
H37 C19 0.929 . S
H38 C20 0.928 . S
H39 C22 0.932 . S
C40 C41 1.264 . S
C40 C45 1.479 . S
C40 C50 1.465 . S
C41 C40 1.264 . S
C41 C43 1.339 . S
C41 H68 0.931 . S
C42 C43 1.395 . S
C42 C44 1.320 . S
C43 C41 1.339 . S
C43 C42 1.395 . S
C43 H69 0.929 . S
C44 C42 1.320 . S
C44 C45 1.405 . S
C44 H70 0.930 . S
C45 C40 1.479 . S
C45 C44 1.405 . S
C45 H71 0.931 . S
U46 O47 2.454 . S
U46 O48 2.458 . S
U46 C49 2.984 . S
U46 C50 2.847 . S
U46 C63 2.882 . S
U46 O64 2.441 . S
U46 O65 2.420 . S
U46 O66 2.455 . S
U46 O67 2.449 . S
O47 U46 2.454 . S
O47 C49 1.353 . S
O48 U46 2.458 . S
O48 C49 1.286 . S
C49 U46 2.984 . S
C49 O47 1.353 . S
C49 O48 1.286 . S
C49 C51 1.363 . S
C50 C40 1.465 . S
C50 U46 2.847 . S
C50 O64 1.249 . S
C50 O65 1.202 . S
C51 C49 1.363 . S
C51 C53 1.408 . S
C51 C56 1.342 . S
C52 C53 1.310 . S
C52 C55 1.461 . S
C52 H72 0.932 . S
C53 C51 1.408 . S
C53 C52 1.310 . S
C53 H73 0.930 . S
C54 C55 1.474 . S
C54 C56 1.285 . S
C54 H74 0.929 . S
C55 C52 1.461 . S
C55 C54 1.474 . S
C56 C51 1.342 . S
C56 C54 1.285 . S
C56 H75 0.930 . S
C57 C60 1.424 . S
C57 C62 1.245 . S
C57 C63 1.428 . S
C58 C61 1.260 . S
C58 C62 1.477 . S
C58 H76 0.932 . S
C59 C60 1.384 . S
C59 C61 1.479 . S
C59 H77 0.929 . S
C60 C57 1.424 . S
C60 C59 1.384 . S
C60 H78 0.928 . S
C61 C58 1.260 . S
C61 C59 1.479 . S
C62 C57 1.245 . S
C62 C58 1.477 . S
C62 H79 0.932 . S
C63 U46 2.882 . S
C63 C57 1.428 . S
C63 O66 1.301 . S
C63 O67 1.282 . S
O64 U46 2.441 . S
O64 C50 1.249 . S
O65 U46 2.420 . S
O65 C50 1.202 . S
O66 U46 2.455 . S
O66 C63 1.301 . S
O67 U46 2.449 . S
O67 C63 1.282 . S
H68 C41 0.931 . S
H69 C43 0.929 . S
H70 C44 0.930 . S
H71 C45 0.931 . S
H72 C52 0.932 . S
H73 C53 0.930 . S
H74 C54 0.929 . S
H75 C56 0.930 . S
H76 C58 0.932 . S
H77 C59 0.929 . S
H78 C60 0.928 . S
H79 C62 0.932 . S
C80 C81 1.264 . S
C80 C85 1.479 . S
C80 C90 1.465 . S
C81 C80 1.264 . S
C81 C83 1.339 . S
C81 H108 0.931 . S
C82 C83 1.395 . S
C82 C84 1.320 . S
C83 C81 1.339 . S
C83 C82 1.395 . S
C83 H109 0.929 . S
C84 C82 1.320 . S
C84 C85 1.405 . S
C84 H110 0.925 1_565 S
C85 C80 1.479 . S
C85 C84 1.405 . S
C85 H111 0.931 . S
U86 O87 2.454 . S
U86 O88 2.458 . S
U86 C89 2.984 . S
U86 C90 2.847 . S
U86 C103 2.882 . S
U86 O104 2.441 . S
U86 O105 2.420 . S
U86 O106 2.455 . S
U86 O107 2.449 . S
O87 U86 2.454 . S
O87 C89 1.353 . S
O88 U86 2.458 . S
O88 C89 1.286 . S
C89 U86 2.984 . S
C89 O87 1.353 . S
C89 O88 1.286 . S
C89 C91 1.363 . S
C90 C80 1.465 . S
C90 U86 2.847 . S
C90 O104 1.249 . S
C90 O105 1.202 . S
C91 C89 1.363 . S
C91 C93 1.408 . S
C91 C96 1.342 . S
C92 C93 1.310 . S
C92 C95 1.461 . S
C92 H112 0.932 . S
C93 C91 1.408 . S
C93 C92 1.310 . S
C93 H113 0.930 . S
C94 C95 1.473 1_545 S
C94 C96 1.284 1_545 S
C94 H114 0.932 . S
C95 C92 1.461 . S
C95 C94 1.473 1_565 S
C96 C91 1.342 . S
C96 C94 1.284 1_565 S
C96 H115 0.935 . S
C97 C100 1.424 . S
C97 C102 1.245 . S
C97 C103 1.428 . S
C98 C101 1.260 . S
C98 C102 1.477 . S
C98 H116 0.932 . S
C99 C100 1.384 . S
C99 C101 1.479 . S
C99 H117 0.929 . S
C100 C97 1.424 . S
C100 C99 1.384 . S
C100 H118 0.928 . S
C101 C98 1.260 . S
C101 C99 1.479 . S
C102 C97 1.245 . S
C102 C98 1.477 . S
C102 H119 0.932 . S
C103 U86 2.882 . S
C103 C97 1.428 . S
C103 O106 1.301 . S
C103 O107 1.282 . S
O104 U86 2.441 . S
O104 C90 1.249 . S
O105 U86 2.420 . S
O105 C90 1.202 . S
O106 U86 2.455 . S
O106 C103 1.301 . S
O107 U86 2.449 . S
O107 C103 1.282 . S
H108 C81 0.931 . S
H109 C83 0.929 . S
H110 C84 0.925 1_545 S
H111 C85 0.931 . S
H112 C92 0.932 . S
H113 C93 0.930 . S
H114 C94 0.932 . S
H115 C96 0.935 . S
H116 C98 0.932 . S
H117 C99 0.929 . S
H118 C100 0.928 . S
H119 C102 0.932 . S
C120 C121 1.264 . S
C120 C125 1.479 . S
C120 C130 1.465 . S
C121 C120 1.264 . S
C121 C123 1.339 . S
C121 H148 0.931 . S
C122 C123 1.395 . S
C122 C124 1.320 . S
C123 C121 1.339 . S
C123 C122 1.395 . S
C123 H149 0.929 . S
C124 C122 1.320 . S
C124 C125 1.405 . S
C124 H150 0.930 . S
C125 C120 1.479 . S
C125 C124 1.405 . S
C125 H151 0.931 . S
U126 O127 2.454 . S
U126 O128 2.458 . S
U126 C129 2.984 . S
U126 C130 2.847 . S
U126 C143 2.882 . S
U126 O144 2.441 . S
U126 O145 2.420 . S
U126 O146 2.455 . S
U126 O147 2.449 . S
O127 U126 2.454 . S
O127 C129 1.353 . S
O128 U126 2.458 . S
O128 C129 1.286 . S
C129 U126 2.984 . S
C129 O127 1.353 . S
C129 O128 1.286 . S
C129 C131 1.363 . S
C130 C120 1.465 . S
C130 U126 2.847 . S
C130 O144 1.249 . S
C130 O145 1.202 . S
C131 C129 1.363 . S
C131 C133 1.408 . S
C131 C136 1.342 . S
C132 C133 1.310 . S
C132 C135 1.461 . S
C132 H152 0.932 . S
C133 C131 1.408 . S
C133 C132 1.310 . S
C133 H153 0.930 . S
C134 C135 1.474 . S
C134 C136 1.285 . S
C134 H154 0.929 . S
C135 C132 1.461 . S
C135 C134 1.474 . S
C136 C131 1.342 . S
C136 C134 1.285 . S
C136 H155 0.930 . S
C137 C140 1.424 . S
C137 C142 1.245 . S
C137 C143 1.428 1_565 S
C138 C141 1.260 . S
C138 C142 1.477 . S
C138 H156 0.932 . S
C139 C140 1.384 . S
C139 C141 1.479 . S
C139 H157 0.929 . S
C140 C137 1.424 . S
C140 C139 1.384 . S
C140 H158 0.928 . S
C141 C138 1.260 . S
C141 C139 1.479 . S
C142 C137 1.245 . S
C142 C138 1.477 . S
C142 H159 0.932 . S
C143 U126 2.882 . S
C143 C137 1.428 1_545 S
C143 O146 1.301 . S
C143 O147 1.282 . S
O144 U126 2.441 . S
O144 C130 1.249 . S
O145 U126 2.420 . S
O145 C130 1.202 . S
O146 U126 2.455 . S
O146 C143 1.301 . S
O147 U126 2.449 . S
O147 C143 1.282 . S
H148 C121 0.931 . S
H149 C123 0.929 . S
H150 C124 0.930 . S
H151 C125 0.931 . S
H152 C132 0.932 . S
H153 C133 0.930 . S
H154 C134 0.929 . S
H155 C136 0.930 . S
H156 C138 0.932 . S
H157 C139 0.929 . S
H158 C140 0.928 . S
H159 C142 0.932 . S
C160 C161 1.264 . S
C160 C165 1.479 . S
C160 C170 1.465 . S
C161 C160 1.264 . S
C161 C163 1.339 . S
C161 H188 0.931 . S
C162 C163 1.395 . S
C162 C164 1.320 . S
C163 C161 1.339 . S
C163 C162 1.395 . S
C163 H189 0.929 . S
C164 C162 1.320 . S
C164 C165 1.405 . S
C164 H190 0.930 . S
C165 C160 1.479 . S
C165 C164 1.405 . S
C165 H191 0.931 . S
U166 O167 2.454 . S
U166 O168 2.458 . S
U166 C169 2.984 . S
U166 C170 2.847 . S
U166 C183 2.882 . S
U166 O184 2.441 . S
U166 O185 2.420 . S
U166 O186 2.455 . S
U166 O187 2.449 . S
O167 U166 2.454 . S
O167 C169 1.353 . S
O168 U166 2.458 . S
O168 C169 1.286 . S
C169 U166 2.984 . S
C169 O167 1.353 . S
C169 O168 1.286 . S
C169 C171 1.363 . S
C170 C160 1.465 . S
C170 U166 2.847 . S
C170 O184 1.249 . S
C170 O185 1.202 . S
C171 C169 1.363 . S
C171 C173 1.408 . S
C171 C176 1.342 . S
C172 C173 1.310 . S
C172 C175 1.461 . S
C172 H192 0.932 . S
C173 C171 1.408 . S
C173 C172 1.310 . S
C173 H193 0.930 . S
C174 C175 1.474 . S
C174 C176 1.285 . S
C174 H194 0.929 . S
C175 C172 1.461 . S
C175 C174 1.474 . S
C176 C171 1.342 . S
C176 C174 1.285 . S
C176 H195 0.930 . S
C177 C180 1.424 . S
C177 C182 1.245 . S
C177 C183 1.428 . S
C178 C181 1.260 . S
C178 C182 1.477 . S
C178 H196 0.932 . S
C179 C180 1.384 . S
C179 C181 1.479 . S
C179 H197 0.929 . S
C180 C177 1.424 . S
C180 C179 1.384 . S
C180 H198 0.928 . S
C181 C178 1.260 . S
C181 C179 1.479 . S
C182 C177 1.245 . S
C182 C178 1.477 . S
C182 H199 0.932 . S
C183 U166 2.882 . S
C183 C177 1.428 . S
C183 O186 1.301 . S
C183 O187 1.282 . S
O184 U166 2.441 . S
O184 C170 1.249 . S
O185 U166 2.420 . S
O185 C170 1.202 . S
O186 U166 2.455 . S
O186 C183 1.301 . S
O187 U166 2.449 . S
O187 C183 1.282 . S
H188 C161 0.931 . S
H189 C163 0.929 . S
H190 C164 0.930 . S
H191 C165 0.931 . S
H192 C172 0.932 . S
H193 C173 0.930 . S
H194 C174 0.929 . S
H195 C176 0.930 . S
H196 C178 0.932 . S
H197 C179 0.929 . S
H198 C180 0.928 . S
H199 C182 0.932 . S
C200 C201 1.264 . S
C200 C205 1.479 . S
C200 C210 1.465 . S
C201 C200 1.264 . S
C201 C203 1.339 . S
C201 H228 0.931 . S
C202 C203 1.395 . S
C202 C204 1.320 . S
C203 C201 1.339 . S
C203 C202 1.395 . S
C203 H229 0.929 . S
C204 C202 1.320 . S
C204 C205 1.405 . S
C204 H230 0.930 . S
C205 C200 1.479 . S
C205 C204 1.405 . S
C205 H231 0.931 . S
U206 O207 2.454 . S
U206 O208 2.458 . S
U206 C209 2.984 . S
U206 C210 2.847 . S
U206 C223 2.882 . S
U206 O224 2.441 . S
U206 O225 2.420 . S
U206 O226 2.455 . S
U206 O227 2.449 . S
O207 U206 2.454 . S
O207 C209 1.353 . S
O208 U206 2.458 . S
O208 C209 1.286 . S
C209 U206 2.984 . S
C209 O207 1.353 . S
C209 O208 1.286 . S
C209 C211 1.363 . S
C210 C200 1.465 . S
C210 U206 2.847 . S
C210 O224 1.249 . S
C210 O225 1.202 . S
C211 C209 1.363 . S
C211 C213 1.408 . S
C211 C216 1.342 . S
C212 C213 1.310 . S
C212 C215 1.461 . S
C212 H232 0.932 . S
C213 C211 1.408 . S
C213 C212 1.310 . S
C213 H233 0.930 . S
C214 C215 1.474 . S
C214 C216 1.285 . S
C214 H234 0.929 . S
C215 C212 1.461 . S
C215 C214 1.474 . S
C216 C211 1.342 . S
C216 C214 1.285 . S
C216 H235 0.930 . S
C217 C220 1.424 . S
C217 C222 1.245 . S
C217 C223 1.428 1_556 S
C218 C221 1.260 . S
C218 C222 1.477 . S
C218 H236 0.932 . S
C219 C220 1.384 . S
C219 C221 1.479 . S
C219 H237 0.929 . S
C220 C217 1.424 . S
C220 C219 1.384 . S
C220 H238 0.928 . S
C221 C218 1.260 . S
C221 C219 1.479 . S
C222 C217 1.245 . S
C222 C218 1.477 . S
C222 H239 0.932 . S
C223 U206 2.882 . S
C223 C217 1.428 1_554 S
C223 O226 1.301 . S
C223 O227 1.282 . S
O224 U206 2.441 . S
O224 C210 1.249 . S
O225 U206 2.420 . S
O225 C210 1.202 . S
O226 U206 2.455 . S
O226 C223 1.301 . S
O227 U206 2.449 . S
O227 C223 1.282 . S
H228 C201 0.931 . S
H229 C203 0.929 . S
H230 C204 0.930 . S
H231 C205 0.931 . S
H232 C212 0.932 . S
H233 C213 0.930 . S
H234 C214 0.929 . S
H235 C216 0.930 . S
H236 C218 0.932 . S
H237 C219 0.929 . S
H238 C220 0.928 . S
H239 C222 0.932 . S
C240 C241 1.264 . S
C240 C245 1.479 . S
C240 C250 1.465 . S
C241 C240 1.264 . S
C241 C243 1.339 . S
C241 H268 0.931 . S
C242 C243 1.395 . S
C242 C244 1.320 . S
C243 C241 1.339 . S
C243 C242 1.395 . S
C243 H269 0.929 . S
C244 C242 1.320 . S
C244 C245 1.405 . S
C244 H270 0.930 . S
C245 C240 1.479 . S
C245 C244 1.405 . S
C245 H271 0.931 . S
U246 O247 2.454 . S
U246 O248 2.458 . S
U246 C249 2.984 . S
U246 C250 2.847 . S
U246 C263 2.882 . S
U246 O264 2.441 . S
U246 O265 2.420 . S
U246 O266 2.455 . S
U246 O267 2.449 . S
O247 U246 2.454 . S
O247 C249 1.353 . S
O248 U246 2.458 . S
O248 C249 1.286 . S
C249 U246 2.984 . S
C249 O247 1.353 . S
C249 O248 1.286 . S
C249 C251 1.363 . S
C250 C240 1.465 . S
C250 U246 2.847 . S
C250 O264 1.249 . S
C250 O265 1.202 . S
C251 C249 1.363 . S
C251 C253 1.408 . S
C251 C256 1.342 . S
C252 C253 1.310 . S
C252 C255 1.461 . S
C252 H272 0.932 . S
C253 C251 1.408 . S
C253 C252 1.310 . S
C253 H273 0.930 . S
C254 C255 1.474 . S
C254 C256 1.285 . S
C254 H274 0.929 . S
C255 C252 1.461 . S
C255 C254 1.474 . S
C256 C251 1.342 . S
C256 C254 1.285 . S
C256 H275 0.930 . S
C257 C260 1.424 . S
C257 C262 1.245 . S
C257 C263 1.428 . S
C258 C261 1.260 . S
C258 C262 1.477 . S
C258 H276 0.932 . S
C259 C260 1.384 . S
C259 C261 1.479 . S
C259 H277 0.929 . S
C260 C257 1.424 . S
C260 C259 1.384 . S
C260 H278 0.928 . S
C261 C258 1.260 . S
C261 C259 1.479 . S
C262 C257 1.245 . S
C262 C258 1.477 . S
C262 H279 0.932 . S
C263 U246 2.882 . S
C263 C257 1.428 . S
C263 O266 1.301 . S
C263 O267 1.282 . S
O264 U246 2.441 . S
O264 C250 1.249 . S
O265 U246 2.420 . S
O265 C250 1.202 . S
O266 U246 2.455 . S
O266 C263 1.301 . S
O267 U246 2.449 . S
O267 C263 1.282 . S
H268 C241 0.931 . S
H269 C243 0.929 . S
H270 C244 0.930 . S
H271 C245 0.931 . S
H272 C252 0.932 . S
H273 C253 0.930 . S
H274 C254 0.929 . S
H275 C256 0.930 . S
H276 C258 0.932 . S
H277 C259 0.929 . S
H278 C260 0.928 . S
H279 C262 0.932 . S
C280 C281 1.264 . S
C280 C285 1.479 . S
C280 C290 1.465 . S
C281 C280 1.264 . S
C281 C283 1.339 . S
C281 H308 0.931 . S
C282 C283 1.395 . S
C282 C284 1.320 . S
C283 C281 1.339 . S
C283 C282 1.395 . S
C283 H309 0.929 . S
C284 C282 1.320 . S
C284 C285 1.405 . S
C284 H310 0.925 1_556 S
C285 C280 1.479 . S
C285 C284 1.405 . S
C285 H311 0.931 . S
U286 O287 2.454 . S
U286 O288 2.458 . S
U286 C289 2.984 . S
U286 C290 2.847 . S
U286 C303 2.882 . S
U286 O304 2.441 . S
U286 O305 2.420 . S
U286 O306 2.455 . S
U286 O307 2.449 . S
O287 U286 2.454 . S
O287 C289 1.353 . S
O288 U286 2.458 . S
O288 C289 1.286 . S
C289 U286 2.984 . S
C289 O287 1.353 . S
C289 O288 1.286 . S
C289 C291 1.363 . S
C290 C280 1.465 . S
C290 U286 2.847 . S
C290 O304 1.249 . S
C290 O305 1.202 . S
C291 C289 1.363 . S
C291 C293 1.408 . S
C291 C296 1.342 . S
C292 C293 1.310 . S
C292 C295 1.461 . S
C292 H312 0.932 . S
C293 C291 1.408 . S
C293 C292 1.310 . S
C293 H313 0.930 . S
C294 C295 1.473 1_554 S
C294 C296 1.284 1_554 S
C294 H314 0.932 . S
C295 C292 1.461 . S
C295 C294 1.473 1_556 S
C296 C291 1.342 . S
C296 C294 1.284 1_556 S
C296 H315 0.935 . S
C297 C300 1.424 . S
C297 C302 1.245 . S
C297 C303 1.428 . S
C298 C301 1.260 . S
C298 C302 1.477 . S
C298 H316 0.932 . S
C299 C300 1.384 . S
C299 C301 1.479 . S
C299 H317 0.929 . S
C300 C297 1.424 . S
C300 C299 1.384 . S
C300 H318 0.928 . S
C301 C298 1.260 . S
C301 C299 1.479 . S
C302 C297 1.245 . S
C302 C298 1.477 . S
C302 H319 0.932 . S
C303 U286 2.882 . S
C303 C297 1.428 . S
C303 O306 1.301 . S
C303 O307 1.282 . S
O304 U286 2.441 . S
O304 C290 1.249 . S
O305 U286 2.420 . S
O305 C290 1.202 . S
O306 U286 2.455 . S
O306 C303 1.301 . S
O307 U286 2.449 . S
O307 C303 1.282 . S
H308 C281 0.931 . S
H309 C283 0.929 . S
H310 C284 0.925 1_554 S
H311 C285 0.931 . S
H312 C292 0.932 . S
H313 C293 0.930 . S
H314 C294 0.932 . S
H315 C296 0.935 . S
H316 C298 0.932 . S
H317 C299 0.929 . S
H318 C300 0.928 . S
H319 C302 0.932 . S
C320 C321 1.264 . S
C320 C325 1.479 . S
C320 C330 1.465 . S
C321 C320 1.264 . S
C321 C323 1.339 . S
C321 H348 0.931 . S
C322 C323 1.395 . S
C322 C324 1.320 . S
C323 C321 1.339 . S
C323 C322 1.395 . S
C323 H349 0.929 . S
C324 C322 1.320 . S
C324 C325 1.405 . S
C324 H350 0.930 . S
C325 C320 1.479 . S
C325 C324 1.405 . S
C325 H351 0.931 . S
U326 O327 2.454 . S
U326 O328 2.458 . S
U326 C329 2.984 . S
U326 C330 2.847 . S
U326 C343 2.882 . S
U326 O344 2.441 . S
U326 O345 2.420 . S
U326 O346 2.455 . S
U326 O347 2.449 . S
O327 U326 2.454 . S
O327 C329 1.353 . S
O328 U326 2.458 . S
O328 C329 1.286 . S
C329 U326 2.984 . S
C329 O327 1.353 . S
C329 O328 1.286 . S
C329 C331 1.363 . S
C330 C320 1.465 . S
C330 U326 2.847 . S
C330 O344 1.249 . S
C330 O345 1.202 . S
C331 C329 1.363 . S
C331 C333 1.408 . S
C331 C336 1.342 . S
C332 C333 1.310 . S
C332 C335 1.461 . S
C332 H352 0.932 . S
C333 C331 1.408 . S
C333 C332 1.310 . S
C333 H353 0.930 . S
C334 C335 1.474 . S
C334 C336 1.285 . S
C334 H354 0.929 . S
C335 C332 1.461 . S
C335 C334 1.474 . S
C336 C331 1.342 . S
C336 C334 1.285 . S
C336 H355 0.930 . S
C337 C340 1.424 . S
C337 C342 1.245 . S
C337 C343 1.428 . S
C338 C341 1.260 . S
C338 C342 1.477 . S
C338 H356 0.932 . S
C339 C340 1.384 . S
C339 C341 1.479 . S
C339 H357 0.929 . S
C340 C337 1.424 . S
C340 C339 1.384 . S
C340 H358 0.928 . S
C341 C338 1.260 . S
C341 C339 1.479 . S
C342 C337 1.245 . S
C342 C338 1.477 . S
C342 H359 0.932 . S
C343 U326 2.882 . S
C343 C337 1.428 . S
C343 O346 1.301 . S
C343 O347 1.282 . S
O344 U326 2.441 . S
O344 C330 1.249 . S
O345 U326 2.420 . S
O345 C330 1.202 . S
O346 U326 2.455 . S
O346 C343 1.301 . S
O347 U326 2.449 . S
O347 C343 1.282 . S
H348 C321 0.931 . S
H349 C323 0.929 . S
H350 C324 0.930 . S
H351 C325 0.931 . S
H352 C332 0.932 . S
H353 C333 0.930 . S
H354 C334 0.929 . S
H355 C336 0.930 . S
H356 C338 0.932 . S
H357 C339 0.929 . S
H358 C340 0.928 . S
H359 C342 0.932 . S
C360 C361 1.264 . S
C360 C365 1.479 . S
C360 C370 1.465 . S
C361 C360 1.264 . S
C361 C363 1.339 . S
C361 H388 0.931 . S
C362 C363 1.395 . S
C362 C364 1.320 . S
C363 C361 1.339 . S
C363 C362 1.395 . S
C363 H389 0.929 . S
C364 C362 1.320 . S
C364 C365 1.405 . S
C364 H390 0.930 . S
C365 C360 1.479 . S
C365 C364 1.405 . S
C365 H391 0.931 . S
U366 O367 2.454 . S
U366 O368 2.458 . S
U366 C369 2.984 . S
U366 C370 2.847 . S
U366 C383 2.882 . S
U366 O384 2.441 . S
U366 O385 2.420 . S
U366 O386 2.455 . S
U366 O387 2.449 . S
O367 U366 2.454 . S
O367 C369 1.353 . S
O368 U366 2.458 . S
O368 C369 1.286 . S
C369 U366 2.984 . S
C369 O367 1.353 . S
C369 O368 1.286 . S
C369 C371 1.363 . S
C370 C360 1.465 . S
C370 U366 2.847 . S
C370 O384 1.249 . S
C370 O385 1.202 . S
C371 C369 1.363 . S
C371 C373 1.408 . S
C371 C376 1.342 . S
C372 C373 1.310 . S
C372 C375 1.461 . S
C372 H392 0.932 . S
C373 C371 1.408 . S
C373 C372 1.310 . S
C373 H393 0.930 . S
C374 C375 1.474 . S
C374 C376 1.285 . S
C374 H394 0.929 . S
C375 C372 1.461 . S
C375 C374 1.474 . S
C376 C371 1.342 . S
C376 C374 1.285 . S
C376 H395 0.930 . S
C377 C380 1.424 . S
C377 C382 1.245 . S
C377 C383 1.428 1_655 S
C378 C381 1.260 . S
C378 C382 1.477 . S
C378 H396 0.932 . S
C379 C380 1.384 . S
C379 C381 1.479 . S
C379 H397 0.929 . S
C380 C377 1.424 . S
C380 C379 1.384 . S
C380 H398 0.928 . S
C381 C378 1.260 . S
C381 C379 1.479 . S
C382 C377 1.245 . S
C382 C378 1.477 . S
C382 H399 0.932 . S
C383 U366 2.882 . S
C383 C377 1.428 1_455 S
C383 O386 1.301 . S
C383 O387 1.282 . S
O384 U366 2.441 . S
O384 C370 1.249 . S
O385 U366 2.420 . S
O385 C370 1.202 . S
O386 U366 2.455 . S
O386 C383 1.301 . S
O387 U366 2.449 . S
O387 C383 1.282 . S
H388 C361 0.931 . S
H389 C363 0.929 . S
H390 C364 0.930 . S
H391 C365 0.931 . S
H392 C372 0.932 . S
H393 C373 0.930 . S
H394 C374 0.929 . S
H395 C376 0.930 . S
H396 C378 0.932 . S
H397 C379 0.929 . S
H398 C380 0.928 . S
H399 C382 0.932 . S
C400 C401 1.264 . S
C400 C405 1.479 . S
C400 C410 1.465 . S
C401 C400 1.264 . S
C401 C403 1.339 . S
C401 H428 0.931 . S
C402 C403 1.395 . S
C402 C404 1.320 . S
C403 C401 1.339 . S
C403 C402 1.395 . S
C403 H429 0.929 . S
C404 C402 1.320 . S
C404 C405 1.405 . S
C404 H430 0.930 . S
C405 C400 1.479 . S
C405 C404 1.405 . S
C405 H431 0.931 . S
U406 O407 2.454 . S
U406 O408 2.458 . S
U406 C409 2.984 . S
U406 C410 2.847 . S
U406 C423 2.882 . S
U406 O424 2.441 . S
U406 O425 2.420 . S
U406 O426 2.455 . S
U406 O427 2.449 . S
O407 U406 2.454 . S
O407 C409 1.353 . S
O408 U406 2.458 . S
O408 C409 1.286 . S
C409 U406 2.984 . S
C409 O407 1.353 . S
C409 O408 1.286 . S
C409 C411 1.363 . S
C410 C400 1.465 . S
C410 U406 2.847 . S
C410 O424 1.249 . S
C410 O425 1.202 . S
C411 C409 1.363 . S
C411 C413 1.408 . S
C411 C416 1.342 . S
C412 C413 1.310 . S
C412 C415 1.461 . S
C412 H432 0.932 . S
C413 C411 1.408 . S
C413 C412 1.310 . S
C413 H433 0.930 . S
C414 C415 1.474 . S
C414 C416 1.285 . S
C414 H434 0.929 . S
C415 C412 1.461 . S
C415 C414 1.474 . S
C416 C411 1.342 . S
C416 C414 1.285 . S
C416 H435 0.930 . S
C417 C420 1.424 . S
C417 C422 1.245 . S
C417 C423 1.428 . S
C418 C421 1.260 . S
C418 C422 1.477 . S
C418 H436 0.932 . S
C419 C420 1.384 . S
C419 C421 1.479 . S
C419 H437 0.929 . S
C420 C417 1.424 . S
C420 C419 1.384 . S
C420 H438 0.928 . S
C421 C418 1.260 . S
C421 C419 1.479 . S
C422 C417 1.245 . S
C422 C418 1.477 . S
C422 H439 0.932 . S
C423 U406 2.882 . S
C423 C417 1.428 . S
C423 O426 1.301 . S
C423 O427 1.282 . S
O424 U406 2.441 . S
O424 C410 1.249 . S
O425 U406 2.420 . S
O425 C410 1.202 . S
O426 U406 2.455 . S
O426 C423 1.301 . S
O427 U406 2.449 . S
O427 C423 1.282 . S
H428 C401 0.931 . S
H429 C403 0.929 . S
H430 C404 0.930 . S
H431 C405 0.931 . S
H432 C412 0.932 . S
H433 C413 0.930 . S
H434 C414 0.929 . S
H435 C416 0.930 . S
H436 C418 0.932 . S
H437 C419 0.929 . S
H438 C420 0.928 . S
H439 C422 0.932 . S
C440 C441 1.264 . S
C440 C445 1.479 . S
C440 C450 1.465 . S
C441 C440 1.264 . S
C441 C443 1.339 . S
C441 H468 0.931 . S
C442 C443 1.395 . S
C442 C444 1.320 . S
C443 C441 1.339 . S
C443 C442 1.395 . S
C443 H469 0.929 . S
C444 C442 1.320 . S
C444 C445 1.405 . S
C444 H470 0.925 1_655 S
C445 C440 1.479 . S
C445 C444 1.405 . S
C445 H471 0.931 . S
U446 O447 2.454 . S
U446 O448 2.458 . S
U446 C449 2.984 . S
U446 C450 2.847 . S
U446 C463 2.882 . S
U446 O464 2.441 . S
U446 O465 2.420 . S
U446 O466 2.455 . S
U446 O467 2.449 . S
O447 U446 2.454 . S
O447 C449 1.353 . S
O448 U446 2.458 . S
O448 C449 1.286 . S
C449 U446 2.984 . S
C449 O447 1.353 . S
C449 O448 1.286 . S
C449 C451 1.363 . S
C450 C440 1.465 . S
C450 U446 2.847 . S
C450 O464 1.249 . S
C450 O465 1.202 . S
C451 C449 1.363 . S
C451 C453 1.408 . S
C451 C456 1.342 . S
C452 C453 1.310 . S
C452 C455 1.461 . S
C452 H472 0.932 . S
C453 C451 1.408 . S
C453 C452 1.310 . S
C453 H473 0.930 . S
C454 C455 1.473 1_455 S
C454 C456 1.284 1_455 S
C454 H474 0.932 . S
C455 C452 1.461 . S
C455 C454 1.473 1_655 S
C456 C451 1.342 . S
C456 C454 1.284 1_655 S
C456 H475 0.935 . S
C457 C460 1.424 . S
C457 C462 1.245 . S
C457 C463 1.428 . S
C458 C461 1.260 . S
C458 C462 1.477 . S
C458 H476 0.932 . S
C459 C460 1.384 . S
C459 C461 1.479 . S
C459 H477 0.929 . S
C460 C457 1.424 . S
C460 C459 1.384 . S
C460 H478 0.928 . S
C461 C458 1.260 . S
C461 C459 1.479 . S
C462 C457 1.245 . S
C462 C458 1.477 . S
C462 H479 0.932 . S
C463 U446 2.882 . S
C463 C457 1.428 . S
C463 O466 1.301 . S
C463 O467 1.282 . S
O464 U446 2.441 . S
O464 C450 1.249 . S
O465 U446 2.420 . S
O465 C450 1.202 . S
O466 U446 2.455 . S
O466 C463 1.301 . S
O467 U446 2.449 . S
O467 C463 1.282 . S
H468 C441 0.931 . S
H469 C443 0.929 . S
H470 C444 0.925 1_455 S
H471 C445 0.931 . S
H472 C452 0.932 . S
H473 C453 0.930 . S
H474 C454 0.932 . S
H475 C456 0.935 . S
H476 C458 0.932 . S
H477 C459 0.929 . S
H478 C460 0.928 . S
H479 C462 0.932 . S
C480 C481 1.264 . S
C480 C485 1.479 . S
C480 C490 1.465 . S
C481 C480 1.264 . S
C481 C483 1.339 . S
C481 H508 0.931 . S
C482 C483 1.395 . S
C482 C484 1.320 . S
C483 C481 1.339 . S
C483 C482 1.395 . S
C483 H509 0.929 . S
C484 C482 1.320 . S
C484 C485 1.405 . S
C484 H510 0.930 . S
C485 C480 1.479 . S
C485 C484 1.405 . S
C485 H511 0.931 . S
U486 O487 2.454 . S
U486 O488 2.458 . S
U486 C489 2.984 . S
U486 C490 2.847 . S
U486 C503 2.882 . S
U486 O504 2.441 . S
U486 O505 2.420 . S
U486 O506 2.455 . S
U486 O507 2.449 . S
O487 U486 2.454 . S
O487 C489 1.353 . S
O488 U486 2.458 . S
O488 C489 1.286 . S
C489 U486 2.984 . S
C489 O487 1.353 . S
C489 O488 1.286 . S
C489 C491 1.363 . S
C490 C480 1.465 . S
C490 U486 2.847 . S
C490 O504 1.249 . S
C490 O505 1.202 . S
C491 C489 1.363 . S
C491 C493 1.408 . S
C491 C496 1.342 . S
C492 C493 1.310 . S
C492 C495 1.461 . S
C492 H512 0.932 . S
C493 C491 1.408 . S
C493 C492 1.310 . S
C493 H513 0.930 . S
C494 C495 1.474 . S
C494 C496 1.285 . S
C494 H514 0.929 . S
C495 C492 1.461 . S
C495 C494 1.474 . S
C496 C491 1.342 . S
C496 C494 1.285 . S
C496 H515 0.930 . S
C497 C500 1.424 . S
C497 C502 1.245 . S
C497 C503 1.428 . S
C498 C501 1.260 . S
C498 C502 1.477 . S
C498 H516 0.932 . S
C499 C500 1.384 . S
C499 C501 1.479 . S
C499 H517 0.929 . S
C500 C497 1.424 . S
C500 C499 1.384 . S
C500 H518 0.928 . S
C501 C498 1.260 . S
C501 C499 1.479 . S
C502 C497 1.245 . S
C502 C498 1.477 . S
C502 H519 0.932 . S
C503 U486 2.882 . S
C503 C497 1.428 . S
C503 O506 1.301 . S
C503 O507 1.282 . S
O504 U486 2.441 . S
O504 C490 1.249 . S
O505 U486 2.420 . S
O505 C490 1.202 . S
O506 U486 2.455 . S
O506 C503 1.301 . S
O507 U486 2.449 . S
O507 C503 1.282 . S
H508 C481 0.931 . S
H509 C483 0.929 . S
H510 C484 0.930 . S
H511 C485 0.931 . S
H512 C492 0.932 . S
H513 C493 0.930 . S
H514 C494 0.929 . S
H515 C496 0.930 . S
H516 C498 0.932 . S
H517 C499 0.929 . S
H518 C500 0.928 . S
H519 C502 0.932 . S
C520 C521 1.264 . S
C520 C525 1.479 . S
C520 C530 1.465 . S
C521 C520 1.264 . S
C521 C523 1.339 . S
C521 H548 0.931 . S
C522 C523 1.395 . S
C522 C524 1.320 . S
C523 C521 1.339 . S
C523 C522 1.395 . S
C523 H549 0.929 . S
C524 C522 1.320 . S
C524 C525 1.405 . S
C524 H550 0.930 . S
C525 C520 1.479 . S
C525 C524 1.405 . S
C525 H551 0.931 . S
U526 O527 2.454 . S
U526 O528 2.458 . S
U526 C529 2.984 . S
U526 C530 2.847 . S
U526 C543 2.882 . S
U526 O544 2.441 . S
U526 O545 2.420 . S
U526 O546 2.455 . S
U526 O547 2.449 . S
O527 U526 2.454 . S
O527 C529 1.353 . S
O528 U526 2.458 . S
O528 C529 1.286 . S
C529 U526 2.984 . S
C529 O527 1.353 . S
C529 O528 1.286 . S
C529 C531 1.363 . S
C530 C520 1.465 . S
C530 U526 2.847 . S
C530 O544 1.249 . S
C530 O545 1.202 . S
C531 C529 1.363 . S
C531 C533 1.408 . S
C531 C536 1.342 . S
C532 C533 1.310 . S
C532 C535 1.461 . S
C532 H552 0.932 . S
C533 C531 1.408 . S
C533 C532 1.310 . S
C533 H553 0.930 . S
C534 C535 1.474 . S
C534 C536 1.285 . S
C534 H554 0.929 . S
C535 C532 1.461 . S
C535 C534 1.474 . S
C536 C531 1.342 . S
C536 C534 1.285 . S
C536 H555 0.930 . S
C537 C540 1.424 . S
C537 C542 1.245 . S
C537 C543 1.428 . S
C538 C541 1.260 . S
C538 C542 1.477 . S
C538 H556 0.932 . S
C539 C540 1.384 . S
C539 C541 1.479 . S
C539 H557 0.929 . S
C540 C537 1.424 . S
C540 C539 1.384 . S
C540 H558 0.928 . S
C541 C538 1.260 . S
C541 C539 1.479 . S
C542 C537 1.245 . S
C542 C538 1.477 . S
C542 H559 0.932 . S
C543 U526 2.882 . S
C543 C537 1.428 . S
C543 O546 1.301 . S
C543 O547 1.282 . S
O544 U526 2.441 . S
O544 C530 1.249 . S
O545 U526 2.420 . S
O545 C530 1.202 . S
O546 U526 2.455 . S
O546 C543 1.301 . S
O547 U526 2.449 . S
O547 C543 1.282 . S
H548 C521 0.931 . S
H549 C523 0.929 . S
H550 C524 0.930 . S
H551 C525 0.931 . S
H552 C532 0.932 . S
H553 C533 0.930 . S
H554 C534 0.929 . S
H555 C536 0.930 . S
H556 C538 0.932 . S
H557 C539 0.929 . S
H558 C540 0.928 . S
H559 C542 0.932 . S
C560 C561 1.264 . S
C560 C565 1.479 . S
C560 C570 1.465 . S
C561 C560 1.264 . S
C561 C563 1.339 . S
C561 H588 0.931 . S
C562 C563 1.395 . S
C562 C564 1.320 . S
C563 C561 1.339 . S
C563 C562 1.395 . S
C563 H589 0.929 . S
C564 C562 1.320 . S
C564 C565 1.405 . S
C564 H590 0.920 1_565 S
C565 C560 1.479 . S
C565 C564 1.405 . S
C565 H591 0.931 . S
U566 O567 2.454 . S
U566 O568 2.458 . S
U566 C569 2.984 . S
U566 C570 2.847 . S
U566 C583 2.882 . S
U566 O584 2.441 . S
U566 O585 2.420 . S
U566 O586 2.455 . S
U566 O587 2.449 . S
O567 U566 2.454 . S
O567 C569 1.353 . S
O568 U566 2.458 . S
O568 C569 1.286 . S
C569 U566 2.984 . S
C569 O567 1.353 . S
C569 O568 1.286 . S
C569 C571 1.363 . S
C570 C560 1.465 . S
C570 U566 2.847 . S
C570 O584 1.249 . S
C570 O585 1.202 . S
C571 C569 1.363 . S
C571 C573 1.408 . S
C571 C576 1.342 . S
C572 C573 1.310 . S
C572 C575 1.460 . S
C572 H592 0.932 . S
C573 C571 1.408 . S
C573 C572 1.310 . S
C573 H593 0.930 . S
C574 C575 1.475 1_545 S
C574 C576 1.286 1_545 S
C574 H594 0.930 . S
C575 C572 1.460 . S
C575 C574 1.475 1_565 S
C576 C571 1.342 . S
C576 C574 1.286 1_565 S
C576 H595 0.929 . S
C577 C580 1.424 . S
C577 C582 1.245 . S
C577 C583 1.428 . S
C578 C581 1.260 . S
C578 C582 1.477 . S
C578 H596 0.932 . S
C579 C580 1.384 . S
C579 C581 1.479 . S
C579 H597 0.929 . S
C580 C577 1.424 . S
C580 C579 1.384 . S
C580 H598 0.928 . S
C581 C578 1.260 . S
C581 C579 1.479 . S
C582 C577 1.245 . S
C582 C578 1.477 . S
C582 H599 0.932 . S
C583 U566 2.882 . S
C583 C577 1.428 . S
C583 O586 1.301 . S
C583 O587 1.282 . S
O584 U566 2.441 . S
O584 C570 1.249 . S
O585 U566 2.420 . S
O585 C570 1.202 . S
O586 U566 2.455 . S
O586 C583 1.301 . S
O587 U566 2.449 . S
O587 C583 1.282 . S
H588 C561 0.931 . S
H589 C563 0.929 . S
H590 C564 0.920 1_545 S
H591 C565 0.931 . S
H592 C572 0.932 . S
H593 C573 0.930 . S
H594 C574 0.930 . S
H595 C576 0.929 . S
H596 C578 0.932 . S
H597 C579 0.929 . S
H598 C580 0.928 . S
H599 C582 0.932 . S
C600 C601 1.267 . S
C600 C605 1.465 1_545 S
C600 C610 1.482 . S
C601 C600 1.267 . S
C601 C603 1.339 1_545 S
C601 H628 0.931 . S
C602 C603 1.395 . S
C602 C604 1.320 . S
C603 C601 1.339 1_565 S
C603 C602 1.395 . S
C603 H629 0.929 1_565 S
C604 C602 1.320 . S
C604 C605 1.405 . S
C604 H630 0.930 . S
C605 C600 1.465 1_565 S
C605 C604 1.405 . S
C605 H631 0.931 . S
U606 O607 2.454 1_545 S
U606 O608 2.458 . S
U606 C609 2.987 . S
U606 C610 2.847 . S
U606 C623 2.882 . S
U606 O624 2.441 . S
U606 O625 2.420 . S
U606 O626 2.455 . S
U606 O627 2.449 . S
O607 U606 2.454 1_565 S
O607 C609 1.350 1_565 S
O608 U606 2.458 . S
O608 C609 1.290 . S
C609 U606 2.987 . S
C609 O607 1.350 1_545 S
C609 O608 1.290 . S
C609 C611 1.361 1_545 S
C610 C600 1.482 . S
C610 U606 2.847 . S
C610 O624 1.249 . S
C610 O625 1.202 . S
C611 C609 1.361 1_565 S
C611 C613 1.408 . S
C611 C616 1.342 . S
C612 C613 1.310 . S
C612 C615 1.461 . S
C612 H632 0.932 . S
C613 C611 1.408 . S
C613 C612 1.310 . S
C613 H633 0.930 . S
C614 C615 1.474 . S
C614 C616 1.285 . S
C614 H634 0.929 . S
C615 C612 1.461 . S
C615 C614 1.474 . S
C616 C611 1.342 . S
C616 C614 1.285 . S
C616 H635 0.932 . S
C617 C620 1.424 . S
C617 C622 1.245 . S
C617 C623 1.428 . S
C618 C621 1.260 . S
C618 C622 1.477 . S
C618 H636 0.932 . S
C619 C620 1.384 . S
C619 C621 1.479 . S
C619 H637 0.929 . S
C620 C617 1.424 . S
C620 C619 1.384 . S
C620 H638 0.928 . S
C621 C618 1.260 . S
C621 C619 1.479 . S
C622 C617 1.245 . S
C622 C618 1.477 . S
C622 H639 0.932 . S
C623 U606 2.882 . S
C623 C617 1.428 . S
C623 O626 1.301 . S
C623 O627 1.282 . S
O624 U606 2.441 . S
O624 C610 1.249 . S
O625 U606 2.420 . S
O625 C610 1.202 . S
O626 U606 2.455 . S
O626 C623 1.301 . S
O627 U606 2.449 . S
O627 C623 1.282 . S
H628 C601 0.931 . S
H629 C603 0.929 1_545 S
H630 C604 0.930 . S
H631 C605 0.931 . S
H632 C612 0.932 . S
H633 C613 0.930 . S
H634 C614 0.929 . S
H635 C616 0.932 . S
H636 C618 0.932 . S
H637 C619 0.929 . S
H638 C620 0.928 . S
H639 C622 0.932 . S
C640 C641 1.264 . S
C640 C645 1.479 . S
C640 C650 1.465 . S
C641 C640 1.264 . S
C641 C643 1.339 . S
C641 H668 0.931 . S
C642 C643 1.395 . S
C642 C644 1.320 . S
C643 C641 1.339 . S
C643 C642 1.395 . S
C643 H669 0.929 . S
C644 C642 1.320 . S
C644 C645 1.405 . S
C644 H670 0.930 . S
C645 C640 1.479 . S
C645 C644 1.405 . S
C645 H671 0.931 . S
U646 O647 2.454 . S
U646 O648 2.458 . S
U646 C649 2.984 . S
U646 C650 2.847 . S
U646 C663 2.882 . S
U646 O664 2.441 . S
U646 O665 2.420 . S
U646 O666 2.455 . S
U646 O667 2.449 . S
O647 U646 2.454 . S
O647 C649 1.353 . S
O648 U646 2.458 . S
O648 C649 1.286 . S
C649 U646 2.984 . S
C649 O647 1.353 . S
C649 O648 1.286 . S
C649 C651 1.363 . S
C650 C640 1.465 . S
C650 U646 2.847 . S
C650 O664 1.249 . S
C650 O665 1.202 . S
C651 C649 1.363 . S
C651 C653 1.408 . S
C651 C656 1.342 . S
C652 C653 1.310 . S
C652 C655 1.461 . S
C652 H672 0.932 . S
C653 C651 1.408 . S
C653 C652 1.310 . S
C653 H673 0.930 . S
C654 C655 1.474 . S
C654 C656 1.285 . S
C654 H674 0.929 . S
C655 C652 1.461 . S
C655 C654 1.474 . S
C656 C651 1.342 . S
C656 C654 1.285 . S
C656 H675 0.930 . S
C657 C660 1.424 . S
C657 C662 1.245 . S
C657 C663 1.428 . S
C658 C661 1.260 . S
C658 C662 1.477 . S
C658 H676 0.932 . S
C659 C660 1.384 . S
C659 C661 1.479 . S
C659 H677 0.929 . S
C660 C657 1.424 . S
C660 C659 1.384 . S
C660 H678 0.928 . S
C661 C658 1.260 . S
C661 C659 1.479 . S
C662 C657 1.245 . S
C662 C658 1.477 . S
C662 H679 0.932 . S
C663 U646 2.882 . S
C663 C657 1.428 . S
C663 O666 1.301 . S
C663 O667 1.282 . S
O664 U646 2.441 . S
O664 C650 1.249 . S
O665 U646 2.420 . S
O665 C650 1.202 . S
O666 U646 2.455 . S
O666 C663 1.301 . S
O667 U646 2.449 . S
O667 C663 1.282 . S
H668 C641 0.931 . S
H669 C643 0.929 . S
H670 C644 0.930 . S
H671 C645 0.931 . S
H672 C652 0.932 . S
H673 C653 0.930 . S
H674 C654 0.929 . S
H675 C656 0.930 . S
H676 C658 0.932 . S
H677 C659 0.929 . S
H678 C660 0.928 . S
H679 C662 0.932 . S
C680 C681 1.267 . S
C680 C685 1.465 1_554 S
C680 C690 1.482 . S
C681 C680 1.267 . S
C681 C683 1.339 1_554 S
C681 H708 0.931 . S
C682 C683 1.395 . S
C682 C684 1.320 . S
C683 C681 1.339 1_556 S
C683 C682 1.395 . S
C683 H709 0.929 1_556 S
C684 C682 1.320 . S
C684 C685 1.405 . S
C684 H710 0.930 . S
C685 C680 1.465 1_556 S
C685 C684 1.405 . S
C685 H711 0.931 . S
U686 O687 2.454 1_554 S
U686 O688 2.458 . S
U686 C689 2.987 . S
U686 C690 2.847 . S
U686 C703 2.882 . S
U686 O704 2.441 . S
U686 O705 2.420 . S
U686 O706 2.455 . S
U686 O707 2.449 . S
O687 U686 2.454 1_556 S
O687 C689 1.350 1_556 S
O688 U686 2.458 . S
O688 C689 1.290 . S
C689 U686 2.987 . S
C689 O687 1.350 1_554 S
C689 O688 1.290 . S
C689 C691 1.361 1_554 S
C690 C680 1.482 . S
C690 U686 2.847 . S
C690 O704 1.249 . S
C690 O705 1.202 . S
C691 C689 1.361 1_556 S
C691 C693 1.408 . S
C691 C696 1.342 . S
C692 C693 1.310 . S
C692 C695 1.461 . S
C692 H712 0.932 . S
C693 C691 1.408 . S
C693 C692 1.310 . S
C693 H713 0.930 . S
C694 C695 1.474 . S
C694 C696 1.285 . S
C694 H714 0.929 . S
C695 C692 1.461 . S
C695 C694 1.474 . S
C696 C691 1.342 . S
C696 C694 1.285 . S
C696 H715 0.932 . S
C697 C700 1.424 . S
C697 C702 1.245 . S
C697 C703 1.428 . S
C698 C701 1.260 . S
C698 C702 1.477 . S
C698 H716 0.932 . S
C699 C700 1.384 . S
C699 C701 1.479 . S
C699 H717 0.929 . S
C700 C697 1.424 . S
C700 C699 1.384 . S
C700 H718 0.928 . S
C701 C698 1.260 . S
C701 C699 1.479 . S
C702 C697 1.245 . S
C702 C698 1.477 . S
C702 H719 0.932 . S
C703 U686 2.882 . S
C703 C697 1.428 . S
C703 O706 1.301 . S
C703 O707 1.282 . S
O704 U686 2.441 . S
O704 C690 1.249 . S
O705 U686 2.420 . S
O705 C690 1.202 . S
O706 U686 2.455 . S
O706 C703 1.301 . S
O707 U686 2.449 . S
O707 C703 1.282 . S
H708 C681 0.931 . S
H709 C683 0.929 1_554 S
H710 C684 0.930 . S
H711 C685 0.931 . S
H712 C692 0.932 . S
H713 C693 0.930 . S
H714 C694 0.929 . S
H715 C696 0.932 . S
H716 C698 0.932 . S
H717 C699 0.929 . S
H718 C700 0.928 . S
H719 C702 0.932 . S
C720 C721 1.264 . S
C720 C725 1.479 . S
C720 C730 1.465 . S
C721 C720 1.264 . S
C721 C723 1.339 . S
C721 H748 0.931 . S
C722 C723 1.395 . S
C722 C724 1.320 . S
C723 C721 1.339 . S
C723 C722 1.395 . S
C723 H749 0.929 . S
C724 C722 1.320 . S
C724 C725 1.405 . S
C724 H750 0.930 . S
C725 C720 1.479 . S
C725 C724 1.405 . S
C725 H751 0.931 . S
U726 O727 2.454 . S
U726 O728 2.458 . S
U726 C729 2.984 . S
U726 C730 2.847 . S
U726 C743 2.882 . S
U726 O744 2.441 . S
U726 O745 2.420 . S
U726 O746 2.455 . S
U726 O747 2.449 . S
O727 U726 2.454 . S
O727 C729 1.353 . S
O728 U726 2.458 . S
O728 C729 1.286 . S
C729 U726 2.984 . S
C729 O727 1.353 . S
C729 O728 1.286 . S
C729 C731 1.363 . S
C730 C720 1.465 . S
C730 U726 2.847 . S
C730 O744 1.249 . S
C730 O745 1.202 . S
C731 C729 1.363 . S
C731 C733 1.408 . S
C731 C736 1.342 . S
C732 C733 1.310 . S
C732 C735 1.461 . S
C732 H752 0.932 . S
C733 C731 1.408 . S
C733 C732 1.310 . S
C733 H753 0.930 . S
C734 C735 1.474 . S
C734 C736 1.285 . S
C734 H754 0.929 . S
C735 C732 1.461 . S
C735 C734 1.474 . S
C736 C731 1.342 . S
C736 C734 1.285 . S
C736 H755 0.930 . S
C737 C740 1.424 . S
C737 C742 1.245 . S
C737 C743 1.428 . S
C738 C741 1.260 . S
C738 C742 1.477 . S
C738 H756 0.932 . S
C739 C740 1.384 . S
C739 C741 1.479 . S
C739 H757 0.929 . S
C740 C737 1.424 . S
C740 C739 1.384 . S
C740 H758 0.928 . S
C741 C738 1.260 . S
C741 C739 1.479 . S
C742 C737 1.245 . S
C742 C738 1.477 . S
C742 H759 0.932 . S
C743 U726 2.882 . S
C743 C737 1.428 . S
C743 O746 1.301 . S
C743 O747 1.282 . S
O744 U726 2.441 . S
O744 C730 1.249 . S
O745 U726 2.420 . S
O745 C730 1.202 . S
O746 U726 2.455 . S
O746 C743 1.301 . S
O747 U726 2.449 . S
O747 C743 1.282 . S
H748 C721 0.931 . S
H749 C723 0.929 . S
H750 C724 0.930 . S
H751 C725 0.931 . S
H752 C732 0.932 . S
H753 C733 0.930 . S
H754 C734 0.929 . S
H755 C736 0.930 . S
H756 C738 0.932 . S
H757 C739 0.929 . S
H758 C740 0.928 . S
H759 C742 0.932 . S
C760 C761 1.264 . S
C760 C765 1.479 . S
C760 C770 1.465 . S
C761 C760 1.264 . S
C761 C763 1.339 . S
C761 H788 0.931 . S
C762 C763 1.395 . S
C762 C764 1.320 . S
C763 C761 1.339 . S
C763 C762 1.395 . S
C763 H789 0.929 . S
C764 C762 1.320 . S
C764 C765 1.405 . S
C764 H790 0.920 1_556 S
C765 C760 1.479 . S
C765 C764 1.405 . S
C765 H791 0.931 . S
U766 O767 2.454 . S
U766 O768 2.458 . S
U766 C769 2.984 . S
U766 C770 2.847 . S
U766 C783 2.882 . S
U766 O784 2.441 . S
U766 O785 2.420 . S
U766 O786 2.455 . S
U766 O787 2.449 . S
O767 U766 2.454 . S
O767 C769 1.353 . S
O768 U766 2.458 . S
O768 C769 1.286 . S
C769 U766 2.984 . S
C769 O767 1.353 . S
C769 O768 1.286 . S
C769 C771 1.363 . S
C770 C760 1.465 . S
C770 U766 2.847 . S
C770 O784 1.249 . S
C770 O785 1.202 . S
C771 C769 1.363 . S
C771 C773 1.408 . S
C771 C776 1.342 . S
C772 C773 1.310 . S
C772 C775 1.460 . S
C772 H792 0.932 . S
C773 C771 1.408 . S
C773 C772 1.310 . S
C773 H793 0.930 . S
C774 C775 1.475 1_554 S
C774 C776 1.286 1_554 S
C774 H794 0.930 . S
C775 C772 1.460 . S
C775 C774 1.475 1_556 S
C776 C771 1.342 . S
C776 C774 1.286 1_556 S
C776 H795 0.929 . S
C777 C780 1.424 . S
C777 C782 1.245 . S
C777 C783 1.428 . S
C778 C781 1.260 . S
C778 C782 1.477 . S
C778 H796 0.932 . S
C779 C780 1.384 . S
C779 C781 1.479 . S
C779 H797 0.929 . S
C780 C777 1.424 . S
C780 C779 1.384 . S
C780 H798 0.928 . S
C781 C778 1.260 . S
C781 C779 1.479 . S
C782 C777 1.245 . S
C782 C778 1.477 . S
C782 H799 0.932 . S
C783 U766 2.882 . S
C783 C777 1.428 . S
C783 O786 1.301 . S
C783 O787 1.282 . S
O784 U766 2.441 . S
O784 C770 1.249 . S
O785 U766 2.420 . S
O785 C770 1.202 . S
O786 U766 2.455 . S
O786 C783 1.301 . S
O787 U766 2.449 . S
O787 C783 1.282 . S
H788 C761 0.931 . S
H789 C763 0.929 . S
H790 C764 0.920 1_554 S
H791 C765 0.931 . S
H792 C772 0.932 . S
H793 C773 0.930 . S
H794 C774 0.930 . S
H795 C776 0.929 . S
H796 C778 0.932 . S
H797 C779 0.929 . S
H798 C780 0.928 . S
H799 C782 0.932 . S
C800 C801 1.264 . S
C800 C805 1.479 . S
C800 C810 1.465 . S
C801 C800 1.264 . S
C801 C803 1.339 . S
C801 H828 0.931 . S
C802 C803 1.395 . S
C802 C804 1.320 . S
C803 C801 1.339 . S
C803 C802 1.395 . S
C803 H829 0.929 . S
C804 C802 1.320 . S
C804 C805 1.405 . S
C804 H830 0.930 . S
C805 C800 1.479 . S
C805 C804 1.405 . S
C805 H831 0.931 . S
U806 O807 2.454 . S
U806 O808 2.458 . S
U806 C809 2.984 . S
U806 C810 2.847 . S
U806 C823 2.882 . S
U806 O824 2.441 . S
U806 O825 2.420 . S
U806 O826 2.455 . S
U806 O827 2.449 . S
O807 U806 2.454 . S
O807 C809 1.353 . S
O808 U806 2.458 . S
O808 C809 1.286 . S
C809 U806 2.984 . S
C809 O807 1.353 . S
C809 O808 1.286 . S
C809 C811 1.363 . S
C810 C800 1.465 . S
C810 U806 2.847 . S
C810 O824 1.249 . S
C810 O825 1.202 . S
C811 C809 1.363 . S
C811 C813 1.408 . S
C811 C816 1.342 . S
C812 C813 1.310 . S
C812 C815 1.461 . S
C812 H832 0.932 . S
C813 C811 1.408 . S
C813 C812 1.310 . S
C813 H833 0.930 . S
C814 C815 1.474 . S
C814 C816 1.285 . S
C814 H834 0.929 . S
C815 C812 1.461 . S
C815 C814 1.474 . S
C816 C811 1.342 . S
C816 C814 1.285 . S
C816 H835 0.930 . S
C817 C820 1.424 . S
C817 C822 1.245 . S
C817 C823 1.428 . S
C818 C821 1.260 . S
C818 C822 1.477 . S
C818 H836 0.932 . S
C819 C820 1.384 . S
C819 C821 1.479 . S
C819 H837 0.929 . S
C820 C817 1.424 . S
C820 C819 1.384 . S
C820 H838 0.928 . S
C821 C818 1.260 . S
C821 C819 1.479 . S
C822 C817 1.245 . S
C822 C818 1.477 . S
C822 H839 0.932 . S
C823 U806 2.882 . S
C823 C817 1.428 . S
C823 O826 1.301 . S
C823 O827 1.282 . S
O824 U806 2.441 . S
O824 C810 1.249 . S
O825 U806 2.420 . S
O825 C810 1.202 . S
O826 U806 2.455 . S
O826 C823 1.301 . S
O827 U806 2.449 . S
O827 C823 1.282 . S
H828 C801 0.931 . S
H829 C803 0.929 . S
H830 C804 0.930 . S
H831 C805 0.931 . S
H832 C812 0.932 . S
H833 C813 0.930 . S
H834 C814 0.929 . S
H835 C816 0.930 . S
H836 C818 0.932 . S
H837 C819 0.929 . S
H838 C820 0.928 . S
H839 C822 0.932 . S
C840 C841 1.267 . S
C840 C845 1.465 1_455 S
C840 C850 1.482 . S
C841 C840 1.267 . S
C841 C843 1.339 1_455 S
C841 H868 0.931 . S
C842 C843 1.395 . S
C842 C844 1.320 . S
C843 C841 1.339 1_655 S
C843 C842 1.395 . S
C843 H869 0.929 1_655 S
C844 C842 1.320 . S
C844 C845 1.405 . S
C844 H870 0.930 . S
C845 C840 1.465 1_655 S
C845 C844 1.405 . S
C845 H871 0.931 . S
U846 O847 2.454 1_455 S
U846 O848 2.458 . S
U846 C849 2.987 . S
U846 C850 2.847 . S
U846 C863 2.882 . S
U846 O864 2.441 . S
U846 O865 2.420 . S
U846 O866 2.455 . S
U846 O867 2.449 . S
O847 U846 2.454 1_655 S
O847 C849 1.350 1_655 S
O848 U846 2.458 . S
O848 C849 1.290 . S
C849 U846 2.987 . S
C849 O847 1.350 1_455 S
C849 O848 1.290 . S
C849 C851 1.361 1_455 S
C850 C840 1.482 . S
C850 U846 2.847 . S
C850 O864 1.249 . S
C850 O865 1.202 . S
C851 C849 1.361 1_655 S
C851 C853 1.408 . S
C851 C856 1.342 . S
C852 C853 1.310 . S
C852 C855 1.461 . S
C852 H872 0.932 . S
C853 C851 1.408 . S
C853 C852 1.310 . S
C853 H873 0.930 . S
C854 C855 1.474 . S
C854 C856 1.285 . S
C854 H874 0.929 . S
C855 C852 1.461 . S
C855 C854 1.474 . S
C856 C851 1.342 . S
C856 C854 1.285 . S
C856 H875 0.932 . S
C857 C860 1.424 . S
C857 C862 1.245 . S
C857 C863 1.428 . S
C858 C861 1.260 . S
C858 C862 1.477 . S
C858 H876 0.932 . S
C859 C860 1.384 . S
C859 C861 1.479 . S
C859 H877 0.929 . S
C860 C857 1.424 . S
C860 C859 1.384 . S
C860 H878 0.928 . S
C861 C858 1.260 . S
C861 C859 1.479 . S
C862 C857 1.245 . S
C862 C858 1.477 . S
C862 H879 0.932 . S
C863 U846 2.882 . S
C863 C857 1.428 . S
C863 O866 1.301 . S
C863 O867 1.282 . S
O864 U846 2.441 . S
O864 C850 1.249 . S
O865 U846 2.420 . S
O865 C850 1.202 . S
O866 U846 2.455 . S
O866 C863 1.301 . S
O867 U846 2.449 . S
O867 C863 1.282 . S
H868 C841 0.931 . S
H869 C843 0.929 1_455 S
H870 C844 0.930 . S
H871 C845 0.931 . S
H872 C852 0.932 . S
H873 C853 0.930 . S
H874 C854 0.929 . S
H875 C856 0.932 . S
H876 C858 0.932 . S
H877 C859 0.929 . S
H878 C860 0.928 . S
H879 C862 0.932 . S
C880 C881 1.264 . S
C880 C885 1.479 . S
C880 C890 1.465 . S
C881 C880 1.264 . S
C881 C883 1.339 . S
C881 H908 0.931 . S
C882 C883 1.395 . S
C882 C884 1.320 . S
C883 C881 1.339 . S
C883 C882 1.395 . S
C883 H909 0.929 . S
C884 C882 1.320 . S
C884 C885 1.405 . S
C884 H910 0.930 . S
C885 C880 1.479 . S
C885 C884 1.405 . S
C885 H911 0.931 . S
U886 O887 2.454 . S
U886 O888 2.458 . S
U886 C889 2.984 . S
U886 C890 2.847 . S
U886 C903 2.882 . S
U886 O904 2.441 . S
U886 O905 2.420 . S
U886 O906 2.455 . S
U886 O907 2.449 . S
O887 U886 2.454 . S
O887 C889 1.353 . S
O888 U886 2.458 . S
O888 C889 1.286 . S
C889 U886 2.984 . S
C889 O887 1.353 . S
C889 O888 1.286 . S
C889 C891 1.363 . S
C890 C880 1.465 . S
C890 U886 2.847 . S
C890 O904 1.249 . S
C890 O905 1.202 . S
C891 C889 1.363 . S
C891 C893 1.408 . S
C891 C896 1.342 . S
C892 C893 1.310 . S
C892 C895 1.461 . S
C892 H912 0.932 . S
C893 C891 1.408 . S
C893 C892 1.310 . S
C893 H913 0.930 . S
C894 C895 1.474 . S
C894 C896 1.285 . S
C894 H914 0.929 . S
C895 C892 1.461 . S
C895 C894 1.474 . S
C896 C891 1.342 . S
C896 C894 1.285 . S
C896 H915 0.930 . S
C897 C900 1.424 . S
C897 C902 1.245 . S
C897 C903 1.428 . S
C898 C901 1.260 . S
C898 C902 1.477 . S
C898 H916 0.932 . S
C899 C900 1.384 . S
C899 C901 1.479 . S
C899 H917 0.929 . S
C900 C897 1.424 . S
C900 C899 1.384 . S
C900 H918 0.928 . S
C901 C898 1.260 . S
C901 C899 1.479 . S
C902 C897 1.245 . S
C902 C898 1.477 . S
C902 H919 0.932 . S
C903 U886 2.882 . S
C903 C897 1.428 . S
C903 O906 1.301 . S
C903 O907 1.282 . S
O904 U886 2.441 . S
O904 C890 1.249 . S
O905 U886 2.420 . S
O905 C890 1.202 . S
O906 U886 2.455 . S
O906 C903 1.301 . S
O907 U886 2.449 . S
O907 C903 1.282 . S
H908 C881 0.931 . S
H909 C883 0.929 . S
H910 C884 0.930 . S
H911 C885 0.931 . S
H912 C892 0.932 . S
H913 C893 0.930 . S
H914 C894 0.929 . S
H915 C896 0.930 . S
H916 C898 0.932 . S
H917 C899 0.929 . S
H918 C900 0.928 . S
H919 C902 0.932 . S
C920 C921 1.264 . S
C920 C925 1.479 . S
C920 C930 1.465 . S
C921 C920 1.264 . S
C921 C923 1.339 . S
C921 H948 0.931 . S
C922 C923 1.395 . S
C922 C924 1.320 . S
C923 C921 1.339 . S
C923 C922 1.395 . S
C923 H949 0.929 . S
C924 C922 1.320 . S
C924 C925 1.405 . S
C924 H950 0.920 1_655 S
C925 C920 1.479 . S
C925 C924 1.405 . S
C925 H951 0.931 . S
U926 O927 2.454 . S
U926 O928 2.458 . S
U926 C929 2.984 . S
U926 C930 2.847 . S
U926 C943 2.882 . S
U926 O944 2.441 . S
U926 O945 2.420 . S
U926 O946 2.455 . S
U926 O947 2.449 . S
O927 U926 2.454 . S
O927 C929 1.353 . S
O928 U926 2.458 . S
O928 C929 1.286 . S
C929 U926 2.984 . S
C929 O927 1.353 . S
C929 O928 1.286 . S
C929 C931 1.363 . S
C930 C920 1.465 . S
C930 U926 2.847 . S
C930 O944 1.249 . S
C930 O945 1.202 . S
C931 C929 1.363 . S
C931 C933 1.408 . S
C931 C936 1.342 . S
C932 C933 1.310 . S
C932 C935 1.460 . S
C932 H952 0.932 . S
C933 C931 1.408 . S
C933 C932 1.310 . S
C933 H953 0.930 . S
C934 C935 1.475 1_455 S
C934 C936 1.286 1_455 S
C934 H954 0.930 . S
C935 C932 1.460 . S
C935 C934 1.475 1_655 S
C936 C931 1.342 . S
C936 C934 1.286 1_655 S
C936 H955 0.929 . S
C937 C940 1.424 . S
C937 C942 1.245 . S
C937 C943 1.428 . S
C938 C941 1.260 . S
C938 C942 1.477 . S
C938 H956 0.932 . S
C939 C940 1.384 . S
C939 C941 1.479 . S
C939 H957 0.929 . S
C940 C937 1.424 . S
C940 C939 1.384 . S
C940 H958 0.928 . S
C941 C938 1.260 . S
C941 C939 1.479 . S
C942 C937 1.245 . S
C942 C938 1.477 . S
C942 H959 0.932 . S
C943 U926 2.882 . S
C943 C937 1.428 . S
C943 O946 1.301 . S
C943 O947 1.282 . S
O944 U926 2.441 . S
O944 C930 1.249 . S
O945 U926 2.420 . S
O945 C930 1.202 . S
O946 U926 2.455 . S
O946 C943 1.301 . S
O947 U926 2.449 . S
O947 C943 1.282 . S
H948 C921 0.931 . S
H949 C923 0.929 . S
H950 C924 0.920 1_455 S
H951 C925 0.931 . S
H952 C932 0.932 . S
H953 C933 0.930 . S
H954 C934 0.930 . S
H955 C936 0.929 . S
H956 C938 0.932 . S
H957 C939 0.929 . S
H958 C940 0.928 . S
H959 C942 0.932 . S
H960 C967 0.929 . S
H961 C970 0.930 . S
H962 C972 0.929 . S
H963 C964 0.969 . S
C964 H963 0.969 . S
C964 O965 1.550 . S
C964 H966 0.973 . S
O965 C964 1.550 . S
O965 C971 1.412 . S
H966 C964 0.973 . S
C967 H960 0.929 . S
C967 C968 1.400 . S
C967 C969 1.364 . S
C968 C967 1.400 . S
C968 C972 1.377 . S
C969 C967 1.364 . S
C969 C970 1.374 . S
C970 H961 0.930 . S
C970 C969 1.374 . S
C970 C971 1.383 . S
C971 O965 1.412 . S
C971 C970 1.383 . S
C971 C972 1.394 . S
C972 H962 0.929 . S
C972 C968 1.377 . S
C972 C971 1.394 . S
H973 C980 0.929 . S
H974 C983 0.930 . S
H975 C985 0.929 . S
H976 C977 0.969 . S
C977 H976 0.969 . S
C977 O978 1.550 . S
C977 H979 0.973 1_554 S
O978 C977 1.550 . S
O978 C984 1.412 . S
H979 C977 0.973 1_556 S
C980 H973 0.929 . S
C980 C981 1.400 1_556 S
C980 C982 1.364 . S
C981 C980 1.400 1_554 S
C981 C985 1.377 . S
C982 C980 1.364 . S
C982 C983 1.374 . S
C983 H974 0.930 . S
C983 C982 1.374 . S
C983 C984 1.383 1_556 S
C984 O978 1.412 . S
C984 C983 1.383 1_554 S
C984 C985 1.394 . S
C985 H975 0.929 . S
C985 C981 1.377 . S
C985 C984 1.394 . S
H986 C993 0.929 . S
H987 C996 0.930 . S
H988 C998 0.929 . S
H989 C990 0.969 . S
C990 H989 0.969 . S
C990 O991 1.550 . S
C990 H992 0.973 . S
O991 C990 1.550 . S
O991 C997 1.412 . S
H992 C990 0.973 . S
C993 H986 0.929 . S
C993 C994 1.400 . S
C993 C995 1.364 . S
C994 C993 1.400 . S
C994 C998 1.377 . S
C995 C993 1.364 . S
C995 C996 1.374 1_565 S
C996 H987 0.930 . S
C996 C995 1.374 1_545 S
C996 C997 1.383 . S
C997 O991 1.412 . S
C997 C996 1.383 . S
C997 C998 1.394 1_545 S
C998 H988 0.929 . S
C998 C994 1.377 . S
C998 C997 1.394 1_565 S
H999 C1006 0.929 . S
H1000 C1009 0.930 . S
H1001 C1011 0.929 . S
H1002 C1003 0.969 . S
C1003 H1002 0.969 . S
C1003 O1004 1.550 . S
C1003 H1005 0.954 1_556 S
O1004 C1003 1.550 . S
O1004 C1010 1.412 . S
H1005 C1003 0.954 1_554 S
C1006 H999 0.929 . S
C1006 C1007 1.400 1_554 S
C1006 C1008 1.364 . S
C1007 C1006 1.400 1_556 S
C1007 C1011 1.377 . S
C1008 C1006 1.364 . S
C1008 C1009 1.374 . S
C1009 H1000 0.930 . S
C1009 C1008 1.374 . S
C1009 C1010 1.383 1_554 S
C1010 O1004 1.412 . S
C1010 C1009 1.383 1_556 S
C1010 C1011 1.394 . S
C1011 H1001 0.929 . S
C1011 C1007 1.377 . S
C1011 C1010 1.394 . S
H1012 C1019 0.929 . S
H1013 C1022 0.930 . S
H1014 C1024 0.929 . S
H1015 C1016 0.969 . S
C1016 H1015 0.969 . S
C1016 O1017 1.550 . S
C1016 H1018 0.973 . S
O1017 C1016 1.550 . S
O1017 C1023 1.412 . S
H1018 C1016 0.973 . S
C1019 H1012 0.929 . S
C1019 C1020 1.400 . S
C1019 C1021 1.364 . S
C1020 C1019 1.400 . S
C1020 C1024 1.377 . S
C1021 C1019 1.364 . S
C1021 C1022 1.374 . S
C1022 H1013 0.930 . S
C1022 C1021 1.374 . S
C1022 C1023 1.383 . S
C1023 O1017 1.412 . S
C1023 C1022 1.383 . S
C1023 C1024 1.394 . S
C1024 H1014 0.929 . S
C1024 C1020 1.377 . S
C1024 C1023 1.394 . S
H1025 C1032 0.929 . S
H1026 C1035 0.930 . S
H1027 C1037 0.929 . S
H1028 C1029 0.969 . S
C1029 H1028 0.969 . S
C1029 O1030 1.550 . S
C1029 H1031 0.954 1_655 S
O1030 C1029 1.550 . S
O1030 C1036 1.412 . S
H1031 C1029 0.954 1_455 S
C1032 H1025 0.929 . S
C1032 C1033 1.400 1_455 S
C1032 C1034 1.364 . S
C1033 C1032 1.400 1_655 S
C1033 C1037 1.377 . S
C1034 C1032 1.364 . S
C1034 C1035 1.374 . S
C1035 H1026 0.930 . S
C1035 C1034 1.374 . S
C1035 C1036 1.383 1_455 S
C1036 O1030 1.412 . S
C1036 C1035 1.383 1_655 S
C1036 C1037 1.394 . S
C1037 H1027 0.929 . S
C1037 C1033 1.377 . S
C1037 C1036 1.394 . S
H1038 C1045 0.929 . S
H1039 C1048 0.930 . S
H1040 C1050 0.929 . S
H1041 C1042 0.969 . S
C1042 H1041 0.969 . S
C1042 O1043 1.550 . S
C1042 H1044 0.973 1_455 S
O1043 C1042 1.550 . S
O1043 C1049 1.412 . S
H1044 C1042 0.973 1_655 S
C1045 H1038 0.929 . S
C1045 C1046 1.400 1_655 S
C1045 C1047 1.364 . S
C1046 C1045 1.400 1_455 S
C1046 C1050 1.377 . S
C1047 C1045 1.364 . S
C1047 C1048 1.374 . S
C1048 H1039 0.930 . S
C1048 C1047 1.374 . S
C1048 C1049 1.383 1_655 S
C1049 O1043 1.412 . S
C1049 C1048 1.383 1_455 S
C1049 C1050 1.394 . S
C1050 H1040 0.929 . S
C1050 C1046 1.377 . S
C1050 C1049 1.394 . S
H1051 C1058 0.929 . S
H1052 C1061 0.930 . S
H1053 C1063 0.929 . S
H1054 C1055 0.969 . S
C1055 H1054 0.969 . S
C1055 O1056 1.550 . S
C1055 H1057 0.973 . S
O1056 C1055 1.550 . S
O1056 C1062 1.412 . S
H1057 C1055 0.973 . S
C1058 H1051 0.929 . S
C1058 C1059 1.400 . S
C1058 C1060 1.364 . S
C1059 C1058 1.400 . S
C1059 C1063 1.377 . S
C1060 C1058 1.364 . S
C1060 C1061 1.374 1_556 S
C1061 H1052 0.930 . S
C1061 C1060 1.374 1_554 S
C1061 C1062 1.383 . S
C1062 O1056 1.412 . S
C1062 C1061 1.383 . S
C1062 C1063 1.394 1_554 S
C1063 H1053 0.929 . S
C1063 C1059 1.377 . S
C1063 C1062 1.394 1_556 S
H1064 C1071 0.929 . S
H1065 C1074 0.930 . S
H1066 C1076 0.929 . S
H1067 C1068 0.969 . S
C1068 H1067 0.969 . S
C1068 O1069 1.550 . S
C1068 H1070 0.973 . S
O1069 C1068 1.550 . S
O1069 C1075 1.412 . S
H1070 C1068 0.973 . S
C1071 H1064 0.929 . S
C1071 C1072 1.400 . S
C1071 C1073 1.364 . S
C1072 C1071 1.400 . S
C1072 C1076 1.377 . S
C1073 C1071 1.364 . S
C1073 C1074 1.374 . S
C1074 H1065 0.930 . S
C1074 C1073 1.374 . S
C1074 C1075 1.383 . S
C1075 O1069 1.412 . S
C1075 C1074 1.383 . S
C1075 C1076 1.394 . S
C1076 H1066 0.929 . S
C1076 C1072 1.377 . S
C1076 C1075 1.394 . S
H1077 C1084 0.929 . S
H1078 C1087 0.930 . S
H1079 C1089 0.929 . S
H1080 C1081 0.969 . S
C1081 H1080 0.969 . S
C1081 O1082 1.550 . S
C1081 H1083 0.954 1_565 S
O1082 C1081 1.550 . S
O1082 C1088 1.412 . S
H1083 C1081 0.954 1_545 S
C1084 H1077 0.929 . S
C1084 C1085 1.400 1_545 S
C1084 C1086 1.364 . S
C1085 C1084 1.400 1_565 S
C1085 C1089 1.377 . S
C1086 C1084 1.364 . S
C1086 C1087 1.374 . S
C1087 H1078 0.930 . S
C1087 C1086 1.374 . S
C1087 C1088 1.383 1_545 S
C1088 O1082 1.412 . S
C1088 C1087 1.383 1_565 S
C1088 C1089 1.394 . S
C1089 H1079 0.929 . S
C1089 C1085 1.377 . S
C1089 C1088 1.394 . S
H1090 C1097 0.929 . S
H1091 C1100 0.930 . S
H1092 C1102 0.929 . S
H1093 C1094 0.969 . S
C1094 H1093 0.969 . S
C1094 O1095 1.550 . S
C1094 H1096 0.973 1_545 S
O1095 C1094 1.550 . S
O1095 C1101 1.412 . S
H1096 C1094 0.973 1_565 S
C1097 H1090 0.929 . S
C1097 C1098 1.400 1_565 S
C1097 C1099 1.364 . S
C1098 C1097 1.400 1_545 S
C1098 C1102 1.377 . S
C1099 C1097 1.364 . S
C1099 C1100 1.374 . S
C1100 H1091 0.930 . S
C1100 C1099 1.374 . S
C1100 C1101 1.383 1_565 S
C1101 O1095 1.412 . S
C1101 C1100 1.383 1_545 S
C1101 C1102 1.394 . S
C1102 H1092 0.929 . S
C1102 C1098 1.377 . S
C1102 C1101 1.394 . S
H1103 C1110 0.929 . S
H1104 C1113 0.930 . S
H1105 C1115 0.929 . S
H1106 C1107 0.969 . S
C1107 H1106 0.969 . S
C1107 O1108 1.550 . S
C1107 H1109 0.973 . S
O1108 C1107 1.550 . S
O1108 C1114 1.412 . S
H1109 C1107 0.973 . S
C1110 H1103 0.929 . S
C1110 C1111 1.400 . S
C1110 C1112 1.364 . S
C1111 C1110 1.400 . S
C1111 C1115 1.377 . S
C1112 C1110 1.364 . S
C1112 C1113 1.374 1_655 S
C1113 H1104 0.930 . S
C1113 C1112 1.374 1_455 S
C1113 C1114 1.383 . S
C1114 O1108 1.412 . S
C1114 C1113 1.383 . S
C1114 C1115 1.394 1_455 S
C1115 H1105 0.929 . S
C1115 C1111 1.377 . S
C1115 C1114 1.394 1_655 S
H1116 C1123 0.929 . S
H1117 C1126 0.930 . S
H1118 C1128 0.929 . S
H1119 C1120 0.969 . S
C1120 H1119 0.969 . S
C1120 O1121 1.550 . S
C1120 H1122 0.973 . S
O1121 C1120 1.550 . S
O1121 C1127 1.412 . S
H1122 C1120 0.973 . S
C1123 H1116 0.929 . S
C1123 C1124 1.400 . S
C1123 C1125 1.364 . S
C1124 C1123 1.400 . S
C1124 C1128 1.377 . S
C1125 C1123 1.364 . S
C1125 C1126 1.374 . S
C1126 H1117 0.930 . S
C1126 C1125 1.374 . S
C1126 C1127 1.383 . S
C1127 O1121 1.412 . S
C1127 C1126 1.383 . S
C1127 C1128 1.394 . S
C1128 H1118 0.929 . S
C1128 C1124 1.377 . S
C1128 C1127 1.394 . S
H1129 C1136 0.929 . S
H1130 C1139 0.930 . S
H1131 C1141 0.929 . S
H1132 C1133 0.933 1_554 S
C1133 H1132 0.933 1_556 S
C1133 O1134 1.583 . S
C1133 H1135 0.959 1_556 S
O1134 C1133 1.583 . S
O1134 C1140 1.412 . S
H1135 C1133 0.959 1_554 S
C1136 H1129 0.929 . S
C1136 C1137 1.400 1_554 S
C1136 C1138 1.364 . S
C1137 C1136 1.400 1_556 S
C1137 C1141 1.377 . S
C1138 C1136 1.364 . S
C1138 C1139 1.374 . S
C1139 H1130 0.930 . S
C1139 C1138 1.374 . S
C1139 C1140 1.383 1_554 S
C1140 O1134 1.412 . S
C1140 C1139 1.383 1_556 S
C1140 C1141 1.394 . S
C1141 H1131 0.929 . S
C1141 C1137 1.377 . S
C1141 C1140 1.394 . S
H1142 C1149 0.929 . S
H1143 C1152 0.930 . S
H1144 C1154 0.929 . S
H1145 C1146 0.969 . S
C1146 H1145 0.969 . S
C1146 O1147 1.550 . S
C1146 H1148 0.973 . S
O1147 C1146 1.550 . S
O1147 C1153 1.412 . S
H1148 C1146 0.973 . S
C1149 H1142 0.929 . S
C1149 C1150 1.400 . S
C1149 C1151 1.364 . S
C1150 C1149 1.400 . S
C1150 C1154 1.377 . S
C1151 C1149 1.364 . S
C1151 C1152 1.374 1_545 S
C1152 H1143 0.930 . S
C1152 C1151 1.374 1_565 S
C1152 C1153 1.383 . S
C1153 O1147 1.412 . S
C1153 C1152 1.383 . S
C1153 C1154 1.394 1_565 S
C1154 H1144 0.929 . S
C1154 C1150 1.377 . S
C1154 C1153 1.394 1_545 S
H1155 C1162 0.929 . S
H1156 C1165 0.930 . S
H1157 C1167 0.929 . S
H1158 C1159 0.969 . S
C1159 H1158 0.969 . S
C1159 O1160 1.550 . S
C1159 H1161 0.973 1_554 S
O1160 C1159 1.550 . S
O1160 C1166 1.412 . S
H1161 C1159 0.973 1_556 S
C1162 H1155 0.929 . S
C1162 C1163 1.400 1_556 S
C1162 C1164 1.364 . S
C1163 C1162 1.400 1_554 S
C1163 C1167 1.377 . S
C1164 C1162 1.364 . S
C1164 C1165 1.374 . S
C1165 H1156 0.930 . S
C1165 C1164 1.374 . S
C1165 C1166 1.383 1_556 S
C1166 O1160 1.412 . S
C1166 C1165 1.383 1_554 S
C1166 C1167 1.394 . S
C1167 H1157 0.929 . S
C1167 C1163 1.377 . S
C1167 C1166 1.394 . S
H1168 C1175 0.929 . S
H1169 C1178 0.930 . S
H1170 C1180 0.929 . S
H1171 C1172 0.969 . S
C1172 H1171 0.969 . S
C1172 O1173 1.550 . S
C1172 H1174 0.973 . S
O1173 C1172 1.550 . S
O1173 C1179 1.412 . S
H1174 C1172 0.973 . S
C1175 H1168 0.929 . S
C1175 C1176 1.400 . S
C1175 C1177 1.364 . S
C1176 C1175 1.400 . S
C1176 C1180 1.377 . S
C1177 C1175 1.364 . S
C1177 C1178 1.374 . S
C1178 H1169 0.930 . S
C1178 C1177 1.374 . S
C1178 C1179 1.383 . S
C1179 O1173 1.412 . S
C1179 C1178 1.383 . S
C1179 C1180 1.394 . S
C1180 H1170 0.929 . S
C1180 C1176 1.377 . S
C1180 C1179 1.394 . S
H1181 C1188 0.929 . S
H1182 C1191 0.930 . S
H1183 C1193 0.929 . S
H1184 C1185 0.969 . S
C1185 H1184 0.969 . S
C1185 O1186 1.550 . S
C1185 H1187 0.973 1_455 S
O1186 C1185 1.550 . S
O1186 C1192 1.412 . S
H1187 C1185 0.973 1_655 S
C1188 H1181 0.929 . S
C1188 C1189 1.400 1_655 S
C1188 C1190 1.364 . S
C1189 C1188 1.400 1_455 S
C1189 C1193 1.377 . S
C1190 C1188 1.364 . S
C1190 C1191 1.374 . S
C1191 H1182 0.930 . S
C1191 C1190 1.374 . S
C1191 C1192 1.383 1_655 S
C1192 O1186 1.412 . S
C1192 C1191 1.383 1_455 S
C1192 C1193 1.394 . S
C1193 H1183 0.929 . S
C1193 C1189 1.377 . S
C1193 C1192 1.394 . S
H1194 C1201 0.929 . S
H1195 C1204 0.930 . S
H1196 C1206 0.929 . S
H1197 C1198 0.933 1_455 S
C1198 H1197 0.933 1_655 S
C1198 O1199 1.583 . S
C1198 H1200 0.959 1_655 S
O1199 C1198 1.583 . S
O1199 C1205 1.412 . S
H1200 C1198 0.959 1_455 S
C1201 H1194 0.929 . S
C1201 C1202 1.400 1_455 S
C1201 C1203 1.364 . S
C1202 C1201 1.400 1_655 S
C1202 C1206 1.377 . S
C1203 C1201 1.364 . S
C1203 C1204 1.374 . S
C1204 H1195 0.930 . S
C1204 C1203 1.374 . S
C1204 C1205 1.383 1_455 S
C1205 O1199 1.412 . S
C1205 C1204 1.383 1_655 S
C1205 C1206 1.394 . S
C1206 H1196 0.929 . S
C1206 C1202 1.377 . S
C1206 C1205 1.394 . S
H1207 C1214 0.929 . S
H1208 C1217 0.930 . S
H1209 C1219 0.929 . S
H1210 C1211 0.969 . S
C1211 H1210 0.969 . S
C1211 O1212 1.550 . S
C1211 H1213 0.973 . S
O1212 C1211 1.550 . S
O1212 C1218 1.412 . S
H1213 C1211 0.973 . S
C1214 H1207 0.929 . S
C1214 C1215 1.400 . S
C1214 C1216 1.364 . S
C1215 C1214 1.400 . S
C1215 C1219 1.377 . S
C1216 C1214 1.364 . S
C1216 C1217 1.374 1_554 S
C1217 H1208 0.930 . S
C1217 C1216 1.374 1_556 S
C1217 C1218 1.383 . S
C1218 O1212 1.412 . S
C1218 C1217 1.383 . S
C1218 C1219 1.394 1_556 S
C1219 H1209 0.929 . S
C1219 C1215 1.377 . S
C1219 C1218 1.394 1_554 S
H1220 C1227 0.929 . S
H1221 C1230 0.930 . S
H1222 C1232 0.929 . S
H1223 C1224 0.969 . S
C1224 H1223 0.969 . S
C1224 O1225 1.550 . S
C1224 H1226 0.973 . S
O1225 C1224 1.550 . S
O1225 C1231 1.412 . S
H1226 C1224 0.973 . S
C1227 H1220 0.929 . S
C1227 C1228 1.400 . S
C1227 C1229 1.364 . S
C1228 C1227 1.400 . S
C1228 C1232 1.377 . S
C1229 C1227 1.364 . S
C1229 C1230 1.374 . S
C1230 H1221 0.930 . S
C1230 C1229 1.374 . S
C1230 C1231 1.383 . S
C1231 O1225 1.412 . S
C1231 C1230 1.383 . S
C1231 C1232 1.394 . S
C1232 H1222 0.929 . S
C1232 C1228 1.377 . S
C1232 C1231 1.394 . S
H1233 C1240 0.929 . S
H1234 C1243 0.930 . S
H1235 C1245 0.929 . S
H1236 C1237 0.969 . S
C1237 H1236 0.969 . S
C1237 O1238 1.550 . S
C1237 H1239 0.973 1_545 S
O1238 C1237 1.550 . S
O1238 C1244 1.412 . S
H1239 C1237 0.973 1_565 S
C1240 H1233 0.929 . S
C1240 C1241 1.400 1_565 S
C1240 C1242 1.364 . S
C1241 C1240 1.400 1_545 S
C1241 C1245 1.377 . S
C1242 C1240 1.364 . S
C1242 C1243 1.374 . S
C1243 H1234 0.930 . S
C1243 C1242 1.374 . S
C1243 C1244 1.383 1_565 S
C1244 O1238 1.412 . S
C1244 C1243 1.383 1_545 S
C1244 C1245 1.394 . S
C1245 H1235 0.929 . S
C1245 C1241 1.377 . S
C1245 C1244 1.394 . S
H1246 C1253 0.929 . S
H1247 C1256 0.930 . S
H1248 C1258 0.929 . S
H1249 C1250 0.933 1_545 S
C1250 H1249 0.933 1_565 S
C1250 O1251 1.583 . S
C1250 H1252 0.959 1_565 S
O1251 C1250 1.583 . S
O1251 C1257 1.412 . S
H1252 C1250 0.959 1_545 S
C1253 H1246 0.929 . S
C1253 C1254 1.400 1_545 S
C1253 C1255 1.364 . S
C1254 C1253 1.400 1_565 S
C1254 C1258 1.377 . S
C1255 C1253 1.364 . S
C1255 C1256 1.374 . S
C1256 H1247 0.930 . S
C1256 C1255 1.374 . S
C1256 C1257 1.383 1_545 S
C1257 O1251 1.412 . S
C1257 C1256 1.383 1_565 S
C1257 C1258 1.394 . S
C1258 H1248 0.929 . S
C1258 C1254 1.377 . S
C1258 C1257 1.394 . S
H1259 C1266 0.929 . S
H1260 C1269 0.930 . S
H1261 C1271 0.929 . S
H1262 C1263 0.969 . S
C1263 H1262 0.969 . S
C1263 O1264 1.550 . S
C1263 H1265 0.973 . S
O1264 C1263 1.550 . S
O1264 C1270 1.412 . S
H1265 C1263 0.973 . S
C1266 H1259 0.929 . S
C1266 C1267 1.400 . S
C1266 C1268 1.364 . S
C1267 C1266 1.400 . S
C1267 C1271 1.377 . S
C1268 C1266 1.364 . S
C1268 C1269 1.374 1_455 S
C1269 H1260 0.930 . S
C1269 C1268 1.374 1_655 S
C1269 C1270 1.383 . S
C1270 O1264 1.412 . S
C1270 C1269 1.383 . S
C1270 C1271 1.394 1_655 S
C1271 H1261 0.929 . S
C1271 C1267 1.377 . S
C1271 C1270 1.394 1_455 S
H1272 C1280 0.950 . S
H1273 C1285 0.950 . S
H1274 C1282 0.950 . S
H1275 C1284 0.950 . S
H1276 C1286 0.950 . S
H1277 C1288 0.950 . S
H1278 C1290 0.950 . S
H1279 C1291 0.950 . S
C1280 H1272 0.950 . S
C1280 C1281 1.386 . S
C1280 C1282 1.391 . S
C1281 C1280 1.386 . S
C1281 C1285 1.393 . S
C1282 H1274 0.950 . S
C1282 C1280 1.391 . S
C1282 C1283 1.400 . S
C1283 C1282 1.400 . S
C1283 C1284 1.398 . S
C1283 C1289 1.491 . S
C1284 H1275 0.950 . S
C1284 C1283 1.398 . S
C1284 C1285 1.391 . S
C1285 H1273 0.950 . S
C1285 C1281 1.393 . S
C1285 C1284 1.391 . S
C1286 H1276 0.950 . S
C1286 C1287 1.386 . S
C1286 C1288 1.391 . S
C1287 C1286 1.386 . S
C1287 C1291 1.393 . S
C1288 H1277 0.950 . S
C1288 C1286 1.391 . S
C1288 C1289 1.400 . S
C1289 C1283 1.491 . S
C1289 C1288 1.400 . S
C1289 C1290 1.398 . S
C1290 H1278 0.950 . S
C1290 C1289 1.398 . S
C1290 C1291 1.391 . S
C1291 H1279 0.950 . S
C1291 C1287 1.393 . S
C1291 C1290 1.391 . S
H1292 C1300 0.950 . S
H1293 C1305 0.950 . S
H1294 C1302 0.950 . S
H1295 C1304 0.950 . S
H1296 C1306 0.950 . S
H1297 C1308 0.950 . S
H1298 C1310 0.950 . S
H1299 C1311 0.950 . S
C1300 H1292 0.950 . S
C1300 C1301 1.386 . S
C1300 C1302 1.391 . S
C1301 C1300 1.386 . S
C1301 C1305 1.393 . S
C1302 H1294 0.950 . S
C1302 C1300 1.391 . S
C1302 C1303 1.400 . S
C1303 C1302 1.400 . S
C1303 C1304 1.398 . S
C1303 C1309 1.491 . S
C1304 H1295 0.950 . S
C1304 C1303 1.398 . S
C1304 C1305 1.391 . S
C1305 H1293 0.950 . S
C1305 C1301 1.393 . S
C1305 C1304 1.391 . S
C1306 H1296 0.950 . S
C1306 C1307 1.386 . S
C1306 C1308 1.391 . S
C1307 C1306 1.386 . S
C1307 C1311 1.393 . S
C1308 H1297 0.950 . S
C1308 C1306 1.391 . S
C1308 C1309 1.400 . S
C1309 C1303 1.491 . S
C1309 C1308 1.400 . S
C1309 C1310 1.398 . S
C1310 H1298 0.950 . S
C1310 C1309 1.398 . S
C1310 C1311 1.391 . S
C1311 H1299 0.950 . S
C1311 C1307 1.393 . S
C1311 C1310 1.391 . S
H1312 C1320 0.950 . S
H1313 C1325 0.950 . S
H1314 C1322 0.950 . S
H1315 C1324 0.952 . S
H1316 C1326 0.950 . S
H1317 C1328 0.950 . S
H1318 C1330 0.950 . S
H1319 C1331 0.950 . S
C1320 H1312 0.950 . S
C1320 C1321 1.392 . S
C1320 C1322 1.391 . S
C1321 C1320 1.392 . S
C1321 C1325 1.392 1_565 S
C1322 H1314 0.950 . S
C1322 C1320 1.391 . S
C1322 C1323 1.400 . S
C1323 C1322 1.400 . S
C1323 C1324 1.398 . S
C1323 C1329 1.491 . S
C1324 H1315 0.952 . S
C1324 C1323 1.398 . S
C1324 C1325 1.391 1_565 S
C1325 H1313 0.950 . S
C1325 C1321 1.392 1_545 S
C1325 C1324 1.391 1_545 S
C1326 H1316 0.950 . S
C1326 C1327 1.386 . S
C1326 C1328 1.391 . S
C1327 C1326 1.386 . S
C1327 C1331 1.393 . S
C1328 H1317 0.950 . S
C1328 C1326 1.391 . S
C1328 C1329 1.400 . S
C1329 C1323 1.491 . S
C1329 C1328 1.400 . S
C1329 C1330 1.398 . S
C1330 H1318 0.950 . S
C1330 C1329 1.398 . S
C1330 C1331 1.391 . S
C1331 H1319 0.950 . S
C1331 C1327 1.393 . S
C1331 C1330 1.391 . S
H1332 C1340 0.950 . S
H1333 C1345 0.950 1_565 S
H1334 C1342 0.950 . S
H1335 C1344 0.950 1_565 S
H1336 C1346 0.950 1_565 S
H1337 C1348 0.950 1_565 S
H1338 C1350 0.950 . S
H1339 C1351 0.950 . S
C1340 H1332 0.950 . S
C1340 C1341 1.386 . S
C1340 C1342 1.391 . S
C1341 C1340 1.386 . S
C1341 C1345 1.393 . S
C1342 H1334 0.950 . S
C1342 C1340 1.391 . S
C1342 C1343 1.400 . S
C1343 C1342 1.400 . S
C1343 C1344 1.398 . S
C1343 C1349 1.491 . S
C1344 H1335 0.950 1_545 S
C1344 C1343 1.398 . S
C1344 C1345 1.391 . S
C1345 H1333 0.950 1_545 S
C1345 C1341 1.393 . S
C1345 C1344 1.391 . S
C1346 H1336 0.950 1_545 S
C1346 C1347 1.386 . S
C1346 C1348 1.391 1_455 S
C1347 C1346 1.386 . S
C1347 C1351 1.393 . S
C1348 H1337 0.950 1_545 S
C1348 C1346 1.391 1_655 S
C1348 C1349 1.400 . S
C1349 C1343 1.491 . S
C1349 C1348 1.400 . S
C1349 C1350 1.398 . S
C1350 H1338 0.950 . S
C1350 C1349 1.398 . S
C1350 C1351 1.391 1_655 S
C1351 H1339 0.950 . S
C1351 C1347 1.393 . S
C1351 C1350 1.391 1_455 S
H1352 C1360 0.950 . S
H1353 C1365 0.950 . S
H1354 C1362 0.950 . S
H1355 C1364 0.950 . S
H1356 C1366 0.950 . S
H1357 C1368 0.950 . S
H1358 C1370 0.950 . S
H1359 C1371 0.950 . S
C1360 H1352 0.950 . S
C1360 C1361 1.386 . S
C1360 C1362 1.391 . S
C1361 C1360 1.386 . S
C1361 C1365 1.393 . S
C1362 H1354 0.950 . S
C1362 C1360 1.391 . S
C1362 C1363 1.400 . S
C1363 C1362 1.400 . S
C1363 C1364 1.398 . S
C1363 C1369 1.491 . S
C1364 H1355 0.950 . S
C1364 C1363 1.398 . S
C1364 C1365 1.391 . S
C1365 H1353 0.950 . S
C1365 C1361 1.393 . S
C1365 C1364 1.391 . S
C1366 H1356 0.950 . S
C1366 C1367 1.386 . S
C1366 C1368 1.391 . S
C1367 C1366 1.386 . S
C1367 C1371 1.393 . S
C1368 H1357 0.950 . S
C1368 C1366 1.391 . S
C1368 C1369 1.400 . S
C1369 C1363 1.491 . S
C1369 C1368 1.400 . S
C1369 C1370 1.398 . S
C1370 H1358 0.950 . S
C1370 C1369 1.398 . S
C1370 C1371 1.391 . S
C1371 H1359 0.950 . S
C1371 C1367 1.393 . S
C1371 C1370 1.391 . S
H1372 C1380 0.950 . S
H1373 C1385 0.950 . S
H1374 C1382 0.950 . S
H1375 C1384 0.950 . S
H1376 C1386 0.950 . S
H1377 C1388 0.950 . S
H1378 C1390 0.950 . S
H1379 C1391 0.950 . S
C1380 H1372 0.950 . S
C1380 C1381 1.386 . S
C1380 C1382 1.391 . S
C1381 C1380 1.386 . S
C1381 C1385 1.393 . S
C1382 H1374 0.950 . S
C1382 C1380 1.391 . S
C1382 C1383 1.400 . S
C1383 C1382 1.400 . S
C1383 C1384 1.398 . S
C1383 C1389 1.491 . S
C1384 H1375 0.950 . S
C1384 C1383 1.398 . S
C1384 C1385 1.391 . S
C1385 H1373 0.950 . S
C1385 C1381 1.393 . S
C1385 C1384 1.391 . S
C1386 H1376 0.950 . S
C1386 C1387 1.386 . S
C1386 C1388 1.391 1_545 S
C1387 C1386 1.386 . S
C1387 C1391 1.393 . S
C1388 H1377 0.950 . S
C1388 C1386 1.391 1_565 S
C1388 C1389 1.400 . S
C1389 C1383 1.491 . S
C1389 C1388 1.400 . S
C1389 C1390 1.398 . S
C1390 H1378 0.950 . S
C1390 C1389 1.398 . S
C1390 C1391 1.391 1_565 S
C1391 H1379 0.950 . S
C1391 C1387 1.393 . S
C1391 C1390 1.391 1_545 S
H1392 C1400 0.950 . S
H1393 C1405 0.950 . S
H1394 C1402 0.950 . S
H1395 C1404 0.950 . S
H1396 C1406 0.950 . S
H1397 C1408 0.950 . S
H1398 C1410 0.950 . S
H1399 C1411 0.950 . S
C1400 H1392 0.950 . S
C1400 C1401 1.386 . S
C1400 C1402 1.391 . S
C1401 C1400 1.386 . S
C1401 C1405 1.393 . S
C1402 H1394 0.950 . S
C1402 C1400 1.391 . S
C1402 C1403 1.400 . S
C1403 C1402 1.400 . S
C1403 C1404 1.398 . S
C1403 C1409 1.491 . S
C1404 H1395 0.950 . S
C1404 C1403 1.398 . S
C1404 C1405 1.391 . S
C1405 H1393 0.950 . S
C1405 C1401 1.393 . S
C1405 C1404 1.391 . S
C1406 H1396 0.950 . S
C1406 C1407 1.386 . S
C1406 C1408 1.391 . S
C1407 C1406 1.386 . S
C1407 C1411 1.393 . S
C1408 H1397 0.950 . S
C1408 C1406 1.391 . S
C1408 C1409 1.400 . S
C1409 C1403 1.491 . S
C1409 C1408 1.400 . S
C1409 C1410 1.398 . S
C1410 H1398 0.950 . S
C1410 C1409 1.398 . S
C1410 C1411 1.391 . S
C1411 H1399 0.950 . S
C1411 C1407 1.393 . S
C1411 C1410 1.391 . S
H1412 C1420 0.950 . S
H1413 C1425 0.950 . S
H1414 C1422 0.950 . S
H1415 C1424 0.950 . S
H1416 C1426 0.950 1_554 S
H1417 C1428 0.950 . S
H1418 C1430 0.950 . S
H1419 C1431 0.950 . S
C1420 H1412 0.950 . S
C1420 C1421 1.368 1_556 S
C1420 C1422 1.391 . S
C1421 C1420 1.368 1_554 S
C1421 C1425 1.409 . S
C1422 H1414 0.950 . S
C1422 C1420 1.391 . S
C1422 C1423 1.400 . S
C1423 C1422 1.400 . S
C1423 C1424 1.398 1_556 S
C1423 C1429 1.491 . S
C1424 H1415 0.950 . S
C1424 C1423 1.398 1_554 S
C1424 C1425 1.391 . S
C1425 H1413 0.950 . S
C1425 C1421 1.409 . S
C1425 C1424 1.391 . S
C1426 H1416 0.950 1_556 S
C1426 C1427 1.386 . S
C1426 C1428 1.391 1_556 S
C1427 C1426 1.386 . S
C1427 C1431 1.393 . S
C1428 H1417 0.950 . S
C1428 C1426 1.391 1_554 S
C1428 C1429 1.400 1_554 S
C1429 C1423 1.491 . S
C1429 C1428 1.400 1_556 S
C1429 C1430 1.398 . S
C1430 H1418 0.950 . S
C1430 C1429 1.398 . S
C1430 C1431 1.391 . S
C1431 H1419 0.950 . S
C1431 C1427 1.393 . S
C1431 C1430 1.391 . S
H1432 C1440 0.950 . S
H1433 C1445 0.950 . S
H1434 C1442 0.950 . S
H1435 C1444 0.950 . S
H1436 C1446 0.950 . S
H1437 C1448 0.950 . S
H1438 C1450 0.950 . S
H1439 C1451 0.950 . S
C1440 H1432 0.950 . S
C1440 C1441 1.386 . S
C1440 C1442 1.391 . S
C1441 C1440 1.386 . S
C1441 C1445 1.393 . S
C1442 H1434 0.950 . S
C1442 C1440 1.391 . S
C1442 C1443 1.400 . S
C1443 C1442 1.400 . S
C1443 C1444 1.398 . S
C1443 C1449 1.491 . S
C1444 H1435 0.950 . S
C1444 C1443 1.398 . S
C1444 C1445 1.391 . S
C1445 H1433 0.950 . S
C1445 C1441 1.393 . S
C1445 C1444 1.391 . S
C1446 H1436 0.950 . S
C1446 C1447 1.386 . S
C1446 C1448 1.391 . S
C1447 C1446 1.386 . S
C1447 C1451 1.393 . S
C1448 H1437 0.950 . S
C1448 C1446 1.391 . S
C1448 C1449 1.400 . S
C1449 C1443 1.491 . S
C1449 C1448 1.400 . S
C1449 C1450 1.398 . S
C1450 H1438 0.950 . S
C1450 C1449 1.398 . S
C1450 C1451 1.391 . S
C1451 H1439 0.950 . S
C1451 C1447 1.393 . S
C1451 C1450 1.391 . S
H1452 C1460 0.950 . S
H1453 C1465 0.950 . S
H1454 C1462 0.950 . S
H1455 C1464 0.950 . S
H1456 C1466 0.950 . S
H1457 C1468 0.950 . S
H1458 C1470 0.950 . S
H1459 C1471 0.950 . S
C1460 H1452 0.950 . S
C1460 C1461 1.386 . S
C1460 C1462 1.391 . S
C1461 C1460 1.386 . S
C1461 C1465 1.393 1_455 S
C1462 H1454 0.950 . S
C1462 C1460 1.391 . S
C1462 C1463 1.400 . S
C1463 C1462 1.400 . S
C1463 C1464 1.398 1_455 S
C1463 C1469 1.491 . S
C1464 H1455 0.950 . S
C1464 C1463 1.398 1_655 S
C1464 C1465 1.391 . S
C1465 H1453 0.950 . S
C1465 C1461 1.393 1_655 S
C1465 C1464 1.391 . S
C1466 H1456 0.950 . S
C1466 C1467 1.386 1_655 S
C1466 C1468 1.391 1_554 S
C1467 C1466 1.386 1_455 S
C1467 C1471 1.393 . S
C1468 H1457 0.950 . S
C1468 C1466 1.391 1_556 S
C1468 C1469 1.400 1_655 S
C1469 C1463 1.491 . S
C1469 C1468 1.400 1_455 S
C1469 C1470 1.398 . S
C1470 H1458 0.950 . S
C1470 C1469 1.398 . S
C1470 C1471 1.391 1_556 S
C1471 H1459 0.950 . S
C1471 C1467 1.393 . S
C1471 C1470 1.391 1_554 S
H1472 C1480 0.950 . S
H1473 C1485 0.950 . S
H1474 C1482 0.950 . S
H1475 C1484 0.950 . S
H1476 C1486 0.950 . S
H1477 C1488 0.950 . S
H1478 C1490 0.950 . S
H1479 C1491 0.950 . S
C1480 H1472 0.950 . S
C1480 C1481 1.386 . S
C1480 C1482 1.391 . S
C1481 C1480 1.386 . S
C1481 C1485 1.393 . S
C1482 H1474 0.950 . S
C1482 C1480 1.391 . S
C1482 C1483 1.400 . S
C1483 C1482 1.400 . S
C1483 C1484 1.398 . S
C1483 C1489 1.491 . S
C1484 H1475 0.950 . S
C1484 C1483 1.398 . S
C1484 C1485 1.391 . S
C1485 H1473 0.950 . S
C1485 C1481 1.393 . S
C1485 C1484 1.391 . S
C1486 H1476 0.950 . S
C1486 C1487 1.386 . S
C1486 C1488 1.391 . S
C1487 C1486 1.386 . S
C1487 C1491 1.393 . S
C1488 H1477 0.950 . S
C1488 C1486 1.391 . S
C1488 C1489 1.400 . S
C1489 C1483 1.491 . S
C1489 C1488 1.400 . S
C1489 C1490 1.398 . S
C1490 H1478 0.950 . S
C1490 C1489 1.398 . S
C1490 C1491 1.391 . S
C1491 H1479 0.950 . S
C1491 C1487 1.393 . S
C1491 C1490 1.391 . S
H1492 C1500 0.950 . S
H1493 C1505 0.950 . S
H1494 C1502 0.950 . S
H1495 C1504 0.950 . S
H1496 C1506 0.950 1_455 S
H1497 C1508 0.926 1_455 S
H1498 C1510 0.950 . S
H1499 C1511 0.950 . S
C1500 H1492 0.950 . S
C1500 C1501 1.366 1_655 S
C1500 C1502 1.391 . S
C1501 C1500 1.366 1_455 S
C1501 C1505 1.410 . S
C1502 H1494 0.950 . S
C1502 C1500 1.391 . S
C1502 C1503 1.400 . S
C1503 C1502 1.400 . S
C1503 C1504 1.398 1_655 S
C1503 C1509 1.491 . S
C1504 H1495 0.950 . S
C1504 C1503 1.398 1_455 S
C1504 C1505 1.391 . S
C1505 H1493 0.950 . S
C1505 C1501 1.410 . S
C1505 C1504 1.391 . S
C1506 H1496 0.950 1_655 S
C1506 C1507 1.386 . S
C1506 C1508 1.395 . S
C1507 C1506 1.386 . S
C1507 C1511 1.393 . S
C1508 H1497 0.926 1_655 S
C1508 C1506 1.395 . S
C1508 C1509 1.420 . S
C1509 C1503 1.491 . S
C1509 C1508 1.420 . S
C1509 C1510 1.398 . S
C1510 H1498 0.950 . S
C1510 C1509 1.398 . S
C1510 C1511 1.391 . S
C1511 H1499 0.950 . S
C1511 C1507 1.393 . S
C1511 C1510 1.391 . S
H1512 C1520 0.950 . S
H1513 C1525 0.950 . S
H1514 C1522 0.950 . S
H1515 C1524 0.950 . S
H1516 C1526 0.950 . S
H1517 C1528 0.950 . S
H1518 C1530 0.950 . S
H1519 C1531 0.950 . S
C1520 H1512 0.950 . S
C1520 C1521 1.386 . S
C1520 C1522 1.391 . S
C1521 C1520 1.386 . S
C1521 C1525 1.393 . S
C1522 H1514 0.950 . S
C1522 C1520 1.391 . S
C1522 C1523 1.400 . S
C1523 C1522 1.400 . S
C1523 C1524 1.398 . S
C1523 C1529 1.491 . S
C1524 H1515 0.950 . S
C1524 C1523 1.398 . S
C1524 C1525 1.391 . S
C1525 H1513 0.950 . S
C1525 C1521 1.393 . S
C1525 C1524 1.391 . S
C1526 H1516 0.950 . S
C1526 C1527 1.386 . S
C1526 C1528 1.391 . S
C1527 C1526 1.386 . S
C1527 C1531 1.393 . S
C1528 H1517 0.950 . S
C1528 C1526 1.391 . S
C1528 C1529 1.400 . S
C1529 C1523 1.491 . S
C1529 C1528 1.400 . S
C1529 C1530 1.398 . S
C1530 H1518 0.950 . S
C1530 C1529 1.398 . S
C1530 C1531 1.391 . S
C1531 H1519 0.950 . S
C1531 C1527 1.393 . S
C1531 C1530 1.391 . S
H1532 C1540 0.950 . S
H1533 C1545 0.950 . S
H1534 C1542 0.950 . S
H1535 C1544 0.950 . S
H1536 C1546 0.950 . S
H1537 C1548 0.950 . S
H1538 C1550 0.950 . S
H1539 C1551 0.950 . S
C1540 H1532 0.950 . S
C1540 C1541 1.386 . S
C1540 C1542 1.391 . S
C1541 C1540 1.386 . S
C1541 C1545 1.393 . S
C1542 H1534 0.950 . S
C1542 C1540 1.391 . S
C1542 C1543 1.400 . S
C1543 C1542 1.400 . S
C1543 C1544 1.398 . S
C1543 C1549 1.491 . S
C1544 H1535 0.950 . S
C1544 C1543 1.398 . S
C1544 C1545 1.391 . S
C1545 H1533 0.950 . S
C1545 C1541 1.393 . S
C1545 C1544 1.391 . S
C1546 H1536 0.950 . S
C1546 C1547 1.386 . S
C1546 C1548 1.391 . S
C1547 C1546 1.386 . S
C1547 C1551 1.393 . S
C1548 H1537 0.950 . S
C1548 C1546 1.391 . S
C1548 C1549 1.400 . S
C1549 C1543 1.491 . S
C1549 C1548 1.400 . S
C1549 C1550 1.398 . S
C1550 H1538 0.950 . S
C1550 C1549 1.398 . S
C1550 C1551 1.391 . S
C1551 H1539 0.950 . S
C1551 C1547 1.393 . S
C1551 C1550 1.391 . S
H1552 C1560 0.950 . S
H1553 C1565 0.950 . S
H1554 C1562 0.950 . S
H1555 C1564 0.950 . S
H1556 C1566 0.950 . S
H1557 C1568 0.950 . S
H1558 C1570 0.974 . S
H1559 C1571 0.950 1_565 S
C1560 H1552 0.950 . S
C1560 C1561 1.370 1_565 S
C1560 C1562 1.391 . S
C1561 C1560 1.370 1_545 S
C1561 C1565 1.414 . S
C1562 H1554 0.950 . S
C1562 C1560 1.391 . S
C1562 C1563 1.400 1_565 S
C1563 C1562 1.400 1_545 S
C1563 C1564 1.398 . S
C1563 C1569 1.491 . S
C1564 H1555 0.950 . S
C1564 C1563 1.398 . S
C1564 C1565 1.391 . S
C1565 H1553 0.950 . S
C1565 C1561 1.414 . S
C1565 C1564 1.391 . S
C1566 H1556 0.950 . S
C1566 C1567 1.386 . S
C1566 C1568 1.391 . S
C1567 C1566 1.386 . S
C1567 C1571 1.393 . S
C1568 H1557 0.950 . S
C1568 C1566 1.391 . S
C1568 C1569 1.400 . S
C1569 C1563 1.491 . S
C1569 C1568 1.400 . S
C1569 C1570 1.380 1_545 S
C1570 H1558 0.974 . S
C1570 C1569 1.380 1_565 S
C1570 C1571 1.387 1_565 S
C1571 H1559 0.950 1_545 S
C1571 C1567 1.393 . S
C1571 C1570 1.387 1_545 S
H1572 C1580 0.950 1_545 S
H1573 C1585 0.950 . S
H1574 C1582 0.950 1_545 S
H1575 C1584 0.950 . S
H1576 C1586 0.950 . S
H1577 C1588 0.978 . S
H1578 C1590 0.950 1_545 S
H1579 C1591 0.950 1_545 S
C1580 H1572 0.950 1_565 S
C1580 C1581 1.386 . S
C1580 C1582 1.391 . S
C1581 C1580 1.386 . S
C1581 C1585 1.393 . S
C1582 H1574 0.950 1_565 S
C1582 C1580 1.391 . S
C1582 C1583 1.400 . S
C1583 C1582 1.400 . S
C1583 C1584 1.398 . S
C1583 C1589 1.491 . S
C1584 H1575 0.950 . S
C1584 C1583 1.398 . S
C1584 C1585 1.391 . S
C1585 H1573 0.950 . S
C1585 C1581 1.393 . S
C1585 C1584 1.391 . S
C1586 H1576 0.950 . S
C1586 C1587 1.386 . S
C1586 C1588 1.331 1_655 S
C1587 C1586 1.386 . S
C1587 C1591 1.393 . S
C1588 H1577 0.978 . S
C1588 C1586 1.331 1_455 S
C1588 C1589 1.435 . S
C1589 C1583 1.491 . S
C1589 C1588 1.435 . S
C1589 C1590 1.398 . S
C1590 H1578 0.950 1_565 S
C1590 C1589 1.398 . S
C1590 C1591 1.391 1_455 S
C1591 H1579 0.950 1_565 S
C1591 C1587 1.393 . S
C1591 C1590 1.391 1_655 S
H1592 C1600 0.950 . S
H1593 C1605 0.950 . S
H1594 C1602 0.950 . S
H1595 C1604 0.950 . S
H1596 C1606 0.950 . S
H1597 C1608 0.950 . S
H1598 C1610 0.950 . S
H1599 C1611 0.950 . S
C1600 H1592 0.950 . S
C1600 C1601 1.386 . S
C1600 C1602 1.391 . S
C1601 C1600 1.386 . S
C1601 C1605 1.393 . S
C1602 H1594 0.950 . S
C1602 C1600 1.391 . S
C1602 C1603 1.400 . S
C1603 C1602 1.400 . S
C1603 C1604 1.398 . S
C1603 C1609 1.491 . S
C1604 H1595 0.950 . S
C1604 C1603 1.398 . S
C1604 C1605 1.391 . S
C1605 H1593 0.950 . S
C1605 C1601 1.393 . S
C1605 C1604 1.391 . S
C1606 H1596 0.950 . S
C1606 C1607 1.386 . S
C1606 C1608 1.391 . S
C1607 C1606 1.386 . S
C1607 C1611 1.393 . S
C1608 H1597 0.950 . S
C1608 C1606 1.391 . S
C1608 C1609 1.400 . S
C1609 C1603 1.491 . S
C1609 C1608 1.400 . S
C1609 C1610 1.398 . S
C1610 H1598 0.950 . S
C1610 C1609 1.398 . S
C1610 C1611 1.391 . S
C1611 H1599 0.950 . S
C1611 C1607 1.393 . S
C1611 C1610 1.391 . S
H1612 C1620 0.974 . S
H1613 C1625 0.950 . S
H1614 C1622 0.968 . S
H1615 C1624 0.950 . S
H1616 C1626 0.950 . S
H1617 C1628 0.950 . S
H1618 C1630 0.950 1_554 S
H1619 C1631 0.940 1_554 S
C1620 H1612 0.974 . S
C1620 C1621 1.386 . S
C1620 C1622 1.391 . S
C1621 C1620 1.386 . S
C1621 C1625 1.393 . S
C1622 H1614 0.968 . S
C1622 C1620 1.391 . S
C1622 C1623 1.400 . S
C1623 C1622 1.400 . S
C1623 C1624 1.398 . S
C1623 C1629 1.491 . S
C1624 H1615 0.950 . S
C1624 C1623 1.398 . S
C1624 C1625 1.391 . S
C1625 H1613 0.950 . S
C1625 C1621 1.393 . S
C1625 C1624 1.391 . S
C1626 H1616 0.950 . S
C1626 C1627 1.386 . S
C1626 C1628 1.391 1_565 S
C1627 C1626 1.386 . S
C1627 C1631 1.393 . S
C1628 H1617 0.950 . S
C1628 C1626 1.391 1_545 S
C1628 C1629 1.400 . S
C1629 C1623 1.491 . S
C1629 C1628 1.400 . S
C1629 C1630 1.398 . S
C1630 H1618 0.950 1_556 S
C1630 C1629 1.398 . S
C1630 C1631 1.391 1_545 S
C1631 H1619 0.940 1_556 S
C1631 C1627 1.393 . S
C1631 C1630 1.391 1_565 S
H1632 C1640 0.950 . S
H1633 C1645 0.950 . S
H1634 C1642 0.950 . S
H1635 C1644 0.950 . S
H1636 C1646 0.950 . S
H1637 C1648 0.950 . S
H1638 C1650 0.950 . S
H1639 C1651 0.950 . S
C1640 H1632 0.950 . S
C1640 C1641 1.386 . S
C1640 C1642 1.391 . S
C1641 C1640 1.386 . S
C1641 C1645 1.393 . S
C1642 H1634 0.950 . S
C1642 C1640 1.391 . S
C1642 C1643 1.400 . S
C1643 C1642 1.400 . S
C1643 C1644 1.398 . S
C1643 C1649 1.491 . S
C1644 H1635 0.950 . S
C1644 C1643 1.398 . S
C1644 C1645 1.391 . S
C1645 H1633 0.950 . S
C1645 C1641 1.393 . S
C1645 C1644 1.391 . S
C1646 H1636 0.950 . S
C1646 C1647 1.386 . S
C1646 C1648 1.391 . S
C1647 C1646 1.386 . S
C1647 C1651 1.393 . S
C1648 H1637 0.950 . S
C1648 C1646 1.391 . S
C1648 C1649 1.400 . S
C1649 C1643 1.491 . S
C1649 C1648 1.400 . S
C1649 C1650 1.398 . S
C1650 H1638 0.950 . S
C1650 C1649 1.398 . S
C1650 C1651 1.391 . S
C1651 H1639 0.950 . S
C1651 C1647 1.393 . S
C1651 C1650 1.391 . S
H1652 C1660 0.950 . S
H1653 C1665 0.950 . S
H1654 C1662 0.950 . S
H1655 C1664 0.950 . S
H1656 C1666 0.950 1_556 S
H1657 C1668 0.951 1_556 S
H1658 C1670 0.950 . S
H1659 C1671 0.950 . S
C1660 H1652 0.950 . S
C1660 C1661 1.407 . S
C1660 C1662 1.391 . S
C1661 C1660 1.407 . S
C1661 C1665 1.375 1_554 S
C1662 H1654 0.950 . S
C1662 C1660 1.391 . S
C1662 C1663 1.400 . S
C1663 C1662 1.400 . S
C1663 C1664 1.398 1_554 S
C1663 C1669 1.491 . S
C1664 H1655 0.950 . S
C1664 C1663 1.398 1_556 S
C1664 C1665 1.391 . S
C1665 H1653 0.950 . S
C1665 C1661 1.375 1_556 S
C1665 C1664 1.391 . S
C1666 H1656 0.950 1_554 S
C1666 C1667 1.386 . S
C1666 C1668 1.391 . S
C1667 C1666 1.386 . S
C1667 C1671 1.393 . S
C1668 H1657 0.951 1_554 S
C1668 C1666 1.391 . S
C1668 C1669 1.399 . S
C1669 C1663 1.491 . S
C1669 C1668 1.399 . S
C1669 C1670 1.398 . S
C1670 H1658 0.950 . S
C1670 C1669 1.398 . S
C1670 C1671 1.391 . S
C1671 H1659 0.950 . S
C1671 C1667 1.393 . S
C1671 C1670 1.391 . S
H1672 C1680 0.950 . S
H1673 C1685 0.950 . S
H1674 C1682 0.950 . S
H1675 C1684 0.950 . S
H1676 C1686 0.950 . S
H1677 C1688 0.950 . S
H1678 C1690 0.950 . S
H1679 C1691 0.950 . S
C1680 H1672 0.950 . S
C1680 C1681 1.386 . S
C1680 C1682 1.391 . S
C1681 C1680 1.386 . S
C1681 C1685 1.393 . S
C1682 H1674 0.950 . S
C1682 C1680 1.391 . S
C1682 C1683 1.400 . S
C1683 C1682 1.400 . S
C1683 C1684 1.398 . S
C1683 C1689 1.491 . S
C1684 H1675 0.950 . S
C1684 C1683 1.398 . S
C1684 C1685 1.391 . S
C1685 H1673 0.950 . S
C1685 C1681 1.393 . S
C1685 C1684 1.391 . S
C1686 H1676 0.950 . S
C1686 C1687 1.386 . S
C1686 C1688 1.391 . S
C1687 C1686 1.386 . S
C1687 C1691 1.393 . S
C1688 H1677 0.950 . S
C1688 C1686 1.391 . S
C1688 C1689 1.400 . S
C1689 C1683 1.491 . S
C1689 C1688 1.400 . S
C1689 C1690 1.398 . S
C1690 H1678 0.950 . S
C1690 C1689 1.398 . S
C1690 C1691 1.391 . S
C1691 H1679 0.950 . S
C1691 C1687 1.393 . S
C1691 C1690 1.391 . S
H1692 C1700 0.950 . S
H1693 C1705 0.950 . S
H1694 C1702 0.950 . S
H1695 C1704 0.950 . S
H1696 C1706 0.950 . S
H1697 C1708 0.950 . S
H1698 C1710 0.950 . S
H1699 C1711 0.950 . S
C1700 H1692 0.950 . S
C1700 C1701 1.386 1_455 S
C1700 C1702 1.391 . S
C1701 C1700 1.386 1_655 S
C1701 C1705 1.393 . S
C1702 H1694 0.950 . S
C1702 C1700 1.391 . S
C1702 C1703 1.400 1_455 S
C1703 C1702 1.400 1_655 S
C1703 C1704 1.398 . S
C1703 C1709 1.491 . S
C1704 H1695 0.950 . S
C1704 C1703 1.398 . S
C1704 C1705 1.391 . S
C1705 H1693 0.950 . S
C1705 C1701 1.393 . S
C1705 C1704 1.391 . S
C1706 H1696 0.950 . S
C1706 C1707 1.386 . S
C1706 C1708 1.391 1_556 S
C1707 C1706 1.386 . S
C1707 C1711 1.393 1_655 S
C1708 H1697 0.950 . S
C1708 C1706 1.391 1_554 S
C1708 C1709 1.400 . S
C1709 C1703 1.491 . S
C1709 C1708 1.400 . S
C1709 C1710 1.398 1_655 S
C1710 H1698 0.950 . S
C1710 C1709 1.398 1_455 S
C1710 C1711 1.391 1_554 S
C1711 H1699 0.950 . S
C1711 C1707 1.393 1_455 S
C1711 C1710 1.391 1_556 S
H1712 C1720 0.950 . S
H1713 C1725 0.950 . S
H1714 C1722 0.950 . S
H1715 C1724 0.950 . S
H1716 C1726 0.950 . S
H1717 C1728 0.950 . S
H1718 C1730 0.950 . S
H1719 C1731 0.950 . S
C1720 H1712 0.950 . S
C1720 C1721 1.386 . S
C1720 C1722 1.391 . S
C1721 C1720 1.386 . S
C1721 C1725 1.393 . S
C1722 H1714 0.950 . S
C1722 C1720 1.391 . S
C1722 C1723 1.400 . S
C1723 C1722 1.400 . S
C1723 C1724 1.398 . S
C1723 C1729 1.491 . S
C1724 H1715 0.950 . S
C1724 C1723 1.398 . S
C1724 C1725 1.391 . S
C1725 H1713 0.950 . S
C1725 C1721 1.393 . S
C1725 C1724 1.391 . S
C1726 H1716 0.950 . S
C1726 C1727 1.386 . S
C1726 C1728 1.391 . S
C1727 C1726 1.386 . S
C1727 C1731 1.393 . S
C1728 H1717 0.950 . S
C1728 C1726 1.391 . S
C1728 C1729 1.400 . S
C1729 C1723 1.491 . S
C1729 C1728 1.400 . S
C1729 C1730 1.398 . S
C1730 H1718 0.950 . S
C1730 C1729 1.398 . S
C1730 C1731 1.391 . S
C1731 H1719 0.950 . S
C1731 C1727 1.393 . S
C1731 C1730 1.391 . S
H1732 C1740 0.950 . S
H1733 C1745 0.950 . S
H1734 C1742 0.950 . S
H1735 C1744 0.950 . S
H1736 C1746 0.937 1_655 S
H1737 C1748 0.950 1_655 S
H1738 C1750 0.950 . S
H1739 C1751 0.950 . S
C1740 H1732 0.950 . S
C1740 C1741 1.372 1_455 S
C1740 C1742 1.391 . S
C1741 C1740 1.372 1_655 S
C1741 C1745 1.404 . S
C1742 H1734 0.950 . S
C1742 C1740 1.391 . S
C1742 C1743 1.400 . S
C1743 C1742 1.400 . S
C1743 C1744 1.398 1_455 S
C1743 C1749 1.491 . S
C1744 H1735 0.950 . S
C1744 C1743 1.398 1_655 S
C1744 C1745 1.391 . S
C1745 H1733 0.950 . S
C1745 C1741 1.404 . S
C1745 C1744 1.391 . S
C1746 H1736 0.937 1_455 S
C1746 C1747 1.386 . S
C1746 C1748 1.391 . S
C1747 C1746 1.386 . S
C1747 C1751 1.393 . S
C1748 H1737 0.950 1_455 S
C1748 C1746 1.391 . S
C1748 C1749 1.400 . S
C1749 C1743 1.491 . S
C1749 C1748 1.400 . S
C1749 C1750 1.398 . S
C1750 H1738 0.950 . S
C1750 C1749 1.398 . S
C1750 C1751 1.391 . S
C1751 H1739 0.950 . S
C1751 C1747 1.393 . S
C1751 C1750 1.391 . S
H1752 C1760 0.950 . S
H1753 C1765 0.950 . S
H1754 C1762 0.950 . S
H1755 C1764 0.950 . S
H1756 C1766 0.950 . S
H1757 C1768 0.950 . S
H1758 C1770 0.950 . S
H1759 C1771 0.950 . S
C1760 H1752 0.950 . S
C1760 C1761 1.386 . S
C1760 C1762 1.391 . S
C1761 C1760 1.386 . S
C1761 C1765 1.393 . S
C1762 H1754 0.950 . S
C1762 C1760 1.391 . S
C1762 C1763 1.400 . S
C1763 C1762 1.400 . S
C1763 C1764 1.398 . S
C1763 C1769 1.491 . S
C1764 H1755 0.950 . S
C1764 C1763 1.398 . S
C1764 C1765 1.391 . S
C1765 H1753 0.950 . S
C1765 C1761 1.393 . S
C1765 C1764 1.391 . S
C1766 H1756 0.950 . S
C1766 C1767 1.386 . S
C1766 C1768 1.391 . S
C1767 C1766 1.386 . S
C1767 C1771 1.393 . S
C1768 H1757 0.950 . S
C1768 C1766 1.391 . S
C1768 C1769 1.400 . S
C1769 C1763 1.491 . S
C1769 C1768 1.400 . S
C1769 C1770 1.398 . S
C1770 H1758 0.950 . S
C1770 C1769 1.398 . S
C1770 C1771 1.391 . S
C1771 H1759 0.950 . S
C1771 C1767 1.393 . S
C1771 C1770 1.391 . S
H1772 C1780 0.950 . S
H1773 C1785 0.950 . S
H1774 C1782 0.950 . S
H1775 C1784 0.950 . S
H1776 C1786 0.950 . S
H1777 C1788 0.950 . S
H1778 C1790 0.950 . S
H1779 C1791 0.950 . S
C1780 H1772 0.950 . S
C1780 C1781 1.386 . S
C1780 C1782 1.391 . S
C1781 C1780 1.386 . S
C1781 C1785 1.393 . S
C1782 H1774 0.950 . S
C1782 C1780 1.391 . S
C1782 C1783 1.400 . S
C1783 C1782 1.400 . S
C1783 C1784 1.398 . S
C1783 C1789 1.491 . S
C1784 H1775 0.950 . S
C1784 C1783 1.398 . S
C1784 C1785 1.391 . S
C1785 H1773 0.950 . S
C1785 C1781 1.393 . S
C1785 C1784 1.391 . S
C1786 H1776 0.950 . S
C1786 C1787 1.386 . S
C1786 C1788 1.391 . S
C1787 C1786 1.386 . S
C1787 C1791 1.393 . S
C1788 H1777 0.950 . S
C1788 C1786 1.391 . S
C1788 C1789 1.400 . S
C1789 C1783 1.491 . S
C1789 C1788 1.400 . S
C1789 C1790 1.398 . S
C1790 H1778 0.950 . S
C1790 C1789 1.398 . S
C1790 C1791 1.391 . S
C1791 H1779 0.950 . S
C1791 C1787 1.393 . S
C1791 C1790 1.391 . S
H1792 C1800 0.950 . S
H1793 C1805 0.950 . S
H1794 C1802 0.950 . S
H1795 C1804 0.950 . S
H1796 C1806 0.950 . S
H1797 C1808 0.950 . S
H1798 C1810 0.950 . S
H1799 C1811 0.950 . S
C1800 H1792 0.950 . S
C1800 C1801 1.388 . S
C1800 C1802 1.391 . S
C1801 C1800 1.388 . S
C1801 C1805 1.391 1_565 S
C1802 H1794 0.950 . S
C1802 C1800 1.391 . S
C1802 C1803 1.447 . S
C1803 C1802 1.447 . S
C1803 C1804 1.356 1_565 S
C1803 C1809 1.488 . S
C1804 H1795 0.950 . S
C1804 C1803 1.356 1_545 S
C1804 C1805 1.391 . S
C1805 H1793 0.950 . S
C1805 C1801 1.391 1_545 S
C1805 C1804 1.391 . S
C1806 H1796 0.950 . S
C1806 C1807 1.386 1_545 S
C1806 C1808 1.391 . S
C1807 C1806 1.386 1_565 S
C1807 C1811 1.393 . S
C1808 H1797 0.950 . S
C1808 C1806 1.391 . S
C1808 C1809 1.400 1_545 S
C1809 C1803 1.488 . S
C1809 C1808 1.400 1_565 S
C1809 C1810 1.398 . S
C1810 H1798 0.950 . S
C1810 C1809 1.398 . S
C1810 C1811 1.391 . S
C1811 H1799 0.950 . S
C1811 C1807 1.393 . S
C1811 C1810 1.391 . S
H1812 C1820 0.950 . S
H1813 C1825 0.950 . S
H1814 C1822 0.950 . S
H1815 C1824 0.950 . S
H1816 C1826 0.950 . S
H1817 C1828 0.950 . S
H1818 C1830 0.950 . S
H1819 C1831 0.950 . S
C1820 H1812 0.950 . S
C1820 C1821 1.386 . S
C1820 C1822 1.391 . S
C1821 C1820 1.386 . S
C1821 C1825 1.393 . S
C1822 H1814 0.950 . S
C1822 C1820 1.391 . S
C1822 C1823 1.400 . S
C1823 C1822 1.400 . S
C1823 C1824 1.398 . S
C1823 C1829 1.491 . S
C1824 H1815 0.950 . S
C1824 C1823 1.398 . S
C1824 C1825 1.391 . S
C1825 H1813 0.950 . S
C1825 C1821 1.393 . S
C1825 C1824 1.391 . S
C1826 H1816 0.950 . S
C1826 C1827 1.386 . S
C1826 C1828 1.391 . S
C1827 C1826 1.386 . S
C1827 C1831 1.393 . S
C1828 H1817 0.950 . S
C1828 C1826 1.391 . S
C1828 C1829 1.400 . S
C1829 C1823 1.491 . S
C1829 C1828 1.400 . S
C1829 C1830 1.398 . S
C1830 H1818 0.950 . S
C1830 C1829 1.398 . S
C1830 C1831 1.391 . S
C1831 H1819 0.950 . S
C1831 C1827 1.393 . S
C1831 C1830 1.391 . S
H1832 C1840 0.950 . S
H1833 C1845 0.950 . S
H1834 C1842 0.950 . S
H1835 C1844 0.950 . S
H1836 C1846 0.950 . S
H1837 C1848 0.950 . S
H1838 C1850 0.950 . S
H1839 C1851 0.950 . S
C1840 H1832 0.950 . S
C1840 C1841 1.386 . S
C1840 C1842 1.391 . S
C1841 C1840 1.386 . S
C1841 C1845 1.393 . S
C1842 H1834 0.950 . S
C1842 C1840 1.391 . S
C1842 C1843 1.400 . S
C1843 C1842 1.400 . S
C1843 C1844 1.398 . S
C1843 C1849 1.491 . S
C1844 H1835 0.950 . S
C1844 C1843 1.398 . S
C1844 C1845 1.391 . S
C1845 H1833 0.950 . S
C1845 C1841 1.393 . S
C1845 C1844 1.391 . S
C1846 H1836 0.950 . S
C1846 C1847 1.386 . S
C1846 C1848 1.391 . S
C1847 C1846 1.386 . S
C1847 C1851 1.393 . S
C1848 H1837 0.950 . S
C1848 C1846 1.391 . S
C1848 C1849 1.400 . S
C1849 C1843 1.491 . S
C1849 C1848 1.400 . S
C1849 C1850 1.398 . S
C1850 H1838 0.950 . S
C1850 C1849 1.398 . S
C1850 C1851 1.391 . S
C1851 H1839 0.950 . S
C1851 C1847 1.393 . S
C1851 C1850 1.391 . S
H1852 C1860 0.950 . S
H1853 C1865 0.960 . S
H1854 C1862 0.950 . S
H1855 C1864 0.950 . S
H1856 C1866 0.950 . S
H1857 C1868 0.950 . S
H1858 C1870 0.950 . S
H1859 C1871 0.950 . S
C1860 H1852 0.950 . S
C1860 C1861 1.386 . S
C1860 C1862 1.391 . S
C1861 C1860 1.386 . S
C1861 C1865 1.393 . S
C1862 H1854 0.950 . S
C1862 C1860 1.391 . S
C1862 C1863 1.400 . S
C1863 C1862 1.400 . S
C1863 C1864 1.398 . S
C1863 C1869 1.491 . S
C1864 H1855 0.950 . S
C1864 C1863 1.398 . S
C1864 C1865 1.391 . S
C1865 H1853 0.960 . S
C1865 C1861 1.393 . S
C1865 C1864 1.391 . S
C1866 H1856 0.950 . S
C1866 C1867 1.386 . S
C1866 C1868 1.391 . S
C1867 C1866 1.386 . S
C1867 C1871 1.393 . S
C1868 H1857 0.950 . S
C1868 C1866 1.391 . S
C1868 C1869 1.400 . S
C1869 C1863 1.491 . S
C1869 C1868 1.400 . S
C1869 C1870 1.398 . S
C1870 H1858 0.950 . S
C1870 C1869 1.398 . S
C1870 C1871 1.391 . S
C1871 H1859 0.950 . S
C1871 C1867 1.393 . S
C1871 C1870 1.391 . S
H1872 C1880 0.950 . S
H1873 C1885 0.950 . S
H1874 C1882 0.950 . S
H1875 C1884 0.950 . S
H1876 C1886 0.950 . S
H1877 C1888 0.950 . S
H1878 C1890 0.950 . S
H1879 C1891 0.950 . S
C1880 H1872 0.950 . S
C1880 C1881 1.386 . S
C1880 C1882 1.391 . S
C1881 C1880 1.386 . S
C1881 C1885 1.393 . S
C1882 H1874 0.950 . S
C1882 C1880 1.391 . S
C1882 C1883 1.400 . S
C1883 C1882 1.400 . S
C1883 C1884 1.398 . S
C1883 C1889 1.491 . S
C1884 H1875 0.950 . S
C1884 C1883 1.398 . S
C1884 C1885 1.391 . S
C1885 H1873 0.950 . S
C1885 C1881 1.393 . S
C1885 C1884 1.391 . S
C1886 H1876 0.950 . S
C1886 C1887 1.386 . S
C1886 C1888 1.391 . S
C1887 C1886 1.386 . S
C1887 C1891 1.393 . S
C1888 H1877 0.950 . S
C1888 C1886 1.391 . S
C1888 C1889 1.400 . S
C1889 C1883 1.491 . S
C1889 C1888 1.400 . S
C1889 C1890 1.398 . S
C1890 H1878 0.950 . S
C1890 C1889 1.398 . S
C1890 C1891 1.391 . S
C1891 H1879 0.950 . S
C1891 C1887 1.393 . S
C1891 C1890 1.391 . S
H1892 C1900 0.950 . S
H1893 C1905 0.950 . S
H1894 C1902 0.950 . S
H1895 C1904 0.950 . S
H1896 C1906 0.950 . S
H1897 C1908 0.950 . S
H1898 C1910 0.950 . S
H1899 C1911 0.950 . S
C1900 H1892 0.950 . S
C1900 C1901 1.402 . S
C1900 C1902 1.391 . S
C1901 C1900 1.402 . S
C1901 C1905 1.378 1_554 S
C1902 H1894 0.950 . S
C1902 C1900 1.391 . S
C1902 C1903 1.374 1_554 S
C1903 C1902 1.374 1_556 S
C1903 C1904 1.426 . S
C1903 C1909 1.489 . S
C1904 H1895 0.950 . S
C1904 C1903 1.426 . S
C1904 C1905 1.391 . S
C1905 H1893 0.950 . S
C1905 C1901 1.378 1_556 S
C1905 C1904 1.391 . S
C1906 H1896 0.950 . S
C1906 C1907 1.386 . S
C1906 C1908 1.391 . S
C1907 C1906 1.386 . S
C1907 C1911 1.393 1_556 S
C1908 H1897 0.950 . S
C1908 C1906 1.391 . S
C1908 C1909 1.400 . S
C1909 C1903 1.489 . S
C1909 C1908 1.400 . S
C1909 C1910 1.398 1_556 S
C1910 H1898 0.950 . S
C1910 C1909 1.398 1_554 S
C1910 C1911 1.391 . S
C1911 H1899 0.950 . S
C1911 C1907 1.393 1_554 S
C1911 C1910 1.391 . S
H1912 C1920 0.950 . S
H1913 C1925 0.950 . S
H1914 C1922 0.950 . S
H1915 C1924 0.950 . S
H1916 C1926 0.950 . S
H1917 C1928 0.950 . S
H1918 C1930 0.950 . S
H1919 C1931 0.950 . S
C1920 H1912 0.950 . S
C1920 C1921 1.386 . S
C1920 C1922 1.391 . S
C1921 C1920 1.386 . S
C1921 C1925 1.393 . S
C1922 H1914 0.950 . S
C1922 C1920 1.391 . S
C1922 C1923 1.400 . S
C1923 C1922 1.400 . S
C1923 C1924 1.398 . S
C1923 C1929 1.491 . S
C1924 H1915 0.950 . S
C1924 C1923 1.398 . S
C1924 C1925 1.391 . S
C1925 H1913 0.950 . S
C1925 C1921 1.393 . S
C1925 C1924 1.391 . S
C1926 H1916 0.950 . S
C1926 C1927 1.386 . S
C1926 C1928 1.391 . S
C1927 C1926 1.386 . S
C1927 C1931 1.393 . S
C1928 H1917 0.950 . S
C1928 C1926 1.391 . S
C1928 C1929 1.400 . S
C1929 C1923 1.491 . S
C1929 C1928 1.400 . S
C1929 C1930 1.398 . S
C1930 H1918 0.950 . S
C1930 C1929 1.398 . S
C1930 C1931 1.391 . S
C1931 H1919 0.950 . S
C1931 C1927 1.393 . S
C1931 C1930 1.391 . S
H1932 C1940 0.950 . S
H1933 C1945 0.950 . S
H1934 C1942 0.950 . S
H1935 C1944 0.950 . S
H1936 C1946 0.950 . S
H1937 C1948 0.950 . S
H1938 C1950 0.950 . S
H1939 C1951 0.950 . S
C1940 H1932 0.950 . S
C1940 C1941 1.386 . S
C1940 C1942 1.391 . S
C1941 C1940 1.386 . S
C1941 C1945 1.393 . S
C1942 H1934 0.950 . S
C1942 C1940 1.391 . S
C1942 C1943 1.400 . S
C1943 C1942 1.400 . S
C1943 C1944 1.398 . S
C1943 C1949 1.491 . S
C1944 H1935 0.950 . S
C1944 C1943 1.398 . S
C1944 C1945 1.391 . S
C1945 H1933 0.950 . S
C1945 C1941 1.393 . S
C1945 C1944 1.391 . S
C1946 H1936 0.950 . S
C1946 C1947 1.386 . S
C1946 C1948 1.391 . S
C1947 C1946 1.386 . S
C1947 C1951 1.393 . S
C1948 H1937 0.950 . S
C1948 C1946 1.391 . S
C1948 C1949 1.400 . S
C1949 C1943 1.491 . S
C1949 C1948 1.400 . S
C1949 C1950 1.398 . S
C1950 H1938 0.950 . S
C1950 C1949 1.398 . S
C1950 C1951 1.391 . S
C1951 H1939 0.950 . S
C1951 C1947 1.393 . S
C1951 C1950 1.391 . S
H1952 C1960 0.950 . S
H1953 C1965 0.950 . S
H1954 C1962 0.950 . S
H1955 C1964 0.950 . S
H1956 C1966 0.950 . S
H1957 C1968 0.950 . S
H1958 C1970 0.950 . S
H1959 C1971 0.950 . S
C1960 H1952 0.950 . S
C1960 C1961 1.386 . S
C1960 C1962 1.391 . S
C1961 C1960 1.386 . S
C1961 C1965 1.393 . S
C1962 H1954 0.950 . S
C1962 C1960 1.391 . S
C1962 C1963 1.400 . S
C1963 C1962 1.400 . S
C1963 C1964 1.398 . S
C1963 C1969 1.491 . S
C1964 H1955 0.950 . S
C1964 C1963 1.398 . S
C1964 C1965 1.391 . S
C1965 H1953 0.950 . S
C1965 C1961 1.393 . S
C1965 C1964 1.391 . S
C1966 H1956 0.950 . S
C1966 C1967 1.386 . S
C1966 C1968 1.391 . S
C1967 C1966 1.386 . S
C1967 C1971 1.393 . S
C1968 H1957 0.950 . S
C1968 C1966 1.391 . S
C1968 C1969 1.400 . S
C1969 C1963 1.491 . S
C1969 C1968 1.400 . S
C1969 C1970 1.398 . S
C1970 H1958 0.950 . S
C1970 C1969 1.398 . S
C1970 C1971 1.391 . S
C1971 H1959 0.950 . S
C1971 C1967 1.393 . S
C1971 C1970 1.391 . S
H1972 C1980 0.950 . S
H1973 C1985 0.954 . S
H1974 C1982 0.950 . S
H1975 C1984 0.954 . S
H1976 C1986 0.950 . S
H1977 C1988 0.950 . S
H1978 C1990 0.957 . S
H1979 C1991 0.962 . S
C1980 H1972 0.950 . S
C1980 C1981 1.395 . S
C1980 C1982 1.391 . S
C1981 C1980 1.395 . S
C1981 C1985 1.386 1_455 S
C1982 H1974 0.950 . S
C1982 C1980 1.391 . S
C1982 C1983 1.398 1_455 S
C1983 C1982 1.398 1_655 S
C1983 C1984 1.396 . S
C1983 C1989 1.490 . S
C1984 H1975 0.954 . S
C1984 C1983 1.396 . S
C1984 C1985 1.392 . S
C1985 H1973 0.954 . S
C1985 C1981 1.386 1_655 S
C1985 C1984 1.392 . S
C1986 H1976 0.950 . S
C1986 C1987 1.386 . S
C1986 C1988 1.391 . S
C1987 C1986 1.386 . S
C1987 C1991 1.393 . S
C1988 H1977 0.950 . S
C1988 C1986 1.391 . S
C1988 C1989 1.400 . S
C1989 C1983 1.490 . S
C1989 C1988 1.400 . S
C1989 C1990 1.398 . S
C1990 H1978 0.957 . S
C1990 C1989 1.398 . S
C1990 C1991 1.391 . S
C1991 H1979 0.962 . S
C1991 C1987 1.393 . S
C1991 C1990 1.391 . S
H1992 C2000 0.950 . S
H1993 C2005 0.950 . S
H1994 C2002 0.950 . S
H1995 C2004 0.950 . S
H1996 C2006 0.950 . S
H1997 C2008 0.950 . S
H1998 C2010 0.950 . S
H1999 C2011 0.950 . S
C2000 H1992 0.950 . S
C2000 C2001 1.386 . S
C2000 C2002 1.391 . S
C2001 C2000 1.386 . S
C2001 C2005 1.393 . S
C2002 H1994 0.950 . S
C2002 C2000 1.391 . S
C2002 C2003 1.400 . S
C2003 C2002 1.400 . S
C2003 C2004 1.398 . S
C2003 C2009 1.491 . S
C2004 H1995 0.950 . S
C2004 C2003 1.398 . S
C2004 C2005 1.391 . S
C2005 H1993 0.950 . S
C2005 C2001 1.393 . S
C2005 C2004 1.391 . S
C2006 H1996 0.950 . S
C2006 C2007 1.386 . S
C2006 C2008 1.391 . S
C2007 C2006 1.386 . S
C2007 C2011 1.393 . S
C2008 H1997 0.950 . S
C2008 C2006 1.391 . S
C2008 C2009 1.400 . S
C2009 C2003 1.491 . S
C2009 C2008 1.400 . S
C2009 C2010 1.398 . S
C2010 H1998 0.950 . S
C2010 C2009 1.398 . S
C2010 C2011 1.391 . S
C2011 H1999 0.950 . S
C2011 C2007 1.393 . S
C2011 C2010 1.391 . S
H2012 C2020 0.950 . S
H2013 C2025 0.950 . S
H2014 C2022 0.950 . S
H2015 C2024 0.950 . S
H2016 C2026 0.950 . S
H2017 C2028 0.950 . S
H2018 C2030 0.950 . S
H2019 C2031 0.950 . S
C2020 H2012 0.950 . S
C2020 C2021 1.386 . S
C2020 C2022 1.391 . S
C2021 C2020 1.386 . S
C2021 C2025 1.393 . S
C2022 H2014 0.950 . S
C2022 C2020 1.391 . S
C2022 C2023 1.400 . S
C2023 C2022 1.400 . S
C2023 C2024 1.398 . S
C2023 C2029 1.491 . S
C2024 H2015 0.950 . S
C2024 C2023 1.398 . S
C2024 C2025 1.391 . S
C2025 H2013 0.950 . S
C2025 C2021 1.393 . S
C2025 C2024 1.391 . S
C2026 H2016 0.950 . S
C2026 C2027 1.386 . S
C2026 C2028 1.391 . S
C2027 C2026 1.386 . S
C2027 C2031 1.393 . S
C2028 H2017 0.950 . S
C2028 C2026 1.391 . S
C2028 C2029 1.400 . S
C2029 C2023 1.491 . S
C2029 C2028 1.400 . S
C2029 C2030 1.398 . S
C2030 H2018 0.950 . S
C2030 C2029 1.398 . S
C2030 C2031 1.391 . S
C2031 H2019 0.950 . S
C2031 C2027 1.393 . S
C2031 C2030 1.391 . S
H2032 C2040 0.950 . S
H2033 C2045 0.950 . S
H2034 C2042 0.950 . S
H2035 C2044 0.950 . S
H2036 C2046 0.950 . S
H2037 C2048 0.950 . S
H2038 C2050 0.950 . S
H2039 C2051 0.950 . S
C2040 H2032 0.950 . S
C2040 C2041 1.366 1_545 S
C2040 C2042 1.391 . S
C2041 C2040 1.366 1_565 S
C2041 C2045 1.416 . S
C2042 H2034 0.950 . S
C2042 C2040 1.391 . S
C2042 C2043 1.411 . S
C2043 C2042 1.411 . S
C2043 C2044 1.388 1_545 S
C2043 C2049 1.490 . S
C2044 H2035 0.950 . S
C2044 C2043 1.388 1_565 S
C2044 C2045 1.391 . S
C2045 H2033 0.950 . S
C2045 C2041 1.416 . S
C2045 C2044 1.391 . S
C2046 H2036 0.950 . S
C2046 C2047 1.386 1_565 S
C2046 C2048 1.391 . S
C2047 C2046 1.386 1_545 S
C2047 C2051 1.393 . S
C2048 H2037 0.950 . S
C2048 C2046 1.391 . S
C2048 C2049 1.400 1_565 S
C2049 C2043 1.490 . S
C2049 C2048 1.400 1_545 S
C2049 C2050 1.398 . S
C2050 H2038 0.950 . S
C2050 C2049 1.398 . S
C2050 C2051 1.391 . S
C2051 H2039 0.950 . S
C2051 C2047 1.393 . S
C2051 C2050 1.391 . S
H2052 C2060 0.950 . S
H2053 C2065 0.950 . S
H2054 C2062 0.950 . S
H2055 C2064 0.950 . S
H2056 C2066 0.950 . S
H2057 C2068 0.950 . S
H2058 C2070 0.950 . S
H2059 C2071 0.950 . S
C2060 H2052 0.950 . S
C2060 C2061 1.386 . S
C2060 C2062 1.391 . S
C2061 C2060 1.386 . S
C2061 C2065 1.393 . S
C2062 H2054 0.950 . S
C2062 C2060 1.391 . S
C2062 C2063 1.400 . S
C2063 C2062 1.400 . S
C2063 C2064 1.398 . S
C2063 C2069 1.491 . S
C2064 H2055 0.950 . S
C2064 C2063 1.398 . S
C2064 C2065 1.391 . S
C2065 H2053 0.950 . S
C2065 C2061 1.393 . S
C2065 C2064 1.391 . S
C2066 H2056 0.950 . S
C2066 C2067 1.386 . S
C2066 C2068 1.391 . S
C2067 C2066 1.386 . S
C2067 C2071 1.393 . S
C2068 H2057 0.950 . S
C2068 C2066 1.391 . S
C2068 C2069 1.400 . S
C2069 C2063 1.491 . S
C2069 C2068 1.400 . S
C2069 C2070 1.398 . S
C2070 H2058 0.950 . S
C2070 C2069 1.398 . S
C2070 C2071 1.391 . S
C2071 H2059 0.950 . S
C2071 C2067 1.393 . S
C2071 C2070 1.391 . S
H2072 C2080 0.950 . S
H2073 C2085 0.950 . S
H2074 C2082 0.950 . S
H2075 C2084 0.950 . S
H2076 C2086 0.950 . S
H2077 C2088 0.950 . S
H2078 C2090 0.950 . S
H2079 C2091 0.950 . S
C2080 H2072 0.950 . S
C2080 C2081 1.386 . S
C2080 C2082 1.391 . S
C2081 C2080 1.386 . S
C2081 C2085 1.393 . S
C2082 H2074 0.950 . S
C2082 C2080 1.391 . S
C2082 C2083 1.400 . S
C2083 C2082 1.400 . S
C2083 C2084 1.398 . S
C2083 C2089 1.491 . S
C2084 H2075 0.950 . S
C2084 C2083 1.398 . S
C2084 C2085 1.391 . S
C2085 H2073 0.950 . S
C2085 C2081 1.393 . S
C2085 C2084 1.391 . S
C2086 H2076 0.950 . S
C2086 C2087 1.386 . S
C2086 C2088 1.391 . S
C2087 C2086 1.386 . S
C2087 C2091 1.393 . S
C2088 H2077 0.950 . S
C2088 C2086 1.391 . S
C2088 C2089 1.400 . S
C2089 C2083 1.491 . S
C2089 C2088 1.400 . S
C2089 C2090 1.398 . S
C2090 H2078 0.950 . S
C2090 C2089 1.398 . S
C2090 C2091 1.391 . S
C2091 H2079 0.950 . S
C2091 C2087 1.393 . S
C2091 C2090 1.391 . S
H2092 C2100 0.950 . S
H2093 C2105 0.950 . S
H2094 C2102 0.950 . S
H2095 C2104 0.950 . S
H2096 C2106 0.950 . S
H2097 C2108 0.950 . S
H2098 C2110 0.950 . S
H2099 C2111 0.950 . S
C2100 H2092 0.950 . S
C2100 C2101 1.386 . S
C2100 C2102 1.391 . S
C2101 C2100 1.386 . S
C2101 C2105 1.393 . S
C2102 H2094 0.950 . S
C2102 C2100 1.391 . S
C2102 C2103 1.400 . S
C2103 C2102 1.400 . S
C2103 C2104 1.398 . S
C2103 C2109 1.491 . S
C2104 H2095 0.950 . S
C2104 C2103 1.398 . S
C2104 C2105 1.391 . S
C2105 H2093 0.950 . S
C2105 C2101 1.393 . S
C2105 C2104 1.391 . S
C2106 H2096 0.950 . S
C2106 C2107 1.386 . S
C2106 C2108 1.391 . S
C2107 C2106 1.386 . S
C2107 C2111 1.393 . S
C2108 H2097 0.950 . S
C2108 C2106 1.391 . S
C2108 C2109 1.400 . S
C2109 C2103 1.491 . S
C2109 C2108 1.400 . S
C2109 C2110 1.398 . S
C2110 H2098 0.950 . S
C2110 C2109 1.398 . S
C2110 C2111 1.391 . S
C2111 H2099 0.950 . S
C2111 C2107 1.393 . S
C2111 C2110 1.391 . S
H2112 C2120 0.950 . S
H2113 C2125 0.950 . S
H2114 C2122 0.950 . S
H2115 C2124 0.950 . S
H2116 C2126 0.950 . S
H2117 C2128 0.950 . S
H2118 C2130 0.950 . S
H2119 C2131 0.950 . S
C2120 H2112 0.950 . S
C2120 C2121 1.386 . S
C2120 C2122 1.391 . S
C2121 C2120 1.386 . S
C2121 C2125 1.393 . S
C2122 H2114 0.950 . S
C2122 C2120 1.391 . S
C2122 C2123 1.400 . S
C2123 C2122 1.400 . S
C2123 C2124 1.398 . S
C2123 C2129 1.491 . S
C2124 H2115 0.950 . S
C2124 C2123 1.398 . S
C2124 C2125 1.391 . S
C2125 H2113 0.950 . S
C2125 C2121 1.393 . S
C2125 C2124 1.391 . S
C2126 H2116 0.950 . S
C2126 C2127 1.386 . S
C2126 C2128 1.391 . S
C2127 C2126 1.386 . S
C2127 C2131 1.393 . S
C2128 H2117 0.950 . S
C2128 C2126 1.391 . S
C2128 C2129 1.400 . S
C2129 C2123 1.491 . S
C2129 C2128 1.400 . S
C2129 C2130 1.398 . S
C2130 H2118 0.950 . S
C2130 C2129 1.398 . S
C2130 C2131 1.391 . S
C2131 H2119 0.950 . S
C2131 C2127 1.393 . S
C2131 C2130 1.391 . S
H2132 C2140 0.950 . S
H2133 C2145 0.950 . S
H2134 C2142 0.950 . S
H2135 C2144 0.950 . S
H2136 C2146 0.950 . S
H2137 C2148 0.950 . S
H2138 C2150 0.950 . S
H2139 C2151 0.950 . S
C2140 H2132 0.950 . S
C2140 C2141 1.397 . S
C2140 C2142 1.391 . S
C2141 C2140 1.397 . S
C2141 C2145 1.386 1_556 S
C2142 H2134 0.950 . S
C2142 C2140 1.391 . S
C2142 C2143 1.396 1_556 S
C2143 C2142 1.396 1_554 S
C2143 C2144 1.404 . S
C2143 C2149 1.490 . S
C2144 H2135 0.950 . S
C2144 C2143 1.404 . S
C2144 C2145 1.391 . S
C2145 H2133 0.950 . S
C2145 C2141 1.386 1_554 S
C2145 C2144 1.391 . S
C2146 H2136 0.950 . S
C2146 C2147 1.386 . S
C2146 C2148 1.391 . S
C2147 C2146 1.386 . S
C2147 C2151 1.393 1_554 S
C2148 H2137 0.950 . S
C2148 C2146 1.391 . S
C2148 C2149 1.400 . S
C2149 C2143 1.490 . S
C2149 C2148 1.400 . S
C2149 C2150 1.398 1_554 S
C2150 H2138 0.950 . S
C2150 C2149 1.398 1_556 S
C2150 C2151 1.391 . S
C2151 H2139 0.950 . S
C2151 C2147 1.393 1_556 S
C2151 C2150 1.391 . S
H2152 C2160 0.950 . S
H2153 C2165 0.950 . S
H2154 C2162 0.950 . S
H2155 C2164 0.950 . S
H2156 C2166 0.950 . S
H2157 C2168 0.950 . S
H2158 C2170 0.950 . S
H2159 C2171 0.950 . S
C2160 H2152 0.950 . S
C2160 C2161 1.386 . S
C2160 C2162 1.391 . S
C2161 C2160 1.386 . S
C2161 C2165 1.393 . S
C2162 H2154 0.950 . S
C2162 C2160 1.391 . S
C2162 C2163 1.400 . S
C2163 C2162 1.400 . S
C2163 C2164 1.398 . S
C2163 C2169 1.491 . S
C2164 H2155 0.950 . S
C2164 C2163 1.398 . S
C2164 C2165 1.391 . S
C2165 H2153 0.950 . S
C2165 C2161 1.393 . S
C2165 C2164 1.391 . S
C2166 H2156 0.950 . S
C2166 C2167 1.386 . S
C2166 C2168 1.391 . S
C2167 C2166 1.386 . S
C2167 C2171 1.393 . S
C2168 H2157 0.950 . S
C2168 C2166 1.391 . S
C2168 C2169 1.400 . S
C2169 C2163 1.491 . S
C2169 C2168 1.400 . S
C2169 C2170 1.398 . S
C2170 H2158 0.950 . S
C2170 C2169 1.398 . S
C2170 C2171 1.391 . S
C2171 H2159 0.950 . S
C2171 C2167 1.393 . S
C2171 C2170 1.391 . S
H2172 C2180 0.950 . S
H2173 C2185 0.950 . S
H2174 C2182 0.950 . S
H2175 C2184 0.950 . S
H2176 C2186 0.950 . S
H2177 C2188 0.950 . S
H2178 C2190 0.950 . S
H2179 C2191 0.950 . S
C2180 H2172 0.950 . S
C2180 C2181 1.386 . S
C2180 C2182 1.391 . S
C2181 C2180 1.386 . S
C2181 C2185 1.393 . S
C2182 H2174 0.950 . S
C2182 C2180 1.391 . S
C2182 C2183 1.400 . S
C2183 C2182 1.400 . S
C2183 C2184 1.398 . S
C2183 C2189 1.491 . S
C2184 H2175 0.950 . S
C2184 C2183 1.398 . S
C2184 C2185 1.391 . S
C2185 H2173 0.950 . S
C2185 C2181 1.393 . S
C2185 C2184 1.391 . S
C2186 H2176 0.950 . S
C2186 C2187 1.386 . S
C2186 C2188 1.391 . S
C2187 C2186 1.386 . S
C2187 C2191 1.393 . S
C2188 H2177 0.950 . S
C2188 C2186 1.391 . S
C2188 C2189 1.400 . S
C2189 C2183 1.491 . S
C2189 C2188 1.400 . S
C2189 C2190 1.398 . S
C2190 H2178 0.950 . S
C2190 C2189 1.398 . S
C2190 C2191 1.391 . S
C2191 H2179 0.950 . S
C2191 C2187 1.393 . S
C2191 C2190 1.391 . S
H2192 C2200 0.950 . S
H2193 C2205 0.950 . S
H2194 C2202 0.950 . S
H2195 C2204 0.950 . S
H2196 C2206 0.950 . S
H2197 C2208 0.950 . S
H2198 C2210 0.950 . S
H2199 C2211 0.950 . S
C2200 H2192 0.950 . S
C2200 C2201 1.386 . S
C2200 C2202 1.391 . S
C2201 C2200 1.386 . S
C2201 C2205 1.393 . S
C2202 H2194 0.950 . S
C2202 C2200 1.391 . S
C2202 C2203 1.400 . S
C2203 C2202 1.400 . S
C2203 C2204 1.398 . S
C2203 C2209 1.491 . S
C2204 H2195 0.950 . S
C2204 C2203 1.398 . S
C2204 C2205 1.391 . S
C2205 H2193 0.950 . S
C2205 C2201 1.393 . S
C2205 C2204 1.391 . S
C2206 H2196 0.950 . S
C2206 C2207 1.386 . S
C2206 C2208 1.391 . S
C2207 C2206 1.386 . S
C2207 C2211 1.393 . S
C2208 H2197 0.950 . S
C2208 C2206 1.391 . S
C2208 C2209 1.400 . S
C2209 C2203 1.491 . S
C2209 C2208 1.400 . S
C2209 C2210 1.398 . S
C2210 H2198 0.950 . S
C2210 C2209 1.398 . S
C2210 C2211 1.391 . S
C2211 H2199 0.950 . S
C2211 C2207 1.393 . S
C2211 C2210 1.391 . S
H2212 C2220 0.950 . S
H2213 C2225 0.950 . S
H2214 C2222 0.950 . S
H2215 C2224 0.950 . S
H2216 C2226 0.950 . S
H2217 C2228 0.950 . S
H2218 C2230 0.950 . S
H2219 C2231 0.950 . S
C2220 H2212 0.950 . S
C2220 C2221 1.367 1_655 S
C2220 C2222 1.391 . S
C2221 C2220 1.367 1_455 S
C2221 C2225 1.410 . S
C2222 H2214 0.950 . S
C2222 C2220 1.391 . S
C2222 C2223 1.400 1_655 S
C2223 C2222 1.400 1_455 S
C2223 C2224 1.398 . S
C2223 C2229 1.496 . S
C2224 H2215 0.950 . S
C2224 C2223 1.398 . S
C2224 C2225 1.391 . S
C2225 H2213 0.950 . S
C2225 C2221 1.410 . S
C2225 C2224 1.391 . S
C2226 H2216 0.950 . S
C2226 C2227 1.386 . S
C2226 C2228 1.391 . S
C2227 C2226 1.386 . S
C2227 C2231 1.393 1_455 S
C2228 H2217 0.950 . S
C2228 C2226 1.391 . S
C2228 C2229 1.436 . S
C2229 C2223 1.496 . S
C2229 C2228 1.436 . S
C2229 C2230 1.359 1_455 S
C2230 H2218 0.950 . S
C2230 C2229 1.359 1_655 S
C2230 C2231 1.391 . S
C2231 H2219 0.950 . S
C2231 C2227 1.393 1_655 S
C2231 C2230 1.391 . S
H2232 C2240 0.950 . S
H2233 C2245 0.950 . S
H2234 C2242 0.950 . S
H2235 C2244 0.950 . S
H2236 C2246 0.950 . S
H2237 C2248 0.950 . S
H2238 C2250 0.950 . S
H2239 C2251 0.950 . S
C2240 H2232 0.950 . S
C2240 C2241 1.386 . S
C2240 C2242 1.391 . S
C2241 C2240 1.386 . S
C2241 C2245 1.393 . S
C2242 H2234 0.950 . S
C2242 C2240 1.391 . S
C2242 C2243 1.400 . S
C2243 C2242 1.400 . S
C2243 C2244 1.398 . S
C2243 C2249 1.491 . S
C2244 H2235 0.950 . S
C2244 C2243 1.398 . S
C2244 C2245 1.391 . S
C2245 H2233 0.950 . S
C2245 C2241 1.393 . S
C2245 C2244 1.391 . S
C2246 H2236 0.950 . S
C2246 C2247 1.386 . S
C2246 C2248 1.391 . S
C2247 C2246 1.386 . S
C2247 C2251 1.393 . S
C2248 H2237 0.950 . S
C2248 C2246 1.391 . S
C2248 C2249 1.400 . S
C2249 C2243 1.491 . S
C2249 C2248 1.400 . S
C2249 C2250 1.398 . S
C2250 H2238 0.950 . S
C2250 C2249 1.398 . S
C2250 C2251 1.391 . S
C2251 H2239 0.950 . S
C2251 C2247 1.393 . S
C2251 C2250 1.391 . S
H2252 C2260 0.950 . S
H2253 C2265 0.950 . S
H2254 C2262 0.950 . S
H2255 C2264 0.950 . S
H2256 C2266 0.950 . S
H2257 C2268 0.950 . S
H2258 C2270 0.950 . S
H2259 C2271 0.950 . S
C2260 H2252 0.950 . S
C2260 C2261 1.386 . S
C2260 C2262 1.391 . S
C2261 C2260 1.386 . S
C2261 C2265 1.393 . S
C2262 H2254 0.950 . S
C2262 C2260 1.391 . S
C2262 C2263 1.400 . S
C2263 C2262 1.400 . S
C2263 C2264 1.398 . S
C2263 C2269 1.491 . S
C2264 H2255 0.950 . S
C2264 C2263 1.398 . S
C2264 C2265 1.391 . S
C2265 H2253 0.950 . S
C2265 C2261 1.393 . S
C2265 C2264 1.391 . S
C2266 H2256 0.950 . S
C2266 C2267 1.386 . S
C2266 C2268 1.391 . S
C2267 C2266 1.386 . S
C2267 C2271 1.393 . S
C2268 H2257 0.950 . S
C2268 C2266 1.391 . S
C2268 C2269 1.400 . S
C2269 C2263 1.491 . S
C2269 C2268 1.400 . S
C2269 C2270 1.398 . S
C2270 H2258 0.950 . S
C2270 C2269 1.398 . S
C2270 C2271 1.391 . S
C2271 H2259 0.950 . S
C2271 C2267 1.393 . S
C2271 C2270 1.391 . S
H2272 C2280 0.950 . S
H2273 C2285 0.950 . S
H2274 C2282 0.950 . S
H2275 C2284 0.959 . S
H2276 C2286 0.950 . S
H2277 C2288 0.950 1_545 S
H2278 C2290 0.950 . S
H2279 C2291 0.950 . S
C2280 H2272 0.950 . S
C2280 C2281 1.386 . S
C2280 C2282 1.391 . S
C2281 C2280 1.386 . S
C2281 C2285 1.393 1_565 S
C2282 H2274 0.950 . S
C2282 C2280 1.391 . S
C2282 C2283 1.400 . S
C2283 C2282 1.400 . S
C2283 C2284 1.380 1_565 S
C2283 C2289 1.491 . S
C2284 H2275 0.959 . S
C2284 C2283 1.380 1_545 S
C2284 C2285 1.402 . S
C2285 H2273 0.950 . S
C2285 C2281 1.393 1_545 S
C2285 C2284 1.402 . S
C2286 H2276 0.950 . S
C2286 C2287 1.386 . S
C2286 C2288 1.391 . S
C2287 C2286 1.386 . S
C2287 C2291 1.393 . S
C2288 H2277 0.950 1_565 S
C2288 C2286 1.391 . S
C2288 C2289 1.400 . S
C2289 C2283 1.491 . S
C2289 C2288 1.400 . S
C2289 C2290 1.398 . S
C2290 H2278 0.950 . S
C2290 C2289 1.398 . S
C2290 C2291 1.391 . S
C2291 H2279 0.950 . S
C2291 C2287 1.393 . S
C2291 C2290 1.391 . S
H2292 C2300 0.950 . S
H2293 C2305 0.950 . S
H2294 C2302 0.950 . S
H2295 C2304 0.950 . S
H2296 C2306 0.950 . S
H2297 C2308 0.950 . S
H2298 C2310 0.950 . S
H2299 C2311 0.950 . S
C2300 H2292 0.950 . S
C2300 C2301 1.386 . S
C2300 C2302 1.391 . S
C2301 C2300 1.386 . S
C2301 C2305 1.393 1_545 S
C2302 H2294 0.950 . S
C2302 C2300 1.391 . S
C2302 C2303 1.400 . S
C2303 C2302 1.400 . S
C2303 C2304 1.398 1_545 S
C2303 C2309 1.491 . S
C2304 H2295 0.950 . S
C2304 C2303 1.398 1_565 S
C2304 C2305 1.391 . S
C2305 H2293 0.950 . S
C2305 C2301 1.393 1_565 S
C2305 C2304 1.391 . S
C2306 H2296 0.950 . S
C2306 C2307 1.386 1_565 S
C2306 C2308 1.391 . S
C2307 C2306 1.386 1_545 S
C2307 C2311 1.393 . S
C2308 H2297 0.950 . S
C2308 C2306 1.391 . S
C2308 C2309 1.400 1_565 S
C2309 C2303 1.491 . S
C2309 C2308 1.400 1_545 S
C2309 C2310 1.398 . S
C2310 H2298 0.950 . S
C2310 C2309 1.398 . S
C2310 C2311 1.391 . S
C2311 H2299 0.950 . S
C2311 C2307 1.393 . S
C2311 C2310 1.391 . S
H2312 C2320 0.950 . S
H2313 C2325 0.950 . S
H2314 C2322 0.950 . S
H2315 C2324 0.950 . S
H2316 C2326 0.950 . S
H2317 C2328 0.950 . S
H2318 C2330 0.950 . S
H2319 C2331 0.950 . S
C2320 H2312 0.950 . S
C2320 C2321 1.386 . S
C2320 C2322 1.391 . S
C2321 C2320 1.386 . S
C2321 C2325 1.393 . S
C2322 H2314 0.950 . S
C2322 C2320 1.391 . S
C2322 C2323 1.400 . S
C2323 C2322 1.400 . S
C2323 C2324 1.398 . S
C2323 C2329 1.491 . S
C2324 H2315 0.950 . S
C2324 C2323 1.398 . S
C2324 C2325 1.391 . S
C2325 H2313 0.950 . S
C2325 C2321 1.393 . S
C2325 C2324 1.391 . S
C2326 H2316 0.950 . S
C2326 C2327 1.386 . S
C2326 C2328 1.391 . S
C2327 C2326 1.386 . S
C2327 C2331 1.393 . S
C2328 H2317 0.950 . S
C2328 C2326 1.391 . S
C2328 C2329 1.400 . S
C2329 C2323 1.491 . S
C2329 C2328 1.400 . S
C2329 C2330 1.398 . S
C2330 H2318 0.950 . S
C2330 C2329 1.398 . S
C2330 C2331 1.391 . S
C2331 H2319 0.950 . S
C2331 C2327 1.393 . S
C2331 C2330 1.391 . S
H2332 C2340 0.950 . S
H2333 C2345 0.950 . S
H2334 C2342 0.950 . S
H2335 C2344 0.950 . S
H2336 C2346 0.950 . S
H2337 C2348 0.950 . S
H2338 C2350 0.950 . S
H2339 C2351 0.950 . S
C2340 H2332 0.950 . S
C2340 C2341 1.386 . S
C2340 C2342 1.391 . S
C2341 C2340 1.386 . S
C2341 C2345 1.393 . S
C2342 H2334 0.950 . S
C2342 C2340 1.391 . S
C2342 C2343 1.400 . S
C2343 C2342 1.400 . S
C2343 C2344 1.398 . S
C2343 C2349 1.491 . S
C2344 H2335 0.950 . S
C2344 C2343 1.398 . S
C2344 C2345 1.391 . S
C2345 H2333 0.950 . S
C2345 C2341 1.393 . S
C2345 C2344 1.391 . S
C2346 H2336 0.950 . S
C2346 C2347 1.386 . S
C2346 C2348 1.391 . S
C2347 C2346 1.386 . S
C2347 C2351 1.393 . S
C2348 H2337 0.950 . S
C2348 C2346 1.391 . S
C2348 C2349 1.400 . S
C2349 C2343 1.491 . S
C2349 C2348 1.400 . S
C2349 C2350 1.398 . S
C2350 H2338 0.950 . S
C2350 C2349 1.398 . S
C2350 C2351 1.391 . S
C2351 H2339 0.950 . S
C2351 C2347 1.393 . S
C2351 C2350 1.391 . S
H2352 C2360 0.950 . S
H2353 C2365 0.950 . S
H2354 C2362 0.950 . S
H2355 C2364 0.950 . S
H2356 C2366 0.950 . S
H2357 C2368 0.950 . S
H2358 C2370 0.950 . S
H2359 C2371 0.950 . S
C2360 H2352 0.950 . S
C2360 C2361 1.386 . S
C2360 C2362 1.391 . S
C2361 C2360 1.386 . S
C2361 C2365 1.393 . S
C2362 H2354 0.950 . S
C2362 C2360 1.391 . S
C2362 C2363 1.400 . S
C2363 C2362 1.400 . S
C2363 C2364 1.398 . S
C2363 C2369 1.491 . S
C2364 H2355 0.950 . S
C2364 C2363 1.398 . S
C2364 C2365 1.391 . S
C2365 H2353 0.950 . S
C2365 C2361 1.393 . S
C2365 C2364 1.391 . S
C2366 H2356 0.950 . S
C2366 C2367 1.386 . S
C2366 C2368 1.391 . S
C2367 C2366 1.386 . S
C2367 C2371 1.393 . S
C2368 H2357 0.950 . S
C2368 C2366 1.391 . S
C2368 C2369 1.400 . S
C2369 C2363 1.491 . S
C2369 C2368 1.400 . S
C2369 C2370 1.398 . S
C2370 H2358 0.950 . S
C2370 C2369 1.398 . S
C2370 C2371 1.391 . S
C2371 H2359 0.950 . S
C2371 C2367 1.393 . S
C2371 C2370 1.391 . S
H2372 C2380 0.950 . S
H2373 C2385 0.950 . S
H2374 C2382 0.950 . S
H2375 C2384 0.950 . S
H2376 C2386 0.950 1_554 S
H2377 C2388 0.988 . S
H2378 C2390 0.950 . S
H2379 C2391 0.950 . S
C2380 H2372 0.950 . S
C2380 C2381 1.427 . S
C2380 C2382 1.391 . S
C2381 C2380 1.427 . S
C2381 C2385 1.367 1_556 S
C2382 H2374 0.950 . S
C2382 C2380 1.391 . S
C2382 C2383 1.400 . S
C2383 C2382 1.400 . S
C2383 C2384 1.398 1_556 S
C2383 C2389 1.491 . S
C2384 H2375 0.950 . S
C2384 C2383 1.398 1_554 S
C2384 C2385 1.391 . S
C2385 H2373 0.950 . S
C2385 C2381 1.367 1_554 S
C2385 C2384 1.391 . S
C2386 H2376 0.950 1_556 S
C2386 C2387 1.386 . S
C2386 C2388 1.378 1_556 S
C2387 C2386 1.386 . S
C2387 C2391 1.393 . S
C2388 H2377 0.988 . S
C2388 C2386 1.378 1_554 S
C2388 C2389 1.378 1_554 S
C2389 C2383 1.491 . S
C2389 C2388 1.378 1_556 S
C2389 C2390 1.398 . S
C2390 H2378 0.950 . S
C2390 C2389 1.398 . S
C2390 C2391 1.391 . S
C2391 H2379 0.950 . S
C2391 C2387 1.393 . S
C2391 C2390 1.391 . S
H2392 C2400 0.950 . S
H2393 C2405 0.950 . S
H2394 C2402 0.950 . S
H2395 C2404 0.950 . S
H2396 C2406 0.950 . S
H2397 C2408 0.950 . S
H2398 C2410 0.950 . S
H2399 C2411 0.950 . S
C2400 H2392 0.950 . S
C2400 C2401 1.386 . S
C2400 C2402 1.391 . S
C2401 C2400 1.386 . S
C2401 C2405 1.393 . S
C2402 H2394 0.950 . S
C2402 C2400 1.391 . S
C2402 C2403 1.400 . S
C2403 C2402 1.400 . S
C2403 C2404 1.398 . S
C2403 C2409 1.491 . S
C2404 H2395 0.950 . S
C2404 C2403 1.398 . S
C2404 C2405 1.391 . S
C2405 H2393 0.950 . S
C2405 C2401 1.393 . S
C2405 C2404 1.391 . S
C2406 H2396 0.950 . S
C2406 C2407 1.386 . S
C2406 C2408 1.391 . S
C2407 C2406 1.386 . S
C2407 C2411 1.393 . S
C2408 H2397 0.950 . S
C2408 C2406 1.391 . S
C2408 C2409 1.400 . S
C2409 C2403 1.491 . S
C2409 C2408 1.400 . S
C2409 C2410 1.398 . S
C2410 H2398 0.950 . S
C2410 C2409 1.398 . S
C2410 C2411 1.391 . S
C2411 H2399 0.950 . S
C2411 C2407 1.393 . S
C2411 C2410 1.391 . S
H2412 C2420 0.950 . S
H2413 C2425 0.950 . S
H2414 C2422 0.950 . S
H2415 C2424 0.950 . S
H2416 C2426 0.950 . S
H2417 C2428 0.950 . S
H2418 C2430 0.950 . S
H2419 C2431 0.950 . S
C2420 H2412 0.950 . S
C2420 C2421 1.386 . S
C2420 C2422 1.391 . S
C2421 C2420 1.386 . S
C2421 C2425 1.393 1_455 S
C2422 H2414 0.950 . S
C2422 C2420 1.391 . S
C2422 C2423 1.400 . S
C2423 C2422 1.400 . S
C2423 C2424 1.398 1_455 S
C2423 C2429 1.491 . S
C2424 H2415 0.950 . S
C2424 C2423 1.398 1_655 S
C2424 C2425 1.391 . S
C2425 H2413 0.950 . S
C2425 C2421 1.393 1_655 S
C2425 C2424 1.391 . S
C2426 H2416 0.950 . S
C2426 C2427 1.386 1_655 S
C2426 C2428 1.391 . S
C2427 C2426 1.386 1_455 S
C2427 C2431 1.393 . S
C2428 H2417 0.950 . S
C2428 C2426 1.391 . S
C2428 C2429 1.400 1_655 S
C2429 C2423 1.491 . S
C2429 C2428 1.400 1_455 S
C2429 C2430 1.398 . S
C2430 H2418 0.950 . S
C2430 C2429 1.398 . S
C2430 C2431 1.391 . S
C2431 H2419 0.950 . S
C2431 C2427 1.393 . S
C2431 C2430 1.391 . S
H2432 C2440 0.950 . S
H2433 C2445 0.950 . S
H2434 C2442 0.950 . S
H2435 C2444 0.950 . S
H2436 C2446 0.950 . S
H2437 C2448 0.950 . S
H2438 C2450 0.950 . S
H2439 C2451 0.950 . S
C2440 H2432 0.950 . S
C2440 C2441 1.386 . S
C2440 C2442 1.391 . S
C2441 C2440 1.386 . S
C2441 C2445 1.393 . S
C2442 H2434 0.950 . S
C2442 C2440 1.391 . S
C2442 C2443 1.400 . S
C2443 C2442 1.400 . S
C2443 C2444 1.398 . S
C2443 C2449 1.491 . S
C2444 H2435 0.950 . S
C2444 C2443 1.398 . S
C2444 C2445 1.391 . S
C2445 H2433 0.950 . S
C2445 C2441 1.393 . S
C2445 C2444 1.391 . S
C2446 H2436 0.950 . S
C2446 C2447 1.386 . S
C2446 C2448 1.391 . S
C2447 C2446 1.386 . S
C2447 C2451 1.393 . S
C2448 H2437 0.950 . S
C2448 C2446 1.391 . S
C2448 C2449 1.400 . S
C2449 C2443 1.491 . S
C2449 C2448 1.400 . S
C2449 C2450 1.398 . S
C2450 H2438 0.950 . S
C2450 C2449 1.398 . S
C2450 C2451 1.391 . S
C2451 H2439 0.950 . S
C2451 C2447 1.393 . S
C2451 C2450 1.391 . S
H2452 C2460 0.950 . S
H2453 C2465 0.950 . S
H2454 C2462 0.950 . S
H2455 C2464 0.950 . S
H2456 C2466 0.938 1_455 S
H2457 C2468 0.950 1_455 S
H2458 C2470 0.950 . S
H2459 C2471 0.950 . S
C2460 H2452 0.950 . S
C2460 C2461 1.416 . S
C2460 C2462 1.391 . S
C2461 C2460 1.416 . S
C2461 C2465 1.377 1_655 S
C2462 H2454 0.950 . S
C2462 C2460 1.391 . S
C2462 C2463 1.400 . S
C2463 C2462 1.400 . S
C2463 C2464 1.398 1_655 S
C2463 C2469 1.491 . S
C2464 H2455 0.950 . S
C2464 C2463 1.398 1_455 S
C2464 C2465 1.391 . S
C2465 H2453 0.950 . S
C2465 C2461 1.377 1_455 S
C2465 C2464 1.391 . S
C2466 H2456 0.938 1_655 S
C2466 C2467 1.386 . S
C2466 C2468 1.391 . S
C2467 C2466 1.386 . S
C2467 C2471 1.393 . S
C2468 H2457 0.950 1_655 S
C2468 C2466 1.391 . S
C2468 C2469 1.400 . S
C2469 C2463 1.491 . S
C2469 C2468 1.400 . S
C2469 C2470 1.398 . S
C2470 H2458 0.950 . S
C2470 C2469 1.398 . S
C2470 C2471 1.391 . S
C2471 H2459 0.950 . S
C2471 C2467 1.393 . S
C2471 C2470 1.391 . S
H2472 C2480 0.950 . S
H2473 C2485 0.950 . S
H2474 C2482 0.950 . S
H2475 C2484 0.950 . S
H2476 C2486 0.950 . S
H2477 C2488 0.950 . S
H2478 C2490 0.950 . S
H2479 C2491 0.950 . S
C2480 H2472 0.950 . S
C2480 C2481 1.386 . S
C2480 C2482 1.391 . S
C2481 C2480 1.386 . S
C2481 C2485 1.393 . S
C2482 H2474 0.950 . S
C2482 C2480 1.391 . S
C2482 C2483 1.400 . S
C2483 C2482 1.400 . S
C2483 C2484 1.398 . S
C2483 C2489 1.491 . S
C2484 H2475 0.950 . S
C2484 C2483 1.398 . S
C2484 C2485 1.391 . S
C2485 H2473 0.950 . S
C2485 C2481 1.393 . S
C2485 C2484 1.391 . S
C2486 H2476 0.950 . S
C2486 C2487 1.386 . S
C2486 C2488 1.391 . S
C2487 C2486 1.386 . S
C2487 C2491 1.393 . S
C2488 H2477 0.950 . S
C2488 C2486 1.391 . S
C2488 C2489 1.400 . S
C2489 C2483 1.491 . S
C2489 C2488 1.400 . S
C2489 C2490 1.398 . S
C2490 H2478 0.950 . S
C2490 C2489 1.398 . S
C2490 C2491 1.391 . S
C2491 H2479 0.950 . S
C2491 C2487 1.393 . S
C2491 C2490 1.391 . S
H2492 C2500 0.950 . S
H2493 C2505 0.950 . S
H2494 C2502 0.950 . S
H2495 C2504 0.950 . S
H2496 C2506 0.950 . S
H2497 C2508 0.950 . S
H2498 C2510 0.950 . S
H2499 C2511 0.950 . S
C2500 H2492 0.950 . S
C2500 C2501 1.386 . S
C2500 C2502 1.391 . S
C2501 C2500 1.386 . S
C2501 C2505 1.393 . S
C2502 H2494 0.950 . S
C2502 C2500 1.391 . S
C2502 C2503 1.400 . S
C2503 C2502 1.400 . S
C2503 C2504 1.398 . S
C2503 C2509 1.491 . S
C2504 H2495 0.950 . S
C2504 C2503 1.398 . S
C2504 C2505 1.391 . S
C2505 H2493 0.950 . S
C2505 C2501 1.393 . S
C2505 C2504 1.391 . S
C2506 H2496 0.950 . S
C2506 C2507 1.386 . S
C2506 C2508 1.391 . S
C2507 C2506 1.386 . S
C2507 C2511 1.393 . S
C2508 H2497 0.950 . S
C2508 C2506 1.391 . S
C2508 C2509 1.400 . S
C2509 C2503 1.491 . S
C2509 C2508 1.400 . S
C2509 C2510 1.398 . S
C2510 H2498 0.950 . S
C2510 C2509 1.398 . S
C2510 C2511 1.391 . S
C2511 H2499 0.950 . S
C2511 C2507 1.393 . S
C2511 C2510 1.391 . S
H2512 C2520 0.950 . S
H2513 C2525 0.950 . S
H2514 C2522 0.950 1_565 S
H2515 C2524 0.950 . S
H2516 C2526 0.950 . S
H2517 C2528 0.950 . S
H2518 C2530 0.950 . S
H2519 C2531 0.950 . S
C2520 H2512 0.950 . S
C2520 C2521 1.385 1_565 S
C2520 C2522 1.391 1_565 S
C2521 C2520 1.385 1_545 S
C2521 C2525 1.407 . S
C2522 H2514 0.950 1_545 S
C2522 C2520 1.391 1_545 S
C2522 C2523 1.400 . S
C2523 C2522 1.400 . S
C2523 C2524 1.398 . S
C2523 C2529 1.491 . S
C2524 H2515 0.950 . S
C2524 C2523 1.398 . S
C2524 C2525 1.391 . S
C2525 H2513 0.950 . S
C2525 C2521 1.407 . S
C2525 C2524 1.391 . S
C2526 H2516 0.950 . S
C2526 C2527 1.386 . S
C2526 C2528 1.391 . S
C2527 C2526 1.386 . S
C2527 C2531 1.393 . S
C2528 H2517 0.950 . S
C2528 C2526 1.391 . S
C2528 C2529 1.400 . S
C2529 C2523 1.491 . S
C2529 C2528 1.400 . S
C2529 C2530 1.398 . S
C2530 H2518 0.950 . S
C2530 C2529 1.398 . S
C2530 C2531 1.391 . S
C2531 H2519 0.950 . S
C2531 C2527 1.393 . S
C2531 C2530 1.391 . S
H2532 C2540 0.950 . S
H2533 C2545 0.950 . S
H2534 C2542 0.950 . S
H2535 C2544 0.950 . S
H2536 C2546 0.950 . S
H2537 C2548 0.950 . S
H2538 C2550 0.950 . S
H2539 C2551 0.950 . S
C2540 H2532 0.950 . S
C2540 C2541 1.386 . S
C2540 C2542 1.391 . S
C2541 C2540 1.386 . S
C2541 C2545 1.393 . S
C2542 H2534 0.950 . S
C2542 C2540 1.391 . S
C2542 C2543 1.400 . S
C2543 C2542 1.400 . S
C2543 C2544 1.398 . S
C2543 C2549 1.491 . S
C2544 H2535 0.950 . S
C2544 C2543 1.398 . S
C2544 C2545 1.391 . S
C2545 H2533 0.950 . S
C2545 C2541 1.393 . S
C2545 C2544 1.391 . S
C2546 H2536 0.950 . S
C2546 C2547 1.386 . S
C2546 C2548 1.391 . S
C2547 C2546 1.386 . S
C2547 C2551 1.393 . S
C2548 H2537 0.950 . S
C2548 C2546 1.391 . S
C2548 C2549 1.400 . S
C2549 C2543 1.491 . S
C2549 C2548 1.400 . S
C2549 C2550 1.398 . S
C2550 H2538 0.950 . S
C2550 C2549 1.398 . S
C2550 C2551 1.391 . S
C2551 H2539 0.950 . S
C2551 C2547 1.393 . S
C2551 C2550 1.391 . S
H2552 C2560 0.950 . S
H2553 C2565 0.950 . S
H2554 C2562 0.950 . S
H2555 C2564 0.950 . S
H2556 C2566 0.950 . S
H2557 C2568 0.950 . S
H2558 C2570 0.950 . S
H2559 C2571 0.950 . S
C2560 H2552 0.950 . S
C2560 C2561 1.386 . S
C2560 C2562 1.391 . S
C2561 C2560 1.386 . S
C2561 C2565 1.393 . S
C2562 H2554 0.950 . S
C2562 C2560 1.391 . S
C2562 C2563 1.400 . S
C2563 C2562 1.400 . S
C2563 C2564 1.398 . S
C2563 C2569 1.491 . S
C2564 H2555 0.950 . S
C2564 C2563 1.398 . S
C2564 C2565 1.391 . S
C2565 H2553 0.950 . S
C2565 C2561 1.393 . S
C2565 C2564 1.391 . S
C2566 H2556 0.950 . S
C2566 C2567 1.386 . S
C2566 C2568 1.391 . S
C2567 C2566 1.386 . S
C2567 C2571 1.393 . S
C2568 H2557 0.950 . S
C2568 C2566 1.391 . S
C2568 C2569 1.400 . S
C2569 C2563 1.491 . S
C2569 C2568 1.400 . S
C2569 C2570 1.398 . S
C2570 H2558 0.950 . S
C2570 C2569 1.398 . S
C2570 C2571 1.391 . S
C2571 H2559 0.950 . S
C2571 C2567 1.393 . S
C2571 C2570 1.391 . S
H2572 C2580 0.950 . S
H2573 C2585 0.938 1_554 S
H2574 C2582 0.950 . S
H2575 C2584 0.950 1_554 S
H2576 C2586 0.950 1_554 S
H2577 C2588 0.950 1_554 S
H2578 C2590 0.950 . S
H2579 C2591 0.950 . S
C2580 H2572 0.950 . S
C2580 C2581 1.386 . S
C2580 C2582 1.391 . S
C2581 C2580 1.386 . S
C2581 C2585 1.393 . S
C2582 H2574 0.950 . S
C2582 C2580 1.391 . S
C2582 C2583 1.400 . S
C2583 C2582 1.400 . S
C2583 C2584 1.398 . S
C2583 C2589 1.491 . S
C2584 H2575 0.950 1_556 S
C2584 C2583 1.398 . S
C2584 C2585 1.391 . S
C2585 H2573 0.938 1_556 S
C2585 C2581 1.393 . S
C2585 C2584 1.391 . S
C2586 H2576 0.950 1_556 S
C2586 C2587 1.386 . S
C2586 C2588 1.391 . S
C2587 C2586 1.386 . S
C2587 C2591 1.393 . S
C2588 H2577 0.950 1_556 S
C2588 C2586 1.391 . S
C2588 C2589 1.400 . S
C2589 C2583 1.491 . S
C2589 C2588 1.400 . S
C2589 C2590 1.398 . S
C2590 H2578 0.950 . S
C2590 C2589 1.398 . S
C2590 C2591 1.391 . S
C2591 H2579 0.950 . S
C2591 C2587 1.393 . S
C2591 C2590 1.391 . S
H2592 C2600 0.950 . S
H2593 C2605 0.950 . S
H2594 C2602 0.950 . S
H2595 C2604 0.950 . S
H2596 C2606 0.950 . S
H2597 C2608 0.950 . S
H2598 C2610 0.950 . S
H2599 C2611 0.950 . S
C2600 H2592 0.950 . S
C2600 C2601 1.386 . S
C2600 C2602 1.391 . S
C2601 C2600 1.386 . S
C2601 C2605 1.393 . S
C2602 H2594 0.950 . S
C2602 C2600 1.391 . S
C2602 C2603 1.400 . S
C2603 C2602 1.400 . S
C2603 C2604 1.398 . S
C2603 C2609 1.491 . S
C2604 H2595 0.950 . S
C2604 C2603 1.398 . S
C2604 C2605 1.391 . S
C2605 H2593 0.950 . S
C2605 C2601 1.393 . S
C2605 C2604 1.391 . S
C2606 H2596 0.950 . S
C2606 C2607 1.386 . S
C2606 C2608 1.391 . S
C2607 C2606 1.386 . S
C2607 C2611 1.393 . S
C2608 H2597 0.950 . S
C2608 C2606 1.391 . S
C2608 C2609 1.400 . S
C2609 C2603 1.491 . S
C2609 C2608 1.400 . S
C2609 C2610 1.398 . S
C2610 H2598 0.950 . S
C2610 C2609 1.398 . S
C2610 C2611 1.391 . S
C2611 H2599 0.950 . S
C2611 C2607 1.393 . S
C2611 C2610 1.391 . S
H2612 C2620 0.950 . S
H2613 C2625 0.950 . S
H2614 C2622 0.950 . S
H2615 C2624 0.950 . S
H2616 C2626 0.950 . S
H2617 C2628 0.950 . S
H2618 C2630 0.950 . S
H2619 C2631 0.950 . S
C2620 H2612 0.950 . S
C2620 C2621 1.386 1_556 S
C2620 C2622 1.391 . S
C2621 C2620 1.386 1_554 S
C2621 C2625 1.393 . S
C2622 H2614 0.950 . S
C2622 C2620 1.391 . S
C2622 C2623 1.400 1_556 S
C2623 C2622 1.400 1_554 S
C2623 C2624 1.398 . S
C2623 C2629 1.491 . S
C2624 H2615 0.950 . S
C2624 C2623 1.398 . S
C2624 C2625 1.391 . S
C2625 H2613 0.950 . S
C2625 C2621 1.393 . S
C2625 C2624 1.391 . S
C2626 H2616 0.950 . S
C2626 C2627 1.386 . S
C2626 C2628 1.391 . S
C2627 C2626 1.386 . S
C2627 C2631 1.393 1_554 S
C2628 H2617 0.950 . S
C2628 C2626 1.391 . S
C2628 C2629 1.400 . S
C2629 C2623 1.491 . S
C2629 C2628 1.400 . S
C2629 C2630 1.398 1_554 S
C2630 H2618 0.950 . S
C2630 C2629 1.398 1_556 S
C2630 C2631 1.391 . S
C2631 H2619 0.950 . S
C2631 C2627 1.393 1_556 S
C2631 C2630 1.391 . S
H2632 C2640 0.950 . S
H2633 C2645 0.950 . S
H2634 C2642 0.950 . S
H2635 C2644 0.950 . S
H2636 C2646 0.950 . S
H2637 C2648 0.950 . S
H2638 C2650 0.950 . S
H2639 C2651 0.950 . S
C2640 H2632 0.950 . S
C2640 C2641 1.386 . S
C2640 C2642 1.391 . S
C2641 C2640 1.386 . S
C2641 C2645 1.393 . S
C2642 H2634 0.950 . S
C2642 C2640 1.391 . S
C2642 C2643 1.400 . S
C2643 C2642 1.400 . S
C2643 C2644 1.398 . S
C2643 C2649 1.491 . S
C2644 H2635 0.950 . S
C2644 C2643 1.398 . S
C2644 C2645 1.391 . S
C2645 H2633 0.950 . S
C2645 C2641 1.393 . S
C2645 C2644 1.391 . S
C2646 H2636 0.950 . S
C2646 C2647 1.386 . S
C2646 C2648 1.391 . S
C2647 C2646 1.386 . S
C2647 C2651 1.393 . S
C2648 H2637 0.950 . S
C2648 C2646 1.391 . S
C2648 C2649 1.400 . S
C2649 C2643 1.491 . S
C2649 C2648 1.400 . S
C2649 C2650 1.398 . S
C2650 H2638 0.950 . S
C2650 C2649 1.398 . S
C2650 C2651 1.391 . S
C2651 H2639 0.950 . S
C2651 C2647 1.393 . S
C2651 C2650 1.391 . S
H2652 C2660 0.950 . S
H2653 C2665 0.950 . S
H2654 C2662 0.950 . S
H2655 C2664 0.950 . S
H2656 C2666 0.950 . S
H2657 C2668 0.950 . S
H2658 C2670 0.950 . S
H2659 C2671 0.950 . S
C2660 H2652 0.950 . S
C2660 C2661 1.386 . S
C2660 C2662 1.391 . S
C2661 C2660 1.386 . S
C2661 C2665 1.393 . S
C2662 H2654 0.950 . S
C2662 C2660 1.391 . S
C2662 C2663 1.400 . S
C2663 C2662 1.400 . S
C2663 C2664 1.398 . S
C2663 C2669 1.491 . S
C2664 H2655 0.950 . S
C2664 C2663 1.398 . S
C2664 C2665 1.391 . S
C2665 H2653 0.950 . S
C2665 C2661 1.393 . S
C2665 C2664 1.391 . S
C2666 H2656 0.950 . S
C2666 C2667 1.386 . S
C2666 C2668 1.391 . S
C2667 C2666 1.386 . S
C2667 C2671 1.393 . S
C2668 H2657 0.950 . S
C2668 C2666 1.391 . S
C2668 C2669 1.400 . S
C2669 C2663 1.491 . S
C2669 C2668 1.400 . S
C2669 C2670 1.398 . S
C2670 H2658 0.950 . S
C2670 C2669 1.398 . S
C2670 C2671 1.391 . S
C2671 H2659 0.950 . S
C2671 C2667 1.393 . S
C2671 C2670 1.391 . S
H2672 C2680 0.950 . S
H2673 C2685 0.950 . S
H2674 C2682 0.950 . S
H2675 C2684 0.950 . S
H2676 C2686 0.950 . S
H2677 C2688 0.950 . S
H2678 C2690 0.950 . S
H2679 C2691 0.950 . S
C2680 H2672 0.950 . S
C2680 C2681 1.386 . S
C2680 C2682 1.391 . S
C2681 C2680 1.386 . S
C2681 C2685 1.393 . S
C2682 H2674 0.950 . S
C2682 C2680 1.391 . S
C2682 C2683 1.400 . S
C2683 C2682 1.400 . S
C2683 C2684 1.398 . S
C2683 C2689 1.491 . S
C2684 H2675 0.950 . S
C2684 C2683 1.398 . S
C2684 C2685 1.391 . S
C2685 H2673 0.950 . S
C2685 C2681 1.393 . S
C2685 C2684 1.391 . S
C2686 H2676 0.950 . S
C2686 C2687 1.386 . S
C2686 C2688 1.391 . S
C2687 C2686 1.386 . S
C2687 C2691 1.393 . S
C2688 H2677 0.950 . S
C2688 C2686 1.391 . S
C2688 C2689 1.400 . S
C2689 C2683 1.491 . S
C2689 C2688 1.400 . S
C2689 C2690 1.398 . S
C2690 H2678 0.950 . S
C2690 C2689 1.398 . S
C2690 C2691 1.391 . S
C2691 H2679 0.950 . S
C2691 C2687 1.393 . S
C2691 C2690 1.391 . S
H2692 C2700 0.950 . S
H2693 C2705 0.950 . S
H2694 C2702 0.950 . S
H2695 C2704 0.950 . S
H2696 C2706 0.950 . S
H2697 C2708 0.950 . S
H2698 C2710 0.950 . S
H2699 C2711 0.950 . S
C2700 H2692 0.950 . S
C2700 C2701 1.386 . S
C2700 C2702 1.391 . S
C2701 C2700 1.386 . S
C2701 C2705 1.393 1_455 S
C2702 H2694 0.950 . S
C2702 C2700 1.391 . S
C2702 C2703 1.400 . S
C2703 C2702 1.400 . S
C2703 C2704 1.398 1_455 S
C2703 C2709 1.491 . S
C2704 H2695 0.950 . S
C2704 C2703 1.398 1_655 S
C2704 C2705 1.391 . S
C2705 H2693 0.950 . S
C2705 C2701 1.393 1_655 S
C2705 C2704 1.391 . S
C2706 H2696 0.950 . S
C2706 C2707 1.386 1_655 S
C2706 C2708 1.391 . S
C2707 C2706 1.386 1_455 S
C2707 C2711 1.393 . S
C2708 H2697 0.950 . S
C2708 C2706 1.391 . S
C2708 C2709 1.400 1_655 S
C2709 C2703 1.491 . S
C2709 C2708 1.400 1_455 S
C2709 C2710 1.398 . S
C2710 H2698 0.950 . S
C2710 C2709 1.398 . S
C2710 C2711 1.391 . S
C2711 H2699 0.950 . S
C2711 C2707 1.393 . S
C2711 C2710 1.391 . S
C1287 C1267 1.750 . S
C1281 C15 1.828 . S
C1307 C1228 1.508 . S
C1301 C55 1.468 . S
C1327 C1254 0.784 . S
C1321 C95 0.825 . S
C1347 C1241 1.481 . S
C1341 C135 1.507 . S
C1367 C1150 1.764 . S
C1361 C175 1.822 . S
C1381 C215 1.496 . S
C1387 C1163 1.498 . S
C1407 C1124 1.519 . S
C1401 C255 1.445 . S
C1421 C295 0.837 1_554 S
C1427 C1137 0.839 . S
C1447 C1215 1.759 . S
C1441 C335 1.823 . S
C1461 C375 1.508 . S
C1467 C1189 1.490 . S
C1481 C415 1.451 . S
C1487 C1176 1.520 . S
C1507 C1202 0.840 . S
C1501 C455 0.836 1_455 S
C1527 C1111 1.758 . S
C1521 C495 1.826 . S
C1541 C535 1.465 . S
C1547 C1072 1.506 . S
C1567 C1098 0.794 . S
C1561 C575 0.828 1_545 S
C1581 C615 1.503 . S
C1587 C1085 1.490 . S
C1607 C994 1.767 . S
C1601 C655 1.820 . S
C1627 C1007 1.467 . S
C1621 C695 1.504 . S
C1641 C735 1.464 . S
C1647 C968 1.506 . S
C1661 C775 0.823 1_554 S
C1667 C981 0.771 . S
C1681 C815 1.821 . S
C1687 C1059 1.758 . S
C1701 C855 1.508 . S
C1707 C1033 1.481 . S
C1727 C1020 1.520 . S
C1721 C895 1.439 . S
C1741 C935 0.832 . S
C1747 C1046 0.820 . S
C1767 C969 1.630 . S
C1761 C21 1.681 . S
C1787 C982 1.664 . S
C1781 C61 1.744 . S
C1801 C101 0.798 . S
C1807 C995 0.799 . S
C1821 C141 0.917 . S
C1827 C1008 0.888 . S
C1847 C1021 1.639 . S
C1841 C181 1.679 . S
C1861 C221 0.908 . S
C1867 C1034 0.907 . S
C1887 C1047 1.662 . S
C1881 C261 1.740 . S
C1907 C1060 0.790 . S
C1901 C301 0.787 1_554 S
C1927 C1073 1.643 . S
C1921 C341 1.680 . S
C1941 C381 0.913 . S
C1947 C1086 0.905 . S
C1961 C421 1.751 . S
C1967 C1099 1.686 . S
C1981 C461 0.789 1_455 S
C1987 C1112 0.785 . S
C2001 C501 1.635 . S
C2007 C1125 1.638 . S
C2021 C541 1.614 . S
C2027 C1138 1.671 . S
C2041 C581 0.788 . S
C2047 C1151 0.786 . S
C2061 C621 0.910 . S
C2067 C1164 0.913 . S
C2081 C661 1.635 . S
C2087 C1177 1.631 . S
C2107 C1190 0.896 . S
C2101 C701 0.896 . S
C2127 C1203 1.665 . S
C2121 C741 1.594 . S
C2147 C1216 0.788 . S
C2141 C781 0.793 . S
C2167 C1229 1.650 . S
C2161 C821 1.651 . S
C2181 C861 0.920 . S
C2187 C1242 0.910 . S
C2201 C901 1.599 . S
C2207 C1255 1.663 . S
C2221 C941 0.802 1_455 S
C2227 C1268 0.804 . S
C2241 C2 1.658 . S
C2247 C1068 1.575 . S
C2267 C1107 1.632 . S
C2261 C42 1.792 . S
C2281 C82 1.519 . S
C2287 C1081 1.333 . S
C2307 C1094 1.539 . S
C2301 C122 1.531 . S
C2321 C162 1.658 . S
C2327 C964 1.565 . S
C2341 C202 1.535 . S
C2347 C977 1.521 . S
C2361 C242 1.788 . S
C2367 C990 1.629 . S
C2381 C282 1.531 . S
C2387 C1003 1.371 . S
C2407 C1016 1.563 . S
C2401 C322 1.653 . S
C2427 C1042 1.535 . S
C2421 C362 1.527 . S
C2441 C402 1.794 . S
C2447 C1055 1.609 . S
C2461 C442 1.532 . S
C2467 C1029 1.373 . S
C2487 C1224 1.567 . S
C2481 C482 1.628 . S
C2507 C1263 1.680 . S
C2501 C522 1.691 . S
C2521 C562 1.536 1_545 S
C2527 C1237 1.412 . S
C2547 C1250 1.517 . S
C2541 C602 1.519 . S
C2561 C642 1.633 . S
C2567 C1120 1.557 . S
C2581 C682 1.523 . S
C2587 C1133 1.518 . S
C2601 C722 1.697 . S
C2607 C1146 1.676 . S
C2627 C1159 1.385 . S
C2621 C762 1.551 1_554 S
C2647 C1172 1.541 . S
C2641 C802 1.641 . S
C2667 C1198 1.519 . S
C2661 C842 1.520 . S
C2681 C882 1.720 . S
C2687 C1211 1.646 . S
C2707 C1185 1.405 . S
C2701 C922 1.550 1_455 S
