# Generated by pormake.
# Topology llk, (3,12)-cn, num edge types: 1
# Building blocks:
#     Node 0, Type 0, BuildingBlock: ESEHIV_clean_linker_0, # of connection points: 3
#     Node 1, Type 0, BuildingBlock: ESEHIV_clean_linker_0, # of connection points: 3
#     Node 2, Type 0, BuildingBlock: ESEHIV_clean_linker_0, # of connection points: 3
#     Node 3, Type 0, BuildingBlock: ESEHIV_clean_linker_0, # of connection points: 3
#     Node 4, Type 0, BuildingBlock: ESEHIV_clean_linker_0, # of connection points: 3
#     Node 5, Type 0, BuildingBlock: ESEHIV_clean_linker_0, # of connection points: 3
#     Node 6, Type 0, BuildingBlock: ESEHIV_clean_linker_0, # of connection points: 3
#     Node 7, Type 0, BuildingBlock: ESEHIV_clean_linker_0, # of connection points: 3
#     Node 8, Type 0, BuildingBlock: ESEHIV_clean_linker_0, # of connection points: 3
#     Node 9, Type 0, BuildingBlock: ESEHIV_clean_linker_0, # of connection points: 3
#     Node 10, Type 0, BuildingBlock: ESEHIV_clean_linker_0, # of connection points: 3
#     Node 11, Type 0, BuildingBlock: ESEHIV_clean_linker_0, # of connection points: 3
#     Node 12, Type 0, BuildingBlock: ESEHIV_clean_linker_0, # of connection points: 3
#     Node 13, Type 0, BuildingBlock: ESEHIV_clean_linker_0, # of connection points: 3
#     Node 14, Type 0, BuildingBlock: ESEHIV_clean_linker_0, # of connection points: 3
#     Node 15, Type 0, BuildingBlock: ESEHIV_clean_linker_0, # of connection points: 3
#     Node 16, Type 0, BuildingBlock: ESEHIV_clean_linker_0, # of connection points: 3
#     Node 17, Type 0, BuildingBlock: ESEHIV_clean_linker_0, # of connection points: 3
#     Node 18, Type 0, BuildingBlock: ESEHIV_clean_linker_0, # of connection points: 3
#     Node 19, Type 0, BuildingBlock: ESEHIV_clean_linker_0, # of connection points: 3
#     Node 20, Type 0, BuildingBlock: ESEHIV_clean_linker_0, # of connection points: 3
#     Node 21, Type 0, BuildingBlock: ESEHIV_clean_linker_0, # of connection points: 3
#     Node 22, Type 0, BuildingBlock: ESEHIV_clean_linker_0, # of connection points: 3
#     Node 23, Type 0, BuildingBlock: ESEHIV_clean_linker_0, # of connection points: 3
#     Node 24, Type 1, BuildingBlock: EZIPEK_clean_sbu_0, # of connection points: 12
#     Node 25, Type 1, BuildingBlock: EZIPEK_clean_sbu_0, # of connection points: 12
#     Node 26, Type 1, BuildingBlock: EZIPEK_clean_sbu_0, # of connection points: 12
#     Node 27, Type 1, BuildingBlock: EZIPEK_clean_sbu_0, # of connection points: 12
#     Node 28, Type 1, BuildingBlock: EZIPEK_clean_sbu_0, # of connection points: 12
#     Node 29, Type 1, BuildingBlock: EZIPEK_clean_sbu_0, # of connection points: 12
#     Edge 30, Type (0, 1), BuildingBlock: KIFKEQ_clean_linker_1, # of connection points: 2
#     Edge 31, Type (0, 1), BuildingBlock: KIFKEQ_clean_linker_1, # of connection points: 2
#     Edge 32, Type (0, 1), BuildingBlock: KIFKEQ_clean_linker_1, # of connection points: 2
#     Edge 33, Type (0, 1), BuildingBlock: KIFKEQ_clean_linker_1, # of connection points: 2
#     Edge 34, Type (0, 1), BuildingBlock: KIFKEQ_clean_linker_1, # of connection points: 2
#     Edge 35, Type (0, 1), BuildingBlock: KIFKEQ_clean_linker_1, # of connection points: 2
#     Edge 36, Type (0, 1), BuildingBlock: KIFKEQ_clean_linker_1, # of connection points: 2
#     Edge 37, Type (0, 1), BuildingBlock: KIFKEQ_clean_linker_1, # of connection points: 2
#     Edge 38, Type (0, 1), BuildingBlock: KIFKEQ_clean_linker_1, # of connection points: 2
#     Edge 39, Type (0, 1), BuildingBlock: KIFKEQ_clean_linker_1, # of connection points: 2
#     Edge 40, Type (0, 1), BuildingBlock: KIFKEQ_clean_linker_1, # of connection points: 2
#     Edge 41, Type (0, 1), BuildingBlock: KIFKEQ_clean_linker_1, # of connection points: 2
#     Edge 42, Type (0, 1), BuildingBlock: KIFKEQ_clean_linker_1, # of connection points: 2
#     Edge 43, Type (0, 1), BuildingBlock: KIFKEQ_clean_linker_1, # of connection points: 2
#     Edge 44, Type (0, 1), BuildingBlock: KIFKEQ_clean_linker_1, # of connection points: 2
#     Edge 45, Type (0, 1), BuildingBlock: KIFKEQ_clean_linker_1, # of connection points: 2
#     Edge 46, Type (0, 1), BuildingBlock: KIFKEQ_clean_linker_1, # of connection points: 2
#     Edge 47, Type (0, 1), BuildingBlock: KIFKEQ_clean_linker_1, # of connection points: 2
#     Edge 48, Type (0, 1), BuildingBlock: KIFKEQ_clean_linker_1, # of connection points: 2
#     Edge 49, Type (0, 1), BuildingBlock: KIFKEQ_clean_linker_1, # of connection points: 2
#     Edge 50, Type (0, 1), BuildingBlock: KIFKEQ_clean_linker_1, # of connection points: 2
#     Edge 51, Type (0, 1), BuildingBlock: KIFKEQ_clean_linker_1, # of connection points: 2
#     Edge 52, Type (0, 1), BuildingBlock: KIFKEQ_clean_linker_1, # of connection points: 2
#     Edge 53, Type (0, 1), BuildingBlock: KIFKEQ_clean_linker_1, # of connection points: 2
#     Edge 54, Type (0, 1), BuildingBlock: KIFKEQ_clean_linker_1, # of connection points: 2
#     Edge 55, Type (0, 1), BuildingBlock: KIFKEQ_clean_linker_1, # of connection points: 2
#     Edge 56, Type (0, 1), BuildingBlock: KIFKEQ_clean_linker_1, # of connection points: 2
#     Edge 57, Type (0, 1), BuildingBlock: KIFKEQ_clean_linker_1, # of connection points: 2
#     Edge 58, Type (0, 1), BuildingBlock: KIFKEQ_clean_linker_1, # of connection points: 2
#     Edge 59, Type (0, 1), BuildingBlock: KIFKEQ_clean_linker_1, # of connection points: 2
#     Edge 60, Type (0, 1), BuildingBlock: KIFKEQ_clean_linker_1, # of connection points: 2
#     Edge 61, Type (0, 1), BuildingBlock: KIFKEQ_clean_linker_1, # of connection points: 2
#     Edge 62, Type (0, 1), BuildingBlock: KIFKEQ_clean_linker_1, # of connection points: 2
#     Edge 63, Type (0, 1), BuildingBlock: KIFKEQ_clean_linker_1, # of connection points: 2
#     Edge 64, Type (0, 1), BuildingBlock: KIFKEQ_clean_linker_1, # of connection points: 2
#     Edge 65, Type (0, 1), BuildingBlock: KIFKEQ_clean_linker_1, # of connection points: 2
#     Edge 66, Type (0, 1), BuildingBlock: KIFKEQ_clean_linker_1, # of connection points: 2
#     Edge 67, Type (0, 1), BuildingBlock: KIFKEQ_clean_linker_1, # of connection points: 2
#     Edge 68, Type (0, 1), BuildingBlock: KIFKEQ_clean_linker_1, # of connection points: 2
#     Edge 69, Type (0, 1), BuildingBlock: KIFKEQ_clean_linker_1, # of connection points: 2
#     Edge 70, Type (0, 1), BuildingBlock: KIFKEQ_clean_linker_1, # of connection points: 2
#     Edge 71, Type (0, 1), BuildingBlock: KIFKEQ_clean_linker_1, # of connection points: 2
#     Edge 72, Type (0, 1), BuildingBlock: KIFKEQ_clean_linker_1, # of connection points: 2
#     Edge 73, Type (0, 1), BuildingBlock: KIFKEQ_clean_linker_1, # of connection points: 2
#     Edge 74, Type (0, 1), BuildingBlock: KIFKEQ_clean_linker_1, # of connection points: 2
#     Edge 75, Type (0, 1), BuildingBlock: KIFKEQ_clean_linker_1, # of connection points: 2
#     Edge 76, Type (0, 1), BuildingBlock: KIFKEQ_clean_linker_1, # of connection points: 2
#     Edge 77, Type (0, 1), BuildingBlock: KIFKEQ_clean_linker_1, # of connection points: 2
#     Edge 78, Type (0, 1), BuildingBlock: KIFKEQ_clean_linker_1, # of connection points: 2
#     Edge 79, Type (0, 1), BuildingBlock: KIFKEQ_clean_linker_1, # of connection points: 2
#     Edge 80, Type (0, 1), BuildingBlock: KIFKEQ_clean_linker_1, # of connection points: 2
#     Edge 81, Type (0, 1), BuildingBlock: KIFKEQ_clean_linker_1, # of connection points: 2
#     Edge 82, Type (0, 1), BuildingBlock: KIFKEQ_clean_linker_1, # of connection points: 2
#     Edge 83, Type (0, 1), BuildingBlock: KIFKEQ_clean_linker_1, # of connection points: 2
#     Edge 84, Type (0, 1), BuildingBlock: KIFKEQ_clean_linker_1, # of connection points: 2
#     Edge 85, Type (0, 1), BuildingBlock: KIFKEQ_clean_linker_1, # of connection points: 2
#     Edge 86, Type (0, 1), BuildingBlock: KIFKEQ_clean_linker_1, # of connection points: 2
#     Edge 87, Type (0, 1), BuildingBlock: KIFKEQ_clean_linker_1, # of connection points: 2
#     Edge 88, Type (0, 1), BuildingBlock: KIFKEQ_clean_linker_1, # of connection points: 2
#     Edge 89, Type (0, 1), BuildingBlock: KIFKEQ_clean_linker_1, # of connection points: 2
#     Edge 90, Type (0, 1), BuildingBlock: KIFKEQ_clean_linker_1, # of connection points: 2
#     Edge 91, Type (0, 1), BuildingBlock: KIFKEQ_clean_linker_1, # of connection points: 2
#     Edge 92, Type (0, 1), BuildingBlock: KIFKEQ_clean_linker_1, # of connection points: 2
#     Edge 93, Type (0, 1), BuildingBlock: KIFKEQ_clean_linker_1, # of connection points: 2
#     Edge 94, Type (0, 1), BuildingBlock: KIFKEQ_clean_linker_1, # of connection points: 2
#     Edge 95, Type (0, 1), BuildingBlock: KIFKEQ_clean_linker_1, # of connection points: 2
#     Edge 96, Type (0, 1), BuildingBlock: KIFKEQ_clean_linker_1, # of connection points: 2
#     Edge 97, Type (0, 1), BuildingBlock: KIFKEQ_clean_linker_1, # of connection points: 2
#     Edge 98, Type (0, 1), BuildingBlock: KIFKEQ_clean_linker_1, # of connection points: 2
#     Edge 99, Type (0, 1), BuildingBlock: KIFKEQ_clean_linker_1, # of connection points: 2
#     Edge 100, Type (0, 1), BuildingBlock: KIFKEQ_clean_linker_1, # of connection points: 2
#     Edge 101, Type (0, 1), BuildingBlock: KIFKEQ_clean_linker_1, # of connection points: 2
# Relax obj value: 0.107
# Max RMSD: 0.160
# Mean RMSD: 0.134
data_MOF--net-llk--node1-EZIPEK_clean_sbu_0--node2-ESEHIV_clean_linker_0--edge1-KIFKEQ_clean_linker_1
_symmetry_space_group_name_H-M    P1
_symmetry_Int_Tables_number       1
_symmetry_cell_setting            triclinic
loop_
_symmetry_equiv_pos_as_xyz
'x, y, z'
_cell_length_a     44.756186
_cell_length_b     44.662398
_cell_length_c     44.721954
_cell_angle_alpha  89.848188
_cell_angle_beta   90.081816
_cell_angle_gamma 90.001066
loop_
_atom_site_label
_atom_site_type_symbol
_atom_site_fract_x
_atom_site_fract_y
_atom_site_fract_z
_atom_type_partial_charge
H0 H 0.95584 0.24769 0.29765 0.0
H1 H 0.97173 0.32651 0.24535 0.0
H2 H 0.0149 0.24385 0.22175 0.0
C3 C 0.96603 0.25833 0.27838 0.0
C4 C 0.98627 0.24202 0.26106 0.0
C5 C 0.96271 0.28918 0.27463 0.0
C6 C 0.97451 0.30267 0.24892 0.0
C7 C 0.99192 0.2863 0.22862 0.0
C8 C 0.9992 0.25601 0.23554 0.0
H9 H 0.70288 1.00592 0.23807 0.0
H10 H 0.76816 1.00229 0.30798 0.0
H11 H 0.79236 0.03779 0.2215 0.0
C12 C 0.72558 0.00976 0.24573 0.0
C13 C 0.74625 0.02278 0.22623 0.0
C14 C 0.73317 1.00279 0.27516 0.0
C15 C 0.76247 1.00712 0.28487 0.0
C16 C 0.78433 0.01909 0.26587 0.0
C17 C 0.77607 0.02767 0.23627 0.0
H18 H 0.01328 0.77282 0.32221 0.0
H19 H 1.004 0.70464 0.2558 0.0
H20 H 0.01024 0.79721 0.22872 0.0
C21 C 0.01159 0.76652 0.29885 0.0
C22 C 0.01231 0.78876 0.27667 0.0
C23 C 1.00838 0.73637 0.29144 0.0
C24 C 1.00571 0.72819 0.26151 0.0
C25 C 1.00619 0.74964 0.23864 0.0
C26 C 0.00959 0.78034 0.24615 0.0
H27 H 0.25787 0.99486 0.3156 0.0
H28 H 0.31861 0.9846 0.24217 0.0
H29 H 0.24071 0.04041 0.23242 0.0
C30 C 0.26374 0.99889 0.29242 0.0
C31 C 0.24517 0.01723 0.27501 0.0
C32 C 0.29058 0.98762 0.28108 0.0
C33 C 0.29799 0.9935 0.25128 0.0
C34 C 0.28083 0.01301 0.23379 0.0
C35 C 0.254 0.02496 0.24557 0.0
H36 H 0.03644 0.76378 0.69143 0.0
H37 H 0.0294 0.70984 0.7702 0.0
H38 H 0.00944 0.80412 0.77488 0.0
C39 C 0.03243 0.76212 0.71529 0.0
C40 C 0.02433 0.78783 0.73147 0.0
C41 C 0.03365 0.73405 0.72905 0.0
C42 C 0.02787 0.73164 0.75947 0.0
C43 C 0.01871 0.75634 0.77616 0.0
C44 C 0.01665 0.78482 0.76218 0.0
H45 H 0.25509 0.97467 0.70022 0.0
H46 H 0.31184 0.97608 0.77734 0.0
H47 H 0.22766 0.02281 0.77891 0.0
C48 C 0.25878 0.9806 0.72343 0.0
C49 C 0.23676 0.99703 0.73862 0.0
C50 C 0.2862 0.97383 0.73685 0.0
C51 C 0.29092 0.982 0.76652 0.0
C52 C 0.27085 1.00059 0.78151 0.0
C53 C 0.24341 1.00839 0.76756 0.0
H54 H 0.9619 0.32274 0.75981 0.0
H55 H 0.95328 0.23941 0.7129 0.0
H56 H 0.0235 0.25127 0.77766 0.0
C57 C 0.9684 0.29965 0.75635 0.0
C58 C 0.99189 0.28808 0.77368 0.0
C59 C 0.9554 0.28292 0.73318 0.0
C60 C 0.96397 0.253 0.72988 0.0
C61 C 0.98956 0.2419 0.7441 0.0
C62 C 1.00356 0.25941 0.76656 0.0
H63 H 0.70704 0.07382 0.76678 0.0
H64 H 0.76264 0.059 0.69011 0.0
H65 H 0.78304 0.01506 0.7732 0.0
C66 C 0.72676 0.06401 0.7567 0.0
C67 C 0.74384 0.04385 0.77353 0.0
C68 C 0.73185 0.06789 0.7261 0.0
C69 C 0.75808 0.05612 0.71373 0.0
C70 C 0.77749 0.03818 0.73067 0.0
C71 C 0.76972 0.03092 0.76059 0.0
H72 H 0.25352 0.32255 0.04272 0.0
H73 H 0.30052 0.23919 0.05098 0.0
H74 H 0.23061 0.24888 0.98549 0.0
C75 C 0.25629 0.29922 0.03677 0.0
C76 C 0.23715 0.28688 0.01515 0.0
C77 C 0.2801 0.28264 0.0488 0.0
C78 C 0.2828 0.25249 0.04104 0.0
C79 C 0.26668 0.24059 0.01707 0.0
C80 C 0.24324 0.2577 1.00415 0.0
H81 H 0.32733 0.76723 0.9908 0.0
H82 H 0.25577 0.70471 1.00213 0.0
H83 H 0.23752 0.79948 1.00503 0.0
C84 C 0.30373 0.76291 0.99429 0.0
C85 C 0.28393 0.78702 0.99746 0.0
C86 C 0.29373 0.73337 0.99604 0.0
C87 C 0.26348 0.7277 1.00048 0.0
C88 C 0.24297 0.75109 1.00368 0.0
C89 C 0.25313 0.78116 1.00236 0.0
H90 H 0.70737 0.26015 0.04347 0.0
H91 H 0.7841 0.31715 0.05316 0.0
H92 H 0.77854 0.25541 0.97952 0.0
C93 C 0.72961 0.26696 0.03677 0.0
C94 C 0.74214 0.25335 0.01157 0.0
C95 C 0.74383 0.29087 0.05123 0.0
C96 C 0.7725 0.29914 0.04179 0.0
C97 C 0.78484 0.28747 0.0155 0.0
C98 C 0.76958 0.26429 1.00016 0.0
H99 H 0.69523 0.77317 0.01027 0.0
H100 H 0.7657 0.70916 1.00126 0.0
H101 H 0.78651 0.80346 1.00128 0.0
C102 C 0.71885 0.76839 1.00763 0.0
C103 C 0.73941 0.79208 1.00607 0.0
C104 C 0.72828 0.73866 1.00608 0.0
C105 C 0.75853 0.73233 1.00274 0.0
C106 C 0.77977 0.7552 1.00085 0.0
C107 C 0.7703 0.7855 1.00253 0.0
H108 H 0.51361 0.74057 0.82376 0.0
H109 H 0.52332 0.80519 0.75376 0.0
H110 H 0.5165 0.71147 0.73167 0.0
C111 C 0.51548 0.74558 0.80007 0.0
C112 C 0.51466 0.72223 0.77917 0.0
C113 C 0.51886 0.77526 0.79096 0.0
C114 C 0.52156 0.78193 0.76071 0.0
C115 C 0.52088 0.75947 0.73904 0.0
C116 C 0.51737 0.72914 0.74818 0.0
H117 H 0.20907 0.5319 0.75355 0.0
H118 H 0.28209 0.53134 0.81568 0.0
H119 H 0.28657 0.47775 0.73583 0.0
C120 C 0.23157 0.52512 0.75948 0.0
C121 C 0.24709 0.50592 0.74016 0.0
C122 C 0.24355 0.53373 0.78705 0.0
C123 C 0.27227 0.52417 0.79469 0.0
C124 C 0.28762 0.50334 0.77718 0.0
C125 C 0.27499 0.49391 0.74959 0.0
H126 H 0.45419 0.20322 0.73402 0.0
H127 H 0.46385 0.25694 0.81301 0.0
H128 H 0.52917 0.26296 0.7432 0.0
C129 C 0.46577 0.22047 0.7465 0.0
C130 C 0.49263 0.23187 0.73511 0.0
C131 C 0.4562 0.22756 0.77544 0.0
C132 C 0.47078 0.25081 0.79065 0.0
C133 C 0.49638 0.26453 0.77899 0.0
C134 C 0.50815 0.25423 0.75143 0.0
H135 H 0.74104 0.54032 0.81064 0.0
H136 H 0.81624 0.53291 0.75157 0.0
H137 H 0.74005 0.47569 0.73938 0.0
C138 C 0.75159 0.53058 0.79113 0.0
C139 C 0.73716 0.5071 0.77633 0.0
C140 C 0.78072 0.53902 0.78356 0.0
C141 C 0.79363 0.52686 0.75779 0.0
C142 C 0.77888 0.50491 0.74102 0.0
C143 C 0.75077 0.49411 0.75088 0.0
H144 H 0.47993 0.26438 0.20882 0.0
H145 H 0.46186 0.19755 0.27517 0.0
H146 H 0.51731 0.27354 0.29693 0.0
C147 C 0.48153 0.25644 0.2317 0.0
C148 C 0.49837 0.27305 0.25212 0.0
C149 C 0.46901 0.22892 0.23954 0.0
C150 C 0.47177 0.21884 0.26903 0.0
C151 C 0.48948 0.23415 0.28995 0.0
C152 C 0.50316 0.26157 0.28136 0.0
H153 H 0.75616 0.5272 0.20249 0.0
H154 H 0.81925 0.53654 0.27412 0.0
H155 H 0.73726 0.48804 0.28845 0.0
C156 C 0.76219 0.52401 0.22578 0.0
C157 C 0.74267 0.50819 0.24447 0.0
C158 C 0.79007 0.53366 0.23602 0.0
C159 C 0.79773 0.52889 0.26594 0.0
C160 C 0.77939 0.51202 0.28488 0.0
C161 C 0.75147 0.50154 0.27421 0.0
H162 H 0.51423 0.81599 0.26346 0.0
H163 H 0.52478 0.75364 0.19177 0.0
H164 H 0.51212 0.72115 0.28188 0.0
C165 C 0.5158 0.79302 0.25576 0.0
C166 C 0.51305 0.76956 0.27638 0.0
C167 C 0.51984 0.78742 0.22541 0.0
C168 C 0.52155 0.7579 0.21542 0.0
C169 C 0.51885 0.73371 0.23529 0.0
C170 C 0.5144 0.73951 0.26619 0.0
H171 H 0.20379 0.50737 0.27233 0.0
H172 H 0.27053 0.51262 0.20424 0.0
H173 H 0.29614 0.49055 0.29478 0.0
C174 C 0.22709 0.50578 0.26579 0.0
C175 C 0.24863 0.49829 0.2872 0.0
C176 C 0.23488 0.51079 0.23609 0.0
C177 C 0.26473 0.50932 0.22758 0.0
C178 C 0.28718 0.50239 0.24829 0.0
C179 C 0.27917 0.49644 0.27853 0.0
H180 H 0.75399 0.81076 0.49591 0.0
H181 H 0.82828 0.75111 0.50441 0.0
H182 H 0.73869 0.71827 0.51932 0.0
C183 C 0.7625 0.78839 0.50027 0.0
C184 C 0.74257 0.76537 0.50737 0.0
C185 C 0.79315 0.78344 0.49941 0.0
C186 C 0.80432 0.75481 0.50494 0.0
C187 C 0.7851 0.73105 0.51208 0.0
C188 C 0.75382 0.73627 0.51345 0.0
H189 H 0.81303 0.26075 0.54834 0.0
H190 H 0.73932 0.19996 0.55827 0.0
H191 H 0.73408 0.27271 0.49505 0.0
C192 C 0.79023 0.25424 0.5434 0.0
C193 C 0.77425 0.27123 0.52245 0.0
C194 C 0.77848 0.22777 0.55548 0.0
C195 C 0.74901 0.21995 0.54847 0.0
C196 C 0.73315 0.23507 0.52603 0.0
C197 C 0.7458 0.26106 0.51279 0.0
H198 H 0.19737 0.74933 0.50175 0.0
H199 H 0.26921 0.81171 0.5116 0.0
H200 H 0.28723 0.71695 0.51634 0.0
C201 C 0.22103 0.75356 0.50496 0.0
C202 C 0.24082 0.72938 0.50842 0.0
C203 C 0.23112 0.78309 0.50644 0.0
C204 C 0.26135 0.78871 0.51116 0.0
C205 C 0.28181 0.76534 0.51484 0.0
C206 C 0.27161 0.73527 0.51359 0.0
H207 H 0.2058 0.25662 0.55418 0.0
H208 H 0.27938 0.196 0.56665 0.0
H209 H 0.28312 0.26384 0.49813 0.0
C210 C 0.22839 0.24949 0.54919 0.0
C211 C 0.24379 0.2646 0.52652 0.0
C212 C 0.24029 0.2239 0.56296 0.0
C213 C 0.2695 0.21531 0.55572 0.0
C214 C 0.28478 0.2287 0.53183 0.0
C215 C 0.27187 0.25363 0.517 0.0
C216 C 0.01005 0.94839 0.57225 0.0
C217 C 0.01235 0.95553 0.42569 0.0
C218 C 0.01123 0.09286 0.57892 0.0
C219 C 0.01343 0.10015 0.4315 0.0
C220 C 0.93876 0.09389 0.5171 0.0
C221 C 0.93999 0.95117 0.494 0.0
C222 C 0.08181 0.09445 0.52059 0.0
C223 C 0.08363 0.95176 0.49758 0.0
C224 C 0.08444 0.03006 0.43002 0.0
C225 C 0.94006 0.03014 0.42731 0.0
C226 C 0.08226 0.02085 0.57618 0.0
C227 C 0.93752 0.0191 0.57383 0.0
Eu228 Eu 0.01165 0.96738 0.49962 0.0
O229 O 0.98554 0.99893 0.47415 0.0
O230 O 0.03796 0.9959 0.52807 0.0
Eu231 Eu 0.95428 0.02357 0.50083 0.0
Eu232 Eu 0.06794 0.02406 0.50279 0.0
O233 O 0.9839 0.99567 0.52691 0.0
O234 O 0.03812 0.99904 0.47478 0.0
Eu235 Eu 0.01016 0.02122 0.55811 0.0
Eu236 Eu 0.01199 0.02739 0.44589 0.0
O237 O 0.98454 0.04888 0.52837 0.0
O238 O 0.9841 0.05283 0.47612 0.0
O239 O 0.03852 0.05303 0.4772 0.0
O240 O 0.03611 0.04872 0.52879 0.0
Eu241 Eu 0.0107 0.08168 0.5046 0.0
O242 O 0.01131 0.9401 0.54343 0.0
O243 O 0.01317 0.94483 0.45372 0.0
O244 O 0.01142 0.10413 0.55102 0.0
O245 O 0.01093 0.10881 0.46023 0.0
O246 O 0.92971 0.06614 0.51103 0.0
O247 O 0.93024 0.97937 0.49546 0.0
O248 O 0.09133 0.06673 0.51514 0.0
O249 O 0.09296 0.98013 0.49887 0.0
O250 O 0.05601 0.02823 0.42119 0.0
O251 O 0.96881 0.03064 0.41944 0.0
O252 O 0.0536 0.0222 0.58427 0.0
O253 O 0.96597 0.02054 0.58269 0.0
O254 O 0.05441 0.10513 0.51536 0.0
O255 O 0.96645 0.10457 0.51395 0.0
O256 O 0.05529 0.94272 0.49811 0.0
O257 O 0.96836 0.94238 0.49575 0.0
O258 O 0.01125 0.98456 0.41831 0.0
O259 O 0.0148 0.0719 0.42216 0.0
O260 O 0.00939 0.97659 0.58186 0.0
O261 O 0.01032 0.06373 0.5856 0.0
O262 O 0.92851 0.01892 0.54516 0.0
O263 O 0.92998 0.02776 0.45551 0.0
O264 O 0.09214 0.01962 0.5479 0.0
O265 O 0.09358 0.02992 0.45863 0.0
C266 C 0.51707 0.9545 0.07564 0.0
C267 C 0.49718 0.09789 0.07031 0.0
C268 C 0.51045 0.94884 0.93194 0.0
C269 C 0.49077 0.0923 0.92705 0.0
C270 C 0.58101 0.02596 0.92684 0.0
C271 C 0.58528 0.03106 0.07067 0.0
C272 C 0.43361 0.01897 0.9314 0.0
C273 C 0.43841 0.02408 0.07533 0.0
C274 C 0.4322 0.09269 0.99854 0.0
C275 C 0.579 0.10041 0.99412 0.0
C276 C 0.43935 0.94899 1.00585 0.0
C277 C 0.5856 0.95577 1.00155 0.0
Eu278 Eu 0.51131 0.0264 0.05812 0.0
O279 O 0.53535 0.05421 0.02638 0.0
O280 O 0.48497 0.99709 0.03015 0.0
Eu281 Eu 0.56493 0.02747 0.9992 0.0
Eu282 Eu 0.4538 0.02153 1.00284 0.0
O283 O 0.53739 1.00028 0.02751 0.0
O284 O 0.48336 0.05038 0.02699 0.0
Eu285 Eu 0.51177 0.96775 1.00314 0.0
Eu286 Eu 0.5065 0.08181 0.99871 0.0
O287 O 0.53585 0.99818 0.97452 0.0
O288 O 0.53354 0.05204 0.97164 0.0
O289 O 0.48219 0.04794 0.97487 0.0
O290 O 0.4834 0.99529 0.9756 0.0
Eu291 Eu 0.50774 0.02208 0.94352 0.0
O292 O 0.51594 0.98308 0.08432 0.0
O293 O 0.5028 0.07041 0.08052 0.0
O294 O 0.50909 0.97667 0.92099 0.0
O295 O 0.49626 0.06428 0.91837 0.0
O296 O 0.58947 0.02665 0.95539 0.0
O297 O 0.59231 0.02948 0.04174 0.0
O298 O 0.42676 0.01958 0.96037 0.0
O299 O 0.42961 0.02343 0.04689 0.0
O300 O 0.45997 0.10411 0.99774 0.0
O301 O 0.55023 0.10904 0.99521 0.0
O302 O 0.46809 0.94053 1.00456 0.0
O303 O 0.55767 0.94505 1.00326 0.0
O304 O 0.46158 0.01906 0.92042 0.0
O305 O 0.55243 0.02478 0.91741 0.0
O306 O 0.46704 0.02446 0.08445 0.0
O307 O 0.55721 0.03129 0.0814 0.0
O308 O 0.49927 0.1072 0.04199 0.0
O309 O 0.49545 0.10356 0.95428 0.0
O310 O 0.5153 0.94472 0.04759 0.0
O311 O 0.51184 0.9413 0.96071 0.0
O312 O 0.59275 0.98478 0.99958 0.0
O313 O 0.58834 0.0721 0.9956 0.0
O314 O 0.42989 0.97724 1.00592 0.0
O315 O 0.42585 0.0636 1.00066 0.0
C316 C 0.00915 0.44849 0.07118 0.0
C317 C 0.01205 0.45382 0.92631 0.0
C318 C 0.0108 0.59554 0.07606 0.0
C319 C 0.00946 0.60134 0.93223 0.0
C320 C 0.93813 0.59858 1.00361 0.0
C321 C 0.93764 0.45127 0.99688 0.0
C322 C 0.08196 0.59818 1.00408 0.0
C323 C 0.08229 0.45132 0.99811 0.0
C324 C 0.08257 0.53672 0.93083 0.0
C325 C 0.93873 0.5363 0.92878 0.0
C326 C 0.0811 0.52303 0.07458 0.0
C327 C 0.93726 0.52945 0.0728 0.0
Eu328 Eu 0.00989 0.46874 0.99919 0.0
O329 O 0.9831 0.49936 0.97287 0.0
O330 O 0.03622 0.49743 0.02734 0.0
Eu331 Eu 0.95279 0.52485 1.00064 0.0
Eu332 Eu 0.06679 0.52477 1.00208 0.0
O333 O 0.98258 0.49721 0.02692 0.0
O334 O 0.03703 0.49946 0.97362 0.0
Eu335 Eu 0.00921 0.5226 0.05815 0.0
Eu336 Eu 0.01041 0.52702 0.94397 0.0
O337 O 0.9831 0.54994 0.02838 0.0
O338 O 0.98398 0.55172 0.97567 0.0
O339 O 0.03643 0.55172 0.97613 0.0
O340 O 0.03646 0.55016 0.02949 0.0
Eu341 Eu 0.01006 0.58078 1.00349 0.0
O342 O 0.00978 0.44121 0.04218 0.0
O343 O 0.01146 0.44469 0.95474 0.0
O344 O 0.01152 0.60484 0.04775 0.0
O345 O 0.00976 0.60822 0.96118 0.0
O346 O 0.92821 0.57027 1.00138 0.0
O347 O 0.92779 0.4797 0.99796 0.0
O348 O 0.0917 0.56977 1.00517 0.0
O349 O 0.09185 0.47982 0.99906 0.0
O350 O 0.05468 0.53409 0.92053 0.0
O351 O 0.96677 0.53323 0.91916 0.0
O352 O 0.05265 0.52241 0.08323 0.0
O353 O 0.96539 0.52646 0.08209 0.0
O354 O 0.0534 0.6064 1.00277 0.0
O355 O 0.96676 0.60656 1.00514 0.0
O356 O 0.05362 0.443 0.99837 0.0
O357 O 0.96635 0.44321 0.99718 0.0
O358 O 0.01146 0.48264 0.91745 0.0
O359 O 0.00936 0.5734 0.92117 0.0
O360 O 1.00849 0.47666 0.08161 0.0
O361 O 0.00951 0.56677 0.08479 0.0
O362 O 0.92777 0.52806 0.04452 0.0
O363 O 0.92926 0.53263 0.95681 0.0
O364 O 0.09086 0.52346 0.04641 0.0
O365 O 0.09141 0.53271 0.95903 0.0
C366 C 0.51531 0.42491 0.09057 0.0
C367 C 0.51032 0.5689 0.08244 0.0
C368 C 0.51683 0.41629 0.94376 0.0
C369 C 0.51261 0.56092 0.93588 0.0
C370 C 0.5855 0.48867 0.93994 0.0
C371 C 0.58452 0.49757 0.0867 0.0
C372 C 0.44153 0.48634 0.93881 0.0
C373 C 0.44045 0.49383 0.08598 0.0
C374 C 0.43979 0.5641 1.00513 0.0
C375 C 0.58346 0.56717 0.00941 0.0
C376 C 0.44193 0.42079 0.0265 0.0
C377 C 0.58571 0.42373 0.03028 0.0
Eu378 Eu 0.5124 0.4961 0.0688 0.0
O379 O 0.53934 0.52169 0.03818 0.0
O380 O 0.48699 0.46763 0.03984 0.0
Eu381 Eu 0.57013 0.49416 0.01324 0.0
Eu382 Eu 0.45568 0.49203 0.01249 0.0
O383 O 0.53908 0.46899 0.03992 0.0
O384 O 0.4849 0.52094 0.03793 0.0
Eu385 Eu 0.51401 0.43556 0.01629 0.0
Eu386 Eu 0.5119 0.54954 0.01005 0.0
O387 O 0.54098 0.46454 0.9883 0.0
O388 O 0.53924 0.5185 0.98548 0.0
O389 O 0.48631 0.51722 0.98531 0.0
O390 O 0.48636 0.4636 0.9879 0.0
Eu391 Eu 0.51345 0.48939 0.95729 0.0
O392 O 0.51442 0.45404 0.09693 0.0
O393 O 0.51001 0.54072 0.09225 0.0
O394 O 0.51581 0.44457 0.93419 0.0
O395 O 0.51354 0.53183 0.92904 0.0
O396 O 0.59534 0.48967 0.96836 0.0
O397 O 0.59452 0.4972 0.05841 0.0
O398 O 0.43137 0.48705 0.9671 0.0
O399 O 0.43069 0.49521 0.05756 0.0
O400 O 0.46803 0.57334 1.00649 0.0
O401 O 0.55484 0.57524 1.00889 0.0
O402 O 0.4702 0.41142 0.02437 0.0
O403 O 0.55818 0.41288 0.02637 0.0
O404 O 0.4703 0.48731 0.93113 0.0
O405 O 0.55683 0.48895 0.93189 0.0
O406 O 0.46904 0.4932 0.09427 0.0
O407 O 0.55581 0.49752 0.09461 0.0
O408 O 0.51142 0.57708 0.05355 0.0
O409 O 0.51167 0.57194 0.96376 0.0
O410 O 0.51516 0.41344 0.06284 0.0
O411 O 0.51601 0.40788 0.97267 0.0
O412 O 0.59467 0.45165 0.02463 0.0
O413 O 0.59375 0.53909 0.01066 0.0
O414 O 0.4321 0.44848 0.02123 0.0
O415 O 0.43045 0.53575 1.00712 0.0
C416 C 0.99741 0.42146 0.58154 0.0
C417 C 1.00088 0.42682 0.43775 0.0
C418 C 0.02087 0.56457 0.58673 0.0
C419 C 0.0149 0.57024 0.44289 0.0
C420 C 0.94128 0.56905 0.5154 0.0
C421 C 0.93733 0.4248 0.50819 0.0
C422 C 0.08785 0.56466 0.51485 0.0
C423 C 0.08379 0.41996 0.50825 0.0
C424 C 0.08729 0.4952 0.44155 0.0
C425 C 0.93981 0.49939 0.44046 0.0
C426 C 0.08567 0.48677 0.58545 0.0
C427 C 0.9394 0.49345 0.58486 0.0
Eu428 Eu 0.01109 0.43773 0.51046 0.0
O429 O 0.98662 0.47073 0.48546 0.0
O430 O 0.03843 0.46544 0.53935 0.0
Eu431 Eu 0.95695 0.49667 0.51259 0.0
Eu432 Eu 0.0687 0.49262 0.51324 0.0
O433 O 0.98651 0.4687 0.53763 0.0
O434 O 0.03875 0.46784 0.4846 0.0
Eu435 Eu 0.01264 0.49283 0.56985 0.0
Eu436 Eu 0.01338 0.49709 0.45543 0.0
O437 O 0.98676 0.52186 0.54087 0.0
O438 O 0.98726 0.52338 0.48634 0.0
O439 O 0.03993 0.52138 0.48729 0.0
O440 O 0.03933 0.51937 0.54 0.0
Eu441 Eu 0.01416 0.55158 0.51443 0.0
O442 O 1.00127 0.41265 0.5533 0.0
O443 O 1.00312 0.41605 0.46553 0.0
O444 O 0.01901 0.57447 0.55869 0.0
O445 O 0.01437 0.57813 0.47161 0.0
O446 O 0.93236 0.54066 0.51385 0.0
O447 O 0.93006 0.45374 0.50985 0.0
O448 O 0.09556 0.53577 0.51608 0.0
O449 O 0.09272 0.4484 0.50947 0.0
O450 O 0.05902 0.4948 0.43123 0.0
O451 O 0.96817 0.4992 0.43062 0.0
O452 O 0.05726 0.48788 0.59498 0.0
O453 O 0.96773 0.49443 0.5947 0.0
O454 O 0.05973 0.57493 0.51334 0.0
O455 O 0.96992 0.57797 0.51644 0.0
O456 O 0.05513 0.41096 0.50896 0.0
O457 O 0.9654 0.41421 0.50816 0.0
O458 O 1.00596 0.45494 0.42923 0.0
O459 O 0.01498 0.54225 0.43248 0.0
O460 O 1.00274 0.44876 0.59232 0.0
O461 O 0.01837 0.53609 0.5956 0.0
O462 O 0.93132 0.49372 0.55613 0.0
O463 O 0.93165 0.4987 0.46909 0.0
O464 O 0.0942 0.48814 0.55689 0.0
O465 O 0.09497 0.49525 0.47034 0.0
C466 C 0.51583 0.92045 0.58402 0.0
C467 C 0.51352 0.91978 0.44019 0.0
C468 C 0.5121 0.06757 0.58298 0.0
C469 C 0.51105 0.06679 0.43867 0.0
C470 C 0.43868 0.0658 0.51139 0.0
C471 C 0.44273 0.91849 0.51312 0.0
C472 C 0.58263 0.0692 0.50742 0.0
C473 C 0.58655 0.92208 0.51516 0.0
C474 C 0.58283 0.98951 0.4373 0.0
C475 C 0.4391 0.98378 0.44097 0.0
C476 C 0.5851 0.01029 0.58062 0.0
C477 C 0.4426 0.98415 0.58492 0.0
Eu478 Eu 0.51437 0.9379 0.51211 0.0
O479 O 0.48638 0.96704 0.48613 0.0
O480 O 0.54167 0.96785 0.5385 0.0
Eu481 Eu 0.45541 0.99251 0.51259 0.0
Eu482 Eu 0.56992 0.99507 0.50993 0.0
O483 O 0.48761 0.96758 0.53836 0.0
O484 O 0.53936 0.96806 0.48434 0.0
Eu485 Eu 0.51405 0.99391 0.56845 0.0
Eu486 Eu 0.51111 0.99334 0.45449 0.0
O487 O 0.48544 0.01979 0.53896 0.0
O488 O 0.48391 0.01964 0.48443 0.0
O489 O 0.53813 0.02043 0.48372 0.0
O490 O 0.53835 0.01975 0.53618 0.0
Eu491 Eu 0.51102 0.04953 0.51073 0.0
O492 O 0.51252 0.91243 0.55557 0.0
O493 O 0.51572 0.91179 0.46886 0.0
O494 O 0.51246 0.07539 0.55416 0.0
O495 O 0.51214 0.07517 0.46721 0.0
O496 O 0.42934 0.03719 0.51216 0.0
O497 O 0.4322 0.94661 0.51433 0.0
O498 O 0.5932 0.04107 0.50565 0.0
O499 O 0.59588 0.95063 0.51364 0.0
O500 O 0.55427 0.99117 0.42898 0.0
O501 O 0.46703 0.98706 0.43119 0.0
O502 O 0.55773 1.00471 0.59102 0.0
O503 O 0.47103 0.98662 0.59358 0.0
O504 O 0.55384 0.07633 0.51031 0.0
O505 O 0.46719 0.07431 0.51071 0.0
O506 O 0.55816 0.91321 0.51475 0.0
O507 O 0.47153 0.91103 0.5115 0.0
O508 O 0.51115 0.94805 0.43024 0.0
O509 O 0.50942 0.03835 0.42908 0.0
O510 O 0.51902 0.94881 0.59357 0.0
O511 O 0.51132 0.03919 0.59307 0.0
O512 O 0.43231 0.98744 0.55709 0.0
O513 O 0.43 0.98621 0.46927 0.0
O514 O 0.59455 1.00614 0.55264 0.0
O515 O 0.59313 0.99086 0.46529 0.0
H516 H 0.18989 0.23548 0.5973 0.0
H517 H 0.24295 0.16253 0.56205 0.0
H518 H 0.14646 0.20243 0.5985 0.0
H519 H 0.20088 0.13 0.56528 0.0
H520 H 0.0856 0.15584 0.52203 0.0
H521 H 0.12225 0.18559 0.54975 0.0
H522 H 0.15866 0.10468 0.58851 0.0
H523 H 0.12316 0.07515 0.56019 0.0
C524 C 0.19274 0.21231 0.59086 0.0
C525 C 0.21965 0.20236 0.57786 0.0
C526 C 0.16788 0.19341 0.59176 0.0
C527 C 0.17011 0.16404 0.58097 0.0
C528 C 0.19833 0.15264 0.57352 0.0
C529 C 0.22283 0.1716 0.57184 0.0
C530 C 0.1014 0.14457 0.53656 0.0
C531 C 0.1025 0.11323 0.53788 0.0
C532 C 0.12195 0.16154 0.55291 0.0
C533 C 0.14343 0.14734 0.57112 0.0
C534 C 0.14265 0.11615 0.57434 0.0
C535 C 0.1226 0.09927 0.5577 0.0
H536 H 0.77551 0.16687 0.54938 0.0
H537 H 0.82927 0.23645 0.59011 0.0
H538 H 0.81663 0.13306 0.55227 0.0
H539 H 0.87175 0.20211 0.59121 0.0
H540 H 0.93621 0.15526 0.51891 0.0
H541 H 0.89825 0.18567 0.54386 0.0
H542 H 0.85613 0.10529 0.57746 0.0
H543 H 0.89311 0.07511 0.55188 0.0
C544 C 0.79556 0.17485 0.56027 0.0
C545 C 0.79917 0.20506 0.56841 0.0
C546 C 0.81949 0.15518 0.56174 0.0
C547 C 0.84765 0.16528 0.57106 0.0
C548 C 0.85036 0.1941 0.58317 0.0
C549 C 0.82606 0.21374 0.58236 0.0
C550 C 0.91885 0.14422 0.53169 0.0
C551 C 0.91682 0.1129 0.5324 0.0
C552 C 0.8975 0.16156 0.54646 0.0
C553 C 0.87419 0.14774 0.56247 0.0
C554 C 0.87362 0.11647 0.56496 0.0
C555 C 0.89454 0.09924 0.54989 0.0
H556 H 0.79099 0.83755 0.52649 0.0
H557 H 0.84101 0.78633 0.46177 0.0
H558 H 0.82531 0.87927 0.52035 0.0
H559 H 0.87551 0.82839 0.45544 0.0
H560 H 0.94999 0.89099 0.49116 0.0
H561 H 0.91321 0.85141 0.48807 0.0
H562 H 0.84252 0.91722 0.48433 0.0
H563 H 0.87934 0.95723 0.48805 0.0
C564 C 0.80909 0.83548 0.51055 0.0
C565 C 0.81348 0.80885 0.49457 0.0
C566 C 0.82862 0.85938 0.50695 0.0
C567 C 0.85291 0.85704 0.48732 0.0
C568 C 0.85702 0.83059 0.47088 0.0
C569 C 0.83744 0.8066 0.47454 0.0
C570 C 0.92666 0.8972 0.48951 0.0
C571 C 0.91759 0.92734 0.49029 0.0
C572 C 0.90562 0.87443 0.48742 0.0
C573 C 0.8751 0.88131 0.48599 0.0
C574 C 0.86598 0.91139 0.48573 0.0
C575 C 0.88706 0.93425 0.48787 0.0
H576 H 0.22775 0.83267 0.54139 0.0
H577 H 0.18749 0.7904 0.46445 0.0
H578 H 0.19337 0.87468 0.53637 0.0
H579 H 0.15311 0.83259 0.45926 0.0
H580 H 0.07433 0.89231 0.48744 0.0
H581 H 0.11097 0.85244 0.48768 0.0
H582 H 0.18126 0.91695 0.50302 0.0
H583 H 0.1444 0.95718 0.50357 0.0
C584 C 0.2117 0.83257 0.52322 0.0
C585 C 0.21014 0.80835 0.50332 0.0
C586 C 0.19216 0.85664 0.52027 0.0
C587 C 0.1707 0.85691 0.49736 0.0
C588 C 0.16928 0.83277 0.47731 0.0
C589 C 0.18882 0.80865 0.4803 0.0
C590 C 0.09758 0.89817 0.49082 0.0
C591 C 0.10639 0.92797 0.4958 0.0
C592 C 0.1186 0.87526 0.49065 0.0
C593 C 0.14891 0.88162 0.4954 0.0
C594 C 0.15793 0.91145 0.49963 0.0
C595 C 0.13685 0.93446 0.49979 0.0
H596 H 0.47803 0.16871 0.23654 0.0
H597 H 0.4381 0.24246 0.18769 0.0
H598 H 0.47435 0.13771 0.19294 0.0
H599 H 0.43612 0.21114 0.14289 0.0
H600 H 0.50203 0.15918 0.07332 0.0
H601 H 0.48248 0.19128 0.11328 0.0
H602 H 0.4409 0.1143 0.15457 0.0
H603 H 0.46084 0.0825 0.11554 0.0
C604 C 0.46731 0.17811 0.21694 0.0
C605 C 0.45875 0.20836 0.21566 0.0
C606 C 0.46543 0.16024 0.19172 0.0
C607 C 0.45533 0.17225 0.16453 0.0
C608 C 0.44435 0.20162 0.16363 0.0
C609 C 0.44561 0.21946 0.1892 0.0
C610 C 0.48848 0.14936 0.09083 0.0
C611 C 0.48395 0.11833 0.09218 0.0
C612 C 0.47693 0.16767 0.11335 0.0
C613 C 0.46046 0.15506 0.13702 0.0
C614 C 0.45387 0.12443 0.13676 0.0
C615 C 0.46565 0.10624 0.11466 0.0
H616 H 0.84883 0.51842 0.23587 0.0
H617 H 0.78314 0.56964 0.18629 0.0
H618 H 0.88432 0.52534 0.19603 0.0
H619 H 0.81902 0.57553 0.14537 0.0
H620 H 0.87616 0.52483 0.07003 0.0
H621 H 0.84071 0.53536 0.11027 0.0
H622 H 0.91354 0.56308 0.16731 0.0
H623 H 0.94883 0.5522 0.12777 0.0
C624 C 0.84221 0.53211 0.21697 0.0
C625 C 0.81303 0.54345 0.21432 0.0
C626 C 0.86261 0.53589 0.19397 0.0
C627 C 0.85427 0.55082 0.16764 0.0
C628 C 0.82576 0.56368 0.16545 0.0
C629 C 0.80532 0.56026 0.18878 0.0
C630 C 0.8845 0.53335 0.09111 0.0
C631 C 0.91529 0.53682 0.09606 0.0
C632 C 0.86423 0.53974 0.11393 0.0
C633 C 0.87455 0.54985 0.14182 0.0
C634 C 0.90513 0.55495 0.14609 0.0
C635 C 0.9253 0.54841 0.1235 0.0
H636 H 0.49124 0.79168 0.17195 0.0
H637 H 0.55076 0.83994 0.23088 0.0
H638 H 0.4925 0.83324 0.13667 0.0
H639 H 0.55162 0.88187 0.19555 0.0
H640 H 0.51234 0.96048 0.1366 0.0
H641 H 0.51468 0.92036 0.17392 0.0
H642 H 0.53207 0.85615 0.10405 0.0
H643 H 0.52976 0.89561 0.06694 0.0
C644 C 0.50483 0.81105 0.17718 0.0
C645 C 0.5211 0.81254 0.20398 0.0
C646 C 0.50546 0.83483 0.15709 0.0
C647 C 0.52227 0.86057 0.16346 0.0
C648 C 0.53832 0.86229 0.19035 0.0
C649 C 0.53783 0.83837 0.21044 0.0
C650 C 0.51688 0.93784 0.12927 0.0
C651 C 0.52036 0.93119 0.09877 0.0
C652 C 0.51831 0.91498 0.1506 0.0
C653 C 0.52316 0.88526 0.14166 0.0
C654 C 0.52772 0.87884 0.11138 0.0
C655 C 0.52638 0.90153 0.09017 0.0
H656 H 0.23412 0.55223 0.19114 0.0
H657 H 0.18349 0.47938 0.22984 0.0
H658 H 0.19642 0.55754 0.1518 0.0
H659 H 0.14595 0.48483 0.19086 0.0
H660 H 0.07123 0.52214 0.13472 0.0
H661 H 0.10821 0.5224 0.17434 0.0
H662 H 0.17891 0.52535 0.10873 0.0
H663 H 0.14194 0.52558 0.0687 0.0
C664 C 0.2149 0.53748 0.19123 0.0
C665 C 0.21152 0.5155 0.21346 0.0
C666 C 0.19347 0.5405 0.16882 0.0
C667 C 0.16842 0.52163 0.16852 0.0
C668 C 0.16488 0.49996 0.19097 0.0
C669 C 0.18628 0.49689 0.21325 0.0
C670 C 0.09461 0.52293 0.12858 0.0
C671 C 0.10364 0.52357 0.09849 0.0
C672 C 0.11573 0.52304 0.15132 0.0
C673 C 0.14624 0.52378 0.14444 0.0
C674 C 0.1554 0.52505 0.11449 0.0
C675 C 0.13425 0.52492 0.09164 0.0
H676 H 0.55714 0.82235 0.79452 0.0
H677 H 0.47888 0.78363 0.83582 0.0
H678 H 0.55385 0.86523 0.82807 0.0
H679 H 0.47548 0.82656 0.86931 0.0
H680 H 0.50232 0.88983 0.94479 0.0
H681 H 0.5045 0.84789 0.91077 0.0
H682 H 0.51984 0.90847 0.83688 0.0
H683 H 0.51842 0.95092 0.87118 0.0
C684 C 0.53927 0.82309 0.81083 0.0
C685 C 0.51828 0.79981 0.81277 0.0
C686 C 0.53728 0.84763 0.82982 0.0
C687 C 0.5143 0.8492 0.85104 0.0
C688 C 0.49357 0.82569 0.85326 0.0
C689 C 0.49557 0.80114 0.83428 0.0
C690 C 0.50624 0.89439 0.92132 0.0
C691 C 0.51046 0.92376 0.9107 0.0
C692 C 0.50721 0.87029 0.90182 0.0
C693 C 0.51236 0.87501 0.8713 0.0
C694 C 0.51616 0.90432 0.86046 0.0
C695 C 0.51514 0.92856 0.88003 0.0
H696 H 0.19876 0.57566 0.77907 0.0
H697 H 0.24333 0.52264 0.84704 0.0
H698 H 0.15874 0.58662 0.81463 0.0
H699 H 0.20485 0.53505 0.88219 0.0
H700 H 0.13609 0.56208 0.94432 0.0
H701 H 0.17637 0.57457 0.91016 0.0
H702 H 0.12184 0.54685 0.83544 0.0
H703 H 0.08112 0.53452 0.86961 0.0
C704 C 0.20054 0.56704 0.80166 0.0
C705 C 0.22408 0.54777 0.8099 0.0
C706 C 0.17777 0.57352 0.82197 0.0
C707 C 0.17872 0.56148 0.85095 0.0
C708 C 0.20374 0.54493 0.86006 0.0
C709 C 0.22603 0.53794 0.83975 0.0
C710 C 0.13254 0.55876 0.92059 0.0
C711 C 0.10582 0.54632 0.90966 0.0
C712 C 0.15548 0.56633 0.90108 0.0
C713 C 0.15219 0.5615 0.87031 0.0
C714 C 0.12476 0.55109 0.85911 0.0
C715 C 0.10165 0.54361 0.87867 0.0
H716 H 0.45216 0.16665 0.76721 0.0
H717 H 0.41843 0.23757 0.82382 0.0
H718 H 0.44591 0.13161 0.80672 0.0
H719 H 0.41366 0.20166 0.86471 0.0
H720 H 0.45467 0.07348 0.88228 0.0
H721 H 0.42601 0.10369 0.84736 0.0
H722 H 0.46014 0.18399 0.88907 0.0
H723 H 0.4877 0.15354 0.92505 0.0
C724 C 0.44201 0.17488 0.78752 0.0
C725 C 0.43787 0.20569 0.79279 0.0
C726 C 0.43848 0.15435 0.81058 0.0
C727 C 0.43089 0.16421 0.83933 0.0
C728 C 0.42083 0.19376 0.84299 0.0
C729 C 0.42377 0.21432 0.81957 0.0
C730 C 0.45603 0.09759 0.88404 0.0
C731 C 0.47433 0.1112 0.90565 0.0
C732 C 0.43924 0.11487 0.8643 0.0
C733 C 0.44092 0.14621 0.86527 0.0
C734 C 0.45796 0.15987 0.88796 0.0
C735 C 0.47433 0.14249 0.90815 0.0
H736 H 0.82813 0.57774 0.77382 0.0
H737 H 0.77764 0.53451 0.84438 0.0
H738 H 0.8682 0.58794 0.80961 0.0
H739 H 0.81621 0.54606 0.87943 0.0
H740 H 0.88687 0.56501 0.94114 0.0
H741 H 0.8484 0.58096 0.9063 0.0
H742 H 0.90131 0.54798 0.83266 0.0
H743 H 0.94055 0.5329 0.8676 0.0
C744 C 0.82505 0.57123 0.79695 0.0
C745 C 0.79985 0.55456 0.80584 0.0
C746 C 0.84791 0.57724 0.8174 0.0
C747 C 0.84545 0.56737 0.84711 0.0
C748 C 0.81871 0.55419 0.85673 0.0
C749 C 0.79628 0.54768 0.83636 0.0
C750 C 0.89047 0.56135 0.9175 0.0
C751 C 0.91628 0.54682 0.90712 0.0
C752 C 0.86857 0.57083 0.89757 0.0
C753 C 0.87178 0.56549 0.86687 0.0
C754 C 0.89842 0.5527 0.85623 0.0
C755 C 0.92063 0.54358 0.87623 0.0
H756 H 0.7321 0.68786 0.03961 0.0
H757 H 0.67611 0.73354 0.97526 0.0
H758 H 0.69757 0.64556 0.03993 0.0
H759 H 0.64163 0.69122 0.97548 0.0
H760 H 0.64469 0.56364 1.00665 0.0
H761 H 0.68004 0.60532 1.00576 0.0
H762 H 0.60671 0.668 0.01079 0.0
H763 H 0.57153 0.62697 0.01121 0.0
C764 C 0.71242 0.68874 0.0255 0.0
C765 C 0.70663 0.71387 1.00744 0.0
C766 C 0.69281 0.66455 0.02558 0.0
C767 C 0.66707 0.66514 1.00765 0.0
C768 C 0.66118 0.69038 0.98976 0.0
C769 C 0.68079 0.71458 0.9897 0.0
C770 C 0.63613 0.58631 1.00752 0.0
C771 C 0.60528 0.59189 1.00886 0.0
C772 C 0.65635 0.61011 1.00714 0.0
C773 C 0.646 0.6398 1.00806 0.0
C774 C 0.61524 0.64533 0.00954 0.0
C775 C 0.59511 0.62169 0.00991 0.0
H776 H 0.28791 0.68066 0.96564 0.0
H777 H 0.34723 0.72933 0.02445 0.0
H778 H 0.32243 0.63816 0.96615 0.0
H779 H 0.38173 0.68724 0.02448 0.0
H780 H 0.45008 0.62219 0.99009 0.0
H781 H 0.41406 0.66232 0.98568 0.0
H782 H 0.34249 0.60054 1.00541 0.0
H783 H 0.37873 0.5597 0.0099 0.0
C784 C 0.3083 0.68224 0.97862 0.0
C785 C 0.31506 0.70828 0.99487 0.0
C786 C 0.32792 0.658 0.97892 0.0
C787 C 0.35461 0.65964 0.99526 0.0
C788 C 0.36141 0.6857 0.01136 0.0
C789 C 0.34178 0.70979 0.01122 0.0
C790 C 0.42672 0.61694 0.99358 0.0
C791 C 0.4173 0.58778 1.00089 0.0
C792 C 0.40613 0.64 0.991 0.0
C793 C 0.37571 0.63446 0.99557 0.0
C794 C 0.36595 0.60521 1.00173 0.0
C795 C 0.38666 0.58196 1.00441 0.0
H796 H 0.33938 0.26881 0.04254 0.0
H797 H 0.28053 0.33267 0.08541 0.0
H798 H 0.38064 0.30178 0.04949 0.0
H799 H 0.3228 0.36682 0.09108 0.0
H800 H 0.38128 0.42645 0.02588 0.0
H801 H 0.34469 0.39221 0.04653 0.0
H802 H 0.41556 0.33362 0.07653 0.0
H803 H 0.45248 0.3678 0.05543 0.0
C804 C 0.33519 0.28922 0.0548 0.0
C805 C 0.30604 0.29826 0.06262 0.0
C806 C 0.35926 0.30837 0.05869 0.0
C807 C 0.35478 0.33718 0.07005 0.0
C808 C 0.32661 0.34486 0.08158 0.0
C809 C 0.30241 0.32539 0.07812 0.0
C810 C 0.38916 0.40635 0.03696 0.0
C811 C 0.41977 0.39946 0.0383 0.0
C812 C 0.36817 0.38701 0.04935 0.0
C813 C 0.3773 0.36038 0.06339 0.0
C814 C 0.40795 0.35401 0.06577 0.0
C815 C 0.42901 0.37334 0.05327 0.0
H816 H 0.69708 0.27795 0.08998 0.0
H817 H 0.74854 0.35202 0.05436 0.0
H818 H 0.65516 0.3119 0.0981 0.0
H819 H 0.70808 0.38524 0.06398 0.0
H820 H 0.63117 0.44141 0.06595 0.0
H821 H 0.66863 0.41048 0.0903 0.0
H822 H 0.62676 0.3313 0.05388 0.0
H823 H 0.58839 0.36241 0.03047 0.0
C824 C 0.70001 0.30149 0.08491 0.0
C825 C 0.72567 0.31171 0.06979 0.0
C826 C 0.67603 0.32091 0.08976 0.0
C827 C 0.67798 0.35091 0.08054 0.0
C828 C 0.70566 0.36215 0.07105 0.0
C829 C 0.72924 0.34276 0.0656 0.0
C830 C 0.62987 0.41738 0.06325 0.0
C831 C 0.60761 0.40432 0.04533 0.0
C832 C 0.65108 0.39968 0.07757 0.0
C833 C 0.65084 0.36853 0.07379 0.0
C834 C 0.62735 0.35526 0.05754 0.0
C835 C 0.60574 0.37304 0.0436 0.0
H836 H 1.00126 0.68295 0.73298 0.0
H837 H 0.07461 0.72355 0.6849 0.0
H838 H 1.0041 0.63924 0.70113 0.0
H839 H 0.07741 0.67942 0.65265 0.0
H840 H 0.03253 0.62371 0.57739 0.0
H841 H 0.0418 0.6619 0.61435 0.0
H842 H 0.0344 0.59592 0.68479 0.0
H843 H 0.02449 0.5572 0.64761 0.0
C844 C 0.01853 0.68216 0.71605 0.0
C845 C 0.03772 0.70662 0.7113 0.0
C846 C 0.0202 0.65706 0.69789 0.0
C847 C 0.04098 0.656 0.67451 0.0
C848 C 0.06103 0.67989 0.67046 0.0
C849 C 0.05938 0.7051 0.68873 0.0
C850 C 0.0329 0.6171 0.6007 0.0
C851 C 0.02724 0.5874 0.60956 0.0
C852 C 0.03869 0.63903 0.62186 0.0
C853 C 0.03896 0.63179 0.65235 0.0
C854 C 0.03416 0.60201 0.66133 0.0
C855 C 0.0284 0.57993 0.64008 0.0
H856 H 0.28648 0.93366 0.69002 0.0
H857 H 0.3439 0.99248 0.7412 0.0
H858 H 0.32648 0.9275 0.65325 0.0
H859 H 0.38337 0.98529 0.70567 0.0
H860 H 0.4543 0.9652 0.64183 0.0
H861 H 0.41839 0.95108 0.68007 0.0
H862 H 0.34598 0.96779 0.61827 0.0
H863 H 0.38174 0.98152 0.57972 0.0
C864 C 0.30772 0.94459 0.69388 0.0
C865 C 0.31179 0.96375 0.71846 0.0
C866 C 0.33057 0.94095 0.67296 0.0
C867 C 0.35785 0.95603 0.67666 0.0
C868 C 0.36274 0.973 0.70249 0.0
C869 C 0.33995 0.977 0.72303 0.0
C870 C 0.43074 0.96584 0.63629 0.0
C871 C 0.42084 0.97528 0.60795 0.0
C872 C 0.41026 0.9574 0.65811 0.0
C873 C 0.37952 0.95835 0.65205 0.0
C874 C 0.36962 0.96642 0.62336 0.0
C875 C 0.3901 0.97478 0.60146 0.0
H876 H 0.9198 0.33401 0.73405 0.0
H877 H 0.95704 0.26829 0.67341 0.0
H878 H 0.91828 0.37006 0.69302 0.0
H879 H 0.95401 0.3032 0.63339 0.0
H880 H 0.99445 0.42379 0.64243 0.0
H881 H 0.96667 0.39077 0.67544 0.0
H882 H 0.93534 0.3404 0.59917 0.0
H883 H 0.96372 0.37304 0.56608 0.0
C884 C 0.92666 0.32676 0.71203 0.0
C885 C 0.94035 0.29869 0.70783 0.0
C886 C 0.92554 0.34738 0.68849 0.0
C887 C 0.93731 0.33978 0.66041 0.0
C888 C 0.94515 0.30996 0.65487 0.0
C889 C 0.94679 0.28963 0.67832 0.0
C890 C 0.9817 0.40564 0.63269 0.0
C891 C 0.98212 0.40043 0.60176 0.0
C892 C 0.96519 0.38713 0.65155 0.0
C893 C 0.94858 0.36312 0.63986 0.0
C894 C 0.94802 0.35865 0.6088 0.0
C895 C 0.96473 0.37703 0.58994 0.0
H896 H 0.67224 0.05787 0.73524 0.0
H897 H 0.73363 0.09654 0.67095 0.0
H898 H 0.6346 0.05476 0.69775 0.0
H899 H 0.69527 0.09171 0.63233 0.0
H900 H 0.64612 0.01399 0.57811 0.0
H901 H 0.67871 0.04233 0.6115 0.0
H902 H 0.60147 0.07417 0.65986 0.0
H903 H 0.56916 0.04512 0.62745 0.0
C904 C 0.67758 0.06711 0.71352 0.0
C905 C 0.70667 0.07663 0.70614 0.0
C906 C 0.65566 0.06508 0.69172 0.0
C907 C 0.66229 0.07218 0.66193 0.0
C908 C 0.68993 0.08537 0.6551 0.0
C909 C 0.71189 0.08798 0.6772 0.0
C910 C 0.6362 0.02697 0.59596 0.0
C911 C 0.60526 0.02642 0.6009 0.0
C912 C 0.65475 0.0437 0.61465 0.0
C913 C 0.64256 0.06045 0.63827 0.0
C914 C 0.61148 0.06119 0.64205 0.0
C915 C 0.59305 0.04416 0.62375 0.0
H916 H 0.97321 0.27704 0.3336 0.0
H917 H 0.93365 0.34403 0.27543 0.0
H918 H 0.97181 0.31117 0.37439 0.0
H919 H 0.93388 0.37935 0.31718 0.0
H920 H 1.00309 0.43361 0.37713 0.0
H921 H 0.98062 0.40138 0.33955 0.0
H922 H 0.9458 0.34405 0.40926 0.0
H923 H 0.96874 0.37587 0.44693 0.0
C924 C 0.96286 0.29857 0.32955 0.0
C925 C 0.95382 0.30769 0.30072 0.0
C926 C 0.96226 0.31837 0.35329 0.0
C927 C 0.95316 0.34801 0.34884 0.0
C928 C 0.94142 0.3566 0.32095 0.0
C929 C 0.94148 0.33645 0.29707 0.0
C930 C 0.99065 0.41413 0.38445 0.0
C931 C 0.98848 0.40674 0.41491 0.0
C932 C 0.97726 0.39604 0.36295 0.0
C933 C 0.96134 0.37035 0.37157 0.0
C934 C 0.9581 0.36367 0.40208 0.0
C935 C 0.97167 0.38162 0.42356 0.0
H936 H 0.67751 0.02639 0.27972 0.0
H937 H 0.73622 0.9605 0.3197 0.0
H938 H 0.64064 0.01677 0.31811 0.0
H939 H 0.69918 0.9515 0.35898 0.0
H940 H 0.64393 0.98938 0.44168 0.0
H941 H 0.67972 0.98584 0.4008 0.0
H942 H 0.6072 0.97595 0.3378 0.0
H943 H 0.57135 0.97969 0.37823 0.0
C944 C 0.68224 1.00928 0.29626 0.0
C945 C 0.70973 0.99412 0.29666 0.0
C946 C 0.66114 1.00386 0.31831 0.0
C947 C 0.66718 0.98339 0.34135 0.0
C948 C 0.69422 0.96752 0.34143 0.0
C949 C 0.71533 0.97272 0.31909 0.0
C950 C 0.63559 0.9862 0.41917 0.0
C951 C 0.60477 0.98549 0.41316 0.0
C952 C 0.6561 0.98385 0.39586 0.0
C953 C 0.64605 0.98077 0.3663 0.0
C954 C 0.61537 0.97862 0.36046 0.0
C955 C 0.59491 0.98094 0.38365 0.0
H956 H 0.04659 0.7314 0.33868 0.0
H957 H 0.97075 0.68876 0.29668 0.0
H958 H 0.04872 0.69113 0.37564 0.0
H959 H 0.9729 0.6485 0.33357 0.0
H960 H 0.00895 0.56601 0.38213 0.0
H961 H 1.00747 0.60687 0.34604 0.0
H962 H 0.01869 0.67081 0.41748 0.0
H963 H 0.02078 0.63017 0.45362 0.0
C964 C 0.03016 0.71361 0.33763 0.0
C965 C 1.00856 0.71307 0.31486 0.0
C966 C 0.03142 0.69059 0.35868 0.0
C967 C 0.0111 0.66667 0.35726 0.0
C968 C 0.98916 0.66643 0.3348 0.0
C969 C 0.98789 0.68944 0.31379 0.0
C970 C 0.01127 0.58874 0.39018 0.0
C971 C 0.01489 0.59478 0.42079 0.0
C972 C 0.0102 0.61212 0.36952 0.0
C973 C 0.01281 0.64193 0.37906 0.0
C974 C 0.01685 0.64799 0.40954 0.0
C975 C 0.01786 0.62466 0.43023 0.0
H976 H 0.28193 0.95029 0.3296 0.0
H977 H 0.35059 0.99733 0.2801 0.0
H978 H 0.31804 0.94039 0.36961 0.0
H979 H 0.38617 0.98637 0.3189 0.0
H980 H 0.44956 0.95849 0.38687 0.0
H981 H 0.41353 0.94763 0.34774 0.0
H982 H 0.3421 0.97866 0.40466 0.0
H983 H 0.37819 0.98907 0.44433 0.0
C984 C 0.30476 0.95785 0.32686 0.0
C985 C 0.31321 0.97486 0.30171 0.0
C986 C 0.32535 0.95208 0.34967 0.0
C987 C 0.35475 0.96274 0.34731 0.0
C988 C 0.36375 0.97748 0.32112 0.0
C989 C 0.34322 0.98363 0.29868 0.0
C990 C 0.42616 0.96285 0.39119 0.0
C991 C 0.41674 0.97548 0.41834 0.0
C992 C 0.40556 0.95632 0.36888 0.0
C993 C 0.37517 0.96253 0.37315 0.0
C994 C 0.36543 0.97338 0.40095 0.0
C995 C 0.38609 0.97972 0.42347 0.0
H996 H 0.95271 0.19276 0.27406 0.0
H997 H 0.04167 0.22846 0.28327 0.0
H998 H 0.96167 0.15915 0.31638 0.0
H999 H 0.05107 0.19389 0.32507 0.0
H1000 H 0.05359 0.10375 0.3861 0.0
H1001 H 0.05064 0.13445 0.3406 0.0
H1002 H 0.97052 0.17614 0.37402 0.0
H1003 H 0.97407 0.14606 0.42009 0.0
C1004 C 0.97478 0.19227 0.28404 0.0
C1005 C 0.99653 0.21324 0.27495 0.0
C1006 C 0.97967 0.17347 0.30877 0.0
C1007 C 1.00679 0.1744 0.32462 0.0
C1008 C 0.02982 0.19282 0.3135 0.0
C1009 C 0.02466 0.21221 0.28909 0.0
C1010 C 0.03579 0.12008 0.38408 0.0
C1011 C 0.01432 0.12283 0.40696 0.0
C1012 C 0.03403 0.13752 0.35792 0.0
C1013 C 0.01019 0.15751 0.35349 0.0
C1014 C 0.98905 0.16075 0.37665 0.0
C1015 C 0.99126 0.14385 0.40321 0.0
H1016 H 0.82063 0.97492 0.28578 0.0
H1017 H 0.81441 0.07103 0.27995 0.0
H1018 H 0.85892 0.97942 0.3245 0.0
H1019 H 0.85373 0.07561 0.3183 0.0
H1020 H 0.94548 0.06 0.37401 0.0
H1021 H 0.9115 0.05914 0.33092 0.0
H1022 H 0.85152 1.00153 0.37977 0.0
H1023 H 0.88504 1.00304 0.42323 0.0
C1024 C 0.82848 0.99706 0.29179 0.0
C1025 C 0.81469 0.02261 0.2794 0.0
C1026 C 0.85006 0.99962 0.31438 0.0
C1027 C 0.85897 0.02784 0.32492 0.0
C1028 C 0.84725 0.05353 0.31072 0.0
C1029 C 0.82508 0.05094 0.28839 0.0
C1030 C 0.92486 0.0474 0.37571 0.0
C1031 C 0.91799 0.03161 0.40219 0.0
C1032 C 0.9054 0.04698 0.35099 0.0
C1033 C 0.87893 0.03009 0.35178 0.0
C1034 C 0.87187 0.01459 0.37836 0.0
C1035 C 0.89095 0.01563 0.40336 0.0
H1036 H 0.06123 0.81272 0.30291 0.0
H1037 H 0.97058 0.83368 0.27805 0.0
H1038 H 0.06202 0.85539 0.33695 0.0
H1039 H 0.97132 0.87683 0.31206 0.0
H1040 H 0.9939 0.96341 0.36744 0.0
H1041 H 0.99563 0.92729 0.32632 0.0
H1042 H 0.03438 0.86167 0.38576 0.0
H1043 H 0.03243 0.89748 0.42686 0.0
C1044 C 0.04191 0.82732 0.30374 0.0
C1045 C 0.01601 0.82009 0.28742 0.0
C1046 C 0.04216 0.85147 0.32366 0.0
C1047 C 0.01655 0.86924 0.32771 0.0
C1048 C 0.99145 0.86363 0.30948 0.0
C1049 C 0.99111 0.83914 0.28968 0.0
C1050 C 1.00284 0.94128 0.37177 0.0
C1051 C 0.01304 0.93345 0.4006 0.0
C1052 C 1.00371 0.92055 0.34816 0.0
C1053 C 0.01538 0.89163 0.3526 0.0
C1054 C 0.02563 0.88386 0.3814 0.0
C1055 C 0.02428 0.90436 0.40508 0.0
H1056 H 0.24207 0.06058 0.31718 0.0
H1057 H 0.1881 0.99701 0.26907 0.0
H1058 H 0.20217 0.06697 0.35392 0.0
H1059 H 0.14815 1.00295 0.30588 0.0
H1060 H 0.07457 0.03189 0.36947 0.0
H1061 H 0.11084 0.03444 0.32928 0.0
H1062 H 0.18246 0.03565 0.39402 0.0
H1063 H 0.146 0.03346 0.43462 0.0
C1064 C 0.22109 0.04894 0.31381 0.0
C1065 C 0.21789 0.02883 0.28988 0.0
C1066 C 0.19846 0.05209 0.33521 0.0
C1067 C 0.17203 0.03512 0.33326 0.0
C1068 C 0.16804 0.01657 0.30809 0.0
C1069 C 0.19078 0.01336 0.28672 0.0
C1070 C 0.09802 0.03277 0.37538 0.0
C1071 C 0.10719 0.03231 0.4056 0.0
C1072 C 0.1189 0.03415 0.35212 0.0
C1073 C 0.14967 0.03525 0.35821 0.0
C1074 C 0.15893 0.03525 0.3884 0.0
C1075 C 0.13798 0.03377 0.41176 0.0
H1076 H 0.97717 0.82711 0.72507 0.0
H1077 H 0.06831 0.81235 0.69768 0.0
H1078 H 0.97221 0.86645 0.68677 0.0
H1079 H 0.06336 0.85107 0.65946 0.0
H1080 H 0.03182 0.89068 0.57002 0.0
H1081 H 0.03507 0.85443 0.61115 0.0
H1082 H 0.9912 0.91704 0.66987 0.0
H1083 H 0.98797 0.95317 0.62899 0.0
C1084 C 0.99638 0.83289 0.71153 0.0
C1085 C 0.02312 0.81663 0.71444 0.0
C1086 C 0.99348 0.85518 0.68936 0.0
C1087 C 0.01719 0.86142 0.66951 0.0
C1088 C 0.04442 0.84637 0.67378 0.0
C1089 C 0.04738 0.82444 0.69597 0.0
C1090 C 0.0226 0.89658 0.5916 0.0
C1091 C 0.00983 0.92495 0.59613 0.0
C1092 C 0.02469 0.87593 0.61529 0.0
C1093 C 0.01364 0.88292 0.64398 0.0
C1094 C 0.99989 0.91085 0.64816 0.0
C1095 C 0.9982 0.93163 0.62466 0.0
H1096 H 0.20097 0.95565 0.71282 0.0
H1097 H 0.20944 0.05103 0.725 0.0
H1098 H 0.16365 0.96377 0.67387 0.0
H1099 H 0.17096 0.05919 0.68625 0.0
H1100 H 0.07773 0.04742 0.63104 0.0
H1101 H 0.11259 0.04414 0.67329 0.0
H1102 H 0.1716 0.98958 0.62022 0.0
H1103 H 0.13716 0.99343 0.57768 0.0
C1104 C 0.19417 0.97839 0.70777 0.0
C1105 C 0.20828 1.0027 0.72201 0.0
C1106 C 0.17301 0.98302 0.68521 0.0
C1107 C 0.16482 0.0121 0.67654 0.0
C1108 C 0.177 0.03651 0.69237 0.0
C1109 C 0.19874 0.03186 0.71479 0.0
C1110 C 0.09827 0.0349 0.6283 0.0
C1111 C 0.10455 0.02047 0.601 0.0
C1112 C 0.11827 0.03319 0.65248 0.0
C1113 C 0.14471 0.01643 0.65018 0.0
C1114 C 0.15127 1.00249 0.62273 0.0
C1115 C 0.13162 1.00479 0.59831 0.0
H1116 H 0.96971 0.18422 0.74515 0.0
H1117 H 0.03718 0.24107 0.7066 0.0
H1118 H 0.97794 0.14736 0.70584 0.0
H1119 H 0.04574 0.20418 0.6671 0.0
H1120 H 0.01664 0.15479 0.57948 0.0
H1121 H 0.0174 0.188 0.62298 0.0
H1122 H 0.00966 0.11144 0.68155 0.0
H1123 H 1.00843 0.07852 0.63856 0.0
C1124 C 0.98749 0.18806 0.72918 0.0
C1125 C 1.00333 0.21526 0.72955 0.0
C1126 C 0.99197 0.1671 0.70627 0.0
C1127 C 0.01221 0.17287 0.68279 0.0
C1128 C 0.02961 0.19911 0.68441 0.0
C1129 C 0.02529 0.21996 0.70754 0.0
C1130 C 0.01511 0.14502 0.60161 0.0
C1131 C 0.01221 0.11381 0.60515 0.0
C1132 C 0.01583 0.16409 0.62667 0.0
C1133 C 0.01357 0.15253 0.65602 0.0
C1134 C 0.01109 0.12134 0.65946 0.0
C1135 C 0.01047 0.10236 0.63456 0.0
H1136 H 0.7782 0.99626 0.68677 0.0
H1137 H 0.83567 0.05569 0.73607 0.0
H1138 H 0.81745 0.98877 0.64956 0.0
H1139 H 0.87501 0.04868 0.69876 0.0
H1140 H 0.94708 0.01704 0.63447 0.0
H1141 H 0.91066 0.01643 0.67462 0.0
H1142 H 0.83917 0.01843 0.60974 0.0
H1143 H 0.87578 0.01856 0.56921 0.0
C1144 C 0.79972 1.00681 0.69023 0.0
C1145 C 0.80407 0.02605 0.71473 0.0
C1146 C 0.82204 1.00304 0.66855 0.0
C1147 C 0.84938 0.01848 0.67069 0.0
C1148 C 0.85441 0.03621 0.69631 0.0
C1149 C 0.83198 0.04003 0.71798 0.0
C1150 C 0.92362 0.01726 0.62852 0.0
C1151 C 0.91458 0.01793 0.59826 0.0
C1152 C 0.90264 0.01704 0.65177 0.0
C1153 C 0.87182 0.0174 0.64569 0.0
C1154 C 0.86268 0.0177 0.61544 0.0
C1155 C 0.88374 0.01796 0.59209 0.0
H1156 H 0.27978 0.98392 0.18051 0.0
H1157 H 0.31662 0.06103 0.22484 0.0
H1158 H 0.31756 0.98833 0.14133 0.0
H1159 H 0.35462 0.06566 0.18571 0.0
H1160 H 0.4413 0.03373 0.13661 0.0
H1161 H 0.39956 0.03574 0.17203 0.0
H1162 H 0.33765 0.01792 0.10017 0.0
H1163 H 0.37874 0.01572 0.06513 0.0
C1164 C 0.29503 1.00275 0.18099 0.0
C1165 C 0.29465 0.02267 0.20522 0.0
C1166 C 0.31702 1.00508 0.15878 0.0
C1167 C 0.33951 0.02713 0.16054 0.0
C1168 C 0.33797 0.04816 0.18385 0.0
C1169 C 0.31576 0.04599 0.20588 0.0
C1170 C 0.41881 0.03027 0.12837 0.0
C1171 C 0.41368 0.02464 0.09785 0.0
C1172 C 0.3948 0.03166 0.14864 0.0
C1173 C 0.3651 0.0271 0.13896 0.0
C1174 C 0.36011 0.02134 0.10854 0.0
C1175 C 0.38391 0.02019 0.08836 0.0
H1176 H 0.03376 0.33052 0.22731 0.0
H1177 H 0.97245 0.28255 0.17076 0.0
H1178 H 0.04023 0.36857 0.18848 0.0
H1179 H 0.97832 0.3208 0.13186 0.0
H1180 H 1.00752 0.38785 0.05981 0.0
H1181 H 1.00815 0.34636 0.09523 0.0
H1182 H 0.01142 0.40908 0.16843 0.0
H1183 H 0.01133 0.45068 0.13296 0.0
C1184 C 0.02251 0.32755 0.20606 0.0
C1185 C 1.00313 0.30308 0.2019 0.0
C1186 C 0.02569 0.34974 0.18395 0.0
C1187 C 0.00942 0.34833 0.15698 0.0
C1188 C 0.99143 0.32279 0.15211 0.0
C1189 C 0.98825 0.30057 0.17432 0.0
C1190 C 1.00845 0.39297 0.08345 0.0
C1191 C 0.00935 0.42298 0.09328 0.0
C1192 C 1.00867 0.36897 0.10388 0.0
C1193 C 0.00994 0.37402 0.13493 0.0
C1194 C 0.01095 0.40403 0.14477 0.0
C1195 C 0.01063 0.42807 0.12433 0.0
H1196 H 0.74581 0.99022 0.17475 0.0
H1197 H 0.71453 0.07277 0.21303 0.0
H1198 H 0.70765 0.9939 0.13566 0.0
H1199 H 0.67621 0.0766 0.17413 0.0
H1200 H 0.58608 0.04642 0.13077 0.0
H1201 H 0.62934 0.04854 0.16441 0.0
H1202 H 0.68687 0.02068 0.09233 0.0
H1203 H 0.64404 0.01844 0.05893 0.0
C1204 C 0.73188 0.01004 0.17381 0.0
C1205 C 0.73389 0.03166 0.19653 0.0
C1206 C 0.70956 0.01194 0.15167 0.0
C1207 C 0.68832 0.0353 0.15194 0.0
C1208 C 0.69176 0.05803 0.17342 0.0
C1209 C 0.71426 0.05627 0.19531 0.0
C1210 C 0.60792 0.04076 0.12207 0.0
C1211 C 0.61127 0.03233 0.09196 0.0
C1212 C 0.63286 0.04222 0.14132 0.0
C1213 C 0.66183 0.03493 0.13114 0.0
C1214 C 0.66505 0.02633 0.10112 0.0
C1215 C 0.64029 0.02519 0.08186 0.0
H1216 H 0.9582 0.72298 0.2132 0.0
H1217 H 0.05023 0.74563 0.19649 0.0
H1218 H 0.9596 0.68619 0.17288 0.0
H1219 H 0.05171 0.70894 0.15575 0.0
H1220 H 0.03369 0.65194 0.07035 0.0
H1221 H 0.03119 0.69338 0.10565 0.0
H1222 H 0.98576 0.63634 0.16897 0.0
H1223 H 0.98837 0.59458 0.13355 0.0
C1224 C 0.97834 0.72106 0.19992 0.0
C1225 C 1.00394 0.73765 0.20768 0.0
C1226 C 0.97936 0.69949 0.17725 0.0
C1227 C 1.00595 0.69408 0.16147 0.0
C1228 C 0.03086 0.71248 0.16746 0.0
C1229 C 0.02992 0.73389 0.19048 0.0
C1230 C 0.02323 0.64809 0.09185 0.0
C1231 C 0.01113 0.61979 0.09902 0.0
C1232 C 0.02191 0.67193 0.11213 0.0
C1233 C 1.00802 0.66839 0.14005 0.0
C1234 C 0.99624 0.64 0.14745 0.0
C1235 C 0.99799 0.61593 0.12729 0.0
H1236 H 0.30361 0.05102 0.78756 0.0
H1237 H 0.26874 0.97611 0.83722 0.0
H1238 H 0.34289 0.0577 0.82506 0.0
H1239 H 0.30771 0.98276 0.87494 0.0
H1240 H 0.37452 0.01257 0.94593 0.0
H1241 H 0.33109 0.01411 0.91358 0.0
H1242 H 0.38822 0.02668 0.83695 0.0
H1243 H 0.43231 0.02501 0.86952 0.0
C1244 C 0.30325 0.03711 0.80745 0.0
C1245 C 0.28254 0.0135 0.80977 0.0
C1246 C 0.32629 0.0404 0.82854 0.0
C1247 C 0.32894 0.02037 0.85273 0.0
C1248 C 0.30642 0.99865 0.85665 0.0
C1249 C 0.28363 0.99514 0.83533 0.0
C1250 C 0.37816 0.01568 0.9222 0.0
C1251 C 0.40732 0.01879 0.91053 0.0
C1252 C 0.353 0.01651 0.90359 0.0
C1253 C 0.35596 0.02072 0.87264 0.0
C1254 C 0.38502 0.02389 0.86079 0.0
C1255 C 0.41039 0.02272 0.87946 0.0
H1256 H 0.02301 0.33986 0.76548 0.0
H1257 H 0.98614 0.28341 0.83431 0.0
H1258 H 0.03101 0.37977 0.80195 0.0
H1259 H 0.99327 0.32339 0.87088 0.0
H1260 H 0.02453 0.39444 0.93551 0.0
H1261 H 0.02511 0.35376 0.89979 0.0
H1262 H 1.00283 0.4158 0.82897 0.0
H1263 H 1.00297 0.45702 0.86493 0.0
C1264 C 0.0175 0.33568 0.7887 0.0
C1265 C 1.00457 0.3082 0.79714 0.0
C1266 C 0.0215 0.35881 0.80956 0.0
C1267 C 0.01244 0.35528 0.83953 0.0
C1268 C 1.00089 0.32711 0.84822 0.0
C1269 C 0.99699 0.30394 0.8273 0.0
C1270 C 0.01975 0.39965 0.91233 0.0
C1271 C 0.01345 0.42933 0.90336 0.0
C1272 C 0.01997 0.37605 0.89172 0.0
C1273 C 0.01381 0.38107 0.86127 0.0
C1274 C 1.00806 0.41085 0.85209 0.0
C1275 C 1.00797 0.43462 0.8728 0.0
H1276 H 0.7108 0.99369 0.78212 0.0
H1277 H 0.7411 0.07355 0.82649 0.0
H1278 H 0.67132 0.98758 0.81956 0.0
H1279 H 0.70182 0.06777 0.86386 0.0
H1280 H 0.63934 0.03995 0.938 0.0
H1281 H 0.68162 0.03931 0.90454 0.0
H1282 H 0.6239 0.01333 0.83169 0.0
H1283 H 0.58088 0.01327 0.86583 0.0
C1284 C 0.70997 1.00908 0.80079 0.0
C1285 C 0.72973 0.03358 0.80188 0.0
C1286 C 0.68682 1.00606 0.82182 0.0
C1287 C 0.68293 0.0274 0.84461 0.0
C1288 C 0.70409 0.0507 0.84686 0.0
C1289 C 0.72702 0.05383 0.8257 0.0
C1290 C 0.63531 0.03395 0.9149 0.0
C1291 C 0.6063 0.02662 0.90481 0.0
C1292 C 0.65983 0.03377 0.89556 0.0
C1293 C 0.65646 0.02628 0.86528 0.0
C1294 C 0.62751 0.01887 0.85497 0.0
C1295 C 0.60271 0.01915 0.87446 0.0
H1296 H 0.05477 0.75718 0.82497 0.0
H1297 H 0.96579 0.73489 0.79585 0.0
H1298 H 0.05077 0.72064 0.86551 0.0
H1299 H 0.96169 0.69808 0.83619 0.0
H1300 H 0.98992 0.60409 0.87362 0.0
H1301 H 0.98784 0.64835 0.84106 0.0
H1302 H 0.02586 0.70218 0.91152 0.0
H1303 H 0.02807 0.65832 0.94381 0.0
C1304 C 0.03362 0.74588 0.82843 0.0
C1305 C 0.01043 0.74935 0.80749 0.0
C1306 C 0.0315 0.72441 0.85132 0.0
C1307 C 1.0062 0.70578 0.8536 0.0
C1308 C 0.98174 0.71158 0.83468 0.0
C1309 C 0.98374 0.73331 0.81207 0.0
C1310 C 0.99794 0.62533 0.88208 0.0
C1311 C 0.00916 0.62749 0.91137 0.0
C1312 C 0.99642 0.65081 0.86358 0.0
C1313 C 1.00643 0.67897 0.87377 0.0
C1314 C 0.01797 0.68095 0.9029 0.0
C1315 C 0.01915 0.65568 0.92144 0.0
H1316 H 0.17707 0.28171 0.02479 0.0
H1317 H 0.24265 0.33796 0.98226 0.0
H1318 H 0.13947 0.32103 0.01854 0.0
H1319 H 0.20514 0.3771 0.97511 0.0
H1320 H 0.14374 0.45441 1.0045 0.0
H1321 H 0.1797 0.41331 1.00419 0.0
H1322 H 0.10818 0.35057 0.9876 0.0
H1323 H 0.07232 0.39136 0.98864 0.0
C1324 C 0.1831 0.30204 0.01297 0.0
C1325 C 0.21269 0.3065 1.00357 0.0
C1326 C 0.16159 0.3248 0.00954 0.0
C1327 C 0.16914 0.35272 0.99665 0.0
C1328 C 0.19844 0.35635 0.98574 0.0
C1329 C 0.21989 0.33367 0.98929 0.0
C1330 C 0.13565 0.43189 1.00067 0.0
C1331 C 0.10491 0.42649 0.99678 0.0
C1332 C 0.15638 0.40818 1.00028 0.0
C1333 C 0.14708 0.37827 0.99587 0.0
C1334 C 0.11637 0.37303 0.99155 0.0
C1335 C 0.09569 0.39665 0.99203 0.0
H1336 H 0.21871 0.72779 0.05395 0.0
H1337 H 0.19858 0.74907 0.96213 0.0
H1338 H 0.17778 0.69153 0.05479 0.0
H1339 H 0.15734 0.71302 0.96288 0.0
H1340 H 0.07403 0.65492 0.98277 0.0
H1341 H 0.10821 0.69727 0.98527 0.0
H1342 H 0.17394 0.64134 0.0287 0.0
H1343 H 0.13959 0.5986 0.02616 0.0
C1344 C 0.20443 0.7259 0.03446 0.0
C1345 C 0.21149 0.74172 1.00815 0.0
C1346 C 0.18145 0.70459 0.03469 0.0
C1347 C 0.16473 0.69884 1.0087 0.0
C1348 C 0.16981 0.71685 0.98329 0.0
C1349 C 0.19309 0.73794 0.98297 0.0
C1350 C 0.09578 0.65151 0.99289 0.0
C1351 C 0.10399 0.62323 1.00437 0.0
C1352 C 0.1154 0.67589 0.99422 0.0
C1353 C 0.14369 0.67287 1.00745 0.0
C1354 C 0.15208 0.64456 0.01877 0.0
C1355 C 0.13255 0.61996 0.01704 0.0
H1356 H 0.3022 0.23815 0.96814 0.0
H1357 H 0.26552 0.18345 0.03847 0.0
H1358 H 0.34186 0.20128 0.96021 0.0
H1359 H 0.30499 0.14661 0.03086 0.0
H1360 H 0.37293 0.07771 1.00257 0.0
H1361 H 0.32945 0.10991 1.00032 0.0
H1362 H 0.38657 0.18691 0.9887 0.0
H1363 H 0.43064 0.15436 0.99043 0.0
C1364 C 0.30164 0.21742 0.98078 0.0
C1365 C 0.28018 0.2134 1.00342 0.0
C1366 C 0.32488 0.19663 0.97681 0.0
C1367 C 0.32714 0.1711 0.99525 0.0
C1368 C 0.30408 0.16581 0.01606 0.0
C1369 C 0.28103 0.18672 0.02016 0.0
C1370 C 0.37653 0.10148 0.99944 0.0
C1371 C 0.4057 0.11327 0.9969 0.0
C1372 C 0.35133 0.12005 0.99824 0.0
C1373 C 0.35422 0.15114 0.99438 0.0
C1374 C 0.38332 0.16303 0.99132 0.0
C1375 C 0.4087 0.14437 0.99262 0.0
H1376 H 0.84217 0.28654 0.03569 0.0
H1377 H 0.78479 0.32876 0.97076 0.0
H1378 H 0.87944 0.32579 0.02835 0.0
H1379 H 0.82207 0.36829 0.96315 0.0
H1380 H 0.87564 0.45338 0.99385 0.0
H1381 H 0.84071 0.41108 0.9929 0.0
H1382 H 0.91492 0.34943 0.99513 0.0
H1383 H 0.94951 0.39107 0.99644 0.0
C1384 C 0.8382 0.30348 0.01876 0.0
C1385 C 0.81093 0.30404 1.00317 0.0
C1386 C 0.8594 0.32627 0.01475 0.0
C1387 C 0.85374 0.35057 0.99535 0.0
C1388 C 0.82709 0.35022 0.97854 0.0
C1389 C 0.806 0.3272 0.98237 0.0
C1390 C 0.88452 0.43083 0.99405 0.0
C1391 C 0.91558 0.42598 0.99542 0.0
C1392 C 0.86446 0.40649 0.99327 0.0
C1393 C 0.87491 0.37666 0.99401 0.0
C1394 C 0.90592 0.37194 0.99492 0.0
C1395 C 0.92586 0.39608 0.99557 0.0
H1396 H 0.73593 0.83548 0.96257 0.0
H1397 H 0.71135 0.8164 0.05375 0.0
H1398 H 0.70045 0.87753 0.96171 0.0
H1399 H 0.67589 0.85795 0.05295 0.0
H1400 H 0.5854 0.89804 0.02283 0.0
H1401 H 0.62701 0.86275 0.02531 0.0
H1402 H 0.685 0.92819 0.98439 0.0
H1403 H 0.64338 0.96375 0.98209 0.0
C1404 C 0.72393 0.84109 0.98281 0.0
C1405 C 0.72673 0.82287 1.00835 0.0
C1406 C 0.70332 0.86495 0.98225 0.0
C1407 C 0.68483 0.87075 1.00709 0.0
C1408 C 0.68931 0.85381 0.03326 0.0
C1409 C 0.71001 0.8303 0.03389 0.0
C1410 C 0.60695 0.90497 0.01427 0.0
C1411 C 0.61089 0.93386 1.0023 0.0
C1412 C 0.63094 0.88478 0.01592 0.0
C1413 C 0.6595 0.89267 1.00526 0.0
C1414 C 0.66336 0.92135 0.99278 0.0
C1415 C 0.63946 0.94177 0.99159 0.0
H1416 H 0.82244 0.75143 0.04424 0.0
H1417 H 0.80551 0.73154 0.95158 0.0
H1418 H 0.86281 0.71433 0.04493 0.0
H1419 H 0.84541 0.69415 0.95224 0.0
H1420 H 0.88031 0.60008 0.98189 0.0
H1421 H 0.84681 0.64342 0.97898 0.0
H1422 H 0.9129 0.69781 0.02343 0.0
H1423 H 0.94645 0.65487 0.02597 0.0
C1424 C 0.82846 0.74035 0.02359 0.0
C1425 C 0.8112 0.74492 0.99769 0.0
C1426 C 0.85122 0.71865 0.02408 0.0
C1427 C 0.85685 0.70073 0.99882 0.0
C1428 C 0.84129 0.70715 0.97224 0.0
C1429 C 0.81891 0.7291 0.97164 0.0
C1430 C 0.88768 0.62122 0.99108 0.0
C1431 C 0.91624 0.62387 1.00391 0.0
C1432 C 0.86858 0.64617 0.98921 0.0
C1433 C 0.87732 0.67425 1.00066 0.0
C1434 C 0.90547 0.67662 0.01432 0.0
C1435 C 0.92473 0.6519 0.01569 0.0
H1436 H 0.31265 0.8129 0.95083 0.0
H1437 H 0.28878 0.82774 0.04291 0.0
H1438 H 0.34983 0.85282 0.95374 0.0
H1439 H 0.32594 0.8681 0.04591 0.0
H1440 H 0.38324 0.95425 0.02913 0.0
H1441 H 0.34195 0.91871 0.0263 0.0
H1442 H 0.39913 0.85585 0.98077 0.0
H1443 H 0.4407 0.89151 0.98365 0.0
C1444 C 0.31456 0.82557 0.97137 0.0
C1445 C 0.29751 0.81743 0.99653 0.0
C1446 C 0.33627 0.84805 0.97322 0.0
C1447 C 0.34139 0.86321 1.00024 0.0
C1448 C 0.32263 0.85681 0.02476 0.0
C1449 C 0.30102 0.834 0.02297 0.0
C1450 C 0.38715 0.93276 0.01865 0.0
C1451 C 0.41538 0.92579 1.00653 0.0
C1452 C 0.36341 0.91236 0.01713 0.0
C1453 C 0.36704 0.88455 1.00303 0.0
C1454 C 0.39543 0.87728 0.9914 0.0
C1455 C 0.41937 0.89756 0.99333 0.0
H1456 H 0.69314 0.26069 0.97638 0.0
H1457 H 0.7476 0.19306 0.01825 0.0
H1458 H 0.65346 0.22389 0.9682 0.0
H1459 H 0.708 0.1562 0.01067 0.0
H1460 H 0.57583 0.16213 1.00084 0.0
H1461 H 0.61706 0.19817 0.99885 0.0
H1462 H 0.67835 0.12665 0.97773 0.0
H1463 H 0.63774 0.09091 0.98019 0.0
C1464 C 0.69709 0.23758 0.98266 0.0
C1465 C 0.72385 0.22956 0.99718 0.0
C1466 C 0.67408 0.2166 0.97861 0.0
C1467 C 0.67714 0.187 0.98911 0.0
C1468 C 0.70475 0.1786 1.00196 0.0
C1469 C 0.72772 0.19964 1.00604 0.0
C1470 C 0.59805 0.15414 0.99559 0.0
C1471 C 0.60324 0.12341 0.99109 0.0
C1472 C 0.62178 0.17486 0.99427 0.0
C1473 C 0.65132 0.16543 0.98832 0.0
C1474 C 0.65619 0.13484 0.98295 0.0
C1475 C 0.63265 0.11424 0.98432 0.0
H1476 H 0.55592 0.67697 0.78313 0.0
H1477 H 0.46565 0.70017 0.80697 0.0
H1478 H 0.55489 0.63562 0.81949 0.0
H1479 H 0.46458 0.65931 0.84337 0.0
H1480 H 0.49287 0.61926 0.93495 0.0
H1481 H 0.49147 0.65391 0.89255 0.0
H1482 H 0.53064 0.58643 0.83598 0.0
H1483 H 0.53185 0.55161 0.87831 0.0
C1484 C 0.5354 0.67235 0.7951 0.0
C1485 C 0.51069 0.69152 0.79175 0.0
C1486 C 0.5349 0.64892 0.81626 0.0
C1487 C 0.50983 0.64448 0.83485 0.0
C1488 C 0.48443 0.66235 0.82987 0.0
C1489 C 0.48483 0.68544 0.80859 0.0
C1490 C 0.50125 0.61177 0.91353 0.0
C1491 C 0.51242 0.58253 0.91021 0.0
C1492 C 0.50021 0.63158 0.88909 0.0
C1493 C 0.51074 0.62294 0.86068 0.0
C1494 C 0.52238 0.59388 0.85746 0.0
C1495 C 0.52294 0.57387 0.88178 0.0
H1496 H 0.34415 0.52564 0.77482 0.0
H1497 H 0.29115 0.45586 0.81483 0.0
H1498 H 0.38225 0.51882 0.81344 0.0
H1499 H 0.32917 0.44881 0.85363 0.0
H1500 H 0.37976 0.47984 0.93998 0.0
H1501 H 0.34535 0.47842 0.89729 0.0
H1502 H 0.41983 0.48737 0.83676 0.0
H1503 H 0.45391 0.4891 0.87884 0.0
C1504 C 0.34145 0.50768 0.79092 0.0
C1505 C 0.31505 0.49065 0.79114 0.0
C1506 C 0.36308 0.50403 0.81345 0.0
C1507 C 0.35869 0.48354 0.83711 0.0
C1508 C 0.33318 0.46511 0.83614 0.0
C1509 C 0.31171 0.4686 0.81343 0.0
C1510 C 0.38882 0.48141 0.9176 0.0
C1511 C 0.41979 0.48468 0.91322 0.0
C1512 C 0.36908 0.48036 0.89301 0.0
C1513 C 0.37972 0.48276 0.86338 0.0
C1514 C 0.41066 0.48575 0.8591 0.0
C1515 C 0.4303 0.48662 0.8835 0.0
H1516 H 0.49217 0.32516 0.77402 0.0
H1517 H 0.52912 0.25548 0.82951 0.0
H1518 H 0.50005 0.3614 0.81408 0.0
H1519 H 0.53768 0.29164 0.86964 0.0
H1520 H 0.50764 0.35477 0.94694 0.0
H1521 H 0.50846 0.31873 0.90569 0.0
H1522 H 0.53299 0.38951 0.84452 0.0
H1523 H 0.5316 0.42522 0.8851 0.0
C1524 C 0.50335 0.31792 0.79429 0.0
C1525 C 0.51077 0.28763 0.79824 0.0
C1526 C 0.50762 0.33863 0.81753 0.0
C1527 C 0.51925 0.32958 0.84552 0.0
C1528 C 0.52822 0.29951 0.84876 0.0
C1529 C 0.52396 0.27885 0.82549 0.0
C1530 C 0.51338 0.36258 0.92473 0.0
C1531 C 0.51914 0.39313 0.91958 0.0
C1532 C 0.51401 0.34186 0.90098 0.0
C1533 C 0.52056 0.35107 0.87143 0.0
C1534 C 0.52721 0.38146 0.86663 0.0
C1535 C 0.52648 0.40206 0.89018 0.0
H1536 H 0.68043 0.52888 0.77556 0.0
H1537 H 0.73567 0.46064 0.81537 0.0
H1538 H 0.64328 0.52175 0.81492 0.0
H1539 H 0.69859 0.45331 0.855 0.0
H1540 H 0.64751 0.48434 0.94143 0.0
H1541 H 0.68189 0.48338 0.89871 0.0
H1542 H 0.60698 0.48864 0.83808 0.0
H1543 H 0.573 0.48992 0.88001 0.0
C1544 C 0.68386 0.51125 0.79189 0.0
C1545 C 0.71052 0.49466 0.79179 0.0
C1546 C 0.66278 0.5074 0.81478 0.0
C1547 C 0.66804 0.48718 0.8385 0.0
C1548 C 0.69394 0.46935 0.83739 0.0
C1549 C 0.71487 0.473 0.81427 0.0
C1550 C 0.63839 0.48522 0.91901 0.0
C1551 C 0.60732 0.48736 0.91453 0.0
C1552 C 0.65809 0.48443 0.89445 0.0
C1553 C 0.64726 0.48598 0.8648 0.0
C1554 C 0.61625 0.48776 0.86045 0.0
C1555 C 0.59668 0.48838 0.88478 0.0
H1556 H 0.54846 0.2791 0.21859 0.0
H1557 H 0.47442 0.32878 0.25458 0.0
H1558 H 0.55578 0.31763 0.18032 0.0
H1559 H 0.48137 0.36729 0.21637 0.0
H1560 H 0.50852 0.43905 0.1498 0.0
H1561 H 0.51083 0.40629 0.19311 0.0
H1562 H 0.52708 0.3307 0.13542 0.0
H1563 H 0.52524 0.36373 0.0917 0.0
C1564 C 0.53481 0.29912 0.21933 0.0
C1565 C 0.51132 0.30124 0.2401 0.0
C1566 C 0.53846 0.32085 0.19689 0.0
C1567 C 0.51878 0.34535 0.19472 0.0
C1568 C 0.49708 0.34887 0.21728 0.0
C1569 C 0.49334 0.32701 0.2396 0.0
C1570 C 0.51274 0.41547 0.14611 0.0
C1571 C 0.51662 0.40417 0.11693 0.0
C1572 C 0.51395 0.39661 0.17116 0.0
C1573 C 0.51923 0.36577 0.168 0.0
C1574 C 0.52342 0.35441 0.13887 0.0
C1575 C 0.52205 0.37332 0.11368 0.0
H1576 H 0.68771 0.53387 0.24838 0.0
H1577 H 0.73568 0.46206 0.20593 0.0
H1578 H 0.64798 0.52957 0.21096 0.0
H1579 H 0.69607 0.45751 0.16848 0.0
H1580 H 0.64606 0.49237 0.08425 0.0
H1581 H 0.68117 0.48992 0.12611 0.0
H1582 H 0.60812 0.49941 0.18826 0.0
H1583 H 0.57312 0.50187 0.14679 0.0
C1584 C 0.68897 0.51614 0.23195 0.0
C1585 C 0.71443 0.49785 0.23049 0.0
C1586 C 0.66642 0.5139 0.2102 0.0
C1587 C 0.66906 0.49354 0.1863 0.0
C1588 C 0.69354 0.47379 0.1862 0.0
C1589 C 0.71592 0.47591 0.20804 0.0
C1590 C 0.63743 0.49389 0.10679 0.0
C1591 C 0.6066 0.49724 0.11186 0.0
C1592 C 0.65757 0.49225 0.13088 0.0
C1593 C 0.64749 0.49425 0.16068 0.0
C1594 C 0.61675 0.49793 0.1657 0.0
C1595 C 0.59663 0.49929 0.14172 0.0
H1596 H 0.56517 0.70882 0.20537 0.0
H1597 H 0.4742 0.69178 0.23184 0.0
H1598 H 0.56237 0.66829 0.16893 0.0
H1599 H 0.47132 0.65079 0.1954 0.0
H1600 H 0.4887 0.56411 0.13939 0.0
H1601 H 0.49164 0.6005 0.17987 0.0
H1602 H 0.53463 0.66328 0.12036 0.0
H1603 H 0.53163 0.62678 0.07961 0.0
C1604 C 0.54491 0.69559 0.20416 0.0
C1605 C 0.52002 0.70328 0.22175 0.0
C1606 C 0.54311 0.67273 0.18287 0.0
C1607 C 0.51642 0.65668 0.1787 0.0
C1608 C 0.49222 0.66274 0.19796 0.0
C1609 C 0.49395 0.68594 0.21915 0.0
C1610 C 0.49868 0.58574 0.13479 0.0
C1611 C 0.51003 0.59243 0.10612 0.0
C1612 C 0.50024 0.60665 0.15808 0.0
C1613 C 0.51363 0.63473 0.15356 0.0
C1614 C 0.52455 0.64167 0.12477 0.0
C1615 C 0.52257 0.62088 0.10129 0.0
H1616 H 0.32081 0.45259 0.23659 0.0
H1617 H 0.32036 0.54864 0.22771 0.0
H1618 H 0.35927 0.44936 0.19757 0.0
H1619 H 0.35809 0.54549 0.18838 0.0
H1620 H 0.38576 0.522 0.0905 0.0
H1621 H 0.35305 0.52403 0.13457 0.0
H1622 H 0.41317 0.46548 0.18239 0.0
H1623 H 0.446 0.46389 0.13878 0.0
C1624 C 0.33002 0.47307 0.22742 0.0
C1625 C 0.31796 0.50091 0.23573 0.0
C1626 C 0.35164 0.47123 0.20464 0.0
C1627 C 0.36121 0.49715 0.18933 0.0
C1628 C 0.35082 0.52508 0.1993 0.0
C1629 C 0.3297 0.52693 0.22233 0.0
C1630 C 0.3918 0.50935 0.1103 0.0
C1631 C 0.41853 0.49288 0.11108 0.0
C1632 C 0.37325 0.51073 0.13567 0.0
C1633 C 0.38066 0.49513 0.16216 0.0
C1634 C 0.40681 0.47777 0.16246 0.0
C1635 C 0.42562 0.47693 0.13742 0.0
H1636 H 0.77402 0.52278 0.68315 0.0
H1637 H 0.82354 0.46369 0.74104 0.0
H1638 H 0.81236 0.51759 0.6447 0.0
H1639 H 0.86185 0.45779 0.7025 0.0
H1640 H 0.94257 0.49108 0.64666 0.0
H1641 H 0.90125 0.48845 0.68226 0.0
H1642 H 0.83823 0.4877 0.60906 0.0
H1643 H 0.87913 0.49101 0.57372 0.0
C1644 C 0.7924 0.50746 0.68701 0.0
C1645 C 0.79535 0.49301 0.71477 0.0
C1646 C 0.81466 0.50468 0.6651 0.0
C1647 C 0.84062 0.48755 0.67048 0.0
C1648 C 0.84255 0.4716 0.69764 0.0
C1649 C 0.82026 0.47439 0.71952 0.0
C1650 C 0.91993 0.4904 0.63813 0.0
C1651 C 0.91447 0.49156 0.60715 0.0
C1652 C 0.89613 0.48859 0.65859 0.0
C1653 C 0.86617 0.48785 0.64868 0.0
C1654 C 0.86083 0.48863 0.6177 0.0
C1655 C 0.88451 0.49045 0.59733 0.0
H1656 H 0.47512 0.76685 0.69946 0.0
H1657 H 0.56962 0.78125 0.71049 0.0
H1658 H 0.47374 0.80551 0.66055 0.0
H1659 H 0.56838 0.8201 0.67189 0.0
H1660 H 0.54365 0.91627 0.63928 0.0
H1661 H 0.54636 0.8721 0.67208 0.0
H1662 H 0.49096 0.82276 0.61042 0.0
H1663 H 0.48826 0.86647 0.57791 0.0
C1664 C 0.49591 0.77705 0.69237 0.0
C1665 C 0.52259 0.77043 0.70763 0.0
C1666 C 0.49507 0.79969 0.67045 0.0
C1667 C 0.52084 0.81652 0.66357 0.0
C1668 C 0.54799 0.80808 0.67703 0.0
C1669 C 0.54888 0.78523 0.6986 0.0
C1670 C 0.53187 0.89609 0.6329 0.0
C1671 C 0.51585 0.89503 0.60587 0.0
C1672 C 0.53368 0.87062 0.65149 0.0
C1673 C 0.51911 0.84365 0.64376 0.0
C1674 C 0.50245 0.843 0.61715 0.0
C1675 C 0.50101 0.86817 0.59845 0.0
H1676 H 0.22764 0.4509 0.7198 0.0
H1677 H 0.22905 0.54483 0.69737 0.0
H1678 H 0.18889 0.44269 0.68132 0.0
H1679 H 0.18997 0.53681 0.66002 0.0
H1680 H 0.08718 0.50975 0.64238 0.0
H1681 H 0.12994 0.51112 0.67687 0.0
H1682 H 0.18258 0.46049 0.61424 0.0
H1683 H 0.14024 0.45975 0.5793 0.0
C1684 C 0.22057 0.46951 0.70593 0.0
C1685 C 0.23167 0.49846 0.71145 0.0
C1686 C 0.1981 0.46491 0.68424 0.0
C1687 C 0.18611 0.48925 0.66811 0.0
C1688 C 0.19858 0.51773 0.67232 0.0
C1689 C 0.22122 0.52222 0.69346 0.0
C1690 C 0.10768 0.49852 0.63613 0.0
C1691 C 0.11022 0.48469 0.60803 0.0
C1692 C 0.13218 0.49939 0.65582 0.0
C1693 C 0.15953 0.48583 0.64823 0.0
C1694 C 0.16175 0.47096 0.62072 0.0
C1695 C 0.1375 0.47068 0.60072 0.0
H1696 H 0.53746 0.19074 0.73537 0.0
H1697 H 0.47299 0.23296 0.6775 0.0
H1698 H 0.5451 0.15118 0.69823 0.0
H1699 H 0.48026 0.19364 0.64044 0.0
H1700 H 0.51103 0.12774 0.57071 0.0
H1701 H 0.51235 0.16957 0.605 0.0
H1702 H 0.5162 0.10829 0.67969 0.0
H1703 H 0.51533 0.06585 0.64504 0.0
C1704 C 0.52596 0.19231 0.71408 0.0
C1705 C 0.50526 0.21549 0.70902 0.0
C1706 C 0.52978 0.16924 0.69306 0.0
C1707 C 0.51305 0.16881 0.66633 0.0
C1708 C 0.49381 0.19316 0.66051 0.0
C1709 C 0.48985 0.21602 0.68162 0.0
C1710 C 0.5122 0.12286 0.59441 0.0
C1711 C 0.51285 0.09302 0.60489 0.0
C1712 C 0.51287 0.14712 0.61419 0.0
C1713 C 0.51428 0.14259 0.64527 0.0
C1714 C 0.51543 0.1128 0.6559 0.0
C1715 C 0.51465 0.08836 0.636 0.0
H1716 H 0.81115 0.46189 0.29716 0.0
H1717 H 0.78183 0.54507 0.3357 0.0
H1718 H 0.84969 0.45729 0.33584 0.0
H1719 H 0.82023 0.54078 0.37435 0.0
H1720 H 0.88191 0.51521 0.45109 0.0
H1721 H 0.83953 0.51384 0.41729 0.0
H1722 H 0.89712 0.48388 0.34603 0.0
H1723 H 0.93997 0.4847 0.38032 0.0
C1724 C 0.812 0.47842 0.31484 0.0
C1725 C 0.79288 0.50339 0.31396 0.0
C1726 C 0.83457 0.4762 0.33657 0.0
C1727 C 0.83848 0.49889 0.35801 0.0
C1728 C 0.81786 0.52275 0.35838 0.0
C1729 C 0.79549 0.52506 0.3365 0.0
C1730 C 0.88576 0.50825 0.42823 0.0
C1731 C 0.9146 0.50007 0.41852 0.0
C1732 C 0.86129 0.50761 0.40876 0.0
C1733 C 0.86471 0.49865 0.3789 0.0
C1734 C 0.89353 0.49051 0.36902 0.0
C1735 C 0.91821 0.49133 0.38856 0.0
H1736 H 0.46323 0.79302 0.3012 0.0
H1737 H 0.55491 0.77098 0.32068 0.0
H1738 H 0.46262 0.82811 0.34305 0.0
H1739 H 0.55436 0.80588 0.36291 0.0
H1740 H 0.53417 0.86251 0.44781 0.0
H1741 H 0.5317 0.82069 0.41285 0.0
H1742 H 0.48924 0.87799 0.34761 0.0
H1743 H 0.4919 0.92003 0.3825 0.0
C1744 C 0.48276 0.7945 0.31547 0.0
C1745 C 0.50894 0.77878 0.308 0.0
C1746 C 0.48265 0.81511 0.33904 0.0
C1747 C 0.50863 0.82031 0.35594 0.0
C1748 C 0.53396 0.80244 0.35034 0.0
C1749 C 0.53417 0.78204 0.32645 0.0
C1750 C 0.5243 0.8663 0.426 0.0
C1751 C 0.51317 0.89479 0.41806 0.0
C1752 C 0.52297 0.84225 0.40594 0.0
C1753 C 0.51 0.84582 0.37754 0.0
C1754 C 0.49896 0.87431 0.36951 0.0
C1755 C 0.50074 0.89853 0.3894 0.0
H1756 H 0.24558 0.53694 0.33412 0.0
H1757 H 0.22042 0.4482 0.3064 0.0
H1758 H 0.20699 0.53572 0.37286 0.0
H1759 H 0.18168 0.44685 0.3449 0.0
H1760 H 0.08911 0.47584 0.38274 0.0
H1761 H 0.13282 0.47363 0.34969 0.0
H1762 H 0.18744 0.51245 0.41909 0.0
H1763 H 0.14417 0.51476 0.45183 0.0
C1764 C 0.23294 0.51651 0.33743 0.0
C1765 C 0.23667 0.49237 0.31768 0.0
C1766 C 0.21038 0.51596 0.35929 0.0
C1767 C 0.19068 0.49141 0.36164 0.0
C1768 C 0.19599 0.46635 0.34341 0.0
C1769 C 0.21875 0.46678 0.32184 0.0
C1770 C 0.11038 0.48408 0.39085 0.0
C1771 C 0.11293 0.49539 0.42005 0.0
C1772 C 0.13557 0.48251 0.37204 0.0
C1773 C 0.16387 0.49262 0.38178 0.0
C1774 C 0.16615 0.5045 0.41073 0.0
C1775 C 0.14119 0.50571 0.42958 0.0
H1776 H 0.5434 0.21717 0.31419 0.0
H1777 H 0.44836 0.21259 0.32919 0.0
H1778 H 0.55095 0.17679 0.35101 0.0
H1779 H 0.45578 0.1718 0.36492 0.0
H1780 H 0.47974 0.07196 0.3859 0.0
H1781 H 0.47615 0.11634 0.35346 0.0
H1782 H 0.53982 0.16256 0.40917 0.0
H1783 H 0.54282 0.11866 0.442 0.0
C1784 C 0.52427 0.2084 0.32616 0.0
C1785 C 0.49529 0.21819 0.3188 0.0
C1786 C 0.52853 0.18495 0.34688 0.0
C1787 C 0.50386 0.17059 0.36022 0.0
C1788 C 0.47516 0.18197 0.35455 0.0
C1789 C 0.47097 0.20565 0.33441 0.0
C1790 C 0.49324 0.09143 0.39097 0.0
C1791 C 0.51149 0.09177 0.41653 0.0
C1792 C 0.49102 0.11693 0.37258 0.0
C1793 C 0.50756 0.14305 0.37892 0.0
C1794 C 0.52682 0.14286 0.40371 0.0
C1795 C 0.52847 0.11769 0.42248 0.0
H1796 H 0.71022 0.77573 0.55783 0.0
H1797 H 0.70573 0.78015 0.46169 0.0
H1798 H 0.67035 0.81327 0.56121 0.0
H1799 H 0.66653 0.8181 0.46496 0.0
H1800 H 0.64063 0.91726 0.4865 0.0
H1801 H 0.67336 0.87311 0.48488 0.0
H1802 H 0.61495 0.82684 0.54619 0.0
H1803 H 0.58203 0.87057 0.54736 0.0
C1804 C 0.69953 0.78342 0.53746 0.0
C1805 C 0.71078 0.77459 0.5095 0.0
C1806 C 0.67712 0.80539 0.53936 0.0
C1807 C 0.66592 0.81922 0.51332 0.0
C1808 C 0.67512 0.80827 0.4854 0.0
C1809 C 0.69705 0.78599 0.48352 0.0
C1810 C 0.63505 0.89782 0.49992 0.0
C1811 C 0.6088 0.89743 0.51707 0.0
C1812 C 0.65354 0.87242 0.49873 0.0
C1813 C 0.6465 0.84634 0.51514 0.0
C1814 C 0.62091 0.84648 0.53324 0.0
C1815 C 0.60212 0.87156 0.5339 0.0
H1816 H 0.67789 0.23309 0.55131 0.0
H1817 H 0.72939 0.1982 0.47804 0.0
H1818 H 0.64084 0.19353 0.54428 0.0
H1819 H 0.69239 0.15838 0.47079 0.0
H1820 H 0.6442 0.06933 0.49925 0.0
H1821 H 0.67789 0.11266 0.49886 0.0
H1822 H 0.60272 0.17153 0.5125 0.0
H1823 H 0.56937 0.12883 0.51318 0.0
C1824 C 0.68048 0.21782 0.53271 0.0
C1825 C 0.70608 0.2194 0.51463 0.0
C1826 C 0.65945 0.1948 0.52887 0.0
C1827 C 0.66369 0.17236 0.50715 0.0
C1828 C 0.68851 0.17495 0.48798 0.0
C1829 C 0.70938 0.1982 0.49165 0.0
C1830 C 0.63484 0.0915 0.50208 0.0
C1831 C 0.6039 0.09522 0.50637 0.0
C1832 C 0.65416 0.11644 0.50163 0.0
C1833 C 0.64311 0.14578 0.50568 0.0
C1834 C 0.6122 0.14941 0.50965 0.0
C1835 C 0.59297 0.12466 0.50992 0.0
H1836 H 0.82039 0.71654 0.55918 0.0
H1837 H 0.78534 0.68127 0.47674 0.0
H1838 H 0.85748 0.67641 0.561 0.0
H1839 H 0.82256 0.64104 0.47824 0.0
H1840 H 0.88234 0.5608 0.50135 0.0
H1841 H 0.84154 0.59652 0.50365 0.0
H1842 H 0.90301 0.6651 0.53257 0.0
H1843 H 0.9442 0.62902 0.53065 0.0
C1844 C 0.81992 0.69944 0.54204 0.0
C1845 C 0.79957 0.70168 0.51813 0.0
C1846 C 0.84157 0.6768 0.54273 0.0
C1847 C 0.84349 0.65574 0.51949 0.0
C1848 C 0.82175 0.65676 0.49661 0.0
C1849 C 0.80012 0.67958 0.49588 0.0
C1850 C 0.88737 0.58346 0.50832 0.0
C1851 C 0.9168 0.59187 0.51596 0.0
C1852 C 0.8638 0.60404 0.50945 0.0
C1853 C 0.86877 0.63372 0.51845 0.0
C1854 C 0.8982 0.64229 0.52597 0.0
C1855 C 0.92194 0.62167 0.52461 0.0
H1856 H 0.32631 0.76684 0.47339 0.0
H1857 H 0.30617 0.78917 0.56478 0.0
H1858 H 0.36788 0.80255 0.47382 0.0
H1859 H 0.34743 0.82503 0.56531 0.0
H1860 H 0.38544 0.91756 0.53553 0.0
H1861 H 0.35138 0.87475 0.53869 0.0
H1862 H 0.41721 0.81875 0.49602 0.0
H1863 H 0.45125 0.86134 0.49292 0.0
C1864 C 0.33184 0.77812 0.49409 0.0
C1865 C 0.31335 0.77472 0.51923 0.0
C1866 C 0.35535 0.799 0.49423 0.0
C1867 C 0.36056 0.81719 0.51941 0.0
C1868 C 0.3437 0.81181 0.54538 0.0
C1869 C 0.3205 0.79074 0.54533 0.0
C1870 C 0.39261 0.89618 0.52671 0.0
C1871 C 0.42113 0.89302 0.51398 0.0
C1872 C 0.37322 0.87152 0.52881 0.0
C1873 C 0.38166 0.84316 0.51785 0.0
C1874 C 0.40997 0.84017 0.50468 0.0
C1875 C 0.42951 0.86467 0.50299 0.0
H1876 H 0.19919 0.26174 0.48546 0.0
H1877 H 0.24932 0.32374 0.53936 0.0
H1878 H 0.16057 0.29972 0.47732 0.0
H1879 H 0.21077 0.36173 0.53173 0.0
H1880 H 0.14364 0.43045 0.50113 0.0
H1881 H 0.18433 0.39487 0.49887 0.0
H1882 H 0.12161 0.32199 0.50802 0.0
H1883 H 0.08028 0.3579 0.5098 0.0
C1884 C 0.20258 0.28401 0.4944 0.0
C1885 C 0.2277 0.29006 0.51235 0.0
C1886 C 0.18011 0.30558 0.49035 0.0
C1887 C 0.18216 0.33376 0.50422 0.0
C1888 C 0.20839 0.34044 0.52044 0.0
C1889 C 0.23079 0.31881 0.52456 0.0
C1890 C 0.13821 0.40687 0.50263 0.0
C1891 C 0.10834 0.39725 0.50593 0.0
C1892 C 0.16181 0.38637 0.5014 0.0
C1893 C 0.15652 0.35544 0.5034 0.0
C1894 C 0.12663 0.34563 0.50605 0.0
C1895 C 0.10285 0.36625 0.50729 0.0
H1896 H 0.28782 0.19045 0.48485 0.0
H1897 H 0.34013 0.22705 0.55688 0.0
H1898 H 0.32524 0.15101 0.4776 0.0
H1899 H 0.37755 0.18788 0.54987 0.0
H1900 H 0.44996 0.12569 0.51719 0.0
H1901 H 0.41527 0.16717 0.51712 0.0
H1902 H 0.34167 0.10577 0.50593 0.0
H1903 H 0.37683 0.06354 0.50555 0.0
C1904 C 0.30801 0.19082 0.49823 0.0
C1905 C 0.31152 0.21239 0.52083 0.0
C1906 C 0.32913 0.16783 0.49456 0.0
C1907 C 0.35435 0.16596 0.51333 0.0
C1908 C 0.35863 0.18866 0.53477 0.0
C1909 C 0.33738 0.2114 0.53862 0.0
C1910 C 0.42643 0.12068 0.51458 0.0
C1911 C 0.41638 0.09088 0.51143 0.0
C1912 C 0.40644 0.14473 0.51469 0.0
C1913 C 0.37559 0.14002 0.51158 0.0
C1914 C 0.36534 0.11032 0.50806 0.0
C1915 C 0.38548 0.08603 0.5081 0.0
H1916 H 0.81636 0.272 0.47875 0.0
H1917 H 0.77107 0.32884 0.54166 0.0
H1918 H 0.85521 0.31001 0.47217 0.0
H1919 H 0.80991 0.36682 0.53562 0.0
H1920 H 0.87727 0.4374 0.50781 0.0
H1921 H 0.83536 0.40302 0.50529 0.0
H1922 H 0.89649 0.32834 0.50205 0.0
H1923 H 0.93878 0.36293 0.50406 0.0
C1924 C 0.81401 0.29326 0.49012 0.0
C1925 C 0.79014 0.29778 0.51005 0.0
C1926 C 0.83667 0.31481 0.48693 0.0
C1927 C 0.83615 0.34147 0.50368 0.0
C1928 C 0.81112 0.34679 0.52209 0.0
C1929 C 0.78853 0.32516 0.52533 0.0
C1930 C 0.88202 0.41367 0.50648 0.0
C1931 C 0.91175 0.40314 0.50627 0.0
C1932 C 0.85775 0.39385 0.50513 0.0
C1933 C 0.86225 0.36274 0.50347 0.0
C1934 C 0.89198 0.35213 0.50288 0.0
C1935 C 0.91635 0.37202 0.50428 0.0
H1936 H 0.23816 0.68612 0.55224 0.0
H1937 H 0.21098 0.70513 0.46167 0.0
H1938 H 0.20277 0.64398 0.55396 0.0
H1939 H 0.17563 0.66356 0.46338 0.0
H1940 H 0.08635 0.62293 0.49523 0.0
H1941 H 0.12751 0.65872 0.4926 0.0
H1942 H 0.18718 0.59314 0.53093 0.0
H1943 H 0.14602 0.55707 0.53337 0.0
C1944 C 0.22553 0.68056 0.53234 0.0
C1945 C 0.22751 0.69881 0.50676 0.0
C1946 C 0.20501 0.65664 0.5334 0.0
C1947 C 0.18587 0.65081 0.509 0.0
C1948 C 0.18955 0.66777 0.48275 0.0
C1949 C 0.21013 0.69133 0.48162 0.0
C1950 C 0.10816 0.61609 0.50324 0.0
C1951 C 0.11273 0.58699 0.51445 0.0
C1952 C 0.13188 0.63656 0.5015 0.0
C1953 C 0.16078 0.62874 0.51132 0.0
C1954 C 0.16525 0.5999 0.52319 0.0
C1955 C 0.14162 0.57921 0.52446 0.0
loop_
_geom_bond_atom_site_label_1
_geom_bond_atom_site_label_2
_geom_bond_distance
_geom_bond_site_symmetry_2
_ccdc_geom_bond_type
H0 C3 0.931 . S
H1 C6 0.928 . S
H2 C8 0.931 . S
C3 H0 0.931 . S
C3 C4 1.413 1_655 S
C3 C5 1.360 . S
C4 C3 1.413 1_455 S
C4 C8 1.429 . S
C5 C3 1.360 . S
C5 C6 1.372 . S
C6 H1 0.928 . S
C6 C5 1.372 . S
C6 C7 1.404 . S
C7 C6 1.404 . S
C7 C8 1.390 1_655 S
C8 H2 0.931 . S
C8 C4 1.429 . S
C8 C7 1.390 1_455 S
H9 C12 0.931 . S
H10 C15 0.928 . S
H11 C17 0.930 1_565 S
C12 H9 0.931 . S
C12 C13 1.413 . S
C12 C14 1.360 . S
C13 C12 1.413 . S
C13 C17 1.429 . S
C14 C12 1.360 . S
C14 C15 1.373 . S
C15 H10 0.928 . S
C15 C14 1.373 . S
C15 C16 1.405 . S
C16 C15 1.405 . S
C16 C17 1.390 . S
C17 H11 0.930 1_545 S
C17 C13 1.429 . S
C17 C16 1.390 . S
H18 C21 0.931 . S
H19 C24 0.928 . S
H20 C26 0.930 1_655 S
C21 H18 0.931 . S
C21 C22 1.413 . S
C21 C23 1.360 . S
C22 C21 1.413 . S
C22 C26 1.429 . S
C23 C21 1.360 . S
C23 C24 1.373 . S
C24 H19 0.928 . S
C24 C23 1.373 . S
C24 C25 1.405 . S
C25 C24 1.405 . S
C25 C26 1.390 . S
C26 H20 0.930 1_455 S
C26 C22 1.429 . S
C26 C25 1.390 . S
H27 C30 0.931 . S
H28 C33 0.928 . S
H29 C35 0.930 1_565 S
C30 H27 0.931 . S
C30 C31 1.413 . S
C30 C32 1.360 . S
C31 C30 1.413 . S
C31 C35 1.429 . S
C32 C30 1.360 . S
C32 C33 1.373 . S
C33 H28 0.928 . S
C33 C32 1.373 . S
C33 C34 1.405 . S
C34 C33 1.405 . S
C34 C35 1.390 . S
C35 H29 0.930 1_545 S
C35 C31 1.429 . S
C35 C34 1.390 . S
H36 C39 0.931 . S
H37 C42 0.928 . S
H38 C44 0.931 . S
C39 H36 0.931 . S
C39 C40 1.413 1_655 S
C39 C41 1.360 . S
C40 C39 1.413 1_455 S
C40 C44 1.429 . S
C41 C39 1.360 . S
C41 C42 1.372 . S
C42 H37 0.928 . S
C42 C41 1.372 . S
C42 C43 1.404 . S
C43 C42 1.404 . S
C43 C44 1.390 1_655 S
C44 H38 0.931 . S
C44 C40 1.429 . S
C44 C43 1.390 1_455 S
H45 C48 0.931 . S
H46 C51 0.928 . S
H47 C53 0.931 . S
C48 H45 0.931 . S
C48 C49 1.413 1_565 S
C48 C50 1.360 . S
C49 C48 1.413 1_545 S
C49 C53 1.429 . S
C50 C48 1.360 . S
C50 C51 1.372 . S
C51 H46 0.928 . S
C51 C50 1.372 . S
C51 C52 1.404 . S
C52 C51 1.404 . S
C52 C53 1.390 1_565 S
C53 H47 0.931 . S
C53 C49 1.429 . S
C53 C52 1.390 1_545 S
H54 C57 0.931 . S
H55 C60 0.928 . S
H56 C62 0.931 . S
C57 H54 0.931 . S
C57 C58 1.413 1_655 S
C57 C59 1.360 . S
C58 C57 1.413 1_455 S
C58 C62 1.429 . S
C59 C57 1.360 . S
C59 C60 1.372 . S
C60 H55 0.928 . S
C60 C59 1.372 . S
C60 C61 1.404 . S
C61 C60 1.404 . S
C61 C62 1.390 1_655 S
C62 H56 0.931 . S
C62 C58 1.429 . S
C62 C61 1.390 1_455 S
H63 C66 0.931 . S
H64 C69 0.928 . S
H65 C71 0.931 . S
C66 H63 0.931 . S
C66 C67 1.413 1_565 S
C66 C68 1.360 . S
C67 C66 1.413 1_545 S
C67 C71 1.429 . S
C68 C66 1.360 . S
C68 C69 1.372 . S
C69 H64 0.928 . S
C69 C68 1.372 . S
C69 C70 1.404 . S
C70 C69 1.404 . S
C70 C71 1.390 1_565 S
C71 H65 0.931 . S
C71 C67 1.429 . S
C71 C70 1.390 1_545 S
H72 C75 0.931 . S
H73 C78 0.928 . S
H74 C80 0.930 . S
C75 H72 0.931 . S
C75 C76 1.413 . S
C75 C77 1.360 . S
C76 C75 1.413 . S
C76 C80 1.429 1_556 S
C77 C75 1.360 . S
C77 C78 1.372 . S
C78 H73 0.928 . S
C78 C77 1.372 . S
C78 C79 1.404 . S
C79 C78 1.404 . S
C79 C80 1.390 1_556 S
C80 H74 0.930 . S
C80 C76 1.429 1_554 S
C80 C79 1.390 1_554 S
H81 C84 0.931 . S
H82 C87 0.928 . S
H83 C89 0.930 . S
C84 H81 0.931 . S
C84 C85 1.413 . S
C84 C86 1.360 . S
C85 C84 1.413 . S
C85 C89 1.429 1_556 S
C86 C84 1.360 . S
C86 C87 1.372 . S
C87 H82 0.928 . S
C87 C86 1.372 . S
C87 C88 1.404 . S
C88 C87 1.404 . S
C88 C89 1.390 1_556 S
C89 H83 0.930 . S
C89 C85 1.429 1_554 S
C89 C88 1.390 1_554 S
H90 C93 0.931 . S
H91 C96 0.928 . S
H92 C98 0.930 . S
C93 H90 0.931 . S
C93 C94 1.413 . S
C93 C95 1.360 . S
C94 C93 1.413 . S
C94 C98 1.429 1_556 S
C95 C93 1.360 . S
C95 C96 1.372 . S
C96 H91 0.928 . S
C96 C95 1.372 . S
C96 C97 1.404 . S
C97 C96 1.404 . S
C97 C98 1.390 1_556 S
C98 H92 0.930 . S
C98 C94 1.429 1_554 S
C98 C97 1.390 1_554 S
H99 C102 0.931 . S
H100 C105 0.928 . S
H101 C107 0.930 . S
C102 H99 0.931 . S
C102 C103 1.413 . S
C102 C104 1.360 . S
C103 C102 1.413 . S
C103 C107 1.429 1_554 S
C104 C102 1.360 . S
C104 C105 1.373 . S
C105 H100 0.928 . S
C105 C104 1.373 . S
C105 C106 1.405 . S
C106 C105 1.405 . S
C106 C107 1.390 1_554 S
C107 H101 0.930 . S
C107 C103 1.429 1_556 S
C107 C106 1.390 1_556 S
H108 C111 0.931 . S
H109 C114 0.928 . S
H110 C116 0.930 . S
C111 H108 0.931 . S
C111 C112 1.413 . S
C111 C113 1.360 . S
C112 C111 1.413 . S
C112 C116 1.429 . S
C113 C111 1.360 . S
C113 C114 1.372 . S
C114 H109 0.928 . S
C114 C113 1.372 . S
C114 C115 1.404 . S
C115 C114 1.404 . S
C115 C116 1.391 . S
C116 H110 0.930 . S
C116 C112 1.429 . S
C116 C115 1.391 . S
H117 C120 0.931 . S
H118 C123 0.928 . S
H119 C125 0.930 . S
C120 H117 0.931 . S
C120 C121 1.413 . S
C120 C122 1.360 . S
C121 C120 1.413 . S
C121 C125 1.429 . S
C122 C120 1.360 . S
C122 C123 1.372 . S
C123 H118 0.928 . S
C123 C122 1.372 . S
C123 C124 1.404 . S
C124 C123 1.404 . S
C124 C125 1.391 . S
C125 H119 0.930 . S
C125 C121 1.429 . S
C125 C124 1.391 . S
H126 C129 0.931 . S
H127 C132 0.928 . S
H128 C134 0.930 . S
C129 H126 0.931 . S
C129 C130 1.413 . S
C129 C131 1.360 . S
C130 C129 1.413 . S
C130 C134 1.429 . S
C131 C129 1.360 . S
C131 C132 1.372 . S
C132 H127 0.928 . S
C132 C131 1.372 . S
C132 C133 1.404 . S
C133 C132 1.404 . S
C133 C134 1.391 . S
C134 H128 0.930 . S
C134 C130 1.429 . S
C134 C133 1.391 . S
H135 C138 0.931 . S
H136 C141 0.928 . S
H137 C143 0.930 . S
C138 H135 0.931 . S
C138 C139 1.413 . S
C138 C140 1.360 . S
C139 C138 1.413 . S
C139 C143 1.429 . S
C140 C138 1.360 . S
C140 C141 1.372 . S
C141 H136 0.928 . S
C141 C140 1.372 . S
C141 C142 1.404 . S
C142 C141 1.404 . S
C142 C143 1.391 . S
C143 H137 0.930 . S
C143 C139 1.429 . S
C143 C142 1.391 . S
H144 C147 0.931 . S
H145 C150 0.928 . S
H146 C152 0.930 . S
C147 H144 0.931 . S
C147 C148 1.413 . S
C147 C149 1.360 . S
C148 C147 1.413 . S
C148 C152 1.429 . S
C149 C147 1.360 . S
C149 C150 1.372 . S
C150 H145 0.928 . S
C150 C149 1.372 . S
C150 C151 1.404 . S
C151 C150 1.404 . S
C151 C152 1.391 . S
C152 H146 0.930 . S
C152 C148 1.429 . S
C152 C151 1.391 . S
H153 C156 0.931 . S
H154 C159 0.928 . S
H155 C161 0.930 . S
C156 H153 0.931 . S
C156 C157 1.413 . S
C156 C158 1.360 . S
C157 C156 1.413 . S
C157 C161 1.429 . S
C158 C156 1.360 . S
C158 C159 1.372 . S
C159 H154 0.928 . S
C159 C158 1.372 . S
C159 C160 1.404 . S
C160 C159 1.404 . S
C160 C161 1.391 . S
C161 H155 0.930 . S
C161 C157 1.429 . S
C161 C160 1.391 . S
H162 C165 0.931 . S
H163 C168 0.928 . S
H164 C170 0.930 . S
C165 H162 0.931 . S
C165 C166 1.413 . S
C165 C167 1.360 . S
C166 C165 1.413 . S
C166 C170 1.429 . S
C167 C165 1.360 . S
C167 C168 1.372 . S
C168 H163 0.928 . S
C168 C167 1.372 . S
C168 C169 1.404 . S
C169 C168 1.404 . S
C169 C170 1.391 . S
C170 H164 0.930 . S
C170 C166 1.429 . S
C170 C169 1.391 . S
H171 C174 0.931 . S
H172 C177 0.928 . S
H173 C179 0.930 . S
C174 H171 0.931 . S
C174 C175 1.413 . S
C174 C176 1.360 . S
C175 C174 1.413 . S
C175 C179 1.429 . S
C176 C174 1.360 . S
C176 C177 1.372 . S
C177 H172 0.928 . S
C177 C176 1.372 . S
C177 C178 1.404 . S
C178 C177 1.404 . S
C178 C179 1.391 . S
C179 H173 0.930 . S
C179 C175 1.429 . S
C179 C178 1.391 . S
H180 C183 0.931 . S
H181 C186 0.928 . S
H182 C188 0.930 . S
C183 H180 0.931 . S
C183 C184 1.413 . S
C183 C185 1.360 . S
C184 C183 1.413 . S
C184 C188 1.429 . S
C185 C183 1.360 . S
C185 C186 1.372 . S
C186 H181 0.928 . S
C186 C185 1.372 . S
C186 C187 1.404 . S
C187 C186 1.404 . S
C187 C188 1.391 . S
C188 H182 0.930 . S
C188 C184 1.429 . S
C188 C187 1.391 . S
H189 C192 0.931 . S
H190 C195 0.928 . S
H191 C197 0.930 . S
C192 H189 0.931 . S
C192 C193 1.413 . S
C192 C194 1.360 . S
C193 C192 1.413 . S
C193 C197 1.429 . S
C194 C192 1.360 . S
C194 C195 1.372 . S
C195 H190 0.928 . S
C195 C194 1.372 . S
C195 C196 1.404 . S
C196 C195 1.404 . S
C196 C197 1.391 . S
C197 H191 0.930 . S
C197 C193 1.429 . S
C197 C196 1.391 . S
H198 C201 0.931 . S
H199 C204 0.928 . S
H200 C206 0.930 . S
C201 H198 0.931 . S
C201 C202 1.413 . S
C201 C203 1.360 . S
C202 C201 1.413 . S
C202 C206 1.429 . S
C203 C201 1.360 . S
C203 C204 1.372 . S
C204 H199 0.928 . S
C204 C203 1.372 . S
C204 C205 1.404 . S
C205 C204 1.404 . S
C205 C206 1.391 . S
C206 H200 0.930 . S
C206 C202 1.429 . S
C206 C205 1.391 . S
H207 C210 0.931 . S
H208 C213 0.928 . S
H209 C215 0.930 . S
C210 H207 0.931 . S
C210 C211 1.413 . S
C210 C212 1.360 . S
C211 C210 1.413 . S
C211 C215 1.429 . S
C212 C210 1.360 . S
C212 C213 1.372 . S
C213 H208 0.928 . S
C213 C212 1.372 . S
C213 C214 1.404 . S
C214 C213 1.404 . S
C214 C215 1.391 . S
C215 H209 0.930 . S
C215 C211 1.429 . S
C215 C214 1.391 . S
C216 O242 1.283 . S
C216 O260 1.283 . S
C217 O243 1.283 . S
C217 O258 1.283 . S
C218 O244 1.283 . S
C218 O261 1.283 . S
C219 O245 1.283 . S
C219 O259 1.283 . S
C220 O246 1.283 . S
C220 O255 1.283 . S
C221 O247 1.283 . S
C221 O257 1.283 . S
C222 O248 1.283 . S
C222 O254 1.283 . S
C223 O249 1.283 . S
C223 O256 1.283 . S
C224 O250 1.283 . S
C224 O265 1.283 . S
C225 O251 1.283 . S
C225 O263 1.283 . S
C226 O252 1.283 . S
C226 O264 1.283 . S
C227 O253 1.283 . S
C227 O262 1.283 . S
Eu228 O229 2.362 1_455 S
Eu228 O230 2.378 . S
Eu228 O233 2.362 1_455 S
Eu228 O234 2.378 . S
Eu228 O242 2.363 . S
Eu228 O243 2.363 . S
Eu228 O256 2.377 . S
Eu228 O257 2.349 1_455 S
O229 Eu228 2.362 1_655 S
O229 Eu231 2.366 1_565 S
O229 Eu236 2.357 1_665 S
O230 Eu228 2.378 . S
O230 Eu232 2.366 1_565 S
O230 Eu235 2.374 1_565 S
Eu231 O229 2.366 1_545 S
Eu231 O233 2.366 1_545 S
Eu231 O237 2.375 . S
Eu231 O238 2.375 . S
Eu231 O246 2.370 . S
Eu231 O247 2.355 1_545 S
Eu231 O262 2.363 . S
Eu231 O263 2.363 . S
Eu232 O230 2.366 1_545 S
Eu232 O234 2.366 1_545 S
Eu232 O239 2.375 . S
Eu232 O240 2.375 . S
Eu232 O248 2.371 . S
Eu232 O249 2.355 1_545 S
Eu232 O264 2.363 . S
Eu232 O265 2.363 . S
O233 Eu228 2.362 1_655 S
O233 Eu231 2.366 1_565 S
O233 Eu235 2.357 1_665 S
O234 Eu228 2.378 . S
O234 Eu232 2.366 1_565 S
O234 Eu236 2.374 1_565 S
Eu235 O230 2.374 1_545 S
Eu235 O233 2.357 1_445 S
Eu235 O237 2.366 1_455 S
Eu235 O240 2.383 . S
Eu235 O252 2.377 . S
Eu235 O253 2.349 1_455 S
Eu235 O260 2.355 1_545 S
Eu235 O261 2.371 . S
Eu236 O229 2.357 1_445 S
Eu236 O234 2.374 1_545 S
Eu236 O238 2.366 1_455 S
Eu236 O239 2.383 . S
Eu236 O250 2.377 . S
Eu236 O251 2.349 1_455 S
Eu236 O258 2.355 1_545 S
Eu236 O259 2.370 . S
O237 Eu231 2.375 . S
O237 Eu235 2.366 1_655 S
O237 Eu241 2.362 1_655 S
O238 Eu231 2.375 . S
O238 Eu236 2.366 1_655 S
O238 Eu241 2.362 1_655 S
O239 Eu232 2.375 . S
O239 Eu236 2.383 . S
O239 Eu241 2.378 . S
O240 Eu232 2.375 . S
O240 Eu235 2.383 . S
O240 Eu241 2.378 . S
Eu241 O237 2.362 1_455 S
Eu241 O238 2.362 1_455 S
Eu241 O239 2.378 . S
Eu241 O240 2.378 . S
Eu241 O244 2.363 . S
Eu241 O245 2.363 . S
Eu241 O254 2.377 . S
Eu241 O255 2.349 1_455 S
O242 C216 1.283 . S
O242 Eu228 2.363 . S
O243 C217 1.283 . S
O243 Eu228 2.363 . S
O244 C218 1.283 . S
O244 Eu241 2.363 . S
O245 C219 1.283 . S
O245 Eu241 2.363 . S
O246 C220 1.283 . S
O246 Eu231 2.370 . S
O247 C221 1.283 . S
O247 Eu231 2.355 1_565 S
O248 C222 1.283 . S
O248 Eu232 2.371 . S
O249 C223 1.283 . S
O249 Eu232 2.355 1_565 S
O250 C224 1.283 . S
O250 Eu236 2.377 . S
O251 C225 1.283 . S
O251 Eu236 2.349 1_655 S
O252 C226 1.283 . S
O252 Eu235 2.377 . S
O253 C227 1.283 . S
O253 Eu235 2.349 1_655 S
O254 C222 1.283 . S
O254 Eu241 2.377 . S
O255 C220 1.283 . S
O255 Eu241 2.349 1_655 S
O256 C223 1.283 . S
O256 Eu228 2.377 . S
O257 C221 1.283 . S
O257 Eu228 2.349 1_655 S
O258 C217 1.283 . S
O258 Eu236 2.355 1_565 S
O259 C219 1.283 . S
O259 Eu236 2.370 . S
O260 C216 1.283 . S
O260 Eu235 2.355 1_565 S
O261 C218 1.283 . S
O261 Eu235 2.371 . S
O262 C227 1.283 . S
O262 Eu231 2.363 . S
O263 C225 1.283 . S
O263 Eu231 2.363 . S
O264 C226 1.283 . S
O264 Eu232 2.363 . S
O265 C224 1.283 . S
O265 Eu232 2.363 . S
C266 O292 1.283 . S
C266 O310 1.283 . S
C267 O293 1.283 . S
C267 O308 1.283 . S
C268 O294 1.283 . S
C268 O311 1.283 . S
C269 O295 1.283 . S
C269 O309 1.283 . S
C270 O296 1.283 . S
C270 O305 1.283 . S
C271 O297 1.283 . S
C271 O307 1.283 . S
C272 O298 1.283 . S
C272 O304 1.283 . S
C273 O299 1.283 . S
C273 O306 1.283 . S
C274 O300 1.283 . S
C274 O315 1.283 . S
C275 O301 1.283 . S
C275 O313 1.283 . S
C276 O302 1.283 . S
C276 O314 1.283 . S
C277 O303 1.283 . S
C277 O312 1.283 . S
Eu278 O279 2.371 . S
Eu278 O280 2.369 1_545 S
Eu278 O283 2.369 1_545 S
Eu278 O284 2.371 . S
Eu278 O292 2.361 1_545 S
Eu278 O293 2.365 . S
Eu278 O306 2.363 . S
Eu278 O307 2.363 . S
O279 Eu278 2.371 . S
O279 Eu281 2.374 . S
O279 Eu286 2.373 . S
O280 Eu278 2.369 1_565 S
O280 Eu282 2.371 1_565 S
O280 Eu285 2.373 . S
Eu281 O279 2.374 . S
Eu281 O283 2.371 1_545 S
Eu281 O287 2.366 1_544 S
Eu281 O288 2.369 1_554 S
Eu281 O296 2.359 1_554 S
Eu281 O297 2.367 . S
Eu281 O312 2.361 1_545 S
Eu281 O313 2.365 . S
Eu282 O280 2.371 1_545 S
Eu282 O284 2.374 . S
Eu282 O289 2.369 1_554 S
Eu282 O290 2.366 1_544 S
Eu282 O298 2.359 1_554 S
Eu282 O299 2.367 . S
Eu282 O314 2.361 1_545 S
Eu282 O315 2.365 . S
O283 Eu278 2.369 1_565 S
O283 Eu281 2.371 1_565 S
O283 Eu285 2.373 . S
O284 Eu278 2.371 . S
O284 Eu282 2.374 . S
O284 Eu286 2.373 . S
Eu285 O280 2.373 . S
Eu285 O283 2.373 . S
Eu285 O287 2.367 1_554 S
Eu285 O290 2.367 1_554 S
Eu285 O302 2.363 . S
Eu285 O303 2.363 . S
Eu285 O310 2.367 . S
Eu285 O311 2.359 1_554 S
Eu286 O279 2.373 . S
Eu286 O284 2.373 . S
Eu286 O288 2.368 1_554 S
Eu286 O289 2.368 1_554 S
Eu286 O300 2.363 . S
Eu286 O301 2.363 . S
Eu286 O308 2.367 . S
Eu286 O309 2.359 1_554 S
O287 Eu281 2.366 1_566 S
O287 Eu285 2.367 1_556 S
O287 Eu291 2.369 1_565 S
O288 Eu281 2.369 1_556 S
O288 Eu286 2.368 1_556 S
O288 Eu291 2.371 . S
O289 Eu282 2.369 1_556 S
O289 Eu286 2.368 1_556 S
O289 Eu291 2.371 . S
O290 Eu282 2.366 1_566 S
O290 Eu285 2.367 1_556 S
O290 Eu291 2.369 1_565 S
Eu291 O287 2.369 1_545 S
Eu291 O288 2.371 . S
Eu291 O289 2.371 . S
Eu291 O290 2.369 1_545 S
Eu291 O294 2.361 1_545 S
Eu291 O295 2.365 . S
Eu291 O304 2.363 . S
Eu291 O305 2.363 . S
O292 C266 1.283 . S
O292 Eu278 2.361 1_565 S
O293 C267 1.283 . S
O293 Eu278 2.365 . S
O294 C268 1.283 . S
O294 Eu291 2.361 1_565 S
O295 C269 1.283 . S
O295 Eu291 2.365 . S
O296 C270 1.283 . S
O296 Eu281 2.359 1_556 S
O297 C271 1.283 . S
O297 Eu281 2.367 . S
O298 C272 1.283 . S
O298 Eu282 2.359 1_556 S
O299 C273 1.283 . S
O299 Eu282 2.367 . S
O300 C274 1.283 . S
O300 Eu286 2.363 . S
O301 C275 1.283 . S
O301 Eu286 2.363 . S
O302 C276 1.283 . S
O302 Eu285 2.363 . S
O303 C277 1.283 . S
O303 Eu285 2.363 . S
O304 C272 1.283 . S
O304 Eu291 2.363 . S
O305 C270 1.283 . S
O305 Eu291 2.363 . S
O306 C273 1.283 . S
O306 Eu278 2.363 . S
O307 C271 1.283 . S
O307 Eu278 2.363 . S
O308 C267 1.283 . S
O308 Eu286 2.367 . S
O309 C269 1.283 . S
O309 Eu286 2.359 1_556 S
O310 C266 1.283 . S
O310 Eu285 2.367 . S
O311 C268 1.283 . S
O311 Eu285 2.359 1_556 S
O312 C277 1.283 . S
O312 Eu281 2.361 1_565 S
O313 C275 1.283 . S
O313 Eu281 2.365 . S
O314 C276 1.283 . S
O314 Eu282 2.361 1_565 S
O315 C274 1.283 . S
O315 Eu282 2.365 . S
C316 O342 1.283 . S
C316 O360 1.283 . S
C317 O343 1.283 . S
C317 O358 1.283 . S
C318 O344 1.283 . S
C318 O361 1.283 . S
C319 O345 1.283 . S
C319 O359 1.283 . S
C320 O346 1.283 . S
C320 O355 1.283 . S
C321 O347 1.283 . S
C321 O357 1.283 . S
C322 O348 1.283 . S
C322 O354 1.283 . S
C323 O349 1.283 . S
C323 O356 1.283 . S
C324 O350 1.283 . S
C324 O365 1.283 . S
C325 O351 1.283 . S
C325 O363 1.283 . S
C326 O352 1.283 . S
C326 O364 1.283 . S
C327 O353 1.283 . S
C327 O362 1.283 . S
Eu328 O329 2.368 1_454 S
Eu328 O330 2.372 . S
Eu328 O333 2.368 1_455 S
Eu328 O334 2.372 1_554 S
Eu328 O342 2.363 . S
Eu328 O343 2.363 1_554 S
Eu328 O356 2.366 . S
Eu328 O357 2.360 1_455 S
O329 Eu328 2.368 1_656 S
O329 Eu331 2.370 1_556 S
O329 Eu336 2.368 1_655 S
O330 Eu328 2.372 . S
O330 Eu332 2.370 . S
O330 Eu335 2.372 . S
Eu331 O329 2.370 1_554 S
Eu331 O333 2.370 . S
Eu331 O337 2.370 . S
Eu331 O338 2.370 1_554 S
Eu331 O346 2.363 . S
Eu331 O347 2.363 . S
Eu331 O362 2.363 . S
Eu331 O363 2.363 1_554 S
Eu332 O330 2.370 . S
Eu332 O334 2.370 1_554 S
Eu332 O339 2.370 1_554 S
Eu332 O340 2.370 . S
Eu332 O348 2.363 . S
Eu332 O349 2.363 . S
Eu332 O364 2.363 . S
Eu332 O365 2.363 1_554 S
O333 Eu328 2.368 1_655 S
O333 Eu331 2.370 . S
O333 Eu335 2.368 1_655 S
O334 Eu328 2.372 1_556 S
O334 Eu332 2.370 1_556 S
O334 Eu336 2.372 . S
Eu335 O330 2.372 . S
Eu335 O333 2.368 1_455 S
Eu335 O337 2.368 1_455 S
Eu335 O340 2.372 . S
Eu335 O352 2.366 . S
Eu335 O353 2.360 1_455 S
Eu335 O360 2.363 . S
Eu335 O361 2.363 . S
Eu336 O329 2.368 1_455 S
Eu336 O334 2.372 . S
Eu336 O338 2.368 1_455 S
Eu336 O339 2.372 . S
Eu336 O350 2.366 . S
Eu336 O351 2.360 1_455 S
Eu336 O358 2.363 . S
Eu336 O359 2.363 . S
O337 Eu331 2.370 . S
O337 Eu335 2.368 1_655 S
O337 Eu341 2.368 1_655 S
O338 Eu331 2.370 1_556 S
O338 Eu336 2.368 1_655 S
O338 Eu341 2.368 1_656 S
O339 Eu332 2.370 1_556 S
O339 Eu336 2.372 . S
O339 Eu341 2.372 1_556 S
O340 Eu332 2.370 . S
O340 Eu335 2.372 . S
O340 Eu341 2.372 . S
Eu341 O337 2.368 1_455 S
Eu341 O338 2.368 1_454 S
Eu341 O339 2.372 1_554 S
Eu341 O340 2.372 . S
Eu341 O344 2.363 . S
Eu341 O345 2.363 1_554 S
Eu341 O354 2.366 . S
Eu341 O355 2.360 1_455 S
O342 C316 1.283 . S
O342 Eu328 2.363 . S
O343 C317 1.283 . S
O343 Eu328 2.363 1_556 S
O344 C318 1.283 . S
O344 Eu341 2.363 . S
O345 C319 1.283 . S
O345 Eu341 2.363 1_556 S
O346 C320 1.283 . S
O346 Eu331 2.363 . S
O347 C321 1.283 . S
O347 Eu331 2.363 . S
O348 C322 1.283 . S
O348 Eu332 2.363 . S
O349 C323 1.283 . S
O349 Eu332 2.363 . S
O350 C324 1.283 . S
O350 Eu336 2.366 . S
O351 C325 1.283 . S
O351 Eu336 2.360 1_655 S
O352 C326 1.283 . S
O352 Eu335 2.366 . S
O353 C327 1.283 . S
O353 Eu335 2.360 1_655 S
O354 C322 1.283 . S
O354 Eu341 2.366 . S
O355 C320 1.283 . S
O355 Eu341 2.360 1_655 S
O356 C323 1.283 . S
O356 Eu328 2.366 . S
O357 C321 1.283 . S
O357 Eu328 2.360 1_655 S
O358 C317 1.283 . S
O358 Eu336 2.363 . S
O359 C319 1.283 . S
O359 Eu336 2.363 . S
O360 C316 1.283 . S
O360 Eu335 2.363 . S
O361 C318 1.283 . S
O361 Eu335 2.363 . S
O362 C327 1.283 . S
O362 Eu331 2.363 . S
O363 C325 1.283 . S
O363 Eu331 2.363 1_556 S
O364 C326 1.283 . S
O364 Eu332 2.363 . S
O365 C324 1.283 . S
O365 Eu332 2.363 1_556 S
C366 O392 1.283 . S
C366 O410 1.283 . S
C367 O393 1.283 . S
C367 O408 1.283 . S
C368 O394 1.283 . S
C368 O411 1.283 . S
C369 O395 1.283 . S
C369 O409 1.283 . S
C370 O396 1.283 . S
C370 O405 1.283 . S
C371 O397 1.283 . S
C371 O407 1.283 . S
C372 O398 1.283 . S
C372 O404 1.283 . S
C373 O399 1.283 . S
C373 O406 1.283 . S
C374 O400 1.283 . S
C374 O415 1.283 . S
C375 O401 1.283 . S
C375 O413 1.283 . S
C376 O402 1.283 . S
C376 O414 1.283 . S
C377 O403 1.283 . S
C377 O412 1.283 . S
Eu378 O379 2.370 . S
Eu378 O380 2.370 . S
Eu378 O383 2.370 . S
Eu378 O384 2.370 . S
Eu378 O392 2.363 . S
Eu378 O393 2.363 . S
Eu378 O406 2.363 . S
Eu378 O407 2.363 . S
O379 Eu378 2.370 . S
O379 Eu381 2.373 . S
O379 Eu386 2.373 . S
O380 Eu378 2.370 . S
O380 Eu382 2.373 . S
O380 Eu385 2.373 . S
Eu381 O379 2.373 . S
Eu381 O383 2.373 . S
Eu381 O387 2.367 1_554 S
Eu381 O388 2.367 1_554 S
Eu381 O396 2.358 1_554 S
Eu381 O397 2.368 . S
Eu381 O412 2.363 . S
Eu381 O413 2.363 . S
Eu382 O380 2.373 . S
Eu382 O384 2.373 . S
Eu382 O389 2.367 1_554 S
Eu382 O390 2.367 1_554 S
Eu382 O398 2.358 1_554 S
Eu382 O399 2.368 . S
Eu382 O414 2.363 . S
Eu382 O415 2.363 . S
O383 Eu378 2.370 . S
O383 Eu381 2.373 . S
O383 Eu385 2.373 . S
O384 Eu378 2.370 . S
O384 Eu382 2.373 . S
O384 Eu386 2.373 . S
Eu385 O380 2.373 . S
Eu385 O383 2.373 . S
Eu385 O387 2.367 1_554 S
Eu385 O390 2.367 1_554 S
Eu385 O402 2.363 . S
Eu385 O403 2.363 . S
Eu385 O410 2.368 . S
Eu385 O411 2.358 1_554 S
Eu386 O379 2.373 . S
Eu386 O384 2.373 . S
Eu386 O388 2.367 1_554 S
Eu386 O389 2.367 1_554 S
Eu386 O400 2.363 . S
Eu386 O401 2.363 . S
Eu386 O408 2.368 . S
Eu386 O409 2.358 1_554 S
O387 Eu381 2.367 1_556 S
O387 Eu385 2.367 1_556 S
O387 Eu391 2.370 . S
O388 Eu381 2.367 1_556 S
O388 Eu386 2.367 1_556 S
O388 Eu391 2.370 . S
O389 Eu382 2.367 1_556 S
O389 Eu386 2.367 1_556 S
O389 Eu391 2.370 . S
O390 Eu382 2.367 1_556 S
O390 Eu385 2.367 1_556 S
O390 Eu391 2.370 . S
Eu391 O387 2.370 . S
Eu391 O388 2.370 . S
Eu391 O389 2.370 . S
Eu391 O390 2.370 . S
Eu391 O394 2.363 . S
Eu391 O395 2.363 . S
Eu391 O404 2.363 . S
Eu391 O405 2.363 . S
O392 C366 1.283 . S
O392 Eu378 2.363 . S
O393 C367 1.283 . S
O393 Eu378 2.363 . S
O394 C368 1.283 . S
O394 Eu391 2.363 . S
O395 C369 1.283 . S
O395 Eu391 2.363 . S
O396 C370 1.283 . S
O396 Eu381 2.358 1_556 S
O397 C371 1.283 . S
O397 Eu381 2.368 . S
O398 C372 1.283 . S
O398 Eu382 2.358 1_556 S
O399 C373 1.283 . S
O399 Eu382 2.368 . S
O400 C374 1.283 . S
O400 Eu386 2.363 . S
O401 C375 1.283 . S
O401 Eu386 2.363 . S
O402 C376 1.283 . S
O402 Eu385 2.363 . S
O403 C377 1.283 . S
O403 Eu385 2.363 . S
O404 C372 1.283 . S
O404 Eu391 2.363 . S
O405 C370 1.283 . S
O405 Eu391 2.363 . S
O406 C373 1.283 . S
O406 Eu378 2.363 . S
O407 C371 1.283 . S
O407 Eu378 2.363 . S
O408 C367 1.283 . S
O408 Eu386 2.368 . S
O409 C369 1.283 . S
O409 Eu386 2.358 1_556 S
O410 C366 1.283 . S
O410 Eu385 2.368 . S
O411 C368 1.283 . S
O411 Eu385 2.358 1_556 S
O412 C377 1.283 . S
O412 Eu381 2.363 . S
O413 C375 1.283 . S
O413 Eu381 2.363 . S
O414 C376 1.283 . S
O414 Eu382 2.363 . S
O415 C374 1.283 . S
O415 Eu382 2.363 . S
C416 O442 1.283 . S
C416 O460 1.283 . S
C417 O443 1.283 . S
C417 O458 1.283 . S
C418 O444 1.283 . S
C418 O461 1.283 . S
C419 O445 1.283 . S
C419 O459 1.283 . S
C420 O446 1.283 . S
C420 O455 1.283 . S
C421 O447 1.283 . S
C421 O457 1.283 . S
C422 O448 1.283 . S
C422 O454 1.283 . S
C423 O449 1.283 . S
C423 O456 1.283 . S
C424 O450 1.283 . S
C424 O465 1.283 . S
C425 O451 1.283 . S
C425 O463 1.283 . S
C426 O452 1.283 . S
C426 O464 1.283 . S
C427 O453 1.283 . S
C427 O462 1.283 . S
Eu428 O429 2.365 1_455 S
Eu428 O430 2.375 . S
Eu428 O433 2.365 1_455 S
Eu428 O434 2.375 . S
Eu428 O442 2.363 . S
Eu428 O443 2.363 . S
Eu428 O456 2.371 . S
Eu428 O457 2.355 1_455 S
O429 Eu428 2.365 1_655 S
O429 Eu431 2.370 . S
O429 Eu436 2.365 1_655 S
O430 Eu428 2.375 . S
O430 Eu432 2.370 . S
O430 Eu435 2.375 . S
Eu431 O429 2.370 . S
Eu431 O433 2.370 . S
Eu431 O437 2.370 . S
Eu431 O438 2.370 . S
Eu431 O446 2.363 . S
Eu431 O447 2.363 . S
Eu431 O462 2.363 . S
Eu431 O463 2.363 . S
Eu432 O430 2.370 . S
Eu432 O434 2.370 . S
Eu432 O439 2.370 . S
Eu432 O440 2.370 . S
Eu432 O448 2.363 . S
Eu432 O449 2.363 . S
Eu432 O464 2.363 . S
Eu432 O465 2.363 . S
O433 Eu428 2.365 1_655 S
O433 Eu431 2.370 . S
O433 Eu435 2.365 1_655 S
O434 Eu428 2.375 . S
O434 Eu432 2.370 . S
O434 Eu436 2.375 . S
Eu435 O430 2.375 . S
Eu435 O433 2.365 1_455 S
Eu435 O437 2.365 1_455 S
Eu435 O440 2.375 . S
Eu435 O452 2.371 . S
Eu435 O453 2.355 1_455 S
Eu435 O460 2.363 . S
Eu435 O461 2.363 . S
Eu436 O429 2.365 1_455 S
Eu436 O434 2.375 . S
Eu436 O438 2.365 1_455 S
Eu436 O439 2.375 . S
Eu436 O450 2.371 . S
Eu436 O451 2.355 1_455 S
Eu436 O458 2.363 . S
Eu436 O459 2.363 . S
O437 Eu431 2.370 . S
O437 Eu435 2.365 1_655 S
O437 Eu441 2.365 1_655 S
O438 Eu431 2.370 . S
O438 Eu436 2.365 1_655 S
O438 Eu441 2.365 1_655 S
O439 Eu432 2.370 . S
O439 Eu436 2.375 . S
O439 Eu441 2.375 . S
O440 Eu432 2.370 . S
O440 Eu435 2.375 . S
O440 Eu441 2.375 . S
Eu441 O437 2.365 1_455 S
Eu441 O438 2.365 1_455 S
Eu441 O439 2.375 . S
Eu441 O440 2.375 . S
Eu441 O444 2.363 . S
Eu441 O445 2.363 . S
Eu441 O454 2.371 . S
Eu441 O455 2.355 1_455 S
O442 C416 1.283 . S
O442 Eu428 2.363 . S
O443 C417 1.283 . S
O443 Eu428 2.363 . S
O444 C418 1.283 . S
O444 Eu441 2.363 . S
O445 C419 1.283 . S
O445 Eu441 2.363 . S
O446 C420 1.283 . S
O446 Eu431 2.363 . S
O447 C421 1.283 . S
O447 Eu431 2.363 . S
O448 C422 1.283 . S
O448 Eu432 2.363 . S
O449 C423 1.283 . S
O449 Eu432 2.363 . S
O450 C424 1.283 . S
O450 Eu436 2.371 . S
O451 C425 1.283 . S
O451 Eu436 2.355 1_655 S
O452 C426 1.283 . S
O452 Eu435 2.371 . S
O453 C427 1.283 . S
O453 Eu435 2.355 1_655 S
O454 C422 1.283 . S
O454 Eu441 2.371 . S
O455 C420 1.283 . S
O455 Eu441 2.355 1_655 S
O456 C423 1.283 . S
O456 Eu428 2.371 . S
O457 C421 1.283 . S
O457 Eu428 2.355 1_655 S
O458 C417 1.283 . S
O458 Eu436 2.363 . S
O459 C419 1.283 . S
O459 Eu436 2.363 . S
O460 C416 1.283 . S
O460 Eu435 2.363 . S
O461 C418 1.283 . S
O461 Eu435 2.363 . S
O462 C427 1.283 . S
O462 Eu431 2.363 . S
O463 C425 1.283 . S
O463 Eu431 2.363 . S
O464 C426 1.283 . S
O464 Eu432 2.363 . S
O465 C424 1.283 . S
O465 Eu432 2.363 . S
C466 O492 1.283 . S
C466 O510 1.283 . S
C467 O493 1.283 . S
C467 O508 1.283 . S
C468 O494 1.283 . S
C468 O511 1.283 . S
C469 O495 1.283 . S
C469 O509 1.283 . S
C470 O496 1.283 . S
C470 O505 1.283 . S
C471 O497 1.283 . S
C471 O507 1.283 . S
C472 O498 1.283 . S
C472 O504 1.283 . S
C473 O499 1.283 . S
C473 O506 1.283 . S
C474 O500 1.283 . S
C474 O515 1.283 . S
C475 O501 1.283 . S
C475 O513 1.283 . S
C476 O502 1.283 . S
C476 O514 1.283 . S
C477 O503 1.283 . S
C477 O512 1.283 . S
Eu478 O479 2.370 . S
Eu478 O480 2.370 . S
Eu478 O483 2.370 . S
Eu478 O484 2.370 . S
Eu478 O492 2.363 . S
Eu478 O493 2.363 . S
Eu478 O506 2.363 . S
Eu478 O507 2.363 . S
O479 Eu478 2.370 . S
O479 Eu481 2.365 1_565 S
O479 Eu486 2.365 1_565 S
O480 Eu478 2.370 . S
O480 Eu482 2.365 1_565 S
O480 Eu485 2.365 1_565 S
Eu481 O479 2.365 1_545 S
Eu481 O483 2.365 1_545 S
Eu481 O487 2.375 . S
Eu481 O488 2.375 . S
Eu481 O496 2.371 . S
Eu481 O497 2.354 1_545 S
Eu481 O512 2.363 . S
Eu481 O513 2.363 . S
Eu482 O480 2.365 1_545 S
Eu482 O484 2.365 1_545 S
Eu482 O489 2.375 . S
Eu482 O490 2.375 . S
Eu482 O498 2.371 . S
Eu482 O499 2.354 1_545 S
Eu482 O514 2.363 . S
Eu482 O515 2.363 . S
O483 Eu478 2.370 . S
O483 Eu481 2.365 1_565 S
O483 Eu485 2.365 1_565 S
O484 Eu478 2.370 . S
O484 Eu482 2.365 1_565 S
O484 Eu486 2.365 1_565 S
Eu485 O480 2.365 1_545 S
Eu485 O483 2.365 1_545 S
Eu485 O487 2.375 . S
Eu485 O490 2.375 . S
Eu485 O502 2.363 . S
Eu485 O503 2.363 . S
Eu485 O510 2.354 1_545 S
Eu485 O511 2.371 . S
Eu486 O479 2.365 1_545 S
Eu486 O484 2.365 1_545 S
Eu486 O488 2.375 . S
Eu486 O489 2.375 . S
Eu486 O500 2.363 . S
Eu486 O501 2.363 . S
Eu486 O508 2.355 1_545 S
Eu486 O509 2.371 . S
O487 Eu481 2.375 . S
O487 Eu485 2.375 . S
O487 Eu491 2.370 . S
O488 Eu481 2.375 . S
O488 Eu486 2.375 . S
O488 Eu491 2.370 . S
O489 Eu482 2.375 . S
O489 Eu486 2.375 . S
O489 Eu491 2.370 . S
O490 Eu482 2.375 . S
O490 Eu485 2.375 . S
O490 Eu491 2.370 . S
Eu491 O487 2.370 . S
Eu491 O488 2.370 . S
Eu491 O489 2.370 . S
Eu491 O490 2.370 . S
Eu491 O494 2.363 . S
Eu491 O495 2.363 . S
Eu491 O504 2.363 . S
Eu491 O505 2.363 . S
O492 C466 1.283 . S
O492 Eu478 2.363 . S
O493 C467 1.283 . S
O493 Eu478 2.363 . S
O494 C468 1.283 . S
O494 Eu491 2.363 . S
O495 C469 1.283 . S
O495 Eu491 2.363 . S
O496 C470 1.283 . S
O496 Eu481 2.371 . S
O497 C471 1.283 . S
O497 Eu481 2.354 1_565 S
O498 C472 1.283 . S
O498 Eu482 2.371 . S
O499 C473 1.283 . S
O499 Eu482 2.354 1_565 S
O500 C474 1.283 . S
O500 Eu486 2.363 . S
O501 C475 1.283 . S
O501 Eu486 2.363 . S
O502 C476 1.283 . S
O502 Eu485 2.363 . S
O503 C477 1.283 . S
O503 Eu485 2.363 . S
O504 C472 1.283 . S
O504 Eu491 2.363 . S
O505 C470 1.283 . S
O505 Eu491 2.363 . S
O506 C473 1.283 . S
O506 Eu478 2.363 . S
O507 C471 1.283 . S
O507 Eu478 2.363 . S
O508 C467 1.283 . S
O508 Eu486 2.355 1_565 S
O509 C469 1.283 . S
O509 Eu486 2.371 . S
O510 C466 1.283 . S
O510 Eu485 2.354 1_565 S
O511 C468 1.283 . S
O511 Eu485 2.371 . S
O512 C477 1.283 . S
O512 Eu481 2.363 . S
O513 C475 1.283 . S
O513 Eu481 2.363 . S
O514 C476 1.283 . S
O514 Eu482 2.363 . S
O515 C474 1.283 . S
O515 Eu482 2.363 . S
H516 C524 0.950 . S
H517 C529 0.950 . S
H518 C526 0.950 . S
H519 C528 0.950 . S
H520 C530 0.950 . S
H521 C532 0.950 . S
H522 C534 0.950 . S
H523 C535 0.950 . S
C524 H516 0.950 . S
C524 C525 1.386 . S
C524 C526 1.391 . S
C525 C524 1.386 . S
C525 C529 1.393 . S
C526 H518 0.950 . S
C526 C524 1.391 . S
C526 C527 1.400 . S
C527 C526 1.400 . S
C527 C528 1.398 . S
C527 C533 1.491 . S
C528 H519 0.950 . S
C528 C527 1.398 . S
C528 C529 1.391 . S
C529 H517 0.950 . S
C529 C525 1.393 . S
C529 C528 1.391 . S
C530 H520 0.950 . S
C530 C531 1.386 . S
C530 C532 1.391 . S
C531 C530 1.386 . S
C531 C535 1.393 . S
C532 H521 0.950 . S
C532 C530 1.391 . S
C532 C533 1.400 . S
C533 C527 1.491 . S
C533 C532 1.400 . S
C533 C534 1.398 . S
C534 H522 0.950 . S
C534 C533 1.398 . S
C534 C535 1.391 . S
C535 H523 0.950 . S
C535 C531 1.393 . S
C535 C534 1.391 . S
H536 C544 0.950 . S
H537 C549 0.950 . S
H538 C546 0.950 . S
H539 C548 0.950 . S
H540 C550 0.950 . S
H541 C552 0.950 . S
H542 C554 0.950 . S
H543 C555 0.950 . S
C544 H536 0.950 . S
C544 C545 1.386 . S
C544 C546 1.391 . S
C545 C544 1.386 . S
C545 C549 1.393 . S
C546 H538 0.950 . S
C546 C544 1.391 . S
C546 C547 1.400 . S
C547 C546 1.400 . S
C547 C548 1.398 . S
C547 C553 1.491 . S
C548 H539 0.950 . S
C548 C547 1.398 . S
C548 C549 1.391 . S
C549 H537 0.950 . S
C549 C545 1.393 . S
C549 C548 1.391 . S
C550 H540 0.950 . S
C550 C551 1.386 . S
C550 C552 1.391 . S
C551 C550 1.386 . S
C551 C555 1.393 . S
C552 H541 0.950 . S
C552 C550 1.391 . S
C552 C553 1.400 . S
C553 C547 1.491 . S
C553 C552 1.400 . S
C553 C554 1.398 . S
C554 H542 0.950 . S
C554 C553 1.398 . S
C554 C555 1.391 . S
C555 H543 0.950 . S
C555 C551 1.393 . S
C555 C554 1.391 . S
H556 C564 0.950 . S
H557 C569 0.950 . S
H558 C566 0.950 . S
H559 C568 0.950 . S
H560 C570 0.950 . S
H561 C572 0.950 . S
H562 C574 0.950 . S
H563 C575 0.950 . S
C564 H556 0.950 . S
C564 C565 1.386 . S
C564 C566 1.391 . S
C565 C564 1.386 . S
C565 C569 1.393 . S
C566 H558 0.950 . S
C566 C564 1.391 . S
C566 C567 1.400 . S
C567 C566 1.400 . S
C567 C568 1.398 . S
C567 C573 1.491 . S
C568 H559 0.950 . S
C568 C567 1.398 . S
C568 C569 1.391 . S
C569 H557 0.950 . S
C569 C565 1.393 . S
C569 C568 1.391 . S
C570 H560 0.950 . S
C570 C571 1.386 . S
C570 C572 1.391 . S
C571 C570 1.386 . S
C571 C575 1.393 . S
C572 H561 0.950 . S
C572 C570 1.391 . S
C572 C573 1.400 . S
C573 C567 1.491 . S
C573 C572 1.400 . S
C573 C574 1.398 . S
C574 H562 0.950 . S
C574 C573 1.398 . S
C574 C575 1.391 . S
C575 H563 0.950 . S
C575 C571 1.393 . S
C575 C574 1.391 . S
H576 C584 0.950 . S
H577 C589 0.950 . S
H578 C586 0.950 . S
H579 C588 0.950 . S
H580 C590 0.950 . S
H581 C592 0.950 . S
H582 C594 0.950 . S
H583 C595 0.950 . S
C584 H576 0.950 . S
C584 C585 1.386 . S
C584 C586 1.391 . S
C585 C584 1.386 . S
C585 C589 1.393 . S
C586 H578 0.950 . S
C586 C584 1.391 . S
C586 C587 1.400 . S
C587 C586 1.400 . S
C587 C588 1.398 . S
C587 C593 1.491 . S
C588 H579 0.950 . S
C588 C587 1.398 . S
C588 C589 1.391 . S
C589 H577 0.950 . S
C589 C585 1.393 . S
C589 C588 1.391 . S
C590 H580 0.950 . S
C590 C591 1.386 . S
C590 C592 1.391 . S
C591 C590 1.386 . S
C591 C595 1.393 . S
C592 H581 0.950 . S
C592 C590 1.391 . S
C592 C593 1.400 . S
C593 C587 1.491 . S
C593 C592 1.400 . S
C593 C594 1.398 . S
C594 H582 0.950 . S
C594 C593 1.398 . S
C594 C595 1.391 . S
C595 H583 0.950 . S
C595 C591 1.393 . S
C595 C594 1.391 . S
H596 C604 0.950 . S
H597 C609 0.950 . S
H598 C606 0.950 . S
H599 C608 0.950 . S
H600 C610 0.950 . S
H601 C612 0.950 . S
H602 C614 0.950 . S
H603 C615 0.950 . S
C604 H596 0.950 . S
C604 C605 1.386 . S
C604 C606 1.391 . S
C605 C604 1.386 . S
C605 C609 1.393 . S
C606 H598 0.950 . S
C606 C604 1.391 . S
C606 C607 1.400 . S
C607 C606 1.400 . S
C607 C608 1.398 . S
C607 C613 1.491 . S
C608 H599 0.950 . S
C608 C607 1.398 . S
C608 C609 1.391 . S
C609 H597 0.950 . S
C609 C605 1.393 . S
C609 C608 1.391 . S
C610 H600 0.950 . S
C610 C611 1.386 . S
C610 C612 1.391 . S
C611 C610 1.386 . S
C611 C615 1.393 . S
C612 H601 0.950 . S
C612 C610 1.391 . S
C612 C613 1.400 . S
C613 C607 1.491 . S
C613 C612 1.400 . S
C613 C614 1.398 . S
C614 H602 0.950 . S
C614 C613 1.398 . S
C614 C615 1.391 . S
C615 H603 0.950 . S
C615 C611 1.393 . S
C615 C614 1.391 . S
H616 C624 0.950 . S
H617 C629 0.950 . S
H618 C626 0.950 . S
H619 C628 0.950 . S
H620 C630 0.950 . S
H621 C632 0.950 . S
H622 C634 0.950 . S
H623 C635 0.950 . S
C624 H616 0.950 . S
C624 C625 1.386 . S
C624 C626 1.391 . S
C625 C624 1.386 . S
C625 C629 1.393 . S
C626 H618 0.950 . S
C626 C624 1.391 . S
C626 C627 1.400 . S
C627 C626 1.400 . S
C627 C628 1.398 . S
C627 C633 1.491 . S
C628 H619 0.950 . S
C628 C627 1.398 . S
C628 C629 1.391 . S
C629 H617 0.950 . S
C629 C625 1.393 . S
C629 C628 1.391 . S
C630 H620 0.950 . S
C630 C631 1.386 . S
C630 C632 1.391 . S
C631 C630 1.386 . S
C631 C635 1.393 . S
C632 H621 0.950 . S
C632 C630 1.391 . S
C632 C633 1.400 . S
C633 C627 1.491 . S
C633 C632 1.400 . S
C633 C634 1.398 . S
C634 H622 0.950 . S
C634 C633 1.398 . S
C634 C635 1.391 . S
C635 H623 0.950 . S
C635 C631 1.393 . S
C635 C634 1.391 . S
H636 C644 0.950 . S
H637 C649 0.950 . S
H638 C646 0.950 . S
H639 C648 0.950 . S
H640 C650 0.950 . S
H641 C652 0.950 . S
H642 C654 0.950 . S
H643 C655 0.950 . S
C644 H636 0.950 . S
C644 C645 1.386 . S
C644 C646 1.391 . S
C645 C644 1.386 . S
C645 C649 1.393 . S
C646 H638 0.950 . S
C646 C644 1.391 . S
C646 C647 1.400 . S
C647 C646 1.400 . S
C647 C648 1.398 . S
C647 C653 1.491 . S
C648 H639 0.950 . S
C648 C647 1.398 . S
C648 C649 1.391 . S
C649 H637 0.950 . S
C649 C645 1.393 . S
C649 C648 1.391 . S
C650 H640 0.950 . S
C650 C651 1.386 . S
C650 C652 1.391 . S
C651 C650 1.386 . S
C651 C655 1.393 . S
C652 H641 0.950 . S
C652 C650 1.391 . S
C652 C653 1.400 . S
C653 C647 1.491 . S
C653 C652 1.400 . S
C653 C654 1.398 . S
C654 H642 0.950 . S
C654 C653 1.398 . S
C654 C655 1.391 . S
C655 H643 0.950 . S
C655 C651 1.393 . S
C655 C654 1.391 . S
H656 C664 0.950 . S
H657 C669 0.950 . S
H658 C666 0.950 . S
H659 C668 0.950 . S
H660 C670 0.950 . S
H661 C672 0.950 . S
H662 C674 0.950 . S
H663 C675 0.950 . S
C664 H656 0.950 . S
C664 C665 1.386 . S
C664 C666 1.391 . S
C665 C664 1.386 . S
C665 C669 1.393 . S
C666 H658 0.950 . S
C666 C664 1.391 . S
C666 C667 1.400 . S
C667 C666 1.400 . S
C667 C668 1.398 . S
C667 C673 1.491 . S
C668 H659 0.950 . S
C668 C667 1.398 . S
C668 C669 1.391 . S
C669 H657 0.950 . S
C669 C665 1.393 . S
C669 C668 1.391 . S
C670 H660 0.950 . S
C670 C671 1.386 . S
C670 C672 1.391 . S
C671 C670 1.386 . S
C671 C675 1.393 . S
C672 H661 0.950 . S
C672 C670 1.391 . S
C672 C673 1.400 . S
C673 C667 1.491 . S
C673 C672 1.400 . S
C673 C674 1.398 . S
C674 H662 0.950 . S
C674 C673 1.398 . S
C674 C675 1.391 . S
C675 H663 0.950 . S
C675 C671 1.393 . S
C675 C674 1.391 . S
H676 C684 0.950 . S
H677 C689 0.950 . S
H678 C686 0.950 . S
H679 C688 0.950 . S
H680 C690 0.950 . S
H681 C692 0.950 . S
H682 C694 0.950 . S
H683 C695 0.950 . S
C684 H676 0.950 . S
C684 C685 1.386 . S
C684 C686 1.391 . S
C685 C684 1.386 . S
C685 C689 1.393 . S
C686 H678 0.950 . S
C686 C684 1.391 . S
C686 C687 1.400 . S
C687 C686 1.400 . S
C687 C688 1.398 . S
C687 C693 1.491 . S
C688 H679 0.950 . S
C688 C687 1.398 . S
C688 C689 1.391 . S
C689 H677 0.950 . S
C689 C685 1.393 . S
C689 C688 1.391 . S
C690 H680 0.950 . S
C690 C691 1.386 . S
C690 C692 1.391 . S
C691 C690 1.386 . S
C691 C695 1.393 . S
C692 H681 0.950 . S
C692 C690 1.391 . S
C692 C693 1.400 . S
C693 C687 1.491 . S
C693 C692 1.400 . S
C693 C694 1.398 . S
C694 H682 0.950 . S
C694 C693 1.398 . S
C694 C695 1.391 . S
C695 H683 0.950 . S
C695 C691 1.393 . S
C695 C694 1.391 . S
H696 C704 0.950 . S
H697 C709 0.950 . S
H698 C706 0.950 . S
H699 C708 0.950 . S
H700 C710 0.950 . S
H701 C712 0.950 . S
H702 C714 0.950 . S
H703 C715 0.950 . S
C704 H696 0.950 . S
C704 C705 1.386 . S
C704 C706 1.391 . S
C705 C704 1.386 . S
C705 C709 1.393 . S
C706 H698 0.950 . S
C706 C704 1.391 . S
C706 C707 1.400 . S
C707 C706 1.400 . S
C707 C708 1.398 . S
C707 C713 1.491 . S
C708 H699 0.950 . S
C708 C707 1.398 . S
C708 C709 1.391 . S
C709 H697 0.950 . S
C709 C705 1.393 . S
C709 C708 1.391 . S
C710 H700 0.950 . S
C710 C711 1.386 . S
C710 C712 1.391 . S
C711 C710 1.386 . S
C711 C715 1.393 . S
C712 H701 0.950 . S
C712 C710 1.391 . S
C712 C713 1.400 . S
C713 C707 1.491 . S
C713 C712 1.400 . S
C713 C714 1.398 . S
C714 H702 0.950 . S
C714 C713 1.398 . S
C714 C715 1.391 . S
C715 H703 0.950 . S
C715 C711 1.393 . S
C715 C714 1.391 . S
H716 C724 0.950 . S
H717 C729 0.950 . S
H718 C726 0.950 . S
H719 C728 0.950 . S
H720 C730 0.950 . S
H721 C732 0.950 . S
H722 C734 0.950 . S
H723 C735 0.950 . S
C724 H716 0.950 . S
C724 C725 1.386 . S
C724 C726 1.391 . S
C725 C724 1.386 . S
C725 C729 1.393 . S
C726 H718 0.950 . S
C726 C724 1.391 . S
C726 C727 1.400 . S
C727 C726 1.400 . S
C727 C728 1.398 . S
C727 C733 1.491 . S
C728 H719 0.950 . S
C728 C727 1.398 . S
C728 C729 1.391 . S
C729 H717 0.950 . S
C729 C725 1.393 . S
C729 C728 1.391 . S
C730 H720 0.950 . S
C730 C731 1.386 . S
C730 C732 1.391 . S
C731 C730 1.386 . S
C731 C735 1.393 . S
C732 H721 0.950 . S
C732 C730 1.391 . S
C732 C733 1.400 . S
C733 C727 1.491 . S
C733 C732 1.400 . S
C733 C734 1.398 . S
C734 H722 0.950 . S
C734 C733 1.398 . S
C734 C735 1.391 . S
C735 H723 0.950 . S
C735 C731 1.393 . S
C735 C734 1.391 . S
H736 C744 0.950 . S
H737 C749 0.950 . S
H738 C746 0.950 . S
H739 C748 0.950 . S
H740 C750 0.950 . S
H741 C752 0.950 . S
H742 C754 0.950 . S
H743 C755 0.950 . S
C744 H736 0.950 . S
C744 C745 1.386 . S
C744 C746 1.391 . S
C745 C744 1.386 . S
C745 C749 1.393 . S
C746 H738 0.950 . S
C746 C744 1.391 . S
C746 C747 1.400 . S
C747 C746 1.400 . S
C747 C748 1.398 . S
C747 C753 1.491 . S
C748 H739 0.950 . S
C748 C747 1.398 . S
C748 C749 1.391 . S
C749 H737 0.950 . S
C749 C745 1.393 . S
C749 C748 1.391 . S
C750 H740 0.950 . S
C750 C751 1.386 . S
C750 C752 1.391 . S
C751 C750 1.386 . S
C751 C755 1.393 . S
C752 H741 0.950 . S
C752 C750 1.391 . S
C752 C753 1.400 . S
C753 C747 1.491 . S
C753 C752 1.400 . S
C753 C754 1.398 . S
C754 H742 0.950 . S
C754 C753 1.398 . S
C754 C755 1.391 . S
C755 H743 0.950 . S
C755 C751 1.393 . S
C755 C754 1.391 . S
H756 C764 0.950 . S
H757 C769 0.950 . S
H758 C766 0.950 . S
H759 C768 0.950 . S
H760 C770 0.950 . S
H761 C772 0.950 . S
H762 C774 0.950 . S
H763 C775 0.950 . S
C764 H756 0.950 . S
C764 C765 1.383 . S
C764 C766 1.391 . S
C765 C764 1.383 . S
C765 C769 1.396 1_554 S
C766 H758 0.950 . S
C766 C764 1.391 . S
C766 C767 1.401 . S
C767 C766 1.401 . S
C767 C768 1.397 1_554 S
C767 C773 1.491 . S
C768 H759 0.950 . S
C768 C767 1.397 1_556 S
C768 C769 1.391 . S
C769 H757 0.950 . S
C769 C765 1.396 1_556 S
C769 C768 1.391 . S
C770 H760 0.950 . S
C770 C771 1.374 1_556 S
C770 C772 1.391 . S
C771 C770 1.374 1_554 S
C771 C775 1.404 . S
C772 H761 0.950 . S
C772 C770 1.391 . S
C772 C773 1.393 1_556 S
C773 C767 1.491 . S
C773 C772 1.393 1_554 S
C773 C774 1.406 . S
C774 H762 0.950 . S
C774 C773 1.406 . S
C774 C775 1.391 . S
C775 H763 0.950 . S
C775 C771 1.404 . S
C775 C774 1.391 . S
H776 C784 0.950 . S
H777 C789 0.950 . S
H778 C786 0.950 . S
H779 C788 0.950 . S
H780 C790 0.950 . S
H781 C792 0.950 . S
H782 C794 0.950 . S
H783 C795 0.950 . S
C784 H776 0.950 . S
C784 C785 1.396 . S
C784 C786 1.391 . S
C785 C784 1.396 . S
C785 C789 1.383 1_556 S
C786 H778 0.950 . S
C786 C784 1.391 . S
C786 C787 1.401 . S
C787 C786 1.401 . S
C787 C788 1.397 1_556 S
C787 C793 1.490 1_556 S
C788 H779 0.950 . S
C788 C787 1.397 1_554 S
C788 C789 1.391 . S
C789 H777 0.950 . S
C789 C785 1.383 1_554 S
C789 C788 1.391 . S
C790 H780 0.950 . S
C790 C791 1.408 . S
C790 C792 1.391 . S
C791 C790 1.408 . S
C791 C795 1.372 1_554 S
C792 H781 0.950 . S
C792 C790 1.391 . S
C792 C793 1.413 . S
C793 C787 1.490 1_554 S
C793 C792 1.413 . S
C793 C794 1.386 1_554 S
C794 H782 0.950 . S
C794 C793 1.386 1_556 S
C794 C795 1.391 . S
C795 H783 0.950 . S
C795 C791 1.372 1_556 S
C795 C794 1.391 . S
H796 C804 0.950 . S
H797 C809 0.950 . S
H798 C806 0.950 . S
H799 C808 0.950 . S
H800 C810 0.950 . S
H801 C812 0.950 . S
H802 C814 0.950 . S
H803 C815 0.950 . S
C804 H796 0.950 . S
C804 C805 1.384 . S
C804 C806 1.391 . S
C805 C804 1.384 . S
C805 C809 1.394 1_556 S
C806 H798 0.950 . S
C806 C804 1.391 . S
C806 C807 1.402 1_556 S
C807 C806 1.402 1_554 S
C807 C808 1.397 . S
C807 C813 1.491 . S
C808 H799 0.950 . S
C808 C807 1.397 . S
C808 C809 1.391 . S
C809 H797 0.950 . S
C809 C805 1.394 1_554 S
C809 C808 1.391 . S
C810 H800 0.950 . S
C810 C811 1.399 . S
C810 C812 1.391 . S
C811 C810 1.399 . S
C811 C815 1.380 1_554 S
C812 H801 0.950 . S
C812 C810 1.391 . S
C812 C813 1.409 . S
C813 C807 1.491 . S
C813 C812 1.409 . S
C813 C814 1.390 1_554 S
C814 H802 0.950 . S
C814 C813 1.390 1_556 S
C814 C815 1.391 . S
C815 H803 0.950 . S
C815 C811 1.380 1_556 S
C815 C814 1.391 . S
H816 C824 0.950 . S
H817 C829 0.950 . S
H818 C826 0.950 . S
H819 C828 0.950 . S
H820 C830 0.950 . S
H821 C832 0.950 . S
H822 C834 0.950 . S
H823 C835 0.950 . S
C824 H816 0.950 . S
C824 C825 1.397 . S
C824 C826 1.391 . S
C825 C824 1.397 . S
C825 C829 1.382 1_554 S
C826 H818 0.950 . S
C826 C824 1.391 . S
C826 C827 1.408 . S
C827 C826 1.408 . S
C827 C828 1.390 1_554 S
C827 C833 1.491 . S
C828 H819 0.950 . S
C828 C827 1.390 1_556 S
C828 C829 1.391 . S
C829 H817 0.950 . S
C829 C825 1.382 1_556 S
C829 C828 1.391 . S
C830 H820 0.950 . S
C830 C831 1.382 . S
C830 C832 1.391 . S
C831 C830 1.382 . S
C831 C835 1.396 1_556 S
C832 H821 0.950 . S
C832 C830 1.391 . S
C832 C833 1.401 1_556 S
C833 C827 1.491 . S
C833 C832 1.401 1_554 S
C833 C834 1.397 . S
C834 H822 0.950 . S
C834 C833 1.397 . S
C834 C835 1.391 . S
C835 H823 0.950 . S
C835 C831 1.396 1_554 S
C835 C834 1.391 . S
H836 C844 0.950 . S
H837 C849 0.950 . S
H838 C846 0.950 . S
H839 C848 0.950 . S
H840 C850 0.950 . S
H841 C852 0.950 . S
H842 C854 0.950 . S
H843 C855 0.949 1_655 S
C844 H836 0.950 . S
C844 C845 1.387 . S
C844 C846 1.391 . S
C845 C844 1.387 . S
C845 C849 1.392 1_655 S
C846 H838 0.950 . S
C846 C844 1.391 . S
C846 C847 1.401 . S
C847 C846 1.401 . S
C847 C848 1.398 1_655 S
C847 C853 1.490 1_655 S
C848 H839 0.950 . S
C848 C847 1.398 1_455 S
C848 C849 1.391 . S
C849 H837 0.950 . S
C849 C845 1.392 1_455 S
C849 C848 1.391 . S
C850 H840 0.950 . S
C850 C851 1.386 . S
C850 C852 1.391 . S
C851 C850 1.386 . S
C851 C855 1.393 . S
C852 H841 0.950 . S
C852 C850 1.391 . S
C852 C853 1.402 . S
C853 C847 1.490 1_455 S
C853 C852 1.402 . S
C853 C854 1.398 . S
C854 H842 0.950 . S
C854 C853 1.398 . S
C854 C855 1.391 . S
C855 H843 0.949 1_455 S
C855 C851 1.393 . S
C855 C854 1.391 . S
H856 C864 0.950 . S
H857 C869 0.950 . S
H858 C866 0.950 . S
H859 C868 0.950 . S
H860 C870 0.950 . S
H861 C872 0.950 . S
H862 C874 0.950 . S
H863 C875 0.950 . S
C864 H856 0.950 . S
C864 C865 1.364 1_565 S
C864 C866 1.391 . S
C865 C864 1.364 1_545 S
C865 C869 1.414 . S
C866 H858 0.950 . S
C866 C864 1.391 . S
C866 C867 1.386 1_565 S
C867 C866 1.386 1_545 S
C867 C868 1.412 . S
C867 C873 1.490 . S
C868 H859 0.950 . S
C868 C867 1.412 . S
C868 C869 1.391 . S
C869 H857 0.950 . S
C869 C865 1.414 . S
C869 C868 1.391 . S
C870 H860 0.950 . S
C870 C871 1.385 1_545 S
C870 C872 1.391 . S
C871 C870 1.385 1_565 S
C871 C875 1.393 . S
C872 H861 0.950 . S
C872 C870 1.391 . S
C872 C873 1.399 . S
C873 C867 1.490 . S
C873 C872 1.399 . S
C873 C874 1.399 1_545 S
C874 H862 0.950 . S
C874 C873 1.399 1_565 S
C874 C875 1.391 . S
C875 H863 0.950 . S
C875 C871 1.393 . S
C875 C874 1.391 . S
H876 C884 0.950 . S
H877 C889 0.950 . S
H878 C886 0.950 . S
H879 C888 0.950 . S
H880 C890 0.950 . S
H881 C892 0.950 . S
H882 C894 0.950 . S
H883 C895 0.950 . S
C884 H876 0.950 . S
C884 C885 1.370 1_655 S
C884 C886 1.391 . S
C885 C884 1.370 1_455 S
C885 C889 1.408 . S
C886 H878 0.950 . S
C886 C884 1.391 . S
C886 C887 1.389 1_655 S
C887 C886 1.389 1_455 S
C887 C888 1.409 . S
C887 C893 1.491 . S
C888 H879 0.950 . S
C888 C887 1.409 . S
C888 C889 1.391 . S
C889 H877 0.950 . S
C889 C885 1.408 . S
C889 C888 1.391 . S
C890 H880 0.950 . S
C890 C891 1.386 . S
C890 C892 1.391 . S
C891 C890 1.386 . S
C891 C895 1.392 1_455 S
C892 H881 0.950 . S
C892 C890 1.391 . S
C892 C893 1.405 . S
C893 C887 1.491 . S
C893 C892 1.405 . S
C893 C894 1.394 1_455 S
C894 H882 0.950 . S
C894 C893 1.394 1_655 S
C894 C895 1.391 . S
C895 H883 0.950 . S
C895 C891 1.392 1_655 S
C895 C894 1.391 . S
H896 C904 0.950 . S
H897 C909 0.950 . S
H898 C906 0.950 . S
H899 C908 0.950 . S
H900 C910 0.950 . S
H901 C912 0.950 . S
H902 C914 0.950 . S
H903 C915 0.950 . S
C904 H896 0.950 . S
C904 C905 1.362 1_565 S
C904 C906 1.391 . S
C905 C904 1.362 1_545 S
C905 C909 1.417 . S
C906 H898 0.950 . S
C906 C904 1.391 . S
C906 C907 1.385 1_565 S
C907 C906 1.385 1_545 S
C907 C908 1.414 . S
C907 C913 1.490 . S
C908 H899 0.950 . S
C908 C907 1.414 . S
C908 C909 1.391 . S
C909 H897 0.950 . S
C909 C905 1.417 . S
C909 C908 1.391 . S
C910 H900 0.950 . S
C910 C911 1.382 1_545 S
C910 C912 1.391 . S
C911 C910 1.382 1_565 S
C911 C915 1.396 . S
C912 H901 0.950 . S
C912 C910 1.391 . S
C912 C913 1.398 . S
C913 C907 1.490 . S
C913 C912 1.398 . S
C913 C914 1.401 1_545 S
C914 H902 0.950 . S
C914 C913 1.401 1_565 S
C914 C915 1.391 . S
C915 H903 0.950 . S
C915 C911 1.396 . S
C915 C914 1.391 . S
H916 C924 0.950 . S
H917 C929 0.950 . S
H918 C926 0.950 . S
H919 C928 0.950 . S
H920 C930 0.950 . S
H921 C932 0.950 . S
H922 C934 0.950 . S
H923 C935 0.950 . S
C924 H916 0.950 . S
C924 C925 1.403 . S
C924 C926 1.391 . S
C925 C924 1.403 . S
C925 C929 1.376 1_455 S
C926 H918 0.950 . S
C926 C924 1.391 . S
C926 C927 1.413 . S
C927 C926 1.413 . S
C927 C928 1.386 1_455 S
C927 C933 1.491 . S
C928 H919 0.950 . S
C928 C927 1.386 1_655 S
C928 C929 1.391 . S
C929 H917 0.950 . S
C929 C925 1.376 1_655 S
C929 C928 1.391 . S
C930 H920 0.950 . S
C930 C931 1.388 1_655 S
C930 C932 1.391 . S
C931 C930 1.388 1_455 S
C931 C935 1.390 . S
C932 H921 0.950 . S
C932 C930 1.391 . S
C932 C933 1.399 1_655 S
C933 C927 1.491 . S
C933 C932 1.399 1_455 S
C933 C934 1.400 . S
C934 H922 0.950 . S
C934 C933 1.400 . S
C934 C935 1.391 . S
C935 H923 0.950 . S
C935 C931 1.390 . S
C935 C934 1.391 . S
H936 C944 0.950 . S
H937 C949 0.950 . S
H938 C946 0.950 . S
H939 C948 0.950 . S
H940 C950 0.950 . S
H941 C952 0.950 . S
H942 C954 0.950 . S
H943 C955 0.950 . S
C944 H936 0.950 . S
C944 C945 1.392 . S
C944 C946 1.391 . S
C945 C944 1.392 . S
C945 C949 1.387 1_565 S
C946 H938 0.950 . S
C946 C944 1.391 . S
C946 C947 1.402 . S
C947 C946 1.402 . S
C947 C948 1.397 1_565 S
C947 C953 1.490 1_565 S
C948 H939 0.950 . S
C948 C947 1.397 1_545 S
C948 C949 1.391 . S
C949 H937 0.950 . S
C949 C945 1.387 1_545 S
C949 C948 1.391 . S
C950 H940 0.950 . S
C950 C951 1.386 . S
C950 C952 1.391 . S
C951 C950 1.386 . S
C951 C955 1.393 1_545 S
C952 H941 0.950 . S
C952 C950 1.391 . S
C952 C953 1.408 . S
C953 C947 1.490 1_545 S
C953 C952 1.408 . S
C953 C954 1.393 1_545 S
C954 H942 0.950 . S
C954 C953 1.393 1_565 S
C954 C955 1.391 . S
C955 H943 0.950 . S
C955 C951 1.393 1_565 S
C955 C954 1.391 . S
H956 C964 0.950 . S
H957 C969 0.950 . S
H958 C966 0.950 . S
H959 C968 0.950 . S
H960 C970 0.950 . S
H961 C972 0.950 . S
H962 C974 0.950 . S
H963 C975 0.950 . S
C964 H956 0.950 . S
C964 C965 1.386 1_455 S
C964 C966 1.391 . S
C965 C964 1.386 1_655 S
C965 C969 1.393 . S
C966 H958 0.950 . S
C966 C964 1.391 . S
C966 C967 1.400 . S
C967 C966 1.400 . S
C967 C968 1.398 1_455 S
C967 C973 1.490 . S
C968 H959 0.950 . S
C968 C967 1.398 1_655 S
C968 C969 1.391 . S
C969 H957 0.950 . S
C969 C965 1.393 . S
C969 C968 1.391 . S
C970 H960 0.950 . S
C970 C971 1.363 1_655 S
C970 C972 1.391 . S
C971 C970 1.363 1_455 S
C971 C975 1.416 . S
C972 H961 0.950 . S
C972 C970 1.391 . S
C972 C973 1.385 1_655 S
C973 C967 1.490 . S
C973 C972 1.385 1_455 S
C973 C974 1.414 . S
C974 H962 0.950 . S
C974 C973 1.414 . S
C974 C975 1.391 . S
C975 H963 0.950 . S
C975 C971 1.416 . S
C975 C974 1.391 . S
H976 C984 0.950 . S
H977 C989 0.950 . S
H978 C986 0.950 . S
H979 C988 0.950 . S
H980 C990 0.950 . S
H981 C992 0.950 . S
H982 C994 0.950 . S
H983 C995 0.950 . S
C984 H976 0.950 . S
C984 C985 1.394 . S
C984 C986 1.391 . S
C985 C984 1.394 . S
C985 C989 1.385 1_565 S
C986 H978 0.950 . S
C986 C984 1.391 . S
C986 C987 1.399 . S
C987 C986 1.399 . S
C987 C988 1.399 1_565 S
C987 C993 1.490 1_565 S
C988 H979 0.950 . S
C988 C987 1.399 1_545 S
C988 C989 1.391 . S
C989 H977 0.950 . S
C989 C985 1.385 1_545 S
C989 C988 1.391 . S
C990 H980 0.950 . S
C990 C991 1.410 . S
C990 C992 1.391 . S
C991 C990 1.410 . S
C991 C995 1.369 1_545 S
C992 H981 0.950 . S
C992 C990 1.391 . S
C992 C993 1.416 . S
C993 C987 1.490 1_545 S
C993 C992 1.416 . S
C993 C994 1.384 1_545 S
C994 H982 0.950 . S
C994 C993 1.384 1_565 S
C994 C995 1.391 . S
C995 H983 0.950 . S
C995 C991 1.369 1_565 S
C995 C994 1.391 . S
H996 C1004 0.950 . S
H997 C1009 0.950 . S
H998 C1006 0.950 . S
H999 C1008 0.950 . S
H1000 C1010 0.950 . S
H1001 C1012 0.950 . S
H1002 C1014 0.950 . S
H1003 C1015 0.950 . S
C1004 H996 0.950 . S
C1004 C1005 1.388 . S
C1004 C1006 1.391 . S
C1005 C1004 1.388 . S
C1005 C1009 1.391 1_655 S
C1006 H998 0.950 . S
C1006 C1004 1.391 . S
C1006 C1007 1.400 1_655 S
C1007 C1006 1.400 1_455 S
C1007 C1008 1.398 . S
C1007 C1013 1.490 . S
C1008 H999 0.950 . S
C1008 C1007 1.398 . S
C1008 C1009 1.391 . S
C1009 H997 0.950 . S
C1009 C1005 1.391 1_455 S
C1009 C1008 1.391 . S
C1010 H1000 0.950 . S
C1010 C1011 1.413 . S
C1010 C1012 1.391 . S
C1011 C1010 1.413 . S
C1011 C1015 1.367 1_455 S
C1012 H1001 0.950 . S
C1012 C1010 1.391 . S
C1012 C1013 1.418 . S
C1013 C1007 1.490 . S
C1013 C1012 1.418 . S
C1013 C1014 1.381 1_455 S
C1014 H1002 0.950 . S
C1014 C1013 1.381 1_655 S
C1014 C1015 1.391 . S
C1015 H1003 0.950 . S
C1015 C1011 1.367 1_655 S
C1015 C1014 1.391 . S
H1016 C1024 0.950 . S
H1017 C1029 0.950 . S
H1018 C1026 0.950 . S
H1019 C1028 0.950 . S
H1020 C1030 0.950 . S
H1021 C1032 0.950 . S
H1022 C1034 0.950 . S
H1023 C1035 0.950 . S
C1024 H1016 0.950 . S
C1024 C1025 1.395 . S
C1024 C1026 1.391 . S
C1025 C1024 1.395 . S
C1025 C1029 1.384 1_565 S
C1026 H1018 0.950 . S
C1026 C1024 1.391 . S
C1026 C1027 1.401 . S
C1027 C1026 1.401 . S
C1027 C1028 1.398 1_565 S
C1027 C1033 1.490 1_565 S
C1028 H1019 0.950 . S
C1028 C1027 1.398 1_545 S
C1028 C1029 1.391 . S
C1029 H1017 0.950 . S
C1029 C1025 1.384 1_545 S
C1029 C1028 1.391 . S
C1030 H1020 0.950 . S
C1030 C1031 1.409 . S
C1030 C1032 1.391 . S
C1031 C1030 1.409 . S
C1031 C1035 1.370 1_545 S
C1032 H1021 0.950 . S
C1032 C1030 1.391 . S
C1032 C1033 1.415 . S
C1033 C1027 1.490 1_545 S
C1033 C1032 1.415 . S
C1033 C1034 1.385 1_545 S
C1034 H1022 0.950 . S
C1034 C1033 1.385 1_565 S
C1034 C1035 1.391 . S
C1035 H1023 0.950 . S
C1035 C1031 1.370 1_565 S
C1035 C1034 1.391 . S
H1036 C1044 0.950 . S
H1037 C1049 0.950 . S
H1038 C1046 0.950 . S
H1039 C1048 0.950 . S
H1040 C1050 0.950 . S
H1041 C1052 0.950 . S
H1042 C1054 0.950 . S
H1043 C1055 0.950 . S
C1044 H1036 0.950 . S
C1044 C1045 1.390 . S
C1044 C1046 1.391 . S
C1045 C1044 1.390 . S
C1045 C1049 1.389 1_455 S
C1046 H1038 0.950 . S
C1046 C1044 1.391 . S
C1046 C1047 1.409 . S
C1047 C1046 1.409 . S
C1047 C1048 1.390 1_455 S
C1047 C1053 1.491 . S
C1048 H1039 0.950 . S
C1048 C1047 1.390 1_655 S
C1048 C1049 1.391 . S
C1049 H1037 0.950 . S
C1049 C1045 1.389 1_655 S
C1049 C1048 1.391 . S
C1050 H1040 0.950 . S
C1050 C1051 1.368 1_655 S
C1050 C1052 1.391 . S
C1051 C1050 1.368 1_455 S
C1051 C1055 1.411 . S
C1052 H1041 0.950 . S
C1052 C1050 1.391 . S
C1052 C1053 1.387 1_655 S
C1053 C1047 1.491 . S
C1053 C1052 1.387 1_455 S
C1053 C1054 1.412 . S
C1054 H1042 0.950 . S
C1054 C1053 1.412 . S
C1054 C1055 1.391 . S
C1055 H1043 0.950 . S
C1055 C1051 1.411 . S
C1055 C1054 1.391 . S
H1056 C1064 0.950 . S
H1057 C1069 0.950 . S
H1058 C1066 0.950 . S
H1059 C1068 0.950 . S
H1060 C1070 0.950 . S
H1061 C1072 0.950 . S
H1062 C1074 0.950 . S
H1063 C1075 0.950 . S
C1064 H1056 0.950 . S
C1064 C1065 1.409 . S
C1064 C1066 1.391 . S
C1065 C1064 1.409 . S
C1065 C1069 1.371 1_545 S
C1066 H1058 0.950 . S
C1066 C1064 1.391 . S
C1066 C1067 1.415 . S
C1067 C1066 1.415 . S
C1067 C1068 1.385 1_545 S
C1067 C1073 1.490 1_545 S
C1068 H1059 0.950 . S
C1068 C1067 1.385 1_565 S
C1068 C1069 1.391 . S
C1069 H1057 0.950 . S
C1069 C1065 1.371 1_565 S
C1069 C1068 1.391 . S
C1070 H1060 0.950 . S
C1070 C1071 1.394 . S
C1070 C1072 1.391 . S
C1071 C1070 1.394 . S
C1071 C1075 1.385 1_565 S
C1072 H1061 0.950 . S
C1072 C1070 1.391 . S
C1072 C1073 1.400 . S
C1073 C1067 1.490 1_565 S
C1073 C1072 1.400 . S
C1073 C1074 1.398 1_565 S
C1074 H1062 0.950 . S
C1074 C1073 1.398 1_545 S
C1074 C1075 1.391 . S
C1075 H1063 0.950 . S
C1075 C1071 1.385 1_545 S
C1075 C1074 1.391 . S
H1076 C1084 0.950 . S
H1077 C1089 0.950 . S
H1078 C1086 0.950 . S
H1079 C1088 0.950 . S
H1080 C1090 0.950 . S
H1081 C1092 0.950 . S
H1082 C1094 0.950 . S
H1083 C1095 0.950 . S
C1084 H1076 0.950 . S
C1084 C1085 1.359 1_655 S
C1084 C1086 1.391 . S
C1085 C1084 1.359 1_455 S
C1085 C1089 1.420 . S
C1086 H1078 0.950 . S
C1086 C1084 1.391 . S
C1086 C1087 1.382 1_655 S
C1087 C1086 1.382 1_455 S
C1087 C1088 1.417 . S
C1087 C1093 1.490 . S
C1088 H1079 0.950 . S
C1088 C1087 1.417 . S
C1088 C1089 1.391 . S
C1089 H1077 0.950 . S
C1089 C1085 1.420 . S
C1089 C1088 1.391 . S
C1090 H1080 0.950 . S
C1090 C1091 1.387 1_455 S
C1090 C1092 1.391 . S
C1091 C1090 1.387 1_655 S
C1091 C1095 1.392 . S
C1092 H1081 0.950 . S
C1092 C1090 1.391 . S
C1092 C1093 1.402 . S
C1093 C1087 1.490 . S
C1093 C1092 1.402 . S
C1093 C1094 1.397 1_455 S
C1094 H1082 0.950 . S
C1094 C1093 1.397 1_655 S
C1094 C1095 1.391 . S
C1095 H1083 0.950 . S
C1095 C1091 1.392 . S
C1095 C1094 1.391 . S
H1096 C1104 0.950 . S
H1097 C1109 0.950 . S
H1098 C1106 0.950 . S
H1099 C1108 0.950 . S
H1100 C1110 0.950 . S
H1101 C1112 0.950 . S
H1102 C1114 0.950 . S
H1103 C1115 0.950 . S
C1104 H1096 0.950 . S
C1104 C1105 1.394 . S
C1104 C1106 1.391 . S
C1105 C1104 1.394 . S
C1105 C1109 1.385 1_565 S
C1106 H1098 0.950 . S
C1106 C1104 1.391 . S
C1106 C1107 1.399 . S
C1107 C1106 1.399 . S
C1107 C1108 1.399 1_565 S
C1107 C1113 1.490 1_565 S
C1108 H1099 0.950 . S
C1108 C1107 1.399 1_545 S
C1108 C1109 1.391 . S
C1109 H1097 0.950 . S
C1109 C1105 1.385 1_545 S
C1109 C1108 1.391 . S
C1110 H1100 0.950 . S
C1110 C1111 1.409 . S
C1110 C1112 1.391 . S
C1111 C1110 1.409 . S
C1111 C1115 1.370 1_545 S
C1112 H1101 0.950 . S
C1112 C1110 1.391 . S
C1112 C1113 1.415 . S
C1113 C1107 1.490 1_545 S
C1113 C1112 1.415 . S
C1113 C1114 1.385 1_545 S
C1114 H1102 0.950 . S
C1114 C1113 1.385 1_565 S
C1114 C1115 1.391 . S
C1115 H1103 0.950 . S
C1115 C1111 1.370 1_565 S
C1115 C1114 1.391 . S
H1116 C1124 0.950 . S
H1117 C1129 0.950 . S
H1118 C1126 0.950 . S
H1119 C1128 0.950 . S
H1120 C1130 0.950 . S
H1121 C1132 0.950 . S
H1122 C1134 0.950 . S
H1123 C1135 0.950 . S
C1124 H1116 0.950 . S
C1124 C1125 1.386 1_655 S
C1124 C1126 1.391 . S
C1125 C1124 1.386 1_455 S
C1125 C1129 1.392 . S
C1126 H1118 0.950 . S
C1126 C1124 1.391 . S
C1126 C1127 1.396 1_655 S
C1127 C1126 1.396 1_455 S
C1127 C1128 1.403 . S
C1127 C1133 1.491 . S
C1128 H1119 0.950 . S
C1128 C1127 1.403 . S
C1128 C1129 1.391 . S
C1129 H1117 0.950 . S
C1129 C1125 1.392 . S
C1129 C1128 1.391 . S
C1130 H1120 0.950 . S
C1130 C1131 1.407 . S
C1130 C1132 1.391 . S
C1131 C1130 1.407 . S
C1131 C1135 1.372 1_455 S
C1132 H1121 0.950 . S
C1132 C1130 1.391 . S
C1132 C1133 1.416 . S
C1133 C1127 1.491 . S
C1133 C1132 1.416 . S
C1133 C1134 1.383 1_455 S
C1134 H1122 0.950 . S
C1134 C1133 1.383 1_655 S
C1134 C1135 1.391 . S
C1135 H1123 0.950 . S
C1135 C1131 1.372 1_655 S
C1135 C1134 1.391 . S
H1136 C1144 0.950 . S
H1137 C1149 0.950 . S
H1138 C1146 0.950 . S
H1139 C1148 0.950 . S
H1140 C1150 0.950 . S
H1141 C1152 0.950 . S
H1142 C1154 0.950 . S
H1143 C1155 0.950 . S
C1144 H1136 0.950 . S
C1144 C1145 1.386 1_565 S
C1144 C1146 1.391 . S
C1145 C1144 1.386 1_545 S
C1145 C1149 1.393 . S
C1146 H1138 0.950 . S
C1146 C1144 1.391 . S
C1146 C1147 1.384 1_565 S
C1147 C1146 1.384 1_545 S
C1147 C1148 1.416 . S
C1147 C1153 1.490 1_545 S
C1148 H1139 0.950 . S
C1148 C1147 1.416 . S
C1148 C1149 1.391 . S
C1149 H1137 0.950 . S
C1149 C1145 1.393 . S
C1149 C1148 1.391 . S
C1150 H1140 0.950 . S
C1150 C1151 1.374 1_545 S
C1150 C1152 1.391 . S
C1151 C1150 1.374 1_565 S
C1151 C1155 1.405 . S
C1152 H1141 0.950 . S
C1152 C1150 1.391 . S
C1152 C1153 1.399 1_545 S
C1153 C1147 1.490 1_565 S
C1153 C1152 1.399 1_565 S
C1153 C1154 1.399 . S
C1154 H1142 0.950 . S
C1154 C1153 1.399 . S
C1154 C1155 1.391 . S
C1155 H1143 0.950 . S
C1155 C1151 1.405 . S
C1155 C1154 1.391 . S
H1156 C1164 0.950 . S
H1157 C1169 0.950 . S
H1158 C1166 0.950 . S
H1159 C1168 0.950 . S
H1160 C1170 0.950 . S
H1161 C1172 0.950 . S
H1162 C1174 0.950 . S
H1163 C1175 0.950 . S
C1164 H1156 0.950 . S
C1164 C1165 1.366 1_565 S
C1164 C1166 1.391 . S
C1165 C1164 1.366 1_545 S
C1165 C1169 1.413 . S
C1166 H1158 0.950 . S
C1166 C1164 1.391 . S
C1166 C1167 1.389 1_565 S
C1167 C1166 1.389 1_545 S
C1167 C1168 1.409 . S
C1167 C1173 1.490 . S
C1168 H1159 0.950 . S
C1168 C1167 1.409 . S
C1168 C1169 1.391 . S
C1169 H1157 0.950 . S
C1169 C1165 1.413 . S
C1169 C1168 1.391 . S
C1170 H1160 0.950 . S
C1170 C1171 1.381 1_545 S
C1170 C1172 1.391 . S
C1171 C1170 1.381 1_565 S
C1171 C1175 1.397 . S
C1172 H1161 0.950 . S
C1172 C1170 1.391 . S
C1172 C1173 1.397 . S
C1173 C1167 1.490 . S
C1173 C1172 1.397 . S
C1173 C1174 1.402 1_545 S
C1174 H1162 0.950 . S
C1174 C1173 1.402 1_565 S
C1174 C1175 1.391 . S
C1175 H1163 0.950 . S
C1175 C1171 1.397 . S
C1175 C1174 1.391 . S
H1176 C1184 0.950 . S
H1177 C1189 0.950 . S
H1178 C1186 0.950 . S
H1179 C1188 0.950 . S
H1180 C1190 0.950 . S
H1181 C1192 0.950 . S
H1182 C1194 0.950 . S
H1183 C1195 0.950 . S
C1184 H1176 0.950 . S
C1184 C1185 1.386 . S
C1184 C1186 1.391 . S
C1185 C1184 1.386 . S
C1185 C1189 1.393 1_455 S
C1186 H1178 0.950 . S
C1186 C1184 1.391 . S
C1186 C1187 1.411 . S
C1187 C1186 1.411 . S
C1187 C1188 1.389 1_455 S
C1187 C1193 1.490 1_455 S
C1188 H1179 0.950 . S
C1188 C1187 1.389 1_655 S
C1188 C1189 1.391 . S
C1189 H1177 0.950 . S
C1189 C1185 1.393 1_655 S
C1189 C1188 1.391 . S
C1190 H1180 0.950 . S
C1190 C1191 1.396 . S
C1190 C1192 1.391 . S
C1191 C1190 1.396 . S
C1191 C1195 1.383 1_655 S
C1192 H1181 0.950 . S
C1192 C1190 1.391 . S
C1192 C1193 1.403 . S
C1193 C1187 1.490 1_655 S
C1193 C1192 1.403 . S
C1193 C1194 1.396 1_655 S
C1194 H1182 0.950 . S
C1194 C1193 1.396 1_455 S
C1194 C1195 1.391 . S
C1195 H1183 0.950 . S
C1195 C1191 1.383 1_455 S
C1195 C1194 1.391 . S
H1196 C1204 0.950 . S
H1197 C1209 0.950 . S
H1198 C1206 0.950 . S
H1199 C1208 0.950 . S
H1200 C1210 0.950 . S
H1201 C1212 0.950 . S
H1202 C1214 0.950 . S
H1203 C1215 0.950 . S
C1204 H1196 0.950 . S
C1204 C1205 1.396 . S
C1204 C1206 1.391 . S
C1205 C1204 1.396 . S
C1205 C1209 1.383 1_565 S
C1206 H1198 0.950 . S
C1206 C1204 1.391 . S
C1206 C1207 1.403 . S
C1207 C1206 1.403 . S
C1207 C1208 1.396 1_565 S
C1207 C1213 1.490 1_565 S
C1208 H1199 0.950 . S
C1208 C1207 1.396 1_545 S
C1208 C1209 1.391 . S
C1209 H1197 0.950 . S
C1209 C1205 1.383 1_545 S
C1209 C1208 1.391 . S
C1210 H1200 0.950 . S
C1210 C1211 1.386 . S
C1210 C1212 1.391 . S
C1211 C1210 1.386 . S
C1211 C1215 1.393 1_545 S
C1212 H1201 0.950 . S
C1212 C1210 1.391 . S
C1212 C1213 1.411 . S
C1213 C1207 1.490 1_545 S
C1213 C1212 1.411 . S
C1213 C1214 1.389 1_545 S
C1214 H1202 0.950 . S
C1214 C1213 1.389 1_565 S
C1214 C1215 1.391 . S
C1215 H1203 0.950 . S
C1215 C1211 1.393 1_565 S
C1215 C1214 1.391 . S
H1216 C1224 0.950 . S
H1217 C1229 0.950 . S
H1218 C1226 0.950 . S
H1219 C1228 0.950 . S
H1220 C1230 0.950 . S
H1221 C1232 0.950 . S
H1222 C1234 0.950 . S
H1223 C1235 0.950 . S
C1224 H1216 0.950 . S
C1224 C1225 1.387 . S
C1224 C1226 1.391 . S
C1225 C1224 1.387 . S
C1225 C1229 1.392 1_655 S
C1226 H1218 0.950 . S
C1226 C1224 1.391 . S
C1226 C1227 1.403 1_655 S
C1227 C1226 1.403 1_455 S
C1227 C1228 1.396 . S
C1227 C1233 1.490 . S
C1228 H1219 0.950 . S
C1228 C1227 1.396 . S
C1228 C1229 1.391 . S
C1229 H1217 0.950 . S
C1229 C1225 1.392 1_455 S
C1229 C1228 1.391 . S
C1230 H1220 0.950 . S
C1230 C1231 1.403 . S
C1230 C1232 1.391 . S
C1231 C1230 1.403 . S
C1231 C1235 1.376 1_455 S
C1232 H1221 0.950 . S
C1232 C1230 1.391 . S
C1232 C1233 1.412 . S
C1233 C1227 1.490 . S
C1233 C1232 1.412 . S
C1233 C1234 1.387 1_455 S
C1234 H1222 0.950 . S
C1234 C1233 1.387 1_655 S
C1234 C1235 1.391 . S
C1235 H1223 0.950 . S
C1235 C1231 1.376 1_655 S
C1235 C1234 1.391 . S
H1236 C1244 0.950 . S
H1237 C1249 0.950 . S
H1238 C1246 0.950 . S
H1239 C1248 0.950 . S
H1240 C1250 0.950 . S
H1241 C1252 0.950 . S
H1242 C1254 0.950 . S
H1243 C1255 0.950 . S
C1244 H1236 0.950 . S
C1244 C1245 1.407 . S
C1244 C1246 1.391 . S
C1245 C1244 1.407 . S
C1245 C1249 1.373 1_545 S
C1246 H1238 0.950 . S
C1246 C1244 1.391 . S
C1246 C1247 1.412 . S
C1247 C1246 1.412 . S
C1247 C1248 1.387 1_545 S
C1247 C1253 1.490 1_545 S
C1248 H1239 0.950 . S
C1248 C1247 1.387 1_565 S
C1248 C1249 1.391 . S
C1249 H1237 0.950 . S
C1249 C1245 1.373 1_565 S
C1249 C1248 1.391 . S
C1250 H1240 0.950 . S
C1250 C1251 1.398 . S
C1250 C1252 1.391 . S
C1251 C1250 1.398 . S
C1251 C1255 1.381 1_565 S
C1252 H1241 0.950 . S
C1252 C1250 1.391 . S
C1252 C1253 1.403 . S
C1253 C1247 1.490 1_565 S
C1253 C1252 1.403 . S
C1253 C1254 1.395 1_565 S
C1254 H1242 0.950 . S
C1254 C1253 1.395 1_545 S
C1254 C1255 1.391 . S
C1255 H1243 0.950 . S
C1255 C1251 1.381 1_545 S
C1255 C1254 1.391 . S
H1256 C1264 0.950 . S
H1257 C1269 0.950 . S
H1258 C1266 0.950 . S
H1259 C1268 0.950 . S
H1260 C1270 0.950 . S
H1261 C1272 0.950 . S
H1262 C1274 0.950 . S
H1263 C1275 0.950 . S
C1264 H1256 0.950 . S
C1264 C1265 1.387 1_455 S
C1264 C1266 1.391 . S
C1265 C1264 1.387 1_655 S
C1265 C1269 1.392 . S
C1266 H1258 0.950 . S
C1266 C1264 1.391 . S
C1266 C1267 1.399 . S
C1267 C1266 1.399 . S
C1267 C1268 1.399 1_455 S
C1267 C1273 1.491 . S
C1268 H1259 0.950 . S
C1268 C1267 1.399 1_655 S
C1268 C1269 1.391 . S
C1269 H1257 0.950 . S
C1269 C1265 1.392 . S
C1269 C1268 1.391 . S
C1270 H1260 0.950 . S
C1270 C1271 1.369 1_655 S
C1270 C1272 1.391 . S
C1271 C1270 1.369 1_455 S
C1271 C1275 1.409 . S
C1272 H1261 0.950 . S
C1272 C1270 1.391 . S
C1272 C1273 1.389 1_655 S
C1273 C1267 1.491 . S
C1273 C1272 1.389 1_455 S
C1273 C1274 1.409 . S
C1274 H1262 0.950 . S
C1274 C1273 1.409 . S
C1274 C1275 1.391 . S
C1275 H1263 0.950 . S
C1275 C1271 1.409 . S
C1275 C1274 1.391 . S
H1276 C1284 0.950 . S
H1277 C1289 0.950 . S
H1278 C1286 0.950 . S
H1279 C1288 0.950 . S
H1280 C1290 0.950 . S
H1281 C1292 0.950 . S
H1282 C1294 0.950 . S
H1283 C1295 0.950 . S
C1284 H1276 0.950 . S
C1284 C1285 1.397 . S
C1284 C1286 1.391 . S
C1285 C1284 1.397 . S
C1285 C1289 1.383 1_565 S
C1286 H1278 0.950 . S
C1286 C1284 1.391 . S
C1286 C1287 1.403 . S
C1287 C1286 1.403 . S
C1287 C1288 1.395 1_565 S
C1287 C1293 1.490 1_565 S
C1288 H1279 0.950 . S
C1288 C1287 1.395 1_545 S
C1288 C1289 1.391 . S
C1289 H1277 0.950 . S
C1289 C1285 1.383 1_545 S
C1289 C1288 1.391 . S
C1290 H1280 0.950 . S
C1290 C1291 1.386 . S
C1290 C1292 1.391 . S
C1291 C1290 1.386 . S
C1291 C1295 1.393 1_545 S
C1292 H1281 0.950 . S
C1292 C1290 1.391 . S
C1292 C1293 1.411 . S
C1293 C1287 1.490 1_545 S
C1293 C1292 1.411 . S
C1293 C1294 1.389 1_545 S
C1294 H1282 0.950 . S
C1294 C1293 1.389 1_565 S
C1294 C1295 1.391 . S
C1295 H1283 0.950 . S
C1295 C1291 1.393 1_565 S
C1295 C1294 1.391 . S
H1296 C1304 0.950 . S
H1297 C1309 0.950 . S
H1298 C1306 0.950 . S
H1299 C1308 0.950 . S
H1300 C1310 0.950 . S
H1301 C1312 0.950 . S
H1302 C1314 0.950 . S
H1303 C1315 0.950 . S
C1304 H1296 0.950 . S
C1304 C1305 1.378 1_455 S
C1304 C1306 1.391 . S
C1305 C1304 1.378 1_655 S
C1305 C1309 1.400 . S
C1306 H1298 0.950 . S
C1306 C1304 1.391 . S
C1306 C1307 1.402 1_455 S
C1307 C1306 1.402 1_655 S
C1307 C1308 1.397 . S
C1307 C1313 1.490 1_655 S
C1308 H1299 0.950 . S
C1308 C1307 1.397 . S
C1308 C1309 1.391 . S
C1309 H1297 0.950 . S
C1309 C1305 1.400 . S
C1309 C1308 1.391 . S
C1310 H1300 0.950 . S
C1310 C1311 1.362 1_655 S
C1310 C1312 1.391 . S
C1311 C1310 1.362 1_455 S
C1311 C1315 1.417 . S
C1312 H1301 0.950 . S
C1312 C1310 1.391 . S
C1312 C1313 1.386 1_655 S
C1313 C1307 1.490 1_455 S
C1313 C1312 1.386 1_455 S
C1313 C1314 1.413 . S
C1314 H1302 0.950 . S
C1314 C1313 1.413 . S
C1314 C1315 1.391 . S
C1315 H1303 0.950 . S
C1315 C1311 1.417 . S
C1315 C1314 1.391 . S
H1316 C1324 0.950 . S
H1317 C1329 0.950 . S
H1318 C1326 0.950 . S
H1319 C1328 0.950 . S
H1320 C1330 0.950 . S
H1321 C1332 0.950 . S
H1322 C1334 0.950 . S
H1323 C1335 0.950 . S
C1324 H1316 0.950 . S
C1324 C1325 1.397 . S
C1324 C1326 1.391 . S
C1325 C1324 1.397 . S
C1325 C1329 1.382 1_554 S
C1326 H1318 0.950 . S
C1326 C1324 1.391 . S
C1326 C1327 1.407 . S
C1327 C1326 1.407 . S
C1327 C1328 1.392 1_554 S
C1327 C1333 1.491 1_554 S
C1328 H1319 0.950 . S
C1328 C1327 1.392 1_556 S
C1328 C1329 1.391 . S
C1329 H1317 0.950 . S
C1329 C1325 1.382 1_556 S
C1329 C1328 1.391 . S
C1330 H1320 0.950 . S
C1330 C1331 1.387 . S
C1330 C1332 1.391 . S
C1331 C1330 1.387 . S
C1331 C1335 1.391 1_556 S
C1332 H1321 0.950 . S
C1332 C1330 1.391 . S
C1332 C1333 1.397 . S
C1333 C1327 1.491 1_556 S
C1333 C1332 1.397 . S
C1333 C1334 1.401 1_556 S
C1334 H1322 0.950 . S
C1334 C1333 1.401 1_554 S
C1334 C1335 1.391 . S
C1335 H1323 0.950 . S
C1335 C1331 1.391 1_554 S
C1335 C1334 1.391 . S
H1336 C1344 0.950 . S
H1337 C1349 0.950 . S
H1338 C1346 0.950 . S
H1339 C1348 0.950 . S
H1340 C1350 0.950 . S
H1341 C1352 0.950 . S
H1342 C1354 0.950 . S
H1343 C1355 0.950 . S
C1344 H1336 0.950 . S
C1344 C1345 1.405 . S
C1344 C1346 1.391 . S
C1345 C1344 1.405 . S
C1345 C1349 1.375 1_554 S
C1346 H1338 0.950 . S
C1346 C1344 1.391 . S
C1346 C1347 1.410 . S
C1347 C1346 1.410 . S
C1347 C1348 1.389 1_554 S
C1347 C1353 1.490 1_554 S
C1348 H1339 0.950 . S
C1348 C1347 1.389 1_556 S
C1348 C1349 1.391 . S
C1349 H1337 0.950 . S
C1349 C1345 1.375 1_556 S
C1349 C1348 1.391 . S
C1350 H1340 0.950 . S
C1350 C1351 1.400 . S
C1350 C1352 1.391 . S
C1351 C1350 1.400 . S
C1351 C1355 1.380 1_556 S
C1352 H1341 0.950 . S
C1352 C1350 1.391 . S
C1352 C1353 1.405 . S
C1353 C1347 1.490 1_556 S
C1353 C1352 1.405 . S
C1353 C1354 1.394 1_556 S
C1354 H1342 0.950 . S
C1354 C1353 1.394 1_554 S
C1354 C1355 1.391 . S
C1355 H1343 0.950 . S
C1355 C1351 1.380 1_554 S
C1355 C1354 1.391 . S
H1356 C1364 0.950 . S
H1357 C1369 0.950 . S
H1358 C1366 0.950 . S
H1359 C1368 0.950 . S
H1360 C1370 0.950 . S
H1361 C1372 0.950 . S
H1362 C1374 0.950 . S
H1363 C1375 0.950 . S
C1364 H1356 0.950 . S
C1364 C1365 1.386 1_556 S
C1364 C1366 1.391 . S
C1365 C1364 1.386 1_554 S
C1365 C1369 1.393 . S
C1366 H1358 0.950 . S
C1366 C1364 1.391 . S
C1366 C1367 1.394 1_556 S
C1367 C1366 1.394 1_554 S
C1367 C1368 1.406 . S
C1367 C1373 1.490 1_554 S
C1368 H1359 0.950 . S
C1368 C1367 1.406 . S
C1368 C1369 1.391 . S
C1369 H1357 0.950 . S
C1369 C1365 1.393 . S
C1369 C1368 1.391 . S
C1370 H1360 0.950 . S
C1370 C1371 1.378 1_554 S
C1370 C1372 1.391 . S
C1371 C1370 1.378 1_556 S
C1371 C1375 1.401 . S
C1372 H1361 0.950 . S
C1372 C1370 1.391 . S
C1372 C1373 1.398 1_554 S
C1373 C1367 1.490 1_556 S
C1373 C1372 1.398 1_556 S
C1373 C1374 1.401 . S
C1374 H1362 0.950 . S
C1374 C1373 1.401 . S
C1374 C1375 1.391 . S
C1375 H1363 0.950 . S
C1375 C1371 1.401 . S
C1375 C1374 1.391 . S
H1376 C1384 0.950 . S
H1377 C1389 0.950 . S
H1378 C1386 0.950 . S
H1379 C1388 0.950 . S
H1380 C1390 0.950 . S
H1381 C1392 0.950 . S
H1382 C1394 0.950 . S
H1383 C1395 0.950 . S
C1384 H1376 0.950 . S
C1384 C1385 1.377 1_554 S
C1384 C1386 1.391 . S
C1385 C1384 1.377 1_556 S
C1385 C1389 1.403 . S
C1386 H1378 0.950 . S
C1386 C1384 1.391 . S
C1386 C1387 1.397 1_554 S
C1387 C1386 1.397 1_556 S
C1387 C1388 1.402 . S
C1387 C1393 1.490 1_556 S
C1388 H1379 0.950 . S
C1388 C1387 1.402 . S
C1388 C1389 1.391 . S
C1389 H1377 0.950 . S
C1389 C1385 1.403 . S
C1389 C1388 1.391 . S
C1390 H1380 0.950 . S
C1390 C1391 1.386 1_556 S
C1390 C1392 1.391 . S
C1391 C1390 1.386 1_554 S
C1391 C1395 1.393 . S
C1392 H1381 0.950 . S
C1392 C1390 1.391 . S
C1392 C1393 1.394 1_556 S
C1393 C1387 1.490 1_554 S
C1393 C1392 1.394 1_554 S
C1393 C1394 1.406 . S
C1394 H1382 0.950 . S
C1394 C1393 1.406 . S
C1394 C1395 1.391 . S
C1395 H1383 0.950 . S
C1395 C1391 1.393 . S
C1395 C1394 1.391 . S
H1396 C1404 0.950 . S
H1397 C1409 0.950 . S
H1398 C1406 0.950 . S
H1399 C1408 0.950 . S
H1400 C1410 0.950 . S
H1401 C1412 0.950 . S
H1402 C1414 0.950 . S
H1403 C1415 0.950 . S
C1404 H1396 0.950 . S
C1404 C1405 1.397 . S
C1404 C1406 1.391 . S
C1405 C1404 1.397 . S
C1405 C1409 1.382 1_556 S
C1406 H1398 0.950 . S
C1406 C1404 1.391 . S
C1406 C1407 1.403 . S
C1407 C1406 1.403 . S
C1407 C1408 1.396 1_556 S
C1407 C1413 1.490 1_556 S
C1408 H1399 0.950 . S
C1408 C1407 1.396 1_554 S
C1408 C1409 1.391 . S
C1409 H1397 0.950 . S
C1409 C1405 1.382 1_554 S
C1409 C1408 1.391 . S
C1410 H1400 0.950 . S
C1410 C1411 1.407 . S
C1410 C1412 1.391 . S
C1411 C1410 1.407 . S
C1411 C1415 1.372 1_554 S
C1412 H1401 0.950 . S
C1412 C1410 1.391 . S
C1412 C1413 1.413 . S
C1413 C1407 1.490 1_554 S
C1413 C1412 1.413 . S
C1413 C1414 1.387 1_554 S
C1414 H1402 0.950 . S
C1414 C1413 1.387 1_556 S
C1414 C1415 1.391 . S
C1415 H1403 0.950 . S
C1415 C1411 1.372 1_556 S
C1415 C1414 1.391 . S
H1416 C1424 0.950 . S
H1417 C1429 0.950 . S
H1418 C1426 0.950 . S
H1419 C1428 0.950 . S
H1420 C1430 0.950 . S
H1421 C1432 0.950 . S
H1422 C1434 0.950 . S
H1423 C1435 0.950 . S
C1424 H1416 0.950 . S
C1424 C1425 1.403 . S
C1424 C1426 1.391 . S
C1425 C1424 1.403 . S
C1425 C1429 1.376 1_554 S
C1426 H1418 0.950 . S
C1426 C1424 1.391 . S
C1426 C1427 1.409 . S
C1427 C1426 1.409 . S
C1427 C1428 1.389 1_554 S
C1427 C1433 1.490 1_554 S
C1428 H1419 0.950 . S
C1428 C1427 1.389 1_556 S
C1428 C1429 1.391 . S
C1429 H1417 0.950 . S
C1429 C1425 1.376 1_556 S
C1429 C1428 1.391 . S
C1430 H1420 0.950 . S
C1430 C1431 1.395 . S
C1430 C1432 1.391 . S
C1431 C1430 1.395 . S
C1431 C1435 1.384 1_556 S
C1432 H1421 0.950 . S
C1432 C1430 1.391 . S
C1432 C1433 1.401 . S
C1433 C1427 1.490 1_556 S
C1433 C1432 1.401 . S
C1433 C1434 1.397 1_556 S
C1434 H1422 0.950 . S
C1434 C1433 1.397 1_554 S
C1434 C1435 1.391 . S
C1435 H1423 0.950 . S
C1435 C1431 1.384 1_554 S
C1435 C1434 1.391 . S
H1436 C1444 0.950 . S
H1437 C1449 0.950 . S
H1438 C1446 0.950 . S
H1439 C1448 0.950 . S
H1440 C1450 0.950 . S
H1441 C1452 0.950 . S
H1442 C1454 0.950 . S
H1443 C1455 0.950 . S
C1444 H1436 0.950 . S
C1444 C1445 1.397 . S
C1444 C1446 1.391 . S
C1445 C1444 1.397 . S
C1445 C1449 1.382 1_556 S
C1446 H1438 0.950 . S
C1446 C1444 1.391 . S
C1446 C1447 1.403 . S
C1447 C1446 1.403 . S
C1447 C1448 1.396 1_556 S
C1447 C1453 1.490 1_556 S
C1448 H1439 0.950 . S
C1448 C1447 1.396 1_554 S
C1448 C1449 1.391 . S
C1449 H1437 0.950 . S
C1449 C1445 1.382 1_554 S
C1449 C1448 1.391 . S
C1450 H1440 0.950 . S
C1450 C1451 1.407 . S
C1450 C1452 1.391 . S
C1451 C1450 1.407 . S
C1451 C1455 1.373 1_554 S
C1452 H1441 0.950 . S
C1452 C1450 1.391 . S
C1452 C1453 1.412 . S
C1453 C1447 1.490 1_554 S
C1453 C1452 1.412 . S
C1453 C1454 1.387 1_554 S
C1454 H1442 0.950 . S
C1454 C1453 1.387 1_556 S
C1454 C1455 1.391 . S
C1455 H1443 0.950 . S
C1455 C1451 1.373 1_556 S
C1455 C1454 1.391 . S
H1456 C1464 0.950 . S
H1457 C1469 0.950 . S
H1458 C1466 0.950 . S
H1459 C1468 0.950 . S
H1460 C1470 0.950 . S
H1461 C1472 0.950 . S
H1462 C1474 0.950 . S
H1463 C1475 0.950 . S
C1464 H1456 0.950 . S
C1464 C1465 1.386 1_556 S
C1464 C1466 1.391 . S
C1465 C1464 1.386 1_554 S
C1465 C1469 1.393 . S
C1466 H1458 0.950 . S
C1466 C1464 1.391 . S
C1466 C1467 1.396 1_556 S
C1467 C1466 1.396 1_554 S
C1467 C1468 1.405 . S
C1467 C1473 1.490 1_554 S
C1468 H1459 0.950 . S
C1468 C1467 1.405 . S
C1468 C1469 1.391 . S
C1469 H1457 0.950 . S
C1469 C1465 1.393 . S
C1469 C1468 1.391 . S
C1470 H1460 0.950 . S
C1470 C1471 1.380 1_554 S
C1470 C1472 1.391 . S
C1471 C1470 1.380 1_556 S
C1471 C1475 1.400 . S
C1472 H1461 0.950 . S
C1472 C1470 1.391 . S
C1472 C1473 1.398 1_554 S
C1473 C1467 1.490 1_556 S
C1473 C1472 1.398 1_556 S
C1473 C1474 1.401 . S
C1474 H1462 0.950 . S
C1474 C1473 1.401 . S
C1474 C1475 1.391 . S
C1475 H1463 0.950 . S
C1475 C1471 1.400 . S
C1475 C1474 1.391 . S
H1476 C1484 0.950 . S
H1477 C1489 0.950 . S
H1478 C1486 0.950 . S
H1479 C1488 0.950 . S
H1480 C1490 0.950 . S
H1481 C1492 0.950 . S
H1482 C1494 0.950 . S
H1483 C1495 0.950 . S
C1484 H1476 0.950 . S
C1484 C1485 1.386 . S
C1484 C1486 1.391 . S
C1485 C1484 1.386 . S
C1485 C1489 1.393 . S
C1486 H1478 0.950 . S
C1486 C1484 1.391 . S
C1486 C1487 1.400 . S
C1487 C1486 1.400 . S
C1487 C1488 1.398 . S
C1487 C1493 1.491 . S
C1488 H1479 0.950 . S
C1488 C1487 1.398 . S
C1488 C1489 1.391 . S
C1489 H1477 0.950 . S
C1489 C1485 1.393 . S
C1489 C1488 1.391 . S
C1490 H1480 0.950 . S
C1490 C1491 1.386 . S
C1490 C1492 1.391 . S
C1491 C1490 1.386 . S
C1491 C1495 1.393 . S
C1492 H1481 0.950 . S
C1492 C1490 1.391 . S
C1492 C1493 1.400 . S
C1493 C1487 1.491 . S
C1493 C1492 1.400 . S
C1493 C1494 1.398 . S
C1494 H1482 0.950 . S
C1494 C1493 1.398 . S
C1494 C1495 1.391 . S
C1495 H1483 0.950 . S
C1495 C1491 1.393 . S
C1495 C1494 1.391 . S
H1496 C1504 0.950 . S
H1497 C1509 0.950 . S
H1498 C1506 0.950 . S
H1499 C1508 0.950 . S
H1500 C1510 0.950 . S
H1501 C1512 0.950 . S
H1502 C1514 0.950 . S
H1503 C1515 0.950 . S
C1504 H1496 0.950 . S
C1504 C1505 1.386 . S
C1504 C1506 1.391 . S
C1505 C1504 1.386 . S
C1505 C1509 1.393 . S
C1506 H1498 0.950 . S
C1506 C1504 1.391 . S
C1506 C1507 1.400 . S
C1507 C1506 1.400 . S
C1507 C1508 1.398 . S
C1507 C1513 1.491 . S
C1508 H1499 0.950 . S
C1508 C1507 1.398 . S
C1508 C1509 1.391 . S
C1509 H1497 0.950 . S
C1509 C1505 1.393 . S
C1509 C1508 1.391 . S
C1510 H1500 0.950 . S
C1510 C1511 1.386 . S
C1510 C1512 1.391 . S
C1511 C1510 1.386 . S
C1511 C1515 1.393 . S
C1512 H1501 0.950 . S
C1512 C1510 1.391 . S
C1512 C1513 1.400 . S
C1513 C1507 1.491 . S
C1513 C1512 1.400 . S
C1513 C1514 1.398 . S
C1514 H1502 0.950 . S
C1514 C1513 1.398 . S
C1514 C1515 1.391 . S
C1515 H1503 0.950 . S
C1515 C1511 1.393 . S
C1515 C1514 1.391 . S
H1516 C1524 0.950 . S
H1517 C1529 0.950 . S
H1518 C1526 0.950 . S
H1519 C1528 0.950 . S
H1520 C1530 0.950 . S
H1521 C1532 0.950 . S
H1522 C1534 0.950 . S
H1523 C1535 0.950 . S
C1524 H1516 0.950 . S
C1524 C1525 1.386 . S
C1524 C1526 1.391 . S
C1525 C1524 1.386 . S
C1525 C1529 1.393 . S
C1526 H1518 0.950 . S
C1526 C1524 1.391 . S
C1526 C1527 1.400 . S
C1527 C1526 1.400 . S
C1527 C1528 1.398 . S
C1527 C1533 1.491 . S
C1528 H1519 0.950 . S
C1528 C1527 1.398 . S
C1528 C1529 1.391 . S
C1529 H1517 0.950 . S
C1529 C1525 1.393 . S
C1529 C1528 1.391 . S
C1530 H1520 0.950 . S
C1530 C1531 1.386 . S
C1530 C1532 1.391 . S
C1531 C1530 1.386 . S
C1531 C1535 1.393 . S
C1532 H1521 0.950 . S
C1532 C1530 1.391 . S
C1532 C1533 1.400 . S
C1533 C1527 1.491 . S
C1533 C1532 1.400 . S
C1533 C1534 1.398 . S
C1534 H1522 0.950 . S
C1534 C1533 1.398 . S
C1534 C1535 1.391 . S
C1535 H1523 0.950 . S
C1535 C1531 1.393 . S
C1535 C1534 1.391 . S
H1536 C1544 0.950 . S
H1537 C1549 0.950 . S
H1538 C1546 0.950 . S
H1539 C1548 0.950 . S
H1540 C1550 0.950 . S
H1541 C1552 0.950 . S
H1542 C1554 0.950 . S
H1543 C1555 0.950 . S
C1544 H1536 0.950 . S
C1544 C1545 1.386 . S
C1544 C1546 1.391 . S
C1545 C1544 1.386 . S
C1545 C1549 1.393 . S
C1546 H1538 0.950 . S
C1546 C1544 1.391 . S
C1546 C1547 1.400 . S
C1547 C1546 1.400 . S
C1547 C1548 1.398 . S
C1547 C1553 1.491 . S
C1548 H1539 0.950 . S
C1548 C1547 1.398 . S
C1548 C1549 1.391 . S
C1549 H1537 0.950 . S
C1549 C1545 1.393 . S
C1549 C1548 1.391 . S
C1550 H1540 0.950 . S
C1550 C1551 1.386 . S
C1550 C1552 1.391 . S
C1551 C1550 1.386 . S
C1551 C1555 1.393 . S
C1552 H1541 0.950 . S
C1552 C1550 1.391 . S
C1552 C1553 1.400 . S
C1553 C1547 1.491 . S
C1553 C1552 1.400 . S
C1553 C1554 1.398 . S
C1554 H1542 0.950 . S
C1554 C1553 1.398 . S
C1554 C1555 1.391 . S
C1555 H1543 0.950 . S
C1555 C1551 1.393 . S
C1555 C1554 1.391 . S
H1556 C1564 0.950 . S
H1557 C1569 0.950 . S
H1558 C1566 0.950 . S
H1559 C1568 0.950 . S
H1560 C1570 0.950 . S
H1561 C1572 0.950 . S
H1562 C1574 0.950 . S
H1563 C1575 0.950 . S
C1564 H1556 0.950 . S
C1564 C1565 1.386 . S
C1564 C1566 1.391 . S
C1565 C1564 1.386 . S
C1565 C1569 1.393 . S
C1566 H1558 0.950 . S
C1566 C1564 1.391 . S
C1566 C1567 1.400 . S
C1567 C1566 1.400 . S
C1567 C1568 1.398 . S
C1567 C1573 1.491 . S
C1568 H1559 0.950 . S
C1568 C1567 1.398 . S
C1568 C1569 1.391 . S
C1569 H1557 0.950 . S
C1569 C1565 1.393 . S
C1569 C1568 1.391 . S
C1570 H1560 0.950 . S
C1570 C1571 1.386 . S
C1570 C1572 1.391 . S
C1571 C1570 1.386 . S
C1571 C1575 1.393 . S
C1572 H1561 0.950 . S
C1572 C1570 1.391 . S
C1572 C1573 1.400 . S
C1573 C1567 1.491 . S
C1573 C1572 1.400 . S
C1573 C1574 1.398 . S
C1574 H1562 0.950 . S
C1574 C1573 1.398 . S
C1574 C1575 1.391 . S
C1575 H1563 0.950 . S
C1575 C1571 1.393 . S
C1575 C1574 1.391 . S
H1576 C1584 0.950 . S
H1577 C1589 0.950 . S
H1578 C1586 0.950 . S
H1579 C1588 0.950 . S
H1580 C1590 0.950 . S
H1581 C1592 0.950 . S
H1582 C1594 0.950 . S
H1583 C1595 0.950 . S
C1584 H1576 0.950 . S
C1584 C1585 1.386 . S
C1584 C1586 1.391 . S
C1585 C1584 1.386 . S
C1585 C1589 1.393 . S
C1586 H1578 0.950 . S
C1586 C1584 1.391 . S
C1586 C1587 1.400 . S
C1587 C1586 1.400 . S
C1587 C1588 1.398 . S
C1587 C1593 1.491 . S
C1588 H1579 0.950 . S
C1588 C1587 1.398 . S
C1588 C1589 1.391 . S
C1589 H1577 0.950 . S
C1589 C1585 1.393 . S
C1589 C1588 1.391 . S
C1590 H1580 0.950 . S
C1590 C1591 1.386 . S
C1590 C1592 1.391 . S
C1591 C1590 1.386 . S
C1591 C1595 1.393 . S
C1592 H1581 0.950 . S
C1592 C1590 1.391 . S
C1592 C1593 1.400 . S
C1593 C1587 1.491 . S
C1593 C1592 1.400 . S
C1593 C1594 1.398 . S
C1594 H1582 0.950 . S
C1594 C1593 1.398 . S
C1594 C1595 1.391 . S
C1595 H1583 0.950 . S
C1595 C1591 1.393 . S
C1595 C1594 1.391 . S
H1596 C1604 0.950 . S
H1597 C1609 0.950 . S
H1598 C1606 0.950 . S
H1599 C1608 0.950 . S
H1600 C1610 0.950 . S
H1601 C1612 0.950 . S
H1602 C1614 0.950 . S
H1603 C1615 0.950 . S
C1604 H1596 0.950 . S
C1604 C1605 1.386 . S
C1604 C1606 1.391 . S
C1605 C1604 1.386 . S
C1605 C1609 1.393 . S
C1606 H1598 0.950 . S
C1606 C1604 1.391 . S
C1606 C1607 1.400 . S
C1607 C1606 1.400 . S
C1607 C1608 1.398 . S
C1607 C1613 1.491 . S
C1608 H1599 0.950 . S
C1608 C1607 1.398 . S
C1608 C1609 1.391 . S
C1609 H1597 0.950 . S
C1609 C1605 1.393 . S
C1609 C1608 1.391 . S
C1610 H1600 0.950 . S
C1610 C1611 1.386 . S
C1610 C1612 1.391 . S
C1611 C1610 1.386 . S
C1611 C1615 1.393 . S
C1612 H1601 0.950 . S
C1612 C1610 1.391 . S
C1612 C1613 1.400 . S
C1613 C1607 1.491 . S
C1613 C1612 1.400 . S
C1613 C1614 1.398 . S
C1614 H1602 0.950 . S
C1614 C1613 1.398 . S
C1614 C1615 1.391 . S
C1615 H1603 0.950 . S
C1615 C1611 1.393 . S
C1615 C1614 1.391 . S
H1616 C1624 0.950 . S
H1617 C1629 0.950 . S
H1618 C1626 0.950 . S
H1619 C1628 0.950 . S
H1620 C1630 0.950 . S
H1621 C1632 0.950 . S
H1622 C1634 0.950 . S
H1623 C1635 0.950 . S
C1624 H1616 0.950 . S
C1624 C1625 1.386 . S
C1624 C1626 1.391 . S
C1625 C1624 1.386 . S
C1625 C1629 1.393 . S
C1626 H1618 0.950 . S
C1626 C1624 1.391 . S
C1626 C1627 1.400 . S
C1627 C1626 1.400 . S
C1627 C1628 1.398 . S
C1627 C1633 1.491 . S
C1628 H1619 0.950 . S
C1628 C1627 1.398 . S
C1628 C1629 1.391 . S
C1629 H1617 0.950 . S
C1629 C1625 1.393 . S
C1629 C1628 1.391 . S
C1630 H1620 0.950 . S
C1630 C1631 1.386 . S
C1630 C1632 1.391 . S
C1631 C1630 1.386 . S
C1631 C1635 1.393 . S
C1632 H1621 0.950 . S
C1632 C1630 1.391 . S
C1632 C1633 1.400 . S
C1633 C1627 1.491 . S
C1633 C1632 1.400 . S
C1633 C1634 1.398 . S
C1634 H1622 0.950 . S
C1634 C1633 1.398 . S
C1634 C1635 1.391 . S
C1635 H1623 0.950 . S
C1635 C1631 1.393 . S
C1635 C1634 1.391 . S
H1636 C1644 0.950 . S
H1637 C1649 0.950 . S
H1638 C1646 0.950 . S
H1639 C1648 0.950 . S
H1640 C1650 0.950 . S
H1641 C1652 0.950 . S
H1642 C1654 0.950 . S
H1643 C1655 0.950 . S
C1644 H1636 0.950 . S
C1644 C1645 1.386 . S
C1644 C1646 1.391 . S
C1645 C1644 1.386 . S
C1645 C1649 1.393 . S
C1646 H1638 0.950 . S
C1646 C1644 1.391 . S
C1646 C1647 1.400 . S
C1647 C1646 1.400 . S
C1647 C1648 1.398 . S
C1647 C1653 1.491 . S
C1648 H1639 0.950 . S
C1648 C1647 1.398 . S
C1648 C1649 1.391 . S
C1649 H1637 0.950 . S
C1649 C1645 1.393 . S
C1649 C1648 1.391 . S
C1650 H1640 0.950 . S
C1650 C1651 1.386 . S
C1650 C1652 1.391 . S
C1651 C1650 1.386 . S
C1651 C1655 1.393 . S
C1652 H1641 0.950 . S
C1652 C1650 1.391 . S
C1652 C1653 1.400 . S
C1653 C1647 1.491 . S
C1653 C1652 1.400 . S
C1653 C1654 1.398 . S
C1654 H1642 0.950 . S
C1654 C1653 1.398 . S
C1654 C1655 1.391 . S
C1655 H1643 0.950 . S
C1655 C1651 1.393 . S
C1655 C1654 1.391 . S
H1656 C1664 0.950 . S
H1657 C1669 0.950 . S
H1658 C1666 0.950 . S
H1659 C1668 0.950 . S
H1660 C1670 0.950 . S
H1661 C1672 0.950 . S
H1662 C1674 0.950 . S
H1663 C1675 0.950 . S
C1664 H1656 0.950 . S
C1664 C1665 1.386 . S
C1664 C1666 1.391 . S
C1665 C1664 1.386 . S
C1665 C1669 1.393 . S
C1666 H1658 0.950 . S
C1666 C1664 1.391 . S
C1666 C1667 1.400 . S
C1667 C1666 1.400 . S
C1667 C1668 1.398 . S
C1667 C1673 1.491 . S
C1668 H1659 0.950 . S
C1668 C1667 1.398 . S
C1668 C1669 1.391 . S
C1669 H1657 0.950 . S
C1669 C1665 1.393 . S
C1669 C1668 1.391 . S
C1670 H1660 0.950 . S
C1670 C1671 1.386 . S
C1670 C1672 1.391 . S
C1671 C1670 1.386 . S
C1671 C1675 1.393 . S
C1672 H1661 0.950 . S
C1672 C1670 1.391 . S
C1672 C1673 1.400 . S
C1673 C1667 1.491 . S
C1673 C1672 1.400 . S
C1673 C1674 1.398 . S
C1674 H1662 0.950 . S
C1674 C1673 1.398 . S
C1674 C1675 1.391 . S
C1675 H1663 0.950 . S
C1675 C1671 1.393 . S
C1675 C1674 1.391 . S
H1676 C1684 0.950 . S
H1677 C1689 0.950 . S
H1678 C1686 0.950 . S
H1679 C1688 0.950 . S
H1680 C1690 0.950 . S
H1681 C1692 0.950 . S
H1682 C1694 0.950 . S
H1683 C1695 0.950 . S
C1684 H1676 0.950 . S
C1684 C1685 1.386 . S
C1684 C1686 1.391 . S
C1685 C1684 1.386 . S
C1685 C1689 1.393 . S
C1686 H1678 0.950 . S
C1686 C1684 1.391 . S
C1686 C1687 1.400 . S
C1687 C1686 1.400 . S
C1687 C1688 1.398 . S
C1687 C1693 1.491 . S
C1688 H1679 0.950 . S
C1688 C1687 1.398 . S
C1688 C1689 1.391 . S
C1689 H1677 0.950 . S
C1689 C1685 1.393 . S
C1689 C1688 1.391 . S
C1690 H1680 0.950 . S
C1690 C1691 1.386 . S
C1690 C1692 1.391 . S
C1691 C1690 1.386 . S
C1691 C1695 1.393 . S
C1692 H1681 0.950 . S
C1692 C1690 1.391 . S
C1692 C1693 1.400 . S
C1693 C1687 1.491 . S
C1693 C1692 1.400 . S
C1693 C1694 1.398 . S
C1694 H1682 0.950 . S
C1694 C1693 1.398 . S
C1694 C1695 1.391 . S
C1695 H1683 0.950 . S
C1695 C1691 1.393 . S
C1695 C1694 1.391 . S
H1696 C1704 0.950 . S
H1697 C1709 0.950 . S
H1698 C1706 0.950 . S
H1699 C1708 0.950 . S
H1700 C1710 0.950 . S
H1701 C1712 0.950 . S
H1702 C1714 0.950 . S
H1703 C1715 0.950 . S
C1704 H1696 0.950 . S
C1704 C1705 1.386 . S
C1704 C1706 1.391 . S
C1705 C1704 1.386 . S
C1705 C1709 1.393 . S
C1706 H1698 0.950 . S
C1706 C1704 1.391 . S
C1706 C1707 1.400 . S
C1707 C1706 1.400 . S
C1707 C1708 1.398 . S
C1707 C1713 1.491 . S
C1708 H1699 0.950 . S
C1708 C1707 1.398 . S
C1708 C1709 1.391 . S
C1709 H1697 0.950 . S
C1709 C1705 1.393 . S
C1709 C1708 1.391 . S
C1710 H1700 0.950 . S
C1710 C1711 1.386 . S
C1710 C1712 1.391 . S
C1711 C1710 1.386 . S
C1711 C1715 1.393 . S
C1712 H1701 0.950 . S
C1712 C1710 1.391 . S
C1712 C1713 1.400 . S
C1713 C1707 1.491 . S
C1713 C1712 1.400 . S
C1713 C1714 1.398 . S
C1714 H1702 0.950 . S
C1714 C1713 1.398 . S
C1714 C1715 1.391 . S
C1715 H1703 0.950 . S
C1715 C1711 1.393 . S
C1715 C1714 1.391 . S
H1716 C1724 0.950 . S
H1717 C1729 0.950 . S
H1718 C1726 0.950 . S
H1719 C1728 0.950 . S
H1720 C1730 0.950 . S
H1721 C1732 0.950 . S
H1722 C1734 0.950 . S
H1723 C1735 0.950 . S
C1724 H1716 0.950 . S
C1724 C1725 1.386 . S
C1724 C1726 1.391 . S
C1725 C1724 1.386 . S
C1725 C1729 1.393 . S
C1726 H1718 0.950 . S
C1726 C1724 1.391 . S
C1726 C1727 1.400 . S
C1727 C1726 1.400 . S
C1727 C1728 1.398 . S
C1727 C1733 1.491 . S
C1728 H1719 0.950 . S
C1728 C1727 1.398 . S
C1728 C1729 1.391 . S
C1729 H1717 0.950 . S
C1729 C1725 1.393 . S
C1729 C1728 1.391 . S
C1730 H1720 0.950 . S
C1730 C1731 1.386 . S
C1730 C1732 1.391 . S
C1731 C1730 1.386 . S
C1731 C1735 1.393 . S
C1732 H1721 0.950 . S
C1732 C1730 1.391 . S
C1732 C1733 1.400 . S
C1733 C1727 1.491 . S
C1733 C1732 1.400 . S
C1733 C1734 1.398 . S
C1734 H1722 0.950 . S
C1734 C1733 1.398 . S
C1734 C1735 1.391 . S
C1735 H1723 0.950 . S
C1735 C1731 1.393 . S
C1735 C1734 1.391 . S
H1736 C1744 0.950 . S
H1737 C1749 0.950 . S
H1738 C1746 0.950 . S
H1739 C1748 0.950 . S
H1740 C1750 0.950 . S
H1741 C1752 0.950 . S
H1742 C1754 0.950 . S
H1743 C1755 0.950 . S
C1744 H1736 0.950 . S
C1744 C1745 1.386 . S
C1744 C1746 1.391 . S
C1745 C1744 1.386 . S
C1745 C1749 1.393 . S
C1746 H1738 0.950 . S
C1746 C1744 1.391 . S
C1746 C1747 1.400 . S
C1747 C1746 1.400 . S
C1747 C1748 1.398 . S
C1747 C1753 1.491 . S
C1748 H1739 0.950 . S
C1748 C1747 1.398 . S
C1748 C1749 1.391 . S
C1749 H1737 0.950 . S
C1749 C1745 1.393 . S
C1749 C1748 1.391 . S
C1750 H1740 0.950 . S
C1750 C1751 1.386 . S
C1750 C1752 1.391 . S
C1751 C1750 1.386 . S
C1751 C1755 1.393 . S
C1752 H1741 0.950 . S
C1752 C1750 1.391 . S
C1752 C1753 1.400 . S
C1753 C1747 1.491 . S
C1753 C1752 1.400 . S
C1753 C1754 1.398 . S
C1754 H1742 0.950 . S
C1754 C1753 1.398 . S
C1754 C1755 1.391 . S
C1755 H1743 0.950 . S
C1755 C1751 1.393 . S
C1755 C1754 1.391 . S
H1756 C1764 0.950 . S
H1757 C1769 0.950 . S
H1758 C1766 0.950 . S
H1759 C1768 0.950 . S
H1760 C1770 0.950 . S
H1761 C1772 0.950 . S
H1762 C1774 0.950 . S
H1763 C1775 0.950 . S
C1764 H1756 0.950 . S
C1764 C1765 1.386 . S
C1764 C1766 1.391 . S
C1765 C1764 1.386 . S
C1765 C1769 1.393 . S
C1766 H1758 0.950 . S
C1766 C1764 1.391 . S
C1766 C1767 1.400 . S
C1767 C1766 1.400 . S
C1767 C1768 1.398 . S
C1767 C1773 1.491 . S
C1768 H1759 0.950 . S
C1768 C1767 1.398 . S
C1768 C1769 1.391 . S
C1769 H1757 0.950 . S
C1769 C1765 1.393 . S
C1769 C1768 1.391 . S
C1770 H1760 0.950 . S
C1770 C1771 1.386 . S
C1770 C1772 1.391 . S
C1771 C1770 1.386 . S
C1771 C1775 1.393 . S
C1772 H1761 0.950 . S
C1772 C1770 1.391 . S
C1772 C1773 1.400 . S
C1773 C1767 1.491 . S
C1773 C1772 1.400 . S
C1773 C1774 1.398 . S
C1774 H1762 0.950 . S
C1774 C1773 1.398 . S
C1774 C1775 1.391 . S
C1775 H1763 0.950 . S
C1775 C1771 1.393 . S
C1775 C1774 1.391 . S
H1776 C1784 0.950 . S
H1777 C1789 0.950 . S
H1778 C1786 0.950 . S
H1779 C1788 0.950 . S
H1780 C1790 0.950 . S
H1781 C1792 0.950 . S
H1782 C1794 0.950 . S
H1783 C1795 0.950 . S
C1784 H1776 0.950 . S
C1784 C1785 1.386 . S
C1784 C1786 1.391 . S
C1785 C1784 1.386 . S
C1785 C1789 1.393 . S
C1786 H1778 0.950 . S
C1786 C1784 1.391 . S
C1786 C1787 1.400 . S
C1787 C1786 1.400 . S
C1787 C1788 1.398 . S
C1787 C1793 1.491 . S
C1788 H1779 0.950 . S
C1788 C1787 1.398 . S
C1788 C1789 1.391 . S
C1789 H1777 0.950 . S
C1789 C1785 1.393 . S
C1789 C1788 1.391 . S
C1790 H1780 0.950 . S
C1790 C1791 1.386 . S
C1790 C1792 1.391 . S
C1791 C1790 1.386 . S
C1791 C1795 1.393 . S
C1792 H1781 0.950 . S
C1792 C1790 1.391 . S
C1792 C1793 1.400 . S
C1793 C1787 1.491 . S
C1793 C1792 1.400 . S
C1793 C1794 1.398 . S
C1794 H1782 0.950 . S
C1794 C1793 1.398 . S
C1794 C1795 1.391 . S
C1795 H1783 0.950 . S
C1795 C1791 1.393 . S
C1795 C1794 1.391 . S
H1796 C1804 0.950 . S
H1797 C1809 0.950 . S
H1798 C1806 0.950 . S
H1799 C1808 0.950 . S
H1800 C1810 0.950 . S
H1801 C1812 0.950 . S
H1802 C1814 0.950 . S
H1803 C1815 0.950 . S
C1804 H1796 0.950 . S
C1804 C1805 1.386 . S
C1804 C1806 1.391 . S
C1805 C1804 1.386 . S
C1805 C1809 1.393 . S
C1806 H1798 0.950 . S
C1806 C1804 1.391 . S
C1806 C1807 1.400 . S
C1807 C1806 1.400 . S
C1807 C1808 1.398 . S
C1807 C1813 1.491 . S
C1808 H1799 0.950 . S
C1808 C1807 1.398 . S
C1808 C1809 1.391 . S
C1809 H1797 0.950 . S
C1809 C1805 1.393 . S
C1809 C1808 1.391 . S
C1810 H1800 0.950 . S
C1810 C1811 1.386 . S
C1810 C1812 1.391 . S
C1811 C1810 1.386 . S
C1811 C1815 1.393 . S
C1812 H1801 0.950 . S
C1812 C1810 1.391 . S
C1812 C1813 1.400 . S
C1813 C1807 1.491 . S
C1813 C1812 1.400 . S
C1813 C1814 1.398 . S
C1814 H1802 0.950 . S
C1814 C1813 1.398 . S
C1814 C1815 1.391 . S
C1815 H1803 0.950 . S
C1815 C1811 1.393 . S
C1815 C1814 1.391 . S
H1816 C1824 0.950 . S
H1817 C1829 0.950 . S
H1818 C1826 0.950 . S
H1819 C1828 0.950 . S
H1820 C1830 0.950 . S
H1821 C1832 0.950 . S
H1822 C1834 0.950 . S
H1823 C1835 0.950 . S
C1824 H1816 0.950 . S
C1824 C1825 1.386 . S
C1824 C1826 1.391 . S
C1825 C1824 1.386 . S
C1825 C1829 1.393 . S
C1826 H1818 0.950 . S
C1826 C1824 1.391 . S
C1826 C1827 1.400 . S
C1827 C1826 1.400 . S
C1827 C1828 1.398 . S
C1827 C1833 1.491 . S
C1828 H1819 0.950 . S
C1828 C1827 1.398 . S
C1828 C1829 1.391 . S
C1829 H1817 0.950 . S
C1829 C1825 1.393 . S
C1829 C1828 1.391 . S
C1830 H1820 0.950 . S
C1830 C1831 1.386 . S
C1830 C1832 1.391 . S
C1831 C1830 1.386 . S
C1831 C1835 1.393 . S
C1832 H1821 0.950 . S
C1832 C1830 1.391 . S
C1832 C1833 1.400 . S
C1833 C1827 1.491 . S
C1833 C1832 1.400 . S
C1833 C1834 1.398 . S
C1834 H1822 0.950 . S
C1834 C1833 1.398 . S
C1834 C1835 1.391 . S
C1835 H1823 0.950 . S
C1835 C1831 1.393 . S
C1835 C1834 1.391 . S
H1836 C1844 0.950 . S
H1837 C1849 0.950 . S
H1838 C1846 0.950 . S
H1839 C1848 0.950 . S
H1840 C1850 0.950 . S
H1841 C1852 0.950 . S
H1842 C1854 0.950 . S
H1843 C1855 0.950 . S
C1844 H1836 0.950 . S
C1844 C1845 1.386 . S
C1844 C1846 1.391 . S
C1845 C1844 1.386 . S
C1845 C1849 1.393 . S
C1846 H1838 0.950 . S
C1846 C1844 1.391 . S
C1846 C1847 1.400 . S
C1847 C1846 1.400 . S
C1847 C1848 1.398 . S
C1847 C1853 1.491 . S
C1848 H1839 0.950 . S
C1848 C1847 1.398 . S
C1848 C1849 1.391 . S
C1849 H1837 0.950 . S
C1849 C1845 1.393 . S
C1849 C1848 1.391 . S
C1850 H1840 0.950 . S
C1850 C1851 1.386 . S
C1850 C1852 1.391 . S
C1851 C1850 1.386 . S
C1851 C1855 1.393 . S
C1852 H1841 0.950 . S
C1852 C1850 1.391 . S
C1852 C1853 1.400 . S
C1853 C1847 1.491 . S
C1853 C1852 1.400 . S
C1853 C1854 1.398 . S
C1854 H1842 0.950 . S
C1854 C1853 1.398 . S
C1854 C1855 1.391 . S
C1855 H1843 0.950 . S
C1855 C1851 1.393 . S
C1855 C1854 1.391 . S
H1856 C1864 0.950 . S
H1857 C1869 0.950 . S
H1858 C1866 0.950 . S
H1859 C1868 0.950 . S
H1860 C1870 0.950 . S
H1861 C1872 0.950 . S
H1862 C1874 0.950 . S
H1863 C1875 0.950 . S
C1864 H1856 0.950 . S
C1864 C1865 1.386 . S
C1864 C1866 1.391 . S
C1865 C1864 1.386 . S
C1865 C1869 1.393 . S
C1866 H1858 0.950 . S
C1866 C1864 1.391 . S
C1866 C1867 1.400 . S
C1867 C1866 1.400 . S
C1867 C1868 1.398 . S
C1867 C1873 1.491 . S
C1868 H1859 0.950 . S
C1868 C1867 1.398 . S
C1868 C1869 1.391 . S
C1869 H1857 0.950 . S
C1869 C1865 1.393 . S
C1869 C1868 1.391 . S
C1870 H1860 0.950 . S
C1870 C1871 1.386 . S
C1870 C1872 1.391 . S
C1871 C1870 1.386 . S
C1871 C1875 1.393 . S
C1872 H1861 0.950 . S
C1872 C1870 1.391 . S
C1872 C1873 1.400 . S
C1873 C1867 1.491 . S
C1873 C1872 1.400 . S
C1873 C1874 1.398 . S
C1874 H1862 0.950 . S
C1874 C1873 1.398 . S
C1874 C1875 1.391 . S
C1875 H1863 0.950 . S
C1875 C1871 1.393 . S
C1875 C1874 1.391 . S
H1876 C1884 0.950 . S
H1877 C1889 0.950 . S
H1878 C1886 0.950 . S
H1879 C1888 0.950 . S
H1880 C1890 0.950 . S
H1881 C1892 0.950 . S
H1882 C1894 0.950 . S
H1883 C1895 0.950 . S
C1884 H1876 0.950 . S
C1884 C1885 1.386 . S
C1884 C1886 1.391 . S
C1885 C1884 1.386 . S
C1885 C1889 1.393 . S
C1886 H1878 0.950 . S
C1886 C1884 1.391 . S
C1886 C1887 1.400 . S
C1887 C1886 1.400 . S
C1887 C1888 1.398 . S
C1887 C1893 1.491 . S
C1888 H1879 0.950 . S
C1888 C1887 1.398 . S
C1888 C1889 1.391 . S
C1889 H1877 0.950 . S
C1889 C1885 1.393 . S
C1889 C1888 1.391 . S
C1890 H1880 0.950 . S
C1890 C1891 1.386 . S
C1890 C1892 1.391 . S
C1891 C1890 1.386 . S
C1891 C1895 1.393 . S
C1892 H1881 0.950 . S
C1892 C1890 1.391 . S
C1892 C1893 1.400 . S
C1893 C1887 1.491 . S
C1893 C1892 1.400 . S
C1893 C1894 1.398 . S
C1894 H1882 0.950 . S
C1894 C1893 1.398 . S
C1894 C1895 1.391 . S
C1895 H1883 0.950 . S
C1895 C1891 1.393 . S
C1895 C1894 1.391 . S
H1896 C1904 0.950 . S
H1897 C1909 0.950 . S
H1898 C1906 0.950 . S
H1899 C1908 0.950 . S
H1900 C1910 0.950 . S
H1901 C1912 0.950 . S
H1902 C1914 0.950 . S
H1903 C1915 0.950 . S
C1904 H1896 0.950 . S
C1904 C1905 1.386 . S
C1904 C1906 1.391 . S
C1905 C1904 1.386 . S
C1905 C1909 1.393 . S
C1906 H1898 0.950 . S
C1906 C1904 1.391 . S
C1906 C1907 1.400 . S
C1907 C1906 1.400 . S
C1907 C1908 1.398 . S
C1907 C1913 1.491 . S
C1908 H1899 0.950 . S
C1908 C1907 1.398 . S
C1908 C1909 1.391 . S
C1909 H1897 0.950 . S
C1909 C1905 1.393 . S
C1909 C1908 1.391 . S
C1910 H1900 0.950 . S
C1910 C1911 1.386 . S
C1910 C1912 1.391 . S
C1911 C1910 1.386 . S
C1911 C1915 1.393 . S
C1912 H1901 0.950 . S
C1912 C1910 1.391 . S
C1912 C1913 1.400 . S
C1913 C1907 1.491 . S
C1913 C1912 1.400 . S
C1913 C1914 1.398 . S
C1914 H1902 0.950 . S
C1914 C1913 1.398 . S
C1914 C1915 1.391 . S
C1915 H1903 0.950 . S
C1915 C1911 1.393 . S
C1915 C1914 1.391 . S
H1916 C1924 0.950 . S
H1917 C1929 0.950 . S
H1918 C1926 0.950 . S
H1919 C1928 0.950 . S
H1920 C1930 0.950 . S
H1921 C1932 0.950 . S
H1922 C1934 0.950 . S
H1923 C1935 0.950 . S
C1924 H1916 0.950 . S
C1924 C1925 1.386 . S
C1924 C1926 1.391 . S
C1925 C1924 1.386 . S
C1925 C1929 1.393 . S
C1926 H1918 0.950 . S
C1926 C1924 1.391 . S
C1926 C1927 1.400 . S
C1927 C1926 1.400 . S
C1927 C1928 1.398 . S
C1927 C1933 1.491 . S
C1928 H1919 0.950 . S
C1928 C1927 1.398 . S
C1928 C1929 1.391 . S
C1929 H1917 0.950 . S
C1929 C1925 1.393 . S
C1929 C1928 1.391 . S
C1930 H1920 0.950 . S
C1930 C1931 1.386 . S
C1930 C1932 1.391 . S
C1931 C1930 1.386 . S
C1931 C1935 1.393 . S
C1932 H1921 0.950 . S
C1932 C1930 1.391 . S
C1932 C1933 1.400 . S
C1933 C1927 1.491 . S
C1933 C1932 1.400 . S
C1933 C1934 1.398 . S
C1934 H1922 0.950 . S
C1934 C1933 1.398 . S
C1934 C1935 1.391 . S
C1935 H1923 0.950 . S
C1935 C1931 1.393 . S
C1935 C1934 1.391 . S
H1936 C1944 0.950 . S
H1937 C1949 0.950 . S
H1938 C1946 0.950 . S
H1939 C1948 0.950 . S
H1940 C1950 0.950 . S
H1941 C1952 0.950 . S
H1942 C1954 0.950 . S
H1943 C1955 0.950 . S
C1944 H1936 0.950 . S
C1944 C1945 1.386 . S
C1944 C1946 1.391 . S
C1945 C1944 1.386 . S
C1945 C1949 1.393 . S
C1946 H1938 0.950 . S
C1946 C1944 1.391 . S
C1946 C1947 1.400 . S
C1947 C1946 1.400 . S
C1947 C1948 1.398 . S
C1947 C1953 1.491 . S
C1948 H1939 0.950 . S
C1948 C1947 1.398 . S
C1948 C1949 1.391 . S
C1949 H1937 0.950 . S
C1949 C1945 1.393 . S
C1949 C1948 1.391 . S
C1950 H1940 0.950 . S
C1950 C1951 1.386 . S
C1950 C1952 1.391 . S
C1951 C1950 1.386 . S
C1951 C1955 1.393 . S
C1952 H1941 0.950 . S
C1952 C1950 1.391 . S
C1952 C1953 1.400 . S
C1953 C1947 1.491 . S
C1953 C1952 1.400 . S
C1953 C1954 1.398 . S
C1954 H1942 0.950 . S
C1954 C1953 1.398 . S
C1954 C1955 1.391 . S
C1955 H1943 0.950 . S
C1955 C1951 1.393 . S
C1955 C1954 1.391 . S
C531 C222 1.124 . S
C525 C212 1.125 . S
C545 C194 1.127 . S
C551 C220 1.127 . S
C571 C221 1.127 . S
C565 C185 1.127 . S
C585 C203 1.123 . S
C591 C223 1.124 . S
C611 C267 1.127 . S
C605 C149 1.126 . S
C631 C327 1.127 . S
C625 C158 1.125 . S
C645 C167 1.123 . S
C651 C266 1.124 . S
C671 C326 1.130 . S
C665 C176 1.128 . S
C685 C113 1.122 . S
C691 C268 1.123 . S
C711 C324 1.127 . S
C705 C122 1.128 . S
C725 C131 1.126 . S
C731 C269 1.127 . S
C745 C140 1.123 . S
C751 C325 1.125 . S
C771 C375 1.122 . S
C765 C104 1.123 . S
C785 C86 1.125 . S
C791 C374 1.125 . S
C805 C77 1.129 . S
C811 C376 1.129 . S
C831 C377 1.126 1_556 S
C825 C95 1.125 1_554 S
C845 C41 1.122 . S
C851 C418 1.124 . S
C865 C50 1.125 1_545 S
C871 C477 1.125 1_565 S
C885 C59 1.124 1_455 S
C891 C416 1.124 . S
C905 C68 1.128 1_545 S
C911 C476 1.128 1_565 S
C931 C417 1.127 . S
C925 C5 1.126 1_455 S
C951 C474 1.129 . S
C945 C14 1.127 1_565 S
C965 C23 1.127 1_655 S
C971 C419 1.127 . S
C991 C475 1.125 . S
C985 C32 1.124 1_565 S
C1011 C219 1.556 . S
C1005 C4 1.508 1_655 S
C1025 C16 1.495 1_565 S
C1031 C225 1.554 . S
C1045 C22 1.510 . S
C1051 C217 1.557 . S
C1065 C31 1.509 . S
C1071 C224 1.559 1_565 S
C1085 C40 1.507 . S
C1091 C216 1.556 1_655 S
C1111 C226 1.560 . S
C1105 C49 1.510 1_565 S
C1125 C61 1.465 1_455 S
C1131 C218 1.546 . S
C1151 C227 1.552 1_565 S
C1145 C70 1.476 1_545 S
C1171 C273 1.552 1_565 S
C1165 C34 1.496 . S
C1185 C7 1.492 1_455 S
C1191 C316 1.551 1_655 S
C1211 C271 1.560 . S
C1205 C13 1.493 1_565 S
C1231 C318 1.552 . S
C1225 C25 1.494 1_655 S
C1245 C52 1.492 1_545 S
C1251 C272 1.551 1_565 S
C1271 C317 1.555 . S
C1265 C58 1.486 1_655 S
C1291 C270 1.561 . S
C1285 C67 1.508 1_565 S
C1311 C319 1.549 . S
C1305 C43 1.492 . S
C1331 C323 1.560 1_556 S
C1325 C76 1.489 1_554 S
C1345 C88 1.493 1_554 S
C1351 C322 1.553 1_556 S
C1371 C274 1.548 1_556 S
C1365 C79 1.480 1_554 S
C1391 C321 1.550 . S
C1385 C97 1.483 . S
C1405 C103 1.485 1_556 S
C1411 C277 1.553 . S
C1425 C106 1.467 . S
C1431 C320 1.547 1_556 S
C1451 C276 1.554 . S
C1445 C85 1.503 . S
C1471 C275 1.556 1_556 S
C1465 C94 1.499 1_554 S
C1491 C369 1.552 . S
C1485 C112 1.481 . S
C1511 C372 1.552 . S
C1505 C124 1.476 . S
C1525 C133 1.470 . S
C1531 C368 1.549 . S
C1551 C370 1.560 . S
C1545 C139 1.509 . S
C1571 C366 1.556 . S
C1565 C148 1.492 . S
C1585 C157 1.495 . S
C1591 C371 1.559 . S
C1605 C169 1.492 . S
C1611 C367 1.547 . S
C1631 C373 1.552 . S
C1625 C178 1.474 . S
C1651 C427 1.548 . S
C1645 C142 1.475 . S
C1665 C115 1.480 . S
C1671 C466 1.549 . S
C1691 C426 1.558 . S
C1685 C121 1.492 . S
C1711 C468 1.556 . S
C1705 C130 1.491 . S
C1731 C425 1.552 . S
C1725 C160 1.476 . S
C1745 C166 1.508 . S
C1751 C467 1.558 . S
C1771 C424 1.562 . S
C1765 C175 1.495 . S
C1791 C469 1.551 . S
C1785 C151 1.495 . S
C1811 C473 1.560 . S
C1805 C184 1.495 . S
C1825 C196 1.495 . S
C1831 C472 1.553 . S
C1851 C420 1.549 . S
C1845 C187 1.492 . S
C1865 C205 1.468 . S
C1871 C471 1.548 . S
C1891 C423 1.557 . S
C1885 C211 1.497 . S
C1911 C470 1.549 . S
C1905 C214 1.493 . S
C1931 C421 1.557 . S
C1925 C193 1.502 . S
C1945 C202 1.487 . S
C1951 C422 1.555 . S
