# Generated by pormake.
# Topology ctn, (3,4)-cn, num edge types: 1
# Building blocks:
#     Node 0, Type 0, BuildingBlock: QEWDON_clean_linker_0, # of connection points: 3
#     Node 1, Type 0, BuildingBlock: QEWDON_clean_linker_0, # of connection points: 3
#     Node 2, Type 0, BuildingBlock: QEWDON_clean_linker_0, # of connection points: 3
#     Node 3, Type 0, BuildingBlock: QEWDON_clean_linker_0, # of connection points: 3
#     Node 4, Type 0, BuildingBlock: QEWDON_clean_linker_0, # of connection points: 3
#     Node 5, Type 0, BuildingBlock: QEWDON_clean_linker_0, # of connection points: 3
#     Node 6, Type 0, BuildingBlock: QEWDON_clean_linker_0, # of connection points: 3
#     Node 7, Type 0, BuildingBlock: QEWDON_clean_linker_0, # of connection points: 3
#     Node 8, Type 0, BuildingBlock: QEWDON_clean_linker_0, # of connection points: 3
#     Node 9, Type 0, BuildingBlock: QEWDON_clean_linker_0, # of connection points: 3
#     Node 10, Type 0, BuildingBlock: QEWDON_clean_linker_0, # of connection points: 3
#     Node 11, Type 0, BuildingBlock: QEWDON_clean_linker_0, # of connection points: 3
#     Node 12, Type 0, BuildingBlock: QEWDON_clean_linker_0, # of connection points: 3
#     Node 13, Type 0, BuildingBlock: QEWDON_clean_linker_0, # of connection points: 3
#     Node 14, Type 0, BuildingBlock: QEWDON_clean_linker_0, # of connection points: 3
#     Node 15, Type 0, BuildingBlock: QEWDON_clean_linker_0, # of connection points: 3
#     Node 16, Type 1, BuildingBlock: AZAVOO_clean_sbu_0, # of connection points: 4
#     Node 17, Type 1, BuildingBlock: AZAVOO_clean_sbu_0, # of connection points: 4
#     Node 18, Type 1, BuildingBlock: AZAVOO_clean_sbu_0, # of connection points: 4
#     Node 19, Type 1, BuildingBlock: AZAVOO_clean_sbu_0, # of connection points: 4
#     Node 20, Type 1, BuildingBlock: AZAVOO_clean_sbu_0, # of connection points: 4
#     Node 21, Type 1, BuildingBlock: AZAVOO_clean_sbu_0, # of connection points: 4
#     Node 22, Type 1, BuildingBlock: AZAVOO_clean_sbu_0, # of connection points: 4
#     Node 23, Type 1, BuildingBlock: AZAVOO_clean_sbu_0, # of connection points: 4
#     Node 24, Type 1, BuildingBlock: AZAVOO_clean_sbu_0, # of connection points: 4
#     Node 25, Type 1, BuildingBlock: AZAVOO_clean_sbu_0, # of connection points: 4
#     Node 26, Type 1, BuildingBlock: AZAVOO_clean_sbu_0, # of connection points: 4
#     Node 27, Type 1, BuildingBlock: AZAVOO_clean_sbu_0, # of connection points: 4
#     Edge 28, Type (0, 1), BuildingBlock: TEMPAE_clean_linker_10, # of connection points: 2
#     Edge 29, Type (0, 1), BuildingBlock: TEMPAE_clean_linker_10, # of connection points: 2
#     Edge 30, Type (0, 1), BuildingBlock: TEMPAE_clean_linker_10, # of connection points: 2
#     Edge 31, Type (0, 1), BuildingBlock: TEMPAE_clean_linker_10, # of connection points: 2
#     Edge 32, Type (0, 1), BuildingBlock: TEMPAE_clean_linker_10, # of connection points: 2
#     Edge 33, Type (0, 1), BuildingBlock: TEMPAE_clean_linker_10, # of connection points: 2
#     Edge 34, Type (0, 1), BuildingBlock: TEMPAE_clean_linker_10, # of connection points: 2
#     Edge 35, Type (0, 1), BuildingBlock: TEMPAE_clean_linker_10, # of connection points: 2
#     Edge 36, Type (0, 1), BuildingBlock: TEMPAE_clean_linker_10, # of connection points: 2
#     Edge 37, Type (0, 1), BuildingBlock: TEMPAE_clean_linker_10, # of connection points: 2
#     Edge 38, Type (0, 1), BuildingBlock: TEMPAE_clean_linker_10, # of connection points: 2
#     Edge 39, Type (0, 1), BuildingBlock: TEMPAE_clean_linker_10, # of connection points: 2
#     Edge 40, Type (0, 1), BuildingBlock: TEMPAE_clean_linker_10, # of connection points: 2
#     Edge 41, Type (0, 1), BuildingBlock: TEMPAE_clean_linker_10, # of connection points: 2
#     Edge 42, Type (0, 1), BuildingBlock: TEMPAE_clean_linker_10, # of connection points: 2
#     Edge 43, Type (0, 1), BuildingBlock: TEMPAE_clean_linker_10, # of connection points: 2
#     Edge 44, Type (0, 1), BuildingBlock: TEMPAE_clean_linker_10, # of connection points: 2
#     Edge 45, Type (0, 1), BuildingBlock: TEMPAE_clean_linker_10, # of connection points: 2
#     Edge 46, Type (0, 1), BuildingBlock: TEMPAE_clean_linker_10, # of connection points: 2
#     Edge 47, Type (0, 1), BuildingBlock: TEMPAE_clean_linker_10, # of connection points: 2
#     Edge 48, Type (0, 1), BuildingBlock: TEMPAE_clean_linker_10, # of connection points: 2
#     Edge 49, Type (0, 1), BuildingBlock: TEMPAE_clean_linker_10, # of connection points: 2
#     Edge 50, Type (0, 1), BuildingBlock: TEMPAE_clean_linker_10, # of connection points: 2
#     Edge 51, Type (0, 1), BuildingBlock: TEMPAE_clean_linker_10, # of connection points: 2
#     Edge 52, Type (0, 1), BuildingBlock: TEMPAE_clean_linker_10, # of connection points: 2
#     Edge 53, Type (0, 1), BuildingBlock: TEMPAE_clean_linker_10, # of connection points: 2
#     Edge 54, Type (0, 1), BuildingBlock: TEMPAE_clean_linker_10, # of connection points: 2
#     Edge 55, Type (0, 1), BuildingBlock: TEMPAE_clean_linker_10, # of connection points: 2
#     Edge 56, Type (0, 1), BuildingBlock: TEMPAE_clean_linker_10, # of connection points: 2
#     Edge 57, Type (0, 1), BuildingBlock: TEMPAE_clean_linker_10, # of connection points: 2
#     Edge 58, Type (0, 1), BuildingBlock: TEMPAE_clean_linker_10, # of connection points: 2
#     Edge 59, Type (0, 1), BuildingBlock: TEMPAE_clean_linker_10, # of connection points: 2
#     Edge 60, Type (0, 1), BuildingBlock: TEMPAE_clean_linker_10, # of connection points: 2
#     Edge 61, Type (0, 1), BuildingBlock: TEMPAE_clean_linker_10, # of connection points: 2
#     Edge 62, Type (0, 1), BuildingBlock: TEMPAE_clean_linker_10, # of connection points: 2
#     Edge 63, Type (0, 1), BuildingBlock: TEMPAE_clean_linker_10, # of connection points: 2
#     Edge 64, Type (0, 1), BuildingBlock: TEMPAE_clean_linker_10, # of connection points: 2
#     Edge 65, Type (0, 1), BuildingBlock: TEMPAE_clean_linker_10, # of connection points: 2
#     Edge 66, Type (0, 1), BuildingBlock: TEMPAE_clean_linker_10, # of connection points: 2
#     Edge 67, Type (0, 1), BuildingBlock: TEMPAE_clean_linker_10, # of connection points: 2
#     Edge 68, Type (0, 1), BuildingBlock: TEMPAE_clean_linker_10, # of connection points: 2
#     Edge 69, Type (0, 1), BuildingBlock: TEMPAE_clean_linker_10, # of connection points: 2
#     Edge 70, Type (0, 1), BuildingBlock: TEMPAE_clean_linker_10, # of connection points: 2
#     Edge 71, Type (0, 1), BuildingBlock: TEMPAE_clean_linker_10, # of connection points: 2
#     Edge 72, Type (0, 1), BuildingBlock: TEMPAE_clean_linker_10, # of connection points: 2
#     Edge 73, Type (0, 1), BuildingBlock: TEMPAE_clean_linker_10, # of connection points: 2
#     Edge 74, Type (0, 1), BuildingBlock: TEMPAE_clean_linker_10, # of connection points: 2
#     Edge 75, Type (0, 1), BuildingBlock: TEMPAE_clean_linker_10, # of connection points: 2
# Relax obj value: 0.116
# Max RMSD: 0.293
# Mean RMSD: 0.158
data_MOF--net-ctn--node1-AZAVOO_clean_sbu_0--node2-QEWDON_clean_linker_0--edge1-TEMPAE_clean_linker_10
_symmetry_space_group_name_H-M    P1
_symmetry_Int_Tables_number       1
_symmetry_cell_setting            triclinic
loop_
_symmetry_equiv_pos_as_xyz
'x, y, z'
_cell_length_a     52.86025
_cell_length_b     55.9936
_cell_length_c     59.550297
_cell_angle_alpha  98.31789
_cell_angle_beta   94.65212
_cell_angle_gamma 98.681261
loop_
_atom_site_label
_atom_site_type_symbol
_atom_site_fract_x
_atom_site_fract_y
_atom_site_fract_z
_atom_type_partial_charge
H0 H 0.10091 0.0164 0.04413 0.0
C1 C 0.08873 0.01447 0.05778 0.0
C2 C 0.0829 0.9917 0.06519 0.0
C3 C 0.0806 0.03524 0.06908 0.0
H4 H 0.06403 0.97256 0.08993 0.0
C5 C 0.06821 0.98991 0.08384 0.0
C6 C 0.05969 0.01066 0.09513 0.0
C7 C 0.06581 0.03311 0.08734 0.0
C8 C 0.08993 0.05982 0.06383 0.0
H9 H 0.0594 0.0493 0.09577 0.0
C10 C 0.08368 0.06617 0.0423 0.0
C11 C 0.09165 0.09021 0.0382 0.0
C12 C 0.10458 0.07739 0.08108 0.0
H13 H 0.10959 0.07278 0.09775 0.0
C14 C 0.1128 0.10104 0.07702 0.0
H15 H 0.07235 0.05259 0.02902 0.0
C16 C 0.10628 0.1075 0.05584 0.0
H17 H 0.11222 0.12626 0.05348 0.0
H18 H 0.12395 0.11452 0.09045 0.0
H19 H 0.36511 0.75393 0.25964 0.0
C20 C 0.34897 0.73901 0.256 0.0
C21 C 0.35019 0.71767 0.26548 0.0
C22 C 0.32713 0.7414 0.24194 0.0
H23 H 0.32969 0.68262 0.26904 0.0
C24 C 0.32929 0.69842 0.26054 0.0
C25 C 0.30753 0.69985 0.24576 0.0
C26 C 0.30675 0.72153 0.2364 0.0
C27 C 0.32538 0.7653 0.23431 0.0
H28 H 0.29012 0.72325 0.22526 0.0
C29 C 0.3164 0.76671 0.21168 0.0
C30 C 0.31602 0.78965 0.20467 0.0
C31 C 0.3332 0.78709 0.24993 0.0
H32 H 0.33969 0.78661 0.26756 0.0
C33 C 0.33256 0.80977 0.24308 0.0
H34 H 0.3105 0.75011 0.1994 0.0
C35 C 0.32416 0.8111 0.22059 0.0
H36 H 0.32372 0.82893 0.21568 0.0
H37 H 0.33859 0.82639 0.25526 0.0
H38 H 0.04484 0.48826 0.04297 0.0
C39 C 0.02967 0.49913 0.04126 0.0
C40 C 0.02019 0.51028 0.06088 0.0
C41 C 0.02091 0.50324 0.0195 0.0
H42 H 0.99412 0.53417 0.07338 0.0
C43 C 1.00125 0.52523 0.05836 0.0
C44 C 0.99201 0.52916 0.03655 0.0
C45 C 1.00191 0.51793 0.01731 0.0
C46 C 0.03236 0.49335 0.99895 0.0
H47 H 0.99476 0.52059 1.00042 0.0
C48 C 0.03399 0.46833 0.99402 0.0
C49 C 0.04326 0.45891 0.97363 0.0
C50 C 0.04087 0.50899 0.98365 0.0
H51 H 0.04001 0.52837 0.98718 0.0
C52 C 0.05058 0.49979 0.96368 0.0
H53 H 0.02705 0.45609 0.00554 0.0
C54 C 0.05163 0.47488 0.95858 0.0
H55 H 0.05905 0.46807 0.94289 0.0
H56 H 0.05712 0.51197 0.95203 0.0
H57 H 0.78734 0.81884 0.24901 0.0
C58 C 0.78316 0.81131 0.23104 0.0
C59 C 0.79119 0.82537 0.21433 0.0
C60 C 0.77157 0.78676 0.22482 0.0
H61 H 0.79211 0.82509 0.17804 0.0
C62 C 0.78652 0.81449 0.19121 0.0
C63 C 0.77583 0.78964 0.18488 0.0
C64 C 0.76809 0.77597 0.20182 0.0
C65 C 0.76648 0.77137 0.24253 0.0
H66 H 0.76063 0.75658 0.19733 0.0
C67 C 0.7446 0.77215 0.25433 0.0
C68 C 0.73983 0.75713 0.2711 0.0
C69 C 0.7837 0.75565 0.24749 0.0
H70 H 0.80063 0.75488 0.23848 0.0
C71 C 0.77931 0.741 0.26426 0.0
H72 H 0.73115 0.78404 0.2501 0.0
C73 C 0.75761 0.74174 0.27604 0.0
H74 H 0.75494 0.73041 0.28922 0.0
H75 H 0.79281 0.72907 0.26819 0.0
H76 H 0.12641 0.98612 0.49775 0.0
C77 C 0.10889 0.98911 0.48855 0.0
C78 C 0.10863 0.01088 0.47956 0.0
C79 C 0.08733 0.97039 0.48438 0.0
H80 H 0.0865 0.0305 0.45907 0.0
C81 C 0.0863 0.01401 0.46664 0.0
C82 C 0.0644 0.99562 0.4623 0.0
C83 C 0.06499 0.97389 0.47159 0.0
C84 C 0.09007 0.94582 0.48976 0.0
H85 H 0.04869 0.95916 0.46784 0.0
C86 C 0.07398 0.93387 0.50395 0.0
C87 C 0.07712 0.91027 0.50813 0.0
C88 C 0.10913 0.93401 0.47999 0.0
H89 H 0.12158 0.9428 0.46894 0.0
C90 C 0.11207 0.91066 0.48403 0.0
H91 H 0.05928 0.94281 0.51166 0.0
C92 C 0.09616 0.89882 0.49795 0.0
H93 H 0.09889 0.88071 0.501 0.0
H94 H 0.12674 0.9017 0.47633 0.0
H95 H 0.27146 0.68348 0.75465 0.0
C96 C 0.26477 0.69019 0.77074 0.0
C97 C 0.27389 0.68251 0.79095 0.0
C98 C 0.24812 0.70756 0.77126 0.0
H99 H 0.27338 0.68742 0.82758 0.0
C100 C 0.2663 0.69285 0.8118 0.0
C101 C 0.24987 0.71045 0.81257 0.0
C102 C 0.24036 0.71727 0.79215 0.0
C103 C 0.24243 0.71867 0.75075 0.0
H104 H 0.22846 0.73148 0.79268 0.0
C105 C 0.21715 0.71633 0.74019 0.0
C106 C 0.21208 0.72825 0.72131 0.0
C107 C 0.26266 0.73288 0.74244 0.0
H108 H 0.28219 0.735 0.75046 0.0
C109 C 0.25779 0.74511 0.72421 0.0
H110 H 0.20173 0.70491 0.74646 0.0
C111 C 0.23277 0.74305 0.71387 0.0
H112 H 0.22972 0.75334 0.70012 0.0
H113 H 0.27345 0.75644 0.7182 0.0
H114 H 0.95936 0.54489 0.45316 0.0
C115 C 0.94728 0.52968 0.45841 0.0
C116 C 0.94039 0.53167 0.48083 0.0
C117 C 0.93675 0.50897 0.44228 0.0
H118 H 0.91758 0.51469 0.50429 0.0
C119 C 0.92347 0.51257 0.4872 0.0
C120 C 0.91335 0.49137 0.47147 0.0
C121 C 0.92026 0.48978 0.44904 0.0
C122 C 0.93939 0.50882 0.41767 0.0
H123 H 0.91243 0.47378 0.43652 0.0
C124 C 0.96346 0.5099 0.4089 0.0
C125 C 0.96504 0.50987 0.38533 0.0
C126 C 0.91709 0.50768 0.40276 0.0
H127 H 0.89842 0.50691 0.40916 0.0
C128 C 0.91865 0.50783 0.37954 0.0
H129 H 0.98075 0.51071 0.42028 0.0
C130 C 0.94241 0.50895 0.37086 0.0
H131 H 0.94307 0.50871 0.35269 0.0
H132 H 0.90134 0.50702 0.36822 0.0
H133 H 0.84015 0.81501 0.77497 0.0
C134 C 0.83844 0.80217 0.78698 0.0
C135 C 0.84966 0.78081 0.78345 0.0
C136 C 0.82609 0.80781 0.80653 0.0
H137 H 0.85633 0.74837 0.79741 0.0
C138 C 0.84729 0.76456 0.79953 0.0
C139 C 0.83479 0.77002 0.81919 0.0
C140 C 0.82426 0.79171 0.82246 0.0
C141 C 0.81926 0.83241 0.81243 0.0
H142 H 0.81506 0.79644 0.83775 0.0
C143 C 0.79729 0.83925 0.8017 0.0
C144 C 0.79157 0.86309 0.80772 0.0
C145 C 0.83547 0.84934 0.82912 0.0
H146 H 0.85242 0.84433 0.8375 0.0
C147 C 0.83025 0.87294 0.83484 0.0
H148 H 0.78464 0.82593 0.78909 0.0
C149 C 0.80868 0.87985 0.82417 0.0
H150 H 0.80572 0.89859 0.82866 0.0
H151 H 0.8431 0.88602 0.84748 0.0
H152 H 0.34358 0.30924 0.27073 0.0
C153 C 0.33911 0.29601 0.28204 0.0
C154 C 0.34866 0.27372 0.27896 0.0
C155 C 0.3254 0.30223 0.30064 0.0
H156 H 0.35152 0.24049 0.29306 0.0
C157 C 0.34414 0.25763 0.29491 0.0
C158 C 0.33028 0.26366 0.31349 0.0
C159 C 0.32085 0.28591 0.31619 0.0
C160 C 0.32061 0.32758 0.30638 0.0
H161 H 0.31123 0.29114 0.33111 0.0
C162 C 0.29812 0.33521 0.29757 0.0
C163 C 0.29459 0.35985 0.30314 0.0
C164 C 0.33946 0.34447 0.32075 0.0
H165 H 0.35685 0.33885 0.32762 0.0
C166 C 0.33626 0.36876 0.32614 0.0
H167 H 0.2835 0.32201 0.28664 0.0
C168 C 0.31419 0.37646 0.31733 0.0
H169 H 0.31276 0.39566 0.32138 0.0
H170 H 0.35107 0.38176 0.33702 0.0
H171 H 0.54025 0.98602 0.53686 0.0
C172 C 0.52554 0.99746 0.53554 0.0
C173 C 0.51739 0.00943 0.55546 0.0
C174 C 0.51608 0.00142 0.51393 0.0
H175 H 0.49296 0.03468 0.56869 0.0
C176 C 0.49907 0.02511 0.55344 0.0
C177 C 0.48911 0.0289 0.5318 0.0
C178 C 0.49767 0.01681 0.51224 0.0
C179 C 0.52616 0.99059 0.49297 0.0
H180 H 0.48992 0.01932 0.49548 0.0
C181 C 0.52709 0.9654 0.48846 0.0
C182 C 0.53513 0.9551 0.46778 0.0
C183 C 0.53411 0.0055 0.47692 0.0
H184 H 0.5338 0.025 0.4801 0.0
C185 C 0.54257 0.99542 0.45663 0.0
H186 H 0.5206 0.95371 0.50057 0.0
C187 C 0.54295 0.97036 0.45198 0.0
H188 H 0.54946 0.96289 0.43607 0.0
H189 H 0.54868 0.00706 0.4444 0.0
H190 H 0.29218 0.31788 0.75431 0.0
C191 C 0.28809 0.31015 0.73638 0.0
C192 C 0.2961 0.32403 0.71953 0.0
C193 C 0.2765 0.28557 0.73031 0.0
H194 H 0.29694 0.32341 0.68319 0.0
C195 C 0.29144 0.31294 0.69647 0.0
C196 C 0.28078 0.28808 0.69032 0.0
C197 C 0.27303 0.27459 0.70737 0.0
C198 C 0.27095 0.27033 0.74806 0.0
H199 H 0.26548 0.2552 0.70299 0.0
C200 C 0.24865 0.27107 0.75927 0.0
C201 C 0.24291 0.25553 0.77544 0.0
C202 C 0.28772 0.25426 0.75316 0.0
H203 H 0.30493 0.25345 0.74455 0.0
C204 C 0.28233 0.23904 0.76933 0.0
H205 H 0.23579 0.28357 0.75526 0.0
C206 C 0.26006 0.23955 0.78034 0.0
H207 H 0.25602 0.22705 0.79236 0.0
H208 H 0.29529 0.22659 0.77314 0.0
H209 H 0.86718 0.25643 0.76578 0.0
C210 C 0.85172 0.24106 0.76078 0.0
C211 C 0.85379 0.21849 0.76792 0.0
C212 C 0.82961 0.24427 0.74752 0.0
H213 H 0.83455 0.18132 0.76623 0.0
C214 C 0.8331 0.19907 0.76152 0.0
C215 C 0.81028 0.20226 0.74928 0.0
C216 C 0.80891 0.22478 0.74185 0.0
C217 C 0.82798 0.26839 0.74042 0.0
H218 H 0.79136 0.22754 0.73258 0.0
C219 C 0.81947 0.27004 0.71775 0.0
C220 C 0.81945 0.29304 0.71082 0.0
C221 C 0.83577 0.29001 0.75623 0.0
H222 H 0.84203 0.28929 0.77385 0.0
C223 C 0.83546 0.31281 0.74948 0.0
H224 H 0.81372 0.25351 0.70536 0.0
C225 C 0.8275 0.31437 0.72692 0.0
H226 H 0.82734 0.33228 0.72209 0.0
H227 H 0.84146 0.32933 0.76179 0.0
H228 H 0.60601 0.52051 0.54627 0.0
C229 C 0.5931 0.51822 0.55934 0.0
C230 C 0.58732 0.49536 0.56651 0.0
C231 C 0.58331 0.53842 0.56976 0.0
H232 H 0.56753 0.47541 0.5902 0.0
C233 C 0.57121 0.49279 0.58407 0.0
C234 C 0.56152 0.51311 0.59483 0.0
C235 C 0.56736 0.53568 0.58716 0.0
C236 C 0.59171 0.5631 0.56437 0.0
H237 H 0.55988 0.55149 0.59506 0.0
C238 C 0.58591 0.56872 0.54247 0.0
C239 C 0.59274 0.5928 0.53809 0.0
C240 C 0.60485 0.58146 0.58174 0.0
H241 H 0.60947 0.57741 0.5987 0.0
C242 C 0.61203 0.60518 0.57741 0.0
H243 H 0.57572 0.55451 0.5291 0.0
C244 C 0.6059 0.61091 0.55584 0.0
H245 H 0.61094 0.62972 0.55326 0.0
H246 H 0.62203 0.61928 0.59093 0.0
H247 H 0.6246 0.48223 0.9958 0.0
C248 C 0.60733 0.48601 0.9868 0.0
C249 C 0.6079 0.50816 0.97833 0.0
C250 C 0.58525 0.46789 0.98225 0.0
H251 H 0.58677 0.52907 0.95841 0.0
C252 C 0.58591 0.5123 0.9656 0.0
C253 C 0.56352 0.49451 0.96089 0.0
C254 C 0.56326 0.47237 0.96963 0.0
C255 C 0.58713 0.44286 0.98677 0.0
H256 H 0.54657 0.45807 0.96554 0.0
C257 C 0.57122 0.43103 1.00116 0.0
C258 C 0.57344 0.40693 0.0044 0.0
C259 C 0.60512 0.43048 0.97589 0.0
H260 H 0.61742 0.4392 0.96469 0.0
C261 C 0.60719 0.40666 0.97902 0.0
H262 H 0.55734 0.44044 0.00971 0.0
C263 C 0.59144 0.39492 0.99312 0.0
H264 H 0.59353 0.37646 0.99547 0.0
H265 H 0.62105 0.39726 0.97049 0.0
H266 H 0.76634 0.17628 0.25862 0.0
C267 C 0.76067 0.18439 0.2747 0.0
C268 C 0.77094 0.17824 0.29524 0.0
C269 C 0.74417 0.20191 0.27471 0.0
H270 H 0.77237 0.18572 0.33198 0.0
C271 C 0.76444 0.19001 0.31597 0.0
C272 C 0.74789 0.2075 0.31627 0.0
C273 C 0.73738 0.21299 0.29556 0.0
C274 C 0.73705 0.21093 0.2532 0.0
H275 H 0.72539 0.2271 0.29575 0.0
C276 C 0.71132 0.21245 0.24597 0.0
C277 C 0.70539 0.22169 0.22568 0.0
C278 C 0.75664 0.21873 0.23999 0.0
H279 H 0.77657 0.21801 0.24531 0.0
C280 C 0.75084 0.22794 0.22004 0.0
H281 H 0.69607 0.20644 0.256 0.0
C282 C 0.72545 0.22943 0.2129 0.0
H283 H 0.72144 0.23626 0.19709 0.0
H284 H 0.76608 0.23391 0.21002 0.0
H285 H 0.45967 0.04093 0.94555 0.0
C286 C 0.44772 0.02599 0.95132 0.0
C287 C 0.44153 0.02857 0.97396 0.0
C288 C 0.43671 0.005 0.93568 0.0
H289 H 0.41935 0.0125 0.99831 0.0
C290 C 0.42474 0.00987 0.98105 0.0
C291 C 0.41413 0.98841 0.96585 0.0
C292 C 0.42048 0.98614 0.94323 0.0
C293 C 0.43889 0.00401 0.91087 0.0
H294 H 0.4124 0.96984 0.93116 0.0
C295 C 0.46292 0.00709 0.90198 0.0
C296 C 0.46405 0.00622 0.87826 0.0
C297 C 0.4162 1.00012 0.89587 0.0
H298 H 0.39753 0.99789 0.90229 0.0
C299 C 0.41729 0.99939 0.8725 0.0
H300 H 0.48053 0.01007 0.9134 0.0
C301 C 0.44099 0.00242 0.86372 0.0
H302 H 0.4413 0.00144 0.84544 0.0
H303 H 0.39968 0.99642 0.86112 0.0
Mg304 Mg 0.22532 0.8316 0.01461 0.0
O305 O 0.26339 0.85637 0.01122 0.0
O306 O 0.29407 0.83292 0.01163 0.0
Mg307 Mg 0.27681 0.79476 0.01817 0.0
C308 C 0.28676 0.85337 0.00987 0.0
C309 C 0.17802 0.85607 0.00847 0.0
O310 O 0.16874 0.83433 0.01293 0.0
O311 O 0.22504 0.8126 0.97751 0.0
O312 O 0.25391 0.78787 0.98279 0.0
O313 O 0.23106 0.84087 0.0526 0.0
O314 O 0.24512 0.80988 0.0332 0.0
C315 C 0.237 0.79528 0.97012 0.0
C316 C 0.24361 0.82276 0.05263 0.0
O317 O 0.20175 0.86059 0.00552 0.0
Mg318 Mg 0.15293 0.51367 0.25839 0.0
O319 O 0.12996 0.507 0.22239 0.0
O320 O 0.16005 0.51024 0.19817 0.0
Mg321 Mg 0.20052 0.52015 0.21704 0.0
C322 C 0.13647 0.50654 0.20207 0.0
C323 C 0.12007 0.51019 0.29704 0.0
O324 O 0.14188 0.5244 0.30546 0.0
O325 O 0.16573 0.47575 0.25278 0.0
O326 O 0.19741 0.48373 0.23091 0.0
O327 O 0.15323 0.55429 0.26173 0.0
O328 O 0.18286 0.53538 0.24641 0.0
C329 C 0.18482 0.46964 0.24268 0.0
C330 C 0.17394 0.55533 0.25151 0.0
O331 O 0.1176 0.50055 0.27608 0.0
Mg332 Mg 0.82134 0.66965 0.00277 0.0
O333 O 0.78238 0.64307 0.99669 0.0
O334 O 0.75201 0.66677 0.99516 0.0
Mg335 Mg 0.77025 0.70688 0.99889 0.0
C336 C 0.7587 0.64573 0.99471 0.0
C337 C 0.86469 0.64344 0.01222 0.0
O338 O 0.86887 0.66487 0.02544 0.0
O339 O 0.81888 0.67543 0.96517 0.0
O340 O 0.78858 0.69932 0.96534 0.0
O341 O 0.81891 0.6739 0.0402 0.0
O342 O 0.80361 0.69798 0.01819 0.0
C343 C 0.80491 0.6883 0.95509 0.0
C344 C 0.80653 0.69183 0.03813 0.0
O345 O 0.84476 0.63834 0.99775 0.0
Mg346 Mg 0.94646 0.03618 0.27326 0.0
O347 O 0.92019 0.99873 0.26501 0.0
O348 O 0.94621 0.97066 0.261 0.0
Mg349 Mg 0.98805 0.98955 0.26327 0.0
C350 C 0.92379 0.97649 0.26155 0.0
C351 C 0.91107 0.07461 0.27651 0.0
O352 O 0.92841 0.08203 0.26332 0.0
O353 O 0.95853 0.02856 0.30948 0.0
O354 O 0.98681 0.0034 0.30113 0.0
O355 O 0.94559 0.0388 0.23585 0.0
O356 O 0.97441 0.02231 0.25436 0.0
C357 C 0.97565 0.01617 0.31556 0.0
C358 C 0.96511 0.02738 0.23531 0.0
O359 O 0.9128 0.05507 0.28472 0.0
Mg360 Mg 0.32104 0.17292 0.50353 0.0
O361 O 0.2819 0.14689 0.49733 0.0
O362 O 0.25197 0.17117 0.49739 0.0
Mg363 Mg 0.27078 0.21141 0.50337 0.0
C364 C 0.25833 0.14991 0.49581 0.0
C365 C 0.36452 0.14641 0.51023 0.0
O366 O 0.36932 0.16778 0.52356 0.0
O367 O 0.31744 0.18063 0.46643 0.0
O368 O 0.28914 0.20657 0.46964 0.0
O369 O 0.31981 0.17535 0.54111 0.0
O370 O 0.30418 0.20079 0.52091 0.0
C371 C 0.30456 0.19554 0.45814 0.0
C372 C 0.30763 0.19361 0.54034 0.0
O373 O 0.34398 0.14149 0.49649 0.0
Mg374 Mg 0.44723 0.53789 0.77199 0.0
O375 O 0.42147 0.5001 0.7648 0.0
O376 O 0.44816 0.47257 0.76139 0.0
Mg377 Mg 0.4897 0.49192 0.76289 0.0
C378 C 0.42557 0.478 0.76196 0.0
C379 C 0.41272 0.57675 0.7751 0.0
O380 O 0.43097 0.58417 0.76274 0.0
O381 O 0.45973 0.53133 0.8085 0.0
O382 O 0.48845 0.5065 0.80058 0.0
O383 O 0.44584 0.53951 0.73438 0.0
O384 O 0.47518 0.52392 0.7532 0.0
C385 C 0.47714 0.51936 0.81482 0.0
C386 C 0.46557 0.52837 0.734 0.0
O387 O 0.41347 0.55687 0.78299 0.0
Mg388 Mg 0.7276 0.32939 0.51907 0.0
O389 O 0.76443 0.3553 0.51438 0.0
O390 O 0.7962 0.33304 0.5146 0.0
Mg391 Mg 0.78092 0.29465 0.5218 0.0
C392 C 0.78796 0.35304 0.51268 0.0
C393 C 0.68441 0.35671 0.52445 0.0
O394 O 0.68311 0.34022 0.53812 0.0
O395 O 0.72661 0.31004 0.48203 0.0
O396 O 0.75695 0.2867 0.48679 0.0
O397 O 0.73468 0.33974 0.55688 0.0
O398 O 0.74936 0.30901 0.53773 0.0
C399 C 0.73917 0.29329 0.47441 0.0
C400 C 0.74808 0.32228 0.55703 0.0
O401 O 0.70155 0.35685 0.51059 0.0
Mg402 Mg 0.65324 0.01429 0.7511 0.0
O403 O 0.63006 0.00612 0.71525 0.0
O404 O 0.65966 0.00682 0.69053 0.0
Mg405 Mg 0.70034 0.01624 0.70908 0.0
C406 C 0.63619 0.00424 0.69478 0.0
C407 C 0.61921 0.01476 0.78948 0.0
O408 O 0.64041 0.03019 0.79735 0.0
O409 O 0.66491 0.97583 0.74782 0.0
O410 O 0.6964 0.98135 0.72526 0.0
O411 O 0.65502 0.05489 0.75158 0.0
O412 O 0.68418 0.03402 0.73841 0.0
C413 C 0.6837 0.96859 0.73801 0.0
C414 C 0.67621 0.05463 0.74215 0.0
O415 O 0.61753 0.00329 0.76917 0.0
Mg416 Mg 0.06263 0.23048 0.90495 0.0
O417 O 0.02339 0.22152 0.88329 0.0
O418 O 0.99357 0.2194 0.90792 0.0
Mg419 Mg 0.0133 0.22264 0.94414 0.0
C420 C 0.99996 0.21891 0.88766 0.0
C421 C 0.08717 0.22621 0.85912 0.0
O422 O 0.07747 0.20319 0.8592 0.0
O423 O 0.05529 0.26918 0.917 0.0
O424 O 0.02704 0.26326 0.9425 0.0
O425 O 0.0654 0.19076 0.9034 0.0
O426 O 0.048 0.21228 0.93018 0.0
C427 C 0.04141 0.27739 0.93198 0.0
C428 C 0.05399 0.19161 0.92186 0.0
O429 O 0.08297 0.24236 0.87507 0.0
Mg430 Mg 0.55893 0.72809 0.40182 0.0
O431 O 0.51978 0.71833 0.38004 0.0
O432 O 0.48975 0.71274 0.40398 0.0
Mg433 Mg 0.5094 0.7182 0.44045 0.0
C434 C 0.49625 0.7135 0.38386 0.0
C435 C 0.60297 0.74892 0.3781 0.0
O436 O 0.61173 0.751 0.39971 0.0
O437 O 0.55022 0.76616 0.41361 0.0
O438 O 0.52127 0.75914 0.4383 0.0
O439 O 0.56311 0.68872 0.40024 0.0
O440 O 0.54488 0.70949 0.42695 0.0
C441 C 0.53549 0.77375 0.42808 0.0
C442 C 0.55166 0.68917 0.41868 0.0
O443 O 0.57934 0.74027 0.37218 0.0
Mg444 Mg 0.98531 0.73372 0.61254 0.0
O445 O 0.0239 0.72945 0.63161 0.0
O446 O 0.04927 0.71754 0.60525 0.0
Mg447 Mg 0.02884 0.7174 0.56989 0.0
C448 C 0.04491 0.72281 0.62599 0.0
C449 C 0.9475 0.75155 0.64522 0.0
O450 O 0.93379 0.74653 0.6252 0.0
O451 O 0.00353 0.77133 0.60457 0.0
O452 O 0.0289 0.75882 0.57842 0.0
O453 O 0.97086 0.69322 0.60897 0.0
O454 O 0.99169 0.71053 0.58341 0.0
C455 C 0.01987 0.77584 0.59034 0.0
C456 C 0.98071 0.6909 0.58973 0.0
O457 O 0.9712 0.74945 0.64621 0.0
Mg458 Mg 0.48589 0.22881 0.10795 0.0
O459 O 0.52432 0.22492 0.1277 0.0
O460 O 0.55089 0.21608 0.10154 0.0
Mg461 Mg 0.53092 0.21512 0.06587 0.0
C462 C 0.54612 0.21999 0.12231 0.0
C463 C 0.44949 0.23119 0.14529 0.0
O464 O 0.43925 0.21171 0.13049 0.0
O465 O 0.50327 0.26711 0.1008 0.0
O466 O 0.52921 0.25608 0.07463 0.0
O467 O 0.47261 0.18801 0.10349 0.0
O468 O 0.49361 0.20643 0.07871 0.0
C469 C 0.51951 0.27247 0.08673 0.0
C470 C 0.48294 0.18638 0.08449 0.0
O471 O 0.47033 0.24378 0.14132 0.0
C472 C 0.21966 0.72579 0.83963 0.0
C473 C 0.2448 0.7235 0.83485 0.0
C474 C 0.21496 0.73812 0.86082 0.0
C475 C 0.23594 0.74881 0.87733 0.0
C476 C 0.26139 0.74709 0.87224 0.0
C477 C 0.26548 0.73428 0.85117 0.0
C478 C 0.18756 0.73917 0.86576 0.0
C479 C 0.28436 0.75852 0.88919 0.0
C480 C 0.23092 0.79697 0.92823 0.0
C481 C 0.23203 0.78326 0.94607 0.0
C482 C 0.23098 0.78582 0.90546 0.0
C483 C 0.23157 0.76036 0.90055 0.0
C484 C 0.23079 0.74625 0.91845 0.0
C485 C 0.23138 0.75793 0.94099 0.0
C486 C 0.23218 0.80155 0.88691 0.0
C487 C 0.23081 0.71901 0.91398 0.0
H488 H 0.20367 0.71748 0.82697 0.0
H489 H 0.28496 0.73291 0.84731 0.0
H490 H 0.18309 0.7291 0.88007 0.0
H491 H 0.18504 0.75839 0.87118 0.0
H492 H 0.17348 0.73106 0.85072 0.0
H493 H 0.3029 0.75702 0.88199 0.0
H494 H 0.28362 0.77815 0.89485 0.0
H495 H 0.28394 0.74941 0.90454 0.0
H496 H 0.23163 0.81659 0.93218 0.0
H497 H 0.23205 0.74729 0.95481 0.0
H498 H 0.218 0.79311 0.87208 0.0
H499 H 0.25156 0.803 0.88081 0.0
H500 H 0.22848 0.8203 0.89299 0.0
H501 H 0.21614 0.71008 0.89966 0.0
H502 H 0.22692 0.71029 0.92924 0.0
H503 H 0.24984 0.71549 0.90897 0.0
C504 C 0.99666 0.52696 0.36043 0.0
C505 C 0.98987 0.51031 0.37525 0.0
C506 C 0.01848 0.52602 0.34861 0.0
C507 C 0.03381 0.50778 0.35145 0.0
C508 C 0.02738 0.49123 0.3668 0.0
C509 C 0.00554 0.4928 0.37865 0.0
C510 C 0.02488 0.54432 0.33277 0.0
C511 C 0.04314 0.47145 0.3702 0.0
C512 C 0.07448 0.4934 0.30277 0.0
C513 C 0.09843 0.5075 0.31145 0.0
C514 C 0.05351 0.49253 0.31595 0.0
C515 C 0.05651 0.50621 0.33826 0.0
C516 C 0.08085 0.51983 0.34734 0.0
C517 C 0.10147 0.52023 0.33389 0.0
C518 C 0.02791 0.47759 0.30573 0.0
C519 C 0.08488 0.53478 0.37096 0.0
H520 H 0.98462 0.54061 0.35787 0.0
H521 H 1.00015 0.47973 0.38991 0.0
H522 H 0.04478 0.55437 0.33762 0.0
H523 H 0.02406 0.53464 0.31503 0.0
H524 H 0.01148 0.55783 0.33302 0.0
H525 H 0.03608 0.46052 0.38326 0.0
H526 H 0.04251 0.45895 0.35383 0.0
H527 H 0.06358 0.47963 0.37548 0.0
H528 H 0.07196 0.48343 0.28552 0.0
H529 H 0.1199 0.53114 0.34085 0.0
H530 H 0.0137 0.48993 0.30332 0.0
H531 H 0.02043 0.4652 0.3175 0.0
H532 H 0.02923 0.46644 0.28897 0.0
H533 H 0.0732 0.5497 0.37152 0.0
H534 H 0.10536 0.54305 0.3761 0.0
H535 H 0.07829 0.52324 0.38369 0.0
C536 C 0.83988 0.76461 0.86019 0.0
C537 C 0.83382 0.75407 0.83717 0.0
C538 C 0.83662 0.7505 0.87769 0.0
C539 C 0.82706 0.72511 0.87214 0.0
C540 C 0.82215 0.71408 0.8489 0.0
C541 C 0.82564 0.7287 0.83166 0.0
C542 C 0.84233 0.76306 0.9022 0.0
C543 C 0.81207 0.68708 0.84225 0.0
C544 C 0.83275 0.69118 0.92288 0.0
C545 C 0.80909 0.69295 0.9316 0.0
C546 C 0.8384 0.70015 0.90261 0.0
C547 C 0.81992 0.71099 0.89078 0.0
C548 C 0.79535 0.71107 0.89861 0.0
C549 C 0.79028 0.70212 0.91888 0.0
C550 C 0.86476 0.69953 0.89476 0.0
C551 C 0.77493 0.72218 0.88645 0.0
H552 H 0.84675 0.78412 0.86455 0.0
H553 H 0.82097 0.72045 0.81389 0.0
H554 H 0.8242 0.76237 0.91044 0.0
H555 H 0.85531 0.75343 0.91188 0.0
H556 H 0.85143 0.78252 0.90363 0.0
H557 H 0.8125 0.68074 0.82374 0.0
H558 H 0.82348 0.67628 0.85212 0.0
H559 H 0.7919 0.68319 0.84635 0.0
H560 H 0.84741 0.68412 0.93256 0.0
H561 H 0.7718 0.70327 0.92529 0.0
H562 H 0.87622 0.71822 0.89856 0.0
H563 H 0.86333 0.69357 0.87605 0.0
H564 H 0.87529 0.68711 0.90343 0.0
H565 H 0.78096 0.74231 0.88851 0.0
H566 H 0.756 0.71841 0.89322 0.0
H567 H 0.77254 0.71503 0.86791 0.0
C568 C 0.03212 0.97853 0.42828 0.0
C569 C 0.04279 0.99817 0.44549 0.0
C570 C 0.01626 0.98208 0.40935 0.0
C571 C 0.01128 0.00589 0.40736 0.0
C572 C 0.01999 0.02528 0.42564 0.0
C573 C 0.03543 0.02113 0.44457 0.0
C574 C 0.00686 0.96074 0.39048 0.0
C575 C 0.01513 0.05094 0.42431 0.0
C576 C 0.01042 0.01857 0.34659 0.0
C577 C 0.9841 0.01681 0.33993 0.0
C578 C 0.01941 0.01614 0.36877 0.0
C579 C 1.00157 0.01123 0.38468 0.0
C580 C 0.97492 0.01023 0.37833 0.0
C581 C 0.96647 0.01328 0.35598 0.0
C582 C 0.04803 0.01796 0.37487 0.0
C583 C 0.9553 0.00472 0.39469 0.0
H584 H 0.03763 0.96071 0.42866 0.0
H585 H 0.043 0.0363 0.45807 0.0
H586 H 0.98658 0.96073 0.38402 0.0
H587 H 0.01866 0.96238 0.37602 0.0
H588 H 0.0083 0.94293 0.39624 0.0
H589 H 0.01899 0.06282 0.44127 0.0
H590 H 0.02796 0.05912 0.4126 0.0
H591 H 0.99501 0.05083 0.41734 0.0
H592 H 0.02407 0.02147 0.3342 0.0
H593 H 0.94608 0.01167 0.35075 0.0
H594 H 0.05242 0.99996 0.37823 0.0
H595 H 0.0545 0.03135 0.39067 0.0
H596 H 0.05938 0.02363 0.36106 0.0
H597 H 0.95386 0.98527 0.397 0.0
H598 H 0.93593 0.00795 0.38837 0.0
H599 H 0.96128 0.01605 0.4117 0.0
C600 C 0.30296 0.27969 0.65529 0.0
C601 C 0.28084 0.27548 0.66661 0.0
C602 C 0.30466 0.2663 0.63387 0.0
C603 C 0.28372 0.24824 0.62344 0.0
C604 C 0.26099 0.24442 0.63439 0.0
C605 C 0.25986 0.25803 0.65594 0.0
C606 C 0.32932 0.27082 0.62283 0.0
C607 C 0.23819 0.22548 0.62366 0.0
C608 C 0.2869 0.22682 0.56046 0.0
C609 C 0.29854 0.20597 0.56111 0.0
C610 C 0.28069 0.24011 0.58054 0.0
C611 C 0.28647 0.23248 0.60174 0.0
C612 C 0.29721 0.21088 0.60238 0.0
C613 C 0.30306 0.19786 0.58205 0.0
C614 C 0.26905 0.26295 0.57917 0.0
C615 C 0.30372 0.20217 0.62466 0.0
H616 H 0.31942 0.29282 0.66362 0.0
H617 H 0.24268 0.25484 0.66459 0.0
H618 H 0.33847 0.25416 0.6214 0.0
H619 H 0.32518 0.27474 0.60529 0.0
H620 H 0.34331 0.28635 0.63266 0.0
H621 H 0.22125 0.22613 0.63348 0.0
H622 H 0.23266 0.22821 0.60595 0.0
H623 H 0.24345 0.20694 0.62267 0.0
H624 H 0.28338 0.23325 0.54438 0.0
H625 H 0.31196 0.18172 0.5827 0.0
H626 H 0.28336 0.27928 0.58684 0.0
H627 H 0.25214 0.26289 0.58905 0.0
H628 H 0.26298 0.26481 0.56129 0.0
H629 H 0.31935 0.21561 0.63515 0.0
H630 H 0.31012 0.18404 0.62208 0.0
H631 H 0.28681 0.20086 0.63456 0.0
C632 C 0.55213 0.53099 0.63364 0.0
C633 C 0.54688 0.51175 0.61511 0.0
C634 C 0.53762 0.53131 0.6523 0.0
C635 C 0.51754 0.51165 0.65281 0.0
C636 C 0.51264 0.49169 0.63458 0.0
C637 C 0.52734 0.492 0.61587 0.0
C638 C 0.54358 0.55296 0.67136 0.0
C639 C 0.49164 0.47024 0.63469 0.0
C640 C 0.49798 0.50886 0.71241 0.0
C641 C 0.47684 0.52131 0.71245 0.0
C642 C 0.51038 0.50413 0.69265 0.0
C643 C 0.50177 0.51243 0.67248 0.0
C644 C 0.47981 0.52414 0.67212 0.0
C645 C 0.46754 0.52833 0.69206 0.0
C646 C 0.53354 0.49134 0.69372 0.0
C647 C 0.47013 0.53348 0.65103 0.0
H648 H 0.56765 0.54602 0.63353 0.0
H649 H 0.52315 0.47708 0.60163 0.0
H650 H 0.52632 0.56185 0.67332 0.0
H651 H 0.54866 0.54674 0.68775 0.0
H652 H 0.55972 0.56685 0.66827 0.0
H653 H 0.49111 0.4556 0.61983 0.0
H654 H 0.49443 0.46238 0.6506 0.0
H655 H 0.47268 0.47646 0.63439 0.0
H656 H 0.50543 0.5034 0.728 0.0
H657 H 0.45121 0.53794 0.69188 0.0
H658 H 0.55122 0.50464 0.69317 0.0
H659 H 0.53213 0.47669 0.67877 0.0
H660 H 0.53569 0.48316 0.70955 0.0
H661 H 0.48446 0.54887 0.64772 0.0
H662 H 0.45145 0.54002 0.65278 0.0
H663 H 0.46779 0.51892 0.6359 0.0
C664 C 0.82582 0.3114 0.6754 0.0
C665 C 0.81107 0.29503 0.68688 0.0
C666 C 0.81728 0.31488 0.65337 0.0
C667 C 0.79326 0.30189 0.64267 0.0
C668 C 0.77864 0.28479 0.65391 0.0
C669 C 0.78781 0.28145 0.67585 0.0
C670 C 0.8336 0.33302 0.64184 0.0
C671 C 0.75282 0.27075 0.64314 0.0
C672 C 0.75714 0.33141 0.59944 0.0
C673 C 0.76096 0.31774 0.57868 0.0
C674 C 0.76763 0.32646 0.62032 0.0
C675 C 0.78257 0.30752 0.6205 0.0
C676 C 0.78699 0.29396 0.59961 0.0
C677 C 0.77598 0.29913 0.57893 0.0
C678 C 0.76234 0.34125 0.64223 0.0
C679 C 0.80308 0.27383 0.59914 0.0
H680 H 0.844 0.32166 0.68379 0.0
H681 H 0.77631 0.2689 0.68475 0.0
H682 H 0.83653 0.32443 0.62446 0.0
H683 H 0.82355 0.34874 0.63992 0.0
H684 H 0.85271 0.34008 0.65163 0.0
H685 H 0.74461 0.25705 0.65347 0.0
H686 H 0.73911 0.28367 0.64121 0.0
H687 H 0.75457 0.26117 0.62582 0.0
H688 H 0.74549 0.34576 0.59944 0.0
H689 H 0.77892 0.28839 0.56301 0.0
H690 H 0.78073 0.35046 0.65222 0.0
H691 H 0.75225 0.32896 0.65288 0.0
H692 H 0.75038 0.35538 0.63913 0.0
H693 H 0.82236 0.28104 0.60851 0.0
H694 H 0.80557 0.26569 0.58147 0.0
H695 H 0.7939 0.25914 0.60791 0.0
C696 C 0.53337 0.9838 0.58315 0.0
C697 C 0.52972 0.00688 0.5782 0.0
C698 C 0.54785 0.98143 0.60334 0.0
C699 C 0.5593 0.00267 0.61883 0.0
C700 C 0.55469 0.02593 0.61441 0.0
C701 C 0.53986 0.02774 0.59422 0.0
C702 C 0.5519 0.95627 0.60755 0.0
C703 C 0.56672 0.04908 0.63031 0.0
C704 C 0.58968 0.99953 0.67857 0.0
C705 C 0.61587 0.0013 0.67523 0.0
C706 C 0.57087 0.99919 0.66028 0.0
C707 C 0.57842 1.00091 0.63819 0.0
C708 C 0.60468 0.00198 0.63462 0.0
C709 C 0.62297 0.00201 0.65306 0.0
C710 C 0.543 0.99762 0.66471 0.0
C711 C 0.61366 0.00392 0.61139 0.0
H712 H 0.52534 0.9676 0.57093 0.0
H713 H 0.53732 0.04564 0.59041 0.0
H714 H 0.57215 0.95411 0.60549 0.0
H715 H 0.54845 0.95386 0.62527 0.0
H716 H 0.53907 0.94153 0.59553 0.0
H717 H 0.55946 0.06546 0.62554 0.0
H718 H 0.56286 0.04753 0.64812 0.0
H719 H 0.58791 0.05188 0.62994 0.0
H720 H 0.58391 0.99891 0.69555 0.0
H721 H 0.64307 0.00332 0.65013 0.0
H722 H 0.53088 0.98269 0.65241 0.0
H723 H 0.53623 0.01493 0.66212 0.0
H724 H 0.53998 0.99432 0.68232 0.0
H725 H 0.60337 0.98838 0.59861 0.0
H726 H 0.63468 0.00402 0.61133 0.0
H727 H 0.60909 0.02099 0.60581 0.0
C728 C 0.87412 0.2005 0.79997 0.0
C729 C 0.87677 0.2157 0.78317 0.0
C730 C 0.89508 0.19892 0.81541 0.0
C731 C 0.91913 0.21368 0.81479 0.0
C732 C 0.92221 0.2287 0.7977 0.0
C733 C 0.90118 0.22913 0.78183 0.0
C734 C 0.89118 0.18208 0.83294 0.0
C735 C 0.94737 0.24522 0.79683 0.0
C736 C 0.96021 0.23167 0.87173 0.0
C737 C 0.9795 0.21723 0.86889 0.0
C738 C 0.94089 0.23112 0.85401 0.0
C739 C 0.94029 0.21501 0.83325 0.0
C740 C 0.95956 0.20008 0.83041 0.0
C741 C 0.97931 0.20175 0.84816 0.0
C742 C 0.92125 0.24795 0.85747 0.0
C743 C 0.95898 0.18201 0.80887 0.0
H744 H 0.85545 0.19032 0.80168 0.0
H745 H 0.90387 0.24041 0.76863 0.0
H746 H 0.90702 0.17119 0.8338 0.0
H747 H 0.89149 0.19306 0.85005 0.0
H748 H 0.87258 0.16932 0.8291 0.0
H749 H 0.94696 0.25507 0.78193 0.0
H750 H 0.95171 0.25894 0.81265 0.0
H751 H 0.96337 0.2345 0.79607 0.0
H752 H 0.96061 0.24387 0.8877 0.0
H753 H 0.99425 0.19054 0.84606 0.0
H754 H 0.90179 0.23703 0.85681 0.0
H755 H 0.92074 0.25913 0.84354 0.0
H756 H 0.92541 0.26046 0.87407 0.0
H757 H 0.94063 0.1689 0.8062 0.0
H758 H 0.97523 0.17156 0.80946 0.0
H759 H 0.95977 0.19166 0.79388 0.0
C760 C 0.54585 0.91574 0.47809 0.0
C761 C 0.53474 0.92838 0.46227 0.0
C762 C 0.54616 0.89053 0.47272 0.0
C763 C 0.53475 0.8777 0.45114 0.0
C764 C 0.52316 0.89034 0.43525 0.0
C765 C 0.52343 0.91557 0.44097 0.0
C766 C 0.55894 0.87769 0.48999 0.0
C767 C 0.51044 0.87722 0.41223 0.0
C768 C 0.55494 0.81739 0.42798 0.0
C769 C 0.53511 0.80034 0.43358 0.0
C770 C 0.55518 0.84263 0.43377 0.0
C771 C 0.53492 0.85102 0.44515 0.0
C772 C 0.51469 0.83394 0.4506 0.0
C773 C 0.51511 0.80881 0.44489 0.0
C774 C 0.57721 0.86033 0.42787 0.0
C775 C 0.49254 0.8422 0.46241 0.0
H776 H 0.55476 0.92568 0.49451 0.0
H777 H 0.51454 0.92529 0.42883 0.0
H778 H 0.54486 0.86273 0.49437 0.0
H779 H 0.5747 0.86922 0.4826 0.0
H780 H 0.56703 0.89034 0.50594 0.0
H781 H 0.5019 0.88967 0.40199 0.0
H782 H 0.5247 0.86878 0.40244 0.0
H783 H 0.49503 0.86221 0.41446 0.0
H784 H 0.57054 0.81101 0.41936 0.0
H785 H 0.49962 0.79578 0.44917 0.0
H786 H 0.58694 0.87239 0.44359 0.0
H787 H 0.56982 0.87227 0.41643 0.0
H788 H 0.59168 0.85084 0.41931 0.0
H789 H 0.49984 0.85357 0.47918 0.0
H790 H 0.47815 0.82657 0.46521 0.0
H791 H 0.48274 0.85377 0.45209 0.0
C792 C 0.1953 0.25588 0.77416 0.0
C793 C 0.21877 0.25518 0.78671 0.0
C794 C 0.17209 0.25331 0.78422 0.0
C795 C 0.17237 0.24973 0.80728 0.0
C796 C 0.19609 0.24989 0.82023 0.0
C797 C 0.21897 0.25275 0.80983 0.0
C798 C 0.14722 0.25353 0.76995 0.0
C799 C 0.19723 0.24616 0.84489 0.0
C800 C 0.11706 0.25713 0.84318 0.0
C801 C 0.10617 0.23265 0.84308 0.0
C802 C 0.13775 0.26313 0.8305 0.0
C803 C 0.1479 0.24418 0.81765 0.0
C804 C 0.13607 0.21955 0.81649 0.0
C805 C 0.11526 0.21409 0.82911 0.0
C806 C 0.14954 0.28965 0.83182 0.0
C807 C 0.14635 0.19879 0.80302 0.0
H808 H 0.19493 0.25755 0.75623 0.0
H809 H 0.23707 0.25271 0.81977 0.0
H810 H 0.13549 0.23496 0.76691 0.0
H811 H 0.13577 0.26611 0.7791 0.0
H812 H 0.15053 0.2592 0.75316 0.0
H813 H 0.2173 0.24772 0.85282 0.0
H814 H 0.18769 0.25981 0.85495 0.0
H815 H 0.18669 0.22775 0.84608 0.0
H816 H 0.11001 0.27161 0.85376 0.0
H817 H 0.10691 0.19513 0.82883 0.0
H818 H 0.1525 0.29396 0.81451 0.0
H819 H 0.16871 0.29319 0.84188 0.0
H820 H 0.13743 0.30226 0.84001 0.0
H821 H 0.14837 0.20218 0.78531 0.0
H822 H 0.13376 0.18087 0.80237 0.0
H823 H 0.16578 0.19762 0.81093 0.0
C824 C 0.60181 0.61699 0.50665 0.0
C825 C 0.5851 0.59977 0.51563 0.0
C826 C 0.59348 0.62726 0.48785 0.0
C827 C 0.56794 0.61969 0.47737 0.0
C828 C 0.55169 0.60071 0.48502 0.0
C829 C 0.56037 0.59111 0.50424 0.0
C830 C 0.61151 0.64745 0.48026 0.0
C831 C 0.52464 0.59157 0.47383 0.0
C832 C 0.54309 0.67186 0.45405 0.0
C833 C 0.54979 0.66844 0.43164 0.0
C834 C 0.54712 0.65504 0.46869 0.0
C835 C 0.55767 0.63403 0.4606 0.0
C836 C 0.56193 0.62918 0.43733 0.0
C837 C 0.55818 0.64661 0.42313 0.0
C838 C 0.54231 0.66098 0.49339 0.0
C839 C 0.57221 0.60652 0.42784 0.0
H840 H 0.62119 0.62323 0.51493 0.0
H841 H 0.54729 0.57779 0.51102 0.0
H842 H 0.6129 0.64331 0.46166 0.0
H843 H 0.60384 0.66489 0.48349 0.0
H844 H 0.63118 0.6502 0.48935 0.0
H845 H 0.51676 0.57348 0.47821 0.0
H846 H 0.51196 0.60476 0.47971 0.0
H847 H 0.52396 0.59002 0.45499 0.0
H848 H 0.53641 0.68858 0.46073 0.0
H849 H 0.56309 0.64368 0.40574 0.0
H850 H 0.56099 0.66549 0.50428 0.0
H851 H 0.53099 0.64495 0.49893 0.0
H852 H 0.53187 0.67675 0.49644 0.0
H853 H 0.59321 0.60906 0.43298 0.0
H854 H 0.56902 0.60271 0.40891 0.0
H855 H 0.56304 0.59033 0.43472 0.0
C856 C 0.88139 0.79609 0.75738 0.0
C857 C 0.86524 0.77647 0.76384 0.0
C858 C 0.89577 0.7926 0.7387 0.0
C859 C 0.89434 0.76883 0.72624 0.0
C860 C 0.87859 0.74883 0.73295 0.0
C861 C 0.86418 0.75289 0.7516 0.0
C862 C 0.91223 0.81445 0.7321 0.0
C863 C 0.87665 0.72317 0.7202 0.0
C864 C 0.90952 0.7625 0.66448 0.0
C865 C 0.93474 0.75739 0.66622 0.0
C866 C 0.89632 0.76647 0.68387 0.0
C867 C 0.90848 0.7651 0.70561 0.0
C868 C 0.93406 0.76024 0.70757 0.0
C869 C 0.94693 0.75658 0.68787 0.0
C870 C 0.86922 0.77194 0.68104 0.0
C871 C 0.94765 0.7585 0.73042 0.0
H872 H 0.88293 0.8143 0.76703 0.0
H873 H 0.8517 0.73762 0.75633 0.0
H874 H 0.93251 0.81147 0.73214 0.0
H875 H 0.90558 0.81675 0.7145 0.0
H876 H 0.91163 0.83166 0.7438 0.0
H877 H 0.86466 0.70943 0.72828 0.0
H878 H 0.86813 0.72223 0.70239 0.0
H879 H 0.89612 0.71815 0.7194 0.0
H880 H 0.89994 0.76326 0.64787 0.0
H881 H 0.96635 0.75251 0.68938 0.0
H882 H 0.86803 0.78963 0.69169 0.0
H883 H 0.85575 0.75758 0.68701 0.0
H884 H 0.86268 0.77287 0.66303 0.0
H885 H 0.94835 0.77575 0.74242 0.0
H886 H 0.96761 0.75486 0.72911 0.0
H887 H 0.93677 0.7436 0.73792 0.0
C888 C 0.0457 0.87465 0.5141 0.0
C889 C 0.0613 0.89698 0.52324 0.0
C890 C 0.03599 0.85832 0.52831 0.0
C891 C 0.04239 0.86432 0.55226 0.0
C892 C 0.05637 0.88777 0.56165 0.0
C893 C 0.0657 0.90388 0.54697 0.0
C894 C 0.02089 0.8337 0.51749 0.0
C895 C 0.06346 0.89502 0.58703 0.0
C896 C 0.00965 0.81743 0.58569 0.0
C897 C 0.02733 0.80107 0.58552 0.0
C898 C 0.01484 0.83911 0.57621 0.0
C899 C 0.0383 0.84453 0.56658 0.0
C900 C 0.057 0.82902 0.56816 0.0
C901 C 0.05123 0.8075 0.57748 0.0
C902 C 0.99449 0.85522 0.57506 0.0
C903 C 0.08247 0.83421 0.55851 0.0
H904 H 0.04244 0.86932 0.49572 0.0
H905 H 0.07803 0.92107 0.55401 0.0
H906 H 0.03304 0.81936 0.51895 0.0
H907 H 0.00366 0.82907 0.52647 0.0
H908 H 0.01459 0.83315 0.49914 0.0
H909 H 0.06949 0.91512 0.59189 0.0
H910 H 0.04709 0.889 0.59656 0.0
H911 H 0.07969 0.88593 0.5924 0.0
H912 H 0.9911 0.81253 0.59181 0.0
H913 H 0.06509 0.79507 0.57756 0.0
H914 H 0.98466 0.85202 0.55745 0.0
H915 H 0.00323 0.87484 0.57914 0.0
H916 H 0.97979 0.85129 0.58693 0.0
H917 H 0.07919 0.83194 0.53962 0.0
H918 H 0.09585 0.82177 0.56314 0.0
H919 H 0.09189 0.85337 0.56474 0.0
C920 C 0.16353 0.72292 0.7209 0.0
C921 C 0.18558 0.72546 0.70916 0.0
C922 C 0.13875 0.72119 0.70947 0.0
C923 C 0.13595 0.72275 0.68589 0.0
C924 C 0.15803 0.72514 0.67395 0.0
C925 C 0.18237 0.72593 0.68556 0.0
C926 C 0.1156 0.71785 0.72265 0.0
C927 C 0.15605 0.72724 0.64886 0.0
C928 C 0.07485 0.70026 0.64559 0.0
C929 C 0.06559 0.72214 0.6439 0.0
C930 C 0.09666 0.69989 0.6606 0.0
C931 C 0.11012 0.72211 0.67345 0.0
C932 C 0.10028 0.74415 0.67226 0.0
C933 C 0.07786 0.74382 0.65772 0.0
C934 C 0.10594 0.67587 0.66193 0.0
C935 C 0.11439 0.76834 0.6851 0.0
H936 H 0.16557 0.72272 0.73911 0.0
H937 H 0.19897 0.727 0.676 0.0
H938 H 0.10597 0.73417 0.72325 0.0
H939 H 0.10141 0.70188 0.71392 0.0
H940 H 0.12083 0.71506 0.74042 0.0
H941 H 0.17519 0.7302 0.64234 0.0
H942 H 0.14451 0.71035 0.63877 0.0
H943 H 0.14601 0.7427 0.64585 0.0
H944 H 0.06526 0.68351 0.63485 0.0
H945 H 0.07076 0.76075 0.65614 0.0
H946 H 0.11082 0.67391 0.67998 0.0
H947 H 0.12368 0.67538 0.65325 0.0
H948 H 0.09132 0.65997 0.65371 0.0
H949 H 0.11873 0.76714 0.70339 0.0
H950 H 0.10323 0.78346 0.68375 0.0
H951 H 0.13305 0.77298 0.67814 0.0
C952 C 0.97411 0.56208 0.50631 0.0
C953 C 0.94844 0.55472 0.49704 0.0
C954 C 0.98148 0.58356 0.5224 0.0
C955 C 0.96279 0.59821 0.52885 0.0
C956 C 0.93688 0.59087 0.51923 0.0
C957 C 0.92999 0.56907 0.50364 0.0
C958 C 0.00916 0.59052 0.5326 0.0
C959 C 0.91645 0.60618 0.5252 0.0
C960 C 0.97152 0.64494 0.58328 0.0
C961 C 0.97873 0.66687 0.57494 0.0
C962 C 0.96753 0.62228 0.56868 0.0
C963 C 0.97022 0.62162 0.54511 0.0
C964 C 0.97815 0.64367 0.53676 0.0
C965 C 0.98256 0.66596 0.5518 0.0
C966 C 0.95968 0.59911 0.57834 0.0
C967 C 0.98077 0.64388 0.51172 0.0
H968 H 0.98828 0.55079 0.50125 0.0
H969 H 0.91014 0.56328 0.49636 0.0
H970 H 0.01755 0.60847 0.52832 0.0
H971 H 0.01019 0.59252 0.55148 0.0
H972 H 0.02113 0.57674 0.5264 0.0
H973 H 0.89728 0.59807 0.51595 0.0
H974 H 0.91477 0.6082 0.5438 0.0
H975 H 0.92197 0.62482 0.52101 0.0
H976 H 0.96868 0.6455 0.60116 0.0
H977 H 0.98799 0.68283 0.54518 0.0
H978 H 0.97196 0.58538 0.57285 0.0
H979 H 0.93953 0.59104 0.57168 0.0
H980 H 0.96108 0.60245 0.59728 0.0
H981 H 0.99371 0.6311 0.50552 0.0
H982 H 0.98843 0.6624 0.50816 0.0
H983 H 0.96168 0.63752 0.50173 0.0
C984 C 0.8276 0.85762 0.20869 0.0
C985 C 0.80709 0.85021 0.2211 0.0
C986 C 0.8442 0.87991 0.21573 0.0
C987 C 0.84086 0.89496 0.23612 0.0
C988 C 0.81997 0.888 0.24853 0.0
C989 C 0.80315 0.86585 0.24073 0.0
C990 C 0.86601 0.88684 0.20177 0.0
C991 C 0.81603 0.90341 0.27055 0.0
C992 C 0.90347 0.93392 0.26388 0.0
C993 C 0.90135 0.95662 0.25728 0.0
C994 C 0.88321 0.91412 0.25828 0.0
C995 C 0.86056 0.91688 0.24519 0.0
C996 C 0.85798 0.93999 0.23907 0.0
C997 C 0.87834 0.95972 0.24546 0.0
C998 C 0.88648 0.88995 0.26562 0.0
C999 C 0.83438 0.94353 0.2247 0.0
H1000 H 0.83142 0.84561 0.19384 0.0
H1001 H 0.7872 0.8606 0.25029 0.0
H1002 H 0.86658 0.90591 0.1985 0.0
H1003 H 0.88462 0.88595 0.2114 0.0
H1004 H 0.86428 0.87453 0.18512 0.0
H1005 H 0.79784 0.89641 0.2773 0.0
H1006 H 0.83233 0.90359 0.28359 0.0
H1007 H 0.8158 0.92263 0.26806 0.0
H1008 H 0.92114 0.93158 0.27327 0.0
H1009 H 0.87672 0.97724 0.24024 0.0
H1010 H 0.88804 0.8764 0.25045 0.0
H1011 H 0.86944 0.88264 0.27375 0.0
H1012 H 0.90396 0.89157 0.2778 0.0
H1013 H 0.83375 0.9331 0.20727 0.0
H1014 H 0.83423 0.96308 0.22331 0.0
H1015 H 0.81664 0.93628 0.23192 0.0
C1016 C 0.8121 0.16597 0.31048 0.0
C1017 C 0.7898 0.16086 0.29493 0.0
C1018 C 0.83104 0.15082 0.3092 0.0
C1019 C 0.82775 0.13008 0.29187 0.0
C1020 C 0.80489 0.12433 0.27663 0.0
C1021 C 0.78622 0.13974 0.27836 0.0
C1022 C 0.85508 0.15762 0.3258 0.0
C1023 C 0.80058 0.1024 0.25792 0.0
C1024 C 0.88798 0.10936 0.27048 0.0
C1025 C 0.88978 0.0887 0.28098 0.0
C1026 C 0.86796 0.12289 0.27395 0.0
C1027 C 0.84916 0.11574 0.28837 0.0
C1028 C 0.85087 0.09499 0.29917 0.0
C1029 C 0.87114 0.08167 0.29532 0.0
C1030 C 0.86687 0.14483 0.26203 0.0
C1031 C 0.83127 0.08685 0.31475 0.0
H1032 H 0.81526 0.18236 0.32317 0.0
H1033 H 0.76889 0.13541 0.2665 0.0
H1034 H 0.85901 0.14158 0.33366 0.0
H1035 H 0.87182 0.16329 0.31657 0.0
H1036 H 0.85363 0.17284 0.33959 0.0
H1037 H 0.78101 0.09937 0.2486 0.0
H1038 H 0.81493 0.10505 0.24552 0.0
H1039 H 0.80337 0.08567 0.26511 0.0
H1040 H 0.90221 0.11499 0.25935 0.0
H1041 H 0.87235 0.06576 0.30352 0.0
H1042 H 0.86751 0.1615 0.27479 0.0
H1043 H 0.84847 0.14225 0.25091 0.0
H1044 H 0.88301 0.14802 0.2514 0.0
H1045 H 0.83082 0.10192 0.32895 0.0
H1046 H 0.83542 0.07052 0.32205 0.0
H1047 H 0.81179 0.08246 0.30523 0.0
C1048 C 0.37405 0.95658 0.95827 0.0
C1049 C 0.39541 0.96903 0.97323 0.0
C1050 C 0.3564 0.93817 0.96483 0.0
C1051 C 0.35979 0.9323 0.9871 0.0
C1052 C 0.38097 0.94506 0.00247 0.0
C1053 C 0.39863 0.96308 0.9953 0.0
C1054 C 0.33422 0.92484 0.94783 0.0
C1055 C 0.38509 0.93955 0.02645 0.0
C1056 C 0.30104 0.89802 0.00856 0.0
C1057 C 0.30587 0.87386 0.0051 0.0
C1058 C 0.31871 0.91733 0.00333 0.0
C1059 C 0.34153 0.91232 0.99401 0.0
C1060 C 0.34657 0.888 0.99061 0.0
C1061 C 0.32883 0.86914 0.99637 0.0
C1062 C 0.31286 0.94308 0.00759 0.0
C1063 C 0.37045 0.88181 0.98037 0.0
H1064 H 0.37092 0.96136 0.94139 0.0
H1065 H 0.41516 0.97232 0.00695 0.0
H1066 H 0.33495 0.90493 0.94502 0.0
H1067 H 0.31568 0.92721 0.95465 0.0
H1068 H 0.33442 0.93143 0.93112 0.0
H1069 H 0.40173 0.95196 0.03669 0.0
H1070 H 0.36759 0.94127 0.03527 0.0
H1071 H 0.38846 0.92041 0.02593 0.0
H1072 H 0.28344 0.90186 0.01542 0.0
H1073 H 0.33268 0.85053 0.99346 0.0
H1074 H 0.31075 0.95016 0.9912 0.0
H1075 H 0.32907 0.95534 0.01852 0.0
H1076 H 0.29495 0.9441 0.01598 0.0
H1077 H 0.37059 0.88686 0.96303 0.0
H1078 H 0.37172 0.86204 0.9791 0.0
H1079 H 0.3879 0.89253 0.99082 0.0
C1080 C 0.26162 0.38771 0.30712 0.0
C1081 C 0.27134 0.36899 0.29385 0.0
C1082 C 0.24345 0.40021 0.29755 0.0
C1083 C 0.23383 0.39325 0.27427 0.0
C1084 C 0.24129 0.37259 0.26144 0.0
C1085 C 0.26026 0.36092 0.27125 0.0
C1086 C 0.23625 0.42218 0.31194 0.0
C1087 C 0.23045 0.36374 0.23692 0.0
C1088 C 0.18123 0.42865 0.2564 0.0
C1089 C 0.1956 0.4476 0.24749 0.0
C1090 C 0.19289 0.40957 0.2636 0.0
C1091 C 0.21971 0.41009 0.26274 0.0
C1092 C 0.234 0.42869 0.25296 0.0
C1093 C 0.22171 0.44686 0.24513 0.0
C1094 C 0.17665 0.38952 0.27294 0.0
C1095 C 0.26273 0.43045 0.25214 0.0
H1096 H 0.26915 0.39345 0.32487 0.0
H1097 H 0.2673 0.34635 0.26079 0.0
H1098 H 0.24352 0.43901 0.30504 0.0
H1099 H 0.21504 0.42062 0.31128 0.0
H1100 H 0.24433 0.42439 0.33007 0.0
H1101 H 0.23358 0.34477 0.23101 0.0
H1102 H 0.20952 0.36438 0.23468 0.0
H1103 H 0.24 0.37586 0.22584 0.0
H1104 H 0.16102 0.42892 0.25814 0.0
H1105 H 0.23311 0.46141 0.23837 0.0
H1106 H 0.17823 0.39398 0.29181 0.0
H1107 H 0.18323 0.37169 0.26845 0.0
H1108 H 0.15603 0.38758 0.26641 0.0
H1109 H 0.2725 0.4332 0.26976 0.0
H1110 H 0.27092 0.44579 0.24359 0.0
H1111 H 0.26726 0.4132 0.24294 0.0
C1112 C 0.1405 0.03919 0.46281 0.0
C1113 C 0.13227 0.02958 0.48197 0.0
C1114 C 0.1622 0.05749 0.46477 0.0
C1115 C 0.17599 0.06655 0.48647 0.0
C1116 C 0.16818 0.05648 0.50581 0.0
C1117 C 0.14647 0.03801 0.50331 0.0
C1118 C 0.17001 0.06753 0.44369 0.0
C1119 C 0.18226 0.06577 0.52926 0.0
C1120 C 0.24288 0.10436 0.48934 0.0
C1121 C 0.23747 0.12833 0.4931 0.0
C1122 C 0.22311 0.08402 0.48723 0.0
C1123 C 0.19739 0.08773 0.48909 0.0
C1124 C 0.19186 0.11184 0.49299 0.0
C1125 C 0.21188 0.13177 0.49485 0.0
C1126 C 0.22972 0.05857 0.48289 0.0
C1127 C 0.16472 0.11663 0.49519 0.0
H1128 H 0.12988 0.03237 0.4462 0.0
H1129 H 0.14016 0.03063 0.51815 0.0
H1130 H 0.16773 0.08706 0.44527 0.0
H1131 H 0.1906 0.06668 0.44193 0.0
H1132 H 0.15832 0.05739 0.42789 0.0
H1133 H 0.17476 0.05503 0.54229 0.0
H1134 H 0.2031 0.06509 0.52898 0.0
H1135 H 0.18031 0.08519 0.53452 0.0
H1136 H 0.26254 0.10146 0.48797 0.0
H1137 H 0.2074 0.15015 0.49789 0.0
H1138 H 0.21922 0.04846 0.46657 0.0
H1139 H 0.22347 0.04826 0.4966 0.0
H1140 H 0.25067 0.05875 0.48207 0.0
H1141 H 0.15222 0.10849 0.47921 0.0
H1142 H 0.16372 0.13648 0.49873 0.0
H1143 H 0.15669 0.10779 0.50916 0.0
C1144 C 0.77201 0.17619 0.72478 0.0
C1145 C 0.7875 0.18243 0.74572 0.0
C1146 C 0.75115 0.15672 0.72135 0.0
C1147 C 0.74584 0.14318 0.73924 0.0
C1148 C 0.76092 0.14995 0.76061 0.0
C1149 C 0.7814 0.16952 0.7636 0.0
C1150 C 0.73533 0.15018 0.69841 0.0
C1151 C 0.75595 0.13603 0.78017 0.0
C1152 C 0.68406 0.10009 0.74275 0.0
C1153 C 0.69185 0.07727 0.73737 0.0
C1154 C 0.7008 0.12189 0.7418 0.0
C1155 C 0.72591 0.12077 0.73547 0.0
C1156 C 0.73318 0.09774 0.72853 0.0
C1157 C 0.71607 0.07631 0.72955 0.0
C1158 C 0.69221 0.1461 0.74899 0.0
C1159 C 0.75976 0.09567 0.7217 0.0
H1160 H 0.77658 0.18611 0.7109 0.0
H1161 H 0.79283 0.17465 0.78003 0.0
H1162 H 0.73888 0.13227 0.68973 0.0
H1163 H 0.71451 0.14825 0.70056 0.0
H1164 H 0.74006 0.16409 0.68719 0.0
H1165 H 0.76884 0.14423 0.79594 0.0
H1166 H 0.73571 0.13556 0.78402 0.0
H1167 H 0.75886 0.11682 0.77534 0.0
H1168 H 0.66532 0.101 0.74868 0.0
H1169 H 0.72234 0.05882 0.72535 0.0
H1170 H 0.69775 0.15902 0.73707 0.0
H1171 H 0.70189 0.15444 0.76617 0.0
H1172 H 0.67107 0.144 0.74973 0.0
H1173 H 0.76489 0.10786 0.70909 0.0
H1174 H 0.76138 0.07665 0.71427 0.0
H1175 H 0.7741 0.10157 0.73693 0.0
C1176 C 0.47329 0.06195 0.51308 0.0
C1177 C 0.4704 0.04597 0.52918 0.0
C1178 C 0.45531 0.07736 0.50937 0.0
C1179 C 0.43391 0.07705 0.5222 0.0
C1180 C 0.43093 0.06115 0.53864 0.0
C1181 C 0.44923 0.0458 0.54195 0.0
C1182 C 0.45937 0.09417 0.49183 0.0
C1183 C 0.40845 0.0604 0.55275 0.0
C1184 C 0.40386 0.13475 0.52886 0.0
C1185 C 0.38211 0.1284 0.51268 0.0
C1186 C 0.42055 0.1181 0.53232 0.0
C1187 C 0.41554 0.0944 0.51924 0.0
C1188 C 0.39365 0.08777 0.50285 0.0
C1189 C 0.37715 0.10485 0.49977 0.0
C1190 C 0.44367 0.12596 0.54994 0.0
C1191 C 0.38777 0.06268 0.4885 0.0
H1192 H 0.48983 0.06252 0.50341 0.0
H1193 H 0.44675 0.03337 0.55426 0.0
H1194 H 0.44215 0.09103 0.47915 0.0
H1195 H 0.46198 0.11351 0.50026 0.0
H1196 H 0.47644 0.09148 0.48263 0.0
H1197 H 0.40855 0.04662 0.56442 0.0
H1198 H 0.40889 0.07864 0.56309 0.0
H1199 H 0.3901 0.05607 0.54141 0.0
H1200 H 0.40791 0.15285 0.539 0.0
H1201 H 0.36036 0.09975 0.48731 0.0
H1202 H 0.46161 0.12515 0.5416 0.0
H1203 H 0.44329 0.11327 0.56263 0.0
H1204 H 0.44447 0.14485 0.55912 0.0
H1205 H 0.40384 0.05972 0.47811 0.0
H1206 H 0.36971 0.06016 0.47688 0.0
H1207 H 0.386 0.04842 0.49968 0.0
C1208 C 0.62733 0.47848 0.5588 0.0
C1209 C 0.60039 0.475 0.55729 0.0
C1210 C 0.64035 0.45925 0.55131 0.0
C1211 C 0.62607 0.43606 0.5416 0.0
C1212 C 0.5988 0.43271 0.53924 0.0
C1213 C 0.58626 0.45216 0.54745 0.0
C1214 C 0.6694 0.46347 0.55475 0.0
C1215 C 0.58289 0.40844 0.52855 0.0
C1216 C 0.66401 0.39074 0.51092 0.0
C1217 C 0.66844 0.37631 0.52775 0.0
C1218 C 0.6494 0.40975 0.51479 0.0
C1219 C 0.63972 0.41481 0.5362 0.0
C1220 C 0.64414 0.40021 0.55315 0.0
C1221 C 0.65811 0.38102 0.54861 0.0
C1222 C 0.64453 0.42456 0.49611 0.0
C1223 C 0.6348 0.40532 0.57643 0.0
H1224 H 0.63824 0.49613 0.56658 0.0
H1225 H 0.56542 0.44956 0.54615 0.0
H1226 H 0.67593 0.45184 0.56693 0.0
H1227 H 0.67731 0.45811 0.53843 0.0
H1228 H 0.67764 0.48287 0.56152 0.0
H1229 H 0.56212 0.40962 0.52559 0.0
H1230 H 0.58976 0.40178 0.51203 0.0
H1231 H 0.58508 0.39462 0.53985 0.0
H1232 H 0.67184 0.38711 0.49473 0.0
H1233 H 0.66162 0.37012 0.56182 0.0
H1234 H 0.65421 0.44377 0.50151 0.0
H1235 H 0.62361 0.42487 0.49289 0.0
H1236 H 0.65164 0.41717 0.4799 0.0
H1237 H 0.64339 0.42411 0.58485 0.0
H1238 H 0.63983 0.3922 0.58771 0.0
H1239 H 0.61361 0.40435 0.57472 0.0
C1240 C 0.76458 0.23358 0.35364 0.0
C1241 C 0.74348 0.2215 0.33832 0.0
C1242 C 0.76109 0.24658 0.37482 0.0
C1243 C 0.73586 0.24711 0.38107 0.0
C1244 C 0.71443 0.23529 0.36548 0.0
C1245 C 0.7185 0.22282 0.34414 0.0
C1246 C 0.78449 0.25927 0.39072 0.0
C1247 C 0.68728 0.23506 0.37166 0.0
C1248 C 0.73483 0.25606 0.44522 0.0
C1249 C 0.73392 0.28112 0.45039 0.0
C1250 C 0.73368 0.24446 0.42258 0.0
C1251 C 0.73232 0.2584 0.40463 0.0
C1252 C 0.73026 0.28355 0.40968 0.0
C1253 C 0.73079 0.29458 0.43257 0.0
C1254 C 0.7353 0.21752 0.418 0.0
C1255 C 0.7292 0.29913 0.39108 0.0
H1256 H 0.78389 0.23288 0.34898 0.0
H1257 H 0.70219 0.21347 0.33225 0.0
H1258 H 0.78271 0.27863 0.39655 0.0
H1259 H 0.78591 0.25028 0.40609 0.0
H1260 H 0.8026 0.25886 0.38254 0.0
H1261 H 0.6727 0.22655 0.35709 0.0
H1262 H 0.68429 0.22467 0.38601 0.0
H1263 H 0.68401 0.25396 0.37753 0.0
H1264 H 0.73705 0.24559 0.45901 0.0
H1265 H 0.7303 0.31401 0.43657 0.0
H1266 H 0.75422 0.21506 0.412 0.0
H1267 H 0.72019 0.20784 0.40432 0.0
H1268 H 0.73314 0.20874 0.43347 0.0
H1269 H 0.74811 0.30156 0.38411 0.0
H1270 H 0.72466 0.31749 0.39741 0.0
H1271 H 0.7146 0.29001 0.37679 0.0
C1272 C 0.50711 0.99379 0.87271 0.0
C1273 C 0.4889 0.00869 0.86809 0.0
C1274 C 0.52911 0.99384 0.86085 0.0
C1275 C 0.53306 0.00937 0.8442 0.0
C1276 C 0.51515 0.02507 0.84012 0.0
C1277 C 0.49327 0.02446 0.85202 0.0
C1278 C 0.54771 0.97678 0.86564 0.0
C1279 C 0.51881 0.04222 0.82282 0.0
C1280 C 0.59953 0.02663 0.82542 0.0
C1281 C 0.59755 0.01204 0.80387 0.0
C1282 C 0.57896 0.02548 0.83895 0.0
C1283 C 0.55579 0.00924 0.83086 0.0
C1284 C 0.55386 0.99396 0.8094 0.0
C1285 C 0.57473 0.99559 0.79612 0.0
C1286 C 0.58179 0.04221 0.86163 0.0
C1287 C 0.52953 0.97627 0.80025 0.0
H1288 H 0.50364 0.9814 0.88494 0.0
H1289 H 0.4793 0.03613 0.84854 0.0
H1290 H 0.54822 0.96347 0.85002 0.0
H1291 H 0.56745 0.98724 0.8703 0.0
H1292 H 0.54239 0.9665 0.87965 0.0
H1293 H 0.50356 0.05383 0.82222 0.0
H1294 H 0.53778 0.05431 0.82691 0.0
H1295 H 0.51866 0.03152 0.8056 0.0
H1296 H 0.61706 0.03939 0.83164 0.0
H1297 H 0.57305 0.98419 0.77956 0.0
H1298 H 0.57718 0.03144 0.87543 0.0
H1299 H 0.56794 0.05522 0.86116 0.0
H1300 H 0.60151 0.05286 0.86602 0.0
H1301 H 0.52396 0.96431 0.81295 0.0
H1302 H 0.53164 0.96457 0.784 0.0
H1303 H 0.51353 0.98656 0.79723 0.0
C1304 C 0.30397 0.23462 0.33402 0.0
C1305 C 0.3278 0.24814 0.33154 0.0
C1306 C 0.30068 0.22244 0.35292 0.0
C1307 C 0.32155 0.22451 0.37 0.0
C1308 C 0.34595 0.2374 0.36699 0.0
C1309 C 0.34881 0.2489 0.34767 0.0
C1310 C 0.2745 0.2085 0.3552 0.0
C1311 C 0.36858 0.24055 0.38494 0.0
C1312 C 0.3042 0.22508 0.43064 0.0
C1313 C 0.30872 0.20211 0.43526 0.0
C1314 C 0.3085 0.23249 0.4096 0.0
C1315 C 0.31699 0.21636 0.39234 0.0
C1316 C 0.32129 0.19297 0.39669 0.0
C1317 C 0.31743 0.18622 0.41825 0.0
C1318 C 0.30422 0.25781 0.40598 0.0
C1319 C 0.32979 0.17507 0.37854 0.0
H1320 H 0.28775 0.23413 0.32149 0.0
H1321 H 0.36718 0.25959 0.34574 0.0
H1322 H 0.27629 0.19051 0.36035 0.0
H1323 H 0.26541 0.21891 0.36872 0.0
H1324 H 0.26155 0.20547 0.33904 0.0
H1325 H 0.38679 0.24878 0.37897 0.0
H1326 H 0.36493 0.25265 0.40041 0.0
H1327 H 0.37109 0.22271 0.39004 0.0
H1328 H 0.29778 0.23763 0.44376 0.0
H1329 H 0.32088 0.16843 0.42167 0.0
H1330 H 0.28911 0.2565 0.39159 0.0
H1331 H 0.32213 0.26821 0.4014 0.0
H1332 H 0.29827 0.26837 0.42137 0.0
H1333 H 0.31574 0.17151 0.36306 0.0
H1334 H 0.33164 0.15738 0.38436 0.0
H1335 H 0.3486 0.18299 0.37349 0.0
C1336 C 0.53135 0.47899 0.92651 0.0
C1337 C 0.5423 0.49805 0.94417 0.0
C1338 C 0.51591 0.48344 0.90772 0.0
C1339 C 0.5116 0.50758 0.90635 0.0
C1340 C 0.52058 0.52641 0.92507 0.0
C1341 C 0.53565 0.52138 0.94382 0.0
C1342 C 0.50625 0.46268 0.88836 0.0
C1343 C 0.51637 0.55238 0.92443 0.0
C1344 C 0.51163 0.52167 0.84609 0.0
C1345 C 0.48538 0.52013 0.83926 0.0
C1346 C 0.52033 0.51882 0.86822 0.0
C1347 C 0.50227 0.51377 0.88392 0.0
C1348 C 0.47572 0.51318 0.87746 0.0
C1349 C 0.46756 0.51658 0.85515 0.0
C1350 C 0.54887 0.52017 0.87444 0.0
C1351 C 0.45587 0.50764 0.8936 0.0
H1352 H 0.53634 0.46091 0.92646 0.0
H1353 H 0.54348 0.53611 0.95765 0.0
H1354 H 0.48607 0.46318 0.88196 0.0
H1355 H 0.51815 0.46463 0.874 0.0
H1356 H 0.5073 0.44455 0.89356 0.0
H1357 H 0.52026 0.56375 0.94163 0.0
H1358 H 0.52953 0.56075 0.91305 0.0
H1359 H 0.4964 0.55284 0.91741 0.0
H1360 H 0.52544 0.52457 0.83383 0.0
H1361 H 0.44722 0.51515 0.8498 0.0
H1362 H 0.55292 0.50194 0.8774 0.0
H1363 H 0.55538 0.53317 0.89049 0.0
H1364 H 0.56045 0.52608 0.86086 0.0
H1365 H 0.45383 0.48801 0.89539 0.0
H1366 H 0.43674 0.51151 0.8874 0.0
H1367 H 0.46199 0.51844 0.91083 0.0
C1368 C 0.79832 0.78142 0.15001 0.0
C1369 C 0.77609 0.77715 0.16115 0.0
C1370 C 0.80042 0.76777 0.12879 0.0
C1371 C 0.77975 0.74939 0.1184 0.0
C1372 C 0.7568 0.74567 0.12906 0.0
C1373 C 0.75528 0.75954 0.1504 0.0
C1374 C 0.8253 0.77222 0.11807 0.0
C1375 C 0.73426 0.72642 0.11835 0.0
C1376 C 0.78483 0.72546 0.05622 0.0
C1377 C 0.79667 0.70494 0.05812 0.0
C1378 C 0.77793 0.73947 0.0756 0.0
C1379 C 0.78321 0.73289 0.09736 0.0
C1380 C 0.79413 0.71159 0.09924 0.0
C1381 C 0.80065 0.69785 0.0796 0.0
C1382 C 0.76608 0.76193 0.07291 0.0
C1383 C 0.80012 0.70397 0.12215 0.0
H1384 H 0.81465 0.79471 0.15838 0.0
H1385 H 0.73799 0.7563 0.1589 0.0
H1386 H 0.83484 0.75582 0.11757 0.0
H1387 H 0.82142 0.77527 0.10021 0.0
H1388 H 0.83887 0.78825 0.12761 0.0
H1389 H 0.71692 0.72757 0.12756 0.0
H1390 H 0.72939 0.72827 0.10027 0.0
H1391 H 0.73947 0.70797 0.11845 0.0
H1392 H 0.78168 0.73108 0.0397 0.0
H1393 H 0.80968 0.68195 0.08122 0.0
H1394 H 0.78012 0.77858 0.08021 0.0
H1395 H 0.7489 0.7622 0.08242 0.0
H1396 H 0.76036 0.76288 0.05473 0.0
H1397 H 0.81532 0.71794 0.13258 0.0
H1398 H 0.80687 0.686 0.12053 0.0
H1399 H 0.78285 0.70284 0.13159 0.0
C1400 C 0.02551 0.99044 0.11669 0.0
C1401 C 0.04557 0.00968 0.11575 0.0
C1402 C 0.01111 0.99057 0.13559 0.0
C1403 C 0.01681 0.01046 0.15386 0.0
C1404 C 0.03742 0.02959 0.15319 0.0
C1405 C 0.05164 0.02883 0.13432 0.0
C1406 C 0.98953 0.96966 0.13586 0.0
C1407 C 0.04422 0.05115 0.17227 0.0
C1408 C 0.96751 0.02818 0.19352 0.0
C1409 C 0.97645 0.02059 0.21373 0.0
C1410 C 0.97974 0.02401 0.17355 0.0
C1411 C 1.00129 0.01172 0.1737 0.0
C1412 C 0.00961 0.00296 0.19371 0.0
C1413 C 0.99726 0.00769 0.2135 0.0
C1414 C 0.9704 0.03385 0.15263 0.0
C1415 C 0.03232 0.98955 0.19454 0.0
H1416 H 0.02065 0.97561 0.10241 0.0
H1417 H 0.06752 0.04346 0.13405 0.0
H1418 H 0.99214 0.96171 0.15175 0.0
H1419 H 0.9709 0.9765 0.13574 0.0
H1420 H 0.98843 0.95494 0.12098 0.0
H1421 H 0.06074 0.06458 0.16908 0.0
H1422 H 0.02741 0.06066 0.17442 0.0
H1423 H 0.04913 0.04474 0.18861 0.0
H1424 H 0.95145 0.03815 0.19349 0.0
H1425 H 0.00446 0.00182 0.22896 0.0
H1426 H 0.96741 0.01933 0.13744 0.0
H1427 H 0.98524 0.04881 0.14928 0.0
H1428 H 0.95214 0.04111 0.15462 0.0
H1429 H 0.03038 0.97483 0.17958 0.0
H1430 H 0.03439 0.98134 0.21036 0.0
H1431 H 0.05025 0.00244 0.1938 0.0
C1432 C 0.32166 0.80782 0.16913 0.0
C1433 C 0.30708 0.79161 0.18086 0.0
C1434 C 0.31244 0.8118 0.14747 0.0
C1435 C 0.2879 0.79946 0.1374 0.0
C1436 C 0.27343 0.78246 0.14885 0.0
C1437 C 0.28329 0.77862 0.17043 0.0
C1438 C 0.32861 0.82979 0.13567 0.0
C1439 C 0.24711 0.76909 0.13874 0.0
C1440 C 0.25231 0.83067 0.09515 0.0
C1441 C 0.25572 0.81719 0.07418 0.0
C1442 C 0.26255 0.82496 0.11583 0.0
C1443 C 0.27679 0.80545 0.11554 0.0
C1444 C 0.28056 0.79194 0.09444 0.0
C1445 C 0.26982 0.79786 0.07401 0.0
C1446 C 0.25796 0.83972 0.138 0.0
C1447 C 0.29587 0.77119 0.09345 0.0
H1448 H 0.34021 0.81767 0.17709 0.0
H1449 H 0.27193 0.76621 0.17957 0.0
H1450 H 0.33086 0.82121 0.11811 0.0
H1451 H 0.31883 0.84577 0.13419 0.0
H1452 H 0.34803 0.83647 0.14502 0.0
H1453 H 0.23901 0.75543 0.14915 0.0
H1454 H 0.23373 0.78244 0.13746 0.0
H1455 H 0.24799 0.75959 0.12121 0.0
H1456 H 0.24132 0.84554 0.09547 0.0
H1457 H 0.27236 0.78718 0.05793 0.0
H1458 H 0.27662 0.84865 0.14768 0.0
H1459 H 0.24803 0.82746 0.14877 0.0
H1460 H 0.24616 0.85407 0.13529 0.0
H1461 H 0.31553 0.7779 0.1022 0.0
H1462 H 0.29745 0.76277 0.07565 0.0
H1463 H 0.28669 0.75681 0.10258 0.0
C1464 C 0.03633 0.48488 0.0887 0.0
C1465 C 0.03182 0.50777 0.08388 0.0
C1466 C 0.05033 0.48272 0.10921 0.0
C1467 C 0.06041 0.50401 0.12518 0.0
C1468 C 0.05482 0.52702 0.12088 0.0
C1469 C 0.0405 0.5286 0.10035 0.0
C1470 C 0.05548 0.45781 0.11323 0.0
C1471 C 0.06536 0.55022 0.1373 0.0
C1472 C 0.09007 0.50067 0.18514 0.0
C1473 C 0.11643 0.50365 0.1823 0.0
C1474 C 0.07145 0.50007 0.16662 0.0
C1475 C 0.07938 0.50275 0.14481 0.0
C1476 C 0.10586 0.50514 0.14176 0.0
C1477 C 0.12395 0.50543 0.16042 0.0
C1478 C 0.04336 0.49711 0.17047 0.0
C1479 C 0.11525 0.50813 0.11886 0.0
H1480 H 0.02941 0.46868 0.07614 0.0
H1481 H 0.03729 0.54637 0.09666 0.0
H1482 H 0.07602 0.45662 0.11157 0.0
H1483 H 0.05174 0.45489 0.13078 0.0
H1484 H 0.04346 0.44283 0.10085 0.0
H1485 H 0.05721 0.56622 0.13264 0.0
H1486 H 0.06123 0.548 0.15491 0.0
H1487 H 0.08659 0.55417 0.13739 0.0
H1488 H 0.08397 0.49923 0.20191 0.0
H1489 H 0.14418 0.50769 0.15786 0.0
H1490 H 0.0321 0.48193 0.15786 0.0
H1491 H 0.03572 0.51403 0.1679 0.0
H1492 H 0.04016 0.49337 0.18793 0.0
H1493 H 0.10596 0.49248 0.10573 0.0
H1494 H 0.13646 0.50934 0.11922 0.0
H1495 H 0.10983 0.52498 0.11344 0.0
C1496 C 0.38381 0.73584 0.2981 0.0
C1497 C 0.37279 0.71587 0.28139 0.0
C1498 C 0.40462 0.73422 0.31368 0.0
C1499 C 0.41459 0.71204 0.31264 0.0
C1500 C 0.40377 0.69188 0.29567 0.0
C1501 C 0.38303 0.69405 0.28022 0.0
C1502 C 0.41562 0.75614 0.33153 0.0
C1503 C 0.41388 0.66794 0.29404 0.0
C1504 C 0.48142 0.71662 0.34342 0.0
C1505 C 0.47565 0.71048 0.36468 0.0
C1506 C 0.46176 0.71644 0.326 0.0
C1507 C 0.43575 0.70983 0.3299 0.0
C1508 C 0.42986 0.70257 0.35092 0.0
C1509 C 0.44985 0.70304 0.36806 0.0
C1510 C 0.46879 0.72431 0.30379 0.0
C1511 C 0.40237 0.69517 0.35565 0.0
H1512 H 0.37579 0.75263 0.29935 0.0
H1513 H 0.37481 0.67864 0.26717 0.0
H1514 H 0.41302 0.75156 0.3488 0.0
H1515 H 0.4366 0.76113 0.33065 0.0
H1516 H 0.40636 0.77233 0.32945 0.0
H1517 H 0.40383 0.65425 0.27946 0.0
H1518 H 0.43477 0.671 0.29211 0.0
H1519 H 0.41151 0.6602 0.31002 0.0
H1520 H 0.50126 0.7224 0.3406 0.0
H1521 H 0.44516 0.69806 0.38434 0.0
H1522 H 0.46181 0.74172 0.302 0.0
H1523 H 0.45928 0.71046 0.28914 0.0
H1524 H 0.4899 0.72705 0.30277 0.0
H1525 H 0.39213 0.7111 0.35597 0.0
H1526 H 0.40111 0.68834 0.37221 0.0
H1527 H 0.39211 0.68067 0.34185 0.0
C1528 C 0.05402 0.41928 0.98324 0.0
C1529 C 0.04338 0.43233 0.96752 0.0
C1530 C 0.05446 0.39414 0.97744 0.0
C1531 C 0.0436 0.38176 0.95554 0.0
C1532 C 0.03267 0.39486 0.93968 0.0
C1533 C 0.03285 0.42002 0.94582 0.0
C1534 C 0.06655 0.38083 0.9947 0.0
C1535 C 0.02051 0.38223 0.91632 0.0
C1536 C 0.06237 0.32073 0.93233 0.0
C1537 C 0.0419 0.30412 0.93756 0.0
C1538 C 0.06332 0.34608 0.93828 0.0
C1539 C 0.04311 0.35499 0.94937 0.0
C1540 C 0.02224 0.33832 0.95439 0.0
C1541 C 0.02198 0.31311 0.94858 0.0
C1542 C 0.08604 0.36333 0.93289 0.0
C1543 C 1.0001 0.34713 0.96583 0.0
H1544 H 0.06234 0.42885 0.99997 0.0
H1545 H 0.02434 0.43006 0.93375 0.0
H1546 H 0.05197 0.36619 0.99893 0.0
H1547 H 0.08205 0.37188 0.98737 0.0
H1548 H 0.07481 0.39326 0.01072 0.0
H1549 H 0.01289 0.39507 0.90598 0.0
H1550 H 0.0348 0.3734 0.90691 0.0
H1551 H 0.00448 0.36755 0.91803 0.0
H1552 H 0.0779 0.31392 0.92394 0.0
H1553 H 0.00599 0.3004 0.95253 0.0
H1554 H 0.09571 0.37506 0.9488 0.0
H1555 H 0.07939 0.37563 0.92147 0.0
H1556 H 0.10036 0.35346 0.92452 0.0
H1557 H 0.00727 0.35821 0.98275 0.0
H1558 H 0.98514 0.33178 0.96824 0.0
H1559 H 0.99103 0.35912 0.95546 0.0
C1560 C 0.70799 0.77949 0.29103 0.0
C1561 C 0.71659 0.75742 0.28363 0.0
C1562 C 0.6874 0.78005 0.30453 0.0
C1563 C 0.67542 0.7581 0.31103 0.0
C1564 C 0.68329 0.73567 0.30281 0.0
C1565 C 0.70359 0.73559 0.28907 0.0
C1566 C 0.67926 0.80427 0.31265 0.0
C1567 C 0.67109 0.71185 0.30942 0.0
C1568 C 0.64759 0.75945 0.36773 0.0
C1569 C 0.62105 0.75394 0.36095 0.0
C1570 C 0.66541 0.7617 0.35167 0.0
C1571 C 0.6565 0.75868 0.32821 0.0
C1572 C 0.62972 0.75435 0.3213 0.0
C1573 C 0.61226 0.75185 0.33776 0.0
C1574 C 0.69381 0.76615 0.35976 0.0
C1575 C 0.61952 0.75148 0.29647 0.0
H1576 H 0.71793 0.79648 0.287 0.0
H1577 H 0.70961 0.71837 0.28293 0.0
H1578 H 0.65801 0.80265 0.31007 0.0
H1579 H 0.68519 0.80976 0.3312 0.0
H1580 H 0.68801 0.819 0.30365 0.0
H1581 H 0.67839 0.69583 0.30052 0.0
H1582 H 0.67514 0.71249 0.32809 0.0
H1583 H 0.64989 0.70907 0.30543 0.0
H1584 H 0.6546 0.76119 0.3856 0.0
H1585 H 0.59178 0.74777 0.3324 0.0
H1586 H 0.70376 0.78226 0.35326 0.0
H1587 H 0.70249 0.75012 0.35291 0.0
H1588 H 0.69756 0.7693 0.37867 0.0
H1589 H 0.6291 0.76669 0.28852 0.0
H1590 H 0.59838 0.75106 0.29417 0.0
H1591 H 0.62389 0.7342 0.28715 0.0
C1592 C 0.10115 0.11458 0.00697 0.0
C1593 C 0.08384 0.09806 0.01619 0.0
C1594 C 0.09304 0.12582 0.98876 0.0
C1595 C 0.06707 0.11998 0.97909 0.0
C1596 C 0.05004 0.1017 0.98693 0.0
C1597 C 0.05856 0.0911 0.00558 0.0
C1598 C 0.11191 0.1452 0.98095 0.0
C1599 C 0.02245 0.09438 0.97657 0.0
C1600 C 0.0455 0.17449 0.95736 0.0
C1601 C 0.05123 0.17076 0.93467 0.0
C1602 C 0.04875 0.15713 0.97164 0.0
C1603 C 0.05746 0.13528 0.96288 0.0
C1604 C 0.06068 0.13029 0.93939 0.0
C1605 C 0.05779 0.14824 0.92557 0.0
C1606 C 0.04513 0.16326 0.9966 0.0
C1607 C 0.06898 0.1068 0.92921 0.0
H1608 H 0.12091 0.11951 0.01465 0.0
H1609 H 0.04502 0.07833 0.01254 0.0
H1610 H 0.11249 0.14115 0.96223 0.0
H1611 H 0.1056 0.16325 0.98476 0.0
H1612 H 0.13172 0.14666 0.98944 0.0
H1613 H 0.01355 0.07658 0.98093 0.0
H1614 H 0.0111 0.10851 0.98313 0.0
H1615 H 0.02108 0.09304 0.95772 0.0
H1616 H 0.04025 0.19177 0.9645 0.0
H1617 H 0.06192 0.14508 0.90795 0.0
H1618 H 0.06414 0.16656 0.00693 0.0
H1619 H 0.03309 0.14774 0.0023 0.0
H1620 H 0.03599 0.17982 1.00023 0.0
H1621 H 0.08994 0.10792 0.9338 0.0
H1622 H 0.06517 0.10336 0.9103 0.0
H1623 H 0.05894 0.09099 0.93608 0.0
C1624 C 0.38654 0.25725 0.26321 0.0
C1625 C 0.36447 0.268 0.2598 0.0
C1626 C 0.40168 0.25198 0.24535 0.0
C1627 C 0.39473 0.25772 0.22352 0.0
C1628 C 0.37269 0.26885 0.22003 0.0
C1629 C 0.35781 0.27376 0.23815 0.0
C1630 C 0.42495 0.24001 0.24976 0.0
C1631 C 0.36459 0.27525 0.19704 0.0
C1632 C 0.44398 0.26072 0.18007 0.0
C1633 C 0.43641 0.23803 0.16589 0.0
C1634 C 0.43075 0.26737 0.19902 0.0
C1635 C 0.40962 0.25085 0.204 0.0
C1636 C 0.40226 0.22777 0.18997 0.0
C1637 C 0.41564 0.22171 0.17111 0.0
C1638 C 0.43909 0.2922 0.21351 0.0
C1639 C 0.38002 0.20952 0.19475 0.0
H1640 H 0.39219 0.25316 0.27996 0.0
H1641 H 0.34068 0.28183 0.23524 0.0
H1642 H 0.42254 0.22192 0.23869 0.0
H1643 H 0.4424 0.25131 0.24538 0.0
H1644 H 0.42818 0.23733 0.26783 0.0
H1645 H 0.34778 0.28499 0.19742 0.0
H1646 H 0.38078 0.28695 0.19114 0.0
H1647 H 0.35951 0.25832 0.18426 0.0
H1648 H 0.45997 0.27345 0.17616 0.0
H1649 H 0.4097 0.20406 0.16038 0.0
H1650 H 0.44364 0.29015 0.23157 0.0
H1651 H 0.42313 0.30296 0.21295 0.0
H1652 H 0.45624 0.3027 0.20772 0.0
H1653 H 0.38331 0.20542 0.21233 0.0
H1654 H 0.37719 0.19208 0.18259 0.0
H1655 H 0.36201 0.2174 0.19367 0.0
C1656 C 0.5425 0.37115 0.01084 0.0
C1657 C 0.5578 0.39372 0.01972 0.0
C1658 C 0.53308 0.35495 0.02526 0.0
C1659 C 0.53937 0.36137 0.04919 0.0
C1660 C 0.55286 0.3851 0.05832 0.0
C1661 C 0.56196 0.40106 0.04342 0.0
C1662 C 0.51849 0.33002 0.0147 0.0
C1663 C 0.55969 0.39284 0.08368 0.0
C1664 C 0.50795 0.31371 0.08248 0.0
C1665 C 0.52625 0.29797 0.08237 0.0
C1666 C 0.51254 0.33556 0.07319 0.0
C1667 C 0.53598 0.34173 0.06373 0.0
C1668 C 0.5553 0.3269 0.06547 0.0
C1669 C 0.55015 0.30523 0.07466 0.0
C1670 C 0.49159 0.351 0.07197 0.0
C1671 C 0.58076 0.33287 0.05598 0.0
H1672 H 0.53932 0.36552 0.99249 0.0
H1673 H 0.57396 0.41846 0.05028 0.0
H1674 H 0.53102 0.31603 0.01643 0.0
H1675 H 0.50131 0.3252 0.02367 0.0
H1676 H 0.5122 0.3291 0.99629 0.0
H1677 H 0.56495 0.41304 0.08827 0.0
H1678 H 0.54349 0.38642 0.09322 0.0
H1679 H 0.5764 0.3845 0.08929 0.0
H1680 H 0.48941 0.30818 0.08838 0.0
H1681 H 0.5645 0.29329 0.07481 0.0
H1682 H 0.48149 0.34726 0.05444 0.0
H1683 H 0.49975 0.37077 0.0757 0.0
H1684 H 0.4772 0.34688 0.08406 0.0
H1685 H 0.57759 0.33052 0.03708 0.0
H1686 H 0.59461 0.32091 0.06074 0.0
H1687 H 0.58956 0.3522 0.06222 0.0
C1688 C 0.67257 0.2435 0.20858 0.0
C1689 C 0.67846 0.22256 0.21686 0.0
C1690 C 0.64881 0.24327 0.19613 0.0
C1691 C 0.63044 0.22152 0.19177 0.0
C1692 C 0.63551 0.20087 0.20156 0.0
C1693 C 0.65949 0.20165 0.21405 0.0
C1694 C 0.6442 0.26578 0.18624 0.0
C1695 C 0.6164 0.17738 0.19746 0.0
C1696 C 0.56405 0.22583 0.16373 0.0
C1697 C 0.56688 0.21912 0.14051 0.0
C1698 C 0.58426 0.22607 0.18076 0.0
C1699 C 0.60784 0.21945 0.17444 0.0
C1700 C 0.61054 0.21208 0.15111 0.0
C1701 C 0.59012 0.21201 0.13451 0.0
C1702 C 0.58063 0.23399 0.20544 0.0
C1703 C 0.6353 0.20481 0.14357 0.0
H1704 H 0.68707 0.25983 0.21101 0.0
H1705 H 0.66397 0.18539 0.22035 0.0
H1706 H 0.64481 0.26229 0.16748 0.0
H1707 H 0.62486 0.2701 0.18937 0.0
H1708 H 0.65887 0.28202 0.19351 0.0
H1709 H 0.62133 0.16449 0.20903 0.0
H1710 H 0.59669 0.18114 0.19984 0.0
H1711 H 0.61613 0.16831 0.17958 0.0
H1712 H 0.5462 0.2313 0.1686 0.0
H1713 H 0.59258 0.20661 0.1167 0.0
H1714 H 0.59369 0.25145 0.21217 0.0
H1715 H 0.58578 0.2202 0.21588 0.0
H1716 H 0.56054 0.23666 0.20773 0.0
H1717 H 0.65118 0.22063 0.14818 0.0
H1718 H 0.63392 0.19852 0.12487 0.0
H1719 H 0.64057 0.18992 0.1525 0.0
C1720 C 0.43243 0.06727 0.99538 0.0
C1721 C 0.4502 0.05182 0.98973 0.0
C1722 C 0.43973 0.08899 0.01102 0.0
C1723 C 0.46535 0.09513 0.02162 0.0
C1724 C 0.4834 0.07948 0.01595 0.0
C1725 C 0.47563 0.05804 0.99986 0.0
C1726 C 0.42 0.10533 0.01624 0.0
C1727 C 0.51074 0.0852 0.02713 0.0
C1728 C 0.48682 0.16224 0.04656 0.0
C1729 C 0.4815 0.16264 0.06931 0.0
C1730 C 0.48253 0.14027 0.03104 0.0
C1731 C 0.47304 0.11806 0.0385 0.0
C1732 C 0.46889 0.11817 0.06173 0.0
C1733 C 0.47294 0.14049 0.07682 0.0
C1734 C 0.48686 0.14105 0.00638 0.0
C1735 C 0.45925 0.09482 0.07046 0.0
H1736 H 0.41275 0.06231 0.98747 0.0
H1737 H 0.48924 0.04587 0.99554 0.0
H1738 H 0.41711 0.10705 0.03461 0.0
H1739 H 0.42698 0.12398 0.01268 0.0
H1740 H 0.40111 0.09826 0.00605 0.0
H1741 H 0.52238 0.07114 0.0209 0.0
H1742 H 0.52015 0.10325 0.02381 0.0
H1743 H 0.51081 0.08639 0.0459 0.0
H1744 H 0.49333 0.17927 0.04057 0.0
H1745 H 0.46891 0.14064 0.0944 0.0
H1746 H 0.46815 0.13599 0.99558 0.0
H1747 H 0.49917 0.12753 1.00042 0.0
H1748 H 0.49605 0.15945 0.00366 0.0
H1749 H 0.43918 0.08766 0.0629 0.0
H1750 H 0.45962 0.09761 0.08935 0.0
H1751 H 0.47108 0.08062 0.0652 0.0
C1752 C 0.33217 0.35635 0.71346 0.0
C1753 C 0.31178 0.34899 0.726 0.0
C1754 C 0.34827 0.37899 0.71994 0.0
C1755 C 0.34456 0.3945 0.73993 0.0
C1756 C 0.32387 0.3875 0.75256 0.0
C1757 C 0.30755 0.36495 0.74531 0.0
C1758 C 0.3699 0.3859 0.70578 0.0
C1759 C 0.31958 0.4034 0.77418 0.0
C1760 C 0.40643 0.43569 0.76625 0.0
C1761 C 0.40354 0.45774 0.75862 0.0
C1762 C 0.38662 0.41543 0.76153 0.0
C1763 C 0.36363 0.41706 0.7483 0.0
C1764 C 0.36025 0.43956 0.74121 0.0
C1765 C 0.38018 0.45979 0.74672 0.0
C1766 C 0.39076 0.39195 0.76989 0.0
C1767 C 0.33626 0.44187 0.72667 0.0
H1768 H 0.33623 0.34408 0.69889 0.0
H1769 H 0.29171 0.35969 0.75499 0.0
H1770 H 0.36978 0.40462 0.70175 0.0
H1771 H 0.38867 0.38596 0.71561 0.0
H1772 H 0.36857 0.37302 0.68952 0.0
H1773 H 0.30169 0.39614 0.78124 0.0
H1774 H 0.33612 0.4046 0.78725 0.0
H1775 H 0.31852 0.42227 0.771 0.0
H1776 H 0.42437 0.43418 0.77572 0.0
H1777 H 0.37797 0.47682 0.74074 0.0
H1778 H 0.39274 0.37799 0.75518 0.0
H1779 H 0.37393 0.38459 0.77826 0.0
H1780 H 0.40831 0.39455 0.78216 0.0
H1781 H 0.33578 0.43089 0.70952 0.0
H1782 H 0.33542 0.46115 0.72459 0.0
H1783 H 0.31879 0.43451 0.73421 0.0
C1784 C 0.31403 0.66903 0.80692 0.0
C1785 C 0.29268 0.66505 0.79038 0.0
C1786 C 0.33269 0.65358 0.80586 0.0
C1787 C 0.3301 0.63367 0.78775 0.0
C1788 C 0.30826 0.62915 0.77136 0.0
C1789 C 0.28985 0.64485 0.77287 0.0
C1790 C 0.35567 0.65912 0.82367 0.0
C1791 C 0.30474 0.60814 0.75178 0.0
C1792 C 0.39134 0.61259 0.76921 0.0
C1793 C 0.39159 0.5912 0.77892 0.0
C1794 C 0.3715 0.62647 0.772 0.0
C1795 C 0.35126 0.61891 0.78488 0.0
C1796 C 0.35138 0.59741 0.79487 0.0
C1797 C 0.37153 0.58378 0.79175 0.0
C1798 C 0.37217 0.64923 0.76103 0.0
C1799 C 0.33019 0.58881 0.80879 0.0
H1800 H 0.31666 0.68475 0.82035 0.0
H1801 H 0.27326 0.6414 0.7602 0.0
H1802 H 0.35832 0.64248 0.83109 0.0
H1803 H 0.37334 0.66481 0.81561 0.0
H1804 H 0.35377 0.67393 0.8377 0.0
H1805 H 0.28589 0.60606 0.74137 0.0
H1806 H 0.32027 0.61114 0.74053 0.0
H1807 H 0.30622 0.59076 0.7583 0.0
H1808 H 0.40669 0.61854 0.75925 0.0
H1809 H 0.37152 0.5673 0.79931 0.0
H1810 H 0.37234 0.66541 0.77426 0.0
H1811 H 0.3546 0.64756 0.749 0.0
H1812 H 0.38928 0.65264 0.75157 0.0
H1813 H 0.32911 0.60329 0.82334 0.0
H1814 H 0.33313 0.57183 0.81555 0.0
H1815 H 0.31136 0.5853 0.79819 0.0
C1816 C 0.87355 0.45925 0.46276 0.0
C1817 C 0.89462 0.47154 0.47815 0.0
C1818 C 0.85594 0.44038 0.46869 0.0
C1819 C 0.85907 0.43388 0.49073 0.0
C1820 C 0.87995 0.44649 0.50653 0.0
C1821 C 0.89757 0.46498 0.49999 0.0
C1822 C 0.83409 0.42723 0.45126 0.0
C1823 C 0.88381 0.44028 0.53028 0.0
C1824 C 0.80078 0.39788 0.51133 0.0
C1825 C 0.80627 0.37396 0.50762 0.0
C1826 C 0.81799 0.41765 0.5063 0.0
C1827 C 0.841 0.41333 0.49695 0.0
C1828 C 0.8466 0.38923 0.49312 0.0
C1829 C 0.82931 0.36991 0.49868 0.0
C1830 C 0.81156 0.44315 0.51098 0.0
C1831 C 0.8707 0.38378 0.48282 0.0
H1832 H 0.87065 0.46448 0.44604 0.0
H1833 H 0.91388 0.4741 0.51196 0.0
H1834 H 0.8352 0.40742 0.4479 0.0
H1835 H 0.81538 0.42899 0.45796 0.0
H1836 H 0.83437 0.43444 0.43484 0.0
H1837 H 0.90015 0.45268 0.54094 0.0
H1838 H 0.86609 0.44139 0.5389 0.0
H1839 H 0.88752 0.4212 0.52932 0.0
H1840 H 0.78311 0.4012 0.51835 0.0
H1841 H 0.83365 0.35148 0.49557 0.0
H1842 H 0.80977 0.45074 0.49482 0.0
H1843 H 0.82734 0.45539 0.52244 0.0
H1844 H 0.79332 0.44355 0.51898 0.0
H1845 H 0.87095 0.38956 0.46578 0.0
H1846 H 0.87222 0.36403 0.48091 0.0
H1847 H 0.88796 0.39435 0.49365 0.0
C1848 C 0.76009 0.86361 0.77344 0.0
C1849 C 0.76857 0.87128 0.79672 0.0
C1850 C 0.74127 0.87448 0.76239 0.0
C1851 C 0.73142 0.89405 0.77467 0.0
C1852 C 0.73833 0.90043 0.79848 0.0
C1853 C 0.7563 0.8886 0.80924 0.0
C1854 C 0.73314 0.86607 0.73728 0.0
C1855 C 0.72842 0.92118 0.81233 0.0
C1856 C 0.72114 0.94765 0.7449 0.0
C1857 C 0.69449 0.94728 0.7446 0.0
C1858 C 0.7331 0.93002 0.75402 0.0
C1859 C 0.71801 0.91074 0.76231 0.0
C1860 C 0.69086 0.90924 0.76068 0.0
C1861 C 0.67944 0.9279 0.75236 0.0
C1862 C 0.76216 0.933 0.75605 0.0
C1863 C 0.67382 0.8885 0.76837 0.0
H1864 H 0.76904 0.85006 0.7635 0.0
H1865 H 0.76166 0.89386 0.82744 0.0
H1866 H 0.71214 0.86554 0.73342 0.0
H1867 H 0.74322 0.87912 0.72731 0.0
H1868 H 0.73785 0.84764 0.73146 0.0
H1869 H 0.73486 0.92324 0.83084 0.0
H1870 H 0.73531 0.93861 0.80626 0.0
H1871 H 0.7071 0.91817 0.81005 0.0
H1872 H 0.73302 0.96267 0.73918 0.0
H1873 H 0.65884 0.92741 0.75209 0.0
H1874 H 0.76833 0.91649 0.74696 0.0
H1875 H 0.76982 0.93508 0.77427 0.0
H1876 H 0.77106 0.94916 0.74894 0.0
H1877 H 0.65435 0.88499 0.75879 0.0
H1878 H 0.6715 0.89345 0.78671 0.0
H1879 H 0.68214 0.87136 0.76612 0.0
C1880 C 0.64086 0.53565 0.96194 0.0
C1881 C 0.63209 0.52618 0.98099 0.0
C1882 C 0.66297 0.5535 0.96414 0.0
C1883 C 0.67659 0.56229 0.98595 0.0
C1884 C 0.66829 0.55225 0.00516 0.0
C1885 C 0.64619 0.53418 0.00242 0.0
C1886 C 0.67129 0.56351 0.94319 0.0
C1887 C 0.68215 0.56126 0.02872 0.0
C1888 C 0.74354 0.60013 0.98915 0.0
C1889 C 0.73803 0.62407 0.99259 0.0
C1890 C 0.72381 0.57976 0.98717 0.0
C1891 C 0.69804 0.58345 0.98886 0.0
C1892 C 0.69246 0.60754 0.99261 0.0
C1893 C 0.71243 0.62747 0.99433 0.0
C1894 C 0.73046 0.55432 0.983 0.0
C1895 C 0.66528 0.61231 0.99465 0.0
H1896 H 0.63029 0.52913 0.94526 0.0
H1897 H 0.63945 0.52687 0.01716 0.0
H1898 H 0.669 0.58303 0.94465 0.0
H1899 H 0.69195 0.56267 0.94178 0.0
H1900 H 0.6599 0.55335 0.92725 0.0
H1901 H 0.67451 0.5503 0.04155 0.0
H1902 H 0.70302 0.56066 0.02858 0.0
H1903 H 0.68011 0.58062 0.03416 0.0
H1904 H 0.76322 0.59728 0.9878 0.0
H1905 H 0.70787 0.64583 0.99717 0.0
H1906 H 0.72042 0.54431 0.96647 0.0
H1907 H 0.72374 0.54392 0.99649 0.0
H1908 H 0.75148 0.55454 0.98267 0.0
H1909 H 0.65296 0.60434 0.97853 0.0
H1910 H 0.66429 0.63215 0.99834 0.0
H1911 H 0.65705 0.6033 0.00845 0.0
C1912 C 0.28975 0.65496 0.2414 0.0
C1913 C 0.28536 0.67911 0.24139 0.0
C1914 C 0.2694 0.63566 0.24096 0.0
C1915 C 0.24376 0.6402 0.23913 0.0
C1916 C 0.23897 0.66403 0.23707 0.0
C1917 C 0.25979 0.6833 0.23873 0.0
C1918 C 0.27548 0.61064 0.24367 0.0
C1919 C 0.21187 0.66937 0.23394 0.0
C1920 C 0.19539 0.58131 0.22564 0.0
C1921 C 0.18806 0.57867 0.24732 0.0
C1922 C 0.2119 0.60235 0.22229 0.0
C1923 C 0.22235 0.62036 0.24134 0.0
C1924 C 0.21433 0.61796 0.26317 0.0
C1925 C 0.1968 0.59734 0.26577 0.0
C1926 C 0.2189 0.60479 0.19857 0.0
C1927 C 0.22564 0.63624 0.28408 0.0
H1928 H 0.30927 0.65115 0.24247 0.0
H1929 H 0.25589 0.70173 0.23875 0.0
H1930 H 0.2676 0.60492 0.25915 0.0
H1931 H 0.26624 0.59691 0.22886 0.0
H1932 H 0.29649 0.61025 0.24523 0.0
H1933 H 0.21136 0.68738 0.22832 0.0
H1934 H 0.19968 0.65492 0.2212 0.0
H1935 H 0.20324 0.66956 0.25031 0.0
H1936 H 0.18846 0.56678 0.21139 0.0
H1937 H 0.19128 0.59501 0.28257 0.0
H1938 H 0.23854 0.60055 0.19686 0.0
H1939 H 0.21895 0.62382 0.19529 0.0
H1940 H 0.20537 0.5921 0.18529 0.0
H1941 H 0.24665 0.63622 0.28697 0.0
H1942 H 0.21678 0.63209 0.29966 0.0
H1943 H 0.22305 0.65497 0.28153 0.0
C1944 C 0.97578 0.56204 0.01786 0.0
C1945 C 0.97269 0.54556 0.03349 0.0
C1946 C 0.95738 0.57695 0.01384 0.0
C1947 C 0.93532 0.57559 0.02586 0.0
C1948 C 0.9321 0.55913 0.0418 0.0
C1949 C 0.95085 0.54432 0.04545 0.0
C1950 C 0.9617 0.59438 0.99686 0.0
C1951 C 0.90891 0.55724 0.05503 0.0
C1952 C 0.90338 0.63216 0.03233 0.0
C1953 C 0.88243 0.6257 0.01533 0.0
C1954 C 0.92036 0.61586 0.03616 0.0
C1955 C 0.91647 0.59243 0.02262 0.0
C1956 C 0.89532 0.58565 0.00547 0.0
C1957 C 0.87851 0.60237 0.00203 0.0
C1958 C 0.94267 0.62386 0.05459 0.0
C1959 C 0.89062 0.56084 0.99064 0.0
H1960 H 0.99282 0.56344 0.00884 0.0
H1961 H 0.94822 0.53149 0.05739 0.0
H1962 H 0.94496 0.5911 0.98367 0.0
H1963 H 0.96347 0.61352 0.00566 0.0
H1964 H 0.97933 0.5925 0.98824 0.0
H1965 H 0.90889 0.5431 0.06634 0.0
H1966 H 0.90845 0.57513 0.06566 0.0
H1967 H 0.89101 0.55273 0.0431 0.0
H1968 H 0.9066 0.65008 0.04279 0.0
H1969 H 0.86234 0.59719 0.98893 0.0
H1970 H 0.96111 0.62393 0.04693 0.0
H1971 H 0.94212 0.61074 0.0669 0.0
H1972 H 0.94253 0.64242 0.06411 0.0
H1973 H 0.90724 0.55871 0.98071 0.0
H1974 H 0.8729 0.55807 0.97855 0.0
H1975 H 0.88891 0.54623 1.00144 0.0
C1976 C 0.10673 0.9567 0.0685 0.0
C1977 C 0.09422 0.97052 0.05466 0.0
C1978 C 0.11947 0.93802 0.05897 0.0
C1979 C 0.11958 0.93286 0.03497 0.0
C1980 C 0.10648 0.94636 0.02086 0.0
C1981 C 0.09406 0.96511 0.03087 0.0
C1982 C 0.13332 0.92416 0.07465 0.0
C1983 C 0.10586 0.94123 0.99521 0.0
C1984 C 0.17409 0.90061 0.01498 0.0
C1985 C 0.16234 0.87597 0.01141 0.0
C1986 C 0.16014 0.91943 0.02178 0.0
C1987 C 0.13374 0.9135 0.02484 0.0
C1988 C 0.12143 0.8888 0.01988 0.0
C1989 C 0.13589 0.87034 0.01334 0.0
C1990 C 0.174 0.94554 0.0269 0.0
C1991 C 0.09326 0.88171 0.02259 0.0
H1992 H 0.10728 0.96103 0.08689 0.0
H1993 H 0.08429 0.97564 0.02009 0.0
H1994 H 0.12584 0.90428 0.07028 0.0
H1995 H 0.15413 0.92677 0.07236 0.0
H1996 H 0.13115 0.9302 0.0929 0.0
H1997 H 0.09402 0.95272 0.9866 0.0
H1998 H 0.1257 0.94469 0.99024 0.0
H1999 H 0.098 0.92168 0.98884 0.0
H2000 H 0.19452 0.90515 0.01359 0.0
H2001 H 0.12659 0.85138 0.01046 0.0
H2002 H 0.17495 0.95233 0.04546 0.0
H2003 H 0.16331 0.95753 0.01785 0.0
H2004 H 0.19392 0.94734 0.0219 0.0
H2005 H 0.09029 0.88507 0.04093 0.0
H2006 H 0.08596 0.86212 0.01578 0.0
H2007 H 0.0816 0.89311 0.0137 0.0
loop_
_geom_bond_atom_site_label_1
_geom_bond_atom_site_label_2
_geom_bond_distance
_geom_bond_site_symmetry_2
_ccdc_geom_bond_type
H0 C1 0.949 . S
C1 H0 0.949 . S
C1 C2 1.395 . S
C1 C3 1.391 . S
C2 C1 1.395 . S
C2 C5 1.399 . S
C3 C1 1.391 . S
C3 C7 1.387 . S
C3 C8 1.491 . S
H4 C5 0.917 1_565 S
C5 C2 1.399 . S
C5 H4 0.917 1_545 S
C5 C6 1.403 . S
C6 C5 1.403 . S
C6 C7 1.409 . S
C7 C3 1.387 . S
C7 C6 1.409 . S
C7 H9 0.951 . S
C8 C3 1.491 . S
C8 C10 1.382 . S
C8 C12 1.404 . S
H9 C7 0.951 . S
C10 C8 1.382 . S
C10 C11 1.390 1_554 S
C10 H15 0.949 1_554 S
C11 C10 1.390 1_556 S
C11 C16 1.399 1_556 S
C12 C8 1.404 . S
C12 H13 0.950 . S
C12 C14 1.375 . S
H13 C12 0.950 . S
C14 C12 1.375 . S
C14 C16 1.382 . S
C14 H18 0.950 . S
H15 C10 0.949 1_556 S
C16 C11 1.399 1_554 S
C16 C14 1.382 . S
C16 H17 0.952 1_554 S
H17 C16 0.952 1_556 S
H18 C14 0.950 . S
H19 C20 0.949 . S
C20 H19 0.949 . S
C20 C21 1.395 . S
C20 C22 1.391 . S
C21 C20 1.395 . S
C21 C24 1.390 . S
C22 C20 1.391 . S
C22 C26 1.387 . S
C22 C27 1.491 . S
H23 C24 0.950 . S
C24 C21 1.390 . S
C24 H23 0.950 . S
C24 C25 1.378 . S
C25 C24 1.378 . S
C25 C26 1.409 . S
C26 C22 1.387 . S
C26 C25 1.409 . S
C26 H28 0.951 . S
C27 C22 1.491 . S
C27 C29 1.382 . S
C27 C31 1.404 . S
H28 C26 0.951 . S
C29 C27 1.382 . S
C29 C30 1.390 . S
C29 H34 0.949 . S
C30 C29 1.390 . S
C30 C35 1.399 . S
C31 C27 1.404 . S
C31 H32 0.950 . S
C31 C33 1.375 . S
H32 C31 0.950 . S
C33 C31 1.375 . S
C33 C35 1.382 . S
C33 H37 0.950 . S
H34 C29 0.949 . S
C35 C30 1.399 . S
C35 C33 1.382 . S
C35 H36 0.952 . S
H36 C35 0.952 . S
H37 C33 0.950 . S
H38 C39 0.949 . S
C39 H38 0.949 . S
C39 C40 1.395 . S
C39 C41 1.391 1_455 S
C40 C39 1.395 . S
C40 C43 1.390 1_455 S
C41 C39 1.391 1_655 S
C41 C45 1.387 . S
C41 C46 1.480 1_654 S
H42 C43 0.950 . S
C43 C40 1.390 1_655 S
C43 H42 0.950 . S
C43 C44 1.378 . S
C44 C43 1.378 . S
C44 C45 1.409 . S
C45 C41 1.387 . S
C45 C44 1.409 . S
C45 H47 0.951 . S
C46 C41 1.480 1_456 S
C46 C48 1.398 . S
C46 C50 1.407 . S
H47 C45 0.951 . S
C48 C46 1.398 . S
C48 C49 1.410 . S
C48 H53 0.922 1_556 S
C49 C48 1.410 . S
C49 C54 1.399 . S
C50 C46 1.407 . S
C50 H51 0.953 . S
C50 C52 1.375 . S
H51 C50 0.953 . S
C52 C50 1.375 . S
C52 C54 1.382 . S
C52 H56 0.950 . S
H53 C48 0.922 1_554 S
C54 C49 1.399 . S
C54 C52 1.382 . S
C54 H55 0.952 . S
H55 C54 0.952 . S
H56 C52 0.950 . S
H57 C58 0.949 . S
C58 H57 0.949 . S
C58 C59 1.395 . S
C58 C60 1.391 . S
C59 C58 1.395 . S
C59 C62 1.390 . S
C60 C58 1.391 . S
C60 C64 1.387 . S
C60 C65 1.491 . S
H61 C62 0.950 . S
C62 C59 1.390 . S
C62 H61 0.950 . S
C62 C63 1.378 . S
C63 C62 1.378 . S
C63 C64 1.409 . S
C64 C60 1.387 . S
C64 C63 1.409 . S
C64 H66 0.951 . S
C65 C60 1.491 . S
C65 C67 1.382 . S
C65 C69 1.404 . S
H66 C64 0.951 . S
C67 C65 1.382 . S
C67 C68 1.390 . S
C67 H72 0.949 . S
C68 C67 1.390 . S
C68 C73 1.399 . S
C69 C65 1.404 . S
C69 H70 0.950 . S
C69 C71 1.375 . S
H70 C69 0.950 . S
C71 C69 1.375 . S
C71 C73 1.382 . S
C71 H75 0.950 . S
H72 C67 0.949 . S
C73 C68 1.399 . S
C73 C71 1.382 . S
C73 H74 0.952 . S
H74 C73 0.952 . S
H75 C71 0.950 . S
H76 C77 0.949 . S
C77 H76 0.949 . S
C77 C78 1.395 . S
C77 C79 1.391 . S
C78 C77 1.395 . S
C78 C81 1.406 . S
C79 C77 1.391 . S
C79 C83 1.387 . S
C79 C84 1.491 . S
H80 C81 0.923 1_545 S
C81 C78 1.406 . S
C81 H80 0.923 1_565 S
C81 C82 1.390 . S
C82 C81 1.390 . S
C82 C83 1.409 . S
C83 C79 1.387 . S
C83 C82 1.409 . S
C83 H85 0.951 . S
C84 C79 1.491 . S
C84 C86 1.382 . S
C84 C88 1.404 . S
H85 C83 0.951 . S
C86 C84 1.382 . S
C86 C87 1.390 . S
C86 H91 0.949 . S
C87 C86 1.390 . S
C87 C92 1.399 . S
C88 C84 1.404 . S
C88 H89 0.950 . S
C88 C90 1.375 . S
H89 C88 0.950 . S
C90 C88 1.375 . S
C90 C92 1.382 . S
C90 H94 0.950 . S
H91 C86 0.949 . S
C92 C87 1.399 . S
C92 C90 1.382 . S
C92 H93 0.952 . S
H93 C92 0.952 . S
H94 C90 0.950 . S
H95 C96 0.949 . S
C96 H95 0.949 . S
C96 C97 1.395 . S
C96 C98 1.391 . S
C97 C96 1.395 . S
C97 C100 1.390 . S
C98 C96 1.391 . S
C98 C102 1.387 . S
C98 C103 1.491 . S
H99 C100 0.950 . S
C100 C97 1.390 . S
C100 H99 0.950 . S
C100 C101 1.378 . S
C101 C100 1.378 . S
C101 C102 1.409 . S
C102 C98 1.387 . S
C102 C101 1.409 . S
C102 H104 0.951 . S
C103 C98 1.491 . S
C103 C105 1.382 . S
C103 C107 1.404 . S
H104 C102 0.951 . S
C105 C103 1.382 . S
C105 C106 1.390 . S
C105 H110 0.949 . S
C106 C105 1.390 . S
C106 C111 1.399 . S
C107 C103 1.404 . S
C107 H108 0.950 . S
C107 C109 1.375 . S
H108 C107 0.950 . S
C109 C107 1.375 . S
C109 C111 1.382 . S
C109 H113 0.950 . S
H110 C105 0.949 . S
C111 C106 1.399 . S
C111 C109 1.382 . S
C111 H112 0.952 . S
H112 C111 0.952 . S
H113 C109 0.950 . S
H114 C115 0.949 . S
C115 H114 0.949 . S
C115 C116 1.395 . S
C115 C117 1.391 . S
C116 C115 1.395 . S
C116 C119 1.390 . S
C117 C115 1.391 . S
C117 C121 1.387 . S
C117 C122 1.491 . S
H118 C119 0.950 . S
C119 C116 1.390 . S
C119 H118 0.950 . S
C119 C120 1.378 . S
C120 C119 1.378 . S
C120 C121 1.409 . S
C121 C117 1.387 . S
C121 C120 1.409 . S
C121 H123 0.951 . S
C122 C117 1.491 . S
C122 C124 1.382 . S
C122 C126 1.404 . S
H123 C121 0.951 . S
C124 C122 1.382 . S
C124 C125 1.390 1_655 S
C124 H129 0.949 1_655 S
C125 C124 1.390 1_455 S
C125 C130 1.399 1_455 S
C126 C122 1.404 . S
C126 H127 0.950 . S
C126 C128 1.375 . S
H127 C126 0.950 . S
C128 C126 1.375 . S
C128 C130 1.382 . S
C128 H132 0.950 . S
H129 C124 0.949 1_455 S
C130 C125 1.399 1_655 S
C130 C128 1.382 . S
C130 H131 0.952 . S
H131 C130 0.952 . S
H132 C128 0.950 . S
H133 C134 0.949 . S
C134 H133 0.949 . S
C134 C135 1.395 . S
C134 C136 1.391 . S
C135 C134 1.395 . S
C135 C138 1.390 . S
C136 C134 1.391 . S
C136 C140 1.387 . S
C136 C141 1.491 . S
H137 C138 0.950 . S
C138 C135 1.390 . S
C138 H137 0.950 . S
C138 C139 1.378 . S
C139 C138 1.378 . S
C139 C140 1.409 . S
C140 C136 1.387 . S
C140 C139 1.409 . S
C140 H142 0.951 . S
C141 C136 1.491 . S
C141 C143 1.382 . S
C141 C145 1.404 . S
H142 C140 0.951 . S
C143 C141 1.382 . S
C143 C144 1.390 . S
C143 H148 0.949 . S
C144 C143 1.390 . S
C144 C149 1.399 . S
C145 C141 1.404 . S
C145 H146 0.950 . S
C145 C147 1.375 . S
H146 C145 0.950 . S
C147 C145 1.375 . S
C147 C149 1.382 . S
C147 H151 0.950 . S
H148 C143 0.949 . S
C149 C144 1.399 . S
C149 C147 1.382 . S
C149 H150 0.952 . S
H150 C149 0.952 . S
H151 C147 0.950 . S
H152 C153 0.949 . S
C153 H152 0.949 . S
C153 C154 1.395 . S
C153 C155 1.391 . S
C154 C153 1.395 . S
C154 C157 1.390 . S
C155 C153 1.391 . S
C155 C159 1.387 . S
C155 C160 1.491 . S
H156 C157 0.950 . S
C157 C154 1.390 . S
C157 H156 0.950 . S
C157 C158 1.378 . S
C158 C157 1.378 . S
C158 C159 1.409 . S
C159 C155 1.387 . S
C159 C158 1.409 . S
C159 H161 0.951 . S
C160 C155 1.491 . S
C160 C162 1.382 . S
C160 C164 1.404 . S
H161 C159 0.951 . S
C162 C160 1.382 . S
C162 C163 1.390 . S
C162 H167 0.949 . S
C163 C162 1.390 . S
C163 C168 1.399 . S
C164 C160 1.404 . S
C164 H165 0.950 . S
C164 C166 1.375 . S
H165 C164 0.950 . S
C166 C164 1.375 . S
C166 C168 1.382 . S
C166 H170 0.950 . S
H167 C162 0.949 . S
C168 C163 1.399 . S
C168 C166 1.382 . S
C168 H169 0.952 . S
H169 C168 0.952 . S
H170 C166 0.950 . S
H171 C172 0.949 . S
C172 H171 0.949 . S
C172 C173 1.395 . S
C172 C174 1.391 . S
C173 C172 1.395 . S
C173 C176 1.390 . S
C174 C172 1.391 . S
C174 C178 1.387 . S
C174 C179 1.491 . S
H175 C176 0.950 1_545 S
C176 C173 1.390 . S
C176 H175 0.950 1_565 S
C176 C177 1.384 . S
C177 C176 1.384 . S
C177 C178 1.424 . S
C178 C174 1.387 . S
C178 C177 1.424 . S
C178 H180 0.951 . S
C179 C174 1.491 . S
C179 C181 1.382 . S
C179 C183 1.404 . S
H180 C178 0.951 . S
C181 C179 1.382 . S
C181 C182 1.390 . S
C181 H186 0.949 . S
C182 C181 1.390 . S
C182 C187 1.399 . S
C183 C179 1.404 . S
C183 H184 0.950 . S
C183 C185 1.375 . S
H184 C183 0.950 . S
C185 C183 1.375 . S
C185 C187 1.382 . S
C185 H189 0.950 . S
H186 C181 0.949 . S
C187 C182 1.399 . S
C187 C185 1.382 . S
C187 H188 0.952 . S
H188 C187 0.952 . S
H189 C185 0.950 . S
H190 C191 0.949 . S
C191 H190 0.949 . S
C191 C192 1.395 . S
C191 C193 1.391 . S
C192 C191 1.395 . S
C192 C195 1.390 . S
C193 C191 1.391 . S
C193 C197 1.387 . S
C193 C198 1.491 . S
H194 C195 0.950 . S
C195 C192 1.390 . S
C195 H194 0.950 . S
C195 C196 1.378 . S
C196 C195 1.378 . S
C196 C197 1.409 . S
C197 C193 1.387 . S
C197 C196 1.409 . S
C197 H199 0.951 . S
C198 C193 1.491 . S
C198 C200 1.382 . S
C198 C202 1.404 . S
H199 C197 0.951 . S
C200 C198 1.382 . S
C200 C201 1.390 . S
C200 H205 0.949 . S
C201 C200 1.390 . S
C201 C206 1.399 . S
C202 C198 1.404 . S
C202 H203 0.950 . S
C202 C204 1.375 . S
H203 C202 0.950 . S
C204 C202 1.375 . S
C204 C206 1.382 . S
C204 H208 0.950 . S
H205 C200 0.949 . S
C206 C201 1.399 . S
C206 C204 1.382 . S
C206 H207 0.952 . S
H207 C206 0.952 . S
H208 C204 0.950 . S
H209 C210 0.949 . S
C210 H209 0.949 . S
C210 C211 1.395 . S
C210 C212 1.391 . S
C211 C210 1.395 . S
C211 C214 1.390 . S
C212 C210 1.391 . S
C212 C216 1.387 . S
C212 C217 1.491 . S
H213 C214 0.950 . S
C214 C211 1.390 . S
C214 H213 0.950 . S
C214 C215 1.378 . S
C215 C214 1.378 . S
C215 C216 1.409 . S
C216 C212 1.387 . S
C216 C215 1.409 . S
C216 H218 0.951 . S
C217 C212 1.491 . S
C217 C219 1.382 . S
C217 C221 1.404 . S
H218 C216 0.951 . S
C219 C217 1.382 . S
C219 C220 1.390 . S
C219 H224 0.949 . S
C220 C219 1.390 . S
C220 C225 1.399 . S
C221 C217 1.404 . S
C221 H222 0.950 . S
C221 C223 1.375 . S
H222 C221 0.950 . S
C223 C221 1.375 . S
C223 C225 1.382 . S
C223 H227 0.950 . S
H224 C219 0.949 . S
C225 C220 1.399 . S
C225 C223 1.382 . S
C225 H226 0.952 . S
H226 C225 0.952 . S
H227 C223 0.950 . S
H228 C229 0.949 . S
C229 H228 0.949 . S
C229 C230 1.395 . S
C229 C231 1.391 . S
C230 C229 1.395 . S
C230 C233 1.390 . S
C231 C229 1.391 . S
C231 C235 1.387 . S
C231 C236 1.491 . S
H232 C233 0.950 . S
C233 C230 1.390 . S
C233 H232 0.950 . S
C233 C234 1.378 . S
C234 C233 1.378 . S
C234 C235 1.409 . S
C235 C231 1.387 . S
C235 C234 1.409 . S
C235 H237 0.951 . S
C236 C231 1.491 . S
C236 C238 1.382 . S
C236 C240 1.404 . S
H237 C235 0.951 . S
C238 C236 1.382 . S
C238 C239 1.390 . S
C238 H243 0.949 . S
C239 C238 1.390 . S
C239 C244 1.399 . S
C240 C236 1.404 . S
C240 H241 0.950 . S
C240 C242 1.375 . S
H241 C240 0.950 . S
C242 C240 1.375 . S
C242 C244 1.382 . S
C242 H246 0.950 . S
H243 C238 0.949 . S
C244 C239 1.399 . S
C244 C242 1.382 . S
C244 H245 0.952 . S
H245 C244 0.952 . S
H246 C242 0.950 . S
H247 C248 0.949 1_554 S
C248 H247 0.949 1_556 S
C248 C249 1.395 . S
C248 C250 1.391 . S
C249 C248 1.395 . S
C249 C252 1.390 . S
C250 C248 1.391 . S
C250 C254 1.387 . S
C250 C255 1.491 . S
H251 C252 0.950 . S
C252 C249 1.390 . S
C252 H251 0.950 . S
C252 C253 1.378 . S
C253 C252 1.378 . S
C253 C254 1.409 . S
C254 C250 1.387 . S
C254 C253 1.409 . S
C254 H256 0.951 . S
C255 C250 1.491 . S
C255 C257 1.382 1_556 S
C255 C259 1.404 . S
H256 C254 0.951 . S
C257 C255 1.382 1_554 S
C257 C258 1.390 . S
C257 H262 0.949 . S
C258 C257 1.390 . S
C258 C263 1.399 . S
C259 C255 1.404 . S
C259 H260 0.950 . S
C259 C261 1.375 . S
H260 C259 0.950 . S
C261 C259 1.375 . S
C261 C263 1.382 1_556 S
C261 H265 0.950 . S
H262 C257 0.949 . S
C263 C258 1.399 . S
C263 C261 1.382 1_554 S
C263 H264 0.952 . S
H264 C263 0.952 . S
H265 C261 0.950 . S
H266 C267 0.949 . S
C267 H266 0.949 . S
C267 C268 1.395 . S
C267 C269 1.391 . S
C268 C267 1.395 . S
C268 C271 1.390 . S
C269 C267 1.391 . S
C269 C273 1.387 . S
C269 C274 1.491 . S
H270 C271 0.950 . S
C271 C268 1.390 . S
C271 H270 0.950 . S
C271 C272 1.378 . S
C272 C271 1.378 . S
C272 C273 1.409 . S
C273 C269 1.387 . S
C273 C272 1.409 . S
C273 H275 0.951 . S
C274 C269 1.491 . S
C274 C276 1.382 . S
C274 C278 1.404 . S
H275 C273 0.951 . S
C276 C274 1.382 . S
C276 C277 1.390 . S
C276 H281 0.949 . S
C277 C276 1.390 . S
C277 C282 1.399 . S
C278 C274 1.404 . S
C278 H279 0.950 . S
C278 C280 1.375 . S
H279 C278 0.950 . S
C280 C278 1.375 . S
C280 C282 1.382 . S
C280 H284 0.950 . S
H281 C276 0.949 . S
C282 C277 1.399 . S
C282 C280 1.382 . S
C282 H283 0.952 . S
H283 C282 0.952 . S
H284 C280 0.950 . S
H285 C286 0.949 . S
C286 H285 0.949 . S
C286 C287 1.395 . S
C286 C288 1.391 . S
C287 C286 1.395 . S
C287 C290 1.390 . S
C288 C286 1.391 . S
C288 C292 1.387 . S
C288 C293 1.491 . S
H289 C290 0.950 1_554 S
C290 C287 1.390 . S
C290 H289 0.950 1_556 S
C290 C291 1.378 . S
C291 C290 1.378 . S
C291 C292 1.409 . S
C292 C288 1.387 . S
C292 C291 1.409 . S
C292 H294 0.927 1_545 S
C293 C288 1.491 . S
C293 C295 1.382 . S
C293 C297 1.404 . S
H294 C292 0.927 1_565 S
C295 C293 1.382 . S
C295 C296 1.390 . S
C295 H300 0.949 . S
C296 C295 1.390 . S
C296 C301 1.399 . S
C297 C293 1.404 . S
C297 H298 0.950 . S
C297 C299 1.375 . S
H298 C297 0.950 . S
C299 C297 1.375 . S
C299 C301 1.382 . S
C299 H303 0.950 . S
H300 C295 0.949 . S
C301 C296 1.399 . S
C301 C299 1.382 . S
C301 H302 0.952 . S
H302 C301 0.952 . S
H303 C299 0.950 . S
Mg304 O305 2.028 . S
Mg304 O311 2.025 . S
Mg304 O313 2.114 . S
Mg304 O314 2.251 . S
Mg304 O317 2.010 . S
O305 Mg304 2.028 . S
O305 C308 1.250 . S
O306 Mg307 2.028 . S
O306 C308 1.248 . S
Mg307 O306 2.028 . S
Mg307 O312 2.032 1_554 S
Mg307 O314 2.079 . S
C308 O305 1.250 . S
C308 O306 1.248 . S
C309 O310 1.264 . S
C309 O317 1.249 . S
O310 C309 1.264 . S
O311 Mg304 2.025 . S
O311 C315 1.226 1_554 S
O312 Mg307 2.032 1_556 S
O312 C315 1.259 . S
O313 Mg304 2.114 . S
O313 C316 1.252 . S
O314 Mg304 2.251 . S
O314 Mg307 2.079 . S
O314 C316 1.273 . S
C315 O311 1.226 1_556 S
C315 O312 1.259 . S
C316 O313 1.252 . S
C316 O314 1.273 . S
O317 Mg304 2.010 . S
O317 C309 1.249 . S
Mg318 O319 2.028 . S
Mg318 O325 1.986 . S
Mg318 O327 2.114 . S
Mg318 O328 2.251 . S
Mg318 O331 2.010 . S
O319 Mg318 2.028 . S
O319 C322 1.250 . S
O320 Mg321 2.028 . S
O320 C322 1.248 . S
Mg321 O320 2.028 . S
Mg321 O326 2.032 . S
Mg321 O328 2.079 . S
C322 O319 1.250 . S
C322 O320 1.248 . S
C323 O324 1.264 . S
C323 O331 1.249 . S
O324 C323 1.264 . S
O325 Mg318 1.986 . S
O325 C329 1.246 . S
O326 Mg321 2.032 . S
O326 C329 1.259 . S
O327 Mg318 2.114 . S
O327 C330 1.252 . S
O328 Mg318 2.251 . S
O328 Mg321 2.079 . S
O328 C330 1.273 . S
C329 O325 1.246 . S
C329 O326 1.259 . S
C330 O327 1.252 . S
C330 O328 1.273 . S
O331 Mg318 2.010 . S
O331 C323 1.249 . S
Mg332 O333 2.028 1_554 S
Mg332 O339 1.986 1_554 S
Mg332 O341 2.114 . S
Mg332 O342 2.251 . S
Mg332 O345 2.010 . S
O333 Mg332 2.028 1_556 S
O333 C336 1.250 . S
O334 Mg335 2.028 . S
O334 C336 1.248 . S
Mg335 O334 2.028 . S
Mg335 O340 2.032 . S
Mg335 O342 2.079 1_556 S
C336 O333 1.250 . S
C336 O334 1.248 . S
C337 O338 1.264 . S
C337 O345 1.249 . S
O338 C337 1.264 . S
O339 Mg332 1.986 1_556 S
O339 C343 1.246 . S
O340 Mg335 2.032 . S
O340 C343 1.259 . S
O341 Mg332 2.114 . S
O341 C344 1.252 . S
O342 Mg332 2.251 . S
O342 Mg335 2.079 1_554 S
O342 C344 1.273 . S
C343 O339 1.246 . S
C343 O340 1.259 . S
C344 O341 1.252 . S
C344 O342 1.273 . S
O345 Mg332 2.010 . S
O345 C337 1.249 . S
Mg346 O347 2.028 . S
Mg346 O353 1.986 . S
Mg346 O355 2.114 . S
Mg346 O356 2.251 . S
Mg346 O359 2.010 . S
O347 Mg346 2.028 . S
O347 C350 1.250 1_545 S
O348 Mg349 2.028 . S
O348 C350 1.248 . S
Mg349 O348 2.028 . S
Mg349 O354 2.032 1_565 S
Mg349 O356 2.079 1_565 S
C350 O347 1.250 1_565 S
C350 O348 1.248 . S
C351 O352 1.264 . S
C351 O359 1.249 . S
O352 C351 1.264 . S
O353 Mg346 1.986 . S
O353 C357 1.246 . S
O354 Mg349 2.032 1_545 S
O354 C357 1.259 . S
O355 Mg346 2.114 . S
O355 C358 1.252 . S
O356 Mg346 2.251 . S
O356 Mg349 2.079 1_545 S
O356 C358 1.273 . S
C357 O353 1.246 . S
C357 O354 1.259 . S
C358 O355 1.252 . S
C358 O356 1.273 . S
O359 Mg346 2.010 . S
O359 C351 1.249 . S
Mg360 O361 2.028 . S
Mg360 O367 1.986 . S
Mg360 O369 2.114 . S
Mg360 O370 2.251 . S
Mg360 O373 2.010 . S
O361 Mg360 2.028 . S
O361 C364 1.250 . S
O362 Mg363 2.028 . S
O362 C364 1.248 . S
Mg363 O362 2.028 . S
Mg363 O368 2.032 . S
Mg363 O370 2.079 . S
C364 O361 1.250 . S
C364 O362 1.248 . S
C365 O366 1.264 . S
C365 O373 1.249 . S
O366 C365 1.264 . S
O367 Mg360 1.986 . S
O367 C371 1.246 . S
O368 Mg363 2.032 . S
O368 C371 1.259 . S
O369 Mg360 2.114 . S
O369 C372 1.252 . S
O370 Mg360 2.251 . S
O370 Mg363 2.079 . S
O370 C372 1.273 . S
C371 O367 1.246 . S
C371 O368 1.259 . S
C372 O369 1.252 . S
C372 O370 1.273 . S
O373 Mg360 2.010 . S
O373 C365 1.249 . S
Mg374 O375 2.028 . S
Mg374 O381 1.986 . S
Mg374 O383 2.114 . S
Mg374 O384 2.251 . S
Mg374 O387 2.010 . S
O375 Mg374 2.028 . S
O375 C378 1.250 . S
O376 Mg377 2.028 . S
O376 C378 1.248 . S
Mg377 O376 2.028 . S
Mg377 O382 2.032 . S
Mg377 O384 2.079 . S
C378 O375 1.250 . S
C378 O376 1.248 . S
C379 O380 1.264 . S
C379 O387 1.249 . S
O380 C379 1.264 . S
O381 Mg374 1.986 . S
O381 C385 1.246 . S
O382 Mg377 2.032 . S
O382 C385 1.259 . S
O383 Mg374 2.114 . S
O383 C386 1.252 . S
O384 Mg374 2.251 . S
O384 Mg377 2.079 . S
O384 C386 1.273 . S
C385 O381 1.246 . S
C385 O382 1.259 . S
C386 O383 1.252 . S
C386 O384 1.273 . S
O387 Mg374 2.010 . S
O387 C379 1.249 . S
Mg388 O389 2.028 . S
Mg388 O395 1.986 . S
Mg388 O397 2.114 . S
Mg388 O398 2.251 . S
Mg388 O401 2.010 . S
O389 Mg388 2.028 . S
O389 C392 1.250 . S
O390 Mg391 2.028 . S
O390 C392 1.248 . S
Mg391 O390 2.028 . S
Mg391 O396 2.032 . S
Mg391 O398 2.079 . S
C392 O389 1.250 . S
C392 O390 1.248 . S
C393 O394 1.264 . S
C393 O401 1.249 . S
O394 C393 1.264 . S
O395 Mg388 1.986 . S
O395 C399 1.246 . S
O396 Mg391 2.032 . S
O396 C399 1.259 . S
O397 Mg388 2.114 . S
O397 C400 1.252 . S
O398 Mg388 2.251 . S
O398 Mg391 2.079 . S
O398 C400 1.273 . S
C399 O395 1.246 . S
C399 O396 1.259 . S
C400 O397 1.252 . S
C400 O398 1.273 . S
O401 Mg388 2.010 . S
O401 C393 1.249 . S
Mg402 O403 2.028 . S
Mg402 O409 1.986 1_545 S
Mg402 O411 2.114 . S
Mg402 O412 2.251 . S
Mg402 O415 2.010 . S
O403 Mg402 2.028 . S
O403 C406 1.250 . S
O404 Mg405 2.028 . S
O404 C406 1.248 . S
Mg405 O404 2.028 . S
Mg405 O410 2.032 1_545 S
Mg405 O412 2.079 . S
C406 O403 1.250 . S
C406 O404 1.248 . S
C407 O408 1.264 . S
C407 O415 1.249 . S
O408 C407 1.264 . S
O409 Mg402 1.986 1_565 S
O409 C413 1.246 . S
O410 Mg405 2.032 1_565 S
O410 C413 1.259 . S
O411 Mg402 2.114 . S
O411 C414 1.252 . S
O412 Mg402 2.251 . S
O412 Mg405 2.079 . S
O412 C414 1.273 . S
C413 O409 1.246 . S
C413 O410 1.259 . S
C414 O411 1.252 . S
C414 O412 1.273 . S
O415 Mg402 2.010 . S
O415 C407 1.249 . S
Mg416 O417 2.028 . S
Mg416 O423 1.986 . S
Mg416 O425 2.114 . S
Mg416 O426 2.251 . S
Mg416 O429 2.010 . S
O417 Mg416 2.028 . S
O417 C420 1.250 1_455 S
O418 Mg419 2.028 . S
O418 C420 1.248 . S
Mg419 O418 2.028 . S
Mg419 O424 2.032 . S
Mg419 O426 2.079 1_655 S
C420 O417 1.250 1_655 S
C420 O418 1.248 . S
C421 O422 1.264 . S
C421 O429 1.249 . S
O422 C421 1.264 . S
O423 Mg416 1.986 . S
O423 C427 1.246 . S
O424 Mg419 2.032 . S
O424 C427 1.259 1_655 S
O425 Mg416 2.114 . S
O425 C428 1.252 . S
O426 Mg416 2.251 . S
O426 Mg419 2.079 1_455 S
O426 C428 1.273 . S
C427 O423 1.246 . S
C427 O424 1.259 1_455 S
C428 O425 1.252 . S
C428 O426 1.273 . S
O429 Mg416 2.010 . S
O429 C421 1.249 . S
Mg430 O431 2.028 . S
Mg430 O437 1.986 . S
Mg430 O439 2.114 . S
Mg430 O440 2.251 . S
Mg430 O443 2.010 . S
O431 Mg430 2.028 . S
O431 C434 1.250 . S
O432 Mg433 2.028 . S
O432 C434 1.248 . S
Mg433 O432 2.028 . S
Mg433 O438 2.032 . S
Mg433 O440 2.079 . S
C434 O431 1.250 . S
C434 O432 1.248 . S
C435 O436 1.264 . S
C435 O443 1.249 . S
O436 C435 1.264 . S
O437 Mg430 1.986 . S
O437 C441 1.246 . S
O438 Mg433 2.032 . S
O438 C441 1.259 . S
O439 Mg430 2.114 . S
O439 C442 1.252 . S
O440 Mg430 2.251 . S
O440 Mg433 2.079 . S
O440 C442 1.273 . S
C441 O437 1.246 . S
C441 O438 1.259 . S
C442 O439 1.252 . S
C442 O440 1.273 . S
O443 Mg430 2.010 . S
O443 C435 1.249 . S
Mg444 O445 2.028 1_655 S
Mg444 O451 1.986 1_655 S
Mg444 O453 2.114 . S
Mg444 O454 2.251 1_655 S
Mg444 O457 2.010 . S
O445 Mg444 2.028 1_455 S
O445 C448 1.250 . S
O446 Mg447 2.028 . S
O446 C448 1.248 . S
Mg447 O446 2.028 . S
Mg447 O452 2.032 . S
Mg447 O454 2.079 . S
C448 O445 1.250 . S
C448 O446 1.248 . S
C449 O450 1.264 . S
C449 O457 1.249 . S
O450 C449 1.264 . S
O451 Mg444 1.986 1_455 S
O451 C455 1.246 . S
O452 Mg447 2.032 . S
O452 C455 1.259 . S
O453 Mg444 2.114 . S
O453 C456 1.252 . S
O454 Mg444 2.251 1_455 S
O454 Mg447 2.079 . S
O454 C456 1.273 1_455 S
C455 O451 1.246 . S
C455 O452 1.259 . S
C456 O453 1.252 . S
C456 O454 1.273 1_655 S
O457 Mg444 2.010 . S
O457 C449 1.249 . S
Mg458 O459 2.028 . S
Mg458 O465 1.986 . S
Mg458 O467 2.114 . S
Mg458 O468 2.251 . S
Mg458 O471 2.010 . S
O459 Mg458 2.028 . S
O459 C462 1.250 . S
O460 Mg461 2.028 . S
O460 C462 1.248 . S
Mg461 O460 2.028 . S
Mg461 O466 2.032 . S
Mg461 O468 2.079 . S
C462 O459 1.250 . S
C462 O460 1.248 . S
C463 O464 1.264 . S
C463 O471 1.249 . S
O464 C463 1.264 . S
O465 Mg458 1.986 . S
O465 C469 1.246 . S
O466 Mg461 2.032 . S
O466 C469 1.259 . S
O467 Mg458 2.114 . S
O467 C470 1.252 . S
O468 Mg458 2.251 . S
O468 Mg461 2.079 . S
O468 C470 1.273 . S
C469 O465 1.246 . S
C469 O466 1.259 . S
C470 O467 1.252 . S
C470 O468 1.273 . S
O471 Mg458 2.010 . S
O471 C463 1.249 . S
C472 C473 1.391 . S
C472 C474 1.394 . S
C472 H488 0.931 . S
C473 C472 1.391 . S
C473 C477 1.376 . S
C474 C472 1.394 . S
C474 C475 1.369 . S
C474 C478 1.531 . S
C475 C474 1.369 . S
C475 C476 1.410 . S
C475 C483 1.503 . S
C476 C475 1.410 . S
C476 C477 1.392 . S
C476 C479 1.511 . S
C477 C473 1.376 . S
C477 C476 1.392 . S
C477 H489 0.929 . S
C478 C474 1.531 . S
C478 H490 0.960 . S
C478 H491 0.962 . S
C478 H492 0.960 . S
C479 C476 1.511 . S
C479 H493 0.961 . S
C479 H494 0.961 . S
C479 H495 0.961 . S
C480 C481 1.370 . S
C480 C482 1.363 . S
C480 H496 0.931 . S
C481 C480 1.370 . S
C481 C485 1.408 . S
C482 C480 1.363 . S
C482 C483 1.370 . S
C482 C486 1.524 . S
C483 C475 1.503 . S
C483 C482 1.370 . S
C483 C484 1.403 . S
C484 C483 1.403 . S
C484 C485 1.404 . S
C484 C487 1.539 . S
C485 C481 1.408 . S
C485 C484 1.404 . S
C485 H497 0.930 . S
C486 C482 1.524 . S
C486 H498 0.956 . S
C486 H499 0.961 . S
C486 H500 0.961 . S
C487 C484 1.539 . S
C487 H501 0.958 . S
C487 H502 0.961 . S
C487 H503 0.960 . S
H488 C472 0.931 . S
H489 C477 0.929 . S
H490 C478 0.960 . S
H491 C478 0.962 . S
H492 C478 0.960 . S
H493 C479 0.961 . S
H494 C479 0.961 . S
H495 C479 0.961 . S
H496 C480 0.931 . S
H497 C485 0.930 . S
H498 C486 0.956 . S
H499 C486 0.961 . S
H500 C486 0.961 . S
H501 C487 0.958 . S
H502 C487 0.961 . S
H503 C487 0.960 . S
C504 C505 1.391 . S
C504 C506 1.394 . S
C504 H520 0.931 . S
C505 C504 1.391 . S
C505 C509 1.376 . S
C506 C504 1.394 . S
C506 C507 1.369 . S
C506 C510 1.531 . S
C507 C506 1.369 . S
C507 C508 1.410 . S
C507 C515 1.503 . S
C508 C507 1.410 . S
C508 C509 1.392 . S
C508 C511 1.511 . S
C509 C505 1.376 . S
C509 C508 1.392 . S
C509 H521 0.929 . S
C510 C506 1.531 . S
C510 H522 0.960 . S
C510 H523 0.962 . S
C510 H524 0.960 . S
C511 C508 1.511 . S
C511 H525 0.961 . S
C511 H526 0.961 . S
C511 H527 0.961 . S
C512 C513 1.370 . S
C512 C514 1.363 . S
C512 H528 0.931 . S
C513 C512 1.370 . S
C513 C517 1.408 . S
C514 C512 1.363 . S
C514 C515 1.370 . S
C514 C518 1.524 . S
C515 C507 1.503 . S
C515 C514 1.370 . S
C515 C516 1.403 . S
C516 C515 1.403 . S
C516 C517 1.404 . S
C516 C519 1.539 . S
C517 C513 1.408 . S
C517 C516 1.404 . S
C517 H529 0.930 . S
C518 C514 1.524 . S
C518 H530 0.956 . S
C518 H531 0.961 . S
C518 H532 0.961 . S
C519 C516 1.539 . S
C519 H533 0.958 . S
C519 H534 0.961 . S
C519 H535 0.960 . S
H520 C504 0.931 . S
H521 C509 0.929 . S
H522 C510 0.960 . S
H523 C510 0.962 . S
H524 C510 0.960 . S
H525 C511 0.961 . S
H526 C511 0.961 . S
H527 C511 0.961 . S
H528 C512 0.931 . S
H529 C517 0.930 . S
H530 C518 0.956 . S
H531 C518 0.961 . S
H532 C518 0.961 . S
H533 C519 0.958 . S
H534 C519 0.961 . S
H535 C519 0.960 . S
C536 C537 1.391 . S
C536 C538 1.394 . S
C536 H552 0.931 . S
C537 C536 1.391 . S
C537 C541 1.376 . S
C538 C536 1.394 . S
C538 C539 1.369 . S
C538 C542 1.531 . S
C539 C538 1.369 . S
C539 C540 1.410 . S
C539 C547 1.503 . S
C540 C539 1.410 . S
C540 C541 1.392 . S
C540 C543 1.511 . S
C541 C537 1.376 . S
C541 C540 1.392 . S
C541 H553 0.929 . S
C542 C538 1.531 . S
C542 H554 0.960 . S
C542 H555 0.962 . S
C542 H556 0.960 . S
C543 C540 1.511 . S
C543 H557 0.961 . S
C543 H558 0.961 . S
C543 H559 0.961 . S
C544 C545 1.370 . S
C544 C546 1.363 . S
C544 H560 0.931 . S
C545 C544 1.370 . S
C545 C549 1.408 . S
C546 C544 1.363 . S
C546 C547 1.370 . S
C546 C550 1.524 . S
C547 C539 1.503 . S
C547 C546 1.370 . S
C547 C548 1.403 . S
C548 C547 1.403 . S
C548 C549 1.404 . S
C548 C551 1.539 . S
C549 C545 1.408 . S
C549 C548 1.404 . S
C549 H561 0.930 . S
C550 C546 1.524 . S
C550 H562 0.956 . S
C550 H563 0.961 . S
C550 H564 0.961 . S
C551 C548 1.539 . S
C551 H565 0.958 . S
C551 H566 0.961 . S
C551 H567 0.960 . S
H552 C536 0.931 . S
H553 C541 0.929 . S
H554 C542 0.960 . S
H555 C542 0.962 . S
H556 C542 0.960 . S
H557 C543 0.961 . S
H558 C543 0.961 . S
H559 C543 0.961 . S
H560 C544 0.931 . S
H561 C549 0.930 . S
H562 C550 0.956 . S
H563 C550 0.961 . S
H564 C550 0.961 . S
H565 C551 0.958 . S
H566 C551 0.961 . S
H567 C551 0.960 . S
C568 C569 1.391 . S
C568 C570 1.394 . S
C568 H584 0.931 . S
C569 C568 1.391 . S
C569 C573 1.376 1_565 S
C570 C568 1.394 . S
C570 C571 1.369 . S
C570 C574 1.531 . S
C571 C570 1.369 . S
C571 C572 1.410 1_565 S
C571 C579 1.503 1_565 S
C572 C571 1.410 1_545 S
C572 C573 1.392 . S
C572 C575 1.511 . S
C573 C569 1.376 1_545 S
C573 C572 1.392 . S
C573 H585 0.929 . S
C574 C570 1.531 . S
C574 H586 0.960 . S
C574 H587 0.962 . S
C574 H588 0.960 . S
C575 C572 1.511 . S
C575 H589 0.961 . S
C575 H590 0.961 . S
C575 H591 0.961 1_455 S
C576 C577 1.395 . S
C576 C578 1.363 . S
C576 H592 0.931 . S
C577 C576 1.395 . S
C577 C581 1.398 1_445 S
C578 C576 1.363 . S
C578 C579 1.370 . S
C578 C582 1.524 . S
C579 C571 1.503 1_545 S
C579 C578 1.370 . S
C579 C580 1.403 1_545 S
C580 C579 1.403 1_565 S
C580 C581 1.404 1_455 S
C580 C583 1.539 1_455 S
C581 C577 1.398 1_665 S
C581 C580 1.404 1_655 S
C581 H593 0.930 . S
C582 C578 1.524 . S
C582 H594 0.956 . S
C582 H595 0.961 . S
C582 H596 0.961 . S
C583 C580 1.539 1_655 S
C583 H597 0.958 . S
C583 H598 0.961 . S
C583 H599 0.960 . S
H584 C568 0.931 . S
H585 C573 0.929 . S
H586 C574 0.960 . S
H587 C574 0.962 . S
H588 C574 0.960 . S
H589 C575 0.961 . S
H590 C575 0.961 . S
H591 C575 0.961 1_655 S
H592 C576 0.931 . S
H593 C581 0.930 . S
H594 C582 0.956 . S
H595 C582 0.961 . S
H596 C582 0.961 . S
H597 C583 0.958 . S
H598 C583 0.961 . S
H599 C583 0.960 . S
C600 C601 1.391 . S
C600 C602 1.394 . S
C600 H616 0.931 . S
C601 C600 1.391 . S
C601 C605 1.376 . S
C602 C600 1.394 . S
C602 C603 1.369 . S
C602 C606 1.531 . S
C603 C602 1.369 . S
C603 C604 1.410 . S
C603 C611 1.503 . S
C604 C603 1.410 . S
C604 C605 1.392 . S
C604 C607 1.511 . S
C605 C601 1.376 . S
C605 C604 1.392 . S
C605 H617 0.929 . S
C606 C602 1.531 . S
C606 H618 0.960 . S
C606 H619 0.962 . S
C606 H620 0.960 . S
C607 C604 1.511 . S
C607 H621 0.961 . S
C607 H622 0.961 . S
C607 H623 0.961 . S
C608 C609 1.370 . S
C608 C610 1.363 . S
C608 H624 0.931 . S
C609 C608 1.370 . S
C609 C613 1.408 . S
C610 C608 1.363 . S
C610 C611 1.370 . S
C610 C614 1.524 . S
C611 C603 1.503 . S
C611 C610 1.370 . S
C611 C612 1.403 . S
C612 C611 1.403 . S
C612 C613 1.404 . S
C612 C615 1.539 . S
C613 C609 1.408 . S
C613 C612 1.404 . S
C613 H625 0.930 . S
C614 C610 1.524 . S
C614 H626 0.956 . S
C614 H627 0.961 . S
C614 H628 0.961 . S
C615 C612 1.539 . S
C615 H629 0.958 . S
C615 H630 0.961 . S
C615 H631 0.960 . S
H616 C600 0.931 . S
H617 C605 0.929 . S
H618 C606 0.960 . S
H619 C606 0.962 . S
H620 C606 0.960 . S
H621 C607 0.961 . S
H622 C607 0.961 . S
H623 C607 0.961 . S
H624 C608 0.931 . S
H625 C613 0.930 . S
H626 C614 0.956 . S
H627 C614 0.961 . S
H628 C614 0.961 . S
H629 C615 0.958 . S
H630 C615 0.961 . S
H631 C615 0.960 . S
C632 C633 1.391 . S
C632 C634 1.394 . S
C632 H648 0.931 . S
C633 C632 1.391 . S
C633 C637 1.376 . S
C634 C632 1.394 . S
C634 C635 1.369 . S
C634 C638 1.531 . S
C635 C634 1.369 . S
C635 C636 1.410 . S
C635 C643 1.503 . S
C636 C635 1.410 . S
C636 C637 1.392 . S
C636 C639 1.511 . S
C637 C633 1.376 . S
C637 C636 1.392 . S
C637 H649 0.929 . S
C638 C634 1.531 . S
C638 H650 0.960 . S
C638 H651 0.962 . S
C638 H652 0.960 . S
C639 C636 1.511 . S
C639 H653 0.961 . S
C639 H654 0.961 . S
C639 H655 0.961 . S
C640 C641 1.370 . S
C640 C642 1.363 . S
C640 H656 0.931 . S
C641 C640 1.370 . S
C641 C645 1.408 . S
C642 C640 1.363 . S
C642 C643 1.370 . S
C642 C646 1.524 . S
C643 C635 1.503 . S
C643 C642 1.370 . S
C643 C644 1.403 . S
C644 C643 1.403 . S
C644 C645 1.404 . S
C644 C647 1.539 . S
C645 C641 1.408 . S
C645 C644 1.404 . S
C645 H657 0.930 . S
C646 C642 1.524 . S
C646 H658 0.956 . S
C646 H659 0.961 . S
C646 H660 0.961 . S
C647 C644 1.539 . S
C647 H661 0.958 . S
C647 H662 0.961 . S
C647 H663 0.960 . S
H648 C632 0.931 . S
H649 C637 0.929 . S
H650 C638 0.960 . S
H651 C638 0.962 . S
H652 C638 0.960 . S
H653 C639 0.961 . S
H654 C639 0.961 . S
H655 C639 0.961 . S
H656 C640 0.931 . S
H657 C645 0.930 . S
H658 C646 0.956 . S
H659 C646 0.961 . S
H660 C646 0.961 . S
H661 C647 0.958 . S
H662 C647 0.961 . S
H663 C647 0.960 . S
C664 C665 1.391 . S
C664 C666 1.394 . S
C664 H680 0.931 . S
C665 C664 1.391 . S
C665 C669 1.376 . S
C666 C664 1.394 . S
C666 C667 1.369 . S
C666 C670 1.531 . S
C667 C666 1.369 . S
C667 C668 1.410 . S
C667 C675 1.503 . S
C668 C667 1.410 . S
C668 C669 1.392 . S
C668 C671 1.511 . S
C669 C665 1.376 . S
C669 C668 1.392 . S
C669 H681 0.929 . S
C670 C666 1.531 . S
C670 H682 0.960 . S
C670 H683 0.962 . S
C670 H684 0.960 . S
C671 C668 1.511 . S
C671 H685 0.961 . S
C671 H686 0.961 . S
C671 H687 0.961 . S
C672 C673 1.370 . S
C672 C674 1.363 . S
C672 H688 0.931 . S
C673 C672 1.370 . S
C673 C677 1.408 . S
C674 C672 1.363 . S
C674 C675 1.370 . S
C674 C678 1.524 . S
C675 C667 1.503 . S
C675 C674 1.370 . S
C675 C676 1.403 . S
C676 C675 1.403 . S
C676 C677 1.404 . S
C676 C679 1.539 . S
C677 C673 1.408 . S
C677 C676 1.404 . S
C677 H689 0.930 . S
C678 C674 1.524 . S
C678 H690 0.956 . S
C678 H691 0.961 . S
C678 H692 0.961 . S
C679 C676 1.539 . S
C679 H693 0.958 . S
C679 H694 0.961 . S
C679 H695 0.960 . S
H680 C664 0.931 . S
H681 C669 0.929 . S
H682 C670 0.960 . S
H683 C670 0.962 . S
H684 C670 0.960 . S
H685 C671 0.961 . S
H686 C671 0.961 . S
H687 C671 0.961 . S
H688 C672 0.931 . S
H689 C677 0.930 . S
H690 C678 0.956 . S
H691 C678 0.961 . S
H692 C678 0.961 . S
H693 C679 0.958 . S
H694 C679 0.961 . S
H695 C679 0.960 . S
C696 C697 1.391 . S
C696 C698 1.394 . S
C696 H712 0.931 . S
C697 C696 1.391 . S
C697 C701 1.376 1_565 S
C698 C696 1.394 . S
C698 C699 1.369 . S
C698 C702 1.531 . S
C699 C698 1.369 . S
C699 C700 1.410 1_565 S
C699 C707 1.503 . S
C700 C699 1.410 1_545 S
C700 C701 1.392 . S
C700 C703 1.511 . S
C701 C697 1.376 1_545 S
C701 C700 1.392 . S
C701 H713 0.929 . S
C702 C698 1.531 . S
C702 H714 0.960 . S
C702 H715 0.962 . S
C702 H716 0.960 . S
C703 C700 1.511 . S
C703 H717 0.961 . S
C703 H718 0.961 . S
C703 H719 0.961 . S
C704 C705 1.370 . S
C704 C706 1.363 . S
C704 H720 0.931 . S
C705 C704 1.370 . S
C705 C709 1.408 1_545 S
C706 C704 1.363 . S
C706 C707 1.370 1_545 S
C706 C710 1.524 . S
C707 C699 1.503 . S
C707 C706 1.370 1_565 S
C707 C708 1.403 . S
C708 C707 1.403 . S
C708 C709 1.404 . S
C708 C711 1.539 . S
C709 C705 1.408 1_565 S
C709 C708 1.404 . S
C709 H721 0.930 . S
C710 C706 1.524 . S
C710 H722 0.956 . S
C710 H723 0.961 . S
C710 H724 0.961 . S
C711 C708 1.539 . S
C711 H725 0.958 . S
C711 H726 0.961 . S
C711 H727 0.960 . S
H712 C696 0.931 . S
H713 C701 0.929 . S
H714 C702 0.960 . S
H715 C702 0.962 . S
H716 C702 0.960 . S
H717 C703 0.961 . S
H718 C703 0.961 . S
H719 C703 0.961 . S
H720 C704 0.931 . S
H721 C709 0.930 . S
H722 C710 0.956 . S
H723 C710 0.961 . S
H724 C710 0.961 . S
H725 C711 0.958 . S
H726 C711 0.961 . S
H727 C711 0.960 . S
C728 C729 1.391 . S
C728 C730 1.394 . S
C728 H744 0.931 . S
C729 C728 1.391 . S
C729 C733 1.376 . S
C730 C728 1.394 . S
C730 C731 1.369 . S
C730 C734 1.531 . S
C731 C730 1.369 . S
C731 C732 1.410 . S
C731 C739 1.503 . S
C732 C731 1.410 . S
C732 C733 1.392 . S
C732 C735 1.511 . S
C733 C729 1.376 . S
C733 C732 1.392 . S
C733 H745 0.929 . S
C734 C730 1.531 . S
C734 H746 0.960 . S
C734 H747 0.962 . S
C734 H748 0.960 . S
C735 C732 1.511 . S
C735 H749 0.961 . S
C735 H750 0.961 . S
C735 H751 0.961 . S
C736 C737 1.370 . S
C736 C738 1.363 . S
C736 H752 0.931 . S
C737 C736 1.370 . S
C737 C741 1.408 . S
C738 C736 1.363 . S
C738 C739 1.370 . S
C738 C742 1.524 . S
C739 C731 1.503 . S
C739 C738 1.370 . S
C739 C740 1.403 . S
C740 C739 1.403 . S
C740 C741 1.404 . S
C740 C743 1.539 . S
C741 C737 1.408 . S
C741 C740 1.404 . S
C741 H753 0.930 . S
C742 C738 1.524 . S
C742 H754 0.956 . S
C742 H755 0.961 . S
C742 H756 0.961 . S
C743 C740 1.539 . S
C743 H757 0.958 . S
C743 H758 0.961 . S
C743 H759 0.960 . S
H744 C728 0.931 . S
H745 C733 0.929 . S
H746 C734 0.960 . S
H747 C734 0.962 . S
H748 C734 0.960 . S
H749 C735 0.961 . S
H750 C735 0.961 . S
H751 C735 0.961 . S
H752 C736 0.931 . S
H753 C741 0.930 . S
H754 C742 0.956 . S
H755 C742 0.961 . S
H756 C742 0.961 . S
H757 C743 0.958 . S
H758 C743 0.961 . S
H759 C743 0.960 . S
C760 C761 1.391 . S
C760 C762 1.394 . S
C760 H776 0.931 . S
C761 C760 1.391 . S
C761 C765 1.376 . S
C762 C760 1.394 . S
C762 C763 1.369 . S
C762 C766 1.531 . S
C763 C762 1.369 . S
C763 C764 1.410 . S
C763 C771 1.503 . S
C764 C763 1.410 . S
C764 C765 1.392 . S
C764 C767 1.511 . S
C765 C761 1.376 . S
C765 C764 1.392 . S
C765 H777 0.929 . S
C766 C762 1.531 . S
C766 H778 0.960 . S
C766 H779 0.962 . S
C766 H780 0.960 . S
C767 C764 1.511 . S
C767 H781 0.961 . S
C767 H782 0.961 . S
C767 H783 0.961 . S
C768 C769 1.370 . S
C768 C770 1.363 . S
C768 H784 0.931 . S
C769 C768 1.370 . S
C769 C773 1.408 . S
C770 C768 1.363 . S
C770 C771 1.370 . S
C770 C774 1.524 . S
C771 C763 1.503 . S
C771 C770 1.370 . S
C771 C772 1.403 . S
C772 C771 1.403 . S
C772 C773 1.404 . S
C772 C775 1.539 . S
C773 C769 1.408 . S
C773 C772 1.404 . S
C773 H785 0.930 . S
C774 C770 1.524 . S
C774 H786 0.956 . S
C774 H787 0.961 . S
C774 H788 0.961 . S
C775 C772 1.539 . S
C775 H789 0.958 . S
C775 H790 0.961 . S
C775 H791 0.960 . S
H776 C760 0.931 . S
H777 C765 0.929 . S
H778 C766 0.960 . S
H779 C766 0.962 . S
H780 C766 0.960 . S
H781 C767 0.961 . S
H782 C767 0.961 . S
H783 C767 0.961 . S
H784 C768 0.931 . S
H785 C773 0.930 . S
H786 C774 0.956 . S
H787 C774 0.961 . S
H788 C774 0.961 . S
H789 C775 0.958 . S
H790 C775 0.961 . S
H791 C775 0.960 . S
C792 C793 1.391 . S
C792 C794 1.394 . S
C792 H808 0.931 . S
C793 C792 1.391 . S
C793 C797 1.376 . S
C794 C792 1.394 . S
C794 C795 1.369 . S
C794 C798 1.531 . S
C795 C794 1.369 . S
C795 C796 1.410 . S
C795 C803 1.503 . S
C796 C795 1.410 . S
C796 C797 1.392 . S
C796 C799 1.511 . S
C797 C793 1.376 . S
C797 C796 1.392 . S
C797 H809 0.929 . S
C798 C794 1.531 . S
C798 H810 0.960 . S
C798 H811 0.962 . S
C798 H812 0.960 . S
C799 C796 1.511 . S
C799 H813 0.961 . S
C799 H814 0.961 . S
C799 H815 0.961 . S
C800 C801 1.370 . S
C800 C802 1.363 . S
C800 H816 0.931 . S
C801 C800 1.370 . S
C801 C805 1.408 . S
C802 C800 1.363 . S
C802 C803 1.370 . S
C802 C806 1.524 . S
C803 C795 1.503 . S
C803 C802 1.370 . S
C803 C804 1.403 . S
C804 C803 1.403 . S
C804 C805 1.404 . S
C804 C807 1.539 . S
C805 C801 1.408 . S
C805 C804 1.404 . S
C805 H817 0.930 . S
C806 C802 1.524 . S
C806 H818 0.956 . S
C806 H819 0.961 . S
C806 H820 0.961 . S
C807 C804 1.539 . S
C807 H821 0.958 . S
C807 H822 0.961 . S
C807 H823 0.960 . S
H808 C792 0.931 . S
H809 C797 0.929 . S
H810 C798 0.960 . S
H811 C798 0.962 . S
H812 C798 0.960 . S
H813 C799 0.961 . S
H814 C799 0.961 . S
H815 C799 0.961 . S
H816 C800 0.931 . S
H817 C805 0.930 . S
H818 C806 0.956 . S
H819 C806 0.961 . S
H820 C806 0.961 . S
H821 C807 0.958 . S
H822 C807 0.961 . S
H823 C807 0.960 . S
C824 C825 1.391 . S
C824 C826 1.394 . S
C824 H840 0.931 . S
C825 C824 1.391 . S
C825 C829 1.376 . S
C826 C824 1.394 . S
C826 C827 1.369 . S
C826 C830 1.531 . S
C827 C826 1.369 . S
C827 C828 1.410 . S
C827 C835 1.503 . S
C828 C827 1.410 . S
C828 C829 1.392 . S
C828 C831 1.511 . S
C829 C825 1.376 . S
C829 C828 1.392 . S
C829 H841 0.929 . S
C830 C826 1.531 . S
C830 H842 0.960 . S
C830 H843 0.962 . S
C830 H844 0.960 . S
C831 C828 1.511 . S
C831 H845 0.961 . S
C831 H846 0.961 . S
C831 H847 0.961 . S
C832 C833 1.370 . S
C832 C834 1.363 . S
C832 H848 0.931 . S
C833 C832 1.370 . S
C833 C837 1.408 . S
C834 C832 1.363 . S
C834 C835 1.370 . S
C834 C838 1.524 . S
C835 C827 1.503 . S
C835 C834 1.370 . S
C835 C836 1.403 . S
C836 C835 1.403 . S
C836 C837 1.404 . S
C836 C839 1.539 . S
C837 C833 1.408 . S
C837 C836 1.404 . S
C837 H849 0.930 . S
C838 C834 1.524 . S
C838 H850 0.956 . S
C838 H851 0.961 . S
C838 H852 0.961 . S
C839 C836 1.539 . S
C839 H853 0.958 . S
C839 H854 0.961 . S
C839 H855 0.960 . S
H840 C824 0.931 . S
H841 C829 0.929 . S
H842 C830 0.960 . S
H843 C830 0.962 . S
H844 C830 0.960 . S
H845 C831 0.961 . S
H846 C831 0.961 . S
H847 C831 0.961 . S
H848 C832 0.931 . S
H849 C837 0.930 . S
H850 C838 0.956 . S
H851 C838 0.961 . S
H852 C838 0.961 . S
H853 C839 0.958 . S
H854 C839 0.961 . S
H855 C839 0.960 . S
C856 C857 1.391 . S
C856 C858 1.394 . S
C856 H872 0.931 . S
C857 C856 1.391 . S
C857 C861 1.376 . S
C858 C856 1.394 . S
C858 C859 1.369 . S
C858 C862 1.531 . S
C859 C858 1.369 . S
C859 C860 1.410 . S
C859 C867 1.503 . S
C860 C859 1.410 . S
C860 C861 1.392 . S
C860 C863 1.511 . S
C861 C857 1.376 . S
C861 C860 1.392 . S
C861 H873 0.929 . S
C862 C858 1.531 . S
C862 H874 0.960 . S
C862 H875 0.962 . S
C862 H876 0.960 . S
C863 C860 1.511 . S
C863 H877 0.961 . S
C863 H878 0.961 . S
C863 H879 0.961 . S
C864 C865 1.370 . S
C864 C866 1.363 . S
C864 H880 0.931 . S
C865 C864 1.370 . S
C865 C869 1.408 . S
C866 C864 1.363 . S
C866 C867 1.370 . S
C866 C870 1.524 . S
C867 C859 1.503 . S
C867 C866 1.370 . S
C867 C868 1.403 . S
C868 C867 1.403 . S
C868 C869 1.404 . S
C868 C871 1.539 . S
C869 C865 1.408 . S
C869 C868 1.404 . S
C869 H881 0.930 . S
C870 C866 1.524 . S
C870 H882 0.956 . S
C870 H883 0.961 . S
C870 H884 0.961 . S
C871 C868 1.539 . S
C871 H885 0.958 . S
C871 H886 0.961 . S
C871 H887 0.960 . S
H872 C856 0.931 . S
H873 C861 0.929 . S
H874 C862 0.960 . S
H875 C862 0.962 . S
H876 C862 0.960 . S
H877 C863 0.961 . S
H878 C863 0.961 . S
H879 C863 0.961 . S
H880 C864 0.931 . S
H881 C869 0.930 . S
H882 C870 0.956 . S
H883 C870 0.961 . S
H884 C870 0.961 . S
H885 C871 0.958 . S
H886 C871 0.961 . S
H887 C871 0.960 . S
C888 C889 1.391 . S
C888 C890 1.394 . S
C888 H904 0.931 . S
C889 C888 1.391 . S
C889 C893 1.376 . S
C890 C888 1.394 . S
C890 C891 1.369 . S
C890 C894 1.531 . S
C891 C890 1.369 . S
C891 C892 1.410 . S
C891 C899 1.503 . S
C892 C891 1.410 . S
C892 C893 1.392 . S
C892 C895 1.511 . S
C893 C889 1.376 . S
C893 C892 1.392 . S
C893 H905 0.929 . S
C894 C890 1.531 . S
C894 H906 0.960 . S
C894 H907 0.962 . S
C894 H908 0.960 . S
C895 C892 1.511 . S
C895 H909 0.961 . S
C895 H910 0.961 . S
C895 H911 0.961 . S
C896 C897 1.370 . S
C896 C898 1.363 . S
C896 H912 0.931 . S
C897 C896 1.370 . S
C897 C901 1.408 . S
C898 C896 1.363 . S
C898 C899 1.370 . S
C898 C902 1.524 . S
C899 C891 1.503 . S
C899 C898 1.370 . S
C899 C900 1.403 . S
C900 C899 1.403 . S
C900 C901 1.404 . S
C900 C903 1.539 . S
C901 C897 1.408 . S
C901 C900 1.404 . S
C901 H913 0.930 . S
C902 C898 1.524 . S
C902 H914 0.956 . S
C902 H915 0.961 . S
C902 H916 0.961 . S
C903 C900 1.539 . S
C903 H917 0.958 . S
C903 H918 0.961 . S
C903 H919 0.960 . S
H904 C888 0.931 . S
H905 C893 0.929 . S
H906 C894 0.960 . S
H907 C894 0.962 . S
H908 C894 0.960 . S
H909 C895 0.961 . S
H910 C895 0.961 . S
H911 C895 0.961 . S
H912 C896 0.931 . S
H913 C901 0.930 . S
H914 C902 0.956 . S
H915 C902 0.961 . S
H916 C902 0.961 . S
H917 C903 0.958 . S
H918 C903 0.961 . S
H919 C903 0.960 . S
C920 C921 1.391 . S
C920 C922 1.394 . S
C920 H936 0.931 . S
C921 C920 1.391 . S
C921 C925 1.376 . S
C922 C920 1.394 . S
C922 C923 1.369 . S
C922 C926 1.531 . S
C923 C922 1.369 . S
C923 C924 1.410 . S
C923 C931 1.503 . S
C924 C923 1.410 . S
C924 C925 1.392 . S
C924 C927 1.511 . S
C925 C921 1.376 . S
C925 C924 1.392 . S
C925 H937 0.929 . S
C926 C922 1.531 . S
C926 H938 0.960 . S
C926 H939 0.962 . S
C926 H940 0.960 . S
C927 C924 1.511 . S
C927 H941 0.961 . S
C927 H942 0.961 . S
C927 H943 0.961 . S
C928 C929 1.370 . S
C928 C930 1.363 . S
C928 H944 0.931 . S
C929 C928 1.370 . S
C929 C933 1.408 . S
C930 C928 1.363 . S
C930 C931 1.370 . S
C930 C934 1.524 . S
C931 C923 1.503 . S
C931 C930 1.370 . S
C931 C932 1.403 . S
C932 C931 1.403 . S
C932 C933 1.404 . S
C932 C935 1.539 . S
C933 C929 1.408 . S
C933 C932 1.404 . S
C933 H945 0.930 . S
C934 C930 1.524 . S
C934 H946 0.956 . S
C934 H947 0.961 . S
C934 H948 0.961 . S
C935 C932 1.539 . S
C935 H949 0.958 . S
C935 H950 0.961 . S
C935 H951 0.960 . S
H936 C920 0.931 . S
H937 C925 0.929 . S
H938 C926 0.960 . S
H939 C926 0.962 . S
H940 C926 0.960 . S
H941 C927 0.961 . S
H942 C927 0.961 . S
H943 C927 0.961 . S
H944 C928 0.931 . S
H945 C933 0.930 . S
H946 C934 0.956 . S
H947 C934 0.961 . S
H948 C934 0.961 . S
H949 C935 0.958 . S
H950 C935 0.961 . S
H951 C935 0.960 . S
C952 C953 1.391 . S
C952 C954 1.394 . S
C952 H968 0.931 . S
C953 C952 1.391 . S
C953 C957 1.376 . S
C954 C952 1.394 . S
C954 C955 1.369 . S
C954 C958 1.531 1_655 S
C955 C954 1.369 . S
C955 C956 1.410 . S
C955 C963 1.503 . S
C956 C955 1.410 . S
C956 C957 1.392 . S
C956 C959 1.511 . S
C957 C953 1.376 . S
C957 C956 1.392 . S
C957 H969 0.929 . S
C958 C954 1.531 1_455 S
C958 H970 0.960 . S
C958 H971 0.962 . S
C958 H972 0.960 . S
C959 C956 1.511 . S
C959 H973 0.961 . S
C959 H974 0.961 . S
C959 H975 0.961 . S
C960 C961 1.370 . S
C960 C962 1.363 . S
C960 H976 0.931 1_655 S
C961 C960 1.370 . S
C961 C965 1.408 . S
C962 C960 1.363 . S
C962 C963 1.370 . S
C962 C966 1.524 1_655 S
C963 C955 1.503 . S
C963 C962 1.370 . S
C963 C964 1.403 . S
C964 C963 1.403 . S
C964 C965 1.404 . S
C964 C967 1.539 . S
C965 C961 1.408 . S
C965 C964 1.404 . S
C965 H977 0.930 . S
C966 C962 1.524 1_455 S
C966 H978 0.956 . S
C966 H979 0.961 1_455 S
C966 H980 0.961 . S
C967 C964 1.539 . S
C967 H981 0.958 . S
C967 H982 0.961 . S
C967 H983 0.960 . S
H968 C952 0.931 . S
H969 C957 0.929 . S
H970 C958 0.960 . S
H971 C958 0.962 . S
H972 C958 0.960 . S
H973 C959 0.961 . S
H974 C959 0.961 . S
H975 C959 0.961 . S
H976 C960 0.931 1_455 S
H977 C965 0.930 . S
H978 C966 0.956 . S
H979 C966 0.961 1_655 S
H980 C966 0.961 . S
H981 C967 0.958 . S
H982 C967 0.961 . S
H983 C967 0.960 . S
C984 C985 1.391 . S
C984 C986 1.394 . S
C984 H1000 0.931 . S
C985 C984 1.391 . S
C985 C989 1.376 . S
C986 C984 1.394 . S
C986 C987 1.369 . S
C986 C990 1.531 . S
C987 C986 1.369 . S
C987 C988 1.410 . S
C987 C995 1.503 . S
C988 C987 1.410 . S
C988 C989 1.392 . S
C988 C991 1.511 . S
C989 C985 1.376 . S
C989 C988 1.392 . S
C989 H1001 0.929 . S
C990 C986 1.531 . S
C990 H1002 0.960 . S
C990 H1003 0.962 . S
C990 H1004 0.960 . S
C991 C988 1.511 . S
C991 H1005 0.961 . S
C991 H1006 0.961 . S
C991 H1007 0.961 . S
C992 C993 1.370 . S
C992 C994 1.363 . S
C992 H1008 0.931 . S
C993 C992 1.370 . S
C993 C997 1.408 . S
C994 C992 1.363 . S
C994 C995 1.370 . S
C994 C998 1.524 . S
C995 C987 1.503 . S
C995 C994 1.370 . S
C995 C996 1.403 . S
C996 C995 1.403 . S
C996 C997 1.404 . S
C996 C999 1.539 . S
C997 C993 1.408 . S
C997 C996 1.404 . S
C997 H1009 0.930 . S
C998 C994 1.524 . S
C998 H1010 0.956 . S
C998 H1011 0.961 . S
C998 H1012 0.961 . S
C999 C996 1.539 . S
C999 H1013 0.958 . S
C999 H1014 0.961 . S
C999 H1015 0.960 . S
H1000 C984 0.931 . S
H1001 C989 0.929 . S
H1002 C990 0.960 . S
H1003 C990 0.962 . S
H1004 C990 0.960 . S
H1005 C991 0.961 . S
H1006 C991 0.961 . S
H1007 C991 0.961 . S
H1008 C992 0.931 . S
H1009 C997 0.930 . S
H1010 C998 0.956 . S
H1011 C998 0.961 . S
H1012 C998 0.961 . S
H1013 C999 0.958 . S
H1014 C999 0.961 . S
H1015 C999 0.960 . S
C1016 C1017 1.391 . S
C1016 C1018 1.394 . S
C1016 H1032 0.931 . S
C1017 C1016 1.391 . S
C1017 C1021 1.376 . S
C1018 C1016 1.394 . S
C1018 C1019 1.369 . S
C1018 C1022 1.531 . S
C1019 C1018 1.369 . S
C1019 C1020 1.410 . S
C1019 C1027 1.503 . S
C1020 C1019 1.410 . S
C1020 C1021 1.392 . S
C1020 C1023 1.511 . S
C1021 C1017 1.376 . S
C1021 C1020 1.392 . S
C1021 H1033 0.929 . S
C1022 C1018 1.531 . S
C1022 H1034 0.960 . S
C1022 H1035 0.962 . S
C1022 H1036 0.960 . S
C1023 C1020 1.511 . S
C1023 H1037 0.961 . S
C1023 H1038 0.961 . S
C1023 H1039 0.961 . S
C1024 C1025 1.370 . S
C1024 C1026 1.363 . S
C1024 H1040 0.931 . S
C1025 C1024 1.370 . S
C1025 C1029 1.408 . S
C1026 C1024 1.363 . S
C1026 C1027 1.370 . S
C1026 C1030 1.524 . S
C1027 C1019 1.503 . S
C1027 C1026 1.370 . S
C1027 C1028 1.403 . S
C1028 C1027 1.403 . S
C1028 C1029 1.404 . S
C1028 C1031 1.539 . S
C1029 C1025 1.408 . S
C1029 C1028 1.404 . S
C1029 H1041 0.930 . S
C1030 C1026 1.524 . S
C1030 H1042 0.956 . S
C1030 H1043 0.961 . S
C1030 H1044 0.961 . S
C1031 C1028 1.539 . S
C1031 H1045 0.958 . S
C1031 H1046 0.961 . S
C1031 H1047 0.960 . S
H1032 C1016 0.931 . S
H1033 C1021 0.929 . S
H1034 C1022 0.960 . S
H1035 C1022 0.962 . S
H1036 C1022 0.960 . S
H1037 C1023 0.961 . S
H1038 C1023 0.961 . S
H1039 C1023 0.961 . S
H1040 C1024 0.931 . S
H1041 C1029 0.930 . S
H1042 C1030 0.956 . S
H1043 C1030 0.961 . S
H1044 C1030 0.961 . S
H1045 C1031 0.958 . S
H1046 C1031 0.961 . S
H1047 C1031 0.960 . S
C1048 C1049 1.391 . S
C1048 C1050 1.394 1_545 S
C1048 H1064 0.931 . S
C1049 C1048 1.391 . S
C1049 C1053 1.376 1_545 S
C1050 C1048 1.394 1_565 S
C1050 C1051 1.369 . S
C1050 C1054 1.531 . S
C1051 C1050 1.369 . S
C1051 C1052 1.410 . S
C1051 C1059 1.503 1_556 S
C1052 C1051 1.410 . S
C1052 C1053 1.392 . S
C1052 C1055 1.511 1_556 S
C1053 C1049 1.376 1_565 S
C1053 C1052 1.392 . S
C1053 H1065 0.929 . S
C1054 C1050 1.531 . S
C1054 H1066 0.960 . S
C1054 H1067 0.942 1_565 S
C1054 H1068 0.982 . S
C1055 C1052 1.511 1_554 S
C1055 H1069 0.961 . S
C1055 H1070 0.961 . S
C1055 H1071 0.961 1_554 S
C1056 C1057 1.370 . S
C1056 C1058 1.363 . S
C1056 H1072 0.931 . S
C1057 C1056 1.370 . S
C1057 C1061 1.408 1_554 S
C1058 C1056 1.363 . S
C1058 C1059 1.370 . S
C1058 C1062 1.524 . S
C1059 C1051 1.503 1_554 S
C1059 C1058 1.370 . S
C1059 C1060 1.403 1_554 S
C1060 C1059 1.403 1_556 S
C1060 C1061 1.404 . S
C1060 C1063 1.539 . S
C1061 C1057 1.408 1_556 S
C1061 C1060 1.404 . S
C1061 H1073 0.930 . S
C1062 C1058 1.524 . S
C1062 H1074 0.956 . S
C1062 H1075 0.961 . S
C1062 H1076 0.961 . S
C1063 C1060 1.539 . S
C1063 H1077 0.958 . S
C1063 H1078 0.961 . S
C1063 H1079 0.960 . S
H1064 C1048 0.931 . S
H1065 C1053 0.929 . S
H1066 C1054 0.960 . S
H1067 C1054 0.942 1_545 S
H1068 C1054 0.982 . S
H1069 C1055 0.961 . S
H1070 C1055 0.961 . S
H1071 C1055 0.961 1_556 S
H1072 C1056 0.931 . S
H1073 C1061 0.930 . S
H1074 C1062 0.956 . S
H1075 C1062 0.961 . S
H1076 C1062 0.961 . S
H1077 C1063 0.958 . S
H1078 C1063 0.961 . S
H1079 C1063 0.960 . S
C1080 C1081 1.391 . S
C1080 C1082 1.394 . S
C1080 H1096 0.931 . S
C1081 C1080 1.391 . S
C1081 C1085 1.376 . S
C1082 C1080 1.394 . S
C1082 C1083 1.369 . S
C1082 C1086 1.531 . S
C1083 C1082 1.369 . S
C1083 C1084 1.410 . S
C1083 C1091 1.503 . S
C1084 C1083 1.410 . S
C1084 C1085 1.392 . S
C1084 C1087 1.511 . S
C1085 C1081 1.376 . S
C1085 C1084 1.392 . S
C1085 H1097 0.929 . S
C1086 C1082 1.531 . S
C1086 H1098 0.960 . S
C1086 H1099 0.962 . S
C1086 H1100 0.960 . S
C1087 C1084 1.511 . S
C1087 H1101 0.961 . S
C1087 H1102 0.961 . S
C1087 H1103 0.961 . S
C1088 C1089 1.370 . S
C1088 C1090 1.363 . S
C1088 H1104 0.931 . S
C1089 C1088 1.370 . S
C1089 C1093 1.408 . S
C1090 C1088 1.363 . S
C1090 C1091 1.370 . S
C1090 C1094 1.524 . S
C1091 C1083 1.503 . S
C1091 C1090 1.370 . S
C1091 C1092 1.403 . S
C1092 C1091 1.403 . S
C1092 C1093 1.404 . S
C1092 C1095 1.539 . S
C1093 C1089 1.408 . S
C1093 C1092 1.404 . S
C1093 H1105 0.930 . S
C1094 C1090 1.524 . S
C1094 H1106 0.956 . S
C1094 H1107 0.961 . S
C1094 H1108 0.961 . S
C1095 C1092 1.539 . S
C1095 H1109 0.958 . S
C1095 H1110 0.961 . S
C1095 H1111 0.960 . S
H1096 C1080 0.931 . S
H1097 C1085 0.929 . S
H1098 C1086 0.960 . S
H1099 C1086 0.962 . S
H1100 C1086 0.960 . S
H1101 C1087 0.961 . S
H1102 C1087 0.961 . S
H1103 C1087 0.961 . S
H1104 C1088 0.931 . S
H1105 C1093 0.930 . S
H1106 C1094 0.956 . S
H1107 C1094 0.961 . S
H1108 C1094 0.961 . S
H1109 C1095 0.958 . S
H1110 C1095 0.961 . S
H1111 C1095 0.960 . S
C1112 C1113 1.391 . S
C1112 C1114 1.394 . S
C1112 H1128 0.931 . S
C1113 C1112 1.391 . S
C1113 C1117 1.376 . S
C1114 C1112 1.394 . S
C1114 C1115 1.369 . S
C1114 C1118 1.531 . S
C1115 C1114 1.369 . S
C1115 C1116 1.410 . S
C1115 C1123 1.503 . S
C1116 C1115 1.410 . S
C1116 C1117 1.392 . S
C1116 C1119 1.511 . S
C1117 C1113 1.376 . S
C1117 C1116 1.392 . S
C1117 H1129 0.929 . S
C1118 C1114 1.531 . S
C1118 H1130 0.960 . S
C1118 H1131 0.962 . S
C1118 H1132 0.960 . S
C1119 C1116 1.511 . S
C1119 H1133 0.961 . S
C1119 H1134 0.961 . S
C1119 H1135 0.961 . S
C1120 C1121 1.370 . S
C1120 C1122 1.363 . S
C1120 H1136 0.931 . S
C1121 C1120 1.370 . S
C1121 C1125 1.408 . S
C1122 C1120 1.363 . S
C1122 C1123 1.370 . S
C1122 C1126 1.524 . S
C1123 C1115 1.503 . S
C1123 C1122 1.370 . S
C1123 C1124 1.403 . S
C1124 C1123 1.403 . S
C1124 C1125 1.404 . S
C1124 C1127 1.539 . S
C1125 C1121 1.408 . S
C1125 C1124 1.404 . S
C1125 H1137 0.930 . S
C1126 C1122 1.524 . S
C1126 H1138 0.956 . S
C1126 H1139 0.961 . S
C1126 H1140 0.961 . S
C1127 C1124 1.539 . S
C1127 H1141 0.958 . S
C1127 H1142 0.961 . S
C1127 H1143 0.960 . S
H1128 C1112 0.931 . S
H1129 C1117 0.929 . S
H1130 C1118 0.960 . S
H1131 C1118 0.962 . S
H1132 C1118 0.960 . S
H1133 C1119 0.961 . S
H1134 C1119 0.961 . S
H1135 C1119 0.961 . S
H1136 C1120 0.931 . S
H1137 C1125 0.930 . S
H1138 C1126 0.956 . S
H1139 C1126 0.961 . S
H1140 C1126 0.961 . S
H1141 C1127 0.958 . S
H1142 C1127 0.961 . S
H1143 C1127 0.960 . S
C1144 C1145 1.391 . S
C1144 C1146 1.394 . S
C1144 H1160 0.931 . S
C1145 C1144 1.391 . S
C1145 C1149 1.376 . S
C1146 C1144 1.394 . S
C1146 C1147 1.369 . S
C1146 C1150 1.531 . S
C1147 C1146 1.369 . S
C1147 C1148 1.410 . S
C1147 C1155 1.503 . S
C1148 C1147 1.410 . S
C1148 C1149 1.392 . S
C1148 C1151 1.511 . S
C1149 C1145 1.376 . S
C1149 C1148 1.392 . S
C1149 H1161 0.929 . S
C1150 C1146 1.531 . S
C1150 H1162 0.960 . S
C1150 H1163 0.962 . S
C1150 H1164 0.960 . S
C1151 C1148 1.511 . S
C1151 H1165 0.961 . S
C1151 H1166 0.961 . S
C1151 H1167 0.961 . S
C1152 C1153 1.370 . S
C1152 C1154 1.363 . S
C1152 H1168 0.931 . S
C1153 C1152 1.370 . S
C1153 C1157 1.408 . S
C1154 C1152 1.363 . S
C1154 C1155 1.370 . S
C1154 C1158 1.524 . S
C1155 C1147 1.503 . S
C1155 C1154 1.370 . S
C1155 C1156 1.403 . S
C1156 C1155 1.403 . S
C1156 C1157 1.404 . S
C1156 C1159 1.539 . S
C1157 C1153 1.408 . S
C1157 C1156 1.404 . S
C1157 H1169 0.930 . S
C1158 C1154 1.524 . S
C1158 H1170 0.956 . S
C1158 H1171 0.961 . S
C1158 H1172 0.961 . S
C1159 C1156 1.539 . S
C1159 H1173 0.958 . S
C1159 H1174 0.961 . S
C1159 H1175 0.960 . S
H1160 C1144 0.931 . S
H1161 C1149 0.929 . S
H1162 C1150 0.960 . S
H1163 C1150 0.962 . S
H1164 C1150 0.960 . S
H1165 C1151 0.961 . S
H1166 C1151 0.961 . S
H1167 C1151 0.961 . S
H1168 C1152 0.931 . S
H1169 C1157 0.930 . S
H1170 C1158 0.956 . S
H1171 C1158 0.961 . S
H1172 C1158 0.961 . S
H1173 C1159 0.958 . S
H1174 C1159 0.961 . S
H1175 C1159 0.960 . S
C1176 C1177 1.391 . S
C1176 C1178 1.394 . S
C1176 H1192 0.931 . S
C1177 C1176 1.391 . S
C1177 C1181 1.376 . S
C1178 C1176 1.394 . S
C1178 C1179 1.369 . S
C1178 C1182 1.531 . S
C1179 C1178 1.369 . S
C1179 C1180 1.410 . S
C1179 C1187 1.503 . S
C1180 C1179 1.410 . S
C1180 C1181 1.392 . S
C1180 C1183 1.511 . S
C1181 C1177 1.376 . S
C1181 C1180 1.392 . S
C1181 H1193 0.929 . S
C1182 C1178 1.531 . S
C1182 H1194 0.960 . S
C1182 H1195 0.962 . S
C1182 H1196 0.960 . S
C1183 C1180 1.511 . S
C1183 H1197 0.961 . S
C1183 H1198 0.961 . S
C1183 H1199 0.961 . S
C1184 C1185 1.370 . S
C1184 C1186 1.363 . S
C1184 H1200 0.931 . S
C1185 C1184 1.370 . S
C1185 C1189 1.408 . S
C1186 C1184 1.363 . S
C1186 C1187 1.370 . S
C1186 C1190 1.524 . S
C1187 C1179 1.503 . S
C1187 C1186 1.370 . S
C1187 C1188 1.403 . S
C1188 C1187 1.403 . S
C1188 C1189 1.404 . S
C1188 C1191 1.539 . S
C1189 C1185 1.408 . S
C1189 C1188 1.404 . S
C1189 H1201 0.930 . S
C1190 C1186 1.524 . S
C1190 H1202 0.956 . S
C1190 H1203 0.961 . S
C1190 H1204 0.961 . S
C1191 C1188 1.539 . S
C1191 H1205 0.958 . S
C1191 H1206 0.961 . S
C1191 H1207 0.960 . S
H1192 C1176 0.931 . S
H1193 C1181 0.929 . S
H1194 C1182 0.960 . S
H1195 C1182 0.962 . S
H1196 C1182 0.960 . S
H1197 C1183 0.961 . S
H1198 C1183 0.961 . S
H1199 C1183 0.961 . S
H1200 C1184 0.931 . S
H1201 C1189 0.930 . S
H1202 C1190 0.956 . S
H1203 C1190 0.961 . S
H1204 C1190 0.961 . S
H1205 C1191 0.958 . S
H1206 C1191 0.961 . S
H1207 C1191 0.960 . S
C1208 C1209 1.391 . S
C1208 C1210 1.394 . S
C1208 H1224 0.931 . S
C1209 C1208 1.391 . S
C1209 C1213 1.376 . S
C1210 C1208 1.394 . S
C1210 C1211 1.369 . S
C1210 C1214 1.531 . S
C1211 C1210 1.369 . S
C1211 C1212 1.410 . S
C1211 C1219 1.503 . S
C1212 C1211 1.410 . S
C1212 C1213 1.392 . S
C1212 C1215 1.511 . S
C1213 C1209 1.376 . S
C1213 C1212 1.392 . S
C1213 H1225 0.929 . S
C1214 C1210 1.531 . S
C1214 H1226 0.960 . S
C1214 H1227 0.962 . S
C1214 H1228 0.960 . S
C1215 C1212 1.511 . S
C1215 H1229 0.961 . S
C1215 H1230 0.961 . S
C1215 H1231 0.961 . S
C1216 C1217 1.370 . S
C1216 C1218 1.363 . S
C1216 H1232 0.931 . S
C1217 C1216 1.370 . S
C1217 C1221 1.408 . S
C1218 C1216 1.363 . S
C1218 C1219 1.370 . S
C1218 C1222 1.524 . S
C1219 C1211 1.503 . S
C1219 C1218 1.370 . S
C1219 C1220 1.403 . S
C1220 C1219 1.403 . S
C1220 C1221 1.404 . S
C1220 C1223 1.539 . S
C1221 C1217 1.408 . S
C1221 C1220 1.404 . S
C1221 H1233 0.930 . S
C1222 C1218 1.524 . S
C1222 H1234 0.956 . S
C1222 H1235 0.961 . S
C1222 H1236 0.961 . S
C1223 C1220 1.539 . S
C1223 H1237 0.958 . S
C1223 H1238 0.961 . S
C1223 H1239 0.960 . S
H1224 C1208 0.931 . S
H1225 C1213 0.929 . S
H1226 C1214 0.960 . S
H1227 C1214 0.962 . S
H1228 C1214 0.960 . S
H1229 C1215 0.961 . S
H1230 C1215 0.961 . S
H1231 C1215 0.961 . S
H1232 C1216 0.931 . S
H1233 C1221 0.930 . S
H1234 C1222 0.956 . S
H1235 C1222 0.961 . S
H1236 C1222 0.961 . S
H1237 C1223 0.958 . S
H1238 C1223 0.961 . S
H1239 C1223 0.960 . S
C1240 C1241 1.391 . S
C1240 C1242 1.394 . S
C1240 H1256 0.931 . S
C1241 C1240 1.391 . S
C1241 C1245 1.376 . S
C1242 C1240 1.394 . S
C1242 C1243 1.369 . S
C1242 C1246 1.531 . S
C1243 C1242 1.369 . S
C1243 C1244 1.410 . S
C1243 C1251 1.503 . S
C1244 C1243 1.410 . S
C1244 C1245 1.392 . S
C1244 C1247 1.511 . S
C1245 C1241 1.376 . S
C1245 C1244 1.392 . S
C1245 H1257 0.929 . S
C1246 C1242 1.531 . S
C1246 H1258 0.960 . S
C1246 H1259 0.962 . S
C1246 H1260 0.960 . S
C1247 C1244 1.511 . S
C1247 H1261 0.961 . S
C1247 H1262 0.961 . S
C1247 H1263 0.961 . S
C1248 C1249 1.370 . S
C1248 C1250 1.363 . S
C1248 H1264 0.931 . S
C1249 C1248 1.370 . S
C1249 C1253 1.408 . S
C1250 C1248 1.363 . S
C1250 C1251 1.370 . S
C1250 C1254 1.524 . S
C1251 C1243 1.503 . S
C1251 C1250 1.370 . S
C1251 C1252 1.403 . S
C1252 C1251 1.403 . S
C1252 C1253 1.404 . S
C1252 C1255 1.539 . S
C1253 C1249 1.408 . S
C1253 C1252 1.404 . S
C1253 H1265 0.930 . S
C1254 C1250 1.524 . S
C1254 H1266 0.956 . S
C1254 H1267 0.961 . S
C1254 H1268 0.961 . S
C1255 C1252 1.539 . S
C1255 H1269 0.958 . S
C1255 H1270 0.961 . S
C1255 H1271 0.960 . S
H1256 C1240 0.931 . S
H1257 C1245 0.929 . S
H1258 C1246 0.960 . S
H1259 C1246 0.962 . S
H1260 C1246 0.960 . S
H1261 C1247 0.961 . S
H1262 C1247 0.961 . S
H1263 C1247 0.961 . S
H1264 C1248 0.931 . S
H1265 C1253 0.930 . S
H1266 C1254 0.956 . S
H1267 C1254 0.961 . S
H1268 C1254 0.961 . S
H1269 C1255 0.958 . S
H1270 C1255 0.961 . S
H1271 C1255 0.960 . S
C1272 C1273 1.391 . S
C1272 C1274 1.394 . S
C1272 H1288 0.931 . S
C1273 C1272 1.391 . S
C1273 C1277 1.376 . S
C1274 C1272 1.394 . S
C1274 C1275 1.369 . S
C1274 C1278 1.530 . S
C1275 C1274 1.369 . S
C1275 C1276 1.410 . S
C1275 C1283 1.503 . S
C1276 C1275 1.410 . S
C1276 C1277 1.392 . S
C1276 C1279 1.511 . S
C1277 C1273 1.376 . S
C1277 C1276 1.392 . S
C1277 H1289 0.929 . S
C1278 C1274 1.530 . S
C1278 H1290 0.960 1_545 S
C1278 H1291 0.961 . S
C1278 H1292 0.961 1_545 S
C1279 C1276 1.511 . S
C1279 H1293 0.961 . S
C1279 H1294 0.961 . S
C1279 H1295 0.961 . S
C1280 C1281 1.370 . S
C1280 C1282 1.363 . S
C1280 H1296 0.931 . S
C1281 C1280 1.370 . S
C1281 C1285 1.408 . S
C1282 C1280 1.363 . S
C1282 C1283 1.370 . S
C1282 C1286 1.524 . S
C1283 C1275 1.503 . S
C1283 C1282 1.370 . S
C1283 C1284 1.403 . S
C1284 C1283 1.403 . S
C1284 C1285 1.404 . S
C1284 C1287 1.539 1_545 S
C1285 C1281 1.408 . S
C1285 C1284 1.404 . S
C1285 H1297 0.930 1_545 S
C1286 C1282 1.524 . S
C1286 H1298 0.956 . S
C1286 H1299 0.961 . S
C1286 H1300 0.961 . S
C1287 C1284 1.539 1_565 S
C1287 H1301 0.958 . S
C1287 H1302 0.961 . S
C1287 H1303 0.960 . S
H1288 C1272 0.931 . S
H1289 C1277 0.929 . S
H1290 C1278 0.960 1_565 S
H1291 C1278 0.961 . S
H1292 C1278 0.961 1_565 S
H1293 C1279 0.961 . S
H1294 C1279 0.961 . S
H1295 C1279 0.961 . S
H1296 C1280 0.931 . S
H1297 C1285 0.930 1_565 S
H1298 C1286 0.956 . S
H1299 C1286 0.961 . S
H1300 C1286 0.961 . S
H1301 C1287 0.958 . S
H1302 C1287 0.961 . S
H1303 C1287 0.960 . S
C1304 C1305 1.391 . S
C1304 C1306 1.394 . S
C1304 H1320 0.931 . S
C1305 C1304 1.391 . S
C1305 C1309 1.376 . S
C1306 C1304 1.394 . S
C1306 C1307 1.369 . S
C1306 C1310 1.531 . S
C1307 C1306 1.369 . S
C1307 C1308 1.410 . S
C1307 C1315 1.503 . S
C1308 C1307 1.410 . S
C1308 C1309 1.392 . S
C1308 C1311 1.511 . S
C1309 C1305 1.376 . S
C1309 C1308 1.392 . S
C1309 H1321 0.929 . S
C1310 C1306 1.531 . S
C1310 H1322 0.960 . S
C1310 H1323 0.962 . S
C1310 H1324 0.960 . S
C1311 C1308 1.511 . S
C1311 H1325 0.961 . S
C1311 H1326 0.961 . S
C1311 H1327 0.961 . S
C1312 C1313 1.370 . S
C1312 C1314 1.363 . S
C1312 H1328 0.931 . S
C1313 C1312 1.370 . S
C1313 C1317 1.408 . S
C1314 C1312 1.363 . S
C1314 C1315 1.370 . S
C1314 C1318 1.524 . S
C1315 C1307 1.503 . S
C1315 C1314 1.370 . S
C1315 C1316 1.403 . S
C1316 C1315 1.403 . S
C1316 C1317 1.404 . S
C1316 C1319 1.539 . S
C1317 C1313 1.408 . S
C1317 C1316 1.404 . S
C1317 H1329 0.930 . S
C1318 C1314 1.524 . S
C1318 H1330 0.956 . S
C1318 H1331 0.961 . S
C1318 H1332 0.961 . S
C1319 C1316 1.539 . S
C1319 H1333 0.958 . S
C1319 H1334 0.961 . S
C1319 H1335 0.960 . S
H1320 C1304 0.931 . S
H1321 C1309 0.929 . S
H1322 C1310 0.960 . S
H1323 C1310 0.962 . S
H1324 C1310 0.960 . S
H1325 C1311 0.961 . S
H1326 C1311 0.961 . S
H1327 C1311 0.961 . S
H1328 C1312 0.931 . S
H1329 C1317 0.930 . S
H1330 C1318 0.956 . S
H1331 C1318 0.961 . S
H1332 C1318 0.961 . S
H1333 C1319 0.958 . S
H1334 C1319 0.961 . S
H1335 C1319 0.960 . S
C1336 C1337 1.391 . S
C1336 C1338 1.394 . S
C1336 H1352 0.931 . S
C1337 C1336 1.391 . S
C1337 C1341 1.376 . S
C1338 C1336 1.394 . S
C1338 C1339 1.369 . S
C1338 C1342 1.531 . S
C1339 C1338 1.369 . S
C1339 C1340 1.410 . S
C1339 C1347 1.503 . S
C1340 C1339 1.410 . S
C1340 C1341 1.392 . S
C1340 C1343 1.511 . S
C1341 C1337 1.376 . S
C1341 C1340 1.392 . S
C1341 H1353 0.929 . S
C1342 C1338 1.531 . S
C1342 H1354 0.960 . S
C1342 H1355 0.962 . S
C1342 H1356 0.960 . S
C1343 C1340 1.511 . S
C1343 H1357 0.961 . S
C1343 H1358 0.961 . S
C1343 H1359 0.961 . S
C1344 C1345 1.370 . S
C1344 C1346 1.363 . S
C1344 H1360 0.931 . S
C1345 C1344 1.370 . S
C1345 C1349 1.408 . S
C1346 C1344 1.363 . S
C1346 C1347 1.370 . S
C1346 C1350 1.524 . S
C1347 C1339 1.503 . S
C1347 C1346 1.370 . S
C1347 C1348 1.403 . S
C1348 C1347 1.403 . S
C1348 C1349 1.404 . S
C1348 C1351 1.539 . S
C1349 C1345 1.408 . S
C1349 C1348 1.404 . S
C1349 H1361 0.930 . S
C1350 C1346 1.524 . S
C1350 H1362 0.956 . S
C1350 H1363 0.961 . S
C1350 H1364 0.961 . S
C1351 C1348 1.539 . S
C1351 H1365 0.958 . S
C1351 H1366 0.961 . S
C1351 H1367 0.960 . S
H1352 C1336 0.931 . S
H1353 C1341 0.929 . S
H1354 C1342 0.960 . S
H1355 C1342 0.962 . S
H1356 C1342 0.960 . S
H1357 C1343 0.961 . S
H1358 C1343 0.961 . S
H1359 C1343 0.961 . S
H1360 C1344 0.931 . S
H1361 C1349 0.930 . S
H1362 C1350 0.956 . S
H1363 C1350 0.961 . S
H1364 C1350 0.961 . S
H1365 C1351 0.958 . S
H1366 C1351 0.961 . S
H1367 C1351 0.960 . S
C1368 C1369 1.391 . S
C1368 C1370 1.394 . S
C1368 H1384 0.931 . S
C1369 C1368 1.391 . S
C1369 C1373 1.376 . S
C1370 C1368 1.394 . S
C1370 C1371 1.369 . S
C1370 C1374 1.531 . S
C1371 C1370 1.369 . S
C1371 C1372 1.410 . S
C1371 C1379 1.503 . S
C1372 C1371 1.410 . S
C1372 C1373 1.392 . S
C1372 C1375 1.511 . S
C1373 C1369 1.376 . S
C1373 C1372 1.392 . S
C1373 H1385 0.929 . S
C1374 C1370 1.531 . S
C1374 H1386 0.960 . S
C1374 H1387 0.962 . S
C1374 H1388 0.960 . S
C1375 C1372 1.511 . S
C1375 H1389 0.961 . S
C1375 H1390 0.961 . S
C1375 H1391 0.961 . S
C1376 C1377 1.370 . S
C1376 C1378 1.363 . S
C1376 H1392 0.931 . S
C1377 C1376 1.370 . S
C1377 C1381 1.408 . S
C1378 C1376 1.363 . S
C1378 C1379 1.370 . S
C1378 C1382 1.524 . S
C1379 C1371 1.503 . S
C1379 C1378 1.370 . S
C1379 C1380 1.403 . S
C1380 C1379 1.403 . S
C1380 C1381 1.404 . S
C1380 C1383 1.539 . S
C1381 C1377 1.408 . S
C1381 C1380 1.404 . S
C1381 H1393 0.930 . S
C1382 C1378 1.524 . S
C1382 H1394 0.956 . S
C1382 H1395 0.961 . S
C1382 H1396 0.961 . S
C1383 C1380 1.539 . S
C1383 H1397 0.958 . S
C1383 H1398 0.961 . S
C1383 H1399 0.960 . S
H1384 C1368 0.931 . S
H1385 C1373 0.929 . S
H1386 C1374 0.960 . S
H1387 C1374 0.962 . S
H1388 C1374 0.960 . S
H1389 C1375 0.961 . S
H1390 C1375 0.961 . S
H1391 C1375 0.961 . S
H1392 C1376 0.931 . S
H1393 C1381 0.930 . S
H1394 C1382 0.956 . S
H1395 C1382 0.961 . S
H1396 C1382 0.961 . S
H1397 C1383 0.958 . S
H1398 C1383 0.961 . S
H1399 C1383 0.960 . S
C1400 C1401 1.390 . S
C1400 C1402 1.394 1_455 S
C1400 H1416 0.931 1_455 S
C1401 C1400 1.390 . S
C1401 C1405 1.376 . S
C1402 C1400 1.394 1_655 S
C1402 C1403 1.369 1_655 S
C1402 C1406 1.531 . S
C1403 C1402 1.369 1_455 S
C1403 C1404 1.410 . S
C1403 C1411 1.503 . S
C1404 C1403 1.410 . S
C1404 C1405 1.392 . S
C1404 C1407 1.511 . S
C1405 C1401 1.376 . S
C1405 C1404 1.392 . S
C1405 H1417 0.929 . S
C1406 C1402 1.531 . S
C1406 H1418 0.960 1_545 S
C1406 H1419 0.962 . S
C1406 H1420 0.960 1_545 S
C1407 C1404 1.511 . S
C1407 H1421 0.961 . S
C1407 H1422 0.961 . S
C1407 H1423 0.961 . S
C1408 C1409 1.370 . S
C1408 C1410 1.363 . S
C1408 H1424 0.931 . S
C1409 C1408 1.370 . S
C1409 C1413 1.408 . S
C1410 C1408 1.363 . S
C1410 C1411 1.370 1_655 S
C1410 C1414 1.524 1_655 S
C1411 C1403 1.503 . S
C1411 C1410 1.370 1_455 S
C1411 C1412 1.403 1_455 S
C1412 C1411 1.403 1_655 S
C1412 C1413 1.404 . S
C1412 C1415 1.539 1_645 S
C1413 C1409 1.408 . S
C1413 C1412 1.404 . S
C1413 H1425 0.930 1_545 S
C1414 C1410 1.524 1_455 S
C1414 H1426 0.952 1_455 S
C1414 H1427 0.967 . S
C1414 H1428 0.959 1_455 S
C1415 C1412 1.539 1_465 S
C1415 H1429 0.958 1_455 S
C1415 H1430 0.961 . S
C1415 H1431 0.960 . S
H1416 C1400 0.931 1_655 S
H1417 C1405 0.929 . S
H1418 C1406 0.960 1_565 S
H1419 C1406 0.962 . S
H1420 C1406 0.960 1_565 S
H1421 C1407 0.961 . S
H1422 C1407 0.961 . S
H1423 C1407 0.961 . S
H1424 C1408 0.931 . S
H1425 C1413 0.930 1_565 S
H1426 C1414 0.952 1_655 S
H1427 C1414 0.967 . S
H1428 C1414 0.959 1_655 S
H1429 C1415 0.958 1_655 S
H1430 C1415 0.961 . S
H1431 C1415 0.960 . S
C1432 C1433 1.391 . S
C1432 C1434 1.394 . S
C1432 H1448 0.931 . S
C1433 C1432 1.391 . S
C1433 C1437 1.376 . S
C1434 C1432 1.394 . S
C1434 C1435 1.369 . S
C1434 C1438 1.531 . S
C1435 C1434 1.369 . S
C1435 C1436 1.410 . S
C1435 C1443 1.503 . S
C1436 C1435 1.410 . S
C1436 C1437 1.392 . S
C1436 C1439 1.511 . S
C1437 C1433 1.376 . S
C1437 C1436 1.392 . S
C1437 H1449 0.929 . S
C1438 C1434 1.531 . S
C1438 H1450 0.960 . S
C1438 H1451 0.962 . S
C1438 H1452 0.960 . S
C1439 C1436 1.511 . S
C1439 H1453 0.961 . S
C1439 H1454 0.961 . S
C1439 H1455 0.961 . S
C1440 C1441 1.370 . S
C1440 C1442 1.363 . S
C1440 H1456 0.931 . S
C1441 C1440 1.370 . S
C1441 C1445 1.408 . S
C1442 C1440 1.363 . S
C1442 C1443 1.370 . S
C1442 C1446 1.524 . S
C1443 C1435 1.503 . S
C1443 C1442 1.370 . S
C1443 C1444 1.403 . S
C1444 C1443 1.403 . S
C1444 C1445 1.404 . S
C1444 C1447 1.539 . S
C1445 C1441 1.408 . S
C1445 C1444 1.404 . S
C1445 H1457 0.930 . S
C1446 C1442 1.524 . S
C1446 H1458 0.956 . S
C1446 H1459 0.961 . S
C1446 H1460 0.961 . S
C1447 C1444 1.539 . S
C1447 H1461 0.958 . S
C1447 H1462 0.961 . S
C1447 H1463 0.960 . S
H1448 C1432 0.931 . S
H1449 C1437 0.929 . S
H1450 C1438 0.960 . S
H1451 C1438 0.962 . S
H1452 C1438 0.960 . S
H1453 C1439 0.961 . S
H1454 C1439 0.961 . S
H1455 C1439 0.961 . S
H1456 C1440 0.931 . S
H1457 C1445 0.930 . S
H1458 C1446 0.956 . S
H1459 C1446 0.961 . S
H1460 C1446 0.961 . S
H1461 C1447 0.958 . S
H1462 C1447 0.961 . S
H1463 C1447 0.960 . S
C1464 C1465 1.391 . S
C1464 C1466 1.394 . S
C1464 H1480 0.931 1_455 S
C1465 C1464 1.391 . S
C1465 C1469 1.376 . S
C1466 C1464 1.394 . S
C1466 C1467 1.369 . S
C1466 C1470 1.531 . S
C1467 C1466 1.369 . S
C1467 C1468 1.410 . S
C1467 C1475 1.503 . S
C1468 C1467 1.410 . S
C1468 C1469 1.392 . S
C1468 C1471 1.511 . S
C1469 C1465 1.376 . S
C1469 C1468 1.392 . S
C1469 H1481 0.929 . S
C1470 C1466 1.531 . S
C1470 H1482 0.960 . S
C1470 H1483 0.962 . S
C1470 H1484 0.992 . S
C1471 C1468 1.511 . S
C1471 H1485 0.961 . S
C1471 H1486 0.961 . S
C1471 H1487 0.961 . S
C1472 C1473 1.370 . S
C1472 C1474 1.363 . S
C1472 H1488 0.931 . S
C1473 C1472 1.370 . S
C1473 C1477 1.408 . S
C1474 C1472 1.363 . S
C1474 C1475 1.370 . S
C1474 C1478 1.524 . S
C1475 C1467 1.503 . S
C1475 C1474 1.370 . S
C1475 C1476 1.403 . S
C1476 C1475 1.403 . S
C1476 C1477 1.404 . S
C1476 C1479 1.539 . S
C1477 C1473 1.408 . S
C1477 C1476 1.404 . S
C1477 H1489 0.930 . S
C1478 C1474 1.524 . S
C1478 H1490 0.956 . S
C1478 H1491 0.961 . S
C1478 H1492 0.961 . S
C1479 C1476 1.539 . S
C1479 H1493 0.958 . S
C1479 H1494 0.961 . S
C1479 H1495 0.960 . S
H1480 C1464 0.931 1_655 S
H1481 C1469 0.929 . S
H1482 C1470 0.960 . S
H1483 C1470 0.962 . S
H1484 C1470 0.992 . S
H1485 C1471 0.961 . S
H1486 C1471 0.961 . S
H1487 C1471 0.961 . S
H1488 C1472 0.931 . S
H1489 C1477 0.930 . S
H1490 C1478 0.956 . S
H1491 C1478 0.961 . S
H1492 C1478 0.961 . S
H1493 C1479 0.958 . S
H1494 C1479 0.961 . S
H1495 C1479 0.960 . S
C1496 C1497 1.391 . S
C1496 C1498 1.394 . S
C1496 H1512 0.931 . S
C1497 C1496 1.391 . S
C1497 C1501 1.376 . S
C1498 C1496 1.394 . S
C1498 C1499 1.369 . S
C1498 C1502 1.531 . S
C1499 C1498 1.369 . S
C1499 C1500 1.410 . S
C1499 C1507 1.503 . S
C1500 C1499 1.410 . S
C1500 C1501 1.392 . S
C1500 C1503 1.511 . S
C1501 C1497 1.376 . S
C1501 C1500 1.392 . S
C1501 H1513 0.929 . S
C1502 C1498 1.531 . S
C1502 H1514 0.960 . S
C1502 H1515 0.962 . S
C1502 H1516 0.960 . S
C1503 C1500 1.511 . S
C1503 H1517 0.961 . S
C1503 H1518 0.961 . S
C1503 H1519 0.961 . S
C1504 C1505 1.370 . S
C1504 C1506 1.363 . S
C1504 H1520 0.931 . S
C1505 C1504 1.370 . S
C1505 C1509 1.408 . S
C1506 C1504 1.363 . S
C1506 C1507 1.370 . S
C1506 C1510 1.524 . S
C1507 C1499 1.503 . S
C1507 C1506 1.370 . S
C1507 C1508 1.403 . S
C1508 C1507 1.403 . S
C1508 C1509 1.404 . S
C1508 C1511 1.539 . S
C1509 C1505 1.408 . S
C1509 C1508 1.404 . S
C1509 H1521 0.930 . S
C1510 C1506 1.524 . S
C1510 H1522 0.956 . S
C1510 H1523 0.961 . S
C1510 H1524 0.961 . S
C1511 C1508 1.539 . S
C1511 H1525 0.958 . S
C1511 H1526 0.961 . S
C1511 H1527 0.960 . S
H1512 C1496 0.931 . S
H1513 C1501 0.929 . S
H1514 C1502 0.960 . S
H1515 C1502 0.962 . S
H1516 C1502 0.960 . S
H1517 C1503 0.961 . S
H1518 C1503 0.961 . S
H1519 C1503 0.961 . S
H1520 C1504 0.931 . S
H1521 C1509 0.930 . S
H1522 C1510 0.956 . S
H1523 C1510 0.961 . S
H1524 C1510 0.961 . S
H1525 C1511 0.958 . S
H1526 C1511 0.961 . S
H1527 C1511 0.960 . S
C1528 C1529 1.391 . S
C1528 C1530 1.394 . S
C1528 H1544 0.935 1_556 S
C1529 C1528 1.391 . S
C1529 C1533 1.376 1_455 S
C1530 C1528 1.394 . S
C1530 C1531 1.369 . S
C1530 C1534 1.531 . S
C1531 C1530 1.369 . S
C1531 C1532 1.410 1_455 S
C1531 C1539 1.503 . S
C1532 C1531 1.410 1_655 S
C1532 C1533 1.392 . S
C1532 C1535 1.511 . S
C1533 C1529 1.376 1_655 S
C1533 C1532 1.392 . S
C1533 H1545 0.929 . S
C1534 C1530 1.531 . S
C1534 H1546 0.960 . S
C1534 H1547 0.962 . S
C1534 H1548 0.960 . S
C1535 C1532 1.511 . S
C1535 H1549 0.961 . S
C1535 H1550 0.961 . S
C1535 H1551 0.961 . S
C1536 C1537 1.370 . S
C1536 C1538 1.363 . S
C1536 H1552 0.931 . S
C1537 C1536 1.370 . S
C1537 C1541 1.408 1_455 S
C1538 C1536 1.363 . S
C1538 C1539 1.370 . S
C1538 C1542 1.524 . S
C1539 C1531 1.503 . S
C1539 C1538 1.370 . S
C1539 C1540 1.403 1_455 S
C1540 C1539 1.403 1_655 S
C1540 C1541 1.404 . S
C1540 C1543 1.539 . S
C1541 C1537 1.408 1_655 S
C1541 C1540 1.404 . S
C1541 H1553 0.930 . S
C1542 C1538 1.524 . S
C1542 H1554 0.956 . S
C1542 H1555 0.961 . S
C1542 H1556 0.961 . S
C1543 C1540 1.539 . S
C1543 H1557 0.958 . S
C1543 H1558 0.961 . S
C1543 H1559 0.960 . S
H1544 C1528 0.935 1_554 S
H1545 C1533 0.929 . S
H1546 C1534 0.960 . S
H1547 C1534 0.962 . S
H1548 C1534 0.960 . S
H1549 C1535 0.961 . S
H1550 C1535 0.961 . S
H1551 C1535 0.961 . S
H1552 C1536 0.931 . S
H1553 C1541 0.930 . S
H1554 C1542 0.956 . S
H1555 C1542 0.961 . S
H1556 C1542 0.961 . S
H1557 C1543 0.958 . S
H1558 C1543 0.961 . S
H1559 C1543 0.960 . S
C1560 C1561 1.391 . S
C1560 C1562 1.394 . S
C1560 H1576 0.931 . S
C1561 C1560 1.391 . S
C1561 C1565 1.376 . S
C1562 C1560 1.394 . S
C1562 C1563 1.369 . S
C1562 C1566 1.531 . S
C1563 C1562 1.369 . S
C1563 C1564 1.410 . S
C1563 C1571 1.503 . S
C1564 C1563 1.410 . S
C1564 C1565 1.392 . S
C1564 C1567 1.511 . S
C1565 C1561 1.376 . S
C1565 C1564 1.392 . S
C1565 H1577 0.929 . S
C1566 C1562 1.531 . S
C1566 H1578 0.960 . S
C1566 H1579 0.962 . S
C1566 H1580 0.960 . S
C1567 C1564 1.511 . S
C1567 H1581 0.961 . S
C1567 H1582 0.961 . S
C1567 H1583 0.961 . S
C1568 C1569 1.370 . S
C1568 C1570 1.363 . S
C1568 H1584 0.931 . S
C1569 C1568 1.370 . S
C1569 C1573 1.408 . S
C1570 C1568 1.363 . S
C1570 C1571 1.370 . S
C1570 C1574 1.524 . S
C1571 C1563 1.503 . S
C1571 C1570 1.370 . S
C1571 C1572 1.403 . S
C1572 C1571 1.403 . S
C1572 C1573 1.404 . S
C1572 C1575 1.539 . S
C1573 C1569 1.408 . S
C1573 C1572 1.404 . S
C1573 H1585 0.930 . S
C1574 C1570 1.524 . S
C1574 H1586 0.956 . S
C1574 H1587 0.961 . S
C1574 H1588 0.961 . S
C1575 C1572 1.539 . S
C1575 H1589 0.958 . S
C1575 H1590 0.961 . S
C1575 H1591 0.960 . S
H1576 C1560 0.931 . S
H1577 C1565 0.929 . S
H1578 C1566 0.960 . S
H1579 C1566 0.962 . S
H1580 C1566 0.960 . S
H1581 C1567 0.961 . S
H1582 C1567 0.961 . S
H1583 C1567 0.961 . S
H1584 C1568 0.931 . S
H1585 C1573 0.930 . S
H1586 C1574 0.956 . S
H1587 C1574 0.961 . S
H1588 C1574 0.961 . S
H1589 C1575 0.958 . S
H1590 C1575 0.961 . S
H1591 C1575 0.960 . S
C1592 C1593 1.391 . S
C1592 C1594 1.394 . S
C1592 H1608 0.931 . S
C1593 C1592 1.391 . S
C1593 C1597 1.376 . S
C1594 C1592 1.394 . S
C1594 C1595 1.369 . S
C1594 C1598 1.531 . S
C1595 C1594 1.369 . S
C1595 C1596 1.410 . S
C1595 C1603 1.503 . S
C1596 C1595 1.410 . S
C1596 C1597 1.392 . S
C1596 C1599 1.511 1_455 S
C1597 C1593 1.376 . S
C1597 C1596 1.392 . S
C1597 H1609 0.929 1_455 S
C1598 C1594 1.531 . S
C1598 H1610 0.960 . S
C1598 H1611 0.962 . S
C1598 H1612 0.960 . S
C1599 C1596 1.511 1_655 S
C1599 H1613 0.961 . S
C1599 H1614 0.961 . S
C1599 H1615 0.961 . S
C1600 C1601 1.370 . S
C1600 C1602 1.363 . S
C1600 H1616 0.931 . S
C1601 C1600 1.370 . S
C1601 C1605 1.408 . S
C1602 C1600 1.363 . S
C1602 C1603 1.370 . S
C1602 C1606 1.524 . S
C1603 C1595 1.503 . S
C1603 C1602 1.370 . S
C1603 C1604 1.403 . S
C1604 C1603 1.403 . S
C1604 C1605 1.404 . S
C1604 C1607 1.539 . S
C1605 C1601 1.408 . S
C1605 C1604 1.404 . S
C1605 H1617 0.930 . S
C1606 C1602 1.524 . S
C1606 H1618 0.956 . S
C1606 H1619 0.961 . S
C1606 H1620 0.961 . S
C1607 C1604 1.539 . S
C1607 H1621 0.958 . S
C1607 H1622 0.961 . S
C1607 H1623 0.960 . S
H1608 C1592 0.931 . S
H1609 C1597 0.929 1_655 S
H1610 C1598 0.960 . S
H1611 C1598 0.962 . S
H1612 C1598 0.960 . S
H1613 C1599 0.961 . S
H1614 C1599 0.961 . S
H1615 C1599 0.961 . S
H1616 C1600 0.931 . S
H1617 C1605 0.930 . S
H1618 C1606 0.956 . S
H1619 C1606 0.961 . S
H1620 C1606 0.961 . S
H1621 C1607 0.958 . S
H1622 C1607 0.961 . S
H1623 C1607 0.960 . S
C1624 C1625 1.391 . S
C1624 C1626 1.394 . S
C1624 H1640 0.931 . S
C1625 C1624 1.391 . S
C1625 C1629 1.376 . S
C1626 C1624 1.394 . S
C1626 C1627 1.369 . S
C1626 C1630 1.531 . S
C1627 C1626 1.369 . S
C1627 C1628 1.410 . S
C1627 C1635 1.503 . S
C1628 C1627 1.410 . S
C1628 C1629 1.392 . S
C1628 C1631 1.511 . S
C1629 C1625 1.376 . S
C1629 C1628 1.392 . S
C1629 H1641 0.929 . S
C1630 C1626 1.531 . S
C1630 H1642 0.960 . S
C1630 H1643 0.962 . S
C1630 H1644 0.960 . S
C1631 C1628 1.511 . S
C1631 H1645 0.961 . S
C1631 H1646 0.961 . S
C1631 H1647 0.961 . S
C1632 C1633 1.370 . S
C1632 C1634 1.363 . S
C1632 H1648 0.931 . S
C1633 C1632 1.370 . S
C1633 C1637 1.408 . S
C1634 C1632 1.363 . S
C1634 C1635 1.370 . S
C1634 C1638 1.524 . S
C1635 C1627 1.503 . S
C1635 C1634 1.370 . S
C1635 C1636 1.403 . S
C1636 C1635 1.403 . S
C1636 C1637 1.404 . S
C1636 C1639 1.539 . S
C1637 C1633 1.408 . S
C1637 C1636 1.404 . S
C1637 H1649 0.930 . S
C1638 C1634 1.524 . S
C1638 H1650 0.956 . S
C1638 H1651 0.961 . S
C1638 H1652 0.961 . S
C1639 C1636 1.539 . S
C1639 H1653 0.958 . S
C1639 H1654 0.961 . S
C1639 H1655 0.960 . S
H1640 C1624 0.931 . S
H1641 C1629 0.929 . S
H1642 C1630 0.960 . S
H1643 C1630 0.962 . S
H1644 C1630 0.960 . S
H1645 C1631 0.961 . S
H1646 C1631 0.961 . S
H1647 C1631 0.961 . S
H1648 C1632 0.931 . S
H1649 C1637 0.930 . S
H1650 C1638 0.956 . S
H1651 C1638 0.961 . S
H1652 C1638 0.961 . S
H1653 C1639 0.958 . S
H1654 C1639 0.961 . S
H1655 C1639 0.960 . S
C1656 C1657 1.391 . S
C1656 C1658 1.394 . S
C1656 H1672 0.931 . S
C1657 C1656 1.391 . S
C1657 C1661 1.376 . S
C1658 C1656 1.394 . S
C1658 C1659 1.369 . S
C1658 C1662 1.531 . S
C1659 C1658 1.369 . S
C1659 C1660 1.410 . S
C1659 C1667 1.503 . S
C1660 C1659 1.410 . S
C1660 C1661 1.392 . S
C1660 C1663 1.511 . S
C1661 C1657 1.376 . S
C1661 C1660 1.392 . S
C1661 H1673 0.929 . S
C1662 C1658 1.531 . S
C1662 H1674 0.960 . S
C1662 H1675 0.962 . S
C1662 H1676 0.960 . S
C1663 C1660 1.511 . S
C1663 H1677 0.961 . S
C1663 H1678 0.961 . S
C1663 H1679 0.961 . S
C1664 C1665 1.370 . S
C1664 C1666 1.363 . S
C1664 H1680 0.931 . S
C1665 C1664 1.370 . S
C1665 C1669 1.408 . S
C1666 C1664 1.363 . S
C1666 C1667 1.370 . S
C1666 C1670 1.524 . S
C1667 C1659 1.503 . S
C1667 C1666 1.370 . S
C1667 C1668 1.403 . S
C1668 C1667 1.403 . S
C1668 C1669 1.404 . S
C1668 C1671 1.539 . S
C1669 C1665 1.408 . S
C1669 C1668 1.404 . S
C1669 H1681 0.930 . S
C1670 C1666 1.524 . S
C1670 H1682 0.956 . S
C1670 H1683 0.961 . S
C1670 H1684 0.961 . S
C1671 C1668 1.539 . S
C1671 H1685 0.958 . S
C1671 H1686 0.961 . S
C1671 H1687 0.960 . S
H1672 C1656 0.931 . S
H1673 C1661 0.929 . S
H1674 C1662 0.960 . S
H1675 C1662 0.962 . S
H1676 C1662 0.960 . S
H1677 C1663 0.961 . S
H1678 C1663 0.961 . S
H1679 C1663 0.961 . S
H1680 C1664 0.931 . S
H1681 C1669 0.930 . S
H1682 C1670 0.956 . S
H1683 C1670 0.961 . S
H1684 C1670 0.961 . S
H1685 C1671 0.958 . S
H1686 C1671 0.961 . S
H1687 C1671 0.960 . S
C1688 C1689 1.391 . S
C1688 C1690 1.394 . S
C1688 H1704 0.931 . S
C1689 C1688 1.391 . S
C1689 C1693 1.376 . S
C1690 C1688 1.394 . S
C1690 C1691 1.369 . S
C1690 C1694 1.531 . S
C1691 C1690 1.369 . S
C1691 C1692 1.410 . S
C1691 C1699 1.503 . S
C1692 C1691 1.410 . S
C1692 C1693 1.392 . S
C1692 C1695 1.511 . S
C1693 C1689 1.376 . S
C1693 C1692 1.392 . S
C1693 H1705 0.929 . S
C1694 C1690 1.531 . S
C1694 H1706 0.960 . S
C1694 H1707 0.962 . S
C1694 H1708 0.960 . S
C1695 C1692 1.511 . S
C1695 H1709 0.961 . S
C1695 H1710 0.961 . S
C1695 H1711 0.961 . S
C1696 C1697 1.370 . S
C1696 C1698 1.363 . S
C1696 H1712 0.931 . S
C1697 C1696 1.370 . S
C1697 C1701 1.408 . S
C1698 C1696 1.363 . S
C1698 C1699 1.370 . S
C1698 C1702 1.524 . S
C1699 C1691 1.503 . S
C1699 C1698 1.370 . S
C1699 C1700 1.403 . S
C1700 C1699 1.403 . S
C1700 C1701 1.404 . S
C1700 C1703 1.539 . S
C1701 C1697 1.408 . S
C1701 C1700 1.404 . S
C1701 H1713 0.930 . S
C1702 C1698 1.524 . S
C1702 H1714 0.956 . S
C1702 H1715 0.961 . S
C1702 H1716 0.961 . S
C1703 C1700 1.539 . S
C1703 H1717 0.958 . S
C1703 H1718 0.961 . S
C1703 H1719 0.960 . S
H1704 C1688 0.931 . S
H1705 C1693 0.929 . S
H1706 C1694 0.960 . S
H1707 C1694 0.962 . S
H1708 C1694 0.960 . S
H1709 C1695 0.961 . S
H1710 C1695 0.961 . S
H1711 C1695 0.961 . S
H1712 C1696 0.931 . S
H1713 C1701 0.930 . S
H1714 C1702 0.956 . S
H1715 C1702 0.961 . S
H1716 C1702 0.961 . S
H1717 C1703 0.958 . S
H1718 C1703 0.961 . S
H1719 C1703 0.960 . S
C1720 C1721 1.365 1_554 S
C1720 C1722 1.394 . S
C1720 H1736 0.931 . S
C1721 C1720 1.365 1_556 S
C1721 C1725 1.378 1_556 S
C1722 C1720 1.394 . S
C1722 C1723 1.369 . S
C1722 C1726 1.531 . S
C1723 C1722 1.369 . S
C1723 C1724 1.410 . S
C1723 C1731 1.503 . S
C1724 C1723 1.410 . S
C1724 C1725 1.392 . S
C1724 C1727 1.511 . S
C1725 C1721 1.378 1_554 S
C1725 C1724 1.392 . S
C1725 H1737 0.929 1_554 S
C1726 C1722 1.531 . S
C1726 H1738 0.960 . S
C1726 H1739 0.962 . S
C1726 H1740 0.960 . S
C1727 C1724 1.511 . S
C1727 H1741 0.961 . S
C1727 H1742 0.961 . S
C1727 H1743 0.961 . S
C1728 C1729 1.370 . S
C1728 C1730 1.363 . S
C1728 H1744 0.931 . S
C1729 C1728 1.370 . S
C1729 C1733 1.408 . S
C1730 C1728 1.363 . S
C1730 C1731 1.370 . S
C1730 C1734 1.524 . S
C1731 C1723 1.503 . S
C1731 C1730 1.370 . S
C1731 C1732 1.403 . S
C1732 C1731 1.403 . S
C1732 C1733 1.404 . S
C1732 C1735 1.539 . S
C1733 C1729 1.408 . S
C1733 C1732 1.404 . S
C1733 H1745 0.930 . S
C1734 C1730 1.524 . S
C1734 H1746 0.956 . S
C1734 H1747 0.961 . S
C1734 H1748 0.961 . S
C1735 C1732 1.539 . S
C1735 H1749 0.958 . S
C1735 H1750 0.961 . S
C1735 H1751 0.960 . S
H1736 C1720 0.931 . S
H1737 C1725 0.929 1_556 S
H1738 C1726 0.960 . S
H1739 C1726 0.962 . S
H1740 C1726 0.960 . S
H1741 C1727 0.961 . S
H1742 C1727 0.961 . S
H1743 C1727 0.961 . S
H1744 C1728 0.931 . S
H1745 C1733 0.930 . S
H1746 C1734 0.956 . S
H1747 C1734 0.961 . S
H1748 C1734 0.961 . S
H1749 C1735 0.958 . S
H1750 C1735 0.961 . S
H1751 C1735 0.960 . S
C1752 C1753 1.391 . S
C1752 C1754 1.394 . S
C1752 H1768 0.931 . S
C1753 C1752 1.391 . S
C1753 C1757 1.376 . S
C1754 C1752 1.394 . S
C1754 C1755 1.369 . S
C1754 C1758 1.531 . S
C1755 C1754 1.369 . S
C1755 C1756 1.410 . S
C1755 C1763 1.503 . S
C1756 C1755 1.410 . S
C1756 C1757 1.392 . S
C1756 C1759 1.511 . S
C1757 C1753 1.376 . S
C1757 C1756 1.392 . S
C1757 H1769 0.929 . S
C1758 C1754 1.531 . S
C1758 H1770 0.960 . S
C1758 H1771 0.962 . S
C1758 H1772 0.960 . S
C1759 C1756 1.511 . S
C1759 H1773 0.961 . S
C1759 H1774 0.961 . S
C1759 H1775 0.961 . S
C1760 C1761 1.370 . S
C1760 C1762 1.363 . S
C1760 H1776 0.931 . S
C1761 C1760 1.370 . S
C1761 C1765 1.408 . S
C1762 C1760 1.363 . S
C1762 C1763 1.370 . S
C1762 C1766 1.524 . S
C1763 C1755 1.503 . S
C1763 C1762 1.370 . S
C1763 C1764 1.403 . S
C1764 C1763 1.403 . S
C1764 C1765 1.404 . S
C1764 C1767 1.539 . S
C1765 C1761 1.408 . S
C1765 C1764 1.404 . S
C1765 H1777 0.930 . S
C1766 C1762 1.524 . S
C1766 H1778 0.956 . S
C1766 H1779 0.961 . S
C1766 H1780 0.961 . S
C1767 C1764 1.539 . S
C1767 H1781 0.958 . S
C1767 H1782 0.961 . S
C1767 H1783 0.960 . S
H1768 C1752 0.931 . S
H1769 C1757 0.929 . S
H1770 C1758 0.960 . S
H1771 C1758 0.962 . S
H1772 C1758 0.960 . S
H1773 C1759 0.961 . S
H1774 C1759 0.961 . S
H1775 C1759 0.961 . S
H1776 C1760 0.931 . S
H1777 C1765 0.930 . S
H1778 C1766 0.956 . S
H1779 C1766 0.961 . S
H1780 C1766 0.961 . S
H1781 C1767 0.958 . S
H1782 C1767 0.961 . S
H1783 C1767 0.960 . S
C1784 C1785 1.391 . S
C1784 C1786 1.394 . S
C1784 H1800 0.931 . S
C1785 C1784 1.391 . S
C1785 C1789 1.376 . S
C1786 C1784 1.394 . S
C1786 C1787 1.369 . S
C1786 C1790 1.531 . S
C1787 C1786 1.369 . S
C1787 C1788 1.410 . S
C1787 C1795 1.503 . S
C1788 C1787 1.410 . S
C1788 C1789 1.392 . S
C1788 C1791 1.511 . S
C1789 C1785 1.376 . S
C1789 C1788 1.392 . S
C1789 H1801 0.929 . S
C1790 C1786 1.531 . S
C1790 H1802 0.960 . S
C1790 H1803 0.962 . S
C1790 H1804 0.960 . S
C1791 C1788 1.511 . S
C1791 H1805 0.961 . S
C1791 H1806 0.961 . S
C1791 H1807 0.961 . S
C1792 C1793 1.370 . S
C1792 C1794 1.363 . S
C1792 H1808 0.931 . S
C1793 C1792 1.370 . S
C1793 C1797 1.408 . S
C1794 C1792 1.363 . S
C1794 C1795 1.370 . S
C1794 C1798 1.524 . S
C1795 C1787 1.503 . S
C1795 C1794 1.370 . S
C1795 C1796 1.403 . S
C1796 C1795 1.403 . S
C1796 C1797 1.404 . S
C1796 C1799 1.539 . S
C1797 C1793 1.408 . S
C1797 C1796 1.404 . S
C1797 H1809 0.930 . S
C1798 C1794 1.524 . S
C1798 H1810 0.956 . S
C1798 H1811 0.961 . S
C1798 H1812 0.961 . S
C1799 C1796 1.539 . S
C1799 H1813 0.958 . S
C1799 H1814 0.961 . S
C1799 H1815 0.960 . S
H1800 C1784 0.931 . S
H1801 C1789 0.929 . S
H1802 C1790 0.960 . S
H1803 C1790 0.962 . S
H1804 C1790 0.960 . S
H1805 C1791 0.961 . S
H1806 C1791 0.961 . S
H1807 C1791 0.961 . S
H1808 C1792 0.931 . S
H1809 C1797 0.930 . S
H1810 C1798 0.956 . S
H1811 C1798 0.961 . S
H1812 C1798 0.961 . S
H1813 C1799 0.958 . S
H1814 C1799 0.961 . S
H1815 C1799 0.960 . S
C1816 C1817 1.391 . S
C1816 C1818 1.394 . S
C1816 H1832 0.931 . S
C1817 C1816 1.391 . S
C1817 C1821 1.376 . S
C1818 C1816 1.394 . S
C1818 C1819 1.369 . S
C1818 C1822 1.531 . S
C1819 C1818 1.369 . S
C1819 C1820 1.410 . S
C1819 C1827 1.503 . S
C1820 C1819 1.410 . S
C1820 C1821 1.392 . S
C1820 C1823 1.511 . S
C1821 C1817 1.376 . S
C1821 C1820 1.392 . S
C1821 H1833 0.929 . S
C1822 C1818 1.531 . S
C1822 H1834 0.960 . S
C1822 H1835 0.962 . S
C1822 H1836 0.960 . S
C1823 C1820 1.511 . S
C1823 H1837 0.961 . S
C1823 H1838 0.961 . S
C1823 H1839 0.961 . S
C1824 C1825 1.370 . S
C1824 C1826 1.363 . S
C1824 H1840 0.931 . S
C1825 C1824 1.370 . S
C1825 C1829 1.408 . S
C1826 C1824 1.363 . S
C1826 C1827 1.370 . S
C1826 C1830 1.524 . S
C1827 C1819 1.503 . S
C1827 C1826 1.370 . S
C1827 C1828 1.403 . S
C1828 C1827 1.403 . S
C1828 C1829 1.404 . S
C1828 C1831 1.539 . S
C1829 C1825 1.408 . S
C1829 C1828 1.404 . S
C1829 H1841 0.930 . S
C1830 C1826 1.524 . S
C1830 H1842 0.956 . S
C1830 H1843 0.961 . S
C1830 H1844 0.961 . S
C1831 C1828 1.539 . S
C1831 H1845 0.958 . S
C1831 H1846 0.961 . S
C1831 H1847 0.960 . S
H1832 C1816 0.931 . S
H1833 C1821 0.929 . S
H1834 C1822 0.960 . S
H1835 C1822 0.962 . S
H1836 C1822 0.960 . S
H1837 C1823 0.961 . S
H1838 C1823 0.961 . S
H1839 C1823 0.961 . S
H1840 C1824 0.931 . S
H1841 C1829 0.930 . S
H1842 C1830 0.956 . S
H1843 C1830 0.961 . S
H1844 C1830 0.961 . S
H1845 C1831 0.958 . S
H1846 C1831 0.961 . S
H1847 C1831 0.960 . S
C1848 C1849 1.391 . S
C1848 C1850 1.394 . S
C1848 H1864 0.931 . S
C1849 C1848 1.391 . S
C1849 C1853 1.376 . S
C1850 C1848 1.394 . S
C1850 C1851 1.369 . S
C1850 C1854 1.531 . S
C1851 C1850 1.369 . S
C1851 C1852 1.410 . S
C1851 C1859 1.503 . S
C1852 C1851 1.410 . S
C1852 C1853 1.392 . S
C1852 C1855 1.511 . S
C1853 C1849 1.376 . S
C1853 C1852 1.392 . S
C1853 H1865 0.929 . S
C1854 C1850 1.531 . S
C1854 H1866 0.960 . S
C1854 H1867 0.962 . S
C1854 H1868 0.960 . S
C1855 C1852 1.511 . S
C1855 H1869 0.961 . S
C1855 H1870 0.961 . S
C1855 H1871 0.961 . S
C1856 C1857 1.370 . S
C1856 C1858 1.363 . S
C1856 H1872 0.931 . S
C1857 C1856 1.370 . S
C1857 C1861 1.408 . S
C1858 C1856 1.363 . S
C1858 C1859 1.370 . S
C1858 C1862 1.524 . S
C1859 C1851 1.503 . S
C1859 C1858 1.370 . S
C1859 C1860 1.403 . S
C1860 C1859 1.403 . S
C1860 C1861 1.404 . S
C1860 C1863 1.539 . S
C1861 C1857 1.408 . S
C1861 C1860 1.404 . S
C1861 H1873 0.930 . S
C1862 C1858 1.524 . S
C1862 H1874 0.956 . S
C1862 H1875 0.961 . S
C1862 H1876 0.961 . S
C1863 C1860 1.539 . S
C1863 H1877 0.958 . S
C1863 H1878 0.961 . S
C1863 H1879 0.960 . S
H1864 C1848 0.931 . S
H1865 C1853 0.929 . S
H1866 C1854 0.960 . S
H1867 C1854 0.962 . S
H1868 C1854 0.960 . S
H1869 C1855 0.961 . S
H1870 C1855 0.961 . S
H1871 C1855 0.961 . S
H1872 C1856 0.931 . S
H1873 C1861 0.930 . S
H1874 C1862 0.956 . S
H1875 C1862 0.961 . S
H1876 C1862 0.961 . S
H1877 C1863 0.958 . S
H1878 C1863 0.961 . S
H1879 C1863 0.960 . S
C1880 C1881 1.391 . S
C1880 C1882 1.394 . S
C1880 H1896 0.931 . S
C1881 C1880 1.391 . S
C1881 C1885 1.376 . S
C1882 C1880 1.394 . S
C1882 C1883 1.369 . S
C1882 C1886 1.531 . S
C1883 C1882 1.369 . S
C1883 C1884 1.410 . S
C1883 C1891 1.503 . S
C1884 C1883 1.410 . S
C1884 C1885 1.392 . S
C1884 C1887 1.511 1_556 S
C1885 C1881 1.376 . S
C1885 C1884 1.392 . S
C1885 H1897 0.929 1_556 S
C1886 C1882 1.531 . S
C1886 H1898 0.960 . S
C1886 H1899 0.962 . S
C1886 H1900 0.960 . S
C1887 C1884 1.511 1_554 S
C1887 H1901 0.961 . S
C1887 H1902 0.961 . S
C1887 H1903 0.961 1_554 S
C1888 C1889 1.370 1_554 S
C1888 C1890 1.363 . S
C1888 H1904 0.931 . S
C1889 C1888 1.370 1_556 S
C1889 C1893 1.408 . S
C1890 C1888 1.363 . S
C1890 C1891 1.370 1_554 S
C1890 C1894 1.524 . S
C1891 C1883 1.503 . S
C1891 C1890 1.370 1_556 S
C1891 C1892 1.403 . S
C1892 C1891 1.403 . S
C1892 C1893 1.404 . S
C1892 C1895 1.539 . S
C1893 C1889 1.408 . S
C1893 C1892 1.404 . S
C1893 H1905 0.930 . S
C1894 C1890 1.524 . S
C1894 H1906 0.956 . S
C1894 H1907 0.961 . S
C1894 H1908 0.961 . S
C1895 C1892 1.539 . S
C1895 H1909 0.958 . S
C1895 H1910 0.961 . S
C1895 H1911 0.960 . S
H1896 C1880 0.931 . S
H1897 C1885 0.929 1_554 S
H1898 C1886 0.960 . S
H1899 C1886 0.962 . S
H1900 C1886 0.960 . S
H1901 C1887 0.961 . S
H1902 C1887 0.961 . S
H1903 C1887 0.961 1_556 S
H1904 C1888 0.931 . S
H1905 C1893 0.930 . S
H1906 C1894 0.956 . S
H1907 C1894 0.961 . S
H1908 C1894 0.961 . S
H1909 C1895 0.958 . S
H1910 C1895 0.961 . S
H1911 C1895 0.960 . S
C1912 C1913 1.391 . S
C1912 C1914 1.394 . S
C1912 H1928 0.931 . S
C1913 C1912 1.391 . S
C1913 C1917 1.376 . S
C1914 C1912 1.394 . S
C1914 C1915 1.369 . S
C1914 C1918 1.531 . S
C1915 C1914 1.369 . S
C1915 C1916 1.410 . S
C1915 C1923 1.503 . S
C1916 C1915 1.410 . S
C1916 C1917 1.392 . S
C1916 C1919 1.511 . S
C1917 C1913 1.376 . S
C1917 C1916 1.392 . S
C1917 H1929 0.929 . S
C1918 C1914 1.531 . S
C1918 H1930 0.960 . S
C1918 H1931 0.962 . S
C1918 H1932 0.960 . S
C1919 C1916 1.511 . S
C1919 H1933 0.961 . S
C1919 H1934 0.961 . S
C1919 H1935 0.961 . S
C1920 C1921 1.370 . S
C1920 C1922 1.363 . S
C1920 H1936 0.931 . S
C1921 C1920 1.370 . S
C1921 C1925 1.408 . S
C1922 C1920 1.363 . S
C1922 C1923 1.370 . S
C1922 C1926 1.524 . S
C1923 C1915 1.503 . S
C1923 C1922 1.370 . S
C1923 C1924 1.403 . S
C1924 C1923 1.403 . S
C1924 C1925 1.404 . S
C1924 C1927 1.539 . S
C1925 C1921 1.408 . S
C1925 C1924 1.404 . S
C1925 H1937 0.930 . S
C1926 C1922 1.524 . S
C1926 H1938 0.956 . S
C1926 H1939 0.961 . S
C1926 H1940 0.961 . S
C1927 C1924 1.539 . S
C1927 H1941 0.958 . S
C1927 H1942 0.961 . S
C1927 H1943 0.960 . S
H1928 C1912 0.931 . S
H1929 C1917 0.929 . S
H1930 C1918 0.960 . S
H1931 C1918 0.962 . S
H1932 C1918 0.960 . S
H1933 C1919 0.961 . S
H1934 C1919 0.961 . S
H1935 C1919 0.961 . S
H1936 C1920 0.931 . S
H1937 C1925 0.930 . S
H1938 C1926 0.956 . S
H1939 C1926 0.961 . S
H1940 C1926 0.961 . S
H1941 C1927 0.958 . S
H1942 C1927 0.961 . S
H1943 C1927 0.960 . S
C1944 C1945 1.391 . S
C1944 C1946 1.394 . S
C1944 H1960 0.931 . S
C1945 C1944 1.391 . S
C1945 C1949 1.376 . S
C1946 C1944 1.394 . S
C1946 C1947 1.369 . S
C1946 C1950 1.531 . S
C1947 C1946 1.369 . S
C1947 C1948 1.410 . S
C1947 C1955 1.503 . S
C1948 C1947 1.410 . S
C1948 C1949 1.392 . S
C1948 C1951 1.511 . S
C1949 C1945 1.376 . S
C1949 C1948 1.392 . S
C1949 H1961 0.929 . S
C1950 C1946 1.531 . S
C1950 H1962 0.960 1_554 S
C1950 H1963 0.962 . S
C1950 H1964 0.960 1_554 S
C1951 C1948 1.511 . S
C1951 H1965 0.961 . S
C1951 H1966 0.961 . S
C1951 H1967 0.961 . S
C1952 C1953 1.370 . S
C1952 C1954 1.363 . S
C1952 H1968 0.931 . S
C1953 C1952 1.370 . S
C1953 C1957 1.408 1_554 S
C1954 C1952 1.363 . S
C1954 C1955 1.370 . S
C1954 C1958 1.524 . S
C1955 C1947 1.503 . S
C1955 C1954 1.370 . S
C1955 C1956 1.403 1_554 S
C1956 C1955 1.403 1_556 S
C1956 C1957 1.404 . S
C1956 C1959 1.539 . S
C1957 C1953 1.408 1_556 S
C1957 C1956 1.404 . S
C1957 H1969 0.930 . S
C1958 C1954 1.524 . S
C1958 H1970 0.956 . S
C1958 H1971 0.961 . S
C1958 H1972 0.961 . S
C1959 C1956 1.539 . S
C1959 H1973 0.958 . S
C1959 H1974 0.961 . S
C1959 H1975 0.960 . S
H1960 C1944 0.931 . S
H1961 C1949 0.929 . S
H1962 C1950 0.960 1_556 S
H1963 C1950 0.962 . S
H1964 C1950 0.960 1_556 S
H1965 C1951 0.961 . S
H1966 C1951 0.961 . S
H1967 C1951 0.961 . S
H1968 C1952 0.931 . S
H1969 C1957 0.930 . S
H1970 C1958 0.956 . S
H1971 C1958 0.961 . S
H1972 C1958 0.961 . S
H1973 C1959 0.958 . S
H1974 C1959 0.961 . S
H1975 C1959 0.960 . S
C1976 C1977 1.391 . S
C1976 C1978 1.394 . S
C1976 H1992 0.931 1_565 S
C1977 C1976 1.391 . S
C1977 C1981 1.376 . S
C1978 C1976 1.394 . S
C1978 C1979 1.369 . S
C1978 C1982 1.531 . S
C1979 C1978 1.369 . S
C1979 C1980 1.410 . S
C1979 C1987 1.503 . S
C1980 C1979 1.410 . S
C1980 C1981 1.392 . S
C1980 C1983 1.511 . S
C1981 C1977 1.376 . S
C1981 C1980 1.392 . S
C1981 H1993 0.929 . S
C1982 C1978 1.531 . S
C1982 H1994 0.960 . S
C1982 H1995 0.962 1_565 S
C1982 H1996 0.960 1_565 S
C1983 C1980 1.511 . S
C1983 H1997 0.961 . S
C1983 H1998 0.961 . S
C1983 H1999 0.961 . S
C1984 C1985 1.370 . S
C1984 C1986 1.363 . S
C1984 H2000 0.931 . S
C1985 C1984 1.370 . S
C1985 C1989 1.408 . S
C1986 C1984 1.363 . S
C1986 C1987 1.370 . S
C1986 C1990 1.524 . S
C1987 C1979 1.503 . S
C1987 C1986 1.370 . S
C1987 C1988 1.403 . S
C1988 C1987 1.403 . S
C1988 C1989 1.404 . S
C1988 C1991 1.539 . S
C1989 C1985 1.408 . S
C1989 C1988 1.404 . S
C1989 H2001 0.930 . S
C1990 C1986 1.524 . S
C1990 H2002 0.956 . S
C1990 H2003 0.951 1_554 S
C1990 H2004 0.961 1_554 S
C1991 C1988 1.539 . S
C1991 H2005 0.958 . S
C1991 H2006 0.961 . S
C1991 H2007 0.960 . S
H1992 C1976 0.931 1_545 S
H1993 C1981 0.929 . S
H1994 C1982 0.960 . S
H1995 C1982 0.962 1_545 S
H1996 C1982 0.960 1_545 S
H1997 C1983 0.961 . S
H1998 C1983 0.961 . S
H1999 C1983 0.961 . S
H2000 C1984 0.931 . S
H2001 C1989 0.930 . S
H2002 C1990 0.956 . S
H2003 C1990 0.951 1_556 S
H2004 C1990 0.961 1_556 S
H2005 C1991 0.958 . S
H2006 C1991 0.961 . S
H2007 C1991 0.960 . S
C481 C315 1.781 . S
C473 C101 1.827 . S
C513 C323 0.906 . S
C505 C125 1.099 . S
C537 C139 1.949 . S
C545 C343 1.910 . S
C577 C357 1.738 1_455 S
C569 C82 1.796 . S
C609 C372 1.595 . S
C601 C196 1.597 . S
C641 C386 1.867 . S
C633 C234 1.861 . S
C665 C220 0.924 . S
C673 C400 0.948 . S
C705 C406 1.601 . S
C697 C173 1.674 . S
C729 C211 1.138 . S
C737 C420 1.153 . S
C769 C441 1.100 . S
C761 C182 1.059 . S
C793 C201 1.227 . S
C801 C421 1.145 . S
C833 C442 1.350 . S
C825 C239 1.255 . S
C857 C135 1.634 . S
C865 C449 1.442 . S
C889 C87 1.741 . S
C897 C455 1.902 . S
C921 C106 1.057 . S
C929 C448 1.238 . S
C953 C116 1.189 . S
C961 C456 1.198 . S
C985 C59 1.896 . S
C993 C350 1.872 . S
C1017 C268 2.203 . S
C1025 C351 2.016 . S
C1057 C308 1.174 . S
C1049 C291 1.217 . S
C1089 C329 1.429 . S
C1081 C163 1.276 . S
C1113 C78 2.023 1_545 S
C1121 C364 2.016 . S
C1153 C414 1.197 . S
C1145 C215 1.203 . S
C1185 C365 1.428 . S
C1177 C177 1.537 1_545 S
C1217 C393 1.543 . S
C1209 C230 1.832 . S
C1249 C399 1.810 . S
C1241 C272 1.816 . S
C1273 C296 1.007 . S
C1281 C407 0.974 . S
C1305 C158 1.956 . S
C1313 C371 1.923 . S
C1345 C385 1.731 . S
C1337 C253 1.775 . S
C1369 C63 1.589 . S
C1377 C344 1.586 . S
C1409 C358 1.872 . S
C1401 C6 1.879 . S
C1441 C316 0.933 . S
C1433 C30 0.887 . S
C1473 C322 1.633 . S
C1465 C40 1.696 . S
C1497 C21 1.148 . S
C1505 C434 1.168 . S
C1529 C49 1.070 . S
C1537 C427 1.086 . S
C1561 C68 1.265 . S
C1569 C435 1.153 . S
C1593 C11 1.296 . S
C1601 C428 1.356 . S
C1633 C463 1.399 . S
C1625 C154 1.618 . S
C1665 C469 1.911 . S
C1657 C258 1.764 . S
C1697 C462 1.257 . S
C1689 C277 1.131 . S
C1721 C287 1.198 . S
C1729 C470 1.200 . S
C1753 C192 1.890 . S
C1761 C378 1.868 . S
C1793 C379 1.989 . S
C1785 C97 2.179 . S
C1825 C392 1.176 . S
C1817 C120 1.218 . S
C1857 C413 1.439 . S
C1849 C144 1.324 . S
C1881 C249 2.016 . S
C1889 C336 2.019 . S
C1921 C330 1.219 . S
C1913 C25 1.220 . S
C1945 C44 1.526 . S
C1953 C337 1.405 . S
C1985 C309 1.528 . S
C1977 C2 1.836 1_565 S
