# Generated by pormake.
# Topology zzz, (3,6)-cn, num edge types: 1
# Building blocks:
#     Node 0, Type 0, BuildingBlock: KAKCAD_clean_linker_0, # of connection points: 3
#     Node 1, Type 0, BuildingBlock: KAKCAD_clean_linker_0, # of connection points: 3
#     Node 2, Type 0, BuildingBlock: KAKCAD_clean_linker_0, # of connection points: 3
#     Node 3, Type 0, BuildingBlock: KAKCAD_clean_linker_0, # of connection points: 3
#     Node 4, Type 0, BuildingBlock: KAKCAD_clean_linker_0, # of connection points: 3
#     Node 5, Type 0, BuildingBlock: KAKCAD_clean_linker_0, # of connection points: 3
#     Node 6, Type 0, BuildingBlock: KAKCAD_clean_linker_0, # of connection points: 3
#     Node 7, Type 0, BuildingBlock: KAKCAD_clean_linker_0, # of connection points: 3
#     Node 8, Type 1, BuildingBlock: LEVNOQ01_clean_sbu_1, # of connection points: 6
#     Node 9, Type 1, BuildingBlock: LEVNOQ01_clean_sbu_1, # of connection points: 6
#     Node 10, Type 1, BuildingBlock: LEVNOQ01_clean_sbu_1, # of connection points: 6
#     Node 11, Type 1, BuildingBlock: LEVNOQ01_clean_sbu_1, # of connection points: 6
#     Edge 12, Type (0, 1), BuildingBlock: ZUJKAS_clean_linker_0, # of connection points: 2
#     Edge 13, Type (0, 1), BuildingBlock: ZUJKAS_clean_linker_0, # of connection points: 2
#     Edge 14, Type (0, 1), BuildingBlock: ZUJKAS_clean_linker_0, # of connection points: 2
#     Edge 15, Type (0, 1), BuildingBlock: ZUJKAS_clean_linker_0, # of connection points: 2
#     Edge 16, Type (0, 1), BuildingBlock: ZUJKAS_clean_linker_0, # of connection points: 2
#     Edge 17, Type (0, 1), BuildingBlock: ZUJKAS_clean_linker_0, # of connection points: 2
#     Edge 18, Type (0, 1), BuildingBlock: ZUJKAS_clean_linker_0, # of connection points: 2
#     Edge 19, Type (0, 1), BuildingBlock: ZUJKAS_clean_linker_0, # of connection points: 2
#     Edge 20, Type (0, 1), BuildingBlock: ZUJKAS_clean_linker_0, # of connection points: 2
#     Edge 21, Type (0, 1), BuildingBlock: ZUJKAS_clean_linker_0, # of connection points: 2
#     Edge 22, Type (0, 1), BuildingBlock: ZUJKAS_clean_linker_0, # of connection points: 2
#     Edge 23, Type (0, 1), BuildingBlock: ZUJKAS_clean_linker_0, # of connection points: 2
#     Edge 24, Type (0, 1), BuildingBlock: ZUJKAS_clean_linker_0, # of connection points: 2
#     Edge 25, Type (0, 1), BuildingBlock: ZUJKAS_clean_linker_0, # of connection points: 2
#     Edge 26, Type (0, 1), BuildingBlock: ZUJKAS_clean_linker_0, # of connection points: 2
#     Edge 27, Type (0, 1), BuildingBlock: ZUJKAS_clean_linker_0, # of connection points: 2
#     Edge 28, Type (0, 1), BuildingBlock: ZUJKAS_clean_linker_0, # of connection points: 2
#     Edge 29, Type (0, 1), BuildingBlock: ZUJKAS_clean_linker_0, # of connection points: 2
#     Edge 30, Type (0, 1), BuildingBlock: ZUJKAS_clean_linker_0, # of connection points: 2
#     Edge 31, Type (0, 1), BuildingBlock: ZUJKAS_clean_linker_0, # of connection points: 2
#     Edge 32, Type (0, 1), BuildingBlock: ZUJKAS_clean_linker_0, # of connection points: 2
#     Edge 33, Type (0, 1), BuildingBlock: ZUJKAS_clean_linker_0, # of connection points: 2
#     Edge 34, Type (0, 1), BuildingBlock: ZUJKAS_clean_linker_0, # of connection points: 2
#     Edge 35, Type (0, 1), BuildingBlock: ZUJKAS_clean_linker_0, # of connection points: 2
# Relax obj value: 0.303
# Max RMSD: 0.217
# Mean RMSD: 0.206
data_MOF--net-zzz--node1-LEVNOQ01_clean_sbu_1--node2-KAKCAD_clean_linker_0--edge1-ZUJKAS_clean_linker_0
_symmetry_space_group_name_H-M    P1
_symmetry_Int_Tables_number       1
_symmetry_cell_setting            triclinic
loop_
_symmetry_equiv_pos_as_xyz
'x, y, z'
_cell_length_a     68.257906
_cell_length_b     73.880655
_cell_length_c     26.120396
_cell_angle_alpha  89.838201
_cell_angle_beta   89.93914
_cell_angle_gamma 88.568341
loop_
_atom_site_label
_atom_site_type_symbol
_atom_site_fract_x
_atom_site_fract_y
_atom_site_fract_z
_atom_type_partial_charge
C0 C 0.80447 0.61476 0.98887 0.0
C1 C 0.82353 0.60762 0.99465 0.0
C2 C 0.79156 0.61504 0.03069 0.0
C3 C 0.79728 0.60739 0.07824 0.0
C4 C 0.81683 0.60107 0.08369 0.0
C5 C 0.8298 0.60146 0.04272 0.0
C6 C 0.78269 0.60374 0.11973 0.0
C7 C 0.76309 0.60017 0.10771 0.0
C8 C 0.75022 0.59317 0.14452 0.0
C9 C 0.75749 0.58875 0.19366 0.0
C10 C 0.77691 0.59276 0.20666 0.0
C11 C 0.78892 0.60109 0.17055 0.0
C12 C 0.78638 0.58591 0.2541 0.0
C13 C 0.7922 0.59799 0.29229 0.0
C14 C 0.79372 0.568 0.25524 0.0
C15 C 0.80741 0.56249 0.29234 0.0
C16 C 0.81389 0.57473 0.32942 0.0
C17 C 0.72973 0.58942 0.12879 0.0
C18 C 0.71915 0.60228 0.09937 0.0
C19 C 0.72144 0.57247 0.13774 0.0
C20 C 0.70353 0.56812 0.115 0.0
C21 C 0.69358 0.58065 0.0829 0.0
C22 C 0.70134 0.59796 0.07672 0.0
C23 C 0.80565 0.59237 0.33009 0.0
H24 H 0.79938 0.61947 0.95177 0.0
H25 H 0.77689 0.62055 0.0249 0.0
H26 H 0.82203 0.59455 0.11837 0.0
H27 H 0.84438 0.59553 0.04757 0.0
H28 H 0.75795 0.6017 0.06873 0.0
H29 H 0.80372 0.60426 0.18166 0.0
H30 H 0.74821 0.58221 0.22144 0.0
H31 H 0.78713 0.61199 0.29129 0.0
H32 H 0.78984 0.5586 0.22537 0.0
H33 H 0.81339 0.54877 0.29108 0.0
H34 H 0.725 0.61557 0.09242 0.0
H35 H 0.7293 0.56223 0.1599 0.0
H36 H 0.81044 0.60212 0.35801 0.0
H37 H 0.69387 0.60806 0.05319 0.0
H38 H 0.69802 0.55463 0.12039 0.0
C39 C 0.99313 0.78561 0.0293 0.0
C40 C 0.0119 0.79072 0.01329 0.0
C41 C 0.99098 0.77364 0.0701 0.0
C42 C 0.00751 0.76673 0.09581 0.0
C43 C 0.02627 0.77084 0.07835 0.0
C44 C 0.02847 0.7826 0.03692 0.0
C45 C 0.00494 0.75644 0.14325 0.0
C46 C 0.99953 0.73845 0.14123 0.0
C47 C 0.99533 0.72891 0.1862 0.0
C48 C 0.99628 0.73775 0.23399 0.0
C49 C 1.00178 0.75607 0.23609 0.0
C50 C 0.00625 0.76516 0.19041 0.0
C51 C 1.00195 0.76664 0.28436 0.0
C52 C 0.98467 0.76949 0.31275 0.0
C53 C 0.01848 0.77673 0.29656 0.0
C54 C 0.01748 0.7901 0.33427 0.0
C55 C 0.99987 0.79382 0.36068 0.0
C56 C 0.99011 0.70976 0.18023 0.0
C57 C 0.97274 0.70584 0.15427 0.0
C58 C 0.00478 0.69621 0.18495 0.0
C59 C 1.00286 0.67959 0.1599 0.0
C60 C 0.98631 0.67639 0.12943 0.0
C61 C 0.97083 0.68931 0.12917 0.0
C62 C 0.98361 0.78301 0.35044 0.0
H63 H 0.98002 0.79174 0.01274 0.0
H64 H 0.97639 0.77054 0.08337 0.0
H65 H 0.03916 0.76543 0.09778 0.0
H66 H 0.04313 0.78596 0.02492 0.0
H67 H 0.99848 0.73183 0.10431 0.0
H68 H 0.00997 0.77935 0.19128 0.0
H69 H 0.99275 0.73053 0.26882 0.0
H70 H 0.97165 0.76207 0.30363 0.0
H71 H 0.03193 0.77492 0.2749 0.0
H72 H 0.03024 0.79822 0.34058 0.0
H73 H 0.96139 0.71623 0.14937 0.0
H74 H 0.01849 0.6991 0.20374 0.0
H75 H 0.96989 0.78535 0.37047 0.0
H76 H 0.95778 0.68713 0.1067 0.0
H77 H 0.01507 0.66994 0.16072 0.0
C78 C 0.70382 0.87206 0.99347 0.0
C79 C 0.68459 0.87864 0.00048 0.0
C80 C 0.71689 0.87148 0.03489 0.0
C81 C 0.71116 0.87834 0.0833 0.0
C82 C 0.69142 0.88398 0.08994 0.0
C83 C 0.67831 0.88384 0.04933 0.0
C84 C 0.72584 0.88207 0.12441 0.0
C85 C 0.74527 0.88623 0.11178 0.0
C86 C 0.75796 0.89369 0.14809 0.0
C87 C 0.75071 0.89785 0.19736 0.0
C88 C 0.73151 0.89331 0.21089 0.0
C89 C 0.71974 0.88451 0.17543 0.0
C90 C 0.72182 0.90064 0.2573 0.0
C91 C 0.71931 0.88983 0.30092 0.0
C92 C 0.71145 0.9172 0.25348 0.0
C93 C 0.69819 0.92261 0.29158 0.0
C94 C 0.69503 0.9116 0.33479 0.0
C95 C 0.77803 0.8986 0.13158 0.0
C96 C 0.78934 0.88645 0.10171 0.0
C97 C 0.78517 0.91597 0.14063 0.0
C98 C 0.80271 0.92138 0.11793 0.0
C99 C 0.81353 0.9095 0.08592 0.0
C100 C 0.80686 0.89181 0.07922 0.0
C101 C 0.70617 0.89534 0.33958 0.0
H102 H 0.70891 0.86808 0.95575 0.0
H103 H 0.73167 0.86646 0.02808 0.0
H104 H 0.68611 0.88987 0.12528 0.0
H105 H 0.66359 0.8893 0.05517 0.0
H106 H 0.75033 0.88495 0.07267 0.0
H107 H 0.70512 0.88092 0.18717 0.0
H108 H 0.75976 0.90484 0.22461 0.0
H109 H 0.72687 0.87681 0.30404 0.0
H110 H 0.71273 0.92548 0.21937 0.0
H111 H 0.68968 0.93499 0.28561 0.0
H112 H 0.78428 0.87292 0.09433 0.0
H113 H 0.77674 0.92568 0.16318 0.0
H114 H 0.70438 0.88661 0.37253 0.0
H115 H 0.81469 0.88233 0.0546 0.0
H116 H 0.80756 0.93502 0.1245 0.0
C117 C 0.48554 0.70374 0.35697 0.0
C118 C 0.50354 0.69415 0.36161 0.0
C119 C 0.4829 0.71698 0.31884 0.0
C120 C 0.4983 0.72101 0.28541 0.0
C121 C 0.51662 0.71231 0.29224 0.0
C122 C 0.51923 0.69903 0.32996 0.0
C123 C 0.49431 0.73052 0.2366 0.0
C124 C 0.4956 0.74943 0.23123 0.0
C125 C 0.49374 0.75738 0.18231 0.0
C126 C 0.49071 0.74645 0.13937 0.0
C127 C 0.49006 0.72766 0.14442 0.0
C128 C 0.49141 0.71983 0.1932 0.0
C129 C 0.49079 0.71602 0.09862 0.0
C130 C 0.47748 0.71855 0.05806 0.0
C131 C 0.50533 0.70234 0.09529 0.0
C132 C 0.50623 0.69097 0.05305 0.0
C133 C 0.49258 0.69298 0.01314 0.0
C134 C 0.49751 0.77665 0.17284 0.0
C135 C 0.4818 0.78913 0.16818 0.0
C136 C 0.51615 0.78145 0.15569 0.0
C137 C 0.51882 0.79802 0.13111 0.0
C138 C 0.50285 0.81009 0.12312 0.0
C139 C 0.48448 0.80582 0.14385 0.0
C140 C 0.47825 0.70696 0.01573 0.0
H141 H 0.47313 0.70017 0.3805 0.0
H142 H 0.46851 0.72321 0.31332 0.0
H143 H 0.52857 0.71497 0.26614 0.0
H144 H 0.53331 0.69202 0.33291 0.0
H145 H 0.49874 0.75772 0.26422 0.0
H146 H 0.49109 0.70522 0.19721 0.0
H147 H 0.49024 0.75252 0.1015 0.0
H148 H 0.46623 0.72913 0.05979 0.0
H149 H 0.51596 0.70033 0.12568 0.0
H150 H 0.51718 0.6801 0.05273 0.0
H151 H 0.46721 0.78547 0.18009 0.0
H152 H 0.52836 0.77181 0.15798 0.0
H153 H 0.4675 0.7087 0.98552 0.0
H154 H 0.47186 0.81475 0.13799 0.0
H155 H 0.53319 0.801 0.11613 0.0
C156 C 0.20098 0.38303 0.4563 0.0
C157 C 0.18361 0.37451 0.44278 0.0
C158 C 0.21727 0.38181 0.42402 0.0
C159 C 0.21634 0.37192 0.37817 0.0
C160 C 0.20016 0.36089 0.36981 0.0
C161 C 0.18378 0.36233 0.40168 0.0
C162 C 0.22926 0.37678 0.33475 0.0
C163 C 0.24906 0.38038 0.34247 0.0
C164 C 0.26002 0.38901 0.30443 0.0
C165 C 0.25104 0.39388 0.25752 0.0
C166 C 0.23133 0.38952 0.24831 0.0
C167 C 0.22073 0.38103 0.28726 0.0
C168 C 0.22063 0.39493 0.20066 0.0
C169 C 0.22104 0.41278 0.18206 0.0
C170 C 0.20754 0.38287 0.17818 0.0
C171 C 0.19427 0.38877 0.14061 0.0
C172 C 0.19378 0.4069 0.12402 0.0
C173 C 0.28028 0.39405 0.31728 0.0
C174 C 0.28454 0.41215 0.32759 0.0
C175 C 0.29424 0.38045 0.32933 0.0
C176 C 0.31175 0.38475 0.35368 0.0
C177 C 0.31554 0.40274 0.36749 0.0
C178 C 0.30198 0.41647 0.35257 0.0
C179 C 0.20775 0.4187 0.14417 0.0
H180 H 0.20111 0.39254 0.4878 0.0
H181 H 0.22953 0.39042 0.43181 0.0
H182 H 0.19926 0.35277 0.33546 0.0
H183 H 0.17051 0.35556 0.39084 0.0
H184 H 0.25574 0.37733 0.37927 0.0
H185 H 0.20519 0.37902 0.28183 0.0
H186 H 0.25933 0.40093 0.22858 0.0
H187 H 0.23085 0.42243 0.19875 0.0
H188 H 0.20693 0.36899 0.19147 0.0
H189 H 0.18373 0.37927 0.12652 0.0
H190 H 0.27379 0.42282 0.31956 0.0
H191 H 0.29117 0.36637 0.32209 0.0
H192 H 0.20811 0.43267 0.13162 0.0
H193 H 0.30422 0.43045 0.36287 0.0
H194 H 0.322 0.37386 0.36334 0.0
C195 C 0.99237 0.20862 0.43901 0.0
C196 C 0.0067 0.19488 0.44644 0.0
C197 C 0.99374 0.22046 0.39747 0.0
C198 C 0.00935 0.21856 0.36267 0.0
C199 C 0.0244 0.20576 0.37234 0.0
C200 C 0.02313 0.19406 0.41399 0.0
C201 C 0.00915 0.2288 0.31417 0.0
C202 C 0.00593 0.24748 0.31405 0.0
C203 C 0.00566 0.25729 0.26803 0.0
C204 C 0.00825 0.24809 0.22102 0.0
C205 C 0.01129 0.22908 0.22091 0.0
C206 C 0.0118 0.2197 0.26772 0.0
C207 C 0.01356 0.21819 0.17337 0.0
C208 C 0.99827 0.2174 0.13753 0.0
C209 C 0.02939 0.20573 0.16928 0.0
C210 C 0.0293 0.19198 0.1327 0.0
C211 C 0.01337 0.19028 0.09914 0.0
C212 C 0.00385 0.2772 0.27248 0.0
C213 C 0.98681 0.2848 0.2947 0.0
C214 C 0.02086 0.28745 0.27084 0.0
C215 C 0.02137 0.30425 0.29556 0.0
C216 C 0.00486 0.31105 0.32236 0.0
C217 C 0.98728 0.30157 0.31927 0.0
C218 C 0.99819 0.20357 0.10065 0.0
H219 H 0.97961 0.20954 0.46363 0.0
H220 H 0.982 0.23032 0.39077 0.0
H221 H 0.03671 0.20426 0.34632 0.0
H222 H 0.0343 0.18349 0.41837 0.0
H223 H 0.00418 0.25453 0.35023 0.0
H224 H 0.01375 0.20508 0.26795 0.0
H225 H 0.00808 0.25558 0.18532 0.0
H226 H 0.98576 0.22665 0.14031 0.0
H227 H 0.04136 0.20603 0.19646 0.0
H228 H 0.04144 0.18225 0.13191 0.0
H229 H 0.97364 0.27695 0.29743 0.0
H230 H 0.03428 0.28172 0.25482 0.0
H231 H 0.98568 0.20265 0.07542 0.0
H232 H 0.97431 0.30628 0.33965 0.0
H233 H 0.03505 0.31136 0.29641 0.0
C234 C 0.30073 0.10031 0.47046 0.0
C235 C 0.3196 0.10654 0.45977 0.0
C236 C 0.28617 0.10107 0.43298 0.0
C237 C 0.28995 0.10876 0.38467 0.0
C238 C 0.30753 0.11805 0.37802 0.0
C239 C 0.32234 0.1167 0.41479 0.0
C240 C 0.27769 0.10399 0.33953 0.0
C241 C 0.25781 0.10002 0.34534 0.0
C242 C 0.24766 0.09107 0.30666 0.0
C243 C 0.25714 0.08689 0.26009 0.0
C244 C 0.27672 0.09189 0.25219 0.0
C245 C 0.28678 0.10024 0.29223 0.0
C246 C 0.28785 0.087 0.20488 0.0
C247 C 0.2882 0.0692 0.18609 0.0
C248 C 0.30036 0.09964 0.18245 0.0
C249 C 0.31368 0.09439 0.14426 0.0
C250 C 0.31489 0.07633 0.12743 0.0
C251 C 0.22822 0.08396 0.31948 0.0
C252 C 0.22717 0.06698 0.34325 0.0
C253 C 0.2114 0.09522 0.31744 0.0
C254 C 0.19388 0.08975 0.34015 0.0
C255 C 0.19296 0.07306 0.36632 0.0
C256 C 0.2098 0.06161 0.36653 0.0
C257 C 0.30159 0.06391 0.14782 0.0
H258 H 0.29774 0.09319 0.50581 0.0
H259 H 0.27278 0.09401 0.44056 0.0
H260 H 0.31062 0.12496 0.34241 0.0
H261 H 0.33648 0.12208 0.40522 0.0
H262 H 0.25041 0.10284 0.38127 0.0
H263 H 0.3023 0.10247 0.28752 0.0
H264 H 0.24944 0.07959 0.23069 0.0
H265 H 0.27892 0.0591 0.20299 0.0
H266 H 0.3003 0.11351 0.19579 0.0
H267 H 0.32332 0.10444 0.12866 0.0
H268 H 0.24015 0.0583 0.34638 0.0
H269 H 0.21203 0.10852 0.30005 0.0
H270 H 0.30216 0.04986 0.13607 0.0
H271 H 0.20997 0.04884 0.38697 0.0
H272 H 0.18121 0.09883 0.33825 0.0
C273 C 0.50076 0.28159 0.10417 0.0
C274 C 0.51459 0.29537 0.10063 0.0
C275 C 0.50263 0.26807 0.14201 0.0
C276 C 0.51842 0.26811 0.17655 0.0
C277 C 0.53301 0.28103 0.17 0.0
C278 C 0.53108 0.29451 0.13271 0.0
C279 C 0.51813 0.25724 0.22458 0.0
C280 C 0.51543 0.23832 0.22549 0.0
C281 C 0.51541 0.229 0.27282 0.0
C282 C 0.51732 0.23865 0.31861 0.0
C283 C 0.51957 0.25728 0.31778 0.0
C284 C 0.52014 0.26649 0.27112 0.0
C285 C 0.52013 0.26759 0.36554 0.0
C286 C 0.50253 0.27342 0.38836 0.0
C287 C 0.53799 0.27368 0.38425 0.0
C288 C 0.53816 0.28658 0.42315 0.0
C289 C 0.52044 0.29382 0.44285 0.0
C290 C 0.51318 0.20925 0.27743 0.0
C291 C 0.49437 0.20205 0.2777 0.0
C292 C 0.52893 0.1988 0.2969 0.0
C293 C 0.5257 0.18213 0.32042 0.0
C294 C 0.50659 0.17559 0.32513 0.0
C295 C 0.4911 0.18532 0.30121 0.0
C296 C 0.50265 0.28648 0.42677 0.0
H297 H 0.48793 0.2819 0.07982 0.0
H298 H 0.4911 0.25838 0.14644 0.0
H299 H 0.54544 0.28129 0.19574 0.0
H300 H 0.54218 0.3047 0.13022 0.0
H301 H 0.51375 0.23094 0.19005 0.0
H302 H 0.52158 0.28108 0.27127 0.0
H303 H 0.51682 0.23163 0.35515 0.0
H304 H 0.48863 0.26881 0.37399 0.0
H305 H 0.55169 0.2692 0.36693 0.0
H306 H 0.55211 0.29172 0.43547 0.0
H307 H 0.48195 0.21005 0.26379 0.0
H308 H 0.5435 0.20429 0.29813 0.0
H309 H 0.48874 0.29184 0.44068 0.0
H310 H 0.47625 0.18053 0.30329 0.0
H311 H 0.53799 0.17519 0.33869 0.0
O312 O 0.03255 0.97158 0.82745 0.0
Mg313 Mg 0.03894 0.97328 0.74871 0.0
O314 O 1.00311 0.97409 0.79549 0.0
Mg315 Mg 1.00179 -0.00671 0.72546 0.0
O316 O 0.03562 -0.00238 0.71215 0.0
O317 O 0.06484 0.98461 0.73018 0.0
O318 O 0.99993 0.01229 0.65464 0.0
O319 O 1.00121 0.01901 0.77853 0.0
Mg320 Mg 0.96339 0.01347 0.70364 0.0
O321 O 0.96833 -0.0108 0.73909 0.0
O322 O 0.96996 0.01443 0.62508 0.0
O323 O 0.9747 0.03427 0.75144 0.0
O324 O 0.93829 0.00082 0.72465 0.0
C325 C 0.01368 0.95356 0.6711 0.0
C326 C 0.01454 0.96833 0.83062 0.0
C327 C 0.05472 -0.00239 0.70919 0.0
C328 C 0.98795 0.01759 0.62006 0.0
C329 C 0.98993 0.03316 0.77948 0.0
C330 C 0.9494 -0.01178 0.74418 0.0
O331 O 0.02872 0.95248 0.69979 0.0
O332 O 1.00225 0.96759 0.67226 0.0
O333 O 0.45121 -0.012 0.75568 0.0
Mg334 Mg 0.46545 0.96911 0.70541 0.0
O335 O 0.47705 0.00434 0.77597 0.0
Mg336 Mg 0.50216 -0.00681 0.72159 0.0
O337 O 0.49224 0.96375 0.7364 0.0
O338 O 0.4698 0.94256 0.72718 0.0
O339 O 0.52722 0.98199 0.66718 0.0
O340 O 0.52262 -0.01323 0.79011 0.0
Mg341 Mg 0.53967 0.01742 0.73516 0.0
O342 O 0.51189 0.0229 0.70996 0.0
O343 O 0.55244 0.00019 0.67825 0.0
O344 O 0.54287 0.00817 0.81139 0.0
O345 O 0.53411 0.04433 0.71851 0.0
C346 C 0.47102 -0.00862 0.61851 0.0
C347 C 0.45883 0.00078 0.78085 0.0
C348 C 0.4866 0.9473 0.74449 0.0
C349 C 0.54476 -0.01335 0.65673 0.0
C350 C 0.5359 -0.0073 0.81944 0.0
C351 C 0.51706 0.03957 0.70303 0.0
O352 O 0.4652 0.97559 0.62737 0.0
O353 O 0.48233 -0.00087 0.65019 0.0
O354 O 0.53145 0.45421 0.75195 0.0
Mg355 Mg 0.54114 0.47704 0.70969 0.0
O356 O 0.50317 0.46682 0.77643 0.0
Mg357 Mg 0.50246 0.49286 0.72414 0.0
O358 O 0.53465 0.50065 0.74761 0.0
O359 O 0.56526 0.48952 0.73614 0.0
O360 O 0.50437 0.51849 0.66978 0.0
O361 O 0.49614 0.51101 0.7955 0.0
Mg362 Mg 0.46663 0.51132 0.71764 0.0
O363 O 0.46945 0.48419 0.70172 0.0
O364 O 0.47439 0.52946 0.65962 0.0
O365 O 0.4656 0.52066 0.79258 0.0
O366 O 0.44114 0.50049 0.70128 0.0
C367 C 0.52174 0.47171 0.61985 0.0
C368 C 0.51564 0.45356 0.77761 0.0
C369 C 0.55349 0.50174 0.75481 0.0
C370 C 0.49241 0.52986 0.64909 0.0
C371 C 0.48186 0.51992 0.81532 0.0
C372 C 0.45047 0.48534 0.69396 0.0
O373 O 0.53903 0.47626 0.62939 0.0
O374 O 0.5084 0.47512 0.65269 0.0
O375 O 0.9659 0.47424 0.82353 0.0
Mg376 Mg 0.96747 0.46899 0.74488 0.0
O377 O 0.98191 0.49816 0.79912 0.0
Mg378 Mg 0.0032 0.49273 0.73071 0.0
O379 O 0.99429 0.4629 0.71362 0.0
O380 O 0.97075 0.44257 0.72287 0.0
O381 O 0.02408 0.48739 0.6621 0.0
O382 O 0.02789 0.48158 0.78698 0.0
Mg383 Mg 0.03984 0.51758 0.72011 0.0
O384 O 0.01205 0.52265 0.74595 0.0
O385 O 0.04357 0.5097 0.64303 0.0
O386 O 0.05284 0.50012 0.77611 0.0
O387 O 0.03421 0.54425 0.73832 0.0
C388 C 0.9604 0.50086 0.67097 0.0
C389 C 0.9703 0.49054 0.83039 0.0
C390 C 0.98792 0.44661 0.70642 0.0
C391 C 0.03693 0.49429 0.63301 0.0
C392 C 0.04532 0.48648 0.79778 0.0
C393 C 0.01725 0.53926 0.75397 0.0
O394 O 0.95261 0.48823 0.69653 0.0
O395 O 0.97872 0.50404 0.67484 0.0
H396 H 0.17819 0.03912 0.3824 0.0
H397 H 0.15145 0.03075 0.43853 0.0
H398 H 0.13943 0.08706 0.47202 0.0
H399 H 0.16727 0.09551 0.41932 0.0
H400 H 0.13814 0.06938 0.55585 0.0
H401 H 0.09427 0.03136 0.41813 0.0
H402 H 0.11859 0.02176 0.42057 0.0
H403 H 0.11469 0.0447 0.39813 0.0
C404 C 0.16998 0.04979 0.40178 0.0
C405 C 0.1751 0.06804 0.39605 0.0
C406 C 0.15436 0.04497 0.43329 0.0
C407 C 0.14301 0.05826 0.45884 0.0
C408 C 0.1478 0.07651 0.45248 0.0
H409 H 0.04172 0.01497 0.62297 0.0
H410 H 0.06062 0.03393 0.56457 0.0
C411 C 0.16366 0.08135 0.42166 0.0
C412 C 0.12706 0.05298 0.49472 0.0
H413 H 0.08877 0.02442 0.50758 0.0
C414 C 0.12714 0.05977 0.54494 0.0
C415 C 0.11226 0.04084 0.4806 0.0
C416 C 0.10981 0.03444 0.42623 0.0
C417 C 0.1136 0.05406 0.58187 0.0
C418 C 0.10006 0.04056 0.56903 0.0
C419 C 0.09929 0.03452 0.51809 0.0
C420 C 0.08757 0.0316 0.6082 0.0
C421 C 0.114 0.06271 0.63412 0.0
C422 C 0.09613 0.02419 0.65274 0.0
C423 C 0.08504 0.01415 0.68711 0.0
C424 C 0.06519 0.01088 0.67734 0.0
C425 C 0.05658 0.01825 0.63297 0.0
C426 C 0.06757 0.02869 0.59899 0.0
H427 H 0.11879 0.07695 0.63152 0.0
H428 H 0.09941 0.0626 0.65295 0.0
H429 H 0.12476 0.05525 0.65862 0.0
H430 H 0.11163 0.02549 0.66005 0.0
H431 H 0.09225 0.00829 0.72041 0.0
H432 H 0.47595 0.17207 0.3921 0.0
H433 H 0.47201 0.14899 0.45823 0.0
H434 H 0.52479 0.12149 0.40653 0.0
H435 H 0.52869 0.1443 0.3394 0.0
H436 H 0.46977 0.11011 0.45458 0.0
H437 H 0.53502 0.13343 0.55976 0.0
H438 H 0.52315 0.14676 0.51014 0.0
H439 H 0.53952 0.12826 0.49354 0.0
C440 C 0.48648 0.16088 0.39376 0.0
C441 C 0.50271 0.16013 0.36035 0.0
C442 C 0.48427 0.14777 0.43197 0.0
C443 C 0.4983 0.13374 0.43788 0.0
C444 C 0.514 0.13243 0.40323 0.0
H445 H 0.50964 0.03519 0.60336 0.0
H446 H 0.49951 0.05865 0.54154 0.0
C447 C 0.51619 0.14548 0.36486 0.0
C448 C 0.49694 0.12083 0.48134 0.0
H449 H 0.52156 0.10569 0.58743 0.0
C450 C 0.48101 0.10922 0.48387 0.0
C451 C 0.51135 0.11998 0.52021 0.0
C452 C 0.52814 0.13288 0.52127 0.0
C453 C 0.47959 0.09619 0.52298 0.0
C454 C 0.49462 0.09461 0.56014 0.0
C455 C 0.51009 0.10679 0.5588 0.0
C456 C 0.4957 0.07968 0.59838 0.0
C457 C 0.46205 0.08424 0.52347 0.0
C458 C 0.49641 0.08354 0.65101 0.0
C459 C 0.50156 0.06993 0.68636 0.0
C460 C 0.50602 0.05225 0.66965 0.0
C461 C 0.50471 0.04832 0.61734 0.0
C462 C 0.49934 0.06183 0.58201 0.0
H463 H 0.44863 0.09203 0.51189 0.0
H464 H 0.4644 0.07336 0.49478 0.0
H465 H 0.45948 0.0781 0.56163 0.0
H466 H 0.49402 0.09728 0.66441 0.0
H467 H 0.50323 0.07345 0.72632 0.0
H468 H 0.33888 0.43268 0.36501 0.0
H469 H 0.36497 0.44036 0.42451 0.0
H470 H 0.35746 0.38987 0.50447 0.0
H471 H 0.33071 0.38252 0.44704 0.0
H472 H 0.35916 0.4164 0.57027 0.0
H473 H 0.42102 0.4231 0.43598 0.0
H474 H 0.40057 0.43719 0.41665 0.0
H475 H 0.3983 0.41294 0.41762 0.0
C476 C 0.34277 0.42317 0.39515 0.0
C477 C 0.33266 0.40691 0.40078 0.0
C478 C 0.35794 0.42747 0.42878 0.0
C479 C 0.36354 0.41553 0.46846 0.0
C480 C 0.35361 0.39923 0.47387 0.0
H481 H 0.46372 0.45243 0.65374 0.0
H482 H 0.44414 0.43105 0.60402 0.0
C483 C 0.33838 0.39497 0.44053 0.0
C484 C 0.37865 0.42068 0.5066 0.0
H485 H 0.42432 0.43818 0.51755 0.0
C486 C 0.37354 0.42085 0.55871 0.0
C487 C 0.39766 0.42602 0.49212 0.0
C488 C 0.40479 0.4246 0.43759 0.0
C489 C 0.38635 0.42735 0.59608 0.0
C490 C 0.40459 0.43439 0.58092 0.0
C491 C 0.41027 0.43302 0.52933 0.0
C492 C 0.41651 0.44551 0.61614 0.0
C493 C 0.37993 0.42689 0.65138 0.0
C494 C 0.40758 0.46054 0.63998 0.0
C495 C 0.41861 0.47257 0.66801 0.0
C496 C 0.43909 0.47025 0.67228 0.0
C497 C 0.44806 0.45474 0.65053 0.0
C498 C 0.43686 0.44253 0.62221 0.0
H499 H 0.37073 0.41498 0.65895 0.0
H500 H 0.39263 0.42639 0.67791 0.0
H501 H 0.37084 0.43919 0.6598 0.0
H502 H 0.39208 0.46351 0.63496 0.0
H503 H 0.41104 0.48424 0.6844 0.0
H504 H 0.0351 0.31787 0.3877 0.0
H505 H 0.03625 0.34074 0.45488 0.0
H506 H 0.97951 0.36175 0.40831 0.0
H507 H 0.97822 0.33886 0.34088 0.0
H508 H 0.035 0.37746 0.45602 0.0
H509 H 0.97076 0.35102 0.55891 0.0
H510 H 0.98272 0.33882 0.50743 0.0
H511 H 0.96525 0.35683 0.49367 0.0
C512 C 0.02301 0.32757 0.39097 0.0
C513 C 0.00653 0.32647 0.35878 0.0
C514 C 0.02364 0.34057 0.42976 0.0
C515 C 0.0078 0.35273 0.43745 0.0
C516 C 0.9917 0.3522 0.40403 0.0
H517 H 0.99837 0.45194 0.60774 0.0
H518 H 0.00652 0.42851 0.54461 0.0
C519 C 0.99102 0.33916 0.3653 0.0
C520 C 0.00799 0.36575 0.48084 0.0
H521 H 0.98178 0.3799 0.58544 0.0
C522 C 0.02342 0.37793 0.48448 0.0
C523 C 0.99321 0.36605 0.51895 0.0
C524 C 0.97717 0.35235 0.51999 0.0
C525 C 0.024 0.39082 0.52395 0.0
C526 C 0.00854 0.39191 0.55996 0.0
C527 C 0.99353 0.37928 0.55744 0.0
C528 C 0.00709 0.40642 0.59935 0.0
C529 C 0.04127 0.40305 0.52722 0.0
C530 C 0.00485 0.40193 0.65131 0.0
C531 C 1.00024 0.41537 0.68737 0.0
C532 C 0.99799 0.43355 0.67225 0.0
C533 C 1.00094 0.43814 0.62072 0.0
C534 C 0.0055 0.42471 0.58458 0.0
H535 H 0.05405 0.39762 0.50525 0.0
H536 H 0.037 0.41646 0.5111 0.0
H537 H 0.04573 0.40498 0.56766 0.0
H538 H 0.00581 0.38792 0.6636 0.0
H539 H 0.99744 0.41144 0.72665 0.0
H540 H 0.81783 0.94209 0.03771 0.0
H541 H 0.84504 0.95169 0.98417 0.0
H542 H 0.8756 0.90092 0.01304 0.0
H543 H 0.84839 0.89118 0.06694 0.0
H544 H 0.88427 0.95595 0.00517 0.0
H545 H 0.8744 0.90319 0.85676 0.0
H546 H 0.85629 0.90795 0.90559 0.0
H547 H 0.87804 0.89483 0.92079 0.0
C548 C 0.83045 0.93304 0.03341 0.0
C549 C 0.83086 0.91583 0.05664 0.0
C550 C 0.84596 0.93852 0.00248 0.0
C551 C 0.86224 0.92692 0.99388 0.0
C552 C 0.86301 0.90994 0.01817 0.0
H553 H 0.96339 0.9737 0.83373 0.0
H554 H 0.94515 0.95562 0.89591 0.0
C555 C 0.84745 0.90441 0.04907 0.0
C556 C 0.87817 0.93271 0.95898 0.0
H557 H 0.90015 0.92335 0.84405 0.0
C558 C 0.8879 0.94874 0.97017 0.0
C559 C 0.88277 0.92334 0.91312 0.0
C560 C 0.87225 0.90646 0.89791 0.0
C561 C 0.9017 0.95593 0.93624 0.0
C562 C 0.90623 0.94663 0.89018 0.0
C563 C 0.89686 0.93035 0.87961 0.0
C564 C 0.9188 0.95469 0.84995 0.0
C565 C 0.91055 0.9739 0.94885 0.0
C566 C 0.91054 0.95922 0.80228 0.0
C567 C 0.92111 0.96909 0.76641 0.0
C568 C 0.94024 0.97452 0.77722 0.0
C569 C 0.94893 0.96918 0.82377 0.0
C570 C 0.93835 0.95918 0.8597 0.0
H571 H 0.90256 0.98098 0.98032 0.0
H572 H 0.92597 0.97163 0.96117 0.0
H573 H 0.91052 0.9829 0.91473 0.0
H574 H 0.89552 0.95591 0.79378 0.0
H575 H 0.91399 0.97316 0.73101 0.0
H576 H 0.48794 0.84472 0.13569 0.0
H577 H 0.48913 0.8699 0.07412 0.0
H578 H 0.5231 0.83635 0.97062 0.0
H579 H 0.52179 0.81114 0.03122 0.0
H580 H 0.53492 0.87786 0.99554 0.0
H581 H 0.45977 0.86394 0.92433 0.0
H582 H 0.46471 0.86298 0.99212 0.0
H583 H 0.47536 0.84614 0.95068 0.0
C584 C 0.49577 0.84277 0.09996 0.0
C585 C 0.50486 0.82597 0.0885 0.0
C586 C 0.49651 0.85716 0.06502 0.0
C587 C 0.50629 0.85494 0.01808 0.0
C588 C 0.5157 0.83836 0.00695 0.0
H589 H 0.49657 0.91191 0.73111 0.0
H590 H 0.50431 0.88981 0.79885 0.0
C591 C 0.51498 0.824 0.04176 0.0
C592 C 0.50565 0.86946 0.97893 0.0
H593 H 0.47666 0.8874 0.88435 0.0
C594 C 0.52217 0.88009 0.9714 0.0
C595 C 0.48906 0.8721 0.9473 0.0
C596 C 0.47115 0.86072 0.95355 0.0
C597 C 0.52247 0.89342 0.93279 0.0
C598 C 0.50586 0.89601 0.90106 0.0
C599 C 0.48938 0.88534 0.90874 0.0
C600 C 0.50506 0.90968 0.85942 0.0
C601 C 0.54063 0.90431 0.92511 0.0
C602 C 0.50332 0.92819 0.87094 0.0
C603 C 0.49888 0.9408 0.83225 0.0
C604 C 0.49649 0.93511 0.78144 0.0
C605 C 0.499 0.91667 0.76972 0.0
C606 C 0.5033 0.90406 0.80838 0.0
H607 H 0.5531 0.89918 0.94879 0.0
H608 H 0.54505 0.90403 0.8842 0.0
H609 H 0.53747 0.91864 0.93557 0.0
H610 H 0.50418 0.93276 0.91022 0.0
H611 H 0.49621 0.95485 0.84253 0.0
H612 H 0.68582 0.58798 0.98233 0.0
H613 H 0.65834 0.57793 0.93072 0.0
H614 H 0.63448 0.55077 0.0621 0.0
H615 H 0.66201 0.56091 0.1145 0.0
H616 H 0.6494 0.53784 0.92365 0.0
H617 H 0.58733 0.58201 0.99107 0.0
H618 H 0.6125 0.58895 0.9949 0.0
H619 H 0.60377 0.572 0.03781 0.0
C620 C 0.67455 0.58017 0.00067 0.0
C621 C 0.6761 0.57532 0.05272 0.0
C622 C 0.65888 0.57439 0.97099 0.0
C623 C 0.64427 0.56378 0.9927 0.0
C624 C 0.64549 0.55915 0.0448 0.0
H625 H 0.54528 0.5091 0.85492 0.0
H626 H 0.56613 0.52585 0.9141 0.0
C627 C 0.6613 0.56482 0.07454 0.0
C628 C 0.62882 0.5563 0.95947 0.0
H629 H 0.58027 0.56027 0.92796 0.0
C630 C 0.63428 0.54273 0.92454 0.0
C631 C 0.6091 0.56259 0.96121 0.0
C632 C 0.60267 0.57725 0.99803 0.0
C633 C 0.62057 0.53521 0.89128 0.0
C634 C 0.6009 0.54188 0.8916 0.0
C635 C 0.59535 0.5553 0.92724 0.0
C636 C 0.58608 0.53485 0.85531 0.0
C637 C 0.6273 0.51985 0.85693 0.0
C638 C 0.58961 0.53525 0.80232 0.0
C639 C 0.57788 0.52557 0.7688 0.0
C640 C 0.56197 0.51582 0.78734 0.0
C641 C 0.55726 0.5168 0.83963 0.0
C642 C 0.56926 0.52625 0.87346 0.0
H643 H 0.64073 0.5129 0.87199 0.0
H644 H 0.61573 0.50967 0.85258 0.0
H645 H 0.63084 0.52532 0.81851 0.0
H646 H 0.60214 0.54222 0.78717 0.0
H647 H 0.58185 0.52492 0.72865 0.0
H648 H 0.99735 0.64074 0.14615 0.0
H649 H 0.99948 0.61628 0.08242 0.0
H650 H 0.97819 0.65314 0.96585 0.0
H651 H 0.97605 0.67753 0.02876 0.0
H652 H 0.96324 0.60729 -0.00038 0.0
H653 H 0.03662 0.62689 0.92753 0.0
H654 H 0.02922 0.63071 0.99316 0.0
H655 H 0.01874 0.64442 0.94307 0.0
C656 C 0.993 0.64356 0.10702 0.0
C657 C 0.98634 0.66102 0.09266 0.0
C658 C 0.9942 0.62961 0.07076 0.0
C659 C 0.98899 0.63298 0.01957 0.0
C660 C 0.98219 0.65029 0.00525 0.0
H661 H 0.00462 0.57387 0.73528 0.0
H662 H 0.99489 0.59654 0.79976 0.0
C663 C 0.98084 0.66417 0.04138 0.0
C664 C 0.99102 0.6186 0.98042 0.0
H665 H 0.02099 0.60335 0.88425 0.0
C666 C 0.97588 0.60632 0.9745 0.0
C667 C 0.00744 0.61758 0.94752 0.0
C668 C 0.02405 0.63052 0.95287 0.0
C669 C 0.9767 0.59303 0.93606 0.0
C670 C 0.99319 0.59188 0.90321 0.0
C671 C 0.00831 0.60425 0.90927 0.0
C672 C 0.99552 0.57767 0.86326 0.0
C673 C 0.95976 0.58056 0.93028 0.0
C674 C 0.99884 0.5595 0.87735 0.0
C675 C 0.00446 0.54661 0.84053 0.0
C676 C 0.00638 0.55153 0.78891 0.0
C677 C 1.00248 0.5696 0.77456 0.0
C678 C 0.99705 0.58255 0.81139 0.0
H679 H 0.94647 0.58565 0.95079 0.0
H680 H 0.95611 0.57885 0.8892 0.0
H681 H 0.96398 0.56714 0.94658 0.0
H682 H 0.99831 0.5555 0.91725 0.0
H683 H 0.00869 0.53307 0.85296 0.0
H684 H 0.97302 0.17645 0.45476 0.0
H685 H 0.9699 0.14592 0.4882 0.0
H686 H 0.02896 0.14715 0.54657 0.0
H687 H 0.03227 0.17784 0.51248 0.0
H688 H 0.02384 0.12014 0.47803 0.0
H689 H 0.9643 0.11938 0.6222 0.0
H690 H 0.95698 0.13083 0.56443 0.0
H691 H 0.97612 0.13994 0.60328 0.0
C692 C 0.98504 0.17058 0.47678 0.0
C693 C 1.00297 0.17942 0.48066 0.0
C694 C 0.98323 0.15308 0.49585 0.0
C695 C 0.99922 0.14429 0.5197 0.0
C696 C 0.0165 0.15374 0.52805 0.0
H697 H 0.02009 0.03829 0.62772 0.0
H698 H 0.02454 0.06776 0.5898 0.0
C699 C 0.01836 0.17123 0.50871 0.0
C700 C 0.99896 0.12455 0.52792 0.0
H701 H 0.97319 0.09091 0.58396 0.0
C702 C 0.01287 0.11374 0.50159 0.0
C703 C 0.98449 0.1163 0.55809 0.0
C704 C 0.96975 0.12723 0.58899 0.0
C705 C 0.01262 0.09483 0.50445 0.0
C706 C 0.99805 0.08663 0.53413 0.0
C707 C 0.98409 0.09737 0.56032 0.0
C708 C 0.99829 0.06704 0.54378 0.0
C709 C 0.02784 0.0837 0.47579 0.0
C710 C 0.98255 0.05653 0.52825 0.0
C711 C 0.98032 0.0392 0.54863 0.0
C712 C 0.99359 0.03243 0.5856 0.0
C713 C 0.01013 0.04256 0.59772 0.0
C714 C 0.01253 0.05965 0.57665 0.0
H715 H 0.03541 0.09182 0.44626 0.0
H716 H 0.03899 0.07839 0.50323 0.0
H717 H 0.02104 0.07193 0.45707 0.0
H718 H 0.97136 0.06218 0.50307 0.0
H719 H 0.96737 0.03179 0.53879 0.0
H720 H 0.32373 0.07292 0.50296 0.0
H721 H 0.3539 0.0575 0.52744 0.0
H722 H 0.38585 0.10624 0.50139 0.0
H723 H 0.35524 0.12242 0.47908 0.0
H724 H 0.3839 0.05645 0.44686 0.0
H725 H 0.41066 0.08198 0.63435 0.0
H726 H 0.38497 0.08304 0.61765 0.0
H727 H 0.40168 0.09798 0.58715 0.0
C728 C 0.33685 0.08082 0.50464 0.0
C729 C 0.33691 0.099 0.48817 0.0
C730 C 0.35422 0.0718 0.51817 0.0
C731 C 0.37206 0.08067 0.51549 0.0
C732 C 0.37216 0.09918 0.50359 0.0
H733 H 0.48293 0.02223 0.57276 0.0
H734 H 0.46139 0.04576 0.53621 0.0
C735 C 0.35465 0.10835 0.49043 0.0
C736 C 0.3904 0.06972 0.51803 0.0
H737 H 0.42849 0.05788 0.59641 0.0
C738 C 0.39384 0.05692 0.47918 0.0
C739 C 0.40338 0.07057 0.55986 0.0
C740 C 0.4001 0.08406 0.60241 0.0
C741 C 0.40941 0.04428 0.48241 0.0
C742 C 0.42169 0.04438 0.52578 0.0
C743 C 0.41899 0.05789 0.56313 0.0
C744 C 0.43568 0.02931 0.53667 0.0
C745 C 0.41224 0.03057 0.44021 0.0
C746 C 0.42859 0.01199 0.54665 0.0
C747 C 0.44088 -0.00134 0.56815 0.0
C748 C 0.46037 0.00259 0.58043 0.0
C749 C 0.46787 0.01923 0.56524 0.0
C750 C 0.45558 0.03261 0.54412 0.0
H751 H 0.4059 0.03561 0.40352 0.0
H752 H 0.42802 0.02716 0.43432 0.0
H753 H 0.40466 0.01798 0.4508 0.0
H754 H 0.41321 0.00921 0.54156 0.0
H755 H 0.4346 -0.01407 0.5794 0.0
H756 H 0.49651 0.30395 0.52349 0.0
H757 H 0.49191 0.33474 0.5577 0.0
H758 H 0.53887 0.3531 0.46178 0.0
H759 H 0.54325 0.32289 0.42653 0.0
H760 H 0.52821 0.36255 0.59459 0.0
H761 H 0.47949 0.38005 0.43005 0.0
H762 H 0.48099 0.35762 0.45787 0.0
H763 H 0.50035 0.36528 0.41738 0.0
C764 C 0.50603 0.31451 0.51032 0.0
C765 C 0.5202 0.31097 0.47214 0.0
C766 C 0.5034 0.332 0.52993 0.0
C767 C 0.51494 0.34602 0.51157 0.0
C768 C 0.52984 0.34232 0.4761 0.0
H769 H 0.54916 0.452 0.56588 0.0
H770 H 0.54439 0.42135 0.53476 0.0
C771 C 0.53245 0.32497 0.45646 0.0
C772 C 0.51092 0.36493 0.526 0.0
H773 H 0.49326 0.40463 0.47506 0.0
C774 C 0.52024 0.37176 0.5692 0.0
C775 C 0.50032 0.37671 0.49288 0.0
C776 C 0.48956 0.36962 0.44701 0.0
C777 C 0.52021 0.3904 0.57851 0.0
C778 C 0.51111 0.40235 0.54275 0.0
C779 C 0.5006 0.3954 0.50156 0.0
C780 C 0.51304 0.42208 0.54727 0.0
C781 C 0.53031 0.39719 0.62589 0.0
C782 C 0.49669 0.43309 0.55916 0.0
C783 C 0.49933 0.45077 0.57596 0.0
C784 C 0.51834 0.45737 0.58199 0.0
C785 C 0.53436 0.44719 0.56269 0.0
C786 C 0.53169 0.4296 0.54545 0.0
H787 H 0.53157 0.38649 0.65579 0.0
H788 H 0.54534 0.40134 0.61572 0.0
H789 H 0.5223 0.4091 0.64224 0.0
H790 H 0.48212 0.42759 0.55952 0.0
H791 H 0.48668 0.45861 0.58891 0.0
H792 H 0.15807 0.39261 0.38318 0.0
H793 H 0.13093 0.41226 0.40988 0.0
H794 H 0.13931 0.39478 0.56651 0.0
H795 H 0.16784 0.37606 0.53981 0.0
H796 H 0.09785 0.40993 0.44813 0.0
H797 H 0.14259 0.44717 0.58792 0.0
H798 H 0.15314 0.43019 0.54623 0.0
H799 H 0.14088 0.42372 0.60442 0.0
C800 C 0.15388 0.39271 0.42322 0.0
C801 C 0.16487 0.38281 0.45951 0.0
C802 C 0.13839 0.40401 0.43853 0.0
C803 C 0.13329 0.40541 0.49043 0.0
C804 C 0.14339 0.39446 0.52648 0.0
H805 H 0.03312 0.45818 0.62067 0.0
H806 H 0.05527 0.43742 0.5761 0.0
C807 C 0.15943 0.38354 0.51126 0.0
C808 C 0.11795 0.41892 0.50598 0.0
H809 H 0.10864 0.4547 0.5856 0.0
C810 C 0.10024 0.41964 0.4784 0.0
C811 C 0.12129 0.43214 0.54403 0.0
C812 C 0.14058 0.43342 0.57191 0.0
C813 C 0.08577 0.43299 0.48818 0.0
C814 C 0.08877 0.4455 0.52792 0.0
C815 C 0.10643 0.44496 0.55525 0.0
C816 C 0.07328 0.45839 0.54488 0.0
C817 C 0.06822 0.43439 0.45317 0.0
C818 C 0.07587 0.47713 0.54115 0.0
C819 C 0.06293 0.48915 0.56615 0.0
C820 C 0.04741 0.48252 0.59576 0.0
C821 C 0.04438 0.46378 0.59684 0.0
C822 C 0.05719 0.45184 0.57173 0.0
H823 H 0.06467 0.42099 0.43691 0.0
H824 H 0.05504 0.44021 0.47233 0.0
H825 H 0.07181 0.44347 0.42075 0.0
H826 H 0.08841 0.48237 0.52102 0.0
H827 H 0.0658 0.50349 0.56492 0.0
H828 H 0.98934 0.80007 0.92938 0.0
H829 H 0.98777 0.82978 0.8875 0.0
H830 H 0.03738 0.84649 0.97609 0.0
H831 H 0.03864 0.81744 0.01933 0.0
H832 H 0.98126 0.86105 0.95022 0.0
H833 H 0.04815 0.86693 0.83196 0.0
H834 H 0.03824 0.84537 0.85007 0.0
H835 H 0.05314 0.85759 0.89427 0.0
C836 C 1.00013 0.80997 0.93928 0.0
C837 C 0.01395 0.80642 0.97829 0.0
C838 C 0.99927 0.82686 0.91508 0.0
C839 C 0.01249 0.84023 0.92875 0.0
C840 C 0.02726 0.83621 0.96445 0.0
H841 H 0.03362 0.95275 0.91225 0.0
H842 H 0.03003 0.92142 0.9408 0.0
C843 C 0.028 0.81949 0.98905 0.0
C844 C 0.0093 0.85915 0.91234 0.0
H845 H 0.03323 0.89485 0.86144 0.0
C846 C 0.99242 0.86844 0.92997 0.0
C847 C 0.02392 0.86864 0.88608 0.0
C848 C 0.0418 0.85908 0.86404 0.0
C849 C 0.99032 0.88728 0.92456 0.0
C850 C 0.00547 0.89687 0.90072 0.0
C851 C 0.02189 0.88744 0.88093 0.0
C852 C 0.0045 0.91668 0.89415 0.0
C853 C 0.97235 0.89685 0.94601 0.0
C854 C 0.99073 0.9245 0.86066 0.0
C855 C 0.99272 0.94232 0.8444 0.0
C856 C 0.00858 0.95258 0.86129 0.0
C857 C 0.02124 0.94523 0.89872 0.0
C858 C 0.01926 0.92733 0.91484 0.0
H859 H 0.96424 0.8881 0.97298 0.0
H860 H 0.97637 0.90943 0.96616 0.0
H861 H 0.96234 0.90069 0.91413 0.0
H862 H 0.97946 0.9164 0.84361 0.0
H863 H 0.98307 0.94725 0.81439 0.0
H864 H 0.68824 0.9077 0.93978 0.0
H865 H 0.66069 0.92396 0.8999 0.0
H866 H 0.62419 0.87792 0.92524 0.0
H867 H 0.65157 0.86208 0.96836 0.0
H868 H 0.63312 0.92287 0.82871 0.0
H869 H 0.59917 0.91388 0.02057 0.0
H870 H 0.62394 0.90643 0.00687 0.0
H871 H 0.6036 0.89317 0.98645 0.0
C872 C 0.67459 0.90075 0.93461 0.0
C873 C 0.67186 0.88376 0.95726 0.0
C874 C 0.65879 0.9101 0.9122 0.0
C875 C 0.64017 0.90243 0.91166 0.0
C876 C 0.63826 0.88433 0.92711 0.0
H877 H 0.5325 0.95627 0.82017 0.0
H878 H 0.55661 0.93387 0.84887 0.0
C879 C 0.65396 0.87514 0.95081 0.0
C880 C 0.62269 0.9143 0.90255 0.0
H881 H 0.58146 0.93167 0.96098 0.0
C882 C 0.62179 0.9247 0.85751 0.0
C883 C 0.60805 0.91695 0.94072 0.0
C884 C 0.60877 0.90716 0.99157 0.0
C885 C 0.60672 0.93767 0.84971 0.0
C886 C 0.59222 0.9402 0.88778 0.0
C887 C 0.59279 0.92966 0.93225 0.0
C888 C 0.57601 0.95348 0.88087 0.0
C889 C 0.60641 0.94878 0.80114 0.0
C890 C 0.57853 0.97184 0.89196 0.0
C891 C 0.56431 0.98476 0.87697 0.0
C892 C 0.54753 0.97943 0.85018 0.0
C893 C 0.54462 0.96084 0.84266 0.0
C894 C 0.55865 0.94798 0.85813 0.0
H895 H 0.6182 0.94451 0.77406 0.0
H896 H 0.59203 0.94762 0.78177 0.0
H897 H 0.60826 0.96327 0.81071 0.0
H898 H 0.59196 0.97624 0.90956 0.0
H899 H 0.56717 -0.00104 0.88289 0.0
H900 H 0.46081 0.6751 0.97873 0.0
H901 H 0.46173 0.64564 0.93634 0.0
H902 H 0.52427 0.64903 0.91739 0.0
H903 H 0.52346 0.67869 0.95894 0.0
H904 H 0.48394 0.62841 0.83785 0.0
H905 H 0.50866 0.6089 0.0345 0.0
H906 H 0.49512 0.62977 0.02219 0.0
H907 H 0.52025 0.6275 0.00279 0.0
C908 C 0.47461 0.67 0.96333 0.0
C909 C 0.49214 0.67894 0.97305 0.0
C910 C 0.47512 0.65314 0.93933 0.0
C911 C 0.49311 0.64517 0.92484 0.0
C912 C 0.51029 0.65502 0.92879 0.0
H913 H 0.51717 0.5327 0.84585 0.0
H914 H 0.52192 0.56308 0.87968 0.0
C915 C 0.5098 0.67189 0.95261 0.0
C916 C 0.49432 0.62559 0.91523 0.0
H917 H 0.50355 0.58532 0.9762 0.0
C918 C 0.4884 0.61896 0.86776 0.0
C919 C 0.50013 0.61345 0.9547 0.0
C920 C 0.50635 0.62013 0.00661 0.0
C921 C 0.48789 0.60028 0.85893 0.0
C922 C 0.49311 0.58815 0.89896 0.0
C923 C 0.49952 0.59478 0.94594 0.0
C924 C 0.49105 0.56855 0.8927 0.0
C925 C 0.4815 0.59355 0.80721 0.0
C926 C 0.47232 0.56127 0.89302 0.0
C927 C 0.46957 0.54388 0.87437 0.0
C928 C 0.48552 0.53372 0.85454 0.0
C929 C 0.50459 0.54019 0.86075 0.0
C930 C 0.50733 0.55761 0.87957 0.0
H931 H 0.4811 0.60452 0.778 0.0
H932 H 0.49152 0.58248 0.79375 0.0
H933 H 0.46659 0.58799 0.81047 0.0
H934 H 0.45966 0.56956 0.90372 0.0
H935 H 0.45473 0.53919 0.87055 0.0
H936 H 0.81877 0.58019 0.92903 0.0
H937 H 0.84588 0.56373 0.88783 0.0
H938 H 0.8842 0.60773 0.9211 0.0
H939 H 0.85723 0.62374 0.96527 0.0
H940 H 0.87555 0.56507 0.81874 0.0
H941 H 0.90459 0.56913 0.01746 0.0
H942 H 0.88054 0.57774 0.00062 0.0
H943 H 0.90192 0.59045 0.98499 0.0
C944 C 0.83273 0.58673 0.9252 0.0
C945 C 0.83608 0.60307 0.95056 0.0
C946 C 0.84827 0.57727 0.90195 0.0
C947 C 0.86722 0.5842 0.90338 0.0
C948 C 0.8698 0.6019 0.92122 0.0
H949 H 0.97724 0.52375 0.86809 0.0
H950 H 0.9524 0.54731 0.88406 0.0
C951 C 0.85436 0.61118 0.94567 0.0
C952 C 0.88424 0.57168 0.89555 0.0
H953 H 0.9221 0.55074 0.95989 0.0
C954 C 0.88582 0.56204 0.84942 0.0
C955 C 0.89752 0.56757 0.93599 0.0
C956 C 0.89603 0.57662 0.98771 0.0
C957 C 0.90019 0.54831 0.84283 0.0
C958 C 0.9131 0.54403 0.88367 0.0
C959 C 0.91198 0.55401 0.92904 0.0
C960 C 0.92806 0.52934 0.87982 0.0
C961 C 0.9015 0.53849 0.79229 0.0
C962 C 0.92263 0.51126 0.8745 0.0
C963 C 0.93689 0.49781 0.86452 0.0
C964 C 0.95672 0.50236 0.85979 0.0
C965 C 0.96214 0.52008 0.87067 0.0
C966 C 0.94794 0.53351 0.87997 0.0
H967 H 0.89348 0.54595 0.76146 0.0
H968 H 0.91702 0.53644 0.7804 0.0
H969 H 0.89495 0.52496 0.79644 0.0
H970 H 0.90733 0.50772 0.87551 0.0
H971 H 0.93216 0.48424 0.85622 0.0
H972 H 0.02191 0.15502 0.12436 0.0
H973 H 0.0199 0.12816 0.0704 0.0
H974 H 0.99919 0.16139 0.94481 0.0
H975 H 1.00147 0.18848 0.99851 0.0
H976 H 0.98693 0.11439 0.02092 0.0
H977 H 0.04503 0.1316 0.88138 0.0
H978 H 0.0424 0.14276 0.9425 0.0
H979 H 0.02647 0.14899 0.89029 0.0
C980 C 0.01719 0.15669 0.08502 0.0
C981 C 0.01209 0.17399 0.0656 0.0
C982 C 0.01592 0.14127 0.05432 0.0
C983 C 0.00968 0.14274 0.00329 0.0
C984 C 0.00438 0.15994 0.98381 0.0
H985 H 0.97512 0.06766 0.7719 0.0
H986 H 0.98126 0.09344 0.82736 0.0
C987 C 0.00553 0.17541 0.01466 0.0
C988 C 0.0083 0.1262 0.97107 0.0
H989 H 0.02563 0.10625 0.86133 0.0
C990 C 0.99551 0.11256 0.98626 0.0
C991 C 0.01959 0.12373 0.92598 0.0
C992 C 0.03429 0.13744 0.90915 0.0
C993 C 0.99332 0.09681 0.95683 0.0
C994 C 0.00428 0.09456 0.91128 0.0
C995 C 0.01728 0.10802 0.8964 0.0
C996 C 1.0014 0.07882 0.87706 0.0
C997 C 0.97897 0.0828 0.97373 0.0
C998 C 0.0109 0.06204 0.88634 0.0
C999 C 0.00753 0.04717 0.85433 0.0
C1000 C 0.99443 0.04883 0.81289 0.0
C1001 C 0.98516 0.06579 0.80367 0.0
C1002 C 0.98868 0.0806 0.83522 0.0
H1003 H 0.97119 0.08671 0.00955 0.0
H1004 H 0.96797 0.08075 0.94312 0.0
H1005 H 0.98684 0.06965 0.98003 0.0
H1006 H 0.02078 0.06042 0.91853 0.0
H1007 H 0.01489 0.03433 0.86256 0.0
H1008 H 0.31241 0.05234 0.04746 0.0
H1009 H 0.33877 0.04158 0.99072 0.0
H1010 H 0.37941 0.07596 0.06763 0.0
H1011 H 0.35325 0.08665 0.12488 0.0
H1012 H 0.38295 0.07672 0.95954 0.0
H1013 H 0.38328 0.0064 0.03444 0.0
H1014 H 0.35957 0.01456 0.01382 0.0
H1015 H 0.37126 0.02504 0.06741 0.0
C1016 C 0.32697 0.05755 0.05257 0.0
C1017 C 0.33065 0.07033 0.091 0.0
C1018 C 0.34203 0.05139 0.02003 0.0
C1019 C 0.36115 0.05777 0.02538 0.0
C1020 C 0.3648 0.07083 0.06281 0.0
H1021 H 0.46918 0.02387 0.85904 0.0
H1022 H 0.44699 0.03941 0.9201 0.0
C1023 C 0.34975 0.077 0.09537 0.0
C1024 C 0.37734 0.05058 0.99239 0.0
H1025 H 0.40134 0.01134 0.95783 0.0
C1026 C 0.38714 0.06247 0.95955 0.0
C1027 C 0.38296 0.03201 0.9928 0.0
C1028 C 0.37388 0.01877 0.02934 0.0
C1029 C 0.40177 0.05609 0.92553 0.0
C1030 C 0.40679 0.03742 0.92466 0.0
C1031 C 0.39742 0.02566 0.95853 0.0
C1032 C 0.42047 0.02945 0.88608 0.0
C1033 C 0.41126 0.06914 0.88924 0.0
C1034 C 0.41291 0.01884 0.8468 0.0
C1035 C 0.42543 0.00998 0.81227 0.0
C1036 C 0.44591 0.01143 0.81619 0.0
C1037 C 0.45351 0.02249 0.85486 0.0
C1038 C 0.44086 0.03139 0.8897 0.0
H1039 H 0.40502 0.08311 0.89286 0.0
H1040 H 0.42723 0.06943 0.89702 0.0
H1041 H 0.40937 0.06451 0.84917 0.0
H1042 H 0.39723 0.01721 0.84326 0.0
H1043 H 0.41898 0.00178 0.78273 0.0
H1044 H 0.51707 0.3308 0.12689 0.0
H1045 H 0.51336 0.35746 0.07205 0.0
H1046 H 0.50148 0.32315 0.94294 0.0
H1047 H 0.50469 0.29631 0.99844 0.0
H1048 H 0.53531 0.36633 0.99371 0.0
H1049 H 0.45879 0.36124 0.92558 0.0
H1050 H 0.4684 0.34772 0.97793 0.0
H1051 H 0.47356 0.34133 0.91279 0.0
C1052 C 0.51356 0.32893 0.08684 0.0
C1053 C 0.51131 0.31144 0.06687 0.0
C1054 C 0.51137 0.3442 0.05553 0.0
C1055 C 0.50695 0.34243 0.00332 0.0
C1056 C 0.50443 0.32497 0.98329 0.0
H1057 H 0.53595 0.42139 0.77379 0.0
H1058 H 0.53228 0.39481 0.8278 0.0
C1059 C 0.50639 0.30962 0.01491 0.0
C1060 C 0.50644 0.35884 0.96978 0.0
H1061 H 0.47852 0.38306 0.88352 0.0
C1062 C 0.52281 0.37 0.96991 0.0
C1063 C 0.49007 0.36383 0.93901 0.0
C1064 C 0.47163 0.35301 0.93908 0.0
C1065 C 0.52343 0.38573 0.93979 0.0
C1066 C 0.50741 0.39035 0.90753 0.0
C1067 C 0.49085 0.37945 0.90797 0.0
C1068 C 0.50814 0.4061 0.87196 0.0
C1069 C 0.54123 0.3974 0.9431 0.0
C1070 C 0.49525 0.42113 0.87739 0.0
C1071 C 0.49725 0.43651 0.84614 0.0
C1072 C 0.51218 0.43707 0.80898 0.0
C1073 C 0.52449 0.42165 0.80252 0.0
C1074 C 0.52243 0.40637 0.83343 0.0
H1075 H 0.54956 0.39486 0.97905 0.0
H1076 H 0.55114 0.39423 0.91046 0.0
H1077 H 0.53703 0.412 0.94113 0.0
H1078 H 0.48403 0.42116 0.90672 0.0
H1079 H 0.48745 0.44808 0.85194 0.0
H1080 H 0.17762 0.38929 0.04182 0.0
H1081 H 0.15056 0.39983 0.98684 0.0
H1082 H 0.14713 0.45013 0.06964 0.0
H1083 H 0.17376 0.43962 0.12578 0.0
H1084 H 0.10814 0.4224 0.039 0.0
H1085 H 0.15679 0.45229 0.89134 0.0
H1086 H 0.16395 0.43185 0.92535 0.0
H1087 H 0.16346 0.45311 0.95814 0.0
C1088 C 0.17105 0.40255 0.04874 0.0
C1089 C 0.17802 0.4136 0.08837 0.0
C1090 C 0.15559 0.40854 0.01715 0.0
C1091 C 0.14681 0.42569 0.02443 0.0
C1092 C 0.1537 0.43681 0.06358 0.0
H1093 H 0.07453 0.49975 0.85569 0.0
H1094 H 0.09744 0.48326 0.91101 0.0
C1095 C 0.16912 0.43084 0.09523 0.0
C1096 C 0.13086 0.43238 0.99017 0.0
H1097 H 0.12287 0.45704 0.88125 0.0
C1098 C 0.11126 0.42986 0.00423 0.0
C1099 C 0.13507 0.44205 0.945 0.0
C1100 C 0.15593 0.44506 0.92859 0.0
C1101 C 0.09569 0.4373 0.9749 0.0
C1102 C 0.0999 0.44734 0.9301 0.0
C1103 C 0.11958 0.44937 0.91554 0.0
C1104 C 0.08445 0.45716 0.89975 0.0
C1105 C 0.07494 0.43495 0.99323 0.0
C1106 C 0.0691 0.4481 0.87557 0.0
C1107 C 0.05566 0.45765 0.8441 0.0
C1108 C 0.0576 0.47633 0.83565 0.0
C1109 C 0.07268 0.48534 0.86098 0.0
C1110 C 0.08585 0.47591 0.89266 0.0
H1111 H 0.07441 0.4304 0.03378 0.0
H1112 H 0.06627 0.44781 0.98945 0.0
H1113 H 0.06785 0.42457 0.96942 0.0
H1114 H 0.06787 0.43359 0.87963 0.0
H1115 H 0.04431 0.4503 0.82474 0.0
H1116 H 0.02696 0.80555 0.42995 0.0
H1117 H 0.02581 0.83346 0.48002 0.0
H1118 H 0.96831 0.84646 0.42025 0.0
H1119 H 0.96938 0.81861 0.36966 0.0
H1120 H 0.02216 0.86854 0.43987 0.0
H1121 H 0.9611 0.8548 0.57448 0.0
H1122 H 0.97339 0.83709 0.53827 0.0
H1123 H 0.95571 0.85191 0.50771 0.0
C1124 C 0.01399 0.81427 0.42763 0.0
C1125 C 0.99826 0.80977 0.39568 0.0
C1126 C 0.01334 0.83022 0.45642 0.0
C1127 C 0.99692 0.84203 0.45429 0.0
C1128 C 0.98099 0.83742 0.42336 0.0
H1129 H 0.98171 0.9483 0.60817 0.0
H1130 H 0.97607 0.92226 0.55183 0.0
C1131 C 0.98162 0.82144 0.3945 0.0
C1132 C 0.9971 0.85958 0.48223 0.0
H1133 H 0.97509 0.88369 0.57908 0.0
C1134 C 0.01181 0.87185 0.47017 0.0
C1135 C 0.98345 0.86405 0.52136 0.0
C1136 C 0.96758 0.85125 0.53667 0.0
C1137 C 0.01349 0.88824 0.49675 0.0
C1138 C 1.00032 0.89242 0.53713 0.0
C1139 C 0.98517 0.88048 0.54809 0.0
C1140 C 0.00327 0.90823 0.57117 0.0
C1141 C 0.02949 0.90094 0.4816 0.0
C1142 C 0.02024 0.90885 0.60118 0.0
C1143 C 0.02347 0.92356 0.63322 0.0
C1144 C 0.00978 0.9381 0.63631 0.0
C1145 C 0.99261 0.93741 0.60655 0.0
C1146 C 0.98934 0.92253 0.57445 0.0
H1147 H 0.03453 0.89848 0.4417 0.0
H1148 H 0.02445 0.91529 0.48505 0.0
H1149 H 0.04224 0.89874 0.5074 0.0
H1150 H 0.03103 0.89785 0.59998 0.0
H1151 H 0.03682 0.92348 0.6556 0.0
H1152 H 0.68379 0.94561 0.36812 0.0
H1153 H 0.65589 0.95401 0.42236 0.0
H1154 H 0.64274 0.89773 0.44282 0.0
H1155 H 0.67017 0.8891 0.38678 0.0
H1156 H 0.61426 0.94212 0.40154 0.0
H1157 H 0.64471 0.92194 0.59186 0.0
H1158 H 0.66036 0.92728 0.53835 0.0
H1159 H 0.64751 0.90643 0.53905 0.0
C1160 C 0.67498 0.93495 0.3838 0.0
C1161 C 0.67929 0.91664 0.37252 0.0
C1162 C 0.65907 0.9398 0.41511 0.0
C1163 C 0.64727 0.9265 0.43661 0.0
C1164 C 0.65176 0.9082 0.42687 0.0
H1165 H 0.54354 0.95032 0.63342 0.0
H1166 H 0.56656 0.93302 0.57817 0.0
C1167 C 0.66758 0.90331 0.39506 0.0
C1168 C 0.62989 0.932 0.46761 0.0
H1169 H 0.61339 0.93606 0.59076 0.0
C1170 C 0.61394 0.94059 0.44284 0.0
C1171 C 0.62948 0.92988 0.52142 0.0
C1172 C 0.64641 0.92096 0.54965 0.0
C1173 C 0.59788 0.94763 0.47069 0.0
C1174 C 0.59786 0.94623 0.52463 0.0
C1175 C 0.61341 0.937 0.54932 0.0
C1176 C 0.58319 0.95634 0.55607 0.0
C1177 C 0.58122 0.95701 0.44254 0.0
C1178 C 0.5849 0.97509 0.56154 0.0
C1179 C 0.57203 0.98487 0.59316 0.0
C1180 C 0.55697 0.97617 0.61969 0.0
C1181 C 0.55488 0.95741 0.61309 0.0
C1182 C 0.56805 0.94752 0.58186 0.0
H1183 H 0.5815 0.95391 0.40094 0.0
H1184 H 0.56692 0.95295 0.4587 0.0
H1185 H 0.58233 0.97187 0.44733 0.0
H1186 H 0.5965 0.98212 0.54205 0.0
H1187 H 0.57401 -0.0007 0.59726 0.0
H1188 H 0.51936 0.66107 0.33731 0.0
H1189 H 0.52078 0.63371 0.38993 0.0
H1190 H 0.4937 0.66305 0.51497 0.0
H1191 H 0.49176 0.69047 0.46171 0.0
H1192 H 0.5381 0.62468 0.47907 0.0
H1193 H 0.45732 0.62155 0.50039 0.0
H1194 H 0.46871 0.63709 0.45691 0.0
H1195 H 0.46744 0.64204 0.52428 0.0
C1196 C 0.51389 0.66177 0.37622 0.0
C1197 C 0.50543 0.67794 0.39537 0.0
C1198 C 0.51469 0.64609 0.40626 0.0
C1199 C 0.5071 0.6462 0.45622 0.0
C1200 C 0.49923 0.66249 0.47613 0.0
H1201 H 0.52169 0.55348 0.66746 0.0
H1202 H 0.52745 0.5818 0.62105 0.0
C1203 C 0.49819 0.67817 0.44578 0.0
C1204 C 0.5069 0.62904 0.48629 0.0
H1205 H 0.47625 0.59958 0.5447 0.0
C1206 C 0.52458 0.61917 0.49349 0.0
C1207 C 0.48924 0.62175 0.50467 0.0
C1208 C 0.46958 0.63104 0.49583 0.0
C1209 C 0.52504 0.60214 0.51788 0.0
C1210 C 0.50738 0.59494 0.53659 0.0
C1211 C 0.4898 0.60502 0.53025 0.0
C1212 C 0.50632 0.57676 0.56119 0.0
C1213 C 0.54433 0.59181 0.52175 0.0
C1214 C 0.49268 0.56437 0.54304 0.0
C1215 C 0.48904 0.5485 0.57022 0.0
C1216 C 0.49928 0.54446 0.6155 0.0
C1217 C 0.51386 0.55618 0.63207 0.0
C1218 C 0.51718 0.57235 0.60547 0.0
H1219 H 0.55515 0.59672 0.49345 0.0
H1220 H 0.55055 0.59372 0.56053 0.0
H1221 H 0.54238 0.57709 0.51566 0.0
H1222 H 0.48419 0.56736 0.50889 0.0
H1223 H 0.47769 0.53968 0.55684 0.0
H1224 H 0.81546 0.57916 0.43359 0.0
H1225 H 0.84198 0.56941 0.49191 0.0
H1226 H 0.87546 0.54887 0.36376 0.0
H1227 H 0.84898 0.55836 0.30544 0.0
H1228 H 0.85848 0.5293 0.4909 0.0
H1229 H 0.91286 0.58289 0.45597 0.0
H1230 H 0.88686 0.58689 0.44675 0.0
H1231 H 0.90054 0.57337 0.4017 0.0
C1232 C 0.82854 0.57268 0.41789 0.0
C1233 C 0.83007 0.56938 0.36502 0.0
C1234 C 0.84366 0.56714 0.45117 0.0
C1235 C 0.86074 0.55856 0.43205 0.0
C1236 C 0.86247 0.55559 0.37922 0.0
H1237 H 0.9674 0.51293 0.57309 0.0
H1238 H 0.94353 0.52772 0.51488 0.0
C1239 C 0.84727 0.56088 0.34605 0.0
C1240 C 0.87614 0.55153 0.46753 0.0
H1241 H 0.92256 0.55877 0.51064 0.0
C1242 C 0.87246 0.53578 0.4955 0.0
C1243 C 0.89447 0.55983 0.47258 0.0
C1244 C 0.89905 0.57674 0.44294 0.0
C1245 C 0.88668 0.52795 0.52815 0.0
C1246 C 0.9049 0.53651 0.53463 0.0
C1247 C 0.90861 0.55226 0.50617 0.0
C1248 C 0.9201 0.52926 0.57087 0.0
C1249 C 0.88216 0.51022 0.55399 0.0
C1250 C 0.91524 0.52591 0.62224 0.0
C1251 C 0.92864 0.51714 0.65487 0.0
C1252 C 0.94748 0.51209 0.63751 0.0
C1253 C 0.95295 0.51666 0.58734 0.0
C1254 C 0.93931 0.52508 0.55414 0.0
H1255 H 0.87089 0.50273 0.53256 0.0
H1256 H 0.89548 0.50138 0.55759 0.0
H1257 H 0.87624 0.51296 0.59286 0.0
H1258 H 0.90086 0.52964 0.63685 0.0
H1259 H 0.92416 0.51407 0.69369 0.0
loop_
_geom_bond_atom_site_label_1
_geom_bond_atom_site_label_2
_geom_bond_distance
_geom_bond_site_symmetry_2
_ccdc_geom_bond_type
C0 C1 1.386 . S
C0 C2 1.397 . S
C0 H24 0.931 . S
C1 C0 1.386 . S
C1 C5 1.397 . S
C2 C0 1.397 . S
C2 C3 1.384 1_556 S
C2 H25 0.930 . S
C3 C2 1.384 1_554 S
C3 C4 1.377 . S
C3 C6 1.481 . S
C4 C3 1.377 . S
C4 C5 1.389 1_554 S
C4 H26 0.929 . S
C5 C1 1.397 . S
C5 C4 1.389 1_556 S
C5 H27 0.931 . S
C6 C3 1.481 . S
C6 C7 1.387 . S
C6 C11 1.390 . S
C7 C6 1.387 . S
C7 C8 1.401 . S
C7 H28 0.930 . S
C8 C7 1.401 . S
C8 C9 1.376 . S
C8 C17 1.511 . S
C9 C8 1.376 . S
C9 C10 1.392 . S
C9 H30 0.931 . S
C10 C9 1.392 . S
C10 C11 1.361 . S
C10 C12 1.500 . S
C11 C6 1.390 . S
C11 C10 1.361 . S
C11 H29 0.931 . S
C12 C10 1.500 . S
C12 C13 1.371 . S
C12 C14 1.365 . S
C13 C12 1.371 . S
C13 C23 1.386 . S
C13 H31 0.931 . S
C14 C12 1.365 . S
C14 C15 1.409 . S
C14 H32 0.929 . S
C15 C14 1.409 . S
C15 C16 1.380 . S
C15 H33 0.930 . S
C16 C15 1.380 . S
C16 C23 1.357 . S
C17 C8 1.511 . S
C17 C18 1.341 . S
C17 C19 1.371 . S
C18 C17 1.341 . S
C18 C22 1.394 . S
C18 H34 0.930 . S
C19 C17 1.371 . S
C19 C20 1.392 . S
C19 H35 0.931 . S
C20 C19 1.392 . S
C20 C21 1.331 . S
C20 H38 0.932 . S
C21 C20 1.331 . S
C21 C22 1.336 . S
C22 C18 1.394 . S
C22 C21 1.336 . S
C22 H37 0.929 1_554 S
C23 C13 1.386 . S
C23 C16 1.357 . S
C23 H36 0.928 . S
H24 C0 0.931 . S
H25 C2 0.930 . S
H26 C4 0.929 . S
H27 C5 0.931 . S
H28 C7 0.930 . S
H29 C11 0.931 . S
H30 C9 0.931 . S
H31 C13 0.931 . S
H32 C14 0.929 . S
H33 C15 0.930 . S
H34 C18 0.930 . S
H35 C19 0.931 . S
H36 C23 0.928 . S
H37 C22 0.929 1_556 S
H38 C20 0.932 . S
C39 C40 1.397 . S
C39 C41 1.397 1_556 S
C39 H63 0.931 . S
C40 C39 1.397 . S
C40 C44 1.386 1_656 S
C41 C39 1.397 1_554 S
C41 C42 1.390 . S
C41 H64 0.930 . S
C42 C41 1.390 . S
C42 C43 1.371 1_655 S
C42 C45 1.480 . S
C43 C42 1.371 1_455 S
C43 C44 1.389 . S
C43 H65 0.929 . S
C44 C40 1.386 1_454 S
C44 C43 1.389 . S
C44 H66 0.931 . S
C45 C42 1.480 . S
C45 C46 1.389 . S
C45 C50 1.390 . S
C46 C45 1.389 . S
C46 C47 1.402 . S
C46 H67 0.930 . S
C47 C46 1.402 . S
C47 C48 1.376 . S
C47 C56 1.513 . S
C48 C47 1.376 . S
C48 C49 1.390 . S
C48 H69 0.935 . S
C49 C48 1.390 . S
C49 C50 1.361 . S
C49 C51 1.499 1_655 S
C50 C45 1.390 . S
C50 C49 1.361 . S
C50 H68 0.931 . S
C51 C49 1.499 1_455 S
C51 C52 1.363 1_455 S
C51 C53 1.374 . S
C52 C51 1.363 1_655 S
C52 C62 1.386 . S
C52 H70 0.931 . S
C53 C51 1.374 . S
C53 C54 1.409 . S
C53 H71 0.929 . S
C54 C53 1.409 . S
C54 C55 1.377 . S
C54 H72 0.930 . S
C55 C54 1.377 . S
C55 C62 1.360 1_455 S
C56 C47 1.513 . S
C56 C57 1.341 . S
C56 C58 1.371 1_655 S
C57 C56 1.341 . S
C57 C61 1.394 . S
C57 H73 0.930 . S
C58 C56 1.371 1_455 S
C58 C59 1.392 . S
C58 H74 0.931 . S
C59 C58 1.392 . S
C59 C60 1.324 1_455 S
C59 H77 0.932 . S
C60 C59 1.324 1_655 S
C60 C61 1.343 . S
C61 C57 1.394 . S
C61 C60 1.343 . S
C61 H76 0.929 . S
C62 C52 1.386 . S
C62 C55 1.360 1_655 S
C62 H75 0.928 . S
H63 C39 0.931 . S
H64 C41 0.930 . S
H65 C43 0.929 . S
H66 C44 0.931 . S
H67 C46 0.930 . S
H68 C50 0.931 . S
H69 C48 0.935 . S
H70 C52 0.931 . S
H71 C53 0.929 . S
H72 C54 0.930 . S
H73 C57 0.930 . S
H74 C58 0.931 . S
H75 C62 0.928 . S
H76 C61 0.929 . S
H77 C59 0.932 . S
C78 C79 1.386 . S
C78 C80 1.397 . S
C78 H102 0.931 . S
C79 C78 1.386 . S
C79 C83 1.397 1_556 S
C80 C78 1.397 . S
C80 C81 1.384 1_556 S
C80 H103 0.930 . S
C81 C80 1.384 1_554 S
C81 C82 1.377 . S
C81 C84 1.481 . S
C82 C81 1.377 . S
C82 C83 1.389 . S
C82 H104 0.929 . S
C83 C79 1.397 1_554 S
C83 C82 1.389 . S
C83 H105 0.931 . S
C84 C81 1.481 . S
C84 C85 1.387 . S
C84 C89 1.390 . S
C85 C84 1.387 . S
C85 C86 1.401 . S
C85 H106 0.930 . S
C86 C85 1.401 . S
C86 C87 1.376 . S
C86 C95 1.511 . S
C87 C86 1.376 . S
C87 C88 1.392 . S
C87 H108 0.931 . S
C88 C87 1.392 . S
C88 C89 1.361 . S
C88 C90 1.500 . S
C89 C84 1.390 . S
C89 C88 1.361 . S
C89 H107 0.931 . S
C90 C88 1.500 . S
C90 C91 1.371 . S
C90 C92 1.365 . S
C91 C90 1.371 . S
C91 C101 1.386 . S
C91 H109 0.931 . S
C92 C90 1.365 . S
C92 C93 1.409 . S
C92 H110 0.929 . S
C93 C92 1.409 . S
C93 C94 1.380 . S
C93 H111 0.930 . S
C94 C93 1.380 . S
C94 C101 1.357 . S
C95 C86 1.511 . S
C95 C96 1.341 . S
C95 C97 1.371 . S
C96 C95 1.341 . S
C96 C100 1.394 . S
C96 H112 0.930 . S
C97 C95 1.371 . S
C97 C98 1.392 . S
C97 H113 0.931 . S
C98 C97 1.392 . S
C98 C99 1.331 . S
C98 H116 0.932 . S
C99 C98 1.331 . S
C99 C100 1.336 . S
C100 C96 1.394 . S
C100 C99 1.336 . S
C100 H115 0.929 1_554 S
C101 C91 1.386 . S
C101 C94 1.357 . S
C101 H114 0.928 . S
H102 C78 0.931 . S
H103 C80 0.930 . S
H104 C82 0.929 . S
H105 C83 0.931 . S
H106 C85 0.930 . S
H107 C89 0.931 . S
H108 C87 0.931 . S
H109 C91 0.931 . S
H110 C92 0.929 . S
H111 C93 0.930 . S
H112 C96 0.930 . S
H113 C97 0.931 . S
H114 C101 0.928 . S
H115 C100 0.929 1_556 S
H116 C98 0.932 . S
C117 C118 1.386 . S
C117 C119 1.397 . S
C117 H141 0.931 . S
C118 C117 1.386 . S
C118 C122 1.397 . S
C119 C117 1.397 . S
C119 C120 1.384 . S
C119 H142 0.930 . S
C120 C119 1.384 . S
C120 C121 1.377 . S
C120 C123 1.481 . S
C121 C120 1.377 . S
C121 C122 1.389 . S
C121 H143 0.929 . S
C122 C118 1.397 . S
C122 C121 1.389 . S
C122 H144 0.931 . S
C123 C120 1.481 . S
C123 C124 1.387 . S
C123 C128 1.390 . S
C124 C123 1.387 . S
C124 C125 1.401 . S
C124 H145 0.930 . S
C125 C124 1.401 . S
C125 C126 1.376 . S
C125 C134 1.511 . S
C126 C125 1.376 . S
C126 C127 1.392 . S
C126 H147 0.931 . S
C127 C126 1.392 . S
C127 C128 1.361 . S
C127 C129 1.500 . S
C128 C123 1.390 . S
C128 C127 1.361 . S
C128 H146 0.931 . S
C129 C127 1.500 . S
C129 C130 1.371 . S
C129 C131 1.365 . S
C130 C129 1.371 . S
C130 C140 1.386 1_554 S
C130 H148 0.931 1_554 S
C131 C129 1.365 . S
C131 C132 1.409 . S
C131 H149 0.929 . S
C132 C131 1.409 . S
C132 C133 1.380 1_554 S
C132 H150 0.930 . S
C133 C132 1.380 1_556 S
C133 C140 1.357 . S
C134 C125 1.511 . S
C134 C135 1.341 . S
C134 C136 1.371 . S
C135 C134 1.341 . S
C135 C139 1.394 . S
C135 H151 0.930 . S
C136 C134 1.371 . S
C136 C137 1.392 . S
C136 H152 0.931 . S
C137 C136 1.392 . S
C137 C138 1.331 . S
C137 H155 0.932 . S
C138 C137 1.331 . S
C138 C139 1.336 . S
C139 C135 1.394 . S
C139 C138 1.336 . S
C139 H154 0.929 . S
C140 C130 1.386 1_556 S
C140 C133 1.357 . S
C140 H153 0.928 . S
H141 C117 0.931 . S
H142 C119 0.930 . S
H143 C121 0.929 . S
H144 C122 0.931 . S
H145 C124 0.930 . S
H146 C128 0.931 . S
H147 C126 0.931 . S
H148 C130 0.931 1_556 S
H149 C131 0.929 . S
H150 C132 0.930 . S
H151 C135 0.930 . S
H152 C136 0.931 . S
H153 C140 0.928 . S
H154 C139 0.929 . S
H155 C137 0.932 . S
C156 C157 1.386 . S
C156 C158 1.397 . S
C156 H180 0.931 . S
C157 C156 1.386 . S
C157 C161 1.397 . S
C158 C156 1.397 . S
C158 C159 1.384 . S
C158 H181 0.930 . S
C159 C158 1.384 . S
C159 C160 1.377 . S
C159 C162 1.481 . S
C160 C159 1.377 . S
C160 C161 1.389 . S
C160 H182 0.929 . S
C161 C157 1.397 . S
C161 C160 1.389 . S
C161 H183 0.931 . S
C162 C159 1.481 . S
C162 C163 1.387 . S
C162 C167 1.390 . S
C163 C162 1.387 . S
C163 C164 1.401 . S
C163 H184 0.930 . S
C164 C163 1.401 . S
C164 C165 1.376 . S
C164 C173 1.511 . S
C165 C164 1.376 . S
C165 C166 1.392 . S
C165 H186 0.931 . S
C166 C165 1.392 . S
C166 C167 1.361 . S
C166 C168 1.500 . S
C167 C162 1.390 . S
C167 C166 1.361 . S
C167 H185 0.931 . S
C168 C166 1.500 . S
C168 C169 1.371 . S
C168 C170 1.365 . S
C169 C168 1.371 . S
C169 C179 1.386 . S
C169 H187 0.931 . S
C170 C168 1.365 . S
C170 C171 1.409 . S
C170 H188 0.929 . S
C171 C170 1.409 . S
C171 C172 1.380 . S
C171 H189 0.930 . S
C172 C171 1.380 . S
C172 C179 1.357 . S
C173 C164 1.511 . S
C173 C174 1.341 . S
C173 C175 1.371 . S
C174 C173 1.341 . S
C174 C178 1.394 . S
C174 H190 0.930 . S
C175 C173 1.371 . S
C175 C176 1.392 . S
C175 H191 0.931 . S
C176 C175 1.392 . S
C176 C177 1.331 . S
C176 H194 0.932 . S
C177 C176 1.331 . S
C177 C178 1.336 . S
C178 C174 1.394 . S
C178 C177 1.336 . S
C178 H193 0.929 . S
C179 C169 1.386 . S
C179 C172 1.357 . S
C179 H192 0.928 . S
H180 C156 0.931 . S
H181 C158 0.930 . S
H182 C160 0.929 . S
H183 C161 0.931 . S
H184 C163 0.930 . S
H185 C167 0.931 . S
H186 C165 0.931 . S
H187 C169 0.931 . S
H188 C170 0.929 . S
H189 C171 0.930 . S
H190 C174 0.930 . S
H191 C175 0.931 . S
H192 C179 0.928 . S
H193 C178 0.929 . S
H194 C176 0.932 . S
C195 C196 1.389 . S
C195 C197 1.397 . S
C195 H219 0.931 . S
C196 C195 1.389 . S
C196 C200 1.394 1_655 S
C197 C195 1.397 . S
C197 C198 1.382 . S
C197 H220 0.930 . S
C198 C197 1.382 . S
C198 C199 1.379 1_655 S
C198 C201 1.481 . S
C199 C198 1.379 1_455 S
C199 C200 1.389 . S
C199 H221 0.929 . S
C200 C196 1.394 1_455 S
C200 C199 1.389 . S
C200 H222 0.931 . S
C201 C198 1.481 . S
C201 C202 1.388 . S
C201 C206 1.390 . S
C202 C201 1.388 . S
C202 C203 1.399 . S
C202 H223 0.935 . S
C203 C202 1.399 . S
C203 C204 1.376 . S
C203 C212 1.511 . S
C204 C203 1.376 . S
C204 C205 1.392 1_655 S
C204 H225 0.932 . S
C205 C204 1.392 1_455 S
C205 C206 1.361 1_455 S
C205 C207 1.499 . S
C206 C201 1.390 . S
C206 C205 1.361 1_655 S
C206 H224 0.931 . S
C207 C205 1.499 . S
C207 C208 1.358 1_455 S
C207 C209 1.379 . S
C208 C207 1.358 1_655 S
C208 C218 1.386 . S
C208 H226 0.931 . S
C209 C207 1.379 . S
C209 C210 1.409 . S
C209 H227 0.929 . S
C210 C209 1.409 . S
C210 C211 1.383 . S
C210 H228 0.930 . S
C211 C210 1.383 . S
C211 C218 1.354 1_455 S
C212 C203 1.511 . S
C212 C213 1.341 . S
C212 C214 1.371 1_655 S
C213 C212 1.341 . S
C213 C217 1.394 . S
C213 H229 0.930 . S
C214 C212 1.371 1_455 S
C214 C215 1.392 . S
C214 H230 0.931 . S
C215 C214 1.392 . S
C215 C216 1.328 1_455 S
C215 H233 0.932 . S
C216 C215 1.328 1_655 S
C216 C217 1.339 . S
C217 C213 1.394 . S
C217 C216 1.339 . S
C217 H232 0.929 . S
C218 C208 1.386 . S
C218 C211 1.354 1_655 S
C218 H231 0.928 . S
H219 C195 0.931 . S
H220 C197 0.930 . S
H221 C199 0.929 . S
H222 C200 0.931 . S
H223 C202 0.935 . S
H224 C206 0.931 . S
H225 C204 0.932 . S
H226 C208 0.931 . S
H227 C209 0.929 . S
H228 C210 0.930 . S
H229 C213 0.930 . S
H230 C214 0.931 . S
H231 C218 0.928 . S
H232 C217 0.929 . S
H233 C215 0.932 . S
C234 C235 1.386 . S
C234 C236 1.397 . S
C234 H258 0.931 . S
C235 C234 1.386 . S
C235 C239 1.397 . S
C236 C234 1.397 . S
C236 C237 1.384 . S
C236 H259 0.930 . S
C237 C236 1.384 . S
C237 C238 1.377 . S
C237 C240 1.481 . S
C238 C237 1.377 . S
C238 C239 1.389 . S
C238 H260 0.929 . S
C239 C235 1.397 . S
C239 C238 1.389 . S
C239 H261 0.931 . S
C240 C237 1.481 . S
C240 C241 1.387 . S
C240 C245 1.390 . S
C241 C240 1.387 . S
C241 C242 1.401 . S
C241 H262 0.930 . S
C242 C241 1.401 . S
C242 C243 1.376 . S
C242 C251 1.511 . S
C243 C242 1.376 . S
C243 C244 1.392 . S
C243 H264 0.931 . S
C244 C243 1.392 . S
C244 C245 1.361 . S
C244 C246 1.500 . S
C245 C240 1.390 . S
C245 C244 1.361 . S
C245 H263 0.931 . S
C246 C244 1.500 . S
C246 C247 1.371 . S
C246 C248 1.365 . S
C247 C246 1.371 . S
C247 C257 1.386 . S
C247 H265 0.931 . S
C248 C246 1.365 . S
C248 C249 1.409 . S
C248 H266 0.929 . S
C249 C248 1.409 . S
C249 C250 1.380 . S
C249 H267 0.930 . S
C250 C249 1.380 . S
C250 C257 1.357 . S
C251 C242 1.511 . S
C251 C252 1.341 . S
C251 C253 1.371 . S
C252 C251 1.341 . S
C252 C256 1.394 . S
C252 H268 0.930 . S
C253 C251 1.371 . S
C253 C254 1.392 . S
C253 H269 0.931 . S
C254 C253 1.392 . S
C254 C255 1.331 . S
C254 H272 0.932 . S
C255 C254 1.331 . S
C255 C256 1.336 . S
C256 C252 1.394 . S
C256 C255 1.336 . S
C256 H271 0.929 . S
C257 C247 1.386 . S
C257 C250 1.357 . S
C257 H270 0.928 . S
H258 C234 0.931 . S
H259 C236 0.930 . S
H260 C238 0.929 . S
H261 C239 0.931 . S
H262 C241 0.930 . S
H263 C245 0.931 . S
H264 C243 0.931 . S
H265 C247 0.931 . S
H266 C248 0.929 . S
H267 C249 0.930 . S
H268 C252 0.930 . S
H269 C253 0.931 . S
H270 C257 0.928 . S
H271 C256 0.929 . S
H272 C254 0.932 . S
C273 C274 1.386 . S
C273 C275 1.397 . S
C273 H297 0.931 . S
C274 C273 1.386 . S
C274 C278 1.397 . S
C275 C273 1.397 . S
C275 C276 1.384 . S
C275 H298 0.930 . S
C276 C275 1.384 . S
C276 C277 1.377 . S
C276 C279 1.481 . S
C277 C276 1.377 . S
C277 C278 1.389 . S
C277 H299 0.929 . S
C278 C274 1.397 . S
C278 C277 1.389 . S
C278 H300 0.931 . S
C279 C276 1.481 . S
C279 C280 1.387 . S
C279 C284 1.390 . S
C280 C279 1.387 . S
C280 C281 1.401 . S
C280 H301 0.930 . S
C281 C280 1.401 . S
C281 C282 1.376 . S
C281 C290 1.511 . S
C282 C281 1.376 . S
C282 C283 1.392 . S
C282 H303 0.931 . S
C283 C282 1.392 . S
C283 C284 1.361 . S
C283 C285 1.500 . S
C284 C279 1.390 . S
C284 C283 1.361 . S
C284 H302 0.931 . S
C285 C283 1.500 . S
C285 C286 1.371 . S
C285 C287 1.365 . S
C286 C285 1.371 . S
C286 C296 1.386 . S
C286 H304 0.931 . S
C287 C285 1.365 . S
C287 C288 1.409 . S
C287 H305 0.929 . S
C288 C287 1.409 . S
C288 C289 1.380 . S
C288 H306 0.930 . S
C289 C288 1.380 . S
C289 C296 1.357 . S
C290 C281 1.511 . S
C290 C291 1.341 . S
C290 C292 1.371 . S
C291 C290 1.341 . S
C291 C295 1.394 . S
C291 H307 0.930 . S
C292 C290 1.371 . S
C292 C293 1.392 . S
C292 H308 0.931 . S
C293 C292 1.392 . S
C293 C294 1.331 . S
C293 H311 0.932 . S
C294 C293 1.331 . S
C294 C295 1.336 . S
C295 C291 1.394 . S
C295 C294 1.336 . S
C295 H310 0.929 . S
C296 C286 1.386 . S
C296 C289 1.357 . S
C296 H309 0.928 . S
H297 C273 0.931 . S
H298 C275 0.930 . S
H299 C277 0.929 . S
H300 C278 0.931 . S
H301 C280 0.930 . S
H302 C284 0.931 . S
H303 C282 0.931 . S
H304 C286 0.931 . S
H305 C287 0.929 . S
H306 C288 0.930 . S
H307 C291 0.930 . S
H308 C292 0.931 . S
H309 C296 0.928 . S
H310 C295 0.929 . S
H311 C293 0.932 . S
O312 Mg313 1.990 . S
O312 C326 1.253 . S
Mg313 O312 1.990 . S
Mg313 O316 2.180 1_565 S
Mg313 O317 2.117 . S
Mg313 O331 2.030 . S
O314 Mg315 2.070 1_465 S
O314 C326 1.260 . S
Mg315 O314 2.070 1_645 S
Mg315 O316 2.048 1_655 S
Mg315 O318 2.088 . S
Mg315 O319 2.056 1_655 S
Mg315 O321 2.150 . S
Mg315 O332 2.091 1_545 S
O316 Mg313 2.180 1_545 S
O316 Mg315 2.048 1_455 S
O316 C327 1.279 . S
O317 Mg313 2.117 . S
O317 C327 1.250 1_565 S
O318 Mg315 2.088 . S
O318 C328 1.264 . S
O319 Mg315 2.056 1_455 S
O319 C329 1.283 . S
Mg320 O321 2.180 . S
Mg320 O322 2.030 . S
Mg320 O323 1.990 . S
Mg320 O324 2.117 . S
O321 Mg315 2.150 . S
O321 Mg320 2.180 . S
O321 C330 1.279 . S
O322 Mg320 2.030 . S
O322 C328 1.248 . S
O323 Mg320 1.990 . S
O323 C329 1.198 1_655 S
O324 Mg320 2.117 . S
O324 C330 1.250 . S
C325 O331 1.204 1_655 S
C325 O332 1.281 . S
C326 O312 1.253 . S
C326 O314 1.260 . S
C327 O316 1.279 . S
C327 O317 1.250 1_545 S
C328 O318 1.264 . S
C328 O322 1.248 . S
C329 O319 1.283 . S
C329 O323 1.198 1_455 S
C330 O321 1.279 . S
C330 O324 1.250 . S
O331 Mg313 2.030 . S
O331 C325 1.204 1_455 S
O332 Mg315 2.091 1_565 S
O332 C325 1.281 . S
O333 Mg334 1.990 1_545 S
O333 C347 1.253 . S
Mg334 O333 1.990 1_565 S
Mg334 O337 2.180 . S
Mg334 O338 2.117 . S
Mg334 O352 2.030 1_565 S
O335 Mg336 2.072 . S
O335 C347 1.260 . S
Mg336 O335 2.072 . S
Mg336 O337 2.099 1_545 S
Mg336 O339 2.079 1_545 S
Mg336 O340 2.065 1_545 S
Mg336 O342 2.099 . S
Mg336 O353 2.079 . S
O337 Mg334 2.180 . S
O337 Mg336 2.099 1_565 S
O337 C348 1.279 . S
O338 Mg334 2.117 . S
O338 C348 1.250 . S
O339 Mg336 2.079 1_565 S
O339 C349 1.264 . S
O340 Mg336 2.065 1_565 S
O340 C350 1.249 1_565 S
Mg341 O342 2.180 . S
Mg341 O343 2.030 . S
Mg341 O344 1.990 . S
Mg341 O345 2.117 . S
O342 Mg336 2.099 . S
O342 Mg341 2.180 . S
O342 C351 1.279 . S
O343 Mg341 2.030 . S
O343 C349 1.248 1_545 S
O344 Mg341 1.990 . S
O344 C350 1.253 . S
O345 Mg341 2.117 . S
O345 C351 1.250 . S
C346 O352 1.248 . S
C346 O353 1.264 . S
C347 O333 1.253 . S
C347 O335 1.260 . S
C348 O337 1.279 . S
C348 O338 1.250 . S
C349 O339 1.264 . S
C349 O343 1.248 1_565 S
C350 O340 1.249 1_545 S
C350 O344 1.253 . S
C351 O342 1.279 . S
C351 O345 1.250 . S
O352 Mg334 2.030 1_545 S
O352 C346 1.248 . S
O353 Mg336 2.079 . S
O353 C346 1.264 . S
O354 Mg355 1.990 . S
O354 C368 1.253 . S
Mg355 O354 1.990 . S
Mg355 O358 2.180 . S
Mg355 O359 2.117 . S
Mg355 O373 2.030 . S
O356 Mg357 2.072 . S
O356 C368 1.260 . S
Mg357 O356 2.072 . S
Mg357 O358 2.099 . S
Mg357 O360 2.079 . S
Mg357 O361 2.072 . S
Mg357 O363 2.099 . S
Mg357 O374 2.079 . S
O358 Mg355 2.180 . S
O358 Mg357 2.099 . S
O358 C369 1.279 . S
O359 Mg355 2.117 . S
O359 C369 1.250 . S
O360 Mg357 2.079 . S
O360 C370 1.264 . S
O361 Mg357 2.072 . S
O361 C371 1.260 . S
Mg362 O363 2.180 . S
Mg362 O364 2.030 . S
Mg362 O365 1.990 . S
Mg362 O366 2.117 . S
O363 Mg357 2.099 . S
O363 Mg362 2.180 . S
O363 C372 1.279 . S
O364 Mg362 2.030 . S
O364 C370 1.248 . S
O365 Mg362 1.990 . S
O365 C371 1.253 . S
O366 Mg362 2.117 . S
O366 C372 1.250 . S
C367 O373 1.248 . S
C367 O374 1.264 . S
C368 O354 1.253 . S
C368 O356 1.260 . S
C369 O358 1.279 . S
C369 O359 1.250 . S
C370 O360 1.264 . S
C370 O364 1.248 . S
C371 O361 1.260 . S
C371 O365 1.253 . S
C372 O363 1.279 . S
C372 O366 1.250 . S
O373 Mg355 2.030 . S
O373 C367 1.248 . S
O374 Mg357 2.079 . S
O374 C367 1.264 . S
O375 Mg376 1.990 . S
O375 C389 1.253 . S
Mg376 O375 1.990 . S
Mg376 O379 2.180 . S
Mg376 O380 2.117 . S
Mg376 O394 2.030 . S
O377 Mg378 2.072 1_655 S
O377 C389 1.260 . S
Mg378 O377 2.072 1_455 S
Mg378 O379 2.099 1_455 S
Mg378 O381 2.079 . S
Mg378 O382 2.072 . S
Mg378 O384 2.099 . S
Mg378 O395 2.079 1_455 S
O379 Mg376 2.180 . S
O379 Mg378 2.099 1_655 S
O379 C390 1.279 . S
O380 Mg376 2.117 . S
O380 C390 1.250 . S
O381 Mg378 2.079 . S
O381 C391 1.264 . S
O382 Mg378 2.072 . S
O382 C392 1.260 . S
Mg383 O384 2.180 . S
Mg383 O385 2.030 . S
Mg383 O386 1.990 . S
Mg383 O387 2.117 . S
O384 Mg378 2.099 . S
O384 Mg383 2.180 . S
O384 C393 1.279 . S
O385 Mg383 2.030 . S
O385 C391 1.248 . S
O386 Mg383 1.990 . S
O386 C392 1.253 . S
O387 Mg383 2.117 . S
O387 C393 1.250 . S
C388 O394 1.248 . S
C388 O395 1.264 . S
C389 O375 1.253 . S
C389 O377 1.260 . S
C390 O379 1.279 . S
C390 O380 1.250 . S
C391 O381 1.264 . S
C391 O385 1.248 . S
C392 O382 1.260 . S
C392 O386 1.253 . S
C393 O384 1.279 . S
C393 O387 1.250 . S
O394 Mg376 2.030 . S
O394 C388 1.248 . S
O395 Mg378 2.079 1_655 S
O395 C388 1.264 . S
H396 C404 0.929 . S
H397 C406 0.930 . S
H398 C408 0.930 . S
H399 C411 0.929 . S
H400 C414 0.930 . S
H401 C416 0.960 . S
H402 C416 0.960 . S
H403 C416 0.960 . S
C404 H396 0.929 . S
C404 C405 1.377 . S
C404 C406 1.384 . S
C405 C404 1.377 . S
C405 C411 1.390 . S
C406 H397 0.930 . S
C406 C404 1.384 . S
C406 C407 1.372 . S
C407 C406 1.372 . S
C407 C408 1.400 . S
C407 C412 1.490 . S
C408 H398 0.930 . S
C408 C407 1.400 . S
C408 C411 1.386 . S
H409 C425 0.930 . S
H410 C426 0.931 . S
C411 H399 0.929 . S
C411 C405 1.390 . S
C411 C408 1.386 . S
C412 C407 1.490 . S
C412 C414 1.395 . S
C412 C415 1.403 . S
H413 C419 0.930 . S
C414 H400 0.930 . S
C414 C412 1.395 . S
C414 C417 1.403 . S
C415 C412 1.403 . S
C415 C416 1.524 . S
C415 C419 1.400 . S
C416 H401 0.960 . S
C416 H402 0.960 . S
C416 H403 0.960 . S
C416 C415 1.524 . S
C417 C414 1.403 . S
C417 C418 1.392 . S
C417 C421 1.495 . S
C418 C417 1.392 . S
C418 C419 1.385 . S
C418 C420 1.478 . S
C419 H413 0.930 . S
C419 C415 1.400 . S
C419 C418 1.385 . S
C420 C418 1.478 . S
C420 C422 1.381 . S
C420 C426 1.383 . S
C421 C417 1.495 . S
C421 H427 0.959 . S
C421 H428 0.961 . S
C421 H429 0.960 . S
C422 C420 1.381 . S
C422 C423 1.394 . S
C422 H430 0.930 . S
C423 C422 1.394 . S
C423 C424 1.383 . S
C423 H431 0.929 . S
C424 C423 1.383 . S
C424 C425 1.377 . S
C425 H409 0.930 . S
C425 C424 1.377 . S
C425 C426 1.379 . S
C426 H410 0.931 . S
C426 C420 1.383 . S
C426 C425 1.379 . S
H427 C421 0.959 . S
H428 C421 0.961 . S
H429 C421 0.960 . S
H430 C422 0.930 . S
H431 C423 0.929 . S
H432 C440 0.929 . S
H433 C442 0.930 . S
H434 C444 0.930 . S
H435 C447 0.929 . S
H436 C450 0.930 . S
H437 C452 0.960 . S
H438 C452 0.960 . S
H439 C452 0.960 . S
C440 H432 0.929 . S
C440 C441 1.377 . S
C440 C442 1.384 . S
C441 C440 1.377 . S
C441 C447 1.390 . S
C442 H433 0.930 . S
C442 C440 1.384 . S
C442 C443 1.372 . S
C443 C442 1.372 . S
C443 C444 1.400 . S
C443 C448 1.490 . S
C444 H434 0.930 . S
C444 C443 1.400 . S
C444 C447 1.386 . S
H445 C461 0.930 . S
H446 C462 0.931 . S
C447 H435 0.929 . S
C447 C441 1.390 . S
C447 C444 1.386 . S
C448 C443 1.490 . S
C448 C450 1.395 . S
C448 C451 1.403 . S
H449 C455 0.930 . S
C450 H436 0.930 . S
C450 C448 1.395 . S
C450 C453 1.403 . S
C451 C448 1.403 . S
C451 C452 1.524 . S
C451 C455 1.400 . S
C452 H437 0.960 . S
C452 H438 0.960 . S
C452 H439 0.960 . S
C452 C451 1.524 . S
C453 C450 1.403 . S
C453 C454 1.392 . S
C453 C457 1.495 . S
C454 C453 1.392 . S
C454 C455 1.385 . S
C454 C456 1.478 . S
C455 H449 0.930 . S
C455 C451 1.400 . S
C455 C454 1.385 . S
C456 C454 1.478 . S
C456 C458 1.381 . S
C456 C462 1.383 . S
C457 C453 1.495 . S
C457 H463 0.959 . S
C457 H464 0.961 . S
C457 H465 0.960 . S
C458 C456 1.381 . S
C458 C459 1.394 . S
C458 H466 0.930 . S
C459 C458 1.394 . S
C459 C460 1.383 . S
C459 H467 0.929 . S
C460 C459 1.383 . S
C460 C461 1.377 . S
C461 H445 0.930 . S
C461 C460 1.377 . S
C461 C462 1.379 . S
C462 H446 0.931 . S
C462 C456 1.383 . S
C462 C461 1.379 . S
H463 C457 0.959 . S
H464 C457 0.961 . S
H465 C457 0.960 . S
H466 C458 0.930 . S
H467 C459 0.929 . S
H468 C476 0.929 . S
H469 C478 0.930 . S
H470 C480 0.930 . S
H471 C483 0.929 . S
H472 C486 0.930 . S
H473 C488 0.960 . S
H474 C488 0.960 . S
H475 C488 0.960 . S
C476 H468 0.929 . S
C476 C477 1.377 . S
C476 C478 1.384 . S
C477 C476 1.377 . S
C477 C483 1.390 . S
C478 H469 0.930 . S
C478 C476 1.384 . S
C478 C479 1.372 . S
C479 C478 1.372 . S
C479 C480 1.400 . S
C479 C484 1.490 . S
C480 H470 0.930 . S
C480 C479 1.400 . S
C480 C483 1.386 . S
H481 C497 0.930 . S
H482 C498 0.931 . S
C483 H471 0.929 . S
C483 C477 1.390 . S
C483 C480 1.386 . S
C484 C479 1.490 . S
C484 C486 1.395 . S
C484 C487 1.403 . S
H485 C491 0.930 . S
C486 H472 0.930 . S
C486 C484 1.395 . S
C486 C489 1.403 . S
C487 C484 1.403 . S
C487 C488 1.524 . S
C487 C491 1.400 . S
C488 H473 0.960 . S
C488 H474 0.960 . S
C488 H475 0.960 . S
C488 C487 1.524 . S
C489 C486 1.403 . S
C489 C490 1.392 . S
C489 C493 1.495 . S
C490 C489 1.392 . S
C490 C491 1.385 . S
C490 C492 1.478 . S
C491 H485 0.930 . S
C491 C487 1.400 . S
C491 C490 1.385 . S
C492 C490 1.478 . S
C492 C494 1.381 . S
C492 C498 1.383 . S
C493 C489 1.495 . S
C493 H499 0.959 . S
C493 H500 0.961 . S
C493 H501 0.960 . S
C494 C492 1.381 . S
C494 C495 1.394 . S
C494 H502 0.930 . S
C495 C494 1.394 . S
C495 C496 1.383 . S
C495 H503 0.929 . S
C496 C495 1.383 . S
C496 C497 1.377 . S
C497 H481 0.930 . S
C497 C496 1.377 . S
C497 C498 1.379 . S
C498 H482 0.931 . S
C498 C492 1.383 . S
C498 C497 1.379 . S
H499 C493 0.959 . S
H500 C493 0.961 . S
H501 C493 0.960 . S
H502 C494 0.930 . S
H503 C495 0.929 . S
H504 C512 0.929 . S
H505 C514 0.930 . S
H506 C516 0.930 . S
H507 C519 0.929 . S
H508 C522 0.930 . S
H509 C524 0.960 . S
H510 C524 0.960 . S
H511 C524 0.960 . S
C512 H504 0.929 . S
C512 C513 1.377 1_455 S
C512 C514 1.384 . S
C513 C512 1.377 1_655 S
C513 C519 1.390 . S
C514 H505 0.930 . S
C514 C512 1.384 . S
C514 C515 1.355 1_455 S
C515 C514 1.355 1_655 S
C515 C516 1.417 . S
C515 C520 1.490 . S
C516 H506 0.930 . S
C516 C515 1.417 . S
C516 C519 1.386 . S
H517 C533 0.930 . S
H518 C534 0.931 . S
C519 H507 0.929 . S
C519 C513 1.390 . S
C519 C516 1.386 . S
C520 C515 1.490 . S
C520 C522 1.376 1_655 S
C520 C523 1.420 . S
H521 C527 0.930 . S
C522 H508 0.930 . S
C522 C520 1.376 1_455 S
C522 C525 1.403 . S
C523 C520 1.420 . S
C523 C524 1.524 . S
C523 C527 1.400 . S
C524 H509 0.960 . S
C524 H510 0.960 . S
C524 H511 0.960 . S
C524 C523 1.524 . S
C525 C522 1.403 . S
C525 C526 1.388 . S
C525 C529 1.495 . S
C526 C525 1.388 . S
C526 C527 1.389 1_455 S
C526 C528 1.477 1_455 S
C527 H521 0.930 . S
C527 C523 1.400 . S
C527 C526 1.389 1_655 S
C528 C526 1.477 1_655 S
C528 C530 1.339 1_655 S
C528 C534 1.429 . S
C529 C525 1.495 . S
C529 H535 0.959 . S
C529 H536 0.961 . S
C529 H537 0.960 . S
C530 C528 1.339 1_455 S
C530 C531 1.394 . S
C530 H538 0.930 . S
C531 C530 1.394 . S
C531 C532 1.383 1_455 S
C531 H539 0.929 . S
C532 C531 1.383 1_655 S
C532 C533 1.377 . S
C533 H517 0.930 . S
C533 C532 1.377 . S
C533 C534 1.379 . S
C534 H518 0.931 . S
C534 C528 1.429 . S
C534 C533 1.379 . S
H535 C529 0.959 . S
H536 C529 0.961 . S
H537 C529 0.960 . S
H538 C530 0.930 . S
H539 C531 0.929 . S
H540 C548 0.929 . S
H541 C550 0.930 . S
H542 C552 0.930 . S
H543 C555 0.929 . S
H544 C558 0.930 . S
H545 C560 0.960 . S
H546 C560 0.960 . S
H547 C560 0.960 . S
C548 H540 0.929 . S
C548 C549 1.377 . S
C548 C550 1.384 1_554 S
C549 C548 1.377 . S
C549 C555 1.390 . S
C550 H541 0.930 . S
C550 C548 1.384 1_556 S
C550 C551 1.372 . S
C551 C550 1.372 . S
C551 C552 1.400 . S
C551 C556 1.490 . S
C552 H542 0.930 . S
C552 C551 1.400 . S
C552 C555 1.386 1_556 S
H553 C569 0.930 . S
H554 C570 0.931 . S
C555 H543 0.929 . S
C555 C549 1.390 . S
C555 C552 1.386 1_554 S
C556 C551 1.490 . S
C556 C558 1.395 . S
C556 C559 1.403 . S
H557 C563 0.930 . S
C558 H544 0.930 . S
C558 C556 1.395 . S
C558 C561 1.403 . S
C559 C556 1.403 . S
C559 C560 1.524 . S
C559 C563 1.400 . S
C560 H545 0.960 . S
C560 H546 0.960 . S
C560 H547 0.960 . S
C560 C559 1.524 . S
C561 C558 1.403 . S
C561 C562 1.392 . S
C561 C565 1.495 . S
C562 C561 1.392 . S
C562 C563 1.385 . S
C562 C564 1.478 . S
C563 H557 0.930 . S
C563 C559 1.400 . S
C563 C562 1.385 . S
C564 C562 1.478 . S
C564 C566 1.381 . S
C564 C570 1.383 . S
C565 C561 1.495 . S
C565 H571 0.959 . S
C565 H572 0.961 . S
C565 H573 0.960 . S
C566 C564 1.381 . S
C566 C567 1.418 . S
C566 H574 0.930 . S
C567 C566 1.418 . S
C567 C568 1.411 . S
C567 H575 0.879 1_565 S
C568 C567 1.411 . S
C568 C569 1.377 . S
C569 H553 0.930 . S
C569 C568 1.377 . S
C569 C570 1.379 . S
C570 H554 0.931 . S
C570 C564 1.383 . S
C570 C569 1.379 . S
H571 C565 0.959 . S
H572 C565 0.961 . S
H573 C565 0.960 . S
H574 C566 0.930 . S
H575 C567 0.879 1_545 S
H576 C584 0.929 . S
H577 C586 0.930 . S
H578 C588 0.930 . S
H579 C591 0.929 1_556 S
H580 C594 0.930 . S
H581 C596 0.960 . S
H582 C596 0.960 . S
H583 C596 0.960 . S
C584 H576 0.929 . S
C584 C585 1.377 . S
C584 C586 1.384 . S
C585 C584 1.377 . S
C585 C591 1.390 . S
C586 H577 0.930 . S
C586 C584 1.384 . S
C586 C587 1.372 1_554 S
C587 C586 1.372 1_556 S
C587 C588 1.400 . S
C587 C592 1.490 . S
C588 H578 0.930 . S
C588 C587 1.400 . S
C588 C591 1.386 1_556 S
H589 C605 0.930 . S
H590 C606 0.931 . S
C591 H579 0.929 1_554 S
C591 C585 1.390 . S
C591 C588 1.386 1_554 S
C592 C587 1.490 . S
C592 C594 1.395 . S
C592 C595 1.403 . S
H593 C599 0.930 . S
C594 H580 0.930 . S
C594 C592 1.395 . S
C594 C597 1.403 . S
C595 C592 1.403 . S
C595 C596 1.524 . S
C595 C599 1.400 . S
C596 H581 0.960 . S
C596 H582 0.960 . S
C596 H583 0.960 . S
C596 C595 1.524 . S
C597 C594 1.403 . S
C597 C598 1.392 . S
C597 C601 1.495 . S
C598 C597 1.392 . S
C598 C599 1.385 . S
C598 C600 1.478 . S
C599 H593 0.930 . S
C599 C595 1.400 . S
C599 C598 1.385 . S
C600 C598 1.478 . S
C600 C602 1.381 . S
C600 C606 1.383 . S
C601 C597 1.495 . S
C601 H607 0.959 . S
C601 H608 0.961 . S
C601 H609 0.960 . S
C602 C600 1.381 . S
C602 C603 1.394 . S
C602 H610 0.930 . S
C603 C602 1.394 . S
C603 C604 1.383 . S
C603 H611 0.929 . S
C604 C603 1.383 . S
C604 C605 1.377 . S
C605 H589 0.930 . S
C605 C604 1.377 . S
C605 C606 1.379 . S
C606 H590 0.931 . S
C606 C600 1.383 . S
C606 C605 1.379 . S
H607 C601 0.959 . S
H608 C601 0.961 . S
H609 C601 0.960 . S
H610 C602 0.930 . S
H611 C603 0.929 . S
H612 C620 0.929 . S
H613 C622 0.930 . S
H614 C624 0.930 . S
H615 C627 0.929 . S
H616 C630 0.930 . S
H617 C632 0.960 . S
H618 C632 0.960 . S
H619 C632 0.960 1_554 S
C620 H612 0.929 . S
C620 C621 1.377 1_556 S
C620 C622 1.384 . S
C621 C620 1.377 1_554 S
C621 C627 1.390 . S
C622 H613 0.930 . S
C622 C620 1.384 . S
C622 C623 1.372 . S
C623 C622 1.372 . S
C623 C624 1.400 1_556 S
C623 C628 1.490 . S
C624 H614 0.930 . S
C624 C623 1.400 1_554 S
C624 C627 1.386 . S
H625 C641 0.930 . S
H626 C642 0.931 . S
C627 H615 0.929 . S
C627 C621 1.390 . S
C627 C624 1.386 . S
C628 C623 1.490 . S
C628 C630 1.395 . S
C628 C631 1.403 . S
H629 C635 0.930 . S
C630 H616 0.930 . S
C630 C628 1.395 . S
C630 C633 1.403 . S
C631 C628 1.403 . S
C631 C632 1.524 . S
C631 C635 1.400 . S
C632 H617 0.960 . S
C632 H618 0.960 . S
C632 H619 0.960 1_556 S
C632 C631 1.524 . S
C633 C630 1.403 . S
C633 C634 1.392 . S
C633 C637 1.495 . S
C634 C633 1.392 . S
C634 C635 1.385 . S
C634 C636 1.478 . S
C635 H629 0.930 . S
C635 C631 1.400 . S
C635 C634 1.385 . S
C636 C634 1.478 . S
C636 C638 1.381 . S
C636 C642 1.383 . S
C637 C633 1.495 . S
C637 H643 0.959 . S
C637 H644 0.961 . S
C637 H645 0.960 . S
C638 C636 1.381 . S
C638 C639 1.394 . S
C638 H646 0.930 . S
C639 C638 1.394 . S
C639 C640 1.383 . S
C639 H647 0.929 . S
C640 C639 1.383 . S
C640 C641 1.377 . S
C641 H625 0.930 . S
C641 C640 1.377 . S
C641 C642 1.379 . S
C642 H626 0.931 . S
C642 C636 1.383 . S
C642 C641 1.379 . S
H643 C637 0.959 . S
H644 C637 0.961 . S
H645 C637 0.960 . S
H646 C638 0.930 . S
H647 C639 0.929 . S
H648 C656 0.929 . S
H649 C658 0.930 . S
H650 C660 0.930 . S
H651 C663 0.929 1_556 S
H652 C666 0.930 . S
H653 C668 0.960 . S
H654 C668 0.960 . S
H655 C668 0.960 . S
C656 H648 0.929 . S
C656 C657 1.370 1_655 S
C656 C658 1.384 . S
C657 C656 1.370 1_455 S
C657 C663 1.397 . S
C658 H649 0.930 . S
C658 C656 1.384 . S
C658 C659 1.372 1_654 S
C659 C658 1.372 1_456 S
C659 C660 1.400 . S
C659 C664 1.493 . S
C660 H650 0.930 . S
C660 C659 1.400 . S
C660 C663 1.386 1_556 S
H661 C677 0.930 . S
H662 C678 0.931 . S
C663 H651 0.929 1_554 S
C663 C657 1.397 . S
C663 C660 1.386 1_554 S
C664 C659 1.493 . S
C664 C666 1.348 1_455 S
C664 C667 1.447 . S
H665 C671 0.930 . S
C666 H652 0.930 . S
C666 C664 1.348 1_655 S
C666 C669 1.403 . S
C667 C664 1.447 . S
C667 C668 1.524 . S
C667 C671 1.400 . S
C668 H653 0.960 . S
C668 H654 0.960 . S
C668 H655 0.960 . S
C668 C667 1.524 . S
C669 C666 1.403 . S
C669 C670 1.443 . S
C669 C673 1.495 . S
C670 C669 1.443 . S
C670 C671 1.331 1_655 S
C670 C672 1.478 . S
C671 H665 0.930 . S
C671 C667 1.400 . S
C671 C670 1.331 1_455 S
C672 C670 1.478 . S
C672 C674 1.390 . S
C672 C678 1.373 1_655 S
C673 C669 1.495 . S
C673 H679 0.959 . S
C673 H680 0.961 . S
C673 H681 0.960 . S
C674 C672 1.390 . S
C674 C675 1.394 . S
C674 H682 0.930 . S
C675 C674 1.394 . S
C675 C676 1.383 1_655 S
C675 H683 0.929 . S
C676 C675 1.383 1_455 S
C676 C677 1.377 . S
C677 H661 0.930 . S
C677 C676 1.377 . S
C677 C678 1.379 . S
C678 H662 0.931 . S
C678 C672 1.373 1_455 S
C678 C677 1.379 . S
H679 C673 0.959 . S
H680 C673 0.961 . S
H681 C673 0.960 . S
H682 C674 0.930 . S
H683 C675 0.929 . S
H684 C692 0.929 . S
H685 C694 0.930 . S
H686 C696 0.930 1_455 S
H687 C699 0.929 . S
H688 C702 0.930 . S
H689 C704 0.960 . S
H690 C704 0.960 . S
H691 C704 0.960 . S
C692 H684 0.929 . S
C692 C693 1.377 1_655 S
C692 C694 1.384 . S
C693 C692 1.377 1_455 S
C693 C699 1.390 . S
C694 H685 0.930 . S
C694 C692 1.384 . S
C694 C695 1.372 . S
C695 C694 1.372 . S
C695 C696 1.399 . S
C695 C700 1.490 . S
C696 H686 0.930 1_655 S
C696 C695 1.399 . S
C696 C699 1.386 1_655 S
H697 C713 0.930 . S
H698 C714 0.943 . S
C699 H687 0.929 . S
C699 C693 1.390 . S
C699 C696 1.386 1_455 S
C700 C695 1.490 . S
C700 C702 1.395 1_655 S
C700 C703 1.403 . S
H701 C707 0.930 . S
C702 H688 0.930 . S
C702 C700 1.395 1_455 S
C702 C705 1.403 . S
C703 C700 1.403 . S
C703 C704 1.524 . S
C703 C707 1.400 . S
C704 H689 0.960 . S
C704 H690 0.960 . S
C704 H691 0.960 . S
C704 C703 1.524 . S
C705 C702 1.403 . S
C705 C706 1.392 1_455 S
C705 C709 1.495 . S
C706 C705 1.392 1_655 S
C706 C707 1.385 . S
C706 C708 1.478 . S
C707 H701 0.930 . S
C707 C703 1.400 . S
C707 C706 1.385 . S
C708 C706 1.478 . S
C708 C710 1.381 . S
C708 C714 1.383 . S
C709 C705 1.495 . S
C709 H715 0.959 . S
C709 H716 0.961 . S
C709 H717 0.960 . S
C710 C708 1.381 . S
C710 C711 1.394 . S
C710 H718 0.930 . S
C711 C710 1.394 . S
C711 C712 1.383 . S
C711 H719 0.929 . S
C712 C711 1.383 . S
C712 C713 1.377 . S
C713 H697 0.930 . S
C713 C712 1.377 . S
C713 C714 1.379 . S
C714 H698 0.943 . S
C714 C708 1.383 . S
C714 C713 1.379 . S
H715 C709 0.959 . S
H716 C709 0.961 . S
H717 C709 0.960 . S
H718 C710 0.930 . S
H719 C711 0.929 . S
H720 C728 0.929 . S
H721 C730 0.930 . S
H722 C732 0.930 . S
H723 C735 0.929 . S
H724 C738 0.930 . S
H725 C740 0.960 . S
H726 C740 0.960 . S
H727 C740 0.960 . S
C728 H720 0.929 . S
C728 C729 1.377 . S
C728 C730 1.384 . S
C729 C728 1.377 . S
C729 C735 1.390 . S
C730 H721 0.930 . S
C730 C728 1.384 . S
C730 C731 1.372 . S
C731 C730 1.372 . S
C731 C732 1.400 . S
C731 C736 1.490 . S
C732 H722 0.930 . S
C732 C731 1.400 . S
C732 C735 1.386 . S
H733 C749 0.930 . S
H734 C750 0.931 . S
C735 H723 0.929 . S
C735 C729 1.390 . S
C735 C732 1.386 . S
C736 C731 1.490 . S
C736 C738 1.395 . S
C736 C739 1.403 . S
H737 C743 0.930 . S
C738 H724 0.930 . S
C738 C736 1.395 . S
C738 C741 1.403 . S
C739 C736 1.403 . S
C739 C740 1.524 . S
C739 C743 1.400 . S
C740 H725 0.960 . S
C740 H726 0.960 . S
C740 H727 0.960 . S
C740 C739 1.524 . S
C741 C738 1.403 . S
C741 C742 1.392 . S
C741 C745 1.495 . S
C742 C741 1.392 . S
C742 C743 1.385 . S
C742 C744 1.478 . S
C743 H737 0.930 . S
C743 C739 1.400 . S
C743 C742 1.385 . S
C744 C742 1.478 . S
C744 C746 1.381 . S
C744 C750 1.383 . S
C745 C741 1.495 . S
C745 H751 0.959 . S
C745 H752 0.961 . S
C745 H753 0.960 . S
C746 C744 1.381 . S
C746 C747 1.394 . S
C746 H754 0.930 . S
C747 C746 1.394 . S
C747 C748 1.383 . S
C747 H755 0.929 1_545 S
C748 C747 1.383 . S
C748 C749 1.377 . S
C749 H733 0.930 . S
C749 C748 1.377 . S
C749 C750 1.379 . S
C750 H734 0.931 . S
C750 C744 1.383 . S
C750 C749 1.379 . S
H751 C745 0.959 . S
H752 C745 0.961 . S
H753 C745 0.960 . S
H754 C746 0.930 . S
H755 C747 0.929 1_565 S
H756 C764 0.929 . S
H757 C766 0.930 . S
H758 C768 0.930 . S
H759 C771 0.929 . S
H760 C774 0.930 . S
H761 C776 0.960 . S
H762 C776 0.960 . S
H763 C776 0.960 . S
C764 H756 0.929 . S
C764 C765 1.377 . S
C764 C766 1.384 . S
C765 C764 1.377 . S
C765 C771 1.390 . S
C766 H757 0.930 . S
C766 C764 1.384 . S
C766 C767 1.372 . S
C767 C766 1.372 . S
C767 C768 1.400 . S
C767 C772 1.490 . S
C768 H758 0.930 . S
C768 C767 1.400 . S
C768 C771 1.386 . S
H769 C785 0.930 . S
H770 C786 0.931 . S
C771 H759 0.929 . S
C771 C765 1.390 . S
C771 C768 1.386 . S
C772 C767 1.490 . S
C772 C774 1.395 . S
C772 C775 1.403 . S
H773 C779 0.930 . S
C774 H760 0.930 . S
C774 C772 1.395 . S
C774 C777 1.403 . S
C775 C772 1.403 . S
C775 C776 1.524 . S
C775 C779 1.400 . S
C776 H761 0.960 . S
C776 H762 0.960 . S
C776 H763 0.960 . S
C776 C775 1.524 . S
C777 C774 1.403 . S
C777 C778 1.392 . S
C777 C781 1.495 . S
C778 C777 1.392 . S
C778 C779 1.385 . S
C778 C780 1.478 . S
C779 H773 0.930 . S
C779 C775 1.400 . S
C779 C778 1.385 . S
C780 C778 1.478 . S
C780 C782 1.381 . S
C780 C786 1.383 . S
C781 C777 1.495 . S
C781 H787 0.959 . S
C781 H788 0.961 . S
C781 H789 0.960 . S
C782 C780 1.381 . S
C782 C783 1.394 . S
C782 H790 0.930 . S
C783 C782 1.394 . S
C783 C784 1.383 . S
C783 H791 0.929 . S
C784 C783 1.383 . S
C784 C785 1.377 . S
C785 H769 0.930 . S
C785 C784 1.377 . S
C785 C786 1.379 . S
C786 H770 0.931 . S
C786 C780 1.383 . S
C786 C785 1.379 . S
H787 C781 0.959 . S
H788 C781 0.961 . S
H789 C781 0.960 . S
H790 C782 0.930 . S
H791 C783 0.929 . S
H792 C800 0.929 . S
H793 C802 0.930 . S
H794 C804 0.930 . S
H795 C807 0.929 . S
H796 C810 0.930 . S
H797 C812 0.960 . S
H798 C812 0.960 . S
H799 C812 0.960 . S
C800 H792 0.929 . S
C800 C801 1.377 . S
C800 C802 1.384 . S
C801 C800 1.377 . S
C801 C807 1.390 . S
C802 H793 0.930 . S
C802 C800 1.384 . S
C802 C803 1.372 . S
C803 C802 1.372 . S
C803 C804 1.400 . S
C803 C808 1.490 . S
C804 H794 0.930 . S
C804 C803 1.400 . S
C804 C807 1.386 . S
H805 C821 0.930 . S
H806 C822 0.931 . S
C807 H795 0.929 . S
C807 C801 1.390 . S
C807 C804 1.386 . S
C808 C803 1.490 . S
C808 C810 1.395 . S
C808 C811 1.403 . S
H809 C815 0.930 . S
C810 H796 0.930 . S
C810 C808 1.395 . S
C810 C813 1.403 . S
C811 C808 1.403 . S
C811 C812 1.524 . S
C811 C815 1.400 . S
C812 H797 0.960 . S
C812 H798 0.960 . S
C812 H799 0.960 . S
C812 C811 1.524 . S
C813 C810 1.403 . S
C813 C814 1.392 . S
C813 C817 1.495 . S
C814 C813 1.392 . S
C814 C815 1.385 . S
C814 C816 1.478 . S
C815 H809 0.930 . S
C815 C811 1.400 . S
C815 C814 1.385 . S
C816 C814 1.478 . S
C816 C818 1.381 . S
C816 C822 1.383 . S
C817 C813 1.495 . S
C817 H823 0.959 . S
C817 H824 0.961 . S
C817 H825 0.960 . S
C818 C816 1.381 . S
C818 C819 1.394 . S
C818 H826 0.930 . S
C819 C818 1.394 . S
C819 C820 1.383 . S
C819 H827 0.929 . S
C820 C819 1.383 . S
C820 C821 1.377 . S
C821 H805 0.930 . S
C821 C820 1.377 . S
C821 C822 1.379 . S
C822 H806 0.931 . S
C822 C816 1.383 . S
C822 C821 1.379 . S
H823 C817 0.959 . S
H824 C817 0.961 . S
H825 C817 0.960 . S
H826 C818 0.930 . S
H827 C819 0.929 . S
H828 C836 0.929 . S
H829 C838 0.930 . S
H830 C840 0.930 . S
H831 C843 0.929 1_554 S
H832 C846 0.930 . S
H833 C848 0.960 . S
H834 C848 0.960 . S
H835 C848 0.960 . S
C836 H828 0.929 . S
C836 C837 1.405 . S
C836 C838 1.384 . S
C837 C836 1.405 . S
C837 C843 1.358 1_655 S
C838 H829 0.930 . S
C838 C836 1.384 . S
C838 C839 1.372 1_655 S
C839 C838 1.372 1_455 S
C839 C840 1.400 . S
C839 C844 1.490 . S
C840 H830 0.930 . S
C840 C839 1.400 . S
C840 C843 1.386 . S
H841 C857 0.930 . S
H842 C858 0.931 . S
C843 H831 0.929 1_556 S
C843 C837 1.358 1_455 S
C843 C840 1.386 . S
C844 C839 1.490 . S
C844 C846 1.395 1_455 S
C844 C847 1.403 . S
H845 C851 0.930 . S
C846 H832 0.930 . S
C846 C844 1.395 1_655 S
C846 C849 1.403 . S
C847 C844 1.403 . S
C847 C848 1.524 . S
C847 C851 1.400 . S
C848 H833 0.960 . S
C848 H834 0.960 . S
C848 H835 0.960 . S
C848 C847 1.524 . S
C849 C846 1.403 . S
C849 C850 1.392 1_655 S
C849 C853 1.495 . S
C850 C849 1.392 1_455 S
C850 C851 1.385 . S
C850 C852 1.478 . S
C851 H845 0.930 . S
C851 C847 1.400 . S
C851 C850 1.385 . S
C852 C850 1.478 . S
C852 C854 1.381 1_455 S
C852 C858 1.383 . S
C853 C849 1.495 . S
C853 H859 0.959 . S
C853 H860 0.961 . S
C853 H861 0.960 . S
C854 C852 1.381 1_655 S
C854 C855 1.405 . S
C854 H862 0.930 . S
C855 C854 1.405 . S
C855 C856 1.352 1_655 S
C855 H863 0.953 . S
C856 C855 1.352 1_455 S
C856 C857 1.377 . S
C857 H841 0.930 . S
C857 C856 1.377 . S
C857 C858 1.379 . S
C858 H842 0.931 . S
C858 C852 1.383 . S
C858 C857 1.379 . S
H859 C853 0.959 . S
H860 C853 0.961 . S
H861 C853 0.960 . S
H862 C854 0.930 . S
H863 C855 0.953 . S
H864 C872 0.929 . S
H865 C874 0.930 . S
H866 C876 0.930 . S
H867 C879 0.929 . S
H868 C882 0.930 . S
H869 C884 0.960 . S
H870 C884 0.960 . S
H871 C884 0.960 . S
C872 H864 0.929 . S
C872 C873 1.377 . S
C872 C874 1.384 . S
C873 C872 1.377 . S
C873 C879 1.390 . S
C874 H865 0.930 . S
C874 C872 1.384 . S
C874 C875 1.372 . S
C875 C874 1.372 . S
C875 C876 1.400 . S
C875 C880 1.490 . S
C876 H866 0.930 . S
C876 C875 1.400 . S
C876 C879 1.386 . S
H877 C893 0.930 . S
H878 C894 0.931 . S
C879 H867 0.929 . S
C879 C873 1.390 . S
C879 C876 1.386 . S
C880 C875 1.490 . S
C880 C882 1.395 . S
C880 C883 1.403 . S
H881 C887 0.930 . S
C882 H868 0.930 . S
C882 C880 1.395 . S
C882 C885 1.403 . S
C883 C880 1.403 . S
C883 C884 1.524 . S
C883 C887 1.400 . S
C884 H869 0.960 . S
C884 H870 0.960 . S
C884 H871 0.960 . S
C884 C883 1.524 . S
C885 C882 1.403 . S
C885 C886 1.392 . S
C885 C889 1.495 . S
C886 C885 1.392 . S
C886 C887 1.385 . S
C886 C888 1.478 . S
C887 H881 0.930 . S
C887 C883 1.400 . S
C887 C886 1.385 . S
C888 C886 1.478 . S
C888 C890 1.381 . S
C888 C894 1.383 . S
C889 C885 1.495 . S
C889 H895 0.959 . S
C889 H896 0.961 . S
C889 H897 0.960 1_565 S
C890 C888 1.381 . S
C890 C891 1.394 1_565 S
C890 H898 0.930 1_565 S
C891 C890 1.394 1_545 S
C891 C892 1.383 . S
C891 H899 0.929 . S
C892 C891 1.383 . S
C892 C893 1.377 1_545 S
C893 H877 0.930 . S
C893 C892 1.377 1_565 S
C893 C894 1.379 . S
C894 H878 0.931 . S
C894 C888 1.383 . S
C894 C893 1.379 . S
H895 C889 0.959 . S
H896 C889 0.961 . S
H897 C889 0.960 1_545 S
H898 C890 0.930 1_545 S
H899 C891 0.929 . S
H900 C908 0.929 . S
H901 C910 0.930 . S
H902 C912 0.930 . S
H903 C915 0.929 . S
H904 C918 0.930 . S
H905 C920 0.960 . S
H906 C920 0.959 1_554 S
H907 C920 0.960 . S
C908 H900 0.929 . S
C908 C909 1.377 . S
C908 C910 1.384 . S
C909 C908 1.377 . S
C909 C915 1.390 . S
C910 H901 0.930 . S
C910 C908 1.384 . S
C910 C911 1.372 . S
C911 C910 1.372 . S
C911 C912 1.400 . S
C911 C916 1.490 . S
C912 H902 0.930 . S
C912 C911 1.400 . S
C912 C915 1.386 . S
H913 C929 0.930 . S
H914 C930 0.931 . S
C915 H903 0.929 . S
C915 C909 1.390 . S
C915 C912 1.386 . S
C916 C911 1.490 . S
C916 C918 1.395 . S
C916 C919 1.403 . S
H917 C923 0.930 . S
C918 H904 0.930 . S
C918 C916 1.395 . S
C918 C921 1.403 . S
C919 C916 1.403 . S
C919 C920 1.524 . S
C919 C923 1.400 . S
C920 H905 0.960 . S
C920 H906 0.959 1_556 S
C920 H907 0.960 . S
C920 C919 1.524 . S
C921 C918 1.403 . S
C921 C922 1.392 . S
C921 C925 1.495 . S
C922 C921 1.392 . S
C922 C923 1.385 . S
C922 C924 1.478 . S
C923 H917 0.930 . S
C923 C919 1.400 . S
C923 C922 1.385 . S
C924 C922 1.478 . S
C924 C926 1.381 . S
C924 C930 1.383 . S
C925 C921 1.495 . S
C925 H931 0.959 . S
C925 H932 0.961 . S
C925 H933 0.960 . S
C926 C924 1.381 . S
C926 C927 1.394 . S
C926 H934 0.930 . S
C927 C926 1.394 . S
C927 C928 1.383 . S
C927 H935 0.929 . S
C928 C927 1.383 . S
C928 C929 1.377 . S
C929 H913 0.930 . S
C929 C928 1.377 . S
C929 C930 1.379 . S
C930 H914 0.931 . S
C930 C924 1.383 . S
C930 C929 1.379 . S
H931 C925 0.959 . S
H932 C925 0.961 . S
H933 C925 0.960 . S
H934 C926 0.930 . S
H935 C927 0.929 . S
H936 C944 0.929 . S
H937 C946 0.930 . S
H938 C948 0.930 . S
H939 C951 0.929 . S
H940 C954 0.930 . S
H941 C956 0.960 . S
H942 C956 0.960 . S
H943 C956 0.960 . S
C944 H936 0.929 . S
C944 C945 1.377 . S
C944 C946 1.384 . S
C945 C944 1.377 . S
C945 C951 1.390 . S
C946 H937 0.930 . S
C946 C944 1.384 . S
C946 C947 1.372 . S
C947 C946 1.372 . S
C947 C948 1.400 . S
C947 C952 1.490 . S
C948 H938 0.930 . S
C948 C947 1.400 . S
C948 C951 1.386 . S
H949 C965 0.930 . S
H950 C966 0.931 . S
C951 H939 0.929 . S
C951 C945 1.390 . S
C951 C948 1.386 . S
C952 C947 1.490 . S
C952 C954 1.395 . S
C952 C955 1.403 . S
H953 C959 0.930 . S
C954 H940 0.930 . S
C954 C952 1.395 . S
C954 C957 1.403 . S
C955 C952 1.403 . S
C955 C956 1.524 . S
C955 C959 1.400 . S
C956 H941 0.960 . S
C956 H942 0.960 . S
C956 H943 0.960 . S
C956 C955 1.524 . S
C957 C954 1.403 . S
C957 C958 1.392 . S
C957 C961 1.495 . S
C958 C957 1.392 . S
C958 C959 1.385 . S
C958 C960 1.478 . S
C959 H953 0.930 . S
C959 C955 1.400 . S
C959 C958 1.385 . S
C960 C958 1.478 . S
C960 C962 1.381 . S
C960 C966 1.383 . S
C961 C957 1.495 . S
C961 H967 0.959 . S
C961 H968 0.961 . S
C961 H969 0.960 . S
C962 C960 1.381 . S
C962 C963 1.394 . S
C962 H970 0.930 . S
C963 C962 1.394 . S
C963 C964 1.383 . S
C963 H971 0.929 . S
C964 C963 1.383 . S
C964 C965 1.377 . S
C965 H949 0.930 . S
C965 C964 1.377 . S
C965 C966 1.379 . S
C966 H950 0.931 . S
C966 C960 1.383 . S
C966 C965 1.379 . S
H967 C961 0.959 . S
H968 C961 0.961 . S
H969 C961 0.960 . S
H970 C962 0.930 . S
H971 C963 0.929 . S
H972 C980 0.929 . S
H973 C982 0.930 . S
H974 C984 0.929 . S
H975 C987 0.929 1_556 S
H976 C990 0.930 1_554 S
H977 C992 0.960 . S
H978 C992 0.960 . S
H979 C992 0.960 . S
C980 H972 0.929 . S
C980 C981 1.377 . S
C980 C982 1.384 . S
C981 C980 1.377 . S
C981 C987 1.390 1_455 S
C982 H973 0.930 . S
C982 C980 1.384 . S
C982 C983 1.372 . S
C983 C982 1.372 . S
C983 C984 1.404 1_554 S
C983 C988 1.490 1_554 S
C984 H974 0.929 . S
C984 C983 1.404 1_556 S
C984 C987 1.386 1_456 S
H985 C1001 0.928 1_655 S
H986 C1002 0.935 . S
C987 H975 0.929 1_554 S
C987 C981 1.390 1_655 S
C987 C984 1.386 1_654 S
C988 C983 1.490 1_556 S
C988 C990 1.395 1_455 S
C988 C991 1.403 . S
H989 C995 0.930 . S
C990 H976 0.930 1_556 S
C990 C988 1.395 1_655 S
C990 C993 1.403 . S
C991 C988 1.403 . S
C991 C992 1.524 . S
C991 C995 1.400 . S
C992 H977 0.960 . S
C992 H978 0.960 . S
C992 H979 0.960 . S
C992 C991 1.524 . S
C993 C990 1.403 . S
C993 C994 1.392 1_655 S
C993 C997 1.495 . S
C994 C993 1.392 1_455 S
C994 C995 1.385 . S
C994 C996 1.478 . S
C995 H989 0.930 . S
C995 C991 1.400 . S
C995 C994 1.385 . S
C996 C994 1.478 . S
C996 C998 1.381 . S
C996 C1002 1.380 1_455 S
C997 C993 1.495 . S
C997 H1003 0.959 1_556 S
C997 H1004 0.961 . S
C997 H1005 0.960 . S
C998 C996 1.381 . S
C998 C999 1.394 . S
C998 H1006 0.930 . S
C999 C998 1.394 . S
C999 C1000 1.383 . S
C999 H1007 0.929 . S
C1000 C999 1.383 . S
C1000 C1001 1.377 . S
C1001 H985 0.928 1_455 S
C1001 C1000 1.377 . S
C1001 C1002 1.378 1_455 S
C1002 H986 0.935 . S
C1002 C996 1.380 1_655 S
C1002 C1001 1.378 1_655 S
H1003 C997 0.959 1_554 S
H1004 C997 0.961 . S
H1005 C997 0.960 . S
H1006 C998 0.930 . S
H1007 C999 0.929 . S
H1008 C1016 0.929 . S
H1009 C1018 0.930 . S
H1010 C1020 0.930 . S
H1011 C1023 0.929 . S
H1012 C1026 0.930 . S
H1013 C1028 0.960 . S
H1014 C1028 0.960 1_556 S
H1015 C1028 0.960 . S
C1016 H1008 0.929 . S
C1016 C1017 1.377 . S
C1016 C1018 1.384 1_554 S
C1017 C1016 1.377 . S
C1017 C1023 1.390 . S
C1018 H1009 0.930 . S
C1018 C1016 1.384 1_556 S
C1018 C1019 1.372 1_556 S
C1019 C1018 1.372 1_554 S
C1019 C1020 1.400 . S
C1019 C1024 1.490 1_554 S
C1020 H1010 0.930 . S
C1020 C1019 1.400 . S
C1020 C1023 1.386 . S
H1021 C1037 0.930 . S
H1022 C1038 0.931 . S
C1023 H1011 0.929 . S
C1023 C1017 1.390 . S
C1023 C1020 1.386 . S
C1024 C1019 1.490 1_556 S
C1024 C1026 1.395 . S
C1024 C1027 1.403 . S
H1025 C1031 0.930 . S
C1026 H1012 0.930 . S
C1026 C1024 1.395 . S
C1026 C1029 1.403 . S
C1027 C1024 1.403 . S
C1027 C1028 1.524 1_556 S
C1027 C1031 1.400 . S
C1028 H1013 0.960 . S
C1028 H1014 0.960 1_554 S
C1028 H1015 0.960 . S
C1028 C1027 1.524 1_554 S
C1029 C1026 1.403 . S
C1029 C1030 1.392 . S
C1029 C1033 1.495 . S
C1030 C1029 1.392 . S
C1030 C1031 1.385 . S
C1030 C1032 1.478 . S
C1031 H1025 0.930 . S
C1031 C1027 1.400 . S
C1031 C1030 1.385 . S
C1032 C1030 1.478 . S
C1032 C1034 1.381 . S
C1032 C1038 1.383 . S
C1033 C1029 1.495 . S
C1033 H1039 0.959 . S
C1033 H1040 0.961 . S
C1033 H1041 0.960 . S
C1034 C1032 1.381 . S
C1034 C1035 1.394 . S
C1034 H1042 0.930 . S
C1035 C1034 1.394 . S
C1035 C1036 1.383 . S
C1035 H1043 0.929 . S
C1036 C1035 1.383 . S
C1036 C1037 1.377 . S
C1037 H1021 0.930 . S
C1037 C1036 1.377 . S
C1037 C1038 1.379 . S
C1038 H1022 0.931 . S
C1038 C1032 1.383 . S
C1038 C1037 1.379 . S
H1039 C1033 0.959 . S
H1040 C1033 0.961 . S
H1041 C1033 0.960 . S
H1042 C1034 0.930 . S
H1043 C1035 0.929 . S
H1044 C1052 0.929 . S
H1045 C1054 0.930 . S
H1046 C1056 0.930 . S
H1047 C1059 0.929 1_556 S
H1048 C1062 0.930 1_554 S
H1049 C1064 0.960 . S
H1050 C1064 0.960 . S
H1051 C1064 0.960 . S
C1052 H1044 0.929 . S
C1052 C1053 1.377 . S
C1052 C1054 1.384 . S
C1053 C1052 1.377 . S
C1053 C1059 1.390 . S
C1054 H1045 0.930 . S
C1054 C1052 1.384 . S
C1054 C1055 1.372 . S
C1055 C1054 1.372 . S
C1055 C1056 1.400 1_554 S
C1055 C1060 1.490 1_554 S
C1056 H1046 0.930 . S
C1056 C1055 1.400 1_556 S
C1056 C1059 1.386 1_556 S
H1057 C1073 0.930 . S
H1058 C1074 0.931 . S
C1059 H1047 0.929 1_554 S
C1059 C1053 1.390 . S
C1059 C1056 1.386 1_554 S
C1060 C1055 1.490 1_556 S
C1060 C1062 1.395 . S
C1060 C1063 1.403 . S
H1061 C1067 0.930 . S
C1062 H1048 0.930 1_556 S
C1062 C1060 1.395 . S
C1062 C1065 1.403 . S
C1063 C1060 1.403 . S
C1063 C1064 1.524 . S
C1063 C1067 1.400 . S
C1064 H1049 0.960 . S
C1064 H1050 0.960 . S
C1064 H1051 0.960 . S
C1064 C1063 1.524 . S
C1065 C1062 1.403 . S
C1065 C1066 1.392 . S
C1065 C1069 1.495 . S
C1066 C1065 1.392 . S
C1066 C1067 1.385 . S
C1066 C1068 1.478 . S
C1067 H1061 0.930 . S
C1067 C1063 1.400 . S
C1067 C1066 1.385 . S
C1068 C1066 1.478 . S
C1068 C1070 1.381 . S
C1068 C1074 1.383 . S
C1069 C1065 1.495 . S
C1069 H1075 0.959 . S
C1069 H1076 0.961 . S
C1069 H1077 0.960 . S
C1070 C1068 1.381 . S
C1070 C1071 1.394 . S
C1070 H1078 0.930 . S
C1071 C1070 1.394 . S
C1071 C1072 1.383 . S
C1071 H1079 0.929 . S
C1072 C1071 1.383 . S
C1072 C1073 1.377 . S
C1073 H1057 0.930 . S
C1073 C1072 1.377 . S
C1073 C1074 1.379 . S
C1074 H1058 0.931 . S
C1074 C1068 1.383 . S
C1074 C1073 1.379 . S
H1075 C1069 0.959 . S
H1076 C1069 0.961 . S
H1077 C1069 0.960 . S
H1078 C1070 0.930 . S
H1079 C1071 0.929 . S
H1080 C1088 0.929 . S
H1081 C1090 0.930 . S
H1082 C1092 0.930 . S
H1083 C1095 0.929 . S
H1084 C1098 0.930 . S
H1085 C1100 0.960 . S
H1086 C1100 0.960 . S
H1087 C1100 0.960 . S
C1088 H1080 0.929 . S
C1088 C1089 1.377 . S
C1088 C1090 1.384 . S
C1089 C1088 1.377 . S
C1089 C1095 1.390 . S
C1090 H1081 0.930 . S
C1090 C1088 1.384 . S
C1090 C1091 1.372 . S
C1091 C1090 1.372 . S
C1091 C1092 1.400 . S
C1091 C1096 1.490 1_554 S
C1092 H1082 0.930 . S
C1092 C1091 1.400 . S
C1092 C1095 1.386 . S
H1093 C1109 0.930 . S
H1094 C1110 0.931 . S
C1095 H1083 0.929 . S
C1095 C1089 1.390 . S
C1095 C1092 1.386 . S
C1096 C1091 1.490 1_556 S
C1096 C1098 1.395 1_556 S
C1096 C1099 1.403 . S
H1097 C1103 0.930 . S
C1098 H1084 0.930 . S
C1098 C1096 1.395 1_554 S
C1098 C1101 1.403 1_554 S
C1099 C1096 1.403 . S
C1099 C1100 1.524 . S
C1099 C1103 1.400 . S
C1100 H1085 0.960 . S
C1100 H1086 0.960 . S
C1100 H1087 0.960 . S
C1100 C1099 1.524 . S
C1101 C1098 1.403 1_556 S
C1101 C1102 1.392 . S
C1101 C1105 1.495 1_556 S
C1102 C1101 1.392 . S
C1102 C1103 1.385 . S
C1102 C1104 1.478 . S
C1103 H1097 0.930 . S
C1103 C1099 1.400 . S
C1103 C1102 1.385 . S
C1104 C1102 1.478 . S
C1104 C1106 1.381 . S
C1104 C1110 1.383 . S
C1105 C1101 1.495 1_554 S
C1105 H1111 0.959 . S
C1105 H1112 0.961 . S
C1105 H1113 0.960 1_554 S
C1106 C1104 1.381 . S
C1106 C1107 1.394 . S
C1106 H1114 0.930 . S
C1107 C1106 1.394 . S
C1107 C1108 1.383 . S
C1107 H1115 0.929 . S
C1108 C1107 1.383 . S
C1108 C1109 1.377 . S
C1109 H1093 0.930 . S
C1109 C1108 1.377 . S
C1109 C1110 1.379 . S
C1110 H1094 0.931 . S
C1110 C1104 1.383 . S
C1110 C1109 1.379 . S
H1111 C1105 0.959 . S
H1112 C1105 0.961 . S
H1113 C1105 0.960 1_556 S
H1114 C1106 0.930 . S
H1115 C1107 0.929 . S
H1116 C1124 0.929 . S
H1117 C1126 0.930 . S
H1118 C1128 0.930 . S
H1119 C1131 0.929 . S
H1120 C1134 0.930 . S
H1121 C1136 0.960 . S
H1122 C1136 0.960 . S
H1123 C1136 0.960 . S
C1124 H1116 0.929 . S
C1124 C1125 1.350 1_455 S
C1124 C1126 1.384 . S
C1125 C1124 1.350 1_655 S
C1125 C1131 1.418 . S
C1126 H1117 0.930 . S
C1126 C1124 1.384 . S
C1126 C1127 1.372 1_455 S
C1127 C1126 1.372 1_655 S
C1127 C1128 1.400 . S
C1127 C1132 1.490 . S
C1128 H1118 0.930 . S
C1128 C1127 1.400 . S
C1128 C1131 1.386 . S
H1129 C1145 0.930 . S
H1130 C1146 0.931 . S
C1131 H1119 0.929 . S
C1131 C1125 1.418 . S
C1131 C1128 1.386 . S
C1132 C1127 1.490 . S
C1132 C1134 1.395 1_655 S
C1132 C1135 1.403 . S
H1133 C1139 0.930 . S
C1134 H1120 0.930 . S
C1134 C1132 1.395 1_455 S
C1134 C1137 1.403 . S
C1135 C1132 1.403 . S
C1135 C1136 1.524 . S
C1135 C1139 1.400 . S
C1136 H1121 0.960 . S
C1136 H1122 0.960 . S
C1136 H1123 0.960 . S
C1136 C1135 1.524 . S
C1137 C1134 1.403 . S
C1137 C1138 1.357 1_455 S
C1137 C1141 1.495 . S
C1138 C1137 1.357 1_655 S
C1138 C1139 1.422 . S
C1138 C1140 1.479 . S
C1139 H1133 0.930 . S
C1139 C1135 1.400 . S
C1139 C1138 1.422 . S
C1140 C1138 1.479 . S
C1140 C1142 1.381 1_655 S
C1140 C1146 1.383 . S
C1141 C1137 1.495 . S
C1141 H1147 0.959 . S
C1141 H1148 0.961 . S
C1141 H1149 0.960 . S
C1142 C1140 1.381 1_455 S
C1142 C1143 1.394 . S
C1142 H1150 0.930 . S
C1143 C1142 1.394 . S
C1143 C1144 1.383 1_455 S
C1143 H1151 0.929 . S
C1144 C1143 1.383 1_655 S
C1144 C1145 1.377 . S
C1145 H1129 0.930 . S
C1145 C1144 1.377 . S
C1145 C1146 1.379 . S
C1146 H1130 0.931 . S
C1146 C1140 1.383 . S
C1146 C1145 1.379 . S
H1147 C1141 0.959 . S
H1148 C1141 0.961 . S
H1149 C1141 0.960 . S
H1150 C1142 0.930 . S
H1151 C1143 0.929 . S
H1152 C1160 0.929 . S
H1153 C1162 0.930 . S
H1154 C1164 0.930 . S
H1155 C1167 0.929 . S
H1156 C1170 0.930 . S
H1157 C1172 0.960 . S
H1158 C1172 0.960 . S
H1159 C1172 0.960 . S
C1160 H1152 0.929 . S
C1160 C1161 1.377 . S
C1160 C1162 1.384 . S
C1161 C1160 1.377 . S
C1161 C1167 1.390 . S
C1162 H1153 0.930 . S
C1162 C1160 1.384 . S
C1162 C1163 1.372 . S
C1163 C1162 1.372 . S
C1163 C1164 1.400 . S
C1163 C1168 1.490 . S
C1164 H1154 0.930 . S
C1164 C1163 1.400 . S
C1164 C1167 1.386 . S
H1165 C1181 0.930 . S
H1166 C1182 0.931 . S
C1167 H1155 0.929 . S
C1167 C1161 1.390 . S
C1167 C1164 1.386 . S
C1168 C1163 1.490 . S
C1168 C1170 1.395 . S
C1168 C1171 1.403 . S
H1169 C1175 0.930 . S
C1170 H1156 0.930 . S
C1170 C1168 1.395 . S
C1170 C1173 1.403 . S
C1171 C1168 1.403 . S
C1171 C1172 1.524 . S
C1171 C1175 1.400 . S
C1172 H1157 0.960 . S
C1172 H1158 0.960 . S
C1172 H1159 0.960 . S
C1172 C1171 1.524 . S
C1173 C1170 1.403 . S
C1173 C1174 1.392 . S
C1173 C1177 1.495 . S
C1174 C1173 1.392 . S
C1174 C1175 1.385 . S
C1174 C1176 1.478 . S
C1175 H1169 0.930 . S
C1175 C1171 1.400 . S
C1175 C1174 1.385 . S
C1176 C1174 1.478 . S
C1176 C1178 1.381 . S
C1176 C1182 1.383 . S
C1177 C1173 1.495 . S
C1177 H1183 0.959 . S
C1177 H1184 0.961 . S
C1177 H1185 0.960 . S
C1178 C1176 1.381 . S
C1178 C1179 1.394 . S
C1178 H1186 0.930 . S
C1179 C1178 1.394 . S
C1179 C1180 1.383 . S
C1179 H1187 0.932 1_565 S
C1180 C1179 1.383 . S
C1180 C1181 1.377 . S
C1181 H1165 0.930 . S
C1181 C1180 1.377 . S
C1181 C1182 1.379 . S
C1182 H1166 0.931 . S
C1182 C1176 1.383 . S
C1182 C1181 1.379 . S
H1183 C1177 0.959 . S
H1184 C1177 0.961 . S
H1185 C1177 0.960 . S
H1186 C1178 0.930 . S
H1187 C1179 0.932 1_545 S
H1188 C1196 0.929 . S
H1189 C1198 0.930 . S
H1190 C1200 0.930 . S
H1191 C1203 0.929 . S
H1192 C1206 0.930 . S
H1193 C1208 0.960 . S
H1194 C1208 0.960 . S
H1195 C1208 0.960 . S
C1196 H1188 0.929 . S
C1196 C1197 1.377 . S
C1196 C1198 1.384 . S
C1197 C1196 1.377 . S
C1197 C1203 1.390 . S
C1198 H1189 0.930 . S
C1198 C1196 1.384 . S
C1198 C1199 1.372 . S
C1199 C1198 1.372 . S
C1199 C1200 1.400 . S
C1199 C1204 1.490 . S
C1200 H1190 0.930 . S
C1200 C1199 1.400 . S
C1200 C1203 1.386 . S
H1201 C1217 0.930 . S
H1202 C1218 0.931 . S
C1203 H1191 0.929 . S
C1203 C1197 1.390 . S
C1203 C1200 1.386 . S
C1204 C1199 1.490 . S
C1204 C1206 1.395 . S
C1204 C1207 1.403 . S
H1205 C1211 0.930 . S
C1206 H1192 0.930 . S
C1206 C1204 1.395 . S
C1206 C1209 1.403 . S
C1207 C1204 1.403 . S
C1207 C1208 1.524 . S
C1207 C1211 1.400 . S
C1208 H1193 0.960 . S
C1208 H1194 0.960 . S
C1208 H1195 0.960 . S
C1208 C1207 1.524 . S
C1209 C1206 1.403 . S
C1209 C1210 1.392 . S
C1209 C1213 1.495 . S
C1210 C1209 1.392 . S
C1210 C1211 1.385 . S
C1210 C1212 1.478 . S
C1211 H1205 0.930 . S
C1211 C1207 1.400 . S
C1211 C1210 1.385 . S
C1212 C1210 1.478 . S
C1212 C1214 1.381 . S
C1212 C1218 1.383 . S
C1213 C1209 1.495 . S
C1213 H1219 0.959 . S
C1213 H1220 0.961 . S
C1213 H1221 0.960 . S
C1214 C1212 1.381 . S
C1214 C1215 1.394 . S
C1214 H1222 0.930 . S
C1215 C1214 1.394 . S
C1215 C1216 1.383 . S
C1215 H1223 0.929 . S
C1216 C1215 1.383 . S
C1216 C1217 1.377 . S
C1217 H1201 0.930 . S
C1217 C1216 1.377 . S
C1217 C1218 1.379 . S
C1218 H1202 0.931 . S
C1218 C1212 1.383 . S
C1218 C1217 1.379 . S
H1219 C1213 0.959 . S
H1220 C1213 0.961 . S
H1221 C1213 0.960 . S
H1222 C1214 0.930 . S
H1223 C1215 0.929 . S
H1224 C1232 0.929 . S
H1225 C1234 0.930 . S
H1226 C1236 0.930 . S
H1227 C1239 0.929 . S
H1228 C1242 0.930 . S
H1229 C1244 0.960 . S
H1230 C1244 0.960 . S
H1231 C1244 0.960 . S
C1232 H1224 0.929 . S
C1232 C1233 1.377 . S
C1232 C1234 1.384 . S
C1233 C1232 1.377 . S
C1233 C1239 1.390 . S
C1234 H1225 0.930 . S
C1234 C1232 1.384 . S
C1234 C1235 1.372 . S
C1235 C1234 1.372 . S
C1235 C1236 1.400 . S
C1235 C1240 1.490 . S
C1236 H1226 0.930 . S
C1236 C1235 1.400 . S
C1236 C1239 1.386 . S
H1237 C1253 0.930 . S
H1238 C1254 0.931 . S
C1239 H1227 0.929 . S
C1239 C1233 1.390 . S
C1239 C1236 1.386 . S
C1240 C1235 1.490 . S
C1240 C1242 1.395 . S
C1240 C1243 1.403 . S
H1241 C1247 0.930 . S
C1242 H1228 0.930 . S
C1242 C1240 1.395 . S
C1242 C1245 1.403 . S
C1243 C1240 1.403 . S
C1243 C1244 1.524 . S
C1243 C1247 1.400 . S
C1244 H1229 0.960 . S
C1244 H1230 0.960 . S
C1244 H1231 0.960 . S
C1244 C1243 1.524 . S
C1245 C1242 1.403 . S
C1245 C1246 1.392 . S
C1245 C1249 1.495 . S
C1246 C1245 1.392 . S
C1246 C1247 1.385 . S
C1246 C1248 1.478 . S
C1247 H1241 0.930 . S
C1247 C1243 1.400 . S
C1247 C1246 1.385 . S
C1248 C1246 1.478 . S
C1248 C1250 1.381 . S
C1248 C1254 1.383 . S
C1249 C1245 1.495 . S
C1249 H1255 0.959 . S
C1249 H1256 0.961 . S
C1249 H1257 0.960 . S
C1250 C1248 1.381 . S
C1250 C1251 1.394 . S
C1250 H1258 0.930 . S
C1251 C1250 1.394 . S
C1251 C1252 1.383 . S
C1251 H1259 0.929 . S
C1252 C1251 1.383 . S
C1252 C1253 1.377 . S
C1253 H1237 0.930 . S
C1253 C1252 1.377 . S
C1253 C1254 1.379 . S
C1254 H1238 0.931 . S
C1254 C1248 1.383 . S
C1254 C1253 1.379 . S
H1255 C1249 0.959 . S
H1256 C1249 0.961 . S
H1257 C1249 0.960 . S
H1258 C1250 0.930 . S
H1259 C1251 0.929 . S
C405 C255 1.890 . S
C424 C327 1.815 . S
C460 C351 1.322 . S
C441 C294 1.464 . S
C496 C372 1.760 . S
C477 C177 1.873 . S
C532 C390 1.335 . S
C513 C216 1.492 . S
C568 C330 1.686 1_565 S
C549 C99 1.822 . S
C585 C138 1.386 . S
C604 C348 1.264 . S
C621 C21 1.804 . S
C640 C369 1.668 . S
C657 C60 1.409 1_455 S
C676 C393 1.293 . S
C712 C328 0.562 . S
C693 C196 0.385 1_455 S
C748 C346 0.525 . S
C729 C235 0.519 . S
C784 C367 0.436 . S
C765 C289 0.382 . S
C801 C157 0.506 . S
C820 C391 0.490 . S
C837 C40 0.308 . S
C856 C326 0.417 . S
C892 C350 0.362 . S
C873 C79 0.490 . S
C928 C371 0.265 . S
C909 C133 0.271 . S
C945 C1 0.487 . S
C964 C389 0.340 . S
C981 C211 1.831 . S
C1000 C329 1.816 . S
C1017 C250 2.096 . S
C1036 C347 2.126 . S
C1072 C368 1.765 . S
C1053 C274 1.802 . S
C1108 C392 2.153 . S
C1089 C172 2.128 . S
C1125 C55 1.689 1_655 S
C1144 C325 1.673 . S
C1180 C349 1.962 . S
C1161 C94 1.933 . S
C1216 C370 1.664 . S
C1197 C118 1.649 . S
C1233 C16 1.967 . S
C1252 C388 1.949 . S
