# Generated by pormake.
# Topology ftw, (4,12)-cn, num edge types: 1
# Building blocks:
#     Node 0, Type 0, BuildingBlock: NAWXER_clean_linker_0, # of connection points: 4
#     Node 1, Type 0, BuildingBlock: NAWXER_clean_linker_0, # of connection points: 4
#     Node 2, Type 0, BuildingBlock: NAWXER_clean_linker_0, # of connection points: 4
#     Node 3, Type 1, BuildingBlock: QEWDON_clean_sbu_0, # of connection points: 12
#     Edge 4, Type (0, 1), BuildingBlock: AJUNOK_clean_linker_0, # of connection points: 2
#     Edge 5, Type (0, 1), BuildingBlock: AJUNOK_clean_linker_0, # of connection points: 2
#     Edge 6, Type (0, 1), BuildingBlock: AJUNOK_clean_linker_0, # of connection points: 2
#     Edge 7, Type (0, 1), BuildingBlock: AJUNOK_clean_linker_0, # of connection points: 2
#     Edge 8, Type (0, 1), BuildingBlock: AJUNOK_clean_linker_0, # of connection points: 2
#     Edge 9, Type (0, 1), BuildingBlock: AJUNOK_clean_linker_0, # of connection points: 2
#     Edge 10, Type (0, 1), BuildingBlock: AJUNOK_clean_linker_0, # of connection points: 2
#     Edge 11, Type (0, 1), BuildingBlock: AJUNOK_clean_linker_0, # of connection points: 2
#     Edge 12, Type (0, 1), BuildingBlock: AJUNOK_clean_linker_0, # of connection points: 2
#     Edge 13, Type (0, 1), BuildingBlock: AJUNOK_clean_linker_0, # of connection points: 2
#     Edge 14, Type (0, 1), BuildingBlock: AJUNOK_clean_linker_0, # of connection points: 2
#     Edge 15, Type (0, 1), BuildingBlock: AJUNOK_clean_linker_0, # of connection points: 2
# Relax obj value: 0.057
# Max RMSD: 0.155
# Mean RMSD: 0.118
data_MOF--net-ftw--node1-QEWDON_clean_sbu_0--node2-NAWXER_clean_linker_0--edge1-AJUNOK_clean_linker_0
_symmetry_space_group_name_H-M    P1
_symmetry_Int_Tables_number       1
_symmetry_cell_setting            triclinic
loop_
_symmetry_equiv_pos_as_xyz
'x, y, z'
_cell_length_a     21.722262
_cell_length_b     23.917926
_cell_length_c     22.912429
_cell_angle_alpha  90.233772
_cell_angle_beta   90.618786
_cell_angle_gamma 89.923284
loop_
_atom_site_label
_atom_site_type_symbol
_atom_site_fract_x
_atom_site_fract_y
_atom_site_fract_z
_atom_type_partial_charge
C0 C 0.04696 0.64848 0.64467 0.0
C1 C -0.00117 0.65315 0.68508 0.0
C2 C 0.04473 0.60812 0.60009 0.0
C3 C -0.0058 0.57173 0.59478 0.0
C4 C 0.94747 0.61788 0.67847 0.0
C5 C 0.94533 0.57757 0.63404 0.0
C6 C -0.00396 0.52217 0.55539 0.0
C7 C 0.96854 0.65055 0.40514 0.0
C8 C 0.02652 0.67295 0.39117 0.0
C9 C 0.96378 0.60381 0.44139 0.0
C10 C 0.01675 0.57756 0.46355 0.0
C11 C 0.07954 0.64688 0.41453 0.0
C12 C 0.0747 0.59922 0.44963 0.0
C13 C 0.01102 0.52434 0.49572 0.0
C14 C 0.94508 0.2967 0.40351 0.0
C15 C 0.99068 0.29125 0.36057 0.0
C16 C 0.94937 0.33827 0.44675 0.0
C17 C -0.00033 0.37521 0.44847 0.0
C18 C 0.04188 0.32716 0.36346 0.0
C19 C 0.04599 0.36887 0.40651 0.0
C20 C 0.00077 0.42455 0.4885 0.0
C21 C 0.00504 0.28065 0.62131 0.0
C22 C 0.95756 0.28243 0.66275 0.0
C23 C 0.01251 0.32446 0.58127 0.0
C24 C 0.97237 0.37065 0.58175 0.0
C25 C 0.91612 0.32756 0.66124 0.0
C26 C 0.92359 0.37109 0.62151 0.0
C27 C 0.98542 0.42251 0.54848 0.0
H28 H 0.08793 0.67392 0.6494 0.0
H29 H 0.08427 0.60321 0.57224 0.0
H30 H 0.9096 0.62044 0.70874 0.0
H31 H 0.90615 0.54964 0.63147 0.0
H32 H 0.92671 0.66765 0.38634 0.0
H33 H 0.91866 0.58685 0.45045 0.0
H34 H 0.12495 0.6628 0.40495 0.0
H35 H 0.1162 0.57896 0.46553 0.0
H36 H 0.90471 0.27018 0.40234 0.0
H37 H 0.9119 0.343 0.47716 0.0
H38 H 0.07852 0.32347 0.332 0.0
H39 H 0.08514 0.39688 0.40648 0.0
H40 H 0.03719 0.24602 0.62068 0.0
H41 H 0.05124 0.3234 0.55192 0.0
H42 H 0.87928 0.33054 0.6926 0.0
H43 H 0.89223 0.40632 0.62325 0.0
N44 N 0.98374 0.47143 0.579 0.0
N45 N 0.0127 0.47561 0.46471 0.0
C46 C 0.6166 0.03431 0.71541 0.0
C47 C 0.66456 -0.00531 0.71589 0.0
C48 C 0.57171 0.03383 0.67078 0.0
C49 C 0.57352 0.99339 0.62594 0.0
C50 C 0.66588 0.95415 0.67127 0.0
C51 C 0.62118 0.95366 0.62687 0.0
C52 C 0.53004 -0.00531 0.57509 0.0
C53 C 0.39614 0.96573 0.72533 0.0
C54 C 0.35617 0.01135 0.73388 0.0
C55 C 0.43473 0.96399 0.6767 0.0
C56 C 0.43341 0.00755 0.63577 0.0
C57 C 0.357 0.0557 0.69379 0.0
C58 C 0.39466 0.0535 0.64498 0.0
C59 C 0.46589 0.00273 0.57977 0.0
C60 C 0.36864 0.9509 0.33744 0.0
C61 C 0.31698 0.98642 0.3381 0.0
C62 C 0.41453 0.95522 0.38091 0.0
C63 C 0.41023 -0.00416 0.42543 0.0
C64 C 0.31286 0.02692 0.38251 0.0
C65 C 0.35876 0.03151 0.42554 0.0
C66 C 0.45455 -0.0022 0.47568 0.0
C67 C 0.58129 0.0295 0.322 0.0
C68 C 0.62443 0.98652 0.31343 0.0
C69 C 0.54474 0.03007 0.37213 0.0
C70 C 0.55157 0.98808 0.41456 0.0
C71 C 0.63052 0.9444 0.35568 0.0
C72 C 0.59481 0.9454 0.40584 0.0
C73 C 0.51898 0.99105 0.47083 0.0
H74 H 0.61493 0.06681 0.74841 0.0
H75 H 0.53697 0.06632 0.67033 0.0
H76 H 0.70189 0.92278 0.67049 0.0
H77 H 0.62417 0.92225 0.5928 0.0
H78 H 0.39581 0.93044 0.75476 0.0
H79 H 0.46346 0.92758 0.66966 0.0
H80 H 0.32743 0.09178 0.69953 0.0
H81 H 0.39274 0.08736 0.61371 0.0
H82 H 0.37266 0.91872 0.3043 0.0
H83 H 0.4521 0.92548 0.38068 0.0
H84 H 0.27392 0.05523 0.38398 0.0
H85 H 0.35364 0.06282 0.45946 0.0
H86 H 0.57624 0.06264 0.29022 0.0
H87 H 0.5126 0.06414 0.37862 0.0
H88 H 0.66427 0.91138 0.35062 0.0
H89 H 0.60148 0.91308 0.43832 0.0
N90 N 0.55382 0.98917 0.52063 0.0
N91 N 0.43098 0.00392 0.5301 0.0
C92 C 0.28509 0.43041 0.0295 0.0
C93 C 0.28464 0.38413 0.067 0.0
C94 C 0.3383 0.46228 0.02347 0.0
C95 C 0.39204 0.44853 0.05479 0.0
C96 C 0.33766 0.37197 0.1004 0.0
C97 C 0.39057 0.40451 0.09508 0.0
C98 C 0.4483 0.48178 0.04557 0.0
C99 C 0.58052 0.32288 0.08168 0.0
C100 C 0.55176 0.28385 0.04441 0.0
C101 C 0.5649 0.37927 0.07905 0.0
C102 C 0.51988 0.39791 0.03947 0.0
C103 C 0.50591 0.30237 1.00517 0.0
C104 C 0.48991 0.3591 1.00282 0.0
C105 C 0.50698 0.45836 0.03618 0.0
C106 C 0.6799 0.6497 0.05702 0.0
C107 C 0.71679 0.6414 1.00772 0.0
C108 C 0.62457 0.6209 0.06268 0.0
C109 C 0.60529 0.58341 0.01907 0.0
C110 C 0.69724 0.60439 0.96373 0.0
C111 C 0.64213 0.57494 0.96979 0.0
C112 C 0.54924 0.54989 0.02671 0.0
C113 C 0.47227 0.72681 0.99926 0.0
C114 C 0.42817 0.74303 0.04075 0.0
C115 C 0.49637 0.67234 0.99945 0.0
C116 C 0.47802 0.63398 0.04221 0.0
C117 C 0.41398 0.70556 0.0858 0.0
C118 C 0.43876 0.65201 0.0866 0.0
C119 C 0.49088 0.57337 0.0376 0.0
H120 H 0.24476 0.44102 1.0036 0.0
H121 H 0.33796 0.49683 0.99303 0.0
H122 H 0.33918 0.33605 0.12898 0.0
H123 H 0.43054 0.39453 0.12169 0.0
H124 H 0.61743 0.31031 0.11098 0.0
H125 H 0.58872 0.40862 0.10748 0.0
H126 H 0.48378 0.27325 0.97533 0.0
H127 H 0.45541 0.37286 0.97153 0.0
H128 H 0.6938 0.67878 0.09106 0.0
H129 H 0.59736 0.62722 0.10151 0.0
H130 H 0.72492 0.59778 0.92527 0.0
H131 H 0.6281 0.54568 0.93598 0.0
H132 H 0.48584 0.75509 0.96498 0.0
H133 H 0.52621 0.65945 0.96433 0.0
H134 H 0.37999 0.71587 0.11837 0.0
H135 H 0.42418 0.6234 0.1203 0.0
N136 N 0.44274 0.53821 0.04584 0.0
N137 N 0.55513 0.49334 0.02687 0.0
Zn138 Zn 0.07729 0.10388 0.97236 0.0
Zn139 Zn 0.05422 0.10064 0.11209 0.0
O140 O 0.05384 0.05395 0.03882 0.0
H141 H 0.05468 0.01377 0.03486 0.0
C142 C 0.92427 0.13578 0.86345 0.0
O143 O 0.97018 0.11668 0.8954 0.0
Zn144 Zn 0.92763 0.89019 0.12304 0.0
Zn145 Zn 0.92559 0.93013 0.98954 0.0
O146 O 0.95765 0.95297 0.07261 0.0
H147 H 0.96564 0.99038 0.08672 0.0
Zn148 Zn 0.84278 0.09026 0.95951 0.0
O149 O 0.89891 0.09073 0.03193 0.0
Zn150 Zn 0.84405 0.0791 0.10154 0.0
H151 H 0.87707 0.09111 0.99497 0.0
Zn152 Zn 0.08819 0.88087 0.9698 0.0
O153 O 0.0412 0.87653 0.04664 0.0
H154 H 0.05841 0.87713 1.00796 0.0
Zn155 Zn 0.10143 0.89847 0.10992 0.0
C156 C 0.03637 0.78966 0.89505 0.0
O157 O 0.03185 0.76486 0.9459 0.0
O158 O 0.10635 0.18069 1.0011 0.0
O159 O 0.09342 0.17592 0.09706 0.0
O160 O 0.90662 0.84592 0.97953 0.0
O161 O 0.90394 0.82455 0.07341 0.0
O162 O 0.75341 0.10721 0.98343 0.0
O163 O 0.75607 0.10078 0.08031 0.0
C164 C 0.11917 0.01045 0.17059 0.0
O165 O 0.18202 0.87744 0.98476 0.0
O166 O 0.18852 0.88351 0.08156 0.0
O167 O 0.8591 0.97508 0.94119 0.0
C168 C 0.11126 0.20213 0.05192 0.0
O169 O 0.13118 0.06925 0.90753 0.0
C170 C 0.82414 0.9621 0.15383 0.0
O171 O 0.86946 0.12878 0.88111 0.0
C172 C 0.89779 0.81071 0.02003 0.0
O173 O 0.05676 0.83949 0.89367 0.0
C174 C 0.93226 0.13434 0.17328 0.0
O175 O 0.10613 0.06219 0.17327 0.0
O176 O 0.09357 0.98036 0.13124 0.0
C177 C 0.72689 0.11069 0.0327 0.0
O178 O 0.84791 0.91387 0.15991 0.0
O179 O 0.85326 -0.00163 0.12464 0.0
C180 C 0.03534 0.84174 0.20795 0.0
O181 O 0.87443 0.1276 0.16897 0.0
O182 O 0.96589 0.10987 0.13591 0.0
C183 C 0.2139 0.87741 0.03181 0.0
O184 O 0.08531 0.8525 0.18156 0.0
O185 O 0.983 0.85634 0.18705 0.0
C186 C 0.86486 0.97163 0.88603 0.0
O187 O 0.91461 0.94756 0.86552 0.0
C188 C 0.18018 0.04272 0.92062 0.0
O189 O 0.19413 0.03509 0.97595 0.0
C190 C 0.96275 0.19494 0.32378 0.0
C191 C 0.98323 0.2496 0.31194 0.0
C192 C 0.94962 0.15672 0.27854 0.0
C193 C 0.95743 0.17123 0.2197 0.0
H194 H 0.95545 0.18193 0.36839 0.0
H195 H 0.93157 0.11595 0.28961 0.0
S196 S 0.00648 0.30917 0.16423 0.0
N197 N 0.00856 0.3164 0.23596 0.0
N198 N 0.98512 0.24395 0.15155 0.0
C199 C 0.97905 0.22502 0.20701 0.0
C200 C 0.99181 0.26428 0.25296 0.0
C201 C 0.7071 0.03026 0.25302 0.0
C202 C 0.66585 0.98587 0.26242 0.0
C203 C 0.75614 0.0245 0.21375 0.0
C204 C 0.76522 0.97416 0.18306 0.0
H205 H 0.704 0.06805 0.27904 0.0
H206 H 0.78945 0.05792 0.21076 0.0
S207 S 0.66254 0.85031 0.18364 0.0
N208 N 0.6318 0.89372 0.23142 0.0
N209 N 0.72365 0.8827 0.15813 0.0
C210 C 0.72094 0.93169 0.18832 0.0
C211 C 0.67129 0.93759 0.2279 0.0
C212 C 0.07755 0.71922 0.30568 0.0
C213 C 0.03182 0.72043 0.34893 0.0
C214 C 0.0803 0.7603 0.26215 0.0
C215 C 0.03685 0.80391 0.25929 0.0
H216 H 0.11021 0.68503 0.30388 0.0
H217 H 0.11503 0.75623 0.22881 0.0
S218 S 0.91303 0.83117 0.36594 0.0
N219 N 0.94653 0.77344 0.38969 0.0
N220 N 0.95002 0.8488 0.30619 0.0
C221 C 0.99242 0.80707 0.30335 0.0
C222 C 0.99029 0.76586 0.34845 0.0
C223 C 0.20477 0.98079 0.31081 0.0
C224 C 0.26679 0.98175 0.29329 0.0
C225 C 0.15628 0.98477 0.26993 0.0
C226 C 0.16793 0.98912 0.20996 0.0
H227 H 0.19366 0.97925 0.35676 0.0
H228 H 0.10947 0.98749 0.28559 0.0
S229 S 0.32131 0.99372 0.14097 0.0
N230 N 0.3367 0.98673 0.21135 0.0
N231 N 0.24546 0.99399 0.13478 0.0
C232 C 0.22938 0.9877 0.19152 0.0
C233 C 0.27885 0.98387 0.2331 0.0
C234 C 0.9926 0.66956 0.79313 0.0
C235 C 0.00457 0.6907 0.73713 0.0
C236 C 0.00149 0.70234 0.84345 0.0
C237 C 0.02273 0.75788 0.84017 0.0
H238 H 0.97788 0.62664 0.79837 0.0
H239 H 0.99267 0.68339 0.88538 0.0
S240 S 0.05557 0.83487 0.7034 0.0
N241 N 0.03481 0.77189 0.68098 0.0
N242 N 0.05194 0.83359 0.77534 0.0
C243 C 0.03295 0.78022 0.7842 0.0
C244 C 0.02396 0.74663 0.73287 0.0
C245 C 0.25003 0.02914 0.77048 0.0
C246 C 0.31102 0.01241 0.78227 0.0
C247 C 0.20756 0.03644 0.81529 0.0
C248 C 0.22404 0.02706 0.87399 0.0
H249 H 0.23515 0.03778 0.72614 0.0
H250 H 0.16182 0.05104 0.8037 0.0
S251 S 0.37641 0.97717 0.92788 0.0
N252 N 0.38484 0.98303 0.85663 0.0
N253 N 0.30455 -0.00454 0.94108 0.0
C254 C 0.28393 0.00712 0.88625 0.0
C255 C 0.32748 3e-05 0.84037 0.0
C256 C 0.894 0.21765 0.72369 0.0
C257 C 0.95214 0.23958 0.70977 0.0
C258 C 0.88594 0.18291 0.77224 0.0
C259 C 0.93566 0.16845 0.80922 0.0
H260 H 0.85398 0.22834 0.69738 0.0
H261 H 0.83993 0.16815 0.78139 0.0
S262 S 0.09805 0.21337 0.79115 0.0
N263 N 0.06071 0.24328 0.73641 0.0
N264 N 0.04593 0.17739 0.827 0.0
C265 C -0.00543 0.18844 0.79464 0.0
C266 C 0.00271 0.22405 0.74516 0.0
C267 C 0.77654 0.99123 0.74356 0.0
C268 C 0.71483 -0.00395 0.76101 0.0
C269 C 0.8247 0.9865 0.78451 0.0
C270 C 0.81352 0.9862 0.84496 0.0
H271 H 0.78772 0.98999 0.69761 0.0
H272 H 0.87105 0.98135 0.76835 0.0
S273 S 0.66036 0.0013 0.91394 0.0
N274 N 0.64533 0.00322 0.84315 0.0
N275 N 0.73579 -0.00573 0.92027 0.0
C276 C 0.75226 0.99371 0.86324 0.0
C277 C 0.70302 -0.00137 0.8213 0.0
C278 C 0.20824 0.32671 1.01175 0.0
C279 C 0.23196 0.34485 0.06589 0.0
C280 C 0.16582 0.28304 1.00815 0.0
C281 C 0.14577 0.25522 0.05853 0.0
H282 H 0.2251 0.34423 0.97144 0.0
H283 H 0.15115 0.26926 0.96511 0.0
S284 S 0.18651 0.29317 0.2116 0.0
N285 N 0.22614 0.33726 0.17145 0.0
N286 N 0.14792 0.25339 0.16495 0.0
C287 C 0.16587 0.27557 0.11333 0.0
C288 C 0.20874 0.32066 0.11693 0.0
C289 C 0.36753 0.82193 0.08358 0.0
C290 C 0.38894 0.79387 0.03354 0.0
C291 C 0.31341 0.8537 0.08183 0.0
C292 C 0.27964 0.86019 0.02954 0.0
H293 H 0.3894 0.8149 0.12565 0.0
H294 H 0.29551 0.8693 0.12272 0.0
S295 S 0.32734 0.81126 0.88271 0.0
N296 N 0.37935 0.7849 0.92786 0.0
N297 N 0.28019 0.8479 0.92393 0.0
C298 C 0.30621 0.8403 0.97757 0.0
C299 C 0.36049 0.80652 0.97962 0.0
C300 C 0.59878 0.20697 0.9866 0.0
C301 C 0.5776 0.22657 0.04066 0.0
C302 C 0.64196 0.1636 0.98372 0.0
C303 C 0.66597 0.13885 0.03491 0.0
H304 H 0.58684 0.22882 0.94672 0.0
H305 H 0.66089 0.1535 0.94141 0.0
S306 S 0.60931 0.16301 0.18523 0.0
N307 N 0.57159 0.20903 0.14483 0.0
N308 N 0.65333 0.12764 0.13975 0.0
C309 C 0.63797 0.15236 0.08829 0.0
C310 C 0.59376 0.19642 0.09111 0.0
C311 C 0.78061 0.712 0.95639 0.0
C312 C 0.77428 0.67358 1.00214 0.0
C313 C 0.82652 0.75315 0.95863 0.0
C314 C 0.86705 0.757 1.00689 0.0
H315 H 0.74685 0.71323 0.92126 0.0
H316 H 0.82628 0.78512 0.92527 0.0
S317 S 0.87851 0.65691 0.12984 0.0
N318 N 0.81875 0.63505 0.0909 0.0
N319 N 0.90538 0.71201 0.09521 0.0
C320 C 0.8657 0.71438 0.04898 0.0
C321 C 0.81896 0.67281 0.04673 0.0
loop_
_geom_bond_atom_site_label_1
_geom_bond_atom_site_label_2
_geom_bond_distance
_geom_bond_site_symmetry_2
_ccdc_geom_bond_type
C0 C1 1.384 1_455 S
C0 C2 1.384 . S
C0 H28 0.931 . S
C1 C0 1.384 1_655 S
C1 C4 1.382 . S
C2 C0 1.384 . S
C2 C3 1.381 1_455 S
C2 H29 0.930 . S
C3 C2 1.381 1_655 S
C3 C5 1.381 . S
C3 C6 1.487 . S
C4 C1 1.382 . S
C4 C5 1.387 . S
C4 H30 0.930 . S
C5 C3 1.381 . S
C5 C4 1.387 . S
C5 H31 0.931 . S
C6 C3 1.487 . S
C6 C13 1.399 1_655 S
C6 N44 1.343 . S
C7 C8 1.384 1_655 S
C7 C9 1.384 . S
C7 H32 0.931 . S
C8 C7 1.384 1_455 S
C8 C11 1.382 . S
C9 C7 1.384 . S
C9 C10 1.381 1_655 S
C9 H33 0.930 . S
C10 C9 1.381 1_455 S
C10 C12 1.381 . S
C10 C13 1.487 . S
C11 C8 1.382 . S
C11 C12 1.387 . S
C11 H34 0.930 . S
C12 C10 1.381 . S
C12 C11 1.387 . S
C12 H35 0.931 . S
C13 C6 1.399 1_455 S
C13 C10 1.487 . S
C13 N45 1.343 . S
C14 C15 1.384 1_655 S
C14 C16 1.384 . S
C14 H36 0.931 . S
C15 C14 1.384 1_455 S
C15 C18 1.382 . S
C16 C14 1.384 . S
C16 C17 1.381 1_655 S
C16 H37 0.930 . S
C17 C16 1.381 1_455 S
C17 C19 1.381 . S
C17 C20 1.487 . S
C18 C15 1.382 . S
C18 C19 1.387 . S
C18 H38 0.930 . S
C19 C17 1.381 . S
C19 C18 1.387 . S
C19 H39 0.931 . S
C20 C17 1.487 . S
C20 C27 1.399 1_455 S
C20 N45 1.343 . S
C21 C22 1.384 1_455 S
C21 C23 1.384 . S
C21 H40 0.931 . S
C22 C21 1.384 1_655 S
C22 C25 1.382 . S
C23 C21 1.384 . S
C23 C24 1.381 1_455 S
C23 H41 0.930 . S
C24 C23 1.381 1_655 S
C24 C26 1.381 . S
C24 C27 1.487 . S
C25 C22 1.382 . S
C25 C26 1.387 . S
C25 H42 0.930 . S
C26 C24 1.381 . S
C26 C25 1.387 . S
C26 H43 0.931 . S
C27 C20 1.399 1_655 S
C27 C24 1.487 . S
C27 N44 1.343 . S
H28 C0 0.931 . S
H29 C2 0.930 . S
H30 C4 0.930 . S
H31 C5 0.931 . S
H32 C7 0.931 . S
H33 C9 0.930 . S
H34 C11 0.930 . S
H35 C12 0.931 . S
H36 C14 0.931 . S
H37 C16 0.930 . S
H38 C18 0.930 . S
H39 C19 0.931 . S
H40 C21 0.931 . S
H41 C23 0.930 . S
H42 C25 0.930 . S
H43 C26 0.931 . S
N44 C6 1.343 . S
N44 C27 1.343 . S
N45 C13 1.343 . S
N45 C20 1.343 . S
C46 C47 1.384 1_545 S
C46 C48 1.384 . S
C46 H74 0.931 . S
C47 C46 1.384 1_565 S
C47 C50 1.382 . S
C48 C46 1.384 . S
C48 C49 1.381 1_545 S
C48 H75 0.930 . S
C49 C48 1.381 1_565 S
C49 C51 1.381 . S
C49 C52 1.487 . S
C50 C47 1.382 . S
C50 C51 1.387 . S
C50 H76 0.930 . S
C51 C49 1.381 . S
C51 C50 1.387 . S
C51 H77 0.931 . S
C52 C49 1.487 . S
C52 C59 1.399 1_565 S
C52 N90 1.343 . S
C53 C54 1.384 1_565 S
C53 C55 1.384 . S
C53 H78 0.931 . S
C54 C53 1.384 1_545 S
C54 C57 1.382 . S
C55 C53 1.384 . S
C55 C56 1.381 1_565 S
C55 H79 0.930 . S
C56 C55 1.381 1_545 S
C56 C58 1.381 . S
C56 C59 1.487 . S
C57 C54 1.382 . S
C57 C58 1.387 . S
C57 H80 0.930 . S
C58 C56 1.381 . S
C58 C57 1.387 . S
C58 H81 0.931 . S
C59 C52 1.399 1_545 S
C59 C56 1.487 . S
C59 N91 1.343 . S
C60 C61 1.384 1_565 S
C60 C62 1.384 . S
C60 H82 0.931 . S
C61 C60 1.384 1_545 S
C61 C64 1.382 . S
C62 C60 1.384 . S
C62 C63 1.381 1_565 S
C62 H83 0.930 . S
C63 C62 1.381 1_545 S
C63 C65 1.381 . S
C63 C66 1.487 . S
C64 C61 1.382 . S
C64 C65 1.387 . S
C64 H84 0.930 . S
C65 C63 1.381 . S
C65 C64 1.387 . S
C65 H85 0.931 . S
C66 C63 1.487 . S
C66 C73 1.399 1_545 S
C66 N91 1.343 . S
C67 C68 1.384 1_545 S
C67 C69 1.384 . S
C67 H86 0.931 . S
C68 C67 1.384 1_565 S
C68 C71 1.382 . S
C69 C67 1.384 . S
C69 C70 1.381 1_545 S
C69 H87 0.930 . S
C70 C69 1.381 1_565 S
C70 C72 1.381 . S
C70 C73 1.487 . S
C71 C68 1.382 . S
C71 C72 1.387 . S
C71 H88 0.930 . S
C72 C70 1.381 . S
C72 C71 1.387 . S
C72 H89 0.931 . S
C73 C66 1.399 1_565 S
C73 C70 1.487 . S
C73 N90 1.343 . S
H74 C46 0.931 . S
H75 C48 0.930 . S
H76 C50 0.930 . S
H77 C51 0.931 . S
H78 C53 0.931 . S
H79 C55 0.930 . S
H80 C57 0.930 . S
H81 C58 0.931 . S
H82 C60 0.931 . S
H83 C62 0.930 . S
H84 C64 0.930 . S
H85 C65 0.931 . S
H86 C67 0.931 . S
H87 C69 0.930 . S
H88 C71 0.930 . S
H89 C72 0.931 . S
N90 C52 1.343 . S
N90 C73 1.343 . S
N91 C59 1.343 . S
N91 C66 1.343 . S
C92 C93 1.384 1_556 S
C92 C94 1.384 . S
C92 H120 0.931 . S
C93 C92 1.384 1_554 S
C93 C96 1.382 . S
C94 C92 1.384 . S
C94 C95 1.381 1_556 S
C94 H121 0.930 . S
C95 C94 1.381 1_554 S
C95 C97 1.381 . S
C95 C98 1.487 . S
C96 C93 1.382 . S
C96 C97 1.387 . S
C96 H122 0.930 . S
C97 C95 1.381 . S
C97 C96 1.387 . S
C97 H123 0.931 . S
C98 C95 1.487 . S
C98 C105 1.399 . S
C98 N136 1.343 . S
C99 C100 1.384 . S
C99 C101 1.384 . S
C99 H124 0.931 . S
C100 C99 1.384 . S
C100 C103 1.382 1_554 S
C101 C99 1.384 . S
C101 C102 1.381 . S
C101 H125 0.930 . S
C102 C101 1.381 . S
C102 C104 1.381 1_554 S
C102 C105 1.487 . S
C103 C100 1.382 1_556 S
C103 C104 1.387 . S
C103 H126 0.930 . S
C104 C102 1.381 1_556 S
C104 C103 1.387 . S
C104 H127 0.931 . S
C105 C98 1.399 . S
C105 C102 1.487 . S
C105 N137 1.343 . S
C106 C107 1.384 . S
C106 C108 1.384 . S
C106 H128 0.931 . S
C107 C106 1.384 . S
C107 C110 1.382 1_554 S
C108 C106 1.384 . S
C108 C109 1.381 . S
C108 H129 0.930 . S
C109 C108 1.381 . S
C109 C111 1.381 1_554 S
C109 C112 1.487 . S
C110 C107 1.382 1_556 S
C110 C111 1.387 . S
C110 H130 0.930 . S
C111 C109 1.381 1_556 S
C111 C110 1.387 . S
C111 H131 0.931 . S
C112 C109 1.487 . S
C112 C119 1.399 . S
C112 N137 1.343 . S
C113 C114 1.384 1_556 S
C113 C115 1.384 . S
C113 H132 0.931 . S
C114 C113 1.384 1_554 S
C114 C117 1.382 . S
C115 C113 1.384 . S
C115 C116 1.381 1_556 S
C115 H133 0.930 . S
C116 C115 1.381 1_554 S
C116 C118 1.381 . S
C116 C119 1.487 . S
C117 C114 1.382 . S
C117 C118 1.387 . S
C117 H134 0.930 . S
C118 C116 1.381 . S
C118 C117 1.387 . S
C118 H135 0.931 . S
C119 C112 1.399 . S
C119 C116 1.487 . S
C119 N136 1.343 . S
H120 C92 0.931 . S
H121 C94 0.930 . S
H122 C96 0.930 . S
H123 C97 0.931 . S
H124 C99 0.931 . S
H125 C101 0.930 . S
H126 C103 0.930 . S
H127 C104 0.931 . S
H128 C106 0.931 . S
H129 C108 0.930 . S
H130 C110 0.930 . S
H131 C111 0.931 . S
H132 C113 0.931 . S
H133 C115 0.930 . S
H134 C117 0.930 . S
H135 C118 0.931 . S
N136 C98 1.343 . S
N136 C119 1.343 . S
N137 C105 1.343 . S
N137 C112 1.343 . S
Zn138 O140 1.933 1_556 S
Zn138 O158 1.985 . S
Zn138 O169 1.955 . S
Zn139 O140 1.911 . S
Zn139 O159 1.970 . S
Zn139 O175 1.945 . S
Zn139 O182 1.981 . S
O140 Zn138 1.933 1_554 S
O140 Zn139 1.911 . S
O140 H141 0.841 . S
H141 O140 0.841 . S
C142 O143 1.246 . S
C142 O171 1.276 1_455 S
O143 C142 1.246 . S
Zn144 O146 1.911 . S
Zn144 O161 1.970 . S
Zn144 O178 1.945 . S
Zn144 O185 1.981 . S
Zn145 O146 1.933 1_556 S
Zn145 O160 1.985 . S
Zn145 O167 1.955 . S
O146 Zn144 1.911 . S
O146 Zn145 1.933 1_554 S
O146 H147 0.841 . S
H147 O146 0.841 . S
Zn148 O149 1.933 1_556 S
Zn148 O162 1.985 . S
Zn148 O171 1.955 . S
O149 Zn148 1.933 1_554 S
O149 Zn150 1.911 . S
O149 H151 0.841 . S
Zn150 O149 1.911 . S
Zn150 O163 1.970 . S
Zn150 O179 1.981 . S
Zn150 O181 1.945 . S
H151 O149 0.841 . S
Zn152 O153 1.933 1_556 S
Zn152 O165 1.985 . S
Zn152 O173 1.955 . S
O153 Zn152 1.933 1_554 S
O153 H154 0.841 . S
O153 Zn155 1.911 . S
H154 O153 0.841 . S
Zn155 O153 1.911 . S
Zn155 O166 1.970 . S
Zn155 O176 1.981 . S
Zn155 O184 1.945 . S
C156 O157 1.246 . S
C156 O173 1.276 1_655 S
O157 C156 1.246 . S
O158 Zn138 1.985 . S
O158 C168 1.245 1_556 S
O159 Zn139 1.970 . S
O159 C168 1.263 . S
O160 Zn145 1.985 . S
O160 C172 1.245 1_556 S
O161 Zn144 1.970 . S
O161 C172 1.263 . S
O162 Zn148 1.985 . S
O162 C177 1.245 1_556 S
O163 Zn150 1.970 . S
O163 C177 1.263 . S
C164 O175 1.263 . S
C164 O176 1.244 1_545 S
O165 Zn152 1.985 . S
O165 C183 1.245 1_556 S
O166 Zn155 1.970 . S
O166 C183 1.263 . S
O167 Zn145 1.955 . S
O167 C186 1.276 1_565 S
C168 O158 1.245 1_554 S
C168 O159 1.263 . S
O169 Zn138 1.955 . S
O169 C188 1.276 1_545 S
C170 O178 1.263 1_545 S
C170 O179 1.244 . S
O171 C142 1.276 1_655 S
O171 Zn148 1.955 . S
C172 O160 1.245 1_554 S
C172 O161 1.263 . S
O173 Zn152 1.955 . S
O173 C156 1.276 1_455 S
C174 O181 1.263 1_455 S
C174 O182 1.244 . S
O175 Zn139 1.945 . S
O175 C164 1.263 . S
O176 Zn155 1.981 . S
O176 C164 1.244 1_565 S
C177 O162 1.245 1_554 S
C177 O163 1.263 . S
O178 Zn144 1.945 . S
O178 C170 1.263 1_565 S
O179 Zn150 1.981 . S
O179 C170 1.244 . S
C180 O184 1.263 . S
C180 O185 1.244 1_455 S
O181 Zn150 1.945 . S
O181 C174 1.263 1_655 S
O182 Zn139 1.981 . S
O182 C174 1.244 . S
C183 O165 1.245 1_554 S
C183 O166 1.263 . S
O184 Zn155 1.945 . S
O184 C180 1.263 . S
O185 Zn144 1.981 . S
O185 C180 1.244 1_655 S
C186 O167 1.276 1_545 S
C186 O187 1.246 . S
O187 C186 1.246 . S
C188 O169 1.276 1_565 S
C188 O189 1.246 . S
O189 C188 1.246 . S
C190 C191 1.369 . S
C190 C192 1.419 . S
C190 H194 0.930 . S
C191 C190 1.369 . S
C191 C200 1.429 1_455 S
C192 C190 1.419 . S
C192 C193 1.363 . S
C192 H195 0.929 . S
C193 C192 1.363 . S
C193 C199 1.428 1_455 S
H194 C190 0.930 . S
H195 C192 0.929 . S
S196 N197 1.613 . S
S196 N198 1.610 . S
N197 S196 1.613 . S
N197 C200 1.350 . S
N198 S196 1.610 . S
N198 C199 1.351 . S
C199 C193 1.428 1_655 S
C199 N198 1.351 . S
C199 C200 1.434 . S
C200 C191 1.429 1_655 S
C200 N197 1.350 . S
C200 C199 1.434 . S
C201 C202 1.369 . S
C201 C203 1.419 . S
C201 H205 0.930 . S
C202 C201 1.369 . S
C202 C211 1.429 1_545 S
C203 C201 1.419 . S
C203 C204 1.363 . S
C203 H206 0.929 . S
C204 C203 1.363 . S
C204 C210 1.428 1_545 S
H205 C201 0.930 . S
H206 C203 0.929 . S
S207 N208 1.613 . S
S207 N209 1.610 . S
N208 S207 1.613 . S
N208 C211 1.350 . S
N209 S207 1.610 . S
N209 C210 1.351 . S
C210 C204 1.428 1_565 S
C210 N209 1.351 . S
C210 C211 1.434 . S
C211 C202 1.429 1_565 S
C211 N208 1.350 . S
C211 C210 1.434 . S
C212 C213 1.369 1_455 S
C212 C214 1.419 . S
C212 H216 0.930 . S
C213 C212 1.369 1_655 S
C213 C222 1.429 . S
C214 C212 1.419 . S
C214 C215 1.363 1_455 S
C214 H217 0.929 . S
C215 C214 1.363 1_655 S
C215 C221 1.428 . S
H216 C212 0.930 . S
H217 C214 0.929 . S
S218 N219 1.613 . S
S218 N220 1.610 . S
N219 S218 1.613 . S
N219 C222 1.350 . S
N220 S218 1.610 . S
N220 C221 1.351 . S
C221 C215 1.428 . S
C221 N220 1.351 . S
C221 C222 1.434 . S
C222 C213 1.429 . S
C222 N219 1.350 . S
C222 C221 1.434 . S
C223 C224 1.369 1_545 S
C223 C225 1.419 . S
C223 H227 0.930 . S
C224 C223 1.369 1_565 S
C224 C233 1.429 . S
C225 C223 1.419 . S
C225 C226 1.363 1_545 S
C225 H228 0.929 . S
C226 C225 1.363 1_565 S
C226 C232 1.428 . S
H227 C223 0.930 . S
H228 C225 0.929 . S
S229 N230 1.613 . S
S229 N231 1.610 . S
N230 S229 1.613 . S
N230 C233 1.350 . S
N231 S229 1.610 . S
N231 C232 1.351 . S
C232 C226 1.428 . S
C232 N231 1.351 . S
C232 C233 1.434 . S
C233 C224 1.429 . S
C233 N230 1.350 . S
C233 C232 1.434 . S
C234 C235 1.369 . S
C234 C236 1.419 . S
C234 H238 0.930 . S
C235 C234 1.369 . S
C235 C244 1.429 1_655 S
C236 C234 1.419 . S
C236 C237 1.363 . S
C236 H239 0.929 . S
C237 C236 1.363 . S
C237 C243 1.428 1_655 S
H238 C234 0.930 . S
H239 C236 0.929 . S
S240 N241 1.613 . S
S240 N242 1.610 . S
N241 S240 1.613 . S
N241 C244 1.350 . S
N242 S240 1.610 . S
N242 C243 1.351 . S
C243 C237 1.428 1_455 S
C243 N242 1.351 . S
C243 C244 1.434 . S
C244 C235 1.429 1_455 S
C244 N241 1.350 . S
C244 C243 1.434 . S
C245 C246 1.369 1_545 S
C245 C247 1.419 . S
C245 H249 0.930 . S
C246 C245 1.369 1_565 S
C246 C255 1.429 . S
C247 C245 1.419 . S
C247 C248 1.363 1_545 S
C247 H250 0.929 . S
C248 C247 1.363 1_565 S
C248 C254 1.428 . S
H249 C245 0.930 . S
H250 C247 0.929 . S
S251 N252 1.613 . S
S251 N253 1.610 . S
N252 S251 1.613 . S
N252 C255 1.350 . S
N253 S251 1.610 . S
N253 C254 1.351 . S
C254 C248 1.428 . S
C254 N253 1.351 . S
C254 C255 1.434 . S
C255 C246 1.429 . S
C255 N252 1.350 . S
C255 C254 1.434 . S
C256 C257 1.369 1_655 S
C256 C258 1.419 . S
C256 H260 0.930 . S
C257 C256 1.369 1_455 S
C257 C266 1.429 . S
C258 C256 1.419 . S
C258 C259 1.363 1_655 S
C258 H261 0.929 . S
C259 C258 1.363 1_455 S
C259 C265 1.428 . S
H260 C256 0.930 . S
H261 C258 0.929 . S
S262 N263 1.613 . S
S262 N264 1.610 . S
N263 S262 1.613 . S
N263 C266 1.350 . S
N264 S262 1.610 . S
N264 C265 1.351 . S
C265 C259 1.428 . S
C265 N264 1.351 . S
C265 C266 1.434 . S
C266 C257 1.429 . S
C266 N263 1.350 . S
C266 C265 1.434 . S
C267 C268 1.369 1_565 S
C267 C269 1.419 1_565 S
C267 H271 0.930 . S
C268 C267 1.369 1_545 S
C268 C277 1.429 . S
C269 C267 1.419 1_545 S
C269 C270 1.363 . S
C269 H272 0.929 1_545 S
C270 C269 1.363 . S
C270 C276 1.428 . S
H271 C267 0.930 . S
H272 C269 0.929 1_565 S
S273 N274 1.613 . S
S273 N275 1.610 . S
N274 S273 1.613 . S
N274 C277 1.350 . S
N275 S273 1.610 . S
N275 C276 1.351 . S
C276 C270 1.428 . S
C276 N275 1.351 . S
C276 C277 1.434 . S
C277 C268 1.429 . S
C277 N274 1.350 . S
C277 C276 1.434 . S
C278 C279 1.369 1_556 S
C278 C280 1.419 . S
C278 H282 0.930 . S
C279 C278 1.369 1_554 S
C279 C288 1.429 . S
C280 C278 1.419 . S
C280 C281 1.363 1_556 S
C280 H283 0.929 . S
C281 C280 1.363 1_554 S
C281 C287 1.428 . S
H282 C278 0.930 . S
H283 C280 0.929 . S
S284 N285 1.613 . S
S284 N286 1.610 . S
N285 S284 1.613 . S
N285 C288 1.350 . S
N286 S284 1.610 . S
N286 C287 1.351 . S
C287 C281 1.428 . S
C287 N286 1.351 . S
C287 C288 1.434 . S
C288 C279 1.429 . S
C288 N285 1.350 . S
C288 C287 1.434 . S
C289 C290 1.369 . S
C289 C291 1.419 . S
C289 H293 0.930 . S
C290 C289 1.369 . S
C290 C299 1.429 1_554 S
C291 C289 1.419 . S
C291 C292 1.363 . S
C291 H294 0.929 . S
C292 C291 1.363 . S
C292 C298 1.428 1_554 S
H293 C289 0.930 . S
H294 C291 0.929 . S
S295 N296 1.613 . S
S295 N297 1.610 . S
N296 S295 1.613 . S
N296 C299 1.350 . S
N297 S295 1.610 . S
N297 C298 1.351 . S
C298 C292 1.428 1_556 S
C298 N297 1.351 . S
C298 C299 1.434 . S
C299 C290 1.429 1_556 S
C299 N296 1.350 . S
C299 C298 1.434 . S
C300 C301 1.369 . S
C300 C302 1.419 . S
C300 H304 0.930 . S
C301 C300 1.369 . S
C301 C310 1.429 . S
C302 C300 1.419 . S
C302 C303 1.363 . S
C302 H305 0.929 . S
C303 C302 1.363 . S
C303 C309 1.428 . S
H304 C300 0.930 . S
H305 C302 0.929 . S
S306 N307 1.613 . S
S306 N308 1.610 . S
N307 S306 1.613 . S
N307 C310 1.350 1_556 S
N308 S306 1.610 . S
N308 C309 1.351 1_556 S
C309 C303 1.428 . S
C309 N308 1.351 1_554 S
C309 C310 1.434 . S
C310 C301 1.429 . S
C310 N307 1.350 1_554 S
C310 C309 1.434 . S
C311 C312 1.369 1_556 S
C311 C313 1.419 . S
C311 H315 0.930 . S
C312 C311 1.369 1_554 S
C312 C321 1.429 . S
C313 C311 1.419 . S
C313 C314 1.363 1_556 S
C313 H316 0.929 . S
C314 C313 1.363 1_554 S
C314 C320 1.428 . S
H315 C311 0.930 . S
H316 C313 0.929 . S
S317 N318 1.613 . S
S317 N319 1.610 . S
N318 S317 1.613 . S
N318 C321 1.350 . S
N319 S317 1.610 . S
N319 C320 1.351 . S
C320 C314 1.428 . S
C320 N319 1.351 . S
C320 C321 1.434 . S
C321 C312 1.429 . S
C321 N318 1.350 . S
C321 C320 1.434 . S
C193 C174 1.833 . S
C191 C15 1.906 . S
C204 C170 1.413 . S
C202 C68 1.525 1_545 S
C215 C180 1.839 1_655 S
C213 C8 1.914 1_655 S
C226 C164 1.416 1_565 S
C224 C61 1.523 1_565 S
C235 C1 2.013 . S
C237 C156 1.911 . S
C248 C188 1.499 . S
C246 C54 1.633 1_565 S
C257 C22 2.016 1_455 S
C259 C142 1.913 . S
C268 C47 1.636 1_545 S
C270 C186 1.499 . S
C279 C93 1.103 . S
C281 C168 1.071 . S
C290 C114 1.084 . S
C292 C183 1.058 . S
C303 C177 1.059 . S
C301 C100 1.083 . S
C314 C172 1.074 . S
C312 C107 1.107 . S
