# Generated by pormake.
# Topology wbl, (4,4)-cn, num edge types: 1
# Building blocks:
#     Node 0, Type 0, BuildingBlock: NAWXER_clean_linker_0, # of connection points: 4
#     Node 1, Type 0, BuildingBlock: NAWXER_clean_linker_0, # of connection points: 4
#     Node 2, Type 0, BuildingBlock: NAWXER_clean_linker_0, # of connection points: 4
#     Node 3, Type 0, BuildingBlock: NAWXER_clean_linker_0, # of connection points: 4
#     Node 4, Type 0, BuildingBlock: NAWXER_clean_linker_0, # of connection points: 4
#     Node 5, Type 0, BuildingBlock: NAWXER_clean_linker_0, # of connection points: 4
#     Node 6, Type 0, BuildingBlock: NAWXER_clean_linker_0, # of connection points: 4
#     Node 7, Type 0, BuildingBlock: NAWXER_clean_linker_0, # of connection points: 4
#     Node 8, Type 1, BuildingBlock: QUQFOY_clean_sbu_1, # of connection points: 4
#     Node 9, Type 1, BuildingBlock: QUQFOY_clean_sbu_1, # of connection points: 4
#     Node 10, Type 1, BuildingBlock: QUQFOY_clean_sbu_1, # of connection points: 4
#     Node 11, Type 1, BuildingBlock: QUQFOY_clean_sbu_1, # of connection points: 4
#     Node 12, Type 1, BuildingBlock: QUQFOY_clean_sbu_1, # of connection points: 4
#     Node 13, Type 1, BuildingBlock: QUQFOY_clean_sbu_1, # of connection points: 4
#     Node 14, Type 1, BuildingBlock: QUQFOY_clean_sbu_1, # of connection points: 4
#     Node 15, Type 1, BuildingBlock: QUQFOY_clean_sbu_1, # of connection points: 4
#     Edge 16, Type (0, 1), BuildingBlock: CIFDUS_clean_linker_0, # of connection points: 2
#     Edge 17, Type (0, 1), BuildingBlock: CIFDUS_clean_linker_0, # of connection points: 2
#     Edge 18, Type (0, 1), BuildingBlock: CIFDUS_clean_linker_0, # of connection points: 2
#     Edge 19, Type (0, 1), BuildingBlock: CIFDUS_clean_linker_0, # of connection points: 2
#     Edge 20, Type (0, 1), BuildingBlock: CIFDUS_clean_linker_0, # of connection points: 2
#     Edge 21, Type (0, 1), BuildingBlock: CIFDUS_clean_linker_0, # of connection points: 2
#     Edge 22, Type (0, 1), BuildingBlock: CIFDUS_clean_linker_0, # of connection points: 2
#     Edge 23, Type (0, 1), BuildingBlock: CIFDUS_clean_linker_0, # of connection points: 2
#     Edge 24, Type (0, 1), BuildingBlock: CIFDUS_clean_linker_0, # of connection points: 2
#     Edge 25, Type (0, 1), BuildingBlock: CIFDUS_clean_linker_0, # of connection points: 2
#     Edge 26, Type (0, 1), BuildingBlock: CIFDUS_clean_linker_0, # of connection points: 2
#     Edge 27, Type (0, 1), BuildingBlock: CIFDUS_clean_linker_0, # of connection points: 2
#     Edge 28, Type (0, 1), BuildingBlock: CIFDUS_clean_linker_0, # of connection points: 2
#     Edge 29, Type (0, 1), BuildingBlock: CIFDUS_clean_linker_0, # of connection points: 2
#     Edge 30, Type (0, 1), BuildingBlock: CIFDUS_clean_linker_0, # of connection points: 2
#     Edge 31, Type (0, 1), BuildingBlock: CIFDUS_clean_linker_0, # of connection points: 2
#     Edge 32, Type (0, 1), BuildingBlock: CIFDUS_clean_linker_0, # of connection points: 2
#     Edge 33, Type (0, 1), BuildingBlock: CIFDUS_clean_linker_0, # of connection points: 2
#     Edge 34, Type (0, 1), BuildingBlock: CIFDUS_clean_linker_0, # of connection points: 2
#     Edge 35, Type (0, 1), BuildingBlock: CIFDUS_clean_linker_0, # of connection points: 2
#     Edge 36, Type (0, 1), BuildingBlock: CIFDUS_clean_linker_0, # of connection points: 2
#     Edge 37, Type (0, 1), BuildingBlock: CIFDUS_clean_linker_0, # of connection points: 2
#     Edge 38, Type (0, 1), BuildingBlock: CIFDUS_clean_linker_0, # of connection points: 2
#     Edge 39, Type (0, 1), BuildingBlock: CIFDUS_clean_linker_0, # of connection points: 2
#     Edge 40, Type (0, 1), BuildingBlock: CIFDUS_clean_linker_0, # of connection points: 2
#     Edge 41, Type (0, 1), BuildingBlock: CIFDUS_clean_linker_0, # of connection points: 2
#     Edge 42, Type (0, 1), BuildingBlock: CIFDUS_clean_linker_0, # of connection points: 2
#     Edge 43, Type (0, 1), BuildingBlock: CIFDUS_clean_linker_0, # of connection points: 2
#     Edge 44, Type (0, 1), BuildingBlock: CIFDUS_clean_linker_0, # of connection points: 2
#     Edge 45, Type (0, 1), BuildingBlock: CIFDUS_clean_linker_0, # of connection points: 2
#     Edge 46, Type (0, 1), BuildingBlock: CIFDUS_clean_linker_0, # of connection points: 2
#     Edge 47, Type (0, 1), BuildingBlock: CIFDUS_clean_linker_0, # of connection points: 2
# Relax obj value: 0.183
# Max RMSD: 0.219
# Mean RMSD: 0.163
data_MOF--net-wbl--node1-QUQFOY_clean_sbu_1--node2-NAWXER_clean_linker_0--edge1-CIFDUS_clean_linker_0
_symmetry_space_group_name_H-M    P1
_symmetry_Int_Tables_number       1
_symmetry_cell_setting            triclinic
loop_
_symmetry_equiv_pos_as_xyz
'x, y, z'
_cell_length_a     40.239192
_cell_length_b     40.261481
_cell_length_c     71.6625
_cell_angle_alpha  93.393055
_cell_angle_beta   93.404678
_cell_angle_gamma 90.35529
loop_
_atom_site_label
_atom_site_type_symbol
_atom_site_fract_x
_atom_site_fract_y
_atom_site_fract_z
_atom_type_partial_charge
C0 C 0.23038 0.0426 0.39152 0.0
C1 C 0.24806 0.05692 0.40755 0.0
C2 C 0.21627 0.06273 0.37797 0.0
C3 C 0.21995 0.09751 0.3801 0.0
C4 C 0.25353 0.09153 0.409 0.0
C5 C 0.23943 0.11162 0.39546 0.0
C6 C 0.19824 0.11923 0.36884 0.0
C7 C 0.26541 0.06805 0.32917 0.0
C8 C 0.24886 0.04609 0.31563 0.0
C9 C 0.24751 0.09106 0.33986 0.0
C10 C 0.21269 0.09244 0.33731 0.0
C11 C 0.21413 0.04832 0.31267 0.0
C12 C 0.19626 0.07142 0.32332 0.0
C13 C 0.1931 0.11549 0.34914 0.0
C14 C 0.08214 0.21549 0.33561 0.0
C15 C 0.06067 0.1949 0.32379 0.0
C16 C 0.11142 0.20265 0.34376 0.0
C17 C 0.11957 0.16905 0.34018 0.0
C18 C 0.06996 0.16192 0.31935 0.0
C19 C 0.09923 0.14919 0.32739 0.0
C20 C 0.14789 0.15362 0.35044 0.0
C21 C 0.07449 0.17291 0.39527 0.0
C22 C 0.08626 0.19376 0.4107 0.0
C23 C 0.09573 0.16276 0.38136 0.0
C24 C 0.12911 0.17347 0.38253 0.0
C25 C 0.11919 0.20579 0.41141 0.0
C26 C 0.14054 0.19544 0.39752 0.0
C27 C 0.15312 0.15732 0.37012 0.0
H28 H 0.22539 0.01607 0.3901 0.0
H29 H 0.20051 0.05123 0.36659 0.0
H30 H 0.26744 0.10324 0.42106 0.0
H31 H 0.24233 0.13839 0.39749 0.0
H32 H 0.29212 0.06681 0.3319 0.0
H33 H 0.26088 0.10754 0.35024 0.0
H34 H 0.20073 0.03202 0.3022 0.0
H35 H 0.16944 0.07222 0.32096 0.0
H36 H 0.07556 0.24102 0.33922 0.0
H37 H 0.12715 0.21864 0.35329 0.0
H38 H 0.05406 0.14569 0.31004 0.0
H39 H 0.10513 0.1233 0.32428 0.0
H40 H 0.04919 0.16334 0.39436 0.0
H41 H 0.0865 0.14502 0.37028 0.0
H42 H 0.12898 0.22159 0.42325 0.0
H43 H 0.16635 0.20351 0.39887 0.0
N44 N 0.1782 0.14017 0.37846 0.0
N45 N 0.16802 0.13277 0.34073 0.0
C46 C 0.96621 0.5599 0.62816 0.0
C47 C 0.98414 0.54274 0.64198 0.0
C48 C 0.98244 0.58277 0.61771 0.0
C49 C 0.01682 0.58877 0.62093 0.0
C50 C 0.0185 0.54895 0.64509 0.0
C51 C 0.03458 0.57169 0.63473 0.0
C52 C 0.0346 0.61421 0.61109 0.0
C53 C 0.01318 0.5315 0.568 0.0
C54 C 0.98201 0.53692 0.55883 0.0
C55 C 0.03025 0.55751 0.57812 0.0
C56 C 0.01662 0.58943 0.57915 0.0
C57 C 0.96885 0.56922 0.55937 0.0
C58 C 0.9863 0.59547 0.56933 0.0
C59 C 0.03354 0.61553 0.59146 0.0
C60 C 0.15338 0.69999 0.58067 0.0
C61 C 0.14096 0.72197 0.56749 0.0
C62 C 0.13177 0.67915 0.58921 0.0
C63 C 0.0973 0.68016 0.58487 0.0
C64 C 0.10657 0.7218 0.56255 0.0
C65 C 0.08497 0.70093 0.5711 0.0
C66 C 0.07419 0.65921 0.59444 0.0
C67 C 0.11792 0.73278 0.64046 0.0
C68 C 0.13304 0.71743 0.65583 0.0
C69 C 0.09972 0.71362 0.62635 0.0
C70 C 0.09707 0.6789 0.62737 0.0
C71 C 0.13114 0.68278 0.65652 0.0
C72 C 0.11341 0.66372 0.64243 0.0
C73 C 0.07496 0.65809 0.61413 0.0
H74 H 0.9397 0.55568 0.62546 0.0
H75 H 0.96799 0.59631 0.6075 0.0
H76 H 0.03297 0.53675 0.65588 0.0
H77 H 0.06103 0.5761 0.63761 0.0
H78 H 0.02366 0.50679 0.56809 0.0
H79 H 0.05368 0.55253 0.58565 0.0
H80 H 0.94485 0.57397 0.55243 0.0
H81 H 0.97554 0.62008 0.57003 0.0
H82 H 0.17969 0.6996 0.58484 0.0
H83 H 0.14197 0.66255 0.59939 0.0
H84 H 0.09633 0.73807 0.5522 0.0
H85 H 0.05852 0.70161 0.56731 0.0
H86 H 0.11892 0.75958 0.63984 0.0
H87 H 0.08673 0.72603 0.61511 0.0
H88 H 0.1427 0.67053 0.66827 0.0
H89 H 0.11176 0.63704 0.64355 0.0
N90 N 0.05523 0.63555 0.62159 0.0
N91 N 0.05334 0.63793 0.5838 0.0
C92 C 0.55017 0.42314 0.88497 0.0
C93 C 0.58512 0.42239 0.88609 0.0
C94 C 0.5332 0.4442 0.87299 0.0
C95 C 0.55077 0.46478 0.8618 0.0
C96 C 0.60267 0.4414 0.87401 0.0
C97 C 0.58564 0.46267 0.86207 0.0
C98 C 0.53282 0.4919 0.85257 0.0
C99 C 0.60621 0.47967 0.8027 0.0
C100 C 0.60586 0.44465 0.80152 0.0
C101 C 0.58214 0.49734 0.81233 0.0
C102 C 0.55751 0.48039 0.82115 0.0
C103 C 0.57965 0.42781 0.80924 0.0
C104 C 0.55568 0.44554 0.81896 0.0
C105 C 0.53568 0.49935 0.8337 0.0
C106 C 0.47068 0.63409 0.83197 0.0
C107 C 0.44434 0.62826 0.81838 0.0
C108 C 0.49025 0.60769 0.8379 0.0
C109 C 0.48381 0.57518 0.83027 0.0
C110 C 0.43926 0.59601 0.81002 0.0
C111 C 0.45903 0.56972 0.81582 0.0
C112 C 0.5007 0.54646 0.83833 0.0
C113 C 0.43116 0.58877 0.88143 0.0
C114 C 0.44796 0.59781 0.89878 0.0
C115 C 0.44724 0.56985 0.86767 0.0
C116 C 0.48053 0.56028 0.87096 0.0
C117 C 0.48127 0.58834 0.9019 0.0
C118 C 0.49729 0.56971 0.88818 0.0
C119 C 0.4981 0.53909 0.85719 0.0
H120 H 0.53603 0.40859 0.89404 0.0
H121 H 0.50632 0.44557 0.87311 0.0
H122 H 0.62964 0.44165 0.87477 0.0
H123 H 0.59987 0.47893 0.85397 0.0
H124 H 0.62615 0.49351 0.79713 0.0
H125 H 0.58393 0.52424 0.81379 0.0
H126 H 0.57823 0.40089 0.80825 0.0
H127 H 0.53638 0.43199 0.82531 0.0
H128 H 0.47503 0.65869 0.83866 0.0
H129 H 0.50954 0.61239 0.84897 0.0
H130 H 0.41933 0.59098 0.79937 0.0
H131 H 0.45383 0.54484 0.80971 0.0
H132 H 0.40538 0.59551 0.87873 0.0
H133 H 0.43349 0.56218 0.85467 0.0
H134 H 0.49502 0.59536 0.91501 0.0
H135 H 0.52295 0.56263 0.89105 0.0
N136 N 0.51423 0.51212 0.86351 0.0
N137 N 0.51939 0.52635 0.82725 0.0
C138 C 0.52252 0.93781 0.0875 0.0
C139 C 0.49973 0.94796 0.07339 0.0
C140 C 0.54428 0.96063 0.09718 0.0
C141 C 0.54338 0.99439 0.09332 0.0
C142 C 0.49868 0.98178 0.06948 0.0
C143 C 0.52058 0.00479 0.07928 0.0
C144 C 0.56781 0.01798 0.10314 0.0
C145 C 0.50399 0.99067 0.15066 0.0
C146 C 0.52109 0.97259 0.1644 0.0
C147 C 0.52117 0.00424 0.1364 0.0
C148 C 0.5557 -0.0 0.13569 0.0
C149 C 0.5554 0.96718 0.16303 0.0
C150 C 0.57252 0.98103 0.14898 0.0
C151 C 0.57525 0.01812 0.12262 0.0
C152 C 0.67162 0.12235 0.14734 0.0
C153 C 0.69405 0.10288 0.15775 0.0
C154 C 0.64915 0.10721 0.13368 0.0
C155 C 0.6491 0.07254 0.13026 0.0
C156 C 0.69548 0.06854 0.15318 0.0
C157 C 0.67303 0.05351 0.13969 0.0
C158 C 0.62099 0.05499 0.11983 0.0
C159 C 0.68316 0.10176 0.07875 0.0
C160 C 0.66586 0.1183 0.06439 0.0
C161 C 0.6665 0.08056 0.08989 0.0
C162 C 0.63172 0.07663 0.08777 0.0
C163 C 0.63138 0.11205 0.06131 0.0
C164 C 0.61456 0.09183 0.07296 0.0
C165 C 0.61291 0.05625 0.10038 0.0
H166 H 0.52373 0.91202 0.09102 0.0
H167 H 0.56233 0.95163 0.10746 0.0
H168 H 0.48154 0.99025 0.05858 0.0
H169 H 0.51979 0.03065 0.07588 0.0
H170 H 0.47764 0.99551 0.15134 0.0
H171 H 0.50777 0.01925 0.12645 0.0
H172 H 0.56925 0.95262 0.17301 0.0
H173 H 0.59914 0.97736 0.14867 0.0
H174 H 0.66988 0.14886 0.15065 0.0
H175 H 0.63051 0.12219 0.1267 0.0
H176 H 0.71285 0.05302 0.16074 0.0
H177 H 0.67324 0.02668 0.13726 0.0
H178 H 0.70958 0.10556 0.08185 0.0
H179 H 0.68116 0.0674 0.10014 0.0
H180 H 0.61706 0.12293 0.05001 0.0
H181 H 0.58788 0.08853 0.07052 0.0
N182 N 0.58657 0.03744 0.0928 0.0
N183 N 0.60174 0.03622 0.13006 0.0
C184 C 0.05384 0.69585 0.90617 0.0
C185 C 0.08881 0.69711 0.9078 0.0
C186 C 0.03633 0.67384 0.91636 0.0
C187 C 0.05332 0.65292 0.92856 0.0
C188 C 0.1058 0.67719 0.92067 0.0
C189 C 0.08819 0.65508 0.93088 0.0
C190 C 0.03435 0.62682 0.93713 0.0
C191 C 0.10977 0.64541 0.98849 0.0
C192 C 0.11014 0.68037 0.98831 0.0
C193 C 0.08348 0.62679 0.97947 0.0
C194 C 0.05734 0.64272 0.9699 0.0
C195 C 0.08222 0.69627 0.98022 0.0
C196 C 0.05609 0.67759 0.97104 0.0
C197 C 0.03473 0.62288 0.95656 0.0
C198 C 0.94925 0.49853 0.96028 0.0
C199 C 0.92508 0.51126 0.97209 0.0
C200 C 0.97332 0.51971 0.9539 0.0
C201 C 0.97352 0.55389 0.95923 0.0
C202 C 0.92655 0.54511 0.97816 0.0
C203 C 0.95065 0.56614 0.97188 0.0
C204 C 0.99604 0.57761 0.95111 0.0
C205 C 0.92922 0.53471 0.90103 0.0
C206 C 0.94802 0.52004 0.88681 0.0
C207 C 0.94495 0.55371 0.91609 0.0
C208 C 0.9797 0.55794 0.91722 0.0
C209 C 0.98282 0.52372 0.88834 0.0
C210 C 0.99843 0.5426 0.90331 0.0
C211 C 0.997 0.58068 0.93161 0.0
H212 H 0.04005 0.71114 0.89652 0.0
H213 H 0.00943 0.67252 0.91434 0.0
H214 H 0.13275 0.67731 0.92205 0.0
H215 H 0.10189 0.63869 0.93992 0.0
H216 H 0.13087 0.63221 0.9944 0.0
H217 H 0.08489 0.59988 0.97871 0.0
H218 H 0.08129 0.72314 0.98019 0.0
H219 H 0.03587 0.69033 0.96389 0.0
H220 H 0.94871 0.47254 0.9554 0.0
H221 H 0.99118 0.50959 0.94442 0.0
H222 H 0.90857 0.55548 0.9875 0.0
H223 H 0.95054 0.59234 0.97632 0.0
H224 H 0.90233 0.53251 0.90015 0.0
H225 H 0.92996 0.56589 0.92648 0.0
H226 H 0.99806 0.51225 0.87783 0.0
H227 H 0.02526 0.54562 0.9039 0.0
N228 N 0.01581 0.60537 0.92545 0.0
N229 N 0.01529 0.59865 0.96291 0.0
C230 C 0.48037 0.56629 0.15238 0.0
C231 C 0.48824 0.60036 0.15259 0.0
C232 C 0.49652 0.54608 0.16522 0.0
C233 C 0.52033 0.55969 0.17867 0.0
C234 C 0.51092 0.61421 0.16666 0.0
C235 C 0.52695 0.59403 0.17953 0.0
C236 C 0.542 0.53731 0.18946 0.0
C237 C 0.54061 0.61446 0.24315 0.0
C238 C 0.50763 0.62444 0.23921 0.0
C239 C 0.55298 0.58592 0.23415 0.0
C240 C 0.53264 0.56661 0.22107 0.0
C241 C 0.4864 0.60345 0.22743 0.0
C242 C 0.49872 0.57454 0.2186 0.0
C243 C 0.54816 0.54045 0.20911 0.0
C244 C 0.67614 0.46447 0.21991 0.0
C245 C 0.67015 0.44874 0.23645 0.0
C246 C 0.65087 0.48162 0.2105 0.0
C247 C 0.61854 0.48231 0.21689 0.0
C248 C 0.63819 0.45119 0.24341 0.0
C249 C 0.6127 0.46767 0.23369 0.0
C250 C 0.59115 0.49974 0.20684 0.0
C251 C 0.62881 0.42576 0.16158 0.0
C252 C 0.64032 0.4423 0.14641 0.0
C253 C 0.61122 0.44325 0.17532 0.0
C254 C 0.6054 0.47747 0.17409 0.0
C255 C 0.63532 0.47667 0.14568 0.0
C256 C 0.61796 0.49397 0.15929 0.0
C257 C 0.58477 0.49671 0.18719 0.0
H258 H 0.46335 0.55484 0.14156 0.0
H259 H 0.49148 0.51955 0.16413 0.0
H260 H 0.51736 0.64043 0.16719 0.0
H261 H 0.54581 0.60497 0.18949 0.0
H262 H 0.55734 0.62952 0.25262 0.0
H263 H 0.57907 0.58008 0.23661 0.0
H264 H 0.46079 0.61024 0.22421 0.0
H265 H 0.48213 0.55933 0.20914 0.0
H266 H 0.70019 0.4631 0.21393 0.0
H267 H 0.65675 0.49424 0.19817 0.0
H268 H 0.63271 0.44035 0.25636 0.0
H269 H 0.58823 0.46868 0.23924 0.0
H270 H 0.6323 0.39923 0.1624 0.0
H271 H 0.60149 0.42999 0.18656 0.0
H272 H 0.64439 0.49015 0.13434 0.0
H273 H 0.61402 0.52039 0.15813 0.0
N274 N 0.56043 0.51553 0.17941 0.0
N275 N 0.57243 0.5214 0.21701 0.0
C276 C 0.53622 0.97572 0.42654 0.0
C277 C 0.51423 0.98356 0.41155 0.0
C278 C 0.55129 0.00106 0.43832 0.0
C279 C 0.54501 0.03455 0.43503 0.0
C280 C 0.50613 0.01694 0.40909 0.0
C281 C 0.52178 0.04231 0.42061 0.0
C282 C 0.56704 0.06081 0.4442 0.0
C283 C 0.49574 0.0418 0.48774 0.0
C284 C 0.5086 0.02031 0.50104 0.0
C285 C 0.51665 0.05609 0.47556 0.0
C286 C 0.55086 0.04953 0.47665 0.0
C287 C 0.54284 0.0136 0.50214 0.0
C288 C 0.56398 0.0286 0.49019 0.0
C289 C 0.57262 0.06515 0.46377 0.0
C290 C 0.67309 0.17822 0.47199 0.0
C291 C 0.69659 0.16503 0.48476 0.0
C292 C 0.64658 0.15853 0.46408 0.0
C293 C 0.64321 0.12537 0.46883 0.0
C294 C 0.69243 0.13223 0.48998 0.0
C295 C 0.66583 0.11266 0.48217 0.0
C296 C 0.61657 0.10354 0.45982 0.0
C297 C 0.68549 0.12012 0.41336 0.0
C298 C 0.67053 0.1356 0.39795 0.0
C299 C 0.66625 0.10965 0.42756 0.0
C300 C 0.6317 0.11465 0.42667 0.0
C301 C 0.6361 0.14144 0.39736 0.0
C302 C 0.61683 0.13078 0.41152 0.0
C303 C 0.61052 0.09964 0.44017 0.0
H304 H 0.54298 0.95011 0.42854 0.0
H305 H 0.56967 0.99455 0.44913 0.0
H306 H 0.48955 0.02348 0.39743 0.0
H307 H 0.51698 0.06801 0.41771 0.0
H308 H 0.46934 0.04701 0.48653 0.0
H309 H 0.50613 0.07242 0.46531 0.0
H310 H 0.55316 0.99695 0.51227 0.0
H311 H 0.59038 0.02338 0.49123 0.0
H312 H 0.67576 0.20342 0.46773 0.0
H313 H 0.62896 0.16905 0.4541 0.0
H314 H 0.70993 0.12163 0.5 0.0
H315 H 0.66348 0.08724 0.48615 0.0
H316 H 0.712 0.11543 0.41423 0.0
H317 H 0.67821 0.09651 0.43884 0.0
H318 H 0.62383 0.15294 0.38556 0.0
H319 H 0.59015 0.13447 0.41043 0.0
N320 N 0.58601 0.07835 0.43314 0.0
N321 N 0.59732 0.08619 0.47092 0.0
C322 C 0.21892 0.08089 0.67525 0.0
C323 C 0.21257 0.04647 0.67347 0.0
C324 C 0.20239 0.10109 0.68817 0.0
C325 C 0.17953 0.08723 0.69965 0.0
C326 C 0.1926 0.03225 0.68643 0.0
C327 C 0.17605 0.05247 0.69934 0.0
C328 C 0.15351 0.10878 0.70749 0.0
C329 C 0.15232 0.03915 0.75948 0.0
C330 C 0.18713 0.03821 0.76286 0.0
C331 C 0.13773 0.06269 0.7481 0.0
C332 C 0.15759 0.08541 0.73957 0.0
C333 C 0.20677 0.06254 0.75526 0.0
C334 C 0.19215 0.08581 0.74366 0.0
C335 C 0.14203 0.10708 0.72564 0.0
C336 C 0.00726 0.17213 0.71692 0.0
C337 C 0.00786 0.19276 0.73344 0.0
C338 C 0.0357 0.1548 0.71196 0.0
C339 C 0.06554 0.15863 0.72314 0.0
C340 C 0.03709 0.19488 0.74521 0.0
C341 C 0.06568 0.17794 0.7401 0.0
C342 C 0.09663 0.14256 0.7174 0.0
C343 C 0.06619 0.20953 0.66981 0.0
C344 C 0.06222 0.19161 0.65234 0.0
C345 C 0.08076 0.19444 0.68542 0.0
C346 C 0.09092 0.16109 0.68376 0.0
C347 C 0.07195 0.1582 0.65092 0.0
C348 C 0.08617 0.14318 0.6664 0.0
C349 C 0.1085 0.14451 0.69933 0.0
H350 H 0.23399 0.09265 0.66543 0.0
H351 H 0.20522 0.12786 0.68803 0.0
H352 H 0.18753 0.00573 0.6855 0.0
H353 H 0.15807 0.04108 0.7077 0.0
H354 H 0.13632 0.02065 0.7648 0.0
H355 H 0.111 0.06196 0.74516 0.0
H356 H 0.23354 0.06314 0.7579 0.0
H357 H 0.20789 0.10363 0.73753 0.0
H358 H 0.98487 0.1697 0.70775 0.0
H359 H 0.0345 0.13888 0.69921 0.0
H360 H 0.03827 0.21075 0.75798 0.0
H361 H 0.08824 0.18081 0.7491 0.0
H362 H 0.05897 0.23538 0.67124 0.0
H363 H 0.08469 0.20893 0.69859 0.0
H364 H 0.06866 0.1436 0.63773 0.0
H365 H 0.09369 0.11742 0.66477 0.0
N366 N 0.13634 0.12751 0.6952 0.0
N367 N 0.11403 0.12409 0.72992 0.0
O368 O 0.37257 0.71341 0.99075 0.0
Cd369 Cd 0.35309 0.74321 0.01191 0.0
Cd370 Cd 0.39593 0.7083 0.03437 0.0
O371 O 0.39807 0.67948 0.00982 0.0
O372 O 0.30708 0.75483 0.00331 0.0
O373 O 0.31871 0.72229 0.0267 0.0
C374 C 0.29672 0.73593 0.01575 0.0
C375 C 0.40624 0.68109 0.06215 0.0
C376 C 0.38893 0.68699 0.99334 0.0
C377 C 0.40732 0.78297 0.03108 0.0
O378 O 0.41773 0.75485 0.03591 0.0
O379 O 0.37929 0.78536 0.02218 0.0
O380 O 0.42925 0.68634 0.05097 0.0
O381 O 0.37645 0.69034 0.05736 0.0
O382 O 0.40771 0.86042 0.3206 0.0
Cd383 Cd 0.38674 0.84748 0.29427 0.0
Cd384 Cd 0.44487 0.86835 0.28223 0.0
O385 O 0.45052 0.88623 0.30983 0.0
O386 O 0.3382 0.85536 0.29517 0.0
O387 O 0.37246 0.88708 0.28057 0.0
C388 C 0.34321 0.88205 0.28651 0.0
C389 C 0.46377 0.90104 0.25901 0.0
C390 C 0.4336 0.87864 0.32341 0.0
C391 C 0.42679 0.79527 0.27592 0.0
O392 O 0.44886 0.81805 0.27632 0.0
O393 O 0.39791 0.80185 0.28135 0.0
O394 O 0.48409 0.8875 0.2708 0.0
O395 O 0.43227 0.89678 0.2606 0.0
O396 O 0.2826 0.93703 0.50134 0.0
Cd397 Cd 0.3011 0.90962 0.52305 0.0
Cd398 Cd 0.26564 0.95144 0.54366 0.0
O399 O 0.26647 0.97842 0.5201 0.0
O400 O 0.34608 0.89415 0.51682 0.0
O401 O 0.33701 0.93332 0.53904 0.0
C402 C 0.35776 0.9168 0.52904 0.0
C403 C 0.26659 0.97862 0.57338 0.0
C404 C 0.272 0.96658 0.50373 0.0
C405 C 0.24429 0.87896 0.5389 0.0
O406 O 0.23656 0.90906 0.54254 0.0
O407 O 0.27222 0.87209 0.53233 0.0
O408 O 0.2409 0.97926 0.56183 0.0
O409 O 0.29305 0.96422 0.56771 0.0
O410 O 0.23717 0.78913 0.75659 0.0
Cd411 Cd 0.26444 0.80691 0.78035 0.0
Cd412 Cd 0.21785 0.77065 0.79847 0.0
O413 O 0.19462 0.77426 0.77226 0.0
O414 O 0.28593 0.84856 0.77351 0.0
O415 O 0.24619 0.84734 0.79363 0.0
C416 C 0.26557 0.86447 0.78399 0.0
C417 C 0.18055 0.76112 0.82159 0.0
C418 C 0.20721 0.77921 0.75681 0.0
C419 C 0.29084 0.74886 0.7991 0.0
O420 O 0.2604 0.74248 0.80134 0.0
O421 O 0.29917 0.77587 0.79224 0.0
O422 O 0.18495 0.73976 0.80798 0.0
O423 O 0.19736 0.78859 0.82234 0.0
O424 O 0.93234 0.28213 0.56556 0.0
Cd425 Cd 0.9103 0.29896 0.54122 0.0
Cd426 Cd 0.94823 0.25351 0.52392 0.0
O427 O 0.96892 0.2513 0.55091 0.0
O428 O 0.89942 0.34669 0.54546 0.0
O429 O 0.93817 0.32808 0.52678 0.0
C430 C 0.92276 0.3529 0.53449 0.0
C431 C 0.98386 0.24942 0.49924 0.0
C432 C 0.95775 0.26355 0.56604 0.0
C433 C 0.87301 0.24502 0.51966 0.0
O434 O 0.9016 0.23282 0.51727 0.0
O435 O 0.87028 0.27315 0.52838 0.0
O436 O 0.97665 0.22406 0.50841 0.0
O437 O 0.97156 0.27779 0.50442 0.0
O438 O 0.86405 0.4111 0.78923 0.0
Cd439 Cd 0.83863 0.3834 0.76801 0.0
Cd440 Cd 0.88151 0.41783 0.74492 0.0
O441 O 0.89492 0.43979 0.7713 0.0
O442 O 0.79539 0.37132 0.77781 0.0
O443 O 0.79999 0.40499 0.75471 0.0
C444 C 0.7814 0.39084 0.7661 0.0
C445 C 0.89328 0.45005 0.71981 0.0
C446 C 0.88572 0.43354 0.78744 0.0
C447 C 0.88185 0.34108 0.74498 0.0
O448 O 0.8913 0.3682 0.7387 0.0
O449 O 0.86071 0.34093 0.75743 0.0
O450 O 0.91629 0.43641 0.72983 0.0
O451 O 0.86294 0.44643 0.72427 0.0
O452 O 0.7386 0.36198 0.05107 0.0
Cd453 Cd 0.75688 0.33611 0.02822 0.0
Cd454 Cd 0.71669 0.37444 0.00718 0.0
O455 O 0.69751 0.38104 0.03317 0.0
O456 O 0.76356 0.28891 0.03425 0.0
O457 O 0.72247 0.3059 0.0151 0.0
C458 C 0.73623 0.28234 0.02426 0.0
C459 C 0.67788 0.37836 0.98179 0.0
C460 C 0.71094 0.37687 0.04936 0.0
C461 C 0.79157 0.3833 0.006 0.0
O462 O 0.76255 0.39479 0.0029 0.0
O463 O 0.79552 0.35697 0.01482 0.0
O464 O 0.68595 0.40359 0.99299 0.0
O465 O 0.69171 0.35023 0.98488 0.0
O466 O 0.80811 0.2308 0.24422 0.0
Cd467 Cd 0.82103 0.2596 0.2683 0.0
Cd468 Cd 0.79632 0.20857 0.2861 0.0
O469 O 0.78016 0.19409 0.25894 0.0
O470 O 0.81482 0.30712 0.26294 0.0
O471 O 0.78209 0.27936 0.28059 0.0
C472 C 0.78838 0.30617 0.27231 0.0
C473 C 0.76131 0.19912 0.31025 0.0
C474 C 0.78906 0.20544 0.24379 0.0
C475 C 0.87029 0.22492 0.29191 0.0
O476 O 0.84619 0.20513 0.29382 0.0
O477 O 0.86571 0.25085 0.28284 0.0
O478 O 0.77649 0.17515 0.30174 0.0
O479 O 0.76513 0.22872 0.30467 0.0
H480 H 0.23136 0.98102 0.30882 0.0
H481 H 0.30878 0.05196 0.29991 0.0
H482 H 0.34293 0.00727 0.28694 0.0
H483 H 0.35336 0.94756 0.28178 0.0
H484 H 0.27706 0.87646 0.29236 0.0
H485 H 0.23941 0.92178 0.30036 0.0
C486 C 0.25537 0.98682 0.30363 0.0
C487 C 0.26765 0.01973 0.30551 0.0
C488 C 0.27505 0.96094 0.29646 0.0
C489 C 0.299 0.02675 0.29892 0.0
C490 C 0.31847 0.00123 0.29143 0.0
C491 C 0.32817 0.94196 0.28532 0.0
C492 C 0.31808 0.90869 0.28657 0.0
C493 C 0.30714 0.96813 0.29063 0.0
C494 C 0.28546 0.90188 0.29135 0.0
C495 C 0.264 0.92778 0.29606 0.0
H496 H 0.12929 0.78719 0.56314 0.0
H497 H 0.2035 0.7117 0.55504 0.0
H498 H 0.24185 0.75331 0.54466 0.0
H499 H 0.25495 0.81184 0.53913 0.0
H500 H 0.18 0.88666 0.54778 0.0
H501 H 0.14122 0.84449 0.55637 0.0
C502 C 0.15362 0.77968 0.55878 0.0
C503 C 0.16348 0.74641 0.55983 0.0
C504 C 0.1755 0.80366 0.55296 0.0
C505 C 0.19541 0.73725 0.55451 0.0
C506 C 0.2173 0.761 0.54852 0.0
C507 C 0.23005 0.81883 0.54274 0.0
C508 C 0.22055 0.85242 0.54289 0.0
C509 C 0.20775 0.7944 0.5479 0.0
C510 C 0.18816 0.86106 0.54765 0.0
C511 C 0.16586 0.83695 0.55257 0.0
H512 H 0.37761 0.62436 0.8185 0.0
H513 H 0.45759 0.69202 0.80934 0.0
H514 H 0.41721 0.73588 0.80272 0.0
H515 H 0.3588 0.75449 0.79925 0.0
H516 H 0.27963 0.68609 0.80947 0.0
H517 H 0.32007 0.6431 0.81595 0.0
C518 C 0.38615 0.64863 0.81487 0.0
C519 C 0.42037 0.65491 0.81413 0.0
C520 C 0.36295 0.67362 0.81135 0.0
C521 C 0.43127 0.68667 0.80991 0.0
C522 C 0.40822 0.71167 0.80612 0.0
C523 C 0.35043 0.73021 0.80293 0.0
C524 C 0.31615 0.72362 0.80379 0.0
C525 C 0.37393 0.7054 0.80678 0.0
C526 C 0.30579 0.69201 0.8087 0.0
C527 C 0.3289 0.66727 0.81238 0.0
H528 H 0.51785 0.88757 0.05939 0.0
H529 H 0.4329 0.95179 0.06326 0.0
H530 H 0.39662 0.90717 0.04864 0.0
H531 H 0.38863 0.84786 0.03745 0.0
H532 H 0.47432 0.78395 0.03591 0.0
H533 H 0.51061 0.83034 0.04705 0.0
C534 C 0.49137 0.89183 0.05707 0.0
C535 C 0.478 0.92271 0.06268 0.0
C536 C 0.47074 0.86597 0.04918 0.0
C537 C 0.4438 0.92818 0.05907 0.0
C538 C 0.42304 0.90261 0.05083 0.0
C539 C 0.41529 0.84432 0.03934 0.0
C540 C 0.42874 0.81248 0.03603 0.0
C541 C 0.43614 0.87111 0.04621 0.0
C542 C 0.4633 0.80813 0.03858 0.0
C543 C 0.48413 0.83464 0.04493 0.0
H544 H 0.15462 0.67054 0.01794 0.0
H545 H 0.13623 0.73283 0.97143 0.0
H546 H 0.19077 0.75871 0.97764 0.0
H547 H 0.24613 0.75884 0.99352 0.0
H548 H 0.26674 0.69404 0.03858 0.0
H549 H 0.20908 0.67397 0.03562 0.0
C550 C 0.16245 0.68992 0.00923 0.0
C551 C 0.14121 0.6995 0.99419 0.0
C552 C 0.19448 0.70403 0.01246 0.0
C553 C 0.15164 0.72515 0.98329 0.0
C554 C 0.18309 0.73978 0.98668 0.0
C555 C 0.23796 0.74068 0.0029 0.0
C556 C 0.26085 0.7277 0.01611 0.0
C557 C 0.20505 0.72872 0.00085 0.0
C558 C 0.2497 0.70433 0.02822 0.0
C559 C 0.21674 0.69274 0.02648 0.0
H560 H 0.44734 0.64283 0.25251 0.0
H561 H 0.54334 0.68201 0.24032 0.0
H562 H 0.52663 0.73764 0.25057 0.0
H563 H 0.48528 0.77532 0.26266 0.0
H564 H 0.38842 0.73812 0.27456 0.0
H565 H 0.4048 0.68165 0.26443 0.0
C566 C 0.46451 0.66358 0.25205 0.0
C567 C 0.49675 0.65805 0.24591 0.0
C568 C 0.45457 0.69589 0.25778 0.0
C569 C 0.51872 0.68527 0.24544 0.0
C570 C 0.50909 0.71723 0.25113 0.0
C571 C 0.46759 0.75496 0.26306 0.0
C572 C 0.43566 0.76102 0.2694 0.0
C573 C 0.47716 0.7228 0.25732 0.0
C574 C 0.41317 0.73421 0.26973 0.0
C575 C 0.42255 0.7019 0.26397 0.0
H576 H 0.49704 0.95434 0.50245 0.0
H577 H 0.46769 0.05019 0.52552 0.0
H578 H 0.42126 0.02449 0.54009 0.0
H579 H 0.38397 0.97662 0.54147 0.0
H580 H 0.40988 0.88169 0.51545 0.0
H581 H 0.46308 0.90475 0.50728 0.0
C582 C 0.48097 0.96931 0.51114 0.0
C583 C 0.48549 0.00398 0.51294 0.0
C584 C 0.45356 0.95451 0.51878 0.0
C585 C 0.46442 0.02342 0.52397 0.0
C586 C 0.43788 0.00875 0.53222 0.0
C587 C 0.4017 0.96069 0.53454 0.0
C588 C 0.39291 0.9276 0.52893 0.0
C589 C 0.43142 0.97455 0.52906 0.0
C590 C 0.41603 0.90733 0.51982 0.0
C591 C 0.44634 0.92056 0.51503 0.0
H592 H 0.24462 0.00628 0.75499 0.0
H593 H 0.16474 0.00614 0.79267 0.0
H594 H 0.18462 0.9537 0.80439 0.0
H595 H 0.22042 0.90456 0.80096 0.0
H596 H 0.30068 0.90591 0.76359 0.0
H597 H 0.28559 0.96188 0.75536 0.0
C598 C 0.23204 0.99549 0.76618 0.0
C599 C 0.20276 0.01 0.77262 0.0
C600 C 0.24363 0.96539 0.77292 0.0
C601 C 0.18679 0.99515 0.78703 0.0
C602 C 0.19824 0.9652 0.79384 0.0
C603 C 0.2351 0.91739 0.79135 0.0
C604 C 0.26127 0.90078 0.78267 0.0
C605 C 0.22597 0.94951 0.78641 0.0
C606 C 0.28018 0.91791 0.77035 0.0
C607 C 0.27148 0.94992 0.76554 0.0
H608 H 0.64116 0.45781 0.77124 0.0
H609 H 0.63579 0.38999 0.81548 0.0
H610 H 0.68751 0.36432 0.80655 0.0
H611 H 0.73755 0.36559 0.78893 0.0
H612 H 0.74534 0.43548 0.74596 0.0
H613 H 0.68949 0.45582 0.75166 0.0
C614 C 0.65121 0.43729 0.77886 0.0
C615 C 0.6346 0.42608 0.79411 0.0
C616 C 0.68161 0.42319 0.77401 0.0
C617 C 0.64769 0.39898 0.80356 0.0
C618 C 0.67752 0.38444 0.79859 0.0
C619 C 0.72689 0.38493 0.78059 0.0
C620 C 0.74578 0.39925 0.76719 0.0
C621 C 0.69515 0.39699 0.78422 0.0
C622 C 0.73143 0.42413 0.75643 0.0
C623 C 0.69953 0.43587 0.75974 0.0
H624 H 0.63963 0.17297 0.04769 0.0
H625 H 0.73212 0.12002 0.05587 0.0
H626 H 0.76197 0.16514 0.043 0.0
H627 H 0.76263 0.22232 0.03228 0.0
H628 H 0.66946 0.27175 0.02086 0.0
H629 H 0.63903 0.22431 0.03126 0.0
C630 C 0.66612 0.17039 0.04622 0.0
C631 C 0.68339 0.14313 0.0535 0.0
C632 C 0.68318 0.19586 0.03807 0.0
C633 C 0.71797 0.14114 0.05134 0.0
C634 C 0.7352 0.16685 0.04371 0.0
C635 C 0.73562 0.2223 0.03165 0.0
C636 C 0.71835 0.25062 0.02602 0.0
C637 C 0.71818 0.19479 0.03754 0.0
C638 C 0.68337 0.25021 0.02509 0.0
C639 C 0.66593 0.22321 0.03122 0.0
H640 H 0.00213 0.16341 0.32616 0.0
H641 H 0.04481 0.25297 0.30724 0.0
H642 H 0.98934 0.27105 0.29606 0.0
H643 H 0.92873 0.26015 0.29093 0.0
H644 H 0.88738 0.17018 0.3106 0.0
H645 H 0.94231 0.15355 0.32216 0.0
C646 C -0.0007 0.18679 0.31946 0.0
C647 C 0.02742 0.20663 0.31725 0.0
C648 C 0.96757 0.19695 0.31322 0.0
C649 C 0.02341 0.23727 0.30901 0.0
C650 C 0.99176 0.24753 0.3026 0.0
C651 C 0.93174 0.237 0.29781 0.0
C652 C 0.90386 0.21642 0.29976 0.0
C653 C 0.96364 0.22743 0.30453 0.0
C654 C 0.90827 0.18655 0.30881 0.0
C655 C 0.93974 0.17691 0.31544 0.0
H656 H 0.00268 0.4868 0.53543 0.0
H657 H 0.9174 0.52193 0.56423 0.0
H658 H 0.88897 0.46861 0.55668 0.0
H659 H 0.89226 0.40961 0.54632 0.0
H660 H 0.97846 0.37383 0.51846 0.0
H661 H 0.00249 0.42985 0.52103 0.0
C662 C 0.97761 0.4829 0.53972 0.0
C663 C 0.96228 0.50799 0.55056 0.0
C664 C 0.96179 0.45196 0.53571 0.0
C665 C 0.92964 0.50298 0.55582 0.0
C666 C 0.91352 0.4724 0.55166 0.0
C667 C 0.91603 0.41417 0.5405 0.0
C668 C 0.93385 0.3875 0.53255 0.0
C669 C 0.92993 0.44631 0.54229 0.0
C670 C 0.96436 0.39388 0.52481 0.0
C671 C 0.9782 0.42589 0.52634 0.0
H672 H 0.76053 0.14497 0.4865 0.0
H673 H 0.6988 0.22957 0.49908 0.0
H674 H 0.74804 0.26203 0.51104 0.0
H675 H 0.80862 0.26599 0.51805 0.0
H676 H 0.86995 0.1811 0.50485 0.0
H677 H 0.82078 0.14906 0.49311 0.0
C678 C 0.75786 0.17043 0.49202 0.0
C679 C 0.72616 0.18483 0.49206 0.0
C680 C 0.78616 0.18886 0.49874 0.0
C681 C 0.72304 0.21804 0.49886 0.0
C682 C 0.75112 0.23653 0.50574 0.0
C683 C 0.81123 0.24047 0.51263 0.0
C684 C 0.84295 0.22599 0.51239 0.0
C685 C 0.78282 0.22216 0.50576 0.0
C686 C 0.84588 0.19294 0.5052 0.0
C687 C 0.81776 0.17453 0.49849 0.0
H688 H 0.97458 0.2328 0.71003 0.0
H689 H 0.97754 0.20118 0.76652 0.0
H690 H 0.9345 0.24154 0.77442 0.0
H691 H 0.90048 0.28981 0.76604 0.0
H692 H 0.9018 0.32424 0.71025 0.0
H693 H 0.93806 0.27838 0.70111 0.0
C694 C 0.96525 0.23429 0.72395 0.0
C695 C 0.97911 0.21413 0.73769 0.0
C696 C 0.94132 0.25813 0.72849 0.0
C697 C 0.9673 0.21665 0.75577 0.0
C698 C 0.94272 0.23967 0.76027 0.0
C699 C 0.9081 0.2867 0.75178 0.0
C700 C 0.89849 0.31018 0.7388 0.0
C701 C 0.93013 0.26111 0.74686 0.0
C702 C 0.90896 0.30638 0.72045 0.0
C703 C 0.92978 0.28029 0.71525 0.0
H704 H 0.92741 0.44877 0.98531 0.0
H705 H 0.85957 0.52647 0.96988 0.0
H706 H 0.81261 0.49334 0.97849 0.0
H707 H 0.79082 0.44328 0.99087 0.0
H708 H 0.85757 0.36524 0.00726 0.0
H709 H 0.90493 0.39742 0.99768 0.0
C710 C 0.9023 0.45826 0.98376 0.0
C711 C 0.89699 0.49014 0.97712 0.0
C712 C 0.87527 0.43908 0.9889 0.0
C713 C 0.86436 0.50225 0.97525 0.0
C714 C 0.83747 0.48327 0.98008 0.0
C715 C 0.81567 0.43309 0.99231 0.0
C716 C 0.82055 0.40182 0.99978 0.0
C717 C 0.84265 0.4518 0.98702 0.0
C718 C 0.85305 0.38925 0.00157 0.0
C719 C 0.88015 0.40765 0.99611 0.0
H720 H 0.66275 0.39214 0.25526 0.0
H721 H 0.73789 0.46019 0.23905 0.0
H722 H 0.7814 0.42328 0.25024 0.0
H723 H 0.79799 0.36917 0.26185 0.0
H724 H 0.72293 0.30312 0.27984 0.0
H725 H 0.67964 0.34268 0.27149 0.0
C726 C 0.68855 0.39958 0.25459 0.0
C727 C 0.69672 0.42872 0.24582 0.0
C728 C 0.7136 0.37861 0.26145 0.0
C729 C 0.73057 0.43741 0.24506 0.0
C730 C 0.75561 0.41645 0.25164 0.0
C731 C 0.77222 0.36375 0.26429 0.0
C732 C 0.76366 0.33308 0.27122 0.0
C733 C 0.74739 0.38655 0.25939 0.0
C734 C 0.73022 0.32654 0.2745 0.0
C735 C 0.70539 0.34903 0.26959 0.0
H736 H 0.23941 0.07264 0.44414 0.0
H737 H 0.27606 0.99486 0.40699 0.0
H738 H 0.28674 0.95989 0.43349 0.0
H739 H 0.28442 0.95115 0.46716 0.0
H740 H 0.24743 0.02955 0.50394 0.0
H741 H 0.23843 0.06462 0.4776 0.0
C742 C 0.25033 0.04828 0.44186 0.0
C743 C 0.25718 0.03648 0.42364 0.0
C744 C 0.25613 0.02833 0.45708 0.0
C745 C 0.27049 0.00449 0.42088 0.0
C746 C 0.27661 0.98451 0.43602 0.0
C747 C 0.27438 0.9759 0.46942 0.0
C748 C 0.26652 0.98758 0.48754 0.0
C749 C 0.26923 0.99607 0.45417 0.0
C750 C 0.25365 0.01981 0.49018 0.0
C751 C 0.24852 0.03996 0.47512 0.0
H752 H 0.11085 0.72192 0.69025 0.0
H753 H 0.18964 0.75572 0.65775 0.0
H754 H 0.21912 0.7804 0.68634 0.0
H755 H 0.22446 0.78734 0.72094 0.0
H756 H 0.14462 0.75279 0.75287 0.0
H757 H 0.11344 0.73365 0.72414 0.0
C758 C 0.13424 0.7352 0.68948 0.0
C759 C 0.14833 0.73702 0.67214 0.0
C760 C 0.15093 0.74886 0.70586 0.0
C761 C 0.17847 0.75426 0.67107 0.0
C762 C 0.19533 0.7681 0.68739 0.0
C763 C 0.2001 0.77593 0.7216 0.0
C764 C 0.18719 0.77112 0.7391 0.0
C765 C 0.18216 0.76479 0.70493 0.0
C766 C 0.15539 0.7566 0.73966 0.0
C767 C 0.13747 0.74558 0.72322 0.0
H768 H 0.44922 0.58417 0.93524 0.0
H769 H 0.40859 0.65294 0.89623 0.0
H770 H 0.38485 0.6859 0.92197 0.0
H771 H 0.37896 0.69693 0.95593 0.0
H772 H 0.4211 0.62783 0.99453 0.0
H773 H 0.44107 0.59344 0.96858 0.0
C774 C 0.4352 0.60642 0.93237 0.0
C775 C 0.43102 0.61637 0.91393 0.0
C776 C 0.42206 0.6253 0.94719 0.0
C777 C 0.41211 0.64477 0.91034 0.0
C778 C 0.39872 0.6637 0.92506 0.0
C779 C 0.3923 0.67423 0.95865 0.0
C780 C 0.39873 0.66523 0.97721 0.0
C781 C 0.40401 0.65448 0.9436 0.0
C782 C 0.41596 0.63561 0.98044 0.0
C783 C 0.42743 0.61584 0.9656 0.0
H784 H 0.5452 0.97253 0.20061 0.0
H785 H 0.45798 0.94585 0.16476 0.0
H786 H 0.43105 0.92437 0.19137 0.0
H787 H 0.43386 0.9098 0.22451 0.0
H788 H 0.52326 0.93292 0.25922 0.0
H789 H 0.54785 0.95885 0.23332 0.0
C790 C 0.52044 0.96169 0.19849 0.0
C791 C 0.50388 0.96047 0.18059 0.0
C792 C 0.50548 0.94869 0.21369 0.0
C793 C 0.47133 0.94727 0.17836 0.0
C794 C 0.45596 0.93481 0.19356 0.0
C795 C 0.45853 0.92094 0.22642 0.0
C796 C 0.47673 0.9195 0.24374 0.0
C797 C 0.47296 0.93501 0.21126 0.0
C798 C 0.50882 0.93363 0.246 0.0
C799 C 0.52292 0.94842 0.2312 0.0
H800 H 0.07577 0.69847 0.87054 0.0
H801 H 0.14407 0.73737 0.91527 0.0
H802 H 0.17689 0.76436 0.89255 0.0
H803 H 0.18826 0.77314 0.85949 0.0
H804 H 0.12113 0.73031 0.81526 0.0
H805 H 0.0852 0.70939 0.83826 0.0
C806 C 0.09743 0.71346 0.8754 0.0
C807 C 0.10738 0.71608 0.89456 0.0
C808 C 0.11635 0.72823 0.8623 0.0
C809 C 0.13601 0.73488 0.90056 0.0
C810 C 0.1547 0.75035 0.88759 0.0
C811 C 0.16539 0.75982 0.855 0.0
C812 C 0.15716 0.75331 0.83578 0.0
C813 C 0.14542 0.74672 0.86836 0.0
C814 C 0.12786 0.73552 0.83002 0.0
C815 C 0.1074 0.72348 0.84314 0.0
H816 H 0.42503 0.60386 0.13638 0.0
H817 H 0.5253 0.6408 0.13299 0.0
H818 H 0.50832 0.66953 0.1051 0.0
H819 H 0.46614 0.6818 0.08078 0.0
H820 H 0.3652 0.6469 0.08381 0.0
H821 H 0.38123 0.61962 0.11272 0.0
C822 C 0.44301 0.61841 0.12957 0.0
C823 C 0.47636 0.62026 0.13678 0.0
C824 C 0.43306 0.63495 0.11342 0.0
C825 C 0.4994 0.63936 0.12791 0.0
C826 C 0.48979 0.65558 0.11185 0.0
C827 C 0.44759 0.66822 0.08776 0.0
C828 C 0.41467 0.66592 0.08007 0.0
C829 C 0.45687 0.65314 0.10436 0.0
C830 C 0.39076 0.64885 0.08945 0.0
C831 C 0.39994 0.63325 0.10594 0.0
H832 H 0.45133 0.96346 0.39993 0.0
H833 H 0.55467 0.94722 0.3899 0.0
H834 H 0.5389 0.91115 0.3621 0.0
H835 H 0.4957 0.88873 0.33907 0.0
H836 H 0.3922 0.90194 0.34976 0.0
H837 H 0.40784 0.93434 0.37902 0.0
C838 C 0.47022 0.95145 0.39178 0.0
C839 C 0.50401 0.95789 0.39677 0.0
C840 C 0.46095 0.93046 0.37594 0.0
C841 C 0.52849 0.94231 0.38628 0.0
C842 C 0.5195 0.9219 0.37036 0.0
C843 C 0.47665 0.89832 0.34799 0.0
C844 C 0.44294 0.89338 0.34229 0.0
C845 C 0.48583 0.91646 0.36482 0.0
C846 C 0.41835 0.90547 0.35396 0.0
C847 C 0.42727 0.92414 0.3706 0.0
H848 H 0.27129 0.04538 0.65567 0.0
H849 H 0.17113 0.00534 0.65168 0.0
H850 H 0.17959 0.98056 0.62062 0.0
H851 H 0.21342 0.97374 0.59364 0.0
H852 H 0.31439 0.01076 0.59702 0.0
H853 H 0.30766 0.03353 0.6292 0.0
C854 C 0.25156 0.03082 0.64806 0.0
C855 C 0.22067 0.02715 0.65605 0.0
C856 C 0.25653 0.01661 0.63001 0.0
C857 C 0.19534 0.0081 0.64607 0.0
C858 C 0.19998 0.99423 0.62817 0.0
C859 C 0.23396 0.98682 0.60144 0.0
C860 C 0.26408 0.99127 0.59296 0.0
C861 C 0.23013 0.99895 0.61988 0.0
C862 C 0.29086 0.00739 0.6033 0.0
C863 C 0.28699 0.02035 0.62165 0.0
H864 H 0.57219 0.42805 0.92252 0.0
H865 H 0.63908 0.38104 0.8845 0.0
H866 H 0.67176 0.35914 0.91099 0.0
H867 H 0.68384 0.35778 0.94532 0.0
H868 H 0.61916 0.40976 0.98273 0.0
H869 H 0.58253 0.42469 0.95619 0.0
C870 C 0.59349 0.41237 0.91999 0.0
C871 C 0.6031 0.40591 0.90161 0.0
C872 C 0.61252 0.40083 0.93524 0.0
C873 C 0.63126 0.38631 0.89857 0.0
C874 C 0.64989 0.37382 0.91369 0.0
C875 C 0.66131 0.37173 0.94756 0.0
C876 C 0.65387 0.3825 0.96584 0.0
C877 C 0.64113 0.38148 0.93214 0.0
C878 C 0.62514 0.40119 0.96871 0.0
C879 C 0.60431 0.40982 0.95357 0.0
H880 H 0.73039 0.16088 0.1622 0.0
H881 H 0.69883 0.07703 0.19182 0.0
H882 H 0.72678 0.10054 0.22068 0.0
H883 H 0.75801 0.14567 0.23788 0.0
H884 H 0.79022 0.23004 0.20893 0.0
H885 H 0.76436 0.20555 0.17948 0.0
C886 C 0.72978 0.14782 0.17499 0.0
C887 C 0.71274 0.11719 0.17483 0.0
C888 C 0.74593 0.16156 0.19166 0.0
C889 C 0.71224 0.10038 0.19148 0.0
C890 C 0.72803 0.1139 0.20803 0.0
C891 C 0.75954 0.1587 0.22513 0.0
C892 C 0.77582 0.18973 0.22565 0.0
C893 C 0.74468 0.14455 0.20832 0.0
C894 C 0.77783 0.20608 0.20893 0.0
C895 C 0.76294 0.19216 0.19209 0.0
H896 H 0.07393 0.25285 0.4298 0.0
H897 H 0.05244 0.14756 0.42815 0.0
H898 H 0.01958 0.15558 0.45552 0.0
H899 H 0.99729 0.19204 0.47999 0.0
H900 H 0.01616 0.29776 0.48156 0.0
H901 H 0.04985 0.29011 0.45423 0.0
C902 C 0.06198 0.23177 0.43548 0.0
C903 C 0.06542 0.1997 0.42692 0.0
C904 C 0.04282 0.2366 0.45121 0.0
C905 C 0.04973 0.17254 0.43432 0.0
C906 C 0.03112 0.17707 0.45004 0.0
C907 C 0.00888 0.21345 0.47443 0.0
C908 C 0.00449 0.24538 0.48287 0.0
C909 C 0.02757 0.20892 0.45861 0.0
C910 C 0.01926 0.2729 0.47531 0.0
C911 C 0.0385 0.26852 0.4597 0.0
H912 H 0.92441 0.54977 0.65824 0.0
H913 H 0.00665 0.48242 0.65204 0.0
H914 H 0.98471 0.44726 0.675 0.0
H915 H 0.94509 0.43802 0.69864 0.0
H916 H 0.8613 0.50312 0.7046 0.0
H917 H 0.88058 0.5366 0.6797 0.0
C918 C 0.93712 0.52705 0.66164 0.0
C919 C 0.96752 0.51912 0.6537 0.0
C920 C 0.92427 0.50674 0.6749 0.0
C921 C 0.98368 0.48956 0.65827 0.0
C922 C 0.97112 0.46936 0.67137 0.0
C923 C 0.93092 0.45945 0.69441 0.0
C924 C 0.90218 0.46851 0.70359 0.0
C925 C 0.94198 0.4782 0.68011 0.0
C926 C 0.88362 0.49583 0.69775 0.0
C927 C 0.89471 0.51498 0.68357 0.0
H928 H 0.66997 0.19241 0.37888 0.0
H929 H 0.71516 0.09566 0.3808 0.0
H930 H 0.7466 0.10667 0.35374 0.0
H931 H 0.76094 0.14328 0.3294 0.0
H932 H 0.71731 0.24073 0.32749 0.0
H933 H 0.6853 0.22984 0.35455 0.0
C934 C 0.68667 0.17377 0.37332 0.0
C935 C 0.69033 0.14332 0.38189 0.0
C936 C 0.70479 0.1803 0.35772 0.0
C937 C 0.71227 0.11948 0.37465 0.0
C938 C 0.73008 0.12565 0.35909 0.0
C939 C 0.74431 0.16213 0.33483 0.0
C940 C 0.74133 0.19268 0.32637 0.0
C941 C 0.72646 0.1559 0.35049 0.0
C942 C 0.71999 0.21697 0.33373 0.0
C943 C 0.70171 0.21076 0.3492 0.0
H944 H 0.00642 0.22946 0.64825 0.0
H945 H 0.08808 0.18868 0.61821 0.0
H946 H 0.06351 0.20842 0.58905 0.0
H947 H 0.01747 0.23406 0.57175 0.0
H948 H 0.93531 0.27524 0.60123 0.0
H949 H 0.96155 0.25884 0.63093 0.0
C950 C 0.019 0.22541 0.63535 0.0
C951 C 0.04878 0.2073 0.63532 0.0
C952 C 0.00456 0.23664 0.61852 0.0
C953 C 0.06484 0.20209 0.61851 0.0
C954 C 0.05085 0.21339 0.60184 0.0
C955 C 0.00528 0.23957 0.58466 0.0
C956 C 0.9743 0.25552 0.58422 0.0
C957 C 0.02042 0.23008 0.60161 0.0
C958 C 0.95912 0.26285 0.60115 0.0
C959 C 0.97409 0.25345 0.61814 0.0
H960 H 0.96255 0.52492 0.85062 0.0
H961 H 0.89657 0.4748 0.88531 0.0
H962 H 0.87115 0.44387 0.85758 0.0
H963 H 0.86878 0.43018 0.82359 0.0
H964 H 0.93544 0.48033 0.78917 0.0
H965 H 0.9598 0.51181 0.81679 0.0
C966 C 0.94279 0.50702 0.85215 0.0
C967 C 0.93167 0.50195 0.87003 0.0
C968 C 0.92852 0.48924 0.83622 0.0
C969 C 0.90548 0.47928 0.8717 0.0
C970 C 0.89108 0.46146 0.85587 0.0
C971 C 0.88866 0.44796 0.82211 0.0
C972 C 0.90031 0.45272 0.80429 0.0
C973 C 0.90257 0.4661 0.83807 0.0
C974 C 0.92597 0.47606 0.80267 0.0
C975 C 0.93995 0.49411 0.81847 0.0
H976 H 0.62342 0.44665 0.10985 0.0
H977 H 0.69146 0.39729 0.14754 0.0
H978 H 0.71952 0.37191 0.12075 0.0
H979 H 0.72602 0.36626 0.08644 0.0
H980 H 0.65694 0.41682 0.04957 0.0
H981 H 0.62831 0.43951 0.07624 0.0
C982 C 0.64444 0.43034 0.11221 0.0
C983 C 0.65569 0.42414 0.13058 0.0
C984 C 0.66043 0.41629 0.09688 0.0
C985 C 0.68241 0.40238 0.13347 0.0
C986 C 0.69854 0.38809 0.11818 0.0
C987 C 0.70472 0.38224 0.08428 0.0
C988 C 0.69386 0.38994 0.06598 0.0
C989 C 0.68805 0.39528 0.09979 0.0
C990 C 0.66598 0.41046 0.06343 0.0
C991 C 0.64949 0.4235 0.07869 0.0
loop_
_geom_bond_atom_site_label_1
_geom_bond_atom_site_label_2
_geom_bond_distance
_geom_bond_site_symmetry_2
_ccdc_geom_bond_type
C0 C1 1.384 . S
C0 C2 1.384 . S
C0 H28 0.931 . S
C1 C0 1.384 . S
C1 C4 1.382 1_565 S
C2 C0 1.384 . S
C2 C3 1.381 1_565 S
C2 H29 0.930 . S
C3 C2 1.381 1_545 S
C3 C5 1.381 . S
C3 C6 1.487 . S
C4 C1 1.382 1_545 S
C4 C5 1.387 . S
C4 H30 0.930 . S
C5 C3 1.381 . S
C5 C4 1.387 . S
C5 H31 0.931 . S
C6 C3 1.487 . S
C6 C13 1.399 . S
C6 N44 1.343 . S
C7 C8 1.384 . S
C7 C9 1.384 1_565 S
C7 H32 0.931 . S
C8 C7 1.384 . S
C8 C11 1.382 . S
C9 C7 1.384 1_545 S
C9 C10 1.381 . S
C9 H33 0.930 . S
C10 C9 1.381 . S
C10 C12 1.381 1_545 S
C10 C13 1.487 . S
C11 C8 1.382 . S
C11 C12 1.387 . S
C11 H34 0.930 . S
C12 C10 1.381 1_565 S
C12 C11 1.387 . S
C12 H35 0.931 . S
C13 C6 1.399 . S
C13 C10 1.487 . S
C13 N45 1.343 . S
C14 C15 1.384 . S
C14 C16 1.384 . S
C14 H36 0.931 . S
C15 C14 1.384 . S
C15 C18 1.382 . S
C16 C14 1.384 . S
C16 C17 1.381 . S
C16 H37 0.930 . S
C17 C16 1.381 . S
C17 C19 1.381 . S
C17 C20 1.487 . S
C18 C15 1.382 . S
C18 C19 1.387 . S
C18 H38 0.930 . S
C19 C17 1.381 . S
C19 C18 1.387 . S
C19 H39 0.931 . S
C20 C17 1.487 . S
C20 C27 1.399 . S
C20 N45 1.343 . S
C21 C22 1.384 . S
C21 C23 1.384 . S
C21 H40 0.931 1_455 S
C22 C21 1.384 . S
C22 C25 1.382 . S
C23 C21 1.384 . S
C23 C24 1.381 . S
C23 H41 0.930 . S
C24 C23 1.381 . S
C24 C26 1.381 . S
C24 C27 1.487 . S
C25 C22 1.382 . S
C25 C26 1.387 . S
C25 H42 0.930 . S
C26 C24 1.381 . S
C26 C25 1.387 . S
C26 H43 0.931 . S
C27 C20 1.399 . S
C27 C24 1.487 . S
C27 N44 1.343 . S
H28 C0 0.931 . S
H29 C2 0.930 . S
H30 C4 0.930 . S
H31 C5 0.931 . S
H32 C7 0.931 . S
H33 C9 0.930 . S
H34 C11 0.930 . S
H35 C12 0.931 . S
H36 C14 0.931 . S
H37 C16 0.930 . S
H38 C18 0.930 . S
H39 C19 0.931 . S
H40 C21 0.931 1_655 S
H41 C23 0.930 . S
H42 C25 0.930 . S
H43 C26 0.931 . S
N44 C6 1.343 . S
N44 C27 1.343 . S
N45 C13 1.343 . S
N45 C20 1.343 . S
C46 C47 1.384 . S
C46 C48 1.384 . S
C46 H74 0.931 . S
C47 C46 1.384 . S
C47 C50 1.382 . S
C48 C46 1.384 . S
C48 C49 1.381 1_655 S
C48 H75 0.930 . S
C49 C48 1.381 1_455 S
C49 C51 1.381 . S
C49 C52 1.487 . S
C50 C47 1.382 . S
C50 C51 1.387 1_655 S
C50 H76 0.929 1_655 S
C51 C49 1.381 . S
C51 C50 1.387 1_455 S
C51 H77 0.931 . S
C52 C49 1.487 . S
C52 C59 1.399 . S
C52 N90 1.343 . S
C53 C54 1.384 1_455 S
C53 C55 1.384 . S
C53 H78 0.931 . S
C54 C53 1.384 1_655 S
C54 C57 1.382 . S
C55 C53 1.384 . S
C55 C56 1.381 . S
C55 H79 0.930 . S
C56 C55 1.381 . S
C56 C58 1.374 1_455 S
C56 C59 1.487 . S
C57 C54 1.382 . S
C57 C58 1.394 . S
C57 H80 0.930 . S
C58 C56 1.374 1_655 S
C58 C57 1.394 . S
C58 H81 0.932 . S
C59 C52 1.399 . S
C59 C56 1.487 . S
C59 N91 1.343 . S
C60 C61 1.384 . S
C60 C62 1.384 . S
C60 H82 0.931 . S
C61 C60 1.384 . S
C61 C64 1.382 . S
C62 C60 1.384 . S
C62 C63 1.381 . S
C62 H83 0.930 . S
C63 C62 1.381 . S
C63 C65 1.381 . S
C63 C66 1.487 . S
C64 C61 1.382 . S
C64 C65 1.387 . S
C64 H84 0.930 . S
C65 C63 1.381 . S
C65 C64 1.387 . S
C65 H85 0.931 . S
C66 C63 1.487 . S
C66 C73 1.399 . S
C66 N91 1.343 . S
C67 C68 1.384 . S
C67 C69 1.384 . S
C67 H86 0.931 . S
C68 C67 1.384 . S
C68 C71 1.382 . S
C69 C67 1.384 . S
C69 C70 1.381 . S
C69 H87 0.930 . S
C70 C69 1.381 . S
C70 C72 1.381 . S
C70 C73 1.487 . S
C71 C68 1.382 . S
C71 C72 1.387 . S
C71 H88 0.930 . S
C72 C70 1.381 . S
C72 C71 1.387 . S
C72 H89 0.931 . S
C73 C66 1.399 . S
C73 C70 1.487 . S
C73 N90 1.343 . S
H74 C46 0.931 . S
H75 C48 0.930 . S
H76 C50 0.929 1_455 S
H77 C51 0.931 . S
H78 C53 0.931 . S
H79 C55 0.930 . S
H80 C57 0.930 . S
H81 C58 0.932 . S
H82 C60 0.931 . S
H83 C62 0.930 . S
H84 C64 0.930 . S
H85 C65 0.931 . S
H86 C67 0.931 . S
H87 C69 0.930 . S
H88 C71 0.930 . S
H89 C72 0.931 . S
N90 C52 1.343 . S
N90 C73 1.343 . S
N91 C59 1.343 . S
N91 C66 1.343 . S
C92 C93 1.384 . S
C92 C94 1.384 . S
C92 H120 0.931 . S
C93 C92 1.384 . S
C93 C96 1.382 . S
C94 C92 1.384 . S
C94 C95 1.381 . S
C94 H121 0.930 . S
C95 C94 1.381 . S
C95 C97 1.381 . S
C95 C98 1.487 . S
C96 C93 1.382 . S
C96 C97 1.387 . S
C96 H122 0.930 . S
C97 C95 1.381 . S
C97 C96 1.387 . S
C97 H123 0.931 . S
C98 C95 1.487 . S
C98 C105 1.399 . S
C98 N136 1.343 . S
C99 C100 1.384 . S
C99 C101 1.384 . S
C99 H124 0.931 . S
C100 C99 1.384 . S
C100 C103 1.382 . S
C101 C99 1.384 . S
C101 C102 1.381 . S
C101 H125 0.930 . S
C102 C101 1.381 . S
C102 C104 1.381 . S
C102 C105 1.487 . S
C103 C100 1.382 . S
C103 C104 1.387 . S
C103 H126 0.930 . S
C104 C102 1.381 . S
C104 C103 1.387 . S
C104 H127 0.931 . S
C105 C98 1.399 . S
C105 C102 1.487 . S
C105 N137 1.343 . S
C106 C107 1.384 . S
C106 C108 1.384 . S
C106 H128 0.931 . S
C107 C106 1.384 . S
C107 C110 1.382 . S
C108 C106 1.384 . S
C108 C109 1.381 . S
C108 H129 0.930 . S
C109 C108 1.381 . S
C109 C111 1.381 . S
C109 C112 1.487 . S
C110 C107 1.382 . S
C110 C111 1.387 . S
C110 H130 0.930 . S
C111 C109 1.381 . S
C111 C110 1.387 . S
C111 H131 0.931 . S
C112 C109 1.487 . S
C112 C119 1.399 . S
C112 N137 1.343 . S
C113 C114 1.384 . S
C113 C115 1.384 . S
C113 H132 0.931 . S
C114 C113 1.384 . S
C114 C117 1.382 . S
C115 C113 1.384 . S
C115 C116 1.381 . S
C115 H133 0.930 . S
C116 C115 1.381 . S
C116 C118 1.381 . S
C116 C119 1.487 . S
C117 C114 1.382 . S
C117 C118 1.387 . S
C117 H134 0.930 . S
C118 C116 1.381 . S
C118 C117 1.387 . S
C118 H135 0.931 . S
C119 C112 1.399 . S
C119 C116 1.487 . S
C119 N136 1.343 . S
H120 C92 0.931 . S
H121 C94 0.930 . S
H122 C96 0.930 . S
H123 C97 0.931 . S
H124 C99 0.931 . S
H125 C101 0.930 . S
H126 C103 0.930 . S
H127 C104 0.931 . S
H128 C106 0.931 . S
H129 C108 0.930 . S
H130 C110 0.930 . S
H131 C111 0.931 . S
H132 C113 0.931 . S
H133 C115 0.930 . S
H134 C117 0.930 . S
H135 C118 0.931 . S
N136 C98 1.343 . S
N136 C119 1.343 . S
N137 C105 1.343 . S
N137 C112 1.343 . S
C138 C139 1.384 . S
C138 C140 1.384 . S
C138 H166 0.931 . S
C139 C138 1.384 . S
C139 C142 1.382 . S
C140 C138 1.384 . S
C140 C141 1.381 . S
C140 H167 0.930 . S
C141 C140 1.381 . S
C141 C143 1.381 . S
C141 C144 1.487 . S
C142 C139 1.382 . S
C142 C143 1.387 . S
C142 H168 0.930 . S
C143 C141 1.381 . S
C143 C142 1.387 . S
C143 H169 0.931 . S
C144 C141 1.487 . S
C144 C151 1.399 . S
C144 N182 1.343 1_565 S
C145 C146 1.384 . S
C145 C147 1.384 . S
C145 H170 0.931 . S
C146 C145 1.384 . S
C146 C149 1.382 . S
C147 C145 1.384 . S
C147 C148 1.381 . S
C147 H171 0.930 . S
C148 C147 1.381 . S
C148 C150 1.381 . S
C148 C151 1.487 . S
C149 C146 1.382 . S
C149 C150 1.387 . S
C149 H172 0.930 . S
C150 C148 1.381 . S
C150 C149 1.387 . S
C150 H173 0.931 . S
C151 C144 1.399 . S
C151 C148 1.487 . S
C151 N183 1.343 . S
C152 C153 1.384 . S
C152 C154 1.384 . S
C152 H174 0.931 . S
C153 C152 1.384 . S
C153 C156 1.382 . S
C154 C152 1.384 . S
C154 C155 1.381 . S
C154 H175 0.930 . S
C155 C154 1.381 . S
C155 C157 1.381 . S
C155 C158 1.487 . S
C156 C153 1.382 . S
C156 C157 1.387 . S
C156 H176 0.930 . S
C157 C155 1.381 . S
C157 C156 1.387 . S
C157 H177 0.931 . S
C158 C155 1.487 . S
C158 C165 1.399 . S
C158 N183 1.343 1_545 S
C159 C160 1.384 . S
C159 C161 1.384 . S
C159 H178 0.931 . S
C160 C159 1.384 . S
C160 C163 1.382 . S
C161 C159 1.384 . S
C161 C162 1.381 . S
C161 H179 0.930 . S
C162 C161 1.381 . S
C162 C164 1.381 . S
C162 C165 1.487 . S
C163 C160 1.382 . S
C163 C164 1.387 . S
C163 H180 0.930 . S
C164 C162 1.381 . S
C164 C163 1.387 . S
C164 H181 0.931 . S
C165 C158 1.399 . S
C165 C162 1.487 . S
C165 N182 1.343 . S
H166 C138 0.931 . S
H167 C140 0.930 . S
H168 C142 0.930 . S
H169 C143 0.931 . S
H170 C145 0.931 . S
H171 C147 0.930 . S
H172 C149 0.930 . S
H173 C150 0.931 . S
H174 C152 0.931 . S
H175 C154 0.930 . S
H176 C156 0.930 . S
H177 C157 0.931 . S
H178 C159 0.931 . S
H179 C161 0.930 . S
H180 C163 0.930 . S
H181 C164 0.931 . S
N182 C144 1.343 1_545 S
N182 C165 1.343 . S
N183 C151 1.343 . S
N183 C158 1.343 1_565 S
C184 C185 1.384 . S
C184 C186 1.384 . S
C184 H212 0.931 . S
C185 C184 1.384 . S
C185 C188 1.382 . S
C186 C184 1.384 . S
C186 C187 1.381 . S
C186 H213 0.930 . S
C187 C186 1.381 . S
C187 C189 1.381 . S
C187 C190 1.487 . S
C188 C185 1.382 . S
C188 C189 1.387 . S
C188 H214 0.930 . S
C189 C187 1.381 . S
C189 C188 1.387 . S
C189 H215 0.931 . S
C190 C187 1.487 . S
C190 C197 1.399 . S
C190 N228 1.338 1_455 S
C191 C192 1.384 1_556 S
C191 C193 1.384 . S
C191 H216 0.931 . S
C192 C191 1.384 1_554 S
C192 C195 1.382 . S
C193 C191 1.384 . S
C193 C194 1.381 . S
C193 H217 0.930 . S
C194 C193 1.381 . S
C194 C196 1.381 . S
C194 C197 1.487 . S
C195 C192 1.382 . S
C195 C196 1.387 1_554 S
C195 H218 0.930 . S
C196 C194 1.381 . S
C196 C195 1.387 1_556 S
C196 H219 0.931 . S
C197 C190 1.399 . S
C197 C194 1.487 . S
C197 N229 1.361 . S
C198 C199 1.384 . S
C198 C200 1.384 . S
C198 H220 0.931 . S
C199 C198 1.384 . S
C199 C202 1.382 . S
C200 C198 1.384 . S
C200 C201 1.381 . S
C200 H221 0.930 . S
C201 C200 1.381 . S
C201 C203 1.381 . S
C201 C204 1.487 . S
C202 C199 1.382 . S
C202 C203 1.387 . S
C202 H222 0.930 1_556 S
C203 C201 1.381 . S
C203 C202 1.387 . S
C203 H223 0.931 . S
C204 C201 1.487 . S
C204 C211 1.399 . S
C204 N229 1.327 1_655 S
C205 C206 1.384 . S
C205 C207 1.384 . S
C205 H224 0.931 . S
C206 C205 1.384 . S
C206 C209 1.382 . S
C207 C205 1.384 . S
C207 C208 1.381 . S
C207 H225 0.930 . S
C208 C207 1.381 . S
C208 C210 1.381 . S
C208 C211 1.487 . S
C209 C206 1.382 . S
C209 C210 1.387 . S
C209 H226 0.930 . S
C210 C208 1.381 . S
C210 C209 1.387 . S
C210 H227 0.931 . S
C211 C204 1.399 . S
C211 C208 1.487 . S
C211 N228 1.349 . S
H212 C184 0.931 . S
H213 C186 0.930 . S
H214 C188 0.930 . S
H215 C189 0.931 . S
H216 C191 0.931 . S
H217 C193 0.930 . S
H218 C195 0.930 . S
H219 C196 0.931 . S
H220 C198 0.931 . S
H221 C200 0.930 . S
H222 C202 0.930 1_554 S
H223 C203 0.931 . S
H224 C205 0.931 . S
H225 C207 0.930 . S
H226 C209 0.930 . S
H227 C210 0.931 . S
N228 C190 1.338 1_655 S
N228 C211 1.349 . S
N229 C197 1.361 . S
N229 C204 1.327 1_455 S
C230 C231 1.384 . S
C230 C232 1.384 . S
C230 H258 0.931 . S
C231 C230 1.384 . S
C231 C234 1.382 . S
C232 C230 1.384 . S
C232 C233 1.381 . S
C232 H259 0.930 . S
C233 C232 1.381 . S
C233 C235 1.381 . S
C233 C236 1.487 . S
C234 C231 1.382 . S
C234 C235 1.387 . S
C234 H260 0.930 . S
C235 C233 1.381 . S
C235 C234 1.387 . S
C235 H261 0.931 . S
C236 C233 1.487 . S
C236 C243 1.399 . S
C236 N274 1.343 . S
C237 C238 1.384 . S
C237 C239 1.384 . S
C237 H262 0.931 . S
C238 C237 1.384 . S
C238 C241 1.382 . S
C239 C237 1.384 . S
C239 C240 1.381 . S
C239 H263 0.930 . S
C240 C239 1.381 . S
C240 C242 1.381 . S
C240 C243 1.487 . S
C241 C238 1.382 . S
C241 C242 1.387 . S
C241 H264 0.930 . S
C242 C240 1.381 . S
C242 C241 1.387 . S
C242 H265 0.931 . S
C243 C236 1.399 . S
C243 C240 1.487 . S
C243 N275 1.343 . S
C244 C245 1.384 . S
C244 C246 1.384 . S
C244 H266 0.931 . S
C245 C244 1.384 . S
C245 C248 1.382 . S
C246 C244 1.384 . S
C246 C247 1.381 . S
C246 H267 0.930 . S
C247 C246 1.381 . S
C247 C249 1.381 . S
C247 C250 1.487 . S
C248 C245 1.382 . S
C248 C249 1.387 . S
C248 H268 0.930 . S
C249 C247 1.381 . S
C249 C248 1.387 . S
C249 H269 0.931 . S
C250 C247 1.487 . S
C250 C257 1.399 . S
C250 N275 1.343 . S
C251 C252 1.384 . S
C251 C253 1.384 . S
C251 H270 0.931 . S
C252 C251 1.384 . S
C252 C255 1.382 . S
C253 C251 1.384 . S
C253 C254 1.381 . S
C253 H271 0.930 . S
C254 C253 1.381 . S
C254 C256 1.381 . S
C254 C257 1.487 . S
C255 C252 1.382 . S
C255 C256 1.387 . S
C255 H272 0.930 . S
C256 C254 1.381 . S
C256 C255 1.387 . S
C256 H273 0.931 . S
C257 C250 1.399 . S
C257 C254 1.487 . S
C257 N274 1.343 . S
H258 C230 0.931 . S
H259 C232 0.930 . S
H260 C234 0.930 . S
H261 C235 0.931 . S
H262 C237 0.931 . S
H263 C239 0.930 . S
H264 C241 0.930 . S
H265 C242 0.931 . S
H266 C244 0.931 . S
H267 C246 0.930 . S
H268 C248 0.930 . S
H269 C249 0.931 . S
H270 C251 0.931 . S
H271 C253 0.930 . S
H272 C255 0.930 . S
H273 C256 0.931 . S
N274 C236 1.343 . S
N274 C257 1.343 . S
N275 C243 1.343 . S
N275 C250 1.343 . S
C276 C277 1.384 . S
C276 C278 1.384 . S
C276 H304 0.931 . S
C277 C276 1.384 . S
C277 C280 1.382 . S
C278 C276 1.384 . S
C278 C279 1.381 . S
C278 H305 0.930 . S
C279 C278 1.381 . S
C279 C281 1.381 . S
C279 C282 1.487 1_565 S
C280 C277 1.382 . S
C280 C281 1.387 . S
C280 H306 0.930 . S
C281 C279 1.381 . S
C281 C280 1.387 . S
C281 H307 0.931 1_565 S
C282 C279 1.487 1_545 S
C282 C289 1.399 . S
C282 N320 1.343 . S
C283 C284 1.384 . S
C283 C285 1.384 . S
C283 H308 0.931 . S
C284 C283 1.384 . S
C284 C287 1.382 . S
C285 C283 1.384 . S
C285 C286 1.381 . S
C285 H309 0.930 1_565 S
C286 C285 1.381 . S
C286 C288 1.381 . S
C286 C289 1.487 1_565 S
C287 C284 1.382 . S
C287 C288 1.387 . S
C287 H310 0.930 . S
C288 C286 1.381 . S
C288 C287 1.387 . S
C288 H311 0.931 . S
C289 C282 1.399 . S
C289 C286 1.487 1_545 S
C289 N321 1.343 . S
C290 C291 1.384 . S
C290 C292 1.384 . S
C290 H312 0.931 . S
C291 C290 1.384 . S
C291 C294 1.382 . S
C292 C290 1.384 . S
C292 C293 1.381 . S
C292 H313 0.930 . S
C293 C292 1.381 . S
C293 C295 1.381 . S
C293 C296 1.487 . S
C294 C291 1.382 . S
C294 C295 1.387 . S
C294 H314 0.930 . S
C295 C293 1.381 . S
C295 C294 1.387 . S
C295 H315 0.931 . S
C296 C293 1.487 . S
C296 C303 1.399 . S
C296 N321 1.343 . S
C297 C298 1.384 . S
C297 C299 1.384 . S
C297 H316 0.931 . S
C298 C297 1.384 . S
C298 C301 1.382 . S
C299 C297 1.384 . S
C299 C300 1.381 . S
C299 H317 0.930 . S
C300 C299 1.381 . S
C300 C302 1.381 . S
C300 C303 1.487 . S
C301 C298 1.382 . S
C301 C302 1.387 . S
C301 H318 0.930 . S
C302 C300 1.381 . S
C302 C301 1.387 . S
C302 H319 0.931 . S
C303 C296 1.399 . S
C303 C300 1.487 . S
C303 N320 1.343 . S
H304 C276 0.931 . S
H305 C278 0.930 . S
H306 C280 0.930 . S
H307 C281 0.931 1_545 S
H308 C283 0.931 . S
H309 C285 0.930 1_545 S
H310 C287 0.930 . S
H311 C288 0.931 . S
H312 C290 0.931 . S
H313 C292 0.930 . S
H314 C294 0.930 . S
H315 C295 0.931 . S
H316 C297 0.931 . S
H317 C299 0.930 . S
H318 C301 0.930 . S
H319 C302 0.931 . S
N320 C282 1.343 . S
N320 C303 1.343 . S
N321 C289 1.343 . S
N321 C296 1.343 . S
C322 C323 1.384 . S
C322 C324 1.384 . S
C322 H350 0.931 . S
C323 C322 1.384 . S
C323 C326 1.382 . S
C324 C322 1.384 . S
C324 C325 1.381 . S
C324 H351 0.930 . S
C325 C324 1.381 . S
C325 C327 1.381 . S
C325 C328 1.487 . S
C326 C323 1.382 . S
C326 C327 1.387 . S
C326 H352 0.930 . S
C327 C325 1.381 . S
C327 C326 1.387 . S
C327 H353 0.931 . S
C328 C325 1.487 . S
C328 C335 1.399 . S
C328 N366 1.343 . S
C329 C330 1.384 . S
C329 C331 1.384 . S
C329 H354 0.931 . S
C330 C329 1.384 . S
C330 C333 1.382 . S
C331 C329 1.384 . S
C331 C332 1.381 . S
C331 H355 0.930 . S
C332 C331 1.381 . S
C332 C334 1.381 . S
C332 C335 1.487 . S
C333 C330 1.382 . S
C333 C334 1.387 . S
C333 H356 0.930 . S
C334 C332 1.381 . S
C334 C333 1.387 . S
C334 H357 0.931 . S
C335 C328 1.399 . S
C335 C332 1.487 . S
C335 N367 1.343 . S
C336 C337 1.384 . S
C336 C338 1.384 . S
C336 H358 0.931 1_455 S
C337 C336 1.384 . S
C337 C340 1.382 . S
C338 C336 1.384 . S
C338 C339 1.381 . S
C338 H359 0.930 . S
C339 C338 1.381 . S
C339 C341 1.381 . S
C339 C342 1.487 . S
C340 C337 1.382 . S
C340 C341 1.387 . S
C340 H360 0.930 . S
C341 C339 1.381 . S
C341 C340 1.387 . S
C341 H361 0.931 . S
C342 C339 1.487 . S
C342 C349 1.399 . S
C342 N367 1.343 . S
C343 C344 1.384 . S
C343 C345 1.384 . S
C343 H362 0.931 . S
C344 C343 1.384 . S
C344 C347 1.382 . S
C345 C343 1.384 . S
C345 C346 1.381 . S
C345 H363 0.930 . S
C346 C345 1.381 . S
C346 C348 1.381 . S
C346 C349 1.487 . S
C347 C344 1.382 . S
C347 C348 1.387 . S
C347 H364 0.930 . S
C348 C346 1.381 . S
C348 C347 1.387 . S
C348 H365 0.931 . S
C349 C342 1.399 . S
C349 C346 1.487 . S
C349 N366 1.343 . S
H350 C322 0.931 . S
H351 C324 0.930 . S
H352 C326 0.930 . S
H353 C327 0.931 . S
H354 C329 0.931 . S
H355 C331 0.930 . S
H356 C333 0.930 . S
H357 C334 0.931 . S
H358 C336 0.931 1_655 S
H359 C338 0.930 . S
H360 C340 0.930 . S
H361 C341 0.931 . S
H362 C343 0.931 . S
H363 C345 0.930 . S
H364 C347 0.930 . S
H365 C348 0.931 . S
N366 C328 1.343 . S
N366 C349 1.343 . S
N367 C335 1.343 . S
N367 C342 1.343 . S
O368 Cd369 2.223 . S
O368 C376 1.315 . S
Cd369 O368 2.223 . S
Cd369 O372 2.297 . S
Cd369 O373 2.439 . S
Cd369 O379 2.240 . S
Cd370 O371 2.240 . S
Cd370 O378 2.223 . S
Cd370 O380 2.297 . S
Cd370 O381 2.439 . S
O371 Cd370 2.240 . S
O371 C376 1.279 . S
O372 Cd369 2.297 . S
O372 C374 1.247 . S
O373 Cd369 2.439 . S
O373 C374 1.208 . S
C374 O372 1.247 . S
C374 O373 1.208 . S
C375 O380 1.247 . S
C375 O381 1.208 . S
C376 O368 1.315 . S
C376 O371 1.279 . S
C377 O378 1.315 . S
C377 O379 1.279 . S
O378 Cd370 2.223 . S
O378 C377 1.315 . S
O379 Cd369 2.240 . S
O379 C377 1.279 . S
O380 Cd370 2.297 . S
O380 C375 1.247 . S
O381 Cd370 2.439 . S
O381 C375 1.208 . S
O382 Cd383 2.223 . S
O382 C390 1.315 . S
Cd383 O382 2.223 . S
Cd383 O386 2.297 . S
Cd383 O387 2.439 . S
Cd383 O393 2.240 . S
Cd384 O385 2.240 . S
Cd384 O392 2.223 . S
Cd384 O394 2.297 . S
Cd384 O395 2.439 . S
O385 Cd384 2.240 . S
O385 C390 1.279 . S
O386 Cd383 2.297 . S
O386 C388 1.247 . S
O387 Cd383 2.439 . S
O387 C388 1.208 . S
C388 O386 1.247 . S
C388 O387 1.208 . S
C389 O394 1.247 . S
C389 O395 1.208 . S
C390 O382 1.315 . S
C390 O385 1.279 . S
C391 O392 1.315 . S
C391 O393 1.279 . S
O392 Cd384 2.223 . S
O392 C391 1.315 . S
O393 Cd383 2.240 . S
O393 C391 1.279 . S
O394 Cd384 2.297 . S
O394 C389 1.247 . S
O395 Cd384 2.439 . S
O395 C389 1.208 . S
O396 Cd397 2.223 . S
O396 C404 1.315 . S
Cd397 O396 2.223 . S
Cd397 O400 2.297 . S
Cd397 O401 2.439 . S
Cd397 O407 2.240 . S
Cd398 O399 2.240 . S
Cd398 O406 2.223 . S
Cd398 O408 2.297 . S
Cd398 O409 2.439 . S
O399 Cd398 2.240 . S
O399 C404 1.279 . S
O400 Cd397 2.297 . S
O400 C402 1.247 . S
O401 Cd397 2.439 . S
O401 C402 1.208 . S
C402 O400 1.247 . S
C402 O401 1.208 . S
C403 O408 1.247 . S
C403 O409 1.208 . S
C404 O396 1.315 . S
C404 O399 1.279 . S
C405 O406 1.315 . S
C405 O407 1.279 . S
O406 Cd398 2.223 . S
O406 C405 1.315 . S
O407 Cd397 2.240 . S
O407 C405 1.279 . S
O408 Cd398 2.297 . S
O408 C403 1.247 . S
O409 Cd398 2.439 . S
O409 C403 1.208 . S
O410 Cd411 2.223 . S
O410 C418 1.315 . S
Cd411 O410 2.223 . S
Cd411 O414 2.297 . S
Cd411 O415 2.439 . S
Cd411 O421 2.240 . S
Cd412 O413 2.240 . S
Cd412 O420 2.223 . S
Cd412 O422 2.297 . S
Cd412 O423 2.439 . S
O413 Cd412 2.240 . S
O413 C418 1.279 . S
O414 Cd411 2.297 . S
O414 C416 1.247 . S
O415 Cd411 2.439 . S
O415 C416 1.208 . S
C416 O414 1.247 . S
C416 O415 1.208 . S
C417 O422 1.247 . S
C417 O423 1.208 . S
C418 O410 1.315 . S
C418 O413 1.279 . S
C419 O420 1.315 . S
C419 O421 1.279 . S
O420 Cd412 2.223 . S
O420 C419 1.315 . S
O421 Cd411 2.240 . S
O421 C419 1.279 . S
O422 Cd412 2.297 . S
O422 C417 1.247 . S
O423 Cd412 2.439 . S
O423 C417 1.208 . S
O424 Cd425 2.223 . S
O424 C432 1.315 . S
Cd425 O424 2.223 . S
Cd425 O428 2.297 . S
Cd425 O429 2.439 . S
Cd425 O435 2.240 . S
Cd426 O427 2.240 . S
Cd426 O434 2.223 . S
Cd426 O436 2.297 . S
Cd426 O437 2.439 . S
O427 Cd426 2.240 . S
O427 C432 1.279 . S
O428 Cd425 2.297 . S
O428 C430 1.247 . S
O429 Cd425 2.439 . S
O429 C430 1.208 . S
C430 O428 1.247 . S
C430 O429 1.208 . S
C431 O436 1.247 . S
C431 O437 1.208 . S
C432 O424 1.315 . S
C432 O427 1.279 . S
C433 O434 1.315 . S
C433 O435 1.279 . S
O434 Cd426 2.223 . S
O434 C433 1.315 . S
O435 Cd425 2.240 . S
O435 C433 1.279 . S
O436 Cd426 2.297 . S
O436 C431 1.247 . S
O437 Cd426 2.439 . S
O437 C431 1.208 . S
O438 Cd439 2.223 . S
O438 C446 1.315 . S
Cd439 O438 2.223 . S
Cd439 O442 2.297 . S
Cd439 O443 2.439 . S
Cd439 O449 2.240 . S
Cd440 O441 2.240 . S
Cd440 O448 2.223 . S
Cd440 O450 2.297 . S
Cd440 O451 2.439 . S
O441 Cd440 2.240 . S
O441 C446 1.279 . S
O442 Cd439 2.297 . S
O442 C444 1.247 . S
O443 Cd439 2.439 . S
O443 C444 1.208 . S
C444 O442 1.247 . S
C444 O443 1.208 . S
C445 O450 1.247 . S
C445 O451 1.208 . S
C446 O438 1.315 . S
C446 O441 1.279 . S
C447 O448 1.315 . S
C447 O449 1.279 . S
O448 Cd440 2.223 . S
O448 C447 1.315 . S
O449 Cd439 2.240 . S
O449 C447 1.279 . S
O450 Cd440 2.297 . S
O450 C445 1.247 . S
O451 Cd440 2.439 . S
O451 C445 1.208 . S
O452 Cd453 2.223 . S
O452 C460 1.315 . S
Cd453 O452 2.223 . S
Cd453 O456 2.297 . S
Cd453 O457 2.439 . S
Cd453 O463 2.240 1_554 S
Cd454 O455 2.245 1_556 S
Cd454 O462 2.223 1_556 S
Cd454 O464 2.292 . S
Cd454 O465 2.434 . S
O455 Cd454 2.245 1_554 S
O455 C460 1.279 . S
O456 Cd453 2.297 . S
O456 C458 1.247 . S
O457 Cd453 2.439 . S
O457 C458 1.208 . S
C458 O456 1.247 . S
C458 O457 1.208 . S
C459 O464 1.247 . S
C459 O465 1.208 . S
C460 O452 1.315 . S
C460 O455 1.279 . S
C461 O462 1.310 1_556 S
C461 O463 1.285 . S
O462 Cd454 2.223 1_554 S
O462 C461 1.310 1_554 S
O463 Cd453 2.240 1_556 S
O463 C461 1.285 . S
O464 Cd454 2.292 . S
O464 C459 1.247 . S
O465 Cd454 2.434 . S
O465 C459 1.208 . S
O466 Cd467 2.223 . S
O466 C474 1.315 . S
Cd467 O466 2.223 . S
Cd467 O470 2.297 . S
Cd467 O471 2.439 . S
Cd467 O477 2.240 . S
Cd468 O469 2.240 . S
Cd468 O476 2.223 . S
Cd468 O478 2.297 . S
Cd468 O479 2.439 . S
O469 Cd468 2.240 . S
O469 C474 1.279 . S
O470 Cd467 2.297 . S
O470 C472 1.247 . S
O471 Cd467 2.439 . S
O471 C472 1.208 . S
C472 O470 1.247 . S
C472 O471 1.208 . S
C473 O478 1.247 . S
C473 O479 1.208 . S
C474 O466 1.315 . S
C474 O469 1.279 . S
C475 O476 1.315 . S
C475 O477 1.279 . S
O476 Cd468 2.223 . S
O476 C475 1.315 . S
O477 Cd467 2.240 . S
O477 C475 1.279 . S
O478 Cd468 2.297 . S
O478 C473 1.247 . S
O479 Cd468 2.439 . S
O479 C473 1.208 . S
H480 C486 0.930 . S
H481 C489 0.930 . S
H482 C490 0.930 . S
H483 C491 0.930 . S
H484 C494 0.930 . S
H485 C495 0.930 . S
C486 H480 0.930 . S
C486 C487 1.355 . S
C486 C488 1.415 . S
C487 C486 1.355 . S
C487 C489 1.419 . S
C488 C486 1.415 . S
C488 C493 1.425 . S
C488 C495 1.409 . S
C489 H481 0.930 . S
C489 C487 1.419 . S
C489 C490 1.362 . S
C490 H482 0.930 . S
C490 C489 1.362 . S
C490 C493 1.409 . S
C491 H483 0.930 . S
C491 C492 1.355 . S
C491 C493 1.415 . S
C492 C491 1.355 . S
C492 C494 1.419 . S
C493 C488 1.425 . S
C493 C490 1.409 . S
C493 C491 1.415 . S
C494 H484 0.930 . S
C494 C492 1.419 . S
C494 C495 1.362 . S
C495 H485 0.930 . S
C495 C488 1.409 . S
C495 C494 1.362 . S
H496 C502 0.930 . S
H497 C505 0.930 . S
H498 C506 0.930 . S
H499 C507 0.930 . S
H500 C510 0.930 . S
H501 C511 0.930 . S
C502 H496 0.930 . S
C502 C503 1.355 . S
C502 C504 1.415 . S
C503 C502 1.355 . S
C503 C505 1.419 . S
C504 C502 1.415 . S
C504 C509 1.425 . S
C504 C511 1.409 . S
C505 H497 0.930 . S
C505 C503 1.419 . S
C505 C506 1.362 . S
C506 H498 0.930 . S
C506 C505 1.362 . S
C506 C509 1.409 . S
C507 H499 0.930 . S
C507 C508 1.355 . S
C507 C509 1.415 . S
C508 C507 1.355 . S
C508 C510 1.419 . S
C509 C504 1.425 . S
C509 C506 1.409 . S
C509 C507 1.415 . S
C510 H500 0.930 . S
C510 C508 1.419 . S
C510 C511 1.362 . S
C511 H501 0.930 . S
C511 C504 1.409 . S
C511 C510 1.362 . S
H512 C518 0.930 . S
H513 C521 0.930 . S
H514 C522 0.930 . S
H515 C523 0.930 . S
H516 C526 0.930 . S
H517 C527 0.930 . S
C518 H512 0.930 . S
C518 C519 1.355 . S
C518 C520 1.415 . S
C519 C518 1.355 . S
C519 C521 1.419 . S
C520 C518 1.415 . S
C520 C525 1.425 . S
C520 C527 1.409 . S
C521 H513 0.930 . S
C521 C519 1.419 . S
C521 C522 1.362 . S
C522 H514 0.930 . S
C522 C521 1.362 . S
C522 C525 1.409 . S
C523 H515 0.930 . S
C523 C524 1.355 . S
C523 C525 1.415 . S
C524 C523 1.355 . S
C524 C526 1.419 . S
C525 C520 1.425 . S
C525 C522 1.409 . S
C525 C523 1.415 . S
C526 H516 0.930 . S
C526 C524 1.419 . S
C526 C527 1.362 . S
C527 H517 0.930 . S
C527 C520 1.409 . S
C527 C526 1.362 . S
H528 C534 0.930 . S
H529 C537 0.930 . S
H530 C538 0.930 . S
H531 C539 0.930 . S
H532 C542 0.930 . S
H533 C543 0.930 . S
C534 H528 0.930 . S
C534 C535 1.355 . S
C534 C536 1.415 . S
C535 C534 1.355 . S
C535 C537 1.419 . S
C536 C534 1.415 . S
C536 C541 1.425 . S
C536 C543 1.409 . S
C537 H529 0.930 . S
C537 C535 1.419 . S
C537 C538 1.362 . S
C538 H530 0.930 . S
C538 C537 1.362 . S
C538 C541 1.409 . S
C539 H531 0.930 . S
C539 C540 1.355 . S
C539 C541 1.415 . S
C540 C539 1.355 . S
C540 C542 1.419 . S
C541 C536 1.425 . S
C541 C538 1.409 . S
C541 C539 1.415 . S
C542 H532 0.930 . S
C542 C540 1.419 . S
C542 C543 1.362 . S
C543 H533 0.930 . S
C543 C536 1.409 . S
C543 C542 1.362 . S
H544 C550 0.930 . S
H545 C553 0.930 . S
H546 C554 0.930 . S
H547 C555 0.930 . S
H548 C558 0.930 . S
H549 C559 0.930 . S
C550 H544 0.930 . S
C550 C551 1.355 . S
C550 C552 1.415 . S
C551 C550 1.355 . S
C551 C553 1.419 1_554 S
C552 C550 1.415 . S
C552 C557 1.425 . S
C552 C559 1.409 . S
C553 H545 0.930 . S
C553 C551 1.419 1_556 S
C553 C554 1.362 . S
C554 H546 0.930 . S
C554 C553 1.362 . S
C554 C557 1.409 1_556 S
C555 H547 0.930 . S
C555 C556 1.355 . S
C555 C557 1.415 . S
C556 C555 1.355 . S
C556 C558 1.419 . S
C557 C552 1.425 . S
C557 C554 1.409 1_554 S
C557 C555 1.415 . S
C558 H548 0.930 . S
C558 C556 1.419 . S
C558 C559 1.362 . S
C559 H549 0.930 . S
C559 C552 1.409 . S
C559 C558 1.362 . S
H560 C566 0.930 . S
H561 C569 0.930 . S
H562 C570 0.930 . S
H563 C571 0.930 . S
H564 C574 0.930 . S
H565 C575 0.930 . S
C566 H560 0.930 . S
C566 C567 1.355 . S
C566 C568 1.415 . S
C567 C566 1.355 . S
C567 C569 1.419 . S
C568 C566 1.415 . S
C568 C573 1.425 . S
C568 C575 1.409 . S
C569 H561 0.930 . S
C569 C567 1.419 . S
C569 C570 1.362 . S
C570 H562 0.930 . S
C570 C569 1.362 . S
C570 C573 1.409 . S
C571 H563 0.930 . S
C571 C572 1.355 . S
C571 C573 1.415 . S
C572 C571 1.355 . S
C572 C574 1.419 . S
C573 C568 1.425 . S
C573 C570 1.409 . S
C573 C571 1.415 . S
C574 H564 0.930 . S
C574 C572 1.419 . S
C574 C575 1.362 . S
C575 H565 0.930 . S
C575 C568 1.409 . S
C575 C574 1.362 . S
H576 C582 0.930 . S
H577 C585 0.930 . S
H578 C586 0.930 . S
H579 C587 0.930 . S
H580 C590 0.930 . S
H581 C591 0.930 . S
C582 H576 0.930 . S
C582 C583 1.355 . S
C582 C584 1.415 . S
C583 C582 1.355 . S
C583 C585 1.419 . S
C584 C582 1.415 . S
C584 C589 1.425 . S
C584 C591 1.409 . S
C585 H577 0.930 . S
C585 C583 1.419 . S
C585 C586 1.362 . S
C586 H578 0.930 . S
C586 C585 1.362 . S
C586 C589 1.409 . S
C587 H579 0.930 . S
C587 C588 1.355 . S
C587 C589 1.415 . S
C588 C587 1.355 . S
C588 C590 1.419 . S
C589 C584 1.425 . S
C589 C586 1.409 . S
C589 C587 1.415 . S
C590 H580 0.930 . S
C590 C588 1.419 . S
C590 C591 1.362 . S
C591 H581 0.930 . S
C591 C584 1.409 . S
C591 C590 1.362 . S
H592 C598 0.930 . S
H593 C601 0.930 . S
H594 C602 0.930 1_565 S
H595 C603 0.930 . S
H596 C606 0.930 . S
H597 C607 0.930 . S
C598 H592 0.930 . S
C598 C599 1.355 . S
C598 C600 1.415 . S
C599 C598 1.355 . S
C599 C601 1.419 . S
C600 C598 1.415 . S
C600 C605 1.425 1_545 S
C600 C607 1.409 . S
C601 H593 0.930 . S
C601 C599 1.419 . S
C601 C602 1.362 . S
C602 H594 0.930 1_545 S
C602 C601 1.362 . S
C602 C605 1.409 1_545 S
C603 H595 0.930 . S
C603 C604 1.355 . S
C603 C605 1.415 . S
C604 C603 1.355 . S
C604 C606 1.419 . S
C605 C600 1.425 1_565 S
C605 C602 1.409 1_565 S
C605 C603 1.415 . S
C606 H596 0.930 . S
C606 C604 1.419 . S
C606 C607 1.362 1_565 S
C607 H597 0.930 . S
C607 C600 1.409 . S
C607 C606 1.362 1_545 S
H608 C614 0.930 . S
H609 C617 0.930 . S
H610 C618 0.930 . S
H611 C619 0.930 . S
H612 C622 0.930 . S
H613 C623 0.930 . S
C614 H608 0.930 . S
C614 C615 1.355 . S
C614 C616 1.415 . S
C615 C614 1.355 . S
C615 C617 1.419 . S
C616 C614 1.415 . S
C616 C621 1.425 . S
C616 C623 1.409 . S
C617 H609 0.930 . S
C617 C615 1.419 . S
C617 C618 1.362 . S
C618 H610 0.930 . S
C618 C617 1.362 . S
C618 C621 1.409 . S
C619 H611 0.930 . S
C619 C620 1.355 . S
C619 C621 1.415 . S
C620 C619 1.355 . S
C620 C622 1.419 . S
C621 C616 1.425 . S
C621 C618 1.409 . S
C621 C619 1.415 . S
C622 H612 0.930 . S
C622 C620 1.419 . S
C622 C623 1.362 . S
C623 H613 0.930 . S
C623 C616 1.409 . S
C623 C622 1.362 . S
H624 C630 0.930 . S
H625 C633 0.930 . S
H626 C634 0.930 . S
H627 C635 0.930 . S
H628 C638 0.930 . S
H629 C639 0.930 . S
C630 H624 0.930 . S
C630 C631 1.355 . S
C630 C632 1.415 . S
C631 C630 1.355 . S
C631 C633 1.419 . S
C632 C630 1.415 . S
C632 C637 1.425 . S
C632 C639 1.409 . S
C633 H625 0.930 . S
C633 C631 1.419 . S
C633 C634 1.362 . S
C634 H626 0.930 . S
C634 C633 1.362 . S
C634 C637 1.409 . S
C635 H627 0.930 . S
C635 C636 1.355 . S
C635 C637 1.415 . S
C636 C635 1.355 . S
C636 C638 1.419 . S
C637 C632 1.425 . S
C637 C634 1.409 . S
C637 C635 1.415 . S
C638 H628 0.930 . S
C638 C636 1.419 . S
C638 C639 1.362 . S
C639 H629 0.930 . S
C639 C632 1.409 . S
C639 C638 1.362 . S
H640 C646 0.930 . S
H641 C649 0.930 . S
H642 C650 0.930 . S
H643 C651 0.930 . S
H644 C654 0.930 . S
H645 C655 0.930 . S
C646 H640 0.930 . S
C646 C647 1.355 1_655 S
C646 C648 1.415 . S
C647 C646 1.355 1_455 S
C647 C649 1.419 . S
C648 C646 1.415 . S
C648 C653 1.425 . S
C648 C655 1.409 . S
C649 H641 0.930 . S
C649 C647 1.419 . S
C649 C650 1.362 1_455 S
C650 H642 0.930 . S
C650 C649 1.362 1_655 S
C650 C653 1.409 . S
C651 H643 0.930 . S
C651 C652 1.355 . S
C651 C653 1.415 . S
C652 C651 1.355 . S
C652 C654 1.419 . S
C653 C648 1.425 . S
C653 C650 1.409 . S
C653 C651 1.415 . S
C654 H644 0.930 . S
C654 C652 1.419 . S
C654 C655 1.362 . S
C655 H645 0.930 . S
C655 C648 1.409 . S
C655 C654 1.362 . S
H656 C662 0.930 . S
H657 C665 0.930 . S
H658 C666 0.930 . S
H659 C667 0.930 . S
H660 C670 0.930 . S
H661 C671 0.930 . S
C662 H656 0.930 . S
C662 C663 1.355 . S
C662 C664 1.415 . S
C663 C662 1.355 . S
C663 C665 1.419 . S
C664 C662 1.415 . S
C664 C669 1.425 . S
C664 C671 1.409 . S
C665 H657 0.930 . S
C665 C663 1.419 . S
C665 C666 1.362 . S
C666 H658 0.930 . S
C666 C665 1.362 . S
C666 C669 1.409 . S
C667 H659 0.930 . S
C667 C668 1.355 . S
C667 C669 1.415 . S
C668 C667 1.355 . S
C668 C670 1.419 . S
C669 C664 1.425 . S
C669 C666 1.409 . S
C669 C667 1.415 . S
C670 H660 0.930 . S
C670 C668 1.419 . S
C670 C671 1.362 . S
C671 H661 0.930 . S
C671 C664 1.409 . S
C671 C670 1.362 . S
H672 C678 0.930 . S
H673 C681 0.930 . S
H674 C682 0.930 . S
H675 C683 0.930 . S
H676 C686 0.930 . S
H677 C687 0.930 . S
C678 H672 0.930 . S
C678 C679 1.355 . S
C678 C680 1.415 . S
C679 C678 1.355 . S
C679 C681 1.419 . S
C680 C678 1.415 . S
C680 C685 1.425 . S
C680 C687 1.409 . S
C681 H673 0.930 . S
C681 C679 1.419 . S
C681 C682 1.362 . S
C682 H674 0.930 . S
C682 C681 1.362 . S
C682 C685 1.409 . S
C683 H675 0.930 . S
C683 C684 1.355 . S
C683 C685 1.415 . S
C684 C683 1.355 . S
C684 C686 1.419 . S
C685 C680 1.425 . S
C685 C682 1.409 . S
C685 C683 1.415 . S
C686 H676 0.930 . S
C686 C684 1.419 . S
C686 C687 1.362 . S
C687 H677 0.930 . S
C687 C680 1.409 . S
C687 C686 1.362 . S
H688 C694 0.930 . S
H689 C697 0.930 1_455 S
H690 C698 0.930 . S
H691 C699 0.930 . S
H692 C702 0.930 . S
H693 C703 0.930 . S
C694 H688 0.930 . S
C694 C695 1.355 . S
C694 C696 1.415 . S
C695 C694 1.355 . S
C695 C697 1.419 . S
C696 C694 1.415 . S
C696 C701 1.425 . S
C696 C703 1.409 . S
C697 H689 0.930 1_655 S
C697 C695 1.419 . S
C697 C698 1.362 . S
C698 H690 0.930 . S
C698 C697 1.362 . S
C698 C701 1.409 . S
C699 H691 0.930 . S
C699 C700 1.355 . S
C699 C701 1.415 . S
C700 C699 1.355 . S
C700 C702 1.419 . S
C701 C696 1.425 . S
C701 C698 1.409 . S
C701 C699 1.415 . S
C702 H692 0.930 . S
C702 C700 1.419 . S
C702 C703 1.362 . S
C703 H693 0.930 . S
C703 C696 1.409 . S
C703 C702 1.362 . S
H704 C710 0.930 . S
H705 C713 0.930 1_554 S
H706 C714 0.930 . S
H707 C715 0.930 . S
H708 C718 0.930 . S
H709 C719 0.930 . S
C710 H704 0.930 . S
C710 C711 1.355 . S
C710 C712 1.415 . S
C711 C710 1.355 . S
C711 C713 1.419 . S
C712 C710 1.415 . S
C712 C717 1.425 . S
C712 C719 1.409 . S
C713 H705 0.930 1_556 S
C713 C711 1.419 . S
C713 C714 1.362 1_556 S
C714 H706 0.930 . S
C714 C713 1.362 1_554 S
C714 C717 1.409 1_554 S
C715 H707 0.930 . S
C715 C716 1.355 1_554 S
C715 C717 1.415 1_554 S
C716 C715 1.355 1_556 S
C716 C718 1.419 . S
C717 C712 1.425 . S
C717 C714 1.409 1_556 S
C717 C715 1.415 1_556 S
C718 H708 0.930 . S
C718 C716 1.419 . S
C718 C719 1.362 . S
C719 H709 0.930 . S
C719 C712 1.409 . S
C719 C718 1.362 . S
H720 C726 0.930 . S
H721 C729 0.930 . S
H722 C730 0.930 . S
H723 C731 0.930 . S
H724 C734 0.930 . S
H725 C735 0.930 . S
C726 H720 0.930 . S
C726 C727 1.355 . S
C726 C728 1.415 . S
C727 C726 1.355 . S
C727 C729 1.419 . S
C728 C726 1.415 . S
C728 C733 1.425 . S
C728 C735 1.409 . S
C729 H721 0.930 . S
C729 C727 1.419 . S
C729 C730 1.362 . S
C730 H722 0.930 . S
C730 C729 1.362 . S
C730 C733 1.409 . S
C731 H723 0.930 . S
C731 C732 1.355 . S
C731 C733 1.415 . S
C732 C731 1.355 . S
C732 C734 1.419 . S
C733 C728 1.425 . S
C733 C730 1.409 . S
C733 C731 1.415 . S
C734 H724 0.930 . S
C734 C732 1.419 . S
C734 C735 1.362 . S
C735 H725 0.930 . S
C735 C728 1.409 . S
C735 C734 1.362 . S
H736 C742 0.930 . S
H737 C745 0.930 . S
H738 C746 0.930 . S
H739 C747 0.930 . S
H740 C750 0.930 . S
H741 C751 0.930 . S
C742 H736 0.930 . S
C742 C743 1.355 . S
C742 C744 1.415 . S
C743 C742 1.355 . S
C743 C745 1.419 . S
C744 C742 1.415 . S
C744 C749 1.425 . S
C744 C751 1.409 . S
C745 H737 0.930 . S
C745 C743 1.419 . S
C745 C746 1.362 . S
C746 H738 0.930 . S
C746 C745 1.362 . S
C746 C749 1.409 . S
C747 H739 0.930 . S
C747 C748 1.355 . S
C747 C749 1.415 . S
C748 C747 1.355 . S
C748 C750 1.419 . S
C749 C744 1.425 . S
C749 C746 1.409 . S
C749 C747 1.415 . S
C750 H740 0.930 . S
C750 C748 1.419 . S
C750 C751 1.362 . S
C751 H741 0.930 . S
C751 C744 1.409 . S
C751 C750 1.362 . S
H752 C758 0.930 . S
H753 C761 0.930 . S
H754 C762 0.930 . S
H755 C763 0.930 . S
H756 C766 0.930 . S
H757 C767 0.930 . S
C758 H752 0.930 . S
C758 C759 1.355 . S
C758 C760 1.415 . S
C759 C758 1.355 . S
C759 C761 1.419 . S
C760 C758 1.415 . S
C760 C765 1.425 . S
C760 C767 1.409 . S
C761 H753 0.930 . S
C761 C759 1.419 . S
C761 C762 1.362 . S
C762 H754 0.930 . S
C762 C761 1.362 . S
C762 C765 1.409 . S
C763 H755 0.930 . S
C763 C764 1.355 . S
C763 C765 1.415 . S
C764 C763 1.355 . S
C764 C766 1.419 . S
C765 C760 1.425 . S
C765 C762 1.409 . S
C765 C763 1.415 . S
C766 H756 0.930 . S
C766 C764 1.419 . S
C766 C767 1.362 . S
C767 H757 0.930 . S
C767 C760 1.409 . S
C767 C766 1.362 . S
H768 C774 0.930 . S
H769 C777 0.930 . S
H770 C778 0.930 . S
H771 C779 0.930 . S
H772 C782 0.930 1_554 S
H773 C783 0.930 . S
C774 H768 0.930 . S
C774 C775 1.355 . S
C774 C776 1.415 . S
C775 C774 1.355 . S
C775 C777 1.419 . S
C776 C774 1.415 . S
C776 C781 1.425 . S
C776 C783 1.409 . S
C777 H769 0.930 . S
C777 C775 1.419 . S
C777 C778 1.362 . S
C778 H770 0.930 . S
C778 C777 1.362 . S
C778 C781 1.409 . S
C779 H771 0.930 . S
C779 C780 1.355 . S
C779 C781 1.415 . S
C780 C779 1.355 . S
C780 C782 1.419 . S
C781 C776 1.425 . S
C781 C778 1.409 . S
C781 C779 1.415 . S
C782 H772 0.930 1_556 S
C782 C780 1.419 . S
C782 C783 1.362 . S
C783 H773 0.930 . S
C783 C776 1.409 . S
C783 C782 1.362 . S
H784 C790 0.930 . S
H785 C793 0.930 . S
H786 C794 0.930 . S
H787 C795 0.930 . S
H788 C798 0.930 . S
H789 C799 0.930 . S
C790 H784 0.930 . S
C790 C791 1.355 . S
C790 C792 1.415 . S
C791 C790 1.355 . S
C791 C793 1.419 . S
C792 C790 1.415 . S
C792 C797 1.425 . S
C792 C799 1.409 . S
C793 H785 0.930 . S
C793 C791 1.419 . S
C793 C794 1.362 . S
C794 H786 0.930 . S
C794 C793 1.362 . S
C794 C797 1.409 . S
C795 H787 0.930 . S
C795 C796 1.355 . S
C795 C797 1.415 . S
C796 C795 1.355 . S
C796 C798 1.419 . S
C797 C792 1.425 . S
C797 C794 1.409 . S
C797 C795 1.415 . S
C798 H788 0.930 . S
C798 C796 1.419 . S
C798 C799 1.362 . S
C799 H789 0.930 . S
C799 C792 1.409 . S
C799 C798 1.362 . S
H800 C806 0.930 . S
H801 C809 0.930 . S
H802 C810 0.930 . S
H803 C811 0.930 . S
H804 C814 0.930 . S
H805 C815 0.930 . S
C806 H800 0.930 . S
C806 C807 1.355 . S
C806 C808 1.415 . S
C807 C806 1.355 . S
C807 C809 1.419 . S
C808 C806 1.415 . S
C808 C813 1.425 . S
C808 C815 1.409 . S
C809 H801 0.930 . S
C809 C807 1.419 . S
C809 C810 1.362 . S
C810 H802 0.930 . S
C810 C809 1.362 . S
C810 C813 1.409 . S
C811 H803 0.930 . S
C811 C812 1.355 . S
C811 C813 1.415 . S
C812 C811 1.355 . S
C812 C814 1.419 . S
C813 C808 1.425 . S
C813 C810 1.409 . S
C813 C811 1.415 . S
C814 H804 0.930 . S
C814 C812 1.419 . S
C814 C815 1.362 . S
C815 H805 0.930 . S
C815 C808 1.409 . S
C815 C814 1.362 . S
H816 C822 0.930 . S
H817 C825 0.930 . S
H818 C826 0.930 . S
H819 C827 0.930 . S
H820 C830 0.930 . S
H821 C831 0.930 . S
C822 H816 0.930 . S
C822 C823 1.355 . S
C822 C824 1.415 . S
C823 C822 1.355 . S
C823 C825 1.419 . S
C824 C822 1.415 . S
C824 C829 1.425 . S
C824 C831 1.409 . S
C825 H817 0.930 . S
C825 C823 1.419 . S
C825 C826 1.362 . S
C826 H818 0.930 . S
C826 C825 1.362 . S
C826 C829 1.409 . S
C827 H819 0.930 . S
C827 C828 1.355 . S
C827 C829 1.415 . S
C828 C827 1.355 . S
C828 C830 1.419 . S
C829 C824 1.425 . S
C829 C826 1.409 . S
C829 C827 1.415 . S
C830 H820 0.930 . S
C830 C828 1.419 . S
C830 C831 1.362 . S
C831 H821 0.930 . S
C831 C824 1.409 . S
C831 C830 1.362 . S
H832 C838 0.930 . S
H833 C841 0.930 . S
H834 C842 0.930 . S
H835 C843 0.930 . S
H836 C846 0.930 . S
H837 C847 0.930 . S
C838 H832 0.930 . S
C838 C839 1.355 . S
C838 C840 1.415 . S
C839 C838 1.355 . S
C839 C841 1.419 . S
C840 C838 1.415 . S
C840 C845 1.425 . S
C840 C847 1.409 . S
C841 H833 0.930 . S
C841 C839 1.419 . S
C841 C842 1.362 . S
C842 H834 0.930 . S
C842 C841 1.362 . S
C842 C845 1.409 . S
C843 H835 0.930 . S
C843 C844 1.355 . S
C843 C845 1.415 . S
C844 C843 1.355 . S
C844 C846 1.419 . S
C845 C840 1.425 . S
C845 C842 1.409 . S
C845 C843 1.415 . S
C846 H836 0.930 . S
C846 C844 1.419 . S
C846 C847 1.362 . S
C847 H837 0.930 . S
C847 C840 1.409 . S
C847 C846 1.362 . S
H848 C854 0.930 . S
H849 C857 0.930 . S
H850 C858 0.930 . S
H851 C859 0.930 . S
H852 C862 0.930 . S
H853 C863 0.930 . S
C854 H848 0.930 . S
C854 C855 1.355 . S
C854 C856 1.415 . S
C855 C854 1.355 . S
C855 C857 1.419 . S
C856 C854 1.415 . S
C856 C861 1.425 . S
C856 C863 1.409 . S
C857 H849 0.930 . S
C857 C855 1.419 . S
C857 C858 1.362 . S
C858 H850 0.930 . S
C858 C857 1.362 . S
C858 C861 1.409 . S
C859 H851 0.930 . S
C859 C860 1.355 . S
C859 C861 1.415 1_565 S
C860 C859 1.355 . S
C860 C862 1.419 . S
C861 C856 1.425 . S
C861 C858 1.409 . S
C861 C859 1.415 1_545 S
C862 H852 0.930 . S
C862 C860 1.419 . S
C862 C863 1.362 1_565 S
C863 H853 0.930 . S
C863 C856 1.409 . S
C863 C862 1.362 1_545 S
H864 C870 0.930 . S
H865 C873 0.930 . S
H866 C874 0.930 . S
H867 C875 0.930 . S
H868 C878 0.930 . S
H869 C879 0.930 . S
C870 H864 0.930 . S
C870 C871 1.355 . S
C870 C872 1.415 . S
C871 C870 1.355 . S
C871 C873 1.419 . S
C872 C870 1.415 . S
C872 C877 1.425 . S
C872 C879 1.409 . S
C873 H865 0.930 . S
C873 C871 1.419 . S
C873 C874 1.362 . S
C874 H866 0.930 . S
C874 C873 1.362 . S
C874 C877 1.409 . S
C875 H867 0.930 . S
C875 C876 1.355 . S
C875 C877 1.415 . S
C876 C875 1.355 . S
C876 C878 1.419 . S
C877 C872 1.425 . S
C877 C874 1.409 . S
C877 C875 1.415 . S
C878 H868 0.930 . S
C878 C876 1.419 . S
C878 C879 1.362 . S
C879 H869 0.930 . S
C879 C872 1.409 . S
C879 C878 1.362 . S
H880 C886 0.930 . S
H881 C889 0.930 . S
H882 C890 0.930 . S
H883 C891 0.930 . S
H884 C894 0.930 . S
H885 C895 0.930 . S
C886 H880 0.930 . S
C886 C887 1.355 . S
C886 C888 1.415 . S
C887 C886 1.355 . S
C887 C889 1.419 . S
C888 C886 1.415 . S
C888 C893 1.425 . S
C888 C895 1.409 . S
C889 H881 0.930 . S
C889 C887 1.419 . S
C889 C890 1.362 . S
C890 H882 0.930 . S
C890 C889 1.362 . S
C890 C893 1.409 . S
C891 H883 0.930 . S
C891 C892 1.355 . S
C891 C893 1.415 . S
C892 C891 1.355 . S
C892 C894 1.419 . S
C893 C888 1.425 . S
C893 C890 1.409 . S
C893 C891 1.415 . S
C894 H884 0.930 . S
C894 C892 1.419 . S
C894 C895 1.362 . S
C895 H885 0.930 . S
C895 C888 1.409 . S
C895 C894 1.362 . S
H896 C902 0.930 . S
H897 C905 0.930 . S
H898 C906 0.930 . S
H899 C907 0.930 . S
H900 C910 0.930 . S
H901 C911 0.930 . S
C902 H896 0.930 . S
C902 C903 1.355 . S
C902 C904 1.415 . S
C903 C902 1.355 . S
C903 C905 1.419 1_455 S
C904 C902 1.415 . S
C904 C909 1.425 1_455 S
C904 C911 1.409 . S
C905 H897 0.930 . S
C905 C903 1.419 1_655 S
C905 C906 1.362 . S
C906 H898 0.930 . S
C906 C905 1.362 . S
C906 C909 1.409 . S
C907 H899 0.930 . S
C907 C908 1.355 . S
C907 C909 1.415 . S
C908 C907 1.355 . S
C908 C910 1.419 1_655 S
C909 C904 1.425 1_655 S
C909 C906 1.409 . S
C909 C907 1.415 . S
C910 H900 0.930 . S
C910 C908 1.419 1_455 S
C910 C911 1.362 . S
C911 H901 0.930 . S
C911 C904 1.409 . S
C911 C910 1.362 . S
H912 C918 0.930 . S
H913 C921 0.930 . S
H914 C922 0.930 . S
H915 C923 0.930 . S
H916 C926 0.930 . S
H917 C927 0.930 . S
C918 H912 0.930 . S
C918 C919 1.355 . S
C918 C920 1.415 . S
C919 C918 1.355 . S
C919 C921 1.419 . S
C920 C918 1.415 . S
C920 C925 1.425 . S
C920 C927 1.409 . S
C921 H913 0.930 . S
C921 C919 1.419 . S
C921 C922 1.362 . S
C922 H914 0.930 . S
C922 C921 1.362 . S
C922 C925 1.409 . S
C923 H915 0.930 . S
C923 C924 1.355 . S
C923 C925 1.415 . S
C924 C923 1.355 . S
C924 C926 1.419 . S
C925 C920 1.425 . S
C925 C922 1.409 . S
C925 C923 1.415 . S
C926 H916 0.930 . S
C926 C924 1.419 . S
C926 C927 1.362 . S
C927 H917 0.930 . S
C927 C920 1.409 . S
C927 C926 1.362 . S
H928 C934 0.930 . S
H929 C937 0.930 . S
H930 C938 0.930 . S
H931 C939 0.930 . S
H932 C942 0.930 . S
H933 C943 0.930 . S
C934 H928 0.930 . S
C934 C935 1.355 . S
C934 C936 1.415 . S
C935 C934 1.355 . S
C935 C937 1.419 . S
C936 C934 1.415 . S
C936 C941 1.425 . S
C936 C943 1.409 . S
C937 H929 0.930 . S
C937 C935 1.419 . S
C937 C938 1.362 . S
C938 H930 0.930 . S
C938 C937 1.362 . S
C938 C941 1.409 . S
C939 H931 0.930 . S
C939 C940 1.355 . S
C939 C941 1.415 . S
C940 C939 1.355 . S
C940 C942 1.419 . S
C941 C936 1.425 . S
C941 C938 1.409 . S
C941 C939 1.415 . S
C942 H932 0.930 . S
C942 C940 1.419 . S
C942 C943 1.362 . S
C943 H933 0.930 . S
C943 C936 1.409 . S
C943 C942 1.362 . S
H944 C950 0.930 . S
H945 C953 0.930 . S
H946 C954 0.930 . S
H947 C955 0.930 . S
H948 C958 0.930 . S
H949 C959 0.930 . S
C950 H944 0.930 . S
C950 C951 1.355 1_655 S
C950 C952 1.415 . S
C951 C950 1.355 1_455 S
C951 C953 1.419 . S
C952 C950 1.415 . S
C952 C957 1.425 . S
C952 C959 1.409 . S
C953 H945 0.930 . S
C953 C951 1.419 . S
C953 C954 1.362 . S
C954 H946 0.930 . S
C954 C953 1.362 . S
C954 C957 1.409 1_455 S
C955 H947 0.930 . S
C955 C956 1.355 . S
C955 C957 1.415 . S
C956 C955 1.355 . S
C956 C958 1.419 . S
C957 C952 1.425 . S
C957 C954 1.409 1_655 S
C957 C955 1.415 . S
C958 H948 0.930 . S
C958 C956 1.419 . S
C958 C959 1.362 . S
C959 H949 0.930 . S
C959 C952 1.409 . S
C959 C958 1.362 . S
H960 C966 0.930 . S
H961 C969 0.930 . S
H962 C970 0.930 . S
H963 C971 0.930 . S
H964 C974 0.930 . S
H965 C975 0.930 . S
C966 H960 0.930 . S
C966 C967 1.355 . S
C966 C968 1.415 . S
C967 C966 1.355 . S
C967 C969 1.419 . S
C968 C966 1.415 . S
C968 C973 1.425 . S
C968 C975 1.409 . S
C969 H961 0.930 . S
C969 C967 1.419 . S
C969 C970 1.362 . S
C970 H962 0.930 . S
C970 C969 1.362 . S
C970 C973 1.409 . S
C971 H963 0.930 . S
C971 C972 1.355 . S
C971 C973 1.415 . S
C972 C971 1.355 . S
C972 C974 1.419 . S
C973 C968 1.425 . S
C973 C970 1.409 . S
C973 C971 1.415 . S
C974 H964 0.930 . S
C974 C972 1.419 . S
C974 C975 1.362 . S
C975 H965 0.930 . S
C975 C968 1.409 . S
C975 C974 1.362 . S
H976 C982 0.930 . S
H977 C985 0.930 . S
H978 C986 0.930 . S
H979 C987 0.930 . S
H980 C990 0.930 . S
H981 C991 0.930 . S
C982 H976 0.930 . S
C982 C983 1.355 . S
C982 C984 1.415 . S
C983 C982 1.355 . S
C983 C985 1.419 . S
C984 C982 1.415 . S
C984 C989 1.425 . S
C984 C991 1.409 . S
C985 H977 0.930 . S
C985 C983 1.419 . S
C985 C986 1.362 . S
C986 H978 0.930 . S
C986 C985 1.362 . S
C986 C989 1.409 . S
C987 H979 0.930 . S
C987 C988 1.355 . S
C987 C989 1.415 . S
C988 C987 1.355 . S
C988 C990 1.419 . S
C989 C984 1.425 . S
C989 C986 1.409 . S
C989 C987 1.415 . S
C990 H980 0.930 . S
C990 C988 1.419 . S
C990 C991 1.362 . S
C991 H981 0.930 . S
C991 C984 1.409 . S
C991 C990 1.362 . S
C492 C388 1.383 . S
C487 C8 1.386 . S
C508 C405 1.371 . S
C503 C61 1.448 . S
C524 C419 1.505 . S
C519 C107 1.563 . S
C535 C139 1.340 . S
C540 C377 1.318 . S
C551 C192 1.279 . S
C556 C374 1.376 . S
C567 C238 1.133 . S
C572 C391 1.188 . S
C588 C402 1.551 . S
C583 C284 1.569 . S
C604 C416 1.435 . S
C599 C330 1.359 . S
C615 C100 1.434 . S
C620 C444 1.416 . S
C636 C458 1.561 . S
C631 C160 1.560 . S
C647 C15 1.189 . S
C652 C475 1.129 . S
C668 C430 1.378 . S
C663 C54 1.281 . S
C679 C291 1.381 . S
C684 C433 1.318 . S
C695 C337 1.589 1_655 S
C700 C447 1.556 . S
C716 C461 1.454 . S
C711 C199 1.438 . S
C727 C245 1.377 . S
C732 C472 1.392 . S
C748 C404 1.919 . S
C743 C1 1.929 . S
C764 C418 2.014 . S
C759 C68 1.995 . S
C775 C114 1.966 . S
C780 C376 1.977 1_556 S
C791 C146 1.858 . S
C796 C389 1.711 . S
C807 C185 1.631 . S
C812 C417 1.523 . S
C828 C375 1.512 . S
C823 C231 1.623 . S
C844 C390 1.797 . S
C839 C277 1.836 . S
C860 C403 1.640 . S
C855 C323 1.711 . S
C876 C459 1.610 . S
C871 C93 1.719 . S
C892 C474 1.805 . S
C887 C153 1.819 . S
C903 C22 1.644 . S
C908 C431 1.505 . S
C924 C445 1.537 . S
C919 C47 1.629 . S
C940 C473 1.759 . S
C935 C298 1.814 . S
C951 C344 1.959 . S
C956 C432 1.979 . S
C972 C446 2.035 . S
C967 C206 2.021 . S
C988 C460 1.910 . S
C983 C252 1.920 . S
