# Generated by pormake.
# Topology tbo, (3,4)-cn, num edge types: 1
# Building blocks:
#     Node 0, Type 0, BuildingBlock: QEWDON_clean_linker_0, # of connection points: 3
#     Node 1, Type 0, BuildingBlock: QEWDON_clean_linker_0, # of connection points: 3
#     Node 2, Type 0, BuildingBlock: QEWDON_clean_linker_0, # of connection points: 3
#     Node 3, Type 0, BuildingBlock: QEWDON_clean_linker_0, # of connection points: 3
#     Node 4, Type 0, BuildingBlock: QEWDON_clean_linker_0, # of connection points: 3
#     Node 5, Type 0, BuildingBlock: QEWDON_clean_linker_0, # of connection points: 3
#     Node 6, Type 0, BuildingBlock: QEWDON_clean_linker_0, # of connection points: 3
#     Node 7, Type 0, BuildingBlock: QEWDON_clean_linker_0, # of connection points: 3
#     Node 8, Type 0, BuildingBlock: QEWDON_clean_linker_0, # of connection points: 3
#     Node 9, Type 0, BuildingBlock: QEWDON_clean_linker_0, # of connection points: 3
#     Node 10, Type 0, BuildingBlock: QEWDON_clean_linker_0, # of connection points: 3
#     Node 11, Type 0, BuildingBlock: QEWDON_clean_linker_0, # of connection points: 3
#     Node 12, Type 0, BuildingBlock: QEWDON_clean_linker_0, # of connection points: 3
#     Node 13, Type 0, BuildingBlock: QEWDON_clean_linker_0, # of connection points: 3
#     Node 14, Type 0, BuildingBlock: QEWDON_clean_linker_0, # of connection points: 3
#     Node 15, Type 0, BuildingBlock: QEWDON_clean_linker_0, # of connection points: 3
#     Node 16, Type 0, BuildingBlock: QEWDON_clean_linker_0, # of connection points: 3
#     Node 17, Type 0, BuildingBlock: QEWDON_clean_linker_0, # of connection points: 3
#     Node 18, Type 0, BuildingBlock: QEWDON_clean_linker_0, # of connection points: 3
#     Node 19, Type 0, BuildingBlock: QEWDON_clean_linker_0, # of connection points: 3
#     Node 20, Type 0, BuildingBlock: QEWDON_clean_linker_0, # of connection points: 3
#     Node 21, Type 0, BuildingBlock: QEWDON_clean_linker_0, # of connection points: 3
#     Node 22, Type 0, BuildingBlock: QEWDON_clean_linker_0, # of connection points: 3
#     Node 23, Type 0, BuildingBlock: QEWDON_clean_linker_0, # of connection points: 3
#     Node 24, Type 0, BuildingBlock: QEWDON_clean_linker_0, # of connection points: 3
#     Node 25, Type 0, BuildingBlock: QEWDON_clean_linker_0, # of connection points: 3
#     Node 26, Type 0, BuildingBlock: QEWDON_clean_linker_0, # of connection points: 3
#     Node 27, Type 0, BuildingBlock: QEWDON_clean_linker_0, # of connection points: 3
#     Node 28, Type 0, BuildingBlock: QEWDON_clean_linker_0, # of connection points: 3
#     Node 29, Type 0, BuildingBlock: QEWDON_clean_linker_0, # of connection points: 3
#     Node 30, Type 0, BuildingBlock: QEWDON_clean_linker_0, # of connection points: 3
#     Node 31, Type 0, BuildingBlock: QEWDON_clean_linker_0, # of connection points: 3
#     Node 32, Type 1, BuildingBlock: ESEHIV_clean_sbu_0, # of connection points: 4
#     Node 33, Type 1, BuildingBlock: ESEHIV_clean_sbu_0, # of connection points: 4
#     Node 34, Type 1, BuildingBlock: ESEHIV_clean_sbu_0, # of connection points: 4
#     Node 35, Type 1, BuildingBlock: ESEHIV_clean_sbu_0, # of connection points: 4
#     Node 36, Type 1, BuildingBlock: ESEHIV_clean_sbu_0, # of connection points: 4
#     Node 37, Type 1, BuildingBlock: ESEHIV_clean_sbu_0, # of connection points: 4
#     Node 38, Type 1, BuildingBlock: ESEHIV_clean_sbu_0, # of connection points: 4
#     Node 39, Type 1, BuildingBlock: ESEHIV_clean_sbu_0, # of connection points: 4
#     Node 40, Type 1, BuildingBlock: ESEHIV_clean_sbu_0, # of connection points: 4
#     Node 41, Type 1, BuildingBlock: ESEHIV_clean_sbu_0, # of connection points: 4
#     Node 42, Type 1, BuildingBlock: ESEHIV_clean_sbu_0, # of connection points: 4
#     Node 43, Type 1, BuildingBlock: ESEHIV_clean_sbu_0, # of connection points: 4
#     Node 44, Type 1, BuildingBlock: ESEHIV_clean_sbu_0, # of connection points: 4
#     Node 45, Type 1, BuildingBlock: ESEHIV_clean_sbu_0, # of connection points: 4
#     Node 46, Type 1, BuildingBlock: ESEHIV_clean_sbu_0, # of connection points: 4
#     Node 47, Type 1, BuildingBlock: ESEHIV_clean_sbu_0, # of connection points: 4
#     Node 48, Type 1, BuildingBlock: ESEHIV_clean_sbu_0, # of connection points: 4
#     Node 49, Type 1, BuildingBlock: ESEHIV_clean_sbu_0, # of connection points: 4
#     Node 50, Type 1, BuildingBlock: ESEHIV_clean_sbu_0, # of connection points: 4
#     Node 51, Type 1, BuildingBlock: ESEHIV_clean_sbu_0, # of connection points: 4
#     Node 52, Type 1, BuildingBlock: ESEHIV_clean_sbu_0, # of connection points: 4
#     Node 53, Type 1, BuildingBlock: ESEHIV_clean_sbu_0, # of connection points: 4
#     Node 54, Type 1, BuildingBlock: ESEHIV_clean_sbu_0, # of connection points: 4
#     Node 55, Type 1, BuildingBlock: ESEHIV_clean_sbu_0, # of connection points: 4
#     Edge 56, Type (0, 1), BuildingBlock: OJICUG_clean_linker_0, # of connection points: 2
#     Edge 57, Type (0, 1), BuildingBlock: OJICUG_clean_linker_0, # of connection points: 2
#     Edge 58, Type (0, 1), BuildingBlock: OJICUG_clean_linker_0, # of connection points: 2
#     Edge 59, Type (0, 1), BuildingBlock: OJICUG_clean_linker_0, # of connection points: 2
#     Edge 60, Type (0, 1), BuildingBlock: OJICUG_clean_linker_0, # of connection points: 2
#     Edge 61, Type (0, 1), BuildingBlock: OJICUG_clean_linker_0, # of connection points: 2
#     Edge 62, Type (0, 1), BuildingBlock: OJICUG_clean_linker_0, # of connection points: 2
#     Edge 63, Type (0, 1), BuildingBlock: OJICUG_clean_linker_0, # of connection points: 2
#     Edge 64, Type (0, 1), BuildingBlock: OJICUG_clean_linker_0, # of connection points: 2
#     Edge 65, Type (0, 1), BuildingBlock: OJICUG_clean_linker_0, # of connection points: 2
#     Edge 66, Type (0, 1), BuildingBlock: OJICUG_clean_linker_0, # of connection points: 2
#     Edge 67, Type (0, 1), BuildingBlock: OJICUG_clean_linker_0, # of connection points: 2
#     Edge 68, Type (0, 1), BuildingBlock: OJICUG_clean_linker_0, # of connection points: 2
#     Edge 69, Type (0, 1), BuildingBlock: OJICUG_clean_linker_0, # of connection points: 2
#     Edge 70, Type (0, 1), BuildingBlock: OJICUG_clean_linker_0, # of connection points: 2
#     Edge 71, Type (0, 1), BuildingBlock: OJICUG_clean_linker_0, # of connection points: 2
#     Edge 72, Type (0, 1), BuildingBlock: OJICUG_clean_linker_0, # of connection points: 2
#     Edge 73, Type (0, 1), BuildingBlock: OJICUG_clean_linker_0, # of connection points: 2
#     Edge 74, Type (0, 1), BuildingBlock: OJICUG_clean_linker_0, # of connection points: 2
#     Edge 75, Type (0, 1), BuildingBlock: OJICUG_clean_linker_0, # of connection points: 2
#     Edge 76, Type (0, 1), BuildingBlock: OJICUG_clean_linker_0, # of connection points: 2
#     Edge 77, Type (0, 1), BuildingBlock: OJICUG_clean_linker_0, # of connection points: 2
#     Edge 78, Type (0, 1), BuildingBlock: OJICUG_clean_linker_0, # of connection points: 2
#     Edge 79, Type (0, 1), BuildingBlock: OJICUG_clean_linker_0, # of connection points: 2
#     Edge 80, Type (0, 1), BuildingBlock: OJICUG_clean_linker_0, # of connection points: 2
#     Edge 81, Type (0, 1), BuildingBlock: OJICUG_clean_linker_0, # of connection points: 2
#     Edge 82, Type (0, 1), BuildingBlock: OJICUG_clean_linker_0, # of connection points: 2
#     Edge 83, Type (0, 1), BuildingBlock: OJICUG_clean_linker_0, # of connection points: 2
#     Edge 84, Type (0, 1), BuildingBlock: OJICUG_clean_linker_0, # of connection points: 2
#     Edge 85, Type (0, 1), BuildingBlock: OJICUG_clean_linker_0, # of connection points: 2
#     Edge 86, Type (0, 1), BuildingBlock: OJICUG_clean_linker_0, # of connection points: 2
#     Edge 87, Type (0, 1), BuildingBlock: OJICUG_clean_linker_0, # of connection points: 2
#     Edge 88, Type (0, 1), BuildingBlock: OJICUG_clean_linker_0, # of connection points: 2
#     Edge 89, Type (0, 1), BuildingBlock: OJICUG_clean_linker_0, # of connection points: 2
#     Edge 90, Type (0, 1), BuildingBlock: OJICUG_clean_linker_0, # of connection points: 2
#     Edge 91, Type (0, 1), BuildingBlock: OJICUG_clean_linker_0, # of connection points: 2
#     Edge 92, Type (0, 1), BuildingBlock: OJICUG_clean_linker_0, # of connection points: 2
#     Edge 93, Type (0, 1), BuildingBlock: OJICUG_clean_linker_0, # of connection points: 2
#     Edge 94, Type (0, 1), BuildingBlock: OJICUG_clean_linker_0, # of connection points: 2
#     Edge 95, Type (0, 1), BuildingBlock: OJICUG_clean_linker_0, # of connection points: 2
#     Edge 96, Type (0, 1), BuildingBlock: OJICUG_clean_linker_0, # of connection points: 2
#     Edge 97, Type (0, 1), BuildingBlock: OJICUG_clean_linker_0, # of connection points: 2
#     Edge 98, Type (0, 1), BuildingBlock: OJICUG_clean_linker_0, # of connection points: 2
#     Edge 99, Type (0, 1), BuildingBlock: OJICUG_clean_linker_0, # of connection points: 2
#     Edge 100, Type (0, 1), BuildingBlock: OJICUG_clean_linker_0, # of connection points: 2
#     Edge 101, Type (0, 1), BuildingBlock: OJICUG_clean_linker_0, # of connection points: 2
#     Edge 102, Type (0, 1), BuildingBlock: OJICUG_clean_linker_0, # of connection points: 2
#     Edge 103, Type (0, 1), BuildingBlock: OJICUG_clean_linker_0, # of connection points: 2
#     Edge 104, Type (0, 1), BuildingBlock: OJICUG_clean_linker_0, # of connection points: 2
#     Edge 105, Type (0, 1), BuildingBlock: OJICUG_clean_linker_0, # of connection points: 2
#     Edge 106, Type (0, 1), BuildingBlock: OJICUG_clean_linker_0, # of connection points: 2
#     Edge 107, Type (0, 1), BuildingBlock: OJICUG_clean_linker_0, # of connection points: 2
#     Edge 108, Type (0, 1), BuildingBlock: OJICUG_clean_linker_0, # of connection points: 2
#     Edge 109, Type (0, 1), BuildingBlock: OJICUG_clean_linker_0, # of connection points: 2
#     Edge 110, Type (0, 1), BuildingBlock: OJICUG_clean_linker_0, # of connection points: 2
#     Edge 111, Type (0, 1), BuildingBlock: OJICUG_clean_linker_0, # of connection points: 2
#     Edge 112, Type (0, 1), BuildingBlock: OJICUG_clean_linker_0, # of connection points: 2
#     Edge 113, Type (0, 1), BuildingBlock: OJICUG_clean_linker_0, # of connection points: 2
#     Edge 114, Type (0, 1), BuildingBlock: OJICUG_clean_linker_0, # of connection points: 2
#     Edge 115, Type (0, 1), BuildingBlock: OJICUG_clean_linker_0, # of connection points: 2
#     Edge 116, Type (0, 1), BuildingBlock: OJICUG_clean_linker_0, # of connection points: 2
#     Edge 117, Type (0, 1), BuildingBlock: OJICUG_clean_linker_0, # of connection points: 2
#     Edge 118, Type (0, 1), BuildingBlock: OJICUG_clean_linker_0, # of connection points: 2
#     Edge 119, Type (0, 1), BuildingBlock: OJICUG_clean_linker_0, # of connection points: 2
#     Edge 120, Type (0, 1), BuildingBlock: OJICUG_clean_linker_0, # of connection points: 2
#     Edge 121, Type (0, 1), BuildingBlock: OJICUG_clean_linker_0, # of connection points: 2
#     Edge 122, Type (0, 1), BuildingBlock: OJICUG_clean_linker_0, # of connection points: 2
#     Edge 123, Type (0, 1), BuildingBlock: OJICUG_clean_linker_0, # of connection points: 2
#     Edge 124, Type (0, 1), BuildingBlock: OJICUG_clean_linker_0, # of connection points: 2
#     Edge 125, Type (0, 1), BuildingBlock: OJICUG_clean_linker_0, # of connection points: 2
#     Edge 126, Type (0, 1), BuildingBlock: OJICUG_clean_linker_0, # of connection points: 2
#     Edge 127, Type (0, 1), BuildingBlock: OJICUG_clean_linker_0, # of connection points: 2
#     Edge 128, Type (0, 1), BuildingBlock: OJICUG_clean_linker_0, # of connection points: 2
#     Edge 129, Type (0, 1), BuildingBlock: OJICUG_clean_linker_0, # of connection points: 2
#     Edge 130, Type (0, 1), BuildingBlock: OJICUG_clean_linker_0, # of connection points: 2
#     Edge 131, Type (0, 1), BuildingBlock: OJICUG_clean_linker_0, # of connection points: 2
#     Edge 132, Type (0, 1), BuildingBlock: OJICUG_clean_linker_0, # of connection points: 2
#     Edge 133, Type (0, 1), BuildingBlock: OJICUG_clean_linker_0, # of connection points: 2
#     Edge 134, Type (0, 1), BuildingBlock: OJICUG_clean_linker_0, # of connection points: 2
#     Edge 135, Type (0, 1), BuildingBlock: OJICUG_clean_linker_0, # of connection points: 2
#     Edge 136, Type (0, 1), BuildingBlock: OJICUG_clean_linker_0, # of connection points: 2
#     Edge 137, Type (0, 1), BuildingBlock: OJICUG_clean_linker_0, # of connection points: 2
#     Edge 138, Type (0, 1), BuildingBlock: OJICUG_clean_linker_0, # of connection points: 2
#     Edge 139, Type (0, 1), BuildingBlock: OJICUG_clean_linker_0, # of connection points: 2
#     Edge 140, Type (0, 1), BuildingBlock: OJICUG_clean_linker_0, # of connection points: 2
#     Edge 141, Type (0, 1), BuildingBlock: OJICUG_clean_linker_0, # of connection points: 2
#     Edge 142, Type (0, 1), BuildingBlock: OJICUG_clean_linker_0, # of connection points: 2
#     Edge 143, Type (0, 1), BuildingBlock: OJICUG_clean_linker_0, # of connection points: 2
#     Edge 144, Type (0, 1), BuildingBlock: OJICUG_clean_linker_0, # of connection points: 2
#     Edge 145, Type (0, 1), BuildingBlock: OJICUG_clean_linker_0, # of connection points: 2
#     Edge 146, Type (0, 1), BuildingBlock: OJICUG_clean_linker_0, # of connection points: 2
#     Edge 147, Type (0, 1), BuildingBlock: OJICUG_clean_linker_0, # of connection points: 2
#     Edge 148, Type (0, 1), BuildingBlock: OJICUG_clean_linker_0, # of connection points: 2
#     Edge 149, Type (0, 1), BuildingBlock: OJICUG_clean_linker_0, # of connection points: 2
#     Edge 150, Type (0, 1), BuildingBlock: OJICUG_clean_linker_0, # of connection points: 2
#     Edge 151, Type (0, 1), BuildingBlock: OJICUG_clean_linker_0, # of connection points: 2
# Relax obj value: 0.049
# Max RMSD: 0.215
# Mean RMSD: 0.135
data_MOF--net-tbo--node1-ESEHIV_clean_sbu_0--node2-QEWDON_clean_linker_0--edge1-OJICUG_clean_linker_0
_symmetry_space_group_name_H-M    P1
_symmetry_Int_Tables_number       1
_symmetry_cell_setting            triclinic
loop_
_symmetry_equiv_pos_as_xyz
'x, y, z'
_cell_length_a     51.801027
_cell_length_b     52.377147
_cell_length_c     57.146792
_cell_angle_alpha  90.234006
_cell_angle_beta   93.900916
_cell_angle_gamma 104.84908
loop_
_atom_site_label
_atom_site_type_symbol
_atom_site_fract_x
_atom_site_fract_y
_atom_site_fract_z
_atom_type_partial_charge
H0 H 0.18374 0.12494 0.24525 0.0
C1 C 0.19816 0.13436 0.23303 0.0
C2 C 0.21978 0.12357 0.22891 0.0
C3 C 0.19393 0.15588 0.21993 0.0
H4 H 0.25482 0.1272 0.20989 0.0
C5 C 0.23787 0.13522 0.21232 0.0
C6 C 0.23434 0.15672 0.19891 0.0
C7 C 0.21237 0.16701 0.20314 0.0
C8 C 0.16854 0.16454 0.2211 0.0
H9 H 0.2089 0.18316 0.1927 0.0
C10 C 0.15776 0.16915 0.24254 0.0
C11 C 0.13414 0.17829 0.24227 0.0
C12 C 0.15464 0.16808 0.19983 0.0
H13 H 0.16173 0.16402 0.18316 0.0
C14 C 0.13128 0.17654 0.19961 0.0
H15 H 0.16803 0.1665 0.25915 0.0
C16 C 0.12122 0.18176 0.22054 0.0
H17 H 0.10302 0.18842 0.21976 0.0
H18 H 0.1209 0.17913 0.18305 0.0
H19 H 0.90255 0.25267 0.21274 0.0
C20 C 0.89251 0.23272 0.21737 0.0
C21 C 0.90607 0.21822 0.23198 0.0
C22 C 0.86589 0.22142 0.20887 0.0
H23 H 0.90388 0.18125 0.24888 0.0
C24 C 0.89309 0.19238 0.2378 0.0
C25 C 0.86631 0.18109 0.2299 0.0
C26 C 0.85282 0.19585 0.21545 0.0
C27 C 0.85179 0.23574 0.19241 0.0
H28 H 0.83212 0.18749 0.20922 0.0
C29 C 0.86216 0.24345 0.17076 0.0
C30 C 0.84789 0.25514 0.154 0.0
C31 C 0.82708 0.24003 0.19746 0.0
H32 H 0.81868 0.23401 0.21404 0.0
C33 C 0.81303 0.25206 0.18109 0.0
H34 H 0.88084 0.23933 0.16666 0.0
C35 C 0.82327 0.25951 0.15945 0.0
H36 H 0.81204 0.26886 0.14706 0.0
H37 H 0.79405 0.25546 0.18513 0.0
H38 H 0.90964 0.85882 0.24934 0.0
C39 C 0.90155 0.85354 0.23147 0.0
C40 C 0.91564 0.84175 0.21616 0.0
C41 C 0.87604 0.85663 0.22451 0.0
H42 H 0.91358 0.82286 0.18208 0.0
C43 C 0.9034 0.83279 0.19366 0.0
C44 C 0.87762 0.83562 0.18647 0.0
C45 C 0.86467 0.84835 0.20194 0.0
C46 C 0.85842 0.86227 0.24211 0.0
H47 H 0.84482 0.85063 0.19699 0.0
C48 C 0.85745 0.88818 0.2481 0.0
C49 C 0.83826 0.89236 0.26329 0.0
C50 C 0.84058 0.84065 0.25156 0.0
H51 H 0.84094 0.82064 0.247 0.0
C52 C 0.82166 0.84453 0.26635 0.0
H53 H 0.87142 0.90477 0.24084 0.0
C54 C 0.82023 0.87001 0.27194 0.0
H55 H 0.80446 0.87198 0.28274 0.0
H56 H 0.80766 0.82767 0.2732 0.0
H57 H 0.21548 0.84658 0.13084 0.0
C58 C 0.19814 0.83551 0.13935 0.0
C59 C 0.19287 0.84402 0.1615 0.0
C60 C 0.18123 0.81265 0.12818 0.0
H61 H 0.16579 0.8357 0.18927 0.0
C62 C 0.17046 0.82931 0.17235 0.0
C63 C 0.15351 0.80663 0.1614 0.0
C64 C 0.15874 0.79844 0.13931 0.0
C65 C 0.18741 0.80312 0.10524 0.0
H66 H 0.14575 0.78056 0.1312 0.0
C67 C 0.21383 0.80304 0.10107 0.0
C68 C 0.2198 0.79349 0.07961 0.0
C69 C 0.16688 0.79349 0.0876 0.0
H70 H 0.14638 0.79355 0.0902 0.0
C71 C 0.17267 0.78392 0.06628 0.0
H72 H 0.2297 0.80982 0.11477 0.0
C73 C 0.19893 0.78386 0.06226 0.0
H74 H 0.20297 0.77672 0.04543 0.0
H75 H 0.15675 0.77664 0.05276 0.0
H76 H 0.27592 0.87928 0.89211 0.0
C77 C 0.25539 0.86917 0.88661 0.0
C78 C 0.23823 0.88402 0.87755 0.0
C79 C 0.24658 0.84164 0.88842 0.0
H80 H 0.19879 0.88242 0.86177 0.0
C81 C 0.21217 0.87101 0.86881 0.0
C82 C 0.20301 0.8434 0.87002 0.0
C83 C 0.22027 0.82887 0.88001 0.0
C84 C 0.2649 0.8268 0.89977 0.0
H85 H 0.21308 0.80764 0.88138 0.0
C86 C 0.28309 0.8386 0.91854 0.0
C87 C 0.30141 0.82574 0.92894 0.0
C88 C 0.26485 0.80128 0.89195 0.0
H89 H 0.25141 0.79167 0.87736 0.0
C90 C 0.28266 0.78806 0.90269 0.0
H91 H 0.28281 0.8578 0.9255 0.0
C92 C 0.30089 0.80019 0.92112 0.0
H93 H 0.31475 0.78983 0.92904 0.0
H94 H 0.28251 0.76845 0.89655 0.0
H95 H 0.23735 0.22343 0.94693 0.0
C96 C 0.24716 0.21052 0.93814 0.0
C97 C 0.27123 0.20642 0.94829 0.0
C98 C 0.23469 0.19673 0.91766 0.0
H99 H 0.30137 0.18476 0.94531 0.0
C100 C 0.28311 0.18837 0.9373 0.0
C101 C 0.27113 0.17481 0.91618 0.0
C102 C 0.24709 0.17959 0.90658 0.0
C103 C 0.20735 0.19792 0.909 0.0
H104 H 0.23764 0.16978 0.8903 0.0
C105 C 0.20081 0.22217 0.90511 0.0
C106 C 0.17461 0.22257 0.89678 0.0
C107 C 0.18744 0.17418 0.90476 0.0
H108 H 0.19188 0.1553 0.90787 0.0
C109 C 0.16156 0.17448 0.89671 0.0
H110 H 0.21606 0.24055 0.90836 0.0
C111 C 0.15517 0.1984 0.89266 0.0
H112 H 0.13504 0.19791 0.88577 0.0
H113 H 0.14642 0.15606 0.89343 0.0
H114 H 0.99467 0.19618 0.89984 0.0
C115 C 0.98475 0.17911 0.88885 0.0
C116 C 0.98655 0.18057 0.86452 0.0
C117 C 0.97043 0.15601 0.89917 0.0
H118 H 0.97587 0.15926 0.83151 0.0
C119 C 0.97501 0.15807 0.85038 0.0
C120 C 0.96111 0.13447 0.86031 0.0
C121 C 0.95874 0.13361 0.88474 0.0
C122 C 0.96738 0.15597 0.92491 0.0
H123 H 0.94748 0.11566 0.89242 0.0
C124 C 0.96389 0.17865 0.9363 0.0
C125 C 0.96249 0.17974 0.96075 0.0
C126 C 0.96863 0.13386 0.93835 0.0
H127 H 0.97158 0.11621 0.93022 0.0
C128 C 0.96677 0.1346 0.96262 0.0
H129 H 0.96183 0.19546 0.92604 0.0
C130 C 0.96382 0.15737 0.97381 0.0
H131 H 0.96292 0.15758 0.99268 0.0
H132 H 0.96794 0.11754 0.97286 0.0
H133 H 0.93071 0.83777 0.87285 0.0
C134 C 0.92256 0.82695 0.88794 0.0
C135 C 0.9278 0.80222 0.89299 0.0
C136 C 0.90769 0.83822 0.90293 0.0
H137 H 0.92164 0.77003 0.91713 0.0
C138 C 0.91761 0.78888 0.91316 0.0
C139 C 0.90306 0.79985 0.92861 0.0
C140 C 0.89815 0.82447 0.92309 0.0
C141 C 0.90548 0.86605 0.90024 0.0
H142 H 0.88781 0.83375 0.93509 0.0
C143 C 0.89208 0.87476 0.8805 0.0
C144 C 0.88874 0.90095 0.8801 0.0
C145 C 0.9161 0.88399 0.91893 0.0
H146 H 0.92659 0.87801 0.93415 0.0
C147 C 0.91335 0.90971 0.91839 0.0
H148 H 0.88367 0.86109 0.86602 0.0
C149 C 0.89978 0.91811 0.89929 0.0
H150 H 0.89841 0.93839 0.89941 0.0
H151 H 0.92178 0.92327 0.93293 0.0
H152 H 0.22934 0.61095 0.71826 0.0
C153 C 0.23673 0.62465 0.70461 0.0
C154 C 0.26083 0.62413 0.69463 0.0
C155 C 0.22103 0.64151 0.69597 0.0
H156 H 0.2877 0.64145 0.66846 0.0
C157 C 0.26898 0.64109 0.676 0.0
C158 C 0.25308 0.65709 0.66631 0.0
C159 C 0.22943 0.65772 0.67683 0.0
C160 C 0.19313 0.63752 0.70304 0.0
H161 H 0.21655 0.66925 0.66907 0.0
C162 C 0.1849 0.6561 0.71696 0.0
C163 C 0.15763 0.65165 0.72193 0.0
C164 C 0.17406 0.61465 0.69456 0.0
H165 H 0.17987 0.60022 0.68384 0.0
C166 C 0.14731 0.61033 0.69938 0.0
H167 H 0.19943 0.67381 0.72368 0.0
C168 C 0.13911 0.62867 0.71282 0.0
H169 H 0.11821 0.62469 0.71645 0.0
H170 H 0.1328 0.59266 0.69261 0.0
H171 H 0.91396 0.75714 0.7085 0.0
C172 C 0.90323 0.73944 0.71692 0.0
C173 C 0.91745 0.72385 0.7296 0.0
C174 C 0.87507 0.73194 0.71497 0.0
H175 H 0.91412 0.68881 0.75018 0.0
C176 C 0.90327 0.70088 0.74029 0.0
C177 C 0.87522 0.69327 0.73831 0.0
C178 C 0.86125 0.70892 0.72567 0.0
C179 C 0.85959 0.74701 0.70079 0.0
H180 H 0.83953 0.70309 0.724 0.0
C181 C 0.86139 0.74803 0.67644 0.0
C182 C 0.84397 0.75901 0.66226 0.0
C183 C 0.84072 0.75769 0.71108 0.0
H184 H 0.83886 0.75674 0.72985 0.0
C185 C 0.82383 0.76925 0.69713 0.0
H186 H 0.87545 0.73907 0.66846 0.0
C187 C 0.82525 0.76976 0.67282 0.0
H188 H 0.81184 0.77865 0.66228 0.0
H189 H 0.80933 0.77749 0.70515 0.0
H190 H 0.92091 0.39043 0.77212 0.0
C191 C 0.91564 0.38145 0.75475 0.0
C192 C 0.93331 0.36912 0.74438 0.0
C193 C 0.8902 0.38021 0.74376 0.0
H194 H 0.93938 0.3472 0.71417 0.0
C195 C 0.92577 0.35665 0.72221 0.0
C196 C 0.90051 0.35506 0.71077 0.0
C197 C 0.88274 0.36683 0.72181 0.0
C198 C 0.8703 0.38988 0.75664 0.0
H199 H 0.86303 0.36548 0.71339 0.0
C200 C 0.87667 0.41527 0.76761 0.0
C201 C 0.85784 0.42318 0.78092 0.0
C202 C 0.84493 0.37273 0.75908 0.0
H203 H 0.83959 0.35307 0.75117 0.0
C204 C 0.82641 0.38039 0.77227 0.0
H205 H 0.89612 0.42873 0.76581 0.0
C206 C 0.83277 0.40531 0.78314 0.0
H207 H 0.81772 0.41084 0.79287 0.0
H208 H 0.80699 0.36692 0.77408 0.0
H209 H 0.22004 0.38721 0.65109 0.0
C210 C 0.20465 0.3763 0.6618 0.0
C211 C 0.20746 0.37992 0.68644 0.0
C212 C 0.1814 0.35929 0.65077 0.0
H213 H 0.18818 0.36872 0.7185 0.0
C214 C 0.18709 0.36542 0.6997 0.0
C215 C 0.16437 0.34764 0.68903 0.0
C216 C 0.16134 0.34498 0.66454 0.0
C217 C 0.1769 0.35791 0.62484 0.0
H218 H 0.14342 0.33178 0.6562 0.0
C219 C 0.19554 0.35147 0.61052 0.0
C220 C 0.19045 0.34953 0.58588 0.0
C221 C 0.15341 0.36286 0.61434 0.0
H222 H 0.13889 0.36801 0.62499 0.0
C223 C 0.14858 0.36158 0.59003 0.0
H224 H 0.21342 0.34714 0.61862 0.0
C225 C 0.16689 0.35498 0.57589 0.0
H226 H 0.16264 0.35432 0.55704 0.0
H227 H 0.13053 0.36568 0.58211 0.0
H228 H 0.25446 0.37611 0.35453 0.0
C229 C 0.23342 0.36738 0.35672 0.0
C230 C 0.21406 0.38014 0.34808 0.0
C231 C 0.22574 0.3426 0.36696 0.0
H232 H 0.17182 0.37787 0.34397 0.0
C233 C 0.18683 0.36796 0.3503 0.0
C234 C 0.17888 0.3431 0.36064 0.0
C235 C 0.19858 0.33052 0.36887 0.0
C236 C 0.24609 0.32826 0.37343 0.0
H237 H 0.19284 0.31091 0.37606 0.0
C238 C 0.26171 0.33383 0.39479 0.0
C239 C 0.28246 0.32135 0.4002 0.0
C240 C 0.25067 0.30975 0.35754 0.0
H241 H 0.23878 0.30534 0.34099 0.0
C242 C 0.27105 0.29729 0.36268 0.0
H243 H 0.2575 0.3478 0.40705 0.0
C244 C 0.28701 0.30318 0.38366 0.0
H245 H 0.30324 0.29379 0.38658 0.0
H246 H 0.2748 0.2833 0.35018 0.0
H247 H 0.24563 0.69021 0.41084 0.0
C248 C 0.25426 0.67949 0.39857 0.0
C249 C 0.27886 0.67352 0.4048 0.0
C250 C 0.23965 0.67026 0.37731 0.0
H251 H 0.30776 0.65351 0.39355 0.0
C252 C 0.28877 0.658 0.38909 0.0
C253 C 0.27444 0.64861 0.3675 0.0
C254 C 0.24977 0.65485 0.36197 0.0
C255 C 0.21157 0.67221 0.37346 0.0
H256 H 0.23768 0.64669 0.34615 0.0
C257 C 0.20467 0.69382 0.36217 0.0
C258 C 0.1776 0.69497 0.35986 0.0
C259 C 0.19132 0.65197 0.38203 0.0
H260 H 0.19621 0.6353 0.39074 0.0
C261 C 0.16469 0.65311 0.37968 0.0
H262 H 0.22013 0.7096 0.35551 0.0
C263 C 0.15787 0.67446 0.36877 0.0
H264 H 0.13703 0.67493 0.36716 0.0
H265 H 0.14926 0.6374 0.38642 0.0
H266 H 0.96329 0.68878 0.38102 0.0
C267 C 0.949 0.67231 0.37198 0.0
C268 C 0.94849 0.66938 0.34752 0.0
C269 C 0.93139 0.65402 0.38502 0.0
H270 H 0.92937 0.64567 0.31724 0.0
C271 C 0.93004 0.64782 0.33615 0.0
C272 C 0.91194 0.62945 0.34894 0.0
C273 C 0.91304 0.63248 0.37352 0.0
C274 C 0.93152 0.65835 0.41056 0.0
H275 H 0.89886 0.61887 0.38364 0.0
C276 C 0.92646 0.6816 0.41925 0.0
C277 C 0.92704 0.68633 0.44353 0.0
C278 C 0.9372 0.63973 0.4263 0.0
H279 H 0.94116 0.62171 0.41989 0.0
C280 C 0.93834 0.64456 0.45046 0.0
H281 H 0.92184 0.69589 0.40706 0.0
C282 C 0.93336 0.66774 0.45908 0.0
H283 H 0.93371 0.67077 0.47787 0.0
H284 H 0.9429 0.63021 0.46256 0.0
H285 H 0.90298 0.3271 0.40159 0.0
C286 C 0.89202 0.31983 0.41673 0.0
C287 C 0.89539 0.29665 0.4275 0.0
C288 C 0.87611 0.33492 0.42603 0.0
H289 H 0.88506 0.27135 0.45717 0.0
C290 C 0.88239 0.28884 0.44832 0.0
C291 C 0.86599 0.30362 0.45786 0.0
C292 C 0.86268 0.32639 0.44622 0.0
C293 C 0.87777 0.36181 0.41692 0.0
H294 H 0.85138 0.33868 0.4539 0.0
C295 C 0.85513 0.3696 0.40726 0.0
C296 C 0.85837 0.39488 0.39742 0.0
C297 C 0.90312 0.37982 0.4174 0.0
H298 H 0.92071 0.37439 0.4249 0.0
C299 C 0.90616 0.40491 0.40825 0.0
H300 H 0.8355 0.35584 0.40659 0.0
C301 C 0.88403 0.41234 0.39819 0.0
H302 H 0.88696 0.43186 0.39088 0.0
H303 H 0.92581 0.41858 0.40873 0.0
H304 H 0.72214 0.0906 0.73165 0.0
C305 C 0.73181 0.10557 0.71979 0.0
C306 C 0.75864 0.10798 0.7151 0.0
C307 C 0.71652 0.12084 0.7079 0.0
H308 H 0.79087 0.12916 0.69496 0.0
C309 C 0.77008 0.12664 0.69838 0.0
C310 C 0.7549 0.14163 0.68562 0.0
C311 C 0.72813 0.13877 0.69095 0.0
C312 C 0.6871 0.11372 0.70959 0.0
H313 H 0.71565 0.14906 0.68081 0.0
C314 C 0.67398 0.12952 0.72203 0.0
C315 C 0.64602 0.12093 0.72413 0.0
C316 C 0.67205 0.08995 0.6988 0.0
H317 H 0.68175 0.07763 0.68914 0.0
C318 C 0.64447 0.08181 0.70036 0.0
H319 H 0.68551 0.14778 0.7306 0.0
C320 C 0.63155 0.09705 0.71297 0.0
H321 H 0.61008 0.09015 0.71399 0.0
H322 H 0.63306 0.06347 0.69191 0.0
H323 H 0.41261 0.26399 0.69566 0.0
C324 C 0.40137 0.24727 0.705 0.0
C325 C 0.41474 0.2304 0.71666 0.0
C326 C 0.3735 0.24269 0.70563 0.0
H327 H 0.41073 0.19587 0.73767 0.0
C328 C 0.4002 0.20893 0.72886 0.0
C329 C 0.37245 0.20438 0.73007 0.0
C330 C 0.35916 0.22144 0.71836 0.0
C331 C 0.35933 0.26011 0.69296 0.0
H332 H 0.33771 0.21823 0.71907 0.0
C333 C 0.35913 0.26144 0.66842 0.0
C334 C 0.34543 0.2778 0.65617 0.0
C335 C 0.34574 0.27522 0.70529 0.0
H336 H 0.34563 0.27433 0.72423 0.0
C337 C 0.33249 0.29184 0.69325 0.0
H338 H 0.36947 0.24959 0.65888 0.0
C339 C 0.33235 0.29321 0.66883 0.0
H340 H 0.32153 0.30586 0.6598 0.0
H341 H 0.32214 0.30358 0.70285 0.0
H342 H 0.40007 0.88488 0.75929 0.0
C343 C 0.39777 0.877 0.74149 0.0
C344 C 0.41493 0.8618 0.73445 0.0
C345 C 0.37621 0.87999 0.72618 0.0
H346 H 0.4238 0.83829 0.70656 0.0
C347 C 0.41094 0.8504 0.71172 0.0
C348 C 0.38996 0.8534 0.696 0.0
C349 C 0.37297 0.86851 0.70333 0.0
C350 C 0.35452 0.89122 0.73467 0.0
H351 H 0.35663 0.87081 0.69134 0.0
C352 C 0.3595 0.91519 0.74805 0.0
C353 C 0.3378 0.92457 0.75544 0.0
C354 C 0.32779 0.87692 0.72925 0.0
H355 H 0.32314 0.85823 0.71964 0.0
C356 C 0.30661 0.88619 0.73621 0.0
H357 H 0.37992 0.92636 0.75262 0.0
C358 C 0.31149 0.90976 0.74899 0.0
H359 H 0.29441 0.91654 0.75368 0.0
H360 H 0.28621 0.875 0.73164 0.0
H361 H 0.71941 0.86892 0.65351 0.0
C362 C 0.70391 0.86009 0.66498 0.0
C363 C 0.70709 0.86876 0.68843 0.0
C364 C 0.68063 0.84133 0.65607 0.0
H365 H 0.68874 0.86595 0.72128 0.0
C366 C 0.68632 0.85922 0.7031 0.0
C367 C 0.66246 0.84108 0.69465 0.0
C368 C 0.65999 0.83168 0.67126 0.0
C369 C 0.67779 0.83322 0.63067 0.0
H370 H 0.64178 0.81739 0.66487 0.0
C371 C 0.70059 0.83289 0.61852 0.0
C372 C 0.69867 0.82806 0.59412 0.0
C373 C 0.65267 0.82745 0.61797 0.0
H374 H 0.63472 0.828 0.62638 0.0
C375 C 0.65047 0.82174 0.59391 0.0
H376 H 0.72008 0.83698 0.62796 0.0
C377 C 0.67324 0.8222 0.58201 0.0
H378 H 0.67088 0.81781 0.56333 0.0
H379 H 0.63102 0.81735 0.58435 0.0
H380 H 0.73349 0.84078 0.37524 0.0
C381 C 0.71195 0.8375 0.37269 0.0
C382 C 0.70059 0.85907 0.36969 0.0
C383 C 0.69544 0.81164 0.37235 0.0
H384 H 0.66368 0.87097 0.36381 0.0
C385 C 0.67263 0.85452 0.36644 0.0
C386 C 0.65616 0.82876 0.36634 0.0
C387 C 0.66766 0.80743 0.36922 0.0
C388 C 0.70671 0.78874 0.37594 0.0
H389 H 0.65494 0.78742 0.36899 0.0
C390 C 0.71708 0.78401 0.3983 0.0
C391 C 0.72537 0.76079 0.40262 0.0
C392 C 0.70487 0.77031 0.35763 0.0
H393 H 0.69651 0.77352 0.34033 0.0
C394 C 0.71363 0.7475 0.36163 0.0
H395 H 0.71835 0.79831 0.41239 0.0
C396 C 0.72379 0.74268 0.384 0.0
H397 H 0.73 0.72463 0.38681 0.0
H398 H 0.71222 0.73335 0.34744 0.0
H399 H 0.73856 0.20706 0.42791 0.0
C400 C 0.74447 0.19363 0.41616 0.0
C401 C 0.76696 0.18413 0.42265 0.0
C402 C 0.72843 0.18486 0.39524 0.0
H403 H 0.79177 0.15994 0.41163 0.0
C404 C 0.77369 0.16619 0.40737 0.0
C405 C 0.75725 0.15569 0.38708 0.0
C406 C 0.73488 0.16575 0.38082 0.0
C407 C 0.7027 0.19267 0.391 0.0
H408 H 0.72156 0.15765 0.36566 0.0
C409 C 0.696 0.20512 0.37026 0.0
C410 C 0.67203 0.21374 0.36798 0.0
C411 C 0.68484 0.18826 0.40888 0.0
H412 H 0.68926 0.17856 0.42482 0.0
C413 C 0.66113 0.19613 0.40652 0.0
H414 H 0.70968 0.20877 0.35641 0.0
C415 C 0.65479 0.20877 0.38638 0.0
H416 H 0.63596 0.21426 0.38508 0.0
H417 H 0.64754 0.19242 0.42043 0.0
H418 H 0.46379 0.18576 0.3708 0.0
C419 C 0.44842 0.16899 0.36342 0.0
C420 C 0.44995 0.15978 0.34057 0.0
C421 C 0.4277 0.15586 0.37716 0.0
H422 H 0.43156 0.13043 0.31388 0.0
C423 C 0.4306 0.13753 0.33159 0.0
C424 C 0.40995 0.12425 0.34503 0.0
C425 C 0.4082 0.13364 0.36777 0.0
C426 C 0.42873 0.16318 0.40226 0.0
H427 H 0.39261 0.123 0.37846 0.0
C428 C 0.41151 0.1774 0.41075 0.0
C429 C 0.4134 0.18465 0.43479 0.0
C430 C 0.44764 0.156 0.41781 0.0
H431 H 0.46105 0.14507 0.41153 0.0
C432 C 0.44929 0.16265 0.44159 0.0
H433 H 0.39725 0.18331 0.39858 0.0
C434 C 0.43233 0.17681 0.45006 0.0
H435 H 0.43392 0.1814 0.46868 0.0
H436 H 0.46378 0.15682 0.45353 0.0
H437 H 0.38082 0.8531 0.37484 0.0
C438 C 0.37091 0.84451 0.3901 0.0
C439 C 0.37493 0.82048 0.39906 0.0
C440 C 0.35591 0.85876 0.40206 0.0
H441 H 0.36562 0.7927 0.4274 0.0
C442 C 0.36289 0.81087 0.41993 0.0
C443 C 0.34856 0.82536 0.43218 0.0
C444 C 0.34485 0.8489 0.42295 0.0
C445 C 0.35568 0.88627 0.39605 0.0
H446 H 0.33457 0.86049 0.43288 0.0
C447 C 0.34024 0.89232 0.37651 0.0
C448 C 0.3368 0.91828 0.37382 0.0
C449 C 0.36857 0.90641 0.4123 0.0
H450 H 0.38045 0.9022 0.42745 0.0
C451 C 0.36532 0.93179 0.40989 0.0
H452 H 0.33067 0.87672 0.36391 0.0
C453 C 0.34922 0.93757 0.39123 0.0
H454 H 0.34629 0.95727 0.39089 0.0
H455 H 0.37477 0.94695 0.42294 0.0
H456 H 0.67087 0.63709 0.24483 0.0
C457 C 0.68496 0.64447 0.23173 0.0
C458 C 0.70788 0.63476 0.2307 0.0
C459 C 0.67918 0.66215 0.21488 0.0
H460 H 0.74349 0.63668 0.2127 0.0
C461 C 0.72554 0.64363 0.21299 0.0
C462 C 0.72048 0.6614 0.19591 0.0
C463 C 0.6973 0.67066 0.19728 0.0
C464 C 0.65298 0.66964 0.2138 0.0
H465 H 0.69282 0.684 0.18412 0.0
C466 C 0.64135 0.67641 0.23405 0.0
C467 C 0.61701 0.68421 0.23173 0.0
C468 C 0.63919 0.6698 0.19171 0.0
H469 H 0.64683 0.66391 0.17594 0.0
C470 C 0.61519 0.67719 0.18953 0.0
H471 H 0.65144 0.67636 0.25127 0.0
C472 C 0.6043 0.68451 0.20928 0.0
H473 H 0.58562 0.69024 0.20704 0.0
H474 H 0.60496 0.67724 0.17238 0.0
H475 H 0.40247 0.76132 0.17797 0.0
C476 C 0.39251 0.74099 0.18151 0.0
C477 C 0.40418 0.72765 0.19859 0.0
C478 C 0.36806 0.72836 0.16923 0.0
H479 H 0.40009 0.6917 0.21759 0.0
C480 C 0.39111 0.70178 0.20402 0.0
C481 C 0.36623 0.68911 0.19267 0.0
C482 C 0.35493 0.7023 0.17494 0.0
C483 C 0.35638 0.74291 0.15086 0.0
H484 H 0.33587 0.69245 0.16592 0.0
C485 C 0.37313 0.75904 0.13544 0.0
C486 C 0.36301 0.77472 0.11919 0.0
C487 C 0.32896 0.74197 0.14934 0.0
H488 H 0.3156 0.72992 0.16112 0.0
C489 C 0.31871 0.75738 0.1331 0.0
H490 H 0.39427 0.75976 0.13636 0.0
C491 C 0.33564 0.77388 0.11827 0.0
H492 H 0.32731 0.78577 0.10599 0.0
H493 H 0.29762 0.75678 0.13219 0.0
H494 H 0.46485 0.36799 0.25235 0.0
C495 C 0.45181 0.36077 0.2368 0.0
C496 C 0.45929 0.34384 0.22089 0.0
C497 C 0.42753 0.36827 0.23322 0.0
H498 H 0.44705 0.32118 0.18855 0.0
C499 C 0.44225 0.33513 0.20048 0.0
C500 C 0.41821 0.34287 0.19594 0.0
C501 C 0.41111 0.35957 0.21252 0.0
C502 C 0.41845 0.38268 0.25253 0.0
H503 H 0.3924 0.36512 0.20971 0.0
C504 C 0.40647 0.40397 0.24851 0.0
C505 C 0.39889 0.41729 0.26762 0.0
C506 C 0.42186 0.37456 0.27574 0.0
H507 H 0.43024 0.35795 0.27951 0.0
C508 C 0.41419 0.38733 0.29442 0.0
H509 H 0.40367 0.41049 0.23078 0.0
C510 C 0.40289 0.40845 0.29048 0.0
H511 H 0.39668 0.41752 0.30545 0.0
H512 H 0.41685 0.38067 0.31212 0.0
H513 H 0.78235 0.4303 0.16272 0.0
C514 C 0.767 0.41293 0.16696 0.0
C515 C 0.75808 0.41025 0.18963 0.0
C516 C 0.75477 0.39412 0.14934 0.0
H517 H 0.73076 0.38643 0.21238 0.0
C518 C 0.73778 0.38808 0.19486 0.0
C519 C 0.7259 0.36859 0.17769 0.0
C520 C 0.73428 0.372 0.15475 0.0
C521 C 0.76209 0.39856 0.12491 0.0
H522 H 0.72504 0.35747 0.14109 0.0
C523 C 0.78776 0.39824 0.11863 0.0
C524 C 0.79443 0.40184 0.09514 0.0
C525 C 0.74321 0.40313 0.10777 0.0
H526 H 0.72335 0.40351 0.11235 0.0
C527 C 0.74991 0.40749 0.08463 0.0
H528 H 0.80226 0.39463 0.13195 0.0
C529 C 0.77526 0.40677 0.07829 0.0
H530 H 0.77949 0.40915 0.06001 0.0
H531 H 0.73524 0.41102 0.07148 0.0
H532 H 0.7778 0.36362 0.85679 0.0
C533 C 0.75801 0.3519 0.85072 0.0
C534 C 0.73823 0.3644 0.84245 0.0
C535 C 0.75237 0.32424 0.85098 0.0
H536 H 0.698 0.35848 0.82702 0.0
C537 C 0.7128 0.34887 0.83436 0.0
C538 C 0.70666 0.32117 0.83505 0.0
C539 C 0.72662 0.30915 0.84363 0.0
C540 C 0.77312 0.31059 0.85867 0.0
H541 H 0.72215 0.28787 0.84506 0.0
C542 C 0.78755 0.31658 0.88059 0.0
C543 C 0.80529 0.30165 0.88865 0.0
C544 C 0.7773 0.29019 0.84453 0.0
H545 H 0.76649 0.28533 0.82752 0.0
C546 C 0.7953 0.27576 0.85228 0.0
H547 H 0.78411 0.33199 0.89175 0.0
C548 C 0.80908 0.28128 0.87428 0.0
H549 H 0.82285 0.26973 0.88003 0.0
H550 H 0.79838 0.26007 0.84128 0.0
H551 H 0.71976 0.70427 0.92823 0.0
C552 C 0.73207 0.69154 0.92322 0.0
C553 C 0.75322 0.68835 0.93889 0.0
C554 C 0.72571 0.67703 0.90189 0.0
H555 H 0.78415 0.66751 0.94497 0.0
C556 C 0.76812 0.67043 0.93292 0.0
C557 C 0.76282 0.65672 0.91119 0.0
C558 C 0.74193 0.66051 0.89576 0.0
C559 C 0.70074 0.67665 0.88696 0.0
H560 H 0.73761 0.64959 0.87918 0.0
C561 C 0.6921 0.69978 0.88205 0.0
C562 C 0.66885 0.69835 0.86704 0.0
C563 C 0.68511 0.65226 0.87747 0.0
H564 H 0.69054 0.63403 0.88144 0.0
C565 C 0.66211 0.65087 0.86294 0.0
H566 H 0.7037 0.71876 0.8892 0.0
C567 C 0.65412 0.6737 0.85763 0.0
H568 H 0.63609 0.67204 0.8463 0.0
H569 H 0.65038 0.63196 0.85578 0.0
H570 H 0.41772 0.69652 0.87434 0.0
C571 C 0.40966 0.67771 0.86523 0.0
C572 C 0.42303 0.67108 0.84638 0.0
C573 C 0.38646 0.66013 0.87275 0.0
H574 H 0.42344 0.64066 0.82097 0.0
C575 C 0.41298 0.64627 0.83513 0.0
C576 C 0.38992 0.62831 0.84252 0.0
C577 C 0.3765 0.63568 0.86087 0.0
C578 C 0.37369 0.66658 0.89389 0.0
H579 H 0.35867 0.62188 0.86634 0.0
C580 C 0.37394 0.69288 0.8995 0.0
C581 C 0.36406 0.69926 0.9205 0.0
C582 C 0.36233 0.64655 0.90932 0.0
H583 H 0.36237 0.62618 0.90611 0.0
C584 C 0.35154 0.65262 0.92967 0.0
H585 H 0.38198 0.70852 0.88763 0.0
C586 C 0.35255 0.67876 0.93537 0.0
H587 H 0.34516 0.68295 0.95185 0.0
H588 H 0.34306 0.63705 0.94144 0.0
H589 H 0.44186 0.32554 0.87396 0.0
C590 C 0.43408 0.31675 0.89001 0.0
C591 C 0.4394 0.29282 0.89743 0.0
C592 C 0.42056 0.33047 0.90408 0.0
H593 H 0.43297 0.26326 0.92399 0.0
C594 C 0.42998 0.28221 0.91883 0.0
C595 C 0.41692 0.29565 0.93362 0.0
C596 C 0.4121 0.31968 0.92582 0.0
C597 C 0.41798 0.3575 0.89758 0.0
H598 H 0.40241 0.33056 0.93699 0.0
C599 C 0.4099 0.36377 0.87448 0.0
C600 C 0.40772 0.38966 0.86942 0.0
C601 C 0.42427 0.37765 0.915 0.0
H602 H 0.43115 0.37386 0.93266 0.0
C603 C 0.42227 0.40309 0.90991 0.0
H604 H 0.40491 0.34864 0.86075 0.0
C605 C 0.41399 0.40904 0.88737 0.0
H606 H 0.41244 0.42895 0.8839 0.0
H607 H 0.4272 0.41831 0.92355 0.0
Cu608 Cu 0.34139 0.25012 0.07901 0.0
N609 N 0.36728 0.24611 0.0585 0.0
N610 N 0.38819 0.25331 1.02497 0.0
C611 C 0.37685 0.26379 0.04196 0.0
C612 C 0.38632 0.22817 1.03133 0.0
C613 C 0.37318 0.22369 0.0518 0.0
O614 O 0.31017 0.24683 0.05682 0.0
C615 C 0.34768 0.28818 0.11719 0.0
O616 O 0.3234 0.27513 0.12176 0.0
H617 H 0.37412 0.28356 0.04157 0.0
H618 H 0.36628 0.20478 0.05991 0.0
N619 N 0.33155 0.22224 0.10027 0.0
N620 N 0.30887 0.19709 0.12783 0.0
C621 C 0.30929 0.21676 0.11245 0.0
C622 C 0.34562 0.20534 0.10825 0.0
C623 C 0.33163 0.18972 0.12504 0.0
C624 C 0.31048 0.26008 0.03812 0.0
O625 O 0.32624 0.28408 0.03787 0.0
H626 H 0.29382 0.22724 0.11028 0.0
H627 H 0.3651 0.20493 0.10282 0.0
O628 O 0.35711 0.28255 0.09829 0.0
H629 H 0.39195 0.21344 1.02087 0.0
H630 H 0.33821 0.17478 0.13509 0.0
Cu631 Cu 0.88885 0.3089 1.02115 0.0
N632 N 0.89343 0.34282 0.03371 0.0
N633 N 0.88064 0.37316 0.05435 0.0
C634 C 0.87681 0.3473 0.04933 0.0
C635 C 0.90062 0.38571 0.04126 0.0
C636 C 0.9087 0.36682 1.02863 0.0
O637 O 0.87453 0.28596 0.04608 0.0
C638 C 0.8666 0.32098 0.97801 0.0
O639 O 0.88605 0.34268 0.98095 0.0
H640 H 0.86084 0.33183 0.05569 0.0
H641 H 0.92358 0.37045 1.01582 0.0
N642 N 0.91978 0.30041 1.01286 0.0
N643 N 0.94414 0.27408 1.00058 0.0
C644 C 0.92026 0.2755 1.0077 0.0
C645 C 0.94425 0.31553 1.00896 0.0
C646 C 0.95937 0.29928 1.0013 0.0
C647 C 0.88989 0.28788 0.0647 0.0
O648 O 0.91455 0.30271 0.0646 0.0
H649 H 0.9029 0.25886 1.00824 0.0
H650 H 0.95045 0.3368 1.01102 0.0
O651 O 0.86384 0.30355 0.99373 0.0
H652 H 0.90815 0.40692 0.04026 0.0
H653 H 0.97982 0.30557 0.9964 0.0
Cu654 Cu 0.81928 0.74111 0.06762 0.0
N655 N 0.84633 0.73905 0.04778 0.0
N656 N 0.86925 0.74889 1.01557 0.0
C657 C 0.85563 0.75758 1.03188 0.0
C658 C 0.86912 0.72401 1.02175 0.0
C659 C 0.85476 0.7179 0.04146 0.0
O660 O 0.78745 0.73485 0.04586 0.0
C661 C 0.81943 0.78066 0.10217 0.0
O662 O 0.79413 0.76819 0.10338 0.0
H663 H 0.85123 0.77668 1.03152 0.0
H664 H 0.8491 0.69876 0.04941 0.0
N665 N 0.81174 0.71447 0.09026 0.0
N666 N 0.79155 0.69217 0.12046 0.0
C667 C 0.79005 0.70936 0.10311 0.0
C668 C 0.82742 0.69973 0.09969 0.0
C669 C 0.81496 0.68584 0.11816 0.0
C670 C 0.78619 0.74719 1.02682 0.0
O671 O 0.80149 0.77125 1.02525 0.0
H672 H 0.77368 0.71853 0.10013 0.0
H673 H 0.84708 0.69998 0.09427 0.0
O674 O 0.83214 0.77439 0.08568 0.0
H675 H 0.87701 0.71053 1.0117 0.0
H676 H 0.82315 0.67314 0.12975 0.0
Cu677 Cu 0.39013 0.84193 1.02369 0.0
N678 N 0.36513 0.81713 0.03958 0.0
N679 N 0.32711 0.79936 0.05631 0.0
C680 C 0.3438 0.82178 0.0493 0.0
C681 C 0.33869 0.77985 0.05128 0.0
C682 C 0.36221 0.79091 0.04102 0.0
O683 O 0.42633 0.84902 0.03864 0.0
C684 C 0.36578 0.88383 1.0074 0.0
O685 O 0.36375 0.9082 1.00965 0.0
H686 H 0.33968 0.84101 0.04961 0.0
H687 H 0.37578 0.78046 0.03437 0.0
N688 N 0.39137 0.8297 0.99321 0.0
N689 N 0.38537 0.80267 0.96192 0.0
C690 C 0.37891 0.80568 0.98402 0.0
C691 C 0.40613 0.84244 0.97627 0.0
C692 C 0.40258 0.82572 0.95693 0.0
C693 C 0.4345 0.84113 0.05814 0.0
O694 O 0.46034 0.84679 0.06393 0.0
H695 H 0.36603 0.79034 0.99356 0.0
H696 H 0.41903 0.86226 0.9781 0.0
O697 O 0.38017 0.87527 1.02291 0.0
H698 H 0.33045 0.75905 0.05424 0.0
H699 H 0.41229 0.82997 0.94069 0.0
Cu700 Cu 0.02447 0.2471 0.33737 0.0
N701 N 0.0406 0.21945 0.33088 0.0
N702 N 0.06831 0.19934 0.31361 0.0
C703 C 0.06313 0.22262 0.31933 0.0
C704 C 0.04831 0.18079 0.32245 0.0
C705 C 0.03131 0.19319 0.33297 0.0
O706 O 0.05379 0.27836 0.34208 0.0
C707 C 1.00373 0.24564 0.28947 0.0
O708 O 0.02505 0.23817 0.28434 0.0
H709 H 0.07473 0.24179 0.31427 0.0
H710 H 1.01276 0.18366 0.3405 0.0
N711 N 1.00347 0.24258 0.36364 0.0
N712 N 0.97329 0.24916 0.3881 0.0
C713 C 0.98448 0.25541 0.36741 0.0
C714 C 1.0043 0.22756 0.38258 0.0
C715 C 0.98584 0.23162 0.39768 0.0
C716 C 0.07007 0.2794 0.35996 0.0
O717 O 0.06476 0.26061 0.37542 0.0
H718 H 0.97944 0.26957 0.35536 0.0
H719 H 1.01758 0.21477 0.38535 0.0
O720 O 1.00076 0.25115 0.31065 0.0
H721 H 0.04514 0.15966 0.32027 0.0
H722 H 0.98191 0.22223 0.41435 0.0
Cu723 Cu 0.78491 0.02372 0.31029 0.0
N724 N 0.79422 0.04409 0.28224 0.0
N725 N 0.81139 0.0774 0.25905 0.0
C726 C 0.80951 0.06892 0.28133 0.0
C727 C 0.7966 0.05684 0.24555 0.0
C728 C 0.78593 0.03636 0.25994 0.0
O729 O 0.77153 0.05415 0.32365 0.0
C730 C 0.81918 0.99385 0.28657 0.0
O731 O 0.83511 0.01662 0.28137 0.0
H732 H 0.81859 0.08057 0.29682 0.0
H733 H 0.77312 0.01722 0.25458 0.0
N734 N 0.77444 1.00241 0.33783 0.0
N735 N 0.75836 0.9663 0.35822 0.0
C736 C 0.76368 0.97615 0.33685 0.0
C737 C 0.77596 0.00949 0.36069 0.0
C738 C 0.76579 0.98716 0.37333 0.0
C739 C 0.78691 0.07112 0.33781 0.0
O740 O 0.81108 0.06863 0.34375 0.0
H741 H 0.75933 0.96452 0.32069 0.0
H742 H 0.78378 0.0293 0.36783 0.0
O743 O 0.79818 0.99303 0.29731 0.0
H744 H 0.79366 0.05641 0.22661 0.0
H745 H 0.76415 0.98627 0.3921 0.0
Cu746 Cu 0.06173 0.77134 0.26993 0.0
N747 N 0.04652 0.80008 0.26454 0.0
N748 N 1.01593 0.82176 0.2524 0.0
C749 C 1.02101 0.79795 0.25612 0.0
C750 C 0.03926 0.83957 0.25894 0.0
C751 C 0.05806 0.82617 0.26631 0.0
O752 O 0.03407 0.74243 0.28024 0.0
C753 C 0.0692 0.76809 0.22103 0.0
O754 O 0.04698 0.77559 0.21731 0.0
H755 H 1.00657 0.77914 0.2526 0.0
H756 H 0.07881 0.83484 0.27204 0.0
N757 N 0.09012 0.77683 0.29326 0.0
N758 N 0.12278 0.7666 0.31634 0.0
C759 C 0.1053 0.75962 0.2973 0.0
C760 C 0.09827 0.79551 0.3103 0.0
C761 C 0.11836 0.78923 0.32458 0.0
C762 C 0.02323 0.74791 0.29826 0.0
O763 O 0.03124 0.77191 0.30747 0.0
H764 H 0.10259 0.74159 0.28704 0.0
H765 H 0.08967 0.81203 0.31265 0.0
O766 O 0.07672 0.76312 0.24176 0.0
H767 H 0.04281 0.8608 0.25787 0.0
H768 H 0.12855 0.80026 0.34006 0.0
Cu769 Cu 0.27398 0.99091 0.26399 0.0
N770 N 0.30885 0.01158 0.26944 0.0
N771 N 0.34379 0.03931 0.28885 0.0
C772 C 0.3169 0.0306 0.2862 0.0
C773 C 0.35301 0.02514 0.27309 0.0
C774 C 0.3314 0.00789 0.26129 0.0
O775 O 0.25105 0.01504 0.25806 0.0
C776 C 0.27778 0.94817 0.29291 0.0
O777 O 0.28414 0.93838 0.27361 0.0
H778 H 0.30337 0.03682 0.29718 0.0
H779 H 0.33217 0.99292 0.24846 0.0
N780 N 0.27099 0.97079 0.23631 0.0
N781 N 0.25608 0.93928 0.20852 0.0
C782 C 0.25382 0.9472 0.23066 0.0
C783 C 0.28413 0.97825 0.21694 0.0
C784 C 0.27509 0.95883 0.19982 0.0
C785 C 0.24569 0.0321 0.27162 0.0
O786 O 0.25292 0.03253 0.29412 0.0
H787 H 0.23956 0.93638 0.24238 0.0
H788 H 0.29892 0.99679 0.21524 0.0
O789 O 0.26945 0.96914 0.29192 0.0
H790 H 0.37386 0.02677 0.27049 0.0
H791 H 0.28199 0.95909 0.18234 0.0
Cu792 Cu 0.05973 0.75457 0.80279 0.0
N793 N 0.07693 0.72711 0.79865 0.0
N794 N 0.10371 0.70434 0.78373 0.0
C795 C 0.09007 0.723 0.77985 0.0
C796 C 0.09895 0.69646 0.80585 0.0
C797 C 0.08258 0.7105 0.81497 0.0
O798 O 0.08833 0.78481 0.81396 0.0
C799 C 0.02604 0.73913 0.763 0.0
O800 O 0.03003 0.71625 0.76919 0.0
H801 H 0.09037 0.73416 0.76393 0.0
H802 H 0.07601 0.70928 0.83258 0.0
N803 N 0.03346 0.74802 0.82492 0.0
N804 N 1.00022 0.7546 0.84574 0.0
C805 C 1.0202 0.76558 0.83189 0.0
C806 C 1.02146 0.7251 0.83464 0.0
C807 C 1.00115 0.7291 0.84753 0.0
C808 C 0.0978 0.78291 0.83486 0.0
O809 O 0.08608 0.76263 0.84718 0.0
H810 H 0.02451 0.78578 0.82609 0.0
H811 H 0.02656 0.70658 0.832 0.0
O812 O 0.03972 0.75991 0.77403 0.0
H813 H 0.10677 0.6816 0.81485 0.0
H814 H 0.98799 0.71419 0.85732 0.0
Cu815 Cu 0.30842 0.05565 0.82955 0.0
N816 N 0.31141 0.07654 0.80122 0.0
N817 N 0.32097 0.10938 0.7759 0.0
C818 C 0.3248 0.10184 0.79824 0.0
C819 C 0.30467 0.08792 0.76463 0.0
C820 C 0.29875 0.06779 0.7803 0.0
O821 O 0.29814 0.08509 0.84797 0.0
C822 C 0.33776 0.02388 0.80174 0.0
O823 O 0.3573 0.04547 0.80091 0.0
H824 H 0.33672 0.11443 0.81217 0.0
H825 H 0.28612 0.04807 0.77674 0.0
N826 N 0.30332 0.03347 0.85676 0.0
N827 N 0.28726 0.99498 0.8737 0.0
C828 C 0.28278 0.01191 0.85718 0.0
C829 C 0.3215 0.03061 0.87379 0.0
C830 C 0.31147 0.00684 0.88447 0.0
C831 C 0.31395 0.10173 0.86225 0.0
O832 O 0.33937 0.10182 0.86472 0.0
H833 H 0.26603 0.00782 0.84414 0.0
H834 H 0.34145 0.0435 0.87669 0.0
O835 O 0.31659 0.02459 0.81168 0.0
H836 H 0.29784 0.0866 0.74624 0.0
H837 H 0.3223 0.99792 0.89754 0.0
Cu838 Cu 0.08377 0.31561 0.80778 0.0
N839 N 0.06525 0.34182 0.80498 0.0
N840 N 0.03208 0.35989 0.79265 0.0
C841 C 0.03957 0.3373 0.79658 0.0
C842 C 0.05406 0.37946 0.79925 0.0
C843 C 0.07451 0.36823 0.80676 0.0
O844 O 0.05888 0.28216 0.81275 0.0
C845 C 0.09023 0.31364 0.75888 0.0
O846 O 0.06497 0.31409 0.75613 0.0
H847 H 0.02705 0.31763 0.79263 0.0
H848 H 0.095 0.37858 0.81198 0.0
N849 N 0.10998 0.3214 0.83266 0.0
N850 N 0.13752 0.30868 0.85934 0.0
C851 C 0.11323 0.30241 0.84749 0.0
C852 C 0.13299 0.34056 0.83527 0.0
C853 C 0.15009 0.33272 0.85173 0.0
C854 C 0.04381 0.28073 0.82958 0.0
O855 O 0.04494 0.30221 0.84201 0.0
H856 H 0.09922 0.28313 0.84772 0.0
H857 H 0.13789 0.35783 0.8245 0.0
O858 O 0.10131 0.31369 0.77943 0.0
H859 H 0.05579 0.40039 0.79759 0.0
H860 H 0.1707 0.34307 0.85655 0.0
Cu861 Cu 0.83789 0.99648 0.77637 0.0
N862 N 0.87247 0.01854 0.77879 0.0
N863 N 0.90598 0.05011 0.79605 0.0
C864 C 0.88246 0.03232 0.79868 0.0
C865 C 0.91117 0.04702 0.77348 0.0
C866 C 0.89038 0.02755 0.76284 0.0
O867 O 0.8139 0.02055 0.77195 0.0
C868 C 0.8519 0.9571 0.80238 0.0
O869 O 0.86499 0.95744 0.78344 0.0
H870 H 0.87193 0.02981 0.81455 0.0
H871 H 0.88787 0.02158 0.74453 0.0
N872 N 0.82964 0.97408 0.74997 0.0
N873 N 0.80275 0.94435 0.72509 0.0
C874 C 0.80463 0.95929 0.74469 0.0
C875 C 0.84441 0.96839 0.73316 0.0
C876 C 0.82781 0.94993 0.71775 0.0
C877 C 0.81704 0.03287 0.75254 0.0
O878 O 0.83499 0.02819 0.73911 0.0
H879 H 0.78825 0.95921 0.75549 0.0
H880 H 0.86566 0.97678 0.73226 0.0
O881 O 0.83694 0.97311 0.8037 0.0
H882 H 0.92793 0.05894 0.76485 0.0
H883 H 0.83373 0.94145 0.70234 0.0
Cu884 Cu 0.32148 0.75086 0.55575 0.0
N885 N 0.3499 0.76702 0.57764 0.0
N886 N 0.37067 0.79131 0.60928 0.0
C887 C 0.34739 0.78232 0.59599 0.0
C888 C 0.38851 0.78108 0.59873 0.0
C889 C 0.37567 0.76613 0.5793 0.0
O890 O 0.29299 0.73213 0.57509 0.0
C891 C 0.33241 0.79557 0.52806 0.0
O892 O 0.35537 0.80059 0.54064 0.0
H893 H 0.32874 0.78688 0.59932 0.0
H894 H 0.38453 0.75542 0.5673 0.0
N895 N 0.32887 0.7271 0.53385 0.0
N896 N 0.32466 0.70652 0.49867 0.0
C897 C 0.31544 0.72264 0.51256 0.0
C898 C 0.34733 0.71308 0.53358 0.0
C899 C 0.34463 0.7002 0.51192 0.0
C900 C 0.29704 0.7113 0.58447 0.0
O901 O 0.318 0.70343 0.57893 0.0
H902 H 0.29907 0.73117 0.50737 0.0
H903 H 0.36191 0.71248 0.54789 0.0
O904 O 0.31297 0.7772 0.53446 0.0
H905 H 0.4093 0.78376 0.60475 0.0
H906 H 0.35689 0.68779 0.5062 0.0
Cu907 Cu 0.82713 0.77697 0.51864 0.0
N908 N 0.85938 0.78165 0.50461 0.0
N909 N 0.8894 0.76839 0.48478 0.0
C910 C 0.86394 0.76271 0.4908 0.0
C911 C 0.90154 0.792 0.49515 0.0
C912 C 0.88277 0.80036 0.50721 0.0
O913 O 0.80027 0.7576 0.49553 0.0
C914 C 0.84846 0.76801 0.56232 0.0
O915 O 0.86835 0.78689 0.55561 0.0
H916 H 0.84917 0.7443 0.48637 0.0
H917 H 0.88624 0.81813 0.51795 0.0
N918 N 0.81795 0.80794 0.5262 0.0
N919 N 0.791 0.82883 0.54286 0.0
C920 C 0.80325 0.80902 0.5445 0.0
C921 C 0.81554 0.82816 0.51255 0.0
C922 C 0.79896 0.84119 0.52285 0.0
C923 C 0.77573 0.75766 0.49479 0.0
O924 O 0.76653 0.76743 0.5127 0.0
H925 H 0.79884 0.7934 0.55709 0.0
H926 H 0.82301 0.83155 0.49531 0.0
O927 O 0.82837 0.75877 0.54789 0.0
H928 H 0.92251 0.80209 0.49451 0.0
H929 H 0.79183 0.85723 0.51527 0.0
Cu930 Cu 0.8202 0.24599 0.5773 0.0
N931 N 0.82598 0.22464 0.55276 0.0
N932 N 0.81932 0.20814 0.51591 0.0
C933 C 0.81171 0.22314 0.53194 0.0
C934 C 0.83915 0.19948 0.52717 0.0
C935 C 0.84341 0.20991 0.54991 0.0
O936 O 0.80972 0.27337 0.55844 0.0
C937 C 0.80284 0.20574 0.60821 0.0
O938 O 0.82574 0.20196 0.60248 0.0
H939 H 0.79583 0.23292 0.52863 0.0
H940 H 0.8583 0.2072 0.5632 0.0
N941 N 0.85034 0.26243 0.59714 0.0
N942 N 0.87358 0.2884 0.62685 0.0
C943 C 0.84909 0.27675 0.61654 0.0
C944 C 0.87655 0.26483 0.59509 0.0
C945 C 0.89092 0.28083 0.61338 0.0
C946 C 0.82868 0.29229 0.552 0.0
O947 O 0.84748 0.30396 0.56796 0.0
H948 H 0.83046 0.27933 0.62238 0.0
H949 H 0.88464 0.25613 0.58103 0.0
O950 O 0.79471 0.22441 0.59826 0.0
H951 H 0.85015 0.18699 0.51941 0.0
H952 H 0.9125 0.28648 0.61639 0.0
Cu953 Cu 0.33197 0.3041 0.51123 0.0
N954 N 0.29808 0.31044 0.51061 0.0
N955 N 0.26213 0.32032 0.52398 0.0
C956 C 0.28742 0.31857 0.52922 0.0
C957 C 0.25675 0.31306 0.50109 0.0
C958 C 0.27895 0.30699 0.4929 0.0
O959 O 0.34223 0.30038 0.544 0.0
C960 C 0.35715 0.34844 0.48199 0.0
O961 O 0.37615 0.37021 0.47994 0.0
H962 H 0.29782 0.32239 0.54646 0.0
H963 H 0.28078 0.30008 0.4754 0.0
N964 N 0.33149 0.27312 0.49451 0.0
N965 N 0.3453 0.24245 0.47497 0.0
C966 C 0.35274 0.26544 0.48757 0.0
C967 C 0.30986 0.25424 0.48638 0.0
C968 C 0.31827 0.23534 0.47433 0.0
C969 C 0.33368 0.27913 0.55494 0.0
O970 O 0.31867 0.2582 0.54345 0.0
H971 H 0.37316 0.27705 0.49109 0.0
H972 H 0.28938 0.25423 0.48898 0.0
O973 O 0.35799 0.33482 0.50035 0.0
H974 H 0.23811 0.31216 0.49094 0.0
H975 H 0.30536 0.21765 0.46597 0.0
Cu976 Cu 0.81438 0.54709 0.83446 0.0
N977 N 0.81096 0.56498 0.80693 0.0
N978 N 0.81992 0.59766 0.78134 0.0
C979 C 0.82724 0.58844 0.80211 0.0
C980 C 0.79795 0.57906 0.77288 0.0
C981 C 0.79246 0.55892 0.78875 0.0
O982 O 0.81741 0.57406 0.85924 0.0
C983 C 0.85343 0.52599 0.8133 0.0
O984 O 0.85097 0.54184 0.79604 0.0
H985 H 0.84433 0.59817 0.81369 0.0
H986 H 0.77608 0.54126 0.78722 0.0
N987 N 0.7839 0.51959 0.83677 0.0
N988 N 0.76044 0.47758 0.83852 0.0
C989 C 0.78494 0.49445 0.83959 0.0
C990 C 0.75771 0.51886 0.83402 0.0
C991 C 0.7431 0.49283 0.8352 0.0
C992 C 0.80312 0.57146 0.87684 0.0
O993 O 0.78917 0.54779 0.88213 0.0
H994 H 0.80347 0.48865 0.84215 0.0
H995 H 0.74989 0.53587 0.83071 0.0
O996 O 0.84309 0.52871 0.83257 0.0
H997 H 0.78638 0.57991 0.75656 0.0
H998 H 0.72153 0.48565 0.83294 0.0
Cu999 Cu 0.33091 0.49035 0.76465 0.0
N1000 N 0.35597 0.46987 0.76924 0.0
N1001 N 0.37618 0.44194 0.78839 0.0
C1002 C 0.35675 0.45498 0.78839 0.0
C1003 C 0.38816 0.44901 0.76824 0.0
C1004 C 0.37559 0.46611 0.75642 0.0
O1005 O 0.29705 0.4654 0.7551 0.0
C1006 C 0.35777 0.52545 0.79734 0.0
O1007 O 0.37647 0.52083 0.78477 0.0
H1008 H 0.34355 0.45433 0.80238 0.0
H1009 H 0.3805 0.47519 0.73979 0.0
N1010 N 0.33497 0.51682 0.742 0.0
N1011 N 0.32281 0.54981 0.72289 0.0
C1012 C 0.31827 0.53284 0.74076 0.0
C1013 C 0.35102 0.52397 0.72432 0.0
C1014 C 0.34345 0.54424 0.71241 0.0
C1015 C 0.29565 0.4578 0.73368 0.0
O1016 O 0.31616 0.46692 0.72107 0.0
H1017 H 0.3024 0.5314 0.75246 0.0
H1018 H 0.36666 0.51482 0.72008 0.0
O1019 O 0.33372 0.51167 0.79299 0.0
H1020 H 0.40476 0.44229 0.76235 0.0
H1021 H 0.35242 0.55404 0.6972 0.0
Cu1022 Cu 0.31258 0.534 0.27874 0.0
N1023 N 0.28026 0.509 0.28158 0.0
N1024 N 0.25136 0.47447 0.29599 0.0
C1025 C 0.27705 0.48883 0.29646 0.0
C1026 C 0.23787 0.48608 0.28003 0.0
C1027 C 0.25578 0.50751 0.27124 0.0
O1028 O 0.34037 0.51434 0.2793 0.0
C1029 C 0.29855 0.57487 0.30129 0.0
O1030 O 0.28187 0.57071 0.28247 0.0
H1031 H 0.2934 0.48482 0.30737 0.0
H1032 H 0.25118 0.52127 0.25858 0.0
N1033 N 0.31248 0.55136 0.25021 0.0
N1034 N 0.32035 0.58497 0.22544 0.0
C1035 C 0.32581 0.57658 0.24709 0.0
C1036 C 0.29829 0.54322 0.22971 0.0
C1037 C 0.30318 0.56393 0.21434 0.0
C1038 C 0.3377 0.49641 0.26336 0.0
O1039 O 0.31741 0.49303 0.24756 0.0
H1040 H 0.33893 0.58862 0.26072 0.0
H1041 H 0.2848 0.52387 0.22637 0.0
O1042 O 0.31519 0.5606 0.30402 0.0
H1043 H 0.21654 0.47993 0.27542 0.0
H1044 H 0.29408 0.56374 0.1967 0.0
Cu1045 Cu 0.77834 0.50642 0.30934 0.0
N1046 N 0.77374 0.47992 0.33178 0.0
N1047 N 0.78481 0.44841 0.35381 0.0
C1048 C 0.79205 0.46619 0.33682 0.0
C1049 C 0.76085 0.4512 0.35977 0.0
C1050 C 0.75401 0.47059 0.34607 0.0
O1051 O 0.77457 0.48956 0.27881 0.0
C1052 C 0.82354 0.54959 0.30488 0.0
O1053 O 0.81022 0.5547 0.28585 0.0
H1054 H 0.81074 0.46978 0.32848 0.0
H1055 H 0.73607 0.47745 0.34662 0.0
N1056 N 0.75375 0.52729 0.30867 0.0
N1057 N 0.73273 0.55709 0.29429 0.0
C1058 C 0.74816 0.54063 0.28967 0.0
C1059 C 0.74132 0.53538 0.32608 0.0
C1060 C 0.72828 0.55367 0.31727 0.0
C1061 C 0.79259 0.48227 0.26859 0.0
O1062 O 0.81694 0.48687 0.27869 0.0
H1063 H 0.75656 0.53919 0.27305 0.0
H1064 H 0.74248 0.52921 0.34407 0.0
O1065 O 0.81367 0.52924 0.31649 0.0
H1066 H 0.74904 0.44003 0.373 0.0
H1067 H 0.71692 0.564 0.32724 0.0
Cu1068 Cu 0.54969 0.23459 0.79171 0.0
N1069 N 0.53084 0.23186 0.81882 0.0
N1070 N 0.50542 0.24136 0.84614 0.0
C1071 C 0.51476 0.24711 0.82473 0.0
C1072 C 0.51603 0.22162 0.85386 0.0
C1073 C 0.53166 0.21583 0.83701 0.0
O1074 O 0.52761 0.24582 0.76723 0.0
C1075 C 0.60151 0.2537 0.81049 0.0
O1076 O 0.5968 0.22971 0.81873 0.0
H1077 H 0.51072 0.2627 0.81384 0.0
H1078 H 0.54317 0.20127 0.8381 0.0
N1079 N 0.5566 0.20229 0.78343 0.0
N1080 N 0.57706 0.17259 0.77034 0.0
C1081 C 0.57823 0.19854 0.77328 0.0
C1082 C 0.54108 0.17796 0.78676 0.0
C1083 C 0.55355 0.15967 0.77874 0.0
C1084 C 0.52182 0.23507 0.74691 0.0
O1085 O 0.53361 0.21699 0.74057 0.0
H1086 H 0.59468 0.21458 0.76858 0.0
H1087 H 0.522 0.17384 0.7945 0.0
O1088 O 0.58332 0.26061 0.798 0.0
H1089 H 0.51282 0.21205 0.87055 0.0
H1090 H 0.54562 0.13846 0.77886 0.0
Cu1091 Cu 0.55166 0.78779 0.79695 0.0
N1092 N 0.57894 0.78888 0.82075 0.0
N1093 N 0.61158 0.77524 0.84083 0.0
C1094 C 0.59501 0.77229 0.8211 0.0
C1095 C 0.60564 0.79459 0.85343 0.0
C1096 C 0.58554 0.80297 0.84102 0.0
O1097 O 0.56908 0.79112 0.7674 0.0
C1098 C 0.51554 0.75169 0.82068 0.0
O1099 O 0.52579 0.77004 0.83687 0.0
H1100 H 0.59356 0.75745 0.80751 0.0
H1101 H 0.57583 0.81755 0.84687 0.0
N1102 N 0.53384 0.81483 0.7986 0.0
N1103 N 0.50249 0.83654 0.78914 0.0
C1104 C 0.51083 0.81439 0.78589 0.0
C1105 C 0.54047 0.83817 0.81038 0.0
C1106 C 0.52121 0.85158 0.80459 0.0
C1107 C 0.58495 0.81378 0.76473 0.0
O1108 O 0.58734 0.83193 0.78125 0.0
H1109 H 0.50092 0.79831 0.77387 0.0
H1110 H 0.55835 0.84535 0.82186 0.0
O1111 O 0.52427 0.75482 0.80027 0.0
H1112 H 0.61474 0.80189 0.87058 0.0
H1113 H 0.52119 0.87097 0.81118 0.0
Cu1114 Cu 0.50397 0.76227 0.31377 0.0
N1115 N 0.47794 0.75765 0.33602 0.0
N1116 N 0.44693 0.76676 0.35802 0.0
C1117 C 0.46228 0.77415 0.33974 0.0
C1118 C 0.45312 0.74465 0.36599 0.0
C1119 C 0.4721 0.73903 0.35236 0.0
O1120 O 0.48639 0.76908 0.2844 0.0
C1121 C 0.54376 0.78984 0.3449 0.0
O1122 O 0.53109 0.77117 0.35836 0.0
H1123 H 0.46286 0.79177 0.32974 0.0
H1124 H 0.48149 0.7229 0.35461 0.0
N1125 N 0.51849 0.73307 0.30932 0.0
N1126 N 0.54644 0.71081 0.29556 0.0
C1127 C 0.54271 0.73476 0.30102 0.0
C1128 C 0.50657 0.70706 0.30957 0.0
C1129 C 0.52372 0.69332 0.30121 0.0
C1130 C 0.49373 0.7645 0.26438 0.0
O1131 O 0.51646 0.75809 0.26286 0.0
H1132 H 0.55669 0.75343 0.29783 0.0
H1133 H 0.48625 0.69872 0.31414 0.0
O1134 O 0.53407 0.79112 0.32402 0.0
H1135 H 0.44467 0.7334 0.38074 0.0
H1136 H 0.51898 0.67219 0.29802 0.0
Cu1137 Cu 0.58507 0.27018 0.25867 0.0
N1138 N 0.56009 0.23796 0.26025 0.0
N1139 N 0.52843 0.20787 0.27689 0.0
C1140 C 0.54253 0.23334 0.27692 0.0
C1141 C 0.53754 0.19598 0.25931 0.0
C1142 C 0.55722 0.21463 0.24912 0.0
O1143 O 0.56343 0.29642 0.25736 0.0
C1144 C 0.62409 0.25317 0.28536 0.0
O1145 O 0.62207 0.23918 0.26588 0.0
H1146 H 0.54128 0.24826 0.28963 0.0
H1147 H 0.56926 0.21116 0.23531 0.0
N1148 N 0.60425 0.273 0.23174 0.0
N1149 N 0.63629 0.28965 0.20765 0.0
C1150 C 0.62802 0.29036 0.22946 0.0
C1151 C 0.59732 0.26066 0.21063 0.0
C1152 C 0.61701 0.27107 0.19566 0.0
C1153 C 0.54868 0.29604 0.23835 0.0
O1154 O 0.55008 0.27959 0.22139 0.0
H1155 H 0.63851 0.30402 0.24332 0.0
H1156 H 0.57885 0.24582 0.20617 0.0
O1157 O 0.6102 0.27016 0.28625 0.0
H1158 H 0.53089 0.17523 0.25442 0.0
H1159 H 0.61699 0.26567 0.17735 0.0
C1160 C 0.25909 0.19422 0.17385 0.0
C1161 C 0.25293 0.16732 0.1799 0.0
H1162 H 0.28148 0.2247 0.15254 0.0
C1163 C 0.26491 0.15047 0.16758 0.0
H1164 H 0.2507 0.20805 0.18291 0.0
C1165 C 0.28301 0.16022 0.15057 0.0
C1166 C 0.28931 0.18703 0.14478 0.0
H1167 H 0.26024 0.12951 0.17088 0.0
H1168 H 0.29193 0.14665 0.1417 0.0
C1169 C 0.27685 0.20387 0.15642 0.0
C1170 C 0.84171 0.2579 0.11015 0.0
C1171 C 0.85867 0.26249 0.13087 0.0
H1172 H 0.8383 0.26196 0.07286 0.0
C1173 C 0.88611 0.27414 0.12936 0.0
H1174 H 0.82054 0.24857 0.11069 0.0
C1175 C 0.89631 0.28148 0.10773 0.0
C1176 C 0.8793 0.27743 0.08707 0.0
H1177 H 0.89967 0.27818 0.14499 0.0
H1178 H 0.91748 0.29089 0.10731 0.0
C1179 C 0.85193 0.26529 0.08845 0.0
C1180 C 0.87602 0.82213 0.14339 0.0
C1181 C 0.86285 0.82314 0.16403 0.0
H1182 H 0.87273 0.80838 0.10753 0.0
C1183 C 0.83509 0.81136 0.16338 0.0
H1184 H 0.89728 0.83111 0.14306 0.0
C1185 C 0.821 0.79891 0.14297 0.0
C1186 C 0.83417 0.79733 0.12253 0.0
H1187 H 0.82416 0.81092 0.17892 0.0
H1188 H 0.79981 0.78962 0.14357 0.0
C1189 C 0.86186 0.80933 0.12291 0.0
C1190 C 0.26871 0.81651 0.08157 0.0
C1191 C 0.24783 0.7941 0.07512 0.0
H1192 H 0.31046 0.8355 0.08095 0.0
C1193 C 0.25382 0.77269 0.06377 0.0
H1194 H 0.26472 0.83337 0.09026 0.0
C1195 C 0.28002 0.77399 0.05834 0.0
C1196 C 0.3007 0.7968 0.06401 0.0
H1197 H 0.23821 0.755 0.05889 0.0
H1198 H 0.28386 0.75751 0.04896 0.0
C1199 C 0.29485 0.81784 0.07605 0.0
C1200 C 0.33569 0.86537 0.94572 0.0
C1201 C 0.32051 0.83926 0.94826 0.0
H1202 H 0.36229 0.89972 0.96253 0.0
C1203 C 0.32167 0.82726 0.97003 0.0
H1204 H 0.33506 0.87507 0.92907 0.0
C1205 C 0.33687 0.84153 0.98918 0.0
C1206 C 0.35183 0.8677 0.98682 0.0
H1207 H 0.3098 0.80731 0.97253 0.0
H1208 H 0.3361 0.83229 1.00589 0.0
C1209 C 0.3512 0.87944 0.96483 0.0
C1210 C 0.28682 0.20577 0.991 0.0
C1211 C 0.28258 0.22018 0.97106 0.0
H1212 H 0.29809 0.20687 1.02789 0.0
C1213 C 0.28684 0.24773 0.97352 0.0
H1214 H 0.28337 0.18451 0.98971 0.0
C1215 C 0.29536 0.26061 0.99533 0.0
C1216 C 0.29919 0.2462 1.0154 0.0
H1217 H 0.2836 0.25934 0.95848 0.0
H1218 H 0.29891 0.28189 0.99649 0.0
C1219 C 0.29481 0.21858 1.01294 0.0
C1220 C 0.97348 0.22926 0.96522 0.0
C1221 C 0.95935 0.20415 0.97236 0.0
H1222 H 0.97978 0.27118 0.9686 0.0
C1223 C 0.94152 0.2026 0.99006 0.0
H1224 H 0.9877 0.23116 0.95188 0.0
C1225 C 0.9372 0.22556 0.99979 0.0
C1226 C 0.95061 0.25064 0.99208 0.0
H1227 H 0.93025 0.18362 0.99592 0.0
H1228 H 0.92308 0.22362 1.01318 0.0
C1229 C 0.96919 0.25223 0.975 0.0
C1230 C 0.90946 0.7713 0.96339 0.0
C1231 C 0.89413 0.78631 0.95102 0.0
H1232 H 0.91351 0.74763 0.99343 0.0
C1233 C 0.87039 0.78859 0.96056 0.0
H1234 H 0.92814 0.76939 0.95715 0.0
C1235 C 0.8625 0.77666 0.98177 0.0
C1236 C 0.87782 0.76168 0.99396 0.0
H1237 H 0.85759 0.79937 0.95153 0.0
H1238 H 0.84401 0.77868 0.9884 0.0
C1239 C 0.90125 0.75895 0.98439 0.0
C1240 C 0.11702 0.20989 0.26608 0.0
C1241 C 0.1222 0.18493 0.26389 0.0
H1242 H 0.09614 0.23405 0.28304 0.0
C1243 C 0.11146 0.16548 0.27995 0.0
H1244 H 0.12482 0.22524 0.25386 0.0
C1245 C 0.09466 0.17047 0.29688 0.0
C1246 C 0.08822 0.19507 0.2982 0.0
H1247 H 0.11479 0.14596 0.27856 0.0
H1248 H 0.08613 0.15475 0.30847 0.0
C1249 C 0.10041 0.21491 0.28294 0.0
C1250 C 0.85703 0.14595 0.26008 0.0
C1251 C 0.85239 0.15418 0.23718 0.0
H1252 H 0.84851 0.11526 0.2848 0.0
C1253 C 0.83427 0.13659 0.22144 0.0
H1254 H 0.87055 0.1591 0.27281 0.0
C1255 C 0.82092 0.11147 0.22852 0.0
C1256 C 0.82553 0.10318 0.25149 0.0
H1257 H 0.83048 0.14216 0.20354 0.0
H1258 H 0.80681 0.09876 0.21596 0.0
C1259 C 0.84397 0.12076 0.26708 0.0
C1260 C 0.96105 0.85614 0.23849 0.0
C1261 C 0.94208 0.83701 0.22458 0.0
H1262 H 0.99903 0.86634 0.2583 0.0
C1263 C 0.94816 0.81291 0.21968 0.0
H1264 H 0.95722 0.87499 0.24252 0.0
C1265 C 0.97227 0.80797 0.22869 0.0
C1266 C 0.99112 0.827 0.24282 0.0
H1267 H 0.93399 0.79754 0.20931 0.0
H1268 H 0.97613 0.7892 0.22445 0.0
C1269 C 0.98521 0.85124 0.24742 0.0
C1270 C 0.21633 0.86905 0.19782 0.0
C1271 C 0.21039 0.86829 0.17338 0.0
H1272 H 0.23559 0.89215 0.22808 0.0
C1273 C 0.22048 0.89115 0.16062 0.0
H1274 H 0.20938 0.85167 0.20815 0.0
C1275 C 0.23569 0.91433 0.17209 0.0
C1276 C 0.24104 0.91522 0.19658 0.0
H1277 H 0.21601 0.89138 0.14184 0.0
H1278 H 0.24265 0.93176 0.16184 0.0
C1279 C 0.23135 0.89226 0.20928 0.0
C1280 C 0.16437 0.83494 0.83934 0.0
C1281 C 0.17519 0.82966 0.8615 0.0
H1282 H 0.13126 0.82427 0.81336 0.0
C1283 C 0.15952 0.81054 0.87536 0.0
H1284 H 0.17607 0.84961 0.82829 0.0
C1285 C 0.13397 0.79628 0.86696 0.0
C1286 C 0.12349 0.80064 0.8444 0.0
H1287 H 0.16713 0.80641 0.89267 0.0
H1288 H 0.12274 0.78131 0.87802 0.0
C1289 C 0.13876 0.82046 0.83081 0.0
C1290 C 0.26567 0.13261 0.89249 0.0
C1291 C 0.28274 0.15526 0.90392 0.0
H1292 H 0.26186 0.09858 0.87033 0.0
C1293 C 0.31052 0.15955 0.90218 0.0
H1294 H 0.24423 0.128 0.89387 0.0
C1295 C 0.32073 0.14215 0.88885 0.0
C1296 C 0.30343 0.12015 0.87674 0.0
H1297 H 0.32435 0.17673 0.91057 0.0
H1298 H 0.34217 0.14625 0.88767 0.0
C1299 C 0.27579 0.11555 0.87896 0.0
C1300 C 1.01721 0.20696 0.83611 0.0
C1301 C 0.9998 0.206 0.85407 0.0
H1302 H 0.0448 0.23147 0.81412 0.0
C1303 C 0.99557 0.22971 0.8626 0.0
H1304 H 1.02092 0.18902 0.82925 0.0
C1305 C 1.00932 0.25392 0.85411 0.0
C1306 C 0.02744 0.25497 0.83676 0.0
H1307 H 0.98178 0.22957 0.87606 0.0
H1308 H 1.00601 0.27183 0.86143 0.0
C1309 C 0.0309 0.23126 0.82749 0.0
C1310 C 0.88036 0.90695 0.83661 0.0
C1311 C 0.875 0.91159 0.85976 0.0
H1312 H 0.87718 0.91743 0.8006 0.0
C1313 C 0.85899 0.92924 0.86351 0.0
H1314 H 0.89263 0.89369 0.83295 0.0
C1315 C 0.8502 0.94316 0.84489 0.0
C1316 C 0.85716 0.93979 0.82199 0.0
H1317 H 0.854 0.93302 0.88107 0.0
H1318 H 0.83898 0.95736 0.84862 0.0
C1319 C 0.87163 0.92086 0.81805 0.0
C1320 C 0.22456 0.09658 0.26485 0.0
C1321 C 0.22287 0.09886 0.24032 0.0
H1322 H 0.23317 0.07371 0.29412 0.0
C1323 C 0.22607 0.07786 0.22638 0.0
H1324 H 0.22218 0.11246 0.27601 0.0
C1325 C 0.23205 0.05568 0.23661 0.0
C1326 C 0.2353 0.05391 0.26115 0.0
H1327 H 0.22456 0.0789 0.20742 0.0
H1328 H 0.23514 0.04035 0.22517 0.0
C1329 C 0.23089 0.07439 0.27518 0.0
C1330 C 0.24485 0.92697 0.8569 0.0
C1331 C 0.24811 0.91315 0.87735 0.0
H1332 H 0.25515 0.96361 0.83945 0.0
C1333 C 0.26269 0.92703 0.89718 0.0
H1334 H 0.23395 0.9167 0.84131 0.0
C1335 C 0.27476 0.95405 0.89626 0.0
C1336 C 0.27254 0.96775 0.87548 0.0
H1337 H 0.26518 0.91684 0.91331 0.0
H1338 H 0.28621 0.96413 0.91167 0.0
C1339 C 0.25701 0.95396 0.85593 0.0
C1340 C 0.1843 0.26751 0.87859 0.0
C1341 C 0.16734 0.24769 0.89106 0.0
H1342 H 0.18803 0.30277 0.85868 0.0
C1343 C 0.14194 0.25068 0.89573 0.0
H1344 H 0.20392 0.26577 0.87458 0.0
C1345 C 0.13283 0.27167 0.88646 0.0
C1346 C 0.14898 0.29039 0.87256 0.0
H1347 H 0.12861 0.23614 0.90575 0.0
H1348 H 0.11268 0.27273 0.88936 0.0
C1349 C 0.17521 0.28872 0.86947 0.0
C1350 C 0.96078 0.10394 0.82616 0.0
C1351 C 0.94768 0.11141 0.8448 0.0
H1352 H 0.95804 0.07828 0.79634 0.0
C1353 C 0.92107 0.09772 0.84766 0.0
H1354 H 0.98142 0.11401 0.82366 0.0
C1355 C 0.9076 0.07746 0.83193 0.0
C1356 C 0.92045 0.0702 0.81296 0.0
H1357 H 0.91029 0.1033 0.8616 0.0
H1358 H 0.88682 0.06817 0.83436 0.0
C1359 C 0.94735 0.08352 0.81046 0.0
C1360 C 0.9696 0.8062 0.87099 0.0
C1361 C 0.94526 0.79061 0.87842 0.0
H1362 H 1.00627 0.80712 0.85518 0.0
C1363 C 0.93878 0.76323 0.87356 0.0
H1364 H 0.97546 0.82729 0.8746 0.0
C1365 C 0.95647 0.75164 0.86253 0.0
C1366 C 0.98131 0.767 0.85591 0.0
H1367 H 0.92004 0.7506 0.8786 0.0
H1368 H 0.9506 0.73051 0.85929 0.0
C1369 C 0.98738 0.79457 0.8599 0.0
C1370 C 0.84176 0.94063 0.25417 0.0
C1371 C 0.83594 0.91947 0.2698 0.0
H1372 H 0.84134 0.98092 0.24733 0.0
C1373 C 0.82622 0.924 0.29151 0.0
H1374 H 0.84905 0.93811 0.23724 0.0
C1375 C 0.8208 0.94808 0.29676 0.0
C1376 C 0.82596 0.96882 0.28092 0.0
H1377 H 0.82247 0.90883 0.30457 0.0
H1378 H 0.8127 0.95053 0.31337 0.0
C1379 C 0.83714 0.96516 0.25983 0.0
C1380 C 0.10455 0.79273 0.16668 0.0
C1381 C 0.13066 0.79148 0.17367 0.0
H1382 H 0.0641 0.78584 0.17624 0.0
C1383 C 0.13541 0.77863 0.19433 0.0
H1384 H 0.10063 0.80267 0.15075 0.0
C1385 C 0.11465 0.76874 0.20874 0.0
C1386 C 0.08887 0.77205 0.20294 0.0
H1387 H 0.15549 0.77747 0.19991 0.0
H1388 H 0.1193 0.76014 0.22519 0.0
C1389 C 0.08374 0.7831 0.18126 0.0
C1390 C 0.95438 0.21926 0.23801 0.0
C1391 C 0.93314 0.23007 0.24283 0.0
H1392 H 0.99388 0.21632 0.24874 0.0
C1393 C 0.93662 0.24881 0.26114 0.0
H1394 H 0.9519 0.20455 0.22408 0.0
C1395 C 0.96035 0.25515 0.27558 0.0
C1396 C 0.98107 0.24309 0.2717 0.0
H1397 H 0.9203 0.2571 0.26528 0.0
H1398 H 0.96198 0.26851 0.29045 0.0
C1399 C 0.97832 0.22597 0.25216 0.0
C1400 C 0.26928 0.65721 0.62603 0.0
C1401 C 0.26038 0.67075 0.64385 0.0
H1402 H 0.28734 0.65936 0.59335 0.0
C1403 C 0.25999 0.69726 0.64026 0.0
H1404 H 0.26911 0.63658 0.6278 0.0
C1405 C 0.27017 0.71036 0.62002 0.0
C1406 C 0.28086 0.69709 0.60316 0.0
H1407 H 0.25311 0.7082 0.65357 0.0
H1408 H 0.27113 0.73116 0.61828 0.0
C1409 C 0.27952 0.67021 0.60612 0.0
C1410 C 0.8216 0.75126 0.62164 0.0
C1411 C 0.84516 0.75899 0.63648 0.0
H1412 H 0.80418 0.74739 0.5863 0.0
C1413 C 0.86992 0.76716 0.62655 0.0
H1414 H 0.80228 0.74452 0.62889 0.0
C1415 C 0.87102 0.76876 0.60227 0.0
C1416 C 0.84741 0.76194 0.58744 0.0
H1417 H 0.88837 0.77325 0.63759 0.0
H1418 H 0.89032 0.77609 0.59513 0.0
C1419 C 0.82272 0.75256 0.5973 0.0
C1420 C 0.9112 0.34076 0.67108 0.0
C1421 C 0.89258 0.33949 0.68817 0.0
H1422 H 0.91986 0.32592 0.63838 0.0
C1423 C 0.86717 0.32171 0.68423 0.0
H1424 H 0.93083 0.35448 0.67328 0.0
C1425 C 0.86087 0.30518 0.66412 0.0
C1426 C 0.8798 0.30596 0.64735 0.0
H1427 H 0.85243 0.31987 0.69711 0.0
H1428 H 0.84138 0.29127 0.66208 0.0
C1429 C 0.90494 0.32424 0.65103 0.0
C1430 C 0.19914 0.32459 0.55086 0.0
C1431 C 0.20919 0.34146 0.57044 0.0
H1432 H 0.20794 0.30454 0.52095 0.0
C1433 C 0.2371 0.35088 0.57471 0.0
H1434 H 0.1778 0.31646 0.54729 0.0
C1435 C 0.25445 0.34391 0.55955 0.0
C1436 C 0.24432 0.32739 0.53976 0.0
H1437 H 0.24553 0.36413 0.58947 0.0
H1438 H 0.2758 0.3519 0.5631 0.0
C1439 C 0.21645 0.31773 0.5357 0.0
C1440 C 0.30597 0.35318 0.43303 0.0
C1441 C 0.29988 0.32773 0.42253 0.0
H1442 H 0.32847 0.37937 0.46043 0.0
C1443 C 0.3118 0.3088 0.43293 0.0
H1444 H 0.29791 0.36862 0.42539 0.0
C1445 C 0.33003 0.31544 0.4525 0.0
C1446 C 0.33583 0.34063 0.46296 0.0
H1447 H 0.30758 0.28889 0.42575 0.0
H1448 H 0.34062 0.3013 0.45862 0.0
C1449 C 0.32369 0.35949 0.45304 0.0
C1450 C 0.29365 0.70785 0.43733 0.0
C1451 C 0.29322 0.68274 0.4282 0.0
H1452 H 0.30413 0.73504 0.46648 0.0
C1453 C 0.30511 0.66618 0.44225 0.0
H1454 H 0.28534 0.72145 0.42693 0.0
C1455 C 0.31612 0.67416 0.46513 0.0
C1456 C 0.31535 0.69881 0.47454 0.0
H1457 H 0.30502 0.64664 0.43592 0.0
H1458 H 0.32433 0.66066 0.47574 0.0
C1459 C 0.30444 0.71568 0.46012 0.0
C1460 C 0.93435 0.72538 0.47127 0.0
C1461 C 0.91927 0.70967 0.45257 0.0
H1462 H 0.93681 0.75713 0.49595 0.0
C1463 C 0.89563 0.71541 0.44331 0.0
H1464 H 0.95274 0.72144 0.47862 0.0
C1465 C 0.88654 0.73556 0.45327 0.0
C1466 C 0.90108 0.75066 0.47246 0.0
H1467 H 0.88351 0.70354 0.42902 0.0
H1468 H 0.8677 0.73893 0.44644 0.0
C1469 C 0.92544 0.7459 0.481 0.0
C1470 C 0.87125 0.2924 0.50043 0.0
C1471 C 0.85481 0.29738 0.48133 0.0
H1472 H 0.87587 0.2871 0.5375 0.0
C1473 C 0.82864 0.29883 0.48546 0.0
H1474 H 0.89154 0.2914 0.49805 0.0
C1475 C 0.8195 0.29608 0.50822 0.0
C1476 C 0.83656 0.29248 0.52739 0.0
H1477 H 0.81537 0.30248 0.47112 0.0
H1478 H 0.7995 0.29774 0.51094 0.0
C1479 C 0.86234 0.29021 0.52313 0.0
C1480 C 0.15559 0.67307 0.76105 0.0
C1481 C 0.14756 0.66983 0.73702 0.0
H1482 H 0.14787 0.6865 0.79481 0.0
C1483 C 0.1263 0.68016 0.72836 0.0
H1484 H 0.1716 0.66497 0.76829 0.0
C1485 C 0.11275 0.69256 0.74348 0.0
C1486 C 0.11972 0.69446 0.76776 0.0
H1487 H 0.11944 0.67766 0.70996 0.0
H1488 H 0.09589 0.69941 0.73632 0.0
C1489 C 0.14173 0.68508 0.77627 0.0
C1490 C 0.8406 0.64996 0.73641 0.0
C1491 C 0.86053 0.66893 0.74941 0.0
H1492 H 0.81246 0.61224 0.73608 0.0
C1493 C 0.86648 0.66453 0.77309 0.0
H1494 H 0.83579 0.6529 0.71804 0.0
C1495 C 0.85285 0.64149 0.78361 0.0
C1496 C 0.8332 0.62201 0.77059 0.0
H1497 H 0.88153 0.67909 0.78355 0.0
H1498 H 0.85782 0.6392 0.80201 0.0
C1499 C 0.82719 0.62666 0.74684 0.0
C1500 C 0.96629 0.34324 0.75656 0.0
C1501 C 0.95864 0.36708 0.75736 0.0
H1502 H 0.99531 0.32236 0.76638 0.0
C1503 C 0.97523 0.38846 0.77062 0.0
H1504 H 0.95376 0.32612 0.747 0.0
C1505 C 0.99917 0.38612 0.7824 0.0
C1506 C 1.00703 0.36233 0.7812 0.0
H1507 H 0.96993 0.40712 0.77162 0.0
H1508 H 1.01143 0.40295 0.79245 0.0
C1509 C 0.99013 0.34095 0.76813 0.0
C1510 C 0.24232 0.42359 0.68768 0.0
C1511 C 0.23051 0.39982 0.69856 0.0
H1512 H 0.27215 0.46054 0.69048 0.0
C1513 C 0.23999 0.39588 0.7217 0.0
H1514 H 0.23535 0.42778 0.67018 0.0
C1515 C 0.26022 0.41533 0.73371 0.0
C1516 C 0.27205 0.43872 0.72257 0.0
H1517 H 0.23204 0.37763 0.73056 0.0
H1518 H 0.26734 0.41164 0.75132 0.0
C1519 C 0.2631 0.44262 0.69945 0.0
C1520 C 0.1409 0.31481 0.38131 0.0
C1521 C 0.15006 0.32944 0.36159 0.0
H1522 H 0.10833 0.28784 0.39638 0.0
C1523 C 0.13182 0.32955 0.34222 0.0
H1524 H 0.15433 0.31471 0.39667 0.0
C1525 C 0.10535 0.31434 0.34214 0.0
C1526 C 0.09662 0.29863 0.36138 0.0
H1527 H 0.13828 0.34042 0.32667 0.0
H1528 H 0.0921 0.31401 0.32657 0.0
C1529 C 0.11449 0.29955 0.38119 0.0
C1530 C 0.29626 0.61146 0.35881 0.0
C1531 C 0.28429 0.63154 0.35085 0.0
H1532 H 0.31051 0.57778 0.34946 0.0
C1533 C 0.28017 0.63422 0.32651 0.0
H1534 H 0.29969 0.60868 0.37741 0.0
C1535 C 0.28608 0.61647 0.31068 0.0
C1536 C 0.29666 0.59559 0.31857 0.0
H1537 H 0.27176 0.64979 0.31958 0.0
H1538 H 0.28172 0.61878 0.29212 0.0
C1539 C 0.30248 0.59371 0.34281 0.0
C1540 C 0.97117 0.71633 0.33958 0.0
C1541 C 0.96671 0.68937 0.33391 0.0
H1542 H 0.99236 0.75585 0.33266 0.0
C1543 C 0.98001 0.68178 0.31547 0.0
H1544 H 0.96077 0.72284 0.35333 0.0
C1545 C 0.99797 0.70081 0.30337 0.0
C1546 C 1.00297 0.7277 0.3096 0.0
H1547 H 0.97705 0.66112 0.3108 0.0
H1548 H 1.00839 0.69443 0.28957 0.0
C1549 C 0.98916 0.73526 0.32762 0.0
C1550 C 0.83759 0.41093 0.36174 0.0
C1551 C 0.83591 0.4036 0.3853 0.0
H1552 H 0.82236 0.43016 0.33312 0.0
C1553 C 0.81531 0.40883 0.39778 0.0
H1554 H 0.85331 0.40713 0.35174 0.0
C1555 C 0.79771 0.42259 0.3872 0.0
C1556 C 0.80044 0.43134 0.36397 0.0
H1557 H 0.81382 0.40369 0.41606 0.0
H1558 H 0.78292 0.42752 0.39762 0.0
C1559 C 0.82003 0.42446 0.35118 0.0
C1560 C 0.27947 0.5978 0.72583 0.0
C1561 C 0.27671 0.6048 0.7022 0.0
H1562 H 0.29652 0.5753 0.75097 0.0
C1563 C 0.28951 0.59319 0.68561 0.0
H1564 H 0.27022 0.60639 0.73919 0.0
C1565 C 0.30487 0.57562 0.69241 0.0
C1566 C 0.30765 0.56869 0.71599 0.0
H1567 H 0.28738 0.59732 0.66713 0.0
H1568 H 0.31408 0.56699 0.67907 0.0
C1569 C 0.29466 0.57997 0.73261 0.0
C1570 C 0.2449 0.42515 0.34408 0.0
C1571 C 0.22236 0.40538 0.33554 0.0
H1572 H 0.27144 0.4628 0.33848 0.0
C1573 C 0.20867 0.40933 0.31431 0.0
H1574 H 0.25561 0.42288 0.36057 0.0
C1575 C 0.21782 0.43221 0.30155 0.0
C1576 C 0.24086 0.45162 0.30975 0.0
H1577 H 0.19142 0.39431 0.30712 0.0
H1578 H 0.20735 0.43428 0.28492 0.0
C1579 C 0.25402 0.44799 0.33135 0.0
C1580 C 0.16392 0.7168 0.32384 0.0
C1581 C 0.16885 0.71704 0.34831 0.0
H1582 H 0.14558 0.73255 0.29441 0.0
C1583 C 0.16029 0.7353 0.36191 0.0
H1584 H 0.16984 0.70255 0.313 0.0
C1585 C 0.14631 0.7524 0.35136 0.0
C1586 C 0.14009 0.75133 0.32693 0.0
H1587 H 0.16333 0.73545 0.38087 0.0
H1588 H 0.13911 0.76544 0.3625 0.0
C1589 C 0.14969 0.73373 0.31326 0.0
C1590 C 0.87715 0.61352 0.31574 0.0
C1591 C 0.89085 0.60816 0.3365 0.0
H1592 H 0.84536 0.59916 0.28931 0.0
C1593 C 0.88346 0.58272 0.34573 0.0
H1594 H 0.88209 0.63301 0.30831 0.0
C1595 C 0.86224 0.56335 0.33492 0.0
C1596 C 0.84797 0.56901 0.31461 0.0
H1597 H 0.89389 0.57786 0.36149 0.0
H1598 H 0.85664 0.54412 0.34279 0.0
C1599 C 0.856 0.59412 0.30487 0.0
C1600 C 0.91552 0.28026 0.39302 0.0
C1601 C 0.91395 0.28212 0.4175 0.0
H1602 H 0.93516 0.26843 0.3646 0.0
C1603 C 0.93158 0.27165 0.43208 0.0
H1604 H 0.90201 0.28751 0.38108 0.0
C1605 C 0.95066 0.26049 0.4225 0.0
C1606 C 0.95278 0.25953 0.39804 0.0
H1607 H 0.93134 0.27292 0.45097 0.0
H1608 H 0.9643 0.25336 0.43436 0.0
C1609 C 0.93465 0.26929 0.38348 0.0
C1610 C 0.87202 0.4727 0.77788 0.0
C1611 C 0.86297 0.45034 0.79149 0.0
H1612 H 0.87647 0.51426 0.77425 0.0
C1613 C 0.85526 0.45403 0.81418 0.0
H1614 H 0.87804 0.47058 0.76034 0.0
C1615 C 0.85457 0.47914 0.82231 0.0
C1616 C 0.86113 0.50114 0.80778 0.0
H1617 H 0.8485 0.43724 0.82525 0.0
H1618 H 0.84722 0.48092 0.83936 0.0
C1619 C 0.87101 0.49777 0.78589 0.0
C1620 C 0.15095 0.32137 0.7244 0.0
C1621 C 0.14345 0.33339 0.70404 0.0
H1622 H 0.1398 0.30541 0.75763 0.0
C1623 C 0.11686 0.33501 0.70016 0.0
H1624 H 0.17126 0.31957 0.72761 0.0
C1625 C 0.09871 0.32682 0.71739 0.0
C1626 C 0.10703 0.31703 0.7387 0.0
H1627 H 0.11064 0.34427 0.6846 0.0
H1628 H 0.07879 0.32979 0.71465 0.0
C1629 C 0.13295 0.31332 0.74157 0.0
C1630 C 0.96096 0.71225 0.7276 0.0
C1631 C 0.94707 0.7312 0.73241 0.0
H1632 H 0.99739 0.70043 0.73291 0.0
C1633 C 0.96117 0.75535 0.74322 0.0
H1634 H 0.95056 0.69361 0.71903 0.0
C1635 C 0.98813 0.75931 0.75128 0.0
C1636 C 1.00121 0.73913 0.74856 0.0
H1637 H 0.95083 0.77024 0.74712 0.0
H1638 H 0.99792 0.77716 0.76131 0.0
C1639 C 0.98777 0.71621 0.73552 0.0
C1640 C 0.78392 0.14998 0.65119 0.0
C1641 C 0.76628 0.15826 0.66539 0.0
H1642 H 0.80867 0.15804 0.62231 0.0
C1643 C 0.75931 0.18197 0.65954 0.0
H1644 H 0.78921 0.13153 0.65437 0.0
C1645 C 0.77022 0.19713 0.64049 0.0
C1646 C 0.78848 0.18904 0.6269 0.0
H1647 H 0.74586 0.18916 0.66997 0.0
H1648 H 0.76498 0.21552 0.63687 0.0
C1649 C 0.7949 0.16513 0.63246 0.0
C1650 C 0.33665 0.25439 0.617 0.0
C1651 C 0.34402 0.27817 0.63019 0.0
H1652 H 0.32745 0.23604 0.58282 0.0
C1653 C 0.34913 0.30223 0.61843 0.0
H1654 H 0.3324 0.23556 0.62566 0.0
C1655 C 0.34659 0.30253 0.59393 0.0
C1656 C 0.33848 0.27875 0.58073 0.0
H1657 H 0.35501 0.32083 0.6282 0.0
H1658 H 0.35031 0.32142 0.58538 0.0
C1659 C 0.33371 0.25468 0.59251 0.0
C1660 C 0.35863 0.82543 0.66443 0.0
C1661 C 0.38479 0.83894 0.67275 0.0
H1662 H 0.33363 0.79947 0.63828 0.0
C1663 C 0.4061 0.83712 0.65936 0.0
H1664 H 0.34173 0.82597 0.67442 0.0
C1665 C 0.40147 0.82186 0.63853 0.0
C1666 C 0.37536 0.80786 0.63043 0.0
H1667 H 0.42649 0.84748 0.66503 0.0
H1668 H 0.41846 0.82115 0.62879 0.0
C1669 C 0.35399 0.8101 0.64362 0.0
C1670 C 0.74438 0.82016 0.59143 0.0
C1671 C 0.7232 0.8296 0.58132 0.0
H1672 H 0.78285 0.81341 0.58754 0.0
C1673 C 0.72569 0.84064 0.5589 0.0
H1674 H 0.7432 0.81136 0.60857 0.0
C1675 C 0.74837 0.84142 0.54663 0.0
C1676 C 0.76919 0.83126 0.55649 0.0
H1677 H 0.71005 0.84861 0.55074 0.0
H1678 H 0.74909 0.8492 0.52911 0.0
C1679 C 0.7671 0.82112 0.57925 0.0
C1680 C 0.72376 0.76166 0.44637 0.0
C1681 C 0.73595 0.75585 0.42647 0.0
H1682 H 0.72647 0.76621 0.48374 0.0
C1683 C 0.75925 0.74688 0.42957 0.0
H1684 H 0.70543 0.76804 0.44452 0.0
C1685 C 0.77117 0.74557 0.45205 0.0
C1686 C 0.76003 0.75323 0.47186 0.0
H1687 H 0.76909 0.74224 0.4146 0.0
H1688 H 0.78989 0.73989 0.45375 0.0
C1689 C 0.73566 0.76033 0.46885 0.0
C1690 C 0.78561 0.21613 0.45684 0.0
C1691 C 0.78215 0.19109 0.44617 0.0
H1692 H 0.80025 0.24116 0.48719 0.0
C1693 C 0.79246 0.17221 0.45866 0.0
H1694 H 0.77851 0.23141 0.44779 0.0
C1695 C 0.80544 0.17806 0.48113 0.0
C1696 C 0.80806 0.20277 0.49197 0.0
H1697 H 0.7898 0.15249 0.45145 0.0
H1698 H 0.8125 0.16289 0.4904 0.0
C1699 C 0.79823 0.22181 0.47945 0.0
C1700 C 0.40628 0.21989 0.46182 0.0
C1701 C 0.39597 0.20038 0.44421 0.0
H1702 H 0.39848 0.24804 0.48562 0.0
C1703 C 0.3688 0.19554 0.43637 0.0
H1704 H 0.42721 0.22453 0.46804 0.0
C1705 C 0.35229 0.20946 0.44624 0.0
C1706 C 0.36249 0.22855 0.46428 0.0
H1707 H 0.36011 0.18058 0.42294 0.0
H1708 H 0.33153 0.20518 0.43967 0.0
C1709 C 0.38979 0.23368 0.47177 0.0
C1710 C 0.32105 0.79695 0.46181 0.0
C1711 C 0.34182 0.81881 0.45661 0.0
H1712 H 0.30051 0.77331 0.48884 0.0
C1713 C 0.35687 0.83477 0.47509 0.0
H1714 H 0.30899 0.78456 0.44778 0.0
C1715 C 0.35239 0.82817 0.49839 0.0
C1716 C 0.33243 0.80566 0.5038 0.0
H1717 H 0.37285 0.85187 0.47147 0.0
H1718 H 0.36532 0.84015 0.5122 0.0
C1719 C 0.31612 0.79066 0.48526 0.0
C1720 C 0.61365 0.12224 0.75436 0.0
C1721 C 0.63128 0.1358 0.73823 0.0
H1722 H 0.58326 0.12323 0.77746 0.0
C1723 C 0.63234 0.16248 0.73414 0.0
H1724 H 0.61261 0.10176 0.75812 0.0
C1725 C 0.61506 0.17486 0.74506 0.0
C1726 C 0.59646 0.16082 0.76039 0.0
H1727 H 0.64561 0.17338 0.72169 0.0
H1728 H 0.61562 0.19508 0.74079 0.0
C1729 C 0.5966 0.13455 0.76531 0.0
C1730 C 0.33316 0.16531 0.7337 0.0
C1731 C 0.35765 0.18143 0.74318 0.0
H1732 H 0.30203 0.13009 0.73686 0.0
C1733 C 0.3688 0.17449 0.76461 0.0
H1734 H 0.32406 0.17004 0.7172 0.0
C1735 C 0.35643 0.15129 0.7757 0.0
C1736 C 0.33254 0.13452 0.76567 0.0
H1737 H 0.38742 0.18677 0.77263 0.0
H1738 H 0.36614 0.14611 0.79168 0.0
C1739 C 0.32073 0.14216 0.74483 0.0
C1740 C 0.45616 0.87568 0.76249 0.0
C1741 C 0.43591 0.85562 0.75098 0.0
H1742 H 0.49351 0.88551 0.78332 0.0
C1743 C 0.43691 0.82923 0.75375 0.0
H1744 H 0.45594 0.89619 0.7606 0.0
C1745 C 0.45819 0.82303 0.76683 0.0
C1746 C 0.47932 0.84306 0.77742 0.0
H1747 H 0.42136 0.8133 0.74537 0.0
H1748 H 0.45814 0.80245 0.76836 0.0
C1749 C 0.47771 0.86948 0.77551 0.0
C1750 C 0.75719 0.88585 0.69218 0.0
C1751 C 0.73184 0.88852 0.69735 0.0
H1752 H 0.7997 0.90136 0.69717 0.0
C1753 C 0.73022 0.91031 0.71098 0.0
H1754 H 0.75902 0.86915 0.68178 0.0
C1755 C 0.75342 0.92884 0.71957 0.0
C1756 C 0.77888 0.92593 0.71494 0.0
H1757 H 0.71095 0.91319 0.71482 0.0
H1758 H 0.75132 0.94553 0.72978 0.0
C1759 C 0.78049 0.90434 0.70092 0.0
C1760 C 0.6107 0.80861 0.37908 0.0
C1761 C 0.62686 0.82359 0.36276 0.0
H1762 H 0.57146 0.78687 0.3865 0.0
C1763 C 0.61496 0.83083 0.3419 0.0
H1764 H 0.61955 0.80303 0.39537 0.0
C1765 C 0.58737 0.82134 0.3366 0.0
C1766 C 0.57142 0.80469 0.35223 0.0
H1767 H 0.62719 0.84238 0.32909 0.0
H1768 H 0.57885 0.82583 0.31976 0.0
C1769 C 0.5832 0.79942 0.37396 0.0
C1770 C 0.77445 0.1148 0.38611 0.0
C1771 C 0.76288 0.13298 0.37391 0.0
H1772 H 0.79143 0.08172 0.38421 0.0
C1773 C 0.75735 0.12918 0.34943 0.0
H1774 H 0.77796 0.11595 0.40502 0.0
C1775 C 0.76415 0.10843 0.33757 0.0
C1776 C 0.77709 0.09149 0.34988 0.0
H1777 H 0.74846 0.14259 0.33932 0.0
H1778 H 0.76026 0.10627 0.3187 0.0
C1779 C 0.78192 0.09479 0.37424 0.0
C1780 C 0.47759 0.19992 0.32207 0.0
C1781 C 0.47175 0.17267 0.32577 0.0
H1782 H 0.49949 0.23236 0.30302 0.0
C1783 C 0.4853 0.15725 0.31364 0.0
H1784 H 0.46715 0.21215 0.33098 0.0
C1785 C 0.50388 0.16875 0.29769 0.0
C1786 C 0.50931 0.19593 0.29345 0.0
H1787 H 0.48131 0.13618 0.31637 0.0
H1788 H 0.51403 0.1563 0.28879 0.0
C1789 C 0.49607 0.21142 0.30599 0.0
C1790 C 0.32552 0.95215 0.34608 0.0
C1791 C 0.32024 0.92569 0.35349 0.0
H1792 H 0.31532 0.97994 0.32211 0.0
C1793 C 0.29906 0.90691 0.3413 0.0
H1794 H 0.34218 0.96729 0.35392 0.0
C1795 C 0.28427 0.91429 0.32213 0.0
C1796 C 0.28954 0.94075 0.31531 0.0
H1797 H 0.29386 0.88645 0.34637 0.0
H1798 H 0.2689 0.89927 0.31246 0.0
C1799 C 0.31008 0.9596 0.32764 0.0
C1800 C 0.79092 0.07952 0.71202 0.0
C1801 C 0.77373 0.08916 0.72564 0.0
H1802 H 0.81739 0.0547 0.7096 0.0
C1803 C 0.77041 0.07963 0.74869 0.0
H1804 H 0.79357 0.0855 0.69405 0.0
C1805 C 0.78407 0.06122 0.75775 0.0
C1806 C 0.80141 0.05192 0.74398 0.0
H1807 H 0.75741 0.08654 0.75984 0.0
H1808 H 0.78121 0.05447 0.77549 0.0
C1809 C 0.80449 0.06142 0.72101 0.0
C1810 C 0.73814 0.8925 0.35338 0.0
C1811 C 0.71769 0.88634 0.36891 0.0
H1812 H 0.7672 0.92315 0.33782 0.0
C1813 C 0.71232 0.90671 0.3823 0.0
H1814 H 0.74256 0.87715 0.3428 0.0
C1815 C 0.72659 0.93294 0.37962 0.0
C1816 C 0.74606 0.93923 0.3632 0.0
H1817 H 0.6967 0.90237 0.39446 0.0
H1818 H 0.72155 0.94841 0.38957 0.0
C1819 C 0.75206 0.91875 0.35042 0.0
C1820 C 0.65066 0.24744 0.34854 0.0
C1821 C 0.66381 0.22705 0.34654 0.0
H1822 H 0.62795 0.27179 0.3311 0.0
C1823 C 0.66624 0.21769 0.32395 0.0
H1824 H 0.64882 0.25557 0.36562 0.0
C1825 C 0.6544 0.22719 0.30414 0.0
C1826 C 0.6398 0.24636 0.30629 0.0
H1827 H 0.67605 0.20201 0.32163 0.0
H1828 H 0.65586 0.21867 0.28714 0.0
C1829 C 0.63878 0.25692 0.32872 0.0
C1830 C 0.36441 0.09926 0.32894 0.0
C1831 C 0.3913 0.10002 0.33482 0.0
H1832 H 0.3282 0.07946 0.30916 0.0
C1833 C 0.40163 0.07939 0.32717 0.0
H1834 H 0.35622 0.11522 0.3344 0.0
C1835 C 0.38578 0.05902 0.31276 0.0
C1836 C 0.35929 0.05894 0.30557 0.0
H1837 H 0.4224 0.07969 0.33152 0.0
H1838 H 0.39452 0.04369 0.30683 0.0
C1839 C 0.3485 0.07886 0.31439 0.0
C1840 C 0.39638 0.80691 0.36371 0.0
C1841 C 0.39348 0.80662 0.3881 0.0
H1842 H 0.4156 0.79457 0.33505 0.0
C1843 C 0.40902 0.79322 0.40219 0.0
H1844 H 0.38477 0.81672 0.35213 0.0
C1845 C 0.42621 0.78013 0.3923 0.0
C1846 C 0.42901 0.78037 0.36802 0.0
H1847 H 0.40838 0.79315 0.42107 0.0
H1848 H 0.43782 0.77022 0.4038 0.0
C1849 C 0.41404 0.79412 0.35385 0.0
C1850 C 0.35919 0.97352 0.76364 0.0
C1851 C 0.34132 0.94968 0.76951 0.0
H1852 H 0.37211 0.01573 0.76908 0.0
C1853 C 0.32404 0.95047 0.78739 0.0
H1854 H 0.37267 0.97374 0.74993 0.0
C1855 C 0.32327 0.97441 0.79791 0.0
C1856 C 0.34011 0.99842 0.79128 0.0
H1857 H 0.31038 0.93251 0.79282 0.0
H1858 H 0.30914 0.97408 0.81112 0.0
C1859 C 0.35867 0.99762 0.77449 0.0
C1860 C 0.62614 0.80688 0.71327 0.0
C1861 C 0.64003 0.83342 0.71035 0.0
H1862 H 0.59759 0.77957 0.73288 0.0
C1863 C 0.63352 0.85312 0.72376 0.0
H1864 H 0.63071 0.79128 0.70314 0.0
C1865 C 0.61485 0.84651 0.7406 0.0
C1866 C 0.60195 0.81998 0.74455 0.0
H1867 H 0.64338 0.87378 0.72157 0.0
H1868 H 0.61101 0.86233 0.75097 0.0
C1869 C 0.60722 0.80019 0.73028 0.0
C1870 C 0.45955 0.25765 0.7314 0.0
C1871 C 0.44415 0.23579 0.71814 0.0
H1872 H 0.49681 0.27472 0.75091 0.0
C1873 C 0.45626 0.21639 0.71065 0.0
H1874 H 0.45047 0.27271 0.73749 0.0
C1875 C 0.4828 0.21763 0.71807 0.0
C1876 C 0.49737 0.23798 0.73352 0.0
H1877 H 0.44459 0.19932 0.70047 0.0
H1878 H 0.49101 0.20141 0.71337 0.0
C1879 C 0.48597 0.25869 0.73916 0.0
C1880 C 0.74293 0.69467 0.16631 0.0
C1881 C 0.73882 0.66944 0.17625 0.0
H1882 H 0.76267 0.72158 0.14095 0.0
C1883 C 0.75232 0.65182 0.16703 0.0
H1884 H 0.73348 0.70911 0.173 0.0
C1885 C 0.76952 0.65926 0.14887 0.0
C1886 C 0.77344 0.68436 0.13896 0.0
H1887 H 0.7494 0.632 0.17358 0.0
H1888 H 0.77949 0.64517 0.14229 0.0
C1889 C 0.7598 0.70192 0.14787 0.0
C1890 C 0.40035 0.78235 0.09229 0.0
C1891 C 0.38124 0.79196 0.10344 0.0
H1892 H 0.43221 0.79064 0.06912 0.0
C1893 C 0.38007 0.8182 0.09977 0.0
H1894 H 0.40165 0.7622 0.09468 0.0
C1895 C 0.39749 0.83436 0.08501 0.0
C1896 C 0.41605 0.82439 0.07354 0.0
H1897 H 0.36582 0.82626 0.10838 0.0
H1898 H 0.39631 0.85451 0.08235 0.0
C1899 C 0.41774 0.7985 0.07762 0.0
C1900 C 0.41003 0.32803 0.15308 0.0
C1901 C 0.3998 0.33176 0.17474 0.0
H1902 H 0.40186 0.31191 0.11792 0.0
C1903 C 0.37191 0.3232 0.17632 0.0
H1904 H 0.43132 0.33467 0.15098 0.0
C1905 C 0.35498 0.31029 0.15726 0.0
C1906 C 0.36534 0.30554 0.13595 0.0
H1907 H 0.36318 0.32538 0.19265 0.0
H1908 H 0.33378 0.30319 0.15958 0.0
C1909 C 0.39307 0.31515 0.13397 0.0
C1910 C 0.83368 0.41322 0.06982 0.0
C1911 C 0.82014 0.39792 0.08764 0.0
H1912 H 0.86402 0.41744 0.0453 0.0
C1913 C 0.82978 0.37688 0.09653 0.0
H1914 H 0.82704 0.42985 0.06286 0.0
C1915 C 0.85106 0.37006 0.08667 0.0
C1916 C 0.8632 0.38403 0.06766 0.0
H1917 H 0.81983 0.36456 0.11011 0.0
H1918 H 0.85718 0.35294 0.09312 0.0
C1919 C 0.85506 0.40635 0.05995 0.0
C1920 C 0.81972 0.28602 0.92749 0.0
C1921 C 0.8196 0.30692 0.91217 0.0
H1922 H 0.83435 0.27413 0.96052 0.0
C1923 C 0.8339 0.33265 0.91916 0.0
H1924 H 0.8086 0.26603 0.92257 0.0
C1925 C 0.84883 0.33727 0.94076 0.0
C1926 C 0.84938 0.3163 0.95592 0.0
H1927 H 0.83417 0.34906 0.90762 0.0
H1928 H 0.86016 0.35725 0.94549 0.0
C1929 C 0.83431 0.29069 0.94924 0.0
C1930 C 0.76202 0.69012 0.98278 0.0
C1931 C 0.75934 0.70327 0.96173 0.0
H1932 H 0.77168 0.69348 1.01988 0.0
C1933 C 0.76316 0.73085 0.96261 0.0
H1934 H 0.75895 0.66887 0.98269 0.0
C1935 C 0.77072 0.74508 0.98392 0.0
C1936 C 0.77405 0.732 1.00493 0.0
H1937 H 0.76127 0.74152 0.94665 0.0
H1938 H 0.77462 0.7664 0.98384 0.0
C1939 C 0.76904 0.70426 1.00414 0.0
C1940 C 0.34827 0.73484 0.94037 0.0
C1941 C 0.36775 0.72727 0.92797 0.0
H1942 H 0.3386 0.7651 0.96071 0.0
C1943 C 0.39192 0.74616 0.92464 0.0
H1944 H 0.32921 0.72099 0.94281 0.0
C1945 C 0.39708 0.77151 0.93463 0.0
C1946 C 0.37833 0.7784 0.94834 0.0
H1947 H 0.40751 0.74097 0.91543 0.0
H1948 H 0.41641 0.78514 0.93282 0.0
C1949 C 0.35358 0.76009 0.95055 0.0
C1950 C 0.38706 0.28941 0.96799 0.0
C1951 C 0.40952 0.28507 0.95751 0.0
H1952 H 0.36283 0.28293 0.99757 0.0
C1953 C 0.42507 0.27052 0.97025 0.0
H1954 H 0.37418 0.30001 0.95885 0.0
C1955 C 0.4181 0.26022 0.99225 0.0
C1956 C 0.3958 0.26469 1.00259 0.0
H1957 H 0.44294 0.26722 0.96341 0.0
H1958 H 0.43036 0.24897 1.00139 0.0
C1959 C 0.38045 0.27956 0.99026 0.0
C1960 C 0.59981 0.71794 0.2525 0.0
C1961 C 0.60398 0.69247 0.25195 0.0
H1962 H 0.57853 0.74378 0.26652 0.0
C1963 C 0.59091 0.67383 0.26771 0.0
H1964 H 0.60926 0.73258 0.24027 0.0
C1965 C 0.5729 0.68015 0.28276 0.0
C1966 C 0.56761 0.70529 0.28245 0.0
H1967 H 0.59336 0.65391 0.26739 0.0
H1968 H 0.56246 0.66505 0.2941 0.0
C1969 C 0.58205 0.72433 0.26759 0.0
C1970 C 0.3424 0.64131 0.18445 0.0
C1971 C 0.35198 0.6626 0.20045 0.0
H1972 H 0.32518 0.5996 0.17992 0.0
C1973 C 0.34943 0.65823 0.2245 0.0
H1974 H 0.34422 0.64421 0.16582 0.0
C1975 C 0.3385 0.63296 0.23253 0.0
C1976 C 0.32998 0.6113 0.21675 0.0
H1977 H 0.35622 0.67441 0.23717 0.0
H1978 H 0.33685 0.63046 0.2512 0.0
C1979 C 0.33154 0.61583 0.19254 0.0
C1980 C 0.49903 0.32916 0.2077 0.0
C1981 C 0.48413 0.33422 0.22605 0.0
H1982 H 0.53101 0.31362 0.19731 0.0
C1983 C 0.49267 0.32899 0.24919 0.0
H1984 H 0.49377 0.33345 0.18975 0.0
C1985 C 0.51471 0.31811 0.25361 0.0
C1986 C 0.52856 0.31187 0.235 0.0
H1987 H 0.48168 0.33226 0.26388 0.0
H1988 H 0.51999 0.31333 0.27142 0.0
C1989 C 0.52069 0.318 0.21208 0.0
C1990 C 0.79525 0.43873 0.21591 0.0
C1991 C 0.76815 0.43127 0.20774 0.0
H1992 H 0.82444 0.4608 0.24188 0.0
C1993 C 0.74985 0.44244 0.21829 0.0
H1994 H 0.80966 0.43026 0.20798 0.0
C1995 C 0.75817 0.45987 0.23739 0.0
C1996 C 0.78498 0.46634 0.24656 0.0
H1997 H 0.72888 0.43712 0.2121 0.0
H1998 H 0.74328 0.46755 0.24544 0.0
C1999 C 0.80362 0.45608 0.23531 0.0
C2000 C 0.65645 0.31363 0.83014 0.0
C2001 C 0.67949 0.30469 0.82709 0.0
H2002 H 0.6135 0.30451 0.8267 0.0
C2003 C 0.67627 0.27934 0.81708 0.0
H2004 H 0.65795 0.3328 0.83809 0.0
C2005 C 0.65081 0.2629 0.81154 0.0
C2006 C 0.62806 0.27179 0.815 0.0
H2007 H 0.69339 0.27199 0.81363 0.0
H2008 H 0.64888 0.24322 0.80446 0.0
C2009 C 0.63096 0.29744 0.8238 0.0
C2010 C 0.79052 0.63936 0.88369 0.0
C2011 C 0.7776 0.63705 0.90472 0.0
H2012 H 0.80949 0.62089 0.85876 0.0
C2013 C 0.77599 0.61417 0.91791 0.0
H2014 H 0.79193 0.65673 0.87313 0.0
C2015 C 0.78557 0.59334 0.90948 0.0
C2016 C 0.79748 0.59515 0.8879 0.0
H2017 H 0.76591 0.61176 0.93406 0.0
H2018 H 0.78275 0.57541 0.91944 0.0
C2019 C 0.80065 0.61882 0.87552 0.0
C2020 C 0.4669 0.70412 0.85647 0.0
C2021 C 0.44799 0.68986 0.83925 0.0
H2022 H 0.50291 0.73441 0.86405 0.0
C2023 C 0.45276 0.6945 0.81545 0.0
H2024 H 0.46436 0.70058 0.87494 0.0
C2025 C 0.47531 0.71385 0.80913 0.0
C2026 C 0.49339 0.72895 0.8265 0.0
H2027 H 0.43857 0.68386 0.80174 0.0
H2028 H 0.47801 0.71767 0.79072 0.0
C2029 C 0.48917 0.72344 0.8502 0.0
C2030 C 0.41689 0.4083 0.82948 0.0
C2031 C 0.39837 0.39746 0.84594 0.0
H2032 H 0.4245 0.43095 0.79832 0.0
C2033 C 0.37197 0.39966 0.84211 0.0
H2034 H 0.43756 0.4075 0.83236 0.0
C2035 C 0.36447 0.41324 0.82276 0.0
C2036 C 0.38324 0.42528 0.80678 0.0
H2037 H 0.35744 0.39196 0.85478 0.0
H2038 H 0.34405 0.41489 0.82073 0.0
C2039 C 0.4094 0.4219 0.81005 0.0
C2040 C 0.71058 0.61647 0.27149 0.0
C2041 C 0.71292 0.61422 0.24724 0.0
H2042 H 0.71538 0.60054 0.30548 0.0
C2043 C 0.72058 0.59223 0.23872 0.0
H2044 H 0.70479 0.6332 0.27863 0.0
C2045 C 0.72636 0.57332 0.25402 0.0
C2046 C 0.72494 0.57588 0.27842 0.0
H2047 H 0.72201 0.58955 0.22009 0.0
H2048 H 0.73197 0.55669 0.24656 0.0
C2049 C 0.71663 0.59762 0.28689 0.0
C2050 C 0.72516 0.40682 0.84851 0.0
C2051 C 0.74406 0.39363 0.84173 0.0
H2052 H 0.71565 0.44394 0.85296 0.0
C2053 C 0.76826 0.4085 0.83371 0.0
H2054 H 0.70642 0.39588 0.85498 0.0
C2055 C 0.77347 0.43593 0.83251 0.0
C2056 C 0.75465 0.44919 0.83939 0.0
H2057 H 0.78299 0.3989 0.82793 0.0
H2058 H 0.79212 0.44667 0.82581 0.0
C2059 C 0.73039 0.43431 0.84732 0.0
C2060 C 0.6513 0.73708 0.87794 0.0
C2061 C 0.65911 0.72195 0.86072 0.0
H2062 H 0.62968 0.76573 0.88519 0.0
C2063 C 0.65362 0.7268 0.83698 0.0
H2064 H 0.65504 0.73353 0.89636 0.0
C2065 C 0.63922 0.74518 0.83053 0.0
C2066 C 0.62965 0.75909 0.84765 0.0
H2067 H 0.65955 0.7155 0.82334 0.0
H2068 H 0.63493 0.7479 0.81205 0.0
C2069 C 0.63666 0.75546 0.87148 0.0
C2070 C 0.39972 0.58662 0.82902 0.0
C2071 C 0.38089 0.60111 0.83231 0.0
H2072 H 0.40688 0.55095 0.81619 0.0
C2073 C 0.35358 0.58915 0.82642 0.0
H2074 H 0.42077 0.59498 0.83399 0.0
C2075 C 0.34549 0.56362 0.8164 0.0
C2076 C 0.36461 0.5497 0.81218 0.0
H2077 H 0.3386 0.59986 0.82885 0.0
H2078 H 0.32456 0.55536 0.81093 0.0
C2079 C 0.39168 0.56124 0.81911 0.0
C2080 C 0.47491 0.26787 0.89572 0.0
C2081 C 0.45632 0.27961 0.88383 0.0
H2082 H 0.50499 0.24685 0.89324 0.0
C2083 C 0.45447 0.27881 0.85911 0.0
H2084 H 0.47756 0.26866 0.91469 0.0
C2085 C 0.47059 0.2664 0.84673 0.0
C2086 C 0.48885 0.25437 0.85873 0.0
H2087 H 0.44031 0.28744 0.84932 0.0
H2088 H 0.46841 0.26584 0.82775 0.0
C2089 C 0.49079 0.25535 0.88338 0.0
C2090 C 0.36555 0.43865 0.24662 0.0
C2091 C 0.38586 0.43966 0.26444 0.0
H2092 H 0.33459 0.45556 0.23234 0.0
C2093 C 0.3917 0.46099 0.28084 0.0
H2094 H 0.36032 0.42253 0.2338 0.0
C2095 C 0.3767 0.47986 0.28023 0.0
C2096 C 0.35553 0.47807 0.26309 0.0
H2097 H 0.40754 0.46278 0.2946 0.0
H2098 H 0.38129 0.49546 0.29353 0.0
C2099 C 0.35062 0.45756 0.24596 0.0
C2100 C 0.68083 0.33636 0.1688 0.0
C2101 C 0.70399 0.34564 0.18393 0.0
H2102 H 0.64094 0.31107 0.16457 0.0
C2103 C 0.70524 0.33416 0.20608 0.0
H2104 H 0.67907 0.34487 0.15171 0.0
C2105 C 0.68331 0.31523 0.21351 0.0
C2106 C 0.65975 0.30693 0.19886 0.0
H2107 H 0.72301 0.34029 0.21796 0.0
H2108 H 0.6846 0.30733 0.2309 0.0
C2109 C 0.65895 0.31707 0.17616 0.0
C2110 C 0.45194 0.73118 0.21111 0.0
C2111 C 0.42927 0.74101 0.21204 0.0
H2112 H 0.49082 0.73176 0.22663 0.0
C2113 C 0.42959 0.7615 0.228 0.0
H2114 H 0.45194 0.71533 0.19887 0.0
C2115 C 0.45157 0.77063 0.24414 0.0
C2116 C 0.47367 0.75966 0.24422 0.0
H2117 H 0.41216 0.7692 0.22898 0.0
H2118 H 0.45072 0.78528 0.2573 0.0
C2119 C 0.47416 0.74069 0.2269 0.0
loop_
_geom_bond_atom_site_label_1
_geom_bond_atom_site_label_2
_geom_bond_distance
_geom_bond_site_symmetry_2
_ccdc_geom_bond_type
H0 C1 0.949 . S
C1 H0 0.949 . S
C1 C2 1.395 . S
C1 C3 1.391 . S
C2 C1 1.395 . S
C2 C5 1.390 . S
C3 C1 1.391 . S
C3 C7 1.387 . S
C3 C8 1.491 . S
H4 C5 0.950 . S
C5 C2 1.390 . S
C5 H4 0.950 . S
C5 C6 1.378 . S
C6 C5 1.378 . S
C6 C7 1.409 . S
C7 C3 1.387 . S
C7 C6 1.409 . S
C7 H9 0.951 . S
C8 C3 1.491 . S
C8 C10 1.382 . S
C8 C12 1.404 . S
H9 C7 0.951 . S
C10 C8 1.382 . S
C10 C11 1.390 . S
C10 H15 0.949 . S
C11 C10 1.390 . S
C11 C16 1.399 . S
C12 C8 1.404 . S
C12 H13 0.950 . S
C12 C14 1.375 . S
H13 C12 0.950 . S
C14 C12 1.375 . S
C14 C16 1.382 . S
C14 H18 0.950 . S
H15 C10 0.949 . S
C16 C11 1.399 . S
C16 C14 1.382 . S
C16 H17 0.952 . S
H17 C16 0.952 . S
H18 C14 0.950 . S
H19 C20 0.949 . S
C20 H19 0.949 . S
C20 C21 1.395 . S
C20 C22 1.391 . S
C21 C20 1.395 . S
C21 C24 1.390 . S
C22 C20 1.391 . S
C22 C26 1.387 . S
C22 C27 1.491 . S
H23 C24 0.950 . S
C24 C21 1.390 . S
C24 H23 0.950 . S
C24 C25 1.378 . S
C25 C24 1.378 . S
C25 C26 1.409 . S
C26 C22 1.387 . S
C26 C25 1.409 . S
C26 H28 0.951 . S
C27 C22 1.491 . S
C27 C29 1.382 . S
C27 C31 1.404 . S
H28 C26 0.951 . S
C29 C27 1.382 . S
C29 C30 1.390 . S
C29 H34 0.949 . S
C30 C29 1.390 . S
C30 C35 1.399 . S
C31 C27 1.404 . S
C31 H32 0.950 . S
C31 C33 1.375 . S
H32 C31 0.950 . S
C33 C31 1.375 . S
C33 C35 1.382 . S
C33 H37 0.950 . S
H34 C29 0.949 . S
C35 C30 1.399 . S
C35 C33 1.382 . S
C35 H36 0.952 . S
H36 C35 0.952 . S
H37 C33 0.950 . S
H38 C39 0.949 . S
C39 H38 0.949 . S
C39 C40 1.395 . S
C39 C41 1.391 . S
C40 C39 1.395 . S
C40 C43 1.390 . S
C41 C39 1.391 . S
C41 C45 1.387 . S
C41 C46 1.491 . S
H42 C43 0.950 . S
C43 C40 1.390 . S
C43 H42 0.950 . S
C43 C44 1.378 . S
C44 C43 1.378 . S
C44 C45 1.409 . S
C45 C41 1.387 . S
C45 C44 1.409 . S
C45 H47 0.951 . S
C46 C41 1.491 . S
C46 C48 1.382 . S
C46 C50 1.404 . S
H47 C45 0.951 . S
C48 C46 1.382 . S
C48 C49 1.390 . S
C48 H53 0.949 . S
C49 C48 1.390 . S
C49 C54 1.399 . S
C50 C46 1.404 . S
C50 H51 0.950 . S
C50 C52 1.375 . S
H51 C50 0.950 . S
C52 C50 1.375 . S
C52 C54 1.382 . S
C52 H56 0.950 . S
H53 C48 0.949 . S
C54 C49 1.399 . S
C54 C52 1.382 . S
C54 H55 0.952 . S
H55 C54 0.952 . S
H56 C52 0.950 . S
H57 C58 0.949 . S
C58 H57 0.949 . S
C58 C59 1.395 . S
C58 C60 1.391 . S
C59 C58 1.395 . S
C59 C62 1.390 . S
C60 C58 1.391 . S
C60 C64 1.387 . S
C60 C65 1.491 . S
H61 C62 0.950 . S
C62 C59 1.390 . S
C62 H61 0.950 . S
C62 C63 1.378 . S
C63 C62 1.378 . S
C63 C64 1.409 . S
C64 C60 1.387 . S
C64 C63 1.409 . S
C64 H66 0.951 . S
C65 C60 1.491 . S
C65 C67 1.382 . S
C65 C69 1.404 . S
H66 C64 0.951 . S
C67 C65 1.382 . S
C67 C68 1.390 . S
C67 H72 0.949 . S
C68 C67 1.390 . S
C68 C73 1.399 . S
C69 C65 1.404 . S
C69 H70 0.950 . S
C69 C71 1.375 . S
H70 C69 0.950 . S
C71 C69 1.375 . S
C71 C73 1.382 . S
C71 H75 0.950 . S
H72 C67 0.949 . S
C73 C68 1.399 . S
C73 C71 1.382 . S
C73 H74 0.952 . S
H74 C73 0.952 . S
H75 C71 0.950 . S
H76 C77 0.949 . S
C77 H76 0.949 . S
C77 C78 1.395 . S
C77 C79 1.391 . S
C78 C77 1.395 . S
C78 C81 1.390 . S
C79 C77 1.391 . S
C79 C83 1.387 . S
C79 C84 1.491 . S
H80 C81 0.950 . S
C81 C78 1.390 . S
C81 H80 0.950 . S
C81 C82 1.378 . S
C82 C81 1.378 . S
C82 C83 1.409 . S
C83 C79 1.387 . S
C83 C82 1.409 . S
C83 H85 0.951 . S
C84 C79 1.491 . S
C84 C86 1.382 . S
C84 C88 1.404 . S
H85 C83 0.951 . S
C86 C84 1.382 . S
C86 C87 1.390 . S
C86 H91 0.949 . S
C87 C86 1.390 . S
C87 C92 1.399 . S
C88 C84 1.404 . S
C88 H89 0.950 . S
C88 C90 1.375 . S
H89 C88 0.950 . S
C90 C88 1.375 . S
C90 C92 1.382 . S
C90 H94 0.950 . S
H91 C86 0.949 . S
C92 C87 1.399 . S
C92 C90 1.382 . S
C92 H93 0.952 . S
H93 C92 0.952 . S
H94 C90 0.950 . S
H95 C96 0.949 . S
C96 H95 0.949 . S
C96 C97 1.395 . S
C96 C98 1.391 . S
C97 C96 1.395 . S
C97 C100 1.390 . S
C98 C96 1.391 . S
C98 C102 1.387 . S
C98 C103 1.491 . S
H99 C100 0.950 . S
C100 C97 1.390 . S
C100 H99 0.950 . S
C100 C101 1.378 . S
C101 C100 1.378 . S
C101 C102 1.409 . S
C102 C98 1.387 . S
C102 C101 1.409 . S
C102 H104 0.951 . S
C103 C98 1.491 . S
C103 C105 1.382 . S
C103 C107 1.404 . S
H104 C102 0.951 . S
C105 C103 1.382 . S
C105 C106 1.390 . S
C105 H110 0.949 . S
C106 C105 1.390 . S
C106 C111 1.399 . S
C107 C103 1.404 . S
C107 H108 0.950 . S
C107 C109 1.375 . S
H108 C107 0.950 . S
C109 C107 1.375 . S
C109 C111 1.382 . S
C109 H113 0.950 . S
H110 C105 0.949 . S
C111 C106 1.399 . S
C111 C109 1.382 . S
C111 H112 0.952 . S
H112 C111 0.952 . S
H113 C109 0.950 . S
H114 C115 0.949 . S
C115 H114 0.949 . S
C115 C116 1.395 . S
C115 C117 1.391 . S
C116 C115 1.395 . S
C116 C119 1.390 . S
C117 C115 1.391 . S
C117 C121 1.387 . S
C117 C122 1.491 . S
H118 C119 0.950 . S
C119 C116 1.390 . S
C119 H118 0.950 . S
C119 C120 1.378 . S
C120 C119 1.378 . S
C120 C121 1.409 . S
C121 C117 1.387 . S
C121 C120 1.409 . S
C121 H123 0.951 . S
C122 C117 1.491 . S
C122 C124 1.382 . S
C122 C126 1.404 . S
H123 C121 0.951 . S
C124 C122 1.382 . S
C124 C125 1.390 . S
C124 H129 0.949 . S
C125 C124 1.390 . S
C125 C130 1.399 . S
C126 C122 1.404 . S
C126 H127 0.950 . S
C126 C128 1.375 . S
H127 C126 0.950 . S
C128 C126 1.375 . S
C128 C130 1.382 . S
C128 H132 0.950 . S
H129 C124 0.949 . S
C130 C125 1.399 . S
C130 C128 1.382 . S
C130 H131 0.952 . S
H131 C130 0.952 . S
H132 C128 0.950 . S
H133 C134 0.949 . S
C134 H133 0.949 . S
C134 C135 1.395 . S
C134 C136 1.391 . S
C135 C134 1.395 . S
C135 C138 1.390 . S
C136 C134 1.391 . S
C136 C140 1.387 . S
C136 C141 1.491 . S
H137 C138 0.950 . S
C138 C135 1.390 . S
C138 H137 0.950 . S
C138 C139 1.378 . S
C139 C138 1.378 . S
C139 C140 1.409 . S
C140 C136 1.387 . S
C140 C139 1.409 . S
C140 H142 0.951 . S
C141 C136 1.491 . S
C141 C143 1.382 . S
C141 C145 1.404 . S
H142 C140 0.951 . S
C143 C141 1.382 . S
C143 C144 1.390 . S
C143 H148 0.949 . S
C144 C143 1.390 . S
C144 C149 1.399 . S
C145 C141 1.404 . S
C145 H146 0.950 . S
C145 C147 1.375 . S
H146 C145 0.950 . S
C147 C145 1.375 . S
C147 C149 1.382 . S
C147 H151 0.950 . S
H148 C143 0.949 . S
C149 C144 1.399 . S
C149 C147 1.382 . S
C149 H150 0.952 . S
H150 C149 0.952 . S
H151 C147 0.950 . S
H152 C153 0.949 . S
C153 H152 0.949 . S
C153 C154 1.395 . S
C153 C155 1.391 . S
C154 C153 1.395 . S
C154 C157 1.390 . S
C155 C153 1.391 . S
C155 C159 1.387 . S
C155 C160 1.491 . S
H156 C157 0.950 . S
C157 C154 1.390 . S
C157 H156 0.950 . S
C157 C158 1.378 . S
C158 C157 1.378 . S
C158 C159 1.409 . S
C159 C155 1.387 . S
C159 C158 1.409 . S
C159 H161 0.951 . S
C160 C155 1.491 . S
C160 C162 1.382 . S
C160 C164 1.404 . S
H161 C159 0.951 . S
C162 C160 1.382 . S
C162 C163 1.390 . S
C162 H167 0.949 . S
C163 C162 1.390 . S
C163 C168 1.399 . S
C164 C160 1.404 . S
C164 H165 0.950 . S
C164 C166 1.375 . S
H165 C164 0.950 . S
C166 C164 1.375 . S
C166 C168 1.382 . S
C166 H170 0.950 . S
H167 C162 0.949 . S
C168 C163 1.399 . S
C168 C166 1.382 . S
C168 H169 0.952 . S
H169 C168 0.952 . S
H170 C166 0.950 . S
H171 C172 0.949 . S
C172 H171 0.949 . S
C172 C173 1.395 . S
C172 C174 1.391 . S
C173 C172 1.395 . S
C173 C176 1.390 . S
C174 C172 1.391 . S
C174 C178 1.387 . S
C174 C179 1.491 . S
H175 C176 0.950 . S
C176 C173 1.390 . S
C176 H175 0.950 . S
C176 C177 1.378 . S
C177 C176 1.378 . S
C177 C178 1.409 . S
C178 C174 1.387 . S
C178 C177 1.409 . S
C178 H180 0.951 . S
C179 C174 1.491 . S
C179 C181 1.382 . S
C179 C183 1.404 . S
H180 C178 0.951 . S
C181 C179 1.382 . S
C181 C182 1.390 . S
C181 H186 0.949 . S
C182 C181 1.390 . S
C182 C187 1.399 . S
C183 C179 1.404 . S
C183 H184 0.950 . S
C183 C185 1.375 . S
H184 C183 0.950 . S
C185 C183 1.375 . S
C185 C187 1.382 . S
C185 H189 0.950 . S
H186 C181 0.949 . S
C187 C182 1.399 . S
C187 C185 1.382 . S
C187 H188 0.952 . S
H188 C187 0.952 . S
H189 C185 0.950 . S
H190 C191 0.949 . S
C191 H190 0.949 . S
C191 C192 1.395 . S
C191 C193 1.391 . S
C192 C191 1.395 . S
C192 C195 1.390 . S
C193 C191 1.391 . S
C193 C197 1.387 . S
C193 C198 1.491 . S
H194 C195 0.950 . S
C195 C192 1.390 . S
C195 H194 0.950 . S
C195 C196 1.378 . S
C196 C195 1.378 . S
C196 C197 1.409 . S
C197 C193 1.387 . S
C197 C196 1.409 . S
C197 H199 0.951 . S
C198 C193 1.491 . S
C198 C200 1.382 . S
C198 C202 1.404 . S
H199 C197 0.951 . S
C200 C198 1.382 . S
C200 C201 1.390 . S
C200 H205 0.949 . S
C201 C200 1.390 . S
C201 C206 1.399 . S
C202 C198 1.404 . S
C202 H203 0.950 . S
C202 C204 1.375 . S
H203 C202 0.950 . S
C204 C202 1.375 . S
C204 C206 1.382 . S
C204 H208 0.950 . S
H205 C200 0.949 . S
C206 C201 1.399 . S
C206 C204 1.382 . S
C206 H207 0.952 . S
H207 C206 0.952 . S
H208 C204 0.950 . S
H209 C210 0.949 . S
C210 H209 0.949 . S
C210 C211 1.395 . S
C210 C212 1.391 . S
C211 C210 1.395 . S
C211 C214 1.390 . S
C212 C210 1.391 . S
C212 C216 1.387 . S
C212 C217 1.491 . S
H213 C214 0.950 . S
C214 C211 1.390 . S
C214 H213 0.950 . S
C214 C215 1.378 . S
C215 C214 1.378 . S
C215 C216 1.409 . S
C216 C212 1.387 . S
C216 C215 1.409 . S
C216 H218 0.951 . S
C217 C212 1.491 . S
C217 C219 1.382 . S
C217 C221 1.404 . S
H218 C216 0.951 . S
C219 C217 1.382 . S
C219 C220 1.390 . S
C219 H224 0.949 . S
C220 C219 1.390 . S
C220 C225 1.399 . S
C221 C217 1.404 . S
C221 H222 0.950 . S
C221 C223 1.375 . S
H222 C221 0.950 . S
C223 C221 1.375 . S
C223 C225 1.382 . S
C223 H227 0.950 . S
H224 C219 0.949 . S
C225 C220 1.399 . S
C225 C223 1.382 . S
C225 H226 0.952 . S
H226 C225 0.952 . S
H227 C223 0.950 . S
H228 C229 0.949 . S
C229 H228 0.949 . S
C229 C230 1.395 . S
C229 C231 1.391 . S
C230 C229 1.395 . S
C230 C233 1.390 . S
C231 C229 1.391 . S
C231 C235 1.387 . S
C231 C236 1.491 . S
H232 C233 0.950 . S
C233 C230 1.390 . S
C233 H232 0.950 . S
C233 C234 1.378 . S
C234 C233 1.378 . S
C234 C235 1.409 . S
C235 C231 1.387 . S
C235 C234 1.409 . S
C235 H237 0.951 . S
C236 C231 1.491 . S
C236 C238 1.382 . S
C236 C240 1.404 . S
H237 C235 0.951 . S
C238 C236 1.382 . S
C238 C239 1.390 . S
C238 H243 0.949 . S
C239 C238 1.390 . S
C239 C244 1.399 . S
C240 C236 1.404 . S
C240 H241 0.950 . S
C240 C242 1.375 . S
H241 C240 0.950 . S
C242 C240 1.375 . S
C242 C244 1.382 . S
C242 H246 0.950 . S
H243 C238 0.949 . S
C244 C239 1.399 . S
C244 C242 1.382 . S
C244 H245 0.952 . S
H245 C244 0.952 . S
H246 C242 0.950 . S
H247 C248 0.949 . S
C248 H247 0.949 . S
C248 C249 1.395 . S
C248 C250 1.391 . S
C249 C248 1.395 . S
C249 C252 1.390 . S
C250 C248 1.391 . S
C250 C254 1.387 . S
C250 C255 1.491 . S
H251 C252 0.950 . S
C252 C249 1.390 . S
C252 H251 0.950 . S
C252 C253 1.378 . S
C253 C252 1.378 . S
C253 C254 1.409 . S
C254 C250 1.387 . S
C254 C253 1.409 . S
C254 H256 0.951 . S
C255 C250 1.491 . S
C255 C257 1.382 . S
C255 C259 1.404 . S
H256 C254 0.951 . S
C257 C255 1.382 . S
C257 C258 1.390 . S
C257 H262 0.949 . S
C258 C257 1.390 . S
C258 C263 1.399 . S
C259 C255 1.404 . S
C259 H260 0.950 . S
C259 C261 1.375 . S
H260 C259 0.950 . S
C261 C259 1.375 . S
C261 C263 1.382 . S
C261 H265 0.950 . S
H262 C257 0.949 . S
C263 C258 1.399 . S
C263 C261 1.382 . S
C263 H264 0.952 . S
H264 C263 0.952 . S
H265 C261 0.950 . S
H266 C267 0.949 . S
C267 H266 0.949 . S
C267 C268 1.395 . S
C267 C269 1.391 . S
C268 C267 1.395 . S
C268 C271 1.390 . S
C269 C267 1.391 . S
C269 C273 1.387 . S
C269 C274 1.491 . S
H270 C271 0.950 . S
C271 C268 1.390 . S
C271 H270 0.950 . S
C271 C272 1.378 . S
C272 C271 1.378 . S
C272 C273 1.409 . S
C273 C269 1.387 . S
C273 C272 1.409 . S
C273 H275 0.951 . S
C274 C269 1.491 . S
C274 C276 1.382 . S
C274 C278 1.404 . S
H275 C273 0.951 . S
C276 C274 1.382 . S
C276 C277 1.390 . S
C276 H281 0.949 . S
C277 C276 1.390 . S
C277 C282 1.399 . S
C278 C274 1.404 . S
C278 H279 0.950 . S
C278 C280 1.375 . S
H279 C278 0.950 . S
C280 C278 1.375 . S
C280 C282 1.382 . S
C280 H284 0.950 . S
H281 C276 0.949 . S
C282 C277 1.399 . S
C282 C280 1.382 . S
C282 H283 0.952 . S
H283 C282 0.952 . S
H284 C280 0.950 . S
H285 C286 0.949 . S
C286 H285 0.949 . S
C286 C287 1.395 . S
C286 C288 1.391 . S
C287 C286 1.395 . S
C287 C290 1.390 . S
C288 C286 1.391 . S
C288 C292 1.387 . S
C288 C293 1.491 . S
H289 C290 0.950 . S
C290 C287 1.390 . S
C290 H289 0.950 . S
C290 C291 1.378 . S
C291 C290 1.378 . S
C291 C292 1.409 . S
C292 C288 1.387 . S
C292 C291 1.409 . S
C292 H294 0.951 . S
C293 C288 1.491 . S
C293 C295 1.382 . S
C293 C297 1.404 . S
H294 C292 0.951 . S
C295 C293 1.382 . S
C295 C296 1.390 . S
C295 H300 0.949 . S
C296 C295 1.390 . S
C296 C301 1.399 . S
C297 C293 1.404 . S
C297 H298 0.950 . S
C297 C299 1.375 . S
H298 C297 0.950 . S
C299 C297 1.375 . S
C299 C301 1.382 . S
C299 H303 0.950 . S
H300 C295 0.949 . S
C301 C296 1.399 . S
C301 C299 1.382 . S
C301 H302 0.952 . S
H302 C301 0.952 . S
H303 C299 0.950 . S
H304 C305 0.949 . S
C305 H304 0.949 . S
C305 C306 1.395 . S
C305 C307 1.391 . S
C306 C305 1.395 . S
C306 C309 1.390 . S
C307 C305 1.391 . S
C307 C311 1.387 . S
C307 C312 1.491 . S
H308 C309 0.950 . S
C309 C306 1.390 . S
C309 H308 0.950 . S
C309 C310 1.378 . S
C310 C309 1.378 . S
C310 C311 1.409 . S
C311 C307 1.387 . S
C311 C310 1.409 . S
C311 H313 0.951 . S
C312 C307 1.491 . S
C312 C314 1.382 . S
C312 C316 1.404 . S
H313 C311 0.951 . S
C314 C312 1.382 . S
C314 C315 1.390 . S
C314 H319 0.949 . S
C315 C314 1.390 . S
C315 C320 1.399 . S
C316 C312 1.404 . S
C316 H317 0.950 . S
C316 C318 1.375 . S
H317 C316 0.950 . S
C318 C316 1.375 . S
C318 C320 1.382 . S
C318 H322 0.950 . S
H319 C314 0.949 . S
C320 C315 1.399 . S
C320 C318 1.382 . S
C320 H321 0.952 . S
H321 C320 0.952 . S
H322 C318 0.950 . S
H323 C324 0.949 . S
C324 H323 0.949 . S
C324 C325 1.395 . S
C324 C326 1.391 . S
C325 C324 1.395 . S
C325 C328 1.390 . S
C326 C324 1.391 . S
C326 C330 1.387 . S
C326 C331 1.491 . S
H327 C328 0.950 . S
C328 C325 1.390 . S
C328 H327 0.950 . S
C328 C329 1.378 . S
C329 C328 1.378 . S
C329 C330 1.409 . S
C330 C326 1.387 . S
C330 C329 1.409 . S
C330 H332 0.951 . S
C331 C326 1.491 . S
C331 C333 1.382 . S
C331 C335 1.404 . S
H332 C330 0.951 . S
C333 C331 1.382 . S
C333 C334 1.390 . S
C333 H338 0.949 . S
C334 C333 1.390 . S
C334 C339 1.399 . S
C335 C331 1.404 . S
C335 H336 0.950 . S
C335 C337 1.375 . S
H336 C335 0.950 . S
C337 C335 1.375 . S
C337 C339 1.382 . S
C337 H341 0.950 . S
H338 C333 0.949 . S
C339 C334 1.399 . S
C339 C337 1.382 . S
C339 H340 0.952 . S
H340 C339 0.952 . S
H341 C337 0.950 . S
H342 C343 0.949 . S
C343 H342 0.949 . S
C343 C344 1.395 . S
C343 C345 1.391 . S
C344 C343 1.395 . S
C344 C347 1.390 . S
C345 C343 1.391 . S
C345 C349 1.387 . S
C345 C350 1.491 . S
H346 C347 0.950 . S
C347 C344 1.390 . S
C347 H346 0.950 . S
C347 C348 1.378 . S
C348 C347 1.378 . S
C348 C349 1.409 . S
C349 C345 1.387 . S
C349 C348 1.409 . S
C349 H351 0.951 . S
C350 C345 1.491 . S
C350 C352 1.382 . S
C350 C354 1.404 . S
H351 C349 0.951 . S
C352 C350 1.382 . S
C352 C353 1.390 . S
C352 H357 0.949 . S
C353 C352 1.390 . S
C353 C358 1.399 . S
C354 C350 1.404 . S
C354 H355 0.950 . S
C354 C356 1.375 . S
H355 C354 0.950 . S
C356 C354 1.375 . S
C356 C358 1.382 . S
C356 H360 0.950 . S
H357 C352 0.949 . S
C358 C353 1.399 . S
C358 C356 1.382 . S
C358 H359 0.952 . S
H359 C358 0.952 . S
H360 C356 0.950 . S
H361 C362 0.949 . S
C362 H361 0.949 . S
C362 C363 1.395 . S
C362 C364 1.391 . S
C363 C362 1.395 . S
C363 C366 1.390 . S
C364 C362 1.391 . S
C364 C368 1.387 . S
C364 C369 1.491 . S
H365 C366 0.950 . S
C366 C363 1.390 . S
C366 H365 0.950 . S
C366 C367 1.378 . S
C367 C366 1.378 . S
C367 C368 1.409 . S
C368 C364 1.387 . S
C368 C367 1.409 . S
C368 H370 0.951 . S
C369 C364 1.491 . S
C369 C371 1.382 . S
C369 C373 1.404 . S
H370 C368 0.951 . S
C371 C369 1.382 . S
C371 C372 1.390 . S
C371 H376 0.949 . S
C372 C371 1.390 . S
C372 C377 1.399 . S
C373 C369 1.404 . S
C373 H374 0.950 . S
C373 C375 1.375 . S
H374 C373 0.950 . S
C375 C373 1.375 . S
C375 C377 1.382 . S
C375 H379 0.950 . S
H376 C371 0.949 . S
C377 C372 1.399 . S
C377 C375 1.382 . S
C377 H378 0.952 . S
H378 C377 0.952 . S
H379 C375 0.950 . S
H380 C381 0.949 . S
C381 H380 0.949 . S
C381 C382 1.395 . S
C381 C383 1.391 . S
C382 C381 1.395 . S
C382 C385 1.390 . S
C383 C381 1.391 . S
C383 C387 1.387 . S
C383 C388 1.491 . S
H384 C385 0.950 . S
C385 C382 1.390 . S
C385 H384 0.950 . S
C385 C386 1.378 . S
C386 C385 1.378 . S
C386 C387 1.409 . S
C387 C383 1.387 . S
C387 C386 1.409 . S
C387 H389 0.951 . S
C388 C383 1.491 . S
C388 C390 1.382 . S
C388 C392 1.404 . S
H389 C387 0.951 . S
C390 C388 1.382 . S
C390 C391 1.390 . S
C390 H395 0.949 . S
C391 C390 1.390 . S
C391 C396 1.399 . S
C392 C388 1.404 . S
C392 H393 0.950 . S
C392 C394 1.375 . S
H393 C392 0.950 . S
C394 C392 1.375 . S
C394 C396 1.382 . S
C394 H398 0.950 . S
H395 C390 0.949 . S
C396 C391 1.399 . S
C396 C394 1.382 . S
C396 H397 0.952 . S
H397 C396 0.952 . S
H398 C394 0.950 . S
H399 C400 0.949 . S
C400 H399 0.949 . S
C400 C401 1.395 . S
C400 C402 1.391 . S
C401 C400 1.395 . S
C401 C404 1.390 . S
C402 C400 1.391 . S
C402 C406 1.387 . S
C402 C407 1.491 . S
H403 C404 0.950 . S
C404 C401 1.390 . S
C404 H403 0.950 . S
C404 C405 1.378 . S
C405 C404 1.378 . S
C405 C406 1.409 . S
C406 C402 1.387 . S
C406 C405 1.409 . S
C406 H408 0.951 . S
C407 C402 1.491 . S
C407 C409 1.382 . S
C407 C411 1.404 . S
H408 C406 0.951 . S
C409 C407 1.382 . S
C409 C410 1.390 . S
C409 H414 0.949 . S
C410 C409 1.390 . S
C410 C415 1.399 . S
C411 C407 1.404 . S
C411 H412 0.950 . S
C411 C413 1.375 . S
H412 C411 0.950 . S
C413 C411 1.375 . S
C413 C415 1.382 . S
C413 H417 0.950 . S
H414 C409 0.949 . S
C415 C410 1.399 . S
C415 C413 1.382 . S
C415 H416 0.952 . S
H416 C415 0.952 . S
H417 C413 0.950 . S
H418 C419 0.949 . S
C419 H418 0.949 . S
C419 C420 1.395 . S
C419 C421 1.391 . S
C420 C419 1.395 . S
C420 C423 1.390 . S
C421 C419 1.391 . S
C421 C425 1.387 . S
C421 C426 1.491 . S
H422 C423 0.950 . S
C423 C420 1.390 . S
C423 H422 0.950 . S
C423 C424 1.378 . S
C424 C423 1.378 . S
C424 C425 1.409 . S
C425 C421 1.387 . S
C425 C424 1.409 . S
C425 H427 0.951 . S
C426 C421 1.491 . S
C426 C428 1.382 . S
C426 C430 1.404 . S
H427 C425 0.951 . S
C428 C426 1.382 . S
C428 C429 1.390 . S
C428 H433 0.949 . S
C429 C428 1.390 . S
C429 C434 1.399 . S
C430 C426 1.404 . S
C430 H431 0.950 . S
C430 C432 1.375 . S
H431 C430 0.950 . S
C432 C430 1.375 . S
C432 C434 1.382 . S
C432 H436 0.950 . S
H433 C428 0.949 . S
C434 C429 1.399 . S
C434 C432 1.382 . S
C434 H435 0.952 . S
H435 C434 0.952 . S
H436 C432 0.950 . S
H437 C438 0.949 . S
C438 H437 0.949 . S
C438 C439 1.395 . S
C438 C440 1.391 . S
C439 C438 1.395 . S
C439 C442 1.390 . S
C440 C438 1.391 . S
C440 C444 1.387 . S
C440 C445 1.491 . S
H441 C442 0.950 . S
C442 C439 1.390 . S
C442 H441 0.950 . S
C442 C443 1.378 . S
C443 C442 1.378 . S
C443 C444 1.409 . S
C444 C440 1.387 . S
C444 C443 1.409 . S
C444 H446 0.951 . S
C445 C440 1.491 . S
C445 C447 1.382 . S
C445 C449 1.404 . S
H446 C444 0.951 . S
C447 C445 1.382 . S
C447 C448 1.390 . S
C447 H452 0.949 . S
C448 C447 1.390 . S
C448 C453 1.399 . S
C449 C445 1.404 . S
C449 H450 0.950 . S
C449 C451 1.375 . S
H450 C449 0.950 . S
C451 C449 1.375 . S
C451 C453 1.382 . S
C451 H455 0.950 . S
H452 C447 0.949 . S
C453 C448 1.399 . S
C453 C451 1.382 . S
C453 H454 0.952 . S
H454 C453 0.952 . S
H455 C451 0.950 . S
H456 C457 0.949 . S
C457 H456 0.949 . S
C457 C458 1.395 . S
C457 C459 1.391 . S
C458 C457 1.395 . S
C458 C461 1.390 . S
C459 C457 1.391 . S
C459 C463 1.387 . S
C459 C464 1.491 . S
H460 C461 0.950 . S
C461 C458 1.390 . S
C461 H460 0.950 . S
C461 C462 1.378 . S
C462 C461 1.378 . S
C462 C463 1.409 . S
C463 C459 1.387 . S
C463 C462 1.409 . S
C463 H465 0.951 . S
C464 C459 1.491 . S
C464 C466 1.382 . S
C464 C468 1.404 . S
H465 C463 0.951 . S
C466 C464 1.382 . S
C466 C467 1.390 . S
C466 H471 0.949 . S
C467 C466 1.390 . S
C467 C472 1.399 . S
C468 C464 1.404 . S
C468 H469 0.950 . S
C468 C470 1.375 . S
H469 C468 0.950 . S
C470 C468 1.375 . S
C470 C472 1.382 . S
C470 H474 0.950 . S
H471 C466 0.949 . S
C472 C467 1.399 . S
C472 C470 1.382 . S
C472 H473 0.952 . S
H473 C472 0.952 . S
H474 C470 0.950 . S
H475 C476 0.949 . S
C476 H475 0.949 . S
C476 C477 1.395 . S
C476 C478 1.391 . S
C477 C476 1.395 . S
C477 C480 1.390 . S
C478 C476 1.391 . S
C478 C482 1.387 . S
C478 C483 1.491 . S
H479 C480 0.950 . S
C480 C477 1.390 . S
C480 H479 0.950 . S
C480 C481 1.378 . S
C481 C480 1.378 . S
C481 C482 1.409 . S
C482 C478 1.387 . S
C482 C481 1.409 . S
C482 H484 0.951 . S
C483 C478 1.491 . S
C483 C485 1.382 . S
C483 C487 1.404 . S
H484 C482 0.951 . S
C485 C483 1.382 . S
C485 C486 1.390 . S
C485 H490 0.949 . S
C486 C485 1.390 . S
C486 C491 1.399 . S
C487 C483 1.404 . S
C487 H488 0.950 . S
C487 C489 1.375 . S
H488 C487 0.950 . S
C489 C487 1.375 . S
C489 C491 1.382 . S
C489 H493 0.950 . S
H490 C485 0.949 . S
C491 C486 1.399 . S
C491 C489 1.382 . S
C491 H492 0.952 . S
H492 C491 0.952 . S
H493 C489 0.950 . S
H494 C495 0.949 . S
C495 H494 0.949 . S
C495 C496 1.395 . S
C495 C497 1.391 . S
C496 C495 1.395 . S
C496 C499 1.390 . S
C497 C495 1.391 . S
C497 C501 1.387 . S
C497 C502 1.491 . S
H498 C499 0.950 . S
C499 C496 1.390 . S
C499 H498 0.950 . S
C499 C500 1.378 . S
C500 C499 1.378 . S
C500 C501 1.409 . S
C501 C497 1.387 . S
C501 C500 1.409 . S
C501 H503 0.951 . S
C502 C497 1.491 . S
C502 C504 1.382 . S
C502 C506 1.404 . S
H503 C501 0.951 . S
C504 C502 1.382 . S
C504 C505 1.390 . S
C504 H509 0.949 . S
C505 C504 1.390 . S
C505 C510 1.399 . S
C506 C502 1.404 . S
C506 H507 0.950 . S
C506 C508 1.375 . S
H507 C506 0.950 . S
C508 C506 1.375 . S
C508 C510 1.382 . S
C508 H512 0.950 . S
H509 C504 0.949 . S
C510 C505 1.399 . S
C510 C508 1.382 . S
C510 H511 0.952 . S
H511 C510 0.952 . S
H512 C508 0.950 . S
H513 C514 0.949 . S
C514 H513 0.949 . S
C514 C515 1.395 . S
C514 C516 1.391 . S
C515 C514 1.395 . S
C515 C518 1.390 . S
C516 C514 1.391 . S
C516 C520 1.387 . S
C516 C521 1.491 . S
H517 C518 0.950 . S
C518 C515 1.390 . S
C518 H517 0.950 . S
C518 C519 1.378 . S
C519 C518 1.378 . S
C519 C520 1.409 . S
C520 C516 1.387 . S
C520 C519 1.409 . S
C520 H522 0.951 . S
C521 C516 1.491 . S
C521 C523 1.382 . S
C521 C525 1.404 . S
H522 C520 0.951 . S
C523 C521 1.382 . S
C523 C524 1.390 . S
C523 H528 0.949 . S
C524 C523 1.390 . S
C524 C529 1.399 . S
C525 C521 1.404 . S
C525 H526 0.950 . S
C525 C527 1.375 . S
H526 C525 0.950 . S
C527 C525 1.375 . S
C527 C529 1.382 . S
C527 H531 0.950 . S
H528 C523 0.949 . S
C529 C524 1.399 . S
C529 C527 1.382 . S
C529 H530 0.952 . S
H530 C529 0.952 . S
H531 C527 0.950 . S
H532 C533 0.949 . S
C533 H532 0.949 . S
C533 C534 1.395 . S
C533 C535 1.391 . S
C534 C533 1.395 . S
C534 C537 1.390 . S
C535 C533 1.391 . S
C535 C539 1.387 . S
C535 C540 1.491 . S
H536 C537 0.950 . S
C537 C534 1.390 . S
C537 H536 0.950 . S
C537 C538 1.378 . S
C538 C537 1.378 . S
C538 C539 1.409 . S
C539 C535 1.387 . S
C539 C538 1.409 . S
C539 H541 0.951 . S
C540 C535 1.491 . S
C540 C542 1.382 . S
C540 C544 1.404 . S
H541 C539 0.951 . S
C542 C540 1.382 . S
C542 C543 1.390 . S
C542 H547 0.949 . S
C543 C542 1.390 . S
C543 C548 1.399 . S
C544 C540 1.404 . S
C544 H545 0.950 . S
C544 C546 1.375 . S
H545 C544 0.950 . S
C546 C544 1.375 . S
C546 C548 1.382 . S
C546 H550 0.950 . S
H547 C542 0.949 . S
C548 C543 1.399 . S
C548 C546 1.382 . S
C548 H549 0.952 . S
H549 C548 0.952 . S
H550 C546 0.950 . S
H551 C552 0.949 . S
C552 H551 0.949 . S
C552 C553 1.395 . S
C552 C554 1.391 . S
C553 C552 1.395 . S
C553 C556 1.390 . S
C554 C552 1.391 . S
C554 C558 1.387 . S
C554 C559 1.491 . S
H555 C556 0.950 . S
C556 C553 1.390 . S
C556 H555 0.950 . S
C556 C557 1.378 . S
C557 C556 1.378 . S
C557 C558 1.409 . S
C558 C554 1.387 . S
C558 C557 1.409 . S
C558 H560 0.951 . S
C559 C554 1.491 . S
C559 C561 1.382 . S
C559 C563 1.404 . S
H560 C558 0.951 . S
C561 C559 1.382 . S
C561 C562 1.390 . S
C561 H566 0.949 . S
C562 C561 1.390 . S
C562 C567 1.399 . S
C563 C559 1.404 . S
C563 H564 0.950 . S
C563 C565 1.375 . S
H564 C563 0.950 . S
C565 C563 1.375 . S
C565 C567 1.382 . S
C565 H569 0.950 . S
H566 C561 0.949 . S
C567 C562 1.399 . S
C567 C565 1.382 . S
C567 H568 0.952 . S
H568 C567 0.952 . S
H569 C565 0.950 . S
H570 C571 0.949 . S
C571 H570 0.949 . S
C571 C572 1.395 . S
C571 C573 1.391 . S
C572 C571 1.395 . S
C572 C575 1.390 . S
C573 C571 1.391 . S
C573 C577 1.387 . S
C573 C578 1.491 . S
H574 C575 0.950 . S
C575 C572 1.390 . S
C575 H574 0.950 . S
C575 C576 1.378 . S
C576 C575 1.378 . S
C576 C577 1.409 . S
C577 C573 1.387 . S
C577 C576 1.409 . S
C577 H579 0.951 . S
C578 C573 1.491 . S
C578 C580 1.382 . S
C578 C582 1.404 . S
H579 C577 0.951 . S
C580 C578 1.382 . S
C580 C581 1.390 . S
C580 H585 0.949 . S
C581 C580 1.390 . S
C581 C586 1.399 . S
C582 C578 1.404 . S
C582 H583 0.950 . S
C582 C584 1.375 . S
H583 C582 0.950 . S
C584 C582 1.375 . S
C584 C586 1.382 . S
C584 H588 0.950 . S
H585 C580 0.949 . S
C586 C581 1.399 . S
C586 C584 1.382 . S
C586 H587 0.952 . S
H587 C586 0.952 . S
H588 C584 0.950 . S
H589 C590 0.949 . S
C590 H589 0.949 . S
C590 C591 1.395 . S
C590 C592 1.391 . S
C591 C590 1.395 . S
C591 C594 1.390 . S
C592 C590 1.391 . S
C592 C596 1.387 . S
C592 C597 1.491 . S
H593 C594 0.950 . S
C594 C591 1.390 . S
C594 H593 0.950 . S
C594 C595 1.378 . S
C595 C594 1.378 . S
C595 C596 1.409 . S
C596 C592 1.387 . S
C596 C595 1.409 . S
C596 H598 0.951 . S
C597 C592 1.491 . S
C597 C599 1.382 . S
C597 C601 1.404 . S
H598 C596 0.951 . S
C599 C597 1.382 . S
C599 C600 1.390 . S
C599 H604 0.949 . S
C600 C599 1.390 . S
C600 C605 1.399 . S
C601 C597 1.404 . S
C601 H602 0.950 . S
C601 C603 1.375 . S
H602 C601 0.950 . S
C603 C601 1.375 . S
C603 C605 1.382 . S
C603 H607 0.950 . S
H604 C599 0.949 . S
C605 C600 1.399 . S
C605 C603 1.382 . S
C605 H606 0.952 . S
H606 C605 0.952 . S
H607 C603 0.950 . S
Cu608 N609 1.999 . S
Cu608 O614 1.974 1_554 S
Cu608 N619 1.985 . S
Cu608 O628 1.959 . S
N609 Cu608 1.999 . S
N609 C611 1.263 1_554 S
N609 C613 1.389 . S
N610 C611 1.358 . S
N610 C612 1.400 . S
C611 N609 1.263 1_556 S
C611 N610 1.358 . S
C611 H617 0.930 . S
C612 N610 1.400 . S
C612 C613 1.351 1_556 S
C612 H629 0.930 . S
C613 N609 1.389 . S
C613 C612 1.351 1_554 S
C613 H618 0.930 . S
O614 Cu608 1.974 1_556 S
O614 C624 1.282 . S
C615 O616 1.261 . S
C615 O628 1.251 . S
O616 C615 1.261 . S
H617 C611 0.930 . S
H618 C613 0.930 . S
N619 Cu608 1.985 . S
N619 C621 1.335 . S
N619 C622 1.390 . S
N620 C621 1.345 . S
N620 C623 1.336 . S
C621 N619 1.335 . S
C621 N620 1.345 . S
C621 H626 0.930 . S
C622 N619 1.390 . S
C622 C623 1.346 . S
C622 H627 0.930 . S
C623 N620 1.336 . S
C623 C622 1.346 . S
C623 H630 0.929 . S
C624 O614 1.282 . S
C624 O625 1.216 . S
O625 C624 1.216 . S
H626 C621 0.930 . S
H627 C622 0.930 . S
O628 Cu608 1.959 . S
O628 C615 1.251 . S
H629 C612 0.930 . S
H630 C623 0.929 . S
Cu631 N632 1.999 . S
Cu631 O637 1.974 . S
Cu631 N642 1.985 . S
Cu631 O651 1.959 1_554 S
N632 Cu631 1.999 . S
N632 C634 1.263 . S
N632 C636 1.389 . S
N633 C634 1.358 . S
N633 C635 1.400 . S
C634 N632 1.263 . S
C634 N633 1.358 . S
C634 H640 0.930 . S
C635 N633 1.400 . S
C635 C636 1.351 . S
C635 H652 0.930 . S
C636 N632 1.389 . S
C636 C635 1.351 . S
C636 H641 0.930 . S
O637 Cu631 1.974 . S
O637 C647 1.282 . S
C638 O639 1.261 1_556 S
C638 O651 1.251 . S
O639 C638 1.261 1_554 S
H640 C634 0.930 . S
H641 C636 0.930 . S
N642 Cu631 1.985 . S
N642 C644 1.335 1_554 S
N642 C645 1.390 . S
N643 C644 1.345 . S
N643 C646 1.336 . S
C644 N642 1.335 1_556 S
C644 N643 1.345 . S
C644 H649 0.930 . S
C645 N642 1.390 . S
C645 C646 1.346 1_554 S
C645 H650 0.930 . S
C646 N643 1.336 . S
C646 C645 1.346 1_556 S
C646 H653 0.929 . S
C647 O637 1.282 . S
C647 O648 1.216 . S
O648 C647 1.216 . S
H649 C644 0.930 . S
H650 C645 0.930 . S
O651 Cu631 1.959 1_556 S
O651 C638 1.251 . S
H652 C635 0.930 . S
H653 C646 0.929 . S
Cu654 N655 1.999 1_554 S
Cu654 O660 1.974 1_554 S
Cu654 N665 1.985 . S
Cu654 O674 1.959 . S
N655 Cu654 1.999 1_556 S
N655 C657 1.263 . S
N655 C659 1.389 . S
N656 C657 1.358 . S
N656 C658 1.400 . S
C657 N655 1.263 . S
C657 N656 1.358 . S
C657 H663 0.930 . S
C658 N656 1.400 . S
C658 C659 1.351 . S
C658 H675 0.930 . S
C659 N655 1.389 . S
C659 C658 1.351 . S
C659 H664 0.930 1_556 S
O660 Cu654 1.974 1_556 S
O660 C670 1.282 . S
C661 O662 1.261 . S
C661 O674 1.251 . S
O662 C661 1.261 . S
H663 C657 0.930 . S
H664 C659 0.930 1_554 S
N665 Cu654 1.985 . S
N665 C667 1.335 . S
N665 C668 1.390 . S
N666 C667 1.345 . S
N666 C669 1.336 . S
C667 N665 1.335 . S
C667 N666 1.345 . S
C667 H672 0.930 . S
C668 N665 1.390 . S
C668 C669 1.346 . S
C668 H673 0.930 . S
C669 N666 1.336 . S
C669 C668 1.346 . S
C669 H676 0.929 . S
C670 O660 1.282 . S
C670 O671 1.216 . S
O671 C670 1.216 . S
H672 C667 0.930 . S
H673 C668 0.930 . S
O674 Cu654 1.959 . S
O674 C661 1.251 . S
H675 C658 0.930 . S
H676 C669 0.929 . S
Cu677 N678 1.999 . S
Cu677 O683 1.974 . S
Cu677 N688 1.985 1_554 S
Cu677 O697 1.959 1_554 S
N678 Cu677 1.999 . S
N678 C680 1.263 . S
N678 C682 1.389 . S
N679 C680 1.358 . S
N679 C681 1.400 . S
C680 N678 1.263 . S
C680 N679 1.358 . S
C680 H686 0.930 . S
C681 N679 1.400 . S
C681 C682 1.351 . S
C681 H698 0.930 . S
C682 N678 1.389 . S
C682 C681 1.351 . S
C682 H687 0.930 . S
O683 Cu677 1.974 . S
O683 C693 1.282 . S
C684 O685 1.261 . S
C684 O697 1.251 . S
O685 C684 1.261 . S
H686 C680 0.930 . S
H687 C682 0.930 . S
N688 Cu677 1.985 1_556 S
N688 C690 1.335 . S
N688 C691 1.390 . S
N689 C690 1.345 . S
N689 C692 1.336 . S
C690 N688 1.335 . S
C690 N689 1.345 . S
C690 H695 0.930 . S
C691 N688 1.390 . S
C691 C692 1.346 . S
C691 H696 0.930 1_556 S
C692 N689 1.336 . S
C692 C691 1.346 . S
C692 H699 0.929 . S
C693 O683 1.282 . S
C693 O694 1.216 . S
O694 C693 1.216 . S
H695 C690 0.930 . S
H696 C691 0.930 1_554 S
O697 Cu677 1.959 1_556 S
O697 C684 1.251 . S
H698 C681 0.930 . S
H699 C692 0.929 . S
Cu700 N701 1.999 . S
Cu700 O706 1.974 . S
Cu700 N711 1.985 . S
Cu700 O720 1.959 1_455 S
N701 Cu700 1.999 . S
N701 C703 1.263 . S
N701 C705 1.389 . S
N702 C703 1.358 . S
N702 C704 1.400 . S
C703 N701 1.263 . S
C703 N702 1.358 . S
C703 H709 0.930 . S
C704 N702 1.400 . S
C704 C705 1.351 . S
C704 H721 0.930 . S
C705 N701 1.389 . S
C705 C704 1.351 . S
C705 H710 0.930 . S
O706 Cu700 1.974 . S
O706 C716 1.282 . S
C707 O708 1.261 . S
C707 O720 1.251 . S
O708 C707 1.261 . S
H709 C703 0.930 . S
H710 C705 0.930 . S
N711 Cu700 1.985 . S
N711 C713 1.335 1_455 S
N711 C714 1.390 . S
N712 C713 1.345 . S
N712 C715 1.336 . S
C713 N711 1.335 1_655 S
C713 N712 1.345 . S
C713 H718 0.930 . S
C714 N711 1.390 . S
C714 C715 1.346 1_455 S
C714 H719 0.930 . S
C715 N712 1.336 . S
C715 C714 1.346 1_655 S
C715 H722 0.929 . S
C716 O706 1.282 . S
C716 O717 1.216 . S
O717 C716 1.216 . S
H718 C713 0.930 . S
H719 C714 0.930 . S
O720 Cu700 1.959 1_655 S
O720 C707 1.251 . S
H721 C704 0.930 . S
H722 C715 0.929 . S
Cu723 N724 1.999 . S
Cu723 O729 1.974 . S
Cu723 N734 1.985 1_545 S
Cu723 O743 1.959 1_545 S
N724 Cu723 1.999 . S
N724 C726 1.263 . S
N724 C728 1.389 . S
N725 C726 1.358 . S
N725 C727 1.400 . S
C726 N724 1.263 . S
C726 N725 1.358 . S
C726 H732 0.930 . S
C727 N725 1.400 . S
C727 C728 1.351 . S
C727 H744 0.930 . S
C728 N724 1.389 . S
C728 C727 1.351 . S
C728 H733 0.930 . S
O729 Cu723 1.974 . S
O729 C739 1.282 . S
C730 O731 1.261 . S
C730 O743 1.251 . S
O731 C730 1.261 . S
H732 C726 0.930 . S
H733 C728 0.930 . S
N734 Cu723 1.985 1_565 S
N734 C736 1.335 . S
N734 C737 1.390 . S
N735 C736 1.345 . S
N735 C738 1.336 . S
C736 N734 1.335 . S
C736 N735 1.345 . S
C736 H741 0.930 . S
C737 N734 1.390 . S
C737 C738 1.346 . S
C737 H742 0.930 . S
C738 N735 1.336 . S
C738 C737 1.346 . S
C738 H745 0.929 . S
C739 O729 1.282 . S
C739 O740 1.216 . S
O740 C739 1.216 . S
H741 C736 0.930 . S
H742 C737 0.930 . S
O743 Cu723 1.959 1_565 S
O743 C730 1.251 . S
H744 C727 0.930 . S
H745 C738 0.929 . S
Cu746 N747 1.999 . S
Cu746 O752 1.974 . S
Cu746 N757 1.985 1_655 S
Cu746 O766 1.959 1_655 S
N747 Cu746 1.999 . S
N747 C749 1.263 . S
N747 C751 1.389 . S
N748 C749 1.358 . S
N748 C750 1.400 . S
C749 N747 1.263 . S
C749 N748 1.358 . S
C749 H755 0.930 . S
C750 N748 1.400 . S
C750 C751 1.351 . S
C750 H767 0.930 . S
C751 N747 1.389 . S
C751 C750 1.351 . S
C751 H756 0.930 . S
O752 Cu746 1.974 . S
O752 C762 1.282 . S
C753 O754 1.261 . S
C753 O766 1.251 . S
O754 C753 1.261 . S
H755 C749 0.930 . S
H756 C751 0.930 . S
N757 Cu746 1.985 1_455 S
N757 C759 1.335 . S
N757 C760 1.390 . S
N758 C759 1.345 . S
N758 C761 1.336 . S
C759 N757 1.335 . S
C759 N758 1.345 . S
C759 H764 0.930 . S
C760 N757 1.390 . S
C760 C761 1.346 . S
C760 H765 0.930 1_455 S
C761 N758 1.336 . S
C761 C760 1.346 . S
C761 H768 0.929 . S
C762 O752 1.282 . S
C762 O763 1.216 . S
O763 C762 1.216 . S
H764 C759 0.930 . S
H765 C760 0.930 1_655 S
O766 Cu746 1.959 1_455 S
O766 C753 1.251 . S
H767 C750 0.930 . S
H768 C761 0.929 . S
Cu769 N770 1.999 . S
Cu769 O775 1.974 . S
Cu769 N780 1.985 1_545 S
Cu769 O789 1.959 1_545 S
N770 Cu769 1.999 . S
N770 C772 1.263 . S
N770 C774 1.389 . S
N771 C772 1.358 . S
N771 C773 1.400 . S
C772 N770 1.263 . S
C772 N771 1.358 . S
C772 H778 0.930 . S
C773 N771 1.400 . S
C773 C774 1.351 . S
C773 H790 0.930 . S
C774 N770 1.389 . S
C774 C773 1.351 . S
C774 H779 0.930 . S
O775 Cu769 1.974 . S
O775 C785 1.282 . S
C776 O777 1.261 . S
C776 O789 1.251 . S
O777 C776 1.261 . S
H778 C772 0.930 . S
H779 C774 0.930 . S
N780 Cu769 1.985 1_565 S
N780 C782 1.335 . S
N780 C783 1.390 . S
N781 C782 1.345 . S
N781 C784 1.336 . S
C782 N780 1.335 . S
C782 N781 1.345 . S
C782 H787 0.930 . S
C783 N780 1.390 . S
C783 C784 1.346 . S
C783 H788 0.930 . S
C784 N781 1.336 . S
C784 C783 1.346 . S
C784 H791 0.929 . S
C785 O775 1.282 . S
C785 O786 1.216 . S
O786 C785 1.216 . S
H787 C782 0.930 . S
H788 C783 0.930 . S
O789 Cu769 1.959 1_565 S
O789 C776 1.251 . S
H790 C773 0.930 . S
H791 C784 0.929 . S
Cu792 N793 1.999 . S
Cu792 O798 1.974 . S
Cu792 N803 1.985 . S
Cu792 O812 1.959 1_455 S
N793 Cu792 1.999 . S
N793 C795 1.263 . S
N793 C797 1.389 . S
N794 C795 1.358 . S
N794 C796 1.400 . S
C795 N793 1.263 . S
C795 N794 1.358 . S
C795 H801 0.930 . S
C796 N794 1.400 . S
C796 C797 1.351 . S
C796 H813 0.930 . S
C797 N793 1.389 . S
C797 C796 1.351 . S
C797 H802 0.930 . S
O798 Cu792 1.974 . S
O798 C808 1.282 . S
C799 O800 1.261 . S
C799 O812 1.251 . S
O800 C799 1.261 . S
H801 C795 0.930 . S
H802 C797 0.930 . S
N803 Cu792 1.985 . S
N803 C805 1.335 1_455 S
N803 C806 1.390 . S
N804 C805 1.345 . S
N804 C807 1.336 1_655 S
C805 N803 1.335 1_655 S
C805 N804 1.345 . S
C805 H810 0.930 . S
C806 N803 1.390 . S
C806 C807 1.346 . S
C806 H811 0.930 . S
C807 N804 1.336 1_455 S
C807 C806 1.346 . S
C807 H814 0.929 . S
C808 O798 1.282 . S
C808 O809 1.216 . S
O809 C808 1.216 . S
H810 C805 0.930 . S
H811 C806 0.930 . S
O812 Cu792 1.959 1_655 S
O812 C799 1.251 . S
H813 C796 0.930 . S
H814 C807 0.929 . S
Cu815 N816 1.999 . S
Cu815 O821 1.974 . S
Cu815 N826 1.985 1_545 S
Cu815 O835 1.959 1_545 S
N816 Cu815 1.999 . S
N816 C818 1.263 . S
N816 C820 1.389 . S
N817 C818 1.358 . S
N817 C819 1.400 . S
C818 N816 1.263 . S
C818 N817 1.358 . S
C818 H824 0.930 . S
C819 N817 1.400 . S
C819 C820 1.351 . S
C819 H836 0.930 . S
C820 N816 1.389 . S
C820 C819 1.351 . S
C820 H825 0.930 . S
O821 Cu815 1.974 . S
O821 C831 1.282 . S
C822 O823 1.261 1_565 S
C822 O835 1.251 . S
O823 C822 1.261 1_545 S
H824 C818 0.930 . S
H825 C820 0.930 . S
N826 Cu815 1.985 1_565 S
N826 C828 1.335 . S
N826 C829 1.390 . S
N827 C828 1.345 . S
N827 C830 1.336 . S
C828 N826 1.335 . S
C828 N827 1.345 . S
C828 H833 0.930 . S
C829 N826 1.390 . S
C829 C830 1.346 . S
C829 H834 0.930 1_565 S
C830 N827 1.336 . S
C830 C829 1.346 . S
C830 H837 0.929 . S
C831 O821 1.282 . S
C831 O832 1.216 . S
O832 C831 1.216 . S
H833 C828 0.930 . S
H834 C829 0.930 1_545 S
O835 Cu815 1.959 1_565 S
O835 C822 1.251 . S
H836 C819 0.930 . S
H837 C830 0.929 . S
Cu838 N839 1.999 . S
Cu838 O844 1.974 . S
Cu838 N849 1.985 . S
Cu838 O858 1.959 . S
N839 Cu838 1.999 . S
N839 C841 1.256 1_455 S
N839 C843 1.389 . S
N840 C841 1.362 . S
N840 C842 1.400 1_655 S
C841 N839 1.256 1_655 S
C841 N840 1.362 . S
C841 H847 0.933 . S
C842 N840 1.400 1_455 S
C842 C843 1.351 . S
C842 H859 0.926 1_455 S
C843 N839 1.389 . S
C843 C842 1.351 . S
C843 H848 0.930 . S
O844 Cu838 1.974 . S
O844 C854 1.273 1_455 S
C845 O846 1.261 . S
C845 O858 1.251 . S
O846 C845 1.261 . S
H847 C841 0.933 . S
H848 C843 0.930 . S
N849 Cu838 1.985 . S
N849 C851 1.335 . S
N849 C852 1.390 . S
N850 C851 1.345 . S
N850 C853 1.336 . S
C851 N849 1.335 . S
C851 N850 1.345 . S
C851 H856 0.930 . S
C852 N849 1.390 . S
C852 C853 1.346 . S
C852 H857 0.930 . S
C853 N850 1.336 . S
C853 C852 1.346 . S
C853 H860 0.929 . S
C854 O844 1.273 1_655 S
C854 O855 1.207 1_655 S
O855 C854 1.207 1_455 S
H856 C851 0.930 . S
H857 C852 0.930 . S
O858 Cu838 1.959 . S
O858 C845 1.251 . S
H859 C842 0.926 1_655 S
H860 C853 0.929 . S
Cu861 N862 1.999 . S
Cu861 O867 1.974 . S
Cu861 N872 1.985 . S
Cu861 O881 1.959 . S
N862 Cu861 1.999 . S
N862 C864 1.263 . S
N862 C866 1.389 . S
N863 C864 1.358 . S
N863 C865 1.400 . S
C864 N862 1.263 . S
C864 N863 1.358 . S
C864 H870 0.930 . S
C865 N863 1.400 . S
C865 C866 1.351 . S
C865 H882 0.930 . S
C866 N862 1.389 . S
C866 C865 1.351 . S
C866 H871 0.930 . S
O867 Cu861 1.974 . S
O867 C877 1.282 . S
C868 O869 1.261 . S
C868 O881 1.251 . S
O869 C868 1.261 . S
H870 C864 0.930 . S
H871 C866 0.930 . S
N872 Cu861 1.985 . S
N872 C874 1.335 1_545 S
N872 C875 1.394 1_545 S
N873 C874 1.345 . S
N873 C876 1.336 . S
C874 N872 1.335 1_565 S
C874 N873 1.345 . S
C874 H879 0.930 . S
C875 N872 1.394 1_565 S
C875 C876 1.361 . S
C875 H880 0.914 1_565 S
C876 N873 1.336 . S
C876 C875 1.361 . S
C876 H883 0.929 . S
C877 O867 1.282 . S
C877 O878 1.216 . S
O878 C877 1.216 . S
H879 C874 0.930 . S
H880 C875 0.914 1_545 S
O881 Cu861 1.959 . S
O881 C868 1.251 . S
H882 C865 0.930 . S
H883 C876 0.929 . S
Cu884 N885 1.999 . S
Cu884 O890 1.974 . S
Cu884 N895 1.985 . S
Cu884 O904 1.959 . S
N885 Cu884 1.999 . S
N885 C887 1.263 . S
N885 C889 1.389 . S
N886 C887 1.358 . S
N886 C888 1.400 . S
C887 N885 1.263 . S
C887 N886 1.358 . S
C887 H893 0.930 . S
C888 N886 1.400 . S
C888 C889 1.351 . S
C888 H905 0.930 . S
C889 N885 1.389 . S
C889 C888 1.351 . S
C889 H894 0.930 . S
O890 Cu884 1.974 . S
O890 C900 1.282 . S
C891 O892 1.261 . S
C891 O904 1.251 . S
O892 C891 1.261 . S
H893 C887 0.930 . S
H894 C889 0.930 . S
N895 Cu884 1.985 . S
N895 C897 1.335 . S
N895 C898 1.390 . S
N896 C897 1.345 . S
N896 C899 1.336 . S
C897 N895 1.335 . S
C897 N896 1.345 . S
C897 H902 0.930 . S
C898 N895 1.390 . S
C898 C899 1.346 . S
C898 H903 0.930 . S
C899 N896 1.336 . S
C899 C898 1.346 . S
C899 H906 0.929 . S
C900 O890 1.282 . S
C900 O901 1.216 . S
O901 C900 1.216 . S
H902 C897 0.930 . S
H903 C898 0.930 . S
O904 Cu884 1.959 . S
O904 C891 1.251 . S
H905 C888 0.930 . S
H906 C899 0.929 . S
Cu907 N908 1.999 . S
Cu907 O913 1.974 . S
Cu907 N918 1.985 . S
Cu907 O927 1.959 . S
N908 Cu907 1.999 . S
N908 C910 1.263 . S
N908 C912 1.389 . S
N909 C910 1.358 . S
N909 C911 1.400 . S
C910 N908 1.263 . S
C910 N909 1.358 . S
C910 H916 0.930 . S
C911 N909 1.400 . S
C911 C912 1.351 . S
C911 H928 0.930 . S
C912 N908 1.389 . S
C912 C911 1.351 . S
C912 H917 0.930 . S
O913 Cu907 1.974 . S
O913 C923 1.282 . S
C914 O915 1.261 . S
C914 O927 1.251 . S
O915 C914 1.261 . S
H916 C910 0.930 . S
H917 C912 0.930 . S
N918 Cu907 1.985 . S
N918 C920 1.335 . S
N918 C921 1.390 . S
N919 C920 1.345 . S
N919 C922 1.336 . S
C920 N918 1.335 . S
C920 N919 1.345 . S
C920 H925 0.930 . S
C921 N918 1.390 . S
C921 C922 1.346 . S
C921 H926 0.930 . S
C922 N919 1.336 . S
C922 C921 1.346 . S
C922 H929 0.929 . S
C923 O913 1.282 . S
C923 O924 1.216 . S
O924 C923 1.216 . S
H925 C920 0.930 . S
H926 C921 0.930 . S
O927 Cu907 1.959 . S
O927 C914 1.251 . S
H928 C911 0.930 . S
H929 C922 0.929 . S
Cu930 N931 1.999 . S
Cu930 O936 1.974 . S
Cu930 N941 1.985 . S
Cu930 O950 1.959 . S
N931 Cu930 1.999 . S
N931 C933 1.263 . S
N931 C935 1.389 . S
N932 C933 1.358 . S
N932 C934 1.400 . S
C933 N931 1.263 . S
C933 N932 1.358 . S
C933 H939 0.930 . S
C934 N932 1.400 . S
C934 C935 1.351 . S
C934 H951 0.930 . S
C935 N931 1.389 . S
C935 C934 1.351 . S
C935 H940 0.930 . S
O936 Cu930 1.974 . S
O936 C946 1.282 . S
C937 O938 1.261 . S
C937 O950 1.251 . S
O938 C937 1.261 . S
H939 C933 0.930 . S
H940 C935 0.930 . S
N941 Cu930 1.985 . S
N941 C943 1.335 . S
N941 C944 1.390 . S
N942 C943 1.345 . S
N942 C945 1.336 . S
C943 N941 1.335 . S
C943 N942 1.345 . S
C943 H948 0.930 . S
C944 N941 1.390 . S
C944 C945 1.346 . S
C944 H949 0.930 . S
C945 N942 1.336 . S
C945 C944 1.346 . S
C945 H952 0.929 . S
C946 O936 1.282 . S
C946 O947 1.216 . S
O947 C946 1.216 . S
H948 C943 0.930 . S
H949 C944 0.930 . S
O950 Cu930 1.959 . S
O950 C937 1.251 . S
H951 C934 0.930 . S
H952 C945 0.929 . S
Cu953 N954 1.999 . S
Cu953 O959 1.974 . S
Cu953 N964 1.985 . S
Cu953 O973 1.959 . S
N954 Cu953 1.999 . S
N954 C956 1.263 . S
N954 C958 1.389 . S
N955 C956 1.358 . S
N955 C957 1.400 . S
C956 N954 1.263 . S
C956 N955 1.358 . S
C956 H962 0.930 . S
C957 N955 1.400 . S
C957 C958 1.351 . S
C957 H974 0.930 . S
C958 N954 1.389 . S
C958 C957 1.351 . S
C958 H963 0.930 . S
O959 Cu953 1.974 . S
O959 C969 1.282 . S
C960 O961 1.261 . S
C960 O973 1.251 . S
O961 C960 1.261 . S
H962 C956 0.930 . S
H963 C958 0.930 . S
N964 Cu953 1.985 . S
N964 C966 1.335 . S
N964 C967 1.390 . S
N965 C966 1.345 . S
N965 C968 1.336 . S
C966 N964 1.335 . S
C966 N965 1.345 . S
C966 H971 0.930 . S
C967 N964 1.390 . S
C967 C968 1.346 . S
C967 H972 0.930 . S
C968 N965 1.336 . S
C968 C967 1.346 . S
C968 H975 0.929 . S
C969 O959 1.282 . S
C969 O970 1.216 . S
O970 C969 1.216 . S
H971 C966 0.930 . S
H972 C967 0.930 . S
O973 Cu953 1.959 . S
O973 C960 1.251 . S
H974 C957 0.930 . S
H975 C968 0.929 . S
Cu976 N977 1.999 . S
Cu976 O982 1.974 . S
Cu976 N987 1.985 . S
Cu976 O996 1.959 . S
N977 Cu976 1.999 . S
N977 C979 1.263 . S
N977 C981 1.389 . S
N978 C979 1.358 . S
N978 C980 1.400 . S
C979 N977 1.263 . S
C979 N978 1.358 . S
C979 H985 0.930 . S
C980 N978 1.400 . S
C980 C981 1.351 . S
C980 H997 0.930 . S
C981 N977 1.389 . S
C981 C980 1.351 . S
C981 H986 0.930 . S
O982 Cu976 1.974 . S
O982 C992 1.282 . S
C983 O984 1.261 . S
C983 O996 1.251 . S
O984 C983 1.261 . S
H985 C979 0.930 . S
H986 C981 0.930 . S
N987 Cu976 1.985 . S
N987 C989 1.335 . S
N987 C990 1.390 . S
N988 C989 1.345 . S
N988 C991 1.336 . S
C989 N987 1.335 . S
C989 N988 1.345 . S
C989 H994 0.930 . S
C990 N987 1.390 . S
C990 C991 1.346 . S
C990 H995 0.930 . S
C991 N988 1.336 . S
C991 C990 1.346 . S
C991 H998 0.929 . S
C992 O982 1.282 . S
C992 O993 1.216 . S
O993 C992 1.216 . S
H994 C989 0.930 . S
H995 C990 0.930 . S
O996 Cu976 1.959 . S
O996 C983 1.251 . S
H997 C980 0.930 . S
H998 C991 0.929 . S
Cu999 N1000 1.999 . S
Cu999 O1005 1.974 . S
Cu999 N1010 1.985 . S
Cu999 O1019 1.959 . S
N1000 Cu999 1.999 . S
N1000 C1002 1.263 . S
N1000 C1004 1.389 . S
N1001 C1002 1.358 . S
N1001 C1003 1.400 . S
C1002 N1000 1.263 . S
C1002 N1001 1.358 . S
C1002 H1008 0.930 . S
C1003 N1001 1.400 . S
C1003 C1004 1.351 . S
C1003 H1020 0.930 . S
C1004 N1000 1.389 . S
C1004 C1003 1.351 . S
C1004 H1009 0.930 . S
O1005 Cu999 1.974 . S
O1005 C1015 1.282 . S
C1006 O1007 1.261 . S
C1006 O1019 1.251 . S
O1007 C1006 1.261 . S
H1008 C1002 0.930 . S
H1009 C1004 0.930 . S
N1010 Cu999 1.985 . S
N1010 C1012 1.335 . S
N1010 C1013 1.390 . S
N1011 C1012 1.345 . S
N1011 C1014 1.336 . S
C1012 N1010 1.335 . S
C1012 N1011 1.345 . S
C1012 H1017 0.930 . S
C1013 N1010 1.390 . S
C1013 C1014 1.346 . S
C1013 H1018 0.930 . S
C1014 N1011 1.336 . S
C1014 C1013 1.346 . S
C1014 H1021 0.929 . S
C1015 O1005 1.282 . S
C1015 O1016 1.216 . S
O1016 C1015 1.216 . S
H1017 C1012 0.930 . S
H1018 C1013 0.930 . S
O1019 Cu999 1.959 . S
O1019 C1006 1.251 . S
H1020 C1003 0.930 . S
H1021 C1014 0.929 . S
Cu1022 N1023 1.999 . S
Cu1022 O1028 1.974 . S
Cu1022 N1033 1.985 . S
Cu1022 O1042 1.959 . S
N1023 Cu1022 1.999 . S
N1023 C1025 1.263 . S
N1023 C1027 1.389 . S
N1024 C1025 1.358 . S
N1024 C1026 1.400 . S
C1025 N1023 1.263 . S
C1025 N1024 1.358 . S
C1025 H1031 0.930 . S
C1026 N1024 1.400 . S
C1026 C1027 1.351 . S
C1026 H1043 0.930 . S
C1027 N1023 1.389 . S
C1027 C1026 1.351 . S
C1027 H1032 0.930 . S
O1028 Cu1022 1.974 . S
O1028 C1038 1.282 . S
C1029 O1030 1.261 . S
C1029 O1042 1.251 . S
O1030 C1029 1.261 . S
H1031 C1025 0.930 . S
H1032 C1027 0.930 . S
N1033 Cu1022 1.985 . S
N1033 C1035 1.335 . S
N1033 C1036 1.390 . S
N1034 C1035 1.345 . S
N1034 C1037 1.336 . S
C1035 N1033 1.335 . S
C1035 N1034 1.345 . S
C1035 H1040 0.930 . S
C1036 N1033 1.390 . S
C1036 C1037 1.346 . S
C1036 H1041 0.930 . S
C1037 N1034 1.336 . S
C1037 C1036 1.346 . S
C1037 H1044 0.929 . S
C1038 O1028 1.282 . S
C1038 O1039 1.216 . S
O1039 C1038 1.216 . S
H1040 C1035 0.930 . S
H1041 C1036 0.930 . S
O1042 Cu1022 1.959 . S
O1042 C1029 1.251 . S
H1043 C1026 0.930 . S
H1044 C1037 0.929 . S
Cu1045 N1046 1.999 . S
Cu1045 O1051 1.974 . S
Cu1045 N1056 1.985 . S
Cu1045 O1065 1.959 . S
N1046 Cu1045 1.999 . S
N1046 C1048 1.263 . S
N1046 C1050 1.389 . S
N1047 C1048 1.358 . S
N1047 C1049 1.400 . S
C1048 N1046 1.263 . S
C1048 N1047 1.358 . S
C1048 H1054 0.930 . S
C1049 N1047 1.400 . S
C1049 C1050 1.351 . S
C1049 H1066 0.930 . S
C1050 N1046 1.389 . S
C1050 C1049 1.351 . S
C1050 H1055 0.930 . S
O1051 Cu1045 1.974 . S
O1051 C1061 1.282 . S
C1052 O1053 1.261 . S
C1052 O1065 1.251 . S
O1053 C1052 1.261 . S
H1054 C1048 0.930 . S
H1055 C1050 0.930 . S
N1056 Cu1045 1.985 . S
N1056 C1058 1.335 . S
N1056 C1059 1.390 . S
N1057 C1058 1.345 . S
N1057 C1060 1.336 . S
C1058 N1056 1.335 . S
C1058 N1057 1.345 . S
C1058 H1063 0.930 . S
C1059 N1056 1.390 . S
C1059 C1060 1.346 . S
C1059 H1064 0.930 . S
C1060 N1057 1.336 . S
C1060 C1059 1.346 . S
C1060 H1067 0.929 . S
C1061 O1051 1.282 . S
C1061 O1062 1.216 . S
O1062 C1061 1.216 . S
H1063 C1058 0.930 . S
H1064 C1059 0.930 . S
O1065 Cu1045 1.959 . S
O1065 C1052 1.251 . S
H1066 C1049 0.930 . S
H1067 C1060 0.929 . S
Cu1068 N1069 1.999 . S
Cu1068 O1074 1.974 . S
Cu1068 N1079 1.985 . S
Cu1068 O1088 1.959 . S
N1069 Cu1068 1.999 . S
N1069 C1071 1.263 . S
N1069 C1073 1.389 . S
N1070 C1071 1.358 . S
N1070 C1072 1.400 . S
C1071 N1069 1.263 . S
C1071 N1070 1.358 . S
C1071 H1077 0.930 . S
C1072 N1070 1.400 . S
C1072 C1073 1.351 . S
C1072 H1089 0.930 . S
C1073 N1069 1.389 . S
C1073 C1072 1.351 . S
C1073 H1078 0.930 . S
O1074 Cu1068 1.974 . S
O1074 C1084 1.282 . S
C1075 O1076 1.261 . S
C1075 O1088 1.251 . S
O1076 C1075 1.261 . S
H1077 C1071 0.930 . S
H1078 C1073 0.930 . S
N1079 Cu1068 1.985 . S
N1079 C1081 1.335 . S
N1079 C1082 1.390 . S
N1080 C1081 1.345 . S
N1080 C1083 1.336 . S
C1081 N1079 1.335 . S
C1081 N1080 1.345 . S
C1081 H1086 0.930 . S
C1082 N1079 1.390 . S
C1082 C1083 1.346 . S
C1082 H1087 0.930 . S
C1083 N1080 1.336 . S
C1083 C1082 1.346 . S
C1083 H1090 0.929 . S
C1084 O1074 1.282 . S
C1084 O1085 1.216 . S
O1085 C1084 1.216 . S
H1086 C1081 0.930 . S
H1087 C1082 0.930 . S
O1088 Cu1068 1.959 . S
O1088 C1075 1.251 . S
H1089 C1072 0.930 . S
H1090 C1083 0.929 . S
Cu1091 N1092 1.999 . S
Cu1091 O1097 1.974 . S
Cu1091 N1102 1.985 . S
Cu1091 O1111 1.959 . S
N1092 Cu1091 1.999 . S
N1092 C1094 1.263 . S
N1092 C1096 1.389 . S
N1093 C1094 1.358 . S
N1093 C1095 1.400 . S
C1094 N1092 1.263 . S
C1094 N1093 1.358 . S
C1094 H1100 0.930 . S
C1095 N1093 1.400 . S
C1095 C1096 1.351 . S
C1095 H1112 0.930 . S
C1096 N1092 1.389 . S
C1096 C1095 1.351 . S
C1096 H1101 0.930 . S
O1097 Cu1091 1.974 . S
O1097 C1107 1.282 . S
C1098 O1099 1.261 . S
C1098 O1111 1.251 . S
O1099 C1098 1.261 . S
H1100 C1094 0.930 . S
H1101 C1096 0.930 . S
N1102 Cu1091 1.985 . S
N1102 C1104 1.335 . S
N1102 C1105 1.390 . S
N1103 C1104 1.345 . S
N1103 C1106 1.336 . S
C1104 N1102 1.335 . S
C1104 N1103 1.345 . S
C1104 H1109 0.930 . S
C1105 N1102 1.390 . S
C1105 C1106 1.346 . S
C1105 H1110 0.930 . S
C1106 N1103 1.336 . S
C1106 C1105 1.346 . S
C1106 H1113 0.929 . S
C1107 O1097 1.282 . S
C1107 O1108 1.216 . S
O1108 C1107 1.216 . S
H1109 C1104 0.930 . S
H1110 C1105 0.930 . S
O1111 Cu1091 1.959 . S
O1111 C1098 1.251 . S
H1112 C1095 0.930 . S
H1113 C1106 0.929 . S
Cu1114 N1115 1.999 . S
Cu1114 O1120 1.974 . S
Cu1114 N1125 1.985 . S
Cu1114 O1134 1.959 . S
N1115 Cu1114 1.999 . S
N1115 C1117 1.263 . S
N1115 C1119 1.389 . S
N1116 C1117 1.358 . S
N1116 C1118 1.400 . S
C1117 N1115 1.263 . S
C1117 N1116 1.358 . S
C1117 H1123 0.930 . S
C1118 N1116 1.400 . S
C1118 C1119 1.351 . S
C1118 H1135 0.930 . S
C1119 N1115 1.389 . S
C1119 C1118 1.351 . S
C1119 H1124 0.930 . S
O1120 Cu1114 1.974 . S
O1120 C1130 1.282 . S
C1121 O1122 1.261 . S
C1121 O1134 1.251 . S
O1122 C1121 1.261 . S
H1123 C1117 0.930 . S
H1124 C1119 0.930 . S
N1125 Cu1114 1.985 . S
N1125 C1127 1.335 . S
N1125 C1128 1.390 . S
N1126 C1127 1.345 . S
N1126 C1129 1.336 . S
C1127 N1125 1.335 . S
C1127 N1126 1.345 . S
C1127 H1132 0.930 . S
C1128 N1125 1.390 . S
C1128 C1129 1.346 . S
C1128 H1133 0.930 . S
C1129 N1126 1.336 . S
C1129 C1128 1.346 . S
C1129 H1136 0.929 . S
C1130 O1120 1.282 . S
C1130 O1131 1.216 . S
O1131 C1130 1.216 . S
H1132 C1127 0.930 . S
H1133 C1128 0.930 . S
O1134 Cu1114 1.959 . S
O1134 C1121 1.251 . S
H1135 C1118 0.930 . S
H1136 C1129 0.929 . S
Cu1137 N1138 1.999 . S
Cu1137 O1143 1.974 . S
Cu1137 N1148 1.985 . S
Cu1137 O1157 1.959 . S
N1138 Cu1137 1.999 . S
N1138 C1140 1.263 . S
N1138 C1142 1.389 . S
N1139 C1140 1.358 . S
N1139 C1141 1.400 . S
C1140 N1138 1.263 . S
C1140 N1139 1.358 . S
C1140 H1146 0.930 . S
C1141 N1139 1.400 . S
C1141 C1142 1.351 . S
C1141 H1158 0.930 . S
C1142 N1138 1.389 . S
C1142 C1141 1.351 . S
C1142 H1147 0.930 . S
O1143 Cu1137 1.974 . S
O1143 C1153 1.282 . S
C1144 O1145 1.261 . S
C1144 O1157 1.251 . S
O1145 C1144 1.261 . S
H1146 C1140 0.930 . S
H1147 C1142 0.930 . S
N1148 Cu1137 1.985 . S
N1148 C1150 1.335 . S
N1148 C1151 1.390 . S
N1149 C1150 1.345 . S
N1149 C1152 1.336 . S
C1150 N1148 1.335 . S
C1150 N1149 1.345 . S
C1150 H1155 0.930 . S
C1151 N1148 1.390 . S
C1151 C1152 1.346 . S
C1151 H1156 0.930 . S
C1152 N1149 1.336 . S
C1152 C1151 1.346 . S
C1152 H1159 0.929 . S
C1153 O1143 1.282 . S
C1153 O1154 1.216 . S
O1154 C1153 1.216 . S
H1155 C1150 0.930 . S
H1156 C1151 0.930 . S
O1157 Cu1137 1.959 . S
O1157 C1144 1.251 . S
H1158 C1141 0.930 . S
H1159 C1152 0.929 . S
C1160 C1161 1.387 . S
C1160 H1164 0.950 . S
C1160 C1169 1.390 . S
C1161 C1160 1.387 . S
C1161 C1163 1.387 . S
H1162 C1169 0.950 . S
C1163 C1161 1.387 . S
C1163 C1165 1.390 . S
C1163 H1167 0.950 . S
H1164 C1160 0.950 . S
C1165 C1163 1.390 . S
C1165 C1166 1.387 . S
C1165 H1168 0.950 . S
C1166 C1165 1.387 . S
C1166 C1169 1.387 . S
H1167 C1163 0.950 . S
H1168 C1165 0.950 . S
C1169 C1160 1.390 . S
C1169 H1162 0.950 . S
C1169 C1166 1.387 . S
C1170 C1171 1.387 . S
C1170 H1174 0.950 . S
C1170 C1179 1.390 . S
C1171 C1170 1.387 . S
C1171 C1173 1.387 . S
H1172 C1179 0.950 . S
C1173 C1171 1.387 . S
C1173 C1175 1.390 . S
C1173 H1177 0.950 . S
H1174 C1170 0.950 . S
C1175 C1173 1.390 . S
C1175 C1176 1.387 . S
C1175 H1178 0.950 . S
C1176 C1175 1.387 . S
C1176 C1179 1.387 . S
H1177 C1173 0.950 . S
H1178 C1175 0.950 . S
C1179 C1170 1.390 . S
C1179 H1172 0.950 . S
C1179 C1176 1.387 . S
C1180 C1181 1.387 . S
C1180 H1184 0.950 . S
C1180 C1189 1.390 . S
C1181 C1180 1.387 . S
C1181 C1183 1.387 . S
H1182 C1189 0.950 . S
C1183 C1181 1.387 . S
C1183 C1185 1.390 . S
C1183 H1187 0.950 . S
H1184 C1180 0.950 . S
C1185 C1183 1.390 . S
C1185 C1186 1.387 . S
C1185 H1188 0.950 . S
C1186 C1185 1.387 . S
C1186 C1189 1.387 . S
H1187 C1183 0.950 . S
H1188 C1185 0.950 . S
C1189 C1180 1.390 . S
C1189 H1182 0.950 . S
C1189 C1186 1.387 . S
C1190 C1191 1.387 . S
C1190 H1194 0.950 . S
C1190 C1199 1.390 . S
C1191 C1190 1.387 . S
C1191 C1193 1.387 . S
H1192 C1199 0.950 . S
C1193 C1191 1.387 . S
C1193 C1195 1.390 . S
C1193 H1197 0.950 . S
H1194 C1190 0.950 . S
C1195 C1193 1.390 . S
C1195 C1196 1.387 . S
C1195 H1198 0.950 . S
C1196 C1195 1.387 . S
C1196 C1199 1.387 . S
H1197 C1193 0.950 . S
H1198 C1195 0.950 . S
C1199 C1190 1.390 . S
C1199 H1192 0.950 . S
C1199 C1196 1.387 . S
C1200 C1201 1.387 . S
C1200 H1204 0.950 . S
C1200 C1209 1.390 . S
C1201 C1200 1.387 . S
C1201 C1203 1.387 . S
H1202 C1209 0.950 . S
C1203 C1201 1.387 . S
C1203 C1205 1.390 . S
C1203 H1207 0.950 . S
H1204 C1200 0.950 . S
C1205 C1203 1.390 . S
C1205 C1206 1.387 . S
C1205 H1208 0.950 . S
C1206 C1205 1.387 . S
C1206 C1209 1.387 . S
H1207 C1203 0.950 . S
H1208 C1205 0.950 . S
C1209 C1200 1.390 . S
C1209 H1202 0.950 . S
C1209 C1206 1.387 . S
C1210 C1211 1.387 . S
C1210 H1214 0.950 . S
C1210 C1219 1.390 . S
C1211 C1210 1.387 . S
C1211 C1213 1.387 . S
H1212 C1219 0.950 . S
C1213 C1211 1.387 . S
C1213 C1215 1.390 . S
C1213 H1217 0.950 . S
H1214 C1210 0.950 . S
C1215 C1213 1.390 . S
C1215 C1216 1.387 . S
C1215 H1218 0.950 . S
C1216 C1215 1.387 . S
C1216 C1219 1.387 . S
H1217 C1213 0.950 . S
H1218 C1215 0.950 . S
C1219 C1210 1.390 . S
C1219 H1212 0.950 . S
C1219 C1216 1.387 . S
C1220 C1221 1.387 . S
C1220 H1224 0.950 . S
C1220 C1229 1.390 . S
C1221 C1220 1.387 . S
C1221 C1223 1.387 . S
H1222 C1229 0.950 . S
C1223 C1221 1.387 . S
C1223 C1225 1.390 . S
C1223 H1227 0.950 . S
H1224 C1220 0.950 . S
C1225 C1223 1.390 . S
C1225 C1226 1.387 . S
C1225 H1228 0.950 . S
C1226 C1225 1.387 . S
C1226 C1229 1.387 . S
H1227 C1223 0.950 . S
H1228 C1225 0.950 . S
C1229 C1220 1.390 . S
C1229 H1222 0.950 . S
C1229 C1226 1.387 . S
C1230 C1231 1.387 . S
C1230 H1234 0.950 . S
C1230 C1239 1.390 . S
C1231 C1230 1.387 . S
C1231 C1233 1.387 . S
H1232 C1239 0.950 . S
C1233 C1231 1.387 . S
C1233 C1235 1.390 . S
C1233 H1237 0.950 . S
H1234 C1230 0.950 . S
C1235 C1233 1.390 . S
C1235 C1236 1.387 . S
C1235 H1238 0.950 . S
C1236 C1235 1.387 . S
C1236 C1239 1.387 . S
H1237 C1233 0.950 . S
H1238 C1235 0.950 . S
C1239 C1230 1.390 . S
C1239 H1232 0.950 . S
C1239 C1236 1.387 . S
C1240 C1241 1.387 . S
C1240 H1244 0.950 . S
C1240 C1249 1.390 . S
C1241 C1240 1.387 . S
C1241 C1243 1.387 . S
H1242 C1249 0.950 . S
C1243 C1241 1.387 . S
C1243 C1245 1.390 . S
C1243 H1247 0.950 . S
H1244 C1240 0.950 . S
C1245 C1243 1.390 . S
C1245 C1246 1.387 . S
C1245 H1248 0.950 . S
C1246 C1245 1.387 . S
C1246 C1249 1.387 . S
H1247 C1243 0.950 . S
H1248 C1245 0.950 . S
C1249 C1240 1.390 . S
C1249 H1242 0.950 . S
C1249 C1246 1.387 . S
C1250 C1251 1.387 . S
C1250 H1254 0.950 . S
C1250 C1259 1.390 . S
C1251 C1250 1.387 . S
C1251 C1253 1.387 . S
H1252 C1259 0.950 . S
C1253 C1251 1.387 . S
C1253 C1255 1.390 . S
C1253 H1257 0.950 . S
H1254 C1250 0.950 . S
C1255 C1253 1.390 . S
C1255 C1256 1.387 . S
C1255 H1258 0.950 . S
C1256 C1255 1.387 . S
C1256 C1259 1.387 . S
H1257 C1253 0.950 . S
H1258 C1255 0.950 . S
C1259 C1250 1.390 . S
C1259 H1252 0.950 . S
C1259 C1256 1.387 . S
C1260 C1261 1.387 . S
C1260 H1264 0.950 . S
C1260 C1269 1.390 . S
C1261 C1260 1.387 . S
C1261 C1263 1.387 . S
H1262 C1269 0.950 . S
C1263 C1261 1.387 . S
C1263 C1265 1.390 . S
C1263 H1267 0.950 . S
H1264 C1260 0.950 . S
C1265 C1263 1.390 . S
C1265 C1266 1.387 . S
C1265 H1268 0.950 . S
C1266 C1265 1.387 . S
C1266 C1269 1.387 . S
H1267 C1263 0.950 . S
H1268 C1265 0.950 . S
C1269 C1260 1.390 . S
C1269 H1262 0.950 . S
C1269 C1266 1.387 . S
C1270 C1271 1.387 . S
C1270 H1274 0.950 . S
C1270 C1279 1.390 . S
C1271 C1270 1.387 . S
C1271 C1273 1.387 . S
H1272 C1279 0.950 . S
C1273 C1271 1.387 . S
C1273 C1275 1.390 . S
C1273 H1277 0.950 . S
H1274 C1270 0.950 . S
C1275 C1273 1.390 . S
C1275 C1276 1.387 . S
C1275 H1278 0.950 . S
C1276 C1275 1.387 . S
C1276 C1279 1.387 . S
H1277 C1273 0.950 . S
H1278 C1275 0.950 . S
C1279 C1270 1.390 . S
C1279 H1272 0.950 . S
C1279 C1276 1.387 . S
C1280 C1281 1.387 . S
C1280 H1284 0.950 . S
C1280 C1289 1.390 . S
C1281 C1280 1.387 . S
C1281 C1283 1.387 . S
H1282 C1289 0.950 . S
C1283 C1281 1.387 . S
C1283 C1285 1.390 . S
C1283 H1287 0.950 . S
H1284 C1280 0.950 . S
C1285 C1283 1.390 . S
C1285 C1286 1.387 . S
C1285 H1288 0.950 . S
C1286 C1285 1.387 . S
C1286 C1289 1.387 . S
H1287 C1283 0.950 . S
H1288 C1285 0.950 . S
C1289 C1280 1.390 . S
C1289 H1282 0.950 . S
C1289 C1286 1.387 . S
C1290 C1291 1.387 . S
C1290 H1294 0.950 . S
C1290 C1299 1.390 . S
C1291 C1290 1.387 . S
C1291 C1293 1.387 . S
H1292 C1299 0.950 . S
C1293 C1291 1.387 . S
C1293 C1295 1.390 . S
C1293 H1297 0.950 . S
H1294 C1290 0.950 . S
C1295 C1293 1.390 . S
C1295 C1296 1.387 . S
C1295 H1298 0.950 . S
C1296 C1295 1.387 . S
C1296 C1299 1.387 . S
H1297 C1293 0.950 . S
H1298 C1295 0.950 . S
C1299 C1290 1.390 . S
C1299 H1292 0.950 . S
C1299 C1296 1.387 . S
C1300 C1301 1.387 . S
C1300 H1304 0.950 . S
C1300 C1309 1.390 . S
C1301 C1300 1.387 . S
C1301 C1303 1.387 . S
H1302 C1309 0.950 . S
C1303 C1301 1.387 . S
C1303 C1305 1.390 . S
C1303 H1307 0.950 . S
H1304 C1300 0.950 . S
C1305 C1303 1.390 . S
C1305 C1306 1.387 . S
C1305 H1308 0.950 . S
C1306 C1305 1.387 . S
C1306 C1309 1.387 . S
H1307 C1303 0.950 . S
H1308 C1305 0.950 . S
C1309 C1300 1.390 . S
C1309 H1302 0.950 . S
C1309 C1306 1.387 . S
C1310 C1311 1.387 . S
C1310 H1314 0.950 . S
C1310 C1319 1.390 . S
C1311 C1310 1.387 . S
C1311 C1313 1.387 . S
H1312 C1319 0.950 . S
C1313 C1311 1.387 . S
C1313 C1315 1.390 . S
C1313 H1317 0.950 . S
H1314 C1310 0.950 . S
C1315 C1313 1.390 . S
C1315 C1316 1.387 . S
C1315 H1318 0.950 . S
C1316 C1315 1.387 . S
C1316 C1319 1.387 . S
H1317 C1313 0.950 . S
H1318 C1315 0.950 . S
C1319 C1310 1.390 . S
C1319 H1312 0.950 . S
C1319 C1316 1.387 . S
C1320 C1321 1.387 . S
C1320 H1324 0.950 . S
C1320 C1329 1.390 . S
C1321 C1320 1.387 . S
C1321 C1323 1.387 . S
H1322 C1329 0.950 . S
C1323 C1321 1.387 . S
C1323 C1325 1.390 . S
C1323 H1327 0.950 . S
H1324 C1320 0.950 . S
C1325 C1323 1.390 . S
C1325 C1326 1.387 . S
C1325 H1328 0.950 . S
C1326 C1325 1.387 . S
C1326 C1329 1.387 . S
H1327 C1323 0.950 . S
H1328 C1325 0.950 . S
C1329 C1320 1.390 . S
C1329 H1322 0.950 . S
C1329 C1326 1.387 . S
C1330 C1331 1.387 . S
C1330 H1334 0.950 . S
C1330 C1339 1.390 . S
C1331 C1330 1.387 . S
C1331 C1333 1.387 . S
H1332 C1339 0.950 . S
C1333 C1331 1.387 . S
C1333 C1335 1.390 . S
C1333 H1337 0.950 . S
H1334 C1330 0.950 . S
C1335 C1333 1.390 . S
C1335 C1336 1.387 . S
C1335 H1338 0.950 . S
C1336 C1335 1.387 . S
C1336 C1339 1.387 . S
H1337 C1333 0.950 . S
H1338 C1335 0.950 . S
C1339 C1330 1.390 . S
C1339 H1332 0.950 . S
C1339 C1336 1.387 . S
C1340 C1341 1.387 . S
C1340 H1344 0.950 . S
C1340 C1349 1.390 . S
C1341 C1340 1.387 . S
C1341 C1343 1.387 . S
H1342 C1349 0.950 . S
C1343 C1341 1.387 . S
C1343 C1345 1.390 . S
C1343 H1347 0.950 . S
H1344 C1340 0.950 . S
C1345 C1343 1.390 . S
C1345 C1346 1.387 . S
C1345 H1348 0.950 . S
C1346 C1345 1.387 . S
C1346 C1349 1.387 . S
H1347 C1343 0.950 . S
H1348 C1345 0.950 . S
C1349 C1340 1.390 . S
C1349 H1342 0.950 . S
C1349 C1346 1.387 . S
C1350 C1351 1.387 . S
C1350 H1354 0.950 . S
C1350 C1359 1.390 . S
C1351 C1350 1.387 . S
C1351 C1353 1.387 . S
H1352 C1359 0.950 . S
C1353 C1351 1.387 . S
C1353 C1355 1.390 . S
C1353 H1357 0.950 . S
H1354 C1350 0.950 . S
C1355 C1353 1.390 . S
C1355 C1356 1.387 . S
C1355 H1358 0.950 . S
C1356 C1355 1.387 . S
C1356 C1359 1.387 . S
H1357 C1353 0.950 . S
H1358 C1355 0.950 . S
C1359 C1350 1.390 . S
C1359 H1352 0.950 . S
C1359 C1356 1.387 . S
C1360 C1361 1.387 . S
C1360 H1364 0.950 . S
C1360 C1369 1.390 . S
C1361 C1360 1.387 . S
C1361 C1363 1.387 . S
H1362 C1369 0.950 . S
C1363 C1361 1.387 . S
C1363 C1365 1.390 . S
C1363 H1367 0.950 . S
H1364 C1360 0.950 . S
C1365 C1363 1.390 . S
C1365 C1366 1.387 . S
C1365 H1368 0.950 . S
C1366 C1365 1.387 . S
C1366 C1369 1.387 . S
H1367 C1363 0.950 . S
H1368 C1365 0.950 . S
C1369 C1360 1.390 . S
C1369 H1362 0.950 . S
C1369 C1366 1.387 . S
C1370 C1371 1.387 . S
C1370 H1374 0.950 . S
C1370 C1379 1.390 . S
C1371 C1370 1.387 . S
C1371 C1373 1.387 . S
H1372 C1379 0.950 . S
C1373 C1371 1.387 . S
C1373 C1375 1.390 . S
C1373 H1377 0.950 . S
H1374 C1370 0.950 . S
C1375 C1373 1.390 . S
C1375 C1376 1.387 . S
C1375 H1378 0.950 . S
C1376 C1375 1.387 . S
C1376 C1379 1.387 . S
H1377 C1373 0.950 . S
H1378 C1375 0.950 . S
C1379 C1370 1.390 . S
C1379 H1372 0.950 . S
C1379 C1376 1.387 . S
C1380 C1381 1.387 . S
C1380 H1384 0.950 . S
C1380 C1389 1.390 . S
C1381 C1380 1.387 . S
C1381 C1383 1.387 . S
H1382 C1389 0.950 . S
C1383 C1381 1.387 . S
C1383 C1385 1.390 . S
C1383 H1387 0.950 . S
H1384 C1380 0.950 . S
C1385 C1383 1.390 . S
C1385 C1386 1.387 . S
C1385 H1388 0.950 . S
C1386 C1385 1.387 . S
C1386 C1389 1.387 . S
H1387 C1383 0.950 . S
H1388 C1385 0.950 . S
C1389 C1380 1.390 . S
C1389 H1382 0.950 . S
C1389 C1386 1.387 . S
C1390 C1391 1.387 . S
C1390 H1394 0.950 . S
C1390 C1399 1.390 . S
C1391 C1390 1.387 . S
C1391 C1393 1.387 . S
H1392 C1399 0.950 . S
C1393 C1391 1.387 . S
C1393 C1395 1.390 . S
C1393 H1397 0.950 . S
H1394 C1390 0.950 . S
C1395 C1393 1.390 . S
C1395 C1396 1.387 . S
C1395 H1398 0.950 . S
C1396 C1395 1.387 . S
C1396 C1399 1.387 . S
H1397 C1393 0.950 . S
H1398 C1395 0.950 . S
C1399 C1390 1.390 . S
C1399 H1392 0.950 . S
C1399 C1396 1.387 . S
C1400 C1401 1.387 . S
C1400 H1404 0.950 . S
C1400 C1409 1.390 . S
C1401 C1400 1.387 . S
C1401 C1403 1.387 . S
H1402 C1409 0.950 . S
C1403 C1401 1.387 . S
C1403 C1405 1.390 . S
C1403 H1407 0.950 . S
H1404 C1400 0.950 . S
C1405 C1403 1.390 . S
C1405 C1406 1.387 . S
C1405 H1408 0.950 . S
C1406 C1405 1.387 . S
C1406 C1409 1.387 . S
H1407 C1403 0.950 . S
H1408 C1405 0.950 . S
C1409 C1400 1.390 . S
C1409 H1402 0.950 . S
C1409 C1406 1.387 . S
C1410 C1411 1.387 . S
C1410 H1414 0.950 . S
C1410 C1419 1.390 . S
C1411 C1410 1.387 . S
C1411 C1413 1.387 . S
H1412 C1419 0.950 . S
C1413 C1411 1.387 . S
C1413 C1415 1.390 . S
C1413 H1417 0.950 . S
H1414 C1410 0.950 . S
C1415 C1413 1.390 . S
C1415 C1416 1.387 . S
C1415 H1418 0.950 . S
C1416 C1415 1.387 . S
C1416 C1419 1.387 . S
H1417 C1413 0.950 . S
H1418 C1415 0.950 . S
C1419 C1410 1.390 . S
C1419 H1412 0.950 . S
C1419 C1416 1.387 . S
C1420 C1421 1.387 . S
C1420 H1424 0.950 . S
C1420 C1429 1.390 . S
C1421 C1420 1.387 . S
C1421 C1423 1.387 . S
H1422 C1429 0.950 . S
C1423 C1421 1.387 . S
C1423 C1425 1.390 . S
C1423 H1427 0.950 . S
H1424 C1420 0.950 . S
C1425 C1423 1.390 . S
C1425 C1426 1.387 . S
C1425 H1428 0.950 . S
C1426 C1425 1.387 . S
C1426 C1429 1.387 . S
H1427 C1423 0.950 . S
H1428 C1425 0.950 . S
C1429 C1420 1.390 . S
C1429 H1422 0.950 . S
C1429 C1426 1.387 . S
C1430 C1431 1.387 . S
C1430 H1434 0.950 . S
C1430 C1439 1.390 . S
C1431 C1430 1.387 . S
C1431 C1433 1.387 . S
H1432 C1439 0.950 . S
C1433 C1431 1.387 . S
C1433 C1435 1.390 . S
C1433 H1437 0.950 . S
H1434 C1430 0.950 . S
C1435 C1433 1.390 . S
C1435 C1436 1.387 . S
C1435 H1438 0.950 . S
C1436 C1435 1.387 . S
C1436 C1439 1.387 . S
H1437 C1433 0.950 . S
H1438 C1435 0.950 . S
C1439 C1430 1.390 . S
C1439 H1432 0.950 . S
C1439 C1436 1.387 . S
C1440 C1441 1.387 . S
C1440 H1444 0.950 . S
C1440 C1449 1.390 . S
C1441 C1440 1.387 . S
C1441 C1443 1.387 . S
H1442 C1449 0.950 . S
C1443 C1441 1.387 . S
C1443 C1445 1.390 . S
C1443 H1447 0.950 . S
H1444 C1440 0.950 . S
C1445 C1443 1.390 . S
C1445 C1446 1.387 . S
C1445 H1448 0.950 . S
C1446 C1445 1.387 . S
C1446 C1449 1.387 . S
H1447 C1443 0.950 . S
H1448 C1445 0.950 . S
C1449 C1440 1.390 . S
C1449 H1442 0.950 . S
C1449 C1446 1.387 . S
C1450 C1451 1.387 . S
C1450 H1454 0.950 . S
C1450 C1459 1.390 . S
C1451 C1450 1.387 . S
C1451 C1453 1.387 . S
H1452 C1459 0.950 . S
C1453 C1451 1.387 . S
C1453 C1455 1.390 . S
C1453 H1457 0.950 . S
H1454 C1450 0.950 . S
C1455 C1453 1.390 . S
C1455 C1456 1.387 . S
C1455 H1458 0.950 . S
C1456 C1455 1.387 . S
C1456 C1459 1.387 . S
H1457 C1453 0.950 . S
H1458 C1455 0.950 . S
C1459 C1450 1.390 . S
C1459 H1452 0.950 . S
C1459 C1456 1.387 . S
C1460 C1461 1.387 . S
C1460 H1464 0.950 . S
C1460 C1469 1.390 . S
C1461 C1460 1.387 . S
C1461 C1463 1.387 . S
H1462 C1469 0.950 . S
C1463 C1461 1.387 . S
C1463 C1465 1.390 . S
C1463 H1467 0.950 . S
H1464 C1460 0.950 . S
C1465 C1463 1.390 . S
C1465 C1466 1.387 . S
C1465 H1468 0.950 . S
C1466 C1465 1.387 . S
C1466 C1469 1.387 . S
H1467 C1463 0.950 . S
H1468 C1465 0.950 . S
C1469 C1460 1.390 . S
C1469 H1462 0.950 . S
C1469 C1466 1.387 . S
C1470 C1471 1.387 . S
C1470 H1474 0.950 . S
C1470 C1479 1.390 . S
C1471 C1470 1.387 . S
C1471 C1473 1.387 . S
H1472 C1479 0.950 . S
C1473 C1471 1.387 . S
C1473 C1475 1.390 . S
C1473 H1477 0.950 . S
H1474 C1470 0.950 . S
C1475 C1473 1.390 . S
C1475 C1476 1.387 . S
C1475 H1478 0.950 . S
C1476 C1475 1.387 . S
C1476 C1479 1.387 . S
H1477 C1473 0.950 . S
H1478 C1475 0.950 . S
C1479 C1470 1.390 . S
C1479 H1472 0.950 . S
C1479 C1476 1.387 . S
C1480 C1481 1.387 . S
C1480 H1484 0.950 . S
C1480 C1489 1.390 . S
C1481 C1480 1.387 . S
C1481 C1483 1.387 . S
H1482 C1489 0.950 . S
C1483 C1481 1.387 . S
C1483 C1485 1.390 . S
C1483 H1487 0.950 . S
H1484 C1480 0.950 . S
C1485 C1483 1.390 . S
C1485 C1486 1.387 . S
C1485 H1488 0.950 . S
C1486 C1485 1.387 . S
C1486 C1489 1.387 . S
H1487 C1483 0.950 . S
H1488 C1485 0.950 . S
C1489 C1480 1.390 . S
C1489 H1482 0.950 . S
C1489 C1486 1.387 . S
C1490 C1491 1.387 . S
C1490 H1494 0.950 . S
C1490 C1499 1.390 . S
C1491 C1490 1.387 . S
C1491 C1493 1.387 . S
H1492 C1499 0.950 . S
C1493 C1491 1.387 . S
C1493 C1495 1.390 . S
C1493 H1497 0.950 . S
H1494 C1490 0.950 . S
C1495 C1493 1.390 . S
C1495 C1496 1.387 . S
C1495 H1498 0.950 . S
C1496 C1495 1.387 . S
C1496 C1499 1.387 . S
H1497 C1493 0.950 . S
H1498 C1495 0.950 . S
C1499 C1490 1.390 . S
C1499 H1492 0.950 . S
C1499 C1496 1.387 . S
C1500 C1501 1.387 . S
C1500 H1504 0.950 . S
C1500 C1509 1.390 . S
C1501 C1500 1.387 . S
C1501 C1503 1.387 . S
H1502 C1509 0.950 . S
C1503 C1501 1.387 . S
C1503 C1505 1.390 . S
C1503 H1507 0.950 . S
H1504 C1500 0.950 . S
C1505 C1503 1.390 . S
C1505 C1506 1.387 . S
C1505 H1508 0.950 . S
C1506 C1505 1.387 . S
C1506 C1509 1.387 . S
H1507 C1503 0.950 . S
H1508 C1505 0.950 . S
C1509 C1500 1.390 . S
C1509 H1502 0.950 . S
C1509 C1506 1.387 . S
C1510 C1511 1.387 . S
C1510 H1514 0.950 . S
C1510 C1519 1.390 . S
C1511 C1510 1.387 . S
C1511 C1513 1.387 . S
H1512 C1519 0.950 . S
C1513 C1511 1.387 . S
C1513 C1515 1.390 . S
C1513 H1517 0.950 . S
H1514 C1510 0.950 . S
C1515 C1513 1.390 . S
C1515 C1516 1.387 . S
C1515 H1518 0.950 . S
C1516 C1515 1.387 . S
C1516 C1519 1.387 . S
H1517 C1513 0.950 . S
H1518 C1515 0.950 . S
C1519 C1510 1.390 . S
C1519 H1512 0.950 . S
C1519 C1516 1.387 . S
C1520 C1521 1.387 . S
C1520 H1524 0.950 . S
C1520 C1529 1.390 . S
C1521 C1520 1.387 . S
C1521 C1523 1.387 . S
H1522 C1529 0.950 . S
C1523 C1521 1.387 . S
C1523 C1525 1.390 . S
C1523 H1527 0.950 . S
H1524 C1520 0.950 . S
C1525 C1523 1.390 . S
C1525 C1526 1.387 . S
C1525 H1528 0.950 . S
C1526 C1525 1.387 . S
C1526 C1529 1.387 . S
H1527 C1523 0.950 . S
H1528 C1525 0.950 . S
C1529 C1520 1.390 . S
C1529 H1522 0.950 . S
C1529 C1526 1.387 . S
C1530 C1531 1.387 . S
C1530 H1534 0.950 . S
C1530 C1539 1.390 . S
C1531 C1530 1.387 . S
C1531 C1533 1.387 . S
H1532 C1539 0.950 . S
C1533 C1531 1.387 . S
C1533 C1535 1.390 . S
C1533 H1537 0.950 . S
H1534 C1530 0.950 . S
C1535 C1533 1.390 . S
C1535 C1536 1.387 . S
C1535 H1538 0.950 . S
C1536 C1535 1.387 . S
C1536 C1539 1.387 . S
H1537 C1533 0.950 . S
H1538 C1535 0.950 . S
C1539 C1530 1.390 . S
C1539 H1532 0.950 . S
C1539 C1536 1.387 . S
C1540 C1541 1.387 . S
C1540 H1544 0.950 . S
C1540 C1549 1.390 . S
C1541 C1540 1.387 . S
C1541 C1543 1.387 . S
H1542 C1549 0.950 . S
C1543 C1541 1.387 . S
C1543 C1545 1.390 . S
C1543 H1547 0.950 . S
H1544 C1540 0.950 . S
C1545 C1543 1.390 . S
C1545 C1546 1.387 . S
C1545 H1548 0.950 . S
C1546 C1545 1.387 . S
C1546 C1549 1.387 . S
H1547 C1543 0.950 . S
H1548 C1545 0.950 . S
C1549 C1540 1.390 . S
C1549 H1542 0.950 . S
C1549 C1546 1.387 . S
C1550 C1551 1.387 . S
C1550 H1554 0.950 . S
C1550 C1559 1.390 . S
C1551 C1550 1.387 . S
C1551 C1553 1.387 . S
H1552 C1559 0.950 . S
C1553 C1551 1.387 . S
C1553 C1555 1.390 . S
C1553 H1557 0.950 . S
H1554 C1550 0.950 . S
C1555 C1553 1.390 . S
C1555 C1556 1.387 . S
C1555 H1558 0.950 . S
C1556 C1555 1.387 . S
C1556 C1559 1.387 . S
H1557 C1553 0.950 . S
H1558 C1555 0.950 . S
C1559 C1550 1.390 . S
C1559 H1552 0.950 . S
C1559 C1556 1.387 . S
C1560 C1561 1.387 . S
C1560 H1564 0.950 . S
C1560 C1569 1.390 . S
C1561 C1560 1.387 . S
C1561 C1563 1.387 . S
H1562 C1569 0.950 . S
C1563 C1561 1.387 . S
C1563 C1565 1.390 . S
C1563 H1567 0.950 . S
H1564 C1560 0.950 . S
C1565 C1563 1.390 . S
C1565 C1566 1.387 . S
C1565 H1568 0.950 . S
C1566 C1565 1.387 . S
C1566 C1569 1.387 . S
H1567 C1563 0.950 . S
H1568 C1565 0.950 . S
C1569 C1560 1.390 . S
C1569 H1562 0.950 . S
C1569 C1566 1.387 . S
C1570 C1571 1.387 . S
C1570 H1574 0.950 . S
C1570 C1579 1.390 . S
C1571 C1570 1.387 . S
C1571 C1573 1.387 . S
H1572 C1579 0.950 . S
C1573 C1571 1.387 . S
C1573 C1575 1.390 . S
C1573 H1577 0.950 . S
H1574 C1570 0.950 . S
C1575 C1573 1.390 . S
C1575 C1576 1.387 . S
C1575 H1578 0.950 . S
C1576 C1575 1.387 . S
C1576 C1579 1.387 . S
H1577 C1573 0.950 . S
H1578 C1575 0.950 . S
C1579 C1570 1.390 . S
C1579 H1572 0.950 . S
C1579 C1576 1.387 . S
C1580 C1581 1.387 . S
C1580 H1584 0.950 . S
C1580 C1589 1.390 . S
C1581 C1580 1.387 . S
C1581 C1583 1.387 . S
H1582 C1589 0.950 . S
C1583 C1581 1.387 . S
C1583 C1585 1.390 . S
C1583 H1587 0.950 . S
H1584 C1580 0.950 . S
C1585 C1583 1.390 . S
C1585 C1586 1.387 . S
C1585 H1588 0.950 . S
C1586 C1585 1.387 . S
C1586 C1589 1.387 . S
H1587 C1583 0.950 . S
H1588 C1585 0.950 . S
C1589 C1580 1.390 . S
C1589 H1582 0.950 . S
C1589 C1586 1.387 . S
C1590 C1591 1.387 . S
C1590 H1594 0.950 . S
C1590 C1599 1.390 . S
C1591 C1590 1.387 . S
C1591 C1593 1.387 . S
H1592 C1599 0.950 . S
C1593 C1591 1.387 . S
C1593 C1595 1.390 . S
C1593 H1597 0.950 . S
H1594 C1590 0.950 . S
C1595 C1593 1.390 . S
C1595 C1596 1.387 . S
C1595 H1598 0.950 . S
C1596 C1595 1.387 . S
C1596 C1599 1.387 . S
H1597 C1593 0.950 . S
H1598 C1595 0.950 . S
C1599 C1590 1.390 . S
C1599 H1592 0.950 . S
C1599 C1596 1.387 . S
C1600 C1601 1.387 . S
C1600 H1604 0.950 . S
C1600 C1609 1.390 . S
C1601 C1600 1.387 . S
C1601 C1603 1.387 . S
H1602 C1609 0.950 . S
C1603 C1601 1.387 . S
C1603 C1605 1.390 . S
C1603 H1607 0.950 . S
H1604 C1600 0.950 . S
C1605 C1603 1.390 . S
C1605 C1606 1.387 . S
C1605 H1608 0.950 . S
C1606 C1605 1.387 . S
C1606 C1609 1.387 . S
H1607 C1603 0.950 . S
H1608 C1605 0.950 . S
C1609 C1600 1.390 . S
C1609 H1602 0.950 . S
C1609 C1606 1.387 . S
C1610 C1611 1.387 . S
C1610 H1614 0.950 . S
C1610 C1619 1.390 . S
C1611 C1610 1.387 . S
C1611 C1613 1.387 . S
H1612 C1619 0.950 . S
C1613 C1611 1.387 . S
C1613 C1615 1.390 . S
C1613 H1617 0.950 . S
H1614 C1610 0.950 . S
C1615 C1613 1.390 . S
C1615 C1616 1.387 . S
C1615 H1618 0.950 . S
C1616 C1615 1.387 . S
C1616 C1619 1.387 . S
H1617 C1613 0.950 . S
H1618 C1615 0.950 . S
C1619 C1610 1.390 . S
C1619 H1612 0.950 . S
C1619 C1616 1.387 . S
C1620 C1621 1.387 . S
C1620 H1624 0.950 . S
C1620 C1629 1.390 . S
C1621 C1620 1.387 . S
C1621 C1623 1.387 . S
H1622 C1629 0.950 . S
C1623 C1621 1.387 . S
C1623 C1625 1.390 . S
C1623 H1627 0.950 . S
H1624 C1620 0.950 . S
C1625 C1623 1.390 . S
C1625 C1626 1.387 . S
C1625 H1628 0.950 . S
C1626 C1625 1.387 . S
C1626 C1629 1.387 . S
H1627 C1623 0.950 . S
H1628 C1625 0.950 . S
C1629 C1620 1.390 . S
C1629 H1622 0.950 . S
C1629 C1626 1.387 . S
C1630 C1631 1.387 . S
C1630 H1634 0.950 . S
C1630 C1639 1.390 . S
C1631 C1630 1.387 . S
C1631 C1633 1.387 . S
H1632 C1639 0.950 . S
C1633 C1631 1.387 . S
C1633 C1635 1.390 . S
C1633 H1637 0.950 . S
H1634 C1630 0.950 . S
C1635 C1633 1.390 . S
C1635 C1636 1.387 . S
C1635 H1638 0.950 . S
C1636 C1635 1.387 . S
C1636 C1639 1.387 . S
H1637 C1633 0.950 . S
H1638 C1635 0.950 . S
C1639 C1630 1.390 . S
C1639 H1632 0.950 . S
C1639 C1636 1.387 . S
C1640 C1641 1.387 . S
C1640 H1644 0.950 . S
C1640 C1649 1.390 . S
C1641 C1640 1.387 . S
C1641 C1643 1.387 . S
H1642 C1649 0.950 . S
C1643 C1641 1.387 . S
C1643 C1645 1.390 . S
C1643 H1647 0.950 . S
H1644 C1640 0.950 . S
C1645 C1643 1.390 . S
C1645 C1646 1.387 . S
C1645 H1648 0.950 . S
C1646 C1645 1.387 . S
C1646 C1649 1.387 . S
H1647 C1643 0.950 . S
H1648 C1645 0.950 . S
C1649 C1640 1.390 . S
C1649 H1642 0.950 . S
C1649 C1646 1.387 . S
C1650 C1651 1.387 . S
C1650 H1654 0.950 . S
C1650 C1659 1.390 . S
C1651 C1650 1.387 . S
C1651 C1653 1.387 . S
H1652 C1659 0.950 . S
C1653 C1651 1.387 . S
C1653 C1655 1.390 . S
C1653 H1657 0.950 . S
H1654 C1650 0.950 . S
C1655 C1653 1.390 . S
C1655 C1656 1.387 . S
C1655 H1658 0.950 . S
C1656 C1655 1.387 . S
C1656 C1659 1.387 . S
H1657 C1653 0.950 . S
H1658 C1655 0.950 . S
C1659 C1650 1.390 . S
C1659 H1652 0.950 . S
C1659 C1656 1.387 . S
C1660 C1661 1.387 . S
C1660 H1664 0.950 . S
C1660 C1669 1.390 . S
C1661 C1660 1.387 . S
C1661 C1663 1.387 . S
H1662 C1669 0.950 . S
C1663 C1661 1.387 . S
C1663 C1665 1.390 . S
C1663 H1667 0.950 . S
H1664 C1660 0.950 . S
C1665 C1663 1.390 . S
C1665 C1666 1.387 . S
C1665 H1668 0.950 . S
C1666 C1665 1.387 . S
C1666 C1669 1.387 . S
H1667 C1663 0.950 . S
H1668 C1665 0.950 . S
C1669 C1660 1.390 . S
C1669 H1662 0.950 . S
C1669 C1666 1.387 . S
C1670 C1671 1.387 . S
C1670 H1674 0.950 . S
C1670 C1679 1.390 . S
C1671 C1670 1.387 . S
C1671 C1673 1.387 . S
H1672 C1679 0.950 . S
C1673 C1671 1.387 . S
C1673 C1675 1.390 . S
C1673 H1677 0.950 . S
H1674 C1670 0.950 . S
C1675 C1673 1.390 . S
C1675 C1676 1.387 . S
C1675 H1678 0.950 . S
C1676 C1675 1.387 . S
C1676 C1679 1.387 . S
H1677 C1673 0.950 . S
H1678 C1675 0.950 . S
C1679 C1670 1.390 . S
C1679 H1672 0.950 . S
C1679 C1676 1.387 . S
C1680 C1681 1.387 . S
C1680 H1684 0.950 . S
C1680 C1689 1.390 . S
C1681 C1680 1.387 . S
C1681 C1683 1.387 . S
H1682 C1689 0.950 . S
C1683 C1681 1.387 . S
C1683 C1685 1.390 . S
C1683 H1687 0.950 . S
H1684 C1680 0.950 . S
C1685 C1683 1.390 . S
C1685 C1686 1.387 . S
C1685 H1688 0.950 . S
C1686 C1685 1.387 . S
C1686 C1689 1.387 . S
H1687 C1683 0.950 . S
H1688 C1685 0.950 . S
C1689 C1680 1.390 . S
C1689 H1682 0.950 . S
C1689 C1686 1.387 . S
C1690 C1691 1.387 . S
C1690 H1694 0.950 . S
C1690 C1699 1.390 . S
C1691 C1690 1.387 . S
C1691 C1693 1.387 . S
H1692 C1699 0.950 . S
C1693 C1691 1.387 . S
C1693 C1695 1.390 . S
C1693 H1697 0.950 . S
H1694 C1690 0.950 . S
C1695 C1693 1.390 . S
C1695 C1696 1.387 . S
C1695 H1698 0.950 . S
C1696 C1695 1.387 . S
C1696 C1699 1.387 . S
H1697 C1693 0.950 . S
H1698 C1695 0.950 . S
C1699 C1690 1.390 . S
C1699 H1692 0.950 . S
C1699 C1696 1.387 . S
C1700 C1701 1.387 . S
C1700 H1704 0.950 . S
C1700 C1709 1.390 . S
C1701 C1700 1.387 . S
C1701 C1703 1.387 . S
H1702 C1709 0.950 . S
C1703 C1701 1.387 . S
C1703 C1705 1.390 . S
C1703 H1707 0.950 . S
H1704 C1700 0.950 . S
C1705 C1703 1.390 . S
C1705 C1706 1.387 . S
C1705 H1708 0.950 . S
C1706 C1705 1.387 . S
C1706 C1709 1.387 . S
H1707 C1703 0.950 . S
H1708 C1705 0.950 . S
C1709 C1700 1.390 . S
C1709 H1702 0.950 . S
C1709 C1706 1.387 . S
C1710 C1711 1.387 . S
C1710 H1714 0.950 . S
C1710 C1719 1.390 . S
C1711 C1710 1.387 . S
C1711 C1713 1.387 . S
H1712 C1719 0.950 . S
C1713 C1711 1.387 . S
C1713 C1715 1.390 . S
C1713 H1717 0.950 . S
H1714 C1710 0.950 . S
C1715 C1713 1.390 . S
C1715 C1716 1.387 . S
C1715 H1718 0.950 . S
C1716 C1715 1.387 . S
C1716 C1719 1.387 . S
H1717 C1713 0.950 . S
H1718 C1715 0.950 . S
C1719 C1710 1.390 . S
C1719 H1712 0.950 . S
C1719 C1716 1.387 . S
C1720 C1721 1.387 . S
C1720 H1724 0.950 . S
C1720 C1729 1.390 . S
C1721 C1720 1.387 . S
C1721 C1723 1.387 . S
H1722 C1729 0.950 . S
C1723 C1721 1.387 . S
C1723 C1725 1.390 . S
C1723 H1727 0.950 . S
H1724 C1720 0.950 . S
C1725 C1723 1.390 . S
C1725 C1726 1.387 . S
C1725 H1728 0.950 . S
C1726 C1725 1.387 . S
C1726 C1729 1.387 . S
H1727 C1723 0.950 . S
H1728 C1725 0.950 . S
C1729 C1720 1.390 . S
C1729 H1722 0.950 . S
C1729 C1726 1.387 . S
C1730 C1731 1.387 . S
C1730 H1734 0.950 . S
C1730 C1739 1.390 . S
C1731 C1730 1.387 . S
C1731 C1733 1.387 . S
H1732 C1739 0.950 . S
C1733 C1731 1.387 . S
C1733 C1735 1.390 . S
C1733 H1737 0.950 . S
H1734 C1730 0.950 . S
C1735 C1733 1.390 . S
C1735 C1736 1.387 . S
C1735 H1738 0.950 . S
C1736 C1735 1.387 . S
C1736 C1739 1.387 . S
H1737 C1733 0.950 . S
H1738 C1735 0.950 . S
C1739 C1730 1.390 . S
C1739 H1732 0.950 . S
C1739 C1736 1.387 . S
C1740 C1741 1.387 . S
C1740 H1744 0.950 . S
C1740 C1749 1.390 . S
C1741 C1740 1.387 . S
C1741 C1743 1.387 . S
H1742 C1749 0.950 . S
C1743 C1741 1.387 . S
C1743 C1745 1.390 . S
C1743 H1747 0.950 . S
H1744 C1740 0.950 . S
C1745 C1743 1.390 . S
C1745 C1746 1.387 . S
C1745 H1748 0.950 . S
C1746 C1745 1.387 . S
C1746 C1749 1.387 . S
H1747 C1743 0.950 . S
H1748 C1745 0.950 . S
C1749 C1740 1.390 . S
C1749 H1742 0.950 . S
C1749 C1746 1.387 . S
C1750 C1751 1.387 . S
C1750 H1754 0.950 . S
C1750 C1759 1.390 . S
C1751 C1750 1.387 . S
C1751 C1753 1.387 . S
H1752 C1759 0.950 . S
C1753 C1751 1.387 . S
C1753 C1755 1.390 . S
C1753 H1757 0.950 . S
H1754 C1750 0.950 . S
C1755 C1753 1.390 . S
C1755 C1756 1.387 . S
C1755 H1758 0.950 . S
C1756 C1755 1.387 . S
C1756 C1759 1.387 . S
H1757 C1753 0.950 . S
H1758 C1755 0.950 . S
C1759 C1750 1.390 . S
C1759 H1752 0.950 . S
C1759 C1756 1.387 . S
C1760 C1761 1.387 . S
C1760 H1764 0.950 . S
C1760 C1769 1.390 . S
C1761 C1760 1.387 . S
C1761 C1763 1.387 . S
H1762 C1769 0.950 . S
C1763 C1761 1.387 . S
C1763 C1765 1.390 . S
C1763 H1767 0.950 . S
H1764 C1760 0.950 . S
C1765 C1763 1.390 . S
C1765 C1766 1.387 . S
C1765 H1768 0.950 . S
C1766 C1765 1.387 . S
C1766 C1769 1.387 . S
H1767 C1763 0.950 . S
H1768 C1765 0.950 . S
C1769 C1760 1.390 . S
C1769 H1762 0.950 . S
C1769 C1766 1.387 . S
C1770 C1771 1.387 . S
C1770 H1774 0.950 . S
C1770 C1779 1.390 . S
C1771 C1770 1.387 . S
C1771 C1773 1.387 . S
H1772 C1779 0.950 . S
C1773 C1771 1.387 . S
C1773 C1775 1.390 . S
C1773 H1777 0.950 . S
H1774 C1770 0.950 . S
C1775 C1773 1.390 . S
C1775 C1776 1.387 . S
C1775 H1778 0.950 . S
C1776 C1775 1.387 . S
C1776 C1779 1.387 . S
H1777 C1773 0.950 . S
H1778 C1775 0.950 . S
C1779 C1770 1.390 . S
C1779 H1772 0.950 . S
C1779 C1776 1.387 . S
C1780 C1781 1.387 . S
C1780 H1784 0.950 . S
C1780 C1789 1.390 . S
C1781 C1780 1.387 . S
C1781 C1783 1.387 . S
H1782 C1789 0.950 . S
C1783 C1781 1.387 . S
C1783 C1785 1.390 . S
C1783 H1787 0.950 . S
H1784 C1780 0.950 . S
C1785 C1783 1.390 . S
C1785 C1786 1.387 . S
C1785 H1788 0.950 . S
C1786 C1785 1.387 . S
C1786 C1789 1.387 . S
H1787 C1783 0.950 . S
H1788 C1785 0.950 . S
C1789 C1780 1.390 . S
C1789 H1782 0.950 . S
C1789 C1786 1.387 . S
C1790 C1791 1.387 . S
C1790 H1794 0.950 . S
C1790 C1799 1.390 . S
C1791 C1790 1.387 . S
C1791 C1793 1.387 . S
H1792 C1799 0.950 . S
C1793 C1791 1.387 . S
C1793 C1795 1.390 . S
C1793 H1797 0.950 . S
H1794 C1790 0.950 . S
C1795 C1793 1.390 . S
C1795 C1796 1.387 . S
C1795 H1798 0.950 . S
C1796 C1795 1.387 . S
C1796 C1799 1.387 . S
H1797 C1793 0.950 . S
H1798 C1795 0.950 . S
C1799 C1790 1.390 . S
C1799 H1792 0.950 . S
C1799 C1796 1.387 . S
C1800 C1801 1.387 . S
C1800 H1804 0.950 . S
C1800 C1809 1.390 . S
C1801 C1800 1.387 . S
C1801 C1803 1.387 . S
H1802 C1809 0.950 . S
C1803 C1801 1.387 . S
C1803 C1805 1.390 . S
C1803 H1807 0.950 . S
H1804 C1800 0.950 . S
C1805 C1803 1.390 . S
C1805 C1806 1.387 . S
C1805 H1808 0.950 . S
C1806 C1805 1.387 . S
C1806 C1809 1.387 . S
H1807 C1803 0.950 . S
H1808 C1805 0.950 . S
C1809 C1800 1.390 . S
C1809 H1802 0.950 . S
C1809 C1806 1.387 . S
C1810 C1811 1.387 . S
C1810 H1814 0.950 . S
C1810 C1819 1.390 . S
C1811 C1810 1.387 . S
C1811 C1813 1.387 . S
H1812 C1819 0.950 . S
C1813 C1811 1.387 . S
C1813 C1815 1.390 . S
C1813 H1817 0.950 . S
H1814 C1810 0.950 . S
C1815 C1813 1.390 . S
C1815 C1816 1.387 . S
C1815 H1818 0.950 . S
C1816 C1815 1.387 . S
C1816 C1819 1.387 . S
H1817 C1813 0.950 . S
H1818 C1815 0.950 . S
C1819 C1810 1.390 . S
C1819 H1812 0.950 . S
C1819 C1816 1.387 . S
C1820 C1821 1.387 . S
C1820 H1824 0.950 . S
C1820 C1829 1.390 . S
C1821 C1820 1.387 . S
C1821 C1823 1.387 . S
H1822 C1829 0.950 . S
C1823 C1821 1.387 . S
C1823 C1825 1.390 . S
C1823 H1827 0.950 . S
H1824 C1820 0.950 . S
C1825 C1823 1.390 . S
C1825 C1826 1.387 . S
C1825 H1828 0.950 . S
C1826 C1825 1.387 . S
C1826 C1829 1.387 . S
H1827 C1823 0.950 . S
H1828 C1825 0.950 . S
C1829 C1820 1.390 . S
C1829 H1822 0.950 . S
C1829 C1826 1.387 . S
C1830 C1831 1.387 . S
C1830 H1834 0.950 . S
C1830 C1839 1.390 . S
C1831 C1830 1.387 . S
C1831 C1833 1.387 . S
H1832 C1839 0.950 . S
C1833 C1831 1.387 . S
C1833 C1835 1.390 . S
C1833 H1837 0.950 . S
H1834 C1830 0.950 . S
C1835 C1833 1.390 . S
C1835 C1836 1.387 . S
C1835 H1838 0.950 . S
C1836 C1835 1.387 . S
C1836 C1839 1.387 . S
H1837 C1833 0.950 . S
H1838 C1835 0.950 . S
C1839 C1830 1.390 . S
C1839 H1832 0.950 . S
C1839 C1836 1.387 . S
C1840 C1841 1.387 . S
C1840 H1844 0.950 . S
C1840 C1849 1.390 . S
C1841 C1840 1.387 . S
C1841 C1843 1.387 . S
H1842 C1849 0.950 . S
C1843 C1841 1.387 . S
C1843 C1845 1.390 . S
C1843 H1847 0.950 . S
H1844 C1840 0.950 . S
C1845 C1843 1.390 . S
C1845 C1846 1.387 . S
C1845 H1848 0.950 . S
C1846 C1845 1.387 . S
C1846 C1849 1.387 . S
H1847 C1843 0.950 . S
H1848 C1845 0.950 . S
C1849 C1840 1.390 . S
C1849 H1842 0.950 . S
C1849 C1846 1.387 . S
C1850 C1851 1.387 . S
C1850 H1854 0.950 . S
C1850 C1859 1.390 . S
C1851 C1850 1.387 . S
C1851 C1853 1.387 . S
H1852 C1859 0.950 1_545 S
C1853 C1851 1.387 . S
C1853 C1855 1.390 . S
C1853 H1857 0.950 . S
H1854 C1850 0.950 . S
C1855 C1853 1.390 . S
C1855 C1856 1.387 . S
C1855 H1858 0.950 . S
C1856 C1855 1.387 . S
C1856 C1859 1.387 . S
H1857 C1853 0.950 . S
H1858 C1855 0.950 . S
C1859 C1850 1.390 . S
C1859 H1852 0.950 1_565 S
C1859 C1856 1.387 . S
C1860 C1861 1.387 . S
C1860 H1864 0.950 . S
C1860 C1869 1.390 . S
C1861 C1860 1.387 . S
C1861 C1863 1.387 . S
H1862 C1869 0.950 . S
C1863 C1861 1.387 . S
C1863 C1865 1.390 . S
C1863 H1867 0.950 . S
H1864 C1860 0.950 . S
C1865 C1863 1.390 . S
C1865 C1866 1.387 . S
C1865 H1868 0.950 . S
C1866 C1865 1.387 . S
C1866 C1869 1.387 . S
H1867 C1863 0.950 . S
H1868 C1865 0.950 . S
C1869 C1860 1.390 . S
C1869 H1862 0.950 . S
C1869 C1866 1.387 . S
C1870 C1871 1.387 . S
C1870 H1874 0.950 . S
C1870 C1879 1.390 . S
C1871 C1870 1.387 . S
C1871 C1873 1.387 . S
H1872 C1879 0.950 . S
C1873 C1871 1.387 . S
C1873 C1875 1.390 . S
C1873 H1877 0.950 . S
H1874 C1870 0.950 . S
C1875 C1873 1.390 . S
C1875 C1876 1.387 . S
C1875 H1878 0.950 . S
C1876 C1875 1.387 . S
C1876 C1879 1.387 . S
H1877 C1873 0.950 . S
H1878 C1875 0.950 . S
C1879 C1870 1.390 . S
C1879 H1872 0.950 . S
C1879 C1876 1.387 . S
C1880 C1881 1.387 . S
C1880 H1884 0.950 . S
C1880 C1889 1.390 . S
C1881 C1880 1.387 . S
C1881 C1883 1.387 . S
H1882 C1889 0.950 . S
C1883 C1881 1.387 . S
C1883 C1885 1.390 . S
C1883 H1887 0.950 . S
H1884 C1880 0.950 . S
C1885 C1883 1.390 . S
C1885 C1886 1.387 . S
C1885 H1888 0.950 . S
C1886 C1885 1.387 . S
C1886 C1889 1.387 . S
H1887 C1883 0.950 . S
H1888 C1885 0.950 . S
C1889 C1880 1.390 . S
C1889 H1882 0.950 . S
C1889 C1886 1.387 . S
C1890 C1891 1.387 . S
C1890 H1894 0.950 . S
C1890 C1899 1.390 . S
C1891 C1890 1.387 . S
C1891 C1893 1.387 . S
H1892 C1899 0.950 . S
C1893 C1891 1.387 . S
C1893 C1895 1.390 . S
C1893 H1897 0.950 . S
H1894 C1890 0.950 . S
C1895 C1893 1.390 . S
C1895 C1896 1.387 . S
C1895 H1898 0.950 . S
C1896 C1895 1.387 . S
C1896 C1899 1.387 . S
H1897 C1893 0.950 . S
H1898 C1895 0.950 . S
C1899 C1890 1.390 . S
C1899 H1892 0.950 . S
C1899 C1896 1.387 . S
C1900 C1901 1.387 . S
C1900 H1904 0.950 . S
C1900 C1909 1.390 . S
C1901 C1900 1.387 . S
C1901 C1903 1.387 . S
H1902 C1909 0.950 . S
C1903 C1901 1.387 . S
C1903 C1905 1.390 . S
C1903 H1907 0.950 . S
H1904 C1900 0.950 . S
C1905 C1903 1.390 . S
C1905 C1906 1.387 . S
C1905 H1908 0.950 . S
C1906 C1905 1.387 . S
C1906 C1909 1.387 . S
H1907 C1903 0.950 . S
H1908 C1905 0.950 . S
C1909 C1900 1.390 . S
C1909 H1902 0.950 . S
C1909 C1906 1.387 . S
C1910 C1911 1.387 . S
C1910 H1914 0.950 . S
C1910 C1919 1.390 . S
C1911 C1910 1.387 . S
C1911 C1913 1.387 . S
H1912 C1919 0.950 . S
C1913 C1911 1.387 . S
C1913 C1915 1.390 . S
C1913 H1917 0.950 . S
H1914 C1910 0.950 . S
C1915 C1913 1.390 . S
C1915 C1916 1.387 . S
C1915 H1918 0.950 . S
C1916 C1915 1.387 . S
C1916 C1919 1.387 . S
H1917 C1913 0.950 . S
H1918 C1915 0.950 . S
C1919 C1910 1.390 . S
C1919 H1912 0.950 . S
C1919 C1916 1.387 . S
C1920 C1921 1.387 . S
C1920 H1924 0.950 . S
C1920 C1929 1.390 . S
C1921 C1920 1.387 . S
C1921 C1923 1.387 . S
H1922 C1929 0.950 . S
C1923 C1921 1.387 . S
C1923 C1925 1.390 . S
C1923 H1927 0.950 . S
H1924 C1920 0.950 . S
C1925 C1923 1.390 . S
C1925 C1926 1.387 . S
C1925 H1928 0.950 . S
C1926 C1925 1.387 . S
C1926 C1929 1.387 . S
H1927 C1923 0.950 . S
H1928 C1925 0.950 . S
C1929 C1920 1.390 . S
C1929 H1922 0.950 . S
C1929 C1926 1.387 . S
C1930 C1931 1.387 . S
C1930 H1934 0.950 . S
C1930 C1939 1.390 . S
C1931 C1930 1.387 . S
C1931 C1933 1.387 . S
H1932 C1939 0.950 . S
C1933 C1931 1.387 . S
C1933 C1935 1.390 . S
C1933 H1937 0.950 . S
H1934 C1930 0.950 . S
C1935 C1933 1.390 . S
C1935 C1936 1.387 . S
C1935 H1938 0.950 . S
C1936 C1935 1.387 . S
C1936 C1939 1.387 . S
H1937 C1933 0.950 . S
H1938 C1935 0.950 . S
C1939 C1930 1.390 . S
C1939 H1932 0.950 . S
C1939 C1936 1.387 . S
C1940 C1941 1.387 . S
C1940 H1944 0.950 . S
C1940 C1949 1.390 . S
C1941 C1940 1.387 . S
C1941 C1943 1.387 . S
H1942 C1949 0.950 . S
C1943 C1941 1.387 . S
C1943 C1945 1.390 . S
C1943 H1947 0.950 . S
H1944 C1940 0.950 . S
C1945 C1943 1.390 . S
C1945 C1946 1.387 . S
C1945 H1948 0.950 . S
C1946 C1945 1.387 . S
C1946 C1949 1.387 . S
H1947 C1943 0.950 . S
H1948 C1945 0.950 . S
C1949 C1940 1.390 . S
C1949 H1942 0.950 . S
C1949 C1946 1.387 . S
C1950 C1951 1.387 . S
C1950 H1954 0.950 . S
C1950 C1959 1.390 . S
C1951 C1950 1.387 . S
C1951 C1953 1.387 . S
H1952 C1959 0.950 . S
C1953 C1951 1.387 . S
C1953 C1955 1.390 . S
C1953 H1957 0.950 . S
H1954 C1950 0.950 . S
C1955 C1953 1.390 . S
C1955 C1956 1.387 . S
C1955 H1958 0.950 . S
C1956 C1955 1.387 . S
C1956 C1959 1.387 . S
H1957 C1953 0.950 . S
H1958 C1955 0.950 . S
C1959 C1950 1.390 . S
C1959 H1952 0.950 . S
C1959 C1956 1.387 . S
C1960 C1961 1.387 . S
C1960 H1964 0.950 . S
C1960 C1969 1.390 . S
C1961 C1960 1.387 . S
C1961 C1963 1.387 . S
H1962 C1969 0.950 . S
C1963 C1961 1.387 . S
C1963 C1965 1.390 . S
C1963 H1967 0.950 . S
H1964 C1960 0.950 . S
C1965 C1963 1.390 . S
C1965 C1966 1.387 . S
C1965 H1968 0.950 . S
C1966 C1965 1.387 . S
C1966 C1969 1.387 . S
H1967 C1963 0.950 . S
H1968 C1965 0.950 . S
C1969 C1960 1.390 . S
C1969 H1962 0.950 . S
C1969 C1966 1.387 . S
C1970 C1971 1.387 . S
C1970 H1974 0.950 . S
C1970 C1979 1.390 . S
C1971 C1970 1.387 . S
C1971 C1973 1.387 . S
H1972 C1979 0.950 . S
C1973 C1971 1.387 . S
C1973 C1975 1.390 . S
C1973 H1977 0.950 . S
H1974 C1970 0.950 . S
C1975 C1973 1.390 . S
C1975 C1976 1.387 . S
C1975 H1978 0.950 . S
C1976 C1975 1.387 . S
C1976 C1979 1.387 . S
H1977 C1973 0.950 . S
H1978 C1975 0.950 . S
C1979 C1970 1.390 . S
C1979 H1972 0.950 . S
C1979 C1976 1.387 . S
C1980 C1981 1.387 . S
C1980 H1984 0.950 . S
C1980 C1989 1.390 . S
C1981 C1980 1.387 . S
C1981 C1983 1.387 . S
H1982 C1989 0.950 . S
C1983 C1981 1.387 . S
C1983 C1985 1.390 . S
C1983 H1987 0.950 . S
H1984 C1980 0.950 . S
C1985 C1983 1.390 . S
C1985 C1986 1.387 . S
C1985 H1988 0.950 . S
C1986 C1985 1.387 . S
C1986 C1989 1.387 . S
H1987 C1983 0.950 . S
H1988 C1985 0.950 . S
C1989 C1980 1.390 . S
C1989 H1982 0.950 . S
C1989 C1986 1.387 . S
C1990 C1991 1.387 . S
C1990 H1994 0.950 . S
C1990 C1999 1.390 . S
C1991 C1990 1.387 . S
C1991 C1993 1.387 . S
H1992 C1999 0.950 . S
C1993 C1991 1.387 . S
C1993 C1995 1.390 . S
C1993 H1997 0.950 . S
H1994 C1990 0.950 . S
C1995 C1993 1.390 . S
C1995 C1996 1.387 . S
C1995 H1998 0.950 . S
C1996 C1995 1.387 . S
C1996 C1999 1.387 . S
H1997 C1993 0.950 . S
H1998 C1995 0.950 . S
C1999 C1990 1.390 . S
C1999 H1992 0.950 . S
C1999 C1996 1.387 . S
C2000 C2001 1.387 . S
C2000 H2004 0.950 . S
C2000 C2009 1.390 . S
C2001 C2000 1.387 . S
C2001 C2003 1.387 . S
H2002 C2009 0.950 . S
C2003 C2001 1.387 . S
C2003 C2005 1.390 . S
C2003 H2007 0.950 . S
H2004 C2000 0.950 . S
C2005 C2003 1.390 . S
C2005 C2006 1.387 . S
C2005 H2008 0.950 . S
C2006 C2005 1.387 . S
C2006 C2009 1.387 . S
H2007 C2003 0.950 . S
H2008 C2005 0.950 . S
C2009 C2000 1.390 . S
C2009 H2002 0.950 . S
C2009 C2006 1.387 . S
C2010 C2011 1.387 . S
C2010 H2014 0.950 . S
C2010 C2019 1.390 . S
C2011 C2010 1.387 . S
C2011 C2013 1.387 . S
H2012 C2019 0.950 . S
C2013 C2011 1.387 . S
C2013 C2015 1.390 . S
C2013 H2017 0.950 . S
H2014 C2010 0.950 . S
C2015 C2013 1.390 . S
C2015 C2016 1.387 . S
C2015 H2018 0.950 . S
C2016 C2015 1.387 . S
C2016 C2019 1.387 . S
H2017 C2013 0.950 . S
H2018 C2015 0.950 . S
C2019 C2010 1.390 . S
C2019 H2012 0.950 . S
C2019 C2016 1.387 . S
C2020 C2021 1.387 . S
C2020 H2024 0.950 . S
C2020 C2029 1.390 . S
C2021 C2020 1.387 . S
C2021 C2023 1.387 . S
H2022 C2029 0.950 . S
C2023 C2021 1.387 . S
C2023 C2025 1.390 . S
C2023 H2027 0.950 . S
H2024 C2020 0.950 . S
C2025 C2023 1.390 . S
C2025 C2026 1.387 . S
C2025 H2028 0.950 . S
C2026 C2025 1.387 . S
C2026 C2029 1.387 . S
H2027 C2023 0.950 . S
H2028 C2025 0.950 . S
C2029 C2020 1.390 . S
C2029 H2022 0.950 . S
C2029 C2026 1.387 . S
C2030 C2031 1.387 . S
C2030 H2034 0.950 . S
C2030 C2039 1.390 . S
C2031 C2030 1.387 . S
C2031 C2033 1.387 . S
H2032 C2039 0.950 . S
C2033 C2031 1.387 . S
C2033 C2035 1.390 . S
C2033 H2037 0.950 . S
H2034 C2030 0.950 . S
C2035 C2033 1.390 . S
C2035 C2036 1.387 . S
C2035 H2038 0.950 . S
C2036 C2035 1.387 . S
C2036 C2039 1.387 . S
H2037 C2033 0.950 . S
H2038 C2035 0.950 . S
C2039 C2030 1.390 . S
C2039 H2032 0.950 . S
C2039 C2036 1.387 . S
C2040 C2041 1.387 . S
C2040 H2044 0.950 . S
C2040 C2049 1.390 . S
C2041 C2040 1.387 . S
C2041 C2043 1.387 . S
H2042 C2049 0.950 . S
C2043 C2041 1.387 . S
C2043 C2045 1.390 . S
C2043 H2047 0.950 . S
H2044 C2040 0.950 . S
C2045 C2043 1.390 . S
C2045 C2046 1.387 . S
C2045 H2048 0.950 . S
C2046 C2045 1.387 . S
C2046 C2049 1.387 . S
H2047 C2043 0.950 . S
H2048 C2045 0.950 . S
C2049 C2040 1.390 . S
C2049 H2042 0.950 . S
C2049 C2046 1.387 . S
C2050 C2051 1.387 . S
C2050 H2054 0.950 . S
C2050 C2059 1.390 . S
C2051 C2050 1.387 . S
C2051 C2053 1.387 . S
H2052 C2059 0.950 . S
C2053 C2051 1.387 . S
C2053 C2055 1.390 . S
C2053 H2057 0.950 . S
H2054 C2050 0.950 . S
C2055 C2053 1.390 . S
C2055 C2056 1.387 . S
C2055 H2058 0.950 . S
C2056 C2055 1.387 . S
C2056 C2059 1.387 . S
H2057 C2053 0.950 . S
H2058 C2055 0.950 . S
C2059 C2050 1.390 . S
C2059 H2052 0.950 . S
C2059 C2056 1.387 . S
C2060 C2061 1.387 . S
C2060 H2064 0.950 . S
C2060 C2069 1.390 . S
C2061 C2060 1.387 . S
C2061 C2063 1.387 . S
H2062 C2069 0.950 . S
C2063 C2061 1.387 . S
C2063 C2065 1.390 . S
C2063 H2067 0.950 . S
H2064 C2060 0.950 . S
C2065 C2063 1.390 . S
C2065 C2066 1.387 . S
C2065 H2068 0.950 . S
C2066 C2065 1.387 . S
C2066 C2069 1.387 . S
H2067 C2063 0.950 . S
H2068 C2065 0.950 . S
C2069 C2060 1.390 . S
C2069 H2062 0.950 . S
C2069 C2066 1.387 . S
C2070 C2071 1.387 . S
C2070 H2074 0.950 . S
C2070 C2079 1.390 . S
C2071 C2070 1.387 . S
C2071 C2073 1.387 . S
H2072 C2079 0.950 . S
C2073 C2071 1.387 . S
C2073 C2075 1.390 . S
C2073 H2077 0.950 . S
H2074 C2070 0.950 . S
C2075 C2073 1.390 . S
C2075 C2076 1.387 . S
C2075 H2078 0.950 . S
C2076 C2075 1.387 . S
C2076 C2079 1.387 . S
H2077 C2073 0.950 . S
H2078 C2075 0.950 . S
C2079 C2070 1.390 . S
C2079 H2072 0.950 . S
C2079 C2076 1.387 . S
C2080 C2081 1.387 . S
C2080 H2084 0.950 . S
C2080 C2089 1.390 . S
C2081 C2080 1.387 . S
C2081 C2083 1.387 . S
H2082 C2089 0.950 . S
C2083 C2081 1.387 . S
C2083 C2085 1.390 . S
C2083 H2087 0.950 . S
H2084 C2080 0.950 . S
C2085 C2083 1.390 . S
C2085 C2086 1.387 . S
C2085 H2088 0.950 . S
C2086 C2085 1.387 . S
C2086 C2089 1.387 . S
H2087 C2083 0.950 . S
H2088 C2085 0.950 . S
C2089 C2080 1.390 . S
C2089 H2082 0.950 . S
C2089 C2086 1.387 . S
C2090 C2091 1.387 . S
C2090 H2094 0.950 . S
C2090 C2099 1.390 . S
C2091 C2090 1.387 . S
C2091 C2093 1.387 . S
H2092 C2099 0.950 . S
C2093 C2091 1.387 . S
C2093 C2095 1.390 . S
C2093 H2097 0.950 . S
H2094 C2090 0.950 . S
C2095 C2093 1.390 . S
C2095 C2096 1.387 . S
C2095 H2098 0.950 . S
C2096 C2095 1.387 . S
C2096 C2099 1.387 . S
H2097 C2093 0.950 . S
H2098 C2095 0.950 . S
C2099 C2090 1.390 . S
C2099 H2092 0.950 . S
C2099 C2096 1.387 . S
C2100 C2101 1.387 . S
C2100 H2104 0.950 . S
C2100 C2109 1.390 . S
C2101 C2100 1.387 . S
C2101 C2103 1.387 . S
H2102 C2109 0.950 . S
C2103 C2101 1.387 . S
C2103 C2105 1.390 . S
C2103 H2107 0.950 . S
H2104 C2100 0.950 . S
C2105 C2103 1.390 . S
C2105 C2106 1.387 . S
C2105 H2108 0.950 . S
C2106 C2105 1.387 . S
C2106 C2109 1.387 . S
H2107 C2103 0.950 . S
H2108 C2105 0.950 . S
C2109 C2100 1.390 . S
C2109 H2102 0.950 . S
C2109 C2106 1.387 . S
C2110 C2111 1.387 . S
C2110 H2114 0.950 . S
C2110 C2119 1.390 . S
C2111 C2110 1.387 . S
C2111 C2113 1.387 . S
H2112 C2119 0.950 . S
C2113 C2111 1.387 . S
C2113 C2115 1.390 . S
C2113 H2117 0.950 . S
H2114 C2110 0.950 . S
C2115 C2113 1.390 . S
C2115 C2116 1.387 . S
C2115 H2118 0.950 . S
C2116 C2115 1.387 . S
C2116 C2119 1.387 . S
H2117 C2113 0.950 . S
H2118 C2115 0.950 . S
C2119 C2110 1.390 . S
C2119 H2112 0.950 . S
C2119 C2116 1.387 . S
C1166 N620 2.058 . S
C1161 C6 2.149 . S
C1176 C647 1.499 . S
C1171 C30 1.532 . S
C1181 C44 1.946 . S
C1186 C661 1.939 . S
C1196 N679 1.023 . S
C1191 C68 1.058 . S
C1201 C87 1.208 . S
C1206 C684 1.172 . S
C1211 C97 2.092 . S
C1216 C624 2.062 . S
C1221 C125 1.168 . S
C1226 N643 1.268 . S
C1236 N656 2.112 . S
C1231 C139 2.118 . S
C1246 N702 1.639 . S
C1241 C11 1.683 . S
C1251 C25 1.519 . S
C1256 N725 1.504 . S
C1261 C40 1.785 . S
C1266 N748 1.831 . S
C1276 N781 1.233 . S
C1271 C59 1.274 . S
C1281 C82 1.476 . S
C1286 C808 1.481 . S
C1296 C831 1.920 . S
C1291 C101 1.920 . S
C1301 C116 1.054 . S
C1306 C854 1.079 . S
C1316 C868 1.798 1_565 S
C1311 C144 1.703 . S
C1321 C2 1.860 . S
C1326 C785 1.860 . S
C1331 C78 1.279 . S
C1336 N827 1.268 . S
C1346 N850 1.675 . S
C1341 C106 1.627 . S
C1351 C120 1.337 . S
C1356 N863 1.304 . S
C1366 N804 1.811 . S
C1361 C135 1.827 . S
C1376 C730 1.943 . S
C1371 C49 1.794 . S
C1381 C63 1.347 . S
C1386 C753 1.338 . S
C1396 C707 1.396 . S
C1391 C21 1.355 . S
C1406 C900 2.189 . S
C1401 C158 2.186 . S
C1411 C182 1.297 . S
C1416 C914 1.260 . S
C1421 C196 1.909 . S
C1426 N942 1.872 . S
C1436 N955 1.049 . S
C1431 C220 1.120 . S
C1441 C239 1.386 . S
C1446 C960 1.316 . S
C1451 C249 1.981 . S
C1456 N896 1.981 . S
C1461 C277 1.082 . S
C1466 N909 1.140 . S
C1471 C291 2.021 . S
C1476 C946 2.024 . S
C1486 N794 1.680 . S
C1481 C163 1.689 . S
C1491 C177 1.376 . S
C1496 N978 1.352 . S
C1506 N840 1.767 . S
C1501 C192 1.728 . S
C1511 C211 1.204 . S
C1516 C1015 1.203 . S
C1521 C234 1.720 . S
C1526 C716 1.701 . S
C1536 C1029 1.997 . S
C1531 C253 1.994 . S
C1541 C268 1.182 . S
C1546 C762 1.189 . S
C1556 N1047 1.675 . S
C1551 C296 1.627 . S
C1561 C154 1.770 . S
C1566 N1011 1.734 . S
C1576 N1024 1.287 . S
C1571 C230 1.298 . S
C1581 C258 1.640 . S
C1586 N758 1.674 . S
C1596 C1052 1.238 . S
C1591 C272 1.237 . S
C1601 C287 1.788 . S
C1606 N712 1.787 . S
C1611 C201 1.697 . S
C1616 C983 1.840 . S
C1621 C215 1.467 . S
C1626 C845 1.450 . S
C1631 C173 1.232 . S
C1636 C799 1.278 . S
C1641 C310 2.193 . S
C1646 C937 2.169 . S
C1656 C969 1.377 . S
C1651 C334 1.392 . S
C1661 C348 1.885 . S
C1666 N886 1.777 . S
C1671 C372 1.059 . S
C1676 N919 1.068 . S
C1681 C391 1.238 . S
C1686 C923 1.235 . S
C1691 C401 2.125 . S
C1696 N932 2.033 . S
C1706 N965 1.186 . S
C1701 C429 1.124 . S
C1711 C443 2.158 . S
C1716 C891 2.117 . S
C1726 N1080 1.725 . S
C1721 C315 1.771 . S
C1731 C329 1.378 . S
C1736 N817 1.364 . S
C1746 N1103 1.689 . S
C1741 C344 1.691 . S
C1751 C363 1.265 . S
C1756 N873 1.227 . S
C1761 C386 1.569 . S
C1766 C1121 1.542 . S
C1771 C405 2.008 . S
C1776 C739 2.002 . S
C1786 N1139 1.139 . S
C1781 C420 1.195 . S
C1791 C448 1.722 . S
C1796 C776 1.825 . S
C1806 C877 1.889 . S
C1801 C306 1.890 . S
C1816 N735 1.325 . S
C1811 C382 1.347 . S
C1821 C410 1.725 . S
C1826 C1144 1.856 . S
C1831 C424 1.259 . S
C1836 N771 1.221 . S
C1846 N1116 1.784 . S
C1841 C439 1.816 . S
C1856 C822 1.863 . S
C1851 C353 1.739 . S
C1866 C1107 1.337 . S
C1861 C367 1.349 . S
C1876 C1084 1.337 . S
C1871 C325 1.262 . S
C1881 C462 2.136 . S
C1886 N666 2.038 . S
C1891 C486 1.296 . S
C1896 C693 1.277 . S
C1906 C615 1.957 . S
C1901 C500 1.972 . S
C1916 N633 1.047 . S
C1911 C524 1.125 . S
C1926 C638 1.397 . S
C1921 C543 1.491 . S
C1936 C670 1.982 . S
C1931 C553 2.013 . S
C1946 N689 1.184 . S
C1941 C581 1.061 . S
C1951 C595 2.093 . S
C1956 N610 2.087 . S
C1961 C467 1.651 . S
C1966 N1126 1.624 . S
C1976 N1034 1.313 . S
C1971 C481 1.347 . S
C1986 C1153 1.955 . S
C1981 C496 1.894 . S
C1996 C1061 0.997 . S
C1991 C515 0.994 . S
C2001 C538 1.711 . S
C2006 C1075 1.676 . S
C2016 C992 1.927 . S
C2011 C557 1.930 . S
C2026 C1098 1.224 . S
C2021 C572 1.213 . S
C2031 C600 1.679 . S
C2036 N1001 1.708 . S
C2046 N1057 1.698 . S
C2041 C458 1.722 . S
C2056 N988 1.233 . S
C2051 C534 1.236 . S
C2066 N1093 1.668 . S
C2061 C562 1.575 . S
C2071 C576 1.281 . S
C2076 C1006 1.282 . S
C2081 C591 1.828 . S
C2086 N1070 1.806 . S
C2091 C505 1.819 . S
C2096 C1038 1.966 . S
C2101 C519 1.506 . S
C2106 N1149 1.478 . S
C2116 C1130 1.316 . S
C2111 C477 1.263 . S
