# Generated by pormake.
# Topology tsx, (6,3)-cn, num edge types: 1
# Building blocks:
#     Node 0, Type 0, BuildingBlock: MIDCAF_clean_sbu_0, # of connection points: 6
#     Node 1, Type 0, BuildingBlock: MIDCAF_clean_sbu_0, # of connection points: 6
#     Node 2, Type 1, BuildingBlock: BETDIP_clean_linker_0, # of connection points: 3
#     Node 3, Type 1, BuildingBlock: BETDIP_clean_linker_0, # of connection points: 3
#     Node 4, Type 1, BuildingBlock: BETDIP_clean_linker_0, # of connection points: 3
#     Node 5, Type 1, BuildingBlock: BETDIP_clean_linker_0, # of connection points: 3
#     Edge 6, Type (0, 1), BuildingBlock: EZIPEK_clean_linker_0, # of connection points: 2
#     Edge 7, Type (0, 1), BuildingBlock: EZIPEK_clean_linker_0, # of connection points: 2
#     Edge 8, Type (0, 1), BuildingBlock: EZIPEK_clean_linker_0, # of connection points: 2
#     Edge 9, Type (0, 1), BuildingBlock: EZIPEK_clean_linker_0, # of connection points: 2
#     Edge 10, Type (0, 1), BuildingBlock: EZIPEK_clean_linker_0, # of connection points: 2
#     Edge 11, Type (0, 1), BuildingBlock: EZIPEK_clean_linker_0, # of connection points: 2
#     Edge 12, Type (0, 1), BuildingBlock: EZIPEK_clean_linker_0, # of connection points: 2
#     Edge 13, Type (0, 1), BuildingBlock: EZIPEK_clean_linker_0, # of connection points: 2
#     Edge 14, Type (0, 1), BuildingBlock: EZIPEK_clean_linker_0, # of connection points: 2
#     Edge 15, Type (0, 1), BuildingBlock: EZIPEK_clean_linker_0, # of connection points: 2
#     Edge 16, Type (0, 1), BuildingBlock: EZIPEK_clean_linker_0, # of connection points: 2
#     Edge 17, Type (0, 1), BuildingBlock: EZIPEK_clean_linker_0, # of connection points: 2
# Relax obj value: 0.080
# Max RMSD: 0.147
# Mean RMSD: 0.109
data_MOF--net-tsx--node1-MIDCAF_clean_sbu_0--node2-BETDIP_clean_linker_0--edge1-EZIPEK_clean_linker_0
_symmetry_space_group_name_H-M    P1
_symmetry_Int_Tables_number       1
_symmetry_cell_setting            triclinic
loop_
_symmetry_equiv_pos_as_xyz
'x, y, z'
_cell_length_a     14.676393
_cell_length_b     15.590486
_cell_length_c     26.050638
_cell_angle_alpha  90.565732
_cell_angle_beta   105.95538
_cell_angle_gamma 89.807937
loop_
_atom_site_label
_atom_site_type_symbol
_atom_site_fract_x
_atom_site_fract_y
_atom_site_fract_z
_atom_type_partial_charge
Zn0 Zn 0.91863 0.9308 0.94299 0.0
Zn1 Zn 0.21624 0.90948 0.07065 0.0
Zn2 Zn 0.07031 0.9351 0.00203 0.0
C3 C 0.22162 0.07543 0.0307 0.0
C4 C 0.22021 0.79267 -0.00625 0.0
O5 O 0.9703 0.85863 0.03418 0.0
O6 O 0.86464 0.82384 0.95874 0.0
C7 C 0.94261 0.09331 0.97993 0.0
O8 O 0.13164 0.06389 0.01307 0.0
O9 O 0.27448 0.01445 0.05257 0.0
O10 O 0.25378 0.80104 0.04363 0.0
O11 O 0.15447 0.84383 0.96818 0.0
O12 O 0.87951 0.03666 0.9745 0.0
O13 O 0.02865 0.06984 0.98462 0.0
O14 O 0.09182 0.88572 0.92643 0.0
O15 O 0.95918 0.94099 0.87663 0.0
C16 C 0.04053 0.91069 0.88053 0.0
O17 O 0.03627 0.89481 0.07671 0.0
O18 O 0.1745 0.91301 0.13632 0.0
C19 C 0.89861 0.81325 0.00824 0.0
C20 C 0.08648 0.90089 0.1258 0.0
Zn21 Zn 0.72064 0.57381 0.55451 0.0
Zn22 Zn 0.3768 0.58344 0.42908 0.0
Zn23 Zn 0.54761 0.57894 0.49481 0.0
C24 C 0.49599 0.51361 0.37416 0.0
C25 C 0.42302 0.75074 0.46562 0.0
O26 O 0.53781 0.52273 0.56761 0.0
O27 O 0.68123 0.55319 0.61969 0.0
C28 C 0.71926 0.45787 0.47644 0.0
O29 O 0.5542 0.51727 0.42104 0.0
O30 O 0.41345 0.54423 0.36521 0.0
O31 O 0.35405 0.70587 0.43967 0.0
O32 O 0.50462 0.71613 0.48625 0.0
O33 O 0.77158 0.47658 0.52221 0.0
O34 O 0.638 0.49488 0.4584 0.0
O35 O 0.60201 0.71359 0.50662 0.0
O36 O 0.75575 0.69096 0.54038 0.0
C37 C 0.68788 0.74183 0.522 0.0
O38 O 0.45023 0.50458 0.53129 0.0
O39 O 0.31668 0.5006 0.46621 0.0
C40 C 0.59835 0.52533 0.61367 0.0
C41 C 0.36445 0.47733 0.512 0.0
H42 H 0.13287 0.08636 0.47309 0.0
H43 H 0.92369 0.05385 0.32123 0.0
H44 H 0.18642 0.91793 0.35276 0.0
H45 H 0.88094 0.18499 0.3383 0.0
C46 C 0.89117 0.18883 0.38109 0.0
C47 C 0.10953 0.05565 0.43423 0.0
C48 C 0.16828 -0.00483 0.4185 0.0
C49 C 0.0209 0.07757 0.39956 0.0
C50 C 0.9917 0.03884 0.34857 0.0
C51 C 0.05345 0.98477 0.33078 0.0
C52 C 0.13974 0.96127 0.36636 0.0
N53 N 0.96433 0.14048 0.41635 0.0
H54 H 0.96377 0.0904 0.52812 0.0
H55 H 0.17075 0.09083 0.68144 0.0
H56 H 0.92563 0.92799 0.65323 0.0
H57 H 0.13587 0.25497 0.64364 0.0
C58 C 0.15731 0.23779 0.60819 0.0
C59 C 0.98838 0.06587 0.56836 0.0
C60 C 0.93608 0.00243 0.5857 0.0
C61 C 0.07325 0.09725 0.60262 0.0
C62 C 0.10499 0.06683 0.65515 0.0
C63 C 0.0504 0.00736 0.67421 0.0
C64 C 0.96709 0.97492 0.63895 0.0
N65 N 0.12737 0.15741 0.58295 0.0
H66 H 0.61902 0.35663 0.96526 0.0
H67 H 0.45035 0.48224 0.82474 0.0
H68 H 0.72163 0.38114 0.8261 0.0
H69 H 0.50637 0.59461 0.90366 0.0
C70 C 0.46077 0.55921 0.92257 0.0
C71 C 0.60931 0.37723 0.92466 0.0
C72 C 0.67885 0.35787 0.89792 0.0
C73 C 0.52985 0.42732 0.89922 0.0
C74 C 0.51378 0.44752 0.84539 0.0
C75 C 0.58285 0.43062 0.81953 0.0
C76 C 0.66701 0.39046 0.84647 0.0
N77 N 0.47383 0.46881 0.92849 0.0
H78 H 0.54829 0.37103 0.03203 0.0
H79 H 0.69336 0.47488 0.18589 0.0
H80 H 0.45981 0.30307 0.17036 0.0
H81 H 0.64592 0.59593 0.12217 0.0
C82 C 0.6863 0.57125 0.09597 0.0
C83 C 0.55995 0.37233 0.0748 0.0
C84 C 0.49924 0.32602 0.09771 0.0
C85 C 0.63072 0.42525 0.10662 0.0
C86 C 0.64182 0.43083 0.16159 0.0
C87 C 0.57769 0.38977 0.18395 0.0
C88 C 0.5099 0.33409 0.15275 0.0
N89 N 0.68061 0.48244 0.08236 0.0
C90 C 0.35307 0.15132 0.00921 0.0
C91 C 0.26968 0.15738 0.02642 0.0
C92 C 0.32451 0.29551 0.0683 0.0
C93 C 0.41726 0.27631 0.06433 0.0
N94 N 0.52055 0.18198 0.03143 0.0
N95 N 0.17317 0.238 0.07102 0.0
C96 C 0.43153 0.20448 0.03354 0.0
C97 C 0.25311 0.23158 0.05422 0.0
N98 N 0.35831 0.09131 0.9716 0.0
N99 N 0.30544 0.37414 0.08647 0.0
H100 H 0.11888 0.19322 0.06042 0.0
H101 H 0.16305 0.28515 0.09754 0.0
H102 H 0.35674 0.42182 0.09794 0.0
H103 H 0.23731 0.39445 0.08554 0.0
H104 H 0.41403 0.08829 0.95402 0.0
H105 H 0.302 0.05014 0.95448 0.0
H106 H 0.53531 0.12483 0.01425 0.0
H107 H 0.58132 0.21613 0.05074 0.0
C108 C 0.29237 0.74158 0.92094 0.0
C109 C 0.2607 0.72455 0.96665 0.0
C110 C 0.35675 0.59452 0.98285 0.0
C111 C 0.38211 0.60738 0.9349 0.0
N112 N 0.3479 0.67905 0.8498 0.0
N113 N 0.23695 0.61856 0.02883 0.0
C114 C 0.34044 0.67587 0.90086 0.0
C115 C 0.28356 0.64505 -0.00689 0.0
N116 N 0.28546 0.82175 0.89955 0.0
N117 N 0.40802 0.54137 0.02132 0.0
H118 H 0.18018 0.65282 0.03579 0.0
H119 H 0.24816 0.55832 0.04658 0.0
H120 H 0.46773 0.5086 0.0178 0.0
H121 H 0.39864 0.54012 0.05951 0.0
H122 H 0.31541 0.83778 0.86898 0.0
H123 H 0.26012 0.87464 0.91602 0.0
H124 H 0.31205 0.72441 0.82239 0.0
H125 H 0.38085 0.63085 0.83329 0.0
C126 C 0.83112 0.76731 0.08324 0.0
C127 C 0.85403 0.74867 0.0348 0.0
C128 C 0.75416 0.62184 0.02269 0.0
C129 C 0.74516 0.63157 0.07513 0.0
N130 N 0.79474 0.70653 0.16019 0.0
N131 N 0.85851 0.64222 0.96712 0.0
C132 C 0.79012 0.70193 0.10716 0.0
C133 C 0.8228 0.67056 0.00744 0.0
N134 N 0.84058 0.84838 0.10423 0.0
N135 N 0.6923 0.57247 0.98568 0.0
H136 H 0.91371 0.67336 0.95681 0.0
H137 H 0.84064 0.58253 0.94866 0.0
H138 H 0.63515 0.54154 -0.00633 0.0
H139 H 0.69222 0.57048 0.94561 0.0
H140 H 0.81728 0.86559 0.13729 0.0
H141 H 0.86104 0.90036 0.08518 0.0
H142 H 0.834 0.75348 0.18555 0.0
H143 H 0.76813 0.65879 0.17983 0.0
C144 C 0.88322 0.23976 -0.00401 0.0
C145 C 0.90711 0.17914 0.96101 0.0
C146 C 0.78247 0.23489 0.88715 0.0
C147 C 0.76127 0.29957 0.92069 0.0
N148 N 0.81428 0.37864 0.00381 0.0
N149 N 0.90262 0.1407 0.87086 0.0
C150 C 0.81867 0.30694 0.97432 0.0
C151 C 0.86515 0.18507 0.90557 0.0
N152 N 0.91931 0.23148 0.04973 0.0
N153 N 0.71878 0.21812 0.83918 0.0
H154 H 0.96445 0.10494 0.88423 0.0
H155 H 0.87919 0.14802 0.82957 0.0
H156 H 0.7246 0.16717 0.814 0.0
H157 H 0.7246 0.16717 0.814 0.0
H158 H 0.89629 0.26817 0.07744 0.0
H159 H 0.96876 0.18427 0.06599 0.0
H160 H 0.85957 0.38971 0.04179 0.0
H161 H 0.77293 0.43098 0.98749 0.0
C162 C 0.70058 0.89405 0.555 0.0
C163 C 0.71258 0.83274 0.51709 0.0
C164 C 0.85127 0.90881 0.50648 0.0
C165 C 0.84777 0.96326 0.55011 0.0
N166 N 0.74977 0.03134 0.59888 0.0
N167 N 0.7692 0.80267 0.44107 0.0
C168 C 0.76469 0.96437 0.56805 0.0
C169 C 0.7771 0.84865 0.48694 0.0
N170 N 0.63312 0.8814 0.58121 0.0
N171 N 0.92823 0.90892 0.48669 0.0
H172 H 0.71505 0.75778 0.42724 0.0
H173 H 0.80932 0.81499 0.41461 0.0
H174 H 0.98306 0.9528 0.49856 0.0
H175 H 0.93967 0.86304 0.4598 0.0
H176 H 0.62766 0.91844 0.61371 0.0
H177 H 0.58425 0.83137 0.57111 0.0
H178 H 0.68788 0.03915 0.61061 0.0
H179 H 0.79641 0.08326 0.60822 0.0
C180 C 0.75234 0.30219 0.46579 0.0
C181 C 0.74983 0.38734 0.44646 0.0
C182 C 0.83814 0.34214 0.38355 0.0
C183 C 0.83957 0.25662 0.40233 0.0
N184 N 0.7792 0.15119 0.45169 0.0
N185 N 0.77216 0.48574 0.38035 0.0
C186 C 0.79139 0.23541 0.44082 0.0
C187 C 0.78646 0.4063 0.40295 0.0
N188 N 0.71804 0.28539 0.50846 0.0
N189 N 0.891 0.36331 0.3497 0.0
H190 H 0.73746 0.535 0.39479 0.0
H191 H 0.78703 0.50062 0.34462 0.0
H192 H 0.9316 0.31905 0.33533 0.0
H193 H 0.9013 0.42607 0.33924 0.0
H194 H 0.72908 0.22768 0.52905 0.0
H195 H 0.68199 0.33091 0.5251 0.0
H196 H 0.73702 0.13091 0.47548 0.0
H197 H 0.80431 0.10043 0.43303 0.0
C198 C 0.31653 0.42597 0.5934 0.0
C199 C 0.32083 0.41319 0.5401 0.0
C200 C 0.20352 0.29898 0.52922 0.0
C201 C 0.212 0.30031 0.58481 0.0
N202 N 0.29263 0.3588 0.67206 0.0
N203 N 0.28779 0.3185 0.46297 0.0
C204 C 0.27351 0.36185 0.61776 0.0
C205 C 0.27105 0.34322 0.51 0.0
N206 N 0.34788 0.5009 0.61977 0.0
N207 N 0.12669 0.26292 0.49376 0.0
H208 H 0.34047 0.34633 0.44864 0.0
H209 H 0.25677 0.26388 0.4419 0.0
H210 H 0.06735 0.24224 0.50477 0.0
H211 H 0.11591 0.26636 0.45254 0.0
H212 H 0.33819 0.51632 0.65694 0.0
H213 H 0.37539 0.55092 0.60236 0.0
H214 H 0.34234 0.39867 0.69746 0.0
H215 H 0.26625 0.31137 0.69195 0.0
C216 C 0.40909 0.90561 0.44214 0.0
C217 C 0.40176 0.84004 0.47764 0.0
C218 C 0.2664 0.91098 0.49706 0.0
C219 C 0.26212 0.967 0.45374 0.0
N220 N 0.34875 0.0425 0.40251 0.0
N221 N 0.35462 0.79919 0.55476 0.0
C222 C 0.34178 0.9736 0.43307 0.0
C223 C 0.34168 0.85058 0.51122 0.0
N224 N 0.47545 0.89876 0.41454 0.0
N225 N 0.19546 0.91075 0.5216 0.0
H226 H 0.40953 0.75422 0.56438 0.0
H227 H 0.31749 0.80613 0.58333 0.0
H228 H 0.14342 0.95775 0.51499 0.0
H229 H 0.1878 0.86394 0.54832 0.0
H230 H 0.47921 0.93972 0.38388 0.0
H231 H 0.52606 0.84983 0.42233 0.0
H232 H 0.40683 0.05397 0.38793 0.0
H233 H 0.29863 0.09187 0.3958 0.0
C234 C 0.02082 -0.00061 0.18097 0.0
C235 C 0.04185 0.91408 0.16969 0.0
C236 C 0.03224 0.87192 0.25831 0.0
C237 C 0.03438 0.96004 0.27335 0.0
N238 N 0.04397 0.10899 0.24899 0.0
N239 N 0.06207 0.7664 0.19528 0.0
C240 C 0.03007 0.02443 0.23448 0.0
C241 C 0.0447 0.84907 0.20752 0.0
N242 N 0.99499 0.05729 0.14067 0.0
N243 N 0.01842 0.8108 0.29258 0.0
H244 H 0.06629 0.74846 0.15727 0.0
H245 H 0.07521 0.71694 0.22293 0.0
H246 H 0.00772 0.82643 0.32956 0.0
H247 H 0.00904 0.74601 0.2825 0.0
H248 H 0.96963 0.11819 0.14625 0.0
H249 H 0.9884 0.04063 0.10094 0.0
H250 H 0.05191 0.15648 0.22268 0.0
H251 H 0.05774 0.13129 0.28816 0.0
C252 C 0.09933 0.01375 0.82612 0.0
C253 C 0.08156 0.92716 0.83555 0.0
C254 C 0.08421 0.89145 0.7443 0.0
C255 C 0.07645 0.9804 0.73147 0.0
N256 N 0.06534 0.127 0.76151 0.0
N257 N 0.06324 0.78083 0.80545 0.0
C258 C 0.08327 0.04218 0.77291 0.0
C259 C 0.07732 0.86472 0.79535 0.0
N260 N 0.1282 0.06934 0.86819 0.0
N261 N 0.09842 0.83318 0.7078 0.0
H262 H 0.06252 0.76027 0.84338 0.0
H263 H 0.04902 0.73302 0.77614 0.0
H264 H 0.10629 0.85154 0.67083 0.0
H265 H 0.11148 0.76839 0.71613 0.0
H266 H 0.15007 0.13188 0.8642 0.0
H267 H 0.13835 0.04959 0.90751 0.0
H268 H 0.05989 0.17229 0.79023 0.0
H269 H 0.04586 0.15122 0.72294 0.0
C270 C 0.56828 0.56704 0.69873 0.0
C271 C 0.57073 0.50161 0.66121 0.0
C272 C 0.55202 0.3923 0.72351 0.0
C273 C 0.56829 0.45651 0.76393 0.0
N274 N 0.59707 0.60462 0.79198 0.0
N275 N 0.56375 0.35231 0.63543 0.0
C276 C 0.57628 0.54416 0.75205 0.0
C277 C 0.56062 0.41417 0.67247 0.0
N278 N 0.55788 0.65077 0.68299 0.0
N279 N 0.52769 0.31109 0.73406 0.0
H280 H 0.56722 0.36656 0.59698 0.0
H281 H 0.56778 0.28694 0.64352 0.0
H282 H 0.52053 0.29339 0.77128 0.0
H283 H 0.50623 0.26356 0.70491 0.0
H284 H 0.54675 0.70074 0.7074 0.0
H285 H 0.55077 0.66898 0.64361 0.0
H286 H 0.61409 0.6679 0.78616 0.0
H287 H 0.60456 0.59042 0.83196 0.0
C288 C 0.55392 0.39505 0.32531 0.0
C289 C 0.52829 0.48224 0.32894 0.0
C290 C 0.5322 0.50689 0.2377 0.0
C291 C 0.56563 0.42178 0.23511 0.0
N292 N 0.62578 0.28984 0.27925 0.0
N293 N 0.52076 0.62638 0.29507 0.0
C294 C 0.58225 0.36725 0.27994 0.0
C295 C 0.52652 0.53989 0.28721 0.0
N296 N 0.54722 0.33838 0.36378 0.0
N297 N 0.50034 0.55468 0.19251 0.0
H298 H 0.51862 0.65334 0.33155 0.0
H299 H 0.5285 0.67138 0.26723 0.0
H300 H 0.49782 0.53198 0.15441 0.0
H301 H 0.46661 0.6137 0.19215 0.0
H302 H 0.55618 0.27245 0.36052 0.0
H303 H 0.52631 0.35662 0.39747 0.0
H304 H 0.64764 0.25085 0.31264 0.0
H305 H 0.64736 0.26814 0.24641 0.0
loop_
_geom_bond_atom_site_label_1
_geom_bond_atom_site_label_2
_geom_bond_distance
_geom_bond_site_symmetry_2
_ccdc_geom_bond_type
Zn0 O6 1.920 1_545 S
Zn0 O12 1.898 . S
Zn0 O15 1.905 1_545 S
Zn1 O9 1.905 . S
Zn1 O10 1.898 1_545 S
Zn1 O18 1.920 1_545 S
Zn2 O5 2.080 1_444 S
Zn2 O8 2.114 . S
Zn2 O11 2.120 1_545 S
Zn2 O13 2.120 1_455 S
Zn2 O14 2.114 1_554 S
Zn2 O17 2.080 . S
C3 O8 1.166 . S
C3 O9 1.182 . S
C4 O10 1.167 . S
C4 O11 1.299 . S
O5 Zn2 2.080 1_666 S
O5 C19 1.305 . S
O6 Zn0 1.920 1_565 S
O6 C19 1.234 . S
C7 O12 1.167 . S
C7 O13 1.299 1_556 S
O8 Zn2 2.114 . S
O8 C3 1.166 . S
O9 Zn1 1.905 . S
O9 C3 1.182 . S
O10 Zn1 1.898 1_565 S
O10 C4 1.167 . S
O11 Zn2 2.120 1_565 S
O11 C4 1.299 . S
O12 Zn0 1.898 . S
O12 C7 1.167 . S
O13 Zn2 2.120 1_655 S
O13 C7 1.299 1_554 S
O14 Zn2 2.114 1_556 S
O14 C16 1.166 1_445 S
O15 Zn0 1.905 1_565 S
O15 C16 1.182 . S
C16 O14 1.166 1_665 S
C16 O15 1.182 . S
O17 Zn2 2.080 . S
O17 C20 1.305 1_545 S
O18 Zn1 1.920 1_565 S
O18 C20 1.234 . S
C19 O5 1.305 . S
C19 O6 1.234 . S
C20 O17 1.305 1_565 S
C20 O18 1.234 . S
Zn21 O27 1.920 . S
Zn21 O33 1.898 . S
Zn21 O36 1.905 . S
Zn22 O30 1.905 . S
Zn22 O31 1.898 . S
Zn22 O39 1.920 . S
Zn23 O26 2.080 . S
Zn23 O29 2.114 . S
Zn23 O32 2.120 . S
Zn23 O34 2.120 . S
Zn23 O35 2.114 . S
Zn23 O38 2.080 . S
C24 O29 1.166 . S
C24 O30 1.182 . S
C25 O31 1.167 . S
C25 O32 1.299 . S
O26 Zn23 2.080 . S
O26 C40 1.305 . S
O27 Zn21 1.920 . S
O27 C40 1.234 . S
C28 O33 1.167 . S
C28 O34 1.299 . S
O29 Zn23 2.114 . S
O29 C24 1.166 . S
O30 Zn22 1.905 . S
O30 C24 1.182 . S
O31 Zn22 1.898 . S
O31 C25 1.167 . S
O32 Zn23 2.120 . S
O32 C25 1.299 . S
O33 Zn21 1.898 . S
O33 C28 1.167 . S
O34 Zn23 2.120 . S
O34 C28 1.299 . S
O35 Zn23 2.114 . S
O35 C37 1.166 . S
O36 Zn21 1.905 . S
O36 C37 1.182 . S
C37 O35 1.166 . S
C37 O36 1.182 . S
O38 Zn23 2.080 . S
O38 C41 1.305 . S
O39 Zn22 1.920 . S
O39 C41 1.234 . S
C40 O26 1.305 . S
C40 O27 1.234 . S
C41 O38 1.305 . S
C41 O39 1.234 . S
H42 C47 0.930 . S
H43 C50 0.930 . S
H44 C52 0.930 . S
H45 C46 1.016 . S
C46 H45 1.016 . S
C46 N53 1.286 1_655 S
C47 H42 0.930 . S
C47 C48 1.397 . S
C47 C49 1.361 1_565 S
C48 C47 1.397 . S
C48 C52 1.390 . S
C49 C47 1.361 1_545 S
C49 C50 1.393 . S
C49 N53 1.413 . S
C50 H43 0.930 . S
C50 C49 1.393 . S
C50 C51 1.399 . S
C51 C50 1.399 . S
C51 C52 1.381 1_545 S
C52 H44 0.930 . S
C52 C48 1.390 . S
C52 C51 1.381 1_565 S
N53 C46 1.286 1_455 S
N53 C49 1.413 . S
H54 C59 0.930 . S
H55 C62 0.930 . S
H56 C64 0.930 . S
H57 C58 1.016 . S
C58 H57 1.016 . S
C58 N65 1.286 . S
C59 H54 0.930 . S
C59 C60 1.397 . S
C59 C61 1.361 1_665 S
C60 C59 1.397 . S
C60 C64 1.390 . S
C61 C59 1.361 1_445 S
C61 C62 1.393 . S
C61 N65 1.413 . S
C62 H55 0.930 . S
C62 C61 1.393 . S
C62 C63 1.399 1_455 S
C63 C62 1.399 1_655 S
C63 C64 1.381 1_545 S
C64 H56 0.930 . S
C64 C60 1.390 . S
C64 C63 1.381 1_565 S
N65 C58 1.286 . S
N65 C61 1.413 . S
H66 C71 0.930 . S
H67 C74 0.930 . S
H68 C76 0.930 . S
H69 C70 1.016 . S
C70 H69 1.016 . S
C70 N77 1.286 . S
C71 H66 0.930 . S
C71 C72 1.397 . S
C71 C73 1.361 . S
C72 C71 1.397 . S
C72 C76 1.390 . S
C73 C71 1.361 . S
C73 C74 1.393 . S
C73 N77 1.413 . S
C74 H67 0.930 . S
C74 C73 1.393 . S
C74 C75 1.399 . S
C75 C74 1.399 . S
C75 C76 1.381 . S
C76 H68 0.930 . S
C76 C72 1.390 . S
C76 C75 1.381 . S
N77 C70 1.286 . S
N77 C73 1.413 . S
H78 C83 0.930 . S
H79 C86 0.930 . S
H80 C88 0.930 . S
H81 C82 1.016 . S
C82 H81 1.016 . S
C82 N89 1.286 . S
C83 H78 0.930 . S
C83 C84 1.397 . S
C83 C85 1.361 . S
C84 C83 1.397 . S
C84 C88 1.390 . S
C85 C83 1.361 . S
C85 C86 1.393 . S
C85 N89 1.413 . S
C86 H79 0.930 . S
C86 C85 1.393 . S
C86 C87 1.399 . S
C87 C86 1.399 . S
C87 C88 1.381 . S
C88 H80 0.930 . S
C88 C84 1.390 . S
C88 C87 1.381 . S
N89 C82 1.286 . S
N89 C85 1.413 . S
C90 C91 1.363 . S
C90 C96 1.379 . S
C90 N98 1.356 1_554 S
C91 C90 1.363 . S
C91 C97 1.363 . S
C92 C93 1.363 . S
C92 C97 1.379 . S
C92 N99 1.356 . S
C93 C92 1.363 . S
C93 C96 1.363 . S
N94 C96 1.356 1_556 S
N94 H106 0.985 . S
N94 H107 0.984 1_556 S
N95 C97 1.356 . S
N95 H100 0.984 . S
N95 H101 0.985 . S
C96 C90 1.379 . S
C96 C93 1.363 . S
C96 N94 1.356 1_554 S
C97 C91 1.363 . S
C97 C92 1.379 . S
C97 N95 1.356 . S
N98 C90 1.356 1_556 S
N98 H104 0.984 . S
N98 H105 0.984 . S
N99 C92 1.356 . S
N99 H102 0.984 . S
N99 H103 0.985 . S
H100 N95 0.984 . S
H101 N95 0.985 . S
H102 N99 0.984 . S
H103 N99 0.985 . S
H104 N98 0.984 . S
H105 N98 0.984 . S
H106 N94 0.985 . S
H107 N94 0.984 1_554 S
C108 C109 1.363 . S
C108 C114 1.379 . S
C108 N116 1.356 . S
C109 C108 1.363 . S
C109 C115 1.363 1_556 S
C110 C111 1.363 1_554 S
C110 C115 1.379 . S
C110 N117 1.356 . S
C111 C110 1.363 1_556 S
C111 C114 1.363 . S
N112 C114 1.356 . S
N112 H124 0.984 . S
N112 H125 0.985 . S
N113 C115 1.356 . S
N113 H118 0.984 . S
N113 H119 0.985 . S
C114 C108 1.379 . S
C114 C111 1.363 . S
C114 N112 1.356 . S
C115 C109 1.363 1_554 S
C115 C110 1.379 . S
C115 N113 1.356 . S
N116 C108 1.356 . S
N116 H122 0.984 . S
N116 H123 0.984 . S
N117 C110 1.356 . S
N117 H120 0.984 . S
N117 H121 0.985 . S
H118 N113 0.984 . S
H119 N113 0.985 . S
H120 N117 0.984 . S
H121 N117 0.985 . S
H122 N116 0.984 . S
H123 N116 0.984 . S
H124 N112 0.984 . S
H125 N112 0.985 . S
C126 C127 1.363 . S
C126 C132 1.379 . S
C126 N134 1.356 . S
C127 C126 1.363 . S
C127 C133 1.363 1_554 S
C128 C129 1.363 1_556 S
C128 C133 1.379 . S
C128 N135 1.356 . S
C129 C128 1.363 1_554 S
C129 C132 1.363 . S
N130 C132 1.356 . S
N130 H142 0.984 . S
N130 H143 0.985 . S
N131 C133 1.356 . S
N131 H136 0.984 . S
N131 H137 0.985 . S
C132 C126 1.379 . S
C132 C129 1.363 . S
C132 N130 1.356 . S
C133 C127 1.363 1_556 S
C133 C128 1.379 . S
C133 N131 1.356 . S
N134 C126 1.356 . S
N134 H140 0.984 . S
N134 H141 0.984 . S
N135 C128 1.356 . S
N135 H138 0.984 . S
N135 H139 0.985 . S
H136 N131 0.984 . S
H137 N131 0.985 . S
H138 N135 0.984 . S
H139 N135 0.985 . S
H140 N134 0.984 . S
H141 N134 0.984 . S
H142 N130 0.984 . S
H143 N130 0.985 . S
C144 C145 1.363 1_554 S
C144 C150 1.379 . S
C144 N152 1.356 . S
C145 C144 1.363 1_556 S
C145 C151 1.363 . S
C146 C147 1.363 . S
C146 C151 1.379 . S
C146 N153 1.356 . S
C147 C146 1.363 . S
C147 C150 1.363 1_556 S
N148 C150 1.356 . S
N148 H160 0.984 . S
N148 H161 0.985 . S
N149 C151 1.356 . S
N149 H154 0.984 . S
N149 H155 0.985 . S
C150 C144 1.379 . S
C150 C147 1.363 1_554 S
C150 N148 1.356 . S
C151 C145 1.363 . S
C151 C146 1.379 . S
C151 N149 1.356 . S
N152 C144 1.356 . S
N152 H158 0.984 . S
N152 H159 0.984 . S
N153 C146 1.356 . S
N153 H156 0.984 . S
N153 H157 0.985 . S
H154 N149 0.984 . S
H155 N149 0.985 . S
H156 N153 0.984 . S
H157 N153 0.985 . S
H158 N152 0.984 . S
H159 N152 0.984 . S
H160 N148 0.984 . S
H161 N148 0.985 . S
C162 C163 1.363 . S
C162 C168 1.379 . S
C162 N170 1.356 . S
C163 C162 1.363 . S
C163 C169 1.363 . S
C164 C165 1.363 . S
C164 C169 1.379 . S
C164 N171 1.356 . S
C165 C164 1.363 . S
C165 C168 1.363 . S
N166 C168 1.356 . S
N166 H178 0.984 . S
N166 H179 0.985 . S
N167 C169 1.356 . S
N167 H172 0.984 . S
N167 H173 0.985 . S
C168 C162 1.379 . S
C168 C165 1.363 . S
C168 N166 1.356 . S
C169 C163 1.363 . S
C169 C164 1.379 . S
C169 N167 1.356 . S
N170 C162 1.356 . S
N170 H176 0.984 . S
N170 H177 0.984 . S
N171 C164 1.356 . S
N171 H174 0.984 . S
N171 H175 0.985 . S
H172 N167 0.984 . S
H173 N167 0.985 . S
H174 N171 0.984 . S
H175 N171 0.985 . S
H176 N170 0.984 . S
H177 N170 0.984 . S
H178 N166 0.984 . S
H179 N166 0.985 . S
C180 C181 1.363 . S
C180 C186 1.379 . S
C180 N188 1.356 . S
C181 C180 1.363 . S
C181 C187 1.363 . S
C182 C183 1.363 . S
C182 C187 1.379 . S
C182 N189 1.356 1_655 S
C183 C182 1.363 . S
C183 C186 1.363 . S
N184 C186 1.356 . S
N184 H196 0.984 . S
N184 H197 0.985 . S
N185 C187 1.356 . S
N185 H190 0.984 . S
N185 H191 0.985 . S
C186 C180 1.379 . S
C186 C183 1.363 . S
C186 N184 1.356 . S
C187 C181 1.363 . S
C187 C182 1.379 . S
C187 N185 1.356 . S
N188 C180 1.356 . S
N188 H194 0.984 . S
N188 H195 0.984 . S
N189 C182 1.356 1_455 S
N189 H192 0.984 . S
N189 H193 0.985 . S
H190 N185 0.984 . S
H191 N185 0.985 . S
H192 N189 0.984 . S
H193 N189 0.985 . S
H194 N188 0.984 . S
H195 N188 0.984 . S
H196 N184 0.984 . S
H197 N184 0.985 . S
C198 C199 1.363 . S
C198 C204 1.379 . S
C198 N206 1.356 . S
C199 C198 1.363 . S
C199 C205 1.363 . S
C200 C201 1.363 . S
C200 C205 1.379 . S
C200 N207 1.356 . S
C201 C200 1.363 . S
C201 C204 1.363 . S
N202 C204 1.356 . S
N202 H214 0.984 . S
N202 H215 0.985 . S
N203 C205 1.356 . S
N203 H208 0.984 . S
N203 H209 0.985 . S
C204 C198 1.379 . S
C204 C201 1.363 . S
C204 N202 1.356 . S
C205 C199 1.363 . S
C205 C200 1.379 . S
C205 N203 1.356 . S
N206 C198 1.356 . S
N206 H212 0.984 . S
N206 H213 0.984 . S
N207 C200 1.356 . S
N207 H210 0.984 . S
N207 H211 0.985 . S
H208 N203 0.984 . S
H209 N203 0.985 . S
H210 N207 0.984 . S
H211 N207 0.985 . S
H212 N206 0.984 . S
H213 N206 0.984 . S
H214 N202 0.984 . S
H215 N202 0.985 . S
C216 C217 1.363 . S
C216 C222 1.379 . S
C216 N224 1.356 . S
C217 C216 1.363 . S
C217 C223 1.363 . S
C218 C219 1.363 . S
C218 C223 1.379 . S
C218 N225 1.356 . S
C219 C218 1.363 . S
C219 C222 1.363 . S
N220 C222 1.356 . S
N220 H232 0.984 . S
N220 H233 0.985 . S
N221 C223 1.356 . S
N221 H226 0.984 . S
N221 H227 0.985 . S
C222 C216 1.379 . S
C222 C219 1.363 . S
C222 N220 1.356 . S
C223 C217 1.363 . S
C223 C218 1.379 . S
C223 N221 1.356 . S
N224 C216 1.356 . S
N224 H230 0.984 . S
N224 H231 0.984 . S
N225 C218 1.356 . S
N225 H228 0.984 . S
N225 H229 0.985 . S
H226 N221 0.984 . S
H227 N221 0.985 . S
H228 N225 0.984 . S
H229 N225 0.985 . S
H230 N224 0.984 . S
H231 N224 0.984 . S
H232 N220 0.984 . S
H233 N220 0.985 . S
C234 C235 1.363 1_545 S
C234 C240 1.379 . S
C234 N242 1.356 . S
C235 C234 1.363 1_565 S
C235 C241 1.363 . S
C236 C237 1.363 1_565 S
C236 C241 1.379 . S
C236 N243 1.356 . S
C237 C236 1.363 1_545 S
C237 C240 1.363 . S
N238 C240 1.356 . S
N238 H250 0.984 . S
N238 H251 0.985 . S
N239 C241 1.356 . S
N239 H244 0.984 . S
N239 H245 0.985 . S
C240 C234 1.379 . S
C240 C237 1.363 . S
C240 N238 1.356 . S
C241 C235 1.363 . S
C241 C236 1.379 . S
C241 N239 1.356 . S
N242 C234 1.356 . S
N242 H248 0.984 . S
N242 H249 0.984 . S
N243 C236 1.356 . S
N243 H246 0.984 . S
N243 H247 0.985 . S
H244 N239 0.984 . S
H245 N239 0.985 . S
H246 N243 0.984 . S
H247 N243 0.985 . S
H248 N242 0.984 . S
H249 N242 0.984 . S
H250 N238 0.984 . S
H251 N238 0.985 . S
C252 C253 1.363 1_645 S
C252 C258 1.379 . S
C252 N260 1.356 . S
C253 C252 1.363 1_465 S
C253 C259 1.363 . S
C254 C255 1.363 1_465 S
C254 C259 1.379 . S
C254 N261 1.356 . S
C255 C254 1.363 1_645 S
C255 C258 1.363 . S
N256 C258 1.356 . S
N256 H268 0.984 . S
N256 H269 0.985 . S
N257 C259 1.356 . S
N257 H262 0.984 . S
N257 H263 0.985 . S
C258 C252 1.379 . S
C258 C255 1.363 . S
C258 N256 1.356 . S
C259 C253 1.363 . S
C259 C254 1.379 . S
C259 N257 1.356 . S
N260 C252 1.356 . S
N260 H266 0.984 . S
N260 H267 0.984 . S
N261 C254 1.356 . S
N261 H264 0.984 . S
N261 H265 0.985 . S
H262 N257 0.984 . S
H263 N257 0.985 . S
H264 N261 0.984 . S
H265 N261 0.985 . S
H266 N260 0.984 . S
H267 N260 0.984 . S
H268 N256 0.984 . S
H269 N256 0.985 . S
C270 C271 1.363 . S
C270 C276 1.379 . S
C270 N278 1.356 . S
C271 C270 1.363 . S
C271 C277 1.363 . S
C272 C273 1.363 . S
C272 C277 1.379 . S
C272 N279 1.356 . S
C273 C272 1.363 . S
C273 C276 1.363 . S
N274 C276 1.356 . S
N274 H286 0.984 . S
N274 H287 0.985 . S
N275 C277 1.356 . S
N275 H280 0.984 . S
N275 H281 0.985 . S
C276 C270 1.379 . S
C276 C273 1.363 . S
C276 N274 1.356 . S
C277 C271 1.363 . S
C277 C272 1.379 . S
C277 N275 1.356 . S
N278 C270 1.356 . S
N278 H284 0.984 . S
N278 H285 0.984 . S
N279 C272 1.356 . S
N279 H282 0.984 . S
N279 H283 0.985 . S
H280 N275 0.984 . S
H281 N275 0.985 . S
H282 N279 0.984 . S
H283 N279 0.985 . S
H284 N278 0.984 . S
H285 N278 0.984 . S
H286 N274 0.984 . S
H287 N274 0.985 . S
C288 C289 1.363 . S
C288 C294 1.379 . S
C288 N296 1.356 . S
C289 C288 1.363 . S
C289 C295 1.363 . S
C290 C291 1.363 . S
C290 C295 1.379 . S
C290 N297 1.356 . S
C291 C290 1.363 . S
C291 C294 1.363 . S
N292 C294 1.356 . S
N292 H304 0.984 . S
N292 H305 0.985 . S
N293 C295 1.356 . S
N293 H298 0.984 . S
N293 H299 0.985 . S
C294 C288 1.379 . S
C294 C291 1.363 . S
C294 N292 1.356 . S
C295 C289 1.363 . S
C295 C290 1.379 . S
C295 N293 1.356 . S
N296 C288 1.356 . S
N296 H302 0.984 . S
N296 H303 0.984 . S
N297 C290 1.356 . S
N297 H300 0.984 . S
N297 H301 0.985 . S
H298 N293 0.984 . S
H299 N293 0.985 . S
H300 N297 0.984 . S
H301 N297 0.985 . S
H302 N296 0.984 . S
H303 N296 0.984 . S
H304 N292 0.984 . S
H305 N292 0.985 . S
C93 C84 1.378 . S
C91 C3 1.272 . S
C109 C4 1.429 1_556 S
C111 C70 1.508 . S
C127 C19 1.449 1_554 S
C129 C82 1.522 . S
C145 C7 1.272 . S
C147 C72 1.382 . S
C163 C37 1.271 . S
C165 C60 1.378 . S
C181 C28 1.428 . S
C183 C46 1.508 . S
C201 C58 1.522 . S
C199 C41 1.450 . S
C219 C48 1.382 . S
C217 C25 1.272 . S
C235 C20 1.374 . S
C237 C51 1.516 . S
C253 C16 1.412 1_455 S
C255 C63 1.551 . S
C273 C75 1.516 . S
C271 C40 1.374 . S
C289 C24 1.412 . S
C291 C87 1.550 . S
