# Generated by pormake.
# Topology anh, (6,3)-cn, num edge types: 1
# Building blocks:
#     Node 0, Type 0, BuildingBlock: BETDIP_clean_sbu_0, # of connection points: 6
#     Node 1, Type 0, BuildingBlock: BETDIP_clean_sbu_0, # of connection points: 6
#     Node 2, Type 0, BuildingBlock: BETDIP_clean_sbu_0, # of connection points: 6
#     Node 3, Type 1, BuildingBlock: KAKCAD_clean_linker_0, # of connection points: 3
#     Node 4, Type 1, BuildingBlock: KAKCAD_clean_linker_0, # of connection points: 3
#     Node 5, Type 1, BuildingBlock: KAKCAD_clean_linker_0, # of connection points: 3
#     Node 6, Type 1, BuildingBlock: KAKCAD_clean_linker_0, # of connection points: 3
#     Node 7, Type 1, BuildingBlock: KAKCAD_clean_linker_0, # of connection points: 3
#     Node 8, Type 1, BuildingBlock: KAKCAD_clean_linker_0, # of connection points: 3
#     Edge 9, Type (0, 1), BuildingBlock: EZIPEK_clean_linker_0, # of connection points: 2
#     Edge 10, Type (0, 1), BuildingBlock: EZIPEK_clean_linker_0, # of connection points: 2
#     Edge 11, Type (0, 1), BuildingBlock: EZIPEK_clean_linker_0, # of connection points: 2
#     Edge 12, Type (0, 1), BuildingBlock: EZIPEK_clean_linker_0, # of connection points: 2
#     Edge 13, Type (0, 1), BuildingBlock: EZIPEK_clean_linker_0, # of connection points: 2
#     Edge 14, Type (0, 1), BuildingBlock: EZIPEK_clean_linker_0, # of connection points: 2
#     Edge 15, Type (0, 1), BuildingBlock: EZIPEK_clean_linker_0, # of connection points: 2
#     Edge 16, Type (0, 1), BuildingBlock: EZIPEK_clean_linker_0, # of connection points: 2
#     Edge 17, Type (0, 1), BuildingBlock: EZIPEK_clean_linker_0, # of connection points: 2
#     Edge 18, Type (0, 1), BuildingBlock: EZIPEK_clean_linker_0, # of connection points: 2
#     Edge 19, Type (0, 1), BuildingBlock: EZIPEK_clean_linker_0, # of connection points: 2
#     Edge 20, Type (0, 1), BuildingBlock: EZIPEK_clean_linker_0, # of connection points: 2
#     Edge 21, Type (0, 1), BuildingBlock: EZIPEK_clean_linker_0, # of connection points: 2
#     Edge 22, Type (0, 1), BuildingBlock: EZIPEK_clean_linker_0, # of connection points: 2
#     Edge 23, Type (0, 1), BuildingBlock: EZIPEK_clean_linker_0, # of connection points: 2
#     Edge 24, Type (0, 1), BuildingBlock: EZIPEK_clean_linker_0, # of connection points: 2
#     Edge 25, Type (0, 1), BuildingBlock: EZIPEK_clean_linker_0, # of connection points: 2
#     Edge 26, Type (0, 1), BuildingBlock: EZIPEK_clean_linker_0, # of connection points: 2
# Relax obj value: 0.305
# Max RMSD: 0.191
# Mean RMSD: 0.163
data_MOF--net-anh--node1-BETDIP_clean_sbu_0--node2-KAKCAD_clean_linker_0--edge1-EZIPEK_clean_linker_0
_symmetry_space_group_name_H-M    P1
_symmetry_Int_Tables_number       1
_symmetry_cell_setting            triclinic
loop_
_symmetry_equiv_pos_as_xyz
'x, y, z'
_cell_length_a     28.995688
_cell_length_b     29.202087
_cell_length_c     52.296733
_cell_angle_alpha  90.147821
_cell_angle_beta   89.768769
_cell_angle_gamma 119.82097
loop_
_atom_site_label
_atom_site_type_symbol
_atom_site_fract_x
_atom_site_fract_y
_atom_site_fract_z
_atom_type_partial_charge
Tb0 Tb 0.164 0.64219 0.16942 0.0
Tb1 Tb 0.11431 0.52931 0.1755 0.0
C2 C 0.192 0.73821 0.17366 0.0
C3 C 0.23008 0.79267 0.16586 0.0
C4 C 0.26482 0.82793 0.18419 0.0
C5 C 0.29266 0.88189 0.17919 0.0
C6 C 0.28594 0.90147 0.15589 0.0
C7 C 0.25343 0.86645 0.13697 0.0
C8 C 0.22556 0.81226 0.14193 0.0
C9 C 0.15407 0.59077 0.12663 0.0
C10 C 0.24169 0.59323 0.16797 0.0
C11 C 1.06532 0.43101 0.17053 0.0
C12 C 1.0164 0.38998 0.15845 0.0
C13 C 1.0096 0.38611 0.13169 0.0
C14 C 0.96231 0.34622 0.12105 0.0
C15 C 0.92148 0.31053 0.13714 0.0
C16 C 0.92883 0.31408 0.16371 0.0
C17 C 0.97593 0.35318 0.17425 0.0
C18 C 0.15312 0.58221 0.21942 0.0
C19 C 1.03488 0.5772 0.16804 0.0
O20 O 0.20742 0.71377 0.18954 0.0
O21 O 0.15966 0.70695 0.15615 0.0
O22 O 0.12118 0.57755 0.14452 0.0
O23 O 0.19372 0.63747 0.13121 0.0
O24 O 0.2379 0.63578 0.17413 0.0
O25 O 0.19654 0.54801 0.16431 0.0
O26 O 1.10377 0.46304 0.15525 0.0
O27 O 1.05904 0.45536 0.19018 0.0
O28 O 0.12876 0.59188 0.20213 0.0
O29 O 0.15508 0.54095 0.2121 0.0
O30 O 1.03912 0.53392 0.1712 0.0
O31 O 1.07943 0.62376 0.16753 0.0
H32 H 0.26839 0.81409 0.20288 0.0
H33 H 0.31788 0.90871 0.19394 0.0
H34 H 0.24809 0.88119 0.11888 0.0
H35 H 0.19857 0.78613 0.12749 0.0
H36 H 1.04046 0.41386 0.11901 0.0
H37 H 0.95716 0.34381 0.1005 0.0
H38 H 0.89757 0.28676 0.17638 0.0
H39 H 0.98051 0.35499 0.19485 0.0
Tb40 Tb 0.66893 0.08401 0.50479 0.0
Tb41 Tb 0.6103 0.13913 0.50447 0.0
C42 C 0.69793 1.01947 0.51674 0.0
C43 C 0.67551 0.96369 0.51032 0.0
C44 C 0.6918 0.93314 0.52388 0.0
C45 C 0.67136 0.88022 0.51758 0.0
C46 C 0.63418 0.85721 0.49775 0.0
C47 C 0.61686 0.88738 0.48447 0.0
C48 C 0.63783 0.94065 0.49062 0.0
C49 C 0.65522 0.11012 0.45885 0.0
C50 C 0.53749 1.01342 0.49997 0.0
C51 C 0.58287 0.20423 0.49112 0.0
C52 C 0.61688 0.2618 0.48828 0.0
C53 C 0.62364 0.28548 0.46412 0.0
C54 C 0.66174 0.33868 0.46053 0.0
C55 C 0.69344 0.36844 0.48109 0.0
C56 C 0.68618 0.34508 0.50521 0.0
C57 C 0.64837 0.2923 0.50881 0.0
C58 C 0.62619 0.11586 0.55143 0.0
C59 C 0.74168 0.20862 0.50316 0.0
O60 O 0.66837 1.03057 0.53164 0.0
O61 O 0.71789 1.0519 0.4974 0.0
O62 O 0.62145 0.09303 0.47667 0.0
O63 O 0.69649 0.1071 0.46559 0.0
O64 O 0.5845 1.0152 0.50139 0.0
O65 O 0.5379 1.05932 0.50066 0.0
O66 O 0.59308 0.17642 0.47482 0.0
O67 O 0.57605 0.18534 0.51438 0.0
O68 O 0.65942 0.13168 0.5331 0.0
O69 O 0.58327 0.11489 0.54362 0.0
O70 O 0.69499 0.207 0.50049 0.0
O71 O 0.74104 0.16359 0.50809 0.0
H72 H 0.72068 0.95032 0.53913 0.0
H73 H 0.68504 0.85723 0.52799 0.0
H74 H 0.58814 0.87006 0.46918 0.0
H75 H 0.62517 0.96395 0.4798 0.0
H76 H 0.60039 0.26248 0.44792 0.0
H77 H 0.66662 0.35652 0.44186 0.0
H78 H 0.71009 0.36787 0.52131 0.0
H79 H 0.64493 0.27521 0.52756 0.0
Tb80 Tb 0.60268 0.59319 0.83535 0.0
Tb81 Tb 0.71738 0.6521 0.83643 0.0
C82 C 0.50509 0.54503 0.8429 0.0
C83 C 0.44732 0.51661 0.84702 0.0
C84 C 0.42644 0.4961 0.87125 0.0
C85 C 0.37192 0.46268 0.87444 0.0
C86 C 0.33767 0.44912 0.85344 0.0
C87 C 0.35817 0.47031 0.82929 0.0
C88 C 0.41274 0.50413 0.82612 0.0
C89 C 0.64849 0.60196 0.79035 0.0
C90 C 0.65653 0.72054 0.83205 0.0
C91 C 0.81589 0.70706 0.83049 0.0
C92 C 0.85786 0.69582 0.83805 0.0
C93 C 0.89958 0.70634 0.82104 0.0
C94 C 0.93144 0.68346 0.82502 0.0
C95 C 0.92082 0.64923 0.84578 0.0
C96 C 0.88191 0.64215 0.86375 0.0
C97 C 0.8507 0.66533 0.85996 0.0
C98 C 0.67261 0.6133 0.8822 0.0
C99 C 0.66287 0.52549 0.83275 0.0
O100 O 0.53873 0.54528 0.85967 0.0
O101 O 0.52683 0.57454 0.82268 0.0
O102 O 0.66203 0.63662 0.8073 0.0
O103 O 0.60517 0.5608 0.79762 0.0
O104 O 0.61188 0.67447 0.83585 0.0
O105 O 0.70238 0.72009 0.83062 0.0
O106 O 0.78391 0.6748 0.81301 0.0
O107 O 0.79008 0.71468 0.84915 0.0
O108 O 0.65748 0.63443 0.86564 0.0
O109 O 0.71529 0.6155 0.87338 0.0
O110 O 0.70526 0.57161 0.82636 0.0
O111 O 0.62002 0.52686 0.84112 0.0
H112 H 0.45234 0.50479 0.8876 0.0
H113 H 0.35646 0.44667 0.89322 0.0
H114 H 0.33204 0.46016 0.81294 0.0
H115 H 0.42804 0.5189 0.80717 0.0
H116 H 0.90528 0.72937 0.80391 0.0
H117 H 0.9617 0.68944 0.81111 0.0
H118 H 0.87364 0.61612 0.87997 0.0
H119 H 0.81878 0.65651 0.87334 0.0
C120 C 0.65765 0.16032 0.33705 0.0
C121 C 0.61355 0.12804 0.35242 0.0
C122 C 0.65094 0.16755 0.31123 0.0
C123 C 0.6 0.14205 0.30019 0.0
C124 C 0.55594 0.1092 0.31569 0.0
C125 C 0.56263 0.10266 0.34162 0.0
C126 C 0.59295 0.14941 0.2726 0.0
C127 C 0.63047 0.15274 0.25436 0.0
C128 C 0.6229 0.15759 0.22823 0.0
C129 C 0.57826 0.16019 0.22043 0.0
C130 C 0.53997 0.15596 0.2381 0.0
C131 C 0.54765 0.15105 0.26418 0.0
C132 C 0.48787 0.14479 0.22805 0.0
C133 C 0.48544 0.1733 0.20689 0.0
C134 C 0.44366 0.09569 0.23392 0.0
C135 C 0.40259 0.07118 0.21633 0.0
C136 C 0.40509 0.09586 0.19297 0.0
C137 C 0.66118 0.16037 0.20863 0.0
C138 C 0.71562 0.1957 0.21171 0.0
C139 C 0.64291 0.13238 0.18543 0.0
C140 C 0.67793 0.14265 0.165 0.0
C141 C 0.73153 0.18087 0.16765 0.0
C142 C 0.75051 0.20592 0.19132 0.0
C143 C 0.44378 0.14887 0.18937 0.0
H144 H 0.69723 0.18043 0.34515 0.0
H145 H 0.68566 0.19371 0.30004 0.0
H146 H 0.51626 0.08801 0.30779 0.0
H147 H 0.52817 0.07759 0.35324 0.0
H148 H 0.66457 0.14964 0.2603 0.0
H149 H 0.51768 0.14746 0.27774 0.0
H150 H 0.572 0.16307 0.2002 0.0
H151 H 0.51894 0.21162 0.20222 0.0
H152 H 0.44428 0.07296 0.25013 0.0
H153 H 0.37224 1.03049 0.2196 0.0
H154 H 0.73071 0.21786 0.22928 0.0
H155 H 0.60113 0.1042 0.18274 0.0
H156 H 0.44558 0.16873 0.17162 0.0
H157 H 0.79202 0.23548 0.19358 0.0
H158 H 0.66289 0.12286 0.14687 0.0
C159 C 0.70701 0.62566 0.67033 0.0
C160 C 0.74469 0.64117 0.68983 0.0
C161 C 0.72298 0.63277 0.64486 0.0
C162 C 0.77717 0.65633 0.6383 0.0
C163 C 0.81499 0.6708 0.6579 0.0
C164 C 0.79879 0.66322 0.6836 0.0
C165 C 0.79295 0.66652 0.61096 0.0
C166 C 0.76666 0.68488 0.59506 0.0
C167 C 0.77265 0.68564 0.56857 0.0
C168 C 0.80853 0.67239 0.55792 0.0
C169 C 0.8361 0.65455 0.57325 0.0
C170 C 0.82826 0.65184 0.59999 0.0
C171 C 0.85968 0.626 0.55999 0.0
C172 C 0.8853 0.64524 0.53623 0.0
C173 C 0.83766 0.57201 0.56527 0.0
C174 C 0.82953 0.53693 0.54536 0.0
C175 C 0.8435 0.55576 0.52023 0.0
C176 C 0.73652 0.6936 0.55181 0.0
C177 C 0.73054 0.73794 0.55497 0.0
C178 C 0.70692 0.65601 0.53289 0.0
C179 C 0.67246 0.66327 0.51701 0.0
C180 C 0.66784 0.70847 0.51979 0.0
C181 C 0.69663 0.7454 0.53899 0.0
C182 C 0.87604 0.61005 0.51611 0.0
H183 H 0.66508 0.60791 0.67487 0.0
H184 H 0.69268 0.61983 0.63023 0.0
H185 H 0.85692 0.68889 0.65337 0.0
H186 H 0.82825 0.67499 0.69857 0.0
H187 H 0.73855 0.6952 0.60317 0.0
H188 H 0.84649 0.63492 0.61188 0.0
H189 H 0.81134 0.67182 0.53726 0.0
H190 H 0.9039 0.68698 0.53191 0.0
H191 H 0.81849 0.55587 0.58346 0.0
H192 H 0.80512 0.49495 0.54892 0.0
H193 H 0.75275 0.76717 0.56949 0.0
H194 H 0.71022 0.6209 0.53055 0.0
H195 H 0.88768 0.62529 0.49689 0.0
H196 H 0.69327 0.78049 0.54138 0.0
H197 H 0.65017 0.63429 0.50241 0.0
C198 C 1.09512 0.45876 0.01837 0.0
C199 C 1.06341 0.45788 0.03885 0.0
C200 C 1.07203 0.42636 0.99724 0.0
C201 C 1.0167 0.39327 0.99596 0.0
C202 C 0.98471 0.39198 0.01645 0.0
C203 C 1.00809 0.42359 0.03803 0.0
C204 C 0.99368 0.3656 0.97174 0.0
C205 C 1.00927 0.3304 0.96224 0.0
C206 C 1.00802 0.32066 0.93584 0.0
C207 C 0.98455 0.34148 0.91955 0.0
C208 C 0.96862 0.37656 0.92883 0.0
C209 C 0.97179 0.38722 0.95514 0.0
C210 C 0.9621 0.41192 0.91077 0.0
C211 C 0.99993 0.43723 0.89118 0.0
C212 C 0.92242 0.42545 0.91466 0.0
C213 C 0.92152 0.46457 0.89971 0.0
C214 C 0.96044 0.49078 0.88084 0.0
C215 C 1.04598 0.30594 0.92443 0.0
C216 C 1.09787 0.32948 0.93441 0.0
C217 C 1.03645 0.28207 0.90008 0.0
C218 C 1.07912 0.28988 0.88449 0.0
C219 C 0.13127 0.32078 0.8934 0.0
C220 C 0.1401 0.33683 0.91897 0.0
C221 C 0.9991 0.47639 0.87634 0.0
H222 H 0.13775 0.48516 0.0186 0.0
H223 H 1.09724 0.42862 0.98137 0.0
H224 H 0.9419 0.36723 0.01557 0.0
H225 H 0.98308 0.42254 0.05372 0.0
H226 H 1.02896 0.3164 0.97501 0.0
H227 H 0.964 0.41771 0.96217 0.0
H228 H 0.98514 0.33633 0.89905 0.0
H229 H 1.03185 0.42866 0.88812 0.0
H230 H 0.89307 0.40679 0.92967 0.0
H231 H 0.89153 0.47561 0.90337 0.0
H232 H 1.10742 0.34847 0.95295 0.0
H233 H 0.99681 0.26254 0.89207 0.0
H234 H 1.02956 0.49667 0.86195 0.0
H235 H 0.18027 0.36025 0.92615 0.0
H236 H 1.07182 0.27673 0.86478 0.0
C237 C 1.10345 0.60277 0.34389 0.0
C238 C 0.1471 0.6049 0.33086 0.0
C239 C 1.10198 0.60382 0.3708 0.0
C240 C 0.14453 0.60799 0.38551 0.0
C241 C 0.18867 0.61122 0.37243 0.0
C242 C 0.18975 0.60928 0.34552 0.0
C243 C 0.14276 0.60847 0.41436 0.0
C244 C 1.09815 0.57001 0.42766 0.0
C245 C 1.0958 0.56493 0.45476 0.0
C246 C 0.13991 0.60878 0.46855 0.0
C247 C 0.18484 0.65252 0.45511 0.0
C248 C 0.18561 0.6475 0.42819 0.0
C249 C 0.23212 0.70511 0.46642 0.0
C250 C 0.25877 0.7101 0.48992 0.0
C251 C 0.25522 0.75225 0.45146 0.0
C252 C 0.30289 0.79903 0.45819 0.0
C253 C 0.33042 0.80424 0.48122 0.0
C254 C 1.04626 0.51347 0.46629 0.0
C255 C 1.01347 0.46917 0.4503 0.0
C256 C 1.02933 0.50577 0.49233 0.0
C257 C 0.98279 0.45815 0.50117 0.0
C258 C 0.94882 0.41595 0.48438 0.0
C259 C 0.96621 0.4238 0.45872 0.0
C260 C 0.3061 0.75839 0.49722 0.0
H261 H 1.07004 0.5995 0.33319 0.0
H262 H 1.06757 0.60174 0.38012 0.0
H263 H 0.22202 0.61415 0.38305 0.0
H264 H 0.22383 0.6108 0.33612 0.0
H265 H 1.0651 0.54337 0.41595 0.0
H266 H 0.21978 0.67575 0.4173 0.0
H267 H 0.13905 0.60925 0.48922 0.0
H268 H 0.24389 0.67633 0.50253 0.0
H269 H 0.23665 0.75334 0.43375 0.0
H270 H 0.31834 0.83189 0.44497 0.0
H271 H 1.02389 0.46756 0.43066 0.0
H272 H 1.05208 0.53646 0.50611 0.0
H273 H 0.3242 0.75947 0.51543 0.0
H274 H 0.9435 0.3934 0.44477 0.0
H275 H 0.9735 0.45455 0.52138 0.0
C276 C 0.6368 0.07205 0.67774 0.0
C277 C 0.65455 0.11817 0.6631 0.0
C278 C 0.63941 0.07416 0.70461 0.0
C279 C 0.66171 0.12274 0.71796 0.0
C280 C 0.68103 0.16908 0.70305 0.0
C281 C 0.67685 0.16674 0.67617 0.0
C282 C 0.66298 0.12431 0.7471 0.0
C283 C 0.66505 0.08416 0.76102 0.0
C284 C 0.65902 0.07865 0.78791 0.0
C285 C 0.65678 0.12155 0.80148 0.0
C286 C 0.65739 0.16578 0.78788 0.0
C287 C 0.66017 0.16454 0.7608 0.0
C288 C 0.65368 0.21386 0.7995 0.0
C289 C 0.68172 0.2435 0.82141 0.0
C290 C 0.62608 0.23547 0.78611 0.0
C291 C 0.62882 0.28413 0.79286 0.0
C292 C 0.65774 0.31469 0.81421 0.0
C293 C 0.6539 1.02606 0.79911 0.0
C294 C 0.63031 0.97898 0.78406 0.0
C295 C 0.67559 1.02121 0.82263 0.0
C296 C 0.67516 0.97319 0.82985 0.0
C297 C 0.65408 0.9274 0.8138 0.0
C298 C 0.63155 0.93237 0.79077 0.0
C299 C 0.68326 0.29207 0.82866 0.0
H300 H 0.6195 1.03397 0.66836 0.0
H301 H 0.62263 1.03711 0.71482 0.0
H302 H 0.69971 0.20758 0.71198 0.0
H303 H 0.6912 0.20311 0.66552 0.0
H304 H 0.67194 1.05631 0.75041 0.0
H305 H 0.65997 0.19584 0.74995 0.0
H306 H 0.65297 0.11974 0.82209 0.0
H307 H 0.70397 0.23009 0.83265 0.0
H308 H 0.60223 0.21493 0.76962 0.0
H309 H 0.60787 0.29812 0.78099 0.0
H310 H 0.61081 0.97785 0.76628 0.0
H311 H 0.69419 1.05494 0.83529 0.0
H312 H 0.70548 0.31255 0.84555 0.0
H313 H 0.61436 0.89948 0.77754 0.0
H314 H 0.69229 0.9723 0.84806 0.0
C315 C 0.66782 0.57382 0.00726 0.0
C316 C 0.65089 0.60476 0.99409 0.0
C317 C 0.66551 0.57054 0.03414 0.0
C318 C 0.64615 0.59813 0.0488 0.0
C319 C 0.62898 0.62895 0.03546 0.0
C320 C 0.63129 0.63217 0.00855 0.0
C321 C 0.64405 0.59481 0.07776 0.0
C322 C 0.68489 0.59335 0.09149 0.0
C323 C 0.68394 0.58708 0.11842 0.0
C324 C 0.64004 0.58796 0.132 0.0
C325 C 0.59821 0.59237 0.11848 0.0
C326 C 0.60126 0.59304 0.09138 0.0
C327 C 0.55016 0.59639 0.13027 0.0
C328 C 0.52224 0.57112 0.15306 0.0
C329 C 0.52816 0.62351 0.1168 0.0
C330 C 0.48035 0.62247 0.12423 0.0
C331 C 0.45153 0.5964 0.14649 0.0
C332 C 0.73033 0.58015 0.12996 0.0
C333 C 0.75506 0.55745 0.11488 0.0
C334 C 0.75417 0.59864 0.1543 0.0
C335 C 0.80054 0.59622 0.16231 0.0
C336 C 0.8267 0.57628 0.14629 0.0
C337 C 0.80187 0.55683 0.12241 0.0
C338 C 0.4747 0.57157 0.16103 0.0
H339 H 0.6829 0.55207 0.99667 0.0
H340 H 0.67839 0.54574 0.04342 0.0
H341 H 0.6144 0.65134 0.04583 0.0
H342 H 0.61798 0.65636 -0.00103 0.0
H343 H 0.7188 0.59806 0.08064 0.0
H344 H 0.56906 0.59133 0.08028 0.0
H345 H 0.63849 0.58531 0.15265 0.0
H346 H 0.53628 0.54977 0.16454 0.0
H347 H 0.54777 0.64598 0.09982 0.0
H348 H 0.46577 0.64263 0.1122 0.0
H349 H 0.73849 0.53989 0.09654 0.0
H350 H 0.73783 0.6162 0.16707 0.0
H351 H 0.45546 0.5515 0.17859 0.0
H352 H 0.81887 0.54067 0.10916 0.0
H353 H 0.81658 0.61101 0.18111 0.0
C354 C 0.34348 0.64119 0.15442 0.0
C355 C 0.29687 0.59545 0.16401 0.0
C356 C 0.35011 0.54871 0.16027 0.0
C357 C 0.39838 0.59602 0.15386 0.0
N358 N 0.44021 0.69099 0.1527 0.0
N359 N 0.26571 0.50954 0.18304 0.0
C360 C 0.39461 0.6432 0.15329 0.0
C361 C 0.3032 0.55042 0.16889 0.0
N362 N 0.33933 0.68239 0.14483 0.0
N363 N 0.34742 0.50107 0.15706 0.0
H364 H 0.23383 0.51053 0.19173 0.0
H365 H 0.27031 0.47802 0.18902 0.0
H366 H 0.37875 0.4973 0.14963 0.0
H367 H 0.31207 0.46529 0.15897 0.0
H368 H 0.37069 0.71422 0.1355 0.0
H369 H 0.30337 0.68191 0.14318 0.0
H370 H 0.44041 0.72663 0.15463 0.0
H371 H 0.47787 0.69474 0.1535 0.0
C372 C 0.83825 0.26518 0.48454 0.0
C373 C 0.79577 0.26193 0.49997 0.0
C374 C 0.85368 0.36026 0.50677 0.0
C375 C 0.89733 0.36265 0.49243 0.0
N376 N 0.93325 0.30986 0.47575 0.0
N377 N 0.77064 0.30759 0.53041 0.0
C378 C 0.8899 0.3128 0.48373 0.0
C379 C 0.80583 0.30998 0.51231 0.0
N380 N 0.82904 0.22348 0.4693 0.0
N381 N 0.85659 0.40616 0.51465 0.0
H382 H 0.73632 0.27263 0.53522 0.0
H383 H 0.77789 0.33895 0.54241 0.0
H384 H 0.8899 0.44292 0.5117 0.0
H385 H 0.82444 0.40823 0.52227 0.0
H386 H 0.85615 0.2254 0.45561 0.0
H387 H 0.79226 0.18914 0.46825 0.0
H388 H 0.93183 0.27426 0.47158 0.0
H389 H 0.97175 0.34206 0.47647 0.0
C390 C 0.61118 0.7755 0.81704 0.0
C391 C 0.65531 0.77382 0.82849 0.0
C392 C 0.70104 0.87352 0.82859 0.0
C393 C 0.65442 0.87458 0.82033 0.0
N394 N 0.55968 0.82048 0.81456 0.0
N395 N 0.7372 0.82614 0.85168 0.0
C396 C 0.60805 0.8237 0.81693 0.0
C397 C 0.69872 0.82432 0.83608 0.0
N398 N 0.57289 0.732 0.8047 0.0
N399 N 0.74886 0.91913 0.82825 0.0
H400 H 0.73543 0.79246 0.8594 0.0
H401 H 0.76699 0.86117 0.85961 0.0
H402 H 0.75334 0.95482 0.82177 0.0
H403 H 0.78474 0.92006 0.83159 0.0
H404 H 0.54272 0.73254 0.79417 0.0
H405 H 0.57504 0.69779 0.80201 0.0
H406 H 0.52411 0.7846 0.81436 0.0
H407 H 0.55471 0.85338 0.81607 0.0
C408 C 0.9357 0.53209 0.15103 0.0
C409 C 0.97971 0.57472 0.16404 0.0
C410 C 0.92532 0.62046 0.16368 0.0
C411 C 0.87903 0.57528 0.1537 0.0
N412 N 0.83969 0.48191 0.14538 0.0
N413 N 1.00527 0.65306 0.18941 0.0
C414 C 0.88428 0.5294 0.14963 0.0
C415 C 0.97112 0.61694 0.17225 0.0
N416 N 0.94285 0.49497 0.13855 0.0
N417 N 0.92744 0.66818 0.16396 0.0
H418 H 1.03593 0.64993 0.198 0.0
H419 H 0.99862 0.68182 0.19767 0.0
H420 H 0.89724 0.67376 0.15664 0.0
H421 H 0.96183 0.70321 0.16866 0.0
H422 H 0.91375 0.46606 0.12693 0.0
H423 H 0.97951 0.49677 0.13709 0.0
H424 H 0.84019 0.44648 0.14459 0.0
H425 H 0.8016 0.47717 0.14586 0.0
C426 C 0.47728 0.90913 0.50407 0.0
C427 C 0.48397 0.95923 0.49596 0.0
C428 C 0.38718 0.90794 0.48387 0.0
C429 C 0.38314 0.85748 0.4878 0.0
N430 N 0.43414 0.81438 0.49622 0.0
N431 N 0.44354 0.99831 0.46995 0.0
C432 C 0.43105 0.85946 0.4964 0.0
C433 C 0.43832 0.95627 0.48363 0.0
N434 N 0.5135 0.90798 0.52023 0.0
N435 N 0.34187 0.91073 0.48119 0.0
H436 H 0.48008 1.03168 0.46623 0.0
H437 H 0.41259 0.99659 0.45912 0.0
H438 H 0.30405 0.87778 0.48302 0.0
H439 H 0.34212 0.94654 0.48041 0.0
H440 H 0.50846 0.87311 0.52822 0.0
H441 H 0.54452 0.94179 0.52838 0.0
H442 H 0.46949 0.81435 0.49968 0.0
H443 H 0.40343 0.7784 0.48966 0.0
C444 C 0.61441 0.42328 0.82191 0.0
C445 C 0.66191 0.47105 0.82906 0.0
C446 C 0.70838 0.41735 0.82508 0.0
C447 C 0.65976 0.3687 0.82084 0.0
N448 N 0.56435 0.32724 0.82335 0.0
N449 N 0.75237 0.50603 0.84347 0.0
C450 C 0.61237 0.3725 0.82169 0.0
C451 C 0.70832 0.46574 0.83232 0.0
N452 N 0.57112 0.42578 0.81366 0.0
N453 N 0.75551 0.41857 0.82119 0.0
H454 H 0.75347 0.53999 0.85045 0.0
H455 H 0.78544 0.50303 0.84864 0.0
H456 H 0.75787 0.38599 0.81479 0.0
H457 H 0.79209 0.4532 0.82176 0.0
H458 H 0.53775 0.39339 0.80589 0.0
H459 H 0.57083 0.46096 0.81132 0.0
H460 H 0.52886 0.32726 0.82657 0.0
H461 H 0.56078 0.28999 0.82471 0.0
C462 C 0.58163 0.76246 0.50843 0.0
C463 C 0.61609 0.80174 0.49108 0.0
C464 C 0.65992 0.75146 0.48075 0.0
C465 C 0.63491 0.72015 0.50253 0.0
N466 N 0.55886 0.67995 0.53001 0.0
N467 N 0.6713 0.82423 0.45374 0.0
C468 C 0.59002 0.71948 0.51345 0.0
C469 C 0.64873 0.79212 0.47438 0.0
N470 N 0.54496 0.76957 0.52159 0.0
N471 N 0.69759 0.7452 0.46802 0.0
H472 H 0.66314 0.85432 0.44936 0.0
H473 H 0.69456 0.81897 0.44016 0.0
H474 H 0.7049 0.71454 0.47238 0.0
H475 H 0.72131 0.76972 0.45337 0.0
H476 H 0.52102 0.74489 0.53614 0.0
H477 H 0.53916 0.80139 0.51769 0.0
H478 H 0.52445 0.67577 0.53848 0.0
H479 H 0.56638 0.64914 0.53376 0.0
C480 C 0.92327 0.56706 0.83509 0.0
C481 C 0.94588 0.61609 0.84822 0.0
C482 C 0.98971 0.58686 0.87849 0.0
C483 C 0.96257 0.536 0.86714 0.0
N484 N 0.91423 0.4797 0.83185 0.0
N485 N 1.01201 0.67885 0.87656 0.0
C486 C 0.93332 0.52701 0.84423 0.0
C487 C 0.9833 0.62805 0.86795 0.0
N488 N 0.89036 0.55835 0.81475 0.0
N489 N 1.01931 0.59479 0.90006 0.0
H490 H 1.00771 0.70938 0.86875 0.0
H491 H 1.04291 0.69172 0.88967 0.0
H492 H 1.02642 0.56593 0.90771 0.0
H493 H 1.03526 0.62906 0.91101 0.0
H494 H 0.87062 0.52313 0.80468 0.0
H495 H 0.88246 0.58701 0.80762 0.0
H496 H 0.8945 0.47062 0.81443 0.0
H497 H 0.92076 0.44972 0.83844 0.0
C498 C 0.28675 0.98605 0.16353 0.0
C499 C 0.31148 0.9592 0.1527 0.0
C500 C 0.39832 1.0385 0.15619 0.0
C501 C 0.37426 1.0615 0.17141 0.0
N502 N 0.29578 1.06409 0.1839 0.0
N503 N 0.3858 0.96362 0.13033 0.0
C504 C 0.31846 1.03807 0.17246 0.0
C505 C 0.36574 0.98722 0.14587 0.0
N506 N 0.23318 0.96175 0.16692 0.0
N507 N 0.45239 1.06343 0.15378 0.0
H508 H 0.3618 0.92578 0.12293 0.0
H509 H 0.42435 0.98256 0.12307 0.0
H510 H 0.47728 0.10173 0.16023 0.0
H511 H 0.47299 1.04612 0.14583 0.0
H512 H 0.20709 0.92332 0.16079 0.0
H513 H 0.20709 0.92332 0.16079 0.0
H514 H 0.25466 1.04744 0.1858 0.0
H515 H 0.3186 0.10274 0.19059 0.0
C516 C 0.7171 0.4614 0.48792 0.0
C517 C 0.73245 0.42533 0.47877 0.0
C518 C 0.82633 0.49057 0.48499 0.0
C519 C 0.80981 0.52081 0.49938 0.0
N520 N 0.74442 0.54738 0.50658 0.0
N521 N 0.79976 0.4077 0.46268 0.0
C522 C 0.75665 0.51052 0.49786 0.0
C523 C 0.7868 0.44132 0.47475 0.0
N524 N 0.66434 0.44648 0.48883 0.0
N525 N 0.87939 0.5089 0.48169 0.0
H526 H 0.77085 0.37192 0.45489 0.0
H527 H 0.83839 0.41489 0.46019 0.0
H528 H 0.90808 0.54497 0.48933 0.0
H529 H 0.89504 0.49035 0.47052 0.0
H530 H 0.64904 0.46796 0.49775 0.0
H531 H 0.63519 0.41132 0.48065 0.0
H532 H 0.70714 0.54405 0.50502 0.0
H533 H 0.77313 0.5838 0.51379 0.0
C534 C 0.26218 0.35798 0.86121 0.0
C535 C 0.28021 0.41235 0.85715 0.0
C536 C 0.19151 0.398 0.8668 0.0
C537 C 0.17682 0.34657 0.87559 0.0
N538 N 0.19565 0.27576 0.8806 0.0
N539 N 0.26341 0.48538 0.8563 0.0
C540 C 0.21114 0.32562 0.87221 0.0
C541 C 0.24495 0.43256 0.85945 0.0
N542 N 0.29407 0.33771 0.85454 0.0
N543 N 0.1545 0.41401 0.86606 0.0
H544 H 0.30221 0.51196 0.8506 0.0
H545 H 0.24146 0.50365 0.86089 0.0
H546 H 0.11518 0.39003 0.87187 0.0
H547 H 0.1613 0.44906 0.85759 0.0
H548 H 0.28181 0.29763 0.85505 0.0
H549 H 0.33162 0.36074 0.84639 0.0
H550 H 0.2209 0.26005 0.88154 0.0
H551 H 0.15746 0.25061 0.88764 0.0
C552 C 0.85534 0.21691 0.13159 0.0
C553 C 0.86909 0.26997 0.12747 0.0
C554 C 0.77683 0.2471 0.13364 0.0
C555 C 0.76804 0.19993 0.14549 0.0
N556 N 0.79215 0.13304 0.15101 0.0
N557 N 0.84253 0.33396 0.11817 0.0
C558 C 0.80468 0.18182 0.14217 0.0
C559 C 0.82906 0.28395 0.12544 0.0
N560 N 0.89257 0.20226 0.12716 0.0
N561 N 0.73584 0.25728 0.13172 0.0
H562 H 0.8805 0.36066 0.11145 0.0
H563 H 0.81689 0.34921 0.119 0.0
H564 H 0.69755 0.23033 0.13798 0.0
H565 H 0.73852 0.28983 0.12227 0.0
H566 H 0.88538 0.16377 0.12894 0.0
H567 H 0.93002 0.22905 0.1198 0.0
H568 H 0.81864 0.11877 0.15139 0.0
H569 H 0.75443 0.1069 0.15826 0.0
C570 C 1.09853 0.56812 0.08723 0.0
C571 C 0.13891 0.56559 0.10128 0.0
C572 C 0.12706 0.49054 0.07573 0.0
C573 C 1.08866 0.49461 0.06064 0.0
N574 N 1.0477 0.5457 0.04803 0.0
N575 N 0.20242 0.53575 0.10407 0.0
C576 C 1.07715 0.53588 0.06521 0.0
C577 C 0.15674 0.53045 0.09392 0.0
N578 N 1.08016 0.60084 0.0951 0.0
N579 N 0.13354 0.44743 0.07351 0.0
H580 H 0.22642 0.56694 0.1162 0.0
H581 H 0.21958 0.51355 0.09805 0.0
H582 H 0.11112 0.4163 0.06102 0.0
H583 H 0.15727 0.44012 0.08584 0.0
H584 H 1.04608 0.59924 0.08771 0.0
H585 H 1.09765 0.62795 0.10997 0.0
H586 H 1.04255 0.5785 0.04914 0.0
H587 H 1.0325 0.52393 0.03128 0.0
C588 C 0.65608 0.16385 0.42146 0.0
C589 C 0.64238 0.1139 0.43191 0.0
C590 C 0.61173 0.07293 0.38985 0.0
C591 C 0.62096 0.12212 0.38006 0.0
N592 N 0.63994 0.21126 0.38807 0.0
N593 N 0.5995 1.01927 0.42733 0.0
C594 C 0.63951 0.16667 0.39635 0.0
C595 C 0.61759 1.06783 0.41651 0.0
N596 N 0.68658 0.20885 0.43513 0.0
N597 N 0.59993 1.03187 0.37356 0.0
H598 H 0.60458 1.01408 0.44662 0.0
H599 H 0.57591 0.984 0.41764 0.0
H600 H 0.59613 1.03427 0.35386 0.0
H601 H 0.59844 0.997 0.37923 0.0
H602 H 0.70208 0.24663 0.42751 0.0
H603 H 0.70078 0.20839 0.45328 0.0
H604 H 0.64787 0.24288 0.40006 0.0
H605 H 0.62712 0.2145 0.3699 0.0
C606 C 0.683 0.57282 0.75276 0.0
C607 C 0.6726 0.61101 0.76434 0.0
C608 C 0.71951 0.6725 0.72914 0.0
C609 C 0.72593 0.63292 0.71671 0.0
N610 N 0.70959 0.54369 0.71481 0.0
N611 N 0.66896 0.69158 0.75994 0.0
C612 C 0.70668 0.58265 0.72806 0.0
C613 C 0.68795 0.65958 0.75166 0.0
N614 N 0.67169 0.52769 0.76554 0.0
N615 N 0.74337 0.72246 0.71931 0.0
H616 H 0.64178 0.6815 0.7749 0.0
H617 H 0.6748 0.725 0.75008 0.0
H618 H 0.7658 0.73298 0.7025 0.0
H619 H 0.74495 0.75444 0.72899 0.0
H620 H 0.6855 0.50241 0.7599 0.0
H621 H 0.65062 0.51648 0.78258 0.0
H622 H 0.68992 0.50422 0.72035 0.0
H623 H 0.72932 0.55021 0.69733 0.0
C624 C 0.68709 0.14825 0.59131 0.0
C625 C 0.63722 0.1134 0.57957 0.0
C626 C 0.59824 0.08472 0.62264 0.0
C627 C 0.64889 0.11548 0.63422 0.0
N628 N 0.74393 0.16495 0.62816 0.0
N629 N 0.5503 1.03658 0.58497 0.0
C630 C 0.69405 0.14366 0.6181 0.0
C631 C 0.5944 0.07799 0.59555 0.0
N632 N 0.72718 0.18793 0.57764 0.0
N633 N 0.55315 1.0638 0.63725 0.0
H634 H 0.547 1.02821 0.56544 0.0
H635 H 0.52007 1.00705 0.59592 0.0
H636 H 0.5536 1.06991 0.65692 0.0
H637 H 0.51512 1.04539 0.62939 0.0
H638 H 0.76173 0.21746 0.58612 0.0
H639 H 0.72424 0.19512 0.55848 0.0
H640 H 0.77818 0.18128 0.6169 0.0
H641 H 0.75079 0.1611 0.64739 0.0
C642 C 0.69421 0.6586 0.92553 0.0
C643 C 0.66276 0.61268 0.91057 0.0
C644 C 0.61824 0.56427 0.9501 0.0
C645 C 0.65378 0.6083 0.96521 0.0
N646 N 0.73025 0.6956 0.96729 0.0
N647 N 0.59885 0.5198 0.90895 0.0
C648 C 0.6928 0.65514 0.95288 0.0
C649 C 0.62575 0.56502 0.92298 0.0
N650 N 0.72515 0.70586 0.91357 0.0
N651 N 0.57623 0.52212 0.96161 0.0
H652 H 0.60221 0.51904 0.88915 0.0
H653 H 0.57618 0.48253 0.91703 0.0
H654 H 0.56942 0.52019 0.98129 0.0
H655 H 0.54558 0.49126 0.95154 0.0
H656 H 0.74452 0.74181 0.92319 0.0
H657 H 0.72794 0.70986 0.89373 0.0
H658 H 0.7634 0.72824 0.95956 0.0
H659 H 0.73066 0.69466 0.98722 0.0
C660 C 0.18988 0.63657 0.26003 0.0
C661 C 0.14901 0.59152 0.24747 0.0
C662 C 1.10888 0.55413 0.28945 0.0
C663 C 0.14739 0.60086 0.30199 0.0
N664 N 0.21823 0.69111 0.2983 0.0
N665 N 1.06254 0.51352 0.25006 0.0
C666 C 0.18612 0.64344 0.28698 0.0
C667 C 1.10633 0.55225 0.26217 0.0
N668 N 0.23318 0.67214 0.24637 0.0
N669 N 1.07629 0.51031 0.30352 0.0
H670 H 1.0586 0.51153 0.23023 0.0
H671 H 1.02796 0.48691 0.25968 0.0
H672 H 1.07781 0.50921 0.32341 0.0
H673 H 1.05149 0.4735 0.29537 0.0
H674 H 0.26709 0.70265 0.25478 0.0
H675 H 0.23673 0.66873 0.2267 0.0
H676 H 0.24351 0.7251 0.28807 0.0
H677 H 0.21601 0.69792 0.31773 0.0
loop_
_geom_bond_atom_site_label_1
_geom_bond_atom_site_label_2
_geom_bond_distance
_geom_bond_site_symmetry_2
_ccdc_geom_bond_type
Tb0 C2 2.809 . S
Tb0 O20 2.484 . S
Tb0 O21 2.440 . S
Tb0 O22 2.658 . S
Tb0 O23 2.409 . S
Tb0 O24 2.378 . S
Tb0 O28 2.325 . S
Tb0 O31 2.341 1_455 S
Tb1 C11 2.809 . S
Tb1 O22 2.325 1_655 S
Tb1 O25 2.341 1_655 S
Tb1 O26 2.484 . S
Tb1 O27 2.440 . S
Tb1 O28 2.658 1_655 S
Tb1 O29 2.408 . S
Tb1 O30 2.378 . S
C2 Tb0 2.809 . S
C2 C3 1.514 . S
C2 O20 1.248 . S
C2 O21 1.266 . S
C3 C2 1.514 . S
C3 C4 1.359 . S
C3 C8 1.348 . S
C4 C3 1.359 . S
C4 C5 1.380 . S
C4 H32 0.929 . S
C5 C4 1.380 . S
C5 C6 1.347 . S
C5 H33 0.931 . S
C6 C5 1.347 . S
C6 C7 1.369 . S
C7 C6 1.369 . S
C7 C8 1.408 . S
C7 H34 0.930 . S
C8 C3 1.348 . S
C8 C7 1.408 . S
C8 H35 0.930 . S
C9 O22 1.281 . S
C9 O23 1.254 . S
C10 O24 1.236 . S
C10 O25 1.266 . S
C11 Tb1 2.809 . S
C11 C12 1.514 . S
C11 O26 1.248 . S
C11 O27 1.266 . S
C12 C11 1.514 . S
C12 C13 1.359 . S
C12 C17 1.348 . S
C13 C12 1.359 . S
C13 C14 1.380 . S
C13 H36 0.929 . S
C14 C13 1.380 . S
C14 C15 1.347 . S
C14 H37 0.931 . S
C15 C14 1.347 . S
C15 C16 1.369 . S
C16 C15 1.369 . S
C16 C17 1.408 . S
C16 H38 0.930 . S
C17 C12 1.348 . S
C17 C16 1.408 . S
C17 H39 0.930 . S
C18 O28 1.281 . S
C18 O29 1.253 1_455 S
C19 O30 1.236 . S
C19 O31 1.266 . S
O20 Tb0 2.484 . S
O20 C2 1.248 . S
O21 Tb0 2.440 . S
O21 C2 1.266 . S
O22 Tb0 2.658 . S
O22 Tb1 2.325 1_455 S
O22 C9 1.281 . S
O23 Tb0 2.409 . S
O23 C9 1.254 . S
O24 Tb0 2.378 . S
O24 C10 1.236 . S
O25 Tb1 2.341 1_455 S
O25 C10 1.266 . S
O26 Tb1 2.484 . S
O26 C11 1.248 . S
O27 Tb1 2.440 . S
O27 C11 1.266 . S
O28 Tb0 2.325 . S
O28 Tb1 2.658 1_455 S
O28 C18 1.281 . S
O29 Tb1 2.408 . S
O29 C18 1.253 1_655 S
O30 Tb1 2.378 . S
O30 C19 1.236 . S
O31 Tb0 2.341 1_655 S
O31 C19 1.266 . S
H32 C4 0.929 . S
H33 C5 0.931 . S
H34 C7 0.930 . S
H35 C8 0.930 . S
H36 C13 0.929 . S
H37 C14 0.931 . S
H38 C16 0.930 . S
H39 C17 0.930 . S
Tb40 C42 2.809 . S
Tb40 O60 2.484 . S
Tb40 O61 2.440 . S
Tb40 O62 2.658 1_565 S
Tb40 O63 2.409 1_565 S
Tb40 O64 2.378 . S
Tb40 O68 2.325 1_565 S
Tb40 O71 2.341 1_565 S
Tb41 C51 2.809 . S
Tb41 O62 2.325 . S
Tb41 O65 2.341 1_545 S
Tb41 O66 2.484 . S
Tb41 O67 2.440 . S
Tb41 O68 2.658 . S
Tb41 O69 2.409 . S
Tb41 O70 2.378 . S
C42 Tb40 2.809 . S
C42 C43 1.514 . S
C42 O60 1.248 . S
C42 O61 1.266 . S
C43 C42 1.514 . S
C43 C44 1.359 . S
C43 C48 1.348 . S
C44 C43 1.359 . S
C44 C45 1.380 . S
C44 H72 0.929 . S
C45 C44 1.380 . S
C45 C46 1.347 . S
C45 H73 0.931 . S
C46 C45 1.347 . S
C46 C47 1.369 . S
C47 C46 1.369 . S
C47 C48 1.408 . S
C47 H74 0.930 . S
C48 C43 1.348 . S
C48 C47 1.408 . S
C48 H75 0.930 . S
C49 O62 1.281 . S
C49 O63 1.254 . S
C50 O64 1.236 . S
C50 O65 1.266 . S
C51 Tb41 2.809 . S
C51 C52 1.514 . S
C51 O66 1.248 . S
C51 O67 1.266 . S
C52 C51 1.514 . S
C52 C53 1.359 . S
C52 C57 1.348 . S
C53 C52 1.359 . S
C53 C54 1.380 . S
C53 H76 0.929 . S
C54 C53 1.380 . S
C54 C55 1.347 . S
C54 H77 0.931 . S
C55 C54 1.347 . S
C55 C56 1.369 . S
C56 C55 1.369 . S
C56 C57 1.408 . S
C56 H78 0.930 . S
C57 C52 1.348 . S
C57 C56 1.408 . S
C57 H79 0.930 . S
C58 O68 1.281 . S
C58 O69 1.254 . S
C59 O70 1.236 . S
C59 O71 1.266 . S
O60 Tb40 2.484 . S
O60 C42 1.248 . S
O61 Tb40 2.440 . S
O61 C42 1.266 . S
O62 Tb40 2.658 1_545 S
O62 Tb41 2.325 . S
O62 C49 1.281 . S
O63 Tb40 2.409 1_545 S
O63 C49 1.254 . S
O64 Tb40 2.378 . S
O64 C50 1.236 . S
O65 Tb41 2.341 1_565 S
O65 C50 1.266 . S
O66 Tb41 2.484 . S
O66 C51 1.248 . S
O67 Tb41 2.440 . S
O67 C51 1.266 . S
O68 Tb40 2.325 1_545 S
O68 Tb41 2.658 . S
O68 C58 1.281 . S
O69 Tb41 2.409 . S
O69 C58 1.254 . S
O70 Tb41 2.378 . S
O70 C59 1.236 . S
O71 Tb40 2.341 1_545 S
O71 C59 1.266 . S
H72 C44 0.929 . S
H73 C45 0.931 . S
H74 C47 0.930 . S
H75 C48 0.930 . S
H76 C53 0.929 . S
H77 C54 0.931 . S
H78 C56 0.930 . S
H79 C57 0.930 . S
Tb80 C82 2.809 . S
Tb80 O100 2.484 . S
Tb80 O101 2.440 . S
Tb80 O102 2.658 . S
Tb80 O103 2.409 . S
Tb80 O104 2.378 . S
Tb80 O108 2.325 . S
Tb80 O111 2.341 . S
Tb81 C91 2.809 . S
Tb81 O102 2.325 . S
Tb81 O105 2.341 . S
Tb81 O106 2.484 . S
Tb81 O107 2.440 . S
Tb81 O108 2.658 . S
Tb81 O109 2.409 . S
Tb81 O110 2.378 . S
C82 Tb80 2.809 . S
C82 C83 1.514 . S
C82 O100 1.248 . S
C82 O101 1.266 . S
C83 C82 1.514 . S
C83 C84 1.359 . S
C83 C88 1.348 . S
C84 C83 1.359 . S
C84 C85 1.380 . S
C84 H112 0.929 . S
C85 C84 1.380 . S
C85 C86 1.347 . S
C85 H113 0.931 . S
C86 C85 1.347 . S
C86 C87 1.369 . S
C87 C86 1.369 . S
C87 C88 1.408 . S
C87 H114 0.930 . S
C88 C83 1.348 . S
C88 C87 1.408 . S
C88 H115 0.930 . S
C89 O102 1.281 . S
C89 O103 1.254 . S
C90 O104 1.236 . S
C90 O105 1.266 . S
C91 Tb81 2.809 . S
C91 C92 1.514 . S
C91 O106 1.248 . S
C91 O107 1.266 . S
C92 C91 1.514 . S
C92 C93 1.359 . S
C92 C97 1.348 . S
C93 C92 1.359 . S
C93 C94 1.380 . S
C93 H116 0.929 . S
C94 C93 1.380 . S
C94 C95 1.347 . S
C94 H117 0.931 . S
C95 C94 1.347 . S
C95 C96 1.369 . S
C96 C95 1.369 . S
C96 C97 1.408 . S
C96 H118 0.930 . S
C97 C92 1.348 . S
C97 C96 1.408 . S
C97 H119 0.930 . S
C98 O108 1.281 . S
C98 O109 1.254 . S
C99 O110 1.236 . S
C99 O111 1.266 . S
O100 Tb80 2.484 . S
O100 C82 1.248 . S
O101 Tb80 2.440 . S
O101 C82 1.266 . S
O102 Tb80 2.658 . S
O102 Tb81 2.325 . S
O102 C89 1.281 . S
O103 Tb80 2.409 . S
O103 C89 1.254 . S
O104 Tb80 2.378 . S
O104 C90 1.236 . S
O105 Tb81 2.341 . S
O105 C90 1.266 . S
O106 Tb81 2.484 . S
O106 C91 1.248 . S
O107 Tb81 2.440 . S
O107 C91 1.266 . S
O108 Tb80 2.325 . S
O108 Tb81 2.658 . S
O108 C98 1.281 . S
O109 Tb81 2.409 . S
O109 C98 1.254 . S
O110 Tb81 2.378 . S
O110 C99 1.236 . S
O111 Tb80 2.341 . S
O111 C99 1.266 . S
H112 C84 0.929 . S
H113 C85 0.931 . S
H114 C87 0.930 . S
H115 C88 0.930 . S
H116 C93 0.929 . S
H117 C94 0.931 . S
H118 C96 0.930 . S
H119 C97 0.930 . S
C120 C121 1.386 . S
C120 C122 1.397 . S
C120 H144 0.931 . S
C121 C120 1.386 . S
C121 C125 1.397 . S
C122 C120 1.397 . S
C122 C123 1.384 . S
C122 H145 0.930 . S
C123 C122 1.384 . S
C123 C124 1.377 . S
C123 C126 1.481 . S
C124 C123 1.377 . S
C124 C125 1.389 . S
C124 H146 0.929 1_545 S
C125 C121 1.397 . S
C125 C124 1.389 . S
C125 H147 0.931 1_545 S
C126 C123 1.481 . S
C126 C127 1.387 . S
C126 C131 1.390 . S
C127 C126 1.387 . S
C127 C128 1.401 . S
C127 H148 0.930 . S
C128 C127 1.401 . S
C128 C129 1.376 . S
C128 C137 1.511 . S
C129 C128 1.376 . S
C129 C130 1.392 . S
C129 H150 0.931 . S
C130 C129 1.392 . S
C130 C131 1.361 . S
C130 C132 1.500 1_545 S
C131 C126 1.390 . S
C131 C130 1.361 . S
C131 H149 0.931 1_545 S
C132 C130 1.500 1_565 S
C132 C133 1.371 . S
C132 C134 1.365 . S
C133 C132 1.371 . S
C133 C143 1.386 . S
C133 H151 0.931 1_565 S
C134 C132 1.365 . S
C134 C135 1.409 . S
C134 H152 0.929 . S
C135 C134 1.409 . S
C135 C136 1.380 . S
C135 H153 0.930 . S
C136 C135 1.380 . S
C136 C143 1.357 . S
C137 C128 1.511 . S
C137 C138 1.341 . S
C137 C139 1.371 . S
C138 C137 1.341 . S
C138 C142 1.394 . S
C138 H154 0.930 . S
C139 C137 1.371 . S
C139 C140 1.392 . S
C139 H155 0.931 . S
C140 C139 1.392 . S
C140 C141 1.331 . S
C140 H158 0.932 . S
C141 C140 1.331 . S
C141 C142 1.336 . S
C142 C138 1.394 . S
C142 C141 1.336 . S
C142 H157 0.929 . S
C143 C133 1.386 . S
C143 C136 1.357 . S
C143 H156 0.928 . S
H144 C120 0.931 . S
H145 C122 0.930 . S
H146 C124 0.929 1_565 S
H147 C125 0.931 1_565 S
H148 C127 0.930 . S
H149 C131 0.931 1_565 S
H150 C129 0.931 . S
H151 C133 0.931 1_545 S
H152 C134 0.929 . S
H153 C135 0.930 . S
H154 C138 0.930 . S
H155 C139 0.931 . S
H156 C143 0.928 . S
H157 C142 0.929 . S
H158 C140 0.932 . S
C159 C160 1.386 . S
C159 C161 1.397 . S
C159 H183 0.931 . S
C160 C159 1.386 . S
C160 C164 1.397 . S
C161 C159 1.397 . S
C161 C162 1.384 . S
C161 H184 0.930 . S
C162 C161 1.384 . S
C162 C163 1.377 . S
C162 C165 1.481 . S
C163 C162 1.377 . S
C163 C164 1.389 . S
C163 H185 0.929 . S
C164 C160 1.397 . S
C164 C163 1.389 . S
C164 H186 0.931 . S
C165 C162 1.481 . S
C165 C166 1.387 . S
C165 C170 1.390 . S
C166 C165 1.387 . S
C166 C167 1.401 . S
C166 H187 0.930 . S
C167 C166 1.401 . S
C167 C168 1.376 . S
C167 C176 1.511 . S
C168 C167 1.376 . S
C168 C169 1.392 . S
C168 H189 0.931 . S
C169 C168 1.392 . S
C169 C170 1.361 . S
C169 C171 1.500 . S
C170 C165 1.390 . S
C170 C169 1.361 . S
C170 H188 0.931 . S
C171 C169 1.500 . S
C171 C172 1.371 . S
C171 C173 1.365 . S
C172 C171 1.371 . S
C172 C182 1.386 . S
C172 H190 0.931 . S
C173 C171 1.365 . S
C173 C174 1.409 . S
C173 H191 0.929 . S
C174 C173 1.409 . S
C174 C175 1.380 . S
C174 H192 0.930 . S
C175 C174 1.380 . S
C175 C182 1.357 . S
C176 C167 1.511 . S
C176 C177 1.341 . S
C176 C178 1.371 . S
C177 C176 1.341 . S
C177 C181 1.394 . S
C177 H193 0.930 . S
C178 C176 1.371 . S
C178 C179 1.392 . S
C178 H194 0.931 . S
C179 C178 1.392 . S
C179 C180 1.331 . S
C179 H197 0.932 . S
C180 C179 1.331 . S
C180 C181 1.336 . S
C181 C177 1.394 . S
C181 C180 1.336 . S
C181 H196 0.929 . S
C182 C172 1.386 . S
C182 C175 1.357 . S
C182 H195 0.928 . S
H183 C159 0.931 . S
H184 C161 0.930 . S
H185 C163 0.929 . S
H186 C164 0.931 . S
H187 C166 0.930 . S
H188 C170 0.931 . S
H189 C168 0.931 . S
H190 C172 0.931 . S
H191 C173 0.929 . S
H192 C174 0.930 . S
H193 C177 0.930 . S
H194 C178 0.931 . S
H195 C182 0.928 . S
H196 C181 0.929 . S
H197 C179 0.932 . S
C198 C199 1.386 . S
C198 C200 1.397 1_554 S
C198 H222 0.931 . S
C199 C198 1.386 . S
C199 C203 1.397 1_455 S
C200 C198 1.397 1_556 S
C200 C201 1.384 . S
C200 H223 0.930 . S
C201 C200 1.384 . S
C201 C202 1.377 1_455 S
C201 C204 1.481 . S
C202 C201 1.377 1_655 S
C202 C203 1.389 1_556 S
C202 H224 0.929 . S
C203 C199 1.397 1_655 S
C203 C202 1.389 1_554 S
C203 H225 0.931 . S
C204 C201 1.481 . S
C204 C205 1.387 . S
C204 C209 1.390 1_455 S
C205 C204 1.387 . S
C205 C206 1.401 . S
C205 H226 0.930 . S
C206 C205 1.401 . S
C206 C207 1.376 . S
C206 C215 1.511 . S
C207 C206 1.376 . S
C207 C208 1.392 1_455 S
C207 H228 0.931 . S
C208 C207 1.392 1_655 S
C208 C209 1.361 . S
C208 C210 1.500 . S
C209 C204 1.390 1_655 S
C209 C208 1.361 . S
C209 H227 0.931 . S
C210 C208 1.500 . S
C210 C211 1.371 . S
C210 C212 1.365 . S
C211 C210 1.371 . S
C211 C221 1.386 . S
C211 H229 0.931 . S
C212 C210 1.365 . S
C212 C213 1.409 . S
C212 H230 0.929 . S
C213 C212 1.409 . S
C213 C214 1.380 . S
C213 H231 0.930 . S
C214 C213 1.380 . S
C214 C221 1.357 . S
C215 C206 1.511 . S
C215 C216 1.341 . S
C215 C217 1.371 . S
C216 C215 1.341 . S
C216 C220 1.394 . S
C216 H232 0.930 . S
C217 C215 1.371 . S
C217 C218 1.392 . S
C217 H233 0.931 . S
C218 C217 1.392 . S
C218 C219 1.331 . S
C218 H236 0.932 . S
C219 C218 1.331 . S
C219 C220 1.336 . S
C220 C216 1.394 . S
C220 C219 1.336 . S
C220 H235 0.929 . S
C221 C211 1.386 . S
C221 C214 1.357 . S
C221 H234 0.928 . S
H222 C198 0.931 . S
H223 C200 0.930 . S
H224 C202 0.929 . S
H225 C203 0.931 . S
H226 C205 0.930 . S
H227 C209 0.931 . S
H228 C207 0.931 . S
H229 C211 0.931 . S
H230 C212 0.929 . S
H231 C213 0.930 . S
H232 C216 0.930 . S
H233 C217 0.931 . S
H234 C221 0.928 . S
H235 C220 0.929 . S
H236 C218 0.932 . S
C237 C238 1.386 1_655 S
C237 C239 1.397 . S
C237 H261 0.931 . S
C238 C237 1.386 1_455 S
C238 C242 1.397 . S
C239 C237 1.397 . S
C239 C240 1.384 1_655 S
C239 H262 0.930 . S
C240 C239 1.384 1_455 S
C240 C241 1.377 . S
C240 C243 1.481 . S
C241 C240 1.377 . S
C241 C242 1.389 . S
C241 H263 0.929 . S
C242 C238 1.397 . S
C242 C241 1.389 . S
C242 H264 0.931 . S
C243 C240 1.481 . S
C243 C244 1.387 . S
C243 C248 1.390 . S
C244 C243 1.387 . S
C244 C245 1.401 . S
C244 H265 0.930 1_455 S
C245 C244 1.401 . S
C245 C246 1.376 . S
C245 C254 1.511 1_455 S
C246 C245 1.376 . S
C246 C247 1.392 . S
C246 H267 0.931 . S
C247 C246 1.392 . S
C247 C248 1.361 . S
C247 C249 1.500 . S
C248 C243 1.390 . S
C248 C247 1.361 . S
C248 H266 0.931 . S
C249 C247 1.500 . S
C249 C250 1.371 . S
C249 C251 1.365 . S
C250 C249 1.371 . S
C250 C260 1.386 . S
C250 H268 0.931 . S
C251 C249 1.365 . S
C251 C252 1.409 . S
C251 H269 0.929 . S
C252 C251 1.409 . S
C252 C253 1.380 . S
C252 H270 0.930 . S
C253 C252 1.380 . S
C253 C260 1.357 . S
C254 C245 1.511 1_655 S
C254 C255 1.341 . S
C254 C256 1.371 . S
C255 C254 1.341 . S
C255 C259 1.394 . S
C255 H271 0.930 . S
C256 C254 1.371 . S
C256 C257 1.392 . S
C256 H272 0.916 1_655 S
C257 C256 1.392 . S
C257 C258 1.331 . S
C257 H275 0.932 . S
C258 C257 1.331 . S
C258 C259 1.336 . S
C259 C255 1.394 . S
C259 C258 1.336 . S
C259 H274 0.929 . S
C260 C250 1.386 . S
C260 C253 1.357 . S
C260 H273 0.928 . S
H261 C237 0.931 . S
H262 C239 0.930 . S
H263 C241 0.929 . S
H264 C242 0.931 . S
H265 C244 0.930 1_655 S
H266 C248 0.931 . S
H267 C246 0.931 . S
H268 C250 0.931 . S
H269 C251 0.929 . S
H270 C252 0.930 . S
H271 C255 0.930 . S
H272 C256 0.916 1_455 S
H273 C260 0.928 . S
H274 C259 0.929 . S
H275 C257 0.932 . S
C276 C277 1.386 1_565 S
C276 C278 1.397 . S
C276 H300 0.931 . S
C277 C276 1.386 1_545 S
C277 C281 1.397 . S
C278 C276 1.397 . S
C278 C279 1.384 1_565 S
C278 H301 0.930 . S
C279 C278 1.384 1_545 S
C279 C280 1.377 . S
C279 C282 1.481 . S
C280 C279 1.377 . S
C280 C281 1.389 . S
C280 H302 0.929 . S
C281 C277 1.397 . S
C281 C280 1.389 . S
C281 H303 0.931 . S
C282 C279 1.481 . S
C282 C283 1.387 1_545 S
C282 C287 1.390 . S
C283 C282 1.387 1_565 S
C283 C284 1.401 . S
C283 H304 0.930 . S
C284 C283 1.401 . S
C284 C285 1.376 1_565 S
C284 C293 1.511 . S
C285 C284 1.376 1_545 S
C285 C286 1.392 . S
C285 H306 0.931 . S
C286 C285 1.392 . S
C286 C287 1.361 . S
C286 C288 1.500 . S
C287 C282 1.390 . S
C287 C286 1.361 . S
C287 H305 0.931 . S
C288 C286 1.500 . S
C288 C289 1.371 . S
C288 C290 1.365 . S
C289 C288 1.371 . S
C289 C299 1.386 . S
C289 H307 0.931 . S
C290 C288 1.365 . S
C290 C291 1.409 . S
C290 H308 0.929 . S
C291 C290 1.409 . S
C291 C292 1.380 . S
C291 H309 0.930 . S
C292 C291 1.380 . S
C292 C299 1.357 . S
C293 C284 1.511 . S
C293 C294 1.341 . S
C293 C295 1.371 . S
C294 C293 1.341 . S
C294 C298 1.394 . S
C294 H310 0.930 . S
C295 C293 1.371 . S
C295 C296 1.392 . S
C295 H311 0.931 . S
C296 C295 1.392 . S
C296 C297 1.331 . S
C296 H314 0.932 . S
C297 C296 1.331 . S
C297 C298 1.336 . S
C298 C294 1.394 . S
C298 C297 1.336 . S
C298 H313 0.929 . S
C299 C289 1.386 . S
C299 C292 1.357 . S
C299 H312 0.928 . S
H300 C276 0.931 . S
H301 C278 0.930 . S
H302 C280 0.929 . S
H303 C281 0.931 . S
H304 C283 0.930 . S
H305 C287 0.931 . S
H306 C285 0.931 . S
H307 C289 0.931 . S
H308 C290 0.929 . S
H309 C291 0.930 . S
H310 C294 0.930 . S
H311 C295 0.931 . S
H312 C299 0.928 . S
H313 C298 0.929 . S
H314 C296 0.932 . S
C315 C316 1.375 1_554 S
C315 C317 1.397 . S
C315 H339 0.931 . S
C316 C315 1.375 1_556 S
C316 C320 1.387 1_556 S
C317 C315 1.397 . S
C317 C318 1.384 . S
C317 H340 0.930 . S
C318 C317 1.384 . S
C318 C319 1.377 . S
C318 C321 1.481 . S
C319 C318 1.377 . S
C319 C320 1.389 . S
C319 H341 0.929 . S
C320 C316 1.387 1_554 S
C320 C319 1.389 . S
C320 H342 0.931 . S
C321 C318 1.481 . S
C321 C322 1.387 . S
C321 C326 1.390 . S
C322 C321 1.387 . S
C322 C323 1.401 . S
C322 H343 0.930 . S
C323 C322 1.401 . S
C323 C324 1.376 . S
C323 C332 1.511 . S
C324 C323 1.376 . S
C324 C325 1.392 . S
C324 H345 0.931 . S
C325 C324 1.392 . S
C325 C326 1.361 . S
C325 C327 1.500 . S
C326 C321 1.390 . S
C326 C325 1.361 . S
C326 H344 0.931 . S
C327 C325 1.500 . S
C327 C328 1.371 . S
C327 C329 1.365 . S
C328 C327 1.371 . S
C328 C338 1.386 . S
C328 H346 0.931 . S
C329 C327 1.365 . S
C329 C330 1.409 . S
C329 H347 0.929 . S
C330 C329 1.409 . S
C330 C331 1.380 . S
C330 H348 0.930 . S
C331 C330 1.380 . S
C331 C338 1.357 . S
C332 C323 1.511 . S
C332 C333 1.341 . S
C332 C334 1.371 . S
C333 C332 1.341 . S
C333 C337 1.394 . S
C333 H349 0.930 . S
C334 C332 1.371 . S
C334 C335 1.392 . S
C334 H350 0.931 . S
C335 C334 1.392 . S
C335 C336 1.331 . S
C335 H353 0.932 . S
C336 C335 1.331 . S
C336 C337 1.336 . S
C337 C333 1.394 . S
C337 C336 1.336 . S
C337 H352 0.929 . S
C338 C328 1.386 . S
C338 C331 1.357 . S
C338 H351 0.928 . S
H339 C315 0.931 . S
H340 C317 0.930 . S
H341 C319 0.929 . S
H342 C320 0.931 . S
H343 C322 0.930 . S
H344 C326 0.931 . S
H345 C324 0.931 . S
H346 C328 0.931 . S
H347 C329 0.929 . S
H348 C330 0.930 . S
H349 C333 0.930 . S
H350 C334 0.931 . S
H351 C338 0.928 . S
H352 C337 0.929 . S
H353 C335 0.932 . S
C354 C355 1.363 . S
C354 C360 1.379 . S
C354 N362 1.356 . S
C355 C354 1.363 . S
C355 C361 1.363 . S
C356 C357 1.363 . S
C356 C361 1.379 . S
C356 N363 1.356 . S
C357 C356 1.363 . S
C357 C360 1.363 . S
N358 C360 1.356 . S
N358 H370 0.984 . S
N358 H371 0.985 . S
N359 C361 1.356 . S
N359 H364 0.984 . S
N359 H365 0.985 . S
C360 C354 1.379 . S
C360 C357 1.363 . S
C360 N358 1.356 . S
C361 C355 1.363 . S
C361 C356 1.379 . S
C361 N359 1.356 . S
N362 C354 1.356 . S
N362 H368 0.984 . S
N362 H369 0.984 . S
N363 C356 1.356 . S
N363 H366 0.984 . S
N363 H367 0.985 . S
H364 N359 0.984 . S
H365 N359 0.985 . S
H366 N363 0.984 . S
H367 N363 0.985 . S
H368 N362 0.984 . S
H369 N362 0.984 . S
H370 N358 0.984 . S
H371 N358 0.985 . S
C372 C373 1.363 . S
C372 C378 1.379 . S
C372 N380 1.356 . S
C373 C372 1.363 . S
C373 C379 1.363 . S
C374 C375 1.363 . S
C374 C379 1.379 . S
C374 N381 1.356 . S
C375 C374 1.363 . S
C375 C378 1.363 . S
N376 C378 1.356 . S
N376 H388 0.984 . S
N376 H389 0.985 . S
N377 C379 1.356 . S
N377 H382 0.984 . S
N377 H383 0.985 . S
C378 C372 1.379 . S
C378 C375 1.363 . S
C378 N376 1.356 . S
C379 C373 1.363 . S
C379 C374 1.379 . S
C379 N377 1.356 . S
N380 C372 1.356 . S
N380 H386 0.984 . S
N380 H387 0.984 . S
N381 C374 1.356 . S
N381 H384 0.984 . S
N381 H385 0.985 . S
H382 N377 0.984 . S
H383 N377 0.985 . S
H384 N381 0.984 . S
H385 N381 0.985 . S
H386 N380 0.984 . S
H387 N380 0.984 . S
H388 N376 0.984 . S
H389 N376 0.985 . S
C390 C391 1.363 . S
C390 C396 1.379 . S
C390 N398 1.356 . S
C391 C390 1.363 . S
C391 C397 1.363 . S
C392 C393 1.363 . S
C392 C397 1.379 . S
C392 N399 1.356 . S
C393 C392 1.363 . S
C393 C396 1.363 . S
N394 C396 1.356 . S
N394 H406 0.984 . S
N394 H407 0.985 . S
N395 C397 1.356 . S
N395 H400 0.984 . S
N395 H401 0.985 . S
C396 C390 1.379 . S
C396 C393 1.363 . S
C396 N394 1.356 . S
C397 C391 1.363 . S
C397 C392 1.379 . S
C397 N395 1.356 . S
N398 C390 1.356 . S
N398 H404 0.984 . S
N398 H405 0.984 . S
N399 C392 1.356 . S
N399 H402 0.984 . S
N399 H403 0.985 . S
H400 N395 0.984 . S
H401 N395 0.985 . S
H402 N399 0.984 . S
H403 N399 0.985 . S
H404 N398 0.984 . S
H405 N398 0.984 . S
H406 N394 0.984 . S
H407 N394 0.985 . S
C408 C409 1.363 . S
C408 C414 1.379 . S
C408 N416 1.356 . S
C409 C408 1.363 . S
C409 C415 1.363 . S
C410 C411 1.363 . S
C410 C415 1.379 . S
C410 N417 1.356 . S
C411 C410 1.363 . S
C411 C414 1.363 . S
N412 C414 1.356 . S
N412 H424 0.984 . S
N412 H425 0.985 . S
N413 C415 1.356 . S
N413 H418 0.984 . S
N413 H419 0.985 . S
C414 C408 1.379 . S
C414 C411 1.363 . S
C414 N412 1.356 . S
C415 C409 1.363 . S
C415 C410 1.379 . S
C415 N413 1.356 . S
N416 C408 1.356 . S
N416 H422 0.984 . S
N416 H423 0.984 . S
N417 C410 1.356 . S
N417 H420 0.984 . S
N417 H421 0.985 . S
H418 N413 0.984 . S
H419 N413 0.985 . S
H420 N417 0.984 . S
H421 N417 0.985 . S
H422 N416 0.984 . S
H423 N416 0.984 . S
H424 N412 0.984 . S
H425 N412 0.985 . S
C426 C427 1.363 . S
C426 C432 1.379 . S
C426 N434 1.356 . S
C427 C426 1.363 . S
C427 C433 1.363 . S
C428 C429 1.363 . S
C428 C433 1.379 . S
C428 N435 1.356 . S
C429 C428 1.363 . S
C429 C432 1.363 . S
N430 C432 1.356 . S
N430 H442 0.984 . S
N430 H443 0.985 . S
N431 C433 1.356 . S
N431 H436 0.984 . S
N431 H437 0.985 . S
C432 C426 1.379 . S
C432 C429 1.363 . S
C432 N430 1.356 . S
C433 C427 1.363 . S
C433 C428 1.379 . S
C433 N431 1.356 . S
N434 C426 1.356 . S
N434 H440 0.984 . S
N434 H441 0.984 . S
N435 C428 1.356 . S
N435 H438 0.984 . S
N435 H439 0.985 . S
H436 N431 0.984 . S
H437 N431 0.985 . S
H438 N435 0.984 . S
H439 N435 0.985 . S
H440 N434 0.984 . S
H441 N434 0.984 . S
H442 N430 0.984 . S
H443 N430 0.985 . S
C444 C445 1.363 . S
C444 C450 1.379 . S
C444 N452 1.356 . S
C445 C444 1.363 . S
C445 C451 1.363 . S
C446 C447 1.363 . S
C446 C451 1.379 . S
C446 N453 1.356 . S
C447 C446 1.363 . S
C447 C450 1.363 . S
N448 C450 1.356 . S
N448 H460 0.984 . S
N448 H461 0.985 . S
N449 C451 1.356 . S
N449 H454 0.984 . S
N449 H455 0.985 . S
C450 C444 1.379 . S
C450 C447 1.363 . S
C450 N448 1.356 . S
C451 C445 1.363 . S
C451 C446 1.379 . S
C451 N449 1.356 . S
N452 C444 1.356 . S
N452 H458 0.984 . S
N452 H459 0.984 . S
N453 C446 1.356 . S
N453 H456 0.984 . S
N453 H457 0.985 . S
H454 N449 0.984 . S
H455 N449 0.985 . S
H456 N453 0.984 . S
H457 N453 0.985 . S
H458 N452 0.984 . S
H459 N452 0.984 . S
H460 N448 0.984 . S
H461 N448 0.985 . S
C462 C463 1.363 . S
C462 C468 1.379 . S
C462 N470 1.356 . S
C463 C462 1.363 . S
C463 C469 1.363 . S
C464 C465 1.363 . S
C464 C469 1.379 . S
C464 N471 1.356 . S
C465 C464 1.363 . S
C465 C468 1.363 . S
N466 C468 1.356 . S
N466 H478 0.984 . S
N466 H479 0.985 . S
N467 C469 1.356 . S
N467 H472 0.984 . S
N467 H473 0.985 . S
C468 C462 1.379 . S
C468 C465 1.363 . S
C468 N466 1.356 . S
C469 C463 1.363 . S
C469 C464 1.379 . S
C469 N467 1.356 . S
N470 C462 1.356 . S
N470 H476 0.984 . S
N470 H477 0.984 . S
N471 C464 1.356 . S
N471 H474 0.984 . S
N471 H475 0.985 . S
H472 N467 0.984 . S
H473 N467 0.985 . S
H474 N471 0.984 . S
H475 N471 0.985 . S
H476 N470 0.984 . S
H477 N470 0.984 . S
H478 N466 0.984 . S
H479 N466 0.985 . S
C480 C481 1.363 . S
C480 C486 1.379 . S
C480 N488 1.356 . S
C481 C480 1.363 . S
C481 C487 1.363 . S
C482 C483 1.363 . S
C482 C487 1.379 . S
C482 N489 1.356 . S
C483 C482 1.363 . S
C483 C486 1.363 . S
N484 C486 1.356 . S
N484 H496 0.984 . S
N484 H497 0.985 . S
N485 C487 1.356 . S
N485 H490 0.984 . S
N485 H491 0.985 . S
C486 C480 1.379 . S
C486 C483 1.363 . S
C486 N484 1.356 . S
C487 C481 1.363 . S
C487 C482 1.379 . S
C487 N485 1.356 . S
N488 C480 1.356 . S
N488 H494 0.984 . S
N488 H495 0.984 . S
N489 C482 1.356 . S
N489 H492 0.984 . S
N489 H493 0.985 . S
H490 N485 0.984 . S
H491 N485 0.985 . S
H492 N489 0.984 . S
H493 N489 0.985 . S
H494 N488 0.984 . S
H495 N488 0.984 . S
H496 N484 0.984 . S
H497 N484 0.985 . S
C498 C499 1.363 . S
C498 C504 1.379 . S
C498 N506 1.356 . S
C499 C498 1.363 . S
C499 C505 1.363 . S
C500 C501 1.363 . S
C500 C505 1.379 . S
C500 N507 1.356 . S
C501 C500 1.363 . S
C501 C504 1.363 . S
N502 C504 1.356 . S
N502 H514 0.984 . S
N502 H515 0.985 . S
N503 C505 1.356 . S
N503 H508 0.984 . S
N503 H509 0.985 . S
C504 C498 1.379 . S
C504 C501 1.363 . S
C504 N502 1.356 . S
C505 C499 1.363 . S
C505 C500 1.379 . S
C505 N503 1.356 . S
N506 C498 1.356 . S
N506 H512 0.984 . S
N506 H513 0.984 . S
N507 C500 1.356 . S
N507 H510 0.984 . S
N507 H511 0.985 . S
H508 N503 0.984 . S
H509 N503 0.985 . S
H510 N507 0.984 . S
H511 N507 0.985 . S
H512 N506 0.984 . S
H513 N506 0.984 . S
H514 N502 0.984 . S
H515 N502 0.985 . S
C516 C517 1.363 . S
C516 C522 1.379 . S
C516 N524 1.356 . S
C517 C516 1.363 . S
C517 C523 1.363 . S
C518 C519 1.363 . S
C518 C523 1.379 . S
C518 N525 1.356 . S
C519 C518 1.363 . S
C519 C522 1.363 . S
N520 C522 1.356 . S
N520 H532 0.984 . S
N520 H533 0.985 . S
N521 C523 1.356 . S
N521 H526 0.984 . S
N521 H527 0.985 . S
C522 C516 1.379 . S
C522 C519 1.363 . S
C522 N520 1.356 . S
C523 C517 1.363 . S
C523 C518 1.379 . S
C523 N521 1.356 . S
N524 C516 1.356 . S
N524 H530 0.984 . S
N524 H531 0.984 . S
N525 C518 1.356 . S
N525 H528 0.984 . S
N525 H529 0.985 . S
H526 N521 0.984 . S
H527 N521 0.985 . S
H528 N525 0.984 . S
H529 N525 0.985 . S
H530 N524 0.984 . S
H531 N524 0.984 . S
H532 N520 0.984 . S
H533 N520 0.985 . S
C534 C535 1.363 . S
C534 C540 1.379 . S
C534 N542 1.356 . S
C535 C534 1.363 . S
C535 C541 1.363 . S
C536 C537 1.363 . S
C536 C541 1.379 . S
C536 N543 1.356 . S
C537 C536 1.363 . S
C537 C540 1.363 . S
N538 C540 1.356 . S
N538 H550 0.984 . S
N538 H551 0.985 . S
N539 C541 1.356 . S
N539 H544 0.984 . S
N539 H545 0.985 . S
C540 C534 1.379 . S
C540 C537 1.363 . S
C540 N538 1.356 . S
C541 C535 1.363 . S
C541 C536 1.379 . S
C541 N539 1.356 . S
N542 C534 1.356 . S
N542 H548 0.984 . S
N542 H549 0.984 . S
N543 C536 1.356 . S
N543 H546 0.984 . S
N543 H547 0.985 . S
H544 N539 0.984 . S
H545 N539 0.985 . S
H546 N543 0.984 . S
H547 N543 0.985 . S
H548 N542 0.984 . S
H549 N542 0.984 . S
H550 N538 0.984 . S
H551 N538 0.985 . S
C552 C553 1.363 . S
C552 C558 1.379 . S
C552 N560 1.356 . S
C553 C552 1.363 . S
C553 C559 1.363 . S
C554 C555 1.363 . S
C554 C559 1.379 . S
C554 N561 1.356 . S
C555 C554 1.363 . S
C555 C558 1.363 . S
N556 C558 1.356 . S
N556 H568 0.984 . S
N556 H569 0.985 . S
N557 C559 1.356 . S
N557 H562 0.984 . S
N557 H563 0.985 . S
C558 C552 1.379 . S
C558 C555 1.363 . S
C558 N556 1.356 . S
C559 C553 1.363 . S
C559 C554 1.379 . S
C559 N557 1.356 . S
N560 C552 1.356 . S
N560 H566 0.984 . S
N560 H567 0.984 . S
N561 C554 1.356 . S
N561 H564 0.984 . S
N561 H565 0.985 . S
H562 N557 0.984 . S
H563 N557 0.985 . S
H564 N561 0.984 . S
H565 N561 0.985 . S
H566 N560 0.984 . S
H567 N560 0.984 . S
H568 N556 0.984 . S
H569 N556 0.985 . S
C570 C571 1.363 . S
C570 C576 1.379 . S
C570 N578 1.356 . S
C571 C570 1.363 . S
C571 C577 1.363 . S
C572 C573 1.363 . S
C572 C577 1.379 . S
C572 N579 1.348 . S
C573 C572 1.363 . S
C573 C576 1.363 . S
N574 C576 1.356 . S
N574 H586 0.984 . S
N574 H587 0.985 . S
N575 C577 1.356 . S
N575 H580 0.984 . S
N575 H581 0.985 . S
C576 C570 1.379 . S
C576 C573 1.363 . S
C576 N574 1.356 . S
C577 C571 1.363 . S
C577 C572 1.379 . S
C577 N575 1.356 . S
N578 C570 1.356 . S
N578 H584 0.984 . S
N578 H585 0.984 . S
N579 C572 1.348 . S
N579 H582 0.982 1_455 S
N579 H583 1.008 1_455 S
H580 N575 0.984 . S
H581 N575 0.985 . S
H582 N579 0.982 1_655 S
H583 N579 1.008 1_655 S
H584 N578 0.984 . S
H585 N578 0.984 . S
H586 N574 0.984 . S
H587 N574 0.985 . S
C588 C589 1.363 . S
C588 C594 1.379 . S
C588 N596 1.356 . S
C589 C588 1.363 . S
C589 C595 1.363 . S
C590 C591 1.363 . S
C590 C595 1.379 . S
C590 N597 1.356 1_545 S
C591 C590 1.363 . S
C591 C594 1.363 . S
N592 C594 1.356 . S
N592 H604 0.984 . S
N592 H605 0.985 . S
N593 C595 1.356 1_565 S
N593 H598 0.984 . S
N593 H599 0.985 . S
C594 C588 1.379 . S
C594 C591 1.363 . S
C594 N592 1.356 . S
C595 C589 1.363 . S
C595 C590 1.379 . S
C595 N593 1.356 1_545 S
N596 C588 1.356 . S
N596 H602 0.984 . S
N596 H603 0.984 . S
N597 C590 1.356 1_565 S
N597 H600 0.984 . S
N597 H601 0.985 . S
H598 N593 0.984 . S
H599 N593 0.985 . S
H600 N597 0.984 . S
H601 N597 0.985 . S
H602 N596 0.984 . S
H603 N596 0.984 . S
H604 N592 0.984 . S
H605 N592 0.985 . S
C606 C607 1.363 . S
C606 C612 1.379 . S
C606 N614 1.356 . S
C607 C606 1.363 . S
C607 C613 1.363 . S
C608 C609 1.363 . S
C608 C613 1.379 . S
C608 N615 1.356 . S
C609 C608 1.363 . S
C609 C612 1.363 . S
N610 C612 1.356 . S
N610 H622 0.984 . S
N610 H623 0.985 . S
N611 C613 1.356 . S
N611 H616 0.984 . S
N611 H617 0.985 . S
C612 C606 1.379 . S
C612 C609 1.363 . S
C612 N610 1.356 . S
C613 C607 1.363 . S
C613 C608 1.379 . S
C613 N611 1.356 . S
N614 C606 1.356 . S
N614 H620 0.984 . S
N614 H621 0.984 . S
N615 C608 1.356 . S
N615 H618 0.984 . S
N615 H619 0.985 . S
H616 N611 0.984 . S
H617 N611 0.985 . S
H618 N615 0.984 . S
H619 N615 0.985 . S
H620 N614 0.984 . S
H621 N614 0.984 . S
H622 N610 0.984 . S
H623 N610 0.985 . S
C624 C625 1.363 . S
C624 C630 1.379 . S
C624 N632 1.356 . S
C625 C624 1.363 . S
C625 C631 1.363 1_545 S
C626 C627 1.363 1_565 S
C626 C631 1.379 . S
C626 N633 1.356 . S
C627 C626 1.363 1_545 S
C627 C630 1.363 . S
N628 C630 1.356 . S
N628 H640 0.984 . S
N628 H641 0.985 . S
N629 C631 1.356 . S
N629 H634 0.984 . S
N629 H635 0.985 . S
C630 C624 1.379 . S
C630 C627 1.363 . S
C630 N628 1.356 . S
C631 C625 1.363 1_565 S
C631 C626 1.379 . S
C631 N629 1.356 . S
N632 C624 1.356 . S
N632 H638 0.984 . S
N632 H639 0.984 . S
N633 C626 1.356 . S
N633 H636 0.984 . S
N633 H637 0.985 . S
H634 N629 0.984 . S
H635 N629 0.985 . S
H636 N633 0.984 . S
H637 N633 0.985 . S
H638 N632 0.984 . S
H639 N632 0.984 . S
H640 N628 0.984 . S
H641 N628 0.985 . S
C642 C643 1.363 . S
C642 C648 1.379 . S
C642 N650 1.356 . S
C643 C642 1.363 . S
C643 C649 1.363 . S
C644 C645 1.363 . S
C644 C649 1.379 . S
C644 N651 1.356 . S
C645 C644 1.363 . S
C645 C648 1.363 . S
N646 C648 1.356 . S
N646 H658 0.984 . S
N646 H659 0.985 . S
N647 C649 1.356 . S
N647 H652 0.984 . S
N647 H653 0.985 . S
C648 C642 1.379 . S
C648 C645 1.363 . S
C648 N646 1.356 . S
C649 C643 1.363 . S
C649 C644 1.379 . S
C649 N647 1.356 . S
N650 C642 1.356 . S
N650 H656 0.984 . S
N650 H657 0.984 . S
N651 C644 1.356 . S
N651 H654 0.984 . S
N651 H655 0.985 . S
H652 N647 0.984 . S
H653 N647 0.985 . S
H654 N651 0.984 . S
H655 N651 0.985 . S
H656 N650 0.984 . S
H657 N650 0.984 . S
H658 N646 0.984 . S
H659 N646 0.985 . S
C660 C661 1.363 . S
C660 C666 1.379 . S
C660 N668 1.356 . S
C661 C660 1.363 . S
C661 C667 1.363 1_455 S
C662 C663 1.363 1_655 S
C662 C667 1.379 . S
C662 N669 1.356 . S
C663 C662 1.363 1_455 S
C663 C666 1.363 . S
N664 C666 1.356 . S
N664 H676 0.984 . S
N664 H677 0.985 . S
N665 C667 1.356 . S
N665 H670 0.984 . S
N665 H671 0.985 . S
C666 C660 1.379 . S
C666 C663 1.363 . S
C666 N664 1.356 . S
C667 C661 1.363 1_655 S
C667 C662 1.379 . S
C667 N665 1.356 . S
N668 C660 1.356 . S
N668 H674 0.984 . S
N668 H675 0.984 . S
N669 C662 1.356 . S
N669 H672 0.984 . S
N669 H673 0.985 . S
H670 N665 0.984 . S
H671 N665 0.985 . S
H672 N669 0.984 . S
H673 N669 0.985 . S
H674 N668 0.984 . S
H675 N668 0.984 . S
H676 N664 0.984 . S
H677 N664 0.985 . S
C355 C10 3.130 . S
C357 C331 3.064 . S
C373 C59 3.182 . S
C375 C258 3.123 . S
C391 C90 3.128 . S
C393 C297 3.063 . S
C409 C19 3.171 . S
C411 C336 3.110 . S
C429 C253 3.050 . S
C427 C50 3.118 . S
C447 C292 3.110 . S
C445 C99 3.173 . S
C463 C46 0.669 . S
C465 C180 0.650 . S
C481 C95 0.618 . S
C483 C214 0.535 . S
C499 C6 0.647 . S
C501 C136 0.618 . S
C519 C175 0.522 . S
C517 C55 0.610 . S
C537 C219 0.620 . S
C535 C86 0.645 . S
C553 C15 0.610 . S
C555 C141 0.525 . S
C573 C199 1.031 . S
C571 C9 1.025 . S
C589 C49 1.023 . S
C591 C121 1.030 . S
C607 C89 1.031 . S
C609 C160 1.036 . S
C627 C277 1.812 . S
C625 C58 1.725 . S
C645 C316 1.835 . S
C643 C98 1.729 . S
C661 C18 1.726 . S
C663 C238 1.814 . S
