# Generated by pormake.
# Topology cml, (3,6)-cn, num edge types: 1
# Building blocks:
#     Node 0, Type 0, BuildingBlock: ESEHIV_clean_linker_0, # of connection points: 3
#     Node 1, Type 0, BuildingBlock: ESEHIV_clean_linker_0, # of connection points: 3
#     Node 2, Type 0, BuildingBlock: ESEHIV_clean_linker_0, # of connection points: 3
#     Node 3, Type 0, BuildingBlock: ESEHIV_clean_linker_0, # of connection points: 3
#     Node 4, Type 0, BuildingBlock: ESEHIV_clean_linker_0, # of connection points: 3
#     Node 5, Type 0, BuildingBlock: ESEHIV_clean_linker_0, # of connection points: 3
#     Node 6, Type 0, BuildingBlock: ESEHIV_clean_linker_0, # of connection points: 3
#     Node 7, Type 0, BuildingBlock: ESEHIV_clean_linker_0, # of connection points: 3
#     Node 8, Type 1, BuildingBlock: OJICUG_clean_sbu_0, # of connection points: 6
#     Node 9, Type 1, BuildingBlock: OJICUG_clean_sbu_0, # of connection points: 6
#     Node 10, Type 1, BuildingBlock: OJICUG_clean_sbu_0, # of connection points: 6
#     Node 11, Type 1, BuildingBlock: OJICUG_clean_sbu_0, # of connection points: 6
#     Edge 12, Type (0, 1), BuildingBlock: UVAHIK_clean_linker_0, # of connection points: 2
#     Edge 13, Type (0, 1), BuildingBlock: UVAHIK_clean_linker_0, # of connection points: 2
#     Edge 14, Type (0, 1), BuildingBlock: UVAHIK_clean_linker_0, # of connection points: 2
#     Edge 15, Type (0, 1), BuildingBlock: UVAHIK_clean_linker_0, # of connection points: 2
#     Edge 16, Type (0, 1), BuildingBlock: UVAHIK_clean_linker_0, # of connection points: 2
#     Edge 17, Type (0, 1), BuildingBlock: UVAHIK_clean_linker_0, # of connection points: 2
#     Edge 18, Type (0, 1), BuildingBlock: UVAHIK_clean_linker_0, # of connection points: 2
#     Edge 19, Type (0, 1), BuildingBlock: UVAHIK_clean_linker_0, # of connection points: 2
#     Edge 20, Type (0, 1), BuildingBlock: UVAHIK_clean_linker_0, # of connection points: 2
#     Edge 21, Type (0, 1), BuildingBlock: UVAHIK_clean_linker_0, # of connection points: 2
#     Edge 22, Type (0, 1), BuildingBlock: UVAHIK_clean_linker_0, # of connection points: 2
#     Edge 23, Type (0, 1), BuildingBlock: UVAHIK_clean_linker_0, # of connection points: 2
#     Edge 24, Type (0, 1), BuildingBlock: UVAHIK_clean_linker_0, # of connection points: 2
#     Edge 25, Type (0, 1), BuildingBlock: UVAHIK_clean_linker_0, # of connection points: 2
#     Edge 26, Type (0, 1), BuildingBlock: UVAHIK_clean_linker_0, # of connection points: 2
#     Edge 27, Type (0, 1), BuildingBlock: UVAHIK_clean_linker_0, # of connection points: 2
#     Edge 28, Type (0, 1), BuildingBlock: UVAHIK_clean_linker_0, # of connection points: 2
#     Edge 29, Type (0, 1), BuildingBlock: UVAHIK_clean_linker_0, # of connection points: 2
#     Edge 30, Type (0, 1), BuildingBlock: UVAHIK_clean_linker_0, # of connection points: 2
#     Edge 31, Type (0, 1), BuildingBlock: UVAHIK_clean_linker_0, # of connection points: 2
#     Edge 32, Type (0, 1), BuildingBlock: UVAHIK_clean_linker_0, # of connection points: 2
#     Edge 33, Type (0, 1), BuildingBlock: UVAHIK_clean_linker_0, # of connection points: 2
#     Edge 34, Type (0, 1), BuildingBlock: UVAHIK_clean_linker_0, # of connection points: 2
#     Edge 35, Type (0, 1), BuildingBlock: UVAHIK_clean_linker_0, # of connection points: 2
# Relax obj value: 0.072
# Max RMSD: 0.084
# Mean RMSD: 0.079
data_MOF--net-cml--node1-OJICUG_clean_sbu_0--node2-ESEHIV_clean_linker_0--edge1-UVAHIK_clean_linker_0
_symmetry_space_group_name_H-M    P1
_symmetry_Int_Tables_number       1
_symmetry_cell_setting            triclinic
loop_
_symmetry_equiv_pos_as_xyz
'x, y, z'
_cell_length_a     47.850565
_cell_length_b     48.28282
_cell_length_c     45.52136
_cell_angle_alpha  90.050463
_cell_angle_beta   89.965108
_cell_angle_gamma 89.93407
loop_
_atom_site_label
_atom_site_type_symbol
_atom_site_fract_x
_atom_site_fract_y
_atom_site_fract_z
_atom_type_partial_charge
H0 H 0.28547 0.43411 0.03546 0.0
H1 H 0.2325 0.42298 0.96044 0.0
H2 H 0.22603 0.36747 0.03411 0.0
C3 C 0.26823 0.42349 0.02493 0.0
C4 C 0.25642 0.40012 0.03842 0.0
C5 C 0.25963 0.43188 0.99687 0.0
C6 C 0.2386 0.41695 0.98245 0.0
C7 C 0.22643 0.39357 0.99557 0.0
C8 C 0.23528 0.38546 0.02374 0.0
H9 H 0.70215 0.55666 0.53406 0.0
H10 H 0.75978 0.56483 0.46224 0.0
H11 H 0.75829 0.62591 0.5312 0.0
C12 C 0.71945 0.56738 0.52374 0.0
C13 C 0.7297 0.59187 0.53637 0.0
C14 C 0.72992 0.55774 0.4968 0.0
C15 C 0.75137 0.57248 0.48283 0.0
C16 C 0.76174 0.59714 0.49498 0.0
C17 C 0.75084 0.60663 0.52186 0.0
H18 H 0.71184 0.4405 0.03766 0.0
H19 H 0.76984 0.37276 0.04201 0.0
H20 H 0.76807 0.4257 0.96588 0.0
C21 C 0.72933 0.42921 0.02835 0.0
C22 C 0.73936 0.43643 0.00044 0.0
C23 C 0.74006 0.40615 0.04334 0.0
C24 C 0.7615 0.3905 0.03037 0.0
C25 C 0.77187 0.3974 0.00239 0.0
C26 C 0.76078 0.42056 0.98773 0.0
H27 H 0.28774 0.55521 0.53533 0.0
H28 H 0.23428 0.57201 0.46181 0.0
H29 H 0.23433 0.62673 0.53662 0.0
C30 C 0.27134 0.5675 0.52532 0.0
C31 C 0.26195 0.59164 0.53942 0.0
C32 C 0.26138 0.56025 0.49738 0.0
C33 C 0.24146 0.57722 0.4837 0.0
C34 C 0.23163 0.60136 0.49756 0.0
C35 C 0.24184 0.60827 0.52558 0.0
H36 H 0.79224 0.92965 0.04177 0.0
H37 H 0.74253 0.92422 0.96339 0.0
H38 H 0.73397 0.8629 0.03146 0.0
C39 C 0.77607 0.91946 0.02908 0.0
C40 C 0.76356 0.89537 0.04009 0.0
C41 C 0.76892 0.9298 0.00128 0.0
C42 C 0.7481 0.91637 0.9849 0.0
C43 C 0.73517 0.8923 0.99565 0.0
C44 C 0.74315 0.88189 0.02327 0.0
H45 H 0.20759 0.06114 0.53834 0.0
H46 H 0.2565 0.07333 0.46048 0.0
H47 H 0.26921 0.12572 0.536 0.0
C48 C 0.22439 0.07175 0.527 0.0
C49 C 0.23795 0.09401 0.5407 0.0
C50 C 0.23099 0.0642 0.49809 0.0
C51 C 0.25223 0.07839 0.48325 0.0
C52 C 0.26625 0.10061 0.49667 0.0
C53 C 0.25893 0.10835 0.5255 0.0
H54 H 0.20391 0.93418 0.03836 0.0
H55 H 0.26486 0.86891 0.04045 0.0
H56 H 0.25505 0.91882 0.96263 0.0
C57 C 0.22088 0.92294 0.02795 0.0
C58 C 0.22857 0.92958 -0.00091 0.0
C59 C 0.23366 0.90092 0.04285 0.0
C60 C 0.25497 0.88591 0.02889 0.0
C61 C 0.26315 0.89241 -0.0 0.0
C62 C 0.24995 0.91448 0.98536 0.0
H63 H 0.78068 0.05552 0.53851 0.0
H64 H 0.7261 0.06825 0.46498 0.0
H65 H 0.72274 0.12344 0.53931 0.0
C66 C 0.7634 0.0665 0.52843 0.0
C67 C 0.7523 0.08995 0.54246 0.0
C68 C 0.7541 0.05854 0.50046 0.0
C69 C 0.7329 0.07399 0.48685 0.0
C70 C 0.72152 0.09758 0.50049 0.0
C71 C 0.73125 0.1053 0.52848 0.0
Sc72 Sc 0.99606 0.79781 0.30173 0.0
Sc73 Sc 0.99219 0.87071 0.30751 0.0
Sc74 Sc -0.00263 0.83048 0.37122 0.0
O75 O 0.99516 0.83293 0.32679 0.0
C76 C 0.95782 0.77924 0.35527 0.0
C77 C 0.9508 0.83483 0.26812 0.0
C78 C 0.95174 0.87782 0.3628 0.0
C79 C 0.03519 0.83891 0.26557 0.0
C80 C 0.04068 0.78404 0.35188 0.0
C81 C 0.03562 0.88317 0.35867 0.0
O82 O 0.96475 0.77756 0.32833 0.0
O83 O 0.95898 0.85754 0.27924 0.0
O84 O 0.96263 0.85827 0.37759 0.0
O85 O 0.02781 0.81452 0.27282 0.0
O86 O 0.03212 0.80261 0.36949 0.0
O87 O 0.02519 0.88826 0.33361 0.0
O88 O 0.02919 0.77917 0.32722 0.0
O89 O 0.02349 0.86054 0.27569 0.0
O90 O 0.02712 0.8635 0.37483 0.0
O91 O 0.96268 0.81179 0.27341 0.0
O92 O 0.96838 0.79679 0.37284 0.0
O93 O 0.96064 0.88488 0.33759 0.0
Sc94 Sc 0.99571 0.1957 0.79449 0.0
Sc95 Sc 0.99553 0.12297 0.80429 0.0
Sc96 Sc 1e-05 0.16636 0.86559 0.0
O97 O -0.00294 0.16177 0.82142 0.0
C98 C 0.04042 0.21406 0.84271 0.0
C99 C 0.03634 0.15444 0.75992 0.0
C100 C 0.04055 0.11498 0.85518 0.0
C101 C 0.95178 0.15509 0.76384 0.0
C102 C 0.95714 0.21436 0.84799 0.0
C103 C 0.95648 0.11667 0.86052 0.0
O104 O 0.02894 0.21666 0.81767 0.0
O105 O 0.02649 0.13284 0.772 0.0
O106 O 0.03233 0.13567 0.87012 0.0
O107 O 0.96189 0.17912 0.76814 0.0
O108 O 0.96814 0.1975 0.86599 0.0
O109 O 0.96438 0.10917 0.83508 0.0
O110 O 0.96468 0.21641 0.82126 0.0
O111 O 0.96196 0.13343 0.77543 0.0
O112 O 0.96765 0.13669 0.87429 0.0
O113 O 0.02718 0.17869 0.76534 0.0
O114 O 0.03245 0.19658 0.86175 0.0
O115 O 0.02907 0.10782 0.83123 0.0
Sc116 Sc 0.49631 0.29759 0.29361 0.0
Sc117 Sc 0.49403 0.37004 0.30563 0.0
Sc118 Sc 0.49375 0.32478 0.36567 0.0
O119 O 0.49471 0.33074 0.32159 0.0
C120 C 0.45352 0.27692 0.34255 0.0
C121 C 0.45364 0.33836 0.26111 0.0
C122 C 0.45081 0.37479 0.35873 0.0
C123 C 0.53802 0.34042 0.26307 0.0
C124 C 0.53703 0.27834 0.34504 0.0
C125 C 0.53501 0.3762 0.36048 0.0
O126 O 0.46389 0.27544 0.31686 0.0
O127 O 0.46242 0.36006 0.27392 0.0
O128 O 0.46065 0.35413 0.37252 0.0
O129 O 0.5292 0.31589 0.26736 0.0
O130 O 0.52664 0.29474 0.36394 0.0
O131 O 0.52574 0.38417 0.33572 0.0
O132 O 0.52827 0.27667 0.31873 0.0
O133 O 0.52705 0.36152 0.27513 0.0
O134 O 0.52528 0.35532 0.37396 0.0
O135 O 0.4641 0.31449 0.2656 0.0
O136 O 0.46219 0.29367 0.36201 0.0
O137 O 0.46082 0.3831 0.33443 0.0
Sc138 Sc 0.49794 0.69564 0.80087 0.0
Sc139 Sc 0.49964 0.62277 0.80905 0.0
Sc140 Sc 0.49823 0.66513 0.87141 0.0
O141 O 0.49864 0.66125 0.82705 0.0
C142 C 0.53816 0.71511 0.85243 0.0
C143 C 0.54084 0.65617 0.7669 0.0
C144 C 0.5422 0.61639 0.86264 0.0
C145 C 0.45661 0.65452 0.76729 0.0
C146 C 0.45518 0.71184 0.8521 0.0
C147 C 0.45815 0.6131 0.86264 0.0
O148 O 0.53042 0.71623 0.82571 0.0
O149 O 0.53206 0.63406 0.77884 0.0
O150 O 0.53255 0.63677 0.87716 0.0
O151 O 0.46518 0.67885 0.77325 0.0
O152 O 0.46411 0.69373 0.87 0.0
O153 O 0.46716 0.607 0.83719 0.0
O154 O 0.46583 0.71572 0.8268 0.0
O155 O 0.46753 0.63286 0.77818 0.0
O156 O 0.468 0.63297 0.87762 0.0
O157 O 0.53021 0.67983 0.77214 0.0
O158 O 0.5279 0.69814 0.87076 0.0
O159 O 0.53197 0.60866 0.83821 0.0
C160 C 0.18652 0.38877 0.96008 0.0
C161 C 0.20643 0.37637 0.9786 0.0
C162 C 0.16961 0.37254 0.94196 0.0
C163 C 0.16616 0.3023 0.90916 0.0
H164 H 0.08805 0.32043 0.89706 0.0
C165 C 0.08311 0.22441 0.87184 0.0
C166 C 0.06321 0.23296 0.85106 0.0
C167 C 0.10274 0.24307 0.8827 0.0
C168 C 0.10996 0.31542 0.89985 0.0
H169 H 0.22375 0.33709 0.99297 0.0
H170 H 0.19341 0.30882 0.96254 0.0
H171 H 0.11708 0.35084 0.92704 0.0
H172 H 0.04877 0.2674 0.82455 0.0
H173 H 0.08298 0.30038 0.84416 0.0
H174 H 0.15856 0.2662 0.88301 0.0
C175 C 0.19136 0.33113 0.96137 0.0
C176 C 0.1266 0.33279 0.91703 0.0
C177 C 0.20842 0.34734 0.97927 0.0
C178 C 0.06397 0.26028 0.84048 0.0
C179 C 0.08336 0.27914 0.85178 0.0
C180 C 0.14945 0.28481 0.89227 0.0
C181 C 0.17209 0.34353 0.94213 0.0
C182 C 0.15478 0.32615 0.92233 0.0
C183 C 0.1026 0.27074 0.87332 0.0
C184 C 0.12111 0.29099 0.88786 0.0
H185 H 0.18422 0.41108 0.9593 0.0
H186 H 0.15506 0.38279 0.92734 0.0
H187 H 0.18796 0.29695 0.91215 0.0
H188 H 0.08307 0.20342 0.88025 0.0
H189 H 0.11721 0.23614 0.89946 0.0
C190 C 0.78083 0.61693 0.44812 0.0
C191 C 0.78272 0.61384 0.47881 0.0
C192 C 0.79963 0.63385 0.43306 0.0
C193 C 0.84335 0.69436 0.44413 0.0
H194 H 0.88268 0.67078 0.37386 0.0
C195 C 0.93411 0.75711 0.39794 0.0
C196 C 0.937 0.75972 0.36734 0.0
C197 C 0.91461 0.739 0.40987 0.0
C198 C 0.87151 0.67781 0.39317 0.0
H199 H 0.80647 0.62536 0.51752 0.0
H200 H 0.83886 0.65545 0.49123 0.0
H201 H 0.85014 0.63905 0.39803 0.0
H202 H 0.92168 0.74516 0.32523 0.0
H203 H 0.88694 0.71372 0.34625 0.0
H204 H 0.86415 0.73314 0.43929 0.0
C205 C 0.8227 0.64482 0.47897 0.0
C206 C 0.85303 0.65962 0.40705 0.0
C207 C 0.80412 0.62768 0.49399 0.0
C208 C 0.91997 0.74359 0.3489 0.0
C209 C 0.90018 0.72552 0.36093 0.0
C210 C 0.86153 0.71259 0.43015 0.0
C211 C 0.82044 0.64826 0.44843 0.0
C212 C 0.83917 0.66763 0.43291 0.0
C213 C 0.89721 0.72319 0.39158 0.0
C214 C 0.87623 0.70438 0.40483 0.0
H215 H 0.76432 0.60694 0.4358 0.0
H216 H 0.79733 0.63638 0.40954 0.0
H217 H 0.83245 0.7012 0.4637 0.0
H218 H 0.94713 0.76891 0.41285 0.0
H219 H 0.91339 0.73721 0.43356 0.0
C220 C 0.79086 0.35035 0.98995 0.0
C221 C 0.7926 0.37933 0.98736 0.0
C222 C 0.80909 0.33324 0.97434 0.0
C223 C 0.8506 0.32995 0.90777 0.0
H224 H 0.88988 0.27049 0.94736 0.0
C225 C 0.93317 0.26045 0.85 0.0
C226 C 0.93526 0.23289 0.85952 0.0
C227 C 0.91507 0.27887 0.86427 0.0
C228 C 0.87872 0.28667 0.93581 0.0
H229 H 0.81553 0.41295 0.96683 0.0
H230 H 0.84683 0.38284 0.93885 0.0
H231 H 0.86037 0.30174 0.97564 0.0
H232 H 0.91876 0.20231 0.88971 0.0
H233 H 0.88636 0.23389 0.9136 0.0
H234 H 0.86826 0.31446 0.86777 0.0
C235 C 0.83123 0.37357 0.95301 0.0
C236 C 0.86199 0.30467 0.9521 0.0
C237 C 0.81327 0.39074 0.96899 0.0
C238 C 0.91783 0.22361 0.88226 0.0
C239 C 0.89946 0.24179 0.89611 0.0
C240 C 0.86706 0.31167 0.89133 0.0
C241 C 0.82919 0.34469 0.95549 0.0
C242 C 0.84771 0.32637 0.93823 0.0
C243 C 0.89849 0.26986 0.88798 0.0
C244 C 0.88117 0.28968 0.90515 0.0
H245 H 0.77486 0.34077 0.00336 0.0
H246 H 0.80696 0.31098 0.97637 0.0
H247 H 0.83956 0.34645 0.89657 0.0
H248 H 0.94653 0.2681 0.83259 0.0
H249 H 0.91498 0.30036 0.85751 0.0
C250 C 0.2154 0.64904 0.48389 0.0
C251 C 0.21207 0.62016 0.48195 0.0
C252 C 0.19769 0.66677 0.46846 0.0
C253 C 0.15294 0.67091 0.40402 0.0
H254 H 0.11769 0.73188 0.44535 0.0
C255 C 0.06566 0.73853 0.35288 0.0
C256 C 0.06397 0.76635 0.3617 0.0
C257 C 0.08536 0.72085 0.36562 0.0
C258 C 0.12776 0.7153 0.43329 0.0
H259 H 0.18718 0.58734 0.4625 0.0
H260 H 0.15666 0.61849 0.43495 0.0
H261 H 0.14846 0.70056 0.47188 0.0
H262 H 0.08278 0.79808 0.38898 0.0
H263 H 0.11785 0.76765 0.41025 0.0
H264 H 0.13268 0.68589 0.36526 0.0
C265 C 0.1731 0.62723 0.44842 0.0
C266 C 0.14522 0.69728 0.44858 0.0
C267 C 0.19059 0.60946 0.46416 0.0
C268 C 0.08336 0.77659 0.38211 0.0
C269 C 0.10331 0.75909 0.39445 0.0
C270 C 0.13571 0.68918 0.38857 0.0
C271 C 0.17651 0.65602 0.45049 0.0
C272 C 0.15793 0.67492 0.43412 0.0
C273 C 0.10397 0.7308 0.3871 0.0
C274 C 0.1229 0.71161 0.40304 0.0
H275 H 0.23209 0.65802 0.49683 0.0
H276 H 0.2009 0.68893 0.47015 0.0
H277 H 0.16275 0.65391 0.39236 0.0
H278 H 0.05085 0.73009 0.33728 0.0
H279 H 0.08513 0.69916 0.35958 0.0
C280 C 0.71855 0.87377 0.94703 0.0
C281 C 0.71452 0.87703 0.9775 0.0
C282 C 0.70019 0.85759 0.93045 0.0
C283 C 0.65524 0.79809 0.9385 0.0
H284 H 0.61718 0.82221 0.86776 0.0
C285 C 0.56262 0.73819 0.89393 0.0
C286 C 0.55951 0.73463 0.86347 0.0
C287 C 0.58279 0.75597 0.90511 0.0
C288 C 0.62805 0.81504 0.88718 0.0
H289 H 0.68719 0.86702 0.01403 0.0
H290 H 0.65571 0.83813 0.98521 0.0
H291 H 0.65 0.85352 0.89248 0.0
H292 H 0.57493 0.74742 0.82077 0.0
H293 H 0.61091 0.77842 0.84055 0.0
H294 H 0.63387 0.75967 0.93339 0.0
C295 C 0.67318 0.84802 0.9743 0.0
C296 C 0.64667 0.83297 0.90134 0.0
C297 C 0.69126 0.86444 0.99078 0.0
C298 C 0.57687 0.7497 0.84436 0.0
C299 C 0.59737 0.76748 0.85566 0.0
C300 C 0.63701 0.78014 0.92424 0.0
C301 C 0.67774 0.84412 0.94412 0.0
C302 C 0.65982 0.82481 0.92752 0.0
C303 C 0.60069 0.77052 0.88621 0.0
C304 C 0.62258 0.78865 0.89891 0.0
H305 H 0.73644 0.88287 0.93615 0.0
H306 H 0.70415 0.85472 0.90721 0.0
H307 H 0.66564 0.79115 0.95832 0.0
H308 H 0.54931 0.72733 0.90935 0.0
H309 H 0.5842 0.75842 0.92872 0.0
C310 C 0.305 0.1042 0.4597 0.0
C311 C 0.28644 0.11719 0.47933 0.0
C312 C 0.32197 0.11994 0.44117 0.0
C313 C 0.32713 0.19022 0.40925 0.0
H314 H 0.40432 0.16985 0.39461 0.0
C315 C 0.41133 0.26646 0.37229 0.0
C316 C 0.43074 0.25805 0.35092 0.0
C317 C 0.39148 0.24796 0.38291 0.0
C318 C 0.38264 0.17547 0.39807 0.0
H319 H 0.27159 0.15694 0.49529 0.0
H320 H 0.302 0.18432 0.46397 0.0
H321 H 0.37502 0.1399 0.42487 0.0
H322 H 0.44413 0.22405 0.32314 0.0
H323 H 0.40948 0.19123 0.34237 0.0
H324 H 0.33522 0.22641 0.3835 0.0
C325 C 0.30295 0.16196 0.46233 0.0
C326 C 0.36587 0.15839 0.41543 0.0
C327 C 0.28587 0.14625 0.48069 0.0
C328 C 0.42931 0.23103 0.33956 0.0
C329 C 0.40967 0.21228 0.35062 0.0
C330 C 0.34396 0.20738 0.39214 0.0
C331 C 0.32084 0.14901 0.442 0.0
C332 C 0.3381 0.1659 0.42174 0.0
C333 C 0.39086 0.22055 0.37268 0.0
C334 C 0.372 0.20043 0.3869 0.0
H335 H 0.30613 0.08183 0.45835 0.0
H336 H 0.33546 0.10931 0.42572 0.0
H337 H 0.30562 0.19623 0.41304 0.0
H338 H 0.41187 0.28724 0.38128 0.0
H339 H 0.37738 0.25478 0.4001 0.0
C340 C 0.28332 0.84587 0.98782 0.0
C341 C 0.28372 0.87479 0.98422 0.0
C342 C 0.30186 0.8291 0.97226 0.0
C343 C 0.34375 0.8257 0.9055 0.0
H344 H 0.38402 0.76829 0.94735 0.0
C345 C 0.43026 0.7575 0.85238 0.0
C346 C 0.43237 0.73002 0.86226 0.0
C347 C 0.41116 0.7757 0.86543 0.0
C348 C 0.37262 0.78392 0.93521 0.0
H349 H 0.30415 0.90872 0.96153 0.0
H350 H 0.33627 0.87915 0.93383 0.0
H351 H 0.35331 0.7994 0.97429 0.0
H352 H 0.4148 0.69941 0.89177 0.0
H353 H 0.38093 0.73073 0.91371 0.0
H354 H 0.3627 0.80986 0.86628 0.0
C355 C 0.32148 0.86964 0.94874 0.0
C356 C 0.35517 0.80182 0.95071 0.0
C357 C 0.3031 0.88651 0.96458 0.0
C358 C 0.41394 0.72062 0.88406 0.0
C359 C 0.39467 0.73863 0.89678 0.0
C360 C 0.36107 0.80757 0.88988 0.0
C361 C 0.32102 0.8408 0.95251 0.0
C362 C 0.34042 0.82273 0.936 0.0
C363 C 0.39368 0.7666 0.88833 0.0
C364 C 0.3755 0.7863 0.90456 0.0
H365 H 0.26824 0.83606 0.00218 0.0
H366 H 0.30083 0.80686 0.97524 0.0
H367 H 0.33241 0.84159 0.89366 0.0
H368 H 0.44431 0.76529 0.83565 0.0
H369 H 0.41099 0.79714 0.85848 0.0
C370 C 0.70361 0.14433 0.48551 0.0
C371 C 0.70142 0.11533 0.48421 0.0
C372 C 0.68647 0.16104 0.4682 0.0
C373 C 0.62174 0.16035 0.42324 0.0
H374 H 0.6537 0.22777 0.39139 0.0
C375 C 0.56176 0.23266 0.34387 0.0
C376 C 0.55954 0.25975 0.35493 0.0
C377 C 0.58079 0.21404 0.35627 0.0
C378 C 0.64461 0.20893 0.40006 0.0
H379 H 0.67864 0.08124 0.46443 0.0
H380 H 0.64961 0.11033 0.43329 0.0
H381 H 0.68279 0.19679 0.42062 0.0
H382 H 0.57641 0.28916 0.38626 0.0
H383 H 0.61011 0.25687 0.40732 0.0
H384 H 0.5836 0.1726 0.40226 0.0
C385 C 0.66428 0.12021 0.44804 0.0
C386 C 0.66112 0.19131 0.41704 0.0
C387 C 0.68118 0.10349 0.46567 0.0
C388 C 0.57762 0.26834 0.37745 0.0
C389 C 0.59697 0.24995 0.38938 0.0
C390 C 0.60535 0.17781 0.40588 0.0
C391 C 0.66697 0.1492 0.44882 0.0
C392 C 0.64975 0.16707 0.42935 0.0
C393 C 0.59827 0.22249 0.37938 0.0
C394 C 0.61653 0.20246 0.3946 0.0
H395 H 0.71917 0.1542 0.49924 0.0
H396 H 0.6887 0.1833 0.4699 0.0
H397 H 0.61216 0.14207 0.4326 0.0
H398 H 0.54794 0.22553 0.32662 0.0
H399 H 0.58155 0.19294 0.34819 0.0
C400 C 0.2821 0.47876 0.99653 0.0
C401 C 0.27471 0.45442 0.98153 0.0
C402 C 0.29877 0.49869 0.9829 0.0
C403 C 0.32649 0.52147 0.91081 0.0
H404 H 0.38854 0.54835 0.95754 0.0
C405 C 0.42377 0.57389 0.86033 0.0
C406 C 0.43507 0.59667 0.87545 0.0
C407 C 0.40214 0.5584 0.87276 0.0
C408 C 0.37111 0.54137 0.9443 0.0
H409 H 0.27853 0.43208 0.94034 0.0
H410 H 0.30759 0.4668 0.91661 0.0
H411 H 0.35343 0.51885 0.98014 0.0
H412 H 0.43201 0.62135 0.91529 0.0
H413 H 0.39431 0.59445 0.93672 0.0
H414 H 0.34457 0.54368 0.87481 0.0
C415 C 0.30017 0.47073 0.93871 0.0
C416 C 0.35095 0.52451 0.95727 0.0
C417 C 0.2835 0.45084 0.95231 0.0
C418 C 0.42401 0.6038 0.90309 0.0
C419 C 0.40243 0.58834 0.91546 0.0
C420 C 0.34669 0.53835 0.89781 0.0
C421 C 0.30842 0.49462 0.95404 0.0
C422 C 0.32855 0.51418 0.94062 0.0
C423 C 0.3914 0.56537 0.90054 0.0
C424 C 0.36933 0.54829 0.91439 0.0
H425 H 0.27533 0.48219 0.01895 0.0
H426 H 0.30445 0.51711 0.99511 0.0
H427 H 0.30928 0.51407 0.89751 0.0
H428 H 0.43175 0.56785 0.83899 0.0
H429 H 0.39425 0.54061 0.86088 0.0
C430 C 0.70942 0.5356 0.45212 0.0
C431 C 0.71651 0.53388 0.48201 0.0
C432 C 0.69381 0.5147 0.43882 0.0
C433 C 0.64236 0.46173 0.45798 0.0
H434 H 0.65125 0.44013 0.37641 0.0
C435 C 0.56835 0.38396 0.40208 0.0
C436 C 0.55832 0.39163 0.37419 0.0
C437 C 0.59024 0.39849 0.41515 0.0
C438 C 0.64849 0.44607 0.39918 0.0
H439 H 0.7142 0.50825 0.52099 0.0
H440 H 0.68699 0.47152 0.49766 0.0
H441 H 0.68635 0.46964 0.39958 0.0
H442 H 0.56385 0.4204 0.33802 0.0
H443 H 0.6019 0.44593 0.36106 0.0
H444 H 0.60429 0.43861 0.45747 0.0
C445 C 0.69312 0.48929 0.48467 0.0
C446 C 0.66856 0.46291 0.41245 0.0
C447 C 0.7087 0.51026 0.49801 0.0
C448 C 0.57097 0.41398 0.35954 0.0
C449 C 0.59293 0.42846 0.37262 0.0
C450 C 0.62236 0.44484 0.44475 0.0
C451 C 0.68497 0.49161 0.4551 0.0
C452 C 0.66547 0.4713 0.44185 0.0
C453 C 0.60266 0.42096 0.40062 0.0
C454 C 0.62499 0.43721 0.4151 0.0
H455 H 0.71478 0.55374 0.43932 0.0
H456 H 0.68754 0.51734 0.41613 0.0
H457 H 0.63909 0.46819 0.48051 0.0
H458 H 0.55925 0.36675 0.41395 0.0
H459 H 0.59751 0.39207 0.43663 0.0
C460 C 0.7166 0.48324 0.99734 0.0
C461 C 0.72532 0.45868 0.98347 0.0
C462 C 0.70035 0.50259 0.98221 0.0
C463 C 0.65061 0.50516 0.92111 0.0
H464 H 0.65603 0.58476 0.93095 0.0
C465 C 0.57843 0.57916 0.85835 0.0
C466 C 0.56619 0.60071 0.87471 0.0
C467 C 0.60032 0.56359 0.87004 0.0
C468 C 0.6542 0.56256 0.92816 0.0
H469 H 0.72467 0.43569 0.94247 0.0
H470 H 0.69709 0.46977 0.91591 0.0
H471 H 0.69084 0.5546 0.95387 0.0
H472 H 0.56796 0.62324 0.91597 0.0
H473 H 0.60597 0.59573 0.93651 0.0
H474 H 0.61384 0.51292 0.89588 0.0
C475 C 0.70242 0.47386 0.93862 0.0
C476 C 0.67412 0.54532 0.94124 0.0
C477 C 0.71856 0.4545 0.95375 0.0
C478 C 0.57684 0.60675 0.90278 0.0
C479 C 0.59876 0.59112 0.9145 0.0
C480 C 0.63078 0.52234 0.90806 0.0
C481 C 0.69252 0.49776 0.9529 0.0
C482 C 0.67244 0.51642 0.93793 0.0
C483 C 0.61047 0.56915 0.89838 0.0
C484 C 0.63227 0.55121 0.91153 0.0
H485 H 0.72175 0.48718 0.02013 0.0
H486 H 0.69294 0.52073 0.99387 0.0
H487 H 0.64835 0.48296 0.91868 0.0
H488 H 0.571 0.57409 0.83653 0.0
H489 H 0.60923 0.54708 0.85689 0.0
C490 C 0.28238 0.5393 0.45217 0.0
C491 C 0.27382 0.53642 0.48153 0.0
C492 C 0.29693 0.518 0.43815 0.0
C493 C 0.34324 0.46006 0.45584 0.0
H494 H 0.33617 0.44362 0.37276 0.0
C495 C 0.41514 0.38119 0.39851 0.0
C496 C 0.42683 0.38989 0.3717 0.0
C497 C 0.39318 0.39594 0.4113 0.0
C498 C 0.33842 0.44808 0.39597 0.0
H499 H 0.27239 0.50846 0.51873 0.0
H500 H 0.29776 0.4711 0.49415 0.0
H501 H 0.3025 0.47457 0.39633 0.0
H502 H 0.42402 0.42057 0.33697 0.0
H503 H 0.38594 0.44647 0.35954 0.0
H504 H 0.37947 0.43414 0.45541 0.0
C505 C 0.29361 0.49003 0.48215 0.0
C506 C 0.31915 0.46575 0.40945 0.0
C507 C 0.27908 0.51136 0.4962 0.0
C508 C 0.41559 0.41331 0.35766 0.0
C509 C 0.3936 0.42805 0.37047 0.0
C510 C 0.36245 0.44238 0.44238 0.0
C511 C 0.30323 0.49336 0.45318 0.0
C512 C 0.32165 0.4723 0.43943 0.0
C513 C 0.38238 0.41969 0.39759 0.0
C514 C 0.36052 0.43656 0.41221 0.0
H515 H 0.27899 0.55851 0.44043 0.0
H516 H 0.3044 0.52141 0.41598 0.0
H517 H 0.34605 0.46503 0.47885 0.0
H518 H 0.42308 0.36311 0.40984 0.0
H519 H 0.38471 0.38881 0.43203 0.0
C520 C 0.81407 0.95415 0.99175 0.0
C521 C 0.78488 0.95318 0.98848 0.0
C522 C 0.82952 0.9754 0.97904 0.0
C523 C 0.82857 0.02477 0.91856 0.0
H524 H 0.89103 0.05685 0.96086 0.0
C525 C 0.9232 0.10996 0.90243 0.0
C526 C 0.93334 0.10148 0.87483 0.0
C527 C 0.90198 0.09517 0.91638 0.0
C528 C 0.87345 0.04843 0.94884 0.0
H529 H 0.749 0.97394 0.96943 0.0
H530 H 0.77626 0.01115 0.94677 0.0
H531 H 0.85928 0.02555 0.98618 0.0
H532 H 0.92848 0.07116 0.83994 0.0
H533 H 0.89177 0.04514 0.86455 0.0
H534 H 0.84299 0.04747 0.88111 0.0
C535 C 0.78704 0.99531 0.95924 0.0
C536 C 0.85543 0.0303 0.96328 0.0
C537 C 0.77148 0.97403 0.97215 0.0
C538 C 0.92126 0.07825 0.86122 0.0
C539 C 0.90004 0.06345 0.8752 0.0
C540 C 0.84666 0.0429 0.90407 0.0
C541 C 0.81622 0.99615 0.96257 0.0
C542 C 0.83318 0.01784 0.94813 0.0
C543 C 0.89041 0.07157 0.90308 0.0
C544 C 0.86959 0.0545 0.91894 0.0
H545 H 0.82514 0.93805 0.00354 0.0
H546 H 0.85204 0.97516 0.98144 0.0
H547 H 0.81166 0.01536 0.90632 0.0
H548 H 0.9318 0.12792 0.91345 0.0
H549 H 0.89473 0.10213 0.9377 0.0
C550 C 0.22556 0.02353 0.46412 0.0
C551 C 0.21347 0.04383 0.48227 0.0
C552 C 0.20864 0.00541 0.44808 0.0
C553 C 0.16617 0.96029 0.43175 0.0
H554 H 0.10076 0.99085 0.39316 0.0
C555 C 0.07209 0.8943 0.39624 0.0
C556 C 0.05876 0.90068 0.36955 0.0
C557 C 0.09357 0.91101 0.40689 0.0
C558 C 0.11912 0.98203 0.40346 0.0
H559 H 0.1743 0.0613 0.49765 0.0
H560 H 0.1449 0.02952 0.47008 0.0
H561 H 0.13361 0.02174 0.41758 0.0
H562 H 0.0581 0.92932 0.3328 0.0
H563 H 0.09563 0.95853 0.35155 0.0
H564 H 0.15146 0.92051 0.41784 0.0
C565 C 0.16739 0.02766 0.46809 0.0
C566 C 0.13775 -0.00032 0.41771 0.0
C567 C 0.18423 0.0456 0.48419 0.0
C568 C 0.06777 0.9239 0.35351 0.0
C569 C 0.08922 0.94067 0.36426 0.0
C570 C 0.14744 0.94259 0.41758 0.0
C571 C 0.17939 0.00754 0.44971 0.0
C572 C 0.16116 0.98894 0.43244 0.0
C573 C 0.10218 0.9345 0.39116 0.0
C574 C 0.12349 0.95327 0.40372 0.0
H575 H 0.24807 0.02174 0.46231 0.0
H576 H 0.2184 0.99011 0.43399 0.0
H577 H 0.18402 0.95148 0.44301 0.0
H578 H 0.06581 0.87652 0.40912 0.0
H579 H 0.10291 0.90594 0.42788 0.0
C580 C 0.22546 0.97028 0.96486 0.0
C581 C 0.21219 0.95024 0.98235 0.0
C582 C 0.20959 0.9892 0.94861 0.0
C583 C 0.16874 0.03609 0.93209 0.0
H584 H 0.10405 0.00788 0.89039 0.0
C585 C 0.07688 0.10461 0.89338 0.0
C586 C 0.06413 0.09815 0.86639 0.0
C587 C 0.09806 0.08778 0.90465 0.0
C588 C 0.12223 0.01608 0.90157 0.0
H589 H 0.17207 0.93393 0.99619 0.0
H590 H 0.14451 0.96698 0.96816 0.0
H591 H 0.13527 0.97577 0.9153 0.0
H592 H 0.06461 0.06957 0.8295 0.0
H593 H 0.10156 0.04034 0.84921 0.0
H594 H 0.1554 0.07651 0.91854 0.0
C595 C 0.16709 0.96809 0.96691 0.0
C596 C 0.13993 -0.00229 0.91608 0.0
C597 C 0.18287 0.9494 0.98323 0.0
C598 C 0.07372 0.07502 0.8505 0.0
C599 C 0.09487 0.05821 0.8618 0.0
C600 C 0.15089 0.05455 0.91764 0.0
C601 C 0.18024 0.98809 0.94933 0.0
C602 C 0.16308 0.00755 0.93189 0.0
C603 C 0.10693 0.06415 0.8892 0.0
C604 C 0.12725 0.04472 0.90256 0.0
H605 H 0.24805 0.97135 0.96386 0.0
H606 H 0.22022 0.00437 0.93513 0.0
H607 H 0.1864 0.04421 0.94421 0.0
H608 H 0.07012 0.12233 0.90615 0.0
H609 H 0.10678 0.09273 0.92597 0.0
C610 C 0.77773 0.01201 0.49883 0.0
C611 C 0.76876 0.03611 0.48427 0.0
C612 C 0.79442 0.99255 0.48433 0.0
C613 C 0.84437 0.9891 0.42324 0.0
H614 H 0.83957 0.90964 0.43445 0.0
C615 C 0.91494 0.91454 0.35927 0.0
C616 C 0.92796 0.89339 0.37552 0.0
C617 C 0.89335 0.93012 0.37155 0.0
C618 C 0.84123 0.93181 0.43129 0.0
H619 H 0.76956 0.05812 0.4427 0.0
H620 H 0.79775 0.02382 0.41725 0.0
H621 H 0.80484 0.93998 0.45741 0.0
H622 H 0.9278 0.87154 0.4172 0.0
H623 H 0.89022 0.89908 0.43873 0.0
H624 H 0.88079 0.98113 0.39745 0.0
C625 C 0.79232 0.02019 0.44003 0.0
C626 C 0.82137 0.94915 0.44441 0.0
C627 C 0.7758 0.03968 0.45453 0.0
C628 C 0.91832 0.88773 0.40409 0.0
C629 C 0.89666 0.90337 0.41638 0.0
C630 C 0.8641 0.97183 0.41014 0.0
C631 C 0.80243 -0.00321 0.45497 0.0
C632 C 0.82276 0.978 0.44049 0.0
C633 C 0.88425 0.92498 0.40037 0.0
C634 C 0.86278 0.94301 0.41401 0.0
H635 H 0.77239 0.00853 0.52166 0.0
H636 H 0.80197 0.97478 0.49649 0.0
H637 H 0.84645 0.01127 0.42036 0.0
H638 H 0.92158 0.91932 0.3371 0.0
H639 H 0.88386 0.94635 0.3585 0.0
C640 C 0.27612 0.40809 0.08873 0.0
C641 C 0.26845 0.38961 0.0663 0.0
C642 C 0.29141 0.39883 0.11292 0.0
C643 C 0.34165 0.34449 0.13173 0.0
H644 H 0.33522 0.37576 0.20992 0.0
C645 C 0.41982 0.3182 0.22461 0.0
C646 C 0.42975 0.34112 0.24059 0.0
C647 C 0.39714 0.32105 0.20546 0.0
C648 C 0.33729 0.36689 0.18816 0.0
H649 H 0.26957 0.34664 0.05238 0.0
H650 H 0.29578 0.33037 0.09494 0.0
H651 H 0.29936 0.3858 0.17331 0.0
H652 H 0.42332 0.38498 0.24906 0.0
H653 H 0.38417 0.38988 0.21558 0.0
H654 H 0.37993 0.32618 0.14632 0.0
C655 C 0.29031 0.3521 0.0936 0.0
C656 C 0.31676 0.37262 0.16722 0.0
C657 C 0.275 0.36138 0.06939 0.0
C658 C 0.41633 0.36685 0.23712 0.0
C659 C 0.39366 0.36964 0.21811 0.0
C660 C 0.36215 0.33873 0.15267 0.0
C661 C 0.29935 0.37087 0.11521 0.0
C662 C 0.31903 0.36198 0.13858 0.0
C663 C 0.38384 0.34682 0.20203 0.0
C664 C 0.36052 0.35038 0.18091 0.0
H665 H 0.27111 0.42992 0.08708 0.0
H666 H 0.2982 0.41388 0.12905 0.0
H667 H 0.34425 0.33628 0.10975 0.0
H668 H 0.42957 0.29806 0.22682 0.0
H669 H 0.38992 0.30305 0.19347 0.0
C670 C 0.71012 0.58508 0.58689 0.0
C671 C 0.71672 0.60292 0.56355 0.0
C672 C 0.69548 0.5949 0.61131 0.0
C673 C 0.64558 0.64913 0.63163 0.0
H674 H 0.65857 0.62152 0.71042 0.0
C675 C 0.57292 0.67681 0.72899 0.0
C676 C 0.56449 0.65398 0.746 0.0
C677 C 0.59474 0.67416 0.70869 0.0
C678 C 0.65468 0.62939 0.68852 0.0
H679 H 0.71383 0.64523 0.54785 0.0
H680 H 0.68861 0.66249 0.59076 0.0
H681 H 0.69177 0.61052 0.67139 0.0
H682 H 0.57294 0.61067 0.75547 0.0
H683 H 0.61059 0.60611 0.72008 0.0
H684 H 0.6081 0.66735 0.64858 0.0
C685 C 0.69456 0.64085 0.59002 0.0
C686 C 0.67367 0.62308 0.66619 0.0
C687 C 0.70925 0.63103 0.5656 0.0
C688 C 0.57875 0.62868 0.74269 0.0
C689 C 0.60056 0.6261 0.72257 0.0
C690 C 0.6266 0.65546 0.65398 0.0
C691 C 0.6871 0.62278 0.6129 0.0
C692 C 0.66897 0.63233 0.63735 0.0
C693 C 0.60867 0.64872 0.70519 0.0
C694 C 0.6306 0.64508 0.68249 0.0
H695 H 0.71582 0.56338 0.58602 0.0
H696 H 0.68981 0.58037 0.62841 0.0
H697 H 0.64118 0.6563 0.60958 0.0
H698 H 0.56246 0.69662 0.73104 0.0
H699 H 0.60067 0.692 0.6957 0.0
C700 C 0.7195 0.41659 0.09268 0.0
C701 C 0.72663 0.39709 0.07104 0.0
C702 C 0.70279 0.40899 0.11646 0.0
C703 C 0.67213 0.34957 0.15684 0.0
H704 H 0.61165 0.40153 0.17057 0.0
C705 C 0.57272 0.32377 0.22529 0.0
C706 C 0.56223 0.34503 0.24335 0.0
C707 C 0.59494 0.32892 0.20601 0.0
C708 C 0.6286 0.38694 0.16734 0.0
H709 H 0.7231 0.35402 0.05808 0.0
H710 H 0.69372 0.34074 0.09959 0.0
H711 H 0.64775 0.41274 0.13509 0.0
H712 H 0.56779 0.38803 0.25622 0.0
H713 H 0.60642 0.39677 0.22309 0.0
H714 H 0.65251 0.32363 0.18904 0.0
C715 C 0.70128 0.36184 0.09834 0.0
C716 C 0.64936 0.39341 0.14703 0.0
C717 C 0.71812 0.36944 0.07458 0.0
C718 C 0.57497 0.37125 0.24232 0.0
C719 C 0.59713 0.37632 0.22324 0.0
C720 C 0.65127 0.34309 0.17729 0.0
C721 C 0.6927 0.38176 0.11901 0.0
C722 C 0.67141 0.37488 0.14157 0.0
C723 C 0.6071 0.3554 0.20452 0.0
C724 C 0.62933 0.36178 0.1828 0.0
H725 H 0.72613 0.43796 0.09069 0.0
H726 H 0.69704 0.42467 0.1324 0.0
H727 H 0.68892 0.33492 0.15316 0.0
H728 H 0.56344 0.30332 0.2256 0.0
H729 H 0.60207 0.31242 0.19172 0.0
C730 C 0.2846 0.62801 0.57062 0.0
C731 C 0.27524 0.6006 0.56725 0.0
C732 C 0.30072 0.63552 0.59494 0.0
C733 C 0.34942 0.60359 0.64668 0.0
H734 H 0.34568 0.67394 0.68771 0.0
C735 C 0.4193 0.62492 0.74553 0.0
C736 C 0.43283 0.65073 0.7469 0.0
C737 C 0.39785 0.62032 0.72548 0.0
C738 C 0.34708 0.65432 0.67625 0.0
H739 H 0.27363 0.5601 0.58765 0.0
H740 H 0.3016 0.57323 0.63024 0.0
H741 H 0.31089 0.66297 0.64999 0.0
H742 H 0.43366 0.69231 0.72892 0.0
H743 H 0.39625 0.68404 0.69328 0.0
H744 H 0.38569 0.59497 0.67233 0.0
C745 C 0.297 0.58877 0.61378 0.0
C746 C 0.32716 0.64802 0.65475 0.0
C747 C 0.28096 0.58125 0.58946 0.0
C748 C 0.42372 0.67217 0.72833 0.0
C749 C 0.40222 0.66748 0.70804 0.0
C750 C 0.36926 0.60988 0.66802 0.0
C751 C 0.30776 0.61575 0.61633 0.0
C752 C 0.32809 0.6225 0.63985 0.0
C753 C 0.38943 0.64132 0.70609 0.0
C754 C 0.36827 0.63523 0.68318 0.0
H755 H 0.28074 0.6433 0.5537 0.0
H756 H 0.30887 0.6564 0.59617 0.0
H757 H 0.35117 0.58407 0.63507 0.0
H758 H 0.42538 0.60805 0.75985 0.0
H759 H 0.38798 0.60015 0.72503 0.0
C760 C 0.78061 0.855 0.06967 0.0
C761 C 0.77372 0.88326 0.06803 0.0
C762 C 0.794 0.84441 0.09452 0.0
C763 C 0.81385 0.86077 0.17157 0.0
H764 H 0.88072 0.81882 0.15285 0.0
C765 C 0.9106 0.85997 0.24528 0.0
C766 C 0.92631 0.83549 0.24824 0.0
C767 C 0.88796 0.86113 0.22608 0.0
C768 C 0.86185 0.83 0.15858 0.0
H769 H 0.77369 0.92217 0.09178 0.0
H770 H 0.79743 0.90388 0.13492 0.0
H771 H 0.84698 0.82897 0.11434 0.0
H772 H 0.93002 0.7928 0.23375 0.0
H773 H 0.89039 0.79497 0.19995 0.0
H774 H 0.82939 0.86273 0.21561 0.0
C775 C 0.79237 0.88979 0.11717 0.0
C776 C 0.84247 0.8358 0.13651 0.0
C777 C 0.77904 0.90036 0.09235 0.0
C778 C 0.91845 0.81201 0.23191 0.0
C779 C 0.89581 0.81325 0.21252 0.0
C780 C 0.83325 0.85499 0.19363 0.0
C781 C 0.80069 0.86187 0.11821 0.0
C782 C 0.81866 0.85194 0.14258 0.0
C783 C 0.88046 0.8379 0.20929 0.0
C784 C 0.85785 0.84025 0.18716 0.0
H785 H 0.77692 0.84134 0.05119 0.0
H786 H 0.79988 0.82274 0.09482 0.0
H787 H 0.79547 0.87284 0.17702 0.0
H788 H 0.91592 0.87843 0.25759 0.0
H789 H 0.87684 0.88057 0.22375 0.0
C790 C 0.21826 0.13147 0.57248 0.0
C791 C 0.22733 0.10394 0.56935 0.0
C792 C 0.20194 0.13923 0.59663 0.0
C793 C 0.15111 0.1064 0.64476 0.0
H794 H 0.14995 0.17647 0.68645 0.0
C795 C 0.07402 0.1251 0.73822 0.0
C796 C 0.06023 0.15081 0.73957 0.0
C797 C 0.09654 0.12112 0.71933 0.0
C798 C 0.14991 0.15693 0.67475 0.0
H799 H 0.22904 0.06369 0.59018 0.0
H800 H 0.20103 0.07729 0.63264 0.0
H801 H 0.18781 0.16655 0.65161 0.0
H802 H 0.05981 0.19272 0.72242 0.0
H803 H 0.09904 0.18547 0.68868 0.0
H804 H 0.11314 0.09684 0.66705 0.0
C805 C 0.20586 0.09272 0.61613 0.0
C806 C 0.17162 0.15121 0.65496 0.0
C807 C 0.22199 0.08496 0.59198 0.0
C808 C 0.06989 0.17263 0.72182 0.0
C809 C 0.09246 0.16855 0.70266 0.0
C810 C 0.1295 0.11211 0.66432 0.0
C811 C 0.19455 0.11955 0.61799 0.0
C812 C 0.1725 0.12577 0.63994 0.0
C813 C 0.10581 0.14261 0.70102 0.0
C814 C 0.1287 0.13732 0.67972 0.0
H815 H 0.22195 0.14644 0.55519 0.0
H816 H 0.19348 0.16003 0.59743 0.0
H817 H 0.1507 0.08695 0.63288 0.0
H818 H 0.06756 0.10793 0.75191 0.0
H819 H 0.10675 0.10108 0.71912 0.0
C820 C 0.21548 0.9116 0.09308 0.0
C821 C 0.22221 0.89192 0.0715 0.0
C822 C 0.19951 0.90408 0.11743 0.0
C823 C 0.16938 0.8454 0.15925 0.0
H824 H 0.10768 0.89661 0.16984 0.0
C825 C 0.06986 0.82087 0.22843 0.0
C826 C 0.05901 0.84285 0.24523 0.0
C827 C 0.09203 0.82541 0.20889 0.0
C828 C 0.12496 0.88225 0.16751 0.0
H829 H 0.21921 0.84859 0.05938 0.0
H830 H 0.19114 0.83545 0.10195 0.0
H831 H 0.14412 0.90728 0.13462 0.0
H832 H 0.0639 0.88652 0.25569 0.0
H833 H 0.10242 0.89418 0.22225 0.0
H834 H 0.14978 0.82026 0.1922 0.0
C835 C 0.19838 0.85662 0.10017 0.0
C836 C 0.14591 0.88842 0.14735 0.0
C837 C 0.21447 0.86414 0.07582 0.0
C838 C 0.0713 0.86918 0.24271 0.0
C839 C 0.09342 0.87363 0.22345 0.0
C840 C 0.14834 0.83924 0.17963 0.0
C841 C 0.18982 0.87677 0.12058 0.0
C842 C 0.16842 0.87018 0.14307 0.0
C843 C 0.10376 0.85197 0.20595 0.0
C844 C 0.12598 0.85772 0.18405 0.0
H845 H 0.22155 0.93307 0.09045 0.0
H846 H 0.19374 0.91993 0.13318 0.0
H847 H 0.18649 0.83096 0.15636 0.0
H848 H 0.06092 0.80032 0.22997 0.0
H849 H 0.09948 0.80833 0.19557 0.0
C850 C 0.77107 0.0809 0.59278 0.0
C851 C 0.76506 0.09975 0.57021 0.0
C852 C 0.78731 0.08897 0.61674 0.0
C853 C 0.81899 0.14902 0.65542 0.0
H854 H 0.87699 0.09543 0.67309 0.0
C855 C 0.91829 0.17275 0.72541 0.0
C856 C 0.92714 0.15162 0.74452 0.0
C857 C 0.89606 0.16819 0.70596 0.0
C858 C 0.86073 0.1105 0.66874 0.0
H859 H 0.77001 0.1422 0.55566 0.0
H860 H 0.79868 0.15629 0.59744 0.0
H861 H 0.84151 0.0842 0.63701 0.0
H862 H 0.91844 0.10973 0.75937 0.0
H863 H 0.87986 0.10204 0.72594 0.0
H864 H 0.8388 0.17548 0.68708 0.0
C865 C 0.79058 0.13536 0.59682 0.0
C866 C 0.84031 0.10402 0.64809 0.0
C867 C 0.77416 0.1273 0.5729 0.0
C868 C 0.91259 0.12633 0.7446 0.0
C869 C 0.89045 0.12185 0.72537 0.0
C870 C 0.83955 0.15554 0.67619 0.0
C871 C 0.79809 0.11601 0.61849 0.0
C872 C 0.8191 0.1231 0.64126 0.0
C873 C 0.88231 0.14245 0.70539 0.0
C874 C 0.86053 0.13623 0.68316 0.0
H875 H 0.76398 0.05963 0.5914 0.0
H876 H 0.79219 0.07375 0.63344 0.0
H877 H 0.80287 0.16412 0.65064 0.0
H878 H 0.929 0.1925 0.72488 0.0
H879 H 0.89028 0.18442 0.69072 0.0
loop_
_geom_bond_atom_site_label_1
_geom_bond_atom_site_label_2
_geom_bond_distance
_geom_bond_site_symmetry_2
_ccdc_geom_bond_type
H0 C3 0.931 . S
H1 C6 0.928 . S
H2 C8 0.930 . S
C3 H0 0.931 . S
C3 C4 1.413 . S
C3 C5 1.360 1_554 S
C4 C3 1.413 . S
C4 C8 1.429 . S
C5 C3 1.360 1_556 S
C5 C6 1.372 . S
C6 H1 0.928 . S
C6 C5 1.372 . S
C6 C7 1.421 . S
C7 C6 1.421 . S
C7 C8 1.361 1_556 S
C8 H2 0.930 . S
C8 C4 1.429 . S
C8 C7 1.361 1_554 S
H9 C12 0.931 . S
H10 C15 0.928 . S
H11 C17 0.930 . S
C12 H9 0.931 . S
C12 C13 1.413 . S
C12 C14 1.360 . S
C13 C12 1.413 . S
C13 C17 1.429 . S
C14 C12 1.360 . S
C14 C15 1.372 . S
C15 H10 0.928 . S
C15 C14 1.372 . S
C15 C16 1.404 . S
C16 C15 1.404 . S
C16 C17 1.391 . S
C17 H11 0.930 . S
C17 C13 1.429 . S
C17 C16 1.391 . S
H18 C21 0.931 . S
H19 C24 0.928 . S
H20 C26 0.930 . S
C21 H18 0.931 . S
C21 C22 1.413 1_554 S
C21 C23 1.360 . S
C22 C21 1.413 1_556 S
C22 C26 1.429 . S
C23 C21 1.360 . S
C23 C24 1.372 . S
C24 H19 0.928 . S
C24 C23 1.372 . S
C24 C25 1.387 1_554 S
C25 C24 1.387 1_556 S
C25 C26 1.401 . S
C26 H20 0.930 . S
C26 C22 1.429 . S
C26 C25 1.401 . S
H27 C30 0.931 . S
H28 C33 0.928 . S
H29 C35 0.930 . S
C30 H27 0.931 . S
C30 C31 1.413 . S
C30 C32 1.360 . S
C31 C30 1.413 . S
C31 C35 1.429 . S
C32 C30 1.360 . S
C32 C33 1.372 . S
C33 H28 0.928 . S
C33 C32 1.372 . S
C33 C34 1.404 . S
C34 C33 1.404 . S
C34 C35 1.391 . S
C35 H29 0.930 . S
C35 C31 1.429 . S
C35 C34 1.391 . S
H36 C39 0.931 . S
H37 C42 0.928 . S
H38 C44 0.930 . S
C39 H36 0.931 . S
C39 C40 1.413 . S
C39 C41 1.360 1_554 S
C40 C39 1.413 . S
C40 C44 1.429 . S
C41 C39 1.360 1_556 S
C41 C42 1.372 . S
C42 H37 0.928 . S
C42 C41 1.372 . S
C42 C43 1.421 . S
C43 C42 1.421 . S
C43 C44 1.361 1_556 S
C44 H38 0.930 . S
C44 C40 1.429 . S
C44 C43 1.361 1_554 S
H45 C48 0.931 . S
H46 C51 0.928 . S
H47 C53 0.930 . S
C48 H45 0.931 . S
C48 C49 1.413 . S
C48 C50 1.360 . S
C49 C48 1.413 . S
C49 C53 1.429 . S
C50 C48 1.360 . S
C50 C51 1.372 . S
C51 H46 0.928 . S
C51 C50 1.372 . S
C51 C52 1.404 . S
C52 C51 1.404 . S
C52 C53 1.391 . S
C53 H47 0.930 . S
C53 C49 1.429 . S
C53 C52 1.391 . S
H54 C57 0.931 . S
H55 C60 0.928 . S
H56 C62 0.930 . S
C57 H54 0.931 . S
C57 C58 1.413 1_554 S
C57 C59 1.360 . S
C58 C57 1.413 1_556 S
C58 C62 1.429 . S
C59 C57 1.360 . S
C59 C60 1.372 . S
C60 H55 0.928 . S
C60 C59 1.372 . S
C60 C61 1.387 1_554 S
C61 C60 1.387 1_556 S
C61 C62 1.401 . S
C62 H56 0.930 . S
C62 C58 1.429 . S
C62 C61 1.401 . S
H63 C66 0.931 . S
H64 C69 0.928 . S
H65 C71 0.930 . S
C66 H63 0.931 . S
C66 C67 1.413 . S
C66 C68 1.360 . S
C67 C66 1.413 . S
C67 C71 1.429 . S
C68 C66 1.360 . S
C68 C69 1.372 . S
C69 H64 0.928 . S
C69 C68 1.372 . S
C69 C70 1.404 . S
C70 C69 1.404 . S
C70 C71 1.391 . S
C71 H65 0.930 . S
C71 C67 1.429 . S
C71 C70 1.391 . S
Sc72 O75 2.025 . S
Sc72 O82 2.091 1_455 S
Sc72 O85 2.119 . S
Sc72 O88 2.119 . S
Sc72 O91 2.091 1_455 S
Sc73 O75 2.025 . S
Sc73 O83 2.090 1_455 S
Sc73 O87 2.119 . S
Sc73 O89 2.119 . S
Sc73 O93 2.090 1_455 S
Sc74 O75 2.025 . S
Sc74 O84 2.091 1_455 S
Sc74 O86 2.119 . S
Sc74 O90 2.119 . S
Sc74 O92 2.091 1_455 S
O75 Sc72 2.025 . S
O75 Sc73 2.025 . S
O75 Sc74 2.025 . S
C76 O82 1.268 . S
C76 O92 1.268 . S
C77 O83 1.268 . S
C77 O91 1.268 . S
C78 O84 1.268 . S
C78 O93 1.268 . S
C79 O85 1.268 . S
C79 O89 1.268 . S
C80 O86 1.268 . S
C80 O88 1.268 . S
C81 O87 1.268 . S
C81 O90 1.268 . S
O82 Sc72 2.091 1_655 S
O82 C76 1.268 . S
O83 Sc73 2.090 1_655 S
O83 C77 1.268 . S
O84 Sc74 2.091 1_655 S
O84 C78 1.268 . S
O85 Sc72 2.119 . S
O85 C79 1.268 . S
O86 Sc74 2.119 . S
O86 C80 1.268 . S
O87 Sc73 2.119 . S
O87 C81 1.268 . S
O88 Sc72 2.119 . S
O88 C80 1.268 . S
O89 Sc73 2.119 . S
O89 C79 1.268 . S
O90 Sc74 2.119 . S
O90 C81 1.268 . S
O91 Sc72 2.091 1_655 S
O91 C77 1.268 . S
O92 Sc74 2.091 1_655 S
O92 C76 1.268 . S
O93 Sc73 2.090 1_655 S
O93 C78 1.268 . S
Sc94 O97 2.025 . S
Sc94 O104 2.113 . S
Sc94 O107 2.097 1_455 S
Sc94 O110 2.097 1_455 S
Sc94 O113 2.113 . S
Sc95 O97 2.025 . S
Sc95 O105 2.112 . S
Sc95 O109 2.097 1_455 S
Sc95 O111 2.097 1_455 S
Sc95 O115 2.112 . S
Sc96 O97 2.025 . S
Sc96 O106 2.112 . S
Sc96 O108 2.098 1_455 S
Sc96 O112 2.098 1_455 S
Sc96 O114 2.112 . S
O97 Sc94 2.025 . S
O97 Sc95 2.025 . S
O97 Sc96 2.025 . S
C98 O104 1.268 . S
C98 O114 1.268 . S
C99 O105 1.268 . S
C99 O113 1.268 . S
C100 O106 1.268 . S
C100 O115 1.268 . S
C101 O107 1.268 . S
C101 O111 1.268 . S
C102 O108 1.268 . S
C102 O110 1.268 . S
C103 O109 1.268 . S
C103 O112 1.268 . S
O104 Sc94 2.113 . S
O104 C98 1.268 . S
O105 Sc95 2.112 . S
O105 C99 1.268 . S
O106 Sc96 2.112 . S
O106 C100 1.268 . S
O107 Sc94 2.097 1_655 S
O107 C101 1.268 . S
O108 Sc96 2.098 1_655 S
O108 C102 1.268 . S
O109 Sc95 2.097 1_655 S
O109 C103 1.268 . S
O110 Sc94 2.097 1_655 S
O110 C102 1.268 . S
O111 Sc95 2.097 1_655 S
O111 C101 1.268 . S
O112 Sc96 2.098 1_655 S
O112 C103 1.268 . S
O113 Sc94 2.113 . S
O113 C99 1.268 . S
O114 Sc96 2.112 . S
O114 C98 1.268 . S
O115 Sc95 2.112 . S
O115 C100 1.268 . S
Sc116 O119 2.025 . S
Sc116 O126 2.105 . S
Sc116 O129 2.105 . S
Sc116 O132 2.105 . S
Sc116 O135 2.105 . S
Sc117 O119 2.025 . S
Sc117 O127 2.105 . S
Sc117 O131 2.105 . S
Sc117 O133 2.105 . S
Sc117 O137 2.105 . S
Sc118 O119 2.025 . S
Sc118 O128 2.105 . S
Sc118 O130 2.105 . S
Sc118 O134 2.105 . S
Sc118 O136 2.105 . S
O119 Sc116 2.025 . S
O119 Sc117 2.025 . S
O119 Sc118 2.025 . S
C120 O126 1.268 . S
C120 O136 1.268 . S
C121 O127 1.268 . S
C121 O135 1.268 . S
C122 O128 1.268 . S
C122 O137 1.268 . S
C123 O129 1.268 . S
C123 O133 1.268 . S
C124 O130 1.268 . S
C124 O132 1.268 . S
C125 O131 1.268 . S
C125 O134 1.268 . S
O126 Sc116 2.105 . S
O126 C120 1.268 . S
O127 Sc117 2.105 . S
O127 C121 1.268 . S
O128 Sc118 2.105 . S
O128 C122 1.268 . S
O129 Sc116 2.105 . S
O129 C123 1.268 . S
O130 Sc118 2.105 . S
O130 C124 1.268 . S
O131 Sc117 2.105 . S
O131 C125 1.268 . S
O132 Sc116 2.105 . S
O132 C124 1.268 . S
O133 Sc117 2.105 . S
O133 C123 1.268 . S
O134 Sc118 2.105 . S
O134 C125 1.268 . S
O135 Sc116 2.105 . S
O135 C121 1.268 . S
O136 Sc118 2.105 . S
O136 C120 1.268 . S
O137 Sc117 2.105 . S
O137 C122 1.268 . S
Sc138 O141 2.025 . S
Sc138 O148 2.105 . S
Sc138 O151 2.105 . S
Sc138 O154 2.105 . S
Sc138 O157 2.105 . S
Sc139 O141 2.025 . S
Sc139 O149 2.105 . S
Sc139 O153 2.105 . S
Sc139 O155 2.105 . S
Sc139 O159 2.105 . S
Sc140 O141 2.025 . S
Sc140 O150 2.105 . S
Sc140 O152 2.105 . S
Sc140 O156 2.105 . S
Sc140 O158 2.105 . S
O141 Sc138 2.025 . S
O141 Sc139 2.025 . S
O141 Sc140 2.025 . S
C142 O148 1.268 . S
C142 O158 1.268 . S
C143 O149 1.268 . S
C143 O157 1.268 . S
C144 O150 1.268 . S
C144 O159 1.268 . S
C145 O151 1.268 . S
C145 O155 1.268 . S
C146 O152 1.268 . S
C146 O154 1.268 . S
C147 O153 1.268 . S
C147 O156 1.268 . S
O148 Sc138 2.105 . S
O148 C142 1.268 . S
O149 Sc139 2.105 . S
O149 C143 1.268 . S
O150 Sc140 2.105 . S
O150 C144 1.268 . S
O151 Sc138 2.105 . S
O151 C145 1.268 . S
O152 Sc140 2.105 . S
O152 C146 1.268 . S
O153 Sc139 2.105 . S
O153 C147 1.268 . S
O154 Sc138 2.105 . S
O154 C146 1.268 . S
O155 Sc139 2.105 . S
O155 C145 1.268 . S
O156 Sc140 2.105 . S
O156 C147 1.268 . S
O157 Sc138 2.105 . S
O157 C143 1.268 . S
O158 Sc140 2.105 . S
O158 C142 1.268 . S
O159 Sc139 2.105 . S
O159 C144 1.268 . S
C160 C161 1.349 . S
C160 C162 1.327 . S
C160 H185 0.950 . S
C161 C160 1.349 . S
C161 C177 1.349 . S
C162 C160 1.327 . S
C162 C181 1.429 . S
C162 H186 0.950 . S
C163 C180 1.574 . S
C163 C182 1.368 . S
C163 H187 0.949 . S
H164 C168 0.949 . S
C165 C166 1.349 . S
C165 C167 1.327 . S
C165 H188 0.950 . S
C166 C165 1.349 . S
C166 C178 1.349 . S
C167 C165 1.327 . S
C167 C183 1.429 . S
C167 H189 0.950 . S
C168 H164 0.949 . S
C168 C176 1.574 . S
C168 C184 1.368 . S
H169 C177 0.950 . S
H170 C175 0.950 . S
H171 C176 0.949 . S
H172 C178 0.950 . S
H173 C179 0.950 . S
H174 C180 0.949 . S
C175 H170 0.950 . S
C175 C177 1.327 . S
C175 C181 1.429 . S
C176 C168 1.574 . S
C176 H171 0.949 . S
C176 C182 1.368 . S
C177 C161 1.349 . S
C177 H169 0.950 . S
C177 C175 1.327 . S
C178 C166 1.349 . S
C178 H172 0.950 . S
C178 C179 1.327 . S
C179 H173 0.950 . S
C179 C178 1.327 . S
C179 C183 1.429 . S
C180 C163 1.574 . S
C180 H174 0.949 . S
C180 C184 1.368 . S
C181 C162 1.429 . S
C181 C175 1.429 . S
C181 C182 1.523 . S
C182 C163 1.368 . S
C182 C176 1.368 . S
C182 C181 1.523 . S
C183 C167 1.429 . S
C183 C179 1.429 . S
C183 C184 1.523 . S
C184 C168 1.368 . S
C184 C180 1.368 . S
C184 C183 1.523 . S
H185 C160 0.950 . S
H186 C162 0.950 . S
H187 C163 0.949 . S
H188 C165 0.950 . S
H189 C167 0.950 . S
C190 C191 1.349 . S
C190 C192 1.327 . S
C190 H215 0.950 . S
C191 C190 1.349 . S
C191 C207 1.349 . S
C192 C190 1.327 . S
C192 C211 1.429 . S
C192 H216 0.950 . S
C193 C210 1.574 . S
C193 C212 1.368 . S
C193 H217 0.949 . S
H194 C198 0.949 . S
C195 C196 1.349 . S
C195 C197 1.327 . S
C195 H218 0.950 . S
C196 C195 1.349 . S
C196 C208 1.349 . S
C197 C195 1.327 . S
C197 C213 1.429 . S
C197 H219 0.950 . S
C198 H194 0.949 . S
C198 C206 1.574 . S
C198 C214 1.368 . S
H199 C207 0.950 . S
H200 C205 0.950 . S
H201 C206 0.949 . S
H202 C208 0.950 . S
H203 C209 0.950 . S
H204 C210 0.949 . S
C205 H200 0.950 . S
C205 C207 1.327 . S
C205 C211 1.429 . S
C206 C198 1.574 . S
C206 H201 0.949 . S
C206 C212 1.368 . S
C207 C191 1.349 . S
C207 H199 0.950 . S
C207 C205 1.327 . S
C208 C196 1.349 . S
C208 H202 0.950 . S
C208 C209 1.327 . S
C209 H203 0.950 . S
C209 C208 1.327 . S
C209 C213 1.429 . S
C210 C193 1.574 . S
C210 H204 0.949 . S
C210 C214 1.368 . S
C211 C192 1.429 . S
C211 C205 1.429 . S
C211 C212 1.523 . S
C212 C193 1.368 . S
C212 C206 1.368 . S
C212 C211 1.523 . S
C213 C197 1.429 . S
C213 C209 1.429 . S
C213 C214 1.523 . S
C214 C198 1.368 . S
C214 C210 1.368 . S
C214 C213 1.523 . S
H215 C190 0.950 . S
H216 C192 0.950 . S
H217 C193 0.949 . S
H218 C195 0.950 . S
H219 C197 0.950 . S
C220 C221 1.349 . S
C220 C222 1.327 . S
C220 H245 0.950 1_556 S
C221 C220 1.349 . S
C221 C237 1.349 . S
C222 C220 1.327 . S
C222 C241 1.429 . S
C222 H246 0.950 . S
C223 C240 1.574 . S
C223 C242 1.368 . S
C223 H247 0.949 . S
H224 C228 0.949 . S
C225 C226 1.349 . S
C225 C227 1.327 . S
C225 H248 0.950 . S
C226 C225 1.349 . S
C226 C238 1.349 . S
C227 C225 1.327 . S
C227 C243 1.429 . S
C227 H249 0.950 . S
C228 H224 0.949 . S
C228 C236 1.574 . S
C228 C244 1.368 . S
H229 C237 0.950 . S
H230 C235 0.950 . S
H231 C236 0.949 . S
H232 C238 0.950 . S
H233 C239 0.950 . S
H234 C240 0.949 . S
C235 H230 0.950 . S
C235 C237 1.327 . S
C235 C241 1.429 . S
C236 C228 1.574 . S
C236 H231 0.949 . S
C236 C242 1.368 . S
C237 C221 1.349 . S
C237 H229 0.950 . S
C237 C235 1.327 . S
C238 C226 1.349 . S
C238 H232 0.950 . S
C238 C239 1.327 . S
C239 H233 0.950 . S
C239 C238 1.327 . S
C239 C243 1.429 . S
C240 C223 1.574 . S
C240 H234 0.949 . S
C240 C244 1.368 . S
C241 C222 1.429 . S
C241 C235 1.429 . S
C241 C242 1.523 . S
C242 C223 1.368 . S
C242 C236 1.368 . S
C242 C241 1.523 . S
C243 C227 1.429 . S
C243 C239 1.429 . S
C243 C244 1.523 . S
C244 C228 1.368 . S
C244 C240 1.368 . S
C244 C243 1.523 . S
H245 C220 0.950 1_554 S
H246 C222 0.950 . S
H247 C223 0.949 . S
H248 C225 0.950 . S
H249 C227 0.950 . S
C250 C251 1.349 . S
C250 C252 1.327 . S
C250 H275 0.950 . S
C251 C250 1.349 . S
C251 C267 1.349 . S
C252 C250 1.327 . S
C252 C271 1.429 . S
C252 H276 0.950 . S
C253 C270 1.574 . S
C253 C272 1.368 . S
C253 H277 0.949 . S
H254 C258 0.949 . S
C255 C256 1.349 . S
C255 C257 1.327 . S
C255 H278 0.950 . S
C256 C255 1.349 . S
C256 C268 1.349 . S
C257 C255 1.327 . S
C257 C273 1.429 . S
C257 H279 0.950 . S
C258 H254 0.949 . S
C258 C266 1.574 . S
C258 C274 1.368 . S
H259 C267 0.950 . S
H260 C265 0.950 . S
H261 C266 0.949 . S
H262 C268 0.950 . S
H263 C269 0.950 . S
H264 C270 0.949 . S
C265 H260 0.950 . S
C265 C267 1.327 . S
C265 C271 1.429 . S
C266 C258 1.574 . S
C266 H261 0.949 . S
C266 C272 1.368 . S
C267 C251 1.349 . S
C267 H259 0.950 . S
C267 C265 1.327 . S
C268 C256 1.349 . S
C268 H262 0.950 . S
C268 C269 1.327 . S
C269 H263 0.950 . S
C269 C268 1.327 . S
C269 C273 1.429 . S
C270 C253 1.574 . S
C270 H264 0.949 . S
C270 C274 1.368 . S
C271 C252 1.429 . S
C271 C265 1.429 . S
C271 C272 1.523 . S
C272 C253 1.368 . S
C272 C266 1.368 . S
C272 C271 1.523 . S
C273 C257 1.429 . S
C273 C269 1.429 . S
C273 C274 1.523 . S
C274 C258 1.368 . S
C274 C270 1.368 . S
C274 C273 1.523 . S
H275 C250 0.950 . S
H276 C252 0.950 . S
H277 C253 0.949 . S
H278 C255 0.950 . S
H279 C257 0.950 . S
C280 C281 1.349 . S
C280 C282 1.327 . S
C280 H305 0.950 . S
C281 C280 1.349 . S
C281 C297 1.338 1_556 S
C282 C280 1.327 . S
C282 C301 1.429 . S
C282 H306 0.950 . S
C283 C300 1.574 . S
C283 C302 1.368 . S
C283 H307 0.949 . S
H284 C288 0.949 . S
C285 C286 1.349 . S
C285 C287 1.327 . S
C285 H308 0.950 . S
C286 C285 1.349 . S
C286 C298 1.349 . S
C287 C285 1.327 . S
C287 C303 1.429 . S
C287 H309 0.950 . S
C288 H284 0.949 . S
C288 C296 1.574 . S
C288 C304 1.368 . S
H289 C297 0.971 . S
H290 C295 0.950 . S
H291 C296 0.949 . S
H292 C298 0.950 . S
H293 C299 0.950 . S
H294 C300 0.949 . S
C295 H290 0.950 . S
C295 C297 1.317 1_556 S
C295 C301 1.429 . S
C296 C288 1.574 . S
C296 H291 0.949 . S
C296 C302 1.368 . S
C297 C281 1.338 1_554 S
C297 H289 0.971 . S
C297 C295 1.317 1_554 S
C298 C286 1.349 . S
C298 H292 0.950 . S
C298 C299 1.327 . S
C299 H293 0.950 . S
C299 C298 1.327 . S
C299 C303 1.429 . S
C300 C283 1.574 . S
C300 H294 0.949 . S
C300 C304 1.368 . S
C301 C282 1.429 . S
C301 C295 1.429 . S
C301 C302 1.523 . S
C302 C283 1.368 . S
C302 C296 1.368 . S
C302 C301 1.523 . S
C303 C287 1.429 . S
C303 C299 1.429 . S
C303 C304 1.523 . S
C304 C288 1.368 . S
C304 C300 1.368 . S
C304 C303 1.523 . S
H305 C280 0.950 . S
H306 C282 0.950 . S
H307 C283 0.949 . S
H308 C285 0.950 . S
H309 C287 0.950 . S
C310 C311 1.349 . S
C310 C312 1.327 . S
C310 H335 0.950 . S
C311 C310 1.349 . S
C311 C327 1.349 . S
C312 C310 1.327 . S
C312 C331 1.429 . S
C312 H336 0.950 . S
C313 C330 1.574 . S
C313 C332 1.368 . S
C313 H337 0.949 . S
H314 C318 0.949 . S
C315 C316 1.349 . S
C315 C317 1.327 . S
C315 H338 0.950 . S
C316 C315 1.349 . S
C316 C328 1.349 . S
C317 C315 1.327 . S
C317 C333 1.429 . S
C317 H339 0.950 . S
C318 H314 0.949 . S
C318 C326 1.574 . S
C318 C334 1.368 . S
H319 C327 0.950 . S
H320 C325 0.950 . S
H321 C326 0.949 . S
H322 C328 0.950 . S
H323 C329 0.950 . S
H324 C330 0.949 . S
C325 H320 0.950 . S
C325 C327 1.327 . S
C325 C331 1.429 . S
C326 C318 1.574 . S
C326 H321 0.949 . S
C326 C332 1.368 . S
C327 C311 1.349 . S
C327 H319 0.950 . S
C327 C325 1.327 . S
C328 C316 1.349 . S
C328 H322 0.950 . S
C328 C329 1.327 . S
C329 H323 0.950 . S
C329 C328 1.327 . S
C329 C333 1.429 . S
C330 C313 1.574 . S
C330 H324 0.949 . S
C330 C334 1.368 . S
C331 C312 1.429 . S
C331 C325 1.429 . S
C331 C332 1.523 . S
C332 C313 1.368 . S
C332 C326 1.368 . S
C332 C331 1.523 . S
C333 C317 1.429 . S
C333 C329 1.429 . S
C333 C334 1.523 . S
C334 C318 1.368 . S
C334 C330 1.368 . S
C334 C333 1.523 . S
H335 C310 0.950 . S
H336 C312 0.950 . S
H337 C313 0.949 . S
H338 C315 0.950 . S
H339 C317 0.950 . S
C340 C341 1.349 . S
C340 C342 1.327 . S
C340 H365 0.950 1_556 S
C341 C340 1.349 . S
C341 C357 1.349 . S
C342 C340 1.327 . S
C342 C361 1.429 . S
C342 H366 0.950 . S
C343 C360 1.574 . S
C343 C362 1.368 . S
C343 H367 0.949 . S
H344 C348 0.949 . S
C345 C346 1.349 . S
C345 C347 1.327 . S
C345 H368 0.950 . S
C346 C345 1.349 . S
C346 C358 1.349 . S
C347 C345 1.327 . S
C347 C363 1.429 . S
C347 H369 0.950 . S
C348 H344 0.949 . S
C348 C356 1.574 . S
C348 C364 1.368 . S
H349 C357 0.950 . S
H350 C355 0.950 . S
H351 C356 0.949 . S
H352 C358 0.950 . S
H353 C359 0.950 . S
H354 C360 0.949 . S
C355 H350 0.950 . S
C355 C357 1.327 . S
C355 C361 1.429 . S
C356 C348 1.574 . S
C356 H351 0.949 . S
C356 C362 1.368 . S
C357 C341 1.349 . S
C357 H349 0.950 . S
C357 C355 1.327 . S
C358 C346 1.349 . S
C358 H352 0.950 . S
C358 C359 1.327 . S
C359 H353 0.950 . S
C359 C358 1.327 . S
C359 C363 1.429 . S
C360 C343 1.574 . S
C360 H354 0.949 . S
C360 C364 1.368 . S
C361 C342 1.429 . S
C361 C355 1.429 . S
C361 C362 1.523 . S
C362 C343 1.368 . S
C362 C356 1.368 . S
C362 C361 1.523 . S
C363 C347 1.429 . S
C363 C359 1.429 . S
C363 C364 1.523 . S
C364 C348 1.368 . S
C364 C360 1.368 . S
C364 C363 1.523 . S
H365 C340 0.950 1_554 S
H366 C342 0.950 . S
H367 C343 0.949 . S
H368 C345 0.950 . S
H369 C347 0.950 . S
C370 C371 1.349 . S
C370 C372 1.327 . S
C370 H395 0.950 . S
C371 C370 1.349 . S
C371 C387 1.349 . S
C372 C370 1.327 . S
C372 C391 1.429 . S
C372 H396 0.950 . S
C373 C390 1.574 . S
C373 C392 1.368 . S
C373 H397 0.949 . S
H374 C378 0.949 . S
C375 C376 1.349 . S
C375 C377 1.327 . S
C375 H398 0.950 . S
C376 C375 1.349 . S
C376 C388 1.349 . S
C377 C375 1.327 . S
C377 C393 1.429 . S
C377 H399 0.950 . S
C378 H374 0.949 . S
C378 C386 1.574 . S
C378 C394 1.368 . S
H379 C387 0.950 . S
H380 C385 0.950 . S
H381 C386 0.949 . S
H382 C388 0.950 . S
H383 C389 0.950 . S
H384 C390 0.949 . S
C385 H380 0.950 . S
C385 C387 1.327 . S
C385 C391 1.429 . S
C386 C378 1.574 . S
C386 H381 0.949 . S
C386 C392 1.368 . S
C387 C371 1.349 . S
C387 H379 0.950 . S
C387 C385 1.327 . S
C388 C376 1.349 . S
C388 H382 0.950 . S
C388 C389 1.327 . S
C389 H383 0.950 . S
C389 C388 1.327 . S
C389 C393 1.429 . S
C390 C373 1.574 . S
C390 H384 0.949 . S
C390 C394 1.368 . S
C391 C372 1.429 . S
C391 C385 1.429 . S
C391 C392 1.523 . S
C392 C373 1.368 . S
C392 C386 1.368 . S
C392 C391 1.523 . S
C393 C377 1.429 . S
C393 C389 1.429 . S
C393 C394 1.523 . S
C394 C378 1.368 . S
C394 C390 1.368 . S
C394 C393 1.523 . S
H395 C370 0.950 . S
H396 C372 0.950 . S
H397 C373 0.949 . S
H398 C375 0.950 . S
H399 C377 0.950 . S
C400 C401 1.349 . S
C400 C402 1.327 . S
C400 H425 0.950 1_556 S
C401 C400 1.349 . S
C401 C417 1.349 . S
C402 C400 1.327 . S
C402 C421 1.429 . S
C402 H426 0.950 . S
C403 C420 1.574 . S
C403 C422 1.368 . S
C403 H427 0.949 . S
H404 C408 0.949 . S
C405 C406 1.349 . S
C405 C407 1.327 . S
C405 H428 0.950 . S
C406 C405 1.349 . S
C406 C418 1.349 . S
C407 C405 1.327 . S
C407 C423 1.429 . S
C407 H429 0.950 . S
C408 H404 0.949 . S
C408 C416 1.574 . S
C408 C424 1.368 . S
H409 C417 0.950 . S
H410 C415 0.950 . S
H411 C416 0.949 . S
H412 C418 0.950 . S
H413 C419 0.950 . S
H414 C420 0.949 . S
C415 H410 0.950 . S
C415 C417 1.327 . S
C415 C421 1.429 . S
C416 C408 1.574 . S
C416 H411 0.949 . S
C416 C422 1.368 . S
C417 C401 1.349 . S
C417 H409 0.950 . S
C417 C415 1.327 . S
C418 C406 1.349 . S
C418 H412 0.950 . S
C418 C419 1.327 . S
C419 H413 0.950 . S
C419 C418 1.327 . S
C419 C423 1.429 . S
C420 C403 1.574 . S
C420 H414 0.949 . S
C420 C424 1.368 . S
C421 C402 1.429 . S
C421 C415 1.429 . S
C421 C422 1.523 . S
C422 C403 1.368 . S
C422 C416 1.368 . S
C422 C421 1.523 . S
C423 C407 1.429 . S
C423 C419 1.429 . S
C423 C424 1.523 . S
C424 C408 1.368 . S
C424 C420 1.368 . S
C424 C423 1.523 . S
H425 C400 0.950 1_554 S
H426 C402 0.950 . S
H427 C403 0.949 . S
H428 C405 0.950 . S
H429 C407 0.950 . S
C430 C431 1.349 . S
C430 C432 1.327 . S
C430 H455 0.950 . S
C431 C430 1.349 . S
C431 C447 1.349 . S
C432 C430 1.327 . S
C432 C451 1.429 . S
C432 H456 0.950 . S
C433 C450 1.574 . S
C433 C452 1.368 . S
C433 H457 0.949 . S
H434 C438 0.949 . S
C435 C436 1.349 . S
C435 C437 1.327 . S
C435 H458 0.950 . S
C436 C435 1.349 . S
C436 C448 1.349 . S
C437 C435 1.327 . S
C437 C453 1.429 . S
C437 H459 0.950 . S
C438 H434 0.949 . S
C438 C446 1.574 . S
C438 C454 1.368 . S
H439 C447 0.950 . S
H440 C445 0.950 . S
H441 C446 0.949 . S
H442 C448 0.950 . S
H443 C449 0.950 . S
H444 C450 0.949 . S
C445 H440 0.950 . S
C445 C447 1.327 . S
C445 C451 1.429 . S
C446 C438 1.574 . S
C446 H441 0.949 . S
C446 C452 1.368 . S
C447 C431 1.349 . S
C447 H439 0.950 . S
C447 C445 1.327 . S
C448 C436 1.349 . S
C448 H442 0.950 . S
C448 C449 1.327 . S
C449 H443 0.950 . S
C449 C448 1.327 . S
C449 C453 1.429 . S
C450 C433 1.574 . S
C450 H444 0.949 . S
C450 C454 1.368 . S
C451 C432 1.429 . S
C451 C445 1.429 . S
C451 C452 1.523 . S
C452 C433 1.368 . S
C452 C446 1.368 . S
C452 C451 1.523 . S
C453 C437 1.429 . S
C453 C449 1.429 . S
C453 C454 1.523 . S
C454 C438 1.368 . S
C454 C450 1.368 . S
C454 C453 1.523 . S
H455 C430 0.950 . S
H456 C432 0.950 . S
H457 C433 0.949 . S
H458 C435 0.950 . S
H459 C437 0.950 . S
C460 C461 1.349 . S
C460 C462 1.327 . S
C460 H485 0.950 . S
C461 C460 1.349 . S
C461 C477 1.349 . S
C462 C460 1.327 . S
C462 C481 1.429 . S
C462 H486 0.950 . S
C463 C480 1.574 . S
C463 C482 1.368 . S
C463 H487 0.949 . S
H464 C468 0.949 . S
C465 C466 1.349 . S
C465 C467 1.327 . S
C465 H488 0.950 . S
C466 C465 1.349 . S
C466 C478 1.349 . S
C467 C465 1.327 . S
C467 C483 1.429 . S
C467 H489 0.950 . S
C468 H464 0.949 . S
C468 C476 1.574 . S
C468 C484 1.368 . S
H469 C477 0.950 . S
H470 C475 0.950 . S
H471 C476 0.949 . S
H472 C478 0.950 . S
H473 C479 0.950 . S
H474 C480 0.949 . S
C475 H470 0.950 . S
C475 C477 1.327 . S
C475 C481 1.429 . S
C476 C468 1.574 . S
C476 H471 0.949 . S
C476 C482 1.368 . S
C477 C461 1.349 . S
C477 H469 0.950 . S
C477 C475 1.327 . S
C478 C466 1.349 . S
C478 H472 0.950 . S
C478 C479 1.327 . S
C479 H473 0.950 . S
C479 C478 1.327 . S
C479 C483 1.429 . S
C480 C463 1.574 . S
C480 H474 0.949 . S
C480 C484 1.368 . S
C481 C462 1.429 . S
C481 C475 1.429 . S
C481 C482 1.523 . S
C482 C463 1.368 . S
C482 C476 1.368 . S
C482 C481 1.523 . S
C483 C467 1.429 . S
C483 C479 1.429 . S
C483 C484 1.523 . S
C484 C468 1.368 . S
C484 C480 1.368 . S
C484 C483 1.523 . S
H485 C460 0.950 . S
H486 C462 0.950 . S
H487 C463 0.949 . S
H488 C465 0.950 . S
H489 C467 0.950 . S
C490 C491 1.349 . S
C490 C492 1.327 . S
C490 H515 0.950 . S
C491 C490 1.349 . S
C491 C507 1.349 . S
C492 C490 1.327 . S
C492 C511 1.429 . S
C492 H516 0.950 . S
C493 C510 1.574 . S
C493 C512 1.368 . S
C493 H517 0.949 . S
H494 C498 0.949 . S
C495 C496 1.349 . S
C495 C497 1.327 . S
C495 H518 0.950 . S
C496 C495 1.349 . S
C496 C508 1.349 . S
C497 C495 1.327 . S
C497 C513 1.429 . S
C497 H519 0.950 . S
C498 H494 0.949 . S
C498 C506 1.574 . S
C498 C514 1.368 . S
H499 C507 0.950 . S
H500 C505 0.950 . S
H501 C506 0.949 . S
H502 C508 0.950 . S
H503 C509 0.950 . S
H504 C510 0.949 . S
C505 H500 0.950 . S
C505 C507 1.327 . S
C505 C511 1.429 . S
C506 C498 1.574 . S
C506 H501 0.949 . S
C506 C512 1.368 . S
C507 C491 1.349 . S
C507 H499 0.950 . S
C507 C505 1.327 . S
C508 C496 1.349 . S
C508 H502 0.950 . S
C508 C509 1.327 . S
C509 H503 0.950 . S
C509 C508 1.327 . S
C509 C513 1.429 . S
C510 C493 1.574 . S
C510 H504 0.949 . S
C510 C514 1.368 . S
C511 C492 1.429 . S
C511 C505 1.429 . S
C511 C512 1.523 . S
C512 C493 1.368 . S
C512 C506 1.368 . S
C512 C511 1.523 . S
C513 C497 1.429 . S
C513 C509 1.429 . S
C513 C514 1.523 . S
C514 C498 1.368 . S
C514 C510 1.368 . S
C514 C513 1.523 . S
H515 C490 0.950 . S
H516 C492 0.950 . S
H517 C493 0.949 . S
H518 C495 0.950 . S
H519 C497 0.950 . S
C520 C521 1.349 . S
C520 C522 1.327 . S
C520 H545 0.932 1_556 S
C521 C520 1.349 . S
C521 C537 1.349 . S
C522 C520 1.327 . S
C522 C541 1.429 . S
C522 H546 0.950 . S
C523 C540 1.574 . S
C523 C542 1.368 . S
C523 H547 0.949 . S
H524 C528 0.949 . S
C525 C526 1.349 . S
C525 C527 1.327 . S
C525 H548 0.950 . S
C526 C525 1.349 . S
C526 C538 1.349 . S
C527 C525 1.327 . S
C527 C543 1.429 . S
C527 H549 0.950 . S
C528 H524 0.949 . S
C528 C536 1.574 . S
C528 C544 1.368 . S
H529 C537 0.950 . S
H530 C535 0.938 1_545 S
H531 C536 0.949 1_565 S
H532 C538 0.950 . S
H533 C539 0.950 . S
H534 C540 0.949 . S
C535 H530 0.938 1_565 S
C535 C537 1.327 . S
C535 C541 1.429 . S
C536 C528 1.574 . S
C536 H531 0.949 1_545 S
C536 C542 1.368 . S
C537 C521 1.349 . S
C537 H529 0.950 . S
C537 C535 1.327 . S
C538 C526 1.349 . S
C538 H532 0.950 . S
C538 C539 1.327 . S
C539 H533 0.950 . S
C539 C538 1.327 . S
C539 C543 1.429 . S
C540 C523 1.574 . S
C540 H534 0.949 . S
C540 C544 1.368 . S
C541 C522 1.429 . S
C541 C535 1.429 . S
C541 C542 1.523 1_565 S
C542 C523 1.368 . S
C542 C536 1.368 . S
C542 C541 1.523 1_545 S
C543 C527 1.429 . S
C543 C539 1.429 . S
C543 C544 1.523 . S
C544 C528 1.368 . S
C544 C540 1.368 . S
C544 C543 1.523 . S
H545 C520 0.932 1_554 S
H546 C522 0.950 . S
H547 C523 0.949 . S
H548 C525 0.950 . S
H549 C527 0.950 . S
C550 C551 1.349 . S
C550 C552 1.327 . S
C550 H575 0.950 . S
C551 C550 1.349 . S
C551 C567 1.349 . S
C552 C550 1.327 . S
C552 C571 1.429 . S
C552 H576 0.950 . S
C553 C570 1.574 . S
C553 C572 1.368 . S
C553 H577 0.949 1_565 S
H554 C558 0.949 . S
C555 C556 1.349 . S
C555 C557 1.327 . S
C555 H578 0.950 . S
C556 C555 1.349 . S
C556 C568 1.349 . S
C557 C555 1.327 . S
C557 C573 1.429 . S
C557 H579 0.950 . S
C558 H554 0.949 . S
C558 C566 1.574 . S
C558 C574 1.368 . S
H559 C567 0.950 . S
H560 C565 0.950 . S
H561 C566 0.949 . S
H562 C568 0.950 . S
H563 C569 0.950 . S
H564 C570 0.949 . S
C565 H560 0.950 . S
C565 C567 1.327 . S
C565 C571 1.429 . S
C566 C558 1.574 . S
C566 H561 0.949 . S
C566 C572 1.368 . S
C567 C551 1.349 . S
C567 H559 0.950 . S
C567 C565 1.327 . S
C568 C556 1.349 . S
C568 H562 0.950 . S
C568 C569 1.327 . S
C569 H563 0.950 . S
C569 C568 1.327 . S
C569 C573 1.429 . S
C570 C553 1.574 . S
C570 H564 0.949 . S
C570 C574 1.368 . S
C571 C552 1.429 . S
C571 C565 1.429 . S
C571 C572 1.523 1_545 S
C572 C553 1.368 . S
C572 C566 1.368 . S
C572 C571 1.523 1_565 S
C573 C557 1.429 . S
C573 C569 1.429 . S
C573 C574 1.523 . S
C574 C558 1.368 . S
C574 C570 1.368 . S
C574 C573 1.523 . S
H575 C550 0.950 . S
H576 C552 0.950 . S
H577 C553 0.949 1_545 S
H578 C555 0.950 . S
H579 C557 0.950 . S
C580 C581 1.349 . S
C580 C582 1.327 . S
C580 H605 0.950 . S
C581 C580 1.349 . S
C581 C597 1.349 . S
C582 C580 1.327 . S
C582 C601 1.429 . S
C582 H606 0.950 . S
C583 C600 1.574 . S
C583 C602 1.368 . S
C583 H607 0.949 . S
H584 C588 0.949 . S
C585 C586 1.349 . S
C585 C587 1.327 . S
C585 H608 0.950 . S
C586 C585 1.349 . S
C586 C598 1.349 . S
C587 C585 1.327 . S
C587 C603 1.429 . S
C587 H609 0.950 . S
C588 H584 0.949 . S
C588 C596 1.574 . S
C588 C604 1.368 . S
H589 C597 0.950 1_554 S
H590 C595 0.950 . S
H591 C596 0.949 . S
H592 C598 0.950 . S
H593 C599 0.950 . S
H594 C600 0.949 . S
C595 H590 0.950 . S
C595 C597 1.327 . S
C595 C601 1.429 . S
C596 C588 1.574 . S
C596 H591 0.949 . S
C596 C602 1.368 . S
C597 C581 1.349 . S
C597 H589 0.950 1_556 S
C597 C595 1.327 . S
C598 C586 1.349 . S
C598 H592 0.950 . S
C598 C599 1.327 . S
C599 H593 0.950 . S
C599 C598 1.327 . S
C599 C603 1.429 . S
C600 C583 1.574 . S
C600 H594 0.949 . S
C600 C604 1.368 . S
C601 C582 1.429 . S
C601 C595 1.429 . S
C601 C602 1.523 1_565 S
C602 C583 1.368 . S
C602 C596 1.368 . S
C602 C601 1.523 1_545 S
C603 C587 1.429 . S
C603 C599 1.429 . S
C603 C604 1.523 . S
C604 C588 1.368 . S
C604 C600 1.368 . S
C604 C603 1.523 . S
H605 C580 0.950 . S
H606 C582 0.950 . S
H607 C583 0.949 . S
H608 C585 0.950 . S
H609 C587 0.950 . S
C610 C611 1.349 . S
C610 C612 1.327 . S
C610 H635 0.950 . S
C611 C610 1.349 . S
C611 C627 1.349 . S
C612 C610 1.327 . S
C612 C631 1.429 . S
C612 H636 0.950 1_545 S
C613 C630 1.574 . S
C613 C632 1.368 . S
C613 H637 0.949 1_565 S
H614 C618 0.949 . S
C615 C616 1.349 . S
C615 C617 1.327 . S
C615 H638 0.950 . S
C616 C615 1.349 . S
C616 C628 1.349 . S
C617 C615 1.327 . S
C617 C633 1.429 . S
C617 H639 0.950 . S
C618 H614 0.949 . S
C618 C626 1.574 . S
C618 C634 1.368 . S
H619 C627 0.950 . S
H620 C625 0.950 . S
H621 C626 0.949 . S
H622 C628 0.950 . S
H623 C629 0.950 . S
H624 C630 0.949 . S
C625 H620 0.950 . S
C625 C627 1.327 . S
C625 C631 1.429 . S
C626 C618 1.574 . S
C626 H621 0.949 . S
C626 C632 1.368 . S
C627 C611 1.349 . S
C627 H619 0.950 . S
C627 C625 1.327 . S
C628 C616 1.349 . S
C628 H622 0.950 . S
C628 C629 1.327 . S
C629 H623 0.950 . S
C629 C628 1.327 . S
C629 C633 1.429 . S
C630 C613 1.574 . S
C630 H624 0.949 . S
C630 C634 1.368 . S
C631 C612 1.429 . S
C631 C625 1.429 . S
C631 C632 1.523 1_545 S
C632 C613 1.368 . S
C632 C626 1.368 . S
C632 C631 1.523 1_565 S
C633 C617 1.429 . S
C633 C629 1.429 . S
C633 C634 1.523 . S
C634 C618 1.368 . S
C634 C630 1.368 . S
C634 C633 1.523 . S
H635 C610 0.950 . S
H636 C612 0.950 1_565 S
H637 C613 0.949 1_545 S
H638 C615 0.950 . S
H639 C617 0.950 . S
C640 C641 1.349 . S
C640 C642 1.327 . S
C640 H665 0.950 . S
C641 C640 1.349 . S
C641 C657 1.349 . S
C642 C640 1.327 . S
C642 C661 1.429 . S
C642 H666 0.950 . S
C643 C660 1.574 . S
C643 C662 1.368 . S
C643 H667 0.949 . S
H644 C648 0.949 . S
C645 C646 1.349 . S
C645 C647 1.327 . S
C645 H668 0.950 . S
C646 C645 1.349 . S
C646 C658 1.349 . S
C647 C645 1.327 . S
C647 C663 1.429 . S
C647 H669 0.950 . S
C648 H644 0.949 . S
C648 C656 1.574 . S
C648 C664 1.368 . S
H649 C657 0.950 . S
H650 C655 0.950 . S
H651 C656 0.949 . S
H652 C658 0.950 . S
H653 C659 0.950 . S
H654 C660 0.949 . S
C655 H650 0.950 . S
C655 C657 1.327 . S
C655 C661 1.429 . S
C656 C648 1.574 . S
C656 H651 0.949 . S
C656 C662 1.368 . S
C657 C641 1.349 . S
C657 H649 0.950 . S
C657 C655 1.327 . S
C658 C646 1.349 . S
C658 H652 0.950 . S
C658 C659 1.327 . S
C659 H653 0.950 . S
C659 C658 1.327 . S
C659 C663 1.429 . S
C660 C643 1.574 . S
C660 H654 0.949 . S
C660 C664 1.368 . S
C661 C642 1.429 . S
C661 C655 1.429 . S
C661 C662 1.523 . S
C662 C643 1.368 . S
C662 C656 1.368 . S
C662 C661 1.523 . S
C663 C647 1.429 . S
C663 C659 1.429 . S
C663 C664 1.523 . S
C664 C648 1.368 . S
C664 C660 1.368 . S
C664 C663 1.523 . S
H665 C640 0.950 . S
H666 C642 0.950 . S
H667 C643 0.949 . S
H668 C645 0.950 . S
H669 C647 0.950 . S
C670 C671 1.349 . S
C670 C672 1.327 . S
C670 H695 0.950 . S
C671 C670 1.349 . S
C671 C687 1.349 . S
C672 C670 1.327 . S
C672 C691 1.429 . S
C672 H696 0.950 . S
C673 C690 1.574 . S
C673 C692 1.368 . S
C673 H697 0.949 . S
H674 C678 0.949 . S
C675 C676 1.349 . S
C675 C677 1.327 . S
C675 H698 0.950 . S
C676 C675 1.349 . S
C676 C688 1.349 . S
C677 C675 1.327 . S
C677 C693 1.429 . S
C677 H699 0.950 . S
C678 H674 0.949 . S
C678 C686 1.574 . S
C678 C694 1.368 . S
H679 C687 0.950 . S
H680 C685 0.950 . S
H681 C686 0.949 . S
H682 C688 0.950 . S
H683 C689 0.950 . S
H684 C690 0.949 . S
C685 H680 0.950 . S
C685 C687 1.327 . S
C685 C691 1.429 . S
C686 C678 1.574 . S
C686 H681 0.949 . S
C686 C692 1.368 . S
C687 C671 1.349 . S
C687 H679 0.950 . S
C687 C685 1.327 . S
C688 C676 1.349 . S
C688 H682 0.950 . S
C688 C689 1.327 . S
C689 H683 0.950 . S
C689 C688 1.327 . S
C689 C693 1.429 . S
C690 C673 1.574 . S
C690 H684 0.949 . S
C690 C694 1.368 . S
C691 C672 1.429 . S
C691 C685 1.429 . S
C691 C692 1.523 . S
C692 C673 1.368 . S
C692 C686 1.368 . S
C692 C691 1.523 . S
C693 C677 1.429 . S
C693 C689 1.429 . S
C693 C694 1.523 . S
C694 C678 1.368 . S
C694 C690 1.368 . S
C694 C693 1.523 . S
H695 C670 0.950 . S
H696 C672 0.950 . S
H697 C673 0.949 . S
H698 C675 0.950 . S
H699 C677 0.950 . S
C700 C701 1.349 . S
C700 C702 1.327 . S
C700 H725 0.950 . S
C701 C700 1.349 . S
C701 C717 1.349 . S
C702 C700 1.327 . S
C702 C721 1.429 . S
C702 H726 0.950 . S
C703 C720 1.574 . S
C703 C722 1.368 . S
C703 H727 0.949 . S
H704 C708 0.949 . S
C705 C706 1.349 . S
C705 C707 1.327 . S
C705 H728 0.950 . S
C706 C705 1.349 . S
C706 C718 1.349 . S
C707 C705 1.327 . S
C707 C723 1.429 . S
C707 H729 0.950 . S
C708 H704 0.949 . S
C708 C716 1.574 . S
C708 C724 1.368 . S
H709 C717 0.950 . S
H710 C715 0.950 . S
H711 C716 0.949 . S
H712 C718 0.950 . S
H713 C719 0.950 . S
H714 C720 0.949 . S
C715 H710 0.950 . S
C715 C717 1.327 . S
C715 C721 1.429 . S
C716 C708 1.574 . S
C716 H711 0.949 . S
C716 C722 1.368 . S
C717 C701 1.349 . S
C717 H709 0.950 . S
C717 C715 1.327 . S
C718 C706 1.349 . S
C718 H712 0.950 . S
C718 C719 1.327 . S
C719 H713 0.950 . S
C719 C718 1.327 . S
C719 C723 1.429 . S
C720 C703 1.574 . S
C720 H714 0.949 . S
C720 C724 1.368 . S
C721 C702 1.429 . S
C721 C715 1.429 . S
C721 C722 1.523 . S
C722 C703 1.368 . S
C722 C716 1.368 . S
C722 C721 1.523 . S
C723 C707 1.429 . S
C723 C719 1.429 . S
C723 C724 1.523 . S
C724 C708 1.368 . S
C724 C720 1.368 . S
C724 C723 1.523 . S
H725 C700 0.950 . S
H726 C702 0.950 . S
H727 C703 0.949 . S
H728 C705 0.950 . S
H729 C707 0.950 . S
C730 C731 1.349 . S
C730 C732 1.327 . S
C730 H755 0.950 . S
C731 C730 1.349 . S
C731 C747 1.349 . S
C732 C730 1.327 . S
C732 C751 1.429 . S
C732 H756 0.950 . S
C733 C750 1.574 . S
C733 C752 1.368 . S
C733 H757 0.949 . S
H734 C738 0.949 . S
C735 C736 1.349 . S
C735 C737 1.327 . S
C735 H758 0.950 . S
C736 C735 1.349 . S
C736 C748 1.349 . S
C737 C735 1.327 . S
C737 C753 1.429 . S
C737 H759 0.950 . S
C738 H734 0.949 . S
C738 C746 1.574 . S
C738 C754 1.368 . S
H739 C747 0.950 . S
H740 C745 0.950 . S
H741 C746 0.949 . S
H742 C748 0.950 . S
H743 C749 0.950 . S
H744 C750 0.949 . S
C745 H740 0.950 . S
C745 C747 1.327 . S
C745 C751 1.429 . S
C746 C738 1.574 . S
C746 H741 0.949 . S
C746 C752 1.368 . S
C747 C731 1.349 . S
C747 H739 0.950 . S
C747 C745 1.327 . S
C748 C736 1.349 . S
C748 H742 0.950 . S
C748 C749 1.327 . S
C749 H743 0.950 . S
C749 C748 1.327 . S
C749 C753 1.429 . S
C750 C733 1.574 . S
C750 H744 0.949 . S
C750 C754 1.368 . S
C751 C732 1.429 . S
C751 C745 1.429 . S
C751 C752 1.523 . S
C752 C733 1.368 . S
C752 C746 1.368 . S
C752 C751 1.523 . S
C753 C737 1.429 . S
C753 C749 1.429 . S
C753 C754 1.523 . S
C754 C738 1.368 . S
C754 C750 1.368 . S
C754 C753 1.523 . S
H755 C730 0.950 . S
H756 C732 0.950 . S
H757 C733 0.949 . S
H758 C735 0.950 . S
H759 C737 0.950 . S
C760 C761 1.349 . S
C760 C762 1.327 . S
C760 H785 0.950 . S
C761 C760 1.349 . S
C761 C777 1.349 . S
C762 C760 1.327 . S
C762 C781 1.429 . S
C762 H786 0.950 . S
C763 C780 1.574 . S
C763 C782 1.368 . S
C763 H787 0.949 . S
H764 C768 0.949 . S
C765 C766 1.349 . S
C765 C767 1.327 . S
C765 H788 0.950 . S
C766 C765 1.349 . S
C766 C778 1.349 . S
C767 C765 1.327 . S
C767 C783 1.429 . S
C767 H789 0.950 . S
C768 H764 0.949 . S
C768 C776 1.574 . S
C768 C784 1.368 . S
H769 C777 0.950 . S
H770 C775 0.950 . S
H771 C776 0.949 . S
H772 C778 0.950 . S
H773 C779 0.950 . S
H774 C780 0.949 . S
C775 H770 0.950 . S
C775 C777 1.327 . S
C775 C781 1.429 . S
C776 C768 1.574 . S
C776 H771 0.949 . S
C776 C782 1.368 . S
C777 C761 1.349 . S
C777 H769 0.950 . S
C777 C775 1.327 . S
C778 C766 1.349 . S
C778 H772 0.950 . S
C778 C779 1.327 . S
C779 H773 0.950 . S
C779 C778 1.327 . S
C779 C783 1.429 . S
C780 C763 1.574 . S
C780 H774 0.949 . S
C780 C784 1.368 . S
C781 C762 1.429 . S
C781 C775 1.429 . S
C781 C782 1.523 . S
C782 C763 1.368 . S
C782 C776 1.368 . S
C782 C781 1.523 . S
C783 C767 1.429 . S
C783 C779 1.429 . S
C783 C784 1.523 . S
C784 C768 1.368 . S
C784 C780 1.368 . S
C784 C783 1.523 . S
H785 C760 0.950 . S
H786 C762 0.950 . S
H787 C763 0.949 . S
H788 C765 0.950 . S
H789 C767 0.950 . S
C790 C791 1.349 . S
C790 C792 1.327 . S
C790 H815 0.950 . S
C791 C790 1.349 . S
C791 C807 1.349 . S
C792 C790 1.327 . S
C792 C811 1.429 . S
C792 H816 0.950 . S
C793 C810 1.574 . S
C793 C812 1.368 . S
C793 H817 0.949 . S
H794 C798 0.949 . S
C795 C796 1.349 . S
C795 C797 1.327 . S
C795 H818 0.950 . S
C796 C795 1.349 . S
C796 C808 1.349 . S
C797 C795 1.327 . S
C797 C813 1.429 . S
C797 H819 0.950 . S
C798 H794 0.949 . S
C798 C806 1.574 . S
C798 C814 1.368 . S
H799 C807 0.950 . S
H800 C805 0.950 . S
H801 C806 0.949 . S
H802 C808 0.950 . S
H803 C809 0.950 . S
H804 C810 0.949 . S
C805 H800 0.950 . S
C805 C807 1.327 . S
C805 C811 1.429 . S
C806 C798 1.574 . S
C806 H801 0.949 . S
C806 C812 1.368 . S
C807 C791 1.349 . S
C807 H799 0.950 . S
C807 C805 1.327 . S
C808 C796 1.349 . S
C808 H802 0.950 . S
C808 C809 1.327 . S
C809 H803 0.950 . S
C809 C808 1.327 . S
C809 C813 1.429 . S
C810 C793 1.574 . S
C810 H804 0.949 . S
C810 C814 1.368 . S
C811 C792 1.429 . S
C811 C805 1.429 . S
C811 C812 1.523 . S
C812 C793 1.368 . S
C812 C806 1.368 . S
C812 C811 1.523 . S
C813 C797 1.429 . S
C813 C809 1.429 . S
C813 C814 1.523 . S
C814 C798 1.368 . S
C814 C810 1.368 . S
C814 C813 1.523 . S
H815 C790 0.950 . S
H816 C792 0.950 . S
H817 C793 0.949 . S
H818 C795 0.950 . S
H819 C797 0.950 . S
C820 C821 1.349 . S
C820 C822 1.327 . S
C820 H845 0.950 . S
C821 C820 1.349 . S
C821 C837 1.349 . S
C822 C820 1.327 . S
C822 C841 1.429 . S
C822 H846 0.950 . S
C823 C840 1.574 . S
C823 C842 1.368 . S
C823 H847 0.949 . S
H824 C828 0.949 . S
C825 C826 1.349 . S
C825 C827 1.327 . S
C825 H848 0.950 . S
C826 C825 1.349 . S
C826 C838 1.349 . S
C827 C825 1.327 . S
C827 C843 1.429 . S
C827 H849 0.950 . S
C828 H824 0.949 . S
C828 C836 1.574 . S
C828 C844 1.368 . S
H829 C837 0.950 . S
H830 C835 0.950 . S
H831 C836 0.949 . S
H832 C838 0.950 . S
H833 C839 0.950 . S
H834 C840 0.949 . S
C835 H830 0.950 . S
C835 C837 1.327 . S
C835 C841 1.429 . S
C836 C828 1.574 . S
C836 H831 0.949 . S
C836 C842 1.368 . S
C837 C821 1.349 . S
C837 H829 0.950 . S
C837 C835 1.327 . S
C838 C826 1.349 . S
C838 H832 0.950 . S
C838 C839 1.327 . S
C839 H833 0.950 . S
C839 C838 1.327 . S
C839 C843 1.429 . S
C840 C823 1.574 . S
C840 H834 0.949 . S
C840 C844 1.368 . S
C841 C822 1.429 . S
C841 C835 1.429 . S
C841 C842 1.523 . S
C842 C823 1.368 . S
C842 C836 1.368 . S
C842 C841 1.523 . S
C843 C827 1.429 . S
C843 C839 1.429 . S
C843 C844 1.523 . S
C844 C828 1.368 . S
C844 C840 1.368 . S
C844 C843 1.523 . S
H845 C820 0.950 . S
H846 C822 0.950 . S
H847 C823 0.949 . S
H848 C825 0.950 . S
H849 C827 0.950 . S
C850 C851 1.349 . S
C850 C852 1.327 . S
C850 H875 0.950 . S
C851 C850 1.349 . S
C851 C867 1.349 . S
C852 C850 1.327 . S
C852 C871 1.429 . S
C852 H876 0.950 . S
C853 C870 1.574 . S
C853 C872 1.368 . S
C853 H877 0.949 . S
H854 C858 0.949 . S
C855 C856 1.349 . S
C855 C857 1.327 . S
C855 H878 0.950 . S
C856 C855 1.349 . S
C856 C868 1.349 . S
C857 C855 1.327 . S
C857 C873 1.429 . S
C857 H879 0.950 . S
C858 H854 0.949 . S
C858 C866 1.574 . S
C858 C874 1.368 . S
H859 C867 0.950 . S
H860 C865 0.950 . S
H861 C866 0.949 . S
H862 C868 0.950 . S
H863 C869 0.950 . S
H864 C870 0.949 . S
C865 H860 0.950 . S
C865 C867 1.327 . S
C865 C871 1.429 . S
C866 C858 1.574 . S
C866 H861 0.949 . S
C866 C872 1.368 . S
C867 C851 1.349 . S
C867 H859 0.950 . S
C867 C865 1.327 . S
C868 C856 1.349 . S
C868 H862 0.950 . S
C868 C869 1.327 . S
C869 H863 0.950 . S
C869 C868 1.327 . S
C869 C873 1.429 . S
C870 C853 1.574 . S
C870 H864 0.949 . S
C870 C874 1.368 . S
C871 C852 1.429 . S
C871 C865 1.429 . S
C871 C872 1.523 . S
C872 C853 1.368 . S
C872 C866 1.368 . S
C872 C871 1.523 . S
C873 C857 1.429 . S
C873 C869 1.429 . S
C873 C874 1.523 . S
C874 C858 1.368 . S
C874 C870 1.368 . S
C874 C873 1.523 . S
H875 C850 0.950 . S
H876 C852 0.950 . S
H877 C853 0.949 . S
H878 C855 0.950 . S
H879 C857 0.950 . S
C161 C7 1.516 . S
C166 C98 1.480 . S
C196 C76 1.479 . S
C191 C16 1.501 . S
C226 C102 1.478 . S
C221 C25 1.508 . S
C256 C80 1.482 . S
C251 C34 1.501 . S
C286 C142 1.480 . S
C281 C43 1.516 . S
C316 C120 1.480 . S
C311 C52 1.501 . S
C341 C61 1.508 . S
C346 C146 1.478 . S
C376 C124 1.482 . S
C371 C70 1.501 . S
C401 C5 1.466 . S
C406 C147 1.448 . S
C436 C125 1.448 . S
C431 C14 1.467 . S
C461 C22 1.463 . S
C466 C144 1.445 . S
C491 C32 1.465 . S
C496 C122 1.450 . S
C526 C103 1.448 . S
C521 C41 1.466 . S
C551 C50 1.467 . S
C556 C81 1.448 . S
C586 C100 1.445 . S
C581 C58 1.463 . S
C616 C78 1.450 . S
C611 C68 1.465 . S
C646 C121 1.417 . S
C641 C4 1.437 . S
C676 C143 1.417 . S
C671 C13 1.438 . S
C701 C23 1.438 . S
C706 C123 1.417 . S
C736 C145 1.417 . S
C731 C31 1.436 . S
C766 C77 1.417 . S
C761 C40 1.437 . S
C791 C49 1.438 . S
C796 C99 1.418 . S
C821 C59 1.438 . S
C826 C79 1.417 . S
C851 C67 1.436 . S
C856 C101 1.417 . S
