# Generated by pormake.
# Topology ctn, (3,4)-cn, num edge types: 1
# Building blocks:
#     Node 0, Type 0, BuildingBlock: QEWDON_clean_linker_0, # of connection points: 3
#     Node 1, Type 0, BuildingBlock: QEWDON_clean_linker_0, # of connection points: 3
#     Node 2, Type 0, BuildingBlock: QEWDON_clean_linker_0, # of connection points: 3
#     Node 3, Type 0, BuildingBlock: QEWDON_clean_linker_0, # of connection points: 3
#     Node 4, Type 0, BuildingBlock: QEWDON_clean_linker_0, # of connection points: 3
#     Node 5, Type 0, BuildingBlock: QEWDON_clean_linker_0, # of connection points: 3
#     Node 6, Type 0, BuildingBlock: QEWDON_clean_linker_0, # of connection points: 3
#     Node 7, Type 0, BuildingBlock: QEWDON_clean_linker_0, # of connection points: 3
#     Node 8, Type 0, BuildingBlock: QEWDON_clean_linker_0, # of connection points: 3
#     Node 9, Type 0, BuildingBlock: QEWDON_clean_linker_0, # of connection points: 3
#     Node 10, Type 0, BuildingBlock: QEWDON_clean_linker_0, # of connection points: 3
#     Node 11, Type 0, BuildingBlock: QEWDON_clean_linker_0, # of connection points: 3
#     Node 12, Type 0, BuildingBlock: QEWDON_clean_linker_0, # of connection points: 3
#     Node 13, Type 0, BuildingBlock: QEWDON_clean_linker_0, # of connection points: 3
#     Node 14, Type 0, BuildingBlock: QEWDON_clean_linker_0, # of connection points: 3
#     Node 15, Type 0, BuildingBlock: QEWDON_clean_linker_0, # of connection points: 3
#     Node 16, Type 1, BuildingBlock: UXUYUI_clean_sbu_0, # of connection points: 4
#     Node 17, Type 1, BuildingBlock: UXUYUI_clean_sbu_0, # of connection points: 4
#     Node 18, Type 1, BuildingBlock: UXUYUI_clean_sbu_0, # of connection points: 4
#     Node 19, Type 1, BuildingBlock: UXUYUI_clean_sbu_0, # of connection points: 4
#     Node 20, Type 1, BuildingBlock: UXUYUI_clean_sbu_0, # of connection points: 4
#     Node 21, Type 1, BuildingBlock: UXUYUI_clean_sbu_0, # of connection points: 4
#     Node 22, Type 1, BuildingBlock: UXUYUI_clean_sbu_0, # of connection points: 4
#     Node 23, Type 1, BuildingBlock: UXUYUI_clean_sbu_0, # of connection points: 4
#     Node 24, Type 1, BuildingBlock: UXUYUI_clean_sbu_0, # of connection points: 4
#     Node 25, Type 1, BuildingBlock: UXUYUI_clean_sbu_0, # of connection points: 4
#     Node 26, Type 1, BuildingBlock: UXUYUI_clean_sbu_0, # of connection points: 4
#     Node 27, Type 1, BuildingBlock: UXUYUI_clean_sbu_0, # of connection points: 4
#     Edge 28, Type (0, 1), BuildingBlock: XUDNAN_clean_linker_2, # of connection points: 2
#     Edge 29, Type (0, 1), BuildingBlock: XUDNAN_clean_linker_2, # of connection points: 2
#     Edge 30, Type (0, 1), BuildingBlock: XUDNAN_clean_linker_2, # of connection points: 2
#     Edge 31, Type (0, 1), BuildingBlock: XUDNAN_clean_linker_2, # of connection points: 2
#     Edge 32, Type (0, 1), BuildingBlock: XUDNAN_clean_linker_2, # of connection points: 2
#     Edge 33, Type (0, 1), BuildingBlock: XUDNAN_clean_linker_2, # of connection points: 2
#     Edge 34, Type (0, 1), BuildingBlock: XUDNAN_clean_linker_2, # of connection points: 2
#     Edge 35, Type (0, 1), BuildingBlock: XUDNAN_clean_linker_2, # of connection points: 2
#     Edge 36, Type (0, 1), BuildingBlock: XUDNAN_clean_linker_2, # of connection points: 2
#     Edge 37, Type (0, 1), BuildingBlock: XUDNAN_clean_linker_2, # of connection points: 2
#     Edge 38, Type (0, 1), BuildingBlock: XUDNAN_clean_linker_2, # of connection points: 2
#     Edge 39, Type (0, 1), BuildingBlock: XUDNAN_clean_linker_2, # of connection points: 2
#     Edge 40, Type (0, 1), BuildingBlock: XUDNAN_clean_linker_2, # of connection points: 2
#     Edge 41, Type (0, 1), BuildingBlock: XUDNAN_clean_linker_2, # of connection points: 2
#     Edge 42, Type (0, 1), BuildingBlock: XUDNAN_clean_linker_2, # of connection points: 2
#     Edge 43, Type (0, 1), BuildingBlock: XUDNAN_clean_linker_2, # of connection points: 2
#     Edge 44, Type (0, 1), BuildingBlock: XUDNAN_clean_linker_2, # of connection points: 2
#     Edge 45, Type (0, 1), BuildingBlock: XUDNAN_clean_linker_2, # of connection points: 2
#     Edge 46, Type (0, 1), BuildingBlock: XUDNAN_clean_linker_2, # of connection points: 2
#     Edge 47, Type (0, 1), BuildingBlock: XUDNAN_clean_linker_2, # of connection points: 2
#     Edge 48, Type (0, 1), BuildingBlock: XUDNAN_clean_linker_2, # of connection points: 2
#     Edge 49, Type (0, 1), BuildingBlock: XUDNAN_clean_linker_2, # of connection points: 2
#     Edge 50, Type (0, 1), BuildingBlock: XUDNAN_clean_linker_2, # of connection points: 2
#     Edge 51, Type (0, 1), BuildingBlock: XUDNAN_clean_linker_2, # of connection points: 2
#     Edge 52, Type (0, 1), BuildingBlock: XUDNAN_clean_linker_2, # of connection points: 2
#     Edge 53, Type (0, 1), BuildingBlock: XUDNAN_clean_linker_2, # of connection points: 2
#     Edge 54, Type (0, 1), BuildingBlock: XUDNAN_clean_linker_2, # of connection points: 2
#     Edge 55, Type (0, 1), BuildingBlock: XUDNAN_clean_linker_2, # of connection points: 2
#     Edge 56, Type (0, 1), BuildingBlock: XUDNAN_clean_linker_2, # of connection points: 2
#     Edge 57, Type (0, 1), BuildingBlock: XUDNAN_clean_linker_2, # of connection points: 2
#     Edge 58, Type (0, 1), BuildingBlock: XUDNAN_clean_linker_2, # of connection points: 2
#     Edge 59, Type (0, 1), BuildingBlock: XUDNAN_clean_linker_2, # of connection points: 2
#     Edge 60, Type (0, 1), BuildingBlock: XUDNAN_clean_linker_2, # of connection points: 2
#     Edge 61, Type (0, 1), BuildingBlock: XUDNAN_clean_linker_2, # of connection points: 2
#     Edge 62, Type (0, 1), BuildingBlock: XUDNAN_clean_linker_2, # of connection points: 2
#     Edge 63, Type (0, 1), BuildingBlock: XUDNAN_clean_linker_2, # of connection points: 2
#     Edge 64, Type (0, 1), BuildingBlock: XUDNAN_clean_linker_2, # of connection points: 2
#     Edge 65, Type (0, 1), BuildingBlock: XUDNAN_clean_linker_2, # of connection points: 2
#     Edge 66, Type (0, 1), BuildingBlock: XUDNAN_clean_linker_2, # of connection points: 2
#     Edge 67, Type (0, 1), BuildingBlock: XUDNAN_clean_linker_2, # of connection points: 2
#     Edge 68, Type (0, 1), BuildingBlock: XUDNAN_clean_linker_2, # of connection points: 2
#     Edge 69, Type (0, 1), BuildingBlock: XUDNAN_clean_linker_2, # of connection points: 2
#     Edge 70, Type (0, 1), BuildingBlock: XUDNAN_clean_linker_2, # of connection points: 2
#     Edge 71, Type (0, 1), BuildingBlock: XUDNAN_clean_linker_2, # of connection points: 2
#     Edge 72, Type (0, 1), BuildingBlock: XUDNAN_clean_linker_2, # of connection points: 2
#     Edge 73, Type (0, 1), BuildingBlock: XUDNAN_clean_linker_2, # of connection points: 2
#     Edge 74, Type (0, 1), BuildingBlock: XUDNAN_clean_linker_2, # of connection points: 2
#     Edge 75, Type (0, 1), BuildingBlock: XUDNAN_clean_linker_2, # of connection points: 2
# Relax obj value: 0.115
# Max RMSD: 0.279
# Mean RMSD: 0.161
data_MOF--net-ctn--node1-UXUYUI_clean_sbu_0--node2-QEWDON_clean_linker_0--edge1-XUDNAN_clean_linker_2
_symmetry_space_group_name_H-M    P1
_symmetry_Int_Tables_number       1
_symmetry_cell_setting            triclinic
loop_
_symmetry_equiv_pos_as_xyz
'x, y, z'
_cell_length_a     65.191845
_cell_length_b     67.844528
_cell_length_c     72.218644
_cell_angle_alpha  97.81246
_cell_angle_beta   91.901243
_cell_angle_gamma 95.176602
loop_
_atom_site_label
_atom_site_type_symbol
_atom_site_fract_x
_atom_site_fract_y
_atom_site_fract_z
_atom_type_partial_charge
H0 H 0.09709 0.03984 0.05463 0.0
C1 C 0.08661 0.03648 0.06537 0.0
C2 C 0.08512 0.01737 0.07111 0.0
C3 C 0.07481 0.05138 0.07369 0.0
H4 H 0.07081 0.99893 0.09011 0.0
C5 C 0.07155 0.01338 0.08522 0.0
C6 C 0.05951 0.02802 0.09358 0.0
C7 C 0.06127 0.04695 0.08766 0.0
C8 C 0.07701 0.072 0.06869 0.0
H9 H 0.05185 0.05829 0.09378 0.0
C10 C 0.07508 0.07571 0.04996 0.0
C11 C 0.07524 0.09552 0.04593 0.0
C12 C 0.07999 0.08827 0.08312 0.0
H13 H 0.08174 0.08584 0.09759 0.0
C14 C 0.08063 0.10782 0.0791 0.0
H15 H 0.07258 0.06332 0.03871 0.0
C16 C 0.0781 0.11145 0.06068 0.0
H17 H 0.0785 0.12678 0.05792 0.0
H18 H 0.0829 0.12021 0.09034 0.0
H19 H 0.33906 0.74463 0.23812 0.0
C20 C 0.32801 0.73155 0.23509 0.0
C21 C 0.33261 0.71332 0.24065 0.0
C22 C 0.3092 0.73292 0.22552 0.0
H23 H 0.32143 0.68258 0.2414 0.0
C24 C 0.31798 0.69659 0.23694 0.0
C25 C 0.2988 0.69789 0.2279 0.0
C26 C 0.29469 0.71611 0.22196 0.0
C27 C 0.30377 0.75237 0.22079 0.0
H28 H 0.27986 0.71754 0.21529 0.0
C29 C 0.30504 0.75702 0.20241 0.0
C30 C 0.29896 0.77535 0.19803 0.0
C31 C 0.2966 0.76613 0.23477 0.0
H32 H 0.29551 0.76275 0.24896 0.0
C33 C 0.2905 0.78424 0.23049 0.0
H34 H 0.31055 0.74636 0.19159 0.0
C35 C 0.29159 0.78882 0.21226 0.0
H36 H 0.28702 0.8031 0.20935 0.0
H37 H 0.28493 0.79478 0.24135 0.0
H38 H 0.01647 0.47128 0.05378 0.0
C39 C 1.00666 0.48307 0.05212 0.0
C40 C 0.99967 0.49444 0.06803 0.0
C41 C 1.00244 0.48779 0.03417 0.0
H42 H 0.98214 0.5191 0.0779 0.0
C43 C 0.98753 0.51019 0.06574 0.0
C44 C 0.98285 0.51478 0.04774 0.0
C45 C 0.99054 0.50364 0.0321 0.0
C46 C 0.01192 0.47734 0.0177 0.0
H47 H 0.98728 0.50737 0.01824 0.0
C48 C 0.00958 0.45634 0.01354 0.0
C49 C 0.01893 0.44666 0.99794 0.0
C50 C 0.02372 0.48856 1.00617 0.0
H51 H 0.02584 0.50472 0.00917 0.0
C52 C 0.03318 0.47904 0.99086 0.0
H53 H 1.00044 0.4476 0.02234 0.0
C54 C 0.03085 0.45825 0.98675 0.0
H55 H 0.03801 0.45125 0.97455 0.0
H56 H 0.04228 0.48781 0.98209 0.0
H57 H 0.78417 0.8179 0.25357 0.0
C58 C 0.78148 0.8079 0.24048 0.0
C59 C 0.79219 0.81224 0.22484 0.0
C60 C 0.76838 0.79023 0.23982 0.0
H61 H 0.79897 0.80173 0.19648 0.0
C62 C 0.78966 0.79883 0.20815 0.0
C63 C 0.77651 0.78096 0.20709 0.0
C64 C 0.7655 0.77709 0.22296 0.0
C65 C 0.76051 0.78434 0.25753 0.0
H66 H 0.75558 0.76333 0.22258 0.0
C67 C 0.7394 0.77885 0.25963 0.0
C68 C 0.7325 0.77432 0.27705 0.0
C69 C 0.7746 0.78455 0.27274 0.0
H70 H 0.79092 0.78843 0.2714 0.0
C71 C 0.76789 0.77963 0.28977 0.0
H72 H 0.7284 0.77879 0.24803 0.0
C73 C 0.74702 0.77463 0.29197 0.0
H74 H 0.74224 0.77082 0.30537 0.0
H75 H 0.77891 0.77975 0.30134 0.0
H76 H 0.09308 0.96736 0.49478 0.0
C77 C 0.08277 0.96948 0.48328 0.0
C78 C 0.0853 0.98718 0.47501 0.0
C79 C 0.06811 0.95376 0.47579 0.0
H80 H 0.07465 1.00241 0.45265 0.0
C81 C 0.07257 0.98902 0.45927 0.0
C82 C 0.05778 0.9734 0.45158 0.0
C83 C 0.05552 0.95598 0.4602 0.0
C84 C 0.06819 0.93379 0.48198 0.0
H85 H 0.0443 0.94371 0.45449 0.0
C86 C 0.06318 0.93035 0.50023 0.0
C87 C 0.06317 0.91093 0.50536 0.0
C88 C 0.07332 0.9178 0.46906 0.0
H89 H 0.07728 0.92012 0.45501 0.0
C90 C 0.07352 0.89873 0.47409 0.0
H91 H 0.05916 0.94263 0.51024 0.0
C92 C 0.06844 0.89527 0.49203 0.0
H93 H 0.0682 0.88015 0.49532 0.0
H94 H 0.07745 0.88651 0.46398 0.0
H95 H 0.27421 0.68498 0.7882 0.0
C96 C 0.27216 0.697 0.79925 0.0
C97 C 0.28369 0.69833 0.81627 0.0
C98 C 0.25863 0.71136 0.79601 0.0
H99 H 0.28985 0.71542 0.84368 0.0
C100 C 0.28097 0.71411 0.83056 0.0
C101 C 0.26733 0.72855 0.82783 0.0
C102 C 0.25617 0.7269 0.81053 0.0
C103 C 0.24821 0.71074 0.77708 0.0
H104 H 0.24589 0.73807 0.80823 0.0
C105 C 0.22851 0.7176 0.77485 0.0
C106 C 0.21914 0.71709 0.75687 0.0
C107 C 0.25831 0.70366 0.76088 0.0
H108 H 0.27374 0.69905 0.76175 0.0
C109 C 0.24892 0.70284 0.74314 0.0
H110 H 0.22029 0.72308 0.78699 0.0
C111 C 0.22948 0.70944 0.74111 0.0
H112 H 0.22276 0.70909 0.72713 0.0
H113 H 0.25691 0.69734 0.73087 0.0
H114 H 0.98346 0.58564 0.46947 0.0
C115 C 0.97241 0.57521 0.47488 0.0
C116 C 0.96762 0.57838 0.49387 0.0
C117 C 0.9617 0.55955 0.46254 0.0
H118 H 0.94894 0.56745 0.51511 0.0
C119 C 0.95254 0.56523 0.50047 0.0
C120 C 0.94193 0.54935 0.48837 0.0
C121 C 0.9467 0.54657 0.46945 0.0
C122 C 0.96396 0.55824 0.44205 0.0
H123 H 0.93808 0.5348 0.45986 0.0
C124 C 0.98315 0.5561 0.43391 0.0
C125 C 0.98459 0.55431 0.41427 0.0
C126 C 0.94639 0.55904 0.43049 0.0
H127 H 0.93153 0.56085 0.43645 0.0
C128 C 0.94782 0.55778 0.41119 0.0
H129 H 0.99668 0.5552 0.44277 0.0
C130 C 0.96671 0.55545 0.40311 0.0
H131 H 0.96733 0.5547 0.38807 0.0
H132 H 0.93421 0.55861 0.40243 0.0
H133 H 0.83391 0.81209 0.79822 0.0
C134 C 0.83289 0.80383 0.81004 0.0
C135 C 0.84251 0.78597 0.80985 0.0
C136 C 0.82283 0.81174 0.82585 0.0
H137 H 0.84891 0.76233 0.82608 0.0
C138 C 0.84105 0.77567 0.82562 0.0
C139 C 0.83078 0.78335 0.84147 0.0
C140 C 0.82166 0.8013 0.84133 0.0
C141 C 0.81617 0.83223 0.82757 0.0
H142 H 0.814 0.80755 0.85358 0.0
C143 C 0.80128 0.83771 0.81507 0.0
C144 C 0.7947 0.85717 0.81781 0.0
C145 C 0.82481 0.84646 0.84237 0.0
H146 H 0.83638 0.84262 0.85204 0.0
C147 C 0.81877 0.86576 0.8448 0.0
H148 H 0.79439 0.82674 0.80375 0.0
C149 C 0.80384 0.8711 0.83268 0.0
H150 H 0.79953 0.88626 0.8349 0.0
H151 H 0.82565 0.87663 0.85618 0.0
H152 H 0.32862 0.31437 0.29837 0.0
C153 C 0.32629 0.30287 0.30735 0.0
C154 C 0.33536 0.28481 0.30326 0.0
C155 C 0.31453 0.30634 0.32323 0.0
H156 H 0.3401 0.25668 0.31268 0.0
C157 C 0.33241 0.27021 0.31533 0.0
C158 C 0.32026 0.27315 0.33107 0.0
C159 C 0.31139 0.29135 0.33481 0.0
C160 C 0.3066 0.32607 0.32864 0.0
H161 H 0.30182 0.29392 0.34672 0.0
C162 C 0.29467 0.33501 0.31601 0.0
C163 C 0.28683 0.35352 0.32178 0.0
C164 C 0.31097 0.33598 0.34691 0.0
H165 H 0.32025 0.32952 0.35681 0.0
C166 C 0.30368 0.35442 0.35253 0.0
H167 H 0.29098 0.32728 0.30199 0.0
C168 C 0.29173 0.36315 0.34013 0.0
H169 H 0.28648 0.37759 0.3449 0.0
H170 H 0.30731 0.36201 0.36659 0.0
H171 H 0.5114 0.98085 0.55566 0.0
C172 C 0.49711 0.98774 0.55471 0.0
C173 C 0.48962 0.99848 0.57076 0.0
C174 C 0.48703 0.98713 0.53711 0.0
H175 H 0.46519 0.0159 0.58127 0.0
C176 C 0.47127 0.00775 0.56902 0.0
C177 C 0.46109 1.00728 0.55148 0.0
C178 C 0.46919 0.99704 0.53559 0.0
C179 C 0.49591 0.9776 0.51995 0.0
H180 H 0.46154 0.99669 0.52197 0.0
C181 C 0.49754 0.95687 0.51683 0.0
C182 C 0.50474 0.94783 0.49979 0.0
C183 C 0.50196 0.98936 0.50616 0.0
H184 H 0.50079 1.00533 0.50831 0.0
C185 C 0.50949 0.98062 0.48949 0.0
H186 H 0.49283 0.94784 0.5275 0.0
C187 C 0.51076 0.96004 0.48623 0.0
H188 H 0.51593 0.95366 0.47283 0.0
H189 H 0.51403 0.98979 0.47889 0.0
H190 H 0.2868 0.3197 0.74795 0.0
C191 C 0.28331 0.3096 0.73503 0.0
C192 C 0.29233 0.31396 0.71849 0.0
C193 C 0.27079 0.29174 0.73543 0.0
H194 H 0.29609 0.30301 0.68949 0.0
C195 C 0.28861 0.30005 0.70212 0.0
C196 C 0.27613 0.28196 0.70219 0.0
C197 C 0.26684 0.27823 0.71891 0.0
C198 C 0.26433 0.28616 0.75368 0.0
H199 H 0.25733 0.26438 0.71938 0.0
C200 C 0.24352 0.28072 0.75699 0.0
C201 C 0.23789 0.27593 0.77469 0.0
C202 C 0.27946 0.28633 0.76803 0.0
H203 H 0.29557 0.29025 0.76575 0.0
C204 C 0.27404 0.28118 0.78535 0.0
H205 H 0.23178 0.28083 0.74603 0.0
C206 C 0.25347 0.27602 0.78869 0.0
H207 H 0.2498 0.27189 0.80226 0.0
H208 H 0.28585 0.28118 0.79625 0.0
H209 H 0.84564 0.2355 0.74341 0.0
C210 C 0.83406 0.22285 0.74052 0.0
C211 C 0.83747 0.20455 0.74669 0.0
C212 C 0.81569 0.22496 0.73056 0.0
H213 H 0.8241 0.17451 0.74811 0.0
C214 C 0.82194 0.18853 0.74304 0.0
C215 C 0.80346 0.19045 0.73316 0.0
C216 C 0.80059 0.20868 0.72671 0.0
C217 C 0.81124 0.24476 0.726 0.0
H218 H 0.78618 0.21057 0.71951 0.0
C219 C 0.81082 0.24892 0.70741 0.0
C220 C 0.80558 0.26765 0.70337 0.0
C221 C 0.80662 0.25944 0.74047 0.0
H222 H 0.80685 0.25646 0.75484 0.0
C223 C 0.80129 0.27792 0.7365 0.0
H224 H 0.81444 0.23764 0.69619 0.0
C225 C 0.80067 0.282 0.71807 0.0
H226 H 0.79673 0.29654 0.71534 0.0
H227 H 0.79763 0.28913 0.74773 0.0
H228 H 0.60528 0.54175 0.5585 0.0
C229 C 0.59356 0.54185 0.56881 0.0
C230 C 0.59214 0.52707 0.58076 0.0
C231 C 0.58117 0.5578 0.57121 0.0
H232 H 0.57746 0.51756 0.60481 0.0
C233 C 0.57801 0.52848 0.59516 0.0
C234 C 0.56555 0.54446 0.59785 0.0
C235 C 0.56694 0.55873 0.58537 0.0
C236 C 0.58629 0.57585 0.56226 0.0
H237 H 0.55772 0.57131 0.5872 0.0
C238 C 0.57668 0.57875 0.54519 0.0
C239 C 0.5807 0.5971 0.5382 0.0
C240 C 0.60015 0.5911 0.57195 0.0
H241 H 0.60757 0.58913 0.58514 0.0
C242 C 0.60426 0.60912 0.56495 0.0
H243 H 0.56585 0.5671 0.53769 0.0
C244 C 0.59452 0.61218 0.54826 0.0
H245 H 0.59793 0.62632 0.54307 0.0
H246 H 0.61492 0.62082 0.57257 0.0
H247 H 0.60408 0.46649 0.99245 0.0
C248 C 0.59406 0.47268 0.98292 0.0
C249 C 0.60034 0.49097 0.97657 0.0
C250 C 0.57537 0.46168 0.9762 0.0
H251 H 0.59194 0.51209 0.95844 0.0
C252 C 0.58706 0.49846 0.964 0.0
C253 C 0.56809 0.48787 0.95745 0.0
C254 C 0.56247 0.46941 0.96353 0.0
C255 C 0.57068 0.44086 0.98008 0.0
H256 H 0.54812 0.46085 0.95826 0.0
C257 C 0.56805 0.43617 0.99839 0.0
C258 C 0.56351 0.41606 1.00143 0.0
C259 C 0.56905 0.42538 0.96495 0.0
H260 H 0.57113 0.42863 0.95081 0.0
C261 C 0.56515 0.40557 0.96789 0.0
H262 H 0.56898 0.44815 0.01004 0.0
C263 C 0.5625 0.40091 0.9859 0.0
H264 H 0.55985 0.3853 0.98764 0.0
H265 H 0.56425 0.39373 0.95613 0.0
H266 H 0.77924 0.21103 0.28287 0.0
C267 C 0.77595 0.2162 0.29725 0.0
C268 C 0.78593 0.20859 0.31191 0.0
C269 C 0.7621 0.23076 0.30083 0.0
H270 H 0.78966 0.21025 0.3419 0.0
C271 C 0.7815 0.21552 0.33049 0.0
C272 C 0.76772 0.23031 0.33438 0.0
C273 C 0.75786 0.2376 0.31938 0.0
C274 C 0.75404 0.2403 0.28515 0.0
H275 H 0.74742 0.24911 0.32213 0.0
C276 C 0.73272 0.24047 0.28132 0.0
C277 C 0.72553 0.24897 0.26579 0.0
C278 C 0.7681 0.24901 0.2736 0.0
H279 H 0.78456 0.24913 0.27635 0.0
C280 C 0.76112 0.25766 0.25846 0.0
H281 H 0.72185 0.23377 0.29023 0.0
C282 C 0.74005 0.25756 0.25448 0.0
H283 H 0.73517 0.26382 0.24223 0.0
H284 H 0.7721 0.26424 0.2496 0.0
H285 H 0.49081 0.09846 0.98421 0.0
C286 C 0.48018 0.08528 0.98459 0.0
C287 C 0.47223 0.0813 1.00167 0.0
C288 C 0.47429 0.07256 0.96793 0.0
H289 H 0.45113 0.06193 0.01498 0.0
C290 C 0.45802 0.06449 1.00195 0.0
C291 C 0.45135 0.05201 0.98525 0.0
C292 C 0.46 0.0559 0.96834 0.0
C293 C 0.48098 0.07822 0.94984 0.0
H294 H 0.45487 0.04653 0.95534 0.0
C295 C 0.49319 0.06622 0.93813 0.0
C296 C 0.49936 0.07193 0.92087 0.0
C297 C 0.47485 0.09588 0.94424 0.0
H298 H 0.46543 0.10526 0.95306 0.0
C299 C 0.48046 0.10138 0.92709 0.0
H300 H 0.49824 0.05282 0.94272 0.0
C301 C 0.4925 0.08952 0.91545 0.0
H302 H 0.49624 0.0941 0.90209 0.0
H303 H 0.47539 0.11488 0.92276 0.0
Li304 Li 0.28958 0.8994 0.0159 0.0
Li305 Li 0.2762 0.87176 0.03171 0.0
Li306 Li 0.26965 0.87003 0.9989 0.0
Li307 Li 0.25188 0.89463 0.02149 0.0
C308 C 0.30591 0.85898 0.99895 0.0
N309 N 0.32221 0.83372 0.97106 0.0
C310 C 0.30127 0.83827 0.99754 0.0
C311 C 0.31873 0.8668 0.98604 0.0
C312 C 0.30968 0.82576 0.98337 0.0
C313 C 0.32687 0.85379 0.9721 0.0
C314 C 0.28786 0.9069 0.05566 0.0
C315 C 0.29311 0.92221 0.08782 0.0
N316 N 0.31303 0.91774 0.08763 0.0
C317 C 0.30835 0.90236 0.05582 0.0
C318 C 0.28013 0.91682 0.0718 0.0
C319 C 0.32085 0.90801 0.0721 0.0
C320 C 0.30554 0.93954 0.01562 0.0
N321 N 0.3112 0.92068 0.01528 0.0
C322 C 0.34619 0.93209 0.01036 0.0
C323 C 0.33126 0.9169 0.01355 0.0
C324 C 0.34033 0.95125 0.00892 0.0
C325 C 0.31984 0.95504 0.01212 0.0
H326 H 0.28966 0.94234 0.01768 0.0
H327 H 0.33558 0.90198 0.01411 0.0
C328 C 0.27255 0.86138 0.06864 0.0
N329 N 0.28198 0.85718 0.05224 0.0
C330 C 0.27662 0.85117 0.08375 0.0
C331 C 0.29989 0.83232 0.06479 0.0
C332 C 0.29565 0.84314 0.05021 0.0
C333 C 0.29045 0.83629 0.08198 0.0
H334 H 0.26192 0.87279 0.07005 0.0
H335 H 0.30338 0.84034 0.03728 0.0
C336 C 0.26881 0.91449 0.98812 0.0
N337 N 0.27578 0.94702 0.96911 0.0
C338 C 0.25532 0.92946 0.98959 0.0
C339 C 0.28581 0.91605 0.9769 0.0
C340 C 0.2591 0.94578 0.97987 0.0
C341 C 0.28909 0.93263 0.96745 0.0
C342 C 0.24001 0.85197 0.02912 0.0
C343 C 0.24506 0.83225 0.0278 0.0
C344 C 0.22635 0.85889 0.04249 0.0
C345 C 0.23647 0.81981 0.03999 0.0
C346 C 0.21804 0.84596 0.05439 0.0
N347 N 0.22325 0.82686 0.05293 0.0
C348 C 0.25538 0.83453 0.97308 0.0
C349 C 0.27471 0.86002 0.96003 0.0
C350 C 0.25388 0.82216 0.95577 0.0
N351 N 0.26582 0.85306 0.97492 0.0
C352 C 0.27365 0.84822 0.94257 0.0
C353 C 0.2631 0.82898 0.94018 0.0
H354 H 0.24836 0.82927 0.98507 0.0
H355 H 0.28305 0.87463 0.96175 0.0
C356 C 0.22885 0.92498 0.03922 0.0
N357 N 0.22772 0.90833 0.02628 0.0
C358 C 0.21141 0.93526 0.04283 0.0
C359 C 0.19206 0.91132 0.01941 0.0
C360 C 0.20984 0.90145 0.01634 0.0
C361 C 0.19259 0.92844 0.03292 0.0
H362 H 0.24333 0.9303 0.04676 0.0
H363 H 0.20943 0.8883 1.00596 0.0
O364 O 0.2974 0.87149 0.01249 0.0
O365 O 0.2752 0.90106 0.04002 0.0
O366 O 0.26538 0.8985 0.9977 0.0
O367 O 0.24868 0.86457 0.01766 0.0
H368 H 0.29086 0.8319 1.00694 0.0
H369 H 0.32206 0.88273 0.98646 0.0
H370 H 0.30609 0.80974 0.98207 0.0
H371 H 0.33675 0.85967 0.962 0.0
H372 H 0.28732 0.92987 0.10042 0.0
H373 H 0.3145 0.89436 0.04358 0.0
H374 H 0.26421 0.92016 0.07202 0.0
H375 H 0.33673 0.90459 0.07242 0.0
H376 H 0.3619 0.92865 0.00812 0.0
H377 H 0.31482 0.96973 0.01145 0.0
H378 H 0.26923 0.85519 0.09674 0.0
H379 H 0.31042 0.82087 0.06248 0.0
H380 H 0.24207 0.92853 0.99814 0.0
H381 H 0.29677 0.90497 0.97599 0.0
H382 H 0.2488 0.95748 0.98091 0.0
H383 H 0.30232 0.93414 0.95892 0.0
H384 H 0.25575 0.82669 0.01767 0.0
H385 H 0.22238 0.87414 0.04381 0.0
H386 H 0.24037 0.80456 0.03922 0.0
H387 H 0.20753 0.85114 0.06486 0.0
H388 H 0.24541 0.80753 0.95458 0.0
H389 H 0.28137 0.85404 0.93113 0.0
H390 H 0.21262 0.94821 0.05351 0.0
H391 H 0.17809 0.90566 0.01115 0.0
Li392 Li 0.13015 0.51319 0.27082 0.0
Li393 Li 0.15341 0.49069 0.25692 0.0
Li394 Li 0.15533 0.52782 0.25177 0.0
Li395 Li 0.12559 0.50275 0.23803 0.0
C396 C 0.16335 0.52031 0.29358 0.0
N397 N 0.16737 0.52989 0.33201 0.0
C398 C 0.15898 0.50558 0.30503 0.0
C399 C 0.16997 0.53986 0.30162 0.0
C400 C 0.16104 0.51075 0.32445 0.0
C401 C 0.17187 0.54441 0.3211 0.0
C402 C 0.11734 0.46584 0.25054 0.0
C403 C 0.1188 0.43884 0.22529 0.0
N404 N 0.10694 0.42655 0.23488 0.0
C405 C 0.10514 0.45292 0.26013 0.0
C406 C 0.12422 0.45872 0.23299 0.0
C407 C 0.10006 0.43312 0.25198 0.0
C408 C 0.11782 0.53876 0.3028 0.0
N409 N 0.11542 0.51992 0.29324 0.0
C410 C 0.09112 0.50961 0.31498 0.0
C411 C 0.10246 0.50541 0.29907 0.0
C412 C 0.09308 0.529 0.32505 0.0
C413 C 0.10677 0.54364 0.31878 0.0
H414 H 0.12819 0.55009 0.29791 0.0
H415 H 0.10086 0.49056 0.2913 0.0
C416 C 0.18932 0.47 0.25288 0.0
N417 N 0.17027 0.46949 0.26 0.0
C418 C 0.20239 0.4553 0.25572 0.0
C419 C 0.17601 0.43983 0.2732 0.0
C420 C 0.16347 0.45481 0.27003 0.0
C421 C 0.19587 0.43998 0.26612 0.0
H422 H 0.19451 0.48203 0.24523 0.0
H423 H 0.1484 0.4549 0.27583 0.0
C424 C 0.10908 0.5401 0.25695 0.0
N425 N 0.07595 0.55977 0.26985 0.0
C426 C 0.08955 0.52969 0.25672 0.0
C427 C 0.11176 0.56053 0.26362 0.0
C428 C 0.073 0.53989 0.26335 0.0
C429 C 0.09481 0.5702 0.2701 0.0
C430 C 0.16288 0.50024 0.21569 0.0
C431 C 0.16469 0.51626 0.20537 0.0
C432 C 0.16901 0.48175 0.20802 0.0
C433 C 0.17219 0.51342 0.1874 0.0
C434 C 0.17645 0.47951 0.19 0.0
N435 N 0.17786 0.49526 0.18015 0.0
C436 C 0.19346 0.55183 0.25194 0.0
C437 C 0.16465 0.56459 0.23852 0.0
C438 C 0.20655 0.56798 0.24774 0.0
N439 N 0.17297 0.55041 0.24718 0.0
C440 C 0.17715 0.5809 0.23398 0.0
C441 C 0.19845 0.58269 0.23845 0.0
H442 H 0.19965 0.54027 0.25877 0.0
H443 H 0.14831 0.56302 0.23482 0.0
C444 C 0.08887 0.48469 0.21664 0.0
N445 N 0.10626 0.4974 0.21664 0.0
C446 C 0.07467 0.48157 0.20132 0.0
C447 C 0.09607 0.5052 0.18649 0.0
C448 C 0.10983 0.50785 0.20209 0.0
C449 C 0.0782 0.49185 0.1859 0.0
H450 H 0.08577 0.47715 0.22864 0.0
H451 H 0.12323 0.5185 0.20269 0.0
O452 O 0.16105 0.51564 0.27458 0.0
O453 O 0.12273 0.48519 0.25855 0.0
O454 O 0.12552 0.53027 0.25089 0.0
O455 O 0.15591 0.50284 0.23347 0.0
H456 H 0.1538 0.4904 0.29898 0.0
H457 H 0.17341 0.5514 0.2929 0.0
H458 H 0.15755 0.49955 0.3335 0.0
H459 H 0.17685 0.5595 0.32754 0.0
H460 H 0.12399 0.4332 0.21168 0.0
H461 H 0.09975 0.45806 0.27378 0.0
H462 H 0.13338 0.46849 0.22526 0.0
H463 H 0.09068 0.42297 0.25928 0.0
H464 H 0.081 0.49775 0.3194 0.0
H465 H 0.10861 0.55885 0.3259 0.0
H466 H 0.21767 0.45629 0.25026 0.0
H467 H 0.17021 0.42826 0.28116 0.0
H468 H 0.08728 0.51383 0.25174 0.0
H469 H 0.12681 0.56877 0.26399 0.0
H470 H 0.05783 0.532 0.26337 0.0
H471 H 0.09666 0.58599 0.2754 0.0
H472 H 0.16016 0.53069 0.21108 0.0
H473 H 0.16811 0.46924 0.21588 0.0
H474 H 0.17352 0.52567 0.17923 0.0
H475 H 0.18117 0.46527 0.18388 0.0
H476 H 0.22288 0.56867 0.25131 0.0
H477 H 0.1702 0.59201 0.22705 0.0
H478 H 0.06089 0.47149 0.20172 0.0
H479 H 0.09951 0.51344 0.17496 0.0
Li480 Li 0.78324 0.63353 1.00396 0.0
Li481 Li 0.79654 0.66169 0.02621 0.0
Li482 Li 0.8021 0.66059 0.99138 0.0
Li483 Li 0.81957 0.63826 0.01089 0.0
C484 C 0.7558 0.66132 1.00117 0.0
N485 N 0.71396 0.66021 0.99315 0.0
C486 C 0.74174 0.65639 0.01438 0.0
C487 C 0.74862 0.66587 0.98394 0.0
C488 C 0.72063 0.65584 0.01003 0.0
C489 C 0.72739 0.6652 0.98014 0.0
C490 C 0.80692 0.63178 0.04551 0.0
C491 C 0.83289 0.64396 0.07 0.0
N492 N 0.82542 0.62961 0.08011 0.0
C493 C 0.79947 0.61721 0.05619 0.0
C494 C 0.82374 0.64532 0.05252 0.0
C495 C 0.80904 0.61634 0.07362 0.0
C496 C 0.76122 0.59754 0.00977 0.0
N497 N 0.76042 0.61271 0.99932 0.0
C498 C 0.7284 0.59739 0.98441 0.0
C499 C 0.74456 0.61271 0.98657 0.0
C500 C 0.72871 0.5817 0.99525 0.0
C501 C 0.74551 0.58188 0.00798 0.0
H502 H 0.77416 0.59756 0.01949 0.0
H503 H 0.74441 0.62449 0.97794 0.0
C504 C 0.80209 0.69591 0.05511 0.0
N505 N 0.79154 0.67777 0.0493 0.0
C506 C 0.79934 0.70606 0.07298 0.0
C507 C 0.77459 0.6789 0.07822 0.0
C508 C 0.77781 0.66933 0.06035 0.0
C509 C 0.7857 0.69736 0.08494 0.0
H510 H 0.81303 0.70224 0.0461 0.0
H511 H 0.76976 0.65481 0.05547 0.0
C512 C 0.79526 0.61817 0.97174 0.0
N513 N 0.77346 0.59093 0.94457 0.0
C514 C 0.79657 0.59769 0.97153 0.0
C515 C 0.78288 0.62479 0.95812 0.0
C516 C 0.78541 0.58416 0.9577 0.0
C517 C 0.77201 0.61079 0.94449 0.0
C518 C 0.84056 0.67622 1.00681 0.0
C519 C 0.84906 0.66606 0.99118 0.0
C520 C 0.8503 0.69452 0.01541 0.0
C521 C 0.86721 0.6744 0.98442 0.0
C522 C 0.86845 0.70235 0.00824 0.0
N523 N 0.87645 0.69222 0.99302 0.0
C524 C 0.79945 0.69588 0.97509 0.0
C525 C 0.81481 0.67085 0.95567 0.0
C526 C 0.80275 0.7092 0.96208 0.0
N527 N 0.80558 0.67716 0.97177 0.0
C528 C 0.81839 0.68371 0.94222 0.0
C529 C 0.81259 0.70331 0.94544 0.0
H530 H 0.79222 0.70056 0.98802 0.0
H531 H 0.81977 0.65596 0.95342 0.0
C532 C 0.84225 0.60478 0.01346 0.0
N533 N 0.84406 0.62511 0.01551 0.0
C534 C 0.85925 0.59445 0.01717 0.0
C535 C 0.8796 0.62614 0.02551 0.0
C536 C 0.8622 0.63583 0.02179 0.0
C537 C 0.87833 0.60515 0.02309 0.0
H538 H 0.82753 0.59656 0.00913 0.0
H539 H 0.86321 0.65194 0.02424 0.0
O540 O 0.77651 0.662 1.00514 0.0
O541 O 0.79753 0.63285 0.02845 0.0
O542 O 0.80568 0.63166 0.98541 0.0
O543 O 0.8226 0.66851 0.01351 0.0
H544 H 0.74705 0.65281 0.02775 0.0
H545 H 0.75932 0.66976 0.97358 0.0
H546 H 0.70956 0.6519 0.02007 0.0
H547 H 0.7216 0.6686 0.96684 0.0
H548 H 0.84592 0.65434 0.07555 0.0
H549 H 0.78635 0.60671 0.05116 0.0
H550 H 0.82968 0.65685 0.04465 0.0
H551 H 0.80342 0.60512 0.08202 0.0
H552 H 0.71597 0.59767 0.97415 0.0
H553 H 0.74641 0.57016 0.01668 0.0
H554 H 0.80835 0.72017 0.07761 0.0
H555 H 0.76368 0.67175 0.08679 0.0
H556 H 0.80596 0.59227 0.982 0.0
H557 H 0.78138 0.64055 0.95825 0.0
H558 H 0.78621 0.56826 0.95742 0.0
H559 H 0.76229 0.61571 0.93392 0.0
H560 H 0.84179 0.65187 0.98435 0.0
H561 H 0.84392 0.7026 0.02749 0.0
H562 H 0.87395 0.6667 0.97234 0.0
H563 H 0.87616 0.7165 0.01476 0.0
H564 H 0.79773 0.72404 0.96509 0.0
H565 H 0.82621 0.67856 0.92973 0.0
H566 H 0.85754 0.57827 0.01514 0.0
H567 H 0.89385 0.63501 0.03048 0.0
Li568 Li 0.91287 0.04192 0.28111 0.0
Li569 Li 0.93712 0.02047 0.29194 0.0
Li570 Li 0.93691 0.02498 0.25853 0.0
Li571 Li 0.90907 1.00496 0.27158 0.0
C572 C 0.95803 0.05495 0.2942 0.0
N573 N 0.9872 0.07169 0.32185 0.0
C574 C 0.95234 0.06767 0.30968 0.0
C575 C 0.97853 0.05064 0.29286 0.0
C576 C 0.96733 0.07604 0.32347 0.0
C577 C 0.99306 0.05926 0.30698 0.0
C578 C 0.90577 0.02136 0.3157 0.0
C579 C 0.90664 1.00582 0.34382 0.0
N580 N 0.90302 0.02343 0.35403 0.0
C581 C 0.90205 0.03931 0.32648 0.0
C582 C 0.90806 1.00446 0.32444 0.0
C583 C 0.9007 0.04004 0.34583 0.0
C584 C 0.87762 0.06353 0.28872 0.0
N585 N 0.89814 0.06533 0.28563 0.0
C586 C 0.89818 0.10078 0.28723 0.0
C587 C 0.90847 0.08348 0.28483 0.0
C588 C 0.8769 0.09947 0.29024 0.0
C589 C 0.86667 0.08048 0.29115 0.0
H590 H 0.86971 0.04887 0.28908 0.0
H591 H 0.92471 0.08452 0.2821 0.0
C592 C 0.96959 1.00266 0.3078 0.0
N593 N 0.95564 0.01603 0.31241 0.0
C594 C 0.98222 0.99672 0.3216 0.0
C595 C 0.96694 0.01928 0.34474 0.0
C596 C 0.95476 0.02499 0.3304 0.0
C597 C 0.98054 1.00451 0.34051 0.0
H598 H 0.97069 0.99627 0.29337 0.0
H599 H 0.94421 0.03617 0.33379 0.0
C600 C 0.90115 0.03866 0.24323 0.0
N601 N 0.89021 0.0644 0.21888 0.0
C602 C 0.88263 0.03457 0.23254 0.0
C603 C 0.91413 0.05582 0.24154 0.0
C604 C 0.87737 0.04777 0.22029 0.0
C605 C 0.90832 0.06865 0.22916 0.0
C606 C 0.93726 0.98012 0.2652 0.0
C607 C 0.93794 0.9716 0.24652 0.0
C608 C 0.93443 0.96775 0.27907 0.0
C609 C 0.93547 0.95081 0.24198 0.0
C610 C 0.93201 0.94703 0.27396 0.0
N611 N 0.93255 0.93906 0.25568 0.0
C612 C 0.97148 0.03451 0.23612 0.0
C613 C 0.94175 0.01696 0.21988 0.0
C614 C 0.9822 0.03334 0.21955 0.0
N615 N 0.95173 0.02608 0.23603 0.0
C616 C 0.95182 0.01547 0.20305 0.0
C617 C 0.97249 0.02338 0.20274 0.0
H618 H 0.9791 0.04178 0.24908 0.0
H619 H 0.92603 0.01039 0.22015 0.0
C620 C 0.88404 0.97062 0.27861 0.0
N621 N 0.89048 0.98129 0.26491 0.0
C622 C 0.87418 0.95137 0.27403 0.0
C623 C 0.87608 0.955 0.24128 0.0
C624 C 0.88625 0.97413 0.24651 0.0
C625 C 0.87056 0.94317 0.25517 0.0
H626 H 0.88753 0.97662 0.29308 0.0
H627 H 0.89174 0.98286 0.23588 0.0
O628 O 0.94347 0.04628 0.28075 0.0
O629 O 0.90681 0.0203 0.29669 0.0
O630 O 0.90639 0.02596 0.2554 0.0
O631 O 0.93892 1.00046 0.26985 0.0
H632 H 0.93647 0.07082 0.31119 0.0
H633 H 0.98312 0.04043 0.28125 0.0
H634 H 0.96312 0.08587 0.33554 0.0
H635 H 0.00896 0.05597 0.30616 0.0
H636 H 0.90853 0.9929 0.35077 0.0
H637 H 0.90033 0.05257 0.32004 0.0
H638 H 0.91133 0.99054 0.31644 0.0
H639 H 0.89788 0.05385 0.35433 0.0
H640 H 0.90684 0.11505 0.28665 0.0
H641 H 0.85026 0.07865 0.29318 0.0
H642 H 0.99301 0.98588 0.31746 0.0
H643 H 0.9651 0.02585 0.35903 0.0
H644 H 0.87242 0.02134 0.23372 0.0
H645 H 0.92852 0.05924 0.24973 0.0
H646 H 0.86307 0.0448 0.21193 0.0
H647 H 0.91819 0.082 0.22773 0.0
H648 H 0.94012 0.98092 0.23561 0.0
H649 H 0.93378 0.97408 0.29358 0.0
H650 H 0.93581 0.94402 0.22756 0.0
H651 H 0.9296 0.93729 0.28453 0.0
H652 H 0.99813 0.03957 0.22005 0.0
H653 H 0.94352 0.00802 0.19042 0.0
H654 H 0.87001 0.94269 0.28511 0.0
H655 H 0.87365 0.94908 0.2266 0.0
Li656 Li 0.28405 0.16122 0.52038 0.0
Li657 Li 0.26539 0.13293 0.49829 0.0
Li658 Li 0.30326 0.13358 0.50506 0.0
Li659 Li 0.28939 0.15621 0.48496 0.0
C660 C 0.28343 0.12147 0.5363 0.0
N661 N 0.2907 0.0983 0.56402 0.0
C662 C 0.27237 0.10278 0.53593 0.0
C663 C 0.29805 0.12846 0.55083 0.0
C664 C 0.2763 0.09126 0.55005 0.0
C665 C 0.30154 0.1165 0.5647 0.0
C666 C 0.24352 0.16346 0.49544 0.0
C667 C 0.2134 0.15785 0.47443 0.0
N668 N 0.20164 0.16419 0.48887 0.0
C669 C 0.23118 0.17006 0.51004 0.0
C670 C 0.23463 0.15743 0.47746 0.0
C671 C 0.21002 0.17027 0.50644 0.0
C672 C 0.29227 0.19602 0.54874 0.0
N673 N 0.28114 0.17807 0.54343 0.0
C674 C 0.26564 0.17986 0.57306 0.0
C675 C 0.26772 0.17012 0.55503 0.0
C676 C 0.27748 0.19802 0.57931 0.0
C677 C 0.29063 0.20635 0.56675 0.0
H678 H 0.30286 0.20202 0.53923 0.0
H679 H 0.25893 0.15591 0.55039 0.0
C680 C 0.23632 0.10054 0.4816 0.0
N681 N 0.2401 0.11587 0.49585 0.0
C682 C 0.2186 0.08713 0.4812 0.0
C683 C 0.20884 0.10586 0.5099 0.0
C684 C 0.22678 0.11874 0.50983 0.0
C685 C 0.20465 0.08953 0.49563 0.0
H686 H 0.24735 0.09836 0.47083 0.0
H687 H 0.23036 0.13081 0.5212 0.0
C688 C 0.33001 0.17009 0.51193 0.0
N689 N 0.37033 0.18413 0.52276 0.0
C690 C 0.34415 0.17421 0.49851 0.0
C691 C 0.33634 0.17327 0.53087 0.0
C692 C 0.36447 0.18126 0.50426 0.0
C693 C 0.3568 0.18033 0.53606 0.0
C694 C 0.29224 0.12055 0.46291 0.0
C695 C 0.31164 0.11414 0.45912 0.0
C696 C 0.27798 0.12118 0.44817 0.0
C697 C 0.31656 0.10872 0.44056 0.0
C698 C 0.28352 0.11568 0.4298 0.0
N699 N 0.30253 0.10963 0.4264 0.0
C700 C 0.31683 0.09696 0.51121 0.0
C701 C 0.34462 0.12222 0.51295 0.0
C702 C 0.32996 0.08342 0.5167 0.0
N703 N 0.32414 0.11615 0.51001 0.0
C704 C 0.35839 0.10905 0.51819 0.0
C705 C 0.351 0.0895 0.52055 0.0
H706 H 0.30063 0.09226 0.50825 0.0
H707 H 0.35038 0.13728 0.51154 0.0
C708 C 0.28212 0.18443 0.45996 0.0
N709 N 0.2944 0.17005 0.46353 0.0
C710 C 0.28498 0.19423 0.44422 0.0
C711 C 0.3131 0.17434 0.43612 0.0
C712 C 0.30995 0.16521 0.45216 0.0
C713 C 0.30046 0.18899 0.43191 0.0
H714 H 0.26997 0.18819 0.46926 0.0
H715 H 0.31988 0.15415 0.45544 0.0
O716 O 0.28 0.13281 0.52243 0.0
O717 O 0.26418 0.16276 0.49876 0.0
O718 O 0.31004 0.16326 0.50655 0.0
O719 O 0.28718 0.12599 0.48098 0.0
H720 H 0.26103 0.09713 0.52474 0.0
H721 H 0.30665 0.14291 0.55137 0.0
H722 H 0.26795 0.07672 0.5499 0.0
H723 H 0.31287 0.12168 0.57599 0.0
H724 H 0.20629 0.15312 0.46061 0.0
H725 H 0.23786 0.17482 0.52403 0.0
H726 H 0.24401 0.1524 0.46601 0.0
H727 H 0.20025 0.17523 0.51763 0.0
H728 H 0.25503 0.17306 0.58212 0.0
H729 H 0.30012 0.22027 0.57102 0.0
H730 H 0.21627 0.07465 0.47005 0.0
H731 H 0.19847 0.10859 0.52117 0.0
H732 H 0.3395 0.17194 0.48381 0.0
H733 H 0.3256 0.1703 0.54146 0.0
H734 H 0.37559 0.18444 0.49401 0.0
H735 H 0.36191 0.1828 0.55066 0.0
H736 H 0.32283 0.11351 0.47039 0.0
H737 H 0.26286 0.12597 0.45089 0.0
H738 H 0.33156 0.10383 0.4374 0.0
H739 H 0.27269 0.11622 0.41824 0.0
H740 H 0.32369 0.06836 0.51801 0.0
H741 H 0.37452 0.11432 0.52097 0.0
H742 H 0.27487 0.20541 0.44145 0.0
H743 H 0.3254 0.17005 0.42713 0.0
Li744 Li 0.44514 0.52083 0.79456 0.0
Li745 Li 0.4179 0.53883 0.78191 0.0
Li746 Li 0.4181 0.50212 0.7712 0.0
Li747 Li 0.44298 0.52651 0.76137 0.0
C748 C 0.40964 0.50323 0.80927 0.0
N749 N 0.39951 0.47645 0.83385 0.0
C750 C 0.39366 0.50643 0.82141 0.0
C751 C 0.42052 0.48644 0.80965 0.0
C752 C 0.38875 0.49271 0.83373 0.0
C753 C 0.41515 0.47307 0.82217 0.0
C754 C 0.4493 0.56659 0.7892 0.0
C755 C 0.44442 0.59949 0.78174 0.0
N756 N 0.44974 0.60734 0.79978 0.0
C757 C 0.45497 0.57501 0.80761 0.0
C758 C 0.44422 0.57895 0.7761 0.0
C759 C 0.45501 0.59563 0.81271 0.0
C760 C 0.47691 0.50678 0.81667 0.0
N761 N 0.46124 0.51875 0.81688 0.0
C762 C 0.46672 0.52831 0.84994 0.0
C763 C 0.4558 0.52915 0.83312 0.0
C764 C 0.48333 0.51646 0.85015 0.0
C765 C 0.48824 0.50545 0.8332 0.0
H766 H 0.48062 0.49819 0.80371 0.0
H767 H 0.44289 0.53811 0.83301 0.0
C768 C 0.38782 0.5662 0.77649 0.0
N769 N 0.40071 0.55993 0.78922 0.0
C770 C 0.37608 0.58216 0.7818 0.0
C771 C 0.39088 0.58475 0.81325 0.0
C772 C 0.40215 0.56863 0.80738 0.0
C773 C 0.37771 0.59183 0.80036 0.0
H774 H 0.38677 0.55893 0.76218 0.0
H775 H 0.41231 0.56319 0.81728 0.0
C776 C 0.46507 0.49623 0.76199 0.0
N777 N 0.49878 0.48725 0.74135 0.0
C778 C 0.4842 0.50719 0.76648 0.0
C779 C 0.46307 0.48071 0.747 0.0
C780 C 0.50106 0.50243 0.75587 0.0
C781 C 0.48031 0.47639 0.73675 0.0
C782 C 0.40963 0.52435 0.73776 0.0
C783 C 0.40467 0.50666 0.72545 0.0
C784 C 0.41151 0.54262 0.73077 0.0
C785 C 0.40197 0.50754 0.70632 0.0
C786 C 0.40874 0.54287 0.71154 0.0
N787 N 0.40407 0.52547 0.69981 0.0
C788 C 0.38171 0.47625 0.75926 0.0
C789 C 0.41186 0.46016 0.76396 0.0
C790 C 0.37058 0.45788 0.75262 0.0
N791 N 0.40206 0.47705 0.76442 0.0
C792 C 0.40139 0.44154 0.75739 0.0
C793 C 0.38056 0.44024 0.75127 0.0
H794 H 0.3743 0.48994 0.75975 0.0
H795 H 0.42797 0.46118 0.76841 0.0
C796 C 0.47391 0.54773 0.74254 0.0
N797 N 0.45947 0.53173 0.74033 0.0
C798 C 0.48613 0.55188 0.72773 0.0
C799 C 0.46865 0.52292 0.7086 0.0
C800 C 0.45696 0.5192 0.72385 0.0
C801 C 0.48346 0.53954 0.71032 0.0
H802 H 0.47609 0.55719 0.75589 0.0
H803 H 0.44592 0.50619 0.7225 0.0
O804 O 0.41466 0.51662 0.79721 0.0
O805 O 0.44867 0.54637 0.78404 0.0
O806 O 0.44829 0.50105 0.77192 0.0
O807 O 0.4123 0.52378 0.75656 0.0
H808 H 0.38515 0.51941 0.8213 0.0
H809 H 0.43302 0.48379 0.80044 0.0
H810 H 0.37641 0.49498 0.84321 0.0
H811 H 0.42344 0.46001 0.82263 0.0
H812 H 0.44035 0.6092 0.77177 0.0
H813 H 0.45922 0.56574 0.81788 0.0
H814 H 0.44008 0.57272 0.76176 0.0
H815 H 0.45923 0.60232 0.82694 0.0
H816 H 0.46205 0.53671 0.86269 0.0
H817 H 0.50093 0.49615 0.83265 0.0
H818 H 0.36623 0.58718 0.77138 0.0
H819 H 0.3924 0.59156 0.82774 0.0
H820 H 0.48593 0.51947 0.77785 0.0
H821 H 0.44831 0.47229 0.74311 0.0
H822 H 0.51592 0.51086 0.75911 0.0
H823 H 0.47897 0.46448 0.72506 0.0
H824 H 0.40326 0.49236 0.73054 0.0
H825 H 0.41511 0.55647 0.74005 0.0
H826 H 0.39829 0.49395 0.69663 0.0
H827 H 0.41027 0.5569 0.70594 0.0
H828 H 0.35457 0.45757 0.74798 0.0
H829 H 0.40958 0.4283 0.75697 0.0
H830 H 0.4977 0.56456 0.73001 0.0
H831 H 0.46584 0.51298 0.69554 0.0
Li832 Li 0.78534 0.39379 0.52449 0.0
Li833 Li 0.77237 0.36903 0.54221 0.0
Li834 Li 0.76427 0.36447 0.50828 0.0
Li835 Li 0.74846 0.39161 0.5318 0.0
C836 C 0.81091 0.3659 0.51577 0.0
N837 N 0.85086 0.36726 0.50404 0.0
C838 C 0.82753 0.36976 0.52888 0.0
C839 C 0.8146 0.36249 0.49669 0.0
C840 C 0.84761 0.37046 0.52267 0.0
C841 C 0.83491 0.36329 0.49104 0.0
C842 C 0.77828 0.40166 0.56765 0.0
C843 C 0.76939 0.40937 0.59982 0.0
N844 N 0.78926 0.40795 0.60543 0.0
C845 C 0.79863 0.40041 0.57374 0.0
C846 C 0.76353 0.40626 0.58079 0.0
C847 C 0.80387 0.40358 0.5929 0.0
C848 C 0.81133 0.4291 0.53599 0.0
N849 N 0.80753 0.41395 0.52157 0.0
C850 C 0.83208 0.43025 0.50327 0.0
C851 C 0.81775 0.41418 0.50545 0.0
C852 C 0.83604 0.44627 0.51786 0.0
C853 C 0.82569 0.44528 0.53452 0.0
H854 H 0.8028 0.42895 0.54852 0.0
H855 H 0.81422 0.4023 0.49394 0.0
C856 C 0.79201 0.33947 0.55832 0.0
N857 N 0.77845 0.35345 0.56196 0.0
C858 C 0.79715 0.32761 0.57186 0.0
C859 C 0.7743 0.34469 0.59274 0.0
C860 C 0.76929 0.3559 0.57865 0.0
C861 C 0.78848 0.33026 0.58953 0.0
H862 H 0.79874 0.33739 0.5448 0.0
H863 H 0.75802 0.36654 0.58111 0.0
C864 C 0.76661 0.40786 0.49624 0.0
N865 N 0.77948 0.43776 0.47563 0.0
C866 C 0.76578 0.4279 0.50361 0.0
C867 C 0.77382 0.403 0.47834 0.0
C868 C 0.77244 0.4428 0.493 0.0
C869 C 0.78028 0.41834 0.46814 0.0
C870 C 0.73592 0.34843 0.53982 0.0
C871 C 0.7403 0.32849 0.53681 0.0
C872 C 0.72326 0.35482 0.55423 0.0
C873 C 0.73207 0.31526 0.54848 0.0
C874 C 0.71528 0.34111 0.56556 0.0
N875 N 0.71984 0.32179 0.56249 0.0
C876 C 0.76922 0.32757 0.48782 0.0
C877 C 0.74999 0.34744 0.4705 0.0
C878 C 0.76828 0.31241 0.47258 0.0
N879 N 0.76026 0.34469 0.48652 0.0
C880 C 0.74867 0.33259 0.45484 0.0
C881 C 0.75796 0.31476 0.45573 0.0
H882 H 0.77746 0.32587 0.50066 0.0
H883 H 0.74298 0.3612 0.46982 0.0
C884 C 0.73156 0.42575 0.54774 0.0
N885 N 0.72601 0.4075 0.53769 0.0
C886 C 0.71661 0.43819 0.55409 0.0
C887 C 0.69033 0.41348 0.53864 0.0
C888 C 0.70587 0.40127 0.53283 0.0
C889 C 0.6957 0.43203 0.54973 0.0
H890 H 0.74768 0.43047 0.55121 0.0
H891 H 0.70184 0.38671 0.52477 0.0
O892 O 0.79115 0.36522 0.52159 0.0
O893 O 0.77288 0.39859 0.54892 0.0
O894 O 0.76057 0.39309 0.50656 0.0
O895 O 0.74424 0.36173 0.52887 0.0
H896 H 0.82495 0.37211 0.54369 0.0
H897 H 0.80193 0.3596 0.48633 0.0
H898 H 0.86062 0.37352 0.53266 0.0
H899 H 0.83799 0.36084 0.47632 0.0
H900 H 0.75811 0.41279 0.61014 0.0
H901 H 0.81026 0.39703 0.56377 0.0
H902 H 0.74764 0.40703 0.57639 0.0
H903 H 0.81955 0.40258 0.59779 0.0
H904 H 0.83938 0.43042 0.49004 0.0
H905 H 0.82841 0.45704 0.54631 0.0
H906 H 0.80768 0.31637 0.56836 0.0
H907 H 0.76727 0.3476 0.60607 0.0
H908 H 0.76033 0.43189 0.51748 0.0
H909 H 0.7747 0.38756 0.4725 0.0
H910 H 0.77204 0.45838 0.49858 0.0
H911 H 0.78601 0.41482 0.45432 0.0
H912 H 0.75015 0.32336 0.52575 0.0
H913 H 0.71983 0.37024 0.55678 0.0
H914 H 0.73544 0.29981 0.54642 0.0
H915 H 0.70554 0.34585 0.57684 0.0
H916 H 0.77601 0.29917 0.4739 0.0
H917 H 0.74038 0.33501 0.44224 0.0
H918 H 0.72134 0.45246 0.56249 0.0
H919 H 0.67432 0.40824 0.53506 0.0
Li920 Li 0.65155 0.98407 0.75334 0.0
Li921 Li 0.62841 1.0068 0.76945 0.0
Li922 Li 0.62657 0.99858 0.73415 0.0
Li923 Li 0.65544 0.0212 0.75005 0.0
C924 C 0.61486 0.96075 0.75317 0.0
N925 N 0.60369 0.92043 0.75284 0.0
C926 C 0.60709 0.95374 0.76912 0.0
C927 C 0.61666 0.9473 0.73698 0.0
C928 C 0.6016 0.93328 0.7687 0.0
C929 C 0.61102 0.92697 0.73711 0.0
C930 C 0.66607 0.01276 0.791 0.0
C931 C 0.67966 0.03729 0.81687 0.0
N932 N 0.68055 0.02256 0.82783 0.0
C933 C 0.66744 0.99785 0.80244 0.0
C934 C 0.67251 0.03262 0.7982 0.0
C935 C 0.67466 1.00311 0.82104 0.0
C936 C 0.68415 0.9595 0.74581 0.0
N937 N 0.66711 0.96168 0.75599 0.0
C938 C 0.67448 0.93426 0.772 0.0
C939 C 0.66205 0.94932 0.76881 0.0
C940 C 0.69241 0.93187 0.76195 0.0
C941 C 0.697 0.94458 0.7485 0.0
H942 H 0.6881 0.96973 0.73595 0.0
H943 H 0.64871 0.95152 0.77704 0.0
C944 C 0.59779 0.025 0.79143 0.0
N945 N 0.61229 0.01176 0.7913 0.0
C946 C 0.58587 0.02891 0.807 0.0
C947 C 0.6031 1.0047 0.82176 0.0
C948 C 0.61491 1.00147 0.80599 0.0
C949 C 0.58846 0.01873 0.82245 0.0
H950 H 0.59519 0.03238 0.77936 0.0
H951 H 0.62594 0.99047 0.80537 0.0
C952 C 0.65874 0.99231 0.71198 0.0
N953 N 0.66238 0.98205 0.67396 0.0
C954 C 0.66284 1.00716 0.70061 0.0
C955 C 0.65687 0.97222 0.70407 0.0
C956 C 0.6645 1.00168 0.6814 0.0
C957 C 0.65867 0.96734 0.6848 0.0
C958 C 0.62215 0.04456 0.754 0.0
C959 C 0.61047 0.05353 0.74148 0.0
C960 C 0.63033 0.05585 0.77066 0.0
C961 C 0.60742 0.07373 0.74575 0.0
C962 C 0.62693 0.076 0.77443 0.0
N963 N 0.61566 0.08447 0.76199 0.0
C964 C 0.59334 0.98168 0.70701 0.0
C965 C 0.61215 0.01194 0.70215 0.0
C966 C 0.57987 0.98268 0.69166 0.0
N967 N 0.60896 0.99636 0.71202 0.0
C968 C 0.59908 0.01359 0.68689 0.0
C969 C 0.58241 0.99908 0.68168 0.0
H970 H 0.59086 0.9696 0.71526 0.0
H971 H 0.62449 0.02354 0.70658 0.0
C972 C 0.69342 0.04654 0.75445 0.0
N973 N 0.67395 0.04381 0.74657 0.0
C974 C 0.70705 0.06262 0.7509 0.0
C975 C 0.68032 0.07273 0.73125 0.0
C976 C 0.6673 0.05646 0.73509 0.0
C977 C 0.70059 0.07593 0.73904 0.0
H978 H 0.69847 0.03604 0.76324 0.0
H979 H 0.65197 0.05371 0.72859 0.0
O980 O 0.62051 0.98069 0.75339 0.0
O981 O 0.6592 0.00785 0.77268 0.0
O982 O 0.65685 0.9974 0.7308 0.0
O983 O 0.62558 0.02485 0.74993 0.0
H984 H 0.60541 0.96395 0.78171 0.0
H985 H 0.62228 0.95253 0.72444 0.0
H986 H 0.59568 0.92763 0.78097 0.0
H987 H 0.61242 0.91639 0.72469 0.0
H988 H 0.6846 0.05261 0.82263 0.0
H989 H 0.66277 0.9824 0.79709 0.0
H990 H 0.67219 0.04433 0.78946 0.0
H991 H 0.67559 0.99172 0.83009 0.0
H992 H 0.67023 0.92474 0.78241 0.0
H993 H 0.71081 0.94354 0.74063 0.0
H994 H 0.5744 0.03949 0.80676 0.0
H995 H 0.60549 0.99644 0.83334 0.0
H996 H 0.66455 0.02277 0.70652 0.0
H997 H 0.65422 0.96051 0.71271 0.0
H998 H 0.66749 0.01304 0.67241 0.0
H999 H 0.65717 0.95185 0.67849 0.0
H1000 H 0.6038 0.045 0.72862 0.0
H1001 H 0.63896 0.04903 0.78065 0.0
H1002 H 0.59848 0.08088 0.73615 0.0
H1003 H 0.63319 0.08489 0.78728 0.0
H1004 H 0.5671 0.97127 0.68819 0.0
H1005 H 0.60175 0.02637 0.67947 0.0
H1006 H 0.72261 0.06429 0.757 0.0
H1007 H 0.67453 0.08266 0.72221 0.0
Li1008 Li 0.0539 0.23272 0.87404 0.0
Li1009 Li 0.03285 0.24852 0.89984 0.0
Li1010 Li 0.03858 0.21281 0.89821 0.0
Li1011 Li 0.01651 0.2243 0.87556 0.0
C1012 C 0.07173 0.23331 0.91637 0.0
N1013 N 0.09478 0.22409 0.94625 0.0
C1014 C 0.069 0.24263 0.93448 0.0
C1015 C 0.08624 0.21937 0.91343 0.0
C1016 C 0.08081 0.23776 0.94941 0.0
C1017 C 0.09771 0.21488 0.92874 0.0
C1018 C 0.02965 0.26977 0.87146 0.0
C1019 C 0.00995 0.29837 0.87499 0.0
N1020 N 0.02665 0.30997 0.87047 0.0
C1021 C 0.04659 0.28194 0.86677 0.0
C1022 C 0.01114 0.278 0.87552 0.0
C1023 C 0.04477 0.30225 0.86636 0.0
C1024 C 0.07139 0.23945 0.84 0.0
N1025 N 0.0761 0.23712 0.85802 0.0
C1026 C 0.11216 0.24163 0.85282 0.0
C1027 C 0.096 0.23824 0.8646 0.0
C1028 C 0.10779 0.24394 0.83406 0.0
C1029 C 0.08705 0.24282 0.82772 0.0
H1030 H 0.05542 0.23893 0.83524 0.0
H1031 H 0.09935 0.23656 0.87903 0.0
C1032 C 0.01442 0.27253 0.9285 0.0
N1033 N 0.02989 0.27261 0.91635 0.0
C1034 C 0.01079 0.29005 0.93998 0.0
C1035 C 0.03929 0.30741 0.92645 0.0
C1036 C 0.04262 0.28944 0.91551 0.0
C1037 C 0.02302 0.30799 0.93882 0.0
H1038 H 1.00477 0.25886 0.9292 0.0
H1039 H 0.05508 0.28904 0.906 0.0
C1040 C 0.02895 0.19098 0.85777 0.0
N1041 N 0.00834 0.16207 0.83132 0.0
C1042 C 0.01897 0.17371 0.86321 0.0
C1043 C 0.02853 0.1935 0.83888 0.0
C1044 C 0.00865 0.15926 0.84962 0.0
C1045 C 0.01797 0.17874 0.82573 0.0
C1046 C 0.99295 0.21849 0.90394 0.0
C1047 C 0.98799 0.19888 0.90737 0.0
C1048 C 0.97723 0.23074 0.90151 0.0
C1049 C 0.96729 0.19176 0.9081 0.0
C1050 C 0.95672 0.22304 0.9023 0.0
N1051 N 0.95221 0.20388 0.90554 0.0
C1052 C 0.04014 0.19687 0.93221 0.0
C1053 C 0.05138 0.17538 0.90674 0.0
C1054 C 0.04444 0.18342 0.94453 0.0
N1055 N 0.04376 0.19272 0.91374 0.0
C1056 C 0.05548 0.16126 0.9185 0.0
C1057 C 0.05216 0.16519 0.93779 0.0
H1058 H 0.03422 0.21085 0.93745 0.0
H1059 H 0.05437 0.17251 0.89202 0.0
C1060 C 0.98876 0.23126 0.84683 0.0
N1061 N 0.99207 0.21813 0.85904 0.0
C1062 C 0.97195 0.22767 0.83394 0.0
C1063 C 0.9623 0.19685 0.84604 0.0
C1064 C 0.97914 0.20119 0.85891 0.0
C1065 C 0.95857 0.21018 0.83332 0.0
H1066 H 0.99939 0.24441 0.84684 0.0
H1067 H 0.98201 0.19084 0.86857 0.0
O1068 O 0.05991 0.23745 0.90165 0.0
O1069 O 0.03117 0.2499 0.87213 0.0
O1070 O 0.03894 0.2054 0.87088 0.0
O1071 O 0.01312 0.22573 0.90318 0.0
H1072 H 0.05775 0.25336 0.937 0.0
H1073 H 0.08832 0.21181 0.89953 0.0
H1074 H 0.07881 0.2448 0.96351 0.0
H1075 H 0.10887 0.204 0.9267 0.0
H1076 H 0.99576 0.30497 0.87821 0.0
H1077 H 0.06106 0.27585 0.86367 0.0
H1078 H 0.99788 0.26877 0.87916 0.0
H1079 H 0.05778 0.31187 0.86284 0.0
H1080 H 0.1279 0.24221 0.85829 0.0
H1081 H 0.08294 0.24485 0.8135 0.0
H1082 H 0.99846 0.28947 0.94962 0.0
H1083 H 0.04906 0.32076 0.92479 0.0
H1084 H 0.01886 0.17164 0.87779 0.0
H1085 H 0.03608 0.2068 0.83444 0.0
H1086 H 1.00075 0.14589 0.85364 0.0
H1087 H 0.01741 0.18056 0.81107 0.0
H1088 H 0.99997 0.1892 0.90927 0.0
H1089 H 0.98083 0.24597 0.89892 0.0
H1090 H 0.9632 0.17658 0.91064 0.0
H1091 H 0.94438 0.2323 0.90032 0.0
H1092 H 0.04208 0.18757 0.95925 0.0
H1093 H 0.06109 0.1474 0.91244 0.0
H1094 H 0.96977 0.23819 0.82419 0.0
H1095 H 0.95228 0.18322 0.84606 0.0
Li1096 Li 0.54499 0.7345 0.37201 0.0
Li1097 Li 0.52438 0.75259 0.39862 0.0
Li1098 Li 0.52802 0.71576 0.39647 0.0
Li1099 Li 0.50811 0.72847 0.37304 0.0
C1100 C 0.56508 0.73367 0.41172 0.0
N1101 N 0.594 0.72189 0.43569 0.0
C1102 C 0.56852 0.74377 0.4299 0.0
C1103 C 0.57641 0.71766 0.40567 0.0
C1104 C 0.58321 0.73757 0.44182 0.0
C1105 C 0.59094 0.7119 0.41802 0.0
C1106 C 0.5114 0.76398 0.36104 0.0
C1107 C 0.48031 0.78031 0.35819 0.0
N1108 N 0.48423 0.78196 0.34006 0.0
C1109 C 0.51523 0.766 0.34243 0.0
C1110 C 0.4939 0.77134 0.36905 0.0
C1111 C 0.50128 0.77508 0.33204 0.0
C1112 C 0.56404 0.73542 0.33764 0.0
N1113 N 0.56787 0.73766 0.35646 0.0
C1114 C 0.60391 0.74514 0.3526 0.0
C1115 C 0.58732 0.74247 0.36409 0.0
C1116 C 0.60046 0.74308 0.33304 0.0
C1117 C 0.58013 0.73811 0.32563 0.0
H1118 H 0.54841 0.73166 0.33194 0.0
H1119 H 0.58997 0.74432 0.3791 0.0
C1120 C 0.51655 0.77486 0.4331 0.0
N1121 N 0.52247 0.77644 0.41545 0.0
C1122 C 0.51373 0.792 0.44551 0.0
C1123 C 0.52357 0.81206 0.42145 0.0
C1124 C 0.52616 0.79453 0.4095 0.0
C1125 C 0.51708 0.81094 0.4397 0.0
H1126 H 0.51374 0.76024 0.43744 0.0
H1127 H 0.53076 0.79532 0.39534 0.0
C1128 C 0.51951 0.69292 0.35645 0.0
N1129 N 0.50026 0.66253 0.33063 0.0
C1130 C 0.50119 0.68244 0.36063 0.0
C1131 C 0.5282 0.68775 0.33923 0.0
C1132 C 0.49164 0.66719 0.34736 0.0
C1133 C 0.5182 0.67239 0.32634 0.0
C1134 C 0.48432 0.72628 0.40654 0.0
C1135 C 0.47705 0.70668 0.40848 0.0
C1136 C 0.47206 0.74183 0.41163 0.0
C1137 C 0.45735 0.7029 0.41502 0.0
C1138 C 0.45245 0.73743 0.41812 0.0
N1139 N 0.44555 0.71822 0.41964 0.0
C1140 C 0.53431 0.701 0.43086 0.0
C1141 C 0.53085 0.67584 0.40456 0.0
C1142 C 0.53814 0.68695 0.44271 0.0
N1143 N 0.53122 0.69534 0.41212 0.0
C1144 C 0.53398 0.66117 0.41597 0.0
C1145 C 0.53807 0.66659 0.43539 0.0
H1146 H 0.53426 0.71657 0.43658 0.0
H1147 H 0.52825 0.67164 0.38963 0.0
C1148 C 0.48946 0.72068 0.33698 0.0
N1149 N 0.48459 0.72357 0.35526 0.0
C1150 C 0.47403 0.71744 0.32275 0.0
C1151 C 0.44863 0.72094 0.34625 0.0
C1152 C 0.46459 0.72385 0.36008 0.0
C1153 C 0.45329 0.71753 0.3273 0.0
H1154 H 0.50545 0.72111 0.33341 0.0
H1155 H 0.46092 0.72649 0.37458 0.0
O1156 O 0.55045 0.73922 0.39999 0.0
O1157 O 0.52452 0.75461 0.37132 0.0
O1158 O 0.52894 0.70814 0.36912 0.0
O1159 O 0.50364 0.73033 0.40036 0.0
H1160 H 0.55981 0.75616 0.43478 0.0
H1161 H 0.57382 0.70964 0.39164 0.0
H1162 H 0.58598 0.74518 0.45597 0.0
H1163 H 0.59975 0.69947 0.41358 0.0
H1164 H 0.46662 0.78592 0.36417 0.0
H1165 H 0.52876 0.76052 0.33604 0.0
H1166 H 0.49075 0.76992 0.38343 0.0
H1167 H 0.50397 0.77663 0.31758 0.0
H1168 H 0.61929 0.74864 0.359 0.0
H1169 H 0.57659 0.73664 0.31073 0.0
H1170 H 0.50896 0.79042 0.45949 0.0
H1171 H 0.52607 0.82629 0.41627 0.0
H1172 H 0.49428 0.68624 0.37386 0.0
H1173 H 0.54252 0.69552 0.33585 0.0
H1174 H 0.47735 0.65909 0.35036 0.0
H1175 H 0.5247 0.66829 0.31293 0.0
H1176 H 0.48656 0.69454 0.40516 0.0
H1177 H 0.47758 0.75713 0.41055 0.0
H1178 H 0.45148 0.68779 0.41652 0.0
H1179 H 0.44273 0.7493 0.42199 0.0
H1180 H 0.54157 0.69224 0.45739 0.0
H1181 H 0.53318 0.64575 0.40953 0.0
H1182 H 0.47832 0.7152 0.30831 0.0
H1183 H 0.4328 0.72109 0.35033 0.0
Li1184 Li 0.01796 0.78551 0.64536 0.0
Li1185 Li 0.99582 0.76605 0.66816 0.0
Li1186 Li 0.03311 0.76419 0.66575 0.0
Li1187 Li 0.01096 0.74862 0.64037 0.0
C1188 C 0.0301 0.79768 0.68871 0.0
N1189 N 0.05453 0.8151 0.71964 0.0
C1190 C 0.02889 0.78964 0.70551 0.0
C1191 C 0.04355 0.81469 0.68769 0.0
C1192 C 0.04144 0.79862 0.72097 0.0
C1193 C 0.05581 0.82327 0.70347 0.0
C1194 C 0.97664 0.75988 0.62725 0.0
C1195 C 0.94532 0.73906 0.61695 0.0
N1196 N 0.94996 0.74011 0.59886 0.0
C1197 C 0.98104 0.76088 0.60857 0.0
C1198 C 0.95862 0.74898 0.63151 0.0
C1199 C 0.96738 0.75072 0.59441 0.0
C1200 C 0.04002 0.81906 0.63269 0.0
N1201 N 0.02112 0.80877 0.63271 0.0
C1202 C 0.00731 0.82893 0.61143 0.0
C1203 C 1.0048 0.81362 0.6226 0.0
C1204 C 0.02685 0.8393 0.61054 0.0
C1205 C 0.04327 0.83437 0.62162 0.0
H1206 H 0.05272 0.8151 0.64098 0.0
H1207 H 0.98992 0.80523 0.62279 0.0
C1208 C 0.97578 0.75678 0.70025 0.0
N1209 N 0.97398 0.76718 0.68554 0.0
C1210 C 0.96032 0.75614 0.71316 0.0
C1211 C 0.94181 0.77786 0.69624 0.0
C1212 C 0.95751 0.77778 0.6834 0.0
C1213 C 0.943 0.76669 0.71121 0.0
H1214 H 0.98913 0.74866 0.70179 0.0
H1215 H 0.95648 0.78604 0.67165 0.0
C1216 C 0.0565 0.75893 0.6368 0.0
N1217 N 0.09561 0.7464 0.63399 0.0
C1218 C 0.05967 0.73906 0.6381 0.0
C1219 C 0.0732 0.77238 0.63383 0.0
C1220 C 0.07955 0.73302 0.63672 0.0
C1221 C 0.09286 0.76577 0.6325 0.0
C1222 C 1.0037 0.72263 0.66593 0.0
C1223 C 0.01701 0.70749 0.66414 0.0
C1224 C 0.98259 0.71763 0.66742 0.0
C1225 C 0.00895 0.68763 0.66372 0.0
C1226 C 0.97515 0.6976 0.66702 0.0
N1227 N 0.98837 0.68314 0.66516 0.0
C1228 C 0.07426 0.7755 0.68179 0.0
C1229 C 0.0573 0.74618 0.69082 0.0
C1230 C 0.09175 0.77359 0.69293 0.0
N1231 N 0.0575 0.76186 0.68091 0.0
C1232 C 0.07456 0.74348 0.70184 0.0
C1233 C 0.09206 0.7573 0.70302 0.0
H1234 H 0.07406 0.7879 0.67385 0.0
H1235 H 0.04367 0.73578 0.69026 0.0
C1236 C 0.01957 0.72726 0.60547 0.0
N1237 N 1.00673 0.72658 0.6199 0.0
C1238 C 0.01818 0.7118 0.59045 0.0
C1239 C 0.98983 0.69538 0.60488 0.0
C1240 C 0.99165 0.71128 0.61954 0.0
C1241 C 1.00337 0.69533 0.59011 0.0
H1242 H 0.03093 0.73989 0.60555 0.0
H1243 H 0.9809 0.71135 0.63053 0.0
O1244 O 0.01832 0.7888 0.6733 0.0
O1245 O 0.99011 0.76922 0.6413 0.0
O1246 O 0.03717 0.76516 0.63862 0.0
O1247 O 0.01136 0.74223 0.66664 0.0
H1248 H 0.01863 0.77642 0.70649 0.0
H1249 H 0.0446 0.82114 0.67481 0.0
H1250 H 0.04081 0.79246 0.73401 0.0
H1251 H 0.06638 0.83638 0.70286 0.0
H1252 H 0.93136 0.73048 0.62003 0.0
H1253 H 0.99503 0.76914 0.60507 0.0
H1254 H 0.955 0.74809 0.64591 0.0
H1255 H 0.97066 0.75122 0.57989 0.0
H1256 H 0.99424 0.83206 0.60302 0.0
H1257 H 0.05852 0.84214 0.6216 0.0
H1258 H 0.96195 0.74754 0.72462 0.0
H1259 H 0.92866 0.78617 0.69426 0.0
H1260 H 0.04689 0.72844 0.64018 0.0
H1261 H 0.07108 0.78776 0.63264 0.0
H1262 H 0.08221 0.7177 0.6378 0.0
H1263 H 0.10594 0.77605 0.63031 0.0
H1264 H 0.03341 0.71097 0.66319 0.0
H1265 H 0.97194 0.72898 0.66844 0.0
H1266 H 0.01909 0.67579 0.6623 0.0
H1267 H 0.95883 0.69355 0.66804 0.0
H1268 H 0.105 0.78452 0.69341 0.0
H1269 H 0.07413 0.73086 0.70959 0.0
H1270 H 0.02855 0.71286 0.57915 0.0
H1271 H 0.97811 0.68311 0.60534 0.0
Li1272 Li 0.51927 0.29222 0.14508 0.0
Li1273 Li 0.49631 0.27714 0.16842 0.0
Li1274 Li 0.53375 0.27203 0.16722 0.0
Li1275 Li 0.5098 0.25659 0.14208 0.0
C1276 C 0.5222 0.30534 0.1919 0.0
N1277 N 0.5244 0.32001 0.2296 0.0
C1278 C 0.52066 0.29219 0.20523 0.0
C1279 C 0.52484 0.32593 0.19774 0.0
C1280 C 0.52181 0.2999 0.22421 0.0
C1281 C 0.52593 0.33306 0.21687 0.0
C1282 C 0.47588 0.27401 0.12767 0.0
C1283 C 0.4401 0.26554 0.11778 0.0
N1284 N 0.4452 0.26542 0.09966 0.0
C1285 C 0.48076 0.27388 0.10896 0.0
C1286 C 0.45538 0.26986 0.13215 0.0
C1287 C 0.46503 0.26947 0.095 0.0
C1288 C 0.53002 0.3084 0.11261 0.0
N1289 N 0.52506 0.31382 0.13061 0.0
C1290 C 0.52962 0.34844 0.1266 0.0
C1291 C 0.52484 0.33342 0.13779 0.0
C1292 C 0.53443 0.34319 0.10783 0.0
C1293 C 0.53461 0.32283 0.10092 0.0
H1294 H 0.53058 0.29277 0.10733 0.0
H1295 H 0.52102 0.33739 0.15219 0.0
C1296 C 0.47229 0.26641 0.19762 0.0
N1297 N 0.47384 0.27971 0.18511 0.0
C1298 C 0.45573 0.26578 0.20932 0.0
C1299 C 0.44309 0.29346 0.1961 0.0
C1300 C 0.45985 0.29336 0.18435 0.0
C1301 C 0.44071 0.2792 0.20848 0.0
H1302 H 0.48375 0.25596 0.19829 0.0
H1303 H 0.46144 0.30386 0.17436 0.0
C1304 C 0.55699 0.27818 0.1371 0.0
N1305 N 0.59639 0.29411 0.13134 0.0
C1306 C 0.56876 0.26838 0.12356 0.0
C1307 C 0.56526 0.29608 0.14773 0.0
C1308 C 0.58865 0.27668 0.12085 0.0
C1309 C 0.58521 0.30388 0.1446 0.0
C1310 C 0.49991 0.23329 0.1669 0.0
C1311 C 0.51079 0.21694 0.16937 0.0
C1312 C 0.47884 0.23021 0.16189 0.0
C1313 C 0.50044 0.19775 0.16664 0.0
C1314 C 0.46904 0.2108 0.15932 0.0
N1315 N 0.47996 0.1951 0.16171 0.0
C1316 C 0.5682 0.28312 0.19409 0.0
C1317 C 0.56475 0.24971 0.17895 0.0
C1318 C 0.58513 0.27931 0.20503 0.0
N1319 N 0.55807 0.26824 0.18168 0.0
C1320 C 0.5816 0.24523 0.18956 0.0
C1321 C 0.59189 0.26005 0.20304 0.0
H1322 H 0.56312 0.29794 0.19565 0.0
H1323 H 0.55698 0.23838 0.16846 0.0
C1324 C 0.48592 0.22556 0.116 0.0
N1325 N 0.50465 0.23229 0.12457 0.0
C1326 C 0.48336 0.20746 0.10396 0.0
C1327 C 0.5191 0.20298 0.11038 0.0
C1328 C 0.5211 0.22138 0.12198 0.0
C1329 C 0.50006 0.1959 0.10113 0.0
H1330 H 0.47278 0.23388 0.11876 0.0
H1331 H 0.53573 0.22686 0.1292 0.0
O1332 O 0.52092 0.29817 0.17321 0.0
O1333 O 0.49099 0.27833 0.14159 0.0
O1334 O 0.53749 0.27016 0.13986 0.0
O1335 O 0.50984 0.25218 0.1689 0.0
H1336 H 0.51878 0.27621 0.20098 0.0
H1337 H 0.52603 0.3363 0.1876 0.0
H1338 H 0.52068 0.2899 0.23467 0.0
H1339 H 0.52797 0.34897 0.22159 0.0
H1340 H 0.42418 0.26225 0.12104 0.0
H1341 H 0.49653 0.27686 0.10524 0.0
H1342 H 0.45133 0.26993 0.14657 0.0
H1343 H 0.4686 0.26922 0.08045 0.0
H1344 H 0.52929 0.36396 0.13249 0.0
H1345 H 0.53862 0.3181 0.08667 0.0
H1346 H 0.45456 0.25472 0.21883 0.0
H1347 H 0.43176 0.30404 0.19506 0.0
H1348 H 0.56256 0.25452 0.11522 0.0
H1349 H 0.55641 0.3039 0.15826 0.0
H1350 H 0.59793 0.26927 0.11041 0.0
H1351 H 0.59179 0.31772 0.15272 0.0
H1352 H 0.52704 0.21898 0.17334 0.0
H1353 H 0.47022 0.24265 0.15971 0.0
H1354 H 0.5087 0.18496 0.16844 0.0
H1355 H 0.45278 0.20821 0.15532 0.0
H1356 H 0.59258 0.29123 0.21518 0.0
H1357 H 0.58661 0.23035 0.1871 0.0
H1358 H 0.46834 0.2023 0.0973 0.0
H1359 H 0.53233 0.19445 0.10856 0.0
H1360 H 0.26775 0.72964 0.86643 0.0
H1361 H 0.26356 0.76746 0.82273 0.0
H1362 H 0.26022 0.79635 0.84656 0.0
H1363 H 0.23245 0.75358 0.89767 0.0
H1364 H 0.24749 0.75163 0.91862 0.0
H1365 H 0.24857 0.7334 0.89815 0.0
H1366 H 0.28827 0.7409 0.89865 0.0
H1367 H 0.28732 0.75906 0.91919 0.0
H1368 H 0.29931 0.76624 0.89867 0.0
H1369 H 0.25749 0.82131 0.8748 0.0
H1370 H 0.25744 0.84123 0.90593 0.0
H1371 H 0.26566 0.78819 0.93189 0.0
C1372 C 0.26622 0.74399 0.86184 0.0
C1373 C 0.26557 0.74604 0.84254 0.0
C1374 C 0.26349 0.7652 0.83728 0.0
C1375 C 0.26173 0.78182 0.85075 0.0
C1376 C 0.26228 0.77922 0.86954 0.0
C1377 C 0.26464 0.76086 0.87515 0.0
C1378 C 0.26551 0.76242 0.89635 0.0
C1379 C 0.24743 0.74949 0.90309 0.0
C1380 C 0.28635 0.75683 0.90364 0.0
C1381 C 0.26332 0.78454 0.90173 0.0
C1382 C 0.26134 0.79386 0.886 0.0
C1383 C 0.25916 0.81421 0.88724 0.0
C1384 C 0.25929 0.82544 0.90503 0.0
C1385 C 0.26176 0.8164 0.92146 0.0
C1386 C 0.26357 0.79557 0.91968 0.0
H1387 H 0.99042 0.52952 0.38201 0.0
H1388 H 0.02356 0.57212 0.42547 0.0
H1389 H 0.05566 0.56888 0.40835 0.0
H1390 H 0.03201 0.49786 0.37133 0.0
H1391 H 0.02528 0.49384 0.3466 0.0
H1392 H 1.00561 0.49818 0.36322 0.0
H1393 H 0.99516 0.52781 0.34696 0.0
H1394 H 0.01481 0.5236 0.33034 0.0
H1395 H 0.01442 0.54782 0.34406 0.0
H1396 H 0.08364 0.56263 0.38495 0.0
H1397 H 0.10499 0.55344 0.35803 0.0
H1398 H 0.05264 0.51609 0.32963 0.0
C1399 C 1.00442 0.53815 0.38802 0.0
C1400 C 1.00441 0.55116 0.40508 0.0
C1401 C 0.02319 0.56191 0.41254 0.0
C1402 C 0.04147 0.56024 0.40285 0.0
C1403 C 0.04075 0.54767 0.3858 0.0
C1404 C 0.02268 0.53673 0.37853 0.0
C1405 C 0.02562 0.52497 0.3596 0.0
C1406 C 0.02191 0.50237 0.36023 0.0
C1407 C 0.01168 0.53145 0.34435 0.0
C1408 C 0.04811 0.53123 0.35712 0.0
C1409 C 0.05665 0.54421 0.3724 0.0
C1410 C 0.0771 0.5524 0.37297 0.0
C1411 C 0.08907 0.5472 0.35754 0.0
C1412 C 0.08056 0.534 0.34166 0.0
C1413 C 0.05979 0.52592 0.34163 0.0
H1414 H 0.82109 0.74357 0.84566 0.0
H1415 H 0.84091 0.80182 0.87685 0.0
H1416 H 0.83936 0.7874 0.90635 0.0
H1417 H 0.78505 0.72835 0.8783 0.0
H1418 H 0.79057 0.70257 0.87544 0.0
H1419 H 0.79429 0.71705 0.85648 0.0
H1420 H 0.83227 0.70881 0.85498 0.0
H1421 H 0.82864 0.69424 0.87391 0.0
H1422 H 0.84898 0.71435 0.87578 0.0
H1423 H 0.83448 0.76739 0.93252 0.0
H1424 H 0.82691 0.74274 0.95402 0.0
H1425 H 0.80974 0.69697 0.90659 0.0
C1426 C 0.82536 0.75318 0.8587 0.0
C1427 C 0.83101 0.77388 0.85895 0.0
C1428 C 0.83629 0.78601 0.87632 0.0
C1429 C 0.83555 0.77793 0.89316 0.0
C1430 C 0.82955 0.75762 0.89251 0.0
C1431 C 0.8246 0.74533 0.87577 0.0
C1432 C 0.81801 0.72411 0.87923 0.0
C1433 C 0.79565 0.71765 0.87193 0.0
C1434 C 0.83286 0.70952 0.87045 0.0
C1435 C 0.81985 0.72651 0.90049 0.0
C1436 C 0.82662 0.74598 0.90778 0.0
C1437 C 0.82918 0.75209 0.92699 0.0
C1438 C 0.82467 0.73797 0.93911 0.0
C1439 C 0.81755 0.71789 0.93209 0.0
C1440 C 0.81529 0.71213 0.91244 0.0
H1441 H 0.04142 1.0062 0.4396 0.0
H1442 H 0.04778 0.94317 0.42257 0.0
H1443 H 0.02838 0.94442 0.39309 0.0
H1444 H 0.99037 1.0069 0.41916 0.0
H1445 H 0.99563 0.03093 0.4114 0.0
H1446 H 0.00949 0.02518 0.43169 0.0
H1447 H 0.04416 0.03335 0.41657 0.0
H1448 H 0.03041 0.03917 0.39626 0.0
H1449 H 0.04872 0.02071 0.39367 0.0
H1450 H 0.00815 0.95203 0.3656 0.0
H1451 H 0.98915 0.96581 0.34119 0.0
H1452 H 0.99772 0.02464 0.3744 0.0
C1453 C 0.03882 0.99267 0.42966 0.0
C1454 C 0.04591 0.97449 0.43372 0.0
C1455 C 0.04206 0.95716 0.42022 0.0
C1456 C 0.03119 0.95773 0.40327 0.0
C1457 C 0.02438 0.97579 0.3998 0.0
C1458 C 0.02812 0.993 0.41251 0.0
C1459 C 0.01943 0.01054 0.40499 0.0
C1460 C 1.00274 0.01887 0.41756 0.0
C1461 C 0.03671 0.02691 0.40274 0.0
C1462 C 0.0102 1.00043 0.38612 0.0
C1463 C 0.01321 0.98038 0.38351 0.0
C1464 C 1.00588 0.96777 0.36738 0.0
C1465 C 0.99524 0.97584 0.35348 0.0
C1466 C 0.99211 0.99644 0.35559 0.0
C1467 C 0.99971 0.00883 0.37226 0.0
H1468 H 0.27388 0.28671 0.66462 0.0
H1469 H 0.27575 0.2414 0.70164 0.0
H1470 H 0.27518 0.2154 0.67435 0.0
H1471 H 0.24109 0.25708 0.62744 0.0
H1472 H 0.255 0.26685 0.60899 0.0
H1473 H 0.25413 0.28198 0.63142 0.0
H1474 H 0.29404 0.28668 0.63398 0.0
H1475 H 0.29505 0.27149 0.6116 0.0
H1476 H 0.30831 0.26499 0.63188 0.0
H1477 H 0.27579 0.19429 0.64337 0.0
H1478 H 0.27736 0.17934 0.61046 0.0
H1479 H 0.27637 0.23804 0.59305 0.0
C1480 C 0.27414 0.27133 0.66704 0.0
C1481 C 0.27458 0.26622 0.68544 0.0
C1482 C 0.27482 0.24581 0.68781 0.0
C1483 C 0.27472 0.23088 0.67235 0.0
C1484 C 0.27451 0.23648 0.65451 0.0
C1485 C 0.27424 0.25619 0.65173 0.0
C1486 C 0.27473 0.25816 0.63104 0.0
C1487 C 0.25507 0.26651 0.62433 0.0
C1488 C 0.29419 0.2711 0.62689 0.0
C1489 C 0.27545 0.23648 0.62269 0.0
C1490 C 0.27521 0.22426 0.63652 0.0
C1491 C 0.27585 0.20368 0.6324 0.0
C1492 C 0.27663 0.19532 0.61363 0.0
C1493 C 0.2768 0.20746 0.59912 0.0
C1494 C 0.27633 0.22837 0.60381 0.0
H1495 H 0.54397 0.51589 0.61586 0.0
H1496 H 0.55895 0.58005 0.61892 0.0
H1497 H 0.53882 0.58551 0.64695 0.0
H1498 H 0.49242 0.51703 0.63258 0.0
H1499 H 0.4947 0.49703 0.64636 0.0
H1500 H 0.50928 0.49795 0.62569 0.0
H1501 H 0.5431 0.49699 0.64528 0.0
H1502 H 0.52862 0.49604 0.666 0.0
H1503 H 0.54936 0.51542 0.66559 0.0
H1504 H 0.51727 0.58436 0.67479 0.0
H1505 H 0.49667 0.57652 0.70124 0.0
H1506 H 0.49809 0.51308 0.68218 0.0
C1507 C 0.54309 0.53111 0.62239 0.0
C1508 C 0.55284 0.54752 0.61473 0.0
C1509 C 0.55114 0.56716 0.62391 0.0
C1510 C 0.53988 0.57047 0.64005 0.0
C1511 C 0.53053 0.55401 0.64715 0.0
C1512 C 0.53211 0.53471 0.63873 0.0
C1513 C 0.52119 0.51967 0.64974 0.0
C1514 C 0.50334 0.50718 0.63788 0.0
C1515 C 0.53648 0.50624 0.65709 0.0
C1516 C 0.51326 0.53359 0.6656 0.0
C1517 C 0.51874 0.55332 0.66374 0.0
C1518 C 0.51303 0.56894 0.6765 0.0
C1519 C 0.50145 0.5643 0.69162 0.0
C1520 C 0.49581 0.54415 0.69407 0.0
C1521 C 0.50188 0.52864 0.68076 0.0
H1522 H 0.77476 0.28216 0.68412 0.0
H1523 H 0.83714 0.26534 0.67945 0.0
H1524 H 0.83917 0.27806 0.6489 0.0
H1525 H 0.75976 0.26935 0.63366 0.0
H1526 H 0.74411 0.28996 0.63397 0.0
H1527 H 0.74724 0.27819 0.65466 0.0
H1528 H 0.76027 0.31256 0.67352 0.0
H1529 H 0.75741 0.32439 0.65287 0.0
H1530 H 0.78198 0.32704 0.6656 0.0
H1531 H 0.8356 0.29629 0.6208 0.0
H1532 H 0.82588 0.31559 0.59596 0.0
H1533 H 0.76458 0.31789 0.61764 0.0
C1534 C 0.7887 0.28087 0.67648 0.0
C1535 C 0.80581 0.27277 0.68405 0.0
C1536 C 0.82382 0.27132 0.67374 0.0
C1537 C 0.82513 0.27858 0.65646 0.0
C1538 C 0.80813 0.28691 0.64956 0.0
C1539 C 0.79012 0.28772 0.65909 0.0
C1540 C 0.7742 0.29769 0.64881 0.0
C1541 C 0.75521 0.28291 0.64239 0.0
C1542 C 0.76812 0.31654 0.66092 0.0
C1543 C 0.78628 0.30294 0.63231 0.0
C1544 C 0.80581 0.29662 0.63299 0.0
C1545 C 0.82017 0.30088 0.61989 0.0
C1546 C 0.8144 0.3118 0.6057 0.0
C1547 C 0.79431 0.31824 0.6045 0.0
C1548 C 0.78011 0.31349 0.61804 0.0
H1549 H 0.51088 0.97127 0.58727 0.0
H1550 H 0.49657 0.03308 0.59521 0.0
H1551 H 0.51739 0.03918 0.6248 0.0
H1552 H 0.51064 0.96425 0.63644 0.0
H1553 H 0.53205 0.94914 0.63499 0.0
H1554 H 0.51519 0.94913 0.61471 0.0
H1555 H 0.54654 0.95923 0.59576 0.0
H1556 H 0.56349 0.95927 0.61597 0.0
H1557 H 0.56344 0.98128 0.60453 0.0
H1558 H 0.54067 0.03931 0.65267 0.0
H1559 H 0.56506 0.03332 0.67763 0.0
H1560 H 0.56516 0.97158 0.65216 0.0
C1561 C 0.51209 0.98607 0.59526 0.0
C1562 C 0.50179 1.00162 0.58895 0.0
C1563 C 0.50383 0.02077 0.59988 0.0
C1564 C 0.51576 0.02444 0.61668 0.0
C1565 C 0.52567 0.00885 0.62246 0.0
C1566 C 0.52398 0.99002 0.61216 0.0
C1567 C 0.53669 0.97609 0.62147 0.0
C1568 C 0.52281 0.95862 0.62724 0.0
C1569 C 0.55354 0.96852 0.60867 0.0
C1570 C 0.54592 0.99012 0.63848 0.0
C1571 C 0.53928 0.00893 0.63872 0.0
C1572 C 0.54596 0.02464 0.65267 0.0
C1573 C 0.55991 0.02112 0.66673 0.0
C1574 C 0.56711 1.00203 0.6668 0.0
C1575 C 0.55981 0.98628 0.65255 0.0
H1576 H 0.85961 0.23188 0.77358 0.0
H1577 H 0.85941 0.17167 0.74397 0.0
H1578 H 0.89005 0.16658 0.763 0.0
H1579 H 0.91565 0.24258 0.77678 0.0
H1580 H 0.91577 0.25702 0.79967 0.0
H1581 H 0.89383 0.25599 0.78361 0.0
H1582 H 0.86994 0.24356 0.80844 0.0
H1583 H 0.89181 0.24441 0.82453 0.0
H1584 H 0.87527 0.22151 0.81844 0.0
H1585 H 0.91975 0.16737 0.78619 0.0
H1586 H 0.94803 0.17495 0.81051 0.0
H1587 H 0.93013 0.2351 0.82395 0.0
C1588 C 0.86617 0.21772 0.77085 0.0
C1589 C 0.85687 0.20211 0.75734 0.0
C1590 C 0.8659 0.18374 0.75448 0.0
C1591 C 0.88342 0.18072 0.76514 0.0
C1592 C 0.89194 0.19629 0.77851 0.0
C1593 C 0.88379 0.21451 0.78125 0.0
C1594 C 0.89601 0.22879 0.79651 0.0
C1595 C 0.9059 0.24718 0.78867 0.0
C1596 C 0.88244 0.23492 0.81295 0.0
C1597 C 0.91216 0.21567 0.80202 0.0
C1598 C 0.90947 0.19694 0.79152 0.0
C1599 C 0.9221 0.18202 0.79442 0.0
C1600 C 0.93802 0.18641 0.80832 0.0
C1601 C 0.94127 0.20559 0.81906 0.0
C1602 C 0.92813 0.22037 0.81581 0.0
H1603 H 0.53346 0.92683 0.48051 0.0
H1604 H 0.47614 0.91863 0.5087 0.0
H1605 H 0.4746 0.88227 0.49858 0.0
H1606 H 0.51825 0.8928 0.44053 0.0
H1607 H 0.54321 0.88374 0.43724 0.0
H1608 H 0.54131 0.9087 0.44875 0.0
H1609 H 0.56243 0.90115 0.47757 0.0
H1610 H 0.56451 0.87615 0.46609 0.0
H1611 H 0.55396 0.87996 0.48892 0.0
H1612 H 0.47766 0.8471 0.48289 0.0
H1613 H 0.48513 0.81615 0.46314 0.0
H1614 H 0.53996 0.84756 0.44455 0.0
C1615 C 0.52063 0.91743 0.48471 0.0
C1616 C 0.50495 0.92571 0.49549 0.0
C1617 C 0.48856 0.91272 0.50077 0.0
C1618 C 0.48748 0.89201 0.49497 0.0
C1619 C 0.50291 0.88448 0.48393 0.0
C1620 C 0.51923 0.89679 0.47894 0.0
C1621 C 0.53311 0.8852 0.466 0.0
C1622 C 0.53401 0.89308 0.44701 0.0
C1623 C 0.55478 0.88564 0.4752 0.0
C1624 C 0.52178 0.86449 0.46411 0.0
C1625 C 0.50453 0.86432 0.47473 0.0
C1626 C 0.49127 0.84702 0.47471 0.0
C1627 C 0.4957 0.82948 0.4635 0.0
C1628 C 0.51319 0.82935 0.45232 0.0
C1629 C 0.52642 0.84714 0.45283 0.0
H1630 H 0.21876 0.28759 0.80705 0.0
H1631 H 0.20748 0.25262 0.75213 0.0
H1632 H 0.17208 0.24201 0.76061 0.0
H1633 H 0.19357 0.25243 0.83219 0.0
H1634 H 0.18334 0.27074 0.84896 0.0
H1635 H 0.20688 0.27711 0.83787 0.0
H1636 H 0.19112 0.3072 0.82622 0.0
H1637 H 0.16755 0.301 0.83738 0.0
H1638 H 0.16694 0.30315 0.81277 0.0
H1639 H 0.13861 0.23337 0.77622 0.0
H1640 H 0.11008 0.22785 0.79722 0.0
H1641 H 0.144 0.26816 0.84194 0.0
C1642 C 0.20886 0.27774 0.79673 0.0
C1643 C 0.21597 0.27087 0.77892 0.0
C1644 C 0.20235 0.25825 0.76578 0.0
C1645 C 0.18225 0.25206 0.77052 0.0
C1646 C 0.17598 0.25872 0.78841 0.0
C1647 C 0.1889 0.27138 0.80125 0.0
C1648 C 0.17892 0.27576 0.81981 0.0
C1649 C 0.19142 0.26858 0.83563 0.0
C1650 C 0.17596 0.2981 0.8243 0.0
C1651 C 0.15847 0.26327 0.81558 0.0
C1652 C 0.15695 0.25367 0.79736 0.0
C1653 C 0.13959 0.24096 0.79045 0.0
C1654 C 0.12342 0.23798 0.80247 0.0
C1655 C 0.12475 0.24756 0.82125 0.0
C1656 C 0.14254 0.26044 0.82774 0.0
H1657 H 0.5567 0.62697 0.53318 0.0
H1658 H 0.58392 0.57682 0.50321 0.0
H1659 H 0.57344 0.58754 0.47306 0.0
H1660 H 0.51238 0.62668 0.49857 0.0
H1661 H 0.51339 0.65358 0.50227 0.0
H1662 H 0.52079 0.64038 0.5211 0.0
H1663 H 0.55613 0.66162 0.52492 0.0
H1664 H 0.54902 0.67463 0.50594 0.0
H1665 H 0.57219 0.66197 0.50509 0.0
H1666 H 0.56503 0.60709 0.44673 0.0
H1667 H 0.55623 0.63138 0.42615 0.0
H1668 H 0.53132 0.66713 0.47325 0.0
C1669 C 0.55987 0.61794 0.52022 0.0
C1670 C 0.57095 0.601 0.5204 0.0
C1671 C 0.57516 0.58966 0.50327 0.0
C1672 C 0.56936 0.59571 0.48613 0.0
C1673 C 0.55903 0.61291 0.48643 0.0
C1674 C 0.55389 0.62359 0.50305 0.0
C1675 C 0.54359 0.642 0.49964 0.0
C1676 C 0.52121 0.64057 0.50576 0.0
C1677 C 0.55598 0.66118 0.50948 0.0
C1678 C 0.54445 0.64049 0.47857 0.0
C1679 C 0.55339 0.62363 0.4712 0.0
C1680 C 0.55745 0.62003 0.45229 0.0
C1681 C 0.55222 0.63397 0.44063 0.0
C1682 C 0.54275 0.65133 0.44779 0.0
C1683 C 0.53865 0.65429 0.46708 0.0
H1684 H 0.86749 0.80878 0.78902 0.0
H1685 H 0.84709 0.74718 0.79453 0.0
H1686 H 0.86992 0.73567 0.76953 0.0
H1687 H 0.87006 0.8008 0.73806 0.0
H1688 H 0.89248 0.81845 0.73823 0.0
H1689 H 0.87427 0.82182 0.75637 0.0
H1690 H 0.90372 0.82265 0.78152 0.0
H1691 H 0.92199 0.81919 0.76349 0.0
H1692 H 0.91954 0.8021 0.78051 0.0
H1693 H 0.89645 0.73084 0.74503 0.0
H1694 H 0.92343 0.7331 0.72192 0.0
H1695 H 0.92498 0.79772 0.73096 0.0
C1696 C 0.8674 0.79285 0.78476 0.0
C1697 C 0.85535 0.77892 0.79389 0.0
C1698 C 0.85629 0.75821 0.78804 0.0
C1699 C 0.86914 0.7515 0.77373 0.0
C1700 C 0.88086 0.76564 0.7652 0.0
C1701 C 0.87995 0.78589 0.77037 0.0
C1702 C 0.89427 0.79801 0.7591 0.0
C1703 C 0.88203 0.8105 0.74723 0.0
C1704 C 0.91086 0.81126 0.77192 0.0
C1705 C 0.90358 0.78142 0.74691 0.0
C1706 C 0.89568 0.76286 0.7507 0.0
C1707 C 0.90257 0.74529 0.74182 0.0
C1708 C 0.91795 0.74671 0.72878 0.0
C1709 C 0.92619 0.76556 0.72458 0.0
C1710 C 0.91873 0.78311 0.73369 0.0
H1711 H 0.08119 0.88691 0.52752 0.0
H1712 H 0.03035 0.92369 0.52518 0.0
H1713 H 0.01684 0.9115 0.55363 0.0
H1714 H 0.05254 0.84518 0.53938 0.0
H1715 H 0.07224 0.83822 0.55466 0.0
H1716 H 0.07936 0.85191 0.53583 0.0
H1717 H 0.09996 0.87949 0.55933 0.0
H1718 H 0.09302 0.86579 0.57826 0.0
H1719 H 0.08734 0.8914 0.57908 0.0
H1720 H 1.00673 0.89194 0.58022 0.0
H1721 H 1.00195 0.86834 0.60337 0.0
H1722 H 0.05926 0.84413 0.5877 0.0
C1723 C 0.06739 0.89268 0.53315 0.0
C1724 C 0.05684 0.90629 0.52409 0.0
C1725 C 0.03887 0.91349 0.53199 0.0
C1726 C 0.03102 0.90654 0.54809 0.0
C1727 C 0.04142 0.89254 0.55625 0.0
C1728 C 0.05937 0.88589 0.54914 0.0
C1729 C 0.067 0.86994 0.5597 0.0
C1730 C 0.06782 0.85015 0.54661 0.0
C1731 C 0.08808 0.87709 0.56969 0.0
C1732 C 0.05027 0.86822 0.5736 0.0
C1733 C 0.03569 0.88143 0.5715 0.0
C1734 C 0.01821 0.88173 0.58212 0.0
C1735 C 0.01555 0.86817 0.59515 0.0
C1736 C 0.03029 0.85445 0.59749 0.0
C1737 C 0.04793 0.8547 0.5866 0.0
H1738 H 0.1857 0.69974 0.73468 0.0
H1739 H 0.20776 0.75342 0.77221 0.0
H1740 H 0.17658 0.76922 0.76381 0.0
H1741 H 0.16625 0.72311 0.69879 0.0
H1742 H 0.14395 0.70538 0.69276 0.0
H1743 H 0.16681 0.69761 0.70315 0.0
H1744 H 0.1456 0.68526 0.72977 0.0
H1745 H 0.12259 0.6928 0.71934 0.0
H1746 H 0.13023 0.70217 0.74337 0.0
H1747 H 0.14504 0.78047 0.74821 0.0
H1748 H 0.11396 0.78503 0.72912 0.0
H1749 H 0.1121 0.72354 0.70268 0.0
C1750 C 0.18376 0.71469 0.74138 0.0
C1751 C 0.1991 0.72538 0.75412 0.0
C1752 C 0.19606 0.74491 0.7626 0.0
C1753 C 0.17847 0.75402 0.75782 0.0
C1754 C 0.16394 0.74328 0.74476 0.0
C1755 C 0.16623 0.72389 0.73692 0.0
C1756 C 0.14878 0.71578 0.7228 0.0
C1757 C 0.15694 0.71015 0.70322 0.0
C1758 C 0.13605 0.69795 0.72921 0.0
C1759 C 0.13657 0.7338 0.7235 0.0
C1760 C 0.14555 0.74954 0.73623 0.0
C1761 C 0.1377 0.76813 0.73844 0.0
C1762 C 0.12016 0.77064 0.72748 0.0
C1763 C 0.11058 0.75459 0.71458 0.0
C1764 C 0.11891 0.73595 0.71268 0.0
H1765 H 0.94826 0.60417 0.51839 0.0
H1766 H 0.00855 0.59269 0.49815 0.0
H1767 H 0.02436 0.62169 0.52022 0.0
H1768 H 0.95683 0.65804 0.52446 0.0
H1769 H 0.94225 0.66119 0.54526 0.0
H1770 H 0.93588 0.63979 0.52771 0.0
H1771 H 0.94004 0.61627 0.55274 0.0
H1772 H 0.94648 0.6376 0.57036 0.0
H1773 H 0.96389 0.6184 0.56656 0.0
H1774 H 0.03355 0.65117 0.54565 0.0
H1775 H 0.03541 0.67937 0.57125 0.0
H1776 H 0.9687 0.67219 0.57377 0.0
C1777 C 0.96482 0.60769 0.51865 0.0
C1778 C 0.97723 0.59608 0.50666 0.0
C1779 C 0.99877 0.60142 0.50718 0.0
C1780 C 0.00787 0.6178 0.51971 0.0
C1781 C 0.99517 0.62879 0.53148 0.0
C1782 C 0.97409 0.62402 0.53094 0.0
C1783 C 0.96383 0.63821 0.54495 0.0
C1784 C 0.94881 0.65001 0.535 0.0
C1785 C 0.95292 0.62694 0.55951 0.0
C1786 C 0.98244 0.65163 0.55365 0.0
C1787 C 1.00038 0.64595 0.54572 0.0
C1788 C 0.01957 0.65587 0.55179 0.0
C1789 C 0.02043 0.67201 0.56629 0.0
C1790 C 1.0022 0.67824 0.57457 0.0
C1791 C 0.98299 0.66781 0.568 0.0
H1792 H 0.79064 0.84949 0.21412 0.0
H1793 H 0.82949 0.81316 0.24223 0.0
H1794 H 0.85507 0.84241 0.25102 0.0
H1795 H 0.83347 0.88194 0.19703 0.0
H1796 H 0.81978 0.90395 0.20104 0.0
H1797 H 0.80569 0.87968 0.19502 0.0
H1798 H 0.78494 0.88596 0.22487 0.0
H1799 H 0.79906 0.91013 0.23108 0.0
H1800 H 0.79853 0.89218 0.24736 0.0
H1801 H 0.87422 0.87581 0.25983 0.0
H1802 H 0.8871 0.91151 0.26682 0.0
H1803 H 0.83662 0.92688 0.23259 0.0
C1804 C 0.80485 0.8477 0.22162 0.0
C1805 C 0.80842 0.82914 0.22729 0.0
C1806 C 0.82679 0.82727 0.23758 0.0
C1807 C 0.84133 0.84378 0.24264 0.0
C1808 C 0.83725 0.86203 0.23724 0.0
C1809 C 0.8196 0.86411 0.22679 0.0
C1810 C 0.8185 0.88575 0.22386 0.0
C1811 C 0.81942 0.88795 0.203 0.0
C1812 C 0.79911 0.89398 0.2323 0.0
C1813 C 0.83796 0.89552 0.23472 0.0
C1814 C 0.84854 0.88149 0.24225 0.0
C1815 C 0.86626 0.8869 0.25379 0.0
C1816 C 0.87337 0.90719 0.25778 0.0
C1817 C 0.86286 0.92183 0.25021 0.0
C1818 C 0.84505 0.9159 0.23835 0.0
H1819 H 0.79211 0.17356 0.32632 0.0
H1820 H 0.81657 0.21234 0.28755 0.0
H1821 H 0.84229 0.1889 0.27827 0.0
H1822 H 0.84192 0.15798 0.34087 0.0
H1823 H 0.83166 0.13268 0.34229 0.0
H1824 H 0.8154 0.15279 0.34647 0.0
H1825 H 0.78913 0.13447 0.32075 0.0
H1826 H 0.80537 0.11436 0.31641 0.0
H1827 H 0.79763 0.12729 0.2975 0.0
H1828 H 0.86439 0.16106 0.27207 0.0
H1829 H 0.88253 0.13065 0.26997 0.0
H1830 H 0.84504 0.10957 0.31325 0.0
C1831 C 0.80305 0.17718 0.31604 0.0
C1832 C 0.80216 0.19472 0.30752 0.0
C1833 C 0.81668 0.19886 0.29404 0.0
C1834 C 0.83144 0.18568 0.28873 0.0
C1835 C 0.83166 0.16838 0.29707 0.0
C1836 C 0.81798 0.16409 0.31051 0.0
C1837 C 0.82151 0.14419 0.31697 0.0
C1838 C 0.82801 0.14709 0.33789 0.0
C1839 C 0.80226 0.1292 0.31265 0.0
C1840 C 0.83917 0.13799 0.30493 0.0
C1841 C 0.84474 0.15224 0.29361 0.0
C1842 C 0.86034 0.14988 0.28102 0.0
C1843 C 0.87067 0.13256 0.28003 0.0
C1844 C 0.86549 0.11772 0.2916 0.0
C1845 C 0.84939 0.12054 0.30416 0.0
H1846 H 0.44466 0.02387 0.00928 0.0
H1847 H 0.41756 0.04578 0.96125 0.0
H1848 H 0.38672 0.02208 0.96192 0.0
H1849 H 0.42486 0.97147 0.99576 0.0
H1850 H 0.42027 0.9673 0.01946 0.0
H1851 H 0.44061 0.98557 0.01491 0.0
H1852 H 0.42482 0.01266 0.03736 0.0
H1853 H 0.40437 0.99451 0.04191 0.0
H1854 H 0.3983 0.01721 0.03347 0.0
H1855 H 0.35796 0.99783 0.96888 0.0
H1856 H 0.33392 0.9724 0.9803 0.0
H1857 H 0.37963 0.96489 0.02316 0.0
C1858 C 0.43228 0.02354 0.99884 0.0
C1859 C 0.4336 0.03658 0.98511 0.0
C1860 C 0.41707 0.03571 0.97168 0.0
C1861 C 0.39941 0.0224 0.97203 0.0
C1862 C 0.39852 0.00989 0.9858 0.0
C1863 C 0.41457 0.01013 0.99885 0.0
C1864 C 0.40955 0.99505 0.01216 0.0
C1865 C 0.42472 0.97889 0.01046 0.0
C1866 C 0.40924 1.00549 0.03242 0.0
C1867 C 0.38808 0.98652 1.00469 0.0
C1868 C 0.38202 0.99542 0.98955 0.0
C1869 C 0.36258 0.99064 0.98063 0.0
C1870 C 0.349 0.97629 0.98728 0.0
C1871 C 0.35494 0.96674 1.00259 0.0
C1872 C 0.37479 0.97188 0.01134 0.0
H1873 H 0.25258 0.37297 0.33056 0.0
H1874 H 0.29105 0.35599 0.28426 0.0
H1875 H 0.27062 0.37456 0.26418 0.0
H1876 H 0.20415 0.37134 0.30327 0.0
H1877 H 0.19602 0.39282 0.31766 0.0
H1878 H 0.21245 0.37665 0.32765 0.0
H1879 H 0.23907 0.40701 0.33885 0.0
H1880 H 0.22277 0.42325 0.32888 0.0
H1881 H 0.24907 0.42239 0.32209 0.0
H1882 H 0.24729 0.39735 0.24992 0.0
H1883 H 0.22293 0.42141 0.24261 0.0
H1884 H 0.20096 0.42417 0.2989 0.0
C1885 C 0.25672 0.37306 0.31618 0.0
C1886 C 0.27352 0.36305 0.30903 0.0
C1887 C 0.27814 0.36334 0.29003 0.0
C1888 C 0.26667 0.37395 0.27854 0.0
C1889 C 0.25055 0.38407 0.28623 0.0
C1890 C 0.24553 0.38358 0.30461 0.0
C1891 C 0.22817 0.39637 0.30985 0.0
C1892 C 0.20907 0.38352 0.3149 0.0
C1893 C 0.2352 0.41325 0.32586 0.0
C1894 C 0.2244 0.40449 0.29166 0.0
C1895 C 0.23733 0.39715 0.27814 0.0
C1896 C 0.23703 0.40308 0.2604 0.0
C1897 C 0.22323 0.41689 0.25642 0.0
C1898 C 0.20992 0.42472 0.27014 0.0
C1899 C 0.21057 0.41825 0.28794 0.0
H1900 H 0.11092 0.00934 0.45427 0.0
H1901 H 0.09825 1.00093 0.51148 0.0
H1902 H 0.12717 0.02619 0.5229 0.0
H1903 H 0.16553 0.01591 0.46 0.0
H1904 H 0.16871 0.0349 0.44485 0.0
H1905 H 0.14684 0.01639 0.44113 0.0
H1906 H 0.12209 0.04435 0.44346 0.0
H1907 H 0.1439 0.06297 0.44706 0.0
H1908 H 0.12401 0.06313 0.46382 0.0
H1909 H 0.15814 0.05163 0.52803 0.0
H1910 H 0.18828 0.07592 0.52666 0.0
H1911 H 0.17964 0.06914 0.46613 0.0
C1912 C 0.11394 0.01301 0.46923 0.0
C1913 C 0.10219 1.00309 0.48197 0.0
C1914 C 0.10711 0.00811 0.50141 0.0
C1915 C 0.12345 0.02252 0.50804 0.0
C1916 C 0.13473 0.0319 0.49509 0.0
C1917 C 0.13012 0.02743 0.47609 0.0
C1918 C 0.14474 0.03956 0.46511 0.0
C1919 C 0.15719 0.02587 0.452 0.0
C1920 C 0.13298 0.05332 0.45422 0.0
C1921 C 0.15838 0.05149 0.48089 0.0
C1922 C 0.15235 0.04682 0.49806 0.0
C1923 C 0.16285 0.05557 0.51467 0.0
C1924 C 0.17991 0.06951 0.51373 0.0
C1925 C 0.18634 0.07474 0.4963 0.0
C1926 C 0.17532 0.06548 0.47969 0.0
H1927 H 0.78939 0.16666 0.75879 0.0
H1928 H 0.78006 0.17627 0.70105 0.0
H1929 H 0.75281 0.14797 0.69621 0.0
H1930 H 0.78241 0.11296 0.75061 0.0
H1931 H 0.7691 0.1108 0.77183 0.0
H1932 H 0.78773 0.13184 0.77072 0.0
H1933 H 0.76025 0.1561 0.78047 0.0
H1934 H 0.74154 0.13515 0.78165 0.0
H1935 H 0.73612 0.15377 0.76706 0.0
H1936 H 0.72714 0.11816 0.69758 0.0
H1937 H 0.70412 0.0898 0.70517 0.0
H1938 H 0.72972 0.1002 0.76234 0.0
C1939 C 0.78173 0.16271 0.74507 0.0
C1940 C 0.78692 0.1736 0.73024 0.0
C1941 C 0.77625 0.16821 0.71262 0.0
C1942 C 0.76083 0.15211 0.70973 0.0
C1943 C 0.75621 0.14163 0.72463 0.0
C1944 C 0.76628 0.14677 0.74198 0.0
C1945 C 0.75823 0.13327 0.75573 0.0
C1946 C 0.77539 0.12152 0.76262 0.0
C1947 C 0.74845 0.14529 0.7722 0.0
C1948 C 0.74211 0.11963 0.74339 0.0
C1949 C 0.74121 0.12469 0.7255 0.0
C1950 C 0.7276 0.11417 0.71158 0.0
C1951 C 0.71448 0.09815 0.71609 0.0
C1952 C 0.71492 0.09279 0.73442 0.0
C1953 C 0.72906 0.10373 0.74817 0.0
H1954 H 0.4533 0.0331 0.52653 0.0
H1955 H 0.42688 1.00593 0.57241 0.0
H1956 H 0.39572 0.02378 0.56933 0.0
H1957 H 0.43464 0.08126 0.53903 0.0
H1958 H 0.42981 0.08521 0.51515 0.0
H1959 H 0.44977 0.06999 0.52074 0.0
H1960 H 0.43289 0.04064 0.49677 0.0
H1961 H 0.41288 0.05577 0.4911 0.0
H1962 H 0.40621 0.03185 0.49865 0.0
H1963 H 0.36713 0.04399 0.56069 0.0
H1964 H 0.34398 0.06655 0.54837 0.0
H1965 H 0.3895 0.08146 0.50877 0.0
C1966 C 0.44087 0.03081 0.53583 0.0
C1967 C 0.44241 0.01804 0.54965 0.0
C1968 C 0.42602 0.0157 0.56179 0.0
C1969 C 0.40825 0.02571 0.56008 0.0
C1970 C 0.40721 0.03816 0.54629 0.0
C1971 C 0.42315 0.04087 0.53447 0.0
C1972 C 0.4184 0.05547 0.52113 0.0
C1973 C 0.43408 0.07408 0.52421 0.0
C1974 C 0.41754 0.04532 0.5007 0.0
C1975 C 0.39724 0.06049 0.52723 0.0
C1976 C 0.39101 0.05023 0.54167 0.0
C1977 C 0.37187 0.05213 0.54942 0.0
C1978 C 0.35879 0.06489 0.54227 0.0
C1979 C 0.36494 0.07574 0.52762 0.0
C1980 C 0.38446 0.07349 0.52008 0.0
H1981 H 0.60468 0.5041 0.54928 0.0
H1982 H 0.61397 0.51551 0.60973 0.0
H1983 H 0.63992 0.49117 0.60826 0.0
H1984 H 0.61094 0.45051 0.54444 0.0
H1985 H 0.62441 0.45054 0.52305 0.0
H1986 H 0.60574 0.46819 0.52877 0.0
H1987 H 0.63328 0.49739 0.52564 0.0
H1988 H 0.65202 0.47985 0.5199 0.0
H1989 H 0.65732 0.49971 0.53919 0.0
H1990 H 0.66647 0.46758 0.60036 0.0
H1991 H 0.69132 0.44507 0.58642 0.0
H1992 H 0.6647 0.4477 0.5311 0.0
C1993 C 0.6121 0.50136 0.5622 0.0
C1994 C 0.60709 0.51159 0.57965 0.0
C1995 C 0.61718 0.5076 0.59624 0.0
C1996 C 0.63206 0.49387 0.59554 0.0
C1997 C 0.63666 0.4841 0.57817 0.0
C1998 C 0.62693 0.48753 0.56178 0.0
C1999 C 0.63514 0.47525 0.54493 0.0
C2000 C 0.61803 0.46023 0.5347 0.0
C2001 C 0.64503 0.48887 0.53163 0.0
C2002 C 0.65123 0.46466 0.55441 0.0
C2003 C 0.65181 0.47005 0.5736 0.0
C2004 C 0.66601 0.46307 0.58538 0.0
C2005 C 0.68008 0.45035 0.57735 0.0
C2006 C 0.67979 0.44457 0.55775 0.0
C2007 C 0.66501 0.45166 0.54616 0.0
H2008 H 0.76735 0.27004 0.3482 0.0
H2009 H 0.76178 0.21087 0.36505 0.0
H2010 H 0.75749 0.2259 0.39773 0.0
H2011 H 0.79659 0.29451 0.38873 0.0
H2012 H 0.7843 0.31735 0.38959 0.0
H2013 H 0.78617 0.30184 0.36753 0.0
H2014 H 0.74655 0.3 0.36181 0.0
H2015 H 0.74455 0.3155 0.38389 0.0
H2016 H 0.72988 0.2914 0.37908 0.0
H2017 H 0.75405 0.2476 0.42866 0.0
H2018 H 0.75298 0.27407 0.45555 0.0
H2019 H 0.76155 0.31916 0.41849 0.0
C2020 C 0.76492 0.2602 0.3587 0.0
C2021 C 0.76472 0.23922 0.35402 0.0
C2022 C 0.76204 0.22695 0.3683 0.0
C2023 C 0.75949 0.23536 0.38688 0.0
C2024 C 0.75975 0.25608 0.39098 0.0
C2025 C 0.76247 0.26834 0.3773 0.0
C2026 C 0.76284 0.29019 0.38545 0.0
C2027 C 0.78372 0.30164 0.38266 0.0
C2028 C 0.74488 0.29983 0.37706 0.0
C2029 C 0.75994 0.28836 0.4059 0.0
C2030 C 0.7581 0.26856 0.40878 0.0
C2031 C 0.75554 0.26314 0.42655 0.0
C2032 C 0.75507 0.27833 0.44177 0.0
C2033 C 0.75727 0.29878 0.43924 0.0
C2034 C 0.75955 0.30373 0.42095 0.0
H2035 H 0.52958 0.08562 0.89873 0.0
H2036 H 0.49982 0.03084 0.9145 0.0
H2037 H 0.52111 0.01121 0.89261 0.0
H2038 H 0.52957 0.06793 0.85034 0.0
H2039 H 0.55402 0.08131 0.84695 0.0
H2040 H 0.53802 0.09096 0.86523 0.0
H2041 H 0.56816 0.09165 0.88971 0.0
H2042 H 0.58428 0.082 0.87149 0.0
H2043 H 0.58035 0.06913 0.89152 0.0
H2044 H 0.54487 0.99751 0.86766 0.0
H2045 H 0.56777 0.9911 0.84125 0.0
H2046 H 0.57999 0.05493 0.84081 0.0
C2047 C 0.52737 0.0695 0.89761 0.0
C2048 C 0.51288 0.05986 0.90844 0.0
C2049 C 0.51097 0.03868 0.90666 0.0
C2050 C 0.52294 0.02737 0.89415 0.0
C2051 C 0.53673 0.03741 0.88347 0.0
C2052 C 0.53892 0.05802 0.88507 0.0
C2053 C 0.55392 0.06527 0.87133 0.0
C2054 C 0.54324 0.07706 0.85766 0.0
C2055 C 0.5728 0.07775 0.88163 0.0
C2056 C 0.55965 0.04552 0.86151 0.0
C2057 C 0.54982 0.0296 0.86885 0.0
C2058 C 0.55268 0.00988 0.86187 0.0
C2059 C 0.56577 1.00638 0.84693 0.0
C2060 C 0.57561 0.02251 0.83896 0.0
C2061 C 0.57255 0.0423 0.84651 0.0
H2062 H 0.31628 0.27787 0.36957 0.0
H2063 H 0.31646 0.23226 0.3211 0.0
H2064 H 0.31194 0.20615 0.34157 0.0
H2065 H 0.34269 0.2529 0.40218 0.0
H2066 H 0.3271 0.26075 0.42148 0.0
H2067 H 0.33089 0.27603 0.40312 0.0
H2068 H 0.29135 0.27505 0.39744 0.0
H2069 H 0.28743 0.25981 0.41583 0.0
H2070 H 0.27608 0.25125 0.39271 0.0
H2071 H 0.30826 0.1848 0.3674 0.0
H2072 H 0.30372 0.16984 0.39654 0.0
H2073 H 0.30333 0.229 0.42797 0.0
C2074 C 0.31512 0.26243 0.36313 0.0
C2075 C 0.31698 0.25731 0.34358 0.0
C2076 C 0.31563 0.23677 0.336 0.0
C2077 C 0.31287 0.22175 0.34752 0.0
C2078 C 0.31119 0.22737 0.36665 0.0
C2079 C 0.31205 0.2472 0.37439 0.0
C2080 C 0.30941 0.24918 0.39536 0.0
C2081 C 0.32867 0.26038 0.40617 0.0
C2082 C 0.2899 0.25943 0.40064 0.0
C2083 C 0.30704 0.22735 0.3982 0.0
C2084 C 0.30827 0.21503 0.38146 0.0
C2085 C 0.30715 0.19431 0.38056 0.0
C2086 C 0.30466 0.18595 0.39719 0.0
C2087 C 0.30311 0.19824 0.41449 0.0
C2088 C 0.30423 0.21923 0.41492 0.0
H2089 H 0.54796 0.4673 0.92542 0.0
H2090 H 0.55828 0.52632 0.95785 0.0
H2091 H 0.53744 0.53989 0.93423 0.0
H2092 H 0.55121 0.48322 0.88047 0.0
H2093 H 0.53124 0.46489 0.8694 0.0
H2094 H 0.54636 0.45962 0.88915 0.0
H2095 H 0.51302 0.45255 0.90666 0.0
H2096 H 0.49778 0.4577 0.88691 0.0
H2097 H 0.49498 0.47124 0.90981 0.0
H2098 H 0.51603 0.54718 0.90682 0.0
H2099 H 0.49573 0.54779 0.87749 0.0
H2100 H 0.49891 0.48394 0.86289 0.0
C2101 C 0.54559 0.48302 0.9277 0.0
C2102 C 0.55474 0.49575 0.94355 0.0
C2103 C 0.55157 0.51632 0.94578 0.0
C2104 C 0.53968 0.52414 0.93247 0.0
C2105 C 0.53104 0.51123 0.91695 0.0
C2106 C 0.53382 0.49111 0.9145 0.0
C2107 C 0.52322 0.48057 0.89635 0.0
C2108 C 0.53895 0.47155 0.88306 0.0
C2109 C 0.50624 0.46457 0.90017 0.0
C2110 C 0.51414 0.49793 0.88894 0.0
C2111 C 0.51877 0.51546 0.90109 0.0
C2112 C 0.5122 0.53352 0.89725 0.0
C2113 C 0.50056 0.53369 0.88058 0.0
C2114 C 0.49559 0.51591 0.86786 0.0
C2115 C 0.50256 0.49783 0.8722 0.0
H2116 H 0.77762 0.78601 0.16963 0.0
H2117 H 0.77568 0.74041 0.20654 0.0
H2118 H 0.7769 0.71452 0.17939 0.0
H2119 H 0.74692 0.75668 0.13081 0.0
H2120 H 0.76224 0.7664 0.11317 0.0
H2121 H 0.7601 0.7815 0.13543 0.0
H2122 H 0.79989 0.78588 0.14013 0.0
H2123 H 0.80216 0.77073 0.11793 0.0
H2124 H 0.81393 0.76406 0.13885 0.0
H2125 H 0.77964 0.69354 0.1487 0.0
H2126 H 0.7833 0.67863 0.11609 0.0
H2127 H 0.78407 0.73741 0.0985 0.0
C2128 C 0.77739 0.77058 0.17202 0.0
C2129 C 0.77622 0.76534 0.19033 0.0
C2130 C 0.77597 0.7449 0.19272 0.0
C2131 C 0.77687 0.73003 0.17736 0.0
C2132 C 0.77812 0.73573 0.15961 0.0
C2133 C 0.77837 0.75548 0.1568 0.0
C2134 C 0.78031 0.75749 0.13622 0.0
C2135 C 0.76125 0.76602 0.12845 0.0
C2136 C 0.80026 0.7703 0.13311 0.0
C2137 C 0.78122 0.73579 0.12797 0.0
C2138 C 0.77988 0.72353 0.14175 0.0
C2139 C 0.78053 0.70296 0.13774 0.0
C2140 C 0.78249 0.69461 0.11912 0.0
C2141 C 0.78375 0.70677 0.10463 0.0
C2142 C 0.78322 0.72769 0.10922 0.0
H2143 H 0.0519 0.05243 0.12598 0.0
H2144 H 0.03444 0.99355 0.09493 0.0
H2145 H 0.01072 0.986 0.11951 0.0
H2146 H 0.05053 0.03787 0.17196 0.0
H2147 H 0.03991 0.06016 0.18239 0.0
H2148 H 0.05571 0.06096 0.16246 0.0
H2149 H 0.02639 0.07484 0.14452 0.0
H2150 H 0.01052 0.07414 0.16441 0.0
H2151 H 1.00114 0.06129 0.14181 0.0
H2152 H 0.98882 0.9848 0.14734 0.0
H2153 H 0.97024 0.98995 0.1765 0.0
H2154 H 1.00097 0.05004 0.18919 0.0
C2155 C 0.04298 0.038 0.12425 0.0
C2156 C 0.04514 0.02356 0.10847 0.0
C2157 C 0.03334 1.00476 0.10696 0.0
C2158 C 0.01972 1.00037 0.12081 0.0
C2159 C 0.01799 0.01492 0.13612 0.0
C2160 C 0.02927 0.03336 0.13793 0.0
C2161 C 0.02447 0.04636 0.15578 0.0
C2162 C 0.04381 0.05164 0.16893 0.0
C2163 C 0.01507 0.06527 0.15136 0.0
C2164 C 0.00871 0.03233 0.16372 0.0
C2165 C 1.00521 0.01428 0.15214 0.0
C2166 C 0.99135 0.99891 0.15646 0.0
C2167 C 0.98075 1.00206 0.17303 0.0
C2168 C 0.98394 0.02047 0.18515 0.0
C2169 C 0.99823 0.03574 0.18035 0.0
H2170 H 0.2699 0.79064 0.17715 0.0
H2171 H 0.33224 0.77315 0.17598 0.0
H2172 H 0.33657 0.78579 0.14561 0.0
H2173 H 0.25792 0.77794 0.12653 0.0
H2174 H 0.24279 0.79879 0.12573 0.0
H2175 H 0.24435 0.78728 0.14674 0.0
H2176 H 0.2571 0.82169 0.16567 0.0
H2177 H 0.25577 0.83326 0.14471 0.0
H2178 H 0.2796 0.83571 0.15858 0.0
H2179 H 0.3351 0.8034 0.11701 0.0
H2180 H 0.32723 0.82187 0.09102 0.0
H2181 H 0.26483 0.82581 0.10969 0.0
C2182 C 0.28438 0.78929 0.17039 0.0
C2183 C 0.30077 0.78094 0.1789 0.0
C2184 C 0.31945 0.77932 0.1696 0.0
C2185 C 0.32206 0.78655 0.15242 0.0
C2186 C 0.30574 0.79509 0.14459 0.0
C2187 C 0.28715 0.79619 0.15314 0.0
C2188 C 0.27212 0.80625 0.14192 0.0
C2189 C 0.25318 0.79169 0.13481 0.0
C2190 C 0.26579 0.82536 0.15341 0.0
C2191 C 0.28533 0.81109 0.12595 0.0
C2192 C 0.30466 0.80456 0.12777 0.0
C2193 C 0.31986 0.8082 0.11523 0.0
C2194 C 0.31514 0.81863 0.10037 0.0
C2195 C 0.29526 0.82521 0.09794 0.0
C2196 C 0.28022 0.82124 0.11103 0.0
H2197 H 0.01862 0.52148 0.09646 0.0
H2198 H 0.99756 0.45869 0.08165 0.0
H2199 H 0.01341 0.45152 0.11132 0.0
H2200 H 0.06705 0.51416 0.11501 0.0
H2201 H 0.0684 0.53486 0.13365 0.0
H2202 H 0.05323 0.53557 0.11252 0.0
H2203 H 0.02095 0.54139 0.13175 0.0
H2204 H 0.03608 0.54093 0.15301 0.0
H2205 H 0.01292 0.52421 0.14768 0.0
H2206 H 0.03396 0.45079 0.14127 0.0
H2207 H 0.05757 0.45647 0.1693 0.0
H2208 H 0.06556 0.51982 0.16464 0.0
C2209 C 0.01684 0.50634 0.09976 0.0
C2210 C 1.00665 0.49065 0.08691 0.0
C2211 C 1.0052 0.47091 0.09139 0.0
C2212 C 0.01413 0.46672 0.1082 0.0
C2213 C 0.02453 0.48243 0.12036 0.0
C2214 C 0.02586 0.50187 0.1164 0.0
C2215 C 0.0392 0.51577 0.13118 0.0
C2216 C 0.05809 0.52566 0.12257 0.0
C2217 C 0.02653 0.53151 0.14152 0.0
C2218 C 0.04544 0.50107 0.14388 0.0
C2219 C 0.03666 0.48196 0.13749 0.0
C2220 C 0.04071 0.46575 0.14653 0.0
C2221 C 0.0541 0.46914 0.16251 0.0
C2222 C 0.06342 0.4886 0.16929 0.0
C2223 C 0.05885 0.50473 0.1598 0.0
H2224 H 0.35015 0.73726 0.27195 0.0
H2225 H 0.35949 0.68521 0.23227 0.0
H2226 H 0.39162 0.68097 0.24986 0.0
H2227 H 0.40425 0.7563 0.28034 0.0
H2228 H 0.40159 0.76415 0.30493 0.0
H2229 H 0.37994 0.7637 0.28866 0.0
H2230 H 0.35801 0.74077 0.3079 0.0
H2231 H 0.37962 0.74104 0.32415 0.0
H2232 H 0.36722 0.71757 0.31255 0.0
H2233 H 0.42243 0.68214 0.27184 0.0
H2234 H 0.44953 0.68814 0.29724 0.0
H2235 H 0.41975 0.73878 0.32339 0.0
C2236 C 0.35916 0.72516 0.26686 0.0
C2237 C 0.35246 0.71161 0.2507 0.0
C2238 C 0.36438 0.69571 0.24463 0.0
C2239 C 0.38265 0.69322 0.2545 0.0
C2240 C 0.38871 0.70667 0.27049 0.0
C2241 C 0.37732 0.72231 0.27669 0.0
C2242 C 0.38688 0.73416 0.29472 0.0
C2243 C 0.39356 0.75586 0.29199 0.0
C2244 C 0.37205 0.73333 0.31078 0.0
C2245 C 0.40537 0.72272 0.2977 0.0
C2246 C 0.4062 0.70702 0.28348 0.0
C2247 C 0.42195 0.6944 0.28304 0.0
C2248 C 0.4373 0.69795 0.29749 0.0
C2249 C 0.43672 0.71389 0.31227 0.0
C2250 C 0.42046 0.72636 0.31237 0.0
H2251 H 0.04802 0.42097 0.98772 0.0
H2252 H 0.98253 0.42278 0.99567 0.0
H2253 H 0.97661 0.38679 0.98328 0.0
H2254 H 0.04383 0.38964 0.94496 0.0
H2255 H 0.0654 0.37592 0.94964 0.0
H2256 H 0.06477 0.40121 0.96083 0.0
H2257 H 0.06906 0.38968 0.99339 0.0
H2258 H 0.06991 0.36433 0.98229 0.0
H2259 H 0.05129 0.37 0.99967 0.0
H2260 H 0.97748 0.35175 0.96659 0.0
H2261 H 0.98513 0.3198 0.94901 0.0
H2262 H 0.05047 0.34027 0.95363 0.0
C2263 C 0.03247 0.41371 0.98709 0.0
C2264 C 0.01571 0.42463 0.99266 0.0
C2265 C 0.9956 0.41463 0.99168 0.0
C2266 C 0.99209 0.39423 0.98458 0.0
C2267 C 0.0089 0.38401 0.97877 0.0
C2268 C 0.02874 0.39335 0.98021 0.0
C2269 C 0.04403 0.3792 0.97242 0.0
C2270 C 0.05515 0.38696 0.95599 0.0
C2271 C 0.05948 0.37559 0.98786 0.0
C2272 C 0.02963 0.36059 0.96584 0.0
C2273 C 0.00945 0.36366 0.96967 0.0
C2274 C 0.99328 0.34904 0.9639 0.0
C2275 C 0.99785 0.33081 0.95399 0.0
C2276 C 0.01848 0.3272 0.95 0.0
C2277 C 0.03452 0.34239 0.95624 0.0
H2278 H 0.71082 0.78902 0.30668 0.0
H2279 H 0.70432 0.74806 0.25479 0.0
H2280 H 0.66873 0.73679 0.26245 0.0
H2281 H 0.68587 0.75716 0.33453 0.0
H2282 H 0.67354 0.77631 0.34858 0.0
H2283 H 0.69742 0.78263 0.33802 0.0
H2284 H 0.68049 0.80922 0.32166 0.0
H2285 H 0.65658 0.80314 0.33235 0.0
H2286 H 0.65716 0.80202 0.3073 0.0
H2287 H 0.63514 0.72763 0.27773 0.0
H2288 H 0.60602 0.72267 0.29813 0.0
H2289 H 0.63467 0.77044 0.33959 0.0
C2290 C 0.70181 0.77785 0.2968 0.0
C2291 C 0.71032 0.76935 0.28016 0.0
C2292 C 0.69801 0.75489 0.26753 0.0
C2293 C 0.67785 0.74834 0.27183 0.0
C2294 C 0.67019 0.75661 0.28868 0.0
C2295 C 0.68175 0.77125 0.30083 0.0
C2296 C 0.67044 0.77719 0.3184 0.0
C2297 C 0.68254 0.77307 0.33591 0.0
C2298 C 0.66589 0.7992 0.32001 0.0
C2299 C 0.65087 0.76325 0.31451 0.0
C2300 C 0.65093 0.75155 0.29729 0.0
C2301 C 0.63482 0.73696 0.2911 0.0
C2302 C 0.61828 0.73431 0.30279 0.0
C2303 C 0.61789 0.74619 0.32052 0.0
C2304 C 0.63446 0.76093 0.32627 0.0
H2305 H 0.04676 0.11811 0.0332 0.0
H2306 H 0.0974 0.08399 0.01537 0.0
H2307 H 0.09566 0.09627 0.98455 0.0
H2308 H 0.0183 0.11093 0.98689 0.0
H2309 H 0.01012 0.13579 0.99061 0.0
H2310 H 0.01418 0.12258 0.01026 0.0
H2311 H 0.03969 0.15216 0.02581 0.0
H2312 H 0.03595 0.16532 1.00614 0.0
H2313 H 0.06155 0.16042 0.01323 0.0
H2314 H 0.0912 0.11615 0.95745 0.0
H2315 H 0.08269 0.13922 0.93542 0.0
H2316 H 0.03302 0.15825 0.97027 0.0
C2317 C 0.05718 0.11289 0.02263 0.0
C2318 C 0.0722 0.10009 0.02656 0.0
C2319 C 0.08566 0.09363 0.0125 0.0
C2320 C 0.08482 0.10061 0.99503 0.0
C2321 C 0.07019 0.11373 0.99179 0.0
C2322 C 0.05634 0.11948 1.00511 0.0
C2323 C 0.04259 0.13423 0.99852 0.0
C2324 C 0.01996 0.12535 0.99644 0.0
C2325 C 0.04511 0.15421 0.01171 0.0
C2326 C 0.05129 0.13647 0.97966 0.0
C2327 C 0.06717 0.12453 0.97599 0.0
C2328 C 0.07846 0.12519 0.95999 0.0
C2329 C 0.07337 0.13833 0.94746 0.0
C2330 C 0.057 0.15064 0.95083 0.0
C2331 C 0.04575 0.14935 0.96715 0.0
H2332 H 0.36432 0.31102 0.28968 0.0
H2333 H 0.33555 0.25006 0.27912 0.0
H2334 H 0.35816 0.24278 0.25287 0.0
H2335 H 0.37095 0.317 0.24017 0.0
H2336 H 0.39549 0.33163 0.24498 0.0
H2337 H 0.37634 0.33248 0.26244 0.0
H2338 H 0.40264 0.32236 0.28625 0.0
H2339 H 0.42184 0.32142 0.26887 0.0
H2340 H 0.41516 0.29985 0.2803 0.0
H2341 H 0.38523 0.24123 0.22932 0.0
H2342 H 0.41467 0.24583 0.20918 0.0
H2343 H 0.42545 0.30807 0.23366 0.0
C2344 C 0.3625 0.29625 0.28164 0.0
C2345 C 0.34817 0.28108 0.2866 0.0
C2346 C 0.34658 0.26185 0.27584 0.0
C2347 C 0.35927 0.2576 0.26079 0.0
C2348 C 0.37341 0.27276 0.25648 0.0
C2349 C 0.37504 0.29174 0.26647 0.0
C2350 C 0.39204 0.3051 0.2592 0.0
C2351 C 0.38317 0.32259 0.25122 0.0
C2352 C 0.40892 0.31262 0.27457 0.0
C2353 C 0.39992 0.29053 0.24381 0.0
C2354 C 0.38887 0.27197 0.24251 0.0
C2355 C 0.39383 0.25574 0.23005 0.0
C2356 C 0.4106 0.25847 0.21872 0.0
C2357 C 0.4222 0.2773 0.2198 0.0
C2358 C 0.41661 0.2936 0.23236 0.0
H2359 H 0.53589 0.38628 0.01067 0.0
H2360 H 0.58278 0.43273 0.03545 0.0
H2361 H 0.57846 0.42098 0.06621 0.0
H2362 H 0.5034 0.38563 0.05069 0.0
H2363 H 0.49796 0.35883 0.04655 0.0
H2364 H 0.50307 0.3725 0.02722 0.0
H2365 H 0.53244 0.35042 0.01758 0.0
H2366 H 0.52747 0.33673 0.03688 0.0
H2367 H 0.55294 0.34855 0.03446 0.0
H2368 H 0.57038 0.4022 0.0941 0.0
H2369 H 0.56017 0.378 0.11573 0.0
H2370 H 0.52021 0.34312 0.07169 0.0
C2371 C 0.54532 0.39408 0.0225 0.0
C2372 C 0.55979 0.41044 0.02048 0.0
C2373 C 0.57142 0.42034 0.03656 0.0
C2374 C 0.56914 0.41368 0.0541 0.0
C2375 C 0.55515 0.39712 0.05539 0.0
C2376 C 0.54344 0.3875 0.03995 0.0
C2377 C 0.53047 0.36928 0.04453 0.0
C2378 C 0.50736 0.37172 0.04211 0.0
C2379 C 0.53618 0.35012 0.03266 0.0
C2380 C 0.53694 0.36985 0.06493 0.0
C2381 C 0.55095 0.38615 0.07108 0.0
C2382 C 0.55932 0.38948 0.08941 0.0
C2383 C 0.55339 0.3757 0.10163 0.0
C2384 C 0.53943 0.35864 0.09541 0.0
C2385 C 0.53101 0.35592 0.07684 0.0
H2386 H 0.70478 0.27793 0.25221 0.0
H2387 H 0.69559 0.21788 0.26683 0.0
H2388 H 0.65952 0.21504 0.25438 0.0
H2389 H 0.65259 0.29224 0.26129 0.0
H2390 H 0.65197 0.30585 0.24154 0.0
H2391 H 0.67616 0.30398 0.2537 0.0
H2392 H 0.69102 0.28929 0.22251 0.0
H2393 H 0.66688 0.29099 0.21028 0.0
H2394 H 0.67772 0.26733 0.20888 0.0
H2395 H 0.62537 0.21767 0.23759 0.0
H2396 H 0.59575 0.22587 0.21885 0.0
H2397 H 0.62805 0.28363 0.214 0.0
C2398 C 0.69517 0.26422 0.25298 0.0
C2399 C 0.7031 0.24812 0.26054 0.0
C2400 C 0.68985 0.23055 0.2614 0.0
C2401 C 0.66935 0.22875 0.25424 0.0
C2402 C 0.66228 0.24468 0.24634 0.0
C2403 C 0.67477 0.26214 0.24581 0.0
C2404 C 0.66392 0.27662 0.2356 0.0
C2405 C 0.66098 0.29581 0.24883 0.0
C2406 C 0.67558 0.28132 0.21829 0.0
C2407 C 0.64351 0.26442 0.23007 0.0
C2408 C 0.64278 0.24611 0.23652 0.0
C2409 C 0.62575 0.23202 0.23258 0.0
C2410 C 0.60906 0.23676 0.22177 0.0
C2411 C 0.60951 0.2554 0.21488 0.0
C2412 C 0.62701 0.26939 0.21926 0.0
H2413 H 0.46935 0.12157 1.00677 0.0
H2414 H 0.48691 0.07313 0.03548 0.0
H2415 H 0.49639 0.09722 0.06416 0.0
H2416 H 0.5088 0.15913 0.02753 0.0
H2417 H 0.49213 0.17904 0.02926 0.0
H2418 H 0.48719 0.15802 0.01106 0.0
H2419 H 0.45009 0.15152 0.02214 0.0
H2420 H 0.45491 0.17252 0.04037 0.0
H2421 H 0.44634 0.1482 0.04618 0.0
H2422 H 0.50517 0.12706 0.08927 0.0
H2423 H 0.50991 0.15978 0.10963 0.0
H2424 H 0.4846 0.18821 0.06491 0.0
C2425 C 0.4753 0.11609 0.01909 0.0
C2426 C 0.47763 0.09557 0.01895 0.0
C2427 C 0.48508 0.08882 0.03538 0.0
C2428 C 0.49053 0.10239 0.05166 0.0
C2429 C 0.48814 0.12258 0.05131 0.0
C2430 C 0.48047 0.12935 0.03551 0.0
C2431 C 0.47875 0.15166 0.03892 0.0
C2432 C 0.49255 0.1626 0.02592 0.0
C2433 C 0.45618 0.15623 0.03678 0.0
C2434 C 0.48679 0.15645 0.05909 0.0
C2435 C 0.49233 0.13952 0.06595 0.0
C2436 C 0.50075 0.14037 0.08408 0.0
C2437 C 0.50346 0.15898 0.0955 0.0
C2438 C 0.49751 0.17641 0.08883 0.0
C2439 C 0.48905 0.17505 0.0704 0.0
H2440 H 0.28921 0.35177 0.73707 0.0
H2441 H 0.32935 0.31715 0.70155 0.0
H2442 H 0.35526 0.34634 0.70459 0.0
H2443 H 0.30304 0.40003 0.721 0.0
H2444 H 0.30212 0.41387 0.74406 0.0
H2445 H 0.28586 0.39085 0.73763 0.0
H2446 H 0.30096 0.37679 0.76623 0.0
H2447 H 0.31731 0.39969 0.77269 0.0
H2448 H 0.32847 0.37619 0.76906 0.0
H2449 H 0.37792 0.37834 0.71338 0.0
H2450 H 0.39538 0.41126 0.7266 0.0
H2451 H 0.34106 0.4249 0.75721 0.0
C2452 C 0.30337 0.35035 0.7298 0.0
C2453 C 0.30711 0.33213 0.71894 0.0
C2454 C 0.32586 0.331 0.70962 0.0
C2455 C 0.34077 0.34748 0.71137 0.0
C2456 C 0.33673 0.36504 0.72247 0.0
C2457 C 0.31846 0.36663 0.73145 0.0
C2458 C 0.31835 0.3869 0.74324 0.0
C2459 C 0.30133 0.3986 0.73605 0.0
C2460 C 0.31615 0.38475 0.76403 0.0
C2461 C 0.33959 0.39633 0.73975 0.0
C2462 C 0.34988 0.38349 0.72765 0.0
C2463 C 0.36997 0.38856 0.72278 0.0
C2464 C 0.37982 0.40724 0.73049 0.0
C2465 C 0.36964 0.42066 0.743 0.0
C2466 C 0.34917 0.4151 0.74753 0.0
H2467 H 0.28202 0.65805 0.80234 0.0
H2468 H 0.32204 0.70634 0.83436 0.0
H2469 H 0.34947 0.68377 0.83543 0.0
H2470 H 0.30023 0.61696 0.82406 0.0
H2471 H 0.2988 0.60026 0.8023 0.0
H2472 H 0.28149 0.61955 0.80583 0.0
H2473 H 0.29369 0.63294 0.77571 0.0
H2474 H 0.31111 0.61378 0.77213 0.0
H2475 H 0.32079 0.63969 0.77342 0.0
H2476 H 0.37348 0.65649 0.8314 0.0
H2477 H 0.39214 0.62681 0.82228 0.0
H2478 H 0.33725 0.5969 0.7914 0.0
C2479 C 0.2965 0.66397 0.80964 0.0
C2480 C 0.29964 0.6841 0.81837 0.0
C2481 C 0.31889 0.69095 0.82792 0.0
C2482 C 0.33471 0.67826 0.82847 0.0
C2483 C 0.33119 0.65872 0.81934 0.0
C2484 C 0.31256 0.6516 0.8101 0.0
C2485 C 0.31312 0.63035 0.80047 0.0
C2486 C 0.29748 0.61593 0.80866 0.0
C2487 C 0.30946 0.62913 0.77917 0.0
C2488 C 0.33509 0.62671 0.80553 0.0
C2489 C 0.34518 0.64319 0.81659 0.0
C2490 C 0.36568 0.64347 0.82284 0.0
C2491 C 0.37613 0.6265 0.81765 0.0
C2492 C 0.36617 0.60948 0.80616 0.0
C2493 C 0.34534 0.60969 0.80009 0.0
H2494 H 0.93372 0.50836 0.4814 0.0
H2495 H 0.91112 0.56182 0.51051 0.0
H2496 H 0.88194 0.54125 0.52129 0.0
H2497 H 0.88422 0.48282 0.46583 0.0
H2498 H 0.89127 0.45845 0.46927 0.0
H2499 H 0.91066 0.47727 0.46401 0.0
H2500 H 0.93207 0.47344 0.49397 0.0
H2501 H 0.91277 0.45456 0.49929 0.0
H2502 H 0.92023 0.47627 0.51626 0.0
H2503 H 0.8546 0.51529 0.52791 0.0
H2504 H 0.83146 0.4854 0.53117 0.0
H2505 H 0.87227 0.44826 0.49888 0.0
C2506 C 0.92261 0.51571 0.49004 0.0
C2507 C 0.92475 0.53669 0.4952 0.0
C2508 C 0.90997 0.54575 0.50661 0.0
C2509 C 0.89327 0.53421 0.51271 0.0
C2510 C 0.89158 0.5136 0.50736 0.0
C2511 C 0.90589 0.50438 0.49638 0.0
C2512 C 0.90046 0.48192 0.49275 0.0
C2513 C 0.89641 0.4747 0.47172 0.0
C2514 C 0.91739 0.4709 0.50107 0.0
C2515 C 0.8808 0.48002 0.50329 0.0
C2516 C 0.87596 0.4985 0.51155 0.0
C2517 C 0.85835 0.5007 0.52171 0.0
C2518 C 0.84537 0.48354 0.5236 0.0
C2519 C 0.85009 0.46431 0.51554 0.0
C2520 C 0.86808 0.46266 0.50518 0.0
H2521 H 0.76259 0.87867 0.82867 0.0
H2522 H 0.78995 0.85012 0.77932 0.0
H2523 H 0.765 0.86416 0.75925 0.0
H2524 H 0.70909 0.87321 0.80967 0.0
H2525 H 0.704 0.8973 0.82152 0.0
H2526 H 0.72248 0.88317 0.83166 0.0
H2527 H 0.75028 0.91324 0.83307 0.0
H2528 H 0.73194 0.9274 0.82287 0.0
H2529 H 0.75604 0.9237 0.81197 0.0
H2530 H 0.73897 0.88437 0.74477 0.0
H2531 H 0.71362 0.9075 0.73725 0.0
H2532 H 0.70428 0.92303 0.79645 0.0
C2533 C 0.76323 0.87517 0.81363 0.0
C2534 C 0.77829 0.86334 0.80556 0.0
C2535 C 0.77844 0.85898 0.78582 0.0
C2536 C 0.76439 0.86698 0.77433 0.0
C2537 C 0.75016 0.87913 0.78281 0.0
C2538 C 0.7494 0.88301 0.80204 0.0
C2539 C 0.73346 0.89728 0.80783 0.0
C2540 C 0.71624 0.88713 0.81829 0.0
C2541 C 0.74354 0.91654 0.81963 0.0
C2542 C 0.72562 0.90124 0.78887 0.0
C2543 C 0.73531 0.89058 0.77457 0.0
C2544 C 0.73117 0.89261 0.75588 0.0
C2545 C 0.71684 0.90589 0.75175 0.0
C2546 C 0.70681 0.91702 0.76623 0.0
C2547 C 0.71127 0.91446 0.785 0.0
H2548 H 0.61212 0.53166 0.98275 0.0
H2549 H 0.63665 0.47401 0.98108 0.0
H2550 H 0.67174 0.49098 0.98684 0.0
H2551 H 0.65204 0.55347 0.95752 0.0
H2552 H 0.65254 0.57805 0.97073 0.0
H2553 H 0.62906 0.56158 0.96818 0.0
H2554 H 0.62693 0.56504 1.00422 0.0
H2555 H 0.65035 0.58163 1.00688 0.0
H2556 H 0.64853 0.55949 0.01822 0.0
H2557 H 0.70448 0.51407 0.99119 0.0
H2558 H 0.73235 0.54164 0.99411 0.0
H2559 H 0.68681 0.58422 0.99172 0.0
C2560 C 0.62481 0.52254 0.98363 0.0
C2561 C 0.62141 0.5014 0.98159 0.0
C2562 C 0.63861 0.49018 0.98302 0.0
C2563 C 0.6587 0.4997 0.98612 0.0
C2564 C 0.66147 0.52047 0.98769 0.0
C2565 C 0.645 0.53177 0.98653 0.0
C2566 C 0.65227 0.55383 0.98795 0.0
C2567 C 0.64611 0.56222 0.97002 0.0
C2568 C 0.64403 0.56569 1.00535 0.0
C2569 C 0.67541 0.55315 0.98992 0.0
C2570 C 0.68037 0.53377 0.98985 0.0
C2571 C 0.70076 0.52932 0.99138 0.0
C2572 C 0.71649 0.5451 0.9931 0.0
C2573 C 0.71181 0.56512 0.99321 0.0
C2574 C 0.69093 0.56909 0.99153 0.0
H2575 H 0.28861 0.67219 0.25319 0.0
H2576 H 0.27253 0.68441 0.19733 0.0
H2577 H 0.24532 0.65615 0.19384 0.0
H2578 H 0.28118 0.61819 0.24273 0.0
H2579 H 0.27071 0.61513 0.26506 0.0
H2580 H 0.28899 0.63619 0.26303 0.0
H2581 H 0.26306 0.66031 0.27698 0.0
H2582 H 0.24468 0.63934 0.27902 0.0
H2583 H 0.23754 0.65886 0.26616 0.0
H2584 H 0.21953 0.62678 0.19667 0.0
H2585 H 0.1973 0.59841 0.20546 0.0
H2586 H 0.23051 0.60527 0.25939 0.0
C2587 C 0.27959 0.66877 0.24009 0.0
C2588 C 0.28278 0.68052 0.22549 0.0
C2589 C 0.27028 0.67576 0.20877 0.0
C2590 C 0.25485 0.65967 0.20662 0.0
C2591 C 0.25212 0.64846 0.22132 0.0
C2592 C 0.26418 0.65278 0.23771 0.0
C2593 C 0.25795 0.63859 0.25148 0.0
C2594 C 0.27577 0.6263 0.25582 0.0
C2595 C 0.25035 0.64996 0.26947 0.0
C2596 C 0.24046 0.62561 0.24029 0.0
C2597 C 0.23733 0.63155 0.22294 0.0
C2598 C 0.22185 0.622 0.21023 0.0
C2599 C 0.20921 0.60597 0.2154 0.0
C2600 C 0.2121 0.59962 0.23313 0.0
C2601 C 0.22804 0.6096 0.24566 0.0
H2602 H 0.94294 0.52007 0.05701 0.0
H2603 H 0.99555 0.5472 0.03139 0.0
H2604 H 0.97494 0.57409 0.02365 0.0
H2605 H 0.90571 0.52866 0.02297 0.0
H2606 H 0.88578 0.53387 0.03914 0.0
H2607 H 0.90509 0.51785 0.04444 0.0
H2608 H 0.9147 0.54051 0.07593 0.0
H2609 H 0.89528 0.55653 0.07079 0.0
H2610 H 0.92161 0.56686 0.07604 0.0
H2611 H 0.9484 0.59698 0.01731 0.0
H2612 H 0.91743 0.61432 0.01232 0.0
H2613 H 0.88131 0.57205 0.04117 0.0
C2614 C 0.95016 0.53195 0.05014 0.0
C2615 C 0.97086 0.53179 0.04496 0.0
C2616 C 0.97973 0.54722 0.03555 0.0
C2617 C 0.96816 0.56252 0.03112 0.0
C2618 C 0.94767 0.56211 0.03607 0.0
C2619 C 0.93869 0.54725 0.04537 0.0
C2620 C 0.91601 0.54971 0.04804 0.0
C2621 C 0.90235 0.53144 0.03805 0.0
C2622 C 0.91165 0.55364 0.06894 0.0
C2623 C 0.91362 0.5681 0.0386 0.0
C2624 C 0.93214 0.57509 0.03197 0.0
C2625 C 0.93384 0.59174 0.02256 0.0
C2626 C 0.91617 0.60153 0.01985 0.0
C2627 C 0.89693 0.59462 0.0264 0.0
C2628 C 0.89574 0.57763 0.03589 0.0
H2629 H 0.12654 0.0209 0.06386 0.0
H2630 H 0.07259 0.97786 0.05996 0.0
H2631 H 0.09397 0.9508 0.0489 0.0
H2632 H 0.15102 0.99733 0.02234 0.0
H2633 H 0.17667 1.00299 0.03296 0.0
H2634 H 0.1569 0.01918 0.03953 0.0
H2635 H 0.16344 0.01494 0.07427 0.0
H2636 H 0.18309 0.99861 0.0678 0.0
H2637 H 0.16174 0.99019 0.0809 0.0
H2638 H 0.12137 0.92811 0.04014 0.0
H2639 H 0.1528 0.91136 0.03338 0.0
H2640 H 0.18915 0.96904 0.04187 0.0
C2641 C 0.11917 1.00585 0.06033 0.0
C2642 C 0.09786 1.00152 0.06283 0.0
C2643 C 0.0889 0.98153 0.05835 0.0
C2644 C 0.1009 0.96606 0.05198 0.0
C2645 C 0.12189 0.97075 0.05005 0.0
C2646 C 0.13096 0.99016 0.05395 0.0
C2647 C 0.15401 0.99098 0.05124 0.0
C2648 C 0.16 1.00335 0.03558 0.0
C2649 C 0.16629 0.99916 0.06965 0.0
C2650 C 0.15648 0.96899 0.04546 0.0
C2651 C 0.13773 0.95762 0.0448 0.0
C2652 C 0.13611 0.93689 0.04036 0.0
C2653 C 0.1541 0.92751 0.03642 0.0
C2654 C 0.17357 0.93879 0.03689 0.0
C2655 C 0.17462 0.95987 0.04147 0.0
loop_
_geom_bond_atom_site_label_1
_geom_bond_atom_site_label_2
_geom_bond_distance
_geom_bond_site_symmetry_2
_ccdc_geom_bond_type
H0 C1 0.949 . S
C1 H0 0.949 . S
C1 C2 1.395 . S
C1 C3 1.391 . S
C2 C1 1.395 . S
C2 C5 1.390 . S
C3 C1 1.391 . S
C3 C7 1.387 . S
C3 C8 1.491 . S
H4 C5 0.976 . S
C5 C2 1.390 . S
C5 H4 0.976 . S
C5 C6 1.378 . S
C6 C5 1.378 . S
C6 C7 1.409 . S
C7 C3 1.387 . S
C7 C6 1.409 . S
C7 H9 0.951 . S
C8 C3 1.491 . S
C8 C10 1.382 . S
C8 C12 1.404 . S
H9 C7 0.951 . S
C10 C8 1.382 . S
C10 C11 1.390 . S
C10 H15 0.949 . S
C11 C10 1.390 . S
C11 C16 1.399 . S
C12 C8 1.404 . S
C12 H13 0.950 . S
C12 C14 1.375 . S
H13 C12 0.950 . S
C14 C12 1.375 . S
C14 C16 1.382 . S
C14 H18 0.950 . S
H15 C10 0.949 . S
C16 C11 1.399 . S
C16 C14 1.382 . S
C16 H17 0.952 . S
H17 C16 0.952 . S
H18 C14 0.950 . S
H19 C20 0.949 . S
C20 H19 0.949 . S
C20 C21 1.395 . S
C20 C22 1.391 . S
C21 C20 1.395 . S
C21 C24 1.390 . S
C22 C20 1.391 . S
C22 C26 1.387 . S
C22 C27 1.491 . S
H23 C24 0.950 . S
C24 C21 1.390 . S
C24 H23 0.950 . S
C24 C25 1.378 . S
C25 C24 1.378 . S
C25 C26 1.409 . S
C26 C22 1.387 . S
C26 C25 1.409 . S
C26 H28 0.951 . S
C27 C22 1.491 . S
C27 C29 1.382 . S
C27 C31 1.404 . S
H28 C26 0.951 . S
C29 C27 1.382 . S
C29 C30 1.390 . S
C29 H34 0.949 . S
C30 C29 1.390 . S
C30 C35 1.399 . S
C31 C27 1.404 . S
C31 H32 0.950 . S
C31 C33 1.375 . S
H32 C31 0.950 . S
C33 C31 1.375 . S
C33 C35 1.382 . S
C33 H37 0.950 . S
H34 C29 0.949 . S
C35 C30 1.399 . S
C35 C33 1.382 . S
C35 H36 0.952 . S
H36 C35 0.952 . S
H37 C33 0.950 . S
H38 C39 0.949 . S
C39 H38 0.949 . S
C39 C40 1.395 . S
C39 C41 1.391 1_455 S
C40 C39 1.395 . S
C40 C43 1.390 1_455 S
C41 C39 1.391 1_655 S
C41 C45 1.387 . S
C41 C46 1.487 1_654 S
H42 C43 0.950 . S
C43 C40 1.390 1_655 S
C43 H42 0.950 . S
C43 C44 1.378 . S
C44 C43 1.378 . S
C44 C45 1.409 . S
C45 C41 1.387 . S
C45 C44 1.409 . S
C45 H47 0.951 1_554 S
C46 C41 1.487 1_456 S
C46 C48 1.386 . S
C46 C50 1.404 . S
H47 C45 0.951 1_556 S
C48 C46 1.386 . S
C48 C49 1.390 . S
C48 H53 0.949 1_556 S
C49 C48 1.390 . S
C49 C54 1.399 . S
C50 C46 1.404 . S
C50 H51 0.949 1_455 S
C50 C52 1.376 . S
H51 C50 0.949 1_655 S
C52 C50 1.376 . S
C52 C54 1.382 . S
C52 H56 0.950 . S
H53 C48 0.949 1_554 S
C54 C49 1.399 . S
C54 C52 1.382 . S
C54 H55 0.952 . S
H55 C54 0.952 . S
H56 C52 0.950 . S
H57 C58 0.949 . S
C58 H57 0.949 . S
C58 C59 1.395 . S
C58 C60 1.391 . S
C59 C58 1.395 . S
C59 C62 1.390 . S
C60 C58 1.391 . S
C60 C64 1.387 . S
C60 C65 1.491 . S
H61 C62 0.950 . S
C62 C59 1.390 . S
C62 H61 0.950 . S
C62 C63 1.378 . S
C63 C62 1.378 . S
C63 C64 1.409 . S
C64 C60 1.387 . S
C64 C63 1.409 . S
C64 H66 0.951 . S
C65 C60 1.491 . S
C65 C67 1.382 . S
C65 C69 1.404 . S
H66 C64 0.951 . S
C67 C65 1.382 . S
C67 C68 1.390 . S
C67 H72 0.949 . S
C68 C67 1.390 . S
C68 C73 1.399 . S
C69 C65 1.404 . S
C69 H70 0.950 . S
C69 C71 1.375 . S
H70 C69 0.950 . S
C71 C69 1.375 . S
C71 C73 1.382 . S
C71 H75 0.950 . S
H72 C67 0.949 . S
C73 C68 1.399 . S
C73 C71 1.382 . S
C73 H74 0.952 . S
H74 C73 0.952 . S
H75 C71 0.950 . S
H76 C77 0.949 . S
C77 H76 0.949 . S
C77 C78 1.395 . S
C77 C79 1.391 . S
C78 C77 1.395 . S
C78 C81 1.390 . S
C79 C77 1.391 . S
C79 C83 1.387 . S
C79 C84 1.491 . S
H80 C81 0.950 1_545 S
C81 C78 1.390 . S
C81 H80 0.950 1_565 S
C81 C82 1.378 . S
C82 C81 1.378 . S
C82 C83 1.409 . S
C83 C79 1.387 . S
C83 C82 1.409 . S
C83 H85 0.951 . S
C84 C79 1.491 . S
C84 C86 1.382 . S
C84 C88 1.404 . S
H85 C83 0.951 . S
C86 C84 1.382 . S
C86 C87 1.390 . S
C86 H91 0.949 . S
C87 C86 1.390 . S
C87 C92 1.399 . S
C88 C84 1.404 . S
C88 H89 0.950 . S
C88 C90 1.375 . S
H89 C88 0.950 . S
C90 C88 1.375 . S
C90 C92 1.382 . S
C90 H94 0.950 . S
H91 C86 0.949 . S
C92 C87 1.399 . S
C92 C90 1.382 . S
C92 H93 0.952 . S
H93 C92 0.952 . S
H94 C90 0.950 . S
H95 C96 0.949 . S
C96 H95 0.949 . S
C96 C97 1.395 . S
C96 C98 1.391 . S
C97 C96 1.395 . S
C97 C100 1.390 . S
C98 C96 1.391 . S
C98 C102 1.387 . S
C98 C103 1.491 . S
H99 C100 0.950 . S
C100 C97 1.390 . S
C100 H99 0.950 . S
C100 C101 1.378 . S
C101 C100 1.378 . S
C101 C102 1.409 . S
C102 C98 1.387 . S
C102 C101 1.409 . S
C102 H104 0.951 . S
C103 C98 1.491 . S
C103 C105 1.382 . S
C103 C107 1.404 . S
H104 C102 0.951 . S
C105 C103 1.382 . S
C105 C106 1.390 . S
C105 H110 0.949 . S
C106 C105 1.390 . S
C106 C111 1.399 . S
C107 C103 1.404 . S
C107 H108 0.950 . S
C107 C109 1.375 . S
H108 C107 0.950 . S
C109 C107 1.375 . S
C109 C111 1.382 . S
C109 H113 0.950 . S
H110 C105 0.949 . S
C111 C106 1.399 . S
C111 C109 1.382 . S
C111 H112 0.952 . S
H112 C111 0.952 . S
H113 C109 0.950 . S
H114 C115 0.949 . S
C115 H114 0.949 . S
C115 C116 1.395 . S
C115 C117 1.391 . S
C116 C115 1.395 . S
C116 C119 1.390 . S
C117 C115 1.391 . S
C117 C121 1.387 . S
C117 C122 1.491 . S
H118 C119 0.950 . S
C119 C116 1.390 . S
C119 H118 0.950 . S
C119 C120 1.378 . S
C120 C119 1.378 . S
C120 C121 1.409 . S
C121 C117 1.387 . S
C121 C120 1.409 . S
C121 H123 0.951 . S
C122 C117 1.491 . S
C122 C124 1.382 . S
C122 C126 1.404 . S
H123 C121 0.951 . S
C124 C122 1.382 . S
C124 C125 1.390 1_655 S
C124 H129 0.949 1_655 S
C125 C124 1.390 1_455 S
C125 C130 1.399 1_455 S
C126 C122 1.404 . S
C126 H127 0.950 . S
C126 C128 1.375 . S
H127 C126 0.950 . S
C128 C126 1.375 . S
C128 C130 1.382 . S
C128 H132 0.950 . S
H129 C124 0.949 1_455 S
C130 C125 1.399 1_655 S
C130 C128 1.382 . S
C130 H131 0.952 . S
H131 C130 0.952 . S
H132 C128 0.950 . S
H133 C134 0.949 . S
C134 H133 0.949 . S
C134 C135 1.395 . S
C134 C136 1.391 . S
C135 C134 1.395 . S
C135 C138 1.390 . S
C136 C134 1.391 . S
C136 C140 1.387 . S
C136 C141 1.491 . S
H137 C138 0.950 . S
C138 C135 1.390 . S
C138 H137 0.950 . S
C138 C139 1.378 . S
C139 C138 1.378 . S
C139 C140 1.409 . S
C140 C136 1.387 . S
C140 C139 1.409 . S
C140 H142 0.951 . S
C141 C136 1.491 . S
C141 C143 1.382 . S
C141 C145 1.404 . S
H142 C140 0.951 . S
C143 C141 1.382 . S
C143 C144 1.390 . S
C143 H148 0.949 . S
C144 C143 1.390 . S
C144 C149 1.399 . S
C145 C141 1.404 . S
C145 H146 0.950 . S
C145 C147 1.375 . S
H146 C145 0.950 . S
C147 C145 1.375 . S
C147 C149 1.382 . S
C147 H151 0.950 . S
H148 C143 0.949 . S
C149 C144 1.399 . S
C149 C147 1.382 . S
C149 H150 0.952 . S
H150 C149 0.952 . S
H151 C147 0.950 . S
H152 C153 0.949 . S
C153 H152 0.949 . S
C153 C154 1.395 . S
C153 C155 1.391 . S
C154 C153 1.395 . S
C154 C157 1.390 . S
C155 C153 1.391 . S
C155 C159 1.387 . S
C155 C160 1.491 . S
H156 C157 0.950 . S
C157 C154 1.390 . S
C157 H156 0.950 . S
C157 C158 1.378 . S
C158 C157 1.378 . S
C158 C159 1.409 . S
C159 C155 1.387 . S
C159 C158 1.409 . S
C159 H161 0.951 . S
C160 C155 1.491 . S
C160 C162 1.382 . S
C160 C164 1.404 . S
H161 C159 0.951 . S
C162 C160 1.382 . S
C162 C163 1.390 . S
C162 H167 0.949 . S
C163 C162 1.390 . S
C163 C168 1.399 . S
C164 C160 1.404 . S
C164 H165 0.950 . S
C164 C166 1.375 . S
H165 C164 0.950 . S
C166 C164 1.375 . S
C166 C168 1.382 . S
C166 H170 0.950 . S
H167 C162 0.949 . S
C168 C163 1.399 . S
C168 C166 1.382 . S
C168 H169 0.952 . S
H169 C168 0.952 . S
H170 C166 0.950 . S
H171 C172 0.949 . S
C172 H171 0.949 . S
C172 C173 1.395 . S
C172 C174 1.391 . S
C173 C172 1.395 . S
C173 C176 1.390 . S
C174 C172 1.391 . S
C174 C178 1.387 . S
C174 C179 1.491 . S
H175 C176 0.950 1_545 S
C176 C173 1.390 . S
C176 H175 0.950 1_565 S
C176 C177 1.390 . S
C177 C176 1.390 . S
C177 C178 1.447 . S
C178 C174 1.387 . S
C178 C177 1.447 . S
C178 H180 0.951 . S
C179 C174 1.491 . S
C179 C181 1.382 . S
C179 C183 1.404 . S
H180 C178 0.951 . S
C181 C179 1.382 . S
C181 C182 1.390 . S
C181 H186 0.949 . S
C182 C181 1.390 . S
C182 C187 1.399 . S
C183 C179 1.404 . S
C183 H184 0.950 . S
C183 C185 1.375 . S
H184 C183 0.950 . S
C185 C183 1.375 . S
C185 C187 1.382 . S
C185 H189 0.950 . S
H186 C181 0.949 . S
C187 C182 1.399 . S
C187 C185 1.382 . S
C187 H188 0.952 . S
H188 C187 0.952 . S
H189 C185 0.950 . S
H190 C191 0.949 . S
C191 H190 0.949 . S
C191 C192 1.395 . S
C191 C193 1.391 . S
C192 C191 1.395 . S
C192 C195 1.390 . S
C193 C191 1.391 . S
C193 C197 1.387 . S
C193 C198 1.491 . S
H194 C195 0.950 . S
C195 C192 1.390 . S
C195 H194 0.950 . S
C195 C196 1.378 . S
C196 C195 1.378 . S
C196 C197 1.409 . S
C197 C193 1.387 . S
C197 C196 1.409 . S
C197 H199 0.951 . S
C198 C193 1.491 . S
C198 C200 1.382 . S
C198 C202 1.404 . S
H199 C197 0.951 . S
C200 C198 1.382 . S
C200 C201 1.390 . S
C200 H205 0.949 . S
C201 C200 1.390 . S
C201 C206 1.399 . S
C202 C198 1.404 . S
C202 H203 0.950 . S
C202 C204 1.375 . S
H203 C202 0.950 . S
C204 C202 1.375 . S
C204 C206 1.382 . S
C204 H208 0.950 . S
H205 C200 0.949 . S
C206 C201 1.399 . S
C206 C204 1.382 . S
C206 H207 0.952 . S
H207 C206 0.952 . S
H208 C204 0.950 . S
H209 C210 0.949 . S
C210 H209 0.949 . S
C210 C211 1.395 . S
C210 C212 1.391 . S
C211 C210 1.395 . S
C211 C214 1.390 . S
C212 C210 1.391 . S
C212 C216 1.387 . S
C212 C217 1.491 . S
H213 C214 0.950 . S
C214 C211 1.390 . S
C214 H213 0.950 . S
C214 C215 1.378 . S
C215 C214 1.378 . S
C215 C216 1.409 . S
C216 C212 1.387 . S
C216 C215 1.409 . S
C216 H218 0.951 . S
C217 C212 1.491 . S
C217 C219 1.382 . S
C217 C221 1.404 . S
H218 C216 0.951 . S
C219 C217 1.382 . S
C219 C220 1.390 . S
C219 H224 0.949 . S
C220 C219 1.390 . S
C220 C225 1.399 . S
C221 C217 1.404 . S
C221 H222 0.950 . S
C221 C223 1.375 . S
H222 C221 0.950 . S
C223 C221 1.375 . S
C223 C225 1.382 . S
C223 H227 0.950 . S
H224 C219 0.949 . S
C225 C220 1.399 . S
C225 C223 1.382 . S
C225 H226 0.952 . S
H226 C225 0.952 . S
H227 C223 0.950 . S
H228 C229 0.949 . S
C229 H228 0.949 . S
C229 C230 1.395 . S
C229 C231 1.391 . S
C230 C229 1.395 . S
C230 C233 1.390 . S
C231 C229 1.391 . S
C231 C235 1.387 . S
C231 C236 1.491 . S
H232 C233 0.950 . S
C233 C230 1.390 . S
C233 H232 0.950 . S
C233 C234 1.378 . S
C234 C233 1.378 . S
C234 C235 1.409 . S
C235 C231 1.387 . S
C235 C234 1.409 . S
C235 H237 0.951 . S
C236 C231 1.491 . S
C236 C238 1.382 . S
C236 C240 1.404 . S
H237 C235 0.951 . S
C238 C236 1.382 . S
C238 C239 1.390 . S
C238 H243 0.949 . S
C239 C238 1.390 . S
C239 C244 1.399 . S
C240 C236 1.404 . S
C240 H241 0.950 . S
C240 C242 1.375 . S
H241 C240 0.950 . S
C242 C240 1.375 . S
C242 C244 1.382 . S
C242 H246 0.950 . S
H243 C238 0.949 . S
C244 C239 1.399 . S
C244 C242 1.382 . S
C244 H245 0.952 . S
H245 C244 0.952 . S
H246 C242 0.950 . S
H247 C248 0.949 1_554 S
C248 H247 0.949 1_556 S
C248 C249 1.395 . S
C248 C250 1.391 . S
C249 C248 1.395 . S
C249 C252 1.390 . S
C250 C248 1.391 . S
C250 C254 1.387 . S
C250 C255 1.491 . S
H251 C252 0.950 . S
C252 C249 1.390 . S
C252 H251 0.950 . S
C252 C253 1.378 . S
C253 C252 1.378 . S
C253 C254 1.409 . S
C254 C250 1.387 . S
C254 C253 1.409 . S
C254 H256 0.951 . S
C255 C250 1.491 . S
C255 C257 1.382 1_556 S
C255 C259 1.404 . S
H256 C254 0.951 . S
C257 C255 1.382 1_554 S
C257 C258 1.390 . S
C257 H262 0.949 . S
C258 C257 1.390 . S
C258 C263 1.399 . S
C259 C255 1.404 . S
C259 H260 0.950 . S
C259 C261 1.375 . S
H260 C259 0.950 . S
C261 C259 1.375 . S
C261 C263 1.382 1_556 S
C261 H265 0.950 . S
H262 C257 0.949 . S
C263 C258 1.399 . S
C263 C261 1.382 1_554 S
C263 H264 0.952 . S
H264 C263 0.952 . S
H265 C261 0.950 . S
H266 C267 0.949 . S
C267 H266 0.949 . S
C267 C268 1.395 . S
C267 C269 1.391 . S
C268 C267 1.395 . S
C268 C271 1.390 . S
C269 C267 1.391 . S
C269 C273 1.387 . S
C269 C274 1.491 . S
H270 C271 0.950 . S
C271 C268 1.390 . S
C271 H270 0.950 . S
C271 C272 1.378 . S
C272 C271 1.378 . S
C272 C273 1.409 . S
C273 C269 1.387 . S
C273 C272 1.409 . S
C273 H275 0.951 . S
C274 C269 1.491 . S
C274 C276 1.382 . S
C274 C278 1.404 . S
H275 C273 0.951 . S
C276 C274 1.382 . S
C276 C277 1.390 . S
C276 H281 0.949 . S
C277 C276 1.390 . S
C277 C282 1.399 . S
C278 C274 1.404 . S
C278 H279 0.950 . S
C278 C280 1.375 . S
H279 C278 0.950 . S
C280 C278 1.375 . S
C280 C282 1.382 . S
C280 H284 0.950 . S
H281 C276 0.949 . S
C282 C277 1.399 . S
C282 C280 1.382 . S
C282 H283 0.952 . S
H283 C282 0.952 . S
H284 C280 0.950 . S
H285 C286 0.949 . S
C286 H285 0.949 . S
C286 C287 1.395 . S
C286 C288 1.391 . S
C287 C286 1.395 . S
C287 C290 1.390 . S
C288 C286 1.391 . S
C288 C292 1.387 . S
C288 C293 1.491 . S
H289 C290 0.950 . S
C290 C287 1.390 . S
C290 H289 0.950 . S
C290 C291 1.378 . S
C291 C290 1.378 . S
C291 C292 1.409 . S
C292 C288 1.387 . S
C292 C291 1.409 . S
C292 H294 0.951 . S
C293 C288 1.491 . S
C293 C295 1.382 . S
C293 C297 1.404 . S
H294 C292 0.951 . S
C295 C293 1.382 . S
C295 C296 1.390 . S
C295 H300 0.949 . S
C296 C295 1.390 . S
C296 C301 1.399 . S
C297 C293 1.404 . S
C297 H298 0.950 . S
C297 C299 1.375 . S
H298 C297 0.950 . S
C299 C297 1.375 . S
C299 C301 1.382 . S
C299 H303 0.950 . S
H300 C295 0.949 . S
C301 C296 1.399 . S
C301 C299 1.382 . S
C301 H302 0.952 . S
H302 C301 0.952 . S
H303 C299 0.950 . S
Li304 N321 1.990 . S
Li304 O364 1.956 . S
Li304 O365 1.970 . S
Li304 O366 1.961 . S
Li305 N329 1.990 . S
Li305 O364 1.970 . S
Li305 O365 1.956 . S
Li305 O367 1.961 . S
Li306 N351 1.990 1_554 S
Li306 O364 1.961 . S
Li306 O366 1.956 . S
Li306 O367 1.970 . S
Li307 N357 1.990 . S
Li307 O365 1.961 . S
Li307 O366 1.970 . S
Li307 O367 1.956 . S
C308 C310 1.348 . S
C308 C311 1.356 . S
C308 O364 1.325 . S
N309 C312 1.314 . S
N309 C313 1.279 . S
C310 C308 1.348 . S
C310 C312 1.353 . S
C310 H368 0.929 . S
C311 C308 1.356 . S
C311 C313 1.358 . S
C311 H369 0.930 . S
C312 N309 1.314 . S
C312 C310 1.353 . S
C312 H370 0.930 . S
C313 N309 1.279 . S
C313 C311 1.358 . S
C313 H371 0.930 1_554 S
C314 C317 1.348 . S
C314 C318 1.356 . S
C314 O365 1.325 . S
C315 N316 1.279 . S
C315 C318 1.358 . S
C315 H372 0.930 . S
N316 C315 1.279 . S
N316 C319 1.314 . S
C317 C314 1.348 . S
C317 C319 1.353 . S
C317 H373 0.929 . S
C318 C314 1.356 . S
C318 C315 1.358 . S
C318 H374 0.930 . S
C319 N316 1.314 . S
C319 C317 1.353 . S
C319 H375 0.930 . S
C320 N321 1.314 . S
C320 C325 1.353 . S
C320 H326 0.930 . S
N321 Li304 1.990 . S
N321 C320 1.314 . S
N321 C323 1.279 . S
C322 C323 1.358 . S
C322 C324 1.356 . S
C322 H376 0.930 . S
C323 N321 1.279 . S
C323 C322 1.358 . S
C323 H327 0.930 . S
C324 C322 1.356 . S
C324 C325 1.348 . S
C325 C320 1.353 . S
C325 C324 1.348 . S
C325 H377 0.929 . S
H326 C320 0.930 . S
H327 C323 0.930 . S
C328 N329 1.314 . S
C328 C330 1.353 . S
C328 H334 0.930 . S
N329 Li305 1.990 . S
N329 C328 1.314 . S
N329 C332 1.279 . S
C330 C328 1.353 . S
C330 C333 1.348 . S
C330 H378 0.929 . S
C331 C332 1.358 . S
C331 C333 1.356 . S
C331 H379 0.930 . S
C332 N329 1.279 . S
C332 C331 1.358 . S
C332 H335 0.930 . S
C333 C330 1.348 . S
C333 C331 1.356 . S
H334 C328 0.930 . S
H335 C332 0.930 . S
C336 C338 1.348 . S
C336 C339 1.356 . S
C336 O366 1.325 1_556 S
N337 C340 1.314 . S
N337 C341 1.279 . S
C338 C336 1.348 . S
C338 C340 1.353 . S
C338 H380 0.929 1_556 S
C339 C336 1.356 . S
C339 C341 1.358 . S
C339 H381 0.930 . S
C340 N337 1.314 . S
C340 C338 1.353 . S
C340 H382 0.930 . S
C341 N337 1.279 . S
C341 C339 1.358 . S
C341 H383 0.930 . S
C342 C343 1.348 . S
C342 C344 1.356 . S
C342 O367 1.325 . S
C343 C342 1.348 . S
C343 C345 1.353 . S
C343 H384 0.929 . S
C344 C342 1.356 . S
C344 C346 1.358 . S
C344 H385 0.930 . S
C345 C343 1.353 . S
C345 N347 1.314 . S
C345 H386 0.930 . S
C346 C344 1.358 . S
C346 N347 1.279 . S
C346 H387 0.930 . S
N347 C345 1.314 . S
N347 C346 1.279 . S
C348 C350 1.353 . S
C348 N351 1.314 . S
C348 H354 0.930 1_556 S
C349 N351 1.279 . S
C349 C352 1.358 . S
C349 H355 0.930 . S
C350 C348 1.353 . S
C350 C353 1.348 . S
C350 H388 0.929 . S
N351 Li306 1.990 1_556 S
N351 C348 1.314 . S
N351 C349 1.279 . S
C352 C349 1.358 . S
C352 C353 1.356 . S
C352 H389 0.930 . S
C353 C350 1.348 . S
C353 C352 1.356 . S
H354 C348 0.930 1_554 S
H355 C349 0.930 . S
C356 N357 1.314 . S
C356 C358 1.353 . S
C356 H362 0.930 . S
N357 Li307 1.990 . S
N357 C356 1.314 . S
N357 C360 1.279 . S
C358 C356 1.353 . S
C358 C361 1.348 . S
C358 H390 0.929 . S
C359 C360 1.358 . S
C359 C361 1.356 . S
C359 H391 0.930 . S
C360 N357 1.279 . S
C360 C359 1.358 . S
C360 H363 0.930 . S
C361 C358 1.348 . S
C361 C359 1.356 . S
H362 C356 0.930 . S
H363 C360 0.930 . S
O364 Li304 1.956 . S
O364 Li305 1.970 . S
O364 Li306 1.961 . S
O364 C308 1.325 . S
O365 Li304 1.970 . S
O365 Li305 1.956 . S
O365 Li307 1.961 . S
O365 C314 1.325 . S
O366 Li304 1.961 . S
O366 Li306 1.956 . S
O366 Li307 1.970 . S
O366 C336 1.325 1_554 S
O367 Li305 1.961 . S
O367 Li306 1.970 . S
O367 Li307 1.956 . S
O367 C342 1.325 . S
H368 C310 0.929 . S
H369 C311 0.930 . S
H370 C312 0.930 . S
H371 C313 0.930 1_556 S
H372 C315 0.930 . S
H373 C317 0.929 . S
H374 C318 0.930 . S
H375 C319 0.930 . S
H376 C322 0.930 . S
H377 C325 0.929 . S
H378 C330 0.929 . S
H379 C331 0.930 . S
H380 C338 0.929 1_554 S
H381 C339 0.930 . S
H382 C340 0.930 . S
H383 C341 0.930 . S
H384 C343 0.929 . S
H385 C344 0.930 . S
H386 C345 0.930 . S
H387 C346 0.930 . S
H388 C350 0.929 . S
H389 C352 0.930 . S
H390 C358 0.929 . S
H391 C359 0.930 . S
Li392 N409 1.990 . S
Li392 O452 1.956 . S
Li392 O453 1.970 . S
Li392 O454 1.961 . S
Li393 N417 1.990 . S
Li393 O452 1.970 . S
Li393 O453 1.956 . S
Li393 O455 1.961 . S
Li394 N439 1.990 . S
Li394 O452 1.961 . S
Li394 O454 1.956 . S
Li394 O455 1.970 . S
Li395 N445 1.990 . S
Li395 O453 1.961 . S
Li395 O454 1.970 . S
Li395 O455 1.956 . S
C396 C398 1.348 . S
C396 C399 1.356 . S
C396 O452 1.325 . S
N397 C400 1.314 . S
N397 C401 1.279 . S
C398 C396 1.348 . S
C398 C400 1.353 . S
C398 H456 0.929 . S
C399 C396 1.356 . S
C399 C401 1.358 . S
C399 H457 0.930 . S
C400 N397 1.314 . S
C400 C398 1.353 . S
C400 H458 0.930 . S
C401 N397 1.279 . S
C401 C399 1.358 . S
C401 H459 0.930 . S
C402 C405 1.348 . S
C402 C406 1.356 . S
C402 O453 1.325 . S
C403 N404 1.279 . S
C403 C406 1.358 . S
C403 H460 0.930 . S
N404 C403 1.279 . S
N404 C407 1.314 . S
C405 C402 1.348 . S
C405 C407 1.353 . S
C405 H461 0.929 . S
C406 C402 1.356 . S
C406 C403 1.358 . S
C406 H462 0.930 . S
C407 N404 1.314 . S
C407 C405 1.353 . S
C407 H463 0.930 . S
C408 N409 1.314 . S
C408 C413 1.353 . S
C408 H414 0.930 . S
N409 Li392 1.990 . S
N409 C408 1.314 . S
N409 C411 1.279 . S
C410 C411 1.358 . S
C410 C412 1.356 . S
C410 H464 0.930 . S
C411 N409 1.279 . S
C411 C410 1.358 . S
C411 H415 0.930 . S
C412 C410 1.356 . S
C412 C413 1.348 . S
C413 C408 1.353 . S
C413 C412 1.348 . S
C413 H465 0.929 . S
H414 C408 0.930 . S
H415 C411 0.930 . S
C416 N417 1.314 . S
C416 C418 1.353 . S
C416 H422 0.930 . S
N417 Li393 1.990 . S
N417 C416 1.314 . S
N417 C420 1.279 . S
C418 C416 1.353 . S
C418 C421 1.348 . S
C418 H466 0.929 . S
C419 C420 1.358 . S
C419 C421 1.356 . S
C419 H467 0.930 . S
C420 N417 1.279 . S
C420 C419 1.358 . S
C420 H423 0.930 . S
C421 C418 1.348 . S
C421 C419 1.356 . S
H422 C416 0.930 . S
H423 C420 0.930 . S
C424 C426 1.348 . S
C424 C427 1.356 . S
C424 O454 1.325 . S
N425 C428 1.314 . S
N425 C429 1.279 . S
C426 C424 1.348 . S
C426 C428 1.353 . S
C426 H468 0.929 . S
C427 C424 1.356 . S
C427 C429 1.358 . S
C427 H469 0.930 . S
C428 N425 1.314 . S
C428 C426 1.353 . S
C428 H470 0.930 . S
C429 N425 1.279 . S
C429 C427 1.358 . S
C429 H471 0.930 . S
C430 C431 1.348 . S
C430 C432 1.356 . S
C430 O455 1.325 . S
C431 C430 1.348 . S
C431 C433 1.353 . S
C431 H472 0.929 . S
C432 C430 1.356 . S
C432 C434 1.358 . S
C432 H473 0.930 . S
C433 C431 1.353 . S
C433 N435 1.314 . S
C433 H474 0.930 . S
C434 C432 1.358 . S
C434 N435 1.279 . S
C434 H475 0.930 . S
N435 C433 1.314 . S
N435 C434 1.279 . S
C436 C438 1.353 . S
C436 N439 1.314 . S
C436 H442 0.930 . S
C437 N439 1.279 . S
C437 C440 1.358 . S
C437 H443 0.930 . S
C438 C436 1.353 . S
C438 C441 1.348 . S
C438 H476 0.929 . S
N439 Li394 1.990 . S
N439 C436 1.314 . S
N439 C437 1.279 . S
C440 C437 1.358 . S
C440 C441 1.356 . S
C440 H477 0.930 . S
C441 C438 1.348 . S
C441 C440 1.356 . S
H442 C436 0.930 . S
H443 C437 0.930 . S
C444 N445 1.314 . S
C444 C446 1.353 . S
C444 H450 0.930 . S
N445 Li395 1.990 . S
N445 C444 1.314 . S
N445 C448 1.279 . S
C446 C444 1.353 . S
C446 C449 1.348 . S
C446 H478 0.929 . S
C447 C448 1.358 . S
C447 C449 1.356 . S
C447 H479 0.930 . S
C448 N445 1.279 . S
C448 C447 1.358 . S
C448 H451 0.930 . S
C449 C446 1.348 . S
C449 C447 1.356 . S
H450 C444 0.930 . S
H451 C448 0.930 . S
O452 Li392 1.956 . S
O452 Li393 1.970 . S
O452 Li394 1.961 . S
O452 C396 1.325 . S
O453 Li392 1.970 . S
O453 Li393 1.956 . S
O453 Li395 1.961 . S
O453 C402 1.325 . S
O454 Li392 1.961 . S
O454 Li394 1.956 . S
O454 Li395 1.970 . S
O454 C424 1.325 . S
O455 Li393 1.961 . S
O455 Li394 1.970 . S
O455 Li395 1.956 . S
O455 C430 1.325 . S
H456 C398 0.929 . S
H457 C399 0.930 . S
H458 C400 0.930 . S
H459 C401 0.930 . S
H460 C403 0.930 . S
H461 C405 0.929 . S
H462 C406 0.930 . S
H463 C407 0.930 . S
H464 C410 0.930 . S
H465 C413 0.929 . S
H466 C418 0.929 . S
H467 C419 0.930 . S
H468 C426 0.929 . S
H469 C427 0.930 . S
H470 C428 0.930 . S
H471 C429 0.930 . S
H472 C431 0.929 . S
H473 C432 0.930 . S
H474 C433 0.930 . S
H475 C434 0.930 . S
H476 C438 0.929 . S
H477 C440 0.930 . S
H478 C446 0.929 . S
H479 C447 0.930 . S
Li480 N497 1.990 . S
Li480 O540 1.956 1_556 S
Li480 O541 1.970 1_556 S
Li480 O542 1.961 . S
Li481 N505 1.990 . S
Li481 O540 1.970 . S
Li481 O541 1.956 . S
Li481 O543 1.961 . S
Li482 N527 1.990 . S
Li482 O540 1.961 1_556 S
Li482 O542 1.956 . S
Li482 O543 1.970 1_556 S
Li483 N533 1.990 . S
Li483 O541 1.961 . S
Li483 O542 1.970 1_554 S
Li483 O543 1.956 . S
C484 C486 1.386 . S
C484 C487 1.316 1_554 S
C484 O540 1.329 . S
N485 C488 1.287 1_556 S
N485 C489 1.304 . S
C486 C484 1.386 . S
C486 C488 1.353 . S
C486 H544 0.929 . S
C487 C484 1.316 1_556 S
C487 C489 1.358 . S
C487 H545 0.930 . S
C488 N485 1.287 1_554 S
C488 C486 1.353 . S
C488 H546 0.930 . S
C489 N485 1.304 . S
C489 C487 1.358 . S
C489 H547 0.930 . S
C490 C493 1.348 . S
C490 C494 1.356 . S
C490 O541 1.325 . S
C491 N492 1.279 . S
C491 C494 1.358 . S
C491 H548 0.930 . S
N492 C491 1.279 . S
N492 C495 1.314 . S
C493 C490 1.348 . S
C493 C495 1.353 . S
C493 H549 0.929 . S
C494 C490 1.356 . S
C494 C491 1.358 . S
C494 H550 0.930 . S
C495 N492 1.314 . S
C495 C493 1.353 . S
C495 H551 0.930 . S
C496 N497 1.314 . S
C496 C501 1.353 . S
C496 H502 0.930 . S
N497 Li480 1.990 . S
N497 C496 1.314 . S
N497 C499 1.279 . S
C498 C499 1.358 . S
C498 C500 1.356 . S
C498 H552 0.930 . S
C499 N497 1.279 . S
C499 C498 1.358 . S
C499 H503 0.930 1_556 S
C500 C498 1.356 . S
C500 C501 1.348 . S
C501 C496 1.353 . S
C501 C500 1.348 . S
C501 H553 0.929 . S
H502 C496 0.930 . S
H503 C499 0.930 1_554 S
C504 N505 1.314 . S
C504 C506 1.353 . S
C504 H510 0.930 . S
N505 Li481 1.990 . S
N505 C504 1.314 . S
N505 C508 1.279 . S
C506 C504 1.353 . S
C506 C509 1.348 . S
C506 H554 0.929 . S
C507 C508 1.358 . S
C507 C509 1.356 . S
C507 H555 0.930 . S
C508 N505 1.279 . S
C508 C507 1.358 . S
C508 H511 0.930 . S
C509 C506 1.348 . S
C509 C507 1.356 . S
H510 C504 0.930 . S
H511 C508 0.930 . S
C512 C514 1.348 . S
C512 C515 1.356 . S
C512 O542 1.325 . S
N513 C516 1.314 . S
N513 C517 1.279 . S
C514 C512 1.348 . S
C514 C516 1.353 . S
C514 H556 0.929 . S
C515 C512 1.356 . S
C515 C517 1.358 . S
C515 H557 0.930 . S
C516 N513 1.314 . S
C516 C514 1.353 . S
C516 H558 0.930 . S
C517 N513 1.279 . S
C517 C515 1.358 . S
C517 H559 0.930 . S
C518 C519 1.348 1_554 S
C518 C520 1.356 . S
C518 O543 1.325 . S
C519 C518 1.348 1_556 S
C519 C521 1.353 . S
C519 H560 0.929 . S
C520 C518 1.356 . S
C520 C522 1.358 . S
C520 H561 0.930 . S
C521 C519 1.353 . S
C521 N523 1.314 1_556 S
C521 H562 0.930 . S
C522 C520 1.358 . S
C522 N523 1.279 . S
C522 H563 0.930 . S
N523 C521 1.314 1_554 S
N523 C522 1.279 . S
C524 C526 1.353 . S
C524 N527 1.314 . S
C524 H530 0.930 . S
C525 N527 1.279 . S
C525 C528 1.358 . S
C525 H531 0.930 . S
C526 C524 1.353 . S
C526 C529 1.348 . S
C526 H564 0.929 . S
N527 Li482 1.990 . S
N527 C524 1.314 . S
N527 C525 1.279 . S
C528 C525 1.358 . S
C528 C529 1.356 . S
C528 H565 0.930 . S
C529 C526 1.348 . S
C529 C528 1.356 . S
H530 C524 0.930 . S
H531 C525 0.930 . S
C532 N533 1.314 . S
C532 C534 1.353 . S
C532 H538 0.930 . S
N533 Li483 1.990 . S
N533 C532 1.314 . S
N533 C536 1.290 . S
C534 C532 1.353 . S
C534 C537 1.348 . S
C534 H566 0.929 . S
C535 C536 1.359 . S
C535 C537 1.360 . S
C535 H567 0.918 1_554 S
C536 N533 1.290 . S
C536 C535 1.359 . S
C536 H539 0.907 1_554 S
C537 C534 1.348 . S
C537 C535 1.360 . S
H538 C532 0.930 . S
H539 C536 0.907 1_556 S
O540 Li480 1.956 1_554 S
O540 Li481 1.970 . S
O540 Li482 1.961 1_554 S
O540 C484 1.329 . S
O541 Li480 1.970 1_554 S
O541 Li481 1.956 . S
O541 Li483 1.961 . S
O541 C490 1.325 . S
O542 Li480 1.961 . S
O542 Li482 1.956 . S
O542 Li483 1.970 1_556 S
O542 C512 1.325 . S
O543 Li481 1.961 . S
O543 Li482 1.970 1_554 S
O543 Li483 1.956 . S
O543 C518 1.325 . S
H544 C486 0.929 . S
H545 C487 0.930 . S
H546 C488 0.930 . S
H547 C489 0.930 . S
H548 C491 0.930 . S
H549 C493 0.929 . S
H550 C494 0.930 . S
H551 C495 0.930 . S
H552 C498 0.930 . S
H553 C501 0.929 . S
H554 C506 0.929 . S
H555 C507 0.930 . S
H556 C514 0.929 . S
H557 C515 0.930 . S
H558 C516 0.930 . S
H559 C517 0.930 . S
H560 C519 0.929 . S
H561 C520 0.930 . S
H562 C521 0.930 . S
H563 C522 0.930 . S
H564 C526 0.929 . S
H565 C528 0.930 . S
H566 C534 0.929 . S
H567 C535 0.918 1_556 S
Li568 N585 1.990 . S
Li568 O628 1.956 . S
Li568 O629 1.970 . S
Li568 O630 1.961 . S
Li569 N593 1.990 . S
Li569 O628 1.970 . S
Li569 O629 1.956 . S
Li569 O631 1.961 1_545 S
Li570 N615 1.990 . S
Li570 O628 1.961 . S
Li570 O630 1.956 . S
Li570 O631 1.970 1_545 S
Li571 N621 1.990 . S
Li571 O629 1.961 1_565 S
Li571 O630 1.970 1_565 S
Li571 O631 1.956 . S
C572 C574 1.348 . S
C572 C575 1.356 . S
C572 O628 1.325 . S
N573 C576 1.314 . S
N573 C577 1.279 . S
C574 C572 1.348 . S
C574 C576 1.353 . S
C574 H632 0.929 . S
C575 C572 1.356 . S
C575 C577 1.358 . S
C575 H633 0.930 . S
C576 N573 1.314 . S
C576 C574 1.353 . S
C576 H634 0.930 . S
C577 N573 1.279 . S
C577 C575 1.358 . S
C577 H635 0.930 . S
C578 C581 1.348 . S
C578 C582 1.356 1_545 S
C578 O629 1.325 . S
C579 N580 1.279 1_565 S
C579 C582 1.358 . S
C579 H636 0.930 . S
N580 C579 1.279 1_545 S
N580 C583 1.314 . S
C581 C578 1.348 . S
C581 C583 1.353 . S
C581 H637 0.929 . S
C582 C578 1.356 1_565 S
C582 C579 1.358 . S
C582 H638 0.930 . S
C583 N580 1.314 . S
C583 C581 1.353 . S
C583 H639 0.930 . S
C584 N585 1.314 . S
C584 C589 1.353 . S
C584 H590 0.930 . S
N585 Li568 1.990 . S
N585 C584 1.314 . S
N585 C587 1.279 . S
C586 C587 1.358 . S
C586 C588 1.356 . S
C586 H640 0.930 . S
C587 N585 1.279 . S
C587 C586 1.358 . S
C587 H591 0.930 . S
C588 C586 1.356 . S
C588 C589 1.348 . S
C589 C584 1.353 . S
C589 C588 1.348 . S
C589 H641 0.929 . S
H590 C584 0.930 . S
H591 C587 0.930 . S
C592 N593 1.314 . S
C592 C594 1.353 1_655 S
C592 H598 0.930 . S
N593 Li569 1.990 . S
N593 C592 1.314 . S
N593 C596 1.279 . S
C594 C592 1.353 1_455 S
C594 C597 1.348 1_455 S
C594 H642 0.929 . S
C595 C596 1.358 . S
C595 C597 1.356 . S
C595 H643 0.930 . S
C596 N593 1.279 . S
C596 C595 1.358 . S
C596 H599 0.930 . S
C597 C594 1.348 1_655 S
C597 C595 1.356 . S
H598 C592 0.930 . S
H599 C596 0.930 . S
C600 C602 1.346 1_545 S
C600 C603 1.356 . S
C600 O630 1.325 . S
N601 C604 1.314 . S
N601 C605 1.279 . S
C602 C600 1.346 1_565 S
C602 C604 1.352 1_565 S
C602 H644 0.932 . S
C603 C600 1.356 . S
C603 C605 1.358 . S
C603 H645 0.930 . S
C604 N601 1.314 . S
C604 C602 1.352 1_545 S
C604 H646 0.930 1_545 S
C605 N601 1.279 . S
C605 C603 1.358 . S
C605 H647 0.930 . S
C606 C607 1.348 . S
C606 C608 1.356 . S
C606 O631 1.325 . S
C607 C606 1.348 . S
C607 C609 1.353 . S
C607 H648 0.929 . S
C608 C606 1.356 . S
C608 C610 1.358 . S
C608 H649 0.930 . S
C609 C607 1.353 . S
C609 N611 1.314 . S
C609 H650 0.930 . S
C610 C608 1.358 . S
C610 N611 1.279 . S
C610 H651 0.930 . S
N611 C609 1.314 . S
N611 C610 1.279 . S
C612 C614 1.353 . S
C612 N615 1.314 . S
C612 H618 0.930 . S
C613 N615 1.279 . S
C613 C616 1.358 . S
C613 H619 0.930 . S
C614 C612 1.353 . S
C614 C617 1.348 . S
C614 H652 0.929 1_655 S
N615 Li570 1.990 . S
N615 C612 1.314 . S
N615 C613 1.279 . S
C616 C613 1.358 . S
C616 C617 1.356 . S
C616 H653 0.930 . S
C617 C614 1.348 . S
C617 C616 1.356 . S
H618 C612 0.930 . S
H619 C613 0.930 . S
C620 N621 1.314 . S
C620 C622 1.353 . S
C620 H626 0.930 . S
N621 Li571 1.990 . S
N621 C620 1.314 . S
N621 C624 1.279 . S
C622 C620 1.353 . S
C622 C625 1.348 . S
C622 H654 0.929 . S
C623 C624 1.358 . S
C623 C625 1.356 . S
C623 H655 0.930 . S
C624 N621 1.279 . S
C624 C623 1.358 . S
C624 H627 0.930 . S
C625 C622 1.348 . S
C625 C623 1.356 . S
H626 C620 0.930 . S
H627 C624 0.930 . S
O628 Li568 1.956 . S
O628 Li569 1.970 . S
O628 Li570 1.961 . S
O628 C572 1.325 . S
O629 Li568 1.970 . S
O629 Li569 1.956 . S
O629 Li571 1.961 1_545 S
O629 C578 1.325 . S
O630 Li568 1.961 . S
O630 Li570 1.956 . S
O630 Li571 1.970 1_545 S
O630 C600 1.325 . S
O631 Li569 1.961 1_565 S
O631 Li570 1.970 1_565 S
O631 Li571 1.956 . S
O631 C606 1.325 . S
H632 C574 0.929 . S
H633 C575 0.930 . S
H634 C576 0.930 . S
H635 C577 0.930 . S
H636 C579 0.930 . S
H637 C581 0.929 . S
H638 C582 0.930 . S
H639 C583 0.930 . S
H640 C586 0.930 . S
H641 C589 0.929 . S
H642 C594 0.929 . S
H643 C595 0.930 . S
H644 C602 0.932 . S
H645 C603 0.930 . S
H646 C604 0.930 1_565 S
H647 C605 0.930 . S
H648 C607 0.929 . S
H649 C608 0.930 . S
H650 C609 0.930 . S
H651 C610 0.930 . S
H652 C614 0.929 1_455 S
H653 C616 0.930 . S
H654 C622 0.929 . S
H655 C623 0.930 . S
Li656 N673 1.990 . S
Li656 O716 1.956 . S
Li656 O717 1.970 . S
Li656 O718 1.961 . S
Li657 N681 1.990 . S
Li657 O716 1.970 . S
Li657 O717 1.956 . S
Li657 O719 1.961 . S
Li658 N703 1.990 . S
Li658 O716 1.961 . S
Li658 O718 1.956 . S
Li658 O719 1.970 . S
Li659 N709 1.990 . S
Li659 O717 1.961 . S
Li659 O718 1.970 . S
Li659 O719 1.956 . S
C660 C662 1.348 . S
C660 C663 1.356 . S
C660 O716 1.325 . S
N661 C664 1.314 . S
N661 C665 1.279 . S
C662 C660 1.348 . S
C662 C664 1.353 . S
C662 H720 0.929 . S
C663 C660 1.356 . S
C663 C665 1.358 . S
C663 H721 0.930 . S
C664 N661 1.314 . S
C664 C662 1.353 . S
C664 H722 0.930 . S
C665 N661 1.279 . S
C665 C663 1.358 . S
C665 H723 0.930 . S
C666 C669 1.348 . S
C666 C670 1.356 . S
C666 O717 1.325 . S
C667 N668 1.279 . S
C667 C670 1.358 . S
C667 H724 0.930 . S
N668 C667 1.279 . S
N668 C671 1.314 . S
C669 C666 1.348 . S
C669 C671 1.353 . S
C669 H725 0.929 . S
C670 C666 1.356 . S
C670 C667 1.358 . S
C670 H726 0.930 . S
C671 N668 1.314 . S
C671 C669 1.353 . S
C671 H727 0.930 . S
C672 N673 1.314 . S
C672 C677 1.353 . S
C672 H678 0.930 . S
N673 Li656 1.990 . S
N673 C672 1.314 . S
N673 C675 1.279 . S
C674 C675 1.358 . S
C674 C676 1.356 . S
C674 H728 0.930 . S
C675 N673 1.279 . S
C675 C674 1.358 . S
C675 H679 0.930 . S
C676 C674 1.356 . S
C676 C677 1.348 . S
C677 C672 1.353 . S
C677 C676 1.348 . S
C677 H729 0.929 . S
H678 C672 0.930 . S
H679 C675 0.930 . S
C680 N681 1.314 . S
C680 C682 1.353 . S
C680 H686 0.930 . S
N681 Li657 1.990 . S
N681 C680 1.314 . S
N681 C684 1.279 . S
C682 C680 1.353 . S
C682 C685 1.348 . S
C682 H730 0.929 . S
C683 C684 1.358 . S
C683 C685 1.356 . S
C683 H731 0.930 . S
C684 N681 1.279 . S
C684 C683 1.358 . S
C684 H687 0.930 . S
C685 C682 1.348 . S
C685 C683 1.356 . S
H686 C680 0.930 . S
H687 C684 0.930 . S
C688 C690 1.348 . S
C688 C691 1.356 . S
C688 O718 1.325 . S
N689 C692 1.314 . S
N689 C693 1.279 . S
C690 C688 1.348 . S
C690 C692 1.353 . S
C690 H732 0.929 . S
C691 C688 1.356 . S
C691 C693 1.358 . S
C691 H733 0.930 . S
C692 N689 1.314 . S
C692 C690 1.353 . S
C692 H734 0.930 . S
C693 N689 1.279 . S
C693 C691 1.358 . S
C693 H735 0.930 . S
C694 C695 1.348 . S
C694 C696 1.356 . S
C694 O719 1.325 . S
C695 C694 1.348 . S
C695 C697 1.353 . S
C695 H736 0.929 . S
C696 C694 1.356 . S
C696 C698 1.358 . S
C696 H737 0.930 . S
C697 C695 1.353 . S
C697 N699 1.314 . S
C697 H738 0.930 . S
C698 C696 1.358 . S
C698 N699 1.279 . S
C698 H739 0.930 . S
N699 C697 1.314 . S
N699 C698 1.279 . S
C700 C702 1.353 . S
C700 N703 1.314 . S
C700 H706 0.930 . S
C701 N703 1.279 . S
C701 C704 1.358 . S
C701 H707 0.930 . S
C702 C700 1.353 . S
C702 C705 1.348 . S
C702 H740 0.929 . S
N703 Li658 1.990 . S
N703 C700 1.314 . S
N703 C701 1.279 . S
C704 C701 1.358 . S
C704 C705 1.356 . S
C704 H741 0.930 . S
C705 C702 1.348 . S
C705 C704 1.356 . S
H706 C700 0.930 . S
H707 C701 0.930 . S
C708 N709 1.314 . S
C708 C710 1.353 . S
C708 H714 0.930 . S
N709 Li659 1.990 . S
N709 C708 1.314 . S
N709 C712 1.279 . S
C710 C708 1.353 . S
C710 C713 1.348 . S
C710 H742 0.929 . S
C711 C712 1.358 . S
C711 C713 1.356 . S
C711 H743 0.930 . S
C712 N709 1.279 . S
C712 C711 1.358 . S
C712 H715 0.930 . S
C713 C710 1.348 . S
C713 C711 1.356 . S
H714 C708 0.930 . S
H715 C712 0.930 . S
O716 Li656 1.956 . S
O716 Li657 1.970 . S
O716 Li658 1.961 . S
O716 C660 1.325 . S
O717 Li656 1.970 . S
O717 Li657 1.956 . S
O717 Li659 1.961 . S
O717 C666 1.325 . S
O718 Li656 1.961 . S
O718 Li658 1.956 . S
O718 Li659 1.970 . S
O718 C688 1.325 . S
O719 Li657 1.961 . S
O719 Li658 1.970 . S
O719 Li659 1.956 . S
O719 C694 1.325 . S
H720 C662 0.929 . S
H721 C663 0.930 . S
H722 C664 0.930 . S
H723 C665 0.930 . S
H724 C667 0.930 . S
H725 C669 0.929 . S
H726 C670 0.930 . S
H727 C671 0.930 . S
H728 C674 0.930 . S
H729 C677 0.929 . S
H730 C682 0.929 . S
H731 C683 0.930 . S
H732 C690 0.929 . S
H733 C691 0.930 . S
H734 C692 0.930 . S
H735 C693 0.930 . S
H736 C695 0.929 . S
H737 C696 0.930 . S
H738 C697 0.930 . S
H739 C698 0.930 . S
H740 C702 0.929 . S
H741 C704 0.930 . S
H742 C710 0.929 . S
H743 C711 0.930 . S
Li744 N761 1.990 . S
Li744 O804 1.956 . S
Li744 O805 1.970 . S
Li744 O806 1.961 . S
Li745 N769 1.990 . S
Li745 O804 1.970 . S
Li745 O805 1.956 . S
Li745 O807 1.961 . S
Li746 N791 1.990 . S
Li746 O804 1.961 . S
Li746 O806 1.956 . S
Li746 O807 1.970 . S
Li747 N797 1.990 . S
Li747 O805 1.961 . S
Li747 O806 1.970 . S
Li747 O807 1.956 . S
C748 C750 1.348 . S
C748 C751 1.356 . S
C748 O804 1.325 . S
N749 C752 1.314 . S
N749 C753 1.279 . S
C750 C748 1.348 . S
C750 C752 1.353 . S
C750 H808 0.929 . S
C751 C748 1.356 . S
C751 C753 1.358 . S
C751 H809 0.930 . S
C752 N749 1.314 . S
C752 C750 1.353 . S
C752 H810 0.930 . S
C753 N749 1.279 . S
C753 C751 1.358 . S
C753 H811 0.930 . S
C754 C757 1.348 . S
C754 C758 1.356 . S
C754 O805 1.325 . S
C755 N756 1.279 . S
C755 C758 1.358 . S
C755 H812 0.930 . S
N756 C755 1.279 . S
N756 C759 1.314 . S
C757 C754 1.348 . S
C757 C759 1.353 . S
C757 H813 0.929 . S
C758 C754 1.356 . S
C758 C755 1.358 . S
C758 H814 0.930 . S
C759 N756 1.314 . S
C759 C757 1.353 . S
C759 H815 0.930 . S
C760 N761 1.314 . S
C760 C765 1.353 . S
C760 H766 0.930 . S
N761 Li744 1.990 . S
N761 C760 1.314 . S
N761 C763 1.279 . S
C762 C763 1.358 . S
C762 C764 1.356 . S
C762 H816 0.930 . S
C763 N761 1.279 . S
C763 C762 1.358 . S
C763 H767 0.930 . S
C764 C762 1.356 . S
C764 C765 1.348 . S
C765 C760 1.353 . S
C765 C764 1.348 . S
C765 H817 0.929 . S
H766 C760 0.930 . S
H767 C763 0.930 . S
C768 N769 1.314 . S
C768 C770 1.353 . S
C768 H774 0.930 . S
N769 Li745 1.990 . S
N769 C768 1.314 . S
N769 C772 1.279 . S
C770 C768 1.353 . S
C770 C773 1.348 . S
C770 H818 0.929 . S
C771 C772 1.358 . S
C771 C773 1.356 . S
C771 H819 0.930 . S
C772 N769 1.279 . S
C772 C771 1.358 . S
C772 H775 0.930 . S
C773 C770 1.348 . S
C773 C771 1.356 . S
H774 C768 0.930 . S
H775 C772 0.930 . S
C776 C778 1.348 . S
C776 C779 1.356 . S
C776 O806 1.325 . S
N777 C780 1.314 . S
N777 C781 1.279 . S
C778 C776 1.348 . S
C778 C780 1.353 . S
C778 H820 0.929 . S
C779 C776 1.356 . S
C779 C781 1.358 . S
C779 H821 0.930 . S
C780 N777 1.314 . S
C780 C778 1.353 . S
C780 H822 0.930 . S
C781 N777 1.279 . S
C781 C779 1.358 . S
C781 H823 0.930 . S
C782 C783 1.348 . S
C782 C784 1.356 . S
C782 O807 1.325 . S
C783 C782 1.348 . S
C783 C785 1.353 . S
C783 H824 0.929 . S
C784 C782 1.356 . S
C784 C786 1.358 . S
C784 H825 0.930 . S
C785 C783 1.353 . S
C785 N787 1.314 . S
C785 H826 0.930 . S
C786 C784 1.358 . S
C786 N787 1.279 . S
C786 H827 0.930 . S
N787 C785 1.314 . S
N787 C786 1.279 . S
C788 C790 1.353 . S
C788 N791 1.314 . S
C788 H794 0.930 . S
C789 N791 1.279 . S
C789 C792 1.358 . S
C789 H795 0.930 . S
C790 C788 1.353 . S
C790 C793 1.348 . S
C790 H828 0.929 . S
N791 Li746 1.990 . S
N791 C788 1.314 . S
N791 C789 1.279 . S
C792 C789 1.358 . S
C792 C793 1.356 . S
C792 H829 0.930 . S
C793 C790 1.348 . S
C793 C792 1.356 . S
H794 C788 0.930 . S
H795 C789 0.930 . S
C796 N797 1.314 . S
C796 C798 1.353 . S
C796 H802 0.930 . S
N797 Li747 1.990 . S
N797 C796 1.314 . S
N797 C800 1.279 . S
C798 C796 1.353 . S
C798 C801 1.348 . S
C798 H830 0.929 . S
C799 C800 1.358 . S
C799 C801 1.356 . S
C799 H831 0.930 . S
C800 N797 1.279 . S
C800 C799 1.358 . S
C800 H803 0.930 . S
C801 C798 1.348 . S
C801 C799 1.356 . S
H802 C796 0.930 . S
H803 C800 0.930 . S
O804 Li744 1.956 . S
O804 Li745 1.970 . S
O804 Li746 1.961 . S
O804 C748 1.325 . S
O805 Li744 1.970 . S
O805 Li745 1.956 . S
O805 Li747 1.961 . S
O805 C754 1.325 . S
O806 Li744 1.961 . S
O806 Li746 1.956 . S
O806 Li747 1.970 . S
O806 C776 1.325 . S
O807 Li745 1.961 . S
O807 Li746 1.970 . S
O807 Li747 1.956 . S
O807 C782 1.325 . S
H808 C750 0.929 . S
H809 C751 0.930 . S
H810 C752 0.930 . S
H811 C753 0.930 . S
H812 C755 0.930 . S
H813 C757 0.929 . S
H814 C758 0.930 . S
H815 C759 0.930 . S
H816 C762 0.930 . S
H817 C765 0.929 . S
H818 C770 0.929 . S
H819 C771 0.930 . S
H820 C778 0.929 . S
H821 C779 0.930 . S
H822 C780 0.930 . S
H823 C781 0.930 . S
H824 C783 0.929 . S
H825 C784 0.930 . S
H826 C785 0.930 . S
H827 C786 0.930 . S
H828 C790 0.929 . S
H829 C792 0.930 . S
H830 C798 0.929 . S
H831 C799 0.930 . S
Li832 N849 1.990 . S
Li832 O892 1.956 . S
Li832 O893 1.970 . S
Li832 O894 1.961 . S
Li833 N857 1.990 . S
Li833 O892 1.970 . S
Li833 O893 1.956 . S
Li833 O895 1.961 . S
Li834 N879 1.990 . S
Li834 O892 1.961 . S
Li834 O894 1.956 . S
Li834 O895 1.970 . S
Li835 N885 1.990 . S
Li835 O893 1.961 . S
Li835 O894 1.970 . S
Li835 O895 1.956 . S
C836 C838 1.348 . S
C836 C839 1.356 . S
C836 O892 1.325 . S
N837 C840 1.314 . S
N837 C841 1.279 . S
C838 C836 1.348 . S
C838 C840 1.353 . S
C838 H896 0.929 . S
C839 C836 1.356 . S
C839 C841 1.358 . S
C839 H897 0.930 . S
C840 N837 1.314 . S
C840 C838 1.353 . S
C840 H898 0.930 . S
C841 N837 1.279 . S
C841 C839 1.358 . S
C841 H899 0.930 . S
C842 C845 1.348 . S
C842 C846 1.356 . S
C842 O893 1.325 . S
C843 N844 1.279 . S
C843 C846 1.358 . S
C843 H900 0.930 . S
N844 C843 1.279 . S
N844 C847 1.314 . S
C845 C842 1.348 . S
C845 C847 1.353 . S
C845 H901 0.929 . S
C846 C842 1.356 . S
C846 C843 1.358 . S
C846 H902 0.930 . S
C847 N844 1.314 . S
C847 C845 1.353 . S
C847 H903 0.930 . S
C848 N849 1.314 . S
C848 C853 1.353 . S
C848 H854 0.930 . S
N849 Li832 1.990 . S
N849 C848 1.314 . S
N849 C851 1.279 . S
C850 C851 1.358 . S
C850 C852 1.356 . S
C850 H904 0.930 . S
C851 N849 1.279 . S
C851 C850 1.358 . S
C851 H855 0.930 . S
C852 C850 1.356 . S
C852 C853 1.348 . S
C853 C848 1.353 . S
C853 C852 1.348 . S
C853 H905 0.929 . S
H854 C848 0.930 . S
H855 C851 0.930 . S
C856 N857 1.314 . S
C856 C858 1.353 . S
C856 H862 0.930 . S
N857 Li833 1.990 . S
N857 C856 1.314 . S
N857 C860 1.279 . S
C858 C856 1.353 . S
C858 C861 1.348 . S
C858 H906 0.929 . S
C859 C860 1.358 . S
C859 C861 1.356 . S
C859 H907 0.930 . S
C860 N857 1.279 . S
C860 C859 1.358 . S
C860 H863 0.930 . S
C861 C858 1.348 . S
C861 C859 1.356 . S
H862 C856 0.930 . S
H863 C860 0.930 . S
C864 C866 1.348 . S
C864 C867 1.356 . S
C864 O894 1.325 . S
N865 C868 1.314 . S
N865 C869 1.279 . S
C866 C864 1.348 . S
C866 C868 1.353 . S
C866 H908 0.929 . S
C867 C864 1.356 . S
C867 C869 1.358 . S
C867 H909 0.930 . S
C868 N865 1.314 . S
C868 C866 1.353 . S
C868 H910 0.930 . S
C869 N865 1.279 . S
C869 C867 1.358 . S
C869 H911 0.930 . S
C870 C871 1.348 . S
C870 C872 1.356 . S
C870 O895 1.325 . S
C871 C870 1.348 . S
C871 C873 1.353 . S
C871 H912 0.929 . S
C872 C870 1.356 . S
C872 C874 1.358 . S
C872 H913 0.930 . S
C873 C871 1.353 . S
C873 N875 1.314 . S
C873 H914 0.930 . S
C874 C872 1.358 . S
C874 N875 1.279 . S
C874 H915 0.930 . S
N875 C873 1.314 . S
N875 C874 1.279 . S
C876 C878 1.353 . S
C876 N879 1.314 . S
C876 H882 0.930 . S
C877 N879 1.279 . S
C877 C880 1.358 . S
C877 H883 0.930 . S
C878 C876 1.353 . S
C878 C881 1.348 . S
C878 H916 0.929 . S
N879 Li834 1.990 . S
N879 C876 1.314 . S
N879 C877 1.279 . S
C880 C877 1.358 . S
C880 C881 1.356 . S
C880 H917 0.930 . S
C881 C878 1.348 . S
C881 C880 1.356 . S
H882 C876 0.930 . S
H883 C877 0.930 . S
C884 N885 1.314 . S
C884 C886 1.353 . S
C884 H890 0.930 . S
N885 Li835 1.990 . S
N885 C884 1.314 . S
N885 C888 1.279 . S
C886 C884 1.353 . S
C886 C889 1.348 . S
C886 H918 0.929 . S
C887 C888 1.358 . S
C887 C889 1.356 . S
C887 H919 0.930 . S
C888 N885 1.279 . S
C888 C887 1.358 . S
C888 H891 0.930 . S
C889 C886 1.348 . S
C889 C887 1.356 . S
H890 C884 0.930 . S
H891 C888 0.930 . S
O892 Li832 1.956 . S
O892 Li833 1.970 . S
O892 Li834 1.961 . S
O892 C836 1.325 . S
O893 Li832 1.970 . S
O893 Li833 1.956 . S
O893 Li835 1.961 . S
O893 C842 1.325 . S
O894 Li832 1.961 . S
O894 Li834 1.956 . S
O894 Li835 1.970 . S
O894 C864 1.325 . S
O895 Li833 1.961 . S
O895 Li834 1.970 . S
O895 Li835 1.956 . S
O895 C870 1.325 . S
H896 C838 0.929 . S
H897 C839 0.930 . S
H898 C840 0.930 . S
H899 C841 0.930 . S
H900 C843 0.930 . S
H901 C845 0.929 . S
H902 C846 0.930 . S
H903 C847 0.930 . S
H904 C850 0.930 . S
H905 C853 0.929 . S
H906 C858 0.929 . S
H907 C859 0.930 . S
H908 C866 0.929 . S
H909 C867 0.930 . S
H910 C868 0.930 . S
H911 C869 0.930 . S
H912 C871 0.929 . S
H913 C872 0.930 . S
H914 C873 0.930 . S
H915 C874 0.930 . S
H916 C878 0.929 . S
H917 C880 0.930 . S
H918 C886 0.929 . S
H919 C887 0.930 . S
Li920 N937 1.990 1_545 S
Li920 O980 1.956 . S
Li920 O981 1.970 . S
Li920 O982 1.961 . S
Li921 N945 1.990 . S
Li921 O980 1.970 . S
Li921 O981 1.956 . S
Li921 O983 1.961 . S
Li922 N967 1.990 . S
Li922 O980 1.961 . S
Li922 O982 1.956 . S
Li922 O983 1.970 . S
Li923 N973 1.990 . S
Li923 O981 1.961 . S
Li923 O982 1.970 . S
Li923 O983 1.956 . S
C924 C926 1.348 . S
C924 C927 1.356 . S
C924 O980 1.325 1_565 S
N925 C928 1.314 . S
N925 C929 1.279 . S
C926 C924 1.348 . S
C926 C928 1.353 . S
C926 H984 0.929 . S
C927 C924 1.356 . S
C927 C929 1.358 . S
C927 H985 0.930 . S
C928 N925 1.314 . S
C928 C926 1.353 . S
C928 H986 0.930 . S
C929 N925 1.279 . S
C929 C927 1.358 . S
C929 H987 0.930 . S
C930 C933 1.348 . S
C930 C934 1.356 . S
C930 O981 1.325 . S
C931 N932 1.279 . S
C931 C934 1.358 . S
C931 H988 0.930 . S
N932 C931 1.279 . S
N932 C935 1.314 . S
C933 C930 1.348 . S
C933 C935 1.353 . S
C933 H989 0.929 . S
C934 C930 1.356 . S
C934 C931 1.358 . S
C934 H990 0.930 . S
C935 N932 1.314 . S
C935 C933 1.353 . S
C935 H991 0.930 . S
C936 N937 1.314 . S
C936 C941 1.353 . S
C936 H942 0.930 . S
N937 Li920 1.990 1_565 S
N937 C936 1.314 . S
N937 C939 1.279 . S
C938 C939 1.358 . S
C938 C940 1.356 . S
C938 H992 0.930 . S
C939 N937 1.279 . S
C939 C938 1.358 . S
C939 H943 0.930 . S
C940 C938 1.356 . S
C940 C941 1.348 . S
C941 C936 1.353 . S
C941 C940 1.348 . S
C941 H993 0.929 . S
H942 C936 0.930 . S
H943 C939 0.930 . S
C944 N945 1.314 . S
C944 C946 1.353 . S
C944 H950 0.930 . S
N945 Li921 1.990 . S
N945 C944 1.314 . S
N945 C948 1.279 . S
C946 C944 1.353 . S
C946 C949 1.348 . S
C946 H994 0.929 . S
C947 C948 1.358 . S
C947 C949 1.356 . S
C947 H995 0.930 . S
C948 N945 1.279 . S
C948 C947 1.358 . S
C948 H951 0.930 . S
C949 C946 1.348 . S
C949 C947 1.356 . S
H950 C944 0.930 . S
H951 C948 0.930 . S
C952 C954 1.348 . S
C952 C955 1.356 1_545 S
C952 O982 1.325 . S
N953 C956 1.314 . S
N953 C957 1.279 1_545 S
C954 C952 1.348 . S
C954 C956 1.353 . S
C954 H996 0.929 . S
C955 C952 1.356 1_565 S
C955 C957 1.358 . S
C955 H997 0.930 . S
C956 N953 1.314 . S
C956 C954 1.353 . S
C956 H998 0.930 . S
C957 N953 1.279 1_565 S
C957 C955 1.358 . S
C957 H999 0.930 . S
C958 C959 1.348 . S
C958 C960 1.356 . S
C958 O983 1.325 . S
C959 C958 1.348 . S
C959 C961 1.353 . S
C959 H1000 0.929 . S
C960 C958 1.356 . S
C960 C962 1.358 . S
C960 H1001 0.930 . S
C961 C959 1.353 . S
C961 N963 1.314 . S
C961 H1002 0.930 . S
C962 C960 1.358 . S
C962 N963 1.279 . S
C962 H1003 0.930 . S
N963 C961 1.314 . S
N963 C962 1.279 . S
C964 C966 1.352 1_545 S
C964 N967 1.314 . S
C964 H970 0.930 . S
C965 N967 1.279 . S
C965 C968 1.358 . S
C965 H971 0.930 . S
C966 C964 1.352 1_565 S
C966 C969 1.340 1_565 S
C966 H1004 0.940 . S
N967 Li922 1.990 . S
N967 C964 1.314 . S
N967 C965 1.279 . S
C968 C965 1.358 . S
C968 C969 1.356 . S
C968 H1005 0.930 . S
C969 C966 1.340 1_545 S
C969 C968 1.356 . S
H970 C964 0.930 . S
H971 C965 0.930 . S
C972 N973 1.314 . S
C972 C974 1.353 . S
C972 H978 0.930 . S
N973 Li923 1.990 . S
N973 C972 1.314 . S
N973 C976 1.279 . S
C974 C972 1.353 . S
C974 C977 1.348 . S
C974 H1006 0.929 . S
C975 C976 1.358 . S
C975 C977 1.356 . S
C975 H1007 0.930 . S
C976 N973 1.279 . S
C976 C975 1.358 . S
C976 H979 0.930 . S
C977 C974 1.348 . S
C977 C975 1.356 . S
H978 C972 0.930 . S
H979 C976 0.930 . S
O980 Li920 1.956 . S
O980 Li921 1.970 . S
O980 Li922 1.961 . S
O980 C924 1.325 1_545 S
O981 Li920 1.970 . S
O981 Li921 1.956 . S
O981 Li923 1.961 . S
O981 C930 1.325 . S
O982 Li920 1.961 . S
O982 Li922 1.956 . S
O982 Li923 1.970 . S
O982 C952 1.325 . S
O983 Li921 1.961 . S
O983 Li922 1.970 . S
O983 Li923 1.956 . S
O983 C958 1.325 . S
H984 C926 0.929 . S
H985 C927 0.930 . S
H986 C928 0.930 . S
H987 C929 0.930 . S
H988 C931 0.930 . S
H989 C933 0.929 . S
H990 C934 0.930 . S
H991 C935 0.930 . S
H992 C938 0.930 . S
H993 C941 0.929 . S
H994 C946 0.929 . S
H995 C947 0.930 . S
H996 C954 0.929 . S
H997 C955 0.930 . S
H998 C956 0.930 . S
H999 C957 0.930 . S
H1000 C959 0.929 . S
H1001 C960 0.930 . S
H1002 C961 0.930 . S
H1003 C962 0.930 . S
H1004 C966 0.940 . S
H1005 C968 0.930 . S
H1006 C974 0.929 . S
H1007 C975 0.930 . S
Li1008 N1025 1.990 . S
Li1008 O1068 1.956 . S
Li1008 O1069 1.970 . S
Li1008 O1070 1.961 . S
Li1009 N1033 1.990 . S
Li1009 O1068 1.970 . S
Li1009 O1069 1.956 . S
Li1009 O1071 1.961 1_455 S
Li1010 N1055 1.990 . S
Li1010 O1068 1.961 . S
Li1010 O1070 1.956 . S
Li1010 O1071 1.970 1_455 S
Li1011 N1061 1.990 . S
Li1011 O1069 1.961 1_655 S
Li1011 O1070 1.970 1_655 S
Li1011 O1071 1.956 . S
C1012 C1014 1.348 . S
C1012 C1015 1.356 . S
C1012 O1068 1.325 . S
N1013 C1016 1.314 . S
N1013 C1017 1.279 . S
C1014 C1012 1.348 . S
C1014 C1016 1.353 . S
C1014 H1072 0.929 . S
C1015 C1012 1.356 . S
C1015 C1017 1.358 . S
C1015 H1073 0.930 . S
C1016 N1013 1.314 . S
C1016 C1014 1.353 . S
C1016 H1074 0.930 . S
C1017 N1013 1.279 . S
C1017 C1015 1.358 . S
C1017 H1075 0.930 . S
C1018 C1021 1.348 . S
C1018 C1022 1.356 1_455 S
C1018 O1069 1.325 . S
C1019 N1020 1.246 1_655 S
C1019 C1022 1.358 . S
C1019 H1076 0.930 . S
N1020 C1019 1.246 1_455 S
N1020 C1023 1.354 . S
C1021 C1018 1.348 . S
C1021 C1023 1.353 . S
C1021 H1077 0.929 . S
C1022 C1018 1.356 1_655 S
C1022 C1019 1.358 . S
C1022 H1078 0.930 . S
C1023 N1020 1.354 . S
C1023 C1021 1.353 . S
C1023 H1079 0.930 . S
C1024 N1025 1.314 . S
C1024 C1029 1.353 . S
C1024 H1030 0.930 . S
N1025 Li1008 1.990 . S
N1025 C1024 1.314 . S
N1025 C1027 1.279 . S
C1026 C1027 1.358 . S
C1026 C1028 1.356 . S
C1026 H1080 0.930 . S
C1027 N1025 1.279 . S
C1027 C1026 1.358 . S
C1027 H1031 0.930 . S
C1028 C1026 1.356 . S
C1028 C1029 1.348 . S
C1029 C1024 1.353 . S
C1029 C1028 1.348 . S
C1029 H1081 0.929 . S
H1030 C1024 0.930 . S
H1031 C1027 0.930 . S
C1032 N1033 1.314 1_655 S
C1032 C1034 1.353 . S
C1032 H1038 0.930 . S
N1033 Li1009 1.990 . S
N1033 C1032 1.314 1_455 S
N1033 C1036 1.279 . S
C1034 C1032 1.353 . S
C1034 C1037 1.348 1_655 S
C1034 H1082 0.929 . S
C1035 C1036 1.358 . S
C1035 C1037 1.356 . S
C1035 H1083 0.930 . S
C1036 N1033 1.279 . S
C1036 C1035 1.358 . S
C1036 H1039 0.930 . S
C1037 C1034 1.348 1_455 S
C1037 C1035 1.356 . S
H1038 C1032 0.930 . S
H1039 C1036 0.930 . S
C1040 C1042 1.348 1_455 S
C1040 C1043 1.356 . S
C1040 O1070 1.325 . S
N1041 C1044 1.314 1_455 S
N1041 C1045 1.279 . S
C1042 C1040 1.348 1_655 S
C1042 C1044 1.353 . S
C1042 H1084 0.929 . S
C1043 C1040 1.356 . S
C1043 C1045 1.358 . S
C1043 H1085 0.930 . S
C1044 N1041 1.314 1_655 S
C1044 C1042 1.353 . S
C1044 H1086 0.930 . S
C1045 N1041 1.279 . S
C1045 C1043 1.358 . S
C1045 H1087 0.930 . S
C1046 C1047 1.348 . S
C1046 C1048 1.356 . S
C1046 O1071 1.325 . S
C1047 C1046 1.348 . S
C1047 C1049 1.353 . S
C1047 H1088 0.929 . S
C1048 C1046 1.356 . S
C1048 C1050 1.358 . S
C1048 H1089 0.930 . S
C1049 C1047 1.353 . S
C1049 N1051 1.314 . S
C1049 H1090 0.930 . S
C1050 C1048 1.358 . S
C1050 N1051 1.279 . S
C1050 H1091 0.930 . S
N1051 C1049 1.314 . S
N1051 C1050 1.279 . S
C1052 C1054 1.353 . S
C1052 N1055 1.314 . S
C1052 H1058 0.930 . S
C1053 N1055 1.279 . S
C1053 C1056 1.358 . S
C1053 H1059 0.930 . S
C1054 C1052 1.353 . S
C1054 C1057 1.348 . S
C1054 H1092 0.929 . S
N1055 Li1010 1.990 . S
N1055 C1052 1.314 . S
N1055 C1053 1.279 . S
C1056 C1053 1.358 . S
C1056 C1057 1.356 . S
C1056 H1093 0.930 . S
C1057 C1054 1.348 . S
C1057 C1056 1.356 . S
H1058 C1052 0.930 . S
H1059 C1053 0.930 . S
C1060 N1061 1.314 . S
C1060 C1062 1.353 . S
C1060 H1066 0.930 . S
N1061 Li1011 1.990 . S
N1061 C1060 1.314 . S
N1061 C1064 1.279 . S
C1062 C1060 1.353 . S
C1062 C1065 1.348 . S
C1062 H1094 0.929 . S
C1063 C1064 1.358 . S
C1063 C1065 1.356 . S
C1063 H1095 0.930 . S
C1064 N1061 1.279 . S
C1064 C1063 1.358 . S
C1064 H1067 0.930 . S
C1065 C1062 1.348 . S
C1065 C1063 1.356 . S
H1066 C1060 0.930 . S
H1067 C1064 0.930 . S
O1068 Li1008 1.956 . S
O1068 Li1009 1.970 . S
O1068 Li1010 1.961 . S
O1068 C1012 1.325 . S
O1069 Li1008 1.970 . S
O1069 Li1009 1.956 . S
O1069 Li1011 1.961 1_455 S
O1069 C1018 1.325 . S
O1070 Li1008 1.961 . S
O1070 Li1010 1.956 . S
O1070 Li1011 1.970 1_455 S
O1070 C1040 1.325 . S
O1071 Li1009 1.961 1_655 S
O1071 Li1010 1.970 1_655 S
O1071 Li1011 1.956 . S
O1071 C1046 1.325 . S
H1072 C1014 0.929 . S
H1073 C1015 0.930 . S
H1074 C1016 0.930 . S
H1075 C1017 0.930 . S
H1076 C1019 0.930 . S
H1077 C1021 0.929 . S
H1078 C1022 0.930 . S
H1079 C1023 0.930 . S
H1080 C1026 0.930 . S
H1081 C1029 0.929 . S
H1082 C1034 0.929 . S
H1083 C1035 0.930 . S
H1084 C1042 0.929 . S
H1085 C1043 0.930 . S
H1086 C1044 0.930 . S
H1087 C1045 0.930 . S
H1088 C1047 0.929 . S
H1089 C1048 0.930 . S
H1090 C1049 0.930 . S
H1091 C1050 0.930 . S
H1092 C1054 0.929 . S
H1093 C1056 0.930 . S
H1094 C1062 0.929 . S
H1095 C1063 0.930 . S
Li1096 N1113 1.990 . S
Li1096 O1156 1.956 . S
Li1096 O1157 1.970 . S
Li1096 O1158 1.961 . S
Li1097 N1121 1.990 . S
Li1097 O1156 1.970 . S
Li1097 O1157 1.956 . S
Li1097 O1159 1.961 . S
Li1098 N1143 1.990 . S
Li1098 O1156 1.961 . S
Li1098 O1158 1.956 . S
Li1098 O1159 1.970 . S
Li1099 N1149 1.990 . S
Li1099 O1157 1.961 . S
Li1099 O1158 1.970 . S
Li1099 O1159 1.956 . S
C1100 C1102 1.348 . S
C1100 C1103 1.356 . S
C1100 O1156 1.325 . S
N1101 C1104 1.314 . S
N1101 C1105 1.279 . S
C1102 C1100 1.348 . S
C1102 C1104 1.353 . S
C1102 H1160 0.929 . S
C1103 C1100 1.356 . S
C1103 C1105 1.358 . S
C1103 H1161 0.930 . S
C1104 N1101 1.314 . S
C1104 C1102 1.353 . S
C1104 H1162 0.930 . S
C1105 N1101 1.279 . S
C1105 C1103 1.358 . S
C1105 H1163 0.930 . S
C1106 C1109 1.348 . S
C1106 C1110 1.356 . S
C1106 O1157 1.325 . S
C1107 N1108 1.279 . S
C1107 C1110 1.358 . S
C1107 H1164 0.930 . S
N1108 C1107 1.279 . S
N1108 C1111 1.314 . S
C1109 C1106 1.348 . S
C1109 C1111 1.353 . S
C1109 H1165 0.929 . S
C1110 C1106 1.356 . S
C1110 C1107 1.358 . S
C1110 H1166 0.930 . S
C1111 N1108 1.314 . S
C1111 C1109 1.353 . S
C1111 H1167 0.930 . S
C1112 N1113 1.314 . S
C1112 C1117 1.353 . S
C1112 H1118 0.930 . S
N1113 Li1096 1.990 . S
N1113 C1112 1.314 . S
N1113 C1115 1.279 . S
C1114 C1115 1.358 . S
C1114 C1116 1.356 . S
C1114 H1168 0.930 . S
C1115 N1113 1.279 . S
C1115 C1114 1.358 . S
C1115 H1119 0.930 . S
C1116 C1114 1.356 . S
C1116 C1117 1.348 . S
C1117 C1112 1.353 . S
C1117 C1116 1.348 . S
C1117 H1169 0.929 . S
H1118 C1112 0.930 . S
H1119 C1115 0.930 . S
C1120 N1121 1.314 . S
C1120 C1122 1.353 . S
C1120 H1126 0.930 . S
N1121 Li1097 1.990 . S
N1121 C1120 1.314 . S
N1121 C1124 1.279 . S
C1122 C1120 1.353 . S
C1122 C1125 1.348 . S
C1122 H1170 0.929 . S
C1123 C1124 1.358 . S
C1123 C1125 1.356 . S
C1123 H1171 0.930 . S
C1124 N1121 1.279 . S
C1124 C1123 1.358 . S
C1124 H1127 0.930 . S
C1125 C1122 1.348 . S
C1125 C1123 1.356 . S
H1126 C1120 0.930 . S
H1127 C1124 0.930 . S
C1128 C1130 1.348 . S
C1128 C1131 1.356 . S
C1128 O1158 1.325 . S
N1129 C1132 1.314 . S
N1129 C1133 1.279 . S
C1130 C1128 1.348 . S
C1130 C1132 1.353 . S
C1130 H1172 0.929 . S
C1131 C1128 1.356 . S
C1131 C1133 1.358 . S
C1131 H1173 0.930 . S
C1132 N1129 1.314 . S
C1132 C1130 1.353 . S
C1132 H1174 0.930 . S
C1133 N1129 1.279 . S
C1133 C1131 1.358 . S
C1133 H1175 0.930 . S
C1134 C1135 1.348 . S
C1134 C1136 1.356 . S
C1134 O1159 1.325 . S
C1135 C1134 1.348 . S
C1135 C1137 1.353 . S
C1135 H1176 0.929 . S
C1136 C1134 1.356 . S
C1136 C1138 1.358 . S
C1136 H1177 0.930 . S
C1137 C1135 1.353 . S
C1137 N1139 1.314 . S
C1137 H1178 0.930 . S
C1138 C1136 1.358 . S
C1138 N1139 1.279 . S
C1138 H1179 0.930 . S
N1139 C1137 1.314 . S
N1139 C1138 1.279 . S
C1140 C1142 1.353 . S
C1140 N1143 1.314 . S
C1140 H1146 0.930 . S
C1141 N1143 1.279 . S
C1141 C1144 1.358 . S
C1141 H1147 0.930 . S
C1142 C1140 1.353 . S
C1142 C1145 1.348 . S
C1142 H1180 0.929 . S
N1143 Li1098 1.990 . S
N1143 C1140 1.314 . S
N1143 C1141 1.279 . S
C1144 C1141 1.358 . S
C1144 C1145 1.356 . S
C1144 H1181 0.930 . S
C1145 C1142 1.348 . S
C1145 C1144 1.356 . S
H1146 C1140 0.930 . S
H1147 C1141 0.930 . S
C1148 N1149 1.314 . S
C1148 C1150 1.353 . S
C1148 H1154 0.930 . S
N1149 Li1099 1.990 . S
N1149 C1148 1.314 . S
N1149 C1152 1.279 . S
C1150 C1148 1.353 . S
C1150 C1153 1.348 . S
C1150 H1182 0.929 . S
C1151 C1152 1.358 . S
C1151 C1153 1.356 . S
C1151 H1183 0.930 . S
C1152 N1149 1.279 . S
C1152 C1151 1.358 . S
C1152 H1155 0.930 . S
C1153 C1150 1.348 . S
C1153 C1151 1.356 . S
H1154 C1148 0.930 . S
H1155 C1152 0.930 . S
O1156 Li1096 1.956 . S
O1156 Li1097 1.970 . S
O1156 Li1098 1.961 . S
O1156 C1100 1.325 . S
O1157 Li1096 1.970 . S
O1157 Li1097 1.956 . S
O1157 Li1099 1.961 . S
O1157 C1106 1.325 . S
O1158 Li1096 1.961 . S
O1158 Li1098 1.956 . S
O1158 Li1099 1.970 . S
O1158 C1128 1.325 . S
O1159 Li1097 1.961 . S
O1159 Li1098 1.970 . S
O1159 Li1099 1.956 . S
O1159 C1134 1.325 . S
H1160 C1102 0.929 . S
H1161 C1103 0.930 . S
H1162 C1104 0.930 . S
H1163 C1105 0.930 . S
H1164 C1107 0.930 . S
H1165 C1109 0.929 . S
H1166 C1110 0.930 . S
H1167 C1111 0.930 . S
H1168 C1114 0.930 . S
H1169 C1117 0.929 . S
H1170 C1122 0.929 . S
H1171 C1123 0.930 . S
H1172 C1130 0.929 . S
H1173 C1131 0.930 . S
H1174 C1132 0.930 . S
H1175 C1133 0.930 . S
H1176 C1135 0.929 . S
H1177 C1136 0.930 . S
H1178 C1137 0.930 . S
H1179 C1138 0.930 . S
H1180 C1142 0.929 . S
H1181 C1144 0.930 . S
H1182 C1150 0.929 . S
H1183 C1151 0.930 . S
Li1184 N1201 1.990 . S
Li1184 O1244 1.956 . S
Li1184 O1245 1.970 1_455 S
Li1184 O1246 1.961 . S
Li1185 N1209 1.990 . S
Li1185 O1244 1.970 1_655 S
Li1185 O1245 1.956 . S
Li1185 O1247 1.961 . S
Li1186 N1231 1.990 . S
Li1186 O1244 1.961 . S
Li1186 O1246 1.956 . S
Li1186 O1247 1.970 1_455 S
Li1187 N1237 1.990 . S
Li1187 O1245 1.961 . S
Li1187 O1246 1.970 1_655 S
Li1187 O1247 1.956 . S
C1188 C1190 1.348 1_455 S
C1188 C1191 1.356 . S
C1188 O1244 1.325 . S
N1189 C1192 1.321 . S
N1189 C1193 1.279 . S
C1190 C1188 1.348 1_655 S
C1190 C1192 1.352 1_655 S
C1190 H1248 0.929 . S
C1191 C1188 1.356 . S
C1191 C1193 1.358 . S
C1191 H1249 0.930 . S
C1192 N1189 1.321 . S
C1192 C1190 1.352 1_455 S
C1192 H1250 0.923 1_455 S
C1193 N1189 1.279 . S
C1193 C1191 1.358 . S
C1193 H1251 0.930 . S
C1194 C1197 1.348 . S
C1194 C1198 1.356 . S
C1194 O1245 1.325 . S
C1195 N1196 1.279 . S
C1195 C1198 1.358 . S
C1195 H1252 0.930 . S
N1196 C1195 1.279 . S
N1196 C1199 1.314 . S
C1197 C1194 1.348 . S
C1197 C1199 1.353 . S
C1197 H1253 0.929 . S
C1198 C1194 1.356 . S
C1198 C1195 1.358 . S
C1198 H1254 0.930 . S
C1199 N1196 1.314 . S
C1199 C1197 1.353 . S
C1199 H1255 0.930 . S
C1200 N1201 1.314 . S
C1200 C1205 1.353 . S
C1200 H1206 0.930 . S
N1201 Li1184 1.990 . S
N1201 C1200 1.314 . S
N1201 C1203 1.279 . S
C1202 C1203 1.358 . S
C1202 C1204 1.356 . S
C1202 H1256 0.930 . S
C1203 N1201 1.279 . S
C1203 C1202 1.358 . S
C1203 H1207 0.930 . S
C1204 C1202 1.356 . S
C1204 C1205 1.348 . S
C1205 C1200 1.353 . S
C1205 C1204 1.348 . S
C1205 H1257 0.929 . S
H1206 C1200 0.930 . S
H1207 C1203 0.930 . S
C1208 N1209 1.314 . S
C1208 C1210 1.353 . S
C1208 H1214 0.930 . S
N1209 Li1185 1.990 . S
N1209 C1208 1.314 . S
N1209 C1212 1.279 . S
C1210 C1208 1.353 . S
C1210 C1213 1.348 . S
C1210 H1258 0.929 . S
C1211 C1212 1.358 . S
C1211 C1213 1.356 . S
C1211 H1259 0.930 . S
C1212 N1209 1.279 . S
C1212 C1211 1.358 . S
C1212 H1215 0.930 . S
C1213 C1210 1.348 . S
C1213 C1211 1.356 . S
H1214 C1208 0.930 . S
H1215 C1212 0.930 . S
C1216 C1218 1.348 . S
C1216 C1219 1.356 . S
C1216 O1246 1.325 . S
N1217 C1220 1.314 . S
N1217 C1221 1.279 . S
C1218 C1216 1.348 . S
C1218 C1220 1.353 . S
C1218 H1260 0.929 . S
C1219 C1216 1.356 . S
C1219 C1221 1.358 . S
C1219 H1261 0.930 . S
C1220 N1217 1.314 . S
C1220 C1218 1.353 . S
C1220 H1262 0.930 . S
C1221 N1217 1.279 . S
C1221 C1219 1.358 . S
C1221 H1263 0.930 . S
C1222 C1223 1.348 1_655 S
C1222 C1224 1.356 . S
C1222 O1247 1.325 . S
C1223 C1222 1.348 1_455 S
C1223 C1225 1.353 1_455 S
C1223 H1264 0.929 . S
C1224 C1222 1.356 . S
C1224 C1226 1.358 . S
C1224 H1265 0.930 . S
C1225 C1223 1.353 1_655 S
C1225 N1227 1.314 . S
C1225 H1266 0.930 1_655 S
C1226 C1224 1.358 . S
C1226 N1227 1.279 . S
C1226 H1267 0.930 . S
N1227 C1225 1.314 . S
N1227 C1226 1.279 . S
C1228 C1230 1.353 . S
C1228 N1231 1.314 . S
C1228 H1234 0.930 . S
C1229 N1231 1.279 . S
C1229 C1232 1.358 . S
C1229 H1235 0.930 . S
C1230 C1228 1.353 . S
C1230 C1233 1.348 . S
C1230 H1268 0.929 . S
N1231 Li1186 1.990 . S
N1231 C1228 1.314 . S
N1231 C1229 1.279 . S
C1232 C1229 1.358 . S
C1232 C1233 1.356 . S
C1232 H1269 0.930 . S
C1233 C1230 1.348 . S
C1233 C1232 1.356 . S
H1234 C1228 0.930 . S
H1235 C1229 0.930 . S
C1236 N1237 1.314 . S
C1236 C1238 1.353 . S
C1236 H1242 0.930 . S
N1237 Li1187 1.990 . S
N1237 C1236 1.314 . S
N1237 C1240 1.279 . S
C1238 C1236 1.353 . S
C1238 C1241 1.348 . S
C1238 H1270 0.929 . S
C1239 C1240 1.358 . S
C1239 C1241 1.356 . S
C1239 H1271 0.930 . S
C1240 N1237 1.279 . S
C1240 C1239 1.358 . S
C1240 H1243 0.930 . S
C1241 C1238 1.348 . S
C1241 C1239 1.356 . S
H1242 C1236 0.930 . S
H1243 C1240 0.930 . S
O1244 Li1184 1.956 . S
O1244 Li1185 1.970 1_455 S
O1244 Li1186 1.961 . S
O1244 C1188 1.325 . S
O1245 Li1184 1.970 1_655 S
O1245 Li1185 1.956 . S
O1245 Li1187 1.961 . S
O1245 C1194 1.325 . S
O1246 Li1184 1.961 . S
O1246 Li1186 1.956 . S
O1246 Li1187 1.970 1_455 S
O1246 C1216 1.325 . S
O1247 Li1185 1.961 . S
O1247 Li1186 1.970 1_655 S
O1247 Li1187 1.956 . S
O1247 C1222 1.325 . S
H1248 C1190 0.929 . S
H1249 C1191 0.930 . S
H1250 C1192 0.923 1_655 S
H1251 C1193 0.930 . S
H1252 C1195 0.930 . S
H1253 C1197 0.929 . S
H1254 C1198 0.930 . S
H1255 C1199 0.930 . S
H1256 C1202 0.930 . S
H1257 C1205 0.929 . S
H1258 C1210 0.929 . S
H1259 C1211 0.930 . S
H1260 C1218 0.929 . S
H1261 C1219 0.930 . S
H1262 C1220 0.930 . S
H1263 C1221 0.930 . S
H1264 C1223 0.929 . S
H1265 C1224 0.930 . S
H1266 C1225 0.930 1_455 S
H1267 C1226 0.930 . S
H1268 C1230 0.929 . S
H1269 C1232 0.930 . S
H1270 C1238 0.929 . S
H1271 C1239 0.930 . S
Li1272 N1289 1.990 . S
Li1272 O1332 1.956 . S
Li1272 O1333 1.970 . S
Li1272 O1334 1.961 . S
Li1273 N1297 1.990 . S
Li1273 O1332 1.970 . S
Li1273 O1333 1.956 . S
Li1273 O1335 1.961 . S
Li1274 N1319 1.990 . S
Li1274 O1332 1.961 . S
Li1274 O1334 1.956 . S
Li1274 O1335 1.970 . S
Li1275 N1325 1.990 . S
Li1275 O1333 1.961 . S
Li1275 O1334 1.970 . S
Li1275 O1335 1.956 . S
C1276 C1278 1.348 . S
C1276 C1279 1.356 . S
C1276 O1332 1.325 . S
N1277 C1280 1.314 . S
N1277 C1281 1.279 . S
C1278 C1276 1.348 . S
C1278 C1280 1.353 . S
C1278 H1336 0.929 . S
C1279 C1276 1.356 . S
C1279 C1281 1.358 . S
C1279 H1337 0.930 . S
C1280 N1277 1.314 . S
C1280 C1278 1.353 . S
C1280 H1338 0.930 . S
C1281 N1277 1.279 . S
C1281 C1279 1.358 . S
C1281 H1339 0.930 . S
C1282 C1285 1.348 . S
C1282 C1286 1.356 . S
C1282 O1333 1.325 . S
C1283 N1284 1.279 . S
C1283 C1286 1.358 . S
C1283 H1340 0.930 . S
N1284 C1283 1.279 . S
N1284 C1287 1.314 . S
C1285 C1282 1.348 . S
C1285 C1287 1.353 . S
C1285 H1341 0.929 . S
C1286 C1282 1.356 . S
C1286 C1283 1.358 . S
C1286 H1342 0.930 . S
C1287 N1284 1.314 . S
C1287 C1285 1.353 . S
C1287 H1343 0.930 . S
C1288 N1289 1.314 . S
C1288 C1293 1.353 . S
C1288 H1294 0.930 . S
N1289 Li1272 1.990 . S
N1289 C1288 1.314 . S
N1289 C1291 1.279 . S
C1290 C1291 1.358 . S
C1290 C1292 1.356 . S
C1290 H1344 0.930 . S
C1291 N1289 1.279 . S
C1291 C1290 1.358 . S
C1291 H1295 0.930 . S
C1292 C1290 1.356 . S
C1292 C1293 1.348 . S
C1293 C1288 1.353 . S
C1293 C1292 1.348 . S
C1293 H1345 0.929 . S
H1294 C1288 0.930 . S
H1295 C1291 0.930 . S
C1296 N1297 1.314 . S
C1296 C1298 1.353 . S
C1296 H1302 0.930 . S
N1297 Li1273 1.990 . S
N1297 C1296 1.314 . S
N1297 C1300 1.279 . S
C1298 C1296 1.353 . S
C1298 C1301 1.348 . S
C1298 H1346 0.929 . S
C1299 C1300 1.358 . S
C1299 C1301 1.356 . S
C1299 H1347 0.930 . S
C1300 N1297 1.279 . S
C1300 C1299 1.358 . S
C1300 H1303 0.930 . S
C1301 C1298 1.348 . S
C1301 C1299 1.356 . S
H1302 C1296 0.930 . S
H1303 C1300 0.930 . S
C1304 C1306 1.348 . S
C1304 C1307 1.356 . S
C1304 O1334 1.325 . S
N1305 C1308 1.314 . S
N1305 C1309 1.279 . S
C1306 C1304 1.348 . S
C1306 C1308 1.353 . S
C1306 H1348 0.929 . S
C1307 C1304 1.356 . S
C1307 C1309 1.358 . S
C1307 H1349 0.930 . S
C1308 N1305 1.314 . S
C1308 C1306 1.353 . S
C1308 H1350 0.930 . S
C1309 N1305 1.279 . S
C1309 C1307 1.358 . S
C1309 H1351 0.930 . S
C1310 C1311 1.348 . S
C1310 C1312 1.356 . S
C1310 O1335 1.325 . S
C1311 C1310 1.348 . S
C1311 C1313 1.353 . S
C1311 H1352 0.929 . S
C1312 C1310 1.356 . S
C1312 C1314 1.358 . S
C1312 H1353 0.930 . S
C1313 C1311 1.353 . S
C1313 N1315 1.314 . S
C1313 H1354 0.930 . S
C1314 C1312 1.358 . S
C1314 N1315 1.279 . S
C1314 H1355 0.930 . S
N1315 C1313 1.314 . S
N1315 C1314 1.279 . S
C1316 C1318 1.353 . S
C1316 N1319 1.314 . S
C1316 H1322 0.930 . S
C1317 N1319 1.279 . S
C1317 C1320 1.358 . S
C1317 H1323 0.930 . S
C1318 C1316 1.353 . S
C1318 C1321 1.348 . S
C1318 H1356 0.929 . S
N1319 Li1274 1.990 . S
N1319 C1316 1.314 . S
N1319 C1317 1.279 . S
C1320 C1317 1.358 . S
C1320 C1321 1.356 . S
C1320 H1357 0.930 . S
C1321 C1318 1.348 . S
C1321 C1320 1.356 . S
H1322 C1316 0.930 . S
H1323 C1317 0.930 . S
C1324 N1325 1.314 . S
C1324 C1326 1.353 . S
C1324 H1330 0.930 . S
N1325 Li1275 1.990 . S
N1325 C1324 1.314 . S
N1325 C1328 1.279 . S
C1326 C1324 1.353 . S
C1326 C1329 1.348 . S
C1326 H1358 0.929 . S
C1327 C1328 1.358 . S
C1327 C1329 1.356 . S
C1327 H1359 0.930 . S
C1328 N1325 1.279 . S
C1328 C1327 1.358 . S
C1328 H1331 0.930 . S
C1329 C1326 1.348 . S
C1329 C1327 1.356 . S
H1330 C1324 0.930 . S
H1331 C1328 0.930 . S
O1332 Li1272 1.956 . S
O1332 Li1273 1.970 . S
O1332 Li1274 1.961 . S
O1332 C1276 1.325 . S
O1333 Li1272 1.970 . S
O1333 Li1273 1.956 . S
O1333 Li1275 1.961 . S
O1333 C1282 1.325 . S
O1334 Li1272 1.961 . S
O1334 Li1274 1.956 . S
O1334 Li1275 1.970 . S
O1334 C1304 1.325 . S
O1335 Li1273 1.961 . S
O1335 Li1274 1.970 . S
O1335 Li1275 1.956 . S
O1335 C1310 1.325 . S
H1336 C1278 0.929 . S
H1337 C1279 0.930 . S
H1338 C1280 0.930 . S
H1339 C1281 0.930 . S
H1340 C1283 0.930 . S
H1341 C1285 0.929 . S
H1342 C1286 0.930 . S
H1343 C1287 0.930 . S
H1344 C1290 0.930 . S
H1345 C1293 0.929 . S
H1346 C1298 0.929 . S
H1347 C1299 0.930 . S
H1348 C1306 0.929 . S
H1349 C1307 0.930 . S
H1350 C1308 0.930 . S
H1351 C1309 0.930 . S
H1352 C1311 0.929 . S
H1353 C1312 0.930 . S
H1354 C1313 0.930 . S
H1355 C1314 0.930 . S
H1356 C1318 0.929 . S
H1357 C1320 0.930 . S
H1358 C1326 0.929 . S
H1359 C1327 0.930 . S
H1360 C1372 0.930 . S
H1361 C1374 0.930 . S
H1362 C1375 0.930 . S
H1363 C1379 0.959 . S
H1364 C1379 0.959 . S
H1365 C1379 0.961 . S
H1366 C1380 0.960 . S
H1367 C1380 0.961 . S
H1368 C1380 0.959 . S
H1369 C1383 0.929 . S
H1370 C1384 0.931 . S
H1371 C1386 0.930 . S
C1372 H1360 0.930 . S
C1372 C1373 1.399 . S
C1372 C1377 1.399 . S
C1373 C1372 1.399 . S
C1373 C1374 1.376 . S
C1374 H1361 0.930 . S
C1374 C1373 1.376 . S
C1374 C1375 1.388 . S
C1375 H1362 0.930 . S
C1375 C1374 1.388 . S
C1375 C1376 1.390 . S
C1376 C1375 1.390 . S
C1376 C1377 1.394 . S
C1376 C1382 1.465 . S
C1377 C1372 1.399 . S
C1377 C1376 1.394 . S
C1377 C1378 1.516 . S
C1378 C1377 1.516 . S
C1378 C1379 1.502 . S
C1378 C1380 1.561 . S
C1378 C1381 1.526 . S
C1379 H1363 0.959 . S
C1379 H1364 0.959 . S
C1379 H1365 0.961 . S
C1379 C1378 1.502 . S
C1380 H1366 0.960 . S
C1380 H1367 0.961 . S
C1380 H1368 0.959 . S
C1380 C1378 1.561 . S
C1381 C1378 1.526 . S
C1381 C1382 1.396 . S
C1381 C1386 1.390 . S
C1382 C1376 1.465 . S
C1382 C1381 1.396 . S
C1382 C1383 1.399 . S
C1383 H1369 0.929 . S
C1383 C1382 1.399 . S
C1383 C1384 1.385 . S
C1384 H1370 0.931 . S
C1384 C1383 1.385 . S
C1384 C1385 1.389 . S
C1385 C1384 1.389 . S
C1385 C1386 1.387 . S
C1386 H1371 0.930 . S
C1386 C1381 1.390 . S
C1386 C1385 1.387 . S
H1387 C1399 0.930 . S
H1388 C1401 0.930 . S
H1389 C1402 0.930 . S
H1390 C1406 0.959 . S
H1391 C1406 0.959 . S
H1392 C1406 0.961 . S
H1393 C1407 0.960 . S
H1394 C1407 0.961 . S
H1395 C1407 0.959 . S
H1396 C1410 0.929 . S
H1397 C1411 0.931 . S
H1398 C1413 0.930 . S
C1399 H1387 0.930 . S
C1399 C1400 1.399 . S
C1399 C1404 1.399 . S
C1400 C1399 1.399 . S
C1400 C1401 1.376 . S
C1401 H1388 0.930 . S
C1401 C1400 1.376 . S
C1401 C1402 1.388 . S
C1402 H1389 0.930 . S
C1402 C1401 1.388 . S
C1402 C1403 1.390 . S
C1403 C1402 1.390 . S
C1403 C1404 1.394 . S
C1403 C1409 1.465 . S
C1404 C1399 1.399 . S
C1404 C1403 1.394 . S
C1404 C1405 1.516 . S
C1405 C1404 1.516 . S
C1405 C1406 1.502 . S
C1405 C1407 1.561 . S
C1405 C1408 1.526 . S
C1406 H1390 0.959 . S
C1406 H1391 0.959 . S
C1406 H1392 0.961 . S
C1406 C1405 1.502 . S
C1407 H1393 0.960 . S
C1407 H1394 0.961 . S
C1407 H1395 0.959 . S
C1407 C1405 1.561 . S
C1408 C1405 1.526 . S
C1408 C1409 1.396 . S
C1408 C1413 1.390 . S
C1409 C1403 1.465 . S
C1409 C1408 1.396 . S
C1409 C1410 1.399 . S
C1410 H1396 0.929 . S
C1410 C1409 1.399 . S
C1410 C1411 1.385 . S
C1411 H1397 0.931 . S
C1411 C1410 1.385 . S
C1411 C1412 1.389 . S
C1412 C1411 1.389 . S
C1412 C1413 1.387 . S
C1413 H1398 0.930 . S
C1413 C1408 1.390 . S
C1413 C1412 1.387 . S
H1414 C1426 0.930 . S
H1415 C1428 0.930 . S
H1416 C1429 0.930 . S
H1417 C1433 0.959 . S
H1418 C1433 0.959 . S
H1419 C1433 0.961 . S
H1420 C1434 0.960 . S
H1421 C1434 0.961 . S
H1422 C1434 0.959 . S
H1423 C1437 0.929 . S
H1424 C1438 0.931 . S
H1425 C1440 0.930 . S
C1426 H1414 0.930 . S
C1426 C1427 1.399 . S
C1426 C1431 1.399 . S
C1427 C1426 1.399 . S
C1427 C1428 1.376 . S
C1428 H1415 0.930 . S
C1428 C1427 1.376 . S
C1428 C1429 1.388 . S
C1429 H1416 0.930 . S
C1429 C1428 1.388 . S
C1429 C1430 1.390 . S
C1430 C1429 1.390 . S
C1430 C1431 1.394 . S
C1430 C1436 1.465 . S
C1431 C1426 1.399 . S
C1431 C1430 1.394 . S
C1431 C1432 1.516 . S
C1432 C1431 1.516 . S
C1432 C1433 1.502 . S
C1432 C1434 1.561 . S
C1432 C1435 1.526 . S
C1433 H1417 0.959 . S
C1433 H1418 0.959 . S
C1433 H1419 0.961 . S
C1433 C1432 1.502 . S
C1434 H1420 0.960 . S
C1434 H1421 0.961 . S
C1434 H1422 0.959 . S
C1434 C1432 1.561 . S
C1435 C1432 1.526 . S
C1435 C1436 1.396 . S
C1435 C1440 1.390 . S
C1436 C1430 1.465 . S
C1436 C1435 1.396 . S
C1436 C1437 1.399 . S
C1437 H1423 0.929 . S
C1437 C1436 1.399 . S
C1437 C1438 1.385 . S
C1438 H1424 0.931 . S
C1438 C1437 1.385 . S
C1438 C1439 1.389 . S
C1439 C1438 1.389 . S
C1439 C1440 1.387 . S
C1440 H1425 0.930 . S
C1440 C1435 1.390 . S
C1440 C1439 1.387 . S
H1441 C1453 0.930 1_545 S
H1442 C1455 0.930 . S
H1443 C1456 0.930 . S
H1444 C1460 0.959 1_655 S
H1445 C1460 0.959 1_655 S
H1446 C1460 0.961 . S
H1447 C1461 0.960 . S
H1448 C1461 0.961 . S
H1449 C1461 0.959 . S
H1450 C1464 0.929 . S
H1451 C1465 0.931 . S
H1452 C1467 0.930 . S
C1453 H1441 0.930 1_565 S
C1453 C1454 1.399 . S
C1453 C1458 1.386 1_565 S
C1454 C1453 1.399 . S
C1454 C1455 1.376 . S
C1455 H1442 0.930 . S
C1455 C1454 1.376 . S
C1455 C1456 1.388 . S
C1456 H1443 0.930 . S
C1456 C1455 1.388 . S
C1456 C1457 1.390 . S
C1457 C1456 1.390 . S
C1457 C1458 1.372 1_565 S
C1457 C1463 1.465 . S
C1458 C1453 1.386 1_545 S
C1458 C1457 1.372 1_545 S
C1458 C1459 1.552 . S
C1459 C1458 1.552 . S
C1459 C1460 1.502 . S
C1459 C1461 1.561 . S
C1459 C1462 1.526 . S
C1460 H1444 0.959 1_455 S
C1460 H1445 0.959 1_455 S
C1460 H1446 0.961 . S
C1460 C1459 1.502 . S
C1461 H1447 0.960 . S
C1461 H1448 0.961 . S
C1461 H1449 0.959 . S
C1461 C1459 1.561 . S
C1462 C1459 1.526 . S
C1462 C1463 1.396 1_545 S
C1462 C1467 1.390 . S
C1463 C1457 1.465 . S
C1463 C1462 1.396 1_565 S
C1463 C1464 1.399 . S
C1464 H1450 0.929 . S
C1464 C1463 1.399 . S
C1464 C1465 1.385 . S
C1465 H1451 0.931 . S
C1465 C1464 1.385 . S
C1465 C1466 1.389 1_565 S
C1466 C1465 1.389 1_545 S
C1466 C1467 1.387 . S
C1467 H1452 0.930 . S
C1467 C1462 1.390 . S
C1467 C1466 1.387 . S
H1468 C1480 0.930 . S
H1469 C1482 0.930 . S
H1470 C1483 0.930 . S
H1471 C1487 0.959 . S
H1472 C1487 0.959 . S
H1473 C1487 0.961 . S
H1474 C1488 0.960 . S
H1475 C1488 0.961 . S
H1476 C1488 0.959 . S
H1477 C1491 0.929 . S
H1478 C1492 0.931 . S
H1479 C1494 0.930 . S
C1480 H1468 0.930 . S
C1480 C1481 1.399 . S
C1480 C1485 1.399 . S
C1481 C1480 1.399 . S
C1481 C1482 1.376 . S
C1482 H1469 0.930 . S
C1482 C1481 1.376 . S
C1482 C1483 1.388 . S
C1483 H1470 0.930 . S
C1483 C1482 1.388 . S
C1483 C1484 1.390 . S
C1484 C1483 1.390 . S
C1484 C1485 1.394 . S
C1484 C1490 1.465 . S
C1485 C1480 1.399 . S
C1485 C1484 1.394 . S
C1485 C1486 1.516 . S
C1486 C1485 1.516 . S
C1486 C1487 1.502 . S
C1486 C1488 1.561 . S
C1486 C1489 1.526 . S
C1487 H1471 0.959 . S
C1487 H1472 0.959 . S
C1487 H1473 0.961 . S
C1487 C1486 1.502 . S
C1488 H1474 0.960 . S
C1488 H1475 0.961 . S
C1488 H1476 0.959 . S
C1488 C1486 1.561 . S
C1489 C1486 1.526 . S
C1489 C1490 1.396 . S
C1489 C1494 1.390 . S
C1490 C1484 1.465 . S
C1490 C1489 1.396 . S
C1490 C1491 1.399 . S
C1491 H1477 0.929 . S
C1491 C1490 1.399 . S
C1491 C1492 1.385 . S
C1492 H1478 0.931 . S
C1492 C1491 1.385 . S
C1492 C1493 1.389 . S
C1493 C1492 1.389 . S
C1493 C1494 1.387 . S
C1494 H1479 0.930 . S
C1494 C1489 1.390 . S
C1494 C1493 1.387 . S
H1495 C1507 0.930 . S
H1496 C1509 0.930 . S
H1497 C1510 0.930 . S
H1498 C1514 0.959 . S
H1499 C1514 0.959 . S
H1500 C1514 0.961 . S
H1501 C1515 0.960 . S
H1502 C1515 0.961 . S
H1503 C1515 0.959 . S
H1504 C1518 0.929 . S
H1505 C1519 0.931 . S
H1506 C1521 0.930 . S
C1507 H1495 0.930 . S
C1507 C1508 1.399 . S
C1507 C1512 1.399 . S
C1508 C1507 1.399 . S
C1508 C1509 1.376 . S
C1509 H1496 0.930 . S
C1509 C1508 1.376 . S
C1509 C1510 1.388 . S
C1510 H1497 0.930 . S
C1510 C1509 1.388 . S
C1510 C1511 1.390 . S
C1511 C1510 1.390 . S
C1511 C1512 1.394 . S
C1511 C1517 1.465 . S
C1512 C1507 1.399 . S
C1512 C1511 1.394 . S
C1512 C1513 1.516 . S
C1513 C1512 1.516 . S
C1513 C1514 1.502 . S
C1513 C1515 1.561 . S
C1513 C1516 1.526 . S
C1514 H1498 0.959 . S
C1514 H1499 0.959 . S
C1514 H1500 0.961 . S
C1514 C1513 1.502 . S
C1515 H1501 0.960 . S
C1515 H1502 0.961 . S
C1515 H1503 0.959 . S
C1515 C1513 1.561 . S
C1516 C1513 1.526 . S
C1516 C1517 1.396 . S
C1516 C1521 1.390 . S
C1517 C1511 1.465 . S
C1517 C1516 1.396 . S
C1517 C1518 1.399 . S
C1518 H1504 0.929 . S
C1518 C1517 1.399 . S
C1518 C1519 1.385 . S
C1519 H1505 0.931 . S
C1519 C1518 1.385 . S
C1519 C1520 1.389 . S
C1520 C1519 1.389 . S
C1520 C1521 1.387 . S
C1521 H1506 0.930 . S
C1521 C1516 1.390 . S
C1521 C1520 1.387 . S
H1522 C1534 0.930 . S
H1523 C1536 0.930 . S
H1524 C1537 0.930 . S
H1525 C1541 0.959 . S
H1526 C1541 0.959 . S
H1527 C1541 0.961 . S
H1528 C1542 0.960 . S
H1529 C1542 0.961 . S
H1530 C1542 0.959 . S
H1531 C1545 0.929 . S
H1532 C1546 0.931 . S
H1533 C1548 0.930 . S
C1534 H1522 0.930 . S
C1534 C1535 1.399 . S
C1534 C1539 1.399 . S
C1535 C1534 1.399 . S
C1535 C1536 1.376 . S
C1536 H1523 0.930 . S
C1536 C1535 1.376 . S
C1536 C1537 1.388 . S
C1537 H1524 0.930 . S
C1537 C1536 1.388 . S
C1537 C1538 1.390 . S
C1538 C1537 1.390 . S
C1538 C1539 1.394 . S
C1538 C1544 1.465 . S
C1539 C1534 1.399 . S
C1539 C1538 1.394 . S
C1539 C1540 1.516 . S
C1540 C1539 1.516 . S
C1540 C1541 1.502 . S
C1540 C1542 1.561 . S
C1540 C1543 1.526 . S
C1541 H1525 0.959 . S
C1541 H1526 0.959 . S
C1541 H1527 0.961 . S
C1541 C1540 1.502 . S
C1542 H1528 0.960 . S
C1542 H1529 0.961 . S
C1542 H1530 0.959 . S
C1542 C1540 1.561 . S
C1543 C1540 1.526 . S
C1543 C1544 1.396 . S
C1543 C1548 1.390 . S
C1544 C1538 1.465 . S
C1544 C1543 1.396 . S
C1544 C1545 1.399 . S
C1545 H1531 0.929 . S
C1545 C1544 1.399 . S
C1545 C1546 1.385 . S
C1546 H1532 0.931 . S
C1546 C1545 1.385 . S
C1546 C1547 1.389 . S
C1547 C1546 1.389 . S
C1547 C1548 1.387 . S
C1548 H1533 0.930 . S
C1548 C1543 1.390 . S
C1548 C1547 1.387 . S
H1549 C1561 0.930 . S
H1550 C1563 0.930 . S
H1551 C1564 0.930 . S
H1552 C1568 0.959 . S
H1553 C1568 0.959 . S
H1554 C1568 0.961 . S
H1555 C1569 0.960 . S
H1556 C1569 0.961 . S
H1557 C1569 0.959 . S
H1558 C1572 0.929 . S
H1559 C1573 0.931 . S
H1560 C1575 0.930 . S
C1561 H1549 0.930 . S
C1561 C1562 1.399 . S
C1561 C1566 1.399 . S
C1562 C1561 1.399 . S
C1562 C1563 1.376 1_565 S
C1563 H1550 0.930 . S
C1563 C1562 1.376 1_545 S
C1563 C1564 1.388 . S
C1564 H1551 0.930 . S
C1564 C1563 1.388 . S
C1564 C1565 1.373 1_545 S
C1565 C1564 1.373 1_565 S
C1565 C1566 1.413 . S
C1565 C1571 1.466 1_565 S
C1566 C1561 1.399 . S
C1566 C1565 1.413 . S
C1566 C1567 1.516 . S
C1567 C1566 1.516 . S
C1567 C1568 1.502 . S
C1567 C1569 1.561 . S
C1567 C1570 1.526 . S
C1568 H1552 0.959 . S
C1568 H1553 0.959 . S
C1568 H1554 0.961 . S
C1568 C1567 1.502 . S
C1569 H1555 0.960 . S
C1569 H1556 0.961 . S
C1569 H1557 0.959 . S
C1569 C1567 1.561 . S
C1570 C1567 1.526 . S
C1570 C1571 1.396 1_565 S
C1570 C1575 1.390 . S
C1571 C1565 1.466 1_545 S
C1571 C1570 1.396 1_545 S
C1571 C1572 1.399 . S
C1572 H1558 0.929 . S
C1572 C1571 1.399 . S
C1572 C1573 1.385 . S
C1573 H1559 0.931 . S
C1573 C1572 1.385 . S
C1573 C1574 1.370 1_545 S
C1574 C1573 1.370 1_565 S
C1574 C1575 1.401 . S
C1575 H1560 0.930 . S
C1575 C1570 1.390 . S
C1575 C1574 1.401 . S
H1576 C1588 0.930 . S
H1577 C1590 0.930 . S
H1578 C1591 0.930 . S
H1579 C1595 0.959 . S
H1580 C1595 0.959 . S
H1581 C1595 0.961 . S
H1582 C1596 0.960 . S
H1583 C1596 0.961 . S
H1584 C1596 0.959 . S
H1585 C1599 0.929 . S
H1586 C1600 0.931 . S
H1587 C1602 0.930 . S
C1588 H1576 0.930 . S
C1588 C1589 1.399 . S
C1588 C1593 1.399 . S
C1589 C1588 1.399 . S
C1589 C1590 1.376 . S
C1590 H1577 0.930 . S
C1590 C1589 1.376 . S
C1590 C1591 1.388 . S
C1591 H1578 0.930 . S
C1591 C1590 1.388 . S
C1591 C1592 1.390 . S
C1592 C1591 1.390 . S
C1592 C1593 1.394 . S
C1592 C1598 1.465 . S
C1593 C1588 1.399 . S
C1593 C1592 1.394 . S
C1593 C1594 1.516 . S
C1594 C1593 1.516 . S
C1594 C1595 1.502 . S
C1594 C1596 1.561 . S
C1594 C1597 1.526 . S
C1595 H1579 0.959 . S
C1595 H1580 0.959 . S
C1595 H1581 0.961 . S
C1595 C1594 1.502 . S
C1596 H1582 0.960 . S
C1596 H1583 0.961 . S
C1596 H1584 0.959 . S
C1596 C1594 1.561 . S
C1597 C1594 1.526 . S
C1597 C1598 1.396 . S
C1597 C1602 1.390 . S
C1598 C1592 1.465 . S
C1598 C1597 1.396 . S
C1598 C1599 1.399 . S
C1599 H1585 0.929 . S
C1599 C1598 1.399 . S
C1599 C1600 1.385 . S
C1600 H1586 0.931 . S
C1600 C1599 1.385 . S
C1600 C1601 1.389 . S
C1601 C1600 1.389 . S
C1601 C1602 1.387 . S
C1602 H1587 0.930 . S
C1602 C1597 1.390 . S
C1602 C1601 1.387 . S
H1603 C1615 0.930 . S
H1604 C1617 0.930 . S
H1605 C1618 0.930 . S
H1606 C1622 0.959 . S
H1607 C1622 0.959 . S
H1608 C1622 0.961 . S
H1609 C1623 0.960 . S
H1610 C1623 0.961 . S
H1611 C1623 0.959 . S
H1612 C1626 0.929 . S
H1613 C1627 0.931 . S
H1614 C1629 0.930 . S
C1615 H1603 0.930 . S
C1615 C1616 1.399 . S
C1615 C1620 1.399 . S
C1616 C1615 1.399 . S
C1616 C1617 1.376 . S
C1617 H1604 0.930 . S
C1617 C1616 1.376 . S
C1617 C1618 1.388 . S
C1618 H1605 0.930 . S
C1618 C1617 1.388 . S
C1618 C1619 1.390 . S
C1619 C1618 1.390 . S
C1619 C1620 1.394 . S
C1619 C1625 1.465 . S
C1620 C1615 1.399 . S
C1620 C1619 1.394 . S
C1620 C1621 1.516 . S
C1621 C1620 1.516 . S
C1621 C1622 1.502 . S
C1621 C1623 1.561 . S
C1621 C1624 1.526 . S
C1622 H1606 0.959 . S
C1622 H1607 0.959 . S
C1622 H1608 0.961 . S
C1622 C1621 1.502 . S
C1623 H1609 0.960 . S
C1623 H1610 0.961 . S
C1623 H1611 0.959 . S
C1623 C1621 1.561 . S
C1624 C1621 1.526 . S
C1624 C1625 1.396 . S
C1624 C1629 1.390 . S
C1625 C1619 1.465 . S
C1625 C1624 1.396 . S
C1625 C1626 1.399 . S
C1626 H1612 0.929 . S
C1626 C1625 1.399 . S
C1626 C1627 1.385 . S
C1627 H1613 0.931 . S
C1627 C1626 1.385 . S
C1627 C1628 1.389 . S
C1628 C1627 1.389 . S
C1628 C1629 1.387 . S
C1629 H1614 0.930 . S
C1629 C1624 1.390 . S
C1629 C1628 1.387 . S
H1630 C1642 0.930 . S
H1631 C1644 0.930 . S
H1632 C1645 0.930 . S
H1633 C1649 0.959 . S
H1634 C1649 0.959 . S
H1635 C1649 0.961 . S
H1636 C1650 0.960 . S
H1637 C1650 0.961 . S
H1638 C1650 0.959 . S
H1639 C1653 0.929 . S
H1640 C1654 0.931 . S
H1641 C1656 0.930 . S
C1642 H1630 0.930 . S
C1642 C1643 1.399 . S
C1642 C1647 1.399 . S
C1643 C1642 1.399 . S
C1643 C1644 1.376 . S
C1644 H1631 0.930 . S
C1644 C1643 1.376 . S
C1644 C1645 1.388 . S
C1645 H1632 0.930 . S
C1645 C1644 1.388 . S
C1645 C1646 1.390 . S
C1646 C1645 1.390 . S
C1646 C1647 1.394 . S
C1646 C1652 1.465 . S
C1647 C1642 1.399 . S
C1647 C1646 1.394 . S
C1647 C1648 1.516 . S
C1648 C1647 1.516 . S
C1648 C1649 1.502 . S
C1648 C1650 1.561 . S
C1648 C1651 1.526 . S
C1649 H1633 0.959 . S
C1649 H1634 0.959 . S
C1649 H1635 0.961 . S
C1649 C1648 1.502 . S
C1650 H1636 0.960 . S
C1650 H1637 0.961 . S
C1650 H1638 0.959 . S
C1650 C1648 1.561 . S
C1651 C1648 1.526 . S
C1651 C1652 1.396 . S
C1651 C1656 1.390 . S
C1652 C1646 1.465 . S
C1652 C1651 1.396 . S
C1652 C1653 1.399 . S
C1653 H1639 0.929 . S
C1653 C1652 1.399 . S
C1653 C1654 1.385 . S
C1654 H1640 0.931 . S
C1654 C1653 1.385 . S
C1654 C1655 1.389 . S
C1655 C1654 1.389 . S
C1655 C1656 1.387 . S
C1656 H1641 0.930 . S
C1656 C1651 1.390 . S
C1656 C1655 1.387 . S
H1657 C1669 0.930 . S
H1658 C1671 0.930 . S
H1659 C1672 0.930 . S
H1660 C1676 0.959 . S
H1661 C1676 0.959 . S
H1662 C1676 0.961 . S
H1663 C1677 0.960 . S
H1664 C1677 0.961 . S
H1665 C1677 0.959 . S
H1666 C1680 0.929 . S
H1667 C1681 0.931 . S
H1668 C1683 0.930 . S
C1669 H1657 0.930 . S
C1669 C1670 1.399 . S
C1669 C1674 1.399 . S
C1670 C1669 1.399 . S
C1670 C1671 1.376 . S
C1671 H1658 0.930 . S
C1671 C1670 1.376 . S
C1671 C1672 1.388 . S
C1672 H1659 0.930 . S
C1672 C1671 1.388 . S
C1672 C1673 1.390 . S
C1673 C1672 1.390 . S
C1673 C1674 1.394 . S
C1673 C1679 1.465 . S
C1674 C1669 1.399 . S
C1674 C1673 1.394 . S
C1674 C1675 1.516 . S
C1675 C1674 1.516 . S
C1675 C1676 1.502 . S
C1675 C1677 1.561 . S
C1675 C1678 1.526 . S
C1676 H1660 0.959 . S
C1676 H1661 0.959 . S
C1676 H1662 0.961 . S
C1676 C1675 1.502 . S
C1677 H1663 0.960 . S
C1677 H1664 0.961 . S
C1677 H1665 0.959 . S
C1677 C1675 1.561 . S
C1678 C1675 1.526 . S
C1678 C1679 1.396 . S
C1678 C1683 1.390 . S
C1679 C1673 1.465 . S
C1679 C1678 1.396 . S
C1679 C1680 1.399 . S
C1680 H1666 0.929 . S
C1680 C1679 1.399 . S
C1680 C1681 1.385 . S
C1681 H1667 0.931 . S
C1681 C1680 1.385 . S
C1681 C1682 1.389 . S
C1682 C1681 1.389 . S
C1682 C1683 1.387 . S
C1683 H1668 0.930 . S
C1683 C1678 1.390 . S
C1683 C1682 1.387 . S
H1684 C1696 0.930 . S
H1685 C1698 0.930 . S
H1686 C1699 0.930 . S
H1687 C1703 0.959 . S
H1688 C1703 0.959 . S
H1689 C1703 0.961 . S
H1690 C1704 0.960 . S
H1691 C1704 0.961 . S
H1692 C1704 0.959 . S
H1693 C1707 0.929 . S
H1694 C1708 0.931 . S
H1695 C1710 0.930 . S
C1696 H1684 0.930 . S
C1696 C1697 1.399 . S
C1696 C1701 1.399 . S
C1697 C1696 1.399 . S
C1697 C1698 1.376 . S
C1698 H1685 0.930 . S
C1698 C1697 1.376 . S
C1698 C1699 1.388 . S
C1699 H1686 0.930 . S
C1699 C1698 1.388 . S
C1699 C1700 1.390 . S
C1700 C1699 1.390 . S
C1700 C1701 1.394 . S
C1700 C1706 1.465 . S
C1701 C1696 1.399 . S
C1701 C1700 1.394 . S
C1701 C1702 1.516 . S
C1702 C1701 1.516 . S
C1702 C1703 1.502 . S
C1702 C1704 1.561 . S
C1702 C1705 1.526 . S
C1703 H1687 0.959 . S
C1703 H1688 0.959 . S
C1703 H1689 0.961 . S
C1703 C1702 1.502 . S
C1704 H1690 0.960 . S
C1704 H1691 0.961 . S
C1704 H1692 0.959 . S
C1704 C1702 1.561 . S
C1705 C1702 1.526 . S
C1705 C1706 1.396 . S
C1705 C1710 1.390 . S
C1706 C1700 1.465 . S
C1706 C1705 1.396 . S
C1706 C1707 1.399 . S
C1707 H1693 0.929 . S
C1707 C1706 1.399 . S
C1707 C1708 1.385 . S
C1708 H1694 0.931 . S
C1708 C1707 1.385 . S
C1708 C1709 1.389 . S
C1709 C1708 1.389 . S
C1709 C1710 1.387 . S
C1710 H1695 0.930 . S
C1710 C1705 1.390 . S
C1710 C1709 1.387 . S
H1711 C1723 0.930 . S
H1712 C1725 0.930 . S
H1713 C1726 0.930 . S
H1714 C1730 0.959 . S
H1715 C1730 0.959 . S
H1716 C1730 0.961 . S
H1717 C1731 0.960 . S
H1718 C1731 0.961 . S
H1719 C1731 0.959 . S
H1720 C1734 0.929 . S
H1721 C1735 0.931 . S
H1722 C1737 0.930 . S
C1723 H1711 0.930 . S
C1723 C1724 1.399 . S
C1723 C1728 1.399 . S
C1724 C1723 1.399 . S
C1724 C1725 1.376 . S
C1725 H1712 0.930 . S
C1725 C1724 1.376 . S
C1725 C1726 1.388 . S
C1726 H1713 0.930 . S
C1726 C1725 1.388 . S
C1726 C1727 1.390 . S
C1727 C1726 1.390 . S
C1727 C1728 1.394 . S
C1727 C1733 1.465 . S
C1728 C1723 1.399 . S
C1728 C1727 1.394 . S
C1728 C1729 1.516 . S
C1729 C1728 1.516 . S
C1729 C1730 1.502 . S
C1729 C1731 1.561 . S
C1729 C1732 1.526 . S
C1730 H1714 0.959 . S
C1730 H1715 0.959 . S
C1730 H1716 0.961 . S
C1730 C1729 1.502 . S
C1731 H1717 0.960 . S
C1731 H1718 0.961 . S
C1731 H1719 0.959 . S
C1731 C1729 1.561 . S
C1732 C1729 1.526 . S
C1732 C1733 1.396 . S
C1732 C1737 1.390 . S
C1733 C1727 1.465 . S
C1733 C1732 1.396 . S
C1733 C1734 1.399 . S
C1734 H1720 0.929 . S
C1734 C1733 1.399 . S
C1734 C1735 1.385 . S
C1735 H1721 0.931 . S
C1735 C1734 1.385 . S
C1735 C1736 1.389 . S
C1736 C1735 1.389 . S
C1736 C1737 1.387 . S
C1737 H1722 0.930 . S
C1737 C1732 1.390 . S
C1737 C1736 1.387 . S
H1738 C1750 0.930 . S
H1739 C1752 0.930 . S
H1740 C1753 0.930 . S
H1741 C1757 0.959 . S
H1742 C1757 0.959 . S
H1743 C1757 0.961 . S
H1744 C1758 0.960 . S
H1745 C1758 0.961 . S
H1746 C1758 0.959 . S
H1747 C1761 0.929 . S
H1748 C1762 0.931 . S
H1749 C1764 0.930 . S
C1750 H1738 0.930 . S
C1750 C1751 1.399 . S
C1750 C1755 1.399 . S
C1751 C1750 1.399 . S
C1751 C1752 1.376 . S
C1752 H1739 0.930 . S
C1752 C1751 1.376 . S
C1752 C1753 1.388 . S
C1753 H1740 0.930 . S
C1753 C1752 1.388 . S
C1753 C1754 1.390 . S
C1754 C1753 1.390 . S
C1754 C1755 1.394 . S
C1754 C1760 1.465 . S
C1755 C1750 1.399 . S
C1755 C1754 1.394 . S
C1755 C1756 1.516 . S
C1756 C1755 1.516 . S
C1756 C1757 1.502 . S
C1756 C1758 1.561 . S
C1756 C1759 1.526 . S
C1757 H1741 0.959 . S
C1757 H1742 0.959 . S
C1757 H1743 0.961 . S
C1757 C1756 1.502 . S
C1758 H1744 0.960 . S
C1758 H1745 0.961 . S
C1758 H1746 0.959 . S
C1758 C1756 1.561 . S
C1759 C1756 1.526 . S
C1759 C1760 1.396 . S
C1759 C1764 1.390 . S
C1760 C1754 1.465 . S
C1760 C1759 1.396 . S
C1760 C1761 1.399 . S
C1761 H1747 0.929 . S
C1761 C1760 1.399 . S
C1761 C1762 1.385 . S
C1762 H1748 0.931 . S
C1762 C1761 1.385 . S
C1762 C1763 1.389 . S
C1763 C1762 1.389 . S
C1763 C1764 1.387 . S
C1764 H1749 0.930 . S
C1764 C1759 1.390 . S
C1764 C1763 1.387 . S
H1765 C1777 0.930 . S
H1766 C1779 0.930 1_455 S
H1767 C1780 0.930 . S
H1768 C1784 0.959 . S
H1769 C1784 0.959 . S
H1770 C1784 0.961 . S
H1771 C1785 0.960 . S
H1772 C1785 0.961 . S
H1773 C1785 0.959 . S
H1774 C1788 0.929 . S
H1775 C1789 0.904 1_455 S
H1776 C1791 0.930 . S
C1777 H1765 0.930 . S
C1777 C1778 1.399 . S
C1777 C1782 1.399 . S
C1778 C1777 1.399 . S
C1778 C1779 1.376 . S
C1779 H1766 0.930 1_655 S
C1779 C1778 1.376 . S
C1779 C1780 1.388 1_655 S
C1780 H1767 0.930 . S
C1780 C1779 1.388 1_455 S
C1780 C1781 1.390 1_455 S
C1781 C1780 1.390 1_655 S
C1781 C1782 1.394 . S
C1781 C1787 1.465 . S
C1782 C1777 1.399 . S
C1782 C1781 1.394 . S
C1782 C1783 1.516 . S
C1783 C1782 1.516 . S
C1783 C1784 1.502 . S
C1783 C1785 1.561 . S
C1783 C1786 1.526 . S
C1784 H1768 0.959 . S
C1784 H1769 0.959 . S
C1784 H1770 0.961 . S
C1784 C1783 1.502 . S
C1785 H1771 0.960 . S
C1785 H1772 0.961 . S
C1785 H1773 0.959 . S
C1785 C1783 1.561 . S
C1786 C1783 1.526 . S
C1786 C1787 1.396 . S
C1786 C1791 1.390 . S
C1787 C1781 1.465 . S
C1787 C1786 1.396 . S
C1787 C1788 1.399 1_655 S
C1788 H1774 0.929 . S
C1788 C1787 1.399 1_455 S
C1788 C1789 1.374 1_455 S
C1789 H1775 0.904 1_655 S
C1789 C1788 1.374 1_655 S
C1789 C1790 1.428 . S
C1790 C1789 1.428 . S
C1790 C1791 1.387 . S
C1791 H1776 0.930 . S
C1791 C1786 1.390 . S
C1791 C1790 1.387 . S
H1792 C1804 0.930 . S
H1793 C1806 0.930 . S
H1794 C1807 0.930 . S
H1795 C1811 0.959 . S
H1796 C1811 0.959 . S
H1797 C1811 0.961 . S
H1798 C1812 0.960 . S
H1799 C1812 0.961 . S
H1800 C1812 0.959 . S
H1801 C1815 0.929 . S
H1802 C1816 0.931 . S
H1803 C1818 0.930 . S
C1804 H1792 0.930 . S
C1804 C1805 1.399 . S
C1804 C1809 1.399 . S
C1805 C1804 1.399 . S
C1805 C1806 1.376 . S
C1806 H1793 0.930 . S
C1806 C1805 1.376 . S
C1806 C1807 1.388 . S
C1807 H1794 0.930 . S
C1807 C1806 1.388 . S
C1807 C1808 1.390 . S
C1808 C1807 1.390 . S
C1808 C1809 1.394 . S
C1808 C1814 1.465 . S
C1809 C1804 1.399 . S
C1809 C1808 1.394 . S
C1809 C1810 1.516 . S
C1810 C1809 1.516 . S
C1810 C1811 1.502 . S
C1810 C1812 1.561 . S
C1810 C1813 1.526 . S
C1811 H1795 0.959 . S
C1811 H1796 0.959 . S
C1811 H1797 0.961 . S
C1811 C1810 1.502 . S
C1812 H1798 0.960 . S
C1812 H1799 0.961 . S
C1812 H1800 0.959 . S
C1812 C1810 1.561 . S
C1813 C1810 1.526 . S
C1813 C1814 1.396 . S
C1813 C1818 1.390 . S
C1814 C1808 1.465 . S
C1814 C1813 1.396 . S
C1814 C1815 1.399 . S
C1815 H1801 0.929 . S
C1815 C1814 1.399 . S
C1815 C1816 1.385 . S
C1816 H1802 0.931 . S
C1816 C1815 1.385 . S
C1816 C1817 1.389 . S
C1817 C1816 1.389 . S
C1817 C1818 1.387 . S
C1818 H1803 0.930 . S
C1818 C1813 1.390 . S
C1818 C1817 1.387 . S
H1819 C1831 0.930 . S
H1820 C1833 0.930 . S
H1821 C1834 0.930 . S
H1822 C1838 0.959 . S
H1823 C1838 0.959 . S
H1824 C1838 0.961 . S
H1825 C1839 0.960 . S
H1826 C1839 0.961 . S
H1827 C1839 0.959 . S
H1828 C1842 0.929 . S
H1829 C1843 0.931 . S
H1830 C1845 0.930 . S
C1831 H1819 0.930 . S
C1831 C1832 1.399 . S
C1831 C1836 1.399 . S
C1832 C1831 1.399 . S
C1832 C1833 1.376 . S
C1833 H1820 0.930 . S
C1833 C1832 1.376 . S
C1833 C1834 1.388 . S
C1834 H1821 0.930 . S
C1834 C1833 1.388 . S
C1834 C1835 1.390 . S
C1835 C1834 1.390 . S
C1835 C1836 1.394 . S
C1835 C1841 1.465 . S
C1836 C1831 1.399 . S
C1836 C1835 1.394 . S
C1836 C1837 1.516 . S
C1837 C1836 1.516 . S
C1837 C1838 1.502 . S
C1837 C1839 1.561 . S
C1837 C1840 1.526 . S
C1838 H1822 0.959 . S
C1838 H1823 0.959 . S
C1838 H1824 0.961 . S
C1838 C1837 1.502 . S
C1839 H1825 0.960 . S
C1839 H1826 0.961 . S
C1839 H1827 0.959 . S
C1839 C1837 1.561 . S
C1840 C1837 1.526 . S
C1840 C1841 1.396 . S
C1840 C1845 1.390 . S
C1841 C1835 1.465 . S
C1841 C1840 1.396 . S
C1841 C1842 1.399 . S
C1842 H1828 0.929 . S
C1842 C1841 1.399 . S
C1842 C1843 1.385 . S
C1843 H1829 0.931 . S
C1843 C1842 1.385 . S
C1843 C1844 1.389 . S
C1844 C1843 1.389 . S
C1844 C1845 1.387 . S
C1845 H1830 0.930 . S
C1845 C1840 1.390 . S
C1845 C1844 1.387 . S
H1846 C1858 0.930 1_554 S
H1847 C1860 0.930 . S
H1848 C1861 0.930 . S
H1849 C1865 0.959 . S
H1850 C1865 0.959 . S
H1851 C1865 0.961 . S
H1852 C1866 0.960 . S
H1853 C1866 0.961 . S
H1854 C1866 0.959 . S
H1855 C1869 0.929 . S
H1856 C1870 0.931 . S
H1857 C1872 0.930 . S
C1858 H1846 0.930 1_556 S
C1858 C1859 1.399 . S
C1858 C1863 1.402 1_545 S
C1859 C1858 1.399 . S
C1859 C1860 1.376 . S
C1860 H1847 0.930 . S
C1860 C1859 1.376 . S
C1860 C1861 1.388 1_545 S
C1861 H1848 0.930 . S
C1861 C1860 1.388 1_565 S
C1861 C1862 1.390 . S
C1862 C1861 1.390 . S
C1862 C1863 1.393 . S
C1862 C1868 1.465 . S
C1863 C1858 1.402 1_565 S
C1863 C1862 1.393 . S
C1863 C1864 1.514 1_556 S
C1864 C1863 1.514 1_554 S
C1864 C1865 1.502 . S
C1864 C1866 1.561 1_565 S
C1864 C1867 1.526 . S
C1865 H1849 0.959 . S
C1865 H1850 0.959 . S
C1865 H1851 0.961 . S
C1865 C1864 1.502 . S
C1866 H1852 0.960 . S
C1866 H1853 0.961 . S
C1866 H1854 0.959 . S
C1866 C1864 1.561 1_545 S
C1867 C1864 1.526 . S
C1867 C1868 1.396 1_554 S
C1867 C1872 1.390 . S
C1868 C1862 1.465 . S
C1868 C1867 1.396 1_556 S
C1868 C1869 1.399 . S
C1869 H1855 0.929 . S
C1869 C1868 1.399 . S
C1869 C1870 1.385 . S
C1870 H1856 0.931 . S
C1870 C1869 1.385 . S
C1870 C1871 1.389 1_556 S
C1871 C1870 1.389 1_554 S
C1871 C1872 1.387 . S
C1872 H1857 0.930 . S
C1872 C1867 1.390 . S
C1872 C1871 1.387 . S
H1873 C1885 0.930 . S
H1874 C1887 0.930 . S
H1875 C1888 0.930 . S
H1876 C1892 0.959 . S
H1877 C1892 0.959 . S
H1878 C1892 0.961 . S
H1879 C1893 0.960 . S
H1880 C1893 0.961 . S
H1881 C1893 0.959 . S
H1882 C1896 0.929 . S
H1883 C1897 0.931 . S
H1884 C1899 0.930 . S
C1885 H1873 0.930 . S
C1885 C1886 1.399 . S
C1885 C1890 1.399 . S
C1886 C1885 1.399 . S
C1886 C1887 1.376 . S
C1887 H1874 0.930 . S
C1887 C1886 1.376 . S
C1887 C1888 1.388 . S
C1888 H1875 0.930 . S
C1888 C1887 1.388 . S
C1888 C1889 1.390 . S
C1889 C1888 1.390 . S
C1889 C1890 1.394 . S
C1889 C1895 1.465 . S
C1890 C1885 1.399 . S
C1890 C1889 1.394 . S
C1890 C1891 1.516 . S
C1891 C1890 1.516 . S
C1891 C1892 1.502 . S
C1891 C1893 1.561 . S
C1891 C1894 1.526 . S
C1892 H1876 0.959 . S
C1892 H1877 0.959 . S
C1892 H1878 0.961 . S
C1892 C1891 1.502 . S
C1893 H1879 0.960 . S
C1893 H1880 0.961 . S
C1893 H1881 0.959 . S
C1893 C1891 1.561 . S
C1894 C1891 1.526 . S
C1894 C1895 1.396 . S
C1894 C1899 1.390 . S
C1895 C1889 1.465 . S
C1895 C1894 1.396 . S
C1895 C1896 1.399 . S
C1896 H1882 0.929 . S
C1896 C1895 1.399 . S
C1896 C1897 1.385 . S
C1897 H1883 0.931 . S
C1897 C1896 1.385 . S
C1897 C1898 1.389 . S
C1898 C1897 1.389 . S
C1898 C1899 1.387 . S
C1899 H1884 0.930 . S
C1899 C1894 1.390 . S
C1899 C1898 1.387 . S
H1900 C1912 0.930 1_565 S
H1901 C1914 0.930 . S
H1902 C1915 0.930 . S
H1903 C1919 0.959 . S
H1904 C1919 0.959 . S
H1905 C1919 0.961 1_565 S
H1906 C1920 0.960 . S
H1907 C1920 0.961 . S
H1908 C1920 0.959 . S
H1909 C1923 0.929 . S
H1910 C1924 0.931 . S
H1911 C1926 0.930 . S
C1912 H1900 0.930 1_545 S
C1912 C1913 1.399 . S
C1912 C1917 1.399 . S
C1913 C1912 1.399 . S
C1913 C1914 1.376 . S
C1914 H1901 0.930 . S
C1914 C1913 1.376 . S
C1914 C1915 1.388 . S
C1915 H1902 0.930 . S
C1915 C1914 1.388 . S
C1915 C1916 1.390 . S
C1916 C1915 1.390 . S
C1916 C1917 1.394 . S
C1916 C1922 1.465 . S
C1917 C1912 1.399 . S
C1917 C1916 1.394 . S
C1917 C1918 1.516 . S
C1918 C1917 1.516 . S
C1918 C1919 1.502 . S
C1918 C1920 1.561 . S
C1918 C1921 1.526 . S
C1919 H1903 0.959 . S
C1919 H1904 0.959 . S
C1919 H1905 0.961 1_545 S
C1919 C1918 1.502 . S
C1920 H1906 0.960 . S
C1920 H1907 0.961 . S
C1920 H1908 0.959 . S
C1920 C1918 1.561 . S
C1921 C1918 1.526 . S
C1921 C1922 1.396 . S
C1921 C1926 1.390 . S
C1922 C1916 1.465 . S
C1922 C1921 1.396 . S
C1922 C1923 1.399 . S
C1923 H1909 0.929 . S
C1923 C1922 1.399 . S
C1923 C1924 1.385 . S
C1924 H1910 0.931 . S
C1924 C1923 1.385 . S
C1924 C1925 1.389 . S
C1925 C1924 1.389 . S
C1925 C1926 1.387 . S
C1926 H1911 0.930 . S
C1926 C1921 1.390 . S
C1926 C1925 1.387 . S
H1927 C1939 0.930 . S
H1928 C1941 0.930 . S
H1929 C1942 0.930 . S
H1930 C1946 0.959 . S
H1931 C1946 0.959 . S
H1932 C1946 0.961 . S
H1933 C1947 0.960 . S
H1934 C1947 0.961 . S
H1935 C1947 0.959 . S
H1936 C1950 0.929 . S
H1937 C1951 0.931 . S
H1938 C1953 0.930 . S
C1939 H1927 0.930 . S
C1939 C1940 1.399 . S
C1939 C1944 1.399 . S
C1940 C1939 1.399 . S
C1940 C1941 1.376 . S
C1941 H1928 0.930 . S
C1941 C1940 1.376 . S
C1941 C1942 1.388 . S
C1942 H1929 0.930 . S
C1942 C1941 1.388 . S
C1942 C1943 1.390 . S
C1943 C1942 1.390 . S
C1943 C1944 1.394 . S
C1943 C1949 1.465 . S
C1944 C1939 1.399 . S
C1944 C1943 1.394 . S
C1944 C1945 1.516 . S
C1945 C1944 1.516 . S
C1945 C1946 1.502 . S
C1945 C1947 1.561 . S
C1945 C1948 1.526 . S
C1946 H1930 0.959 . S
C1946 H1931 0.959 . S
C1946 H1932 0.961 . S
C1946 C1945 1.502 . S
C1947 H1933 0.960 . S
C1947 H1934 0.961 . S
C1947 H1935 0.959 . S
C1947 C1945 1.561 . S
C1948 C1945 1.526 . S
C1948 C1949 1.396 . S
C1948 C1953 1.390 . S
C1949 C1943 1.465 . S
C1949 C1948 1.396 . S
C1949 C1950 1.399 . S
C1950 H1936 0.929 . S
C1950 C1949 1.399 . S
C1950 C1951 1.385 . S
C1951 H1937 0.931 . S
C1951 C1950 1.385 . S
C1951 C1952 1.389 . S
C1952 C1951 1.389 . S
C1952 C1953 1.387 . S
C1953 H1938 0.930 . S
C1953 C1948 1.390 . S
C1953 C1952 1.387 . S
H1954 C1966 0.930 . S
H1955 C1968 0.930 . S
H1956 C1969 0.930 . S
H1957 C1973 0.959 . S
H1958 C1973 0.959 . S
H1959 C1973 0.961 . S
H1960 C1974 0.960 . S
H1961 C1974 0.961 . S
H1962 C1974 0.959 . S
H1963 C1977 0.929 . S
H1964 C1978 0.931 . S
H1965 C1980 0.930 . S
C1966 H1954 0.930 . S
C1966 C1967 1.399 . S
C1966 C1971 1.399 . S
C1967 C1966 1.399 . S
C1967 C1968 1.376 . S
C1968 H1955 0.930 . S
C1968 C1967 1.376 . S
C1968 C1969 1.388 . S
C1969 H1956 0.930 . S
C1969 C1968 1.388 . S
C1969 C1970 1.390 . S
C1970 C1969 1.390 . S
C1970 C1971 1.394 . S
C1970 C1976 1.465 . S
C1971 C1966 1.399 . S
C1971 C1970 1.394 . S
C1971 C1972 1.516 . S
C1972 C1971 1.516 . S
C1972 C1973 1.502 . S
C1972 C1974 1.561 . S
C1972 C1975 1.526 . S
C1973 H1957 0.959 . S
C1973 H1958 0.959 . S
C1973 H1959 0.961 . S
C1973 C1972 1.502 . S
C1974 H1960 0.960 . S
C1974 H1961 0.961 . S
C1974 H1962 0.959 . S
C1974 C1972 1.561 . S
C1975 C1972 1.526 . S
C1975 C1976 1.396 . S
C1975 C1980 1.390 . S
C1976 C1970 1.465 . S
C1976 C1975 1.396 . S
C1976 C1977 1.399 . S
C1977 H1963 0.929 . S
C1977 C1976 1.399 . S
C1977 C1978 1.385 . S
C1978 H1964 0.931 . S
C1978 C1977 1.385 . S
C1978 C1979 1.389 . S
C1979 C1978 1.389 . S
C1979 C1980 1.387 . S
C1980 H1965 0.930 . S
C1980 C1975 1.390 . S
C1980 C1979 1.387 . S
H1981 C1993 0.930 . S
H1982 C1995 0.930 . S
H1983 C1996 0.930 . S
H1984 C2000 0.959 . S
H1985 C2000 0.959 . S
H1986 C2000 0.961 . S
H1987 C2001 0.960 . S
H1988 C2001 0.961 . S
H1989 C2001 0.959 . S
H1990 C2004 0.929 . S
H1991 C2005 0.931 . S
H1992 C2007 0.930 . S
C1993 H1981 0.930 . S
C1993 C1994 1.399 . S
C1993 C1998 1.399 . S
C1994 C1993 1.399 . S
C1994 C1995 1.376 . S
C1995 H1982 0.930 . S
C1995 C1994 1.376 . S
C1995 C1996 1.388 . S
C1996 H1983 0.930 . S
C1996 C1995 1.388 . S
C1996 C1997 1.390 . S
C1997 C1996 1.390 . S
C1997 C1998 1.394 . S
C1997 C2003 1.465 . S
C1998 C1993 1.399 . S
C1998 C1997 1.394 . S
C1998 C1999 1.516 . S
C1999 C1998 1.516 . S
C1999 C2000 1.502 . S
C1999 C2001 1.561 . S
C1999 C2002 1.526 . S
C2000 H1984 0.959 . S
C2000 H1985 0.959 . S
C2000 H1986 0.961 . S
C2000 C1999 1.502 . S
C2001 H1987 0.960 . S
C2001 H1988 0.961 . S
C2001 H1989 0.959 . S
C2001 C1999 1.561 . S
C2002 C1999 1.526 . S
C2002 C2003 1.396 . S
C2002 C2007 1.390 . S
C2003 C1997 1.465 . S
C2003 C2002 1.396 . S
C2003 C2004 1.399 . S
C2004 H1990 0.929 . S
C2004 C2003 1.399 . S
C2004 C2005 1.385 . S
C2005 H1991 0.931 . S
C2005 C2004 1.385 . S
C2005 C2006 1.389 . S
C2006 C2005 1.389 . S
C2006 C2007 1.387 . S
C2007 H1992 0.930 . S
C2007 C2002 1.390 . S
C2007 C2006 1.387 . S
H2008 C2020 0.930 . S
H2009 C2022 0.930 . S
H2010 C2023 0.930 . S
H2011 C2027 0.959 . S
H2012 C2027 0.959 . S
H2013 C2027 0.961 . S
H2014 C2028 0.960 . S
H2015 C2028 0.961 . S
H2016 C2028 0.959 . S
H2017 C2031 0.929 . S
H2018 C2032 0.931 . S
H2019 C2034 0.930 . S
C2020 H2008 0.930 . S
C2020 C2021 1.399 . S
C2020 C2025 1.399 . S
C2021 C2020 1.399 . S
C2021 C2022 1.376 . S
C2022 H2009 0.930 . S
C2022 C2021 1.376 . S
C2022 C2023 1.388 . S
C2023 H2010 0.930 . S
C2023 C2022 1.388 . S
C2023 C2024 1.390 . S
C2024 C2023 1.390 . S
C2024 C2025 1.394 . S
C2024 C2030 1.465 . S
C2025 C2020 1.399 . S
C2025 C2024 1.394 . S
C2025 C2026 1.516 . S
C2026 C2025 1.516 . S
C2026 C2027 1.502 . S
C2026 C2028 1.561 . S
C2026 C2029 1.526 . S
C2027 H2011 0.959 . S
C2027 H2012 0.959 . S
C2027 H2013 0.961 . S
C2027 C2026 1.502 . S
C2028 H2014 0.960 . S
C2028 H2015 0.961 . S
C2028 H2016 0.959 . S
C2028 C2026 1.561 . S
C2029 C2026 1.526 . S
C2029 C2030 1.396 . S
C2029 C2034 1.390 . S
C2030 C2024 1.465 . S
C2030 C2029 1.396 . S
C2030 C2031 1.399 . S
C2031 H2017 0.929 . S
C2031 C2030 1.399 . S
C2031 C2032 1.385 . S
C2032 H2018 0.931 . S
C2032 C2031 1.385 . S
C2032 C2033 1.389 . S
C2033 C2032 1.389 . S
C2033 C2034 1.387 . S
C2034 H2019 0.930 . S
C2034 C2029 1.390 . S
C2034 C2033 1.387 . S
H2035 C2047 0.930 . S
H2036 C2049 0.930 . S
H2037 C2050 0.930 . S
H2038 C2054 0.959 . S
H2039 C2054 0.959 . S
H2040 C2054 0.961 . S
H2041 C2055 0.960 . S
H2042 C2055 0.961 . S
H2043 C2055 0.959 . S
H2044 C2058 0.929 . S
H2045 C2059 0.931 . S
H2046 C2061 0.930 . S
C2047 H2035 0.930 . S
C2047 C2048 1.399 . S
C2047 C2052 1.399 . S
C2048 C2047 1.399 . S
C2048 C2049 1.376 . S
C2049 H2036 0.930 . S
C2049 C2048 1.376 . S
C2049 C2050 1.388 . S
C2050 H2037 0.930 . S
C2050 C2049 1.388 . S
C2050 C2051 1.390 . S
C2051 C2050 1.390 . S
C2051 C2052 1.394 . S
C2051 C2057 1.465 . S
C2052 C2047 1.399 . S
C2052 C2051 1.394 . S
C2052 C2053 1.516 . S
C2053 C2052 1.516 . S
C2053 C2054 1.502 . S
C2053 C2055 1.561 . S
C2053 C2056 1.526 . S
C2054 H2038 0.959 . S
C2054 H2039 0.959 . S
C2054 H2040 0.961 . S
C2054 C2053 1.502 . S
C2055 H2041 0.960 . S
C2055 H2042 0.961 . S
C2055 H2043 0.959 . S
C2055 C2053 1.561 . S
C2056 C2053 1.526 . S
C2056 C2057 1.396 . S
C2056 C2061 1.390 . S
C2057 C2051 1.465 . S
C2057 C2056 1.396 . S
C2057 C2058 1.399 . S
C2058 H2044 0.929 . S
C2058 C2057 1.399 . S
C2058 C2059 1.385 . S
C2059 H2045 0.931 . S
C2059 C2058 1.385 . S
C2059 C2060 1.389 . S
C2060 C2059 1.389 . S
C2060 C2061 1.387 . S
C2061 H2046 0.930 . S
C2061 C2056 1.390 . S
C2061 C2060 1.387 . S
H2062 C2074 0.930 . S
H2063 C2076 0.930 . S
H2064 C2077 0.930 . S
H2065 C2081 0.959 . S
H2066 C2081 0.959 . S
H2067 C2081 0.961 . S
H2068 C2082 0.960 . S
H2069 C2082 0.961 . S
H2070 C2082 0.959 . S
H2071 C2085 0.929 . S
H2072 C2086 0.931 . S
H2073 C2088 0.930 . S
C2074 H2062 0.930 . S
C2074 C2075 1.399 . S
C2074 C2079 1.399 . S
C2075 C2074 1.399 . S
C2075 C2076 1.376 . S
C2076 H2063 0.930 . S
C2076 C2075 1.376 . S
C2076 C2077 1.388 . S
C2077 H2064 0.930 . S
C2077 C2076 1.388 . S
C2077 C2078 1.390 . S
C2078 C2077 1.390 . S
C2078 C2079 1.394 . S
C2078 C2084 1.465 . S
C2079 C2074 1.399 . S
C2079 C2078 1.394 . S
C2079 C2080 1.516 . S
C2080 C2079 1.516 . S
C2080 C2081 1.502 . S
C2080 C2082 1.561 . S
C2080 C2083 1.526 . S
C2081 H2065 0.959 . S
C2081 H2066 0.959 . S
C2081 H2067 0.961 . S
C2081 C2080 1.502 . S
C2082 H2068 0.960 . S
C2082 H2069 0.961 . S
C2082 H2070 0.959 . S
C2082 C2080 1.561 . S
C2083 C2080 1.526 . S
C2083 C2084 1.396 . S
C2083 C2088 1.390 . S
C2084 C2078 1.465 . S
C2084 C2083 1.396 . S
C2084 C2085 1.399 . S
C2085 H2071 0.929 . S
C2085 C2084 1.399 . S
C2085 C2086 1.385 . S
C2086 H2072 0.931 . S
C2086 C2085 1.385 . S
C2086 C2087 1.389 . S
C2087 C2086 1.389 . S
C2087 C2088 1.387 . S
C2088 H2073 0.930 . S
C2088 C2083 1.390 . S
C2088 C2087 1.387 . S
H2089 C2101 0.930 . S
H2090 C2103 0.930 . S
H2091 C2104 0.930 . S
H2092 C2108 0.959 . S
H2093 C2108 0.959 . S
H2094 C2108 0.961 . S
H2095 C2109 0.960 . S
H2096 C2109 0.961 . S
H2097 C2109 0.959 . S
H2098 C2112 0.929 . S
H2099 C2113 0.931 . S
H2100 C2115 0.930 . S
C2101 H2089 0.930 . S
C2101 C2102 1.399 . S
C2101 C2106 1.399 . S
C2102 C2101 1.399 . S
C2102 C2103 1.376 . S
C2103 H2090 0.930 . S
C2103 C2102 1.376 . S
C2103 C2104 1.388 . S
C2104 H2091 0.930 . S
C2104 C2103 1.388 . S
C2104 C2105 1.390 . S
C2105 C2104 1.390 . S
C2105 C2106 1.394 . S
C2105 C2111 1.465 . S
C2106 C2101 1.399 . S
C2106 C2105 1.394 . S
C2106 C2107 1.516 . S
C2107 C2106 1.516 . S
C2107 C2108 1.502 . S
C2107 C2109 1.561 . S
C2107 C2110 1.526 . S
C2108 H2092 0.959 . S
C2108 H2093 0.959 . S
C2108 H2094 0.961 . S
C2108 C2107 1.502 . S
C2109 H2095 0.960 . S
C2109 H2096 0.961 . S
C2109 H2097 0.959 . S
C2109 C2107 1.561 . S
C2110 C2107 1.526 . S
C2110 C2111 1.396 . S
C2110 C2115 1.390 . S
C2111 C2105 1.465 . S
C2111 C2110 1.396 . S
C2111 C2112 1.399 . S
C2112 H2098 0.929 . S
C2112 C2111 1.399 . S
C2112 C2113 1.385 . S
C2113 H2099 0.931 . S
C2113 C2112 1.385 . S
C2113 C2114 1.389 . S
C2114 C2113 1.389 . S
C2114 C2115 1.387 . S
C2115 H2100 0.930 . S
C2115 C2110 1.390 . S
C2115 C2114 1.387 . S
H2116 C2128 0.930 . S
H2117 C2130 0.930 . S
H2118 C2131 0.930 . S
H2119 C2135 0.959 . S
H2120 C2135 0.959 . S
H2121 C2135 0.961 . S
H2122 C2136 0.960 . S
H2123 C2136 0.961 . S
H2124 C2136 0.959 . S
H2125 C2139 0.929 . S
H2126 C2140 0.931 . S
H2127 C2142 0.930 . S
C2128 H2116 0.930 . S
C2128 C2129 1.399 . S
C2128 C2133 1.399 . S
C2129 C2128 1.399 . S
C2129 C2130 1.376 . S
C2130 H2117 0.930 . S
C2130 C2129 1.376 . S
C2130 C2131 1.388 . S
C2131 H2118 0.930 . S
C2131 C2130 1.388 . S
C2131 C2132 1.390 . S
C2132 C2131 1.390 . S
C2132 C2133 1.394 . S
C2132 C2138 1.465 . S
C2133 C2128 1.399 . S
C2133 C2132 1.394 . S
C2133 C2134 1.516 . S
C2134 C2133 1.516 . S
C2134 C2135 1.502 . S
C2134 C2136 1.561 . S
C2134 C2137 1.526 . S
C2135 H2119 0.959 . S
C2135 H2120 0.959 . S
C2135 H2121 0.961 . S
C2135 C2134 1.502 . S
C2136 H2122 0.960 . S
C2136 H2123 0.961 . S
C2136 H2124 0.959 . S
C2136 C2134 1.561 . S
C2137 C2134 1.526 . S
C2137 C2138 1.396 . S
C2137 C2142 1.390 . S
C2138 C2132 1.465 . S
C2138 C2137 1.396 . S
C2138 C2139 1.399 . S
C2139 H2125 0.929 . S
C2139 C2138 1.399 . S
C2139 C2140 1.385 . S
C2140 H2126 0.931 . S
C2140 C2139 1.385 . S
C2140 C2141 1.389 . S
C2141 C2140 1.389 . S
C2141 C2142 1.387 . S
C2142 H2127 0.930 . S
C2142 C2137 1.390 . S
C2142 C2141 1.387 . S
H2143 C2155 0.930 . S
H2144 C2157 0.930 1_565 S
H2145 C2158 0.897 1_665 S
H2146 C2162 0.959 . S
H2147 C2162 0.959 . S
H2148 C2162 0.961 . S
H2149 C2163 0.960 . S
H2150 C2163 0.961 . S
H2151 C2163 0.959 1_655 S
H2152 C2166 0.929 1_565 S
H2153 C2167 0.902 1_565 S
H2154 C2169 0.930 . S
C2155 H2143 0.930 . S
C2155 C2156 1.399 . S
C2155 C2160 1.399 . S
C2156 C2155 1.399 . S
C2156 C2157 1.376 . S
C2157 H2144 0.930 1_545 S
C2157 C2156 1.376 . S
C2157 C2158 1.391 . S
C2158 H2145 0.897 1_445 S
C2158 C2157 1.391 . S
C2158 C2159 1.397 . S
C2159 C2158 1.397 . S
C2159 C2160 1.394 . S
C2159 C2165 1.465 . S
C2160 C2155 1.399 . S
C2160 C2159 1.394 . S
C2160 C2161 1.516 . S
C2161 C2160 1.516 . S
C2161 C2162 1.502 . S
C2161 C2163 1.561 . S
C2161 C2164 1.526 . S
C2162 H2146 0.959 . S
C2162 H2147 0.959 . S
C2162 H2148 0.961 . S
C2162 C2161 1.502 . S
C2163 H2149 0.960 . S
C2163 H2150 0.961 . S
C2163 H2151 0.959 1_455 S
C2163 C2161 1.561 . S
C2164 C2161 1.526 . S
C2164 C2165 1.396 . S
C2164 C2169 1.390 . S
C2165 C2159 1.465 . S
C2165 C2164 1.396 . S
C2165 C2166 1.399 1_455 S
C2166 H2152 0.929 1_545 S
C2166 C2165 1.399 1_655 S
C2166 C2167 1.385 . S
C2167 H2153 0.902 1_545 S
C2167 C2166 1.385 . S
C2167 C2168 1.389 . S
C2168 C2167 1.389 . S
C2168 C2169 1.387 1_655 S
C2169 H2154 0.930 . S
C2169 C2164 1.390 . S
C2169 C2168 1.387 1_455 S
H2170 C2182 0.930 . S
H2171 C2184 0.930 . S
H2172 C2185 0.930 . S
H2173 C2189 0.959 . S
H2174 C2189 0.959 . S
H2175 C2189 0.961 . S
H2176 C2190 0.960 . S
H2177 C2190 0.961 . S
H2178 C2190 0.959 . S
H2179 C2193 0.929 . S
H2180 C2194 0.931 . S
H2181 C2196 0.930 . S
C2182 H2170 0.930 . S
C2182 C2183 1.399 . S
C2182 C2187 1.399 . S
C2183 C2182 1.399 . S
C2183 C2184 1.376 . S
C2184 H2171 0.930 . S
C2184 C2183 1.376 . S
C2184 C2185 1.388 . S
C2185 H2172 0.930 . S
C2185 C2184 1.388 . S
C2185 C2186 1.390 . S
C2186 C2185 1.390 . S
C2186 C2187 1.394 . S
C2186 C2192 1.465 . S
C2187 C2182 1.399 . S
C2187 C2186 1.394 . S
C2187 C2188 1.516 . S
C2188 C2187 1.516 . S
C2188 C2189 1.502 . S
C2188 C2190 1.561 . S
C2188 C2191 1.526 . S
C2189 H2173 0.959 . S
C2189 H2174 0.959 . S
C2189 H2175 0.961 . S
C2189 C2188 1.502 . S
C2190 H2176 0.960 . S
C2190 H2177 0.961 . S
C2190 H2178 0.959 . S
C2190 C2188 1.561 . S
C2191 C2188 1.526 . S
C2191 C2192 1.396 . S
C2191 C2196 1.390 . S
C2192 C2186 1.465 . S
C2192 C2191 1.396 . S
C2192 C2193 1.399 . S
C2193 H2179 0.929 . S
C2193 C2192 1.399 . S
C2193 C2194 1.385 . S
C2194 H2180 0.931 . S
C2194 C2193 1.385 . S
C2194 C2195 1.389 . S
C2195 C2194 1.389 . S
C2195 C2196 1.387 . S
C2196 H2181 0.930 . S
C2196 C2191 1.390 . S
C2196 C2195 1.387 . S
H2197 C2209 0.930 . S
H2198 C2211 0.930 . S
H2199 C2212 0.930 . S
H2200 C2216 0.959 . S
H2201 C2216 0.959 . S
H2202 C2216 0.961 . S
H2203 C2217 0.960 . S
H2204 C2217 0.961 . S
H2205 C2217 0.959 . S
H2206 C2220 0.929 . S
H2207 C2221 0.931 . S
H2208 C2223 0.930 . S
C2209 H2197 0.930 . S
C2209 C2210 1.399 . S
C2209 C2214 1.399 . S
C2210 C2209 1.399 . S
C2210 C2211 1.376 . S
C2211 H2198 0.930 . S
C2211 C2210 1.376 . S
C2211 C2212 1.388 . S
C2212 H2199 0.930 . S
C2212 C2211 1.388 . S
C2212 C2213 1.390 . S
C2213 C2212 1.390 . S
C2213 C2214 1.394 . S
C2213 C2219 1.465 . S
C2214 C2209 1.399 . S
C2214 C2213 1.394 . S
C2214 C2215 1.516 . S
C2215 C2214 1.516 . S
C2215 C2216 1.502 . S
C2215 C2217 1.561 . S
C2215 C2218 1.526 . S
C2216 H2200 0.959 . S
C2216 H2201 0.959 . S
C2216 H2202 0.961 . S
C2216 C2215 1.502 . S
C2217 H2203 0.960 . S
C2217 H2204 0.961 . S
C2217 H2205 0.959 . S
C2217 C2215 1.561 . S
C2218 C2215 1.526 . S
C2218 C2219 1.396 . S
C2218 C2223 1.390 . S
C2219 C2213 1.465 . S
C2219 C2218 1.396 . S
C2219 C2220 1.399 . S
C2220 H2206 0.929 . S
C2220 C2219 1.399 . S
C2220 C2221 1.385 . S
C2221 H2207 0.931 . S
C2221 C2220 1.385 . S
C2221 C2222 1.389 . S
C2222 C2221 1.389 . S
C2222 C2223 1.387 . S
C2223 H2208 0.930 . S
C2223 C2218 1.390 . S
C2223 C2222 1.387 . S
H2224 C2236 0.930 . S
H2225 C2238 0.930 . S
H2226 C2239 0.930 . S
H2227 C2243 0.959 . S
H2228 C2243 0.959 . S
H2229 C2243 0.961 . S
H2230 C2244 0.960 . S
H2231 C2244 0.961 . S
H2232 C2244 0.959 . S
H2233 C2247 0.929 . S
H2234 C2248 0.931 . S
H2235 C2250 0.930 . S
C2236 H2224 0.930 . S
C2236 C2237 1.399 . S
C2236 C2241 1.399 . S
C2237 C2236 1.399 . S
C2237 C2238 1.376 . S
C2238 H2225 0.930 . S
C2238 C2237 1.376 . S
C2238 C2239 1.388 . S
C2239 H2226 0.930 . S
C2239 C2238 1.388 . S
C2239 C2240 1.390 . S
C2240 C2239 1.390 . S
C2240 C2241 1.394 . S
C2240 C2246 1.465 . S
C2241 C2236 1.399 . S
C2241 C2240 1.394 . S
C2241 C2242 1.516 . S
C2242 C2241 1.516 . S
C2242 C2243 1.502 . S
C2242 C2244 1.561 . S
C2242 C2245 1.526 . S
C2243 H2227 0.959 . S
C2243 H2228 0.959 . S
C2243 H2229 0.961 . S
C2243 C2242 1.502 . S
C2244 H2230 0.960 . S
C2244 H2231 0.961 . S
C2244 H2232 0.959 . S
C2244 C2242 1.561 . S
C2245 C2242 1.526 . S
C2245 C2246 1.396 . S
C2245 C2250 1.390 . S
C2246 C2240 1.465 . S
C2246 C2245 1.396 . S
C2246 C2247 1.399 . S
C2247 H2233 0.929 . S
C2247 C2246 1.399 . S
C2247 C2248 1.385 . S
C2248 H2234 0.931 . S
C2248 C2247 1.385 . S
C2248 C2249 1.389 . S
C2249 C2248 1.389 . S
C2249 C2250 1.387 . S
C2250 H2235 0.930 . S
C2250 C2245 1.390 . S
C2250 C2249 1.387 . S
H2251 C2263 0.930 . S
H2252 C2265 0.930 . S
H2253 C2266 0.930 . S
H2254 C2270 0.959 . S
H2255 C2270 0.959 . S
H2256 C2270 0.961 . S
H2257 C2271 0.960 . S
H2258 C2271 0.961 . S
H2259 C2271 0.959 1_655 S
H2260 C2274 0.929 . S
H2261 C2275 0.931 . S
H2262 C2277 0.930 . S
C2263 H2251 0.930 . S
C2263 C2264 1.399 . S
C2263 C2268 1.399 . S
C2264 C2263 1.399 . S
C2264 C2265 1.376 1_455 S
C2265 H2252 0.930 . S
C2265 C2264 1.376 1_655 S
C2265 C2266 1.388 . S
C2266 H2253 0.930 . S
C2266 C2265 1.388 . S
C2266 C2267 1.390 . S
C2267 C2266 1.390 . S
C2267 C2268 1.394 1_655 S
C2267 C2273 1.465 . S
C2268 C2263 1.399 . S
C2268 C2267 1.394 1_455 S
C2268 C2269 1.516 . S
C2269 C2268 1.516 . S
C2269 C2270 1.502 . S
C2269 C2271 1.561 . S
C2269 C2272 1.526 . S
C2270 H2254 0.959 . S
C2270 H2255 0.959 . S
C2270 H2256 0.961 . S
C2270 C2269 1.502 . S
C2271 H2257 0.960 . S
C2271 H2258 0.961 . S
C2271 H2259 0.959 1_455 S
C2271 C2269 1.561 . S
C2272 C2269 1.526 . S
C2272 C2273 1.396 1_455 S
C2272 C2277 1.390 . S
C2273 C2267 1.465 . S
C2273 C2272 1.396 1_655 S
C2273 C2274 1.399 . S
C2274 H2260 0.929 . S
C2274 C2273 1.399 . S
C2274 C2275 1.385 . S
C2275 H2261 0.931 . S
C2275 C2274 1.385 . S
C2275 C2276 1.377 1_655 S
C2276 C2275 1.377 1_455 S
C2276 C2277 1.395 . S
C2277 H2262 0.930 . S
C2277 C2272 1.390 . S
C2277 C2276 1.395 . S
H2278 C2290 0.930 . S
H2279 C2292 0.930 . S
H2280 C2293 0.930 . S
H2281 C2297 0.959 . S
H2282 C2297 0.959 . S
H2283 C2297 0.961 . S
H2284 C2298 0.960 . S
H2285 C2298 0.961 . S
H2286 C2298 0.959 . S
H2287 C2301 0.929 . S
H2288 C2302 0.931 . S
H2289 C2304 0.930 . S
C2290 H2278 0.930 . S
C2290 C2291 1.399 . S
C2290 C2295 1.399 . S
C2291 C2290 1.399 . S
C2291 C2292 1.376 . S
C2292 H2279 0.930 . S
C2292 C2291 1.376 . S
C2292 C2293 1.388 . S
C2293 H2280 0.930 . S
C2293 C2292 1.388 . S
C2293 C2294 1.390 . S
C2294 C2293 1.390 . S
C2294 C2295 1.394 . S
C2294 C2300 1.465 . S
C2295 C2290 1.399 . S
C2295 C2294 1.394 . S
C2295 C2296 1.516 . S
C2296 C2295 1.516 . S
C2296 C2297 1.502 . S
C2296 C2298 1.561 . S
C2296 C2299 1.526 . S
C2297 H2281 0.959 . S
C2297 H2282 0.959 . S
C2297 H2283 0.961 . S
C2297 C2296 1.502 . S
C2298 H2284 0.960 . S
C2298 H2285 0.961 . S
C2298 H2286 0.959 . S
C2298 C2296 1.561 . S
C2299 C2296 1.526 . S
C2299 C2300 1.396 . S
C2299 C2304 1.390 . S
C2300 C2294 1.465 . S
C2300 C2299 1.396 . S
C2300 C2301 1.399 . S
C2301 H2287 0.929 . S
C2301 C2300 1.399 . S
C2301 C2302 1.385 . S
C2302 H2288 0.931 . S
C2302 C2301 1.385 . S
C2302 C2303 1.389 . S
C2303 C2302 1.389 . S
C2303 C2304 1.387 . S
C2304 H2289 0.930 . S
C2304 C2299 1.390 . S
C2304 C2303 1.387 . S
H2305 C2317 0.930 . S
H2306 C2319 0.930 . S
H2307 C2320 0.930 . S
H2308 C2324 0.959 . S
H2309 C2324 0.959 . S
H2310 C2324 0.961 . S
H2311 C2325 0.960 . S
H2312 C2325 0.961 . S
H2313 C2325 0.959 1_455 S
H2314 C2328 0.929 . S
H2315 C2329 0.931 . S
H2316 C2331 0.935 1_655 S
C2317 H2305 0.930 . S
C2317 C2318 1.399 . S
C2317 C2322 1.399 . S
C2318 C2317 1.399 . S
C2318 C2319 1.376 . S
C2319 H2306 0.930 . S
C2319 C2318 1.376 . S
C2319 C2320 1.388 . S
C2320 H2307 0.930 . S
C2320 C2319 1.388 . S
C2320 C2321 1.390 . S
C2321 C2320 1.390 . S
C2321 C2322 1.394 . S
C2321 C2327 1.465 . S
C2322 C2317 1.399 . S
C2322 C2321 1.394 . S
C2322 C2323 1.516 1_455 S
C2323 C2322 1.516 1_655 S
C2323 C2324 1.502 . S
C2323 C2325 1.561 . S
C2323 C2326 1.526 1_655 S
C2324 H2308 0.959 . S
C2324 H2309 0.959 . S
C2324 H2310 0.961 . S
C2324 C2323 1.502 . S
C2325 H2311 0.960 . S
C2325 H2312 0.961 . S
C2325 H2313 0.959 1_655 S
C2325 C2323 1.561 . S
C2326 C2323 1.526 1_455 S
C2326 C2327 1.396 . S
C2326 C2331 1.387 . S
C2327 C2321 1.465 . S
C2327 C2326 1.396 . S
C2327 C2328 1.399 . S
C2328 H2314 0.929 . S
C2328 C2327 1.399 . S
C2328 C2329 1.385 . S
C2329 H2315 0.931 . S
C2329 C2328 1.385 . S
C2329 C2330 1.389 . S
C2330 C2329 1.389 . S
C2330 C2331 1.384 . S
C2331 H2316 0.935 1_455 S
C2331 C2326 1.387 . S
C2331 C2330 1.384 . S
H2332 C2344 0.930 . S
H2333 C2346 0.930 . S
H2334 C2347 0.930 . S
H2335 C2351 0.959 . S
H2336 C2351 0.959 . S
H2337 C2351 0.961 . S
H2338 C2352 0.960 . S
H2339 C2352 0.961 . S
H2340 C2352 0.959 . S
H2341 C2355 0.929 . S
H2342 C2356 0.931 . S
H2343 C2358 0.930 . S
C2344 H2332 0.930 . S
C2344 C2345 1.399 . S
C2344 C2349 1.399 . S
C2345 C2344 1.399 . S
C2345 C2346 1.376 . S
C2346 H2333 0.930 . S
C2346 C2345 1.376 . S
C2346 C2347 1.388 . S
C2347 H2334 0.930 . S
C2347 C2346 1.388 . S
C2347 C2348 1.390 . S
C2348 C2347 1.390 . S
C2348 C2349 1.394 . S
C2348 C2354 1.465 . S
C2349 C2344 1.399 . S
C2349 C2348 1.394 . S
C2349 C2350 1.516 . S
C2350 C2349 1.516 . S
C2350 C2351 1.502 . S
C2350 C2352 1.561 . S
C2350 C2353 1.526 . S
C2351 H2335 0.959 . S
C2351 H2336 0.959 . S
C2351 H2337 0.961 . S
C2351 C2350 1.502 . S
C2352 H2338 0.960 . S
C2352 H2339 0.961 . S
C2352 H2340 0.959 . S
C2352 C2350 1.561 . S
C2353 C2350 1.526 . S
C2353 C2354 1.396 . S
C2353 C2358 1.390 . S
C2354 C2348 1.465 . S
C2354 C2353 1.396 . S
C2354 C2355 1.399 . S
C2355 H2341 0.929 . S
C2355 C2354 1.399 . S
C2355 C2356 1.385 . S
C2356 H2342 0.931 . S
C2356 C2355 1.385 . S
C2356 C2357 1.389 . S
C2357 C2356 1.389 . S
C2357 C2358 1.387 . S
C2358 H2343 0.930 . S
C2358 C2353 1.390 . S
C2358 C2357 1.387 . S
H2359 C2371 0.930 . S
H2360 C2373 0.930 . S
H2361 C2374 0.930 . S
H2362 C2378 0.959 . S
H2363 C2378 0.959 . S
H2364 C2378 0.961 . S
H2365 C2379 0.960 . S
H2366 C2379 0.961 . S
H2367 C2379 0.959 . S
H2368 C2382 0.929 . S
H2369 C2383 0.931 . S
H2370 C2385 0.930 . S
C2371 H2359 0.930 . S
C2371 C2372 1.399 . S
C2371 C2376 1.399 . S
C2372 C2371 1.399 . S
C2372 C2373 1.376 . S
C2373 H2360 0.930 . S
C2373 C2372 1.376 . S
C2373 C2374 1.388 . S
C2374 H2361 0.930 . S
C2374 C2373 1.388 . S
C2374 C2375 1.390 . S
C2375 C2374 1.390 . S
C2375 C2376 1.394 . S
C2375 C2381 1.465 . S
C2376 C2371 1.399 . S
C2376 C2375 1.394 . S
C2376 C2377 1.516 . S
C2377 C2376 1.516 . S
C2377 C2378 1.502 . S
C2377 C2379 1.561 . S
C2377 C2380 1.526 . S
C2378 H2362 0.959 . S
C2378 H2363 0.959 . S
C2378 H2364 0.961 . S
C2378 C2377 1.502 . S
C2379 H2365 0.960 . S
C2379 H2366 0.961 . S
C2379 H2367 0.959 . S
C2379 C2377 1.561 . S
C2380 C2377 1.526 . S
C2380 C2381 1.396 . S
C2380 C2385 1.390 . S
C2381 C2375 1.465 . S
C2381 C2380 1.396 . S
C2381 C2382 1.399 . S
C2382 H2368 0.929 . S
C2382 C2381 1.399 . S
C2382 C2383 1.385 . S
C2383 H2369 0.931 . S
C2383 C2382 1.385 . S
C2383 C2384 1.389 . S
C2384 C2383 1.389 . S
C2384 C2385 1.387 . S
C2385 H2370 0.930 . S
C2385 C2380 1.390 . S
C2385 C2384 1.387 . S
H2386 C2398 0.930 . S
H2387 C2400 0.930 . S
H2388 C2401 0.930 . S
H2389 C2405 0.959 . S
H2390 C2405 0.959 . S
H2391 C2405 0.961 . S
H2392 C2406 0.960 . S
H2393 C2406 0.961 . S
H2394 C2406 0.959 . S
H2395 C2409 0.929 . S
H2396 C2410 0.931 . S
H2397 C2412 0.930 . S
C2398 H2386 0.930 . S
C2398 C2399 1.399 . S
C2398 C2403 1.399 . S
C2399 C2398 1.399 . S
C2399 C2400 1.376 . S
C2400 H2387 0.930 . S
C2400 C2399 1.376 . S
C2400 C2401 1.388 . S
C2401 H2388 0.930 . S
C2401 C2400 1.388 . S
C2401 C2402 1.390 . S
C2402 C2401 1.390 . S
C2402 C2403 1.394 . S
C2402 C2408 1.465 . S
C2403 C2398 1.399 . S
C2403 C2402 1.394 . S
C2403 C2404 1.516 . S
C2404 C2403 1.516 . S
C2404 C2405 1.502 . S
C2404 C2406 1.561 . S
C2404 C2407 1.526 . S
C2405 H2389 0.959 . S
C2405 H2390 0.959 . S
C2405 H2391 0.961 . S
C2405 C2404 1.502 . S
C2406 H2392 0.960 . S
C2406 H2393 0.961 . S
C2406 H2394 0.959 . S
C2406 C2404 1.561 . S
C2407 C2404 1.526 . S
C2407 C2408 1.396 . S
C2407 C2412 1.390 . S
C2408 C2402 1.465 . S
C2408 C2407 1.396 . S
C2408 C2409 1.399 . S
C2409 H2395 0.929 . S
C2409 C2408 1.399 . S
C2409 C2410 1.385 . S
C2410 H2396 0.931 . S
C2410 C2409 1.385 . S
C2410 C2411 1.389 . S
C2411 C2410 1.389 . S
C2411 C2412 1.387 . S
C2412 H2397 0.930 . S
C2412 C2407 1.390 . S
C2412 C2411 1.387 . S
H2413 C2425 0.930 . S
H2414 C2427 0.930 . S
H2415 C2428 0.930 . S
H2416 C2432 0.959 . S
H2417 C2432 0.959 . S
H2418 C2432 0.961 . S
H2419 C2433 0.960 1_556 S
H2420 C2433 0.961 . S
H2421 C2433 0.959 . S
H2422 C2436 0.929 . S
H2423 C2437 0.931 . S
H2424 C2439 0.930 . S
C2425 H2413 0.930 . S
C2425 C2426 1.399 . S
C2425 C2430 1.399 1_556 S
C2426 C2425 1.399 . S
C2426 C2427 1.376 1_556 S
C2427 H2414 0.930 . S
C2427 C2426 1.376 1_554 S
C2427 C2428 1.388 . S
C2428 H2415 0.930 . S
C2428 C2427 1.388 . S
C2428 C2429 1.390 . S
C2429 C2428 1.390 . S
C2429 C2430 1.394 . S
C2429 C2435 1.465 . S
C2430 C2425 1.399 1_554 S
C2430 C2429 1.394 . S
C2430 C2431 1.516 . S
C2431 C2430 1.516 . S
C2431 C2432 1.502 . S
C2431 C2433 1.561 . S
C2431 C2434 1.526 . S
C2432 H2416 0.959 . S
C2432 H2417 0.959 . S
C2432 H2418 0.961 . S
C2432 C2431 1.502 . S
C2433 H2419 0.960 1_554 S
C2433 H2420 0.961 . S
C2433 H2421 0.959 . S
C2433 C2431 1.561 . S
C2434 C2431 1.526 . S
C2434 C2435 1.396 . S
C2434 C2439 1.390 . S
C2435 C2429 1.465 . S
C2435 C2434 1.396 . S
C2435 C2436 1.399 . S
C2436 H2422 0.929 . S
C2436 C2435 1.399 . S
C2436 C2437 1.385 . S
C2437 H2423 0.931 . S
C2437 C2436 1.385 . S
C2437 C2438 1.389 . S
C2438 C2437 1.389 . S
C2438 C2439 1.387 . S
C2439 H2424 0.930 . S
C2439 C2434 1.390 . S
C2439 C2438 1.387 . S
H2440 C2452 0.930 . S
H2441 C2454 0.930 . S
H2442 C2455 0.930 . S
H2443 C2459 0.959 . S
H2444 C2459 0.959 . S
H2445 C2459 0.961 . S
H2446 C2460 0.960 . S
H2447 C2460 0.961 . S
H2448 C2460 0.959 . S
H2449 C2463 0.929 . S
H2450 C2464 0.931 . S
H2451 C2466 0.930 . S
C2452 H2440 0.930 . S
C2452 C2453 1.399 . S
C2452 C2457 1.399 . S
C2453 C2452 1.399 . S
C2453 C2454 1.376 . S
C2454 H2441 0.930 . S
C2454 C2453 1.376 . S
C2454 C2455 1.388 . S
C2455 H2442 0.930 . S
C2455 C2454 1.388 . S
C2455 C2456 1.390 . S
C2456 C2455 1.390 . S
C2456 C2457 1.394 . S
C2456 C2462 1.465 . S
C2457 C2452 1.399 . S
C2457 C2456 1.394 . S
C2457 C2458 1.516 . S
C2458 C2457 1.516 . S
C2458 C2459 1.502 . S
C2458 C2460 1.561 . S
C2458 C2461 1.526 . S
C2459 H2443 0.959 . S
C2459 H2444 0.959 . S
C2459 H2445 0.961 . S
C2459 C2458 1.502 . S
C2460 H2446 0.960 . S
C2460 H2447 0.961 . S
C2460 H2448 0.959 . S
C2460 C2458 1.561 . S
C2461 C2458 1.526 . S
C2461 C2462 1.396 . S
C2461 C2466 1.390 . S
C2462 C2456 1.465 . S
C2462 C2461 1.396 . S
C2462 C2463 1.399 . S
C2463 H2449 0.929 . S
C2463 C2462 1.399 . S
C2463 C2464 1.385 . S
C2464 H2450 0.931 . S
C2464 C2463 1.385 . S
C2464 C2465 1.389 . S
C2465 C2464 1.389 . S
C2465 C2466 1.387 . S
C2466 H2451 0.930 . S
C2466 C2461 1.390 . S
C2466 C2465 1.387 . S
H2467 C2479 0.930 . S
H2468 C2481 0.930 . S
H2469 C2482 0.930 . S
H2470 C2486 0.959 . S
H2471 C2486 0.959 . S
H2472 C2486 0.961 . S
H2473 C2487 0.960 . S
H2474 C2487 0.961 . S
H2475 C2487 0.959 . S
H2476 C2490 0.929 . S
H2477 C2491 0.931 . S
H2478 C2493 0.930 . S
C2479 H2467 0.930 . S
C2479 C2480 1.399 . S
C2479 C2484 1.399 . S
C2480 C2479 1.399 . S
C2480 C2481 1.376 . S
C2481 H2468 0.930 . S
C2481 C2480 1.376 . S
C2481 C2482 1.388 . S
C2482 H2469 0.930 . S
C2482 C2481 1.388 . S
C2482 C2483 1.390 . S
C2483 C2482 1.390 . S
C2483 C2484 1.394 . S
C2483 C2489 1.465 . S
C2484 C2479 1.399 . S
C2484 C2483 1.394 . S
C2484 C2485 1.516 . S
C2485 C2484 1.516 . S
C2485 C2486 1.502 . S
C2485 C2487 1.561 . S
C2485 C2488 1.526 . S
C2486 H2470 0.959 . S
C2486 H2471 0.959 . S
C2486 H2472 0.961 . S
C2486 C2485 1.502 . S
C2487 H2473 0.960 . S
C2487 H2474 0.961 . S
C2487 H2475 0.959 . S
C2487 C2485 1.561 . S
C2488 C2485 1.526 . S
C2488 C2489 1.396 . S
C2488 C2493 1.390 . S
C2489 C2483 1.465 . S
C2489 C2488 1.396 . S
C2489 C2490 1.399 . S
C2490 H2476 0.929 . S
C2490 C2489 1.399 . S
C2490 C2491 1.385 . S
C2491 H2477 0.931 . S
C2491 C2490 1.385 . S
C2491 C2492 1.389 . S
C2492 C2491 1.389 . S
C2492 C2493 1.387 . S
C2493 H2478 0.930 . S
C2493 C2488 1.390 . S
C2493 C2492 1.387 . S
H2494 C2506 0.930 . S
H2495 C2508 0.930 . S
H2496 C2509 0.930 . S
H2497 C2513 0.959 . S
H2498 C2513 0.959 . S
H2499 C2513 0.961 . S
H2500 C2514 0.960 . S
H2501 C2514 0.961 . S
H2502 C2514 0.959 . S
H2503 C2517 0.929 . S
H2504 C2518 0.931 . S
H2505 C2520 0.930 . S
C2506 H2494 0.930 . S
C2506 C2507 1.399 . S
C2506 C2511 1.399 . S
C2507 C2506 1.399 . S
C2507 C2508 1.376 . S
C2508 H2495 0.930 . S
C2508 C2507 1.376 . S
C2508 C2509 1.388 . S
C2509 H2496 0.930 . S
C2509 C2508 1.388 . S
C2509 C2510 1.390 . S
C2510 C2509 1.390 . S
C2510 C2511 1.394 . S
C2510 C2516 1.465 . S
C2511 C2506 1.399 . S
C2511 C2510 1.394 . S
C2511 C2512 1.516 . S
C2512 C2511 1.516 . S
C2512 C2513 1.502 . S
C2512 C2514 1.561 . S
C2512 C2515 1.526 . S
C2513 H2497 0.959 . S
C2513 H2498 0.959 . S
C2513 H2499 0.961 . S
C2513 C2512 1.502 . S
C2514 H2500 0.960 . S
C2514 H2501 0.961 . S
C2514 H2502 0.959 . S
C2514 C2512 1.561 . S
C2515 C2512 1.526 . S
C2515 C2516 1.396 . S
C2515 C2520 1.390 . S
C2516 C2510 1.465 . S
C2516 C2515 1.396 . S
C2516 C2517 1.399 . S
C2517 H2503 0.929 . S
C2517 C2516 1.399 . S
C2517 C2518 1.385 . S
C2518 H2504 0.931 . S
C2518 C2517 1.385 . S
C2518 C2519 1.389 . S
C2519 C2518 1.389 . S
C2519 C2520 1.387 . S
C2520 H2505 0.930 . S
C2520 C2515 1.390 . S
C2520 C2519 1.387 . S
H2521 C2533 0.930 . S
H2522 C2535 0.930 . S
H2523 C2536 0.930 . S
H2524 C2540 0.959 . S
H2525 C2540 0.959 . S
H2526 C2540 0.961 . S
H2527 C2541 0.960 . S
H2528 C2541 0.961 . S
H2529 C2541 0.959 . S
H2530 C2544 0.929 . S
H2531 C2545 0.931 . S
H2532 C2547 0.930 . S
C2533 H2521 0.930 . S
C2533 C2534 1.399 . S
C2533 C2538 1.399 . S
C2534 C2533 1.399 . S
C2534 C2535 1.376 . S
C2535 H2522 0.930 . S
C2535 C2534 1.376 . S
C2535 C2536 1.388 . S
C2536 H2523 0.930 . S
C2536 C2535 1.388 . S
C2536 C2537 1.390 . S
C2537 C2536 1.390 . S
C2537 C2538 1.394 . S
C2537 C2543 1.465 . S
C2538 C2533 1.399 . S
C2538 C2537 1.394 . S
C2538 C2539 1.516 . S
C2539 C2538 1.516 . S
C2539 C2540 1.502 . S
C2539 C2541 1.561 . S
C2539 C2542 1.526 . S
C2540 H2524 0.959 . S
C2540 H2525 0.959 . S
C2540 H2526 0.961 . S
C2540 C2539 1.502 . S
C2541 H2527 0.960 . S
C2541 H2528 0.961 . S
C2541 H2529 0.959 . S
C2541 C2539 1.561 . S
C2542 C2539 1.526 . S
C2542 C2543 1.396 . S
C2542 C2547 1.390 . S
C2543 C2537 1.465 . S
C2543 C2542 1.396 . S
C2543 C2544 1.399 . S
C2544 H2530 0.929 . S
C2544 C2543 1.399 . S
C2544 C2545 1.385 . S
C2545 H2531 0.931 . S
C2545 C2544 1.385 . S
C2545 C2546 1.389 . S
C2546 C2545 1.389 . S
C2546 C2547 1.387 . S
C2547 H2532 0.930 . S
C2547 C2542 1.390 . S
C2547 C2546 1.387 . S
H2548 C2560 0.930 . S
H2549 C2562 0.930 . S
H2550 C2563 0.930 . S
H2551 C2567 0.959 . S
H2552 C2567 0.959 . S
H2553 C2567 0.961 . S
H2554 C2568 0.960 . S
H2555 C2568 0.961 . S
H2556 C2568 0.959 . S
H2557 C2571 0.929 . S
H2558 C2572 0.931 . S
H2559 C2574 0.930 . S
C2560 H2548 0.930 . S
C2560 C2561 1.399 1_554 S
C2560 C2565 1.399 . S
C2561 C2560 1.399 1_556 S
C2561 C2562 1.376 . S
C2562 H2549 0.930 . S
C2562 C2561 1.376 . S
C2562 C2563 1.388 . S
C2563 H2550 0.930 . S
C2563 C2562 1.388 . S
C2563 C2564 1.390 . S
C2564 C2563 1.390 . S
C2564 C2565 1.394 1_556 S
C2564 C2570 1.465 . S
C2565 C2560 1.399 . S
C2565 C2564 1.394 1_554 S
C2565 C2566 1.516 . S
C2566 C2565 1.516 . S
C2566 C2567 1.502 . S
C2566 C2568 1.561 . S
C2566 C2569 1.546 . S
C2567 H2551 0.959 . S
C2567 H2552 0.959 . S
C2567 H2553 0.961 . S
C2567 C2566 1.502 . S
C2568 H2554 0.960 . S
C2568 H2555 0.961 . S
C2568 H2556 0.959 . S
C2568 C2566 1.561 . S
C2569 C2566 1.546 . S
C2569 C2570 1.373 1_554 S
C2569 C2574 1.390 . S
C2570 C2564 1.465 . S
C2570 C2569 1.373 1_556 S
C2570 C2571 1.399 . S
C2571 H2557 0.929 . S
C2571 C2570 1.399 . S
C2571 C2572 1.385 . S
C2572 H2558 0.931 . S
C2572 C2571 1.385 . S
C2572 C2573 1.389 . S
C2573 C2572 1.389 . S
C2573 C2574 1.387 1_556 S
C2574 H2559 0.930 . S
C2574 C2569 1.390 . S
C2574 C2573 1.387 1_554 S
H2575 C2587 0.930 . S
H2576 C2589 0.930 . S
H2577 C2590 0.930 . S
H2578 C2594 0.959 . S
H2579 C2594 0.959 . S
H2580 C2594 0.961 . S
H2581 C2595 0.960 . S
H2582 C2595 0.961 . S
H2583 C2595 0.959 . S
H2584 C2598 0.929 . S
H2585 C2599 0.931 . S
H2586 C2601 0.930 . S
C2587 H2575 0.930 . S
C2587 C2588 1.399 . S
C2587 C2592 1.399 . S
C2588 C2587 1.399 . S
C2588 C2589 1.376 . S
C2589 H2576 0.930 . S
C2589 C2588 1.376 . S
C2589 C2590 1.388 . S
C2590 H2577 0.930 . S
C2590 C2589 1.388 . S
C2590 C2591 1.390 . S
C2591 C2590 1.390 . S
C2591 C2592 1.394 . S
C2591 C2597 1.465 . S
C2592 C2587 1.399 . S
C2592 C2591 1.394 . S
C2592 C2593 1.516 . S
C2593 C2592 1.516 . S
C2593 C2594 1.502 . S
C2593 C2595 1.561 . S
C2593 C2596 1.526 . S
C2594 H2578 0.959 . S
C2594 H2579 0.959 . S
C2594 H2580 0.961 . S
C2594 C2593 1.502 . S
C2595 H2581 0.960 . S
C2595 H2582 0.961 . S
C2595 H2583 0.959 . S
C2595 C2593 1.561 . S
C2596 C2593 1.526 . S
C2596 C2597 1.396 . S
C2596 C2601 1.390 . S
C2597 C2591 1.465 . S
C2597 C2596 1.396 . S
C2597 C2598 1.399 . S
C2598 H2584 0.929 . S
C2598 C2597 1.399 . S
C2598 C2599 1.385 . S
C2599 H2585 0.931 . S
C2599 C2598 1.385 . S
C2599 C2600 1.389 . S
C2600 C2599 1.389 . S
C2600 C2601 1.387 . S
C2601 H2586 0.930 . S
C2601 C2596 1.390 . S
C2601 C2600 1.387 . S
H2602 C2614 0.930 . S
H2603 C2616 0.930 . S
H2604 C2617 0.930 . S
H2605 C2621 0.959 . S
H2606 C2621 0.959 . S
H2607 C2621 0.961 . S
H2608 C2622 0.960 . S
H2609 C2622 0.961 . S
H2610 C2622 0.959 . S
H2611 C2625 0.929 . S
H2612 C2626 0.931 . S
H2613 C2628 0.930 . S
C2614 H2602 0.930 . S
C2614 C2615 1.399 . S
C2614 C2619 1.399 . S
C2615 C2614 1.399 . S
C2615 C2616 1.376 1_554 S
C2616 H2603 0.930 . S
C2616 C2615 1.376 1_556 S
C2616 C2617 1.388 . S
C2617 H2604 0.930 . S
C2617 C2616 1.388 . S
C2617 C2618 1.390 1_556 S
C2618 C2617 1.390 1_554 S
C2618 C2619 1.394 . S
C2618 C2624 1.465 1_554 S
C2619 C2614 1.399 . S
C2619 C2618 1.394 . S
C2619 C2620 1.516 . S
C2620 C2619 1.516 . S
C2620 C2621 1.502 . S
C2620 C2622 1.561 . S
C2620 C2623 1.526 . S
C2621 H2605 0.959 . S
C2621 H2606 0.959 . S
C2621 H2607 0.961 . S
C2621 C2620 1.502 . S
C2622 H2608 0.960 . S
C2622 H2609 0.961 . S
C2622 H2610 0.959 . S
C2622 C2620 1.561 . S
C2623 C2620 1.526 . S
C2623 C2624 1.394 1_554 S
C2623 C2628 1.390 . S
C2624 C2618 1.465 1_556 S
C2624 C2623 1.394 1_556 S
C2624 C2625 1.401 . S
C2625 H2611 0.929 . S
C2625 C2624 1.401 . S
C2625 C2626 1.385 . S
C2626 H2612 0.931 . S
C2626 C2625 1.385 . S
C2626 C2627 1.389 1_556 S
C2627 C2626 1.389 1_554 S
C2627 C2628 1.387 . S
C2628 H2613 0.930 . S
C2628 C2623 1.390 . S
C2628 C2627 1.387 . S
H2629 C2641 0.930 . S
H2630 C2643 0.930 . S
H2631 C2644 0.930 . S
H2632 C2648 0.959 1_565 S
H2633 C2648 0.959 . S
H2634 C2648 0.961 . S
H2635 C2649 0.960 . S
H2636 C2649 0.961 . S
H2637 C2649 0.959 . S
H2638 C2652 0.929 . S
H2639 C2653 0.931 . S
H2640 C2655 0.930 . S
C2641 H2629 0.930 . S
C2641 C2642 1.392 1_545 S
C2641 C2646 1.399 1_545 S
C2642 C2641 1.392 1_565 S
C2642 C2643 1.405 . S
C2643 H2630 0.930 . S
C2643 C2642 1.405 . S
C2643 C2644 1.388 . S
C2644 H2631 0.930 . S
C2644 C2643 1.388 . S
C2644 C2645 1.390 . S
C2645 C2644 1.390 . S
C2645 C2646 1.394 . S
C2645 C2651 1.465 . S
C2646 C2641 1.399 1_565 S
C2646 C2645 1.394 . S
C2646 C2647 1.516 . S
C2647 C2646 1.516 . S
C2647 C2648 1.502 1_565 S
C2647 C2649 1.561 1_565 S
C2647 C2650 1.526 . S
C2648 H2632 0.959 1_545 S
C2648 H2633 0.959 . S
C2648 H2634 0.961 . S
C2648 C2647 1.502 1_545 S
C2649 H2635 0.960 . S
C2649 H2636 0.961 . S
C2649 H2637 0.959 . S
C2649 C2647 1.561 1_545 S
C2650 C2647 1.526 . S
C2650 C2651 1.396 . S
C2650 C2655 1.390 . S
C2651 C2645 1.465 . S
C2651 C2650 1.396 . S
C2651 C2652 1.399 . S
C2652 H2638 0.929 . S
C2652 C2651 1.399 . S
C2652 C2653 1.385 . S
C2653 H2639 0.931 . S
C2653 C2652 1.385 . S
C2653 C2654 1.389 . S
C2654 C2653 1.389 . S
C2654 C2655 1.387 . S
C2655 H2640 0.930 . S
C2655 C2650 1.390 . S
C2655 C2654 1.387 . S
C1385 C353 1.878 . S
C1373 C101 1.854 . S
C1412 C412 1.035 . S
C1400 C125 0.942 . S
C1427 C139 2.098 . S
C1439 C529 2.117 . S
C1466 C597 1.863 1_455 S
C1454 C82 1.877 . S
C1493 C676 1.609 . S
C1481 C196 1.635 . S
C1520 C801 1.887 . S
C1508 C234 1.875 . S
C1535 C220 0.765 . S
C1547 C861 0.791 . S
C1574 C969 1.697 1_565 S
C1562 C173 1.706 . S
C1589 C211 1.204 . S
C1601 C1065 1.290 . S
C1628 C1125 1.045 . S
C1616 C182 0.963 . S
C1643 C201 1.327 . S
C1655 C1028 1.504 . S
C1682 C1145 1.332 . S
C1670 C239 1.288 . S
C1697 C135 1.653 . S
C1709 C1213 1.683 . S
C1724 C87 1.913 . S
C1736 C1204 2.043 . S
C1751 C106 1.093 . S
C1763 C1233 1.207 . S
C1778 C116 1.249 . S
C1790 C1241 1.226 . S
C1805 C59 1.983 . S
C1817 C625 1.984 . S
C1832 C268 2.332 . S
C1844 C588 2.329 . S
C1871 C324 1.127 . S
C1859 C291 1.184 . S
C1898 C421 1.464 . S
C1886 C163 1.365 . S
C1913 C78 2.130 1_545 S
C1925 C685 2.153 . S
C1952 C977 1.112 . S
C1940 C215 1.104 . S
C1979 C705 1.653 . S
C1967 C177 1.651 1_545 S
C2006 C889 1.886 . S
C1994 C230 1.850 . S
C2033 C881 1.901 . S
C2021 C272 1.880 . S
C2048 C296 1.012 . S
C2060 C949 1.017 . S
C2075 C158 2.119 . S
C2087 C713 2.088 . S
C2114 C764 1.851 . S
C2102 C253 1.861 . S
C2129 C63 1.625 . S
C2141 C509 1.578 . S
C2168 C617 1.867 . S
C2156 C6 1.910 . S
C2195 C333 0.781 . S
C2183 C30 0.713 . S
C2222 C449 1.725 . S
C2210 C40 1.704 . S
C2237 C21 1.232 . S
C2249 C1153 1.304 . S
C2264 C49 0.953 . S
C2276 C1037 1.030 . S
C2291 C68 1.315 . S
C2303 C1116 1.489 . S
C2318 C11 1.261 1_556 S
C2330 C1057 1.320 . S
C2357 C1301 1.639 . S
C2345 C154 1.616 . S
C2384 C1292 2.054 . S
C2372 C258 1.918 . S
C2411 C1321 1.250 . S
C2399 C277 1.174 . S
C2426 C287 1.188 . S
C2438 C1329 1.268 . S
C2453 C192 1.955 . S
C2465 C793 1.986 . S
C2492 C773 2.298 . S
C2480 C97 2.307 . S
C2519 C852 1.134 . S
C2507 C120 1.180 . S
C2546 C940 1.472 . S
C2534 C144 1.366 . S
C2561 C249 2.111 . S
C2573 C500 2.166 . S
C2600 C441 1.137 . S
C2588 C25 1.127 . S
C2615 C44 1.641 . S
C2627 C537 1.633 . S
C2654 C361 1.876 . S
C2642 C2 1.836 1_565 S
