# Generated by pormake.
# Topology zzz, (3,6)-cn, num edge types: 1
# Building blocks:
#     Node 0, Type 0, BuildingBlock: QEWDON_clean_linker_0, # of connection points: 3
#     Node 1, Type 0, BuildingBlock: QEWDON_clean_linker_0, # of connection points: 3
#     Node 2, Type 0, BuildingBlock: QEWDON_clean_linker_0, # of connection points: 3
#     Node 3, Type 0, BuildingBlock: QEWDON_clean_linker_0, # of connection points: 3
#     Node 4, Type 0, BuildingBlock: QEWDON_clean_linker_0, # of connection points: 3
#     Node 5, Type 0, BuildingBlock: QEWDON_clean_linker_0, # of connection points: 3
#     Node 6, Type 0, BuildingBlock: QEWDON_clean_linker_0, # of connection points: 3
#     Node 7, Type 0, BuildingBlock: QEWDON_clean_linker_0, # of connection points: 3
#     Node 8, Type 1, BuildingBlock: CUWYAW_clean_sbu_0, # of connection points: 6
#     Node 9, Type 1, BuildingBlock: CUWYAW_clean_sbu_0, # of connection points: 6
#     Node 10, Type 1, BuildingBlock: CUWYAW_clean_sbu_0, # of connection points: 6
#     Node 11, Type 1, BuildingBlock: CUWYAW_clean_sbu_0, # of connection points: 6
#     Edge 12, Type (0, 1), BuildingBlock: XIVTED_clean_linker_0, # of connection points: 2
#     Edge 13, Type (0, 1), BuildingBlock: XIVTED_clean_linker_0, # of connection points: 2
#     Edge 14, Type (0, 1), BuildingBlock: XIVTED_clean_linker_0, # of connection points: 2
#     Edge 15, Type (0, 1), BuildingBlock: XIVTED_clean_linker_0, # of connection points: 2
#     Edge 16, Type (0, 1), BuildingBlock: XIVTED_clean_linker_0, # of connection points: 2
#     Edge 17, Type (0, 1), BuildingBlock: XIVTED_clean_linker_0, # of connection points: 2
#     Edge 18, Type (0, 1), BuildingBlock: XIVTED_clean_linker_0, # of connection points: 2
#     Edge 19, Type (0, 1), BuildingBlock: XIVTED_clean_linker_0, # of connection points: 2
#     Edge 20, Type (0, 1), BuildingBlock: XIVTED_clean_linker_0, # of connection points: 2
#     Edge 21, Type (0, 1), BuildingBlock: XIVTED_clean_linker_0, # of connection points: 2
#     Edge 22, Type (0, 1), BuildingBlock: XIVTED_clean_linker_0, # of connection points: 2
#     Edge 23, Type (0, 1), BuildingBlock: XIVTED_clean_linker_0, # of connection points: 2
#     Edge 24, Type (0, 1), BuildingBlock: XIVTED_clean_linker_0, # of connection points: 2
#     Edge 25, Type (0, 1), BuildingBlock: XIVTED_clean_linker_0, # of connection points: 2
#     Edge 26, Type (0, 1), BuildingBlock: XIVTED_clean_linker_0, # of connection points: 2
#     Edge 27, Type (0, 1), BuildingBlock: XIVTED_clean_linker_0, # of connection points: 2
#     Edge 28, Type (0, 1), BuildingBlock: XIVTED_clean_linker_0, # of connection points: 2
#     Edge 29, Type (0, 1), BuildingBlock: XIVTED_clean_linker_0, # of connection points: 2
#     Edge 30, Type (0, 1), BuildingBlock: XIVTED_clean_linker_0, # of connection points: 2
#     Edge 31, Type (0, 1), BuildingBlock: XIVTED_clean_linker_0, # of connection points: 2
#     Edge 32, Type (0, 1), BuildingBlock: XIVTED_clean_linker_0, # of connection points: 2
#     Edge 33, Type (0, 1), BuildingBlock: XIVTED_clean_linker_0, # of connection points: 2
#     Edge 34, Type (0, 1), BuildingBlock: XIVTED_clean_linker_0, # of connection points: 2
#     Edge 35, Type (0, 1), BuildingBlock: XIVTED_clean_linker_0, # of connection points: 2
# Relax obj value: 0.165
# Max RMSD: 0.148
# Mean RMSD: 0.096
data_MOF--net-zzz--node1-CUWYAW_clean_sbu_0--node2-QEWDON_clean_linker_0--edge1-XIVTED_clean_linker_0
_symmetry_space_group_name_H-M    P1
_symmetry_Int_Tables_number       1
_symmetry_cell_setting            triclinic
loop_
_symmetry_equiv_pos_as_xyz
'x, y, z'
_cell_length_a     55.995898
_cell_length_b     55.962185
_cell_length_c     13.669801
_cell_angle_alpha  89.90679
_cell_angle_beta   89.958375
_cell_angle_gamma 90.04199
loop_
_atom_site_label
_atom_site_type_symbol
_atom_site_fract_x
_atom_site_fract_y
_atom_site_fract_z
_atom_type_partial_charge
H0 H 0.7448 0.4827 0.24939 0.0
C1 C 0.75935 0.49101 0.28877 0.0
C2 C 0.78175 0.47988 0.28686 0.0
C3 C 0.75579 0.51229 0.34261 0.0
H4 H 0.81834 0.48148 0.33456 0.0
C5 C 0.80088 0.48987 0.33828 0.0
C6 C 0.79837 0.51098 0.39098 0.0
C7 C 0.77582 0.52229 0.39314 0.0
C8 C 0.7312 0.52339 0.34845 0.0
H9 H 0.77418 0.53896 0.43252 0.0
C10 C 0.71365 0.52035 0.27368 0.0
C11 C 0.69019 0.52974 0.28395 0.0
C12 C 0.72466 0.53638 0.43242 0.0
H13 H 0.73687 0.5386 0.49297 0.0
C14 C 0.70195 0.54628 0.44144 0.0
H15 H 0.71802 0.51052 0.20806 0.0
C16 C 0.68493 0.54306 0.36838 0.0
H17 H 0.66758 0.55124 0.37818 0.0
H18 H 0.69739 0.55636 0.50636 0.0
H19 H 0.04204 0.74908 0.23923 0.0
C20 C 0.03415 0.76385 0.27879 0.0
C21 C 0.04511 0.78626 0.27253 0.0
C22 C 1.01369 0.76045 0.33766 0.0
H23 H 0.04395 0.82312 0.31619 0.0
C24 C 0.0356 0.80569 0.32356 0.0
C25 C 1.0152 0.8034 0.38137 0.0
C26 C 1.00426 0.78063 0.38918 0.0
C27 C 1.00328 0.73566 0.34838 0.0
H28 H 0.98831 0.77888 0.43335 0.0
C29 C 1.00483 0.71819 0.27258 0.0
C30 C 0.99693 0.69427 0.28736 0.0
C31 C 0.99308 0.72876 0.43806 0.0
H32 H 0.99201 0.7411 0.49875 0.0
C33 C 0.98499 0.70547 0.45275 0.0
H34 H 1.01197 0.7232 0.20192 0.0
C35 C 0.98707 0.68839 0.37909 0.0
H36 H 0.98141 0.67034 0.3956 0.0
H37 H 0.97752 0.70044 0.52291 0.0
H38 H 0.77849 0.05031 0.23006 0.0
C39 C 0.7639 0.04222 0.27016 0.0
C40 C 0.74194 0.05421 0.27291 0.0
C41 C 0.767 0.02034 0.32043 0.0
H42 H 0.70564 0.05342 0.32503 0.0
C43 C 0.72281 0.04441 0.32534 0.0
C44 C 0.7249 0.02268 0.37431 0.0
C45 C 0.747 1.01054 0.3718 0.0
C46 C 0.79123 1.00848 0.32268 0.0
H47 H 0.74832 0.99344 0.40841 0.0
C48 C 0.80839 1.01139 0.24621 0.0
C49 C 0.83173 1.00172 0.25468 0.0
C50 C 0.79795 0.99513 0.40561 0.0
H51 H 0.78598 0.99294 0.46715 0.0
C52 C 0.82057 0.98493 0.41256 0.0
H53 H 0.8039 0.02142 0.18106 0.0
C54 C 0.8373 0.98823 0.33837 0.0
H55 H 0.85475 0.98012 0.34666 0.0
H56 H 0.82532 0.97468 0.4769 0.0
H57 H 0.47792 0.78394 0.24828 0.0
C58 C 0.48601 0.76927 0.28769 0.0
C59 C 0.47457 0.74699 0.2855 0.0
C60 C 0.50737 0.7725 0.34126 0.0
H61 H 0.47576 0.71028 0.33279 0.0
C62 C 0.48431 0.72767 0.3369 0.0
C63 C 0.50551 0.72986 0.3893 0.0
C64 C 0.51714 0.75227 0.39145 0.0
C65 C 0.51889 0.79694 0.34672 0.0
H66 H 0.53391 0.75362 0.43029 0.0
C67 C 0.51588 0.81466 0.27232 0.0
C68 C 0.52565 0.83798 0.28249 0.0
C69 C 0.53228 0.80318 0.43003 0.0
H70 H 0.53451 0.79085 0.49034 0.0
C71 C 0.5426 0.82573 0.43877 0.0
H72 H 0.50578 0.81055 0.20713 0.0
C73 C 0.53938 0.84291 0.36618 0.0
H74 H 0.54784 0.86014 0.3758 0.0
H75 H 0.55298 0.83004 0.50316 0.0
H76 H 0.2798 0.54886 0.22737 0.0
C77 C 0.26528 0.54094 0.18643 0.0
C78 C 0.24272 0.5516 0.19155 0.0
C79 C 0.26913 0.52075 0.12663 0.0
H80 H 0.20608 0.55012 0.14498 0.0
C81 C 0.22363 0.54201 0.13864 0.0
C82 C 0.22643 0.52187 0.07992 0.0
C83 C 0.24931 0.51124 0.07324 0.0
C84 C 0.29402 0.51072 0.11651 0.0
H85 H 0.25144 0.49549 0.02825 0.0
C86 C 0.3111 0.51182 0.19381 0.0
C87 C 0.3351 0.50419 0.17993 0.0
C88 C 0.30138 0.50133 0.0261 0.0
H89 H 0.28931 0.50065 0.96436 0.0
C90 C 0.32477 0.49357 0.01217 0.0
H91 H 0.30571 0.51838 0.26486 0.0
C92 C 0.34147 0.49516 0.08744 0.0
H93 H 0.35962 0.48977 0.07169 0.0
H94 H 0.33017 0.48673 0.94149 0.0
H95 H 0.0534 0.28784 0.22655 0.0
C96 C 0.04725 0.27319 0.18165 0.0
C97 C 0.05669 0.25055 0.20031 0.0
C98 C 0.03001 0.27675 0.10784 0.0
H99 H 0.05668 0.21351 0.15896 0.0
C100 C 0.0497 0.23115 0.14246 0.0
C101 C 0.03248 0.23347 0.06912 0.0
C102 C 0.02268 0.25646 0.05122 0.0
C103 C 0.02005 0.30161 0.0917 0.0
H104 H 1.00887 0.25821 0.99639 0.0
C105 C 0.01955 0.31915 0.16765 0.0
C106 C 1.0123 0.34306 0.14939 0.0
C107 C 1.01214 0.3085 0.99822 0.0
H108 H 1.01259 0.29617 0.9374 0.0
C109 C 1.00416 0.33173 0.98056 0.0
H110 H 0.02508 0.31447 0.2409 0.0
C111 C 1.00432 0.34883 0.05476 0.0
H112 H 0.99796 0.36663 0.03779 0.0
H113 H 0.99809 0.33664 0.90809 0.0
H114 H 0.24433 0.9794 0.23308 0.0
C115 C 0.25902 0.9867 0.19096 0.0
C116 C 0.28161 0.97637 0.20112 0.0
C117 C 0.25531 1.00575 0.12504 0.0
H118 H 0.31852 0.97767 0.15768 0.0
C119 C 0.3009 0.98534 0.14716 0.0
C120 C 0.29821 1.00448 0.08251 0.0
C121 C 0.27523 1.01457 0.0704 0.0
C122 C 0.23041 1.0152 0.11038 0.0
H123 H 0.27307 0.02947 0.0206 0.0
C124 C 0.21337 1.01589 0.18784 0.0
C125 C 0.18919 0.02237 0.17063 0.0
C126 C 0.22296 0.02188 0.01616 0.0
H127 H 0.23513 0.02118 0.95468 0.0
C128 C 0.19936 0.02849 0.99865 0.0
H129 H 0.219 1.01152 0.2614 0.0
C130 C 0.18263 0.02846 0.07424 0.0
H131 H 0.16435 0.03274 0.05576 0.0
H132 H 0.19384 0.03314 0.92516 0.0
H133 H 0.54497 0.24746 0.21948 0.0
C134 C 0.53673 0.26201 0.17977 0.0
C135 C 0.54796 0.28439 0.1814 0.0
C136 C 0.51545 0.2585 0.12592 0.0
H137 H 0.54656 0.32099 0.13303 0.0
C138 C 0.53809 0.30354 0.12951 0.0
C139 C 0.51698 0.30109 0.07678 0.0
C140 C 0.50555 0.27857 0.07509 0.0
C141 C 0.50425 0.2339 0.12035 0.0
H142 H 0.48886 0.27701 0.03582 0.0
C143 C 0.50744 0.21622 0.19476 0.0
C144 C 0.49802 0.19276 0.18437 0.0
C145 C 0.49102 0.22749 0.03683 0.0
H146 H 0.48868 0.23977 0.97648 0.0
C147 C 0.48103 0.20479 0.02789 0.0
H148 H 0.51744 0.22045 0.2601 0.0
C149 C 0.48443 0.18765 0.10048 0.0
H150 H 0.47622 0.17029 0.09068 0.0
H151 H 0.47078 0.20034 0.96333 0.0
C152 C 0.99585 0.05516 0.48403 0.0
Eu153 Eu 1.0009 0.02769 0.63358 0.0
C154 C 1.00988 0.07721 0.47191 0.0
C155 C 0.99892 0.09851 0.44241 0.0
C156 C 1.0112 0.12023 0.45051 0.0
C157 C 0.0346 0.12089 0.48833 0.0
C158 C 0.04571 0.09946 0.51512 0.0
C159 C 0.03342 0.07794 0.50786 0.0
C160 C 0.96849 1.01386 0.77098 0.0
C161 C 0.01808 0.065 0.80663 0.0
C162 C 0.0315 0.98541 0.98535 0.0
Eu163 Eu 0.02329 1.008 0.8241 0.0
C164 C 0.04684 0.96438 0.99724 0.0
C165 C 0.04995 0.95355 0.08857 0.0
C166 C 0.06315 0.9324 0.09616 0.0
C167 C 0.07338 0.92184 0.01235 0.0
C168 C 0.07095 0.9334 0.92174 0.0
C169 C 0.05774 0.95441 0.91427 0.0
C170 C 0.05872 1.01278 0.68501 0.0
C171 C 1.007 0.97081 0.64815 0.0
O172 O 1.00805 0.03519 0.47975 0.0
O173 O 0.98094 0.05561 0.55782 0.0
O174 O 0.96528 1.01167 0.67707 0.0
O175 O 0.98814 0.02437 0.7876 0.0
O176 O 1.01448 0.06118 0.71221 0.0
O177 O 0.01963 0.04692 0.86894 0.0
O178 O 1.01232 0.98168 0.93233 0.0
O179 O 0.04276 1.00514 0.96139 0.0
O180 O 0.06235 1.00582 0.77385 0.0
O181 O 0.03684 0.01749 0.67733 0.0
O182 O 1.01166 0.97424 0.7423 0.0
O183 O 1.00416 0.989 0.58698 0.0
H184 H 0.98062 0.09847 0.41668 0.0
H185 H 1.00234 0.13651 0.4278 0.0
H186 H 0.06357 0.09943 0.54556 0.0
H187 H 0.04196 0.06203 0.53568 0.0
H188 H 0.04161 0.961 0.1532 0.0
H189 H 0.06432 0.92371 0.16685 0.0
H190 H 0.0787 0.92585 0.85607 0.0
H191 H 0.05542 0.96248 0.84291 0.0
C192 C 0.48084 0.99677 0.46911 0.0
Eu193 Eu 0.5026 1.00386 0.63238 0.0
C194 C 0.45876 0.9829 0.45268 0.0
C195 C 0.45777 0.9582 0.47284 0.0
C196 C 0.43578 0.94633 0.47706 0.0
C197 C 0.41453 0.95909 0.46295 0.0
C198 C 0.41562 0.98342 0.43792 0.0
C199 C 0.43752 0.99516 0.4321 0.0
C200 C 0.50814 0.96957 0.77561 0.0
C201 C 0.46473 0.01768 0.80914 0.0
C202 C 0.54374 0.03482 0.99834 0.0
Eu203 Eu 0.52196 0.02713 0.83531 0.0
C204 C 0.56616 0.04828 0.01444 0.0
C205 C 0.56571 0.07102 0.0581 0.0
C206 C 0.58646 0.08499 0.06221 0.0
C207 C 0.60801 0.0765 0.02237 0.0
C208 C 0.60845 0.05356 0.98064 0.0
C209 C 0.58786 0.03965 0.97676 0.0
C210 C 0.51645 0.06135 0.69149 0.0
C211 C 0.55978 1.0129 0.65882 0.0
O212 O 0.47794 1.0163 0.52092 0.0
O213 O 0.49995 0.98463 0.49441 0.0
O214 O 0.50145 0.96508 0.68671 0.0
O215 O 0.5116 0.99178 0.78102 0.0
O216 O 0.46828 1.01249 0.71533 0.0
O217 O 0.48261 0.02186 0.87092 0.0
O218 O 0.54573 1.01465 0.94995 0.0
O219 O 0.52531 0.04759 0.97026 0.0
O220 O 0.52315 0.06588 0.78027 0.0
O221 O 0.51298 0.03914 0.68657 0.0
O222 O 0.55624 0.01804 0.75271 0.0
O223 O 0.54191 1.00903 0.59678 0.0
H224 H 0.47382 0.9482 0.4894 0.0
H225 H 0.43532 0.92748 0.49508 0.0
H226 H 0.39943 0.99347 0.42412 0.0
H227 H 0.43775 1.01414 0.41627 0.0
H228 H 0.54921 0.07818 0.08724 0.0
H229 H 0.58557 0.10252 0.09549 0.0
H230 H 0.62487 0.04608 0.95211 0.0
H231 H 0.58898 0.02224 0.94266 0.0
C232 C 0.53513 0.48499 0.46954 0.0
Eu233 Eu 0.5252 0.50593 0.63286 0.0
C234 C 0.55091 0.46437 0.45546 0.0
C235 C 0.55421 0.45427 0.36294 0.0
C236 C 0.56744 0.43318 0.35311 0.0
C237 C 0.57743 0.42193 0.4359 0.0
C238 C 0.5749 0.4328 0.52778 0.0
C239 C 0.56174 0.45381 0.53742 0.0
C240 C 0.55823 0.51151 0.78086 0.0
C241 C 0.50875 0.46766 0.80493 0.0
C242 C 0.49184 0.54637 0.99599 0.0
Eu243 Eu 0.50017 0.52494 0.83254 0.0
C244 C 0.47912 0.56921 0.01301 0.0
C245 C 0.45448 0.56952 0.03361 0.0
C246 C 0.44195 0.59117 0.03656 0.0
C247 C 0.45383 0.61287 0.01844 0.0
C248 C 0.47857 0.61253 1.00111 0.0
C249 C 0.49106 0.59103 0.99878 0.0
C250 C 0.46724 0.52062 0.68356 0.0
C251 C 0.51573 0.56311 0.65978 0.0
O252 O 0.51571 0.48034 0.51989 0.0
O253 O 0.54582 0.50467 0.49783 0.0
O254 O 0.56347 0.5051 0.69246 0.0
O255 O 0.53597 0.5147 0.78329 0.0
O256 O 0.5151 0.4715 0.71248 0.0
O257 O 0.5041 0.48534 0.86698 0.0
O258 O 0.51235 0.54803 0.94977 0.0
O259 O 0.47877 0.5284 0.96511 0.0
O260 O 0.46218 0.52779 0.77127 0.0
O261 O 0.48932 0.51624 0.68152 0.0
O262 O 0.51033 0.55933 0.75322 0.0
O263 O 0.51971 0.54534 0.59726 0.0
H264 H 0.54592 0.46218 0.29906 0.0
H265 H 0.56874 0.42504 0.2815 0.0
H266 H 0.58246 0.42466 0.59269 0.0
H267 H 0.55934 0.46138 0.60961 0.0
H268 H 0.44476 0.55301 0.04516 0.0
H269 H 0.42294 0.59091 0.05122 0.0
H270 H 0.48842 0.62899 0.99015 0.0
H271 H 0.51004 0.59158 0.98359 0.0
C272 C 0.04247 0.54015 0.47553 0.0
Eu273 Eu 0.02176 0.52894 0.63821 0.0
C274 C 0.06309 0.55602 0.46271 0.0
C275 C 0.07305 0.56718 0.54509 0.0
C276 C 0.09414 0.58028 0.5371 0.0
C277 C 0.10583 0.58228 0.44659 0.0
C278 C 0.09521 0.57193 0.36321 0.0
C279 C 0.07398 0.55886 0.37132 0.0
C280 C 0.01644 0.56102 0.78993 0.0
C281 C 0.05984 0.5122 0.8086 0.0
C282 C 0.98209 0.49073 0.99498 0.0
Eu283 Eu 1.00267 0.50218 0.8321 0.0
C284 C 0.96158 0.47476 0.00904 0.0
C285 C 0.95173 0.4711 0.1019 0.0
C286 C 0.9306 0.45793 0.11206 0.0
C287 C 0.91904 0.44835 0.02927 0.0
C288 C 0.92972 0.45115 0.937 0.0
C289 C 0.95076 0.46428 0.92701 0.0
C290 C 1.00782 0.47012 0.67995 0.0
C291 C 0.96457 0.51934 0.66286 0.0
O292 O 0.04716 0.52033 0.52321 0.0
O293 O 0.02287 0.55062 0.50587 0.0
O294 O 0.02358 0.5666 0.70284 0.0
O295 O 1.0124 0.53883 0.79023 0.0
O296 O 0.05625 0.51849 0.71602 0.0
O297 O 0.04192 0.50744 0.86949 0.0
O298 O 0.9772 0.51047 0.94718 0.0
O299 O 1.00169 0.48035 0.96414 0.0
O300 O 1.00107 0.46452 0.76757 0.0
O301 O 1.0118 0.49232 0.67969 0.0
O302 O 0.96827 0.51291 0.75516 0.0
O303 O 0.98238 0.52406 0.60142 0.0
H304 H 0.065 0.56501 0.61654 0.0
H305 H 0.10174 0.58813 0.60244 0.0
H306 H 0.10396 0.57278 0.29262 0.0
H307 H 0.06658 0.55025 0.30718 0.0
H308 H 0.95983 0.47913 0.16585 0.0
H309 H 0.92264 0.45643 0.18403 0.0
H310 H 0.92137 0.44389 0.87205 0.0
H311 H 0.95811 0.46699 0.85455 0.0
H312 H 0.14851 0.05043 0.1882 0.0
H313 H 0.10598 1.0032 0.70741 0.0
H314 H 0.1865 0.99405 0.33826 0.0
H315 H 0.05516 0.02487 0.48814 0.0
H316 H 0.13787 1.00552 0.585 0.0
H317 H 0.11661 0.04735 0.30887 0.0
C318 C 0.15027 0.03723 0.24562 0.0
C319 C 0.17046 0.02215 0.25051 0.0
C320 C 0.11977 1.00993 0.56379 0.0
C321 C 0.1338 0.01937 0.39267 0.0
C322 C 0.1015 1.00869 0.63364 0.0
C323 C 0.0778 1.01441 0.60885 0.0
C324 C 0.11453 0.01735 0.46814 0.0
C325 C 0.07318 0.0211 0.5116 0.0
C326 C 0.13194 0.03565 0.31511 0.0
C327 C 0.17165 1.00625 0.33053 0.0
N328 N 0.09138 0.02265 0.44513 0.0
N329 N 0.1537 1.00536 0.39825 0.0
H330 H 0.50572 0.14469 0.15222 0.0
H331 H 0.51661 0.10923 0.71858 0.0
H332 H 0.49996 0.19579 0.38717 0.0
H333 H 0.50891 0.05665 0.49076 0.0
H334 H 0.51276 0.14094 0.59707 0.0
H335 H 0.50931 0.11261 0.27253 0.0
C336 C 0.50507 0.14928 0.22908 0.0
C337 C 0.50216 0.17325 0.25876 0.0
C338 C 0.51181 0.12253 0.57319 0.0
C339 C 0.50677 0.1361 0.39817 0.0
C340 C 0.514 0.10431 0.64271 0.0
C341 C 0.51298 0.08013 0.61515 0.0
C342 C 0.50877 0.11676 0.47412 0.0
C343 C 0.50963 0.07499 0.51554 0.0
C344 C 0.50724 0.13081 0.2979 0.0
C345 C 0.50226 0.17779 0.35996 0.0
N346 N 0.50775 0.09313 0.44863 0.0
N347 N 0.50445 0.15947 0.42558 0.0
H348 H 0.33978 0.53833 0.3261 0.0
H349 H 0.46945 0.4956 0.50783 0.0
H350 H 0.37402 0.47475 0.21522 0.0
H351 H 0.42336 0.54086 0.67894 0.0
H352 H 0.43713 0.49128 0.38622 0.0
H353 H 0.37214 0.54251 0.44526 0.0
C354 C 0.35386 0.5251 0.32681 0.0
C355 C 0.35392 0.50623 0.25879 0.0
C356 C 0.43418 0.50221 0.45037 0.0
C357 C 0.39174 0.51142 0.39458 0.0
C358 C 0.45269 0.50478 0.51939 0.0
C359 C 0.44914 0.51857 0.60383 0.0
C360 C 0.41212 0.51385 0.46513 0.0
C361 C 0.42691 0.52997 0.61518 0.0
C362 C 0.37253 0.52765 0.39466 0.0
C363 C 0.37321 0.48998 0.26367 0.0
N364 N 0.40939 0.52744 0.54691 0.0
N365 N 0.39128 0.49305 0.32937 0.0
H366 H 0.02397 0.39093 0.12962 0.0
H367 H 1.00104 0.42249 0.69453 0.0
H368 H 1.00268 0.3394 0.34814 0.0
H369 H 0.01932 0.47643 0.48174 0.0
H370 H 1.00301 0.39216 0.56778 0.0
H371 H 0.02354 0.42216 0.2547 0.0
C372 C 0.01908 0.38607 0.20365 0.0
C373 C 1.01316 0.36221 0.22722 0.0
C374 C 1.00666 0.41055 0.5481 0.0
C375 C 1.01303 0.39832 0.37239 0.0
C376 C 1.00557 0.42803 0.62083 0.0
C377 C 1.01004 0.4522 0.5993 0.0
C378 C 1.01228 0.417 0.45155 0.0
C379 C 1.0158 0.45806 0.502 0.0
C380 C 0.019 0.40403 0.27535 0.0
C381 C 1.00759 0.35728 0.3256 0.0
N382 N 0.01671 0.4406 0.43175 0.0
N383 N 1.00761 0.37508 0.39386 0.0
H384 H 0.82885 0.99863 0.05247 0.0
H385 H 0.96947 0.02271 0.96884 0.0
H386 H 0.87857 1.01383 0.2849 0.0
H387 H 0.922 1.00061 0.73792 0.0
H388 H 0.93591 0.02112 0.08422 0.0
H389 H 0.86189 1.00168 0.93409 0.0
C390 C 0.84661 1.00286 0.07859 0.0
C391 C 0.85086 1.00576 0.17922 0.0
C392 C 0.93279 0.01657 0.00835 0.0
C393 C 0.88892 1.00911 0.04401 0.0
C394 C 0.95201 0.01743 0.94245 0.0
C395 C 0.94862 1.01177 0.84342 0.0
C396 C 0.90984 1.01011 0.9753 0.0
C397 C 0.9255 1.00509 0.81356 0.0
C398 C 0.86553 1.00441 0.01104 0.0
C399 C 0.8744 1.01106 0.20845 0.0
N400 N 0.90706 1.00451 0.87889 0.0
N401 N 0.8924 1.01249 0.14165 0.0
H402 H 0.51866 0.88615 0.31461 0.0
H403 H 0.50784 0.92168 0.7482 0.0
H404 H 0.52346 0.83493 0.07973 0.0
H405 H 0.51559 0.97417 0.97637 0.0
H406 H 0.51151 0.88992 0.86962 0.0
H407 H 0.51532 0.91824 0.19428 0.0
C408 C 0.51915 0.88154 0.23776 0.0
C409 C 0.52171 0.85753 0.20811 0.0
C410 C 0.51252 0.90833 0.89358 0.0
C411 C 0.51739 0.8947 0.06866 0.0
C412 C 0.51043 0.92657 0.82412 0.0
C413 C 0.51152 0.95074 0.85182 0.0
C414 C 0.51551 0.91405 0.99272 0.0
C415 C 0.51483 0.95584 0.95147 0.0
C416 C 0.51713 0.90001 0.16892 0.0
C417 C 0.52143 0.85297 0.10691 0.0
N418 N 0.51661 0.93767 0.01831 0.0
N419 N 0.51939 0.8713 0.04127 0.0
H420 H 0.694 0.52823 0.08161 0.0
H421 H 0.55231 0.51844 0.98147 0.0
H422 H 0.6419 0.52239 0.31333 0.0
H423 H 0.60616 0.5125 0.75738 0.0
H424 H 0.58433 0.52242 0.10462 0.0
H425 H 0.66174 0.52416 0.96188 0.0
C426 C 0.67588 0.52592 0.10771 0.0
C427 C 0.67091 0.52588 0.20854 0.0
C428 C 0.58909 0.52031 0.02834 0.0
C429 C 0.63348 0.52159 0.07065 0.0
C430 C 0.57078 0.51819 0.95809 0.0
C431 C 0.5765 0.51523 0.85883 0.0
C432 C 0.61326 0.51963 0.99895 0.0
C433 C 0.60083 0.51475 0.83295 0.0
C434 C 0.65736 0.52377 0.03903 0.0
C435 C 0.64679 0.52309 0.23679 0.0
N436 N 0.61817 0.51695 0.90204 0.0
N437 N 0.6291 0.52118 0.16866 0.0
H438 H 0.03222 0.68883 0.14614 0.0
H439 H 0.98984 0.55889 0.96269 0.0
H440 H 0.96773 0.65509 0.25152 0.0
H441 H 0.03754 0.60437 0.79916 0.0
H442 H 0.98485 0.59133 0.08369 0.0
H443 H 0.03724 0.65599 0.02993 0.0
C444 C 0.01896 0.67475 0.14482 0.0
C445 C 0.99956 0.67503 0.21037 0.0
C446 C 0.99648 0.5941 0.02139 0.0
C447 C 1.0057 0.6366 0.07788 0.0
C448 C 0.99944 0.57552 0.95279 0.0
C449 C 1.0141 0.57888 0.8705 0.0
C450 C 1.00858 0.61603 0.00837 0.0
C451 C 0.02597 0.60095 0.86115 0.0
C452 C 0.02199 0.65579 0.07868 0.0
C453 C 0.98333 0.65569 0.20491 0.0
N454 N 0.02303 0.61852 0.92886 0.0
N455 N 0.98684 0.63734 0.1408 0.0
H456 H 0.04236 0.2611 0.385 0.0
H457 H 0.08117 0.13056 0.4415 0.0
H458 H 0.09925 0.22695 0.226 0.0
H459 H 0.0178 0.16323 0.56093 0.0
H460 H 0.09976 0.16992 0.43022 0.0
H461 H 0.04781 0.23263 0.51782 0.0
C462 C 0.05696 0.24845 0.38034 0.0
C463 C 0.06946 0.24534 0.2924 0.0
C464 C 0.08202 0.16844 0.46133 0.0
C465 C 0.07501 0.21225 0.44124 0.0
C466 C 0.07135 0.14597 0.46743 0.0
C467 C 0.04753 0.14383 0.49826 0.0
C468 C 0.06862 0.18887 0.48471 0.0
C469 C 0.03582 0.1643 0.53244 0.0
C470 C 0.05986 0.23193 0.45586 0.0
C471 C 0.08851 0.22911 0.29132 0.0
N472 N 0.04628 0.18605 0.52271 0.0
N473 N 0.09007 0.21238 0.36291 0.0
H474 H 0.27678 0.98025 0.39824 0.0
H475 H 0.39849 0.91887 0.37035 0.0
H476 H 0.29937 0.93152 0.1732 0.0
H477 H 0.37716 0.97297 0.5765 0.0
H478 H 0.3565 0.90785 0.34878 0.0
H479 H 0.30441 0.96115 0.51197 0.0
C480 C 0.28665 0.96467 0.3743 0.0
C481 C 0.28668 0.958 0.27566 0.0
C482 C 0.36102 0.9216 0.40127 0.0
C483 C 0.31904 0.93697 0.40286 0.0
C484 C 0.38499 0.92787 0.41349 0.0
C485 C 0.39099 0.94745 0.47215 0.0
C486 C 0.34317 0.93536 0.44687 0.0
C487 C 0.373 0.95832 0.52772 0.0
C488 C 0.30267 0.9539 0.4389 0.0
C489 C 0.29954 0.93759 0.24838 0.0
N490 N 0.34981 0.95254 0.51191 0.0
N491 N 0.31595 0.92831 0.31068 0.0
H492 H 0.54877 0.28283 0.37979 0.0
H493 H 0.60777 0.40416 0.29563 0.0
H494 H 0.5924 0.30002 0.13009 0.0
H495 H 0.56987 0.38391 0.55789 0.0
H496 H 0.61544 0.362 0.26237 0.0
H497 H 0.57038 0.31253 0.4754 0.0
C498 C 0.56384 0.29193 0.34666 0.0
C499 C 0.56829 0.28975 0.24628 0.0
C500 C 0.606 0.36676 0.3287 0.0
C501 C 0.59215 0.32456 0.35283 0.0
C502 C 0.6015 0.39086 0.34725 0.0
C503 C 0.58752 0.39751 0.42787 0.0
C504 C 0.59591 0.3492 0.38987 0.0
C505 C 0.58044 0.37961 0.49397 0.0
C506 C 0.57599 0.30922 0.4008 0.0
C507 C 0.58808 0.30178 0.20698 0.0
N508 N 0.58416 0.35625 0.47214 0.0
N509 N 0.5987 0.31943 0.25921 0.0
H510 H 0.22923 0.59682 0.14408 0.0
H511 H 0.14241 0.57591 0.57683 0.0
H512 H 0.24198 0.55045 0.38995 0.0
H513 H 0.12551 0.6109 0.30395 0.0
H514 H 0.18464 0.58311 0.54646 0.0
H515 H 0.19999 0.61888 0.24083 0.0
C516 C 0.22683 0.59217 0.22044 0.0
C517 C 0.23735 0.57144 0.25864 0.0
C518 C 0.17168 0.58985 0.49453 0.0
C519 C 0.20332 0.59569 0.36771 0.0
C520 C 0.14747 0.58581 0.5119 0.0
C521 C 0.13041 0.59214 0.44111 0.0
C522 C 0.17888 0.59995 0.40521 0.0
C523 C 0.13814 0.60494 0.3587 0.0
C524 C 0.2099 0.60455 0.27532 0.0
C525 C 0.2338 0.56611 0.35762 0.0
N526 N 0.16186 0.60794 0.34187 0.0
N527 N 0.21637 0.57763 0.40803 0.0
H528 H 0.09032 0.80002 0.31876 0.0
H529 H 0.06747 0.88492 0.8833 0.0
H530 H 0.04422 0.78558 0.07415 0.0
H531 H 0.10286 0.90304 0.15362 0.0
H532 H 0.07577 0.8429 0.91415 0.0
H533 H 0.11222 0.82893 0.21935 0.0
C534 C 0.08571 0.80197 0.2422 0.0
C535 C 0.06503 0.79115 0.20508 0.0
C536 C 0.08236 0.8561 0.96537 0.0
C537 C 0.08908 0.82481 0.09298 0.0
C538 C 0.07767 0.88018 0.94775 0.0
C539 C 0.08377 0.89748 0.01782 0.0
C540 C 0.09285 0.84926 0.05431 0.0
C541 C 0.09702 0.89019 0.09955 0.0
C542 C 0.098 0.81871 0.18574 0.0
C543 C 0.05979 0.79407 0.10573 0.0
N544 N 0.10063 0.86656 0.11675 0.0
N545 N 0.07118 0.81136 0.05378 0.0
H546 H 0.72741 0.09838 0.33215 0.0
H547 H 0.64382 0.08148 0.88632 0.0
H548 H 0.74307 0.05714 0.07455 0.0
H549 H 0.62395 0.10285 0.17836 0.0
H550 H 0.68512 0.09268 0.92154 0.0
H551 H 0.69763 0.12089 0.23982 0.0
C552 C 0.72556 0.09505 0.25446 0.0
C553 C 0.73687 0.07531 0.21153 0.0
C554 C 0.67156 0.09567 0.97671 0.0
C555 C 0.70245 0.1002 0.10708 0.0
C556 C 0.64802 0.08909 0.95707 0.0
C557 C 0.63064 0.09019 0.03115 0.0
C558 C 0.67771 0.10326 0.07117 0.0
C559 C 0.63684 0.10113 0.11978 0.0
C560 C 0.70835 0.1077 0.20201 0.0
C561 C 0.73415 0.07184 0.11076 0.0
N562 N 0.66002 0.10666 0.13826 0.0
N563 N 0.71647 0.08355 0.06247 0.0
H564 H 0.47376 0.75106 0.08751 0.0
H565 H 0.42053 0.62748 0.15304 0.0
H566 H 0.43039 0.72962 0.33247 0.0
H567 H 0.45829 0.65136 0.89571 0.0
H568 H 0.4093 0.66871 0.18708 0.0
H569 H 0.45298 0.72211 0.98536 0.0
C570 C 0.45892 0.74117 0.11848 0.0
C571 C 0.45441 0.74187 0.2192 0.0
C572 C 0.4195 0.66494 0.12156 0.0
C573 C 0.43153 0.70789 0.10491 0.0
C574 C 0.42588 0.64131 0.10201 0.0
C575 C 0.44124 0.63615 0.02382 0.0
C576 C 0.42902 0.68348 0.06373 0.0
C577 C 0.44731 0.65475 0.95941 0.0
C578 C 0.44723 0.72431 0.06046 0.0
C579 C 0.43484 0.72893 0.25542 0.0
N580 N 0.44176 0.67768 0.98226 0.0
N581 N 0.42474 0.71169 0.19933 0.0
H582 H 0.78022 0.47878 0.08849 0.0
H583 H 0.90098 0.41803 0.16962 0.0
H584 H 0.7974 0.43554 0.33932 0.0
H585 H 0.88098 0.4566 0.90871 0.0
H586 H 0.85876 0.41112 0.20457 0.0
H587 H 0.80965 0.45679 0.99281 0.0
C588 C 0.78926 0.46372 0.12192 0.0
C589 C 0.78713 0.45945 0.22248 0.0
C590 C 0.86358 0.42053 0.13816 0.0
C591 C 0.82163 0.43515 0.11578 0.0
C592 C 0.88772 0.4246 0.11862 0.0
C593 C 0.89449 0.43856 0.03792 0.0
C594 C 0.84612 0.43101 0.07783 0.0
C595 C 0.87661 0.44603 0.97264 0.0
C596 C 0.80639 0.45136 0.06772 0.0
C597 C 0.7991 0.4397 0.26223 0.0
N598 N 0.85325 0.4427 0.99539 0.0
N599 N 0.81658 0.42885 0.20984 0.0
H600 H 0.03363 0.22092 0.8722 0.0
H601 H 0.01871 0.0812 0.99715 0.0
H602 H 1.01453 0.19353 0.1563 0.0
H603 H 0.01957 0.10708 0.69987 0.0
H604 H 0.01901 0.12255 0.05499 0.0
H605 H 0.0291 0.18022 0.80452 0.0
C606 C 0.02786 0.20654 0.91977 0.0
C607 C 0.02435 0.21079 0.02015 0.0
C608 C 0.01915 0.11925 0.97696 0.0
C609 C 0.01996 0.16392 0.94407 0.0
C610 C 0.01912 0.09551 0.94376 0.0
C611 C 0.01925 0.09036 0.84314 0.0
C612 C 0.01956 0.13833 0.90955 0.0
C613 C 0.0196 0.10998 0.77804 0.0
C614 C 0.02555 0.18322 0.88141 0.0
C615 C 0.0174 0.19121 0.07853 0.0
N616 N 0.01987 0.13296 0.81217 0.0
N617 N 1.01573 0.16881 0.04018 0.0
H618 H 0.30985 1.00311 0.88623 0.0
H619 H 0.44887 0.02895 0.99449 0.0
H620 H 0.33765 0.02392 0.16699 0.0
H621 H 0.42266 1.00853 0.70977 0.0
H622 H 0.40778 0.02973 0.0548 0.0
H623 H 0.35003 1.00842 0.8153 0.0
C624 C 0.32422 1.00954 0.9322 0.0
C625 C 0.32028 1.0134 0.03243 0.0
C626 C 0.41095 0.02517 0.97896 0.0
C627 C 0.36655 0.01877 0.95274 0.0
C628 C 0.43453 0.02467 0.94432 0.0
C629 C 0.43951 0.0186 0.84662 0.0
C630 C 0.39188 0.01952 0.91596 0.0
C631 C 0.41989 1.0133 0.78566 0.0
C632 C 0.34725 1.01226 0.89207 0.0
C633 C 0.3398 0.02102 0.08918 0.0
N634 N 0.39708 1.0138 0.82128 0.0
N635 N 0.36196 0.02327 0.04895 0.0
H636 H 0.49475 0.33901 0.16169 0.0
H637 H 0.51902 0.42619 0.70432 0.0
H638 H 0.52092 0.31421 0.88387 0.0
H639 H 0.49451 0.45075 0.98614 0.0
H640 H 0.51668 0.38496 0.76352 0.0
H641 H 0.49035 0.37927 0.09288 0.0
C642 C 0.49873 0.34189 0.085 0.0
C643 C 0.50762 0.32304 0.02777 0.0
C644 C 0.51169 0.39934 0.81236 0.0
C645 C 0.50368 0.36955 0.94901 0.0
C646 C 0.51305 0.42301 0.77859 0.0
C647 C 0.50701 0.44226 0.84011 0.0
C648 C 0.50421 0.39458 0.90869 0.0
C649 C 0.49943 0.43669 0.93573 0.0
C650 C 0.49657 0.36499 0.04601 0.0
C651 C 0.5134 0.32804 0.92981 0.0
N652 N 0.49832 0.41351 0.96687 0.0
N653 N 0.51152 0.35077 0.89384 0.0
H654 H 0.21481 0.52437 0.88449 0.0
H655 H 0.07568 0.49862 0.99158 0.0
H656 H 0.18727 0.50137 0.16315 0.0
H657 H 0.10196 0.52215 0.71063 0.0
H658 H 0.11681 0.4967 0.0511 0.0
H659 H 0.17456 0.51988 0.81396 0.0
C660 C 0.20048 0.51754 0.9299 0.0
C661 C 0.20455 0.51276 0.0294 0.0
C662 C 0.11364 0.50219 0.97624 0.0
C663 C 0.15812 0.50846 0.95036 0.0
C664 C 0.09003 0.50335 0.94206 0.0
C665 C 0.08506 0.51061 0.84563 0.0
C666 C 0.13274 0.50837 0.91404 0.0
C667 C 0.10471 0.51644 0.78548 0.0
C668 C 0.1774 0.51532 0.89007 0.0
C669 C 0.18505 0.50481 0.0857 0.0
N670 N 0.12753 0.51527 0.82062 0.0
N671 N 0.1628 0.50309 0.04582 0.0
H672 H 1.0152 0.8153 0.57716 0.0
H673 H 0.996 0.95527 0.46171 0.0
H674 H 0.99732 0.84321 0.29299 0.0
H675 H 1.01343 0.92843 0.74895 0.0
H676 H 0.99367 0.91409 0.40216 0.0
H677 H 1.01094 0.85579 0.64575 0.0
C678 C 1.00955 0.82977 0.5299 0.0
C679 C 1.00618 0.82571 0.42946 0.0
C680 C 0.99789 0.91715 0.4784 0.0
C681 C 1.00214 0.87243 0.50657 0.0
C682 C 0.99927 0.94078 0.51259 0.0
C683 C 1.00495 0.94561 0.61082 0.0
C684 C 1.00228 0.89789 0.54242 0.0
C685 C 1.00897 0.9258 0.67268 0.0
C686 C 1.00746 0.853 0.56872 0.0
C687 C 0.9997 0.84541 0.37107 0.0
N688 N 1.00764 0.90298 0.63755 0.0
N689 N 0.99808 0.86777 0.41007 0.0
H690 H 0.68623 1.0018 0.28954 0.0
H691 H 0.60178 0.02205 0.75794 0.0
H692 H 0.71279 0.02526 0.56859 0.0
H693 H 0.57569 1.00061 0.47435 0.0
H694 H 0.64268 0.02018 0.69498 0.0
H695 H 0.64635 0.99709 0.3613 0.0
C696 C 0.6838 1.00514 0.36696 0.0
C697 C 0.70301 1.01334 0.42375 0.0
C698 C 0.62803 1.01578 0.64658 0.0
C699 C 0.65699 1.00902 0.5061 0.0
C700 C 0.60455 0.01686 0.68252 0.0
C701 C 0.58498 1.01155 0.62162 0.0
C702 C 0.63222 1.00929 0.5487 0.0
C703 C 0.59001 1.00497 0.52438 0.0
C704 C 0.66093 1.00279 0.40771 0.0
C705 C 0.69864 0.0183 0.52287 0.0
N706 N 0.61299 1.00408 0.49119 0.0
N707 N 0.67612 1.01624 0.56065 0.0
H708 H 0.52622 0.69163 0.30051 0.0
H709 H 0.50699 0.60463 0.76242 0.0
H710 H 0.50338 0.71666 0.5829 0.0
H711 H 0.52771 0.57994 0.47574 0.0
H712 H 0.50875 0.64584 0.70276 0.0
H713 H 0.53107 0.65136 0.36849 0.0
C714 C 0.52303 0.68878 0.37785 0.0
C715 C 0.51494 0.7077 0.43663 0.0
C716 C 0.51302 0.63144 0.65292 0.0
C717 C 0.51945 0.66119 0.5147 0.0
C718 C 0.51199 0.60777 0.68693 0.0
C719 C 0.51713 0.58849 0.62419 0.0
C720 C 0.51928 0.63615 0.55512 0.0
C721 C 0.52351 0.59402 0.52711 0.0
C722 C 0.52547 0.66568 0.41644 0.0
C723 C 0.51023 0.70277 0.53559 0.0
N724 N 0.52433 0.6172 0.49579 0.0
N725 N 0.51236 0.68002 0.57125 0.0
H726 H 0.83636 0.53301 0.30525 0.0
H727 H 0.92303 0.50918 0.76327 0.0
H728 H 0.8113 0.50749 0.58409 0.0
H729 H 0.94791 0.53348 0.48124 0.0
H730 H 0.8819 0.51159 0.70393 0.0
H731 H 0.87656 0.53749 0.37394 0.0
C732 C 0.83917 0.52919 0.38211 0.0
C733 C 0.82028 0.52045 0.43967 0.0
C734 C 0.89632 0.51651 0.65506 0.0
C735 C 0.8667 0.52448 0.51829 0.0
C736 C 0.91995 0.51512 0.6889 0.0
C737 C 0.93925 0.52109 0.62737 0.0
C738 C 0.89168 0.52394 0.55862 0.0
C739 C 0.9338 0.52862 0.53163 0.0
C740 C 0.86223 0.5314 0.42103 0.0
C741 C 0.82517 0.51488 0.53786 0.0
N742 N 0.91066 0.52976 0.50039 0.0
N743 N 0.84787 0.5168 0.57377 0.0
loop_
_geom_bond_atom_site_label_1
_geom_bond_atom_site_label_2
_geom_bond_distance
_geom_bond_site_symmetry_2
_ccdc_geom_bond_type
H0 C1 0.949 . S
C1 H0 0.949 . S
C1 C2 1.395 . S
C1 C3 1.391 . S
C2 C1 1.395 . S
C2 C5 1.390 . S
C3 C1 1.391 . S
C3 C7 1.387 . S
C3 C8 1.491 . S
H4 C5 0.950 . S
C5 C2 1.390 . S
C5 H4 0.950 . S
C5 C6 1.378 . S
C6 C5 1.378 . S
C6 C7 1.409 . S
C7 C3 1.387 . S
C7 C6 1.409 . S
C7 H9 0.951 . S
C8 C3 1.491 . S
C8 C10 1.382 . S
C8 C12 1.404 . S
H9 C7 0.951 . S
C10 C8 1.382 . S
C10 C11 1.390 . S
C10 H15 0.949 . S
C11 C10 1.390 . S
C11 C16 1.399 . S
C12 C8 1.404 . S
C12 H13 0.950 . S
C12 C14 1.375 . S
H13 C12 0.950 . S
C14 C12 1.375 . S
C14 C16 1.382 . S
C14 H18 0.950 . S
H15 C10 0.949 . S
C16 C11 1.399 . S
C16 C14 1.382 . S
C16 H17 0.952 . S
H17 C16 0.952 . S
H18 C14 0.950 . S
H19 C20 0.949 . S
C20 H19 0.949 . S
C20 C21 1.395 . S
C20 C22 1.391 . S
C21 C20 1.395 . S
C21 C24 1.390 1_655 S
C22 C20 1.391 . S
C22 C26 1.387 . S
C22 C27 1.491 . S
H23 C24 0.950 . S
C24 C21 1.390 1_455 S
C24 H23 0.950 . S
C24 C25 1.377 1_455 S
C25 C24 1.377 1_655 S
C25 C26 1.413 . S
C26 C22 1.387 . S
C26 C25 1.413 . S
C26 H28 0.951 . S
C27 C22 1.491 . S
C27 C29 1.382 . S
C27 C31 1.404 . S
H28 C26 0.951 . S
C29 C27 1.382 . S
C29 C30 1.390 . S
C29 H34 0.949 1_655 S
C30 C29 1.390 . S
C30 C35 1.399 . S
C31 C27 1.404 . S
C31 H32 0.950 . S
C31 C33 1.375 . S
H32 C31 0.950 . S
C33 C31 1.375 . S
C33 C35 1.382 . S
C33 H37 0.950 . S
H34 C29 0.949 1_455 S
C35 C30 1.399 . S
C35 C33 1.382 . S
C35 H36 0.952 . S
H36 C35 0.952 . S
H37 C33 0.950 . S
H38 C39 0.949 . S
C39 H38 0.949 . S
C39 C40 1.395 . S
C39 C41 1.391 . S
C40 C39 1.395 . S
C40 C43 1.390 1_565 S
C41 C39 1.391 . S
C41 C45 1.387 . S
C41 C46 1.491 . S
H42 C43 0.950 . S
C43 C40 1.390 1_545 S
C43 H42 0.950 . S
C43 C44 1.377 1_545 S
C44 C43 1.377 1_565 S
C44 C45 1.413 . S
C45 C41 1.387 . S
C45 C44 1.413 . S
C45 H47 0.951 . S
C46 C41 1.491 . S
C46 C48 1.382 . S
C46 C50 1.404 . S
H47 C45 0.951 . S
C48 C46 1.382 . S
C48 C49 1.390 . S
C48 H53 0.949 1_565 S
C49 C48 1.390 . S
C49 C54 1.399 . S
C50 C46 1.404 . S
C50 H51 0.950 . S
C50 C52 1.375 . S
H51 C50 0.950 . S
C52 C50 1.375 . S
C52 C54 1.382 . S
C52 H56 0.950 . S
H53 C48 0.949 1_545 S
C54 C49 1.399 . S
C54 C52 1.382 . S
C54 H55 0.952 . S
H55 C54 0.952 . S
H56 C52 0.950 . S
H57 C58 0.949 . S
C58 H57 0.949 . S
C58 C59 1.395 . S
C58 C60 1.391 . S
C59 C58 1.395 . S
C59 C62 1.390 . S
C60 C58 1.391 . S
C60 C64 1.387 . S
C60 C65 1.491 . S
H61 C62 0.950 . S
C62 C59 1.390 . S
C62 H61 0.950 . S
C62 C63 1.378 . S
C63 C62 1.378 . S
C63 C64 1.409 . S
C64 C60 1.387 . S
C64 C63 1.409 . S
C64 H66 0.951 . S
C65 C60 1.491 . S
C65 C67 1.382 . S
C65 C69 1.404 . S
H66 C64 0.951 . S
C67 C65 1.382 . S
C67 C68 1.390 . S
C67 H72 0.949 . S
C68 C67 1.390 . S
C68 C73 1.399 . S
C69 C65 1.404 . S
C69 H70 0.950 . S
C69 C71 1.375 . S
H70 C69 0.950 . S
C71 C69 1.375 . S
C71 C73 1.382 . S
C71 H75 0.950 . S
H72 C67 0.949 . S
C73 C68 1.399 . S
C73 C71 1.382 . S
C73 H74 0.952 . S
H74 C73 0.952 . S
H75 C71 0.950 . S
H76 C77 0.949 . S
C77 H76 0.949 . S
C77 C78 1.395 . S
C77 C79 1.391 . S
C78 C77 1.395 . S
C78 C81 1.390 . S
C79 C77 1.391 . S
C79 C83 1.387 1_554 S
C79 C84 1.491 . S
H80 C81 0.950 . S
C81 C78 1.390 . S
C81 H80 0.950 . S
C81 C82 1.378 1_554 S
C82 C81 1.378 1_556 S
C82 C83 1.409 . S
C83 C79 1.387 1_556 S
C83 C82 1.409 . S
C83 H85 0.951 . S
C84 C79 1.491 . S
C84 C86 1.382 . S
C84 C88 1.404 1_554 S
H85 C83 0.951 . S
C86 C84 1.382 . S
C86 C87 1.390 . S
C86 H91 0.949 . S
C87 C86 1.390 . S
C87 C92 1.399 . S
C88 C84 1.404 1_556 S
C88 H89 0.950 . S
C88 C90 1.375 . S
H89 C88 0.950 . S
C90 C88 1.375 . S
C90 C92 1.382 1_556 S
C90 H94 0.950 . S
H91 C86 0.949 . S
C92 C87 1.399 . S
C92 C90 1.382 1_554 S
C92 H93 0.952 . S
H93 C92 0.952 . S
H94 C90 0.950 . S
H95 C96 0.949 . S
C96 H95 0.949 . S
C96 C97 1.394 . S
C96 C98 1.391 . S
C97 C96 1.394 . S
C97 C100 1.391 1_655 S
C98 C96 1.391 . S
C98 C102 1.387 1_554 S
C98 C103 1.491 . S
H99 C100 0.950 . S
C100 C97 1.391 1_455 S
C100 H99 0.950 . S
C100 C101 1.377 1_454 S
C101 C100 1.377 1_656 S
C101 C102 1.411 . S
C102 C98 1.387 1_556 S
C102 C101 1.411 . S
C102 H104 0.951 . S
C103 C98 1.491 . S
C103 C105 1.402 . S
C103 C107 1.404 1_554 S
H104 C102 0.951 . S
C105 C103 1.402 . S
C105 C106 1.400 . S
C105 H110 0.920 1_655 S
C106 C105 1.400 . S
C106 C111 1.399 . S
C107 C103 1.404 1_556 S
C107 H108 0.950 . S
C107 C109 1.375 . S
H108 C107 0.950 . S
C109 C107 1.375 . S
C109 C111 1.382 1_556 S
C109 H113 0.950 . S
H110 C105 0.920 1_455 S
C111 C106 1.399 . S
C111 C109 1.382 1_554 S
C111 H112 0.952 . S
H112 C111 0.952 . S
H113 C109 0.950 . S
H114 C115 0.949 . S
C115 H114 0.949 . S
C115 C116 1.395 1_565 S
C115 C117 1.391 . S
C116 C115 1.395 1_545 S
C116 C119 1.390 . S
C117 C115 1.391 . S
C117 C121 1.387 1_554 S
C117 C122 1.491 . S
H118 C119 0.950 . S
C119 C116 1.390 . S
C119 H118 0.950 . S
C119 C120 1.377 1_544 S
C120 C119 1.377 1_566 S
C120 C121 1.411 . S
C121 C117 1.387 1_556 S
C121 C120 1.411 . S
C121 H123 0.951 . S
C122 C117 1.491 . S
C122 C124 1.402 . S
C122 C126 1.404 1_554 S
H123 C121 0.951 . S
C124 C122 1.402 . S
C124 C125 1.400 . S
C124 H129 0.920 1_565 S
C125 C124 1.400 . S
C125 C130 1.399 . S
C126 C122 1.404 1_556 S
C126 H127 0.950 . S
C126 C128 1.375 . S
H127 C126 0.950 . S
C128 C126 1.375 . S
C128 C130 1.382 1_556 S
C128 H132 0.950 . S
H129 C124 0.920 1_545 S
C130 C125 1.399 . S
C130 C128 1.382 1_554 S
C130 H131 0.952 . S
H131 C130 0.952 . S
H132 C128 0.950 . S
H133 C134 0.949 . S
C134 H133 0.949 . S
C134 C135 1.395 . S
C134 C136 1.391 . S
C135 C134 1.395 . S
C135 C138 1.389 1_554 S
C136 C134 1.391 . S
C136 C140 1.387 1_554 S
C136 C141 1.491 . S
H137 C138 0.950 . S
C138 C135 1.389 1_556 S
C138 H137 0.950 . S
C138 C139 1.380 . S
C139 C138 1.380 . S
C139 C140 1.409 . S
C140 C136 1.387 1_556 S
C140 C139 1.409 . S
C140 H142 0.951 . S
C141 C136 1.491 . S
C141 C143 1.382 . S
C141 C145 1.404 1_554 S
H142 C140 0.951 . S
C143 C141 1.382 . S
C143 C144 1.390 . S
C143 H148 0.949 . S
C144 C143 1.390 . S
C144 C149 1.399 . S
C145 C141 1.404 1_556 S
C145 H146 0.950 . S
C145 C147 1.375 . S
H146 C145 0.950 . S
C147 C145 1.375 . S
C147 C149 1.382 1_556 S
C147 H151 0.950 . S
H148 C143 0.949 . S
C149 C144 1.399 . S
C149 C147 1.382 1_554 S
C149 H150 0.952 . S
H150 C149 0.952 . S
H151 C147 0.950 . S
C152 Eu153 2.835 . S
C152 C154 1.500 . S
C152 O172 1.255 1_655 S
C152 O173 1.260 . S
Eu153 C152 2.835 . S
Eu153 O172 2.472 1_655 S
Eu153 O173 2.480 . S
Eu153 O174 2.430 . S
Eu153 O175 2.670 1_545 S
Eu153 O176 2.394 . S
Eu153 O181 2.355 1_655 S
Eu153 O183 2.374 1_545 S
C154 C152 1.500 . S
C154 C155 1.377 . S
C154 C159 1.406 . S
C155 C154 1.377 . S
C155 C156 1.395 . S
C155 H184 0.931 . S
C156 C155 1.395 . S
C156 C157 1.383 . S
C156 H185 0.931 . S
C157 C156 1.383 . S
C157 C158 1.394 . S
C158 C157 1.394 . S
C158 C159 1.380 . S
C158 H186 0.931 1_655 S
C159 C154 1.406 . S
C159 C158 1.380 . S
C159 H187 0.900 1_655 S
C160 O174 1.259 . S
C160 O175 1.270 1_545 S
C161 O176 1.251 1_455 S
C161 O177 1.251 . S
C162 Eu163 2.835 . S
C162 C164 1.500 . S
C162 O178 1.255 . S
C162 O179 1.260 . S
Eu163 C162 2.835 . S
Eu163 O175 2.355 1_455 S
Eu163 O177 2.374 1_565 S
Eu163 O178 2.472 . S
Eu163 O179 2.480 . S
Eu163 O180 2.430 . S
Eu163 O181 2.670 1_565 S
Eu163 O182 2.394 . S
C164 C162 1.500 . S
C164 C165 1.377 . S
C164 C169 1.415 1_556 S
C165 C164 1.377 . S
C165 C166 1.395 1_556 S
C165 H188 0.931 . S
C166 C165 1.395 1_554 S
C166 C167 1.383 . S
C166 H189 0.931 . S
C167 C166 1.383 . S
C167 C168 1.394 . S
C168 C167 1.394 . S
C168 C169 1.381 . S
C168 H190 0.931 1_455 S
C169 C164 1.415 1_554 S
C169 C168 1.381 . S
C169 H191 0.890 1_455 S
C170 O180 1.279 . S
C170 O181 1.256 1_565 S
C171 O182 1.251 1_655 S
C171 O183 1.251 . S
O172 C152 1.255 1_455 S
O172 Eu153 2.472 1_455 S
O173 C152 1.260 . S
O173 Eu153 2.480 . S
O174 Eu153 2.430 . S
O174 C160 1.259 . S
O175 Eu153 2.670 1_565 S
O175 C160 1.270 1_565 S
O175 Eu163 2.355 1_655 S
O176 Eu153 2.394 . S
O176 C161 1.251 1_655 S
O177 C161 1.251 . S
O177 Eu163 2.374 1_545 S
O178 C162 1.255 . S
O178 Eu163 2.472 . S
O179 C162 1.260 . S
O179 Eu163 2.480 . S
O180 Eu163 2.430 . S
O180 C170 1.279 . S
O181 Eu153 2.355 1_455 S
O181 Eu163 2.670 1_545 S
O181 C170 1.256 1_545 S
O182 Eu163 2.394 . S
O182 C171 1.251 1_455 S
O183 Eu153 2.374 1_565 S
O183 C171 1.251 . S
H184 C155 0.931 . S
H185 C156 0.931 . S
H186 C158 0.931 1_455 S
H187 C159 0.900 1_455 S
H188 C165 0.931 . S
H189 C166 0.931 . S
H190 C168 0.931 1_655 S
H191 C169 0.890 1_655 S
C192 Eu193 2.835 . S
C192 C194 1.500 . S
C192 O212 1.247 1_565 S
C192 O213 1.260 . S
Eu193 C192 2.835 . S
Eu193 O212 2.468 1_565 S
Eu193 O213 2.480 . S
Eu193 O214 2.430 . S
Eu193 O215 2.670 . S
Eu193 O216 2.394 . S
Eu193 O221 2.355 1_565 S
Eu193 O223 2.374 . S
C194 C192 1.500 . S
C194 C195 1.377 . S
C194 C199 1.390 . S
C195 C194 1.377 . S
C195 C196 1.395 . S
C195 H224 0.931 . S
C196 C195 1.395 . S
C196 C197 1.383 . S
C196 H225 0.931 . S
C197 C196 1.383 . S
C197 C198 1.394 . S
C198 C197 1.394 . S
C198 C199 1.379 . S
C198 H226 0.931 1_565 S
C199 C194 1.390 . S
C199 C198 1.379 . S
C199 H227 0.917 1_565 S
C200 O214 1.259 . S
C200 O215 1.270 . S
C201 O216 1.251 1_545 S
C201 O217 1.251 . S
C202 Eu203 2.835 . S
C202 C204 1.500 . S
C202 O218 1.257 1_545 S
C202 O219 1.260 . S
Eu203 C202 2.835 . S
Eu203 O215 2.355 1_545 S
Eu203 O217 2.374 . S
Eu203 O218 2.473 1_545 S
Eu203 O219 2.480 . S
Eu203 O220 2.430 . S
Eu203 O221 2.670 . S
Eu203 O222 2.394 . S
C204 C202 1.500 . S
C204 C205 1.377 . S
C204 C209 1.399 1_556 S
C205 C204 1.377 . S
C205 C206 1.395 1_556 S
C205 H228 0.931 . S
C206 C205 1.395 1_554 S
C206 C207 1.383 . S
C206 H229 0.931 . S
C207 C206 1.383 . S
C207 C208 1.394 . S
C208 C207 1.394 . S
C208 C209 1.380 . S
C208 H230 0.931 1_545 S
C209 C204 1.399 1_554 S
C209 C208 1.380 . S
C209 H231 0.907 1_545 S
C210 O220 1.259 . S
C210 O221 1.270 . S
C211 O222 1.251 1_565 S
C211 O223 1.251 . S
O212 C192 1.247 1_545 S
O212 Eu193 2.468 1_545 S
O213 C192 1.260 . S
O213 Eu193 2.480 . S
O214 Eu193 2.430 . S
O214 C200 1.259 . S
O215 Eu193 2.670 . S
O215 C200 1.270 . S
O215 Eu203 2.355 1_565 S
O216 Eu193 2.394 . S
O216 C201 1.251 1_565 S
O217 C201 1.251 . S
O217 Eu203 2.374 . S
O218 C202 1.257 1_565 S
O218 Eu203 2.473 1_565 S
O219 C202 1.260 . S
O219 Eu203 2.480 . S
O220 Eu203 2.430 . S
O220 C210 1.259 . S
O221 Eu193 2.355 1_545 S
O221 Eu203 2.670 . S
O221 C210 1.270 . S
O222 Eu203 2.394 . S
O222 C211 1.251 1_545 S
O223 Eu193 2.374 . S
O223 C211 1.251 . S
H224 C195 0.931 . S
H225 C196 0.931 . S
H226 C198 0.931 1_545 S
H227 C199 0.917 1_545 S
H228 C205 0.931 . S
H229 C206 0.931 . S
H230 C208 0.931 1_565 S
H231 C209 0.907 1_565 S
C232 Eu233 2.835 . S
C232 C234 1.500 . S
C232 O252 1.257 . S
C232 O253 1.260 . S
Eu233 C232 2.835 . S
Eu233 O252 2.473 . S
Eu233 O253 2.480 . S
Eu233 O254 2.430 . S
Eu233 O255 2.670 . S
Eu233 O256 2.394 . S
Eu233 O261 2.355 . S
Eu233 O263 2.374 . S
C234 C232 1.500 . S
C234 C235 1.377 . S
C234 C239 1.377 . S
C235 C234 1.377 . S
C235 C236 1.395 . S
C235 H264 0.931 . S
C236 C235 1.395 . S
C236 C237 1.383 . S
C236 H265 0.931 . S
C237 C236 1.383 . S
C237 C238 1.394 . S
C238 C237 1.394 . S
C238 C239 1.378 . S
C238 H266 0.931 . S
C239 C234 1.377 . S
C239 C238 1.378 . S
C239 H267 0.931 . S
C240 O254 1.259 . S
C240 O255 1.270 . S
C241 O256 1.251 . S
C241 O257 1.251 . S
C242 Eu243 2.835 . S
C242 C244 1.500 . S
C242 O258 1.257 . S
C242 O259 1.260 . S
Eu243 C242 2.835 . S
Eu243 O255 2.355 . S
Eu243 O257 2.374 . S
Eu243 O258 2.473 . S
Eu243 O259 2.480 . S
Eu243 O260 2.430 . S
Eu243 O261 2.670 . S
Eu243 O262 2.394 . S
C244 C242 1.500 . S
C244 C245 1.376 1_556 S
C244 C249 1.377 1_556 S
C245 C244 1.376 1_554 S
C245 C246 1.396 . S
C245 H268 0.930 1_554 S
C246 C245 1.396 . S
C246 C247 1.383 . S
C246 H269 0.931 . S
C247 C246 1.383 . S
C247 C248 1.394 . S
C248 C247 1.394 . S
C248 C249 1.378 . S
C248 H270 0.931 . S
C249 C244 1.377 1_554 S
C249 C248 1.378 . S
C249 H271 0.931 . S
C250 O260 1.259 . S
C250 O261 1.270 . S
C251 O262 1.251 . S
C251 O263 1.251 . S
O252 C232 1.257 . S
O252 Eu233 2.473 . S
O253 C232 1.260 . S
O253 Eu233 2.480 . S
O254 Eu233 2.430 . S
O254 C240 1.259 . S
O255 Eu233 2.670 . S
O255 C240 1.270 . S
O255 Eu243 2.355 . S
O256 Eu233 2.394 . S
O256 C241 1.251 . S
O257 C241 1.251 . S
O257 Eu243 2.374 . S
O258 C242 1.257 . S
O258 Eu243 2.473 . S
O259 C242 1.260 . S
O259 Eu243 2.480 . S
O260 Eu243 2.430 . S
O260 C250 1.259 . S
O261 Eu233 2.355 . S
O261 Eu243 2.670 . S
O261 C250 1.270 . S
O262 Eu243 2.394 . S
O262 C251 1.251 . S
O263 Eu233 2.374 . S
O263 C251 1.251 . S
H264 C235 0.931 . S
H265 C236 0.931 . S
H266 C238 0.931 . S
H267 C239 0.931 . S
H268 C245 0.930 1_556 S
H269 C246 0.931 . S
H270 C248 0.931 . S
H271 C249 0.931 . S
C272 Eu273 2.835 . S
C272 C274 1.500 . S
C272 O292 1.257 . S
C272 O293 1.260 . S
Eu273 C272 2.835 . S
Eu273 O292 2.473 . S
Eu273 O293 2.480 . S
Eu273 O294 2.430 . S
Eu273 O295 2.670 1_455 S
Eu273 O296 2.394 . S
Eu273 O301 2.355 . S
Eu273 O303 2.374 1_455 S
C274 C272 1.500 . S
C274 C275 1.377 . S
C274 C279 1.377 . S
C275 C274 1.377 . S
C275 C276 1.395 . S
C275 H304 0.931 . S
C276 C275 1.395 . S
C276 C277 1.383 . S
C276 H305 0.931 . S
C277 C276 1.383 . S
C277 C278 1.394 . S
C278 C277 1.394 . S
C278 C279 1.378 . S
C278 H306 0.931 . S
C279 C274 1.377 . S
C279 C278 1.378 . S
C279 H307 0.931 . S
C280 O294 1.274 . S
C280 O295 1.259 1_455 S
C281 O296 1.251 . S
C281 O297 1.251 . S
C282 Eu283 2.835 . S
C282 C284 1.500 . S
C282 O298 1.257 . S
C282 O299 1.260 . S
Eu283 C282 2.835 . S
Eu283 O295 2.355 . S
Eu283 O297 2.374 1_655 S
Eu283 O298 2.473 . S
Eu283 O299 2.480 . S
Eu283 O300 2.430 . S
Eu283 O301 2.670 1_655 S
Eu283 O302 2.394 . S
C284 C282 1.500 . S
C284 C285 1.377 1_556 S
C284 C289 1.377 1_556 S
C285 C284 1.377 1_554 S
C285 C286 1.395 . S
C285 H308 0.931 1_554 S
C286 C285 1.395 . S
C286 C287 1.383 . S
C286 H309 0.931 . S
C287 C286 1.383 . S
C287 C288 1.394 . S
C288 C287 1.394 . S
C288 C289 1.378 . S
C288 H310 0.931 . S
C289 C284 1.377 1_554 S
C289 C288 1.378 . S
C289 H311 0.931 . S
C290 O300 1.268 . S
C290 O301 1.263 1_655 S
C291 O302 1.251 . S
C291 O303 1.251 . S
O292 C272 1.257 . S
O292 Eu273 2.473 . S
O293 C272 1.260 . S
O293 Eu273 2.480 . S
O294 Eu273 2.430 . S
O294 C280 1.274 . S
O295 Eu273 2.670 1_655 S
O295 C280 1.259 1_655 S
O295 Eu283 2.355 . S
O296 Eu273 2.394 . S
O296 C281 1.251 . S
O297 C281 1.251 . S
O297 Eu283 2.374 1_455 S
O298 C282 1.257 . S
O298 Eu283 2.473 . S
O299 C282 1.260 . S
O299 Eu283 2.480 . S
O300 Eu283 2.430 . S
O300 C290 1.268 . S
O301 Eu273 2.355 . S
O301 Eu283 2.670 1_455 S
O301 C290 1.263 1_455 S
O302 Eu283 2.394 . S
O302 C291 1.251 . S
O303 Eu273 2.374 1_655 S
O303 C291 1.251 . S
H304 C275 0.931 . S
H305 C276 0.931 . S
H306 C278 0.931 . S
H307 C279 0.931 . S
H308 C285 0.931 1_556 S
H309 C286 0.931 . S
H310 C288 0.931 . S
H311 C289 0.931 . S
H312 C318 0.930 . S
H313 C322 0.930 . S
H314 C327 0.929 . S
H315 C325 0.929 . S
H316 C320 0.929 . S
H317 C326 0.929 . S
C318 H312 0.930 . S
C318 C319 1.366 . S
C318 C326 1.378 . S
C319 C318 1.366 . S
C319 C327 1.434 1_565 S
C320 H316 0.929 . S
C320 C322 1.378 . S
C320 C324 1.362 . S
C321 C324 1.462 1_565 S
C321 C326 1.349 . S
C321 N329 1.428 1_565 S
C322 H313 0.930 . S
C322 C320 1.378 . S
C322 C323 1.379 . S
C323 C322 1.379 . S
C323 C325 1.422 1_545 S
C324 C320 1.362 . S
C324 C321 1.462 1_545 S
C324 N328 1.416 1_545 S
C325 H315 0.929 . S
C325 C323 1.422 1_565 S
C325 N328 1.384 . S
C326 H317 0.929 . S
C326 C318 1.378 . S
C326 C321 1.349 . S
C327 H314 0.929 . S
C327 C319 1.434 1_545 S
C327 N329 1.384 . S
N328 C324 1.416 1_565 S
N328 C325 1.384 . S
N329 C321 1.428 1_545 S
N329 C327 1.384 . S
H330 C336 0.930 . S
H331 C340 0.930 . S
H332 C345 0.929 . S
H333 C343 0.929 . S
H334 C338 0.929 . S
H335 C344 0.929 . S
C336 H330 0.930 . S
C336 C337 1.367 . S
C336 C344 1.378 . S
C337 C336 1.367 . S
C337 C345 1.433 . S
C338 H334 0.929 . S
C338 C340 1.378 . S
C338 C342 1.350 . S
C339 C342 1.463 . S
C339 C344 1.350 . S
C339 N347 1.427 . S
C340 H331 0.930 . S
C340 C338 1.378 . S
C340 C341 1.367 . S
C341 C340 1.367 . S
C341 C343 1.433 . S
C342 C338 1.350 . S
C342 C339 1.463 . S
C342 N346 1.427 . S
C343 H333 0.929 . S
C343 C341 1.433 . S
C343 N346 1.384 . S
C344 H335 0.929 . S
C344 C336 1.378 . S
C344 C339 1.350 . S
C345 H332 0.929 . S
C345 C337 1.433 . S
C345 N347 1.384 . S
N346 C342 1.427 . S
N346 C343 1.384 . S
N347 C339 1.427 . S
N347 C345 1.384 . S
H348 C354 0.930 . S
H349 C358 0.930 . S
H350 C363 0.929 . S
H351 C361 0.929 . S
H352 C356 0.929 . S
H353 C362 0.929 . S
C354 H348 0.930 . S
C354 C355 1.367 . S
C354 C362 1.378 . S
C355 C354 1.367 . S
C355 C363 1.433 . S
C356 H352 0.929 . S
C356 C358 1.378 . S
C356 C360 1.350 . S
C357 C360 1.463 . S
C357 C362 1.350 . S
C357 N365 1.427 . S
C358 H349 0.930 . S
C358 C356 1.378 . S
C358 C359 1.367 . S
C359 C358 1.367 . S
C359 C361 1.433 . S
C360 C356 1.350 . S
C360 C357 1.463 . S
C360 N364 1.427 . S
C361 H351 0.929 . S
C361 C359 1.433 . S
C361 N364 1.384 . S
C362 H353 0.929 . S
C362 C354 1.378 . S
C362 C357 1.350 . S
C363 H350 0.929 . S
C363 C355 1.433 . S
C363 N365 1.384 . S
N364 C360 1.427 . S
N364 C361 1.384 . S
N365 C357 1.427 . S
N365 C363 1.384 . S
H366 C372 0.930 . S
H367 C376 0.930 . S
H368 C381 0.929 . S
H369 C379 0.929 . S
H370 C374 0.929 . S
H371 C380 0.929 . S
C372 H366 0.930 . S
C372 C373 1.368 1_655 S
C372 C380 1.378 . S
C373 C372 1.368 1_455 S
C373 C381 1.432 . S
C374 H370 0.929 . S
C374 C376 1.378 . S
C374 C378 1.361 . S
C375 C378 1.462 . S
C375 C380 1.349 1_455 S
C375 N383 1.429 . S
C376 H367 0.930 . S
C376 C374 1.378 . S
C376 C377 1.380 . S
C377 C376 1.380 . S
C377 C379 1.420 1_455 S
C378 C374 1.361 . S
C378 C375 1.462 . S
C378 N382 1.417 1_455 S
C379 H369 0.929 . S
C379 C377 1.420 1_655 S
C379 N382 1.384 . S
C380 H371 0.929 . S
C380 C372 1.378 . S
C380 C375 1.349 1_655 S
C381 H368 0.929 . S
C381 C373 1.432 . S
C381 N383 1.384 . S
N382 C378 1.417 1_655 S
N382 C379 1.384 . S
N383 C375 1.429 . S
N383 C381 1.384 . S
H384 C390 0.930 . S
H385 C394 0.930 . S
H386 C399 0.929 . S
H387 C397 0.929 . S
H388 C392 0.929 . S
H389 C398 0.929 . S
C390 H384 0.930 . S
C390 C391 1.367 1_565 S
C390 C398 1.378 . S
C391 C390 1.367 1_545 S
C391 C399 1.433 . S
C392 H388 0.929 . S
C392 C394 1.378 . S
C392 C396 1.350 1_545 S
C393 C396 1.463 . S
C393 C398 1.350 . S
C393 N401 1.427 1_565 S
C394 H385 0.930 . S
C394 C392 1.378 . S
C394 C395 1.366 1_544 S
C395 C394 1.366 1_566 S
C395 C397 1.434 . S
C396 C392 1.350 1_565 S
C396 C393 1.463 . S
C396 N400 1.427 1_554 S
C397 H387 0.929 . S
C397 C395 1.434 . S
C397 N400 1.384 . S
C398 H389 0.929 . S
C398 C390 1.378 . S
C398 C393 1.350 . S
C399 H386 0.929 . S
C399 C391 1.433 . S
C399 N401 1.384 . S
N400 C396 1.427 1_556 S
N400 C397 1.384 . S
N401 C393 1.427 1_545 S
N401 C399 1.384 . S
H402 C408 0.930 . S
H403 C412 0.930 . S
H404 C417 0.929 . S
H405 C415 0.929 . S
H406 C410 0.929 . S
H407 C416 0.929 . S
C408 H402 0.930 . S
C408 C409 1.367 . S
C408 C416 1.378 . S
C409 C408 1.367 . S
C409 C417 1.433 . S
C410 H406 0.929 . S
C410 C412 1.378 . S
C410 C414 1.350 1_556 S
C411 C414 1.463 . S
C411 C416 1.350 . S
C411 N419 1.427 . S
C412 H403 0.930 . S
C412 C410 1.378 . S
C412 C413 1.367 . S
C413 C412 1.367 . S
C413 C415 1.433 1_556 S
C414 C410 1.350 1_554 S
C414 C411 1.463 . S
C414 N418 1.427 . S
C415 H405 0.929 . S
C415 C413 1.433 1_554 S
C415 N418 1.384 . S
C416 H407 0.929 . S
C416 C408 1.378 . S
C416 C411 1.350 . S
C417 H404 0.929 . S
C417 C409 1.433 . S
C417 N419 1.384 . S
N418 C414 1.427 . S
N418 C415 1.384 . S
N419 C411 1.427 . S
N419 C417 1.384 . S
H420 C426 0.930 . S
H421 C430 0.931 . S
H422 C435 0.929 . S
H423 C433 0.929 . S
H424 C428 0.929 . S
H425 C434 0.929 . S
C426 H420 0.930 . S
C426 C427 1.367 . S
C426 C434 1.378 . S
C427 C426 1.367 . S
C427 C435 1.433 . S
C428 H424 0.929 . S
C428 C430 1.378 1_554 S
C428 C432 1.350 . S
C429 C432 1.463 . S
C429 C434 1.350 . S
C429 N437 1.427 . S
C430 H421 0.931 . S
C430 C428 1.378 1_556 S
C430 C431 1.367 . S
C431 C430 1.367 . S
C431 C433 1.433 . S
C432 C428 1.350 . S
C432 C429 1.463 . S
C432 N436 1.427 1_554 S
C433 H423 0.929 . S
C433 C431 1.433 . S
C433 N436 1.384 . S
C434 H425 0.929 . S
C434 C426 1.378 . S
C434 C429 1.350 . S
C435 H422 0.929 . S
C435 C427 1.433 . S
C435 N437 1.384 . S
N436 C432 1.427 1_556 S
N436 C433 1.384 . S
N437 C429 1.427 . S
N437 C435 1.384 . S
H438 C444 0.930 . S
H439 C448 0.930 . S
H440 C453 0.929 . S
H441 C451 0.929 . S
H442 C446 0.929 . S
H443 C452 0.929 . S
C444 H438 0.930 . S
C444 C445 1.367 . S
C444 C452 1.378 . S
C445 C444 1.367 . S
C445 C453 1.433 1_455 S
C446 H442 0.929 . S
C446 C448 1.378 1_554 S
C446 C450 1.377 . S
C447 C450 1.461 1_455 S
C447 C452 1.347 . S
C447 N455 1.430 1_455 S
C448 H439 0.930 . S
C448 C446 1.378 1_556 S
C448 C449 1.367 . S
C449 C448 1.367 . S
C449 C451 1.433 1_655 S
C450 C446 1.377 . S
C450 C447 1.461 1_655 S
C450 N454 1.402 1_654 S
C451 H441 0.929 . S
C451 C449 1.433 1_455 S
C451 N454 1.384 . S
C452 H443 0.929 . S
C452 C444 1.378 . S
C452 C447 1.347 . S
C453 H440 0.929 . S
C453 C445 1.433 1_655 S
C453 N455 1.384 . S
N454 C450 1.402 1_456 S
N454 C451 1.384 . S
N455 C447 1.430 1_655 S
N455 C453 1.384 . S
H456 C462 0.930 . S
H457 C466 0.930 1_455 S
H458 C471 0.929 . S
H459 C469 0.929 . S
H460 C464 0.929 . S
H461 C470 0.929 . S
C462 H456 0.930 . S
C462 C463 1.334 1_655 S
C462 C470 1.378 . S
C463 C462 1.334 1_455 S
C463 C471 1.459 . S
C464 H460 0.929 . S
C464 C466 1.378 1_455 S
C464 C468 1.350 1_455 S
C465 C468 1.463 . S
C465 C470 1.350 . S
C465 N473 1.427 1_655 S
C466 H457 0.930 1_655 S
C466 C464 1.378 1_655 S
C466 C467 1.367 . S
C467 C466 1.367 . S
C467 C469 1.433 . S
C468 C464 1.350 1_655 S
C468 C465 1.463 . S
C468 N472 1.427 . S
C469 H459 0.929 . S
C469 C467 1.433 . S
C469 N472 1.384 . S
C470 H461 0.929 . S
C470 C462 1.378 . S
C470 C465 1.350 . S
C471 H458 0.929 . S
C471 C463 1.459 . S
C471 N473 1.384 . S
N472 C468 1.427 . S
N472 C469 1.384 . S
N473 C465 1.427 1_455 S
N473 C471 1.384 . S
H474 C480 0.932 . S
H475 C484 0.930 . S
H476 C489 0.929 . S
H477 C487 0.929 . S
H478 C482 0.929 . S
H479 C488 0.929 . S
C480 H474 0.932 . S
C480 C481 1.367 . S
C480 C488 1.376 1_545 S
C481 C480 1.367 . S
C481 C489 1.433 1_545 S
C482 H478 0.929 . S
C482 C484 1.378 . S
C482 C486 1.350 . S
C483 C486 1.463 . S
C483 C488 1.350 . S
C483 N491 1.427 . S
C484 H475 0.930 . S
C484 C482 1.378 . S
C484 C485 1.367 . S
C485 C484 1.367 . S
C485 C487 1.433 . S
C486 C482 1.350 . S
C486 C483 1.463 . S
C486 N490 1.427 . S
C487 H477 0.929 . S
C487 C485 1.433 . S
C487 N490 1.384 . S
C488 H479 0.929 . S
C488 C480 1.376 1_565 S
C488 C483 1.350 . S
C489 H476 0.929 . S
C489 C481 1.433 1_565 S
C489 N491 1.384 . S
N490 C486 1.427 . S
N490 C487 1.384 . S
N491 C483 1.427 . S
N491 C489 1.384 . S
H492 C498 0.930 . S
H493 C502 0.930 . S
H494 C507 0.929 . S
H495 C505 0.929 . S
H496 C500 0.929 . S
H497 C506 0.929 . S
C498 H492 0.930 . S
C498 C499 1.367 . S
C498 C506 1.378 . S
C499 C498 1.367 . S
C499 C507 1.433 . S
C500 H496 0.929 . S
C500 C502 1.378 . S
C500 C504 1.350 . S
C501 C504 1.463 . S
C501 C506 1.350 . S
C501 N509 1.427 . S
C502 H493 0.930 . S
C502 C500 1.378 . S
C502 C503 1.367 . S
C503 C502 1.367 . S
C503 C505 1.433 . S
C504 C500 1.350 . S
C504 C501 1.463 . S
C504 N508 1.427 . S
C505 H495 0.929 . S
C505 C503 1.433 . S
C505 N508 1.384 . S
C506 H497 0.929 . S
C506 C498 1.378 . S
C506 C501 1.350 . S
C507 H494 0.929 . S
C507 C499 1.433 . S
C507 N509 1.384 . S
N508 C504 1.427 . S
N508 C505 1.384 . S
N509 C501 1.427 . S
N509 C507 1.384 . S
H510 C516 0.930 . S
H511 C520 0.930 . S
H512 C525 0.929 . S
H513 C523 0.929 . S
H514 C518 0.929 . S
H515 C524 0.929 . S
C516 H510 0.930 . S
C516 C517 1.367 . S
C516 C524 1.378 . S
C517 C516 1.367 . S
C517 C525 1.433 . S
C518 H514 0.929 . S
C518 C520 1.378 . S
C518 C522 1.350 . S
C519 C522 1.463 . S
C519 C524 1.350 . S
C519 N527 1.427 . S
C520 H511 0.930 . S
C520 C518 1.378 . S
C520 C521 1.367 . S
C521 C520 1.367 . S
C521 C523 1.433 . S
C522 C518 1.350 . S
C522 C519 1.463 . S
C522 N526 1.427 . S
C523 H513 0.929 . S
C523 C521 1.433 . S
C523 N526 1.384 . S
C524 H515 0.929 . S
C524 C516 1.378 . S
C524 C519 1.350 . S
C525 H512 0.929 . S
C525 C517 1.433 . S
C525 N527 1.384 . S
N526 C522 1.427 . S
N526 C523 1.384 . S
N527 C519 1.427 . S
N527 C525 1.384 . S
H528 C534 0.931 1_655 S
H529 C538 0.930 . S
H530 C543 0.929 . S
H531 C541 0.929 1_556 S
H532 C536 0.929 . S
H533 C542 0.929 . S
C534 H528 0.931 1_455 S
C534 C535 1.367 1_455 S
C534 C542 1.377 . S
C535 C534 1.367 1_655 S
C535 C543 1.433 1_655 S
C536 H532 0.929 . S
C536 C538 1.378 . S
C536 C540 1.350 . S
C537 C540 1.463 . S
C537 C542 1.350 . S
C537 N545 1.427 . S
C538 H529 0.930 . S
C538 C536 1.378 . S
C538 C539 1.367 . S
C539 C538 1.367 . S
C539 C541 1.433 . S
C540 C536 1.350 . S
C540 C537 1.463 . S
C540 N544 1.427 . S
C541 H531 0.929 1_554 S
C541 C539 1.433 . S
C541 N544 1.384 . S
C542 H533 0.929 . S
C542 C534 1.377 . S
C542 C537 1.350 . S
C543 H530 0.929 . S
C543 C535 1.433 1_455 S
C543 N545 1.384 . S
N544 C540 1.427 . S
N544 C541 1.384 . S
N545 C537 1.427 . S
N545 C543 1.384 . S
H546 C552 0.930 . S
H547 C556 0.930 1_556 S
H548 C561 0.929 . S
H549 C559 0.929 . S
H550 C554 0.929 . S
H551 C560 0.929 . S
C552 H546 0.930 . S
C552 C553 1.352 1_545 S
C552 C560 1.378 . S
C553 C552 1.352 1_565 S
C553 C561 1.441 . S
C554 H550 0.929 . S
C554 C556 1.378 . S
C554 C558 1.350 . S
C555 C558 1.463 . S
C555 C560 1.350 . S
C555 N563 1.424 1_545 S
C556 H547 0.930 1_554 S
C556 C554 1.378 . S
C556 C557 1.367 . S
C557 C556 1.367 . S
C557 C559 1.433 . S
C558 C554 1.350 . S
C558 C555 1.463 . S
C558 N562 1.427 . S
C559 H549 0.929 . S
C559 C557 1.433 . S
C559 N562 1.384 . S
C560 H551 0.929 . S
C560 C552 1.378 . S
C560 C555 1.350 . S
C561 H548 0.929 . S
C561 C553 1.441 . S
C561 N563 1.385 . S
N562 C558 1.427 . S
N562 C559 1.384 . S
N563 C555 1.424 1_565 S
N563 C561 1.385 . S
H564 C570 0.930 . S
H565 C574 0.930 . S
H566 C579 0.929 . S
H567 C577 0.929 1_556 S
H568 C572 0.929 . S
H569 C578 0.929 . S
C570 H564 0.930 . S
C570 C571 1.367 . S
C570 C578 1.378 . S
C571 C570 1.367 . S
C571 C579 1.433 . S
C572 H568 0.929 . S
C572 C574 1.378 . S
C572 C576 1.350 . S
C573 C576 1.463 . S
C573 C578 1.350 . S
C573 N581 1.427 . S
C574 H565 0.930 . S
C574 C572 1.378 . S
C574 C575 1.367 . S
C575 C574 1.367 . S
C575 C577 1.433 . S
C576 C572 1.350 . S
C576 C573 1.463 . S
C576 N580 1.427 . S
C577 H567 0.929 1_554 S
C577 C575 1.433 . S
C577 N580 1.384 . S
C578 H569 0.929 . S
C578 C570 1.378 . S
C578 C573 1.350 . S
C579 H566 0.929 . S
C579 C571 1.433 . S
C579 N581 1.384 . S
N580 C576 1.427 . S
N580 C577 1.384 . S
N581 C573 1.427 . S
N581 C579 1.384 . S
H582 C588 0.930 . S
H583 C592 0.930 . S
H584 C597 0.929 . S
H585 C595 0.929 . S
H586 C590 0.929 . S
H587 C596 0.929 . S
C588 H582 0.930 . S
C588 C589 1.367 . S
C588 C596 1.378 . S
C589 C588 1.367 . S
C589 C597 1.433 . S
C590 H586 0.929 . S
C590 C592 1.378 . S
C590 C594 1.350 . S
C591 C594 1.463 . S
C591 C596 1.350 . S
C591 N599 1.427 . S
C592 H583 0.930 . S
C592 C590 1.378 . S
C592 C593 1.367 . S
C593 C592 1.367 . S
C593 C595 1.433 . S
C594 C590 1.350 . S
C594 C591 1.463 . S
C594 N598 1.427 . S
C595 H585 0.929 . S
C595 C593 1.433 . S
C595 N598 1.384 . S
C596 H587 0.929 . S
C596 C588 1.378 . S
C596 C591 1.350 . S
C597 H584 0.929 . S
C597 C589 1.433 . S
C597 N599 1.384 . S
N598 C594 1.427 . S
N598 C595 1.384 . S
N599 C591 1.427 . S
N599 C597 1.384 . S
H600 C606 0.930 . S
H601 C610 0.930 . S
H602 C615 0.929 . S
H603 C613 0.929 . S
H604 C608 0.929 . S
H605 C614 0.929 . S
C606 H600 0.930 . S
C606 C607 1.367 . S
C606 C614 1.378 . S
C607 C606 1.367 . S
C607 C615 1.433 1_455 S
C608 H604 0.929 . S
C608 C610 1.378 . S
C608 C612 1.350 1_655 S
C609 C612 1.463 . S
C609 C614 1.350 . S
C609 N617 1.427 1_455 S
C610 H601 0.930 . S
C610 C608 1.378 . S
C610 C611 1.367 1_655 S
C611 C610 1.367 1_455 S
C611 C613 1.433 . S
C612 C608 1.350 1_455 S
C612 C609 1.463 . S
C612 N616 1.427 . S
C613 H603 0.929 . S
C613 C611 1.433 . S
C613 N616 1.384 . S
C614 H605 0.929 . S
C614 C606 1.378 . S
C614 C609 1.350 . S
C615 H602 0.929 . S
C615 C607 1.433 1_655 S
C615 N617 1.384 . S
N616 C612 1.427 . S
N616 C613 1.384 . S
N617 C609 1.427 1_655 S
N617 C615 1.384 . S
H618 C624 0.930 . S
H619 C628 0.930 . S
H620 C633 0.929 . S
H621 C631 0.929 . S
H622 C626 0.929 . S
H623 C632 0.929 . S
C624 H618 0.930 . S
C624 C625 1.325 1_565 S
C624 C632 1.378 . S
C625 C624 1.325 1_545 S
C625 C633 1.479 . S
C626 H622 0.929 . S
C626 C628 1.378 . S
C626 C630 1.350 . S
C627 C630 1.463 . S
C627 C632 1.350 1_545 S
C627 N635 1.427 . S
C628 H619 0.930 . S
C628 C626 1.378 . S
C628 C629 1.367 . S
C629 C628 1.367 . S
C629 C631 1.433 1_545 S
C630 C626 1.350 . S
C630 C627 1.463 . S
C630 N634 1.427 1_545 S
C631 H621 0.929 . S
C631 C629 1.433 1_565 S
C631 N634 1.384 . S
C632 H623 0.929 . S
C632 C624 1.378 . S
C632 C627 1.350 1_565 S
C633 H620 0.929 . S
C633 C625 1.479 . S
C633 N635 1.384 . S
N634 C630 1.427 1_565 S
N634 C631 1.384 . S
N635 C627 1.427 . S
N635 C633 1.384 . S
H636 C642 0.930 . S
H637 C646 0.930 . S
H638 C651 0.929 . S
H639 C649 0.929 . S
H640 C644 0.929 . S
H641 C650 0.929 . S
C642 H636 0.930 . S
C642 C643 1.367 . S
C642 C650 1.378 . S
C643 C642 1.367 . S
C643 C651 1.433 . S
C644 H640 0.929 . S
C644 C646 1.378 . S
C644 C648 1.350 . S
C645 C648 1.463 . S
C645 C650 1.350 . S
C645 N653 1.427 . S
C646 H637 0.930 . S
C646 C644 1.378 . S
C646 C647 1.367 . S
C647 C646 1.367 . S
C647 C649 1.433 . S
C648 C644 1.350 . S
C648 C645 1.463 . S
C648 N652 1.427 . S
C649 H639 0.929 . S
C649 C647 1.433 . S
C649 N652 1.384 . S
C650 H641 0.929 . S
C650 C642 1.378 . S
C650 C645 1.350 . S
C651 H638 0.929 . S
C651 C643 1.433 . S
C651 N653 1.384 . S
N652 C648 1.427 . S
N652 C649 1.384 . S
N653 C645 1.427 . S
N653 C651 1.384 . S
H654 C660 0.930 . S
H655 C664 0.930 . S
H656 C669 0.929 . S
H657 C667 0.929 . S
H658 C662 0.929 . S
H659 C668 0.929 . S
C660 H654 0.930 . S
C660 C661 1.367 . S
C660 C668 1.378 . S
C661 C660 1.367 . S
C661 C669 1.433 . S
C662 H658 0.929 . S
C662 C664 1.378 . S
C662 C666 1.350 . S
C663 C666 1.463 . S
C663 C668 1.350 . S
C663 N671 1.427 . S
C664 H655 0.930 . S
C664 C662 1.378 . S
C664 C665 1.367 . S
C665 C664 1.367 . S
C665 C667 1.433 . S
C666 C662 1.350 . S
C666 C663 1.463 . S
C666 N670 1.427 . S
C667 H657 0.929 . S
C667 C665 1.433 . S
C667 N670 1.384 . S
C668 H659 0.929 . S
C668 C660 1.378 . S
C668 C663 1.350 . S
C669 H656 0.929 . S
C669 C661 1.433 . S
C669 N671 1.384 . S
N670 C666 1.427 . S
N670 C667 1.384 . S
N671 C663 1.427 . S
N671 C669 1.384 . S
H672 C678 0.930 . S
H673 C682 0.930 . S
H674 C687 0.929 . S
H675 C685 0.929 . S
H676 C680 0.929 . S
H677 C686 0.929 . S
C678 H672 0.930 . S
C678 C679 1.367 1_455 S
C678 C686 1.378 . S
C679 C678 1.367 1_655 S
C679 C687 1.433 . S
C680 H676 0.929 . S
C680 C682 1.378 . S
C680 C684 1.350 . S
C681 C684 1.463 . S
C681 C686 1.350 1_655 S
C681 N689 1.427 . S
C682 H673 0.930 . S
C682 C680 1.378 . S
C682 C683 1.367 . S
C683 C682 1.367 . S
C683 C685 1.433 1_655 S
C684 C680 1.350 . S
C684 C681 1.463 . S
C684 N688 1.427 1_655 S
C685 H675 0.929 . S
C685 C683 1.433 1_455 S
C685 N688 1.384 . S
C686 H677 0.929 . S
C686 C678 1.378 . S
C686 C681 1.350 1_455 S
C687 H674 0.929 . S
C687 C679 1.433 . S
C687 N689 1.384 . S
N688 C684 1.427 1_455 S
N688 C685 1.384 . S
N689 C681 1.427 . S
N689 C687 1.384 . S
H690 C696 0.930 . S
H691 C700 0.930 . S
H692 C705 0.929 . S
H693 C703 0.929 . S
H694 C698 0.929 . S
H695 C704 0.929 . S
C696 H690 0.930 . S
C696 C697 1.367 . S
C696 C704 1.378 . S
C697 C696 1.367 . S
C697 C705 1.433 1_565 S
C698 H694 0.929 . S
C698 C700 1.378 . S
C698 C702 1.350 1_545 S
C699 C702 1.463 . S
C699 C704 1.350 . S
C699 N707 1.427 1_565 S
C700 H691 0.930 . S
C700 C698 1.378 . S
C700 C701 1.367 1_545 S
C701 C700 1.367 1_565 S
C701 C703 1.433 . S
C702 C698 1.350 1_565 S
C702 C699 1.463 . S
C702 N706 1.427 . S
C703 H693 0.929 . S
C703 C701 1.433 . S
C703 N706 1.384 . S
C704 H695 0.929 . S
C704 C696 1.378 . S
C704 C699 1.350 . S
C705 H692 0.929 . S
C705 C697 1.433 1_545 S
C705 N707 1.384 . S
N706 C702 1.427 . S
N706 C703 1.384 . S
N707 C699 1.427 1_545 S
N707 C705 1.384 . S
H708 C714 0.930 . S
H709 C718 0.930 . S
H710 C723 0.929 . S
H711 C721 0.929 . S
H712 C716 0.929 . S
H713 C722 0.929 . S
C714 H708 0.930 . S
C714 C715 1.367 . S
C714 C722 1.378 . S
C715 C714 1.367 . S
C715 C723 1.433 . S
C716 H712 0.929 . S
C716 C718 1.378 . S
C716 C720 1.350 . S
C717 C720 1.463 . S
C717 C722 1.350 . S
C717 N725 1.427 . S
C718 H709 0.930 . S
C718 C716 1.378 . S
C718 C719 1.367 . S
C719 C718 1.367 . S
C719 C721 1.433 . S
C720 C716 1.350 . S
C720 C717 1.463 . S
C720 N724 1.427 . S
C721 H711 0.929 . S
C721 C719 1.433 . S
C721 N724 1.384 . S
C722 H713 0.929 . S
C722 C714 1.378 . S
C722 C717 1.350 . S
C723 H710 0.929 . S
C723 C715 1.433 . S
C723 N725 1.384 . S
N724 C720 1.427 . S
N724 C721 1.384 . S
N725 C717 1.427 . S
N725 C723 1.384 . S
H726 C732 0.930 . S
H727 C736 0.930 . S
H728 C741 0.929 . S
H729 C739 0.929 . S
H730 C734 0.929 . S
H731 C740 0.929 . S
C732 H726 0.930 . S
C732 C733 1.367 . S
C732 C740 1.378 . S
C733 C732 1.367 . S
C733 C741 1.433 . S
C734 H730 0.929 . S
C734 C736 1.378 . S
C734 C738 1.350 . S
C735 C738 1.463 . S
C735 C740 1.350 . S
C735 N743 1.427 . S
C736 H727 0.930 . S
C736 C734 1.378 . S
C736 C737 1.367 . S
C737 C736 1.367 . S
C737 C739 1.433 . S
C738 C734 1.350 . S
C738 C735 1.463 . S
C738 N742 1.427 . S
C739 H729 0.929 . S
C739 C737 1.433 . S
C739 N742 1.384 . S
C740 H731 0.929 . S
C740 C732 1.378 . S
C740 C735 1.350 . S
C741 H728 0.929 . S
C741 C733 1.433 . S
C741 N743 1.384 . S
N742 C738 1.427 . S
N742 C739 1.384 . S
N743 C735 1.427 . S
N743 C741 1.384 . S
C319 C125 1.934 . S
C323 C170 1.976 1_545 S
C341 C210 1.990 . S
C337 C144 1.943 . S
C359 C250 1.995 . S
C355 C87 1.951 . S
C377 C290 1.984 1_455 S
C373 C106 1.941 1_455 S
C395 C160 1.984 1_565 S
C391 C49 1.943 1_545 S
C409 C68 1.938 . S
C413 C200 1.991 . S
C427 C11 1.941 . S
C431 C240 1.995 . S
C445 C30 1.944 1_455 S
C449 C280 1.988 1_655 S
C467 C157 0.496 . S
C463 C97 0.543 1_455 S
C485 C197 0.524 . S
C481 C116 0.575 . S
C503 C237 0.535 . S
C499 C135 0.566 . S
C517 C78 0.531 . S
C521 C277 0.500 . S
C535 C21 0.568 . S
C539 C167 0.516 . S
C557 C207 0.506 . S
C553 C40 0.531 . S
C575 C247 0.532 . S
C571 C59 0.580 . S
C589 C2 0.535 . S
C593 C287 0.517 . S
C607 C101 2.082 1_455 S
C611 C161 2.278 . S
C625 C120 2.057 1_545 S
C629 C201 2.270 . S
C647 C241 2.254 . S
C643 C139 2.052 . S
C665 C281 2.279 . S
C661 C82 2.062 . S
C679 C25 2.080 . S
C683 C171 2.296 . S
C701 C211 2.263 . S
C697 C44 2.056 . S
C719 C251 2.253 . S
C715 C63 2.040 . S
C733 C6 2.058 . S
C737 C291 2.278 . S
