# Generated by pormake.
# Topology pyr, (3,6)-cn, num edge types: 1
# Building blocks:
#     Node 0, Type 0, BuildingBlock: BELTOD_clean_linker_0, # of connection points: 3
#     Node 1, Type 0, BuildingBlock: BELTOD_clean_linker_0, # of connection points: 3
#     Node 2, Type 0, BuildingBlock: BELTOD_clean_linker_0, # of connection points: 3
#     Node 3, Type 0, BuildingBlock: BELTOD_clean_linker_0, # of connection points: 3
#     Node 4, Type 0, BuildingBlock: BELTOD_clean_linker_0, # of connection points: 3
#     Node 5, Type 0, BuildingBlock: BELTOD_clean_linker_0, # of connection points: 3
#     Node 6, Type 0, BuildingBlock: BELTOD_clean_linker_0, # of connection points: 3
#     Node 7, Type 0, BuildingBlock: BELTOD_clean_linker_0, # of connection points: 3
#     Node 8, Type 1, BuildingBlock: PAMTOO_clean_sbu_0, # of connection points: 6
#     Node 9, Type 1, BuildingBlock: PAMTOO_clean_sbu_0, # of connection points: 6
#     Node 10, Type 1, BuildingBlock: PAMTOO_clean_sbu_0, # of connection points: 6
#     Node 11, Type 1, BuildingBlock: PAMTOO_clean_sbu_0, # of connection points: 6
#     Edge 12, Type (0, 1), BuildingBlock: ZUJKAS_clean_linker_0, # of connection points: 2
#     Edge 13, Type (0, 1), BuildingBlock: ZUJKAS_clean_linker_0, # of connection points: 2
#     Edge 14, Type (0, 1), BuildingBlock: ZUJKAS_clean_linker_0, # of connection points: 2
#     Edge 15, Type (0, 1), BuildingBlock: ZUJKAS_clean_linker_0, # of connection points: 2
#     Edge 16, Type (0, 1), BuildingBlock: ZUJKAS_clean_linker_0, # of connection points: 2
#     Edge 17, Type (0, 1), BuildingBlock: ZUJKAS_clean_linker_0, # of connection points: 2
#     Edge 18, Type (0, 1), BuildingBlock: ZUJKAS_clean_linker_0, # of connection points: 2
#     Edge 19, Type (0, 1), BuildingBlock: ZUJKAS_clean_linker_0, # of connection points: 2
#     Edge 20, Type (0, 1), BuildingBlock: ZUJKAS_clean_linker_0, # of connection points: 2
#     Edge 21, Type (0, 1), BuildingBlock: ZUJKAS_clean_linker_0, # of connection points: 2
#     Edge 22, Type (0, 1), BuildingBlock: ZUJKAS_clean_linker_0, # of connection points: 2
#     Edge 23, Type (0, 1), BuildingBlock: ZUJKAS_clean_linker_0, # of connection points: 2
#     Edge 24, Type (0, 1), BuildingBlock: ZUJKAS_clean_linker_0, # of connection points: 2
#     Edge 25, Type (0, 1), BuildingBlock: ZUJKAS_clean_linker_0, # of connection points: 2
#     Edge 26, Type (0, 1), BuildingBlock: ZUJKAS_clean_linker_0, # of connection points: 2
#     Edge 27, Type (0, 1), BuildingBlock: ZUJKAS_clean_linker_0, # of connection points: 2
#     Edge 28, Type (0, 1), BuildingBlock: ZUJKAS_clean_linker_0, # of connection points: 2
#     Edge 29, Type (0, 1), BuildingBlock: ZUJKAS_clean_linker_0, # of connection points: 2
#     Edge 30, Type (0, 1), BuildingBlock: ZUJKAS_clean_linker_0, # of connection points: 2
#     Edge 31, Type (0, 1), BuildingBlock: ZUJKAS_clean_linker_0, # of connection points: 2
#     Edge 32, Type (0, 1), BuildingBlock: ZUJKAS_clean_linker_0, # of connection points: 2
#     Edge 33, Type (0, 1), BuildingBlock: ZUJKAS_clean_linker_0, # of connection points: 2
#     Edge 34, Type (0, 1), BuildingBlock: ZUJKAS_clean_linker_0, # of connection points: 2
#     Edge 35, Type (0, 1), BuildingBlock: ZUJKAS_clean_linker_0, # of connection points: 2
# Relax obj value: 0.076
# Max RMSD: 0.148
# Mean RMSD: 0.065
data_MOF--net-pyr--node1-PAMTOO_clean_sbu_0--node2-BELTOD_clean_linker_0--edge1-ZUJKAS_clean_linker_0
_symmetry_space_group_name_H-M    P1
_symmetry_Int_Tables_number       1
_symmetry_cell_setting            triclinic
loop_
_symmetry_equiv_pos_as_xyz
'x, y, z'
_cell_length_a     52.645143
_cell_length_b     55.905077
_cell_length_c     55.778338
_cell_angle_alpha  89.982331
_cell_angle_beta   90.08239
_cell_angle_gamma 101.43009
loop_
_atom_site_label
_atom_site_type_symbol
_atom_site_fract_x
_atom_site_fract_y
_atom_site_fract_z
_atom_type_partial_charge
P0 P 0.34722 0.29496 0.22624 0.0
H1 H 0.39729 0.29776 0.2026 0.0
H2 H 0.41785 0.26691 0.1837 0.0
H3 H 0.34986 0.21178 0.19904 0.0
H4 H 0.32965 0.24255 0.21804 0.0
H5 H 0.32044 0.33525 0.2308 0.0
H6 H 0.28924 0.35025 0.20537 0.0
H7 H 0.29909 0.298 0.15074 0.0
H8 H 0.32967 0.28263 0.17664 0.0
H9 H 0.35837 0.28515 0.27624 0.0
H10 H 0.29206 0.27272 0.22908 0.0
O11 O 0.37012 0.31726 0.23721 0.0
H12 H 0.33143 0.26421 0.3087 0.0
H13 H 0.26523 0.2516 0.26113 0.0
C14 C 0.36223 0.27233 0.21221 0.0
C15 C 0.38692 0.27899 0.20201 0.0
C16 C 0.39856 0.26139 0.19108 0.0
C17 C 0.38559 0.23685 0.19011 0.0
C18 C 0.3606 0.23041 0.19996 0.0
C19 C 0.34898 0.24802 0.2108 0.0
C20 C 0.32752 0.30802 0.20556 0.0
C21 C 0.31618 0.32733 0.21318 0.0
C22 C 0.29839 0.33593 0.19855 0.0
C23 C 0.29162 0.32535 0.17596 0.0
C24 C 0.30362 0.30637 0.16814 0.0
C25 C 0.32132 0.29769 0.18287 0.0
C26 C 0.32708 0.28099 0.25047 0.0
C27 C 0.33796 0.27816 0.27297 0.0
C28 C 0.3226 0.26603 0.29142 0.0
C29 C 0.29613 0.25641 0.28755 0.0
C30 C 0.28539 0.25926 0.26488 0.0
C31 C 0.30075 0.27133 0.2465 0.0
P32 P 0.23121 0.81083 0.68122 0.0
H33 H 0.28247 0.82255 0.70243 0.0
H34 H 0.29781 0.82811 0.74376 0.0
H35 H 0.21869 0.81066 0.76894 0.0
H36 H 0.20346 0.80508 0.72736 0.0
H37 H 0.23211 0.79177 0.63277 0.0
H38 H 0.2465 0.75594 0.61691 0.0
H39 H 0.25408 0.73041 0.68927 0.0
H40 H 0.23859 0.76553 0.7048 0.0
H41 H 0.20892 0.85077 0.6984 0.0
H42 H 0.18395 0.78609 0.65568 0.0
O43 O 0.25106 0.83189 0.66527 0.0
H44 H 0.1689 0.86434 0.68901 0.0
H45 H 0.14349 0.79946 0.64632 0.0
C46 C 0.24186 0.81416 0.71188 0.0
C47 C 0.26843 0.81995 0.71685 0.0
C48 C 0.27717 0.82285 0.74048 0.0
C49 C 0.25943 0.81989 0.75958 0.0
C50 C 0.23277 0.81333 0.75455 0.0
C51 C 0.22406 0.81024 0.73084 0.0
C52 C 0.23477 0.78154 0.66993 0.0
C53 C 0.23616 0.77806 0.64514 0.0
C54 C 0.24459 0.75766 0.63613 0.0
C55 C 0.25204 0.74056 0.65182 0.0
C56 C 0.24847 0.74313 0.67662 0.0
C57 C 0.23979 0.76341 0.68558 0.0
C58 C 0.19933 0.81738 0.67789 0.0
C59 C 0.19444 0.83914 0.68753 0.0
C60 C 0.17145 0.84682 0.68222 0.0
C61 C 0.15294 0.83297 0.66692 0.0
C62 C 0.15745 0.81062 0.65803 0.0
C63 C 0.18053 0.8029 0.66344 0.0
P64 P 0.67115 0.34209 0.81788 0.0
H65 H 0.72194 0.33288 0.8307 0.0
H66 H 0.75652 0.35349 0.85684 0.0
H67 H 0.71089 0.40729 0.87454 0.0
H68 H 0.67597 0.3862 0.8483 0.0
H69 H 0.64229 0.29328 0.80617 0.0
H70 H 0.61894 0.25988 0.83061 0.0
H71 H 0.62923 0.30703 0.89272 0.0
H72 H 0.65304 0.34028 0.86813 0.0
H73 H 0.68797 0.39169 0.79912 0.0
H74 H 0.61948 0.33495 0.79581 0.0
O75 O 0.68548 0.32712 0.79772 0.0
H76 H 0.6696 0.41512 0.76913 0.0
H77 H 0.60129 0.35782 0.76508 0.0
C78 C 0.69663 0.35835 0.83702 0.0
C79 C 0.71941 0.34926 0.83996 0.0
C80 C 0.73925 0.36112 0.85493 0.0
C81 C 0.73671 0.38228 0.86758 0.0
C82 C 0.71352 0.39105 0.86508 0.0
C83 C 0.69362 0.37914 0.84995 0.0
C84 C 0.6498 0.31921 0.83533 0.0
C85 C 0.63927 0.29655 0.82499 0.0
C86 C 0.62577 0.27743 0.83903 0.0
C87 C 0.62239 0.28057 0.86379 0.0
C88 C 0.6319 0.30375 0.87384 0.0
C89 C 0.64539 0.32289 0.85973 0.0
C90 C 0.65482 0.36183 0.80037 0.0
C91 C 0.66864 0.38453 0.79244 0.0
C92 C 0.65825 0.39776 0.77488 0.0
C93 C 0.63396 0.38838 0.76437 0.0
C94 C 0.61984 0.3659 0.77289 0.0
C95 C 0.63023 0.35275 0.79059 0.0
P96 P 0.84277 0.69111 0.31225 0.0
H97 H 0.86706 0.74061 0.29814 0.0
H98 H 0.89126 0.77529 0.32046 0.0
H99 H 0.89353 0.72877 0.38198 0.0
H100 H 0.86907 0.69406 0.35942 0.0
H101 H 0.82399 0.66679 0.26781 0.0
H102 H 0.84343 0.64489 0.23747 0.0
H103 H 0.91345 0.65346 0.27989 0.0
H104 H 0.89386 0.67626 0.31001 0.0
H105 H 0.81775 0.70338 0.35579 0.0
H106 H 0.81936 0.63841 0.3147 0.0
O107 O 0.82348 0.70544 0.29628 0.0
H108 H 0.78501 0.68027 0.38214 0.0
H109 H 0.78562 0.61525 0.34041 0.0
C110 C 0.86573 0.71484 0.32725 0.0
C111 C 0.87313 0.73774 0.31629 0.0
C112 C 0.88708 0.75761 0.32911 0.0
C113 C 0.89405 0.755 0.35321 0.0
C114 C 0.88802 0.73159 0.36364 0.0
C115 C 0.87417 0.71166 0.3507 0.0
C116 C 0.85756 0.67348 0.29104 0.0
C117 C 0.84355 0.664 0.27062 0.0
C118 C 0.85468 0.65121 0.25331 0.0
C119 C 0.88013 0.64727 0.25605 0.0
C120 C 0.89398 0.6564 0.2769 0.0
C121 C 0.88276 0.66933 0.29426 0.0
C122 C 0.82158 0.67258 0.33358 0.0
C123 C 0.8114 0.684 0.35267 0.0
C124 C 0.79229 0.67078 0.36755 0.0
C125 C 0.78237 0.64584 0.36338 0.0
C126 C 0.79296 0.63431 0.34442 0.0
C127 C 0.81229 0.64759 0.32962 0.0
P128 P 0.7331 0.81304 0.86889 0.0
H129 H 0.71217 0.82489 0.91443 0.0
H130 H 0.67113 0.83536 0.92545 0.0
H131 H 0.64151 0.81593 0.85419 0.0
H132 H 0.68335 0.80627 0.84309 0.0
H133 H 0.77772 0.79345 0.85569 0.0
H134 H 0.79151 0.75554 0.86496 0.0
H135 H 0.71921 0.72945 0.90198 0.0
H136 H 0.70562 0.76799 0.89278 0.0
H137 H 0.74694 0.86104 0.84713 0.0
H138 H 0.73116 0.7862 0.82326 0.0
O139 O 0.75394 0.83226 0.88586 0.0
H140 H 0.7599 0.87456 0.80654 0.0
H141 H 0.74499 0.79949 0.78272 0.0
C142 C 0.70095 0.81543 0.87782 0.0
C143 C 0.69673 0.82256 0.90127 0.0
C144 C 0.67305 0.82832 0.90761 0.0
C145 C 0.65297 0.82675 0.89064 0.0
C146 C 0.65671 0.81782 0.86756 0.0
C147 C 0.68056 0.81218 0.86121 0.0
C148 C 0.74056 0.78337 0.87326 0.0
C149 C 0.76458 0.77937 0.86536 0.0
C150 C 0.77237 0.75757 0.87057 0.0
C151 C 0.75636 0.7393 0.88403 0.0
C152 C 0.73199 0.74318 0.89161 0.0
C153 C 0.72415 0.76513 0.88627 0.0
C154 C 0.73893 0.82263 0.83829 0.0
C155 C 0.74622 0.84753 0.8331 0.0
C156 C 0.75374 0.8552 0.80992 0.0
C157 C 0.75406 0.83806 0.79152 0.0
C158 C 0.74503 0.81315 0.79648 0.0
C159 C 0.73735 0.80551 0.8197 0.0
P160 P 0.846 0.29364 0.31839 0.0
H161 H 0.84805 0.33933 0.34478 0.0
H162 H 0.81609 0.35448 0.36944 0.0
H163 H 0.76164 0.28665 0.35823 0.0
H164 H 0.79363 0.27162 0.33391 0.0
H165 H 0.8975 0.28284 0.31185 0.0
H166 H 0.9207 0.25477 0.3321 0.0
H167 H 0.85623 0.23404 0.38075 0.0
H168 H 0.8336 0.26248 0.36087 0.0
H169 H 0.81825 0.30779 0.27734 0.0
H170 H 0.83352 0.24101 0.30757 0.0
O171 O 0.86643 0.31737 0.30661 0.0
H172 H 0.78965 0.28421 0.24744 0.0
H173 H 0.8056 0.21747 0.27757 0.0
C174 C 0.82303 0.30454 0.33723 0.0
C175 C 0.82923 0.32776 0.34767 0.0
C176 C 0.81096 0.3364 0.3617 0.0
C177 C 0.78633 0.32178 0.36571 0.0
C178 C 0.78051 0.29826 0.35567 0.0
C179 C 0.79871 0.28973 0.34158 0.0
C180 C 0.86409 0.27515 0.33516 0.0
C181 C 0.88862 0.27259 0.32718 0.0
C182 C 0.90173 0.25634 0.33861 0.0
C183 C 0.89035 0.24216 0.35809 0.0
C184 C 0.86579 0.24499 0.36612 0.0
C185 C 0.85277 0.26127 0.35471 0.0
C186 C 0.82824 0.27622 0.29449 0.0
C187 C 0.81588 0.2881 0.27721 0.0
C188 C 0.79958 0.2746 0.26013 0.0
C189 C 0.79527 0.24895 0.26018 0.0
C190 C 0.80822 0.23718 0.27724 0.0
C191 C 0.82444 0.25068 0.29431 0.0
P192 P 0.37792 0.66775 0.19605 0.0
H193 H 0.36272 0.65327 0.14725 0.0
H194 H 0.3214 0.63593 0.12839 0.0
H195 H 0.28272 0.63821 0.19642 0.0
H196 H 0.32457 0.65512 0.21533 0.0
H197 H 0.42753 0.70168 0.19203 0.0
H198 H 0.43956 0.74379 0.17785 0.0
H199 H 0.35856 0.74744 0.17238 0.0
H200 H 0.34671 0.7054 0.18694 0.0
H201 H 0.36485 0.62079 0.21988 0.0
H202 H 0.39773 0.69479 0.24015 0.0
O203 O 0.39976 0.65531 0.18149 0.0
H204 H 0.37444 0.60658 0.25952 0.0
H205 H 0.40667 0.6809 0.28035 0.0
C206 C 0.34682 0.655 0.18278 0.0
C207 C 0.34538 0.64989 0.15817 0.0
C208 C 0.32162 0.64018 0.14734 0.0
C209 C 0.29859 0.6356 0.16083 0.0
C210 C 0.30007 0.64112 0.18553 0.0
C211 C 0.32397 0.65086 0.19637 0.0
C212 C 0.38623 0.70023 0.19025 0.0
C213 C 0.41236 0.71166 0.18813 0.0
C214 C 0.41921 0.73571 0.17981 0.0
C215 C 0.40004 0.74894 0.17353 0.0
C216 C 0.37385 0.73787 0.17705 0.0
C217 C 0.36702 0.71374 0.18534 0.0
C218 C 0.38018 0.65889 0.22708 0.0
C219 C 0.37347 0.6341 0.23315 0.0
C220 C 0.37898 0.62599 0.25597 0.0
C221 C 0.39143 0.64251 0.2734 0.0
C222 C 0.39743 0.66753 0.26741 0.0
C223 C 0.39202 0.6756 0.24445 0.0
P224 P 0.17281 0.34081 0.72258 0.0
H225 H 0.18412 0.29391 0.70956 0.0
H226 H 0.16174 0.25975 0.68572 0.0
H227 H 0.09904 0.29779 0.67322 0.0
H228 H 0.12215 0.33246 0.69698 0.0
H229 H 0.22514 0.36851 0.73094 0.0
H230 H 0.25859 0.39068 0.70453 0.0
H231 H 0.20577 0.37615 0.64454 0.0
H232 H 0.1723 0.35376 0.67121 0.0
H233 H 0.12157 0.32948 0.74587 0.0
H234 H 0.18462 0.39141 0.7394 0.0
O235 O 0.18959 0.32856 0.74303 0.0
H236 H 0.10148 0.35131 0.77638 0.0
H237 H 0.16496 0.41298 0.77004 0.0
C238 C 0.15448 0.31547 0.7057 0.0
C239 C 0.16539 0.29484 0.70199 0.0
C240 C 0.15248 0.27521 0.68834 0.0
C241 C 0.1283 0.27571 0.67779 0.0
C242 C 0.1176 0.29671 0.68108 0.0
C243 C 0.13065 0.31647 0.69485 0.0
C244 C 0.19631 0.35919 0.70304 0.0
C245 C 0.22066 0.37021 0.71214 0.0
C246 C 0.23976 0.38304 0.697 0.0
C247 C 0.23496 0.38514 0.67234 0.0
C248 C 0.21025 0.3746 0.66337 0.0
C249 C 0.19104 0.36188 0.67862 0.0
C250 C 0.15431 0.35896 0.73972 0.0
C251 C 0.13067 0.34805 0.75035 0.0
C252 C 0.11927 0.36049 0.76795 0.0
C253 C 0.1317 0.38384 0.77576 0.0
C254 C 0.15497 0.39497 0.76456 0.0
C255 C 0.16611 0.38268 0.74678 0.0
Dy256 Dy 0.03238 0.02424 0.49485 0.0
Dy257 Dy 0.97701 0.01758 0.52389 0.0
C258 C 0.02345 0.06253 0.53529 0.0
O259 O 0.03144 0.99236 0.51893 0.0
O260 O 1.00319 1.00092 0.54748 0.0
O261 O 0.07404 0.02805 0.49456 0.0
O262 O 0.0527 0.02643 0.46115 0.0
O263 O 0.97629 0.98166 0.50596 0.0
O264 O 1.00402 0.9956 0.4752 0.0
O265 O 0.97169 0.036 0.48921 0.0
O266 O 0.01384 0.05444 0.4822 0.0
O267 O 0.93534 1.00658 0.52417 0.0
O268 O 0.95569 0.02294 0.55582 0.0
C269 C 0.02124 0.98928 0.54044 0.0
O270 O 0.03987 0.05023 0.52591 0.0
O271 O 0.99832 0.05542 0.53231 0.0
C272 C 0.09444 0.05067 0.46186 0.0
C273 C 0.12947 0.08972 0.44098 0.0
C274 C 0.1088 0.09416 0.45517 0.0
C275 C 0.0914 0.07476 0.46553 0.0
C276 C 0.11521 0.04616 0.44813 0.0
C277 C 0.13259 0.0655 0.43777 0.0
C278 C 0.07547 0.03007 0.47128 0.0
C279 C 0.98598 0.97864 0.48475 0.0
C280 C 0.98894 0.05288 0.47865 0.0
C281 C 0.91781 0.9934 0.56214 0.0
C282 C 0.88906 0.95871 0.59335 0.0
C283 C 0.90052 0.95111 0.5727 0.0
C284 C 0.91497 0.96834 0.55727 0.0
C285 C 0.90602 1.00097 0.5825 0.0
C286 C 0.89183 0.9838 0.59802 0.0
C287 C 0.93358 0.01197 0.54679 0.0
H288 H 0.10601 0.1126 0.45819 0.0
H289 H 0.07538 0.07851 0.47611 0.0
H290 H 0.11769 0.02762 0.44504 0.0
H291 H 0.14803 0.0614 0.42665 0.0
H292 H 0.89883 0.93187 0.56882 0.0
H293 H 0.92412 0.96208 0.54173 0.0
H294 H 0.90802 0.02021 0.58654 0.0
H295 H 0.88296 0.99015 0.61367 0.0
Dy296 Dy 0.47331 0.01883 1.01275 0.0
Dy297 Dy 0.52793 0.02611 0.04332 0.0
C298 C 0.48189 0.98055 0.05351 0.0
O299 O 0.47382 0.0513 0.03591 0.0
O300 O 0.50075 0.04277 0.06566 0.0
O301 O 0.4316 0.01423 1.01191 0.0
O302 O 0.45344 0.01675 0.97879 0.0
O303 O 0.52952 0.06144 0.024 0.0
O304 O 0.50217 0.0469 0.99304 0.0
O305 O 0.53426 1.00703 1.00929 0.0
O306 O 0.49237 0.98892 1.00034 0.0
O307 O 0.56965 0.03595 0.04429 0.0
O308 O 0.54827 0.0229 0.07647 0.0
C309 C 0.48318 0.05454 0.05772 0.0
O310 O 0.46549 0.99254 0.04355 0.0
O311 O 0.50705 0.98817 0.05154 0.0
C312 C 0.41267 0.99093 0.97901 0.0
C313 C 0.38128 0.95044 0.95666 0.0
C314 C 0.40052 0.94712 0.97318 0.0
C315 C 0.41614 0.96724 0.98425 0.0
C316 C 0.39308 0.99431 0.96318 0.0
C317 C 0.37748 0.97425 0.95208 0.0
C318 C 0.43054 0.01222 0.98861 0.0
C319 C 0.52036 0.06388 1.00241 0.0
C320 C 0.51739 0.99044 0.99789 0.0
C321 C 0.58715 0.05156 0.0813 0.0
C322 C 0.61883 0.08811 0.10863 0.0
C323 C 0.60073 0.09421 0.09231 0.0
C324 C 0.58491 0.07603 0.0788 0.0
C325 C 0.60515 0.04541 0.0975 0.0
C326 C 0.62085 0.06351 0.11107 0.0
C327 C 0.57084 0.03218 0.06731 0.0
H328 H 0.40378 0.92902 0.97725 0.0
H329 H 0.4313 0.96437 0.99644 0.0
H330 H 0.39033 0.01253 0.95884 0.0
H331 H 0.36317 0.97751 0.93916 0.0
H332 H 0.59856 0.11296 0.09023 0.0
H333 H 0.57094 0.08105 0.06644 0.0
H334 H 0.6071 0.02659 0.09961 0.0
H335 H 0.63483 0.05828 0.12326 0.0
Dy336 Dy 0.50887 0.48859 0.50387 0.0
Dy337 Dy 0.51106 0.539 0.53448 0.0
C338 C 0.53524 0.49596 0.556 0.0
O339 O 0.46806 0.48621 0.51643 0.0
O340 O 0.47732 0.51199 0.54858 0.0
O341 O 0.50275 0.44923 0.50207 0.0
O342 O 0.51347 0.47089 0.47024 0.0
O343 O 0.48258 0.54073 0.50497 0.0
O344 O 0.49696 0.51528 0.47831 0.0
O345 O 0.54342 0.54742 0.50798 0.0
O346 O 0.55014 0.50863 0.50196 0.0
O347 O 0.51346 0.57798 0.53627 0.0
O348 O 0.51078 0.55667 0.56887 0.0
C349 C 0.46146 0.49476 0.53696 0.0
O350 O 0.52014 0.48098 0.54146 0.0
O351 O 0.53922 0.51968 0.55268 0.0
C352 C 0.53095 0.43588 0.47473 0.0
C353 C 0.57188 0.41269 0.46216 0.0
C354 C 0.57555 0.43126 0.47958 0.0
C355 C 0.55526 0.44279 0.48577 0.0
C356 C 0.52699 0.4171 0.45773 0.0
C357 C 0.54729 0.40556 0.45149 0.0
C358 C 0.51028 0.44927 0.47982 0.0
C359 C 0.48417 0.53266 0.48301 0.0
C360 C 0.55774 0.5324 0.49995 0.0
C361 C 0.48733 0.58801 0.56722 0.0
C362 C 0.44438 0.60659 0.5832 0.0
C363 C 0.44118 0.58776 0.5661 0.0
C364 C 0.46246 0.57849 0.55825 0.0
C365 C 0.49069 0.60674 0.58427 0.0
C366 C 0.46935 0.61597 0.59224 0.0
C367 C 0.50942 0.57765 0.55934 0.0
H368 H 0.59431 0.43739 0.48789 0.0
H369 H 0.55867 0.45745 0.49881 0.0
H370 H 0.50834 0.41163 0.44901 0.0
H371 H 0.54379 0.39113 0.43822 0.0
H372 H 0.42217 0.57996 0.55905 0.0
H373 H 0.45951 0.56378 0.54527 0.0
H374 H 0.50976 0.61417 0.59144 0.0
H375 H 0.47243 0.63064 0.60525 0.0
Dy376 Dy 0.01147 0.53703 1.0062 0.0
Dy377 Dy 0.01093 0.48682 0.03682 0.0
C378 C 0.98657 0.53055 0.05801 0.0
O379 O 0.04509 0.54545 0.03154 0.0
O380 O 0.05219 0.50676 0.03744 0.0
O381 O 0.01389 0.57602 1.00544 0.0
O382 O 0.00926 0.55535 0.97237 0.0
O383 O 0.02356 0.47903 0.99977 0.0
O384 O 0.03845 0.51801 0.98603 0.0
O385 O 0.96988 0.48381 0.02427 0.0
O386 O 0.97819 0.50961 0.99207 0.0
O387 O 1.00443 0.44749 0.03948 0.0
O388 O 0.01651 0.46984 0.07065 0.0
C389 C 0.05982 0.53055 0.03908 0.0
O390 O 0.98288 0.53719 0.03591 0.0
O391 O 1.00112 0.51451 0.06244 0.0
C392 C 0.98646 0.58713 0.9758 0.0
C393 C 0.9429 0.60571 0.96111 0.0
C394 C 0.94239 0.59252 0.98264 0.0
C395 C 0.96391 0.5832 0.98985 0.0
C396 C 0.98717 0.60032 0.9544 0.0
C397 C 0.96557 0.60952 0.94708 0.0
C398 C 0.00857 0.57616 0.98259 0.0
C399 C 0.03641 0.49426 0.984 0.0
C400 C 0.96283 0.49213 1.00375 0.0
C401 C 0.03318 0.43431 0.06655 0.0
C402 C 0.07418 0.41109 0.07898 0.0
C403 C 0.07657 0.4272 0.05937 0.0
C404 C 0.05626 0.4388 0.05326 0.0
C405 C 0.03047 0.41789 0.08576 0.0
C406 C 0.05081 0.40635 0.09194 0.0
C407 C 0.01269 0.44798 0.06155 0.0
H408 H 0.92544 0.58953 0.99406 0.0
H409 H 0.96286 0.57279 1.00633 0.0
H410 H 1.00429 0.6032 0.94317 0.0
H411 H 0.9665 0.61926 0.93021 0.0
H412 H 0.09442 0.43144 0.04923 0.0
H413 H 0.05876 0.45168 0.03851 0.0
H414 H 0.01282 0.41434 0.09625 0.0
H415 H 0.04831 0.39384 0.10697 0.0
H416 H 0.2463 0.25874 0.29959 0.0
H417 H 0.21838 0.23368 0.3289 0.0
H418 H 0.28099 0.1979 0.34794 0.0
H419 H 0.30898 0.22271 0.31853 0.0
H420 H 0.20525 0.18272 0.32775 0.0
H421 H 0.25386 0.2153 0.41339 0.0
H422 H 0.25993 0.23233 0.38576 0.0
H423 H 0.27498 0.20665 0.39115 0.0
C424 C 0.25416 0.24561 0.31009 0.0
C425 C 0.27985 0.24268 0.3067 0.0
C426 C 0.23823 0.23142 0.3269 0.0
C427 C 0.24772 0.21417 0.34077 0.0
C428 C 0.27347 0.2115 0.33779 0.0
H429 H 0.1821 0.09622 0.43547 0.0
H430 H 0.21026 0.12758 0.41182 0.0
C431 C 0.28943 0.22569 0.32097 0.0
C432 C 0.2301 0.19769 0.35699 0.0
H433 H 0.22135 0.17903 0.41522 0.0
C434 C 0.2086 0.18205 0.34692 0.0
C435 C 0.23467 0.19682 0.38193 0.0
C436 C 0.25698 0.21381 0.3938 0.0
C437 C 0.19185 0.1651 0.36102 0.0
C438 C 0.19646 0.16412 0.38596 0.0
C439 C 0.21786 0.17989 0.39609 0.0
C440 C 0.17966 0.1463 0.40162 0.0
C441 C 0.16984 0.14785 0.34897 0.0
C442 C 0.15327 0.14683 0.40419 0.0
C443 C 0.13709 0.12882 0.4175 0.0
C444 C 0.14706 0.11004 0.42861 0.0
C445 C 0.17374 0.11018 0.42679 0.0
C446 C 0.18989 0.12817 0.41344 0.0
H447 H 0.1727 0.14701 0.32928 0.0
H448 H 0.1677 0.12913 0.35642 0.0
H449 H 0.15148 0.15424 0.35217 0.0
H450 H 0.1451 0.16092 0.39552 0.0
H451 H 0.11662 0.12918 0.41841 0.0
H452 H 0.24005 0.84653 0.7935 0.0
H453 H 0.25955 0.86043 0.83215 0.0
H454 H 0.31967 0.81939 0.82042 0.0
H455 H 0.30032 0.80545 0.78165 0.0
H456 H 0.27456 0.83685 0.87432 0.0
H457 H 0.35836 0.89103 0.8248 0.0
H458 H 0.3285 0.8773 0.81007 0.0
H459 H 0.35134 0.85885 0.81865 0.0
C460 C 0.25707 0.84001 0.7994 0.0
C461 C 0.26887 0.82517 0.78444 0.0
C462 C 0.2682 0.84799 0.82145 0.0
C463 C 0.29126 0.84124 0.82889 0.0
C464 C 0.30212 0.82512 0.81475 0.0
H465 H 0.39969 0.91248 0.93692 0.0
H466 H 0.37715 0.88141 0.90939 0.0
C467 C 0.29108 0.81723 0.79264 0.0
C468 C 0.30512 0.85295 0.85023 0.0
H469 H 0.3592 0.89402 0.8667 0.0
C470 C 0.29317 0.8492 0.87277 0.0
C471 C 0.32937 0.86906 0.84804 0.0
C472 C 0.34263 0.87453 0.8241 0.0
C473 C 0.30481 0.86137 0.89323 0.0
C474 C 0.32873 0.87796 0.8909 0.0
C475 C 0.34094 0.88117 0.86846 0.0
C476 C 0.34071 0.8937 0.91088 0.0
C477 C 0.29139 0.8564 0.9171 0.0
C478 C 0.32753 0.9106 0.92123 0.0
C479 C 0.3403 0.92827 0.93714 0.0
C480 C 0.36658 0.92953 0.94278 0.0
C481 C 0.37937 0.91186 0.93321 0.0
C482 C 0.36656 0.89416 0.91736 0.0
H483 H 0.27835 0.83815 0.91739 0.0
H484 H 0.30561 0.8574 0.93197 0.0
H485 H 0.27936 0.87028 0.92035 0.0
H486 H 0.30775 0.91092 0.91612 0.0
H487 H 0.32983 0.94144 0.94441 0.0
H488 H 0.66196 0.41313 0.72729 0.0
H489 H 0.64614 0.43317 0.69309 0.0
H490 H 0.56787 0.41159 0.71905 0.0
H491 H 0.58364 0.3924 0.75398 0.0
H492 H 0.61405 0.4139 0.65768 0.0
H493 H 0.57088 0.48302 0.70538 0.0
H494 H 0.59193 0.46573 0.72007 0.0
H495 H 0.55829 0.45242 0.71527 0.0
C496 C 0.64142 0.41306 0.72612 0.0
C497 C 0.62417 0.40124 0.74371 0.0
C498 C 0.63235 0.42438 0.70633 0.0
C499 C 0.60581 0.42428 0.70353 0.0
C500 C 0.58849 0.41244 0.72097 0.0
H501 H 0.52947 0.44802 0.56943 0.0
H502 H 0.54709 0.43128 0.60475 0.0
C503 C 0.59755 0.40116 0.74085 0.0
C504 C 0.59631 0.43569 0.68189 0.0
H505 H 0.56104 0.47774 0.66376 0.0
C506 C 0.60255 0.42793 0.65905 0.0
C507 C 0.5816 0.4543 0.68353 0.0
C508 C 0.57548 0.46456 0.70736 0.0
C509 C 0.59415 0.43784 0.63796 0.0
C510 C 0.57856 0.45574 0.6396 0.0
C511 C 0.57275 0.46387 0.66241 0.0
C512 C 0.56796 0.46608 0.6179 0.0
C513 C 0.60247 0.42931 0.61409 0.0
C514 C 0.57322 0.49138 0.61363 0.0
C515 C 0.56295 0.50111 0.59343 0.0
C516 C 0.54706 0.48576 0.57706 0.0
C517 C 0.54179 0.46044 0.58145 0.0
C518 C 0.55199 0.45077 0.60165 0.0
H519 H 0.62021 0.42147 0.61584 0.0
H520 H 0.5868 0.41483 0.60689 0.0
H521 H 0.6063 0.44449 0.60092 0.0
H522 H 0.58536 0.50363 0.62592 0.0
H523 H 0.56735 0.52068 0.59074 0.0
H524 H 0.8566 0.60824 0.2285 0.0
H525 H 0.87502 0.58872 0.19554 0.0
H526 H 0.94929 0.63582 0.20755 0.0
H527 H 0.93063 0.65643 0.23985 0.0
H528 H 0.93827 0.63271 0.16072 0.0
H529 H 0.92046 0.53923 0.19804 0.0
H530 H 0.89126 0.55103 0.19591 0.0
H531 H 0.91684 0.56536 0.21571 0.0
C532 C 0.87684 0.61464 0.22413 0.0
C533 C 0.89203 0.63408 0.23698 0.0
C534 C 0.88748 0.60314 0.2054 0.0
C535 C 0.91372 0.61042 0.19919 0.0
C536 C 0.92903 0.62969 0.21203 0.0
H537 H 0.9961 0.52631 0.10594 0.0
H538 H 0.979 0.54625 0.13949 0.0
C539 C 0.91835 0.64134 0.23071 0.0
C540 C 0.9249 0.59851 0.17879 0.0
H541 H 0.93186 0.54311 0.15662 0.0
C542 C 0.93699 0.61312 0.15991 0.0
C543 C 0.92363 0.57296 0.17775 0.0
C544 C 0.91259 0.55626 0.19805 0.0
C545 C 0.94736 0.60294 0.13995 0.0
C546 C 0.94505 0.57728 0.13842 0.0
C547 C 0.93337 0.56273 0.15751 0.0
C548 C 0.9553 0.56518 0.11761 0.0
C549 C 0.96124 0.61992 0.12102 0.0
C550 C 0.9475 0.56877 0.09395 0.0
C551 C 0.95749 0.5575 0.07459 0.0
C552 C 0.9752 0.54203 0.07846 0.0
C553 C 0.9825 0.53805 0.1022 0.0
C554 C 0.9727 0.54948 0.12148 0.0
H555 H 0.96805 0.63865 0.12815 0.0
H556 H 0.97819 0.6132 0.11382 0.0
H557 H 0.94769 0.62111 0.10601 0.0
H558 H 0.93356 0.58021 0.09042 0.0
H559 H 0.95127 0.56088 0.0566 0.0
H560 H 0.38582 0.19073 0.20631 0.0
H561 H 0.40469 0.15913 0.18684 0.0
H562 H 0.43178 0.20856 0.12879 0.0
H563 H 0.41296 0.24025 0.14813 0.0
H564 H 0.39237 0.13861 0.14275 0.0
H565 H 0.49643 0.18239 0.14613 0.0
H566 H 0.47218 0.19299 0.16385 0.0
H567 H 0.47651 0.20139 0.13277 0.0
C568 C 0.39582 0.19488 0.1894 0.0
C569 C 0.39791 0.218 0.17875 0.0
C570 C 0.40669 0.17685 0.17838 0.0
C571 C 0.41996 0.18161 0.15656 0.0
C572 C 0.42218 0.20469 0.14592 0.0
H573 H 0.44658 0.08151 0.0475 0.0
H574 H 0.43167 0.1113 0.07301 0.0
C575 C 0.41137 0.22276 0.15697 0.0
C576 C 0.43015 0.162 0.14426 0.0
H577 H 0.48493 0.1479 0.12013 0.0
C578 C 0.41265 0.14055 0.13799 0.0
C579 C 0.45667 0.16442 0.13837 0.0
C580 C 0.4766 0.18643 0.14583 0.0
C581 C 0.4208 0.12179 0.12528 0.0
C582 C 0.44706 0.12476 0.11832 0.0
C583 C 0.46475 0.14581 0.1253 0.0
C584 C 0.45628 0.10659 0.10303 0.0
C585 C 0.40121 0.09895 0.11942 0.0
C586 C 0.47556 0.09448 0.11125 0.0
C587 C 0.48428 0.07743 0.09663 0.0
C588 C 0.47397 0.07238 0.07347 0.0
C589 C 0.45485 0.0848 0.06527 0.0
C590 C 0.44618 0.10177 0.07987 0.0
H591 H 0.38424 0.09655 0.13163 0.0
H592 H 0.39408 0.10028 0.10083 0.0
H593 H 0.41002 0.08251 0.12061 0.0
H594 H 0.48372 0.0981 0.12903 0.0
H595 H 0.49911 0.0683 0.10346 0.0
H596 H 0.13401 0.83229 0.62126 0.0
H597 H 0.10351 0.85602 0.60547 0.0
H598 H 0.09182 0.88188 0.67662 0.0
H599 H 0.12213 0.85785 0.69273 0.0
H600 H 0.05014 0.86068 0.61701 0.0
H601 H 0.12546 0.94349 0.63676 0.0
H602 H 0.13258 0.91322 0.63685 0.0
H603 H 0.11503 0.92305 0.6613 0.0
C604 C 0.12436 0.84236 0.63371 0.0
C605 C 0.13074 0.8434 0.65824 0.0
C606 C 0.10699 0.85601 0.62462 0.0
C607 C 0.09577 0.87095 0.63985 0.0
C608 C 0.10059 0.87068 0.66456 0.0
H609 H 1.0007 0.97252 0.58401 0.0
H610 H 0.01584 0.94334 0.61076 0.0
C611 C 0.11795 0.85701 0.6737 0.0
C612 C 0.08154 0.88872 0.62934 0.0
H613 H 0.08854 0.94923 0.61575 0.0
C614 C 0.05823 0.88009 0.61707 0.0
C615 C 0.0924 0.914 0.62929 0.0
C616 C 0.11782 0.92412 0.64159 0.0
C617 C 0.04581 0.89611 0.60422 0.0
C618 C 0.05711 0.92121 0.60363 0.0
C619 C 0.07994 0.92993 0.61648 0.0
C620 C 0.04724 0.93828 0.58759 0.0
C621 C 0.02137 0.88612 0.59041 0.0
C622 C 0.06003 0.94502 0.5659 0.0
C623 C 0.0515 0.96155 0.55063 0.0
C624 C 0.03009 0.9718 0.55686 0.0
C625 C 0.0173 0.96502 0.57872 0.0
C626 C 0.02582 0.94831 0.59397 0.0
H627 H 0.01513 0.86606 0.59254 0.0
H628 H 0.00552 0.89505 0.59665 0.0
H629 H 0.02448 0.89041 0.57107 0.0
H630 H 0.07668 0.93747 0.5608 0.0
H631 H 0.06185 0.96637 0.534 0.0
H632 H 0.73371 0.40195 0.9125 0.0
H633 H 0.7696 0.42087 0.93863 0.0
H634 H 0.82436 0.40994 0.88431 0.0
H635 H 0.78873 0.39108 0.85818 0.0
H636 H 0.83742 0.39513 0.92877 0.0
H637 H 0.81598 0.48836 0.93372 0.0
H638 H 0.78966 0.46426 0.94233 0.0
H639 H 0.80099 0.46616 0.91188 0.0
C640 C 0.75338 0.40388 0.90599 0.0
C641 C 0.7583 0.39492 0.88323 0.0
C642 C 0.7739 0.41471 0.92097 0.0
C643 C 0.79974 0.41704 0.91339 0.0
C644 C 0.80463 0.40831 0.89061 0.0
H645 H 0.94188 0.50624 0.96251 0.0
H646 H 0.90142 0.48747 0.943 0.0
C647 C 0.7842 0.39744 0.8757 0.0
C648 C 0.82184 0.42793 0.92924 0.0
H649 H 0.85063 0.48062 0.95754 0.0
C650 C 0.84024 0.41379 0.93516 0.0
C651 C 0.82564 0.45234 0.93745 0.0
C652 C 0.80718 0.46879 0.93089 0.0
C653 C 0.86245 0.42343 0.94874 0.0
C654 C 0.8662 0.44781 0.95706 0.0
C655 C 0.84764 0.46187 0.95138 0.0
C656 C 0.8902 0.45963 0.97001 0.0
C657 C 0.8822 0.40772 0.95325 0.0
C658 C 0.89728 0.45055 0.99203 0.0
C659 C 0.92065 0.46123 1.0033 0.0
C660 C 0.93732 0.4813 0.99281 0.0
C661 C 0.92971 0.49073 0.97112 0.0
C662 C 0.90646 0.48005 0.95991 0.0
H663 H 0.87931 0.39157 0.94121 0.0
H664 H 0.90219 0.41834 0.95069 0.0
H665 H 0.88041 0.40105 0.97203 0.0
H666 H 0.88481 0.43511 1.00044 0.0
H667 H 0.92576 0.45359 0.02005 0.0
H668 H 0.7404 0.66284 0.38036 0.0
H669 H 0.70438 0.64132 0.40434 0.0
H670 H 0.73678 0.57631 0.40243 0.0
H671 H 0.77371 0.59812 0.37929 0.0
H672 H 0.6682 0.60168 0.39295 0.0
H673 H 0.7225 0.58123 0.47333 0.0
H674 H 0.73703 0.6025 0.45054 0.0
H675 H 0.73326 0.5702 0.44567 0.0
C676 C 0.74027 0.64412 0.38541 0.0
C677 C 0.76029 0.63239 0.37805 0.0
C678 C 0.71944 0.63173 0.39897 0.0
C679 C 0.71797 0.60727 0.40557 0.0
C680 C 0.73771 0.59533 0.39806 0.0
H681 H 0.59402 0.50778 0.48209 0.0
H682 H 0.63323 0.52474 0.45919 0.0
C683 C 0.75868 0.60777 0.38453 0.0
C684 C 0.69527 0.59428 0.4196 0.0
H685 H 0.67749 0.56445 0.47242 0.0
C686 C 0.67029 0.59355 0.41032 0.0
C687 C 0.6979 0.58354 0.44226 0.0
C688 C 0.72408 0.58454 0.45369 0.0
C689 C 0.64799 0.58259 0.42306 0.0
C690 C 0.65063 0.57222 0.44584 0.0
C691 C 0.67554 0.57241 0.45495 0.0
C692 C 0.62763 0.562 0.46075 0.0
C693 C 0.62172 0.58213 0.41202 0.0
C694 C 0.61178 0.57738 0.46967 0.0
C695 C 0.58949 0.56781 0.48285 0.0
C696 C 0.58247 0.54259 0.4874 0.0
C697 C 0.59876 0.52727 0.47891 0.0
C698 C 0.6212 0.53692 0.46582 0.0
H699 H 0.62304 0.5856 0.3924 0.0
H700 H 0.60857 0.56427 0.41522 0.0
H701 H 0.61292 0.59653 0.42042 0.0
H702 H 0.61657 0.59683 0.46625 0.0
H703 H 0.57752 0.58021 0.4891 0.0
H704 H 0.25327 0.29672 0.14963 0.0
H705 H 0.21772 0.30933 0.12803 0.0
H706 H 0.24681 0.38403 0.1489 0.0
H707 H 0.28312 0.37179 0.16952 0.0
H708 H 0.18042 0.32928 0.14729 0.0
H709 H 0.23208 0.39219 0.0788 0.0
H710 H 0.24776 0.37171 0.09576 0.0
H711 H 0.24386 0.40037 0.10846 0.0
C712 C 0.25254 0.31594 0.14908 0.0
C713 C 0.27112 0.33325 0.1613 0.0
C714 C 0.23207 0.32308 0.13688 0.0
C715 C 0.22976 0.34766 0.13658 0.0
C716 C 0.24848 0.36504 0.14842 0.0
H717 H 0.09203 0.40689 0.12441 0.0
H718 H 0.12918 0.38979 0.13691 0.0
C719 C 0.26904 0.35794 0.16051 0.0
C720 C 0.20671 0.35484 0.12558 0.0
H721 H 0.18798 0.39531 0.08675 0.0
C722 C 0.18207 0.34352 0.13384 0.0
C723 C 0.20881 0.37316 0.10777 0.0
C724 C 0.23455 0.38487 0.09699 0.0
C725 C 0.15956 0.35063 0.12545 0.0
C726 C 0.1618 0.37 0.10877 0.0
C727 C 0.18633 0.38068 0.09978 0.0
C728 C 0.13903 0.37999 0.10106 0.0
C729 C 0.13361 0.33728 0.13452 0.0
C730 C 0.13262 0.38076 0.07667 0.0
C731 C 0.11145 0.39068 0.06944 0.0
C732 C 0.09634 0.40004 0.0865 0.0
C733 C 0.10294 0.39936 0.11089 0.0
C734 C 0.12415 0.38957 0.11807 0.0
H735 H 0.13457 0.31864 0.14085 0.0
H736 H 0.12763 0.34744 0.14992 0.0
H737 H 0.11849 0.3358 0.1204 0.0
H738 H 0.14395 0.37358 0.06324 0.0
H739 H 0.10677 0.39087 0.05054 0.0
H740 H 0.58075 0.24382 0.85321 0.0
H741 H 0.56283 0.20789 0.87736 0.0
H742 H 0.61843 0.23313 0.93313 0.0
H743 H 0.63665 0.26895 0.90906 0.0
H744 H 0.58838 0.17189 0.89379 0.0
H745 H 0.55041 0.21743 0.9704 0.0
H746 H 0.55941 0.23273 0.94227 0.0
H747 H 0.58392 0.22918 0.96372 0.0
C748 C 0.58919 0.24179 0.87062 0.0
C749 C 0.61016 0.25944 0.87914 0.0
C750 C 0.57883 0.22125 0.88446 0.0
C751 C 0.58903 0.2179 0.90722 0.0
C752 C 0.6098 0.23553 0.91588 0.0
H753 H 0.55891 0.10261 1.01499 0.0
H754 H 0.57563 0.13948 0.99169 0.0
C755 C 0.6202 0.25608 0.90206 0.0
C756 C 0.57871 0.19544 0.92139 0.0
H757 H 0.55075 0.17525 0.97491 0.0
C758 C 0.58001 0.17262 0.91147 0.0
C759 C 0.56792 0.19636 0.94454 0.0
C760 C 0.56507 0.22021 0.95583 0.0
C761 C 0.57126 0.15079 0.92417 0.0
C762 C 0.56037 0.15168 0.94728 0.0
C763 C 0.5591 0.17451 0.95722 0.0
C764 C 0.55011 0.12915 0.96139 0.0
C765 C 0.5744 0.127 0.91291 0.0
C766 C 0.52995 0.11113 0.95231 0.0
C767 C 0.52038 0.08996 0.96555 0.0
C768 C 0.53061 0.08638 0.98832 0.0
C769 C 0.55059 0.10464 0.99751 0.0
C770 C 0.56017 0.12579 0.98422 0.0
H771 H 0.58938 0.12989 0.89862 0.0
H772 H 0.5798 0.1144 0.92654 0.0
H773 H 0.55575 0.11806 0.90462 0.0
H774 H 0.52142 0.1135 0.93501 0.0
H775 H 0.50486 0.07645 0.95794 0.0
H776 H 0.88327 0.76579 0.39965 0.0
H777 H 0.9 0.80319 0.42211 0.0
H778 H 0.94834 0.83142 0.36215 0.0
H779 H 0.93171 0.79408 0.33954 0.0
H780 H 0.94925 0.82575 0.43624 0.0
H781 H 0.90839 0.88553 0.37374 0.0
H782 H 0.89928 0.85269 0.3727 0.0
H783 H 0.92927 0.86804 0.35954 0.0
C784 C 0.89773 0.77979 0.39131 0.0
C785 C 0.90598 0.77691 0.36766 0.0
C786 C 0.90718 0.80126 0.40417 0.0
C787 C 0.92503 0.82041 0.39368 0.0
C788 C 0.93405 0.81723 0.37043 0.0
H789 H 1.0007 0.96596 0.44008 0.0
H790 H 0.98628 0.92744 0.41871 0.0
C791 C 0.92456 0.7958 0.35753 0.0
C792 C 0.93398 0.84373 0.40699 0.0
H793 H 0.93628 0.90527 0.40424 0.0
C794 C 0.94632 0.84312 0.42928 0.0
C795 C 0.93013 0.86645 0.39798 0.0
C796 C 0.91583 0.86829 0.3748 0.0
C797 C 0.95535 0.86458 0.44252 0.0
C798 C 0.95159 0.88729 0.43344 0.0
C799 C 0.93924 0.8879 0.41118 0.0
C800 C 0.96035 0.91065 0.4467 0.0
C801 C 0.96935 0.86281 0.46587 0.0
C802 C 0.95032 0.91426 0.46945 0.0
C803 C 0.9585 0.93633 0.48174 0.0
C804 C 0.97684 0.95536 0.4715 0.0
C805 C 0.98661 0.95176 0.44858 0.0
C806 C 0.97838 0.92971 0.4363 0.0
H807 H 0.97646 0.84543 0.46728 0.0
H808 H 0.98608 0.87827 0.46789 0.0
H809 H 0.95584 0.86353 0.48098 0.0
H810 H 0.93599 0.90005 0.47766 0.0
H811 H 0.95044 0.93842 0.49929 0.0
H812 H 0.2492 0.69315 0.66695 0.0
H813 H 0.27888 0.66605 0.65648 0.0
H814 H 0.31739 0.71926 0.60577 0.0
H815 H 0.28872 0.7467 0.61663 0.0
H816 H 0.29298 0.64612 0.61149 0.0
H817 H 0.37452 0.71008 0.65415 0.0
H818 H 0.34104 0.71182 0.65903 0.0
H819 H 0.35736 0.72419 0.63214 0.0
C820 C 0.26388 0.699 0.65346 0.0
C821 C 0.26667 0.72222 0.64279 0.0
C822 C 0.2807 0.68345 0.64742 0.0
C823 C 0.30056 0.69091 0.6307 0.0
C824 C 0.30239 0.71336 0.61898 0.0
H825 H 0.4056 0.61831 0.55578 0.0
H826 H 0.36912 0.63599 0.56905 0.0
C827 C 0.28572 0.7289 0.62503 0.0
C828 C 0.32047 0.6761 0.62642 0.0
H829 H 0.38564 0.67871 0.62988 0.0
C830 C 0.31322 0.65308 0.61568 0.0
C831 C 0.34675 0.68506 0.63239 0.0
C832 C 0.35542 0.70903 0.64528 0.0
C833 C 0.33184 0.63919 0.60979 0.0
C834 C 0.35834 0.64884 0.61445 0.0
C835 C 0.36536 0.67142 0.6261 0.0
C836 C 0.3793 0.6364 0.60668 0.0
C837 C 0.32297 0.61433 0.59869 0.0
C838 C 0.39747 0.63123 0.62337 0.0
C839 C 0.4185 0.62136 0.61579 0.0
C840 C 0.42175 0.61651 0.59138 0.0
C841 C 0.40339 0.6215 0.57475 0.0
C842 C 0.38245 0.63149 0.58232 0.0
H843 H 0.30245 0.60656 0.60326 0.0
H844 H 0.32435 0.61598 0.57889 0.0
H845 H 0.33522 0.60141 0.60466 0.0
H846 H 0.39548 0.63503 0.64224 0.0
H847 H 0.43219 0.61748 0.62904 0.0
H848 H 0.79771 0.87214 0.78297 0.0
H849 H 0.81741 0.88533 0.74449 0.0
H850 H 0.75748 0.83455 0.70795 0.0
H851 H 0.73697 0.8217 0.74662 0.0
H852 H 0.83592 0.85621 0.70971 0.0
H853 H 0.75752 0.90032 0.674 0.0
H854 H 0.75959 0.89285 0.70534 0.0
H855 H 0.74852 0.86916 0.68389 0.0
C856 C 0.78839 0.86404 0.76677 0.0
C857 C 0.76556 0.84609 0.76786 0.0
C858 C 0.79985 0.87142 0.7448 0.0
C859 C 0.78879 0.86105 0.7234 0.0
C860 C 0.76612 0.84298 0.72429 0.0
H861 H 0.85158 0.91845 0.58339 0.0
H862 H 0.82652 0.88997 0.61233 0.0
C863 C 0.75456 0.83555 0.74637 0.0
C864 C 0.80144 0.86945 0.70041 0.0
H865 H 0.79581 0.90476 0.6515 0.0
C866 C 0.82701 0.86649 0.69676 0.0
C867 C 0.78967 0.88268 0.6835 0.0
C868 C 0.76237 0.88665 0.68679 0.0
C869 C 0.8416 0.87747 0.67727 0.0
C870 C 0.83037 0.89195 0.66122 0.0
C871 C 0.8043 0.89364 0.66394 0.0
C872 C 0.84625 0.90789 0.64345 0.0
C873 C 0.86919 0.87419 0.67444 0.0
C874 C 0.86544 0.92733 0.65147 0.0
C875 C 0.87954 0.94358 0.63513 0.0
C876 C 0.87473 0.94068 0.61042 0.0
C877 C 0.85577 0.92096 0.60234 0.0
C878 C 0.84144 0.90478 0.61879 0.0
H879 H 0.87243 0.8574 0.68361 0.0
H880 H 0.87435 0.87325 0.65521 0.0
H881 H 0.88245 0.89002 0.68259 0.0
H882 H 0.86917 0.93021 0.67047 0.0
H883 H 0.89419 0.9585 0.64182 0.0
H884 H 0.78849 0.25761 0.21239 0.0
H885 H 0.75692 0.23378 0.18487 0.0
H886 H 0.7288 0.18346 0.24194 0.0
H887 H 0.75957 0.2075 0.26966 0.0
H888 H 0.75191 0.185 0.17179 0.0
H889 H 0.66233 0.20071 0.21574 0.0
H890 H 0.69389 0.21896 0.22228 0.0
H891 H 0.68376 0.18948 0.236 0.0
C892 C 0.77536 0.24163 0.21913 0.0
C893 C 0.77653 0.23446 0.24322 0.0
C894 C 0.75744 0.228 0.20337 0.0
C895 C 0.74025 0.20711 0.21148 0.0
C896 C 0.74153 0.1998 0.23543 0.0
H897 H 0.63051 0.08652 0.15623 0.0
H898 H 0.65989 0.11716 0.17969 0.0
C899 C 0.75939 0.21338 0.25117 0.0
C900 C 0.72155 0.19234 0.19481 0.0
H901 H 0.65726 0.16794 0.1874 0.0
C902 C 0.73118 0.18152 0.17497 0.0
C903 C 0.69453 0.18791 0.19902 0.0
C904 C 0.68296 0.20007 0.21928 0.0
C905 C 0.71455 0.1655 0.15982 0.0
C906 C 0.68764 0.16047 0.16452 0.0
C907 C 0.67794 0.1718 0.18394 0.0
C908 C 0.66938 0.14249 0.15022 0.0
C909 C 0.72596 0.15332 0.13947 0.0
C910 C 0.66473 0.14683 0.12599 0.0
C911 C 0.64799 0.12933 0.11251 0.0
C912 C 0.63568 0.10722 0.12308 0.0
C913 C 0.64002 0.10321 0.1475 0.0
C914 C 0.65665 0.12073 0.16095 0.0
H915 H 0.74738 0.15579 0.14089 0.0
H916 H 0.71752 0.13347 0.13902 0.0
H917 H 0.72126 0.16132 0.12222 0.0
H918 H 0.67417 0.16368 0.11749 0.0
H919 H 0.64512 0.13288 0.09371 0.0
H920 H 0.36554 0.6041 0.30065 0.0
H921 H 0.38029 0.58709 0.33718 0.0
H922 H 0.44927 0.64347 0.33732 0.0
H923 H 0.43544 0.65976 0.29996 0.0
H924 H 0.46166 0.60107 0.34564 0.0
H925 H 0.37992 0.60849 0.4054 0.0
H926 H 0.36915 0.59136 0.37886 0.0
H927 H 0.38414 0.62317 0.37647 0.0
C928 C 0.38391 0.61293 0.30833 0.0
C929 C 0.39923 0.6334 0.2971 0.0
C930 C 0.39215 0.60334 0.32955 0.0
C931 C 0.41573 0.61417 0.34042 0.0
C932 C 0.4309 0.63481 0.32948 0.0
H933 H 0.46465 0.57483 0.48335 0.0
H934 H 0.44841 0.59501 0.44921 0.0
C935 C 0.42279 0.6443 0.30814 0.0
C936 C 0.42531 0.60321 0.36232 0.0
H937 H 0.40836 0.58278 0.41908 0.0
C938 C 0.45002 0.59725 0.36174 0.0
C939 C 0.41044 0.59849 0.3836 0.0
C940 C 0.38457 0.60595 0.38626 0.0
C941 C 0.45998 0.58632 0.38144 0.0
C942 C 0.44455 0.5804 0.40223 0.0
C943 C 0.4201 0.5869 0.40308 0.0
C944 C 0.4535 0.56759 0.42324 0.0
C945 C 0.48721 0.58167 0.37986 0.0
C946 C 0.46118 0.54508 0.42031 0.0
C947 C 0.4707 0.53361 0.43975 0.0
C948 C 0.47236 0.54412 0.46278 0.0
C949 C 0.46369 0.56618 0.46591 0.0
C950 C 0.45439 0.57778 0.44636 0.0
H951 H 0.49898 0.5939 0.36656 0.0
H952 H 0.49719 0.58434 0.39749 0.0
H953 H 0.48646 0.56259 0.37398 0.0
H954 H 0.45996 0.53638 0.40289 0.0
H955 H 0.4769 0.51652 0.43666 0.0
H956 H 0.15868 0.40473 0.81477 0.0
H957 H 0.1424 0.42342 0.84964 0.0
H958 H 0.0658 0.40979 0.81854 0.0
H959 H 0.08192 0.3901 0.78401 0.0
H960 H 0.12282 0.46161 0.85581 0.0
H961 H 0.04778 0.38246 0.88316 0.0
H962 H 0.07122 0.38023 0.86019 0.0
H963 H 0.04268 0.39216 0.85323 0.0
C964 C 0.13835 0.40572 0.81536 0.0
C965 C 0.12158 0.39585 0.79662 0.0
C966 C 0.12901 0.4164 0.83536 0.0
C967 C 0.10268 0.41772 0.83715 0.0
C968 C 0.086 0.40838 0.81813 0.0
H969 H 0.04884 0.51583 0.94027 0.0
H970 H 0.06473 0.4979 0.90468 0.0
C971 C 0.09526 0.39726 0.79827 0.0
C972 C 0.09305 0.42921 0.85872 0.0
H973 H 0.04697 0.42003 0.90279 0.0
C974 C 0.10628 0.45242 0.86611 0.0
C975 C 0.07172 0.41722 0.87258 0.0
C976 C 0.05771 0.39155 0.86705 0.0
C977 C 0.09885 0.46391 0.8867 0.0
C978 C 0.07685 0.45236 0.89997 0.0
C979 C 0.06367 0.42912 0.89263 0.0
C980 C 0.06744 0.46367 0.92176 0.0
C981 C 0.1153 0.48796 0.89437 0.0
C982 C 0.06276 0.45032 0.94324 0.0
C983 C 0.05304 0.46036 0.96347 0.0
C984 C 0.048 0.48414 0.96288 0.0
C985 C 0.0529 0.49762 0.94149 0.0
C986 C 0.06217 0.48739 0.92111 0.0
H987 H 0.1354 0.49018 0.88741 0.0
H988 H 0.10686 0.5031 0.88701 0.0
H989 H 0.1162 0.48967 0.9142 0.0
H990 H 0.06656 0.43201 0.94436 0.0
H991 H 0.04949 0.44944 0.97962 0.0
H992 H 0.62655 0.82432 0.93328 0.0
H993 H 0.59539 0.84894 0.94514 0.0
H994 H 0.59436 0.87632 0.87289 0.0
H995 H 0.62697 0.85309 0.86128 0.0
H996 H 0.60411 0.91238 0.90227 0.0
H997 H 0.52023 0.84813 0.9389 0.0
H998 H 0.54925 0.84312 0.95309 0.0
H999 H 0.54481 0.83794 0.9213 0.0
C1000 C 0.6195 0.83535 0.91981 0.0
C1001 C 0.62965 0.83698 0.89641 0.0
C1002 C 0.60127 0.84914 0.92654 0.0
C1003 C 0.59228 0.86437 0.90988 0.0
C1004 C 0.60094 0.86465 0.88606 0.0
H1005 H 0.48934 0.95713 0.967 0.0
H1006 H 0.50529 0.9271 0.94223 0.0
C1007 C 0.61947 0.85114 0.87939 0.0
C1008 C 0.57708 0.88253 0.91815 0.0
H1009 H 0.52734 0.88959 0.95496 0.0
C1010 C 0.58698 0.90729 0.91336 0.0
C1011 C 0.55447 0.87605 0.93231 0.0
C1012 C 0.54145 0.84982 0.93644 0.0
C1013 C 0.5759 0.92573 0.92351 0.0
C1014 C 0.55485 0.9193 0.93952 0.0
C1015 C 0.54385 0.89454 0.94309 0.0
C1016 C 0.54514 0.93792 0.95387 0.0
C1017 C 0.58714 0.95194 0.91718 0.0
C1018 C 0.56219 0.95378 0.96882 0.0
C1019 C 0.55323 0.97107 0.9828 0.0
C1020 C 0.52691 0.97259 0.98244 0.0
C1021 C 0.50976 0.95649 0.96765 0.0
C1022 C 0.51882 0.9393 0.95349 0.0
H1023 H 0.59615 0.95335 0.8991 0.0
H1024 H 0.57213 0.96336 0.91755 0.0
H1025 H 0.60252 0.95945 0.9303 0.0
H1026 H 0.58244 0.95258 0.96996 0.0
H1027 H 0.56691 0.98296 0.99419 0.0
H1028 H 0.89282 0.23128 0.40584 0.0
H1029 H 0.91205 0.1993 0.42408 0.0
H1030 H 0.93731 0.1799 0.3545 0.0
H1031 H 0.91719 0.21117 0.33595 0.0
H1032 H 0.91349 0.14015 0.37995 0.0
H1033 H 0.98786 0.19839 0.43619 0.0
H1034 H 0.95583 0.2038 0.44131 0.0
H1035 H 0.97084 0.21062 0.41248 0.0
C1036 C 0.90243 0.2202 0.39439 0.0
C1037 C 0.90349 0.22382 0.36943 0.0
C1038 C 0.9137 0.20213 0.40489 0.0
C1039 C 0.92648 0.18749 0.39069 0.0
C1040 C 0.92772 0.19114 0.3658 0.0
H1041 H 0.01869 0.08899 0.45198 0.0
H1042 H 1.00414 0.1208 0.42867 0.0
C1043 C 0.91639 0.20916 0.35526 0.0
C1044 C 0.9374 0.1676 0.40168 0.0
H1045 H 0.97904 0.1557 0.445 0.0
C1046 C 0.92799 0.14355 0.39403 0.0
C1047 C 0.95658 0.17211 0.4198 0.0
C1048 C 0.96858 0.19765 0.42777 0.0
C1049 C 0.93668 0.1238 0.40451 0.0
C1050 C 0.95488 0.12822 0.42347 0.0
C1051 C 0.96488 0.15232 0.43062 0.0
C1052 C 0.96346 0.1081 0.43649 0.0
C1053 C 0.92641 0.09844 0.39506 0.0
C1054 C 0.9454 0.09042 0.44864 0.0
C1055 C 0.95361 0.07212 0.46187 0.0
C1056 C 0.9801 0.07134 0.46344 0.0
C1057 C 0.99814 0.08903 0.45114 0.0
C1058 C 0.98988 0.10725 0.43782 0.0
H1059 H 0.91911 0.09889 0.37639 0.0
H1060 H 0.94158 0.08718 0.39544 0.0
H1061 H 0.91001 0.08942 0.40643 0.0
H1062 H 0.92497 0.09106 0.44832 0.0
H1063 H 0.93921 0.05893 0.47127 0.0
H1064 H 0.25834 0.60109 0.17863 0.0
H1065 H 0.21789 0.58253 0.15839 0.0
H1066 H 0.24116 0.62712 0.09613 0.0
H1067 H 0.28137 0.64604 0.11627 0.0
H1068 H 0.17814 0.60424 0.13891 0.0
H1069 H 0.22466 0.55726 0.06877 0.0
H1070 H 0.24142 0.56958 0.09568 0.0
H1071 H 0.23755 0.58942 0.07115 0.0
C1072 C 0.25477 0.60716 0.16073 0.0
C1073 C 0.27334 0.62495 0.14905 0.0
C1074 C 0.23168 0.59641 0.14912 0.0
C1075 C 0.2267 0.60309 0.12556 0.0
C1076 C 0.24484 0.62124 0.11408 0.0
H1077 H 0.081 0.57865 0.04764 0.0
H1078 H 0.12122 0.5955 0.06882 0.0
C1079 C 0.26787 0.63203 0.12566 0.0
C1080 C 0.20247 0.59126 0.113 0.0
H1081 H 0.17987 0.55746 0.06354 0.0
C1082 C 0.17851 0.59394 0.12249 0.0
C1083 C 0.20292 0.57753 0.09173 0.0
C1084 C 0.22798 0.57302 0.0813 0.0
C1085 C 0.15505 0.58379 0.11097 0.0
C1086 C 0.15556 0.57082 0.08922 0.0
C1087 C 0.17949 0.56761 0.08006 0.0
C1088 C 0.13146 0.56052 0.0757 0.0
C1089 C 0.12988 0.58682 0.12231 0.0
C1090 C 0.12417 0.53526 0.07181 0.0
C1091 C 0.10116 0.52551 0.05958 0.0
C1092 C 0.08505 0.54086 0.0508 0.0
C1093 C 0.0928 0.56622 0.05421 0.0
C1094 C 0.11575 0.57592 0.06648 0.0
H1095 H 0.13236 0.59155 0.14164 0.0
H1096 H 0.12272 0.60182 0.11314 0.0
H1097 H 0.11488 0.5699 0.12048 0.0
H1098 H 0.13608 0.52303 0.07862 0.0
H1099 H 0.09587 0.50591 0.05729 0.0
H1100 H 0.24754 0.37095 0.62746 0.0
H1101 H 0.28433 0.38968 0.60238 0.0
H1102 H 0.30688 0.4461 0.6553 0.0
H1103 H 0.27023 0.42754 0.68043 0.0
H1104 H 0.29946 0.43628 0.5822 0.0
H1105 H 0.37234 0.41805 0.64803 0.0
H1106 H 0.33844 0.40408 0.65017 0.0
H1107 H 0.34973 0.43491 0.66029 0.0
C1108 C 0.26013 0.38752 0.63363 0.0
C1109 C 0.25605 0.39757 0.65611 0.0
C1110 C 0.28123 0.39815 0.6193 0.0
C1111 C 0.29871 0.41901 0.62716 0.0
C1112 C 0.29407 0.42965 0.64912 0.0
H1113 H 0.44065 0.51005 0.57768 0.0
H1114 H 0.40042 0.49151 0.59771 0.0
C1115 C 0.27307 0.41901 0.66348 0.0
C1116 C 0.32207 0.42941 0.61271 0.0
H1117 H 0.38821 0.44386 0.6153 0.0
C1118 C 0.31888 0.4378 0.58935 0.0
C1119 C 0.34744 0.43127 0.62199 0.0
C1120 C 0.35229 0.42139 0.6464 0.0
C1121 C 0.34034 0.44871 0.57537 0.0
C1122 C 0.36565 0.45098 0.58487 0.0
C1123 C 0.36881 0.44224 0.60806 0.0
C1124 C 0.38921 0.46291 0.57145 0.0
C1125 C 0.33572 0.45838 0.55083 0.0
C1126 C 0.39635 0.45308 0.54986 0.0
C1127 C 0.4195 0.46367 0.53827 0.0
C1128 C 0.43604 0.48421 0.54813 0.0
C1129 C 0.42854 0.49419 0.56955 0.0
C1130 C 0.40548 0.48362 0.58108 0.0
H1131 H 0.31525 0.46023 0.54836 0.0
H1132 H 0.34853 0.47643 0.54774 0.0
H1133 H 0.34023 0.44557 0.53702 0.0
H1134 H 0.38435 0.43686 0.54229 0.0
H1135 H 0.42469 0.45544 0.52188 0.0
H1136 H 0.75162 0.71718 0.92812 0.0
H1137 H 0.77583 0.68713 0.94301 0.0
H1138 H 0.80946 0.68337 0.87298 0.0
H1139 H 0.78431 0.71235 0.85765 0.0
H1140 H 0.80124 0.63915 0.89606 0.0
H1141 H 0.85226 0.7135 0.95527 0.0
H1142 H 0.81796 0.70487 0.96009 0.0
H1143 H 0.83002 0.71874 0.93218 0.0
C1144 C 0.76348 0.70935 0.91568 0.0
C1145 C 0.76648 0.71756 0.89181 0.0
C1146 C 0.77754 0.69239 0.9243 0.0
C1147 C 0.79504 0.68364 0.90928 0.0
C1148 C 0.7963 0.69013 0.88496 0.0
H1149 H 0.9423 0.64979 0.94004 0.0
H1150 H 0.90469 0.66618 0.92773 0.0
C1151 C 0.78208 0.70686 0.87628 0.0
C1152 C 0.81413 0.67002 0.91916 0.0
H1153 H 0.86666 0.67644 0.95625 0.0
C1154 C 0.81541 0.64714 0.9094 0.0
C1155 C 0.83285 0.68074 0.93627 0.0
C1156 C 0.83346 0.70589 0.94645 0.0
C1157 C 0.83525 0.6349 0.91593 0.0
C1158 C 0.85395 0.64568 0.93302 0.0
C1159 C 0.85224 0.66823 0.94321 0.0
C1160 C 0.87649 0.63481 0.93955 0.0
C1161 C 0.83668 0.61112 0.90373 0.0
C1162 C 0.87312 0.6117 0.95026 0.0
C1163 C 0.89465 0.60209 0.957 0.0
C1164 C 0.91995 0.61556 0.95341 0.0
C1165 C 0.92317 0.63874 0.94271 0.0
C1166 C 0.90167 0.64823 0.93585 0.0
H1167 H 0.82468 0.60831 0.88719 0.0
H1168 H 0.85699 0.6104 0.89897 0.0
H1169 H 0.82939 0.59579 0.91614 0.0
H1170 H 0.85386 0.60121 0.95368 0.0
H1171 H 0.89146 0.58407 0.96496 0.0
H1172 H 0.37939 0.78984 0.18158 0.0
H1173 H 0.39084 0.8297 0.16169 0.0
H1174 H 0.44876 0.80374 0.12005 0.0
H1175 H 0.43718 0.76386 0.13943 0.0
H1176 H 0.43999 0.86264 0.15974 0.0
H1177 H 0.40485 0.83092 0.06914 0.0
H1178 H 0.39551 0.81314 0.09588 0.0
H1179 H 0.42663 0.8137 0.08245 0.0
C1180 C 0.39446 0.79256 0.16808 0.0
C1181 C 0.40735 0.77357 0.16215 0.0
C1182 C 0.40106 0.8154 0.15681 0.0
C1183 C 0.42043 0.81963 0.13914 0.0
C1184 C 0.43349 0.80082 0.13336 0.0
H1185 H 0.50947 0.95358 0.08051 0.0
H1186 H 0.49332 0.91541 0.1018 0.0
C1187 C 0.42703 0.77808 0.14469 0.0
C1188 C 0.42732 0.84376 0.12691 0.0
H1189 H 0.43045 0.87103 0.07179 0.0
C1190 C 0.43776 0.86451 0.14054 0.0
C1191 C 0.42413 0.84628 0.10188 0.0
C1192 C 0.41195 0.82489 0.08646 0.0
C1193 C 0.44581 0.88752 0.12971 0.0
C1194 C 0.44357 0.88984 0.10455 0.0
C1195 C 0.43239 0.86924 0.09103 0.0
C1196 C 0.45321 0.91336 0.09187 0.0
C1197 C 0.45657 0.9092 0.14532 0.0
C1198 C 0.43614 0.92477 0.07877 0.0
C1199 C 0.44533 0.9467 0.06651 0.0
C1200 C 0.47187 0.95753 0.06687 0.0
C1201 C 0.48891 0.94589 0.07987 0.0
C1202 C 0.47968 0.92408 0.0922 0.0
H1203 H 0.45082 0.90584 0.16437 0.0
H1204 H 0.47805 0.91288 0.14443 0.0
H1205 H 0.44988 0.92577 0.13903 0.0
H1206 H 0.41566 0.91676 0.0781 0.0
H1207 H 0.43165 0.95502 0.05658 0.0
H1208 H 0.10113 0.27587 0.6355 0.0
H1209 H 0.08089 0.24069 0.61114 0.0
H1210 H 0.10567 0.19219 0.6623 0.0
H1211 H 0.12499 0.227 0.68709 0.0
H1212 H 0.10342 0.20633 0.58923 0.0
H1213 H 0.03007 0.16097 0.6542 0.0
H1214 H 0.04744 0.19196 0.6581 0.0
H1215 H 0.06225 0.16676 0.66639 0.0
C1216 C 0.10185 0.2577 0.6418 0.0
C1217 C 0.11475 0.25438 0.66332 0.0
C1218 C 0.09044 0.23759 0.62774 0.0
C1219 C 0.09143 0.21369 0.63497 0.0
C1220 C 0.10415 0.21034 0.65649 0.0
H1221 H 0.07399 0.08291 0.54654 0.0
H1222 H 0.09002 0.11987 0.56989 0.0
C1223 C 0.11551 0.23037 0.67054 0.0
C1224 C 0.08009 0.19228 0.61969 0.0
H1225 H 0.03824 0.13703 0.62066 0.0
C1226 C 0.08903 0.19126 0.59606 0.0
C1227 C 0.06105 0.17269 0.62842 0.0
C1228 C 0.04943 0.1732 0.65308 0.0
C1229 C 0.07999 0.17099 0.58119 0.0
C1230 C 0.06184 0.1509 0.5903 0.0
C1231 C 0.05239 0.15222 0.61372 0.0
C1232 C 0.05219 0.12844 0.57583 0.0
C1233 C 0.08973 0.17146 0.55573 0.0
C1234 C 0.0255 0.12044 0.57183 0.0
C1235 C 0.01624 0.09915 0.55867 0.0
C1236 C 0.03343 0.08522 0.54923 0.0
C1237 C 0.06016 0.09319 0.55337 0.0
C1238 C 0.0694 0.11448 0.56661 0.0
H1239 H 0.0973 0.19041 0.5495 0.0
H1240 H 0.1058 0.16132 0.55477 0.0
H1241 H 0.07416 0.16269 0.54329 0.0
H1242 H 0.01178 0.13078 0.57883 0.0
H1243 H 0.99553 0.09364 0.55591 0.0
H1244 H 0.77382 0.36683 0.36259 0.0
H1245 H 0.73864 0.38123 0.38303 0.0
H1246 H 0.71823 0.31244 0.4202 0.0
H1247 H 0.75336 0.29786 0.39972 0.0
H1248 H 0.67656 0.32584 0.39916 0.0
H1249 H 0.73166 0.40311 0.45169 0.0
H1250 H 0.73974 0.40496 0.42041 0.0
H1251 H 0.74686 0.3802 0.43815 0.0
C1252 C 0.76218 0.35495 0.37548 0.0
C1253 C 0.76636 0.33122 0.37956 0.0
C1254 C 0.7421 0.36322 0.38718 0.0
C1255 C 0.72604 0.34803 0.40338 0.0
C1256 C 0.73046 0.32448 0.40781 0.0
H1257 H 0.60886 0.39843 0.49041 0.0
H1258 H 0.64594 0.38128 0.47739 0.0
C1259 C 0.75045 0.31616 0.39604 0.0
C1260 C 0.70354 0.35608 0.41438 0.0
H1261 H 0.68612 0.40173 0.44726 0.0
C1262 C 0.67866 0.3423 0.40988 0.0
C1263 C 0.70633 0.37738 0.42862 0.0
C1264 C 0.73261 0.39214 0.43523 0.0
C1265 C 0.65644 0.34968 0.41857 0.0
C1266 C 0.65918 0.37167 0.43172 0.0
C1267 C 0.68407 0.38501 0.43693 0.0
C1268 C 0.63643 0.38149 0.43965 0.0
C1269 C 0.63025 0.33383 0.41363 0.0
C1270 C 0.61896 0.38748 0.42272 0.0
C1271 C 0.59783 0.39727 0.43008 0.0
C1272 C 0.59387 0.40147 0.45452 0.0
C1273 C 0.61149 0.39555 0.47145 0.0
C1274 C 0.63261 0.38569 0.46406 0.0
H1275 H 0.63182 0.31468 0.40977 0.0
H1276 H 0.61694 0.33388 0.42905 0.0
H1277 H 0.62154 0.34097 0.39769 0.0
H1278 H 0.62192 0.38495 0.40375 0.0
H1279 H 0.58493 0.4021 0.41657 0.0
loop_
_geom_bond_atom_site_label_1
_geom_bond_atom_site_label_2
_geom_bond_distance
_geom_bond_site_symmetry_2
_ccdc_geom_bond_type
P0 O11 1.490 . S
P0 C14 1.812 . S
P0 C20 1.803 . S
P0 C26 1.819 . S
H1 C15 0.941 . S
H2 C16 0.939 . S
H3 C18 0.940 . S
H4 C19 0.940 . S
H5 C21 0.939 . S
H6 C22 0.942 . S
H7 C24 0.940 . S
H8 C25 0.939 . S
H9 C27 0.941 . S
H10 C31 0.939 . S
O11 P0 1.490 . S
H12 C28 0.939 . S
H13 C30 0.940 . S
C14 P0 1.812 . S
C14 C15 1.389 . S
C14 C19 1.391 . S
C15 H1 0.941 . S
C15 C14 1.389 . S
C15 C16 1.397 . S
C16 H2 0.939 . S
C16 C15 1.397 . S
C16 C17 1.378 . S
C17 C16 1.378 . S
C17 C18 1.378 . S
C18 H3 0.940 . S
C18 C17 1.378 . S
C18 C19 1.396 . S
C19 H4 0.940 . S
C19 C14 1.391 . S
C19 C18 1.396 . S
C20 P0 1.803 . S
C20 C21 1.378 . S
C20 C25 1.400 . S
C21 H5 0.939 . S
C21 C20 1.378 . S
C21 C22 1.361 . S
C22 H6 0.942 . S
C22 C21 1.361 . S
C22 C23 1.369 . S
C23 C22 1.369 . S
C23 C24 1.404 . S
C24 H7 0.940 . S
C24 C23 1.404 . S
C24 C25 1.389 . S
C25 H8 0.939 . S
C25 C20 1.400 . S
C25 C24 1.389 . S
C26 P0 1.819 . S
C26 C27 1.391 . S
C26 C31 1.391 . S
C27 H9 0.941 . S
C27 C26 1.391 . S
C27 C28 1.396 . S
C28 H12 0.939 . S
C28 C27 1.396 . S
C28 C29 1.397 . S
C29 C28 1.397 . S
C29 C30 1.385 . S
C30 H13 0.940 . S
C30 C29 1.385 . S
C30 C31 1.388 . S
C31 H10 0.939 . S
C31 C26 1.391 . S
C31 C30 1.388 . S
P32 O43 1.490 . S
P32 C46 1.812 . S
P32 C52 1.803 . S
P32 C58 1.819 . S
H33 C47 0.941 . S
H34 C48 0.939 . S
H35 C50 0.940 . S
H36 C51 0.940 . S
H37 C53 0.939 . S
H38 C54 0.942 . S
H39 C56 0.940 . S
H40 C57 0.939 . S
H41 C59 0.941 . S
H42 C63 0.939 . S
O43 P32 1.490 . S
H44 C60 0.939 . S
H45 C62 0.940 . S
C46 P32 1.812 . S
C46 C47 1.389 . S
C46 C51 1.391 . S
C47 H33 0.941 . S
C47 C46 1.389 . S
C47 C48 1.397 . S
C48 H34 0.939 . S
C48 C47 1.397 . S
C48 C49 1.378 . S
C49 C48 1.378 . S
C49 C50 1.378 . S
C50 H35 0.940 . S
C50 C49 1.378 . S
C50 C51 1.396 . S
C51 H36 0.940 . S
C51 C46 1.391 . S
C51 C50 1.396 . S
C52 P32 1.803 . S
C52 C53 1.378 . S
C52 C57 1.400 . S
C53 H37 0.939 . S
C53 C52 1.378 . S
C53 C54 1.361 . S
C54 H38 0.942 . S
C54 C53 1.361 . S
C54 C55 1.369 . S
C55 C54 1.369 . S
C55 C56 1.404 . S
C56 H39 0.940 . S
C56 C55 1.404 . S
C56 C57 1.389 . S
C57 H40 0.939 . S
C57 C52 1.400 . S
C57 C56 1.389 . S
C58 P32 1.819 . S
C58 C59 1.391 . S
C58 C63 1.391 . S
C59 H41 0.941 . S
C59 C58 1.391 . S
C59 C60 1.396 . S
C60 H44 0.939 . S
C60 C59 1.396 . S
C60 C61 1.397 . S
C61 C60 1.397 . S
C61 C62 1.385 . S
C62 H45 0.940 . S
C62 C61 1.385 . S
C62 C63 1.388 . S
C63 H42 0.939 . S
C63 C58 1.391 . S
C63 C62 1.388 . S
P64 O75 1.490 . S
P64 C78 1.812 . S
P64 C84 1.803 . S
P64 C90 1.819 . S
H65 C79 0.941 . S
H66 C80 0.939 . S
H67 C82 0.940 . S
H68 C83 0.940 . S
H69 C85 0.939 . S
H70 C86 0.942 . S
H71 C88 0.940 . S
H72 C89 0.939 . S
H73 C91 0.941 . S
H74 C95 0.939 . S
O75 P64 1.490 . S
H76 C92 0.939 . S
H77 C94 0.940 . S
C78 P64 1.812 . S
C78 C79 1.389 . S
C78 C83 1.391 . S
C79 H65 0.941 . S
C79 C78 1.389 . S
C79 C80 1.397 . S
C80 H66 0.939 . S
C80 C79 1.397 . S
C80 C81 1.378 . S
C81 C80 1.378 . S
C81 C82 1.378 . S
C82 H67 0.940 . S
C82 C81 1.378 . S
C82 C83 1.396 . S
C83 H68 0.940 . S
C83 C78 1.391 . S
C83 C82 1.396 . S
C84 P64 1.803 . S
C84 C85 1.378 . S
C84 C89 1.400 . S
C85 H69 0.939 . S
C85 C84 1.378 . S
C85 C86 1.361 . S
C86 H70 0.942 . S
C86 C85 1.361 . S
C86 C87 1.369 . S
C87 C86 1.369 . S
C87 C88 1.404 . S
C88 H71 0.940 . S
C88 C87 1.404 . S
C88 C89 1.389 . S
C89 H72 0.939 . S
C89 C84 1.400 . S
C89 C88 1.389 . S
C90 P64 1.819 . S
C90 C91 1.391 . S
C90 C95 1.391 . S
C91 H73 0.941 . S
C91 C90 1.391 . S
C91 C92 1.396 . S
C92 H76 0.939 . S
C92 C91 1.396 . S
C92 C93 1.397 . S
C93 C92 1.397 . S
C93 C94 1.385 . S
C94 H77 0.940 . S
C94 C93 1.385 . S
C94 C95 1.388 . S
C95 H74 0.939 . S
C95 C90 1.391 . S
C95 C94 1.388 . S
P96 O107 1.490 . S
P96 C110 1.812 . S
P96 C116 1.803 . S
P96 C122 1.819 . S
H97 C111 0.941 . S
H98 C112 0.939 . S
H99 C114 0.940 . S
H100 C115 0.940 . S
H101 C117 0.939 . S
H102 C118 0.942 . S
H103 C120 0.940 . S
H104 C121 0.939 . S
H105 C123 0.941 . S
H106 C127 0.939 . S
O107 P96 1.490 . S
H108 C124 0.939 . S
H109 C126 0.940 . S
C110 P96 1.812 . S
C110 C111 1.389 . S
C110 C115 1.391 . S
C111 H97 0.941 . S
C111 C110 1.389 . S
C111 C112 1.397 . S
C112 H98 0.939 . S
C112 C111 1.397 . S
C112 C113 1.378 . S
C113 C112 1.378 . S
C113 C114 1.378 . S
C114 H99 0.940 . S
C114 C113 1.378 . S
C114 C115 1.396 . S
C115 H100 0.940 . S
C115 C110 1.391 . S
C115 C114 1.396 . S
C116 P96 1.803 . S
C116 C117 1.378 . S
C116 C121 1.400 . S
C117 H101 0.939 . S
C117 C116 1.378 . S
C117 C118 1.361 . S
C118 H102 0.942 . S
C118 C117 1.361 . S
C118 C119 1.369 . S
C119 C118 1.369 . S
C119 C120 1.404 . S
C120 H103 0.940 . S
C120 C119 1.404 . S
C120 C121 1.389 . S
C121 H104 0.939 . S
C121 C116 1.400 . S
C121 C120 1.389 . S
C122 P96 1.819 . S
C122 C123 1.391 . S
C122 C127 1.391 . S
C123 H105 0.941 . S
C123 C122 1.391 . S
C123 C124 1.396 . S
C124 H108 0.939 . S
C124 C123 1.396 . S
C124 C125 1.397 . S
C125 C124 1.397 . S
C125 C126 1.385 . S
C126 H109 0.940 . S
C126 C125 1.385 . S
C126 C127 1.388 . S
C127 H106 0.939 . S
C127 C122 1.391 . S
C127 C126 1.388 . S
P128 O139 1.490 . S
P128 C142 1.812 . S
P128 C148 1.803 . S
P128 C154 1.819 . S
H129 C143 0.941 . S
H130 C144 0.939 . S
H131 C146 0.940 . S
H132 C147 0.940 . S
H133 C149 0.939 . S
H134 C150 0.942 . S
H135 C152 0.940 . S
H136 C153 0.939 . S
H137 C155 0.941 . S
H138 C159 0.939 . S
O139 P128 1.490 . S
H140 C156 0.939 . S
H141 C158 0.940 . S
C142 P128 1.812 . S
C142 C143 1.389 . S
C142 C147 1.391 . S
C143 H129 0.941 . S
C143 C142 1.389 . S
C143 C144 1.397 . S
C144 H130 0.939 . S
C144 C143 1.397 . S
C144 C145 1.378 . S
C145 C144 1.378 . S
C145 C146 1.378 . S
C146 H131 0.940 . S
C146 C145 1.378 . S
C146 C147 1.396 . S
C147 H132 0.940 . S
C147 C142 1.391 . S
C147 C146 1.396 . S
C148 P128 1.803 . S
C148 C149 1.378 . S
C148 C153 1.400 . S
C149 H133 0.939 . S
C149 C148 1.378 . S
C149 C150 1.361 . S
C150 H134 0.942 . S
C150 C149 1.361 . S
C150 C151 1.369 . S
C151 C150 1.369 . S
C151 C152 1.404 . S
C152 H135 0.940 . S
C152 C151 1.404 . S
C152 C153 1.389 . S
C153 H136 0.939 . S
C153 C148 1.400 . S
C153 C152 1.389 . S
C154 P128 1.819 . S
C154 C155 1.391 . S
C154 C159 1.391 . S
C155 H137 0.941 . S
C155 C154 1.391 . S
C155 C156 1.396 . S
C156 H140 0.939 . S
C156 C155 1.396 . S
C156 C157 1.397 . S
C157 C156 1.397 . S
C157 C158 1.385 . S
C158 H141 0.940 . S
C158 C157 1.385 . S
C158 C159 1.388 . S
C159 H138 0.939 . S
C159 C154 1.391 . S
C159 C158 1.388 . S
P160 O171 1.490 . S
P160 C174 1.812 . S
P160 C180 1.803 . S
P160 C186 1.819 . S
H161 C175 0.941 . S
H162 C176 0.939 . S
H163 C178 0.940 . S
H164 C179 0.940 . S
H165 C181 0.939 . S
H166 C182 0.942 . S
H167 C184 0.940 . S
H168 C185 0.939 . S
H169 C187 0.941 . S
H170 C191 0.939 . S
O171 P160 1.490 . S
H172 C188 0.939 . S
H173 C190 0.940 . S
C174 P160 1.812 . S
C174 C175 1.389 . S
C174 C179 1.391 . S
C175 H161 0.941 . S
C175 C174 1.389 . S
C175 C176 1.397 . S
C176 H162 0.939 . S
C176 C175 1.397 . S
C176 C177 1.378 . S
C177 C176 1.378 . S
C177 C178 1.378 . S
C178 H163 0.940 . S
C178 C177 1.378 . S
C178 C179 1.396 . S
C179 H164 0.940 . S
C179 C174 1.391 . S
C179 C178 1.396 . S
C180 P160 1.803 . S
C180 C181 1.378 . S
C180 C185 1.400 . S
C181 H165 0.939 . S
C181 C180 1.378 . S
C181 C182 1.361 . S
C182 H166 0.942 . S
C182 C181 1.361 . S
C182 C183 1.369 . S
C183 C182 1.369 . S
C183 C184 1.404 . S
C184 H167 0.940 . S
C184 C183 1.404 . S
C184 C185 1.389 . S
C185 H168 0.939 . S
C185 C180 1.400 . S
C185 C184 1.389 . S
C186 P160 1.819 . S
C186 C187 1.391 . S
C186 C191 1.391 . S
C187 H169 0.941 . S
C187 C186 1.391 . S
C187 C188 1.396 . S
C188 H172 0.939 . S
C188 C187 1.396 . S
C188 C189 1.397 . S
C189 C188 1.397 . S
C189 C190 1.385 . S
C190 H173 0.940 . S
C190 C189 1.385 . S
C190 C191 1.388 . S
C191 H170 0.939 . S
C191 C186 1.391 . S
C191 C190 1.388 . S
P192 O203 1.490 . S
P192 C206 1.812 . S
P192 C212 1.803 . S
P192 C218 1.819 . S
H193 C207 0.941 . S
H194 C208 0.939 . S
H195 C210 0.940 . S
H196 C211 0.940 . S
H197 C213 0.939 . S
H198 C214 0.942 . S
H199 C216 0.940 . S
H200 C217 0.939 . S
H201 C219 0.941 . S
H202 C223 0.939 . S
O203 P192 1.490 . S
H204 C220 0.939 . S
H205 C222 0.940 . S
C206 P192 1.812 . S
C206 C207 1.389 . S
C206 C211 1.391 . S
C207 H193 0.941 . S
C207 C206 1.389 . S
C207 C208 1.397 . S
C208 H194 0.939 . S
C208 C207 1.397 . S
C208 C209 1.378 . S
C209 C208 1.378 . S
C209 C210 1.378 . S
C210 H195 0.940 . S
C210 C209 1.378 . S
C210 C211 1.396 . S
C211 H196 0.940 . S
C211 C206 1.391 . S
C211 C210 1.396 . S
C212 P192 1.803 . S
C212 C213 1.378 . S
C212 C217 1.400 . S
C213 H197 0.939 . S
C213 C212 1.378 . S
C213 C214 1.361 . S
C214 H198 0.942 . S
C214 C213 1.361 . S
C214 C215 1.369 . S
C215 C214 1.369 . S
C215 C216 1.404 . S
C216 H199 0.940 . S
C216 C215 1.404 . S
C216 C217 1.389 . S
C217 H200 0.939 . S
C217 C212 1.400 . S
C217 C216 1.389 . S
C218 P192 1.819 . S
C218 C219 1.391 . S
C218 C223 1.391 . S
C219 H201 0.941 . S
C219 C218 1.391 . S
C219 C220 1.396 . S
C220 H204 0.939 . S
C220 C219 1.396 . S
C220 C221 1.397 . S
C221 C220 1.397 . S
C221 C222 1.385 . S
C222 H205 0.940 . S
C222 C221 1.385 . S
C222 C223 1.388 . S
C223 H202 0.939 . S
C223 C218 1.391 . S
C223 C222 1.388 . S
P224 O235 1.490 . S
P224 C238 1.812 . S
P224 C244 1.803 . S
P224 C250 1.819 . S
H225 C239 0.941 . S
H226 C240 0.939 . S
H227 C242 0.940 . S
H228 C243 0.940 . S
H229 C245 0.939 . S
H230 C246 0.942 . S
H231 C248 0.940 . S
H232 C249 0.939 . S
H233 C251 0.941 . S
H234 C255 0.939 . S
O235 P224 1.490 . S
H236 C252 0.939 . S
H237 C254 0.940 . S
C238 P224 1.812 . S
C238 C239 1.389 . S
C238 C243 1.391 . S
C239 H225 0.941 . S
C239 C238 1.389 . S
C239 C240 1.397 . S
C240 H226 0.939 . S
C240 C239 1.397 . S
C240 C241 1.378 . S
C241 C240 1.378 . S
C241 C242 1.378 . S
C242 H227 0.940 . S
C242 C241 1.378 . S
C242 C243 1.396 . S
C243 H228 0.940 . S
C243 C238 1.391 . S
C243 C242 1.396 . S
C244 P224 1.803 . S
C244 C245 1.378 . S
C244 C249 1.400 . S
C245 H229 0.939 . S
C245 C244 1.378 . S
C245 C246 1.361 . S
C246 H230 0.942 . S
C246 C245 1.361 . S
C246 C247 1.369 . S
C247 C246 1.369 . S
C247 C248 1.404 . S
C248 H231 0.940 . S
C248 C247 1.404 . S
C248 C249 1.389 . S
C249 H232 0.939 . S
C249 C244 1.400 . S
C249 C248 1.389 . S
C250 P224 1.819 . S
C250 C251 1.391 . S
C250 C255 1.391 . S
C251 H233 0.941 . S
C251 C250 1.391 . S
C251 C252 1.396 . S
C252 H236 0.939 . S
C252 C251 1.396 . S
C252 C253 1.397 . S
C253 C252 1.397 . S
C253 C254 1.385 . S
C254 H237 0.940 . S
C254 C253 1.385 . S
C254 C255 1.388 . S
C255 H234 0.939 . S
C255 C250 1.391 . S
C255 C254 1.388 . S
Dy256 O259 2.307 1_545 S
Dy256 O261 2.395 . S
Dy256 O262 2.379 . S
Dy256 O264 2.339 1_545 S
Dy256 O266 2.336 . S
Dy256 O270 2.275 . S
Dy256 C278 2.738 . S
Dy257 O260 2.298 1_645 S
Dy257 O263 2.275 1_545 S
Dy257 O265 2.307 . S
Dy257 O267 2.395 1_545 S
Dy257 O268 2.379 1_545 S
Dy257 O271 2.339 . S
Dy257 C287 2.738 1_545 S
C258 O270 1.254 . S
C258 O271 1.257 1_455 S
O259 Dy256 2.307 1_565 S
O259 C269 1.266 . S
O260 Dy257 2.298 1_465 S
O260 C269 1.236 . S
O261 Dy256 2.395 . S
O261 C278 1.255 . S
O262 Dy256 2.379 . S
O262 C278 1.249 . S
O263 Dy257 2.275 1_565 S
O263 C279 1.254 . S
O264 Dy256 2.339 1_565 S
O264 C279 1.257 1_455 S
O265 Dy257 2.307 . S
O265 C280 1.266 . S
O266 Dy256 2.336 . S
O266 C280 1.198 1_455 S
O267 Dy257 2.395 1_565 S
O267 C287 1.255 . S
O268 Dy257 2.379 1_565 S
O268 C287 1.249 . S
C269 O259 1.266 . S
C269 O260 1.236 . S
O270 Dy256 2.275 . S
O270 C258 1.254 . S
O271 Dy257 2.339 . S
O271 C258 1.257 1_655 S
C272 C275 1.344 . S
C272 C276 1.328 . S
C272 C278 1.516 . S
C273 C274 1.304 . S
C273 C277 1.323 . S
C274 C273 1.304 . S
C274 C275 1.371 . S
C274 H288 0.930 . S
C275 C272 1.344 . S
C275 C274 1.371 . S
C275 H289 0.931 . S
C276 C272 1.328 . S
C276 C277 1.433 . S
C276 H290 0.931 . S
C277 C273 1.323 . S
C277 C276 1.433 . S
C277 H291 0.933 . S
C278 Dy256 2.738 . S
C278 O261 1.255 . S
C278 O262 1.249 . S
C278 C272 1.516 . S
C279 O263 1.254 . S
C279 O264 1.257 1_655 S
C280 O265 1.266 . S
C280 O266 1.198 1_655 S
C281 C284 1.344 . S
C281 C285 1.328 . S
C281 C287 1.516 . S
C282 C283 1.304 . S
C282 C286 1.323 . S
C283 C282 1.304 . S
C283 C284 1.371 . S
C283 H292 0.930 . S
C284 C281 1.344 . S
C284 C283 1.371 . S
C284 H293 0.931 . S
C285 C281 1.328 . S
C285 C286 1.433 . S
C285 H294 0.931 . S
C286 C282 1.323 . S
C286 C285 1.433 . S
C286 H295 0.933 . S
C287 Dy257 2.738 1_565 S
C287 O267 1.255 . S
C287 O268 1.249 . S
C287 C281 1.516 . S
H288 C274 0.930 . S
H289 C275 0.931 . S
H290 C276 0.931 . S
H291 C277 0.933 . S
H292 C283 0.930 . S
H293 C284 0.931 . S
H294 C285 0.931 . S
H295 C286 0.933 . S
Dy296 O299 2.307 1_556 S
Dy296 O301 2.395 1_545 S
Dy296 O302 2.377 1_545 S
Dy296 O304 2.339 . S
Dy296 O306 2.298 1_545 S
Dy296 O310 2.275 1_546 S
Dy296 C318 2.738 1_545 S
Dy297 O300 2.298 . S
Dy297 O303 2.275 1_554 S
Dy297 O305 2.307 1_544 S
Dy297 O307 2.395 . S
Dy297 O308 2.379 . S
Dy297 O311 2.339 1_545 S
Dy297 C327 2.738 . S
C298 O310 1.254 . S
C298 O311 1.257 . S
O299 Dy296 2.307 1_554 S
O299 C309 1.266 . S
O300 Dy297 2.298 . S
O300 C309 1.236 . S
O301 Dy296 2.395 1_565 S
O301 C318 1.255 . S
O302 Dy296 2.377 1_565 S
O302 C318 1.260 . S
O303 Dy297 2.275 1_556 S
O303 C319 1.254 . S
O304 Dy296 2.339 . S
O304 C319 1.257 . S
O305 Dy297 2.307 1_566 S
O305 C320 1.266 . S
O306 Dy296 2.298 1_565 S
O306 C320 1.236 . S
O307 Dy297 2.395 . S
O307 C327 1.255 . S
O308 Dy297 2.379 . S
O308 C327 1.249 . S
C309 O299 1.266 . S
C309 O300 1.236 . S
O310 Dy296 2.275 1_564 S
O310 C298 1.254 . S
O311 Dy297 2.339 1_565 S
O311 C298 1.257 . S
C312 C315 1.344 . S
C312 C316 1.328 . S
C312 C318 1.516 . S
C313 C314 1.304 . S
C313 C317 1.323 . S
C314 C313 1.304 . S
C314 C315 1.371 . S
C314 H328 0.930 . S
C315 C312 1.344 . S
C315 C314 1.371 . S
C315 H329 0.931 . S
C316 C312 1.328 . S
C316 C317 1.433 . S
C316 H330 0.931 . S
C317 C313 1.323 . S
C317 C316 1.433 . S
C317 H331 0.933 . S
C318 Dy296 2.738 1_565 S
C318 O301 1.255 . S
C318 O302 1.260 . S
C318 C312 1.516 . S
C319 O303 1.254 . S
C319 O304 1.257 . S
C320 O305 1.266 . S
C320 O306 1.236 . S
C321 C324 1.344 . S
C321 C325 1.328 . S
C321 C327 1.516 . S
C322 C323 1.304 . S
C322 C326 1.323 . S
C323 C322 1.304 . S
C323 C324 1.371 . S
C323 H332 0.930 . S
C324 C321 1.344 . S
C324 C323 1.371 . S
C324 H333 0.931 . S
C325 C321 1.328 . S
C325 C326 1.433 . S
C325 H334 0.931 . S
C326 C322 1.323 . S
C326 C325 1.433 . S
C326 H335 0.933 . S
C327 Dy297 2.738 . S
C327 O307 1.255 . S
C327 O308 1.249 . S
C327 C321 1.516 . S
H328 C314 0.930 . S
H329 C315 0.931 . S
H330 C316 0.931 . S
H331 C317 0.933 . S
H332 C323 0.930 . S
H333 C324 0.931 . S
H334 C325 0.931 . S
H335 C326 0.933 . S
Dy336 O339 2.307 . S
Dy336 O341 2.395 . S
Dy336 O342 2.379 . S
Dy336 O344 2.339 . S
Dy336 O346 2.298 . S
Dy336 O350 2.275 . S
Dy336 C358 2.738 . S
Dy337 O340 2.298 . S
Dy337 O343 2.275 . S
Dy337 O345 2.307 . S
Dy337 O347 2.395 . S
Dy337 O348 2.379 . S
Dy337 O351 2.339 . S
Dy337 C367 2.738 . S
C338 O350 1.254 . S
C338 O351 1.257 . S
O339 Dy336 2.307 . S
O339 C349 1.266 . S
O340 Dy337 2.298 . S
O340 C349 1.236 . S
O341 Dy336 2.395 . S
O341 C358 1.255 . S
O342 Dy336 2.379 . S
O342 C358 1.249 . S
O343 Dy337 2.275 . S
O343 C359 1.254 . S
O344 Dy336 2.339 . S
O344 C359 1.257 . S
O345 Dy337 2.307 . S
O345 C360 1.266 . S
O346 Dy336 2.298 . S
O346 C360 1.236 . S
O347 Dy337 2.395 . S
O347 C367 1.255 . S
O348 Dy337 2.379 . S
O348 C367 1.249 . S
C349 O339 1.266 . S
C349 O340 1.236 . S
O350 Dy336 2.275 . S
O350 C338 1.254 . S
O351 Dy337 2.339 . S
O351 C338 1.257 . S
C352 C355 1.344 . S
C352 C356 1.328 . S
C352 C358 1.516 . S
C353 C354 1.304 . S
C353 C357 1.323 . S
C354 C353 1.304 . S
C354 C355 1.371 . S
C354 H368 0.930 . S
C355 C352 1.344 . S
C355 C354 1.371 . S
C355 H369 0.931 . S
C356 C352 1.328 . S
C356 C357 1.433 . S
C356 H370 0.931 . S
C357 C353 1.323 . S
C357 C356 1.433 . S
C357 H371 0.933 . S
C358 Dy336 2.738 . S
C358 O341 1.255 . S
C358 O342 1.249 . S
C358 C352 1.516 . S
C359 O343 1.254 . S
C359 O344 1.257 . S
C360 O345 1.266 . S
C360 O346 1.236 . S
C361 C364 1.344 . S
C361 C365 1.328 . S
C361 C367 1.516 . S
C362 C363 1.304 . S
C362 C366 1.323 . S
C363 C362 1.304 . S
C363 C364 1.371 . S
C363 H372 0.930 . S
C364 C361 1.344 . S
C364 C363 1.371 . S
C364 H373 0.931 . S
C365 C361 1.328 . S
C365 C366 1.433 . S
C365 H374 0.931 . S
C366 C362 1.323 . S
C366 C365 1.433 . S
C366 H375 0.933 . S
C367 Dy337 2.738 . S
C367 O347 1.255 . S
C367 O348 1.249 . S
C367 C361 1.516 . S
H368 C354 0.930 . S
H369 C355 0.931 . S
H370 C356 0.931 . S
H371 C357 0.933 . S
H372 C363 0.930 . S
H373 C364 0.931 . S
H374 C365 0.931 . S
H375 C366 0.933 . S
Dy376 O379 2.307 1_556 S
Dy376 O381 2.395 1_455 S
Dy376 O382 2.379 1_455 S
Dy376 O384 2.339 . S
Dy376 O386 2.298 1_455 S
Dy376 O390 2.275 1_456 S
Dy376 C398 2.738 1_455 S
Dy377 O380 2.298 . S
Dy377 O383 2.275 1_554 S
Dy377 O385 2.307 1_455 S
Dy377 O387 2.395 . S
Dy377 O388 2.379 . S
Dy377 O391 2.339 1_455 S
Dy377 C407 2.738 . S
C378 O390 1.254 . S
C378 O391 1.257 . S
O379 Dy376 2.307 1_554 S
O379 C389 1.266 . S
O380 Dy377 2.298 . S
O380 C389 1.236 . S
O381 Dy376 2.395 1_655 S
O381 C398 1.255 . S
O382 Dy376 2.379 1_655 S
O382 C398 1.249 . S
O383 Dy377 2.275 1_556 S
O383 C399 1.254 . S
O384 Dy376 2.339 . S
O384 C399 1.257 . S
O385 Dy377 2.307 1_655 S
O385 C400 1.266 1_554 S
O386 Dy376 2.298 1_655 S
O386 C400 1.236 . S
O387 Dy377 2.395 . S
O387 C407 1.255 . S
O388 Dy377 2.379 . S
O388 C407 1.249 . S
C389 O379 1.266 . S
C389 O380 1.236 . S
O390 Dy376 2.275 1_654 S
O390 C378 1.254 . S
O391 Dy377 2.339 1_655 S
O391 C378 1.257 . S
C392 C395 1.344 . S
C392 C396 1.328 . S
C392 C398 1.516 . S
C393 C394 1.304 . S
C393 C397 1.323 . S
C394 C393 1.304 . S
C394 C395 1.371 . S
C394 H408 0.930 . S
C395 C392 1.344 . S
C395 C394 1.371 . S
C395 H409 0.931 . S
C396 C392 1.328 . S
C396 C397 1.433 . S
C396 H410 0.931 . S
C397 C393 1.323 . S
C397 C396 1.433 . S
C397 H411 0.933 . S
C398 Dy376 2.738 1_655 S
C398 O381 1.255 . S
C398 O382 1.249 . S
C398 C392 1.516 . S
C399 O383 1.254 . S
C399 O384 1.257 . S
C400 O385 1.266 1_556 S
C400 O386 1.236 . S
C401 C404 1.344 . S
C401 C405 1.328 . S
C401 C407 1.516 . S
C402 C403 1.304 . S
C402 C406 1.323 . S
C403 C402 1.304 . S
C403 C404 1.371 . S
C403 H412 0.930 . S
C404 C401 1.344 . S
C404 C403 1.371 . S
C404 H413 0.931 . S
C405 C401 1.328 . S
C405 C406 1.433 . S
C405 H414 0.931 . S
C406 C402 1.323 . S
C406 C405 1.433 . S
C406 H415 0.933 . S
C407 Dy377 2.738 . S
C407 O387 1.255 . S
C407 O388 1.249 . S
C407 C401 1.516 . S
H408 C394 0.930 . S
H409 C395 0.931 . S
H410 C396 0.931 . S
H411 C397 0.933 . S
H412 C403 0.930 . S
H413 C404 0.931 . S
H414 C405 0.931 . S
H415 C406 0.933 . S
H416 C424 0.929 . S
H417 C426 0.930 . S
H418 C428 0.930 . S
H419 C431 0.929 . S
H420 C434 0.930 . S
H421 C436 0.960 . S
H422 C436 0.960 . S
H423 C436 0.960 . S
C424 H416 0.929 . S
C424 C425 1.377 . S
C424 C426 1.384 . S
C425 C424 1.377 . S
C425 C431 1.390 . S
C426 H417 0.930 . S
C426 C424 1.384 . S
C426 C427 1.372 . S
C427 C426 1.372 . S
C427 C428 1.400 . S
C427 C432 1.490 . S
C428 H418 0.930 . S
C428 C427 1.400 . S
C428 C431 1.386 . S
H429 C445 0.930 . S
H430 C446 0.931 . S
C431 H419 0.929 . S
C431 C425 1.390 . S
C431 C428 1.386 . S
C432 C427 1.490 . S
C432 C434 1.395 . S
C432 C435 1.403 . S
H433 C439 0.930 . S
C434 H420 0.930 . S
C434 C432 1.395 . S
C434 C437 1.403 . S
C435 C432 1.403 . S
C435 C436 1.524 . S
C435 C439 1.400 . S
C436 H421 0.960 . S
C436 H422 0.960 . S
C436 H423 0.960 . S
C436 C435 1.524 . S
C437 C434 1.403 . S
C437 C438 1.392 . S
C437 C441 1.495 . S
C438 C437 1.392 . S
C438 C439 1.385 . S
C438 C440 1.478 . S
C439 H433 0.930 . S
C439 C435 1.400 . S
C439 C438 1.385 . S
C440 C438 1.478 . S
C440 C442 1.381 . S
C440 C446 1.383 . S
C441 C437 1.495 . S
C441 H447 0.959 . S
C441 H448 0.961 . S
C441 H449 0.960 . S
C442 C440 1.381 . S
C442 C443 1.394 . S
C442 H450 0.930 . S
C443 C442 1.394 . S
C443 C444 1.383 . S
C443 H451 0.929 . S
C444 C443 1.383 . S
C444 C445 1.377 . S
C445 H429 0.930 . S
C445 C444 1.377 . S
C445 C446 1.379 . S
C446 H430 0.931 . S
C446 C440 1.383 . S
C446 C445 1.379 . S
H447 C441 0.959 . S
H448 C441 0.961 . S
H449 C441 0.960 . S
H450 C442 0.930 . S
H451 C443 0.929 . S
H452 C460 0.929 . S
H453 C462 0.930 . S
H454 C464 0.930 . S
H455 C467 0.929 . S
H456 C470 0.930 . S
H457 C472 0.960 . S
H458 C472 0.960 . S
H459 C472 0.960 . S
C460 H452 0.929 . S
C460 C461 1.377 . S
C460 C462 1.384 . S
C461 C460 1.377 . S
C461 C467 1.390 . S
C462 H453 0.930 . S
C462 C460 1.384 . S
C462 C463 1.372 . S
C463 C462 1.372 . S
C463 C464 1.400 . S
C463 C468 1.490 . S
C464 H454 0.930 . S
C464 C463 1.400 . S
C464 C467 1.386 . S
H465 C481 0.930 . S
H466 C482 0.931 . S
C467 H455 0.929 . S
C467 C461 1.390 . S
C467 C464 1.386 . S
C468 C463 1.490 . S
C468 C470 1.395 . S
C468 C471 1.403 . S
H469 C475 0.930 . S
C470 H456 0.930 . S
C470 C468 1.395 . S
C470 C473 1.403 . S
C471 C468 1.403 . S
C471 C472 1.524 . S
C471 C475 1.400 . S
C472 H457 0.960 . S
C472 H458 0.960 . S
C472 H459 0.960 . S
C472 C471 1.524 . S
C473 C470 1.403 . S
C473 C474 1.392 . S
C473 C477 1.495 . S
C474 C473 1.392 . S
C474 C475 1.385 . S
C474 C476 1.478 . S
C475 H469 0.930 . S
C475 C471 1.400 . S
C475 C474 1.385 . S
C476 C474 1.478 . S
C476 C478 1.381 . S
C476 C482 1.383 . S
C477 C473 1.495 . S
C477 H483 0.959 . S
C477 H484 0.961 . S
C477 H485 0.960 . S
C478 C476 1.381 . S
C478 C479 1.394 . S
C478 H486 0.930 . S
C479 C478 1.394 . S
C479 C480 1.383 . S
C479 H487 0.929 . S
C480 C479 1.383 . S
C480 C481 1.377 . S
C481 H465 0.930 . S
C481 C480 1.377 . S
C481 C482 1.379 . S
C482 H466 0.931 . S
C482 C476 1.383 . S
C482 C481 1.379 . S
H483 C477 0.959 . S
H484 C477 0.961 . S
H485 C477 0.960 . S
H486 C478 0.930 . S
H487 C479 0.929 . S
H488 C496 0.929 . S
H489 C498 0.930 . S
H490 C500 0.930 . S
H491 C503 0.929 . S
H492 C506 0.930 . S
H493 C508 0.960 . S
H494 C508 0.960 . S
H495 C508 0.960 . S
C496 H488 0.929 . S
C496 C497 1.377 . S
C496 C498 1.384 . S
C497 C496 1.377 . S
C497 C503 1.390 . S
C498 H489 0.930 . S
C498 C496 1.384 . S
C498 C499 1.372 . S
C499 C498 1.372 . S
C499 C500 1.400 . S
C499 C504 1.490 . S
C500 H490 0.930 . S
C500 C499 1.400 . S
C500 C503 1.386 . S
H501 C517 0.930 . S
H502 C518 0.931 . S
C503 H491 0.929 . S
C503 C497 1.390 . S
C503 C500 1.386 . S
C504 C499 1.490 . S
C504 C506 1.395 . S
C504 C507 1.403 . S
H505 C511 0.930 . S
C506 H492 0.930 . S
C506 C504 1.395 . S
C506 C509 1.403 . S
C507 C504 1.403 . S
C507 C508 1.524 . S
C507 C511 1.400 . S
C508 H493 0.960 . S
C508 H494 0.960 . S
C508 H495 0.960 . S
C508 C507 1.524 . S
C509 C506 1.403 . S
C509 C510 1.392 . S
C509 C513 1.495 . S
C510 C509 1.392 . S
C510 C511 1.385 . S
C510 C512 1.478 . S
C511 H505 0.930 . S
C511 C507 1.400 . S
C511 C510 1.385 . S
C512 C510 1.478 . S
C512 C514 1.381 . S
C512 C518 1.383 . S
C513 C509 1.495 . S
C513 H519 0.959 . S
C513 H520 0.961 . S
C513 H521 0.960 . S
C514 C512 1.381 . S
C514 C515 1.394 . S
C514 H522 0.930 . S
C515 C514 1.394 . S
C515 C516 1.383 . S
C515 H523 0.929 . S
C516 C515 1.383 . S
C516 C517 1.377 . S
C517 H501 0.930 . S
C517 C516 1.377 . S
C517 C518 1.379 . S
C518 H502 0.931 . S
C518 C512 1.383 . S
C518 C517 1.379 . S
H519 C513 0.959 . S
H520 C513 0.961 . S
H521 C513 0.960 . S
H522 C514 0.930 . S
H523 C515 0.929 . S
H524 C532 0.929 . S
H525 C534 0.930 . S
H526 C536 0.930 . S
H527 C539 0.929 . S
H528 C542 0.930 . S
H529 C544 0.960 . S
H530 C544 0.960 . S
H531 C544 0.960 . S
C532 H524 0.929 . S
C532 C533 1.377 . S
C532 C534 1.384 . S
C533 C532 1.377 . S
C533 C539 1.390 . S
C534 H525 0.930 . S
C534 C532 1.384 . S
C534 C535 1.372 . S
C535 C534 1.372 . S
C535 C536 1.400 . S
C535 C540 1.490 . S
C536 H526 0.930 . S
C536 C535 1.400 . S
C536 C539 1.386 . S
H537 C553 0.930 . S
H538 C554 0.931 . S
C539 H527 0.929 . S
C539 C533 1.390 . S
C539 C536 1.386 . S
C540 C535 1.490 . S
C540 C542 1.395 . S
C540 C543 1.403 . S
H541 C547 0.930 . S
C542 H528 0.930 . S
C542 C540 1.395 . S
C542 C545 1.403 . S
C543 C540 1.403 . S
C543 C544 1.524 . S
C543 C547 1.400 . S
C544 H529 0.960 . S
C544 H530 0.960 . S
C544 H531 0.960 . S
C544 C543 1.524 . S
C545 C542 1.403 . S
C545 C546 1.392 . S
C545 C549 1.495 . S
C546 C545 1.392 . S
C546 C547 1.385 . S
C546 C548 1.478 . S
C547 H541 0.930 . S
C547 C543 1.400 . S
C547 C546 1.385 . S
C548 C546 1.478 . S
C548 C550 1.381 . S
C548 C554 1.383 . S
C549 C545 1.495 . S
C549 H555 0.959 . S
C549 H556 0.961 . S
C549 H557 0.960 . S
C550 C548 1.381 . S
C550 C551 1.394 . S
C550 H558 0.930 . S
C551 C550 1.394 . S
C551 C552 1.383 . S
C551 H559 0.929 . S
C552 C551 1.383 . S
C552 C553 1.377 . S
C553 H537 0.930 . S
C553 C552 1.377 . S
C553 C554 1.379 . S
C554 H538 0.931 . S
C554 C548 1.383 . S
C554 C553 1.379 . S
H555 C549 0.959 . S
H556 C549 0.961 . S
H557 C549 0.960 . S
H558 C550 0.930 . S
H559 C551 0.929 . S
H560 C568 0.929 . S
H561 C570 0.930 . S
H562 C572 0.930 . S
H563 C575 0.929 . S
H564 C578 0.930 . S
H565 C580 0.960 . S
H566 C580 0.960 . S
H567 C580 0.960 . S
C568 H560 0.929 . S
C568 C569 1.377 . S
C568 C570 1.384 . S
C569 C568 1.377 . S
C569 C575 1.390 . S
C570 H561 0.930 . S
C570 C568 1.384 . S
C570 C571 1.372 . S
C571 C570 1.372 . S
C571 C572 1.400 . S
C571 C576 1.490 . S
C572 H562 0.930 . S
C572 C571 1.400 . S
C572 C575 1.386 . S
H573 C589 0.930 . S
H574 C590 0.931 . S
C575 H563 0.929 . S
C575 C569 1.390 . S
C575 C572 1.386 . S
C576 C571 1.490 . S
C576 C578 1.395 . S
C576 C579 1.403 . S
H577 C583 0.930 . S
C578 H564 0.930 . S
C578 C576 1.395 . S
C578 C581 1.403 . S
C579 C576 1.403 . S
C579 C580 1.524 . S
C579 C583 1.400 . S
C580 H565 0.960 . S
C580 H566 0.960 . S
C580 H567 0.960 . S
C580 C579 1.524 . S
C581 C578 1.403 . S
C581 C582 1.392 . S
C581 C585 1.495 . S
C582 C581 1.392 . S
C582 C583 1.385 . S
C582 C584 1.478 . S
C583 H577 0.930 . S
C583 C579 1.400 . S
C583 C582 1.385 . S
C584 C582 1.478 . S
C584 C586 1.381 . S
C584 C590 1.383 . S
C585 C581 1.495 . S
C585 H591 0.959 . S
C585 H592 0.961 . S
C585 H593 0.960 . S
C586 C584 1.381 . S
C586 C587 1.394 . S
C586 H594 0.930 . S
C587 C586 1.394 . S
C587 C588 1.383 . S
C587 H595 0.929 . S
C588 C587 1.383 . S
C588 C589 1.377 . S
C589 H573 0.930 . S
C589 C588 1.377 . S
C589 C590 1.379 . S
C590 H574 0.931 . S
C590 C584 1.383 . S
C590 C589 1.379 . S
H591 C585 0.959 . S
H592 C585 0.961 . S
H593 C585 0.960 . S
H594 C586 0.930 . S
H595 C587 0.929 . S
H596 C604 0.929 . S
H597 C606 0.930 . S
H598 C608 0.930 . S
H599 C611 0.929 . S
H600 C614 0.930 . S
H601 C616 0.960 . S
H602 C616 0.960 . S
H603 C616 0.960 . S
C604 H596 0.929 . S
C604 C605 1.377 . S
C604 C606 1.384 . S
C605 C604 1.377 . S
C605 C611 1.390 . S
C606 H597 0.930 . S
C606 C604 1.384 . S
C606 C607 1.372 . S
C607 C606 1.372 . S
C607 C608 1.400 . S
C607 C612 1.490 . S
C608 H598 0.930 . S
C608 C607 1.400 . S
C608 C611 1.386 . S
H609 C625 0.930 . S
H610 C626 0.931 . S
C611 H599 0.929 . S
C611 C605 1.390 . S
C611 C608 1.386 . S
C612 C607 1.490 . S
C612 C614 1.395 . S
C612 C615 1.403 . S
H613 C619 0.930 . S
C614 H600 0.930 . S
C614 C612 1.395 . S
C614 C617 1.403 . S
C615 C612 1.403 . S
C615 C616 1.524 . S
C615 C619 1.400 . S
C616 H601 0.960 . S
C616 H602 0.960 . S
C616 H603 0.960 . S
C616 C615 1.524 . S
C617 C614 1.403 . S
C617 C618 1.392 . S
C617 C621 1.495 . S
C618 C617 1.392 . S
C618 C619 1.385 . S
C618 C620 1.478 . S
C619 H613 0.930 . S
C619 C615 1.400 . S
C619 C618 1.385 . S
C620 C618 1.478 . S
C620 C622 1.381 . S
C620 C626 1.383 . S
C621 C617 1.495 . S
C621 H627 0.959 . S
C621 H628 0.961 . S
C621 H629 0.960 . S
C622 C620 1.381 . S
C622 C623 1.394 . S
C622 H630 0.930 . S
C623 C622 1.394 . S
C623 C624 1.383 . S
C623 H631 0.929 . S
C624 C623 1.383 . S
C624 C625 1.377 . S
C625 H609 0.930 . S
C625 C624 1.377 . S
C625 C626 1.379 . S
C626 H610 0.931 . S
C626 C620 1.383 . S
C626 C625 1.379 . S
H627 C621 0.959 . S
H628 C621 0.961 . S
H629 C621 0.960 . S
H630 C622 0.930 . S
H631 C623 0.929 . S
H632 C640 0.929 . S
H633 C642 0.930 . S
H634 C644 0.930 . S
H635 C647 0.929 . S
H636 C650 0.930 . S
H637 C652 0.960 . S
H638 C652 0.960 . S
H639 C652 0.960 . S
C640 H632 0.929 . S
C640 C641 1.377 . S
C640 C642 1.384 . S
C641 C640 1.377 . S
C641 C647 1.390 . S
C642 H633 0.930 . S
C642 C640 1.384 . S
C642 C643 1.372 . S
C643 C642 1.372 . S
C643 C644 1.400 . S
C643 C648 1.490 . S
C644 H634 0.930 . S
C644 C643 1.400 . S
C644 C647 1.386 . S
H645 C661 0.930 . S
H646 C662 0.931 . S
C647 H635 0.929 . S
C647 C641 1.390 . S
C647 C644 1.386 . S
C648 C643 1.490 . S
C648 C650 1.395 . S
C648 C651 1.403 . S
H649 C655 0.930 . S
C650 H636 0.930 . S
C650 C648 1.395 . S
C650 C653 1.403 . S
C651 C648 1.403 . S
C651 C652 1.524 . S
C651 C655 1.400 . S
C652 H637 0.960 . S
C652 H638 0.960 . S
C652 H639 0.960 . S
C652 C651 1.524 . S
C653 C650 1.403 . S
C653 C654 1.392 . S
C653 C657 1.495 . S
C654 C653 1.392 . S
C654 C655 1.385 . S
C654 C656 1.478 . S
C655 H649 0.930 . S
C655 C651 1.400 . S
C655 C654 1.385 . S
C656 C654 1.478 . S
C656 C658 1.381 . S
C656 C662 1.383 . S
C657 C653 1.495 . S
C657 H663 0.959 . S
C657 H664 0.961 . S
C657 H665 0.960 . S
C658 C656 1.381 . S
C658 C659 1.394 . S
C658 H666 0.930 . S
C659 C658 1.394 . S
C659 C660 1.383 . S
C659 H667 0.929 1_556 S
C660 C659 1.383 . S
C660 C661 1.377 . S
C661 H645 0.930 . S
C661 C660 1.377 . S
C661 C662 1.379 . S
C662 H646 0.931 . S
C662 C656 1.383 . S
C662 C661 1.379 . S
H663 C657 0.959 . S
H664 C657 0.961 . S
H665 C657 0.960 . S
H666 C658 0.930 . S
H667 C659 0.929 1_554 S
H668 C676 0.929 . S
H669 C678 0.930 . S
H670 C680 0.930 . S
H671 C683 0.929 . S
H672 C686 0.930 . S
H673 C688 0.960 . S
H674 C688 0.960 . S
H675 C688 0.960 . S
C676 H668 0.929 . S
C676 C677 1.377 . S
C676 C678 1.384 . S
C677 C676 1.377 . S
C677 C683 1.390 . S
C678 H669 0.930 . S
C678 C676 1.384 . S
C678 C679 1.372 . S
C679 C678 1.372 . S
C679 C680 1.400 . S
C679 C684 1.490 . S
C680 H670 0.930 . S
C680 C679 1.400 . S
C680 C683 1.386 . S
H681 C697 0.930 . S
H682 C698 0.931 . S
C683 H671 0.929 . S
C683 C677 1.390 . S
C683 C680 1.386 . S
C684 C679 1.490 . S
C684 C686 1.395 . S
C684 C687 1.403 . S
H685 C691 0.930 . S
C686 H672 0.930 . S
C686 C684 1.395 . S
C686 C689 1.403 . S
C687 C684 1.403 . S
C687 C688 1.524 . S
C687 C691 1.400 . S
C688 H673 0.960 . S
C688 H674 0.960 . S
C688 H675 0.960 . S
C688 C687 1.524 . S
C689 C686 1.403 . S
C689 C690 1.392 . S
C689 C693 1.495 . S
C690 C689 1.392 . S
C690 C691 1.385 . S
C690 C692 1.478 . S
C691 H685 0.930 . S
C691 C687 1.400 . S
C691 C690 1.385 . S
C692 C690 1.478 . S
C692 C694 1.381 . S
C692 C698 1.383 . S
C693 C689 1.495 . S
C693 H699 0.959 . S
C693 H700 0.961 . S
C693 H701 0.960 . S
C694 C692 1.381 . S
C694 C695 1.394 . S
C694 H702 0.930 . S
C695 C694 1.394 . S
C695 C696 1.383 . S
C695 H703 0.929 . S
C696 C695 1.383 . S
C696 C697 1.377 . S
C697 H681 0.930 . S
C697 C696 1.377 . S
C697 C698 1.379 . S
C698 H682 0.931 . S
C698 C692 1.383 . S
C698 C697 1.379 . S
H699 C693 0.959 . S
H700 C693 0.961 . S
H701 C693 0.960 . S
H702 C694 0.930 . S
H703 C695 0.929 . S
H704 C712 0.929 . S
H705 C714 0.930 . S
H706 C716 0.930 . S
H707 C719 0.929 . S
H708 C722 0.930 . S
H709 C724 0.960 . S
H710 C724 0.960 . S
H711 C724 0.960 . S
C712 H704 0.929 . S
C712 C713 1.377 . S
C712 C714 1.384 . S
C713 C712 1.377 . S
C713 C719 1.390 . S
C714 H705 0.930 . S
C714 C712 1.384 . S
C714 C715 1.372 . S
C715 C714 1.372 . S
C715 C716 1.400 . S
C715 C720 1.490 . S
C716 H706 0.930 . S
C716 C715 1.400 . S
C716 C719 1.386 . S
H717 C733 0.930 . S
H718 C734 0.931 . S
C719 H707 0.929 . S
C719 C713 1.390 . S
C719 C716 1.386 . S
C720 C715 1.490 . S
C720 C722 1.395 . S
C720 C723 1.403 . S
H721 C727 0.930 . S
C722 H708 0.930 . S
C722 C720 1.395 . S
C722 C725 1.403 . S
C723 C720 1.403 . S
C723 C724 1.524 . S
C723 C727 1.400 . S
C724 H709 0.960 . S
C724 H710 0.960 . S
C724 H711 0.960 . S
C724 C723 1.524 . S
C725 C722 1.403 . S
C725 C726 1.392 . S
C725 C729 1.495 . S
C726 C725 1.392 . S
C726 C727 1.385 . S
C726 C728 1.478 . S
C727 H721 0.930 . S
C727 C723 1.400 . S
C727 C726 1.385 . S
C728 C726 1.478 . S
C728 C730 1.381 . S
C728 C734 1.383 . S
C729 C725 1.495 . S
C729 H735 0.959 . S
C729 H736 0.961 . S
C729 H737 0.960 . S
C730 C728 1.381 . S
C730 C731 1.394 . S
C730 H738 0.930 . S
C731 C730 1.394 . S
C731 C732 1.383 . S
C731 H739 0.929 . S
C732 C731 1.383 . S
C732 C733 1.377 . S
C733 H717 0.930 . S
C733 C732 1.377 . S
C733 C734 1.379 . S
C734 H718 0.931 . S
C734 C728 1.383 . S
C734 C733 1.379 . S
H735 C729 0.959 . S
H736 C729 0.961 . S
H737 C729 0.960 . S
H738 C730 0.930 . S
H739 C731 0.929 . S
H740 C748 0.929 . S
H741 C750 0.930 . S
H742 C752 0.930 . S
H743 C755 0.929 . S
H744 C758 0.930 . S
H745 C760 0.960 . S
H746 C760 0.960 . S
H747 C760 0.960 . S
C748 H740 0.929 . S
C748 C749 1.377 . S
C748 C750 1.384 . S
C749 C748 1.377 . S
C749 C755 1.390 . S
C750 H741 0.930 . S
C750 C748 1.384 . S
C750 C751 1.372 . S
C751 C750 1.372 . S
C751 C752 1.400 . S
C751 C756 1.490 . S
C752 H742 0.930 . S
C752 C751 1.400 . S
C752 C755 1.386 . S
H753 C769 0.930 . S
H754 C770 0.931 . S
C755 H743 0.929 . S
C755 C749 1.390 . S
C755 C752 1.386 . S
C756 C751 1.490 . S
C756 C758 1.395 . S
C756 C759 1.403 . S
H757 C763 0.930 . S
C758 H744 0.930 . S
C758 C756 1.395 . S
C758 C761 1.403 . S
C759 C756 1.403 . S
C759 C760 1.524 . S
C759 C763 1.400 . S
C760 H745 0.960 . S
C760 H746 0.960 . S
C760 H747 0.960 . S
C760 C759 1.524 . S
C761 C758 1.403 . S
C761 C762 1.392 . S
C761 C765 1.495 . S
C762 C761 1.392 . S
C762 C763 1.385 . S
C762 C764 1.478 . S
C763 H757 0.930 . S
C763 C759 1.400 . S
C763 C762 1.385 . S
C764 C762 1.478 . S
C764 C766 1.381 . S
C764 C770 1.383 . S
C765 C761 1.495 . S
C765 H771 0.959 . S
C765 H772 0.961 . S
C765 H773 0.960 . S
C766 C764 1.381 . S
C766 C767 1.394 . S
C766 H774 0.930 . S
C767 C766 1.394 . S
C767 C768 1.383 . S
C767 H775 0.929 . S
C768 C767 1.383 . S
C768 C769 1.377 . S
C769 H753 0.930 . S
C769 C768 1.377 . S
C769 C770 1.379 . S
C770 H754 0.931 . S
C770 C764 1.383 . S
C770 C769 1.379 . S
H771 C765 0.959 . S
H772 C765 0.961 . S
H773 C765 0.960 . S
H774 C766 0.930 . S
H775 C767 0.929 . S
H776 C784 0.929 . S
H777 C786 0.930 . S
H778 C788 0.930 . S
H779 C791 0.929 . S
H780 C794 0.930 . S
H781 C796 0.960 . S
H782 C796 0.960 . S
H783 C796 0.960 . S
C784 H776 0.929 . S
C784 C785 1.377 . S
C784 C786 1.384 . S
C785 C784 1.377 . S
C785 C791 1.390 . S
C786 H777 0.930 . S
C786 C784 1.384 . S
C786 C787 1.372 . S
C787 C786 1.372 . S
C787 C788 1.400 . S
C787 C792 1.490 . S
C788 H778 0.930 . S
C788 C787 1.400 . S
C788 C791 1.386 . S
H789 C805 0.930 1_455 S
H790 C806 0.931 . S
C791 H779 0.929 . S
C791 C785 1.390 . S
C791 C788 1.386 . S
C792 C787 1.490 . S
C792 C794 1.395 . S
C792 C795 1.403 . S
H793 C799 0.930 . S
C794 H780 0.930 . S
C794 C792 1.395 . S
C794 C797 1.403 . S
C795 C792 1.403 . S
C795 C796 1.524 . S
C795 C799 1.400 . S
C796 H781 0.960 . S
C796 H782 0.960 . S
C796 H783 0.960 . S
C796 C795 1.524 . S
C797 C794 1.403 . S
C797 C798 1.392 . S
C797 C801 1.495 . S
C798 C797 1.392 . S
C798 C799 1.385 . S
C798 C800 1.478 . S
C799 H793 0.930 . S
C799 C795 1.400 . S
C799 C798 1.385 . S
C800 C798 1.478 . S
C800 C802 1.381 . S
C800 C806 1.383 . S
C801 C797 1.495 . S
C801 H807 0.959 . S
C801 H808 0.961 . S
C801 H809 0.960 . S
C802 C800 1.381 . S
C802 C803 1.394 . S
C802 H810 0.930 . S
C803 C802 1.394 . S
C803 C804 1.383 . S
C803 H811 0.929 . S
C804 C803 1.383 . S
C804 C805 1.377 . S
C805 H789 0.930 1_655 S
C805 C804 1.377 . S
C805 C806 1.379 . S
C806 H790 0.931 . S
C806 C800 1.383 . S
C806 C805 1.379 . S
H807 C801 0.959 . S
H808 C801 0.961 . S
H809 C801 0.960 . S
H810 C802 0.930 . S
H811 C803 0.929 . S
H812 C820 0.929 . S
H813 C822 0.930 . S
H814 C824 0.930 . S
H815 C827 0.929 . S
H816 C830 0.930 . S
H817 C832 0.960 . S
H818 C832 0.960 . S
H819 C832 0.960 . S
C820 H812 0.929 . S
C820 C821 1.377 . S
C820 C822 1.384 . S
C821 C820 1.377 . S
C821 C827 1.390 . S
C822 H813 0.930 . S
C822 C820 1.384 . S
C822 C823 1.372 . S
C823 C822 1.372 . S
C823 C824 1.400 . S
C823 C828 1.490 . S
C824 H814 0.930 . S
C824 C823 1.400 . S
C824 C827 1.386 . S
H825 C841 0.930 . S
H826 C842 0.931 . S
C827 H815 0.929 . S
C827 C821 1.390 . S
C827 C824 1.386 . S
C828 C823 1.490 . S
C828 C830 1.395 . S
C828 C831 1.403 . S
H829 C835 0.930 . S
C830 H816 0.930 . S
C830 C828 1.395 . S
C830 C833 1.403 . S
C831 C828 1.403 . S
C831 C832 1.524 . S
C831 C835 1.400 . S
C832 H817 0.960 . S
C832 H818 0.960 . S
C832 H819 0.960 . S
C832 C831 1.524 . S
C833 C830 1.403 . S
C833 C834 1.392 . S
C833 C837 1.495 . S
C834 C833 1.392 . S
C834 C835 1.385 . S
C834 C836 1.478 . S
C835 H829 0.930 . S
C835 C831 1.400 . S
C835 C834 1.385 . S
C836 C834 1.478 . S
C836 C838 1.381 . S
C836 C842 1.383 . S
C837 C833 1.495 . S
C837 H843 0.959 . S
C837 H844 0.961 . S
C837 H845 0.960 . S
C838 C836 1.381 . S
C838 C839 1.394 . S
C838 H846 0.930 . S
C839 C838 1.394 . S
C839 C840 1.383 . S
C839 H847 0.929 . S
C840 C839 1.383 . S
C840 C841 1.377 . S
C841 H825 0.930 . S
C841 C840 1.377 . S
C841 C842 1.379 . S
C842 H826 0.931 . S
C842 C836 1.383 . S
C842 C841 1.379 . S
H843 C837 0.959 . S
H844 C837 0.961 . S
H845 C837 0.960 . S
H846 C838 0.930 . S
H847 C839 0.929 . S
H848 C856 0.929 . S
H849 C858 0.930 . S
H850 C860 0.930 . S
H851 C863 0.929 . S
H852 C866 0.930 . S
H853 C868 0.960 . S
H854 C868 0.960 . S
H855 C868 0.960 . S
C856 H848 0.929 . S
C856 C857 1.377 . S
C856 C858 1.384 . S
C857 C856 1.377 . S
C857 C863 1.390 . S
C858 H849 0.930 . S
C858 C856 1.384 . S
C858 C859 1.372 . S
C859 C858 1.372 . S
C859 C860 1.400 . S
C859 C864 1.490 . S
C860 H850 0.930 . S
C860 C859 1.400 . S
C860 C863 1.386 . S
H861 C877 0.930 . S
H862 C878 0.931 . S
C863 H851 0.929 . S
C863 C857 1.390 . S
C863 C860 1.386 . S
C864 C859 1.490 . S
C864 C866 1.395 . S
C864 C867 1.403 . S
H865 C871 0.930 . S
C866 H852 0.930 . S
C866 C864 1.395 . S
C866 C869 1.403 . S
C867 C864 1.403 . S
C867 C868 1.524 . S
C867 C871 1.400 . S
C868 H853 0.960 . S
C868 H854 0.960 . S
C868 H855 0.960 . S
C868 C867 1.524 . S
C869 C866 1.403 . S
C869 C870 1.392 . S
C869 C873 1.495 . S
C870 C869 1.392 . S
C870 C871 1.385 . S
C870 C872 1.478 . S
C871 H865 0.930 . S
C871 C867 1.400 . S
C871 C870 1.385 . S
C872 C870 1.478 . S
C872 C874 1.381 . S
C872 C878 1.383 . S
C873 C869 1.495 . S
C873 H879 0.959 . S
C873 H880 0.961 . S
C873 H881 0.960 . S
C874 C872 1.381 . S
C874 C875 1.394 . S
C874 H882 0.930 . S
C875 C874 1.394 . S
C875 C876 1.383 . S
C875 H883 0.929 . S
C876 C875 1.383 . S
C876 C877 1.377 . S
C877 H861 0.930 . S
C877 C876 1.377 . S
C877 C878 1.379 . S
C878 H862 0.931 . S
C878 C872 1.383 . S
C878 C877 1.379 . S
H879 C873 0.959 . S
H880 C873 0.961 . S
H881 C873 0.960 . S
H882 C874 0.930 . S
H883 C875 0.929 . S
H884 C892 0.929 . S
H885 C894 0.930 . S
H886 C896 0.930 . S
H887 C899 0.929 . S
H888 C902 0.930 . S
H889 C904 0.960 . S
H890 C904 0.960 . S
H891 C904 0.960 . S
C892 H884 0.929 . S
C892 C893 1.377 . S
C892 C894 1.384 . S
C893 C892 1.377 . S
C893 C899 1.390 . S
C894 H885 0.930 . S
C894 C892 1.384 . S
C894 C895 1.372 . S
C895 C894 1.372 . S
C895 C896 1.400 . S
C895 C900 1.490 . S
C896 H886 0.930 . S
C896 C895 1.400 . S
C896 C899 1.386 . S
H897 C913 0.930 . S
H898 C914 0.931 . S
C899 H887 0.929 . S
C899 C893 1.390 . S
C899 C896 1.386 . S
C900 C895 1.490 . S
C900 C902 1.395 . S
C900 C903 1.403 . S
H901 C907 0.930 . S
C902 H888 0.930 . S
C902 C900 1.395 . S
C902 C905 1.403 . S
C903 C900 1.403 . S
C903 C904 1.524 . S
C903 C907 1.400 . S
C904 H889 0.960 . S
C904 H890 0.960 . S
C904 H891 0.960 . S
C904 C903 1.524 . S
C905 C902 1.403 . S
C905 C906 1.392 . S
C905 C909 1.495 . S
C906 C905 1.392 . S
C906 C907 1.385 . S
C906 C908 1.478 . S
C907 H901 0.930 . S
C907 C903 1.400 . S
C907 C906 1.385 . S
C908 C906 1.478 . S
C908 C910 1.381 . S
C908 C914 1.383 . S
C909 C905 1.495 . S
C909 H915 0.959 . S
C909 H916 0.961 . S
C909 H917 0.960 . S
C910 C908 1.381 . S
C910 C911 1.394 . S
C910 H918 0.930 . S
C911 C910 1.394 . S
C911 C912 1.383 . S
C911 H919 0.929 . S
C912 C911 1.383 . S
C912 C913 1.377 . S
C913 H897 0.930 . S
C913 C912 1.377 . S
C913 C914 1.379 . S
C914 H898 0.931 . S
C914 C908 1.383 . S
C914 C913 1.379 . S
H915 C909 0.959 . S
H916 C909 0.961 . S
H917 C909 0.960 . S
H918 C910 0.930 . S
H919 C911 0.929 . S
H920 C928 0.929 . S
H921 C930 0.930 . S
H922 C932 0.930 . S
H923 C935 0.929 . S
H924 C938 0.930 . S
H925 C940 0.960 . S
H926 C940 0.960 . S
H927 C940 0.960 . S
C928 H920 0.929 . S
C928 C929 1.377 . S
C928 C930 1.384 . S
C929 C928 1.377 . S
C929 C935 1.390 . S
C930 H921 0.930 . S
C930 C928 1.384 . S
C930 C931 1.372 . S
C931 C930 1.372 . S
C931 C932 1.400 . S
C931 C936 1.490 . S
C932 H922 0.930 . S
C932 C931 1.400 . S
C932 C935 1.386 . S
H933 C949 0.930 . S
H934 C950 0.931 . S
C935 H923 0.929 . S
C935 C929 1.390 . S
C935 C932 1.386 . S
C936 C931 1.490 . S
C936 C938 1.395 . S
C936 C939 1.403 . S
H937 C943 0.930 . S
C938 H924 0.930 . S
C938 C936 1.395 . S
C938 C941 1.403 . S
C939 C936 1.403 . S
C939 C940 1.524 . S
C939 C943 1.400 . S
C940 H925 0.960 . S
C940 H926 0.960 . S
C940 H927 0.960 . S
C940 C939 1.524 . S
C941 C938 1.403 . S
C941 C942 1.392 . S
C941 C945 1.495 . S
C942 C941 1.392 . S
C942 C943 1.385 . S
C942 C944 1.478 . S
C943 H937 0.930 . S
C943 C939 1.400 . S
C943 C942 1.385 . S
C944 C942 1.478 . S
C944 C946 1.381 . S
C944 C950 1.383 . S
C945 C941 1.495 . S
C945 H951 0.959 . S
C945 H952 0.961 . S
C945 H953 0.960 . S
C946 C944 1.381 . S
C946 C947 1.394 . S
C946 H954 0.930 . S
C947 C946 1.394 . S
C947 C948 1.383 . S
C947 H955 0.929 . S
C948 C947 1.383 . S
C948 C949 1.377 . S
C949 H933 0.930 . S
C949 C948 1.377 . S
C949 C950 1.379 . S
C950 H934 0.931 . S
C950 C944 1.383 . S
C950 C949 1.379 . S
H951 C945 0.959 . S
H952 C945 0.961 . S
H953 C945 0.960 . S
H954 C946 0.930 . S
H955 C947 0.929 . S
H956 C964 0.929 . S
H957 C966 0.930 . S
H958 C968 0.930 . S
H959 C971 0.929 . S
H960 C974 0.930 . S
H961 C976 0.960 . S
H962 C976 0.960 . S
H963 C976 0.960 . S
C964 H956 0.929 . S
C964 C965 1.377 . S
C964 C966 1.384 . S
C965 C964 1.377 . S
C965 C971 1.390 . S
C966 H957 0.930 . S
C966 C964 1.384 . S
C966 C967 1.372 . S
C967 C966 1.372 . S
C967 C968 1.400 . S
C967 C972 1.490 . S
C968 H958 0.930 . S
C968 C967 1.400 . S
C968 C971 1.386 . S
H969 C985 0.930 . S
H970 C986 0.931 . S
C971 H959 0.929 . S
C971 C965 1.390 . S
C971 C968 1.386 . S
C972 C967 1.490 . S
C972 C974 1.395 . S
C972 C975 1.403 . S
H973 C979 0.930 . S
C974 H960 0.930 . S
C974 C972 1.395 . S
C974 C977 1.403 . S
C975 C972 1.403 . S
C975 C976 1.524 . S
C975 C979 1.400 . S
C976 H961 0.960 . S
C976 H962 0.960 . S
C976 H963 0.960 . S
C976 C975 1.524 . S
C977 C974 1.403 . S
C977 C978 1.392 . S
C977 C981 1.495 . S
C978 C977 1.392 . S
C978 C979 1.385 . S
C978 C980 1.478 . S
C979 H973 0.930 . S
C979 C975 1.400 . S
C979 C978 1.385 . S
C980 C978 1.478 . S
C980 C982 1.381 . S
C980 C986 1.383 . S
C981 C977 1.495 . S
C981 H987 0.959 . S
C981 H988 0.961 . S
C981 H989 0.960 . S
C982 C980 1.381 . S
C982 C983 1.394 . S
C982 H990 0.930 . S
C983 C982 1.394 . S
C983 C984 1.383 . S
C983 H991 0.929 . S
C984 C983 1.383 . S
C984 C985 1.377 . S
C985 H969 0.930 . S
C985 C984 1.377 . S
C985 C986 1.379 . S
C986 H970 0.931 . S
C986 C980 1.383 . S
C986 C985 1.379 . S
H987 C981 0.959 . S
H988 C981 0.961 . S
H989 C981 0.960 . S
H990 C982 0.930 . S
H991 C983 0.929 . S
H992 C1000 0.929 . S
H993 C1002 0.930 . S
H994 C1004 0.930 . S
H995 C1007 0.929 . S
H996 C1010 0.930 . S
H997 C1012 0.960 . S
H998 C1012 0.960 . S
H999 C1012 0.960 . S
C1000 H992 0.929 . S
C1000 C1001 1.377 . S
C1000 C1002 1.384 . S
C1001 C1000 1.377 . S
C1001 C1007 1.390 . S
C1002 H993 0.930 . S
C1002 C1000 1.384 . S
C1002 C1003 1.372 . S
C1003 C1002 1.372 . S
C1003 C1004 1.400 . S
C1003 C1008 1.490 . S
C1004 H994 0.930 . S
C1004 C1003 1.400 . S
C1004 C1007 1.386 . S
H1005 C1021 0.930 . S
H1006 C1022 0.931 . S
C1007 H995 0.929 . S
C1007 C1001 1.390 . S
C1007 C1004 1.386 . S
C1008 C1003 1.490 . S
C1008 C1010 1.395 . S
C1008 C1011 1.403 . S
H1009 C1015 0.930 . S
C1010 H996 0.930 . S
C1010 C1008 1.395 . S
C1010 C1013 1.403 . S
C1011 C1008 1.403 . S
C1011 C1012 1.524 . S
C1011 C1015 1.400 . S
C1012 H997 0.960 . S
C1012 H998 0.960 . S
C1012 H999 0.960 . S
C1012 C1011 1.524 . S
C1013 C1010 1.403 . S
C1013 C1014 1.392 . S
C1013 C1017 1.495 . S
C1014 C1013 1.392 . S
C1014 C1015 1.385 . S
C1014 C1016 1.478 . S
C1015 H1009 0.930 . S
C1015 C1011 1.400 . S
C1015 C1014 1.385 . S
C1016 C1014 1.478 . S
C1016 C1018 1.381 . S
C1016 C1022 1.383 . S
C1017 C1013 1.495 . S
C1017 H1023 0.959 . S
C1017 H1024 0.961 . S
C1017 H1025 0.960 . S
C1018 C1016 1.381 . S
C1018 C1019 1.394 . S
C1018 H1026 0.930 . S
C1019 C1018 1.394 . S
C1019 C1020 1.383 . S
C1019 H1027 0.929 . S
C1020 C1019 1.383 . S
C1020 C1021 1.377 . S
C1021 H1005 0.930 . S
C1021 C1020 1.377 . S
C1021 C1022 1.379 . S
C1022 H1006 0.931 . S
C1022 C1016 1.383 . S
C1022 C1021 1.379 . S
H1023 C1017 0.959 . S
H1024 C1017 0.961 . S
H1025 C1017 0.960 . S
H1026 C1018 0.930 . S
H1027 C1019 0.929 . S
H1028 C1036 0.929 . S
H1029 C1038 0.930 . S
H1030 C1040 0.930 . S
H1031 C1043 0.929 . S
H1032 C1046 0.930 . S
H1033 C1048 0.960 . S
H1034 C1048 0.960 . S
H1035 C1048 0.960 . S
C1036 H1028 0.929 . S
C1036 C1037 1.377 . S
C1036 C1038 1.384 . S
C1037 C1036 1.377 . S
C1037 C1043 1.390 . S
C1038 H1029 0.930 . S
C1038 C1036 1.384 . S
C1038 C1039 1.372 . S
C1039 C1038 1.372 . S
C1039 C1040 1.400 . S
C1039 C1044 1.490 . S
C1040 H1030 0.930 . S
C1040 C1039 1.400 . S
C1040 C1043 1.386 . S
H1041 C1057 0.930 . S
H1042 C1058 0.931 . S
C1043 H1031 0.929 . S
C1043 C1037 1.390 . S
C1043 C1040 1.386 . S
C1044 C1039 1.490 . S
C1044 C1046 1.395 . S
C1044 C1047 1.403 . S
H1045 C1051 0.930 . S
C1046 H1032 0.930 . S
C1046 C1044 1.395 . S
C1046 C1049 1.403 . S
C1047 C1044 1.403 . S
C1047 C1048 1.524 . S
C1047 C1051 1.400 . S
C1048 H1033 0.960 . S
C1048 H1034 0.960 . S
C1048 H1035 0.960 . S
C1048 C1047 1.524 . S
C1049 C1046 1.403 . S
C1049 C1050 1.392 . S
C1049 C1053 1.495 . S
C1050 C1049 1.392 . S
C1050 C1051 1.385 . S
C1050 C1052 1.478 . S
C1051 H1045 0.930 . S
C1051 C1047 1.400 . S
C1051 C1050 1.385 . S
C1052 C1050 1.478 . S
C1052 C1054 1.381 . S
C1052 C1058 1.383 . S
C1053 C1049 1.495 . S
C1053 H1059 0.959 . S
C1053 H1060 0.961 . S
C1053 H1061 0.960 . S
C1054 C1052 1.381 . S
C1054 C1055 1.394 . S
C1054 H1062 0.930 . S
C1055 C1054 1.394 . S
C1055 C1056 1.383 . S
C1055 H1063 0.929 . S
C1056 C1055 1.383 . S
C1056 C1057 1.377 . S
C1057 H1041 0.930 . S
C1057 C1056 1.377 . S
C1057 C1058 1.379 . S
C1058 H1042 0.931 . S
C1058 C1052 1.383 . S
C1058 C1057 1.379 . S
H1059 C1053 0.959 . S
H1060 C1053 0.961 . S
H1061 C1053 0.960 . S
H1062 C1054 0.930 . S
H1063 C1055 0.929 . S
H1064 C1072 0.929 . S
H1065 C1074 0.930 . S
H1066 C1076 0.930 . S
H1067 C1079 0.929 . S
H1068 C1082 0.930 . S
H1069 C1084 0.960 . S
H1070 C1084 0.960 . S
H1071 C1084 0.960 . S
C1072 H1064 0.929 . S
C1072 C1073 1.377 . S
C1072 C1074 1.384 . S
C1073 C1072 1.377 . S
C1073 C1079 1.390 . S
C1074 H1065 0.930 . S
C1074 C1072 1.384 . S
C1074 C1075 1.372 . S
C1075 C1074 1.372 . S
C1075 C1076 1.400 . S
C1075 C1080 1.490 . S
C1076 H1066 0.930 . S
C1076 C1075 1.400 . S
C1076 C1079 1.386 . S
H1077 C1093 0.930 . S
H1078 C1094 0.931 . S
C1079 H1067 0.929 . S
C1079 C1073 1.390 . S
C1079 C1076 1.386 . S
C1080 C1075 1.490 . S
C1080 C1082 1.395 . S
C1080 C1083 1.403 . S
H1081 C1087 0.930 . S
C1082 H1068 0.930 . S
C1082 C1080 1.395 . S
C1082 C1085 1.403 . S
C1083 C1080 1.403 . S
C1083 C1084 1.524 . S
C1083 C1087 1.400 . S
C1084 H1069 0.960 . S
C1084 H1070 0.960 . S
C1084 H1071 0.960 . S
C1084 C1083 1.524 . S
C1085 C1082 1.403 . S
C1085 C1086 1.392 . S
C1085 C1089 1.495 . S
C1086 C1085 1.392 . S
C1086 C1087 1.385 . S
C1086 C1088 1.478 . S
C1087 H1081 0.930 . S
C1087 C1083 1.400 . S
C1087 C1086 1.385 . S
C1088 C1086 1.478 . S
C1088 C1090 1.381 . S
C1088 C1094 1.383 . S
C1089 C1085 1.495 . S
C1089 H1095 0.959 . S
C1089 H1096 0.961 . S
C1089 H1097 0.960 . S
C1090 C1088 1.381 . S
C1090 C1091 1.394 . S
C1090 H1098 0.930 . S
C1091 C1090 1.394 . S
C1091 C1092 1.383 . S
C1091 H1099 0.929 . S
C1092 C1091 1.383 . S
C1092 C1093 1.377 . S
C1093 H1077 0.930 . S
C1093 C1092 1.377 . S
C1093 C1094 1.379 . S
C1094 H1078 0.931 . S
C1094 C1088 1.383 . S
C1094 C1093 1.379 . S
H1095 C1089 0.959 . S
H1096 C1089 0.961 . S
H1097 C1089 0.960 . S
H1098 C1090 0.930 . S
H1099 C1091 0.929 . S
H1100 C1108 0.929 . S
H1101 C1110 0.930 . S
H1102 C1112 0.930 . S
H1103 C1115 0.929 . S
H1104 C1118 0.930 . S
H1105 C1120 0.960 . S
H1106 C1120 0.960 . S
H1107 C1120 0.960 . S
C1108 H1100 0.929 . S
C1108 C1109 1.377 . S
C1108 C1110 1.384 . S
C1109 C1108 1.377 . S
C1109 C1115 1.390 . S
C1110 H1101 0.930 . S
C1110 C1108 1.384 . S
C1110 C1111 1.372 . S
C1111 C1110 1.372 . S
C1111 C1112 1.400 . S
C1111 C1116 1.490 . S
C1112 H1102 0.930 . S
C1112 C1111 1.400 . S
C1112 C1115 1.386 . S
H1113 C1129 0.930 . S
H1114 C1130 0.931 . S
C1115 H1103 0.929 . S
C1115 C1109 1.390 . S
C1115 C1112 1.386 . S
C1116 C1111 1.490 . S
C1116 C1118 1.395 . S
C1116 C1119 1.403 . S
H1117 C1123 0.930 . S
C1118 H1104 0.930 . S
C1118 C1116 1.395 . S
C1118 C1121 1.403 . S
C1119 C1116 1.403 . S
C1119 C1120 1.524 . S
C1119 C1123 1.400 . S
C1120 H1105 0.960 . S
C1120 H1106 0.960 . S
C1120 H1107 0.960 . S
C1120 C1119 1.524 . S
C1121 C1118 1.403 . S
C1121 C1122 1.392 . S
C1121 C1125 1.495 . S
C1122 C1121 1.392 . S
C1122 C1123 1.385 . S
C1122 C1124 1.478 . S
C1123 H1117 0.930 . S
C1123 C1119 1.400 . S
C1123 C1122 1.385 . S
C1124 C1122 1.478 . S
C1124 C1126 1.381 . S
C1124 C1130 1.383 . S
C1125 C1121 1.495 . S
C1125 H1131 0.959 . S
C1125 H1132 0.961 . S
C1125 H1133 0.960 . S
C1126 C1124 1.381 . S
C1126 C1127 1.394 . S
C1126 H1134 0.930 . S
C1127 C1126 1.394 . S
C1127 C1128 1.383 . S
C1127 H1135 0.929 . S
C1128 C1127 1.383 . S
C1128 C1129 1.377 . S
C1129 H1113 0.930 . S
C1129 C1128 1.377 . S
C1129 C1130 1.379 . S
C1130 H1114 0.931 . S
C1130 C1124 1.383 . S
C1130 C1129 1.379 . S
H1131 C1125 0.959 . S
H1132 C1125 0.961 . S
H1133 C1125 0.960 . S
H1134 C1126 0.930 . S
H1135 C1127 0.929 . S
H1136 C1144 0.929 . S
H1137 C1146 0.930 . S
H1138 C1148 0.930 . S
H1139 C1151 0.929 . S
H1140 C1154 0.930 . S
H1141 C1156 0.960 . S
H1142 C1156 0.960 . S
H1143 C1156 0.960 . S
C1144 H1136 0.929 . S
C1144 C1145 1.377 . S
C1144 C1146 1.384 . S
C1145 C1144 1.377 . S
C1145 C1151 1.390 . S
C1146 H1137 0.930 . S
C1146 C1144 1.384 . S
C1146 C1147 1.372 . S
C1147 C1146 1.372 . S
C1147 C1148 1.400 . S
C1147 C1152 1.490 . S
C1148 H1138 0.930 . S
C1148 C1147 1.400 . S
C1148 C1151 1.386 . S
H1149 C1165 0.930 . S
H1150 C1166 0.931 . S
C1151 H1139 0.929 . S
C1151 C1145 1.390 . S
C1151 C1148 1.386 . S
C1152 C1147 1.490 . S
C1152 C1154 1.395 . S
C1152 C1155 1.403 . S
H1153 C1159 0.930 . S
C1154 H1140 0.930 . S
C1154 C1152 1.395 . S
C1154 C1157 1.403 . S
C1155 C1152 1.403 . S
C1155 C1156 1.524 . S
C1155 C1159 1.400 . S
C1156 H1141 0.960 . S
C1156 H1142 0.960 . S
C1156 H1143 0.960 . S
C1156 C1155 1.524 . S
C1157 C1154 1.403 . S
C1157 C1158 1.392 . S
C1157 C1161 1.495 . S
C1158 C1157 1.392 . S
C1158 C1159 1.385 . S
C1158 C1160 1.478 . S
C1159 H1153 0.930 . S
C1159 C1155 1.400 . S
C1159 C1158 1.385 . S
C1160 C1158 1.478 . S
C1160 C1162 1.381 . S
C1160 C1166 1.383 . S
C1161 C1157 1.495 . S
C1161 H1167 0.959 . S
C1161 H1168 0.961 . S
C1161 H1169 0.960 . S
C1162 C1160 1.381 . S
C1162 C1163 1.394 . S
C1162 H1170 0.930 . S
C1163 C1162 1.394 . S
C1163 C1164 1.383 . S
C1163 H1171 0.929 . S
C1164 C1163 1.383 . S
C1164 C1165 1.377 . S
C1165 H1149 0.930 . S
C1165 C1164 1.377 . S
C1165 C1166 1.379 . S
C1166 H1150 0.931 . S
C1166 C1160 1.383 . S
C1166 C1165 1.379 . S
H1167 C1161 0.959 . S
H1168 C1161 0.961 . S
H1169 C1161 0.960 . S
H1170 C1162 0.930 . S
H1171 C1163 0.929 . S
H1172 C1180 0.929 . S
H1173 C1182 0.930 . S
H1174 C1184 0.930 . S
H1175 C1187 0.929 . S
H1176 C1190 0.930 . S
H1177 C1192 0.960 . S
H1178 C1192 0.960 . S
H1179 C1192 0.960 . S
C1180 H1172 0.929 . S
C1180 C1181 1.377 . S
C1180 C1182 1.384 . S
C1181 C1180 1.377 . S
C1181 C1187 1.390 . S
C1182 H1173 0.930 . S
C1182 C1180 1.384 . S
C1182 C1183 1.372 . S
C1183 C1182 1.372 . S
C1183 C1184 1.400 . S
C1183 C1188 1.490 . S
C1184 H1174 0.930 . S
C1184 C1183 1.400 . S
C1184 C1187 1.386 . S
H1185 C1201 0.930 . S
H1186 C1202 0.931 . S
C1187 H1175 0.929 . S
C1187 C1181 1.390 . S
C1187 C1184 1.386 . S
C1188 C1183 1.490 . S
C1188 C1190 1.395 . S
C1188 C1191 1.403 . S
H1189 C1195 0.930 . S
C1190 H1176 0.930 . S
C1190 C1188 1.395 . S
C1190 C1193 1.403 . S
C1191 C1188 1.403 . S
C1191 C1192 1.524 . S
C1191 C1195 1.400 . S
C1192 H1177 0.960 . S
C1192 H1178 0.960 . S
C1192 H1179 0.960 . S
C1192 C1191 1.524 . S
C1193 C1190 1.403 . S
C1193 C1194 1.392 . S
C1193 C1197 1.495 . S
C1194 C1193 1.392 . S
C1194 C1195 1.385 . S
C1194 C1196 1.478 . S
C1195 H1189 0.930 . S
C1195 C1191 1.400 . S
C1195 C1194 1.385 . S
C1196 C1194 1.478 . S
C1196 C1198 1.381 . S
C1196 C1202 1.383 . S
C1197 C1193 1.495 . S
C1197 H1203 0.959 . S
C1197 H1204 0.961 . S
C1197 H1205 0.960 . S
C1198 C1196 1.381 . S
C1198 C1199 1.394 . S
C1198 H1206 0.930 . S
C1199 C1198 1.394 . S
C1199 C1200 1.383 . S
C1199 H1207 0.929 . S
C1200 C1199 1.383 . S
C1200 C1201 1.377 . S
C1201 H1185 0.930 . S
C1201 C1200 1.377 . S
C1201 C1202 1.379 . S
C1202 H1186 0.931 . S
C1202 C1196 1.383 . S
C1202 C1201 1.379 . S
H1203 C1197 0.959 . S
H1204 C1197 0.961 . S
H1205 C1197 0.960 . S
H1206 C1198 0.930 . S
H1207 C1199 0.929 . S
H1208 C1216 0.929 . S
H1209 C1218 0.930 . S
H1210 C1220 0.930 . S
H1211 C1223 0.929 . S
H1212 C1226 0.930 . S
H1213 C1228 0.960 . S
H1214 C1228 0.960 . S
H1215 C1228 0.960 . S
C1216 H1208 0.929 . S
C1216 C1217 1.377 . S
C1216 C1218 1.384 . S
C1217 C1216 1.377 . S
C1217 C1223 1.390 . S
C1218 H1209 0.930 . S
C1218 C1216 1.384 . S
C1218 C1219 1.372 . S
C1219 C1218 1.372 . S
C1219 C1220 1.400 . S
C1219 C1224 1.490 . S
C1220 H1210 0.930 . S
C1220 C1219 1.400 . S
C1220 C1223 1.386 . S
H1221 C1237 0.930 . S
H1222 C1238 0.931 . S
C1223 H1211 0.929 . S
C1223 C1217 1.390 . S
C1223 C1220 1.386 . S
C1224 C1219 1.490 . S
C1224 C1226 1.395 . S
C1224 C1227 1.403 . S
H1225 C1231 0.930 . S
C1226 H1212 0.930 . S
C1226 C1224 1.395 . S
C1226 C1229 1.403 . S
C1227 C1224 1.403 . S
C1227 C1228 1.524 . S
C1227 C1231 1.400 . S
C1228 H1213 0.960 . S
C1228 H1214 0.960 . S
C1228 H1215 0.960 . S
C1228 C1227 1.524 . S
C1229 C1226 1.403 . S
C1229 C1230 1.392 . S
C1229 C1233 1.495 . S
C1230 C1229 1.392 . S
C1230 C1231 1.385 . S
C1230 C1232 1.478 . S
C1231 H1225 0.930 . S
C1231 C1227 1.400 . S
C1231 C1230 1.385 . S
C1232 C1230 1.478 . S
C1232 C1234 1.381 . S
C1232 C1238 1.383 . S
C1233 C1229 1.495 . S
C1233 H1239 0.959 . S
C1233 H1240 0.961 . S
C1233 H1241 0.960 . S
C1234 C1232 1.381 . S
C1234 C1235 1.394 . S
C1234 H1242 0.930 . S
C1235 C1234 1.394 . S
C1235 C1236 1.383 . S
C1235 H1243 0.929 . S
C1236 C1235 1.383 . S
C1236 C1237 1.377 . S
C1237 H1221 0.930 . S
C1237 C1236 1.377 . S
C1237 C1238 1.379 . S
C1238 H1222 0.931 . S
C1238 C1232 1.383 . S
C1238 C1237 1.379 . S
H1239 C1233 0.959 . S
H1240 C1233 0.961 . S
H1241 C1233 0.960 . S
H1242 C1234 0.930 . S
H1243 C1235 0.929 . S
H1244 C1252 0.929 . S
H1245 C1254 0.930 . S
H1246 C1256 0.930 . S
H1247 C1259 0.929 . S
H1248 C1262 0.930 . S
H1249 C1264 0.960 . S
H1250 C1264 0.960 . S
H1251 C1264 0.960 . S
C1252 H1244 0.929 . S
C1252 C1253 1.377 . S
C1252 C1254 1.384 . S
C1253 C1252 1.377 . S
C1253 C1259 1.390 . S
C1254 H1245 0.930 . S
C1254 C1252 1.384 . S
C1254 C1255 1.372 . S
C1255 C1254 1.372 . S
C1255 C1256 1.400 . S
C1255 C1260 1.490 . S
C1256 H1246 0.930 . S
C1256 C1255 1.400 . S
C1256 C1259 1.386 . S
H1257 C1273 0.930 . S
H1258 C1274 0.931 . S
C1259 H1247 0.929 . S
C1259 C1253 1.390 . S
C1259 C1256 1.386 . S
C1260 C1255 1.490 . S
C1260 C1262 1.395 . S
C1260 C1263 1.403 . S
H1261 C1267 0.930 . S
C1262 H1248 0.930 . S
C1262 C1260 1.395 . S
C1262 C1265 1.403 . S
C1263 C1260 1.403 . S
C1263 C1264 1.524 . S
C1263 C1267 1.400 . S
C1264 H1249 0.960 . S
C1264 H1250 0.960 . S
C1264 H1251 0.960 . S
C1264 C1263 1.524 . S
C1265 C1262 1.403 . S
C1265 C1266 1.392 . S
C1265 C1269 1.495 . S
C1266 C1265 1.392 . S
C1266 C1267 1.385 . S
C1266 C1268 1.478 . S
C1267 H1261 0.930 . S
C1267 C1263 1.400 . S
C1267 C1266 1.385 . S
C1268 C1266 1.478 . S
C1268 C1270 1.381 . S
C1268 C1274 1.383 . S
C1269 C1265 1.495 . S
C1269 H1275 0.959 . S
C1269 H1276 0.961 . S
C1269 H1277 0.960 . S
C1270 C1268 1.381 . S
C1270 C1271 1.394 . S
C1270 H1278 0.930 . S
C1271 C1270 1.394 . S
C1271 C1272 1.383 . S
C1271 H1279 0.929 . S
C1272 C1271 1.383 . S
C1272 C1273 1.377 . S
C1273 H1257 0.930 . S
C1273 C1272 1.377 . S
C1273 C1274 1.379 . S
C1274 H1258 0.931 . S
C1274 C1268 1.383 . S
C1274 C1273 1.379 . S
H1275 C1269 0.959 . S
H1276 C1269 0.961 . S
H1277 C1269 0.960 . S
H1278 C1270 0.930 . S
H1279 C1271 0.929 . S
C425 C29 1.160 . S
C444 C273 1.176 . S
C461 C49 1.017 . S
C480 C313 1.065 . S
C516 C338 2.392 . S
C497 C93 2.387 . S
C533 C119 2.292 . S
C552 C378 2.289 . S
C588 C309 1.668 . S
C569 C17 1.672 . S
C624 C269 1.746 . S
C605 C61 1.596 . S
C660 C400 1.597 . S
C641 C81 1.583 . S
C696 C360 1.621 . S
C677 C125 1.626 . S
C713 C23 1.216 . S
C732 C402 1.221 . S
C768 C319 2.084 . S
C749 C87 2.069 . S
C785 C113 2.138 . S
C804 C279 2.142 . S
C821 C55 1.151 . S
C840 C362 1.216 . S
C876 C282 1.145 . S
C857 C157 1.045 . S
C893 C189 1.159 . S
C912 C322 1.133 . S
C929 C221 2.369 . S
C948 C359 2.326 . S
C965 C253 2.354 . S
C984 C399 2.353 . S
C1001 C145 1.646 . S
C1020 C320 1.767 . S
C1056 C280 1.690 . S
C1037 C183 1.693 . S
C1092 C389 1.628 . S
C1073 C209 1.630 . S
C1128 C349 1.603 . S
C1109 C247 1.575 . S
C1145 C151 1.143 . S
C1164 C393 1.206 . S
C1200 C298 2.056 . S
C1181 C215 2.077 . S
C1236 C258 2.112 . S
C1217 C241 2.088 . S
C1253 C177 1.259 . S
C1272 C353 1.263 . S
