# Generated by pormake.
# Topology eea, (3,6)-cn, num edge types: 1
# Building blocks:
#     Node 0, Type 0, BuildingBlock: MIDCAF_clean_linker_0, # of connection points: 3
#     Node 1, Type 0, BuildingBlock: MIDCAF_clean_linker_0, # of connection points: 3
#     Node 2, Type 0, BuildingBlock: MIDCAF_clean_linker_0, # of connection points: 3
#     Node 3, Type 0, BuildingBlock: MIDCAF_clean_linker_0, # of connection points: 3
#     Node 4, Type 0, BuildingBlock: MIDCAF_clean_linker_0, # of connection points: 3
#     Node 5, Type 0, BuildingBlock: MIDCAF_clean_linker_0, # of connection points: 3
#     Node 6, Type 0, BuildingBlock: MIDCAF_clean_linker_0, # of connection points: 3
#     Node 7, Type 0, BuildingBlock: MIDCAF_clean_linker_0, # of connection points: 3
#     Node 8, Type 0, BuildingBlock: MIDCAF_clean_linker_0, # of connection points: 3
#     Node 9, Type 0, BuildingBlock: MIDCAF_clean_linker_0, # of connection points: 3
#     Node 10, Type 0, BuildingBlock: MIDCAF_clean_linker_0, # of connection points: 3
#     Node 11, Type 0, BuildingBlock: MIDCAF_clean_linker_0, # of connection points: 3
#     Node 12, Type 0, BuildingBlock: MIDCAF_clean_linker_0, # of connection points: 3
#     Node 13, Type 0, BuildingBlock: MIDCAF_clean_linker_0, # of connection points: 3
#     Node 14, Type 0, BuildingBlock: MIDCAF_clean_linker_0, # of connection points: 3
#     Node 15, Type 0, BuildingBlock: MIDCAF_clean_linker_0, # of connection points: 3
#     Node 16, Type 0, BuildingBlock: MIDCAF_clean_linker_0, # of connection points: 3
#     Node 17, Type 0, BuildingBlock: MIDCAF_clean_linker_0, # of connection points: 3
#     Node 18, Type 1, BuildingBlock: CUWYAW_clean_sbu_0, # of connection points: 6
#     Node 19, Type 1, BuildingBlock: CUWYAW_clean_sbu_0, # of connection points: 6
#     Node 20, Type 1, BuildingBlock: CUWYAW_clean_sbu_0, # of connection points: 6
#     Node 21, Type 1, BuildingBlock: CUWYAW_clean_sbu_0, # of connection points: 6
#     Node 22, Type 1, BuildingBlock: CUWYAW_clean_sbu_0, # of connection points: 6
#     Node 23, Type 1, BuildingBlock: CUWYAW_clean_sbu_0, # of connection points: 6
#     Node 24, Type 1, BuildingBlock: CUWYAW_clean_sbu_0, # of connection points: 6
#     Node 25, Type 1, BuildingBlock: CUWYAW_clean_sbu_0, # of connection points: 6
#     Node 26, Type 1, BuildingBlock: CUWYAW_clean_sbu_0, # of connection points: 6
#     Edge 27, Type (0, 1), BuildingBlock: XUDNAN_clean_linker_2, # of connection points: 2
#     Edge 28, Type (0, 1), BuildingBlock: XUDNAN_clean_linker_2, # of connection points: 2
#     Edge 29, Type (0, 1), BuildingBlock: XUDNAN_clean_linker_2, # of connection points: 2
#     Edge 30, Type (0, 1), BuildingBlock: XUDNAN_clean_linker_2, # of connection points: 2
#     Edge 31, Type (0, 1), BuildingBlock: XUDNAN_clean_linker_2, # of connection points: 2
#     Edge 32, Type (0, 1), BuildingBlock: XUDNAN_clean_linker_2, # of connection points: 2
#     Edge 33, Type (0, 1), BuildingBlock: XUDNAN_clean_linker_2, # of connection points: 2
#     Edge 34, Type (0, 1), BuildingBlock: XUDNAN_clean_linker_2, # of connection points: 2
#     Edge 35, Type (0, 1), BuildingBlock: XUDNAN_clean_linker_2, # of connection points: 2
#     Edge 36, Type (0, 1), BuildingBlock: XUDNAN_clean_linker_2, # of connection points: 2
#     Edge 37, Type (0, 1), BuildingBlock: XUDNAN_clean_linker_2, # of connection points: 2
#     Edge 38, Type (0, 1), BuildingBlock: XUDNAN_clean_linker_2, # of connection points: 2
#     Edge 39, Type (0, 1), BuildingBlock: XUDNAN_clean_linker_2, # of connection points: 2
#     Edge 40, Type (0, 1), BuildingBlock: XUDNAN_clean_linker_2, # of connection points: 2
#     Edge 41, Type (0, 1), BuildingBlock: XUDNAN_clean_linker_2, # of connection points: 2
#     Edge 42, Type (0, 1), BuildingBlock: XUDNAN_clean_linker_2, # of connection points: 2
#     Edge 43, Type (0, 1), BuildingBlock: XUDNAN_clean_linker_2, # of connection points: 2
#     Edge 44, Type (0, 1), BuildingBlock: XUDNAN_clean_linker_2, # of connection points: 2
#     Edge 45, Type (0, 1), BuildingBlock: XUDNAN_clean_linker_2, # of connection points: 2
#     Edge 46, Type (0, 1), BuildingBlock: XUDNAN_clean_linker_2, # of connection points: 2
#     Edge 47, Type (0, 1), BuildingBlock: XUDNAN_clean_linker_2, # of connection points: 2
#     Edge 48, Type (0, 1), BuildingBlock: XUDNAN_clean_linker_2, # of connection points: 2
#     Edge 49, Type (0, 1), BuildingBlock: XUDNAN_clean_linker_2, # of connection points: 2
#     Edge 50, Type (0, 1), BuildingBlock: XUDNAN_clean_linker_2, # of connection points: 2
#     Edge 51, Type (0, 1), BuildingBlock: XUDNAN_clean_linker_2, # of connection points: 2
#     Edge 52, Type (0, 1), BuildingBlock: XUDNAN_clean_linker_2, # of connection points: 2
#     Edge 53, Type (0, 1), BuildingBlock: XUDNAN_clean_linker_2, # of connection points: 2
#     Edge 54, Type (0, 1), BuildingBlock: XUDNAN_clean_linker_2, # of connection points: 2
#     Edge 55, Type (0, 1), BuildingBlock: XUDNAN_clean_linker_2, # of connection points: 2
#     Edge 56, Type (0, 1), BuildingBlock: XUDNAN_clean_linker_2, # of connection points: 2
#     Edge 57, Type (0, 1), BuildingBlock: XUDNAN_clean_linker_2, # of connection points: 2
#     Edge 58, Type (0, 1), BuildingBlock: XUDNAN_clean_linker_2, # of connection points: 2
#     Edge 59, Type (0, 1), BuildingBlock: XUDNAN_clean_linker_2, # of connection points: 2
#     Edge 60, Type (0, 1), BuildingBlock: XUDNAN_clean_linker_2, # of connection points: 2
#     Edge 61, Type (0, 1), BuildingBlock: XUDNAN_clean_linker_2, # of connection points: 2
#     Edge 62, Type (0, 1), BuildingBlock: XUDNAN_clean_linker_2, # of connection points: 2
#     Edge 63, Type (0, 1), BuildingBlock: XUDNAN_clean_linker_2, # of connection points: 2
#     Edge 64, Type (0, 1), BuildingBlock: XUDNAN_clean_linker_2, # of connection points: 2
#     Edge 65, Type (0, 1), BuildingBlock: XUDNAN_clean_linker_2, # of connection points: 2
#     Edge 66, Type (0, 1), BuildingBlock: XUDNAN_clean_linker_2, # of connection points: 2
#     Edge 67, Type (0, 1), BuildingBlock: XUDNAN_clean_linker_2, # of connection points: 2
#     Edge 68, Type (0, 1), BuildingBlock: XUDNAN_clean_linker_2, # of connection points: 2
#     Edge 69, Type (0, 1), BuildingBlock: XUDNAN_clean_linker_2, # of connection points: 2
#     Edge 70, Type (0, 1), BuildingBlock: XUDNAN_clean_linker_2, # of connection points: 2
#     Edge 71, Type (0, 1), BuildingBlock: XUDNAN_clean_linker_2, # of connection points: 2
#     Edge 72, Type (0, 1), BuildingBlock: XUDNAN_clean_linker_2, # of connection points: 2
#     Edge 73, Type (0, 1), BuildingBlock: XUDNAN_clean_linker_2, # of connection points: 2
#     Edge 74, Type (0, 1), BuildingBlock: XUDNAN_clean_linker_2, # of connection points: 2
#     Edge 75, Type (0, 1), BuildingBlock: XUDNAN_clean_linker_2, # of connection points: 2
#     Edge 76, Type (0, 1), BuildingBlock: XUDNAN_clean_linker_2, # of connection points: 2
#     Edge 77, Type (0, 1), BuildingBlock: XUDNAN_clean_linker_2, # of connection points: 2
#     Edge 78, Type (0, 1), BuildingBlock: XUDNAN_clean_linker_2, # of connection points: 2
#     Edge 79, Type (0, 1), BuildingBlock: XUDNAN_clean_linker_2, # of connection points: 2
#     Edge 80, Type (0, 1), BuildingBlock: XUDNAN_clean_linker_2, # of connection points: 2
# Relax obj value: 0.035
# Max RMSD: 0.133
# Mean RMSD: 0.075
data_MOF--net-eea--node1-CUWYAW_clean_sbu_0--node2-MIDCAF_clean_linker_0--edge1-XUDNAN_clean_linker_2
_symmetry_space_group_name_H-M    P1
_symmetry_Int_Tables_number       1
_symmetry_cell_setting            triclinic
loop_
_symmetry_equiv_pos_as_xyz
'x, y, z'
_cell_length_a     62.273426
_cell_length_b     61.954864
_cell_length_c     90.338791
_cell_angle_alpha  93.456544
_cell_angle_beta   93.406884
_cell_angle_gamma 119.87477
loop_
_atom_site_label
_atom_site_type_symbol
_atom_site_fract_x
_atom_site_fract_y
_atom_site_fract_z
_atom_type_partial_charge
C0 C 0.2023 0.01922 0.39577 0.0
C1 C 0.1894 0.016 0.38177 0.0
C2 C 0.18602 0.03552 0.37729 0.0
C3 C 0.19494 0.05761 0.38669 0.0
H4 H 0.20548 0.12762 0.38729 0.0
H5 H 0.2033 0.16244 0.37786 0.0
H6 H 0.23084 0.20391 0.42148 0.0
H7 H 0.23352 0.16919 0.43095 0.0
H8 H 0.24623 0.14414 0.45749 0.0
H9 H 0.25781 0.14443 0.48381 0.0
H10 H 0.24539 0.06954 0.47526 0.0
H11 H 0.2335 0.06898 0.44907 0.0
H12 H 0.22056 0.04296 0.41607 0.0
H13 H 0.20503 0.00442 0.39956 0.0
H14 H 0.17642 0.03368 0.36648 0.0
H15 H 0.19173 0.07212 0.38289 0.0
N16 N 0.21442 0.10335 0.40621 0.0
N17 N 0.22942 0.1253 0.43004 0.0
N18 N 0.22371 0.08497 0.42562 0.0
C19 C 0.22134 0.12427 0.41554 0.0
C20 C 0.23066 0.1057 0.43517 0.0
C21 C 0.21558 0.08364 0.41113 0.0
C22 C 0.21975 0.14553 0.40991 0.0
C23 C 0.21107 0.14411 0.39493 0.0
C24 C 0.20963 0.16404 0.38952 0.0
C25 C 0.21682 0.18595 0.39892 0.0
C26 C 0.2254 0.18739 0.4139 0.0
C27 C 0.22683 0.16741 0.41934 0.0
C28 C 0.23876 0.10649 0.4511 0.0
C29 C 0.24601 0.12774 0.46119 0.0
C30 C 0.25278 0.12798 0.47628 0.0
C31 C 0.25236 0.10695 0.48165 0.0
C32 C 0.2455 0.08589 0.47154 0.0
C33 C 0.23882 0.08566 0.45647 0.0
C34 C 0.20728 0.06065 0.40088 0.0
C35 C 0.21105 0.04126 0.40526 0.0
C36 C 0.9858 0.19395 0.40726 0.0
C37 C 0.98183 0.20059 0.39312 0.0
C38 C 0.95719 0.19244 0.38731 0.0
C39 C 0.93712 0.1766 0.39481 0.0
H40 H 0.88257 0.09984 0.38232 0.0
H41 H 0.8554 0.06082 0.3669 0.0
H42 H 0.81483 0.02929 0.40452 0.0
H43 H 0.84184 0.06869 0.42004 0.0
H44 H 0.84987 0.11374 0.44609 0.0
H45 H 0.83979 0.12228 0.47059 0.0
H46 H 0.91733 0.17554 0.48383 0.0
H47 H 0.92765 0.16744 0.45903 0.0
H48 H 0.96902 0.17292 0.42557 0.0
H49 H 0.00441 0.19969 0.4121 0.0
H50 H 0.95325 0.19784 0.37677 0.0
H51 H 0.91837 0.16981 0.38974 0.0
N52 N 0.90274 0.12883 0.40653 0.0
N53 N 0.87854 0.11451 0.42641 0.0
N54 N 0.91588 0.15331 0.42967 0.0
C55 C 0.8823 0.11086 0.41205 0.0
C56 C 0.89513 0.13567 0.43528 0.0
C57 C 0.9196 0.14993 0.41523 0.0
C58 C 0.86463 0.08743 0.40251 0.0
C59 C 0.86783 0.08471 0.38737 0.0
C60 C 0.85229 0.06224 0.3785 0.0
C61 C 0.83315 0.04182 0.38453 0.0
C62 C 0.82934 0.04471 0.39953 0.0
C63 C 0.84492 0.06728 0.40843 0.0
C64 C 0.88959 0.13998 0.45056 0.0
C65 C 0.86489 0.12716 0.4542 0.0
C66 C 0.85905 0.13209 0.4682 0.0
C67 C 0.87778 0.14961 0.479 0.0
C68 C 0.9026 0.16192 0.47564 0.0
C69 C 0.90844 0.15734 0.46146 0.0
C70 C 0.9411 0.16919 0.40857 0.0
C71 C 0.96557 0.17856 0.41499 0.0
C72 C 0.82815 0.79112 0.40658 0.0
C73 C 0.82164 0.78183 0.39136 0.0
C74 C 0.83136 0.76727 0.38547 0.0
C75 C 0.84771 0.76293 0.3943 0.0
H76 H 0.93405 0.79532 0.40074 0.0
H77 H 0.96864 0.79682 0.38851 0.0
H78 H 0.96452 0.73768 0.41328 0.0
H79 H 0.93014 0.73651 0.42586 0.0
H80 H 0.91082 0.74743 0.46162 0.0
H81 H 0.89929 0.73011 0.48542 0.0
H82 H 0.82687 0.72261 0.47662 0.0
H83 H 0.83817 0.73981 0.45294 0.0
H84 H 0.84866 0.79345 0.42719 0.0
H85 H 0.82155 0.80274 0.41158 0.0
H86 H 0.82629 0.75895 0.37402 0.0
H87 H 0.85503 0.75188 0.38937 0.0
N88 N 0.89179 0.76926 0.41282 0.0
N89 N 0.90213 0.75615 0.4346 0.0
N90 N 0.86646 0.76007 0.43239 0.0
C91 C 0.90736 0.76386 0.42081 0.0
C92 C 0.88171 0.75429 0.44049 0.0
C93 C 0.87138 0.76745 0.41855 0.0
C94 C 0.92934 0.76573 0.41422 0.0
C95 C 0.94065 0.78279 0.40369 0.0
C96 C 0.96052 0.78376 0.39675 0.0
C97 C 0.96915 0.76734 0.39996 0.0
C98 C 0.9581 0.75048 0.41061 0.0
C99 C 0.93856 0.7499 0.41783 0.0
C100 C 0.8754 0.74494 0.45529 0.0
C101 C 0.89246 0.74218 0.46478 0.0
C102 C 0.88594 0.73238 0.47844 0.0
C103 C 0.86213 0.72484 0.48281 0.0
C104 C 0.84525 0.72795 0.47345 0.0
C105 C 0.85182 0.73797 0.4599 0.0
C106 C 0.85408 0.77222 0.4094 0.0
C107 C 0.84389 0.78601 0.41555 0.0
C108 C 0.03071 0.2284 0.59699 0.0
C109 C 0.03166 0.22465 0.61214 0.0
C110 C 0.05154 0.22246 0.6185 0.0
C111 C 0.07014 0.22408 0.60992 0.0
H112 H 0.12918 0.21068 0.61051 0.0
H113 H 0.16016 0.20021 0.61985 0.0
H114 H 0.19666 0.22182 0.5797 0.0
H115 H 0.16575 0.23183 0.57025 0.0
H116 H 0.14399 0.24604 0.54471 0.0
H117 H 0.14667 0.2585 0.51967 0.0
H118 H 0.07932 0.26186 0.52194 0.0
H119 H 0.07627 0.24893 0.54714 0.0
H120 H 0.04816 0.23323 0.57679 0.0
H121 H 0.01572 0.23036 0.59181 0.0
H122 H 0.05261 0.21923 0.6301 0.0
H123 H 0.08517 0.22232 0.61523 0.0
N124 N 0.10711 0.22541 0.59156 0.0
N125 N 0.12611 0.2342 0.5694 0.0
N126 N 0.09023 0.23689 0.57164 0.0
C127 C 0.12556 0.22739 0.58342 0.0
C128 C 0.10862 0.23899 0.5634 0.0
C129 C 0.08937 0.23014 0.58576 0.0
C130 C 0.14478 0.22192 0.58956 0.0
C131 C 0.14384 0.21325 0.60368 0.0
C132 C 0.16166 0.20736 0.60908 0.0
C133 C 0.18073 0.20997 0.60045 0.0
C134 C 0.18193 0.21912 0.5865 0.0
C135 C 0.16421 0.22499 0.58111 0.0
C136 C 0.10992 0.24652 0.54804 0.0
C137 C 0.12966 0.2494 0.53996 0.0
C138 C 0.13133 0.25671 0.52559 0.0
C139 C 0.11333 0.26136 0.51886 0.0
C140 C 0.0934 0.25827 0.52681 0.0
C141 C 0.09174 0.25098 0.54127 0.0
C142 C 0.06938 0.22808 0.59478 0.0
C143 C 0.04941 0.23019 0.58841 0.0
C144 C 0.79982 0.8157 0.6071 0.0
C145 C 0.81279 0.82562 0.62135 0.0
C146 C 0.81521 0.8479 0.62792 0.0
C147 C 0.80521 0.86031 0.62034 0.0
H148 H 0.78116 0.90867 0.62838 0.0
H149 H 0.78557 0.9451 0.64276 0.0
H150 H 0.77543 0.97403 0.60223 0.0
H151 H 0.77145 0.93741 0.58758 0.0
H152 H 0.75911 0.9019 0.55678 0.0
H153 H 0.7505 0.89472 0.52979 0.0
H154 H 0.75529 0.82752 0.53006 0.0
H155 H 0.76451 0.83497 0.55705 0.0
H156 H 0.78042 0.82051 0.58832 0.0
H157 H 0.79774 0.7985 0.60182 0.0
H158 H 0.82482 0.85574 0.63898 0.0
H159 H 0.80769 0.87758 0.62577 0.0
N160 N 0.7827 0.88433 0.6053 0.0
N161 N 0.76886 0.89359 0.58324 0.0
N162 N 0.77642 0.85996 0.58293 0.0
C163 C 0.77549 0.89865 0.59819 0.0
C164 C 0.76915 0.87415 0.57553 0.0
C165 C 0.78328 0.86503 0.59784 0.0
C166 C 0.77609 0.92012 0.60678 0.0
C167 C 0.77972 0.92265 0.62244 0.0
C168 C 0.78205 0.9435 0.63075 0.0
C169 C 0.78079 0.96244 0.62365 0.0
C170 C 0.77668 0.9598 0.608 0.0
C171 C 0.77424 0.93876 0.59963 0.0
C172 C 0.76263 0.86909 0.55914 0.0
C173 C 0.75823 0.88551 0.55113 0.0
C174 C 0.75315 0.88132 0.53562 0.0
C175 C 0.75223 0.86055 0.52774 0.0
C176 C 0.75623 0.84391 0.53576 0.0
C177 C 0.7614 0.84813 0.55127 0.0
C178 C 0.79272 0.85086 0.60592 0.0
C179 C 0.79002 0.82833 0.59938 0.0
C180 C 0.19295 0.96096 0.59223 0.0
C181 C 0.19149 0.96922 0.60676 0.0
C182 C 0.17036 0.9543 0.61399 0.0
C183 C 0.15122 0.93143 0.6069 0.0
H184 H 0.09434 0.86437 0.61593 0.0
H185 H 0.06328 0.83558 0.63075 0.0
H186 H 0.02283 0.78536 0.59109 0.0
H187 H 0.054 0.81446 0.57602 0.0
H188 H 0.08314 0.82633 0.54519 0.0
H189 H 0.08472 0.81707 0.51872 0.0
H190 H 0.14721 0.89169 0.51799 0.0
H191 H 0.14608 0.90074 0.54428 0.0
H192 H 0.17555 0.93244 0.5739 0.0
H193 H 0.2089 0.97218 0.58633 0.0
H194 H 0.16883 0.96011 0.62524 0.0
H195 H 0.1353 0.92032 0.61283 0.0
N196 N 0.11446 0.88217 0.59259 0.0
N197 N 0.09605 0.85377 0.57101 0.0
N198 N 0.13225 0.89256 0.57015 0.0
C199 C 0.09614 0.85966 0.58582 0.0
C200 C 0.11412 0.87024 0.5631 0.0
C201 C 0.13258 0.89871 0.58485 0.0
C202 C 0.07681 0.8418 0.59471 0.0
C203 C 0.07888 0.84724 0.61026 0.0
C204 C 0.06112 0.83061 0.61883 0.0
C205 C 0.04068 0.80807 0.61213 0.0
C206 C 0.03833 0.80265 0.59657 0.0
C207 C 0.05626 0.81928 0.58795 0.0
C208 C 0.1145 0.86426 0.54696 0.0
C209 C 0.09723 0.84073 0.53939 0.0
C210 C 0.09808 0.83546 0.52419 0.0
C211 C 0.1162 0.85358 0.51622 0.0
C212 C 0.13332 0.87709 0.5238 0.0
C213 C 0.13253 0.88233 0.53893 0.0
C214 C 0.1527 0.92309 0.59236 0.0
C215 C 0.17374 0.93822 0.58509 0.0
C216 C 0.87234 0.3618 0.73505 0.0
C217 C 0.8586 0.35465 0.72096 0.0
C218 C 0.85433 0.37206 0.71406 0.0
C219 C 0.86309 0.39591 0.72118 0.0
H220 H 0.85375 0.45469 0.71832 0.0
H221 H 0.84588 0.48171 0.70351 0.0
H222 H 0.90222 0.54649 0.73197 0.0
H223 H 0.90957 0.51901 0.7473 0.0
H224 H 0.92298 0.5036 0.78088 0.0
H225 H 0.93749 0.51344 0.80739 0.0
H226 H 0.91672 0.43623 0.81054 0.0
H227 H 0.90307 0.42659 0.78407 0.0
H228 H 0.89124 0.39066 0.75324 0.0
H229 H 0.87588 0.34869 0.7406 0.0
H230 H 0.84418 0.36722 0.70308 0.0
H231 H 0.85917 0.40864 0.71548 0.0
N232 N 0.88095 0.44475 0.73569 0.0
N233 N 0.89816 0.47427 0.7567 0.0
N234 N 0.89492 0.43485 0.75742 0.0
C235 C 0.88763 0.46771 0.74234 0.0
C236 C 0.90178 0.45783 0.76434 0.0
C237 C 0.88459 0.42824 0.74304 0.0
C238 C 0.88252 0.48471 0.73391 0.0
C239 C 0.86454 0.47469 0.72148 0.0
C240 C 0.8601 0.49025 0.7129 0.0
C241 C 0.87374 0.51635 0.71635 0.0
C242 C 0.89132 0.52645 0.72903 0.0
C243 C 0.8956 0.51074 0.73778 0.0
C244 C 0.91178 0.46428 0.7803 0.0
C245 C 0.92167 0.48875 0.78721 0.0
C246 C 0.92987 0.49438 0.80244 0.0
C247 C 0.92822 0.47563 0.81116 0.0
C248 C 0.91868 0.45126 0.80417 0.0
C249 C 0.91068 0.44569 0.78895 0.0
C250 C 0.87632 0.40304 0.73546 0.0
C251 C 0.88103 0.38577 0.74229 0.0
C252 C 0.64947 0.54099 0.74519 0.0
C253 C 0.64849 0.53704 0.72962 0.0
C254 C 0.62809 0.51545 0.72196 0.0
C255 C 0.60888 0.49843 0.72961 0.0
H256 H 0.54807 0.42624 0.72431 0.0
H257 H 0.51394 0.38769 0.71094 0.0
H258 H 0.47095 0.37651 0.74844 0.0
H259 H 0.50475 0.41492 0.76177 0.0
H260 H 0.52854 0.44715 0.79098 0.0
H261 H 0.52462 0.45574 0.81687 0.0
H262 H 0.59674 0.52298 0.82076 0.0
H263 H 0.601 0.51422 0.79466 0.0
H264 H 0.63126 0.52781 0.76484 0.0
H265 H 0.66491 0.55753 0.7514 0.0
H266 H 0.62695 0.51167 0.70998 0.0
H267 H 0.59341 0.48215 0.72323 0.0
N268 N 0.56963 0.46327 0.74551 0.0
N269 N 0.54876 0.45293 0.76694 0.0
N270 N 0.58698 0.49028 0.76771 0.0
C271 C 0.54979 0.44719 0.75238 0.0
C272 C 0.56718 0.47432 0.77473 0.0
C273 C 0.58832 0.48487 0.75306 0.0
C274 C 0.52923 0.42377 0.74414 0.0
C275 C 0.53134 0.4156 0.72971 0.0
C276 C 0.51185 0.39344 0.72207 0.0
C277 C 0.48974 0.37911 0.72862 0.0
C278 C 0.48762 0.38729 0.74301 0.0
C279 C 0.50712 0.40928 0.75069 0.0
C280 C 0.56513 0.48 0.79064 0.0
C281 C 0.54367 0.46382 0.79726 0.0
C282 C 0.54128 0.46883 0.81214 0.0
C283 C 0.56026 0.49014 0.82087 0.0
C284 C 0.58184 0.50632 0.81435 0.0
C285 C 0.58422 0.50134 0.79937 0.0
C286 C 0.60945 0.50259 0.74515 0.0
C287 C 0.6301 0.52401 0.75288 0.0
C288 C 0.49131 0.11899 0.75482 0.0
C289 C 0.48434 0.11585 0.73939 0.0
C290 C 0.49668 0.10822 0.72964 0.0
C291 C 0.51536 0.1037 0.7352 0.0
H292 H 0.57661 0.09951 0.72349 0.0
H293 H 0.60829 0.10223 0.70796 0.0
H294 H 0.65002 0.09762 0.74633 0.0
H295 H 0.61842 0.09509 0.76202 0.0
H296 H 0.59105 0.07913 0.79213 0.0
H297 H 0.58934 0.06716 0.81749 0.0
H298 H 0.52404 0.07384 0.82147 0.0
H299 H 0.526 0.08629 0.79647 0.0
H300 H 0.51446 0.11665 0.77232 0.0
H301 H 0.48271 0.12544 0.76267 0.0
H302 H 0.49161 0.10525 0.71771 0.0
H303 H 0.52433 0.09762 0.72741 0.0
N304 N 0.55822 0.10109 0.74798 0.0
N305 N 0.57624 0.09084 0.76791 0.0
N306 N 0.5416 0.09549 0.77095 0.0
C307 C 0.57597 0.09624 0.75354 0.0
C308 C 0.55901 0.09033 0.77667 0.0
C309 C 0.54105 0.10087 0.75664 0.0
C310 C 0.59494 0.09712 0.74404 0.0
C311 C 0.59249 0.09902 0.72866 0.0
C312 C 0.61057 0.10042 0.71971 0.0
C313 C 0.63161 0.10011 0.72593 0.0
C314 C 0.63408 0.09811 0.74127 0.0
C315 C 0.61589 0.09652 0.75022 0.0
C316 C 0.55868 0.08371 0.7922 0.0
C317 C 0.57642 0.0782 0.79845 0.0
C318 C 0.57539 0.07122 0.81296 0.0
C319 C 0.55662 0.06964 0.82153 0.0
C320 C 0.53904 0.07532 0.8153 0.0
C321 C 0.54008 0.08231 0.80086 0.0
C322 C 0.52187 0.10636 0.75064 0.0
C323 C 0.50967 0.1141 0.76037 0.0
C324 C 0.69699 0.57034 0.9243 0.0
C325 C 0.69224 0.56269 0.93868 0.0
C326 C 0.71126 0.56265 0.94783 0.0
C327 C 0.73404 0.56889 0.94246 0.0
H328 H 0.79737 0.56435 0.95275 0.0
H329 H 0.82156 0.54755 0.96471 0.0
H330 H 0.85991 0.5557 0.9254 0.0
H331 H 0.83642 0.57267 0.9135 0.0
H332 H 0.82195 0.58614 0.88592 0.0
H333 H 0.8268 0.58922 0.85963 0.0
H334 H 0.76229 0.59775 0.85334 0.0
H335 H 0.75712 0.59455 0.88001 0.0
H336 H 0.72245 0.58173 0.90765 0.0
H337 H 0.68286 0.57099 0.91707 0.0
H338 H 0.70817 0.55672 0.95892 0.0
H339 H 0.74794 0.56785 0.94968 0.0
N340 N 0.77786 0.57503 0.92974 0.0
N341 N 0.80149 0.58196 0.90955 0.0
N342 N 0.76516 0.58441 0.90716 0.0
C343 C 0.79803 0.57652 0.92382 0.0
C344 C 0.78534 0.586 0.90112 0.0
C345 C 0.76138 0.57909 0.92154 0.0
C346 C 0.81465 0.56957 0.93206 0.0
C347 C 0.81125 0.56295 0.94675 0.0
C348 C 0.8251 0.55343 0.95363 0.0
C349 C 0.84229 0.55014 0.94585 0.0
C350 C 0.84654 0.55786 0.93153 0.0
C351 C 0.83303 0.56761 0.92475 0.0
C352 C 0.78896 0.58987 0.88516 0.0
C353 C 0.80872 0.58875 0.87907 0.0
C354 C 0.81148 0.59037 0.86392 0.0
C355 C 0.79472 0.59333 0.8544 0.0
C356 C 0.77545 0.59539 0.86046 0.0
C357 C 0.77249 0.59352 0.87571 0.0
C358 C 0.73837 0.57536 0.9278 0.0
C359 C 0.71977 0.57662 0.91893 0.0
C360 C 0.45214 0.14523 0.93376 0.0
C361 C 0.46842 0.15701 0.94686 0.0
C362 C 0.47433 0.18135 0.95207 0.0
C363 C 0.46411 0.1936 0.94446 0.0
H364 H 0.45137 0.25129 0.95187 0.0
H365 H 0.45588 0.28953 0.96424 0.0
H366 H 0.41593 0.29652 0.92581 0.0
H367 H 0.41088 0.25802 0.91352 0.0
H368 H 0.37476 0.20361 0.89203 0.0
H369 H 0.35311 0.19044 0.86694 0.0
H370 H 0.39775 0.15781 0.85524 0.0
H371 H 0.41931 0.17063 0.8806 0.0
H372 H 0.42944 0.14799 0.91602 0.0
H373 H 0.44736 0.12652 0.92943 0.0
H374 H 0.48653 0.19081 0.96225 0.0
H375 H 0.46903 0.21228 0.94894 0.0
N376 N 0.43856 0.21611 0.93064 0.0
N377 N 0.41506 0.21878 0.91041 0.0
N378 N 0.42353 0.1858 0.90994 0.0
C379 C 0.428 0.22819 0.92407 0.0
C380 C 0.41277 0.1977 0.90326 0.0
C381 C 0.43639 0.19491 0.92372 0.0
C382 C 0.43073 0.25147 0.93167 0.0
C383 C 0.44349 0.26091 0.94603 0.0
C384 C 0.44622 0.28296 0.95312 0.0
C385 C 0.43628 0.29611 0.94602 0.0
C386 C 0.42351 0.28667 0.93168 0.0
C387 C 0.42075 0.26462 0.9246 0.0
C388 C 0.39878 0.18819 0.88828 0.0
C389 C 0.37987 0.19346 0.88417 0.0
C390 C 0.36736 0.18581 0.86983 0.0
C391 C 0.37376 0.1731 0.85919 0.0
C392 C 0.39253 0.16763 0.86327 0.0
C393 C 0.40474 0.17484 0.87776 0.0
C394 C 0.44775 0.18189 0.93138 0.0
C395 C 0.44201 0.1576 0.92604 0.0
C396 C 0.84346 0.28332 0.93854 0.0
C397 C 0.84349 0.28297 0.95408 0.0
C398 C 0.82804 0.26032 0.95987 0.0
C399 C 0.81188 0.23883 0.95039 0.0
H400 H 0.75334 0.17081 0.95187 0.0
H401 H 0.71938 0.1402 0.9642 0.0
H402 H 0.67518 0.1076 0.92173 0.0
H403 H 0.70938 0.13886 0.9092 0.0
H404 H 0.75041 0.15555 0.87988 0.0
H405 H 0.75191 0.15538 0.85281 0.0
H406 H 0.7973 0.23593 0.85797 0.0
H407 H 0.79613 0.23621 0.88489 0.0
H408 H 0.82696 0.26282 0.91707 0.0
H409 H 0.85511 0.30055 0.93376 0.0
H410 H 0.82799 0.25936 0.97181 0.0
H411 H 0.79982 0.22193 0.95534 0.0
N412 N 0.77311 0.19775 0.93103 0.0
N413 N 0.75465 0.17694 0.90725 0.0
N414 N 0.79127 0.21637 0.90993 0.0
C415 C 0.75459 0.17763 0.92234 0.0
C416 C 0.77304 0.19628 0.90098 0.0
C417 C 0.79152 0.21716 0.92499 0.0
C418 C 0.73417 0.15743 0.9295 0.0
C419 C 0.7365 0.15711 0.94506 0.0
C420 C 0.71701 0.13936 0.95217 0.0
C421 C 0.69455 0.12134 0.94397 0.0
C422 C 0.6922 0.12135 0.92837 0.0
C423 C 0.71186 0.13915 0.92119 0.0
C424 C 0.77318 0.19589 0.88455 0.0
C425 C 0.76062 0.17322 0.87522 0.0
C426 C 0.76156 0.17309 0.85975 0.0
C427 C 0.77464 0.19565 0.85332 0.0
C428 C 0.78688 0.21829 0.86262 0.0
C429 C 0.78632 0.2184 0.87805 0.0
C430 C 0.81075 0.23939 0.93484 0.0
C431 C 0.82722 0.26172 0.92899 0.0
C432 C 0.56465 0.71755 0.06917 0.0
C433 C 0.55251 0.70753 0.05474 0.0
C434 C 0.54275 0.72023 0.04695 0.0
C435 C 0.54499 0.74238 0.05346 0.0
H436 H 0.51261 0.78905 0.05205 0.0
H437 H 0.49641 0.81052 0.03752 0.0
H438 H 0.55294 0.88144 0.06085 0.0
H439 H 0.56804 0.85958 0.076 0.0
H440 H 0.56944 0.84116 0.11422 0.0
H441 H 0.58471 0.85329 0.14055 0.0
H442 H 0.61684 0.80552 0.13822 0.0
H443 H 0.60091 0.79278 0.11207 0.0
H444 H 0.57626 0.74678 0.08687 0.0
H445 H 0.57212 0.70806 0.07553 0.0
H446 H 0.53359 0.71319 0.03573 0.0
H447 H 0.53725 0.75163 0.0471 0.0
N448 N 0.54981 0.78802 0.06731 0.0
N449 N 0.56315 0.8187 0.08766 0.0
N450 N 0.57052 0.7852 0.08894 0.0
C451 C 0.55179 0.8095 0.07359 0.0
C452 C 0.57249 0.80656 0.09543 0.0
C453 C 0.55924 0.77581 0.07488 0.0
C454 C 0.54165 0.82265 0.0651 0.0
C455 C 0.52147 0.80922 0.05411 0.0
C456 C 0.5123 0.82161 0.0457 0.0
C457 C 0.52348 0.84784 0.04782 0.0
C458 C 0.54353 0.86122 0.059 0.0
C459 C 0.55234 0.84873 0.06765 0.0
C460 C 0.5837 0.81578 0.11106 0.0
C461 C 0.57993 0.83339 0.11929 0.0
C462 C 0.5888 0.84045 0.13439 0.0
C463 C 0.6018 0.83019 0.14156 0.0
C464 C 0.6064 0.81334 0.13315 0.0
C465 C 0.59736 0.80613 0.11811 0.0
C466 C 0.55704 0.75238 0.06793 0.0
C467 C 0.56688 0.7397 0.0757 0.0
C468 C 0.29931 0.86078 0.07223 0.0
C469 C 0.29827 0.85783 0.0566 0.0
C470 C 0.2788 0.83579 0.0487 0.0
C471 C 0.26063 0.81722 0.05621 0.0
H472 H 0.16117 0.72667 0.08824 0.0
H473 H 0.12784 0.68871 0.07422 0.0
H474 H 0.17136 0.70286 0.0368 0.0
H475 H 0.20502 0.74121 0.05081 0.0
H476 H 0.19218 0.75361 0.1199 0.0
H477 H 0.18757 0.76105 0.14587 0.0
H478 H 0.24148 0.83956 0.14573 0.0
H479 H 0.2467 0.83198 0.11972 0.0
H480 H 0.28224 0.84527 0.09178 0.0
H481 H 0.31401 0.87762 0.07861 0.0
H482 H 0.27768 0.83279 0.03668 0.0
H483 H 0.24587 0.80057 0.0497 0.0
N484 N 0.22407 0.77862 0.07207 0.0
N485 N 0.20452 0.76556 0.09378 0.0
N486 N 0.24023 0.80513 0.09449 0.0
C487 C 0.20549 0.7609 0.07905 0.0
C488 C 0.22176 0.78752 0.10161 0.0
C489 C 0.24155 0.80079 0.0797 0.0
C490 C 0.18579 0.73715 0.07064 0.0
C491 C 0.16383 0.72174 0.07706 0.0
C492 C 0.14463 0.70001 0.06902 0.0
C493 C 0.14697 0.69295 0.05441 0.0
C494 C 0.16914 0.70786 0.04808 0.0
C495 C 0.18832 0.72986 0.05608 0.0
C496 C 0.21976 0.79222 0.11765 0.0
C497 C 0.20314 0.7725 0.12537 0.0
C498 C 0.20035 0.77679 0.14028 0.0
C499 C 0.21395 0.80096 0.1479 0.0
C500 C 0.23086 0.82066 0.14027 0.0
C501 C 0.23379 0.81633 0.12532 0.0
C502 C 0.26137 0.82028 0.07183 0.0
C503 C 0.28101 0.84226 0.07975 0.0
C504 C 0.16466 0.47411 0.08752 0.0
C505 C 0.16719 0.47865 0.0725 0.0
C506 C 0.1899 0.485 0.06685 0.0
C507 C 0.20933 0.48573 0.07582 0.0
H508 H 0.2807 0.5026 0.07587 0.0
H509 H 0.31207 0.50314 0.06097 0.0
H510 H 0.33087 0.46543 0.09347 0.0
H511 H 0.29901 0.46456 0.1086 0.0
H512 H 0.26986 0.45766 0.14046 0.0
H513 H 0.25841 0.43456 0.16251 0.0
H514 H 0.18309 0.41951 0.15378 0.0
H515 H 0.19424 0.4425 0.132 0.0
H516 H 0.18124 0.47016 0.10788 0.0
H517 H 0.14731 0.46912 0.09214 0.0
H518 H 0.19247 0.48893 0.05536 0.0
H519 H 0.2263 0.49007 0.0709 0.0
N520 N 0.24754 0.48309 0.09364 0.0
N521 N 0.26034 0.46941 0.11424 0.0
N522 N 0.22189 0.46813 0.11281 0.0
C523 C 0.26483 0.47914 0.10089 0.0
C524 C 0.23892 0.46403 0.12032 0.0
C525 C 0.22608 0.47772 0.09948 0.0
C526 C 0.2869 0.48307 0.09334 0.0
C527 C 0.29161 0.49464 0.08004 0.0
C528 C 0.30964 0.49502 0.07147 0.0
C529 C 0.3236 0.48403 0.07598 0.0
C530 C 0.32031 0.47404 0.08977 0.0
C531 C 0.30204 0.4735 0.09839 0.0
C532 C 0.23296 0.45182 0.13435 0.0
C533 C 0.25091 0.44961 0.14332 0.0
C534 C 0.24444 0.43652 0.15597 0.0
C535 C 0.21984 0.42511 0.15973 0.0
C536 C 0.20213 0.42791 0.15103 0.0
C537 C 0.20861 0.4412 0.13856 0.0
C538 C 0.20647 0.47991 0.09065 0.0
C539 C 0.18408 0.47461 0.0965 0.0
C540 C 0.36294 0.90792 0.25518 0.0
C541 C 0.35446 0.89579 0.26807 0.0
C542 C 0.36909 0.88781 0.27583 0.0
C543 C 0.39118 0.89123 0.27059 0.0
H544 H 0.45964 0.89721 0.28434 0.0
H545 H 0.49063 0.89321 0.29987 0.0
H546 H 0.53219 0.90108 0.26197 0.0
H547 H 0.50119 0.90465 0.2464 0.0
H548 H 0.48234 0.90975 0.21597 0.0
H549 H 0.488 0.91359 0.18975 0.0
H550 H 0.42207 0.91963 0.18283 0.0
H551 H 0.41639 0.91605 0.20932 0.0
H552 H 0.3905 0.92008 0.23974 0.0
H553 H 0.35257 0.91491 0.24909 0.0
H554 H 0.36309 0.87815 0.28569 0.0
H555 H 0.40167 0.88435 0.27668 0.0
N556 N 0.43866 0.90228 0.26009 0.0
N557 N 0.4621 0.90718 0.23992 0.0
N558 N 0.42502 0.90819 0.23665 0.0
C559 C 0.45906 0.90368 0.2545 0.0
C560 C 0.44526 0.90944 0.23089 0.0
C561 C 0.42159 0.90459 0.25125 0.0
C562 C 0.47782 0.90125 0.26408 0.0
C563 C 0.47535 0.89806 0.2793 0.0
C564 C 0.4932 0.89589 0.28823 0.0
C565 C 0.51388 0.8968 0.28216 0.0
C566 C 0.51631 0.89994 0.26696 0.0
C567 C 0.49855 0.90216 0.25805 0.0
C568 C 0.44881 0.91247 0.21484 0.0
C569 C 0.46897 0.91193 0.20895 0.0
C570 C 0.47216 0.91396 0.19384 0.0
C571 C 0.45535 0.91665 0.18415 0.0
C572 C 0.4354 0.91766 0.19002 0.0
C573 C 0.4321 0.9155 0.2052 0.0
C574 C 0.39905 0.90244 0.25737 0.0
C575 C 0.38481 0.91102 0.24983 0.0
C576 C 0.12145 0.46754 0.26466 0.0
C577 C 0.13339 0.47399 0.27921 0.0
C578 C 0.13491 0.49427 0.28795 0.0
C579 C 0.12565 0.50865 0.28206 0.0
H580 H 0.12153 0.57036 0.29303 0.0
H581 H 0.12906 0.60765 0.30826 0.0
H582 H 0.10486 0.6321 0.27021 0.0
H583 H 0.09787 0.5951 0.25483 0.0
H584 H 0.10575 0.57459 0.22315 0.0
H585 H 0.10101 0.57404 0.19618 0.0
H586 H 0.07856 0.49569 0.19108 0.0
H587 H 0.08354 0.49614 0.21824 0.0
H588 H 0.1041 0.47737 0.24718 0.0
H589 H 0.12013 0.45194 0.25774 0.0
H590 H 0.14392 0.49943 0.29926 0.0
H591 H 0.12784 0.52459 0.28904 0.0
N592 N 0.10994 0.54028 0.26918 0.0
N593 N 0.10079 0.55566 0.24816 0.0
N594 N 0.10288 0.51885 0.24549 0.0
C595 C 0.10607 0.55774 0.26314 0.0
C596 C 0.09908 0.53628 0.23926 0.0
C597 C 0.10832 0.52074 0.26048 0.0
C598 C 0.10919 0.5797 0.27265 0.0
C599 C 0.11767 0.58358 0.28789 0.0
C600 C 0.12189 0.60495 0.29666 0.0
C601 C 0.11765 0.62293 0.29045 0.0
C602 C 0.10872 0.61883 0.27529 0.0
C603 C 0.10456 0.5975 0.26649 0.0
C604 C 0.09505 0.53539 0.22287 0.0
C605 C 0.09969 0.55717 0.21634 0.0
C606 C 0.09718 0.55694 0.20089 0.0
C607 C 0.08963 0.53489 0.1916 0.0
C608 C 0.08442 0.51293 0.19804 0.0
C609 C 0.08734 0.51323 0.21355 0.0
C610 C 0.11494 0.50327 0.26719 0.0
C611 C 0.1124 0.48218 0.25864 0.0
C612 C 0.52469 0.63438 0.27533 0.0
C613 C 0.51383 0.64756 0.28167 0.0
C614 C 0.48825 0.6383 0.27787 0.0
C615 C 0.47367 0.61575 0.26891 0.0
H616 H 0.44096 0.52736 0.2843 0.0
H617 H 0.40986 0.49976 0.2996 0.0
H618 H 0.35268 0.47781 0.26291 0.0
H619 H 0.38456 0.50425 0.24729 0.0
H620 H 0.42673 0.50216 0.2174 0.0
H621 H 0.43179 0.49051 0.1922 0.0
H622 H 0.49378 0.56509 0.19062 0.0
H623 H 0.48857 0.57699 0.21577 0.0
H624 H 0.51866 0.60176 0.26169 0.0
H625 H 0.54421 0.64067 0.27804 0.0
H626 H 0.47926 0.64821 0.28203 0.0
H627 H 0.45384 0.60856 0.26671 0.0
N628 N 0.44992 0.55977 0.26282 0.0
N629 N 0.43623 0.53036 0.2418 0.0
N630 N 0.47061 0.57078 0.24126 0.0
C631 C 0.43402 0.53644 0.25612 0.0
C632 C 0.45459 0.54744 0.23429 0.0
C633 C 0.46811 0.577 0.25548 0.0
C634 C 0.41506 0.51798 0.26469 0.0
C635 C 0.42175 0.51636 0.27949 0.0
C636 C 0.40379 0.50071 0.28831 0.0
C637 C 0.37847 0.48686 0.28271 0.0
C638 C 0.37193 0.48796 0.26766 0.0
C639 C 0.39013 0.50317 0.25868 0.0
C640 C 0.4573 0.54053 0.21873 0.0
C641 C 0.44142 0.51617 0.21171 0.0
C642 C 0.44438 0.50942 0.19725 0.0
C643 C 0.46326 0.52682 0.18939 0.0
C644 C 0.47888 0.55129 0.19629 0.0
C645 C 0.47597 0.55805 0.21078 0.0
C646 C 0.4844 0.60232 0.26306 0.0
C647 C 0.51011 0.61206 0.26598 0.0
C648 C 0.51995 0.01194 0.04717 0.0
Eu649 Eu 0.50666 0.01219 0.01932 0.0
C650 C 0.5102 0.99583 0.05935 0.0
C651 C 0.48628 0.98808 0.06365 0.0
C652 C 0.47815 0.97415 0.07584 0.0
C653 C 0.49361 0.96739 0.08379 0.0
C654 C 0.51723 0.97455 0.0792 0.0
C655 C 0.52549 0.98878 0.06717 0.0
C656 C 0.50352 0.05003 0.00788 0.0
C657 C 0.4463 0.98029 0.01269 0.0
C658 C 0.46883 0.00457 0.96 0.0
Eu659 Eu 0.48157 0.00076 0.98727 0.0
C660 C 0.48118 0.00971 0.94626 0.0
C661 C 0.50243 0.00759 0.94503 0.0
C662 C 0.5144 0.01307 0.93202 0.0
C663 C 0.50543 0.02096 0.92008 0.0
C664 C 0.48414 0.02311 0.92144 0.0
C665 C 0.47215 0.01756 0.93444 0.0
C666 C 0.48459 0.96243 0.99783 0.0
C667 C 0.54257 0.02826 0.9934 0.0
O668 O 0.52706 0.00331 0.03607 0.0
O669 O 0.50824 0.02346 0.04282 0.0
O670 O 0.52256 0.05333 0.01648 0.0
O671 O 0.48678 0.02731 0.00629 0.0
O672 O 0.46615 0.98327 0.02085 0.0
O673 O 0.44817 0.98983 0.99982 0.0
O674 O 0.47851 0.02319 0.97053 0.0
O675 O 0.46326 0.98323 0.96504 0.0
O676 O 0.467 0.95935 0.98799 0.0
O677 O 0.50108 0.98523 1.00032 0.0
O678 O 0.52282 0.02295 0.98422 0.0
O679 O 0.54091 0.02348 0.00749 0.0
H680 H 0.47397 0.99307 0.05776 0.0
H681 H 0.45981 0.96871 0.07908 0.0
H682 H 0.52963 0.96978 0.08519 0.0
H683 H 0.54401 0.9946 0.06409 0.0
H684 H 0.5098 0.00178 0.95414 0.0
H685 H 0.53084 0.01141 0.93138 0.0
H686 H 0.47652 0.02877 0.91237 0.0
H687 H 0.45583 0.0194 0.93526 0.0
C688 C 0.99086 0.51749 0.04554 0.0
Eu689 Eu 0.98637 0.49705 0.01866 0.0
C690 C 0.00568 0.52096 0.05969 0.0
C691 C 0.99479 0.51861 0.07306 0.0
C692 C 0.00823 0.521 0.08659 0.0
C693 C 0.03284 0.52574 0.08697 0.0
C694 C 0.04374 0.52814 0.07352 0.0
C695 C 0.03026 0.52574 0.05999 0.0
C696 C 0.9544 0.44905 0.00816 0.0
C697 C 0.027 0.47849 0.01608 0.0
C698 C 0.99499 0.46525 0.96108 0.0
Eu699 Eu 0.99639 0.48219 0.98847 0.0
C700 C 0.98746 0.46899 0.94613 0.0
C701 C 0.00189 0.47074 0.93444 0.0
C702 C 0.99541 0.47493 0.92026 0.0
C703 C 0.97429 0.4774 0.91749 0.0
C704 C 0.95982 0.47555 0.92926 0.0
C705 C 0.9664 0.47148 0.94344 0.0
C706 C 0.02564 0.5311 0.99932 0.0
C707 C 0.95313 0.49738 0.99092 0.0
O708 O 0.00304 0.53008 0.03481 0.0
O709 O 0.97389 0.49441 0.04087 0.0
O710 O 0.9484 0.46305 0.01607 0.0
O711 O 0.97755 0.46027 0.0069 0.0
O712 O 0.02048 0.49293 0.02363 0.0
O713 O 0.01656 0.46805 0.0025 0.0
O714 O 0.97726 0.45366 0.96963 0.0
O715 O 0.01475 0.48443 0.9683 0.0
O716 O 0.03416 0.51836 0.99255 0.0
O717 O 0.00262 0.51777 0.99968 0.0
O718 O 0.96197 0.48524 0.9832 0.0
O719 O 0.96222 0.50736 0.00479 0.0
H720 H 0.97584 0.51489 0.07303 0.0
H721 H 0.99945 0.51946 0.09677 0.0
H722 H 0.06257 0.53161 0.07345 0.0
H723 H 0.03901 0.52752 0.04977 0.0
H724 H 0.01832 0.46905 0.93632 0.0
H725 H 0.00718 0.47661 0.91152 0.0
H726 H 0.94324 0.47697 0.9275 0.0
H727 H 0.95501 0.4703 0.9523 0.0
C728 C 0.46339 0.48664 0.95822 0.0
Eu729 Eu 0.48075 0.49835 0.98621 0.0
C730 C 0.47626 0.49024 0.94464 0.0
C731 C 0.50099 0.5097 0.94471 0.0
C732 C 0.51382 0.51216 0.93217 0.0
C733 C 0.50225 0.49513 0.9193 0.0
C734 C 0.4774 0.47572 0.91927 0.0
C735 C 0.46455 0.4733 0.93184 0.0
C736 C 0.50327 0.54477 1.00079 0.0
C737 C 0.53861 0.51077 0.98724 0.0
C738 C 0.53021 0.51838 0.04363 0.0
Eu739 Eu 0.51047 0.50517 0.01602 0.0
C740 C 0.52124 0.51606 0.05855 0.0
C741 C 0.53071 0.50701 0.06949 0.0
C742 C 0.52236 0.50429 0.08365 0.0
C743 C 0.5044 0.51068 0.08721 0.0
C744 C 0.49501 0.51992 0.07627 0.0
C745 C 0.50327 0.52249 0.06204 0.0
C746 C 0.48797 0.45868 0.0014 0.0
C747 C 0.45148 0.49075 0.0145 0.0
O748 O 0.46466 0.47079 0.96666 0.0
O749 O 0.46716 0.50701 0.96594 0.0
O750 O 0.48149 0.5344 0.99326 0.0
O751 O 0.51259 0.53086 0.99967 0.0
O752 O 0.51618 0.50019 0.97994 0.0
O753 O 0.54244 0.51819 0.00168 0.0
O754 O 0.52684 0.5332 0.03526 0.0
O755 O 0.52583 0.49763 0.03611 0.0
O756 O 0.50966 0.46891 0.00905 0.0
O757 O 0.4788 0.47269 0.00256 0.0
O758 O 0.47355 0.501 0.02245 0.0
O759 O 0.44873 0.4845 0.99999 0.0
H760 H 0.51051 0.52287 0.95454 0.0
H761 H 0.5328 0.52749 0.93257 0.0
H762 H 0.46802 0.46202 0.90966 0.0
H763 H 0.44561 0.45796 0.93165 0.0
H764 H 0.54461 0.50201 0.06707 0.0
H765 H 0.53019 0.49744 0.09189 0.0
H766 H 0.48102 0.5248 0.07863 0.0
H767 H 0.49554 0.52942 0.0538 0.0
C768 C 0.20485 0.36068 0.38569 0.0
Eu769 Eu 0.1945 0.35191 0.35687 0.0
C770 C 0.19225 0.34847 0.39852 0.0
C771 C 0.19731 0.36279 0.41223 0.0
C772 C 0.18476 0.35165 0.4244 0.0
C773 C 0.16687 0.326 0.42303 0.0
C774 C 0.16196 0.31168 0.40928 0.0
C775 C 0.17449 0.32284 0.3971 0.0
C776 C 0.18492 0.37954 0.33865 0.0
C777 C 0.13631 0.3077 0.348 0.0
C778 C 0.1645 0.31808 0.29581 0.0
Eu779 Eu 0.17607 0.32813 0.32453 0.0
C780 C 0.17278 0.32865 0.28167 0.0
C781 C 0.17204 0.31281 0.26967 0.0
C782 C 0.17734 0.32132 0.25566 0.0
C783 C 0.18341 0.34588 0.25333 0.0
C784 C 0.18525 0.36215 0.26554 0.0
C785 C 0.17992 0.35359 0.27962 0.0
C786 C 0.18836 0.30216 0.34301 0.0
C787 C 0.23371 0.37308 0.33306 0.0
O788 O 0.21255 0.34848 0.37725 0.0
O789 O 0.19425 0.37069 0.37798 0.0
O790 O 0.20253 0.389 0.34958 0.0
O791 O 0.17189 0.35605 0.33848 0.0
O792 O 0.15523 0.31972 0.3585 0.0
O793 O 0.13919 0.3103 0.33375 0.0
O794 O 0.15542 0.32865 0.30443 0.0
O795 O 0.1784 0.31121 0.30323 0.0
O796 O 0.16989 0.29148 0.33259 0.0
O797 O 0.19992 0.32545 0.34259 0.0
O798 O 0.21453 0.3611 0.32271 0.0
O799 O 0.23138 0.37009 0.34737 0.0
H800 H 0.21083 0.38264 0.41348 0.0
H801 H 0.18879 0.36319 0.43483 0.0
H802 H 0.14871 0.2918 0.408 0.0
H803 H 0.1703 0.31145 0.38659 0.0
H804 H 0.1667 0.29357 0.27104 0.0
H805 H 0.17619 0.30848 0.24655 0.0
H806 H 0.18978 0.38114 0.26407 0.0
H807 H 0.18072 0.36621 0.28875 0.0
C808 C 0.68478 0.87289 0.3792 0.0
Eu809 Eu 0.67176 0.8518 0.35186 0.0
C810 C 0.69386 0.86886 0.3935 0.0
C811 C 0.69645 0.84783 0.39497 0.0
C812 C 0.70465 0.84407 0.40882 0.0
C813 C 0.71022 0.86126 0.42138 0.0
C814 C 0.70793 0.88248 0.41972 0.0
C815 C 0.69983 0.88623 0.40589 0.0
C816 C 0.63375 0.80532 0.34193 0.0
C817 C 0.70243 0.82333 0.34347 0.0
C818 C 0.6581 0.81469 0.2917 0.0
Eu819 Eu 0.67097 0.83456 0.31927 0.0
C820 C 0.65233 0.82135 0.27721 0.0
C821 C 0.66826 0.84461 0.27217 0.0
C822 C 0.66296 0.85003 0.25808 0.0
C823 C 0.64158 0.83237 0.2488 0.0
C824 C 0.62533 0.80942 0.25409 0.0
C825 C 0.63072 0.80397 0.26813 0.0
C826 C 0.70921 0.88083 0.32907 0.0
C827 C 0.63996 0.86276 0.32787 0.0
O828 O 0.7001 0.8792 0.36888 0.0
O829 O 0.66185 0.85636 0.37406 0.0
O830 O 0.63183 0.82028 0.35174 0.0
O831 O 0.65583 0.81464 0.33878 0.0
O832 O 0.69981 0.8385 0.35318 0.0
O833 O 0.68989 0.81575 0.33008 0.0
O834 O 0.64204 0.8102 0.30146 0.0
O835 O 0.68122 0.82758 0.29768 0.0
O836 O 0.71071 0.86587 0.31908 0.0
O837 O 0.68717 0.87174 0.33229 0.0
O838 O 0.64251 0.84743 0.31824 0.0
O839 O 0.65267 0.87047 0.34119 0.0
H840 H 0.69191 0.83425 0.38545 0.0
H841 H 0.70612 0.8275 0.40976 0.0
H842 H 0.71254 0.8963 0.42911 0.0
H843 H 0.69811 0.90266 0.40488 0.0
H844 H 0.68499 0.85848 0.27901 0.0
H845 H 0.676 0.86778 0.25432 0.0
H846 H 0.60845 0.79559 0.24736 0.0
H847 H 0.61806 0.78603 0.27184 0.0
C848 C 0.12157 0.78864 0.28776 0.0
Eu849 Eu 0.13885 0.81233 0.31432 0.0
C850 C 0.13217 0.79293 0.27336 0.0
C851 C 0.14916 0.81727 0.27024 0.0
C852 C 0.16104 0.82118 0.25721 0.0
C853 C 0.15606 0.8008 0.247 0.0
C854 C 0.13863 0.77645 0.25001 0.0
C855 C 0.12688 0.77256 0.26313 0.0
C856 C 0.14522 0.85737 0.32401 0.0
C857 C 0.20003 0.84634 0.31506 0.0
C858 C 0.18879 0.85944 0.37091 0.0
Eu859 Eu 0.17149 0.8364 0.34409 0.0
C860 C 0.17844 0.85593 0.38538 0.0
C861 C 0.18927 0.87549 0.39693 0.0
C862 C 0.17909 0.87246 0.41059 0.0
C863 C 0.15782 0.8498 0.4129 0.0
C864 C 0.14706 0.83025 0.40122 0.0
C865 C 0.15725 0.83331 0.3876 0.0
C866 C 0.16388 0.79079 0.33435 0.0
C867 C 0.11034 0.8024 0.34299 0.0
O868 O 0.13267 0.78213 0.2978 0.0
O869 O 0.11634 0.80534 0.29328 0.0
O870 O 0.12473 0.83944 0.31681 0.0
O871 O 0.16185 0.85137 0.32489 0.0
O872 O 0.17833 0.82901 0.30803 0.0
O873 O 0.20232 0.8549 0.32919 0.0
O874 O 0.17843 0.86662 0.36085 0.0
O875 O 0.1927 0.84181 0.36544 0.0
O876 O 0.1844 0.808 0.34185 0.0
O877 O 0.14794 0.79753 0.33369 0.0
O878 O 0.13147 0.82106 0.3499 0.0
O879 O 0.10914 0.79254 0.32939 0.0
H880 H 0.15362 0.83328 0.27803 0.0
H881 H 0.17417 0.84016 0.25514 0.0
H882 H 0.1346 0.76037 0.24243 0.0
H883 H 0.11404 0.75362 0.26543 0.0
H884 H 0.20547 0.89319 0.39535 0.0
H885 H 0.18762 0.88805 0.41923 0.0
H886 H 0.13086 0.81247 0.40263 0.0
H887 H 0.14854 0.818 0.37878 0.0
C888 C 0.87292 0.68287 0.71804 0.0
Eu889 Eu 0.85935 0.68361 0.69035 0.0
C890 C 0.86142 0.66774 0.73035 0.0
C891 C 0.83831 0.66347 0.73451 0.0
C892 C 0.8284 0.65025 0.74671 0.0
C893 C 0.8411 0.64059 0.75479 0.0
C894 C 0.86388 0.64432 0.75038 0.0
C895 C 0.87404 0.65796 0.73836 0.0
C896 C 0.85383 0.72059 0.67983 0.0
C897 C 0.79905 0.65148 0.68403 0.0
C898 C 0.81928 0.67708 0.63154 0.0
Eu899 Eu 0.83386 0.6727 0.65829 0.0
C900 C 0.82585 0.67828 0.616 0.0
C901 C 0.81787 0.6563 0.60647 0.0
C902 C 0.82157 0.6575 0.59136 0.0
C903 C 0.83311 0.68067 0.58538 0.0
C904 C 0.84191 0.70269 0.59504 0.0
C905 C 0.8383 0.70149 0.61017 0.0
C906 C 0.83986 0.63534 0.66779 0.0
C907 C 0.89508 0.70325 0.66435 0.0
O908 O 0.87753 0.67188 0.70686 0.0
O909 O 0.8642 0.69708 0.71375 0.0
O910 O 0.8733 0.72456 0.68826 0.0
O911 O 0.83789 0.69761 0.6779 0.0
O912 O 0.81892 0.65425 0.69204 0.0
O913 O 0.80096 0.66159 0.67136 0.0
O914 O 0.8341 0.6962 0.64125 0.0
O915 O 0.81071 0.65564 0.63717 0.0
O916 O 0.82227 0.63168 0.65776 0.0
O917 O 0.85515 0.65838 0.67072 0.0
O918 O 0.87487 0.69652 0.65518 0.0
O919 O 0.89393 0.69813 0.6784 0.0
H920 H 0.82802 0.67061 0.72848 0.0
H921 H 0.81081 0.64761 0.74987 0.0
H922 H 0.87423 0.63732 0.7565 0.0
H923 H 0.89195 0.66119 0.73543 0.0
H924 H 0.80817 0.63809 0.61056 0.0
H925 H 0.81494 0.64019 0.58429 0.0
H926 H 0.85064 0.72083 0.59082 0.0
H927 H 0.8446 0.71876 0.6172 0.0
C928 C 0.31731 0.18706 0.70873 0.0
Eu929 Eu 0.3266 0.17475 0.68278 0.0
C930 C 0.31994 0.18196 0.72423 0.0
C931 C 0.33747 0.17522 0.72899 0.0
C932 C 0.33955 0.17015 0.74372 0.0
C933 C 0.32418 0.17182 0.75399 0.0
C934 C 0.30672 0.17871 0.74914 0.0
C935 C 0.3046 0.18366 0.7344 0.0
C936 C 0.30283 0.12966 0.66647 0.0
C937 C 0.37005 0.15909 0.687 0.0
C938 C 0.36284 0.16038 0.62981 0.0
Eu939 Eu 0.3529 0.17045 0.65606 0.0
C940 C 0.34859 0.15112 0.61501 0.0
C941 C 0.3611 0.15677 0.60217 0.0
C942 C 0.3477 0.14871 0.58804 0.0
C943 C 0.3215 0.13486 0.58653 0.0
C944 C 0.30904 0.12924 0.59949 0.0
C945 C 0.32246 0.13731 0.6136 0.0
C946 C 0.37645 0.21528 0.67269 0.0
C947 C 0.3067 0.18105 0.65165 0.0
O948 O 0.33802 0.20077 0.70282 0.0
O949 O 0.30071 0.16805 0.69954 0.0
O950 O 0.29124 0.13941 0.67311 0.0
O951 O 0.32602 0.14312 0.66966 0.0
O952 O 0.35522 0.16594 0.69307 0.0
O953 O 0.37167 0.15783 0.6725 0.0
O954 O 0.35546 0.14453 0.63989 0.0
O955 O 0.36812 0.18282 0.63504 0.0
O956 O 0.38804 0.20514 0.6665 0.0
O957 O 0.35332 0.20213 0.6691 0.0
O958 O 0.31803 0.16956 0.64617 0.0
O959 O 0.31061 0.18941 0.6659 0.0
H960 H 0.34955 0.17388 0.72133 0.0
H961 H 0.35301 0.16466 0.747 0.0
H962 H 0.29488 0.18061 0.75679 0.0
H963 H 0.29102 0.18892 0.73094 0.0
H964 H 0.38126 0.16747 0.60306 0.0
H965 H 0.35786 0.15308 0.5783 0.0
H966 H 0.28889 0.11892 0.59874 0.0
H967 H 0.31243 0.1329 0.6234 0.0
C968 C 0.80582 0.13619 0.6238 0.0
Eu969 Eu 0.81923 0.15682 0.65126 0.0
C970 C 0.81429 0.14091 0.60885 0.0
C971 C 0.83967 0.15368 0.60666 0.0
C972 C 0.847 0.15831 0.59227 0.0
C973 C 0.82902 0.15047 0.57991 0.0
C974 C 0.80366 0.13747 0.58221 0.0
C975 C 0.7964 0.13275 0.59653 0.0
C976 C 0.82563 0.20138 0.66209 0.0
C977 C 0.88018 0.187 0.65932 0.0
C978 C 0.85425 0.19272 0.71186 0.0
Eu979 Eu 0.8423 0.17407 0.68399 0.0
C980 C 0.84151 0.1925 0.72514 0.0
C981 C 0.8519 0.19162 0.73912 0.0
C982 C 0.84037 0.19155 0.75193 0.0
C983 C 0.81815 0.19237 0.75102 0.0
C984 C 0.80765 0.19305 0.73694 0.0
C985 C 0.81922 0.1931 0.7241 0.0
C986 C 0.83445 0.12901 0.67263 0.0
C987 C 0.78203 0.14438 0.67613 0.0
O988 O 0.8188 0.13118 0.63349 0.0
O989 O 0.79853 0.15099 0.62966 0.0
O990 O 0.80759 0.18597 0.6522 0.0
O991 O 0.84058 0.19363 0.66475 0.0
O992 O 0.86064 0.17249 0.64952 0.0
O993 O 0.87784 0.19285 0.67321 0.0
O994 O 0.85205 0.20477 0.70101 0.0
O995 O 0.85254 0.17153 0.70709 0.0
O996 O 0.85315 0.144 0.68228 0.0
O997 O 0.82003 0.13741 0.67056 0.0
O998 O 0.80142 0.16147 0.68517 0.0
O999 O 0.78479 0.13597 0.66299 0.0
H1000 H 0.85378 0.16022 0.61605 0.0
H1001 H 0.86666 0.16847 0.59085 0.0
H1002 H 0.78935 0.13079 0.57291 0.0
H1003 H 0.77673 0.12279 0.598 0.0
H1004 H 0.8691 0.19118 0.74014 0.0
H1005 H 0.84918 0.19143 0.7626 0.0
H1006 H 0.79045 0.19346 0.73583 0.0
H1007 H 0.81081 0.19371 0.71341 0.0
H1008 H 0.34911 0.88456 0.06358 0.0
H1009 H 0.29025 0.87586 0.03123 0.0
H1010 H 0.32161 0.90776 0.01713 0.0
H1011 H 0.38922 0.952 0.06307 0.0
H1012 H 0.41758 0.95081 0.06468 0.0
H1013 H 0.39063 0.92804 0.07275 0.0
H1014 H 0.39224 0.89205 0.05771 0.0
H1015 H 0.41938 0.91464 0.04976 0.0
H1016 H 0.39238 0.89158 0.03774 0.0
H1017 H 0.35934 0.9395 0.00607 0.0
H1018 H 0.4009 0.96814 0.99852 0.0
H1019 H 0.43522 0.95622 0.0381 0.0
C1020 C 0.34281 0.88963 0.05364 0.0
C1021 C 0.31722 0.8777 0.04849 0.0
C1022 C 0.30976 0.88456 0.0353 0.0
C1023 C 0.32742 0.90277 0.02727 0.0
C1024 C 0.35249 0.914 0.03257 0.0
C1025 C 0.36021 0.90771 0.04545 0.0
C1026 C 0.38836 0.92196 0.04842 0.0
C1027 C 0.39694 0.93922 0.0631 0.0
C1028 C 0.39869 0.90398 0.0484 0.0
C1029 C 0.39522 0.93693 0.03509 0.0
C1030 C 0.37426 0.93224 0.02615 0.0
C1031 C 0.37591 0.94344 0.01302 0.0
C1032 C 0.39961 0.95969 0.00882 0.0
C1033 C 0.42137 0.9645 0.0177 0.0
C1034 C 0.41901 0.95308 0.03108 0.0
H1035 H 0.13568 0.49725 0.0769 0.0
H1036 H 0.15043 0.45189 0.04525 0.0
H1037 H 0.11532 0.44585 0.02791 0.0
H1038 H 0.06811 0.46208 0.06975 0.0
H1039 H 0.06488 0.48945 0.07126 0.0
H1040 H 0.09067 0.48971 0.08159 0.0
H1041 H 0.1215 0.52905 0.06968 0.0
H1042 H 0.09594 0.529 0.05921 0.0
H1043 H 0.12025 0.52841 0.04965 0.0
H1044 H 0.07943 0.44504 0.01388 0.0
H1045 H 0.04535 0.45065 0.00344 0.0
H1046 H 0.05365 0.49707 0.04384 0.0
C1047 C 0.13132 0.48589 0.06637 0.0
C1048 C 0.14578 0.47508 0.06237 0.0
C1049 C 0.13975 0.46056 0.04843 0.0
C1050 C 0.11977 0.45689 0.03856 0.0
C1051 C 0.106 0.46793 0.04275 0.0
C1052 C 0.1115 0.48222 0.05628 0.0
C1053 C 0.09419 0.49271 0.05771 0.0
C1054 C 0.07854 0.48289 0.07086 0.0
C1055 C 0.10885 0.5215 0.05914 0.0
C1056 C 0.07818 0.48203 0.04288 0.0
C1057 C 0.0853 0.46771 0.0345 0.0
C1058 C 0.07363 0.45617 0.02034 0.0
C1059 C 0.05425 0.45948 0.01451 0.0
C1060 C 0.04675 0.47431 0.02279 0.0
C1061 C 0.05885 0.48558 0.03722 0.0
H1062 H 0.51146 0.66852 0.0384 0.0
H1063 H 0.58762 0.69305 0.05545 0.0
H1064 H 0.58322 0.65374 0.04378 0.0
H1065 H 0.48608 0.60325 0.0432 0.0
H1066 H 0.46519 0.59261 0.02629 0.0
H1067 H 0.47424 0.62242 0.03628 0.0
H1068 H 0.48997 0.64424 0.01239 0.0
H1069 H 0.48097 0.6145 0.00234 0.0
H1070 H 0.51257 0.64 0.00302 0.0
H1071 H 0.57062 0.61194 0.02985 0.0
H1072 H 0.5506 0.57075 0.0148 0.0
H1073 H 0.48304 0.57415 0.0067 0.0
C1074 C 0.52729 0.66573 0.0396 0.0
C1075 C 0.5499 0.68387 0.04783 0.0
C1076 C 0.57003 0.67929 0.04934 0.0
C1077 C 0.56775 0.65709 0.04269 0.0
C1078 C 0.54522 0.63966 0.03461 0.0
C1079 C 0.52534 0.64372 0.03306 0.0
C1080 C 0.50319 0.62211 0.02375 0.0
C1081 C 0.48086 0.60935 0.03293 0.0
C1082 C 0.49628 0.63073 0.00953 0.0
C1083 C 0.51377 0.60533 0.02017 0.0
C1084 C 0.53801 0.61572 0.02657 0.0
C1085 C 0.55164 0.60362 0.0248 0.0
C1086 C 0.54014 0.58027 0.01626 0.0
C1087 C 0.51533 0.56937 0.00963 0.0
C1088 C 0.50207 0.58211 0.01162 0.0
H1089 H 0.89236 0.32106 0.9539 0.0
H1090 H 0.82638 0.29808 0.97711 0.0
H1091 H 0.84868 0.33694 0.99408 0.0
H1092 H 0.93744 0.35089 0.98694 0.0
H1093 H 0.95979 0.3762 0.97751 0.0
H1094 H 0.93909 0.34613 0.96724 0.0
H1095 H 0.92366 0.36714 0.94878 0.0
H1096 H 0.94438 0.39724 0.95897 0.0
H1097 H 0.91155 0.38632 0.95587 0.0
H1098 H 0.87632 0.37854 0.00744 0.0
H1099 H 0.90883 0.42119 0.01723 0.0
H1100 H 0.95862 0.41773 0.98676 0.0
C1101 C 0.88271 0.32425 0.9626 0.0
C1102 C 0.85769 0.30641 0.96429 0.0
C1103 C 0.84565 0.31123 0.97578 0.0
C1104 C 0.85812 0.3333 0.98544 0.0
C1105 C 0.88271 0.35041 0.98354 0.0
C1106 C 0.89502 0.34623 0.97249 0.0
C1107 C 0.92145 0.36811 0.97291 0.0
C1108 C 0.94057 0.35983 0.97636 0.0
C1109 C 0.92548 0.38043 0.95826 0.0
C1110 C 0.92181 0.38526 0.98579 0.0
C1111 C 0.89917 0.37457 0.99166 0.0
C1112 C 0.89424 0.38705 0.00307 0.0
C1113 C 0.91284 0.41129 0.00853 0.0
C1114 C 0.93622 0.42276 0.00273 0.0
C1115 C 0.94093 0.4094 0.99139 0.0
H1116 H 0.67946 0.57141 0.96632 0.0
H1117 H 0.64782 0.53135 0.9223 0.0
H1118 H 0.60573 0.51345 0.93035 0.0
H1119 H 0.63642 0.52268 0.98706 0.0
H1120 H 0.63444 0.54384 1.00077 0.0
H1121 H 0.6624 0.554 0.99165 0.0
H1122 H 0.65919 0.59151 0.98303 0.0
H1123 H 0.63131 0.58155 0.99219 0.0
H1124 H 0.63093 0.58585 0.97264 0.0
H1125 H 0.56761 0.49899 0.94296 0.0
H1126 H 0.53447 0.49067 0.95894 0.0
H1127 H 0.58966 0.54001 0.99526 0.0
C1128 C 0.66366 0.55883 0.95841 0.0
C1129 C 0.66696 0.55291 0.94363 0.0
C1130 C 0.64579 0.53652 0.93357 0.0
C1131 C 0.6218 0.52607 0.93808 0.0
C1132 C 0.61922 0.53214 0.9527 0.0
C1133 C 0.63946 0.54825 0.96272 0.0
C1134 C 0.63122 0.55183 0.97772 0.0
C1135 C 0.64175 0.54253 0.99003 0.0
C1136 C 0.6386 0.57932 0.98162 0.0
C1137 C 0.60319 0.53515 0.97454 0.0
C1138 C 0.59685 0.52395 0.96003 0.0
C1139 C 0.57229 0.50777 0.9543 0.0
C1140 C 0.55357 0.50319 0.96354 0.0
C1141 C 0.55937 0.5148 0.97839 0.0
C1142 C 0.58461 0.53079 0.98401 0.0
H1143 H 0.44417 0.10842 0.95393 0.0
H1144 H 0.51642 0.1764 0.95919 0.0
H1145 H 0.53333 0.15619 0.97509 0.0
H1146 H 0.44516 0.09283 0.99066 0.0
H1147 H 0.43031 0.05953 0.98572 0.0
H1148 H 0.42414 0.07855 0.97385 0.0
H1149 H 0.43796 0.0621 0.95135 0.0
H1150 H 0.44375 0.04275 0.96317 0.0
H1151 H 0.46811 0.06456 0.95299 0.0
H1152 H 0.54201 0.12933 0.99122 0.0
H1153 H 0.54205 0.09708 0.00604 0.0
H1154 H 0.46401 0.04688 0.99079 0.0
C1155 C 0.46366 0.11888 0.9582 0.0
C1156 C 0.47897 0.14402 0.95534 0.0
C1157 C 0.50429 0.15722 0.96135 0.0
C1158 C 0.51409 0.14587 0.97034 0.0
C1159 C 0.49838 0.12126 0.97319 0.0
C1160 C 0.47375 0.10783 0.96723 0.0
C1161 C 0.46068 0.0819 0.97243 0.0
C1162 C 0.43878 0.07799 0.98119 0.0
C1163 C 0.45213 0.06164 0.9592 0.0
C1164 C 0.48166 0.08309 0.98249 0.0
C1165 C 0.50331 0.10586 0.98265 0.0
C1166 C 0.52519 0.11139 0.99114 0.0
C1167 C 0.52501 0.09302 0.99957 0.0
C1168 C 0.50308 0.06951 0.99948 0.0
C1169 C 0.48109 0.06465 0.99096 0.0
H1170 H 0.64464 0.10598 0.93889 0.0
H1171 H 0.69728 0.09615 0.96722 0.0
H1172 H 0.6638 0.07012 0.98237 0.0
H1173 H 0.6111 0.11154 0.96727 0.0
H1174 H 0.58095 0.09437 0.95667 0.0
H1175 H 0.60848 0.11071 0.94723 0.0
H1176 H 0.59699 0.06961 0.93105 0.0
H1177 H 0.56914 0.05361 0.94026 0.0
H1178 H 0.59066 0.04215 0.94008 0.0
H1179 H 0.62578 0.04847 0.9958 0.0
H1180 H 0.58473 0.02989 0.00556 0.0
H1181 H 0.55611 0.05208 0.96801 0.0
C1182 C 0.649 0.09784 0.94806 0.0
C1183 C 0.67367 0.10324 0.9519 0.0
C1184 C 0.67864 0.09259 0.96417 0.0
C1185 C 0.65971 0.07767 0.97281 0.0
C1186 C 0.63579 0.07329 0.96897 0.0
C1187 C 0.63026 0.08277 0.95678 0.0
C1188 C 0.60315 0.07595 0.95544 0.0
C1189 C 0.6008 0.09955 0.95673 0.0
C1190 C 0.58917 0.05932 0.94084 0.0
C1191 C 0.59447 0.06148 0.96889 0.0
C1192 C 0.61362 0.06024 0.97656 0.0
C1193 C 0.61052 0.04901 0.98979 0.0
C1194 C 0.58718 0.03863 0.99529 0.0
C1195 C 0.56717 0.03939 0.98753 0.0
C1196 C 0.57094 0.05091 0.97412 0.0
H1197 H 0.87271 0.56238 0.97204 0.0
H1198 H 0.83938 0.50818 0.93297 0.0
H1199 H 0.86175 0.48694 0.94151 0.0
H1200 H 0.93218 0.56883 0.97215 0.0
H1201 H 0.93849 0.57189 0.99213 0.0
H1202 H 0.91778 0.58134 0.98397 0.0
H1203 H 0.88305 0.55173 0.99944 0.0
H1204 H 0.90371 0.54225 0.0077 0.0
H1205 H 0.87384 0.51904 0.9983 0.0
H1206 H 0.8895 0.47356 0.95291 0.0
H1207 H 0.92177 0.46853 0.9666 0.0
H1208 H 0.93852 0.53168 0.9984 0.0
C1209 C 0.86982 0.54573 0.96551 0.0
C1210 C 0.85432 0.53673 0.95191 0.0
C1211 C 0.85124 0.51525 0.94342 0.0
C1212 C 0.86376 0.50305 0.9482 0.0
C1213 C 0.87932 0.5126 0.9615 0.0
C1214 C 0.88244 0.5334 0.97008 0.0
C1215 C 0.90169 0.54071 0.98336 0.0
C1216 C 0.92385 0.56726 0.98286 0.0
C1217 C 0.88986 0.53828 0.99807 0.0
C1218 C 0.90919 0.52106 0.98068 0.0
C1219 C 0.89582 0.50495 0.96807 0.0
C1220 C 0.9 0.48592 0.96286 0.0
C1221 C 0.91852 0.48335 0.97067 0.0
C1222 C 0.93277 0.49981 0.98351 0.0
C1223 C 0.92777 0.5187 0.98869 0.0
H1224 H 0.47772 0.33435 0.9627 0.0
H1225 H 0.40155 0.31103 0.94635 0.0
H1226 H 0.40659 0.35023 0.95859 0.0
H1227 H 0.47737 0.36251 0.99867 0.0
H1228 H 0.5091 0.38773 0.99929 0.0
H1229 H 0.49959 0.358 0.98903 0.0
H1230 H 0.51527 0.38011 0.96524 0.0
H1231 H 0.52479 0.40989 0.97542 0.0
H1232 H 0.50373 0.39967 0.9586 0.0
H1233 H 0.41992 0.39196 0.97261 0.0
H1234 H 0.44057 0.43316 0.98763 0.0
H1235 H 0.50766 0.42874 0.99526 0.0
C1236 C 0.46201 0.33735 0.9618 0.0
C1237 C 0.43924 0.3196 0.95352 0.0
C1238 C 0.41928 0.32448 0.95244 0.0
C1239 C 0.42191 0.34663 0.95942 0.0
C1240 C 0.44461 0.3637 0.96747 0.0
C1241 C 0.4643 0.35931 0.96871 0.0
C1242 C 0.48671 0.38068 0.97803 0.0
C1243 C 0.49358 0.37169 0.99209 0.0
C1244 C 0.50893 0.39333 0.96876 0.0
C1245 C 0.4765 0.39773 0.98189 0.0
C1246 C 0.45221 0.38763 0.97565 0.0
C1247 C 0.43892 0.40004 0.97756 0.0
C1248 C 0.45079 0.4234 0.98609 0.0
C1249 C 0.47564 0.43402 0.99259 0.0
C1250 C 0.48859 0.42097 0.99046 0.0
H1251 H 0.14766 0.65423 0.0382 0.0
H1252 H 0.09854 0.68124 0.05118 0.0
H1253 H 0.06264 0.64354 0.03758 0.0
H1254 H 0.11609 0.62563 1.00106 0.0
H1255 H 0.12056 0.59912 0.00195 0.0
H1256 H 0.14272 0.62876 0.01216 0.0
H1257 H 0.13643 0.60745 0.03663 0.0
H1258 H 0.11428 0.57777 0.02649 0.0
H1259 H 0.10549 0.58976 0.04224 0.0
H1260 H 0.03209 0.60286 0.0234 0.0
H1261 H 0.00818 0.56075 0.00968 0.0
H1262 H 0.07655 0.55924 0.00581 0.0
C1263 C 0.12937 0.65227 0.038 0.0
C1264 C 0.12581 0.67061 0.04572 0.0
C1265 C 0.10159 0.6673 0.04543 0.0
C1266 C 0.08113 0.64603 0.03768 0.0
C1267 C 0.08519 0.62819 0.03031 0.0
C1268 C 0.10864 0.63098 0.03041 0.0
C1269 C 0.10757 0.60841 0.02204 0.0
C1270 C 0.12263 0.61594 0.0085 0.0
C1271 C 0.11647 0.59507 0.03247 0.0
C1272 C 0.07987 0.59257 0.01725 0.0
C1273 C 0.06738 0.60444 0.02213 0.0
C1274 C 0.04164 0.59341 0.01946 0.0
C1275 C 0.02824 0.5695 0.01168 0.0
C1276 C 0.04055 0.55684 0.0067 0.0
C1277 C 0.06673 0.56863 0.0094 0.0
H1278 H 0.3735 0.49824 0.08046 0.0
H1279 H 0.30887 0.46251 0.0476 0.0
H1280 H 0.3343 0.45855 0.02893 0.0
H1281 H 0.41693 0.53444 0.0556 0.0
H1282 H 0.44225 0.53125 0.06367 0.0
H1283 H 0.4188 0.52968 0.07502 0.0
H1284 H 0.41008 0.48645 0.08223 0.0
H1285 H 0.43348 0.48786 0.07086 0.0
H1286 H 0.40218 0.46157 0.06777 0.0
H1287 H 0.36619 0.4602 0.01352 0.0
H1288 H 0.40349 0.46753 0.00178 0.0
H1289 H 0.44872 0.50281 0.04409 0.0
C1290 C 0.36477 0.48928 0.06939 0.0
C1291 C 0.33926 0.48069 0.06541 0.0
C1292 C 0.32842 0.46935 0.05079 0.0
C1293 C 0.34267 0.46692 0.04014 0.0
C1294 C 0.3678 0.47594 0.04427 0.0
C1295 C 0.37887 0.48688 0.0585 0.0
C1296 C 0.40662 0.49605 0.05961 0.0
C1297 C 0.42205 0.52455 0.06371 0.0
C1298 C 0.41349 0.48215 0.07078 0.0
C1299 C 0.40928 0.48886 0.04373 0.0
C1300 C 0.38656 0.47711 0.03517 0.0
C1301 C 0.38411 0.46924 0.02011 0.0
C1302 C 0.40549 0.47357 0.01353 0.0
C1303 C 0.42912 0.48575 0.02197 0.0
C1304 C 0.43095 0.49335 0.03733 0.0
H1305 H 0.52206 0.89113 0.05518 0.0
H1306 H 0.50577 0.83527 0.01813 0.0
H1307 H 0.49171 0.85719 0.00189 0.0
H1308 H 0.47198 0.90295 0.04553 0.0
H1309 H 0.4905 0.93625 0.05048 0.0
H1310 H 0.49764 0.91548 0.05997 0.0
H1311 H 0.54264 0.93909 0.05301 0.0
H1312 H 0.53626 0.96017 0.04332 0.0
H1313 H 0.54828 0.94277 0.03372 0.0
H1314 H 0.47964 0.88515 0.98947 0.0
H1315 H 0.47367 0.91944 0.98133 0.0
H1316 H 0.50096 0.95869 0.02566 0.0
C1317 C 0.51563 0.88346 0.04366 0.0
C1318 C 0.51475 0.86114 0.03808 0.0
C1319 C 0.506 0.85185 0.02289 0.0
C1320 C 0.49811 0.86427 0.0135 0.0
C1321 C 0.49932 0.88618 0.01936 0.0
C1322 C 0.50805 0.89584 0.03405 0.0
C1323 C 0.50883 0.92053 0.0373 0.0
C1324 C 0.49119 0.91868 0.04901 0.0
C1325 C 0.5356 0.9419 0.04213 0.0
C1326 C 0.49945 0.92329 0.02208 0.0
C1327 C 0.49368 0.90307 0.01196 0.0
C1328 C 0.48424 0.90117 0.99726 0.0
C1329 C 0.48088 0.92063 0.99275 0.0
C1330 C 0.48744 0.94182 0.00284 0.0
C1331 C 0.4966 0.94304 0.01768 0.0
H1332 H 0.03068 0.23772 0.4026 0.0
H1333 H 0.98116 0.19473 0.36272 0.0
H1334 H 0.01478 0.21813 0.34726 0.0
H1335 H 0.06545 0.29645 0.38787 0.0
H1336 H 0.09507 0.30358 0.39709 0.0
H1337 H 0.06683 0.28415 0.40527 0.0
H1338 H 0.07846 0.24964 0.40598 0.0
H1339 H 0.10645 0.26842 0.39738 0.0
H1340 H 0.08417 0.23741 0.38897 0.0
H1341 H 0.05295 0.24627 0.33587 0.0
H1342 H 0.09462 0.27608 0.32925 0.0
H1343 H 0.12103 0.29932 0.37627 0.0
C1344 C 0.02686 0.23308 0.39063 0.0
C1345 C 0.00285 0.21466 0.38396 0.0
C1346 C 0.99894 0.20929 0.3682 0.0
C1347 C 0.01805 0.22233 0.35926 0.0
C1348 C 0.04125 0.24047 0.36617 0.0
C1349 C 0.04591 0.24569 0.38149 0.0
C1350 C 0.07297 0.26543 0.386 0.0
C1351 C 0.07519 0.28879 0.39456 0.0
C1352 C 0.08628 0.25456 0.39513 0.0
C1353 C 0.0825 0.27088 0.37079 0.0
C1354 C 0.06382 0.25619 0.35955 0.0
C1355 C 0.0678 0.25784 0.34456 0.0
C1356 C 0.09158 0.27491 0.34092 0.0
C1357 C 0.11119 0.29012 0.35221 0.0
C1358 C 0.10649 0.28798 0.36736 0.0
H1359 H 0.78379 0.79043 0.39919 0.0
H1360 H 0.82216 0.78685 0.36121 0.0
H1361 H 0.79406 0.79417 0.34489 0.0
H1362 H 0.72233 0.76295 0.38057 0.0
H1363 H 0.71494 0.78425 0.39036 0.0
H1364 H 0.73688 0.77687 0.39916 0.0
H1365 H 0.77003 0.82405 0.40348 0.0
H1366 H 0.74809 0.83151 0.39479 0.0
H1367 H 0.77798 0.84245 0.38785 0.0
H1368 H 0.76118 0.80077 0.33237 0.0
H1369 H 0.72915 0.81172 0.32512 0.0
H1370 H 0.71559 0.81617 0.37146 0.0
C1371 C 0.78663 0.79143 0.3875 0.0
C1372 C 0.80509 0.7874 0.38159 0.0
C1373 C 0.80771 0.78881 0.3661 0.0
C1374 C 0.79193 0.79323 0.35668 0.0
C1375 C 0.7739 0.79682 0.36288 0.0
C1376 C 0.77148 0.7965 0.37797 0.0
C1377 C 0.7515 0.80244 0.38189 0.0
C1378 C 0.73015 0.7803 0.38838 0.0
C1379 C 0.76257 0.82655 0.39263 0.0
C1380 C 0.74313 0.80611 0.36662 0.0
C1381 C 0.756 0.80233 0.35578 0.0
C1382 C 0.75109 0.80397 0.34076 0.0
C1383 C 0.73281 0.81005 0.33674 0.0
C1384 C 0.72005 0.81488 0.34773 0.0
C1385 C 0.72523 0.81276 0.36284 0.0
H1386 H 0.21175 0.98851 0.37475 0.0
H1387 H 0.14275 0.98939 0.36699 0.0
H1388 H 0.12441 0.94942 0.35094 0.0
H1389 H 0.21076 0.96298 0.33761 0.0
H1390 H 0.2233 0.94395 0.34372 0.0
H1391 H 0.23111 0.97262 0.3547 0.0
H1392 H 0.21489 0.94833 0.37782 0.0
H1393 H 0.20765 0.91986 0.36685 0.0
H1394 H 0.18379 0.92168 0.37625 0.0
H1395 H 0.11304 0.90889 0.33649 0.0
H1396 H 0.10972 0.8707 0.3239 0.0
H1397 H 0.18666 0.89688 0.33989 0.0
C1398 C 0.19275 0.9802 0.36971 0.0
C1399 C 0.17867 0.99206 0.37207 0.0
C1400 C 0.15396 0.98077 0.36518 0.0
C1401 C 0.14334 0.95802 0.35611 0.0
C1402 C 0.15773 0.94686 0.35397 0.0
C1403 C 0.18192 0.95757 0.36051 0.0
C1404 C 0.19335 0.94173 0.35626 0.0
C1405 C 0.21597 0.95619 0.34755 0.0
C1406 C 0.20031 0.93234 0.37012 0.0
C1407 C 0.17175 0.92044 0.34636 0.0
C1408 C 0.15135 0.92371 0.34529 0.0
C1409 C 0.12893 0.90617 0.33717 0.0
C1410 C 0.12724 0.88458 0.33004 0.0
C1411 C 0.14788 0.88081 0.33101 0.0
C1412 C 0.17052 0.89918 0.33909 0.0
H1413 H 0.56378 0.68398 0.28289 0.0
H1414 H 0.4977 0.66222 0.30594 0.0
H1415 H 0.52117 0.69986 0.32368 0.0
H1416 H 0.60669 0.70676 0.31692 0.0
H1417 H 0.63127 0.73187 0.30852 0.0
H1418 H 0.60915 0.70337 0.29724 0.0
H1419 H 0.59814 0.72881 0.27959 0.0
H1420 H 0.62052 0.7572 0.2908 0.0
H1421 H 0.58867 0.7499 0.28735 0.0
H1422 H 0.55106 0.74082 0.33834 0.0
H1423 H 0.58643 0.78119 0.34983 0.0
H1424 H 0.63417 0.7743 0.31911 0.0
C1425 C 0.55422 0.68687 0.29174 0.0
C1426 C 0.52859 0.67014 0.2927 0.0
C1427 C 0.517 0.67499 0.30451 0.0
C1428 C 0.53027 0.69625 0.31481 0.0
C1429 C 0.55532 0.71237 0.31343 0.0
C1430 C 0.56731 0.70779 0.30233 0.0
C1431 C 0.59456 0.72791 0.30357 0.0
C1432 C 0.61141 0.71681 0.30676 0.0
C1433 C 0.60082 0.74177 0.28949 0.0
C1434 C 0.59583 0.7447 0.31692 0.0
C1435 C 0.57293 0.73543 0.32239 0.0
C1436 C 0.56916 0.74816 0.33427 0.0
C1437 C 0.58932 0.77105 0.34071 0.0
C1438 C 0.61295 0.78081 0.33535 0.0
C1439 C 0.61627 0.76728 0.32342 0.0
H1440 H 0.34069 0.89565 0.2968 0.0
H1441 H 0.31183 0.88235 0.25012 0.0
H1442 H 0.27074 0.87198 0.2575 0.0
H1443 H 0.28679 0.84424 0.30851 0.0
H1444 H 0.28835 0.86014 0.32627 0.0
H1445 H 0.31638 0.86877 0.31752 0.0
H1446 H 0.32627 0.91475 0.31892 0.0
H1447 H 0.2982 0.90623 0.32764 0.0
H1448 H 0.30349 0.92168 0.31084 0.0
H1449 H 0.23253 0.86084 0.26937 0.0
H1450 H 0.19844 0.84818 0.28523 0.0
H1451 H 0.25031 0.86711 0.32462 0.0
C1452 C 0.32577 0.89064 0.28812 0.0
C1453 C 0.3298 0.89025 0.27283 0.0
C1454 C 0.30962 0.88354 0.26188 0.0
C1455 C 0.28607 0.87744 0.26596 0.0
C1456 C 0.2828 0.87799 0.28105 0.0
C1457 C 0.30198 0.88433 0.292 0.0
C1458 C 0.29287 0.88213 0.30739 0.0
C1459 C 0.2963 0.86266 0.31539 0.0
C1460 C 0.30599 0.90773 0.31675 0.0
C1461 C 0.26549 0.87318 0.30331 0.0
C1462 C 0.2603 0.87115 0.28803 0.0
C1463 C 0.23636 0.86244 0.28135 0.0
C1464 C 0.21707 0.85518 0.29048 0.0
C1465 C 0.22163 0.85657 0.30617 0.0
C1466 C 0.2463 0.86612 0.31269 0.0
H1467 H 0.11339 0.42437 0.28389 0.0
H1468 H 0.18239 0.49557 0.28819 0.0
H1469 H 0.20421 0.47668 0.30081 0.0
H1470 H 0.12037 0.4085 0.31881 0.0
H1471 H 0.10764 0.37546 0.31387 0.0
H1472 H 0.09814 0.3928 0.3026 0.0
H1473 H 0.11165 0.37821 0.27922 0.0
H1474 H 0.12108 0.36067 0.29045 0.0
H1475 H 0.14293 0.3836 0.27952 0.0
H1476 H 0.21715 0.45285 0.31582 0.0
H1477 H 0.22084 0.42499 0.33277 0.0
H1478 H 0.14385 0.36823 0.31932 0.0
C1479 C 0.13324 0.43562 0.28711 0.0
C1480 C 0.14638 0.46132 0.28504 0.0
C1481 C 0.17215 0.47583 0.28969 0.0
C1482 C 0.18469 0.46523 0.29677 0.0
C1483 C 0.17119 0.44005 0.29906 0.0
C1484 C 0.14608 0.42528 0.29432 0.0
C1485 C 0.13561 0.39946 0.29966 0.0
C1486 C 0.11418 0.39374 0.30931 0.0
C1487 C 0.12732 0.37929 0.28642 0.0
C1488 C 0.15839 0.40263 0.30885 0.0
C1489 C 0.17879 0.42604 0.30802 0.0
C1490 C 0.20148 0.4343 0.31637 0.0
C1491 C 0.20332 0.41842 0.32605 0.0
C1492 C 0.18262 0.39456 0.32732 0.0
C1493 C 0.16001 0.38629 0.31837 0.0
H1494 H 0.33334 0.44257 0.27564 0.0
H1495 H 0.3791 0.49834 0.31269 0.0
H1496 H 0.34829 0.47412 0.32956 0.0
H1497 H 0.27498 0.43343 0.28727 0.0
H1498 H 0.25802 0.40045 0.28102 0.0
H1499 H 0.28442 0.42142 0.27184 0.0
H1500 H 0.3048 0.39452 0.27677 0.0
H1501 H 0.27852 0.37358 0.28606 0.0
H1502 H 0.30951 0.38834 0.29558 0.0
H1503 H 0.31294 0.44381 0.3427 0.0
H1504 H 0.2734 0.41119 0.35068 0.0
H1505 H 0.24888 0.37698 0.30495 0.0
C1506 C 0.33691 0.4499 0.28726 0.0
C1507 C 0.35915 0.47225 0.29277 0.0
C1508 C 0.36281 0.48089 0.30814 0.0
C1509 C 0.34525 0.46737 0.31787 0.0
C1510 C 0.32378 0.44539 0.31209 0.0
C1511 C 0.31932 0.43687 0.29711 0.0
C1512 C 0.29412 0.41324 0.2937 0.0
C1513 C 0.27687 0.4174 0.28282 0.0
C1514 C 0.29692 0.39111 0.28767 0.0
C1515 C 0.28527 0.40984 0.30911 0.0
C1516 C 0.30279 0.42846 0.31957 0.0
C1517 C 0.29901 0.42916 0.33461 0.0
C1518 C 0.27655 0.41049 0.33905 0.0
C1519 C 0.25806 0.39156 0.32846 0.0
C1520 C 0.26263 0.39125 0.31331 0.0
H1521 H 0.53703 0.87024 0.27498 0.0
H1522 H 0.53401 0.91853 0.31066 0.0
H1523 H 0.56619 0.91541 0.32619 0.0
H1524 H 0.54555 0.8296 0.29821 0.0
H1525 H 0.56658 0.82617 0.28672 0.0
H1526 H 0.54327 0.83218 0.27848 0.0
H1527 H 0.57762 0.87113 0.26776 0.0
H1528 H 0.601 0.86522 0.276 0.0
H1529 H 0.60333 0.89518 0.28017 0.0
H1530 H 0.59903 0.9073 0.33774 0.0
H1531 H 0.62922 0.8939 0.34469 0.0
H1532 H 0.6109 0.85125 0.30129 0.0
C1533 C 0.54325 0.88032 0.28602 0.0
C1534 C 0.53298 0.89464 0.2916 0.0
C1535 C 0.54138 0.90721 0.30621 0.0
C1536 C 0.55977 0.90569 0.31507 0.0
C1537 C 0.56956 0.89151 0.30919 0.0
C1538 C 0.56155 0.879 0.29501 0.0
C1539 C 0.57492 0.86484 0.29136 0.0
C1540 C 0.55648 0.83652 0.28853 0.0
C1541 C 0.59012 0.87469 0.27803 0.0
C1542 C 0.59171 0.87137 0.3057 0.0
C1543 C 0.58839 0.8868 0.31583 0.0
C1544 C 0.60179 0.89522 0.32989 0.0
C1545 C 0.61893 0.88752 0.33373 0.0
C1546 C 0.62249 0.87153 0.32355 0.0
C1547 C 0.6087 0.8635 0.30934 0.0
H1548 H 0.1392 0.67088 0.28239 0.0
H1549 H 0.10816 0.62737 0.31942 0.0
H1550 H 0.11812 0.66597 0.33499 0.0
H1551 H 0.18948 0.72484 0.3037 0.0
H1552 H 0.18711 0.74689 0.29256 0.0
H1553 H 0.17767 0.71589 0.28427 0.0
H1554 H 0.13396 0.7089 0.27572 0.0
H1555 H 0.14343 0.73998 0.28387 0.0
H1556 H 0.1161 0.71345 0.28928 0.0
H1557 H 0.13094 0.70917 0.34645 0.0
H1558 H 0.1451 0.75412 0.35273 0.0
H1559 H 0.16756 0.76924 0.30831 0.0
C1560 C 0.13423 0.66938 0.29372 0.0
C1561 C 0.12296 0.64606 0.29969 0.0
C1562 C 0.11713 0.64505 0.31466 0.0
C1563 C 0.1226 0.66685 0.32357 0.0
C1564 C 0.13384 0.68951 0.31735 0.0
C1565 C 0.13949 0.69093 0.30275 0.0
C1566 C 0.15142 0.71761 0.29873 0.0
C1567 C 0.178 0.72684 0.29458 0.0
C1568 C 0.13526 0.72012 0.28616 0.0
C1569 C 0.1516 0.73096 0.31337 0.0
C1570 C 0.14138 0.71442 0.32397 0.0
C1571 C 0.13909 0.72231 0.33828 0.0
C1572 C 0.14722 0.74775 0.34177 0.0
C1573 C 0.15754 0.76479 0.33102 0.0
C1574 C 0.1599 0.7564 0.31671 0.0
H1575 H 0.78239 0.00906 0.38292 0.0
H1576 H 0.84982 0.01919 0.36527 0.0
H1577 H 0.82525 0.97941 0.34924 0.0
H1578 H 0.75284 0.94128 0.3835 0.0
H1579 H 0.72204 0.93579 0.37814 0.0
H1580 H 0.74498 0.96492 0.38852 0.0
H1581 H 0.73853 0.9892 0.36793 0.0
H1582 H 0.71576 0.96008 0.35747 0.0
H1583 H 0.74235 0.98236 0.34891 0.0
H1584 H 0.79394 0.93915 0.33502 0.0
H1585 H 0.75729 0.90001 0.32346 0.0
H1586 H 0.70962 0.91539 0.34995 0.0
C1587 C 0.79199 0.00278 0.37578 0.0
C1588 C 0.81804 0.0174 0.37526 0.0
C1589 C 0.82986 0.00859 0.36566 0.0
C1590 C 0.81609 0.98593 0.35658 0.0
C1591 C 0.79049 0.97216 0.35724 0.0
C1592 C 0.77849 0.98011 0.36661 0.0
C1593 C 0.75067 0.96168 0.36497 0.0
C1594 C 0.74214 0.95025 0.37965 0.0
C1595 C 0.73597 0.97408 0.35949 0.0
C1596 C 0.74899 0.94233 0.35312 0.0
C1597 C 0.77224 0.94875 0.34891 0.0
C1598 C 0.77563 0.93388 0.33821 0.0
C1599 C 0.7547 0.91173 0.33169 0.0
C1600 C 0.73069 0.9047 0.33585 0.0
C1601 C 0.7278 0.9203 0.34663 0.0
H1602 H 0.01514 0.80694 0.39669 0.0
H1603 H 0.96706 0.72729 0.38425 0.0
H1604 H 0.99835 0.72729 0.36857 0.0
H1605 H 0.03882 0.82362 0.36186 0.0
H1606 H 0.07007 0.84623 0.36969 0.0
H1607 H 0.04417 0.83981 0.38016 0.0
H1608 H 0.06468 0.82912 0.40212 0.0
H1609 H 0.09063 0.83521 0.39174 0.0
H1610 H 0.07294 0.80531 0.39886 0.0
H1611 H 0.0333 0.73685 0.35264 0.0
H1612 H 0.07142 0.75434 0.33959 0.0
H1613 H 0.0981 0.82711 0.36389 0.0
C1614 C 0.01135 0.7895 0.39073 0.0
C1615 C 0.98877 0.76709 0.39161 0.0
C1616 C 0.98439 0.74457 0.38377 0.0
C1617 C 0.00196 0.74444 0.37479 0.0
C1618 C 0.02395 0.76692 0.374 0.0
C1619 C 0.02887 0.78896 0.38194 0.0
C1620 C 0.05411 0.81046 0.37933 0.0
C1621 C 0.05163 0.83125 0.37234 0.0
C1622 C 0.07164 0.82065 0.39388 0.0
C1623 C 0.06236 0.79721 0.36843 0.0
C1624 C 0.04462 0.77214 0.36541 0.0
C1625 C 0.04748 0.75637 0.35507 0.0
C1626 C 0.06911 0.76647 0.34768 0.0
C1627 C 0.08771 0.79198 0.35085 0.0
C1628 C 0.08431 0.80745 0.36143 0.0
H1629 H 0.18027 0.18446 0.37946 0.0
H1630 H 0.25146 0.23587 0.40469 0.0
H1631 H 0.25092 0.27132 0.39394 0.0
H1632 H 0.19276 0.21471 0.34634 0.0
H1633 H 0.16159 0.209 0.34212 0.0
H1634 H 0.16671 0.18782 0.35255 0.0
H1635 H 0.14368 0.19418 0.37387 0.0
H1636 H 0.13845 0.21536 0.36348 0.0
H1637 H 0.15391 0.2254 0.38217 0.0
H1638 H 0.24386 0.30087 0.37941 0.0
H1639 H 0.23043 0.32257 0.36237 0.0
H1640 H 0.16386 0.25207 0.34652 0.0
C1641 C 0.19574 0.20318 0.38275 0.0
C1642 C 0.2159 0.20737 0.39296 0.0
C1643 C 0.23565 0.2322 0.39707 0.0
C1644 C 0.23557 0.25245 0.39096 0.0
C1645 C 0.21556 0.2476 0.38082 0.0
C1646 C 0.19595 0.2236 0.37678 0.0
C1647 C 0.17703 0.22342 0.36534 0.0
C1648 C 0.17438 0.20782 0.35072 0.0
C1649 C 0.15177 0.21404 0.37159 0.0
C1650 C 0.1893 0.25103 0.36336 0.0
C1651 C 0.21144 0.26466 0.37246 0.0
C1652 C 0.22645 0.29043 0.37235 0.0
C1653 C 0.21863 0.3026 0.36267 0.0
C1654 C 0.19602 0.28901 0.35326 0.0
C1655 C 0.18118 0.26291 0.35365 0.0
H1656 H 0.69947 0.56093 0.7363 0.0
H1657 H 0.64197 0.555 0.7039 0.0
H1658 H 0.67423 0.58458 0.68925 0.0
H1659 H 0.74291 0.62728 0.73465 0.0
H1660 H 0.77011 0.62404 0.7363 0.0
H1661 H 0.74275 0.60295 0.74472 0.0
H1662 H 0.74157 0.565 0.73023 0.0
H1663 H 0.76913 0.58591 0.72194 0.0
H1664 H 0.74136 0.5635 0.71023 0.0
H1665 H 0.71237 0.61384 0.67778 0.0
H1666 H 0.75411 0.64052 0.66994 0.0
H1667 H 0.7873 0.62767 0.70966 0.0
C1668 C 0.6937 0.56609 0.72621 0.0
C1669 C 0.66818 0.55559 0.72122 0.0
C1670 C 0.66139 0.56257 0.70785 0.0
C1671 C 0.67957 0.57947 0.6995 0.0
C1672 C 0.70452 0.58927 0.70463 0.0
C1673 C 0.71166 0.58287 0.71767 0.0
C1674 C 0.7398 0.59567 0.72044 0.0
C1675 C 0.74945 0.61354 0.73489 0.0
C1676 C 0.74847 0.57636 0.72072 0.0
C1677 C 0.7473 0.60998 0.70684 0.0
C1678 C 0.72664 0.60614 0.69794 0.0
C1679 C 0.72872 0.61707 0.68467 0.0
C1680 C 0.75255 0.63221 0.68032 0.0
C1681 C 0.77406 0.63625 0.68915 0.0
C1682 C 0.77129 0.62503 0.70265 0.0
H1683 H 0.48102 0.13614 0.71353 0.0
H1684 H 0.44151 0.10529 0.75197 0.0
H1685 H 0.40869 0.11381 0.74292 0.0
H1686 H 0.46643 0.18469 0.71074 0.0
H1687 H 0.4621 0.18101 0.69066 0.0
H1688 H 0.48299 0.17308 0.70027 0.0
H1689 H 0.45884 0.12839 0.68633 0.0
H1690 H 0.43793 0.13623 0.67663 0.0
H1691 H 0.42574 0.10954 0.6872 0.0
H1692 H 0.38068 0.12648 0.73017 0.0
H1693 H 0.35778 0.14007 0.71361 0.0
H1694 H 0.41384 0.1602 0.68258 0.0
C1695 C 0.46536 0.13087 0.71999 0.0
C1696 C 0.46413 0.12029 0.73359 0.0
C1697 C 0.44333 0.11399 0.74172 0.0
C1698 C 0.42444 0.11857 0.73662 0.0
C1699 C 0.42638 0.12917 0.72326 0.0
C1700 C 0.44615 0.13501 0.71496 0.0
C1701 C 0.44344 0.14579 0.70082 0.0
C1702 C 0.46502 0.17274 0.70062 0.0
C1703 C 0.44136 0.12898 0.68692 0.0
C1704 C 0.41909 0.14516 0.70251 0.0
C1705 C 0.4097 0.13569 0.71561 0.0
C1706 C 0.38777 0.13383 0.71985 0.0
C1707 C 0.37499 0.14176 0.71042 0.0
C1708 C 0.38408 0.15123 0.69684 0.0
C1709 C 0.40638 0.15285 0.69284 0.0
H1710 H 0.88245 0.32776 0.71681 0.0
H1711 H 0.81151 0.32424 0.70767 0.0
H1712 H 0.79504 0.28372 0.69255 0.0
H1713 H 0.88474 0.30391 0.68135 0.0
H1714 H 0.89813 0.28557 0.6874 0.0
H1715 H 0.90385 0.31302 0.69891 0.0
H1716 H 0.88651 0.2866 0.72109 0.0
H1717 H 0.88133 0.25926 0.70964 0.0
H1718 H 0.856 0.259 0.71844 0.0
H1719 H 0.78725 0.24586 0.67692 0.0
H1720 H 0.78792 0.21134 0.66228 0.0
H1721 H 0.8639 0.23898 0.68111 0.0
C1722 C 0.86328 0.31812 0.7119 0.0
C1723 C 0.84824 0.32911 0.71334 0.0
C1724 C 0.82338 0.31621 0.70656 0.0
C1725 C 0.81383 0.29315 0.69803 0.0
C1726 C 0.82931 0.28315 0.69646 0.0
C1727 C 0.85342 0.295 0.7033 0.0
C1728 C 0.86642 0.28066 0.69912 0.0
C1729 C 0.88966 0.29675 0.69122 0.0
C1730 C 0.87294 0.27079 0.71289 0.0
C1731 C 0.84611 0.25941 0.68851 0.0
C1732 C 0.82479 0.26111 0.6873 0.0
C1733 C 0.80372 0.24414 0.67787 0.0
C1734 C 0.80435 0.22472 0.66954 0.0
C1735 C 0.8259 0.22248 0.67068 0.0
C1736 C 0.84708 0.24012 0.68022 0.0
H1737 H 0.18814 0.00621 0.62291 0.0
H1738 H 0.24142 0.98611 0.60798 0.0
H1739 H 0.27588 0.0255 0.62117 0.0
H1740 H 0.22601 0.07284 0.61974 0.0
H1741 H 0.21583 0.08171 0.63611 0.0
H1742 H 0.19546 0.05226 0.62515 0.0
H1743 H 0.19123 0.02896 0.64867 0.0
H1744 H 0.21161 0.05833 0.65968 0.0
H1745 H 0.21888 0.03356 0.65929 0.0
H1746 H 0.30433 0.06609 0.63694 0.0
H1747 H 0.32482 0.10569 0.65355 0.0
H1748 H 0.25311 0.09985 0.65763 0.0
C1749 C 0.20706 0.01009 0.62245 0.0
C1750 C 0.21214 0.99312 0.61444 0.0
C1751 C 0.23716 0.99898 0.61394 0.0
C1752 C 0.25682 0.02124 0.62143 0.0
C1753 C 0.25116 0.03751 0.62928 0.0
C1754 C 0.22692 0.03231 0.62976 0.0
C1755 C 0.22588 0.05291 0.63904 0.0
C1756 C 0.21516 0.06568 0.62943 0.0
C1757 C 0.21102 0.04283 0.65246 0.0
C1758 C 0.2533 0.07029 0.64392 0.0
C1759 C 0.26758 0.0611 0.63814 0.0
C1760 C 0.29336 0.07359 0.6414 0.0
C1761 C 0.30484 0.09609 0.65079 0.0
C1762 C 0.29056 0.1059 0.65671 0.0
C1763 C 0.26448 0.0928 0.6532 0.0
H1764 H 0.98099 0.19881 0.60473 0.0
H1765 H 0.03809 0.24695 0.6404 0.0
H1766 H 0.0056 0.24359 0.65607 0.0
H1767 H 0.93902 0.22273 0.61075 0.0
H1768 H 0.91134 0.19244 0.60664 0.0
H1769 H 0.93906 0.19924 0.59798 0.0
H1770 H 0.93813 0.16059 0.60814 0.0
H1771 H 0.91038 0.15365 0.61677 0.0
H1772 H 0.93737 0.1576 0.62786 0.0
H1773 H 0.96699 0.23427 0.66806 0.0
H1774 H 0.92484 0.2191 0.6757 0.0
H1775 H 0.89291 0.17699 0.6322 0.0
C1776 C 0.98666 0.20891 0.61576 0.0
C1777 C 0.01208 0.22314 0.62135 0.0
C1778 C 0.01872 0.23573 0.63595 0.0
C1779 C 1.00042 0.23406 0.6449 0.0
C1780 C 0.97555 0.21975 0.63909 0.0
C1781 C 0.96862 0.20738 0.62486 0.0
C1782 C 0.94055 0.19262 0.62148 0.0
C1783 C 0.932 0.20235 0.60844 0.0
C1784 C 0.93106 0.16445 0.61838 0.0
C1785 C 0.93281 0.19851 0.63606 0.0
C1786 C 0.95327 0.21428 0.64604 0.0
C1787 C 0.95081 0.22199 0.66033 0.0
C1788 C 0.92676 0.21324 0.66456 0.0
C1789 C 0.90548 0.1969 0.65455 0.0
C1790 C 0.9087 0.1896 0.6401 0.0
H1791 H 0.79076 0.7763 0.62661 0.0
H1792 H 0.86018 0.84712 0.63465 0.0
H1793 H 0.8785 0.82756 0.65005 0.0
H1794 H 0.79118 0.75824 0.66297 0.0
H1795 H 0.77832 0.72544 0.6571 0.0
H1796 H 0.77113 0.7444 0.64578 0.0
H1797 H 0.7872 0.73119 0.62323 0.0
H1798 H 0.79479 0.7123 0.6344 0.0
H1799 H 0.8184 0.73631 0.62482 0.0
H1800 H 0.88865 0.80116 0.66539 0.0
H1801 H 0.89034 0.76901 0.67948 0.0
H1802 H 0.81406 0.71545 0.66204 0.0
C1803 C 0.80994 0.78749 0.6314 0.0
C1804 C 0.82414 0.81316 0.62946 0.0
C1805 C 0.84903 0.82744 0.6361 0.0
C1806 C 0.85959 0.8165 0.64481 0.0
C1807 C 0.84497 0.79128 0.64678 0.0
C1808 C 0.82072 0.7769 0.64024 0.0
C1809 C 0.80879 0.75047 0.64467 0.0
C1810 C 0.78601 0.74429 0.65314 0.0
C1811 C 0.80189 0.73143 0.63097 0.0
C1812 C 0.83003 0.7524 0.65485 0.0
C1813 C 0.85076 0.77606 0.65582 0.0
C1814 C 0.87259 0.78252 0.66468 0.0
C1815 C 0.87334 0.7642 0.67268 0.0
C1816 C 0.85236 0.73983 0.67178 0.0
C1817 C 0.8304 0.73394 0.66285 0.0
H1818 H 0.98953 0.78255 0.60662 0.0
H1819 H 0.0497 0.79412 0.6389 0.0
H1820 H 0.01905 0.76735 0.65538 0.0
H1821 H 0.95024 0.78459 0.63273 0.0
H1822 H 0.92167 0.76059 0.62239 0.0
H1823 H 0.94825 0.77948 0.61271 0.0
H1824 H 0.94629 0.73945 0.6006 0.0
H1825 H 0.91961 0.72046 0.61022 0.0
H1826 H 0.94674 0.71711 0.61233 0.0
H1827 H 0.98196 0.74111 0.66895 0.0
H1828 H 0.94099 0.71669 0.67843 0.0
H1829 H 0.90497 0.72176 0.63717 0.0
C1830 C 0.99624 0.77909 0.61703 0.0
C1831 C 0.02204 0.79049 0.62148 0.0
C1832 C 0.03005 0.78583 0.63533 0.0
C1833 C 0.01278 0.77054 0.64473 0.0
C1834 C 0.98752 0.75992 0.64013 0.0
C1835 C 0.97923 0.76388 0.62658 0.0
C1836 C 0.95106 0.75096 0.62454 0.0
C1837 C 0.9423 0.77005 0.62301 0.0
C1838 C 0.9403 0.7308 0.61113 0.0
C1839 C 0.94486 0.73936 0.63912 0.0
C1840 C 0.96614 0.74469 0.64794 0.0
C1841 C 0.96514 0.73664 0.6621 0.0
C1842 C 0.94177 0.72281 0.6674 0.0
C1843 C 0.91969 0.71716 0.65855 0.0
C1844 C 0.92141 0.72552 0.64419 0.0
H1845 H 0.20491 0.21926 0.62867 0.0
H1846 H 0.19804 0.18431 0.58417 0.0
H1847 H 0.22964 0.17352 0.59246 0.0
H1848 H 0.27065 0.24559 0.63646 0.0
H1849 H 0.26945 0.2397 0.65577 0.0
H1850 H 0.246 0.2445 0.64648 0.0
H1851 H 0.21145 0.20192 0.6536 0.0
H1852 H 0.2348 0.19705 0.66299 0.0
H1853 H 0.21261 0.17394 0.64856 0.0
H1854 H 0.26216 0.16697 0.60529 0.0
H1855 H 0.29315 0.16427 0.62205 0.0
H1856 H 0.2788 0.20291 0.65848 0.0
C1857 C 0.20987 0.20911 0.62072 0.0
C1858 C 0.19911 0.20278 0.60574 0.0
C1859 C 0.20632 0.18973 0.59564 0.0
C1860 C 0.22415 0.18339 0.60025 0.0
C1861 C 0.23457 0.19014 0.61502 0.0
C1862 C 0.22767 0.20261 0.62514 0.0
C1863 C 0.24192 0.20777 0.64036 0.0
C1864 C 0.25796 0.23607 0.64503 0.0
C1865 C 0.22413 0.19437 0.65207 0.0
C1866 C 0.25793 0.19631 0.63717 0.0
C1867 C 0.25336 0.18625 0.62248 0.0
C1868 C 0.26588 0.17473 0.61683 0.0
C1869 C 0.28351 0.17333 0.62646 0.0
C1870 C 0.28847 0.18338 0.64161 0.0
C1871 C 0.27548 0.19506 0.64697 0.0
H1872 H 0.80883 0.01146 0.61792 0.0
H1873 H 0.76206 0.96476 0.64997 0.0
H1874 H 0.77223 0.00253 0.66643 0.0
H1875 H 0.85657 0.05823 0.64388 0.0
H1876 H 0.86165 0.08408 0.63354 0.0
H1877 H 0.85012 0.05349 0.62386 0.0
H1878 H 0.81185 0.05442 0.61169 0.0
H1879 H 0.82355 0.08522 0.62113 0.0
H1880 H 0.79258 0.0605 0.62338 0.0
H1881 H 0.78825 0.04505 0.67975 0.0
H1882 H 0.80691 0.09016 0.68818 0.0
H1883 H 0.84302 0.10924 0.64759 0.0
C1884 C 0.80036 0.00919 0.62827 0.0
C1885 C 0.78477 0.98516 0.6327 0.0
C1886 C 0.77434 0.98298 0.64644 0.0
C1887 C 0.77995 0.00431 0.65585 0.0
C1888 C 0.79589 0.02768 0.65133 0.0
C1889 C 0.80571 0.0303 0.63779 0.0
C1890 C 0.82241 0.05763 0.63564 0.0
C1891 C 0.84928 0.0637 0.63415 0.0
C1892 C 0.81197 0.06486 0.62216 0.0
C1893 C 0.8206 0.0699 0.65015 0.0
C1894 C 0.80523 0.05227 0.65905 0.0
C1895 C 0.80038 0.05904 0.67291 0.0
C1896 C 0.81115 0.08457 0.67766 0.0
C1897 C 0.82657 0.10277 0.66859 0.0
C1898 C 0.83154 0.09545 0.65475 0.0
H1899 H 0.49243 0.34146 0.71276 0.0
H1900 H 0.44001 0.36369 0.7264 0.0
H1901 H 0.40519 0.32416 0.7136 0.0
H1902 H 0.46062 0.31164 0.67626 0.0
H1903 H 0.46778 0.28686 0.67688 0.0
H1904 H 0.48851 0.31703 0.68698 0.0
H1905 H 0.48496 0.29605 0.71139 0.0
H1906 H 0.46415 0.26582 0.70138 0.0
H1907 H 0.45465 0.27642 0.71739 0.0
H1908 H 0.37605 0.28214 0.69924 0.0
H1909 H 0.35485 0.2406 0.68453 0.0
H1910 H 0.42631 0.24575 0.68058 0.0
C1911 C 0.47365 0.33812 0.71292 0.0
C1912 C 0.46892 0.35565 0.72057 0.0
C1913 C 0.44403 0.35041 0.72072 0.0
C1914 C 0.42416 0.32807 0.71343 0.0
C1915 C 0.42946 0.31113 0.70607 0.0
C1916 C 0.45358 0.31586 0.70577 0.0
C1917 C 0.45421 0.2944 0.69727 0.0
C1918 C 0.46863 0.303 0.68353 0.0
C1919 C 0.46514 0.28247 0.70747 0.0
C1920 C 0.42668 0.27688 0.6928 0.0
C1921 C 0.41269 0.28687 0.69796 0.0
C1922 C 0.38681 0.27412 0.69516 0.0
C1923 C 0.37494 0.25055 0.68684 0.0
C1924 C 0.38896 0.23999 0.6815 0.0
C1925 C 0.41513 0.25337 0.68455 0.0
H1926 H 0.68224 0.12966 0.73206 0.0
H1927 H 0.62485 0.07571 0.69827 0.0
H1928 H 0.65714 0.08063 0.68196 0.0
H1929 H 0.72134 0.17056 0.70709 0.0
H1930 H 0.7501 0.17801 0.71762 0.0
H1931 H 0.72271 0.1696 0.72702 0.0
H1932 H 0.72647 0.13407 0.7383 0.0
H1933 H 0.75404 0.14246 0.72909 0.0
H1934 H 0.72809 0.11086 0.72613 0.0
H1935 H 0.69557 0.09206 0.66914 0.0
H1936 H 0.7375 0.1093 0.6607 0.0
H1937 H 0.76962 0.15578 0.70292 0.0
C1938 C 0.6765 0.11862 0.72131 0.0
C1939 C 0.65106 0.10227 0.71642 0.0
C1940 C 0.64424 0.08849 0.70217 0.0
C1941 C 0.66244 0.09107 0.69287 0.0
C1942 C 0.68734 0.10751 0.69798 0.0
C1943 C 0.69441 0.12104 0.71187 0.0
C1944 C 0.72239 0.13798 0.71451 0.0
C1945 C 0.72954 0.16567 0.71669 0.0
C1946 C 0.73339 0.13091 0.72779 0.0
C1947 C 0.72991 0.13186 0.69992 0.0
C1948 C 0.70945 0.11422 0.69055 0.0
C1949 C 0.71176 0.10584 0.6764 0.0
C1950 C 0.73565 0.11576 0.6717 0.0
C1951 C 0.75688 0.13389 0.68114 0.0
C1952 C 0.75383 0.14195 0.69542 0.0
H1953 H 0.87286 0.55967 0.72435 0.0
H1954 H 0.86574 0.5101 0.68588 0.0
H1955 H 0.85608 0.53499 0.66941 0.0
H1956 H 0.82452 0.5711 0.71214 0.0
H1957 H 0.84112 0.60383 0.71902 0.0
H1958 H 0.84767 0.58229 0.728 0.0
H1959 H 0.89407 0.60959 0.72428 0.0
H1960 H 0.88804 0.63107 0.71477 0.0
H1961 H 0.90319 0.61637 0.70578 0.0
H1962 H 0.84487 0.56362 0.65714 0.0
H1963 H 0.83641 0.59678 0.64978 0.0
H1964 H 0.85237 0.62857 0.69579 0.0
C1965 C 0.86958 0.55422 0.71246 0.0
C1966 C 0.86968 0.53263 0.70647 0.0
C1967 C 0.86515 0.52614 0.69081 0.0
C1968 C 0.8598 0.54025 0.68132 0.0
C1969 C 0.85936 0.56106 0.6876 0.0
C1970 C 0.86441 0.56825 0.70277 0.0
C1971 C 0.86307 0.5917 0.70657 0.0
C1972 C 0.84289 0.58692 0.71704 0.0
C1973 C 0.88862 0.61346 0.71325 0.0
C1974 C 0.85599 0.59615 0.69119 0.0
C1975 C 0.85392 0.57825 0.68041 0.0
C1976 C 0.84676 0.57796 0.66545 0.0
C1977 C 0.8419 0.59672 0.66137 0.0
C1978 C 0.84454 0.61553 0.67221 0.0
C1979 C 0.8514 0.61507 0.68727 0.0
H1980 H 0.4511 0.94871 0.16591 0.0
H1981 H 0.46775 0.88852 0.16595 0.0
H1982 H 0.47669 0.89313 0.13972 0.0
H1983 H 0.42169 0.93318 0.12712 0.0
H1984 H 0.43476 0.96559 0.1239 0.0
H1985 H 0.42786 0.95634 0.14236 0.0
H1986 H 0.47349 0.98826 0.15264 0.0
H1987 H 0.48053 0.99755 0.13424 0.0
H1988 H 0.49853 0.98681 0.14448 0.0
H1989 H 0.48686 0.90626 0.11417 0.0
H1990 H 0.497 0.9268 0.09089 0.0
H1991 H 0.47306 0.97791 0.10719 0.0
C1992 C 0.45612 0.93616 0.16031 0.0
C1993 C 0.45879 0.91829 0.16802 0.0
C1994 C 0.46588 0.90255 0.16034 0.0
C1995 C 0.47083 0.9049 0.14541 0.0
C1996 C 0.46846 0.92298 0.13822 0.0
C1997 C 0.46114 0.93825 0.14537 0.0
C1998 C 0.4612 0.95699 0.13529 0.0
C1999 C 0.4348 0.95276 0.13197 0.0
C2000 C 0.47953 0.984 0.14207 0.0
C2001 C 0.47016 0.95017 0.1215 0.0
C2002 C 0.47411 0.9304 0.12339 0.0
C2003 C 0.48359 0.92158 0.11249 0.0
C2004 C 0.4894 0.93341 0.09935 0.0
C2005 C 0.48568 0.95382 0.09722 0.0
C2006 C 0.47565 0.96204 0.1084 0.0
H2007 H 0.04967 0.50284 0.17168 0.0
H2008 H 0.12384 0.56778 0.17479 0.0
H2009 H 0.11871 0.57029 0.1477 0.0
H2010 H 0.05014 0.47557 0.13419 0.0
H2011 H 0.01795 0.46571 0.12891 0.0
H2012 H 0.02858 0.46731 0.14816 0.0
H2013 H 0.01163 0.49663 0.15564 0.0
H2014 H 0.00108 0.49523 0.13644 0.0
H2015 H 0.02183 0.5251 0.14689 0.0
H2016 H 0.10443 0.56757 0.12081 0.0
H2017 H 0.08149 0.56075 0.09612 0.0
H2018 H 0.01641 0.49774 0.11056 0.0
C2019 C 0.065 0.5172 0.16656 0.0
C2020 C 0.08721 0.53503 0.17522 0.0
C2021 C 0.10668 0.55398 0.16827 0.0
C2022 C 0.10398 0.55546 0.15292 0.0
C2023 C 0.08167 0.53787 0.14471 0.0
C2024 C 0.06251 0.51909 0.15127 0.0
C2025 C 0.03975 0.50376 0.14016 0.0
C2026 C 0.03376 0.47647 0.13771 0.0
C2027 C 0.01725 0.50529 0.14508 0.0
C2028 C 0.04893 0.5172 0.12644 0.0
C2029 C 0.07326 0.53659 0.12924 0.0
C2030 C 0.08545 0.55227 0.11842 0.0
C2031 C 0.07231 0.54819 0.10442 0.0
C2032 C 0.04717 0.52872 0.10141 0.0
C2033 C 0.03555 0.51288 0.11255 0.0
H2034 H 0.474 0.5534 0.16481 0.0
H2035 H 0.46157 0.48317 0.17981 0.0
H2036 H 0.46877 0.47067 0.15499 0.0
H2037 H 0.44482 0.52849 0.12688 0.0
H2038 H 0.46722 0.5557 0.1188 0.0
H2039 H 0.46003 0.55877 0.13756 0.0
H2040 H 0.50679 0.57961 0.14717 0.0
H2041 H 0.51411 0.57665 0.12845 0.0
H2042 H 0.52354 0.56357 0.14303 0.0
H2043 H 0.47914 0.46651 0.12897 0.0
H2044 H 0.49164 0.47085 0.1034 0.0
H2045 H 0.4976 0.54381 0.10519 0.0
C2046 C 0.4728 0.5354 0.16288 0.0
C2047 C 0.46709 0.51922 0.17427 0.0
C2048 C 0.46551 0.49573 0.17122 0.0
C2049 C 0.46969 0.4885 0.15717 0.0
C2050 C 0.47534 0.5049 0.14622 0.0
C2051 C 0.47683 0.52783 0.14888 0.0
C2052 C 0.48369 0.54214 0.13525 0.0
C2053 C 0.46269 0.54653 0.12927 0.0
C2054 C 0.50851 0.56696 0.13869 0.0
C2055 C 0.4862 0.52384 0.12461 0.0
C2056 C 0.48122 0.50244 0.13116 0.0
C2057 C 0.483 0.48313 0.12371 0.0
C2058 C 0.49024 0.48582 0.10922 0.0
C2059 C 0.49563 0.50766 0.1023 0.0
C2060 C 0.4933 0.52677 0.1101 0.0
H2061 H 0.95171 0.45698 0.8286 0.0
H2062 H 0.92096 0.50635 0.83091 0.0
H2063 H 0.93129 0.51383 0.85821 0.0
H2064 H 0.92747 0.42784 0.86108 0.0
H2065 H 0.9542 0.42519 0.86685 0.0
H2066 H 0.94624 0.42533 0.84739 0.0
H2067 H 0.99048 0.46278 0.84571 0.0
H2068 H 0.99858 0.46276 0.86519 0.0
H2069 H 0.00196 0.49086 0.85827 0.0
H2070 H 0.9433 0.51447 0.88541 0.0
H2071 H 0.95604 0.50818 0.91043 0.0
H2072 H 0.9767 0.45656 0.89032 0.0
C2073 C 0.9471 0.46937 0.8348 0.0
C2074 C 0.93559 0.48115 0.82753 0.0
C2075 C 0.93019 0.49745 0.83614 0.0
C2076 C 0.93584 0.5017 0.85168 0.0
C2077 C 0.94686 0.48951 0.85847 0.0
C2078 C 0.95245 0.47369 0.85031 0.0
C2079 C 0.96337 0.4621 0.86035 0.0
C2080 C 0.94683 0.43342 0.85882 0.0
C2081 C 0.99019 0.47011 0.85719 0.0
C2082 C 0.96279 0.47364 0.87546 0.0
C2083 C 0.95336 0.48953 0.87414 0.0
C2084 C 0.95071 0.50207 0.88658 0.0
C2085 C 0.95782 0.49821 0.90076 0.0
C2086 C 0.96732 0.48181 0.9024 0.0
C2087 C 0.96986 0.46949 0.8895 0.0
H2088 H 0.51854 0.48503 0.83261 0.0
H2089 H 0.59535 0.50597 0.84507 0.0
H2090 H 0.58949 0.5112 0.87162 0.0
H2091 H 0.51517 0.52723 0.861 0.0
H2092 H 0.48354 0.505 0.86391 0.0
H2093 H 0.49442 0.50454 0.84592 0.0
H2094 H 0.48117 0.45783 0.84676 0.0
H2095 H 0.47039 0.45817 0.86478 0.0
H2096 H 0.49308 0.44862 0.86234 0.0
H2097 H 0.57423 0.51146 0.89697 0.0
H2098 H 0.55134 0.50801 0.91891 0.0
H2099 H 0.48465 0.48726 0.88965 0.0
C2100 C 0.53418 0.49077 0.8409 0.0
C2101 C 0.55742 0.49506 0.83675 0.0
C2102 C 0.57747 0.50286 0.84796 0.0
C2103 C 0.57427 0.50574 0.86308 0.0
C2104 C 0.55096 0.50091 0.86678 0.0
C2105 C 0.53132 0.49376 0.85599 0.0
C2106 C 0.50799 0.4891 0.86287 0.0
C2107 C 0.49981 0.50758 0.85814 0.0
C2108 C 0.48692 0.46181 0.85895 0.0
C2109 C 0.51741 0.49433 0.87925 0.0
C2110 C 0.54226 0.5012 0.88129 0.0
C2111 C 0.55484 0.50635 0.89549 0.0
C2112 C 0.54168 0.50444 0.90789 0.0
C2113 C 0.51616 0.49744 0.90606 0.0
C2114 C 0.50403 0.49242 0.89149 0.0
H2115 H 0.54503 0.08828 0.84616 0.0
H2116 H 0.56319 0.03193 0.83122 0.0
H2117 H 0.55591 0.01569 0.85586 0.0
H2118 H 0.57103 0.09855 0.88536 0.0
H2119 H 0.54617 0.10205 0.89213 0.0
H2120 H 0.55596 0.11115 0.87404 0.0
H2121 H 0.51066 0.08193 0.86203 0.0
H2122 H 0.50077 0.07266 0.88004 0.0
H2123 H 0.49488 0.04927 0.86503 0.0
H2124 H 0.54249 0.00299 0.88126 0.0
H2125 H 0.5242 0.99501 0.90526 0.0
H2126 H 0.51457 0.05955 0.90331 0.0
C2127 C 0.54771 0.07266 0.84809 0.0
C2128 C 0.55471 0.0614 0.83675 0.0
C2129 C 0.5582 0.04111 0.8398 0.0
C2130 C 0.55401 0.03169 0.85374 0.0
C2131 C 0.5465 0.04287 0.86453 0.0
C2132 C 0.54354 0.06302 0.86188 0.0
C2133 C 0.53375 0.07064 0.87493 0.0
C2134 C 0.55287 0.09717 0.88204 0.0
C2135 C 0.50852 0.06848 0.87022 0.0
C2136 C 0.53091 0.05116 0.88516 0.0
C2137 C 0.53865 0.03549 0.87907 0.0
C2138 C 0.53671 0.01536 0.88623 0.0
C2139 C 0.52636 0.01103 0.89988 0.0
C2140 C 0.51794 0.02664 0.90617 0.0
C2141 C 0.52064 0.04714 0.89875 0.0
H2142 H 0.1555 0.29572 0.50756 0.0
H2143 H 0.0764 0.24514 0.49568 0.0
H2144 H 0.08103 0.25705 0.46989 0.0
H2145 H 0.16188 0.34422 0.48467 0.0
H2146 H 0.19215 0.35107 0.47981 0.0
H2147 H 0.18216 0.33942 0.49741 0.0
H2148 H 0.19025 0.30289 0.49102 0.0
H2149 H 0.2002 0.31439 0.4734 0.0
H2150 H 0.1754 0.28265 0.47394 0.0
H2151 H 0.09505 0.27305 0.44499 0.0
H2152 H 0.11697 0.293 0.42339 0.0
H2153 H 0.18681 0.33235 0.45185 0.0
C2154 C 0.13913 0.28713 0.49955 0.0
C2155 C 0.11559 0.26944 0.50361 0.0
C2156 C 0.09456 0.25891 0.49284 0.0
C2157 C 0.09704 0.26546 0.47816 0.0
C2158 C 0.12064 0.28267 0.47449 0.0
C2159 C 0.14126 0.29345 0.48492 0.0
C2160 C 0.16463 0.31106 0.47815 0.0
C2161 C 0.17586 0.33804 0.48545 0.0
C2162 C 0.18374 0.30221 0.47919 0.0
C2163 C 0.15403 0.30833 0.46221 0.0
C2164 C 0.12863 0.2919 0.46029 0.0
C2165 C 0.11492 0.28601 0.4464 0.0
C2166 C 0.12754 0.29727 0.43418 0.0
C2167 C 0.15357 0.31421 0.43596 0.0
C2168 C 0.16685 0.31976 0.45019 0.0
H2169 H 0.71935 0.86758 0.50996 0.0
H2170 H 0.77498 0.84501 0.50806 0.0
H2171 H 0.76854 0.8402 0.48056 0.0
H2172 H 0.67816 0.8267 0.47772 0.0
H2173 H 0.67081 0.84971 0.47172 0.0
H2174 H 0.67853 0.84954 0.49124 0.0
H2175 H 0.71366 0.89591 0.49248 0.0
H2176 H 0.70608 0.89621 0.47298 0.0
H2177 H 0.73735 0.90472 0.47985 0.0
H2178 H 0.75756 0.84008 0.45313 0.0
H2179 H 0.74319 0.84512 0.42813 0.0
H2180 H 0.69521 0.86814 0.44825 0.0
C2181 C 0.7302 0.86161 0.50379 0.0
C2182 C 0.74763 0.85661 0.5112 0.0
C2183 C 0.76123 0.84858 0.50266 0.0
C2184 C 0.75779 0.84591 0.48702 0.0
C2185 C 0.74066 0.85128 0.48009 0.0
C2186 C 0.72706 0.85891 0.48821 0.0
C2187 C 0.7105 0.86443 0.47812 0.0
C2188 C 0.68286 0.84652 0.4798 0.0
C2189 C 0.71732 0.89195 0.48103 0.0
C2190 C 0.71725 0.85916 0.46306 0.0
C2191 C 0.7345 0.85139 0.46439 0.0
C2192 C 0.74391 0.84598 0.45195 0.0
C2193 C 0.73557 0.8488 0.4378 0.0
C2194 C 0.71815 0.8571 0.43625 0.0
C2195 C 0.70876 0.86205 0.44908 0.0
H2196 H 0.15772 0.86769 0.50132 0.0
H2197 H 0.07696 0.82804 0.49441 0.0
H2198 H 0.07879 0.82148 0.46737 0.0
H2199 H 0.16806 0.9003 0.46906 0.0
H2200 H 0.19505 0.89825 0.4651 0.0
H2201 H 0.18738 0.8984 0.484 0.0
H2202 H 0.18673 0.8566 0.48636 0.0
H2203 H 0.19451 0.85636 0.46748 0.0
H2204 H 0.16711 0.82998 0.47298 0.0
H2205 H 0.08954 0.82103 0.44092 0.0
H2206 H 0.10833 0.82616 0.41719 0.0
H2207 H 0.18205 0.86645 0.44136 0.0
C2208 C 0.14038 0.85764 0.49414 0.0
C2209 C 0.11717 0.84838 0.50004 0.0
C2210 C 0.09496 0.83502 0.49023 0.0
C2211 C 0.09581 0.83133 0.47483 0.0
C2212 C 0.11902 0.84105 0.46941 0.0
C2213 C 0.1409 0.85385 0.47878 0.0
C2214 C 0.16343 0.86294 0.4701 0.0
C2215 C 0.17942 0.89168 0.47219 0.0
C2216 C 0.17885 0.85074 0.47449 0.0
C2217 C 0.15082 0.85355 0.45435 0.0
C2218 C 0.1252 0.84087 0.4542 0.0
C2219 C 0.10958 0.83077 0.44093 0.0
C2220 C 0.12043 0.83369 0.42749 0.0
C2221 C 0.14666 0.84666 0.42733 0.0
C2222 C 0.16196 0.85665 0.44102 0.0
H2223 H 0.60014 0.79804 0.16159 0.0
H2224 H 0.62077 0.87557 0.1585 0.0
H2225 H 0.6325 0.88464 0.18573 0.0
H2226 H 0.57457 0.79137 0.19634 0.0
H2227 H 0.58658 0.77209 0.20279 0.0
H2228 H 0.57961 0.77175 0.18312 0.0
H2229 H 0.62474 0.78344 0.17869 0.0
H2230 H 0.63179 0.78362 0.19834 0.0
H2231 H 0.65053 0.81088 0.18901 0.0
H2232 H 0.64177 0.88493 0.21351 0.0
H2233 H 0.64865 0.87666 0.23929 0.0
H2234 H 0.62376 0.79944 0.22348 0.0
C2235 C 0.60744 0.81704 0.16655 0.0
C2236 C 0.60956 0.8361 0.15786 0.0
C2237 C 0.6187 0.86057 0.16493 0.0
C2238 C 0.62552 0.86593 0.18038 0.0
C2239 C 0.62315 0.84664 0.18858 0.0
C2240 C 0.61444 0.82273 0.18188 0.0
C2241 C 0.6138 0.80532 0.19309 0.0
C2242 C 0.58705 0.78387 0.19388 0.0
C2243 C 0.63126 0.79523 0.18957 0.0
C2244 C 0.62351 0.82315 0.20719 0.0
C2245 C 0.62874 0.84689 0.20441 0.0
C2246 C 0.63785 0.86644 0.2158 0.0
C2247 C 0.64181 0.86158 0.23039 0.0
C2248 C 0.63674 0.83739 0.23344 0.0
C2249 C 0.62745 0.81803 0.22161 0.0
H2250 H 0.17007 0.7799 0.16088 0.0
H2251 H 0.24938 0.83204 0.17074 0.0
H2252 H 0.2431 0.83863 0.19701 0.0
H2253 H 0.149 0.81188 0.18542 0.0
H2254 H 0.1239 0.78337 0.19085 0.0
H2255 H 0.13457 0.78366 0.17272 0.0
H2256 H 0.14228 0.74736 0.17822 0.0
H2257 H 0.13167 0.74697 0.19637 0.0
H2258 H 0.16204 0.7508 0.19467 0.0
H2259 H 0.22815 0.83869 0.22243 0.0
H2260 H 0.20578 0.83195 0.24494 0.0
H2261 H 0.13655 0.77894 0.21843 0.0
C2262 C 0.1862 0.79259 0.16855 0.0
C2263 C 0.21025 0.80544 0.16369 0.0
C2264 C 0.23073 0.82223 0.17411 0.0
C2265 C 0.22737 0.82598 0.18908 0.0
C2266 C 0.20343 0.81281 0.19348 0.0
C2267 C 0.18322 0.79645 0.18351 0.0
C2268 C 0.1595 0.7842 0.1911 0.0
C2269 C 0.14063 0.79121 0.18463 0.0
C2270 C 0.14822 0.75564 0.19003 0.0
C2271 C 0.16954 0.79606 0.20694 0.0
C2272 C 0.1949 0.81263 0.20809 0.0
C2273 C 0.20828 0.82583 0.22164 0.0
C2274 C 0.1954 0.82196 0.23435 0.0
C2275 C 0.16942 0.80495 0.23343 0.0
C2276 C 0.15643 0.79188 0.21951 0.0
H2277 H 0.24098 0.4364 0.18889 0.0
H2278 H 0.18079 0.37773 0.15845 0.0
H2279 H 0.16586 0.35101 0.17898 0.0
H2280 H 0.25251 0.39544 0.21148 0.0
H2281 H 0.25836 0.41453 0.22876 0.0
H2282 H 0.26525 0.42873 0.21153 0.0
H2283 H 0.23727 0.44775 0.21661 0.0
H2284 H 0.23022 0.43352 0.23381 0.0
H2285 H 0.20533 0.42744 0.21992 0.0
H2286 H 0.1567 0.33111 0.20252 0.0
H2287 H 0.1533 0.31899 0.2281 0.0
H2288 H 0.21894 0.39042 0.24392 0.0
C2289 C 0.22485 0.41781 0.18658 0.0
C2290 C 0.21198 0.40906 0.17212 0.0
C2291 C 0.19076 0.38479 0.16949 0.0
C2292 C 0.18221 0.36947 0.18105 0.0
C2293 C 0.19503 0.37871 0.19521 0.0
C2294 C 0.21587 0.40229 0.19808 0.0
C2295 C 0.22552 0.40787 0.2145 0.0
C2296 C 0.25198 0.41187 0.21669 0.0
C2297 C 0.22451 0.43048 0.22163 0.0
C2298 C 0.20677 0.38378 0.22036 0.0
C2299 C 0.18949 0.36722 0.20898 0.0
C2300 C 0.1702 0.34382 0.21152 0.0
C2301 C 0.16852 0.33707 0.22609 0.0
C2302 C 0.18597 0.35365 0.23799 0.0
C2303 C 0.2053 0.37738 0.23505 0.0
H2304 H 0.79463 0.62709 0.83597 0.0
H2305 H 0.80175 0.56096 0.83643 0.0
H2306 H 0.81108 0.56394 0.81023 0.0
H2307 H 0.76693 0.6145 0.79653 0.0
H2308 H 0.78392 0.64713 0.79353 0.0
H2309 H 0.77501 0.6382 0.8118 0.0
H2310 H 0.82107 0.66563 0.82289 0.0
H2311 H 0.83012 0.67452 0.80468 0.0
H2312 H 0.84445 0.66046 0.81529 0.0
H2313 H 0.82365 0.57629 0.78498 0.0
H2314 H 0.83774 0.59684 0.76203 0.0
H2315 H 0.82241 0.6549 0.77772 0.0
C2316 C 0.79753 0.61291 0.83041 0.0
C2317 C 0.79747 0.59379 0.8382 0.0
C2318 C 0.80188 0.57585 0.83067 0.0
C2319 C 0.80706 0.57731 0.81577 0.0
C2320 C 0.80765 0.59675 0.80851 0.0
C2321 C 0.80283 0.61414 0.8155 0.0
C2322 C 0.80629 0.63412 0.80543 0.0
C2323 C 0.78156 0.63344 0.8016 0.0
C2324 C 0.8267 0.66021 0.8125 0.0
C2325 C 0.81442 0.62557 0.79188 0.0
C2326 C 0.81487 0.60386 0.79384 0.0
C2327 C 0.82309 0.59313 0.78323 0.0
C2328 C 0.8312 0.605 0.77029 0.0
C2329 C 0.83106 0.62736 0.76808 0.0
C2330 C 0.82228 0.63756 0.77898 0.0
H2331 H 0.39584 0.18427 0.83326 0.0
H2332 H 0.32385 0.14827 0.85052 0.0
H2333 H 0.30309 0.14118 0.82504 0.0
H2334 H 0.38168 0.21718 0.80803 0.0
H2335 H 0.39916 0.21419 0.79364 0.0
H2336 H 0.40823 0.2137 0.81285 0.0
H2337 H 0.40514 0.17085 0.8064 0.0
H2338 H 0.39616 0.17126 0.78712 0.0
H2339 H 0.3766 0.14512 0.79704 0.0
H2340 H 0.2904 0.14058 0.7981 0.0
H2341 H 0.28655 0.14703 0.77162 0.0
H2342 H 0.36701 0.18514 0.77207 0.0
C2343 C 0.37569 0.17432 0.83158 0.0
C2344 C 0.36136 0.16655 0.84377 0.0
C2345 C 0.33508 0.15426 0.84127 0.0
C2346 C 0.32316 0.1501 0.82686 0.0
C2347 C 0.33782 0.15844 0.81509 0.0
C2348 C 0.36351 0.17027 0.81728 0.0
C2349 C 0.37498 0.17911 0.80292 0.0
C2350 C 0.39201 0.20774 0.80446 0.0
C2351 C 0.38905 0.16578 0.79809 0.0
C2352 C 0.35176 0.1708 0.7924 0.0
C2353 C 0.33052 0.15866 0.7996 0.0
C2354 C 0.3069 0.14997 0.79232 0.0
C2355 C 0.30492 0.15393 0.7773 0.0
C2356 C 0.32646 0.16668 0.76972 0.0
C2357 C 0.35014 0.17499 0.77743 0.0
H2358 H 0.78728 0.16775 0.83499 0.0
H2359 H 0.76594 0.22452 0.83496 0.0
H2360 H 0.77142 0.22734 0.80812 0.0
H2361 H 0.83518 0.19585 0.81188 0.0
H2362 H 0.82969 0.16702 0.80214 0.0
H2363 H 0.82142 0.16739 0.82086 0.0
H2364 H 0.77606 0.13261 0.81206 0.0
H2365 H 0.78423 0.13206 0.79329 0.0
H2366 H 0.7589 0.13718 0.79699 0.0
H2367 H 0.78184 0.22595 0.78177 0.0
H2368 H 0.79791 0.22164 0.7581 0.0
H2369 H 0.81284 0.16596 0.77529 0.0
C2370 C 0.78323 0.18034 0.82923 0.0
C2371 C 0.77601 0.1958 0.83698 0.0
C2372 C 0.7715 0.21254 0.82919 0.0
C2373 C 0.77445 0.21418 0.81395 0.0
C2374 C 0.78198 0.19897 0.80667 0.0
C2375 C 0.78633 0.18238 0.81404 0.0
C2376 C 0.79602 0.16951 0.8039 0.0
C2377 C 0.82213 0.1753 0.81006 0.0
C2378 C 0.77771 0.14116 0.80141 0.0
C2379 C 0.79691 0.18182 0.78978 0.0
C2380 C 0.78842 0.19851 0.79154 0.0
C2381 C 0.78828 0.21273 0.7802 0.0
C2382 C 0.79734 0.21007 0.76676 0.0
C2383 C 0.80662 0.19344 0.7648 0.0
C2384 C 0.80604 0.17895 0.77646 0.0
H2385 H 0.29056 0.14461 0.50078 0.0
H2386 H 0.22829 0.0687 0.49896 0.0
H2387 H 0.23897 0.0677 0.52556 0.0
H2388 H 0.33274 0.13641 0.5251 0.0
H2389 H 0.3464 0.16702 0.53524 0.0
H2390 H 0.33364 0.162 0.5161 0.0
H2391 H 0.30494 0.17903 0.5237 0.0
H2392 H 0.31768 0.18419 0.54286 0.0
H2393 H 0.28454 0.1652 0.53795 0.0
H2394 H 0.2566 0.07474 0.55228 0.0
H2395 H 0.28022 0.08926 0.57722 0.0
H2396 H 0.33056 0.16086 0.56181 0.0
C2397 C 0.27902 0.12787 0.50601 0.0
C2398 C 0.25862 0.10669 0.49776 0.0
C2399 C 0.2442 0.08503 0.50499 0.0
C2400 C 0.25003 0.08432 0.52012 0.0
C2401 C 0.27033 0.10545 0.5279 0.0
C2402 C 0.2846 0.12682 0.52111 0.0
C2403 C 0.30564 0.14683 0.53196 0.0
C2404 C 0.33111 0.15344 0.52679 0.0
C2405 C 0.30303 0.17019 0.53425 0.0
C2406 C 0.301 0.13331 0.54588 0.0
C2407 C 0.2805 0.1095 0.54331 0.0
C2408 C 0.27262 0.0934 0.55445 0.0
C2409 C 0.28609 0.10187 0.56861 0.0
C2410 C 0.30723 0.12621 0.57151 0.0
C2411 C 0.31466 0.14206 0.55993 0.0
H2412 H 0.8943 0.1458 0.50708 0.0
H2413 H 0.84509 0.16565 0.48335 0.0
H2414 H 0.83032 0.17198 0.50712 0.0
H2415 H 0.852 0.11007 0.53172 0.0
H2416 H 0.87466 0.11933 0.54767 0.0
H2417 H 0.88388 0.11954 0.52915 0.0
H2418 H 0.91791 0.16623 0.53498 0.0
H2419 H 0.9088 0.16615 0.55356 0.0
H2420 H 0.90935 0.18866 0.54162 0.0
H2421 H 0.81849 0.17292 0.53279 0.0
H2422 H 0.80929 0.16736 0.5589 0.0
H2423 H 0.86506 0.14554 0.5663 0.0
C2424 C 0.88087 0.15206 0.50701 0.0
C2425 C 0.87093 0.15549 0.49348 0.0
C2426 C 0.85292 0.16304 0.49366 0.0
C2427 C 0.84452 0.16676 0.50709 0.0
C2428 C 0.85428 0.16278 0.52023 0.0
C2429 C 0.87205 0.15559 0.52035 0.0
C2430 C 0.87784 0.15055 0.53589 0.0
C2431 C 0.87172 0.12325 0.53611 0.0
C2432 C 0.9051 0.169 0.54187 0.0
C2433 C 0.86014 0.15546 0.54437 0.0
C2434 C 0.84699 0.1628 0.53514 0.0
C2435 C 0.82877 0.16734 0.54016 0.0
C2436 C 0.82356 0.16396 0.55499 0.0
C2437 C 0.83637 0.15591 0.56462 0.0
C2438 C 0.85519 0.15202 0.55926 0.0
H2439 H 0.88818 0.7408 0.51072 0.0
H2440 H 0.81875 0.68263 0.48664 0.0
H2441 H 0.80491 0.66381 0.51006 0.0
H2442 H 0.89515 0.70151 0.53716 0.0
H2443 H 0.9074 0.72582 0.5525 0.0
H2444 H 0.91259 0.73391 0.5337 0.0
H2445 H 0.89297 0.76199 0.53721 0.0
H2446 H 0.88768 0.75394 0.55599 0.0
H2447 H 0.86205 0.74873 0.54299 0.0
H2448 H 0.79775 0.65236 0.53603 0.0
H2449 H 0.79718 0.64948 0.56307 0.0
H2450 H 0.87145 0.71476 0.57058 0.0
C2451 C 0.87023 0.7239 0.51037 0.0
C2452 C 0.85451 0.71316 0.49687 0.0
C2453 C 0.83097 0.69128 0.49688 0.0
C2454 C 0.82302 0.68037 0.5101 0.0
C2455 C 0.83882 0.69156 0.52324 0.0
C2456 C 0.86192 0.71283 0.52351 0.0
C2457 C 0.87472 0.72172 0.53928 0.0
C2458 C 0.8989 0.72067 0.54074 0.0
C2459 C 0.87964 0.74816 0.54415 0.0
C2460 C 0.85506 0.7023 0.54782 0.0
C2461 C 0.83461 0.68497 0.53832 0.0
C2462 C 0.81377 0.66565 0.54358 0.0
C2463 C 0.81371 0.66407 0.55898 0.0
C2464 C 0.83434 0.68174 0.56901 0.0
C2465 C 0.85534 0.70099 0.56326 0.0
loop_
_geom_bond_atom_site_label_1
_geom_bond_atom_site_label_2
_geom_bond_distance
_geom_bond_site_symmetry_2
_ccdc_geom_bond_type
C0 C1 1.384 . S
C0 H13 0.947 . S
C0 C35 1.382 . S
C1 C0 1.384 . S
C1 C2 1.378 . S
C2 C1 1.378 . S
C2 C3 1.378 . S
C2 H14 0.952 . S
C3 C2 1.378 . S
C3 H15 0.950 . S
C3 C34 1.383 . S
H4 C23 0.947 . S
H5 C24 0.946 . S
H6 C26 0.953 . S
H7 C27 0.945 . S
H8 C29 0.952 . S
H9 C30 0.949 . S
H10 C32 0.950 . S
H11 C33 0.948 . S
H12 C35 0.951 . S
H13 C0 0.947 . S
H14 C2 0.952 . S
H15 C3 0.950 . S
N16 C19 1.382 . S
N16 C21 1.363 . S
N17 C19 1.371 . S
N17 C20 1.372 . S
N18 C20 1.361 . S
N18 C21 1.377 . S
C19 N16 1.382 . S
C19 N17 1.371 . S
C19 C22 1.480 . S
C20 N17 1.372 . S
C20 N18 1.361 . S
C20 C28 1.457 . S
C21 N16 1.363 . S
C21 N18 1.377 . S
C21 C34 1.479 . S
C22 C19 1.480 . S
C22 C23 1.383 . S
C22 C27 1.385 . S
C23 H4 0.947 . S
C23 C22 1.383 . S
C23 C24 1.388 . S
C24 H5 0.946 . S
C24 C23 1.388 . S
C24 C25 1.384 . S
C25 C24 1.384 . S
C25 C26 1.377 . S
C26 H6 0.953 . S
C26 C25 1.377 . S
C26 C27 1.369 . S
C27 H7 0.945 . S
C27 C22 1.385 . S
C27 C26 1.369 . S
C28 C20 1.457 . S
C28 C29 1.372 . S
C28 C33 1.364 . S
C29 H8 0.952 . S
C29 C28 1.372 . S
C29 C30 1.389 . S
C30 H9 0.949 . S
C30 C29 1.389 . S
C30 C31 1.387 . S
C31 C30 1.387 . S
C31 C32 1.372 . S
C32 H10 0.950 . S
C32 C31 1.372 . S
C32 C33 1.379 . S
C33 H11 0.948 . S
C33 C28 1.364 . S
C33 C32 1.379 . S
C34 C3 1.383 . S
C34 C21 1.479 . S
C34 C35 1.398 . S
C35 C0 1.382 . S
C35 H12 0.951 . S
C35 C34 1.398 . S
C36 C37 1.384 . S
C36 H49 0.947 . S
C36 C71 1.382 . S
C37 C36 1.384 . S
C37 C38 1.378 . S
C38 C37 1.378 . S
C38 C39 1.378 . S
C38 H50 0.952 . S
C39 C38 1.378 . S
C39 H51 0.950 . S
C39 C70 1.383 . S
H40 C59 0.947 . S
H41 C60 0.946 . S
H42 C62 0.953 . S
H43 C63 0.945 . S
H44 C65 0.952 . S
H45 C66 0.949 . S
H46 C68 0.950 . S
H47 C69 0.948 . S
H48 C71 0.951 . S
H49 C36 0.947 . S
H50 C38 0.952 . S
H51 C39 0.950 . S
N52 C55 1.382 . S
N52 C57 1.363 . S
N53 C55 1.371 . S
N53 C56 1.372 . S
N54 C56 1.361 . S
N54 C57 1.377 . S
C55 N52 1.382 . S
C55 N53 1.371 . S
C55 C58 1.480 . S
C56 N53 1.372 . S
C56 N54 1.361 . S
C56 C64 1.457 . S
C57 N52 1.363 . S
C57 N54 1.377 . S
C57 C70 1.479 . S
C58 C55 1.480 . S
C58 C59 1.383 . S
C58 C63 1.385 . S
C59 H40 0.947 . S
C59 C58 1.383 . S
C59 C60 1.388 . S
C60 H41 0.946 . S
C60 C59 1.388 . S
C60 C61 1.384 . S
C61 C60 1.384 . S
C61 C62 1.377 . S
C62 H42 0.953 . S
C62 C61 1.377 . S
C62 C63 1.369 . S
C63 H43 0.945 . S
C63 C58 1.385 . S
C63 C62 1.369 . S
C64 C56 1.457 . S
C64 C65 1.372 . S
C64 C69 1.364 . S
C65 H44 0.952 . S
C65 C64 1.372 . S
C65 C66 1.389 . S
C66 H45 0.949 . S
C66 C65 1.389 . S
C66 C67 1.387 . S
C67 C66 1.387 . S
C67 C68 1.372 . S
C68 H46 0.950 . S
C68 C67 1.372 . S
C68 C69 1.379 . S
C69 H47 0.948 . S
C69 C64 1.364 . S
C69 C68 1.379 . S
C70 C39 1.383 . S
C70 C57 1.479 . S
C70 C71 1.398 . S
C71 C36 1.382 . S
C71 H48 0.951 . S
C71 C70 1.398 . S
C72 C73 1.384 . S
C72 H85 0.947 . S
C72 C107 1.382 . S
C73 C72 1.384 . S
C73 C74 1.378 . S
C74 C73 1.378 . S
C74 C75 1.378 . S
C74 H86 0.952 . S
C75 C74 1.378 . S
C75 H87 0.950 . S
C75 C106 1.383 . S
H76 C95 0.947 . S
H77 C96 0.946 . S
H78 C98 0.953 . S
H79 C99 0.945 . S
H80 C101 0.952 . S
H81 C102 0.949 . S
H82 C104 0.950 . S
H83 C105 0.948 . S
H84 C107 0.951 . S
H85 C72 0.947 . S
H86 C74 0.952 . S
H87 C75 0.950 . S
N88 C91 1.382 . S
N88 C93 1.363 . S
N89 C91 1.371 . S
N89 C92 1.372 . S
N90 C92 1.361 . S
N90 C93 1.377 . S
C91 N88 1.382 . S
C91 N89 1.371 . S
C91 C94 1.480 . S
C92 N89 1.372 . S
C92 N90 1.361 . S
C92 C100 1.457 . S
C93 N88 1.363 . S
C93 N90 1.377 . S
C93 C106 1.479 . S
C94 C91 1.480 . S
C94 C95 1.383 . S
C94 C99 1.385 . S
C95 H76 0.947 . S
C95 C94 1.383 . S
C95 C96 1.388 . S
C96 H77 0.946 . S
C96 C95 1.388 . S
C96 C97 1.384 . S
C97 C96 1.384 . S
C97 C98 1.377 . S
C98 H78 0.953 . S
C98 C97 1.377 . S
C98 C99 1.369 . S
C99 H79 0.945 . S
C99 C94 1.385 . S
C99 C98 1.369 . S
C100 C92 1.457 . S
C100 C101 1.372 . S
C100 C105 1.364 . S
C101 H80 0.952 . S
C101 C100 1.372 . S
C101 C102 1.389 . S
C102 H81 0.949 . S
C102 C101 1.389 . S
C102 C103 1.387 . S
C103 C102 1.387 . S
C103 C104 1.372 . S
C104 H82 0.950 . S
C104 C103 1.372 . S
C104 C105 1.379 . S
C105 H83 0.948 . S
C105 C100 1.364 . S
C105 C104 1.379 . S
C106 C75 1.383 . S
C106 C93 1.479 . S
C106 C107 1.398 . S
C107 C72 1.382 . S
C107 H84 0.951 . S
C107 C106 1.398 . S
C108 C109 1.384 . S
C108 H121 0.947 . S
C108 C143 1.382 . S
C109 C108 1.384 . S
C109 C110 1.378 . S
C110 C109 1.378 . S
C110 C111 1.378 . S
C110 H122 0.952 . S
C111 C110 1.378 . S
C111 H123 0.950 . S
C111 C142 1.383 . S
H112 C131 0.947 . S
H113 C132 0.946 . S
H114 C134 0.953 . S
H115 C135 0.945 . S
H116 C137 0.952 . S
H117 C138 0.949 . S
H118 C140 0.950 . S
H119 C141 0.948 . S
H120 C143 0.951 . S
H121 C108 0.947 . S
H122 C110 0.952 . S
H123 C111 0.950 . S
N124 C127 1.382 . S
N124 C129 1.363 . S
N125 C127 1.371 . S
N125 C128 1.372 . S
N126 C128 1.361 . S
N126 C129 1.377 . S
C127 N124 1.382 . S
C127 N125 1.371 . S
C127 C130 1.480 . S
C128 N125 1.372 . S
C128 N126 1.361 . S
C128 C136 1.457 . S
C129 N124 1.363 . S
C129 N126 1.377 . S
C129 C142 1.479 . S
C130 C127 1.480 . S
C130 C131 1.383 . S
C130 C135 1.385 . S
C131 H112 0.947 . S
C131 C130 1.383 . S
C131 C132 1.388 . S
C132 H113 0.946 . S
C132 C131 1.388 . S
C132 C133 1.384 . S
C133 C132 1.384 . S
C133 C134 1.377 . S
C134 H114 0.953 . S
C134 C133 1.377 . S
C134 C135 1.369 . S
C135 H115 0.945 . S
C135 C130 1.385 . S
C135 C134 1.369 . S
C136 C128 1.457 . S
C136 C137 1.372 . S
C136 C141 1.364 . S
C137 H116 0.952 . S
C137 C136 1.372 . S
C137 C138 1.389 . S
C138 H117 0.949 . S
C138 C137 1.389 . S
C138 C139 1.387 . S
C139 C138 1.387 . S
C139 C140 1.372 . S
C140 H118 0.950 . S
C140 C139 1.372 . S
C140 C141 1.379 . S
C141 H119 0.948 . S
C141 C136 1.364 . S
C141 C140 1.379 . S
C142 C111 1.383 . S
C142 C129 1.479 . S
C142 C143 1.398 . S
C143 C108 1.382 . S
C143 H120 0.951 . S
C143 C142 1.398 . S
C144 C145 1.384 . S
C144 H157 0.947 . S
C144 C179 1.382 . S
C145 C144 1.384 . S
C145 C146 1.378 . S
C146 C145 1.378 . S
C146 C147 1.378 . S
C146 H158 0.952 . S
C147 C146 1.378 . S
C147 H159 0.950 . S
C147 C178 1.383 . S
H148 C167 0.947 . S
H149 C168 0.946 . S
H150 C170 0.953 . S
H151 C171 0.945 . S
H152 C173 0.952 . S
H153 C174 0.949 . S
H154 C176 0.950 . S
H155 C177 0.948 . S
H156 C179 0.951 . S
H157 C144 0.947 . S
H158 C146 0.952 . S
H159 C147 0.950 . S
N160 C163 1.382 . S
N160 C165 1.363 . S
N161 C163 1.371 . S
N161 C164 1.372 . S
N162 C164 1.361 . S
N162 C165 1.377 . S
C163 N160 1.382 . S
C163 N161 1.371 . S
C163 C166 1.480 . S
C164 N161 1.372 . S
C164 N162 1.361 . S
C164 C172 1.457 . S
C165 N160 1.363 . S
C165 N162 1.377 . S
C165 C178 1.479 . S
C166 C163 1.480 . S
C166 C167 1.383 . S
C166 C171 1.385 . S
C167 H148 0.947 . S
C167 C166 1.383 . S
C167 C168 1.388 . S
C168 H149 0.946 . S
C168 C167 1.388 . S
C168 C169 1.384 . S
C169 C168 1.384 . S
C169 C170 1.377 . S
C170 H150 0.953 . S
C170 C169 1.377 . S
C170 C171 1.369 . S
C171 H151 0.945 . S
C171 C166 1.385 . S
C171 C170 1.369 . S
C172 C164 1.457 . S
C172 C173 1.372 . S
C172 C177 1.364 . S
C173 H152 0.952 . S
C173 C172 1.372 . S
C173 C174 1.389 . S
C174 H153 0.949 . S
C174 C173 1.389 . S
C174 C175 1.387 . S
C175 C174 1.387 . S
C175 C176 1.372 . S
C176 H154 0.950 . S
C176 C175 1.372 . S
C176 C177 1.379 . S
C177 H155 0.948 . S
C177 C172 1.364 . S
C177 C176 1.379 . S
C178 C147 1.383 . S
C178 C165 1.479 . S
C178 C179 1.398 . S
C179 C144 1.382 . S
C179 H156 0.951 . S
C179 C178 1.398 . S
C180 C181 1.384 . S
C180 H193 0.947 . S
C180 C215 1.382 . S
C181 C180 1.384 . S
C181 C182 1.378 . S
C182 C181 1.378 . S
C182 C183 1.378 . S
C182 H194 0.952 . S
C183 C182 1.378 . S
C183 H195 0.950 . S
C183 C214 1.383 . S
H184 C203 0.947 . S
H185 C204 0.946 . S
H186 C206 0.953 . S
H187 C207 0.945 . S
H188 C209 0.952 . S
H189 C210 0.949 . S
H190 C212 0.950 . S
H191 C213 0.948 . S
H192 C215 0.951 . S
H193 C180 0.947 . S
H194 C182 0.952 . S
H195 C183 0.950 . S
N196 C199 1.382 . S
N196 C201 1.363 . S
N197 C199 1.371 . S
N197 C200 1.372 . S
N198 C200 1.361 . S
N198 C201 1.377 . S
C199 N196 1.382 . S
C199 N197 1.371 . S
C199 C202 1.480 . S
C200 N197 1.372 . S
C200 N198 1.361 . S
C200 C208 1.457 . S
C201 N196 1.363 . S
C201 N198 1.377 . S
C201 C214 1.479 . S
C202 C199 1.480 . S
C202 C203 1.383 . S
C202 C207 1.385 . S
C203 H184 0.947 . S
C203 C202 1.383 . S
C203 C204 1.388 . S
C204 H185 0.946 . S
C204 C203 1.388 . S
C204 C205 1.384 . S
C205 C204 1.384 . S
C205 C206 1.377 . S
C206 H186 0.953 . S
C206 C205 1.377 . S
C206 C207 1.369 . S
C207 H187 0.945 . S
C207 C202 1.385 . S
C207 C206 1.369 . S
C208 C200 1.457 . S
C208 C209 1.372 . S
C208 C213 1.364 . S
C209 H188 0.952 . S
C209 C208 1.372 . S
C209 C210 1.389 . S
C210 H189 0.949 . S
C210 C209 1.389 . S
C210 C211 1.387 . S
C211 C210 1.387 . S
C211 C212 1.372 . S
C212 H190 0.950 . S
C212 C211 1.372 . S
C212 C213 1.379 . S
C213 H191 0.948 . S
C213 C208 1.364 . S
C213 C212 1.379 . S
C214 C183 1.383 . S
C214 C201 1.479 . S
C214 C215 1.398 . S
C215 C180 1.382 . S
C215 H192 0.951 . S
C215 C214 1.398 . S
C216 C217 1.384 . S
C216 H229 0.947 . S
C216 C251 1.382 . S
C217 C216 1.384 . S
C217 C218 1.378 . S
C218 C217 1.378 . S
C218 C219 1.378 . S
C218 H230 0.952 . S
C219 C218 1.378 . S
C219 H231 0.950 . S
C219 C250 1.383 . S
H220 C239 0.947 . S
H221 C240 0.946 . S
H222 C242 0.953 . S
H223 C243 0.945 . S
H224 C245 0.952 . S
H225 C246 0.949 . S
H226 C248 0.950 . S
H227 C249 0.948 . S
H228 C251 0.951 . S
H229 C216 0.947 . S
H230 C218 0.952 . S
H231 C219 0.950 . S
N232 C235 1.382 . S
N232 C237 1.363 . S
N233 C235 1.371 . S
N233 C236 1.372 . S
N234 C236 1.361 . S
N234 C237 1.377 . S
C235 N232 1.382 . S
C235 N233 1.371 . S
C235 C238 1.480 . S
C236 N233 1.372 . S
C236 N234 1.361 . S
C236 C244 1.457 . S
C237 N232 1.363 . S
C237 N234 1.377 . S
C237 C250 1.479 . S
C238 C235 1.480 . S
C238 C239 1.383 . S
C238 C243 1.385 . S
C239 H220 0.947 . S
C239 C238 1.383 . S
C239 C240 1.388 . S
C240 H221 0.946 . S
C240 C239 1.388 . S
C240 C241 1.384 . S
C241 C240 1.384 . S
C241 C242 1.377 . S
C242 H222 0.953 . S
C242 C241 1.377 . S
C242 C243 1.369 . S
C243 H223 0.945 . S
C243 C238 1.385 . S
C243 C242 1.369 . S
C244 C236 1.457 . S
C244 C245 1.372 . S
C244 C249 1.364 . S
C245 H224 0.952 . S
C245 C244 1.372 . S
C245 C246 1.389 . S
C246 H225 0.949 . S
C246 C245 1.389 . S
C246 C247 1.387 . S
C247 C246 1.387 . S
C247 C248 1.372 . S
C248 H226 0.950 . S
C248 C247 1.372 . S
C248 C249 1.379 . S
C249 H227 0.948 . S
C249 C244 1.364 . S
C249 C248 1.379 . S
C250 C219 1.383 . S
C250 C237 1.479 . S
C250 C251 1.398 . S
C251 C216 1.382 . S
C251 H228 0.951 . S
C251 C250 1.398 . S
C252 C253 1.384 . S
C252 H265 0.947 . S
C252 C287 1.382 . S
C253 C252 1.384 . S
C253 C254 1.378 . S
C254 C253 1.378 . S
C254 C255 1.378 . S
C254 H266 0.952 . S
C255 C254 1.378 . S
C255 H267 0.950 . S
C255 C286 1.383 . S
H256 C275 0.947 . S
H257 C276 0.946 . S
H258 C278 0.953 . S
H259 C279 0.945 . S
H260 C281 0.952 . S
H261 C282 0.949 . S
H262 C284 0.950 . S
H263 C285 0.948 . S
H264 C287 0.951 . S
H265 C252 0.947 . S
H266 C254 0.952 . S
H267 C255 0.950 . S
N268 C271 1.382 . S
N268 C273 1.363 . S
N269 C271 1.371 . S
N269 C272 1.372 . S
N270 C272 1.361 . S
N270 C273 1.377 . S
C271 N268 1.382 . S
C271 N269 1.371 . S
C271 C274 1.480 . S
C272 N269 1.372 . S
C272 N270 1.361 . S
C272 C280 1.457 . S
C273 N268 1.363 . S
C273 N270 1.377 . S
C273 C286 1.479 . S
C274 C271 1.480 . S
C274 C275 1.383 . S
C274 C279 1.385 . S
C275 H256 0.947 . S
C275 C274 1.383 . S
C275 C276 1.388 . S
C276 H257 0.946 . S
C276 C275 1.388 . S
C276 C277 1.384 . S
C277 C276 1.384 . S
C277 C278 1.377 . S
C278 H258 0.953 . S
C278 C277 1.377 . S
C278 C279 1.369 . S
C279 H259 0.945 . S
C279 C274 1.385 . S
C279 C278 1.369 . S
C280 C272 1.457 . S
C280 C281 1.372 . S
C280 C285 1.364 . S
C281 H260 0.952 . S
C281 C280 1.372 . S
C281 C282 1.389 . S
C282 H261 0.949 . S
C282 C281 1.389 . S
C282 C283 1.387 . S
C283 C282 1.387 . S
C283 C284 1.372 . S
C284 H262 0.950 . S
C284 C283 1.372 . S
C284 C285 1.379 . S
C285 H263 0.948 . S
C285 C280 1.364 . S
C285 C284 1.379 . S
C286 C255 1.383 . S
C286 C273 1.479 . S
C286 C287 1.398 . S
C287 C252 1.382 . S
C287 H264 0.951 . S
C287 C286 1.398 . S
C288 C289 1.384 . S
C288 H301 0.947 . S
C288 C323 1.382 . S
C289 C288 1.384 . S
C289 C290 1.378 . S
C290 C289 1.378 . S
C290 C291 1.378 . S
C290 H302 0.952 . S
C291 C290 1.378 . S
C291 H303 0.950 . S
C291 C322 1.383 . S
H292 C311 0.947 . S
H293 C312 0.946 . S
H294 C314 0.953 . S
H295 C315 0.945 . S
H296 C317 0.952 . S
H297 C318 0.949 . S
H298 C320 0.950 . S
H299 C321 0.948 . S
H300 C323 0.951 . S
H301 C288 0.947 . S
H302 C290 0.952 . S
H303 C291 0.950 . S
N304 C307 1.382 . S
N304 C309 1.363 . S
N305 C307 1.371 . S
N305 C308 1.372 . S
N306 C308 1.361 . S
N306 C309 1.377 . S
C307 N304 1.382 . S
C307 N305 1.371 . S
C307 C310 1.480 . S
C308 N305 1.372 . S
C308 N306 1.361 . S
C308 C316 1.457 . S
C309 N304 1.363 . S
C309 N306 1.377 . S
C309 C322 1.479 . S
C310 C307 1.480 . S
C310 C311 1.383 . S
C310 C315 1.385 . S
C311 H292 0.947 . S
C311 C310 1.383 . S
C311 C312 1.388 . S
C312 H293 0.946 . S
C312 C311 1.388 . S
C312 C313 1.384 . S
C313 C312 1.384 . S
C313 C314 1.377 . S
C314 H294 0.953 . S
C314 C313 1.377 . S
C314 C315 1.369 . S
C315 H295 0.945 . S
C315 C310 1.385 . S
C315 C314 1.369 . S
C316 C308 1.457 . S
C316 C317 1.372 . S
C316 C321 1.364 . S
C317 H296 0.952 . S
C317 C316 1.372 . S
C317 C318 1.389 . S
C318 H297 0.949 . S
C318 C317 1.389 . S
C318 C319 1.387 . S
C319 C318 1.387 . S
C319 C320 1.372 . S
C320 H298 0.950 . S
C320 C319 1.372 . S
C320 C321 1.379 . S
C321 H299 0.948 . S
C321 C316 1.364 . S
C321 C320 1.379 . S
C322 C291 1.383 . S
C322 C309 1.479 . S
C322 C323 1.398 . S
C323 C288 1.382 . S
C323 H300 0.951 . S
C323 C322 1.398 . S
C324 C325 1.384 . S
C324 H337 0.947 . S
C324 C359 1.382 . S
C325 C324 1.384 . S
C325 C326 1.378 . S
C326 C325 1.378 . S
C326 C327 1.378 . S
C326 H338 0.952 . S
C327 C326 1.378 . S
C327 H339 0.950 . S
C327 C358 1.383 . S
H328 C347 0.947 . S
H329 C348 0.946 . S
H330 C350 0.953 . S
H331 C351 0.945 . S
H332 C353 0.952 . S
H333 C354 0.949 . S
H334 C356 0.950 . S
H335 C357 0.948 . S
H336 C359 0.951 . S
H337 C324 0.947 . S
H338 C326 0.952 . S
H339 C327 0.950 . S
N340 C343 1.382 . S
N340 C345 1.363 . S
N341 C343 1.371 . S
N341 C344 1.372 . S
N342 C344 1.361 . S
N342 C345 1.377 . S
C343 N340 1.382 . S
C343 N341 1.371 . S
C343 C346 1.480 . S
C344 N341 1.372 . S
C344 N342 1.361 . S
C344 C352 1.457 . S
C345 N340 1.363 . S
C345 N342 1.377 . S
C345 C358 1.479 . S
C346 C343 1.480 . S
C346 C347 1.383 . S
C346 C351 1.385 . S
C347 H328 0.947 . S
C347 C346 1.383 . S
C347 C348 1.388 . S
C348 H329 0.946 . S
C348 C347 1.388 . S
C348 C349 1.384 . S
C349 C348 1.384 . S
C349 C350 1.377 . S
C350 H330 0.953 . S
C350 C349 1.377 . S
C350 C351 1.369 . S
C351 H331 0.945 . S
C351 C346 1.385 . S
C351 C350 1.369 . S
C352 C344 1.457 . S
C352 C353 1.372 . S
C352 C357 1.364 . S
C353 H332 0.952 . S
C353 C352 1.372 . S
C353 C354 1.389 . S
C354 H333 0.949 . S
C354 C353 1.389 . S
C354 C355 1.387 . S
C355 C354 1.387 . S
C355 C356 1.372 . S
C356 H334 0.950 . S
C356 C355 1.372 . S
C356 C357 1.379 . S
C357 H335 0.948 . S
C357 C352 1.364 . S
C357 C356 1.379 . S
C358 C327 1.383 . S
C358 C345 1.479 . S
C358 C359 1.398 . S
C359 C324 1.382 . S
C359 H336 0.951 . S
C359 C358 1.398 . S
C360 C361 1.384 . S
C360 H373 0.947 . S
C360 C395 1.382 . S
C361 C360 1.384 . S
C361 C362 1.378 . S
C362 C361 1.378 . S
C362 C363 1.378 . S
C362 H374 0.952 . S
C363 C362 1.378 . S
C363 H375 0.950 . S
C363 C394 1.383 . S
H364 C383 0.947 . S
H365 C384 0.946 . S
H366 C386 0.953 . S
H367 C387 0.945 . S
H368 C389 0.952 . S
H369 C390 0.949 . S
H370 C392 0.950 . S
H371 C393 0.948 . S
H372 C395 0.951 . S
H373 C360 0.947 . S
H374 C362 0.952 . S
H375 C363 0.950 . S
N376 C379 1.382 . S
N376 C381 1.363 . S
N377 C379 1.371 . S
N377 C380 1.372 . S
N378 C380 1.361 . S
N378 C381 1.377 . S
C379 N376 1.382 . S
C379 N377 1.371 . S
C379 C382 1.480 . S
C380 N377 1.372 . S
C380 N378 1.361 . S
C380 C388 1.457 . S
C381 N376 1.363 . S
C381 N378 1.377 . S
C381 C394 1.479 . S
C382 C379 1.480 . S
C382 C383 1.383 . S
C382 C387 1.385 . S
C383 H364 0.947 . S
C383 C382 1.383 . S
C383 C384 1.388 . S
C384 H365 0.946 . S
C384 C383 1.388 . S
C384 C385 1.384 . S
C385 C384 1.384 . S
C385 C386 1.377 . S
C386 H366 0.953 . S
C386 C385 1.377 . S
C386 C387 1.369 . S
C387 H367 0.945 . S
C387 C382 1.385 . S
C387 C386 1.369 . S
C388 C380 1.457 . S
C388 C389 1.372 . S
C388 C393 1.364 . S
C389 H368 0.952 . S
C389 C388 1.372 . S
C389 C390 1.389 . S
C390 H369 0.949 . S
C390 C389 1.389 . S
C390 C391 1.387 . S
C391 C390 1.387 . S
C391 C392 1.372 . S
C392 H370 0.950 . S
C392 C391 1.372 . S
C392 C393 1.379 . S
C393 H371 0.948 . S
C393 C388 1.364 . S
C393 C392 1.379 . S
C394 C363 1.383 . S
C394 C381 1.479 . S
C394 C395 1.398 . S
C395 C360 1.382 . S
C395 H372 0.951 . S
C395 C394 1.398 . S
C396 C397 1.384 . S
C396 H409 0.947 . S
C396 C431 1.382 . S
C397 C396 1.384 . S
C397 C398 1.378 . S
C398 C397 1.378 . S
C398 C399 1.378 . S
C398 H410 0.952 . S
C399 C398 1.378 . S
C399 H411 0.950 . S
C399 C430 1.383 . S
H400 C419 0.947 . S
H401 C420 0.946 . S
H402 C422 0.953 . S
H403 C423 0.945 . S
H404 C425 0.952 . S
H405 C426 0.949 . S
H406 C428 0.950 . S
H407 C429 0.948 . S
H408 C431 0.951 . S
H409 C396 0.947 . S
H410 C398 0.952 . S
H411 C399 0.950 . S
N412 C415 1.382 . S
N412 C417 1.363 . S
N413 C415 1.371 . S
N413 C416 1.372 . S
N414 C416 1.361 . S
N414 C417 1.377 . S
C415 N412 1.382 . S
C415 N413 1.371 . S
C415 C418 1.480 . S
C416 N413 1.372 . S
C416 N414 1.361 . S
C416 C424 1.457 . S
C417 N412 1.363 . S
C417 N414 1.377 . S
C417 C430 1.479 . S
C418 C415 1.480 . S
C418 C419 1.383 . S
C418 C423 1.385 . S
C419 H400 0.947 . S
C419 C418 1.383 . S
C419 C420 1.388 . S
C420 H401 0.946 . S
C420 C419 1.388 . S
C420 C421 1.384 . S
C421 C420 1.384 . S
C421 C422 1.377 . S
C422 H402 0.953 . S
C422 C421 1.377 . S
C422 C423 1.369 . S
C423 H403 0.945 . S
C423 C418 1.385 . S
C423 C422 1.369 . S
C424 C416 1.457 . S
C424 C425 1.372 . S
C424 C429 1.364 . S
C425 H404 0.952 . S
C425 C424 1.372 . S
C425 C426 1.389 . S
C426 H405 0.949 . S
C426 C425 1.389 . S
C426 C427 1.387 . S
C427 C426 1.387 . S
C427 C428 1.372 . S
C428 H406 0.950 . S
C428 C427 1.372 . S
C428 C429 1.379 . S
C429 H407 0.948 . S
C429 C424 1.364 . S
C429 C428 1.379 . S
C430 C399 1.383 . S
C430 C417 1.479 . S
C430 C431 1.398 . S
C431 C396 1.382 . S
C431 H408 0.951 . S
C431 C430 1.398 . S
C432 C433 1.384 . S
C432 H445 0.947 . S
C432 C467 1.382 . S
C433 C432 1.384 . S
C433 C434 1.378 . S
C434 C433 1.378 . S
C434 C435 1.378 . S
C434 H446 0.952 . S
C435 C434 1.378 . S
C435 H447 0.950 . S
C435 C466 1.383 . S
H436 C455 0.947 . S
H437 C456 0.946 . S
H438 C458 0.953 . S
H439 C459 0.945 . S
H440 C461 0.952 . S
H441 C462 0.949 . S
H442 C464 0.950 . S
H443 C465 0.948 . S
H444 C467 0.951 . S
H445 C432 0.947 . S
H446 C434 0.952 . S
H447 C435 0.950 . S
N448 C451 1.382 . S
N448 C453 1.363 . S
N449 C451 1.371 . S
N449 C452 1.372 . S
N450 C452 1.361 . S
N450 C453 1.377 . S
C451 N448 1.382 . S
C451 N449 1.371 . S
C451 C454 1.480 . S
C452 N449 1.372 . S
C452 N450 1.361 . S
C452 C460 1.457 . S
C453 N448 1.363 . S
C453 N450 1.377 . S
C453 C466 1.479 . S
C454 C451 1.480 . S
C454 C455 1.383 . S
C454 C459 1.385 . S
C455 H436 0.947 . S
C455 C454 1.383 . S
C455 C456 1.388 . S
C456 H437 0.946 . S
C456 C455 1.388 . S
C456 C457 1.384 . S
C457 C456 1.384 . S
C457 C458 1.377 . S
C458 H438 0.953 . S
C458 C457 1.377 . S
C458 C459 1.369 . S
C459 H439 0.945 . S
C459 C454 1.385 . S
C459 C458 1.369 . S
C460 C452 1.457 . S
C460 C461 1.372 . S
C460 C465 1.364 . S
C461 H440 0.952 . S
C461 C460 1.372 . S
C461 C462 1.389 . S
C462 H441 0.949 . S
C462 C461 1.389 . S
C462 C463 1.387 . S
C463 C462 1.387 . S
C463 C464 1.372 . S
C464 H442 0.950 . S
C464 C463 1.372 . S
C464 C465 1.379 . S
C465 H443 0.948 . S
C465 C460 1.364 . S
C465 C464 1.379 . S
C466 C435 1.383 . S
C466 C453 1.479 . S
C466 C467 1.398 . S
C467 C432 1.382 . S
C467 H444 0.951 . S
C467 C466 1.398 . S
C468 C469 1.384 . S
C468 H481 0.947 . S
C468 C503 1.382 . S
C469 C468 1.384 . S
C469 C470 1.378 . S
C470 C469 1.378 . S
C470 C471 1.378 . S
C470 H482 0.952 . S
C471 C470 1.378 . S
C471 H483 0.950 . S
C471 C502 1.383 . S
H472 C491 0.947 . S
H473 C492 0.946 . S
H474 C494 0.953 . S
H475 C495 0.945 . S
H476 C497 0.952 . S
H477 C498 0.949 . S
H478 C500 0.950 . S
H479 C501 0.948 . S
H480 C503 0.951 . S
H481 C468 0.947 . S
H482 C470 0.952 . S
H483 C471 0.950 . S
N484 C487 1.382 . S
N484 C489 1.363 . S
N485 C487 1.371 . S
N485 C488 1.372 . S
N486 C488 1.361 . S
N486 C489 1.377 . S
C487 N484 1.382 . S
C487 N485 1.371 . S
C487 C490 1.480 . S
C488 N485 1.372 . S
C488 N486 1.361 . S
C488 C496 1.457 . S
C489 N484 1.363 . S
C489 N486 1.377 . S
C489 C502 1.479 . S
C490 C487 1.480 . S
C490 C491 1.383 . S
C490 C495 1.385 . S
C491 H472 0.947 . S
C491 C490 1.383 . S
C491 C492 1.388 . S
C492 H473 0.946 . S
C492 C491 1.388 . S
C492 C493 1.384 . S
C493 C492 1.384 . S
C493 C494 1.377 . S
C494 H474 0.953 . S
C494 C493 1.377 . S
C494 C495 1.369 . S
C495 H475 0.945 . S
C495 C490 1.385 . S
C495 C494 1.369 . S
C496 C488 1.457 . S
C496 C497 1.372 . S
C496 C501 1.364 . S
C497 H476 0.952 . S
C497 C496 1.372 . S
C497 C498 1.389 . S
C498 H477 0.949 . S
C498 C497 1.389 . S
C498 C499 1.387 . S
C499 C498 1.387 . S
C499 C500 1.372 . S
C500 H478 0.950 . S
C500 C499 1.372 . S
C500 C501 1.379 . S
C501 H479 0.948 . S
C501 C496 1.364 . S
C501 C500 1.379 . S
C502 C471 1.383 . S
C502 C489 1.479 . S
C502 C503 1.398 . S
C503 C468 1.382 . S
C503 H480 0.951 . S
C503 C502 1.398 . S
C504 C505 1.384 . S
C504 H517 0.947 . S
C504 C539 1.382 . S
C505 C504 1.384 . S
C505 C506 1.378 . S
C506 C505 1.378 . S
C506 C507 1.378 . S
C506 H518 0.952 . S
C507 C506 1.378 . S
C507 H519 0.950 . S
C507 C538 1.383 . S
H508 C527 0.947 . S
H509 C528 0.946 . S
H510 C530 0.953 . S
H511 C531 0.945 . S
H512 C533 0.952 . S
H513 C534 0.949 . S
H514 C536 0.950 . S
H515 C537 0.948 . S
H516 C539 0.951 . S
H517 C504 0.947 . S
H518 C506 0.952 . S
H519 C507 0.950 . S
N520 C523 1.382 . S
N520 C525 1.363 . S
N521 C523 1.371 . S
N521 C524 1.372 . S
N522 C524 1.361 . S
N522 C525 1.377 . S
C523 N520 1.382 . S
C523 N521 1.371 . S
C523 C526 1.480 . S
C524 N521 1.372 . S
C524 N522 1.361 . S
C524 C532 1.457 . S
C525 N520 1.363 . S
C525 N522 1.377 . S
C525 C538 1.479 . S
C526 C523 1.480 . S
C526 C527 1.383 . S
C526 C531 1.385 . S
C527 H508 0.947 . S
C527 C526 1.383 . S
C527 C528 1.388 . S
C528 H509 0.946 . S
C528 C527 1.388 . S
C528 C529 1.384 . S
C529 C528 1.384 . S
C529 C530 1.377 . S
C530 H510 0.953 . S
C530 C529 1.377 . S
C530 C531 1.369 . S
C531 H511 0.945 . S
C531 C526 1.385 . S
C531 C530 1.369 . S
C532 C524 1.457 . S
C532 C533 1.372 . S
C532 C537 1.364 . S
C533 H512 0.952 . S
C533 C532 1.372 . S
C533 C534 1.389 . S
C534 H513 0.949 . S
C534 C533 1.389 . S
C534 C535 1.387 . S
C535 C534 1.387 . S
C535 C536 1.372 . S
C536 H514 0.950 . S
C536 C535 1.372 . S
C536 C537 1.379 . S
C537 H515 0.948 . S
C537 C532 1.364 . S
C537 C536 1.379 . S
C538 C507 1.383 . S
C538 C525 1.479 . S
C538 C539 1.398 . S
C539 C504 1.382 . S
C539 H516 0.951 . S
C539 C538 1.398 . S
C540 C541 1.384 . S
C540 H553 0.947 . S
C540 C575 1.382 . S
C541 C540 1.384 . S
C541 C542 1.378 . S
C542 C541 1.378 . S
C542 C543 1.378 . S
C542 H554 0.952 . S
C543 C542 1.378 . S
C543 H555 0.950 . S
C543 C574 1.383 . S
H544 C563 0.947 . S
H545 C564 0.946 . S
H546 C566 0.953 . S
H547 C567 0.945 . S
H548 C569 0.952 . S
H549 C570 0.949 . S
H550 C572 0.950 . S
H551 C573 0.948 . S
H552 C575 0.951 . S
H553 C540 0.947 . S
H554 C542 0.952 . S
H555 C543 0.950 . S
N556 C559 1.382 . S
N556 C561 1.363 . S
N557 C559 1.371 . S
N557 C560 1.372 . S
N558 C560 1.361 . S
N558 C561 1.377 . S
C559 N556 1.382 . S
C559 N557 1.371 . S
C559 C562 1.480 . S
C560 N557 1.372 . S
C560 N558 1.361 . S
C560 C568 1.457 . S
C561 N556 1.363 . S
C561 N558 1.377 . S
C561 C574 1.479 . S
C562 C559 1.480 . S
C562 C563 1.383 . S
C562 C567 1.385 . S
C563 H544 0.947 . S
C563 C562 1.383 . S
C563 C564 1.388 . S
C564 H545 0.946 . S
C564 C563 1.388 . S
C564 C565 1.384 . S
C565 C564 1.384 . S
C565 C566 1.377 . S
C566 H546 0.953 . S
C566 C565 1.377 . S
C566 C567 1.369 . S
C567 H547 0.945 . S
C567 C562 1.385 . S
C567 C566 1.369 . S
C568 C560 1.457 . S
C568 C569 1.372 . S
C568 C573 1.364 . S
C569 H548 0.952 . S
C569 C568 1.372 . S
C569 C570 1.389 . S
C570 H549 0.949 . S
C570 C569 1.389 . S
C570 C571 1.387 . S
C571 C570 1.387 . S
C571 C572 1.372 . S
C572 H550 0.950 . S
C572 C571 1.372 . S
C572 C573 1.379 . S
C573 H551 0.948 . S
C573 C568 1.364 . S
C573 C572 1.379 . S
C574 C543 1.383 . S
C574 C561 1.479 . S
C574 C575 1.398 . S
C575 C540 1.382 . S
C575 H552 0.951 . S
C575 C574 1.398 . S
C576 C577 1.384 . S
C576 H589 0.947 . S
C576 C611 1.382 . S
C577 C576 1.384 . S
C577 C578 1.378 . S
C578 C577 1.378 . S
C578 C579 1.378 . S
C578 H590 0.952 . S
C579 C578 1.378 . S
C579 H591 0.950 . S
C579 C610 1.383 . S
H580 C599 0.947 . S
H581 C600 0.946 . S
H582 C602 0.953 . S
H583 C603 0.945 . S
H584 C605 0.952 . S
H585 C606 0.949 . S
H586 C608 0.950 . S
H587 C609 0.948 . S
H588 C611 0.951 . S
H589 C576 0.947 . S
H590 C578 0.952 . S
H591 C579 0.950 . S
N592 C595 1.382 . S
N592 C597 1.363 . S
N593 C595 1.371 . S
N593 C596 1.372 . S
N594 C596 1.361 . S
N594 C597 1.377 . S
C595 N592 1.382 . S
C595 N593 1.371 . S
C595 C598 1.480 . S
C596 N593 1.372 . S
C596 N594 1.361 . S
C596 C604 1.457 . S
C597 N592 1.363 . S
C597 N594 1.377 . S
C597 C610 1.479 . S
C598 C595 1.480 . S
C598 C599 1.383 . S
C598 C603 1.385 . S
C599 H580 0.947 . S
C599 C598 1.383 . S
C599 C600 1.388 . S
C600 H581 0.946 . S
C600 C599 1.388 . S
C600 C601 1.384 . S
C601 C600 1.384 . S
C601 C602 1.377 . S
C602 H582 0.953 . S
C602 C601 1.377 . S
C602 C603 1.369 . S
C603 H583 0.945 . S
C603 C598 1.385 . S
C603 C602 1.369 . S
C604 C596 1.457 . S
C604 C605 1.372 . S
C604 C609 1.364 . S
C605 H584 0.952 . S
C605 C604 1.372 . S
C605 C606 1.389 . S
C606 H585 0.949 . S
C606 C605 1.389 . S
C606 C607 1.387 . S
C607 C606 1.387 . S
C607 C608 1.372 . S
C608 H586 0.950 . S
C608 C607 1.372 . S
C608 C609 1.379 . S
C609 H587 0.948 . S
C609 C604 1.364 . S
C609 C608 1.379 . S
C610 C579 1.383 . S
C610 C597 1.479 . S
C610 C611 1.398 . S
C611 C576 1.382 . S
C611 H588 0.951 . S
C611 C610 1.398 . S
C612 C613 1.384 . S
C612 H625 0.947 . S
C612 C647 1.382 . S
C613 C612 1.384 . S
C613 C614 1.378 . S
C614 C613 1.378 . S
C614 C615 1.378 . S
C614 H626 0.952 . S
C615 C614 1.378 . S
C615 H627 0.950 . S
C615 C646 1.383 . S
H616 C635 0.947 . S
H617 C636 0.946 . S
H618 C638 0.953 . S
H619 C639 0.945 . S
H620 C641 0.952 . S
H621 C642 0.949 . S
H622 C644 0.950 . S
H623 C645 0.948 . S
H624 C647 0.951 . S
H625 C612 0.947 . S
H626 C614 0.952 . S
H627 C615 0.950 . S
N628 C631 1.382 . S
N628 C633 1.363 . S
N629 C631 1.371 . S
N629 C632 1.372 . S
N630 C632 1.361 . S
N630 C633 1.377 . S
C631 N628 1.382 . S
C631 N629 1.371 . S
C631 C634 1.480 . S
C632 N629 1.372 . S
C632 N630 1.361 . S
C632 C640 1.457 . S
C633 N628 1.363 . S
C633 N630 1.377 . S
C633 C646 1.479 . S
C634 C631 1.480 . S
C634 C635 1.383 . S
C634 C639 1.385 . S
C635 H616 0.947 . S
C635 C634 1.383 . S
C635 C636 1.388 . S
C636 H617 0.946 . S
C636 C635 1.388 . S
C636 C637 1.384 . S
C637 C636 1.384 . S
C637 C638 1.377 . S
C638 H618 0.953 . S
C638 C637 1.377 . S
C638 C639 1.369 . S
C639 H619 0.945 . S
C639 C634 1.385 . S
C639 C638 1.369 . S
C640 C632 1.457 . S
C640 C641 1.372 . S
C640 C645 1.364 . S
C641 H620 0.952 . S
C641 C640 1.372 . S
C641 C642 1.389 . S
C642 H621 0.949 . S
C642 C641 1.389 . S
C642 C643 1.387 . S
C643 C642 1.387 . S
C643 C644 1.372 . S
C644 H622 0.950 . S
C644 C643 1.372 . S
C644 C645 1.379 . S
C645 H623 0.948 . S
C645 C640 1.364 . S
C645 C644 1.379 . S
C646 C615 1.383 . S
C646 C633 1.479 . S
C646 C647 1.398 . S
C647 C612 1.382 . S
C647 H624 0.951 . S
C647 C646 1.398 . S
C648 Eu649 2.835 . S
C648 C650 1.500 . S
C648 O668 1.257 1_545 S
C648 O669 1.260 . S
Eu649 C648 2.835 . S
Eu649 O668 2.473 1_545 S
Eu649 O669 2.480 . S
Eu649 O670 2.430 . S
Eu649 O671 2.670 1_554 S
Eu649 O672 2.394 1_545 S
Eu649 O677 2.355 1_545 S
Eu649 O679 2.374 . S
C650 C648 1.500 . S
C650 C651 1.377 . S
C650 C655 1.377 1_545 S
C651 C650 1.377 . S
C651 C652 1.395 . S
C651 H680 0.931 . S
C652 C651 1.395 . S
C652 C653 1.383 1_545 S
C652 H681 0.931 . S
C653 C652 1.383 1_565 S
C653 C654 1.394 . S
C654 C653 1.394 . S
C654 C655 1.378 . S
C654 H682 0.931 . S
C655 C650 1.377 1_565 S
C655 C654 1.378 . S
C655 H683 0.931 . S
C656 O670 1.208 1_556 S
C656 O671 1.290 . S
C657 O672 1.251 . S
C657 O673 1.251 1_554 S
C658 Eu659 2.835 . S
C658 C660 1.500 . S
C658 O674 1.257 1_565 S
C658 O675 1.260 . S
Eu659 C658 2.835 . S
Eu659 O671 2.355 1_565 S
Eu659 O673 2.374 . S
Eu659 O674 2.473 1_565 S
Eu659 O675 2.480 . S
Eu659 O676 2.430 . S
Eu659 O677 2.670 1_556 S
Eu659 O678 2.394 1_565 S
C660 C658 1.500 . S
C660 C661 1.377 . S
C660 C665 1.377 1_565 S
C661 C660 1.377 . S
C661 C662 1.395 . S
C661 H684 0.931 . S
C662 C661 1.395 . S
C662 C663 1.383 1_565 S
C662 H685 0.931 . S
C663 C662 1.383 1_545 S
C663 C664 1.394 . S
C664 C663 1.394 . S
C664 C665 1.378 . S
C664 H686 0.931 . S
C665 C660 1.377 1_545 S
C665 C664 1.378 . S
C665 H687 0.931 . S
C666 O676 1.259 1_554 S
C666 O677 1.270 . S
C667 O678 1.251 . S
C667 O679 1.251 1_556 S
O668 C648 1.257 1_565 S
O668 Eu649 2.473 1_565 S
O669 C648 1.260 . S
O669 Eu649 2.480 . S
O670 Eu649 2.430 . S
O670 C656 1.208 1_554 S
O671 Eu649 2.670 1_556 S
O671 C656 1.290 . S
O671 Eu659 2.355 1_545 S
O672 Eu649 2.394 1_565 S
O672 C657 1.251 . S
O673 C657 1.251 1_556 S
O673 Eu659 2.374 . S
O674 C658 1.257 1_545 S
O674 Eu659 2.473 1_545 S
O675 C658 1.260 . S
O675 Eu659 2.480 . S
O676 Eu659 2.430 . S
O676 C666 1.259 1_556 S
O677 Eu649 2.355 1_565 S
O677 Eu659 2.670 1_554 S
O677 C666 1.270 . S
O678 Eu659 2.394 1_545 S
O678 C667 1.251 . S
O679 Eu649 2.374 . S
O679 C667 1.251 1_554 S
H680 C651 0.931 . S
H681 C652 0.931 . S
H682 C654 0.931 . S
H683 C655 0.931 . S
H684 C661 0.931 . S
H685 C662 0.931 . S
H686 C664 0.931 . S
H687 C665 0.931 . S
C688 Eu689 2.835 . S
C688 C690 1.500 1_655 S
C688 O708 1.257 1_655 S
C688 O709 1.260 . S
Eu689 C688 2.835 . S
Eu689 O708 2.473 1_655 S
Eu689 O709 2.480 . S
Eu689 O710 2.430 . S
Eu689 O711 2.670 1_554 S
Eu689 O712 2.394 1_655 S
Eu689 O717 2.355 1_655 S
Eu689 O719 2.374 . S
C690 C688 1.500 1_455 S
C690 C691 1.377 1_455 S
C690 C695 1.377 . S
C691 C690 1.377 1_655 S
C691 C692 1.395 . S
C691 H720 0.931 . S
C692 C691 1.395 . S
C692 C693 1.383 1_655 S
C692 H721 0.931 . S
C693 C692 1.383 1_455 S
C693 C694 1.394 . S
C694 C693 1.394 . S
C694 C695 1.378 . S
C694 H722 0.931 . S
C695 C690 1.377 . S
C695 C694 1.378 . S
C695 H723 0.931 . S
C696 O710 1.259 1_556 S
C696 O711 1.270 . S
C697 O712 1.251 . S
C697 O713 1.251 . S
C698 Eu699 2.835 . S
C698 C700 1.500 1_455 S
C698 O714 1.257 1_455 S
C698 O715 1.260 . S
Eu699 C698 2.835 . S
Eu699 O711 2.355 1_455 S
Eu699 O713 2.374 1_556 S
Eu699 O714 2.473 1_455 S
Eu699 O715 2.480 . S
Eu699 O716 2.430 . S
Eu699 O717 2.670 1_556 S
Eu699 O718 2.394 1_455 S
C700 C698 1.500 1_655 S
C700 C701 1.377 1_655 S
C700 C705 1.377 . S
C701 C700 1.377 1_455 S
C701 C702 1.395 . S
C701 H724 0.931 . S
C702 C701 1.395 . S
C702 C703 1.383 1_455 S
C702 H725 0.931 . S
C703 C702 1.383 1_655 S
C703 C704 1.394 . S
C704 C703 1.394 . S
C704 C705 1.378 . S
C704 H726 0.931 . S
C705 C700 1.377 . S
C705 C704 1.378 . S
C705 H727 0.931 . S
C706 O716 1.259 1_554 S
C706 O717 1.270 . S
C707 O718 1.251 . S
C707 O719 1.251 1_556 S
O708 C688 1.257 1_455 S
O708 Eu689 2.473 1_455 S
O709 C688 1.260 . S
O709 Eu689 2.480 . S
O710 Eu689 2.430 . S
O710 C696 1.259 1_554 S
O711 Eu689 2.670 1_556 S
O711 C696 1.270 . S
O711 Eu699 2.355 1_655 S
O712 Eu689 2.394 1_455 S
O712 C697 1.251 . S
O713 C697 1.251 . S
O713 Eu699 2.374 1_554 S
O714 C698 1.257 1_655 S
O714 Eu699 2.473 1_655 S
O715 C698 1.260 . S
O715 Eu699 2.480 . S
O716 Eu699 2.430 . S
O716 C706 1.259 1_556 S
O717 Eu689 2.355 1_455 S
O717 Eu699 2.670 1_554 S
O717 C706 1.270 . S
O718 Eu699 2.394 1_655 S
O718 C707 1.251 . S
O719 Eu689 2.374 . S
O719 C707 1.251 1_554 S
H720 C691 0.931 . S
H721 C692 0.931 . S
H722 C694 0.931 . S
H723 C695 0.931 . S
H724 C701 0.931 . S
H725 C702 0.931 . S
H726 C704 0.931 . S
H727 C705 0.931 . S
C728 Eu729 2.835 . S
C728 C730 1.500 . S
C728 O748 1.257 . S
C728 O749 1.260 . S
Eu729 C728 2.835 . S
Eu729 O748 2.473 . S
Eu729 O749 2.480 . S
Eu729 O750 2.430 . S
Eu729 O751 2.670 1_556 S
Eu729 O752 2.394 . S
Eu729 O757 2.355 . S
Eu729 O759 2.372 . S
C730 C728 1.500 . S
C730 C731 1.377 . S
C730 C735 1.377 . S
C731 C730 1.377 . S
C731 C732 1.395 . S
C731 H760 0.931 . S
C732 C731 1.395 . S
C732 C733 1.383 . S
C732 H761 0.931 . S
C733 C732 1.383 . S
C733 C734 1.394 . S
C734 C733 1.394 . S
C734 C735 1.378 . S
C734 H762 0.931 . S
C735 C730 1.377 . S
C735 C734 1.378 . S
C735 H763 0.931 . S
C736 O750 1.259 1_554 S
C736 O751 1.270 . S
C737 O752 1.251 . S
C737 O753 1.251 1_556 S
C738 Eu739 2.835 . S
C738 C740 1.500 . S
C738 O754 1.257 . S
C738 O755 1.260 . S
Eu739 C738 2.835 . S
Eu739 O751 2.355 . S
Eu739 O753 2.374 . S
Eu739 O754 2.473 . S
Eu739 O755 2.480 . S
Eu739 O756 2.430 . S
Eu739 O757 2.670 1_554 S
Eu739 O758 2.394 . S
C740 C738 1.500 . S
C740 C741 1.377 . S
C740 C745 1.377 . S
C741 C740 1.377 . S
C741 C742 1.395 . S
C741 H764 0.931 . S
C742 C741 1.395 . S
C742 C743 1.383 . S
C742 H765 0.931 . S
C743 C742 1.383 . S
C743 C744 1.394 . S
C744 C743 1.394 . S
C744 C745 1.378 . S
C744 H766 0.931 . S
C745 C740 1.377 . S
C745 C744 1.378 . S
C745 H767 0.931 . S
C746 O756 1.259 1_556 S
C746 O757 1.270 . S
C747 O758 1.251 . S
C747 O759 1.254 1_554 S
O748 C728 1.257 . S
O748 Eu729 2.473 . S
O749 C728 1.260 . S
O749 Eu729 2.480 . S
O750 Eu729 2.430 . S
O750 C736 1.259 1_556 S
O751 Eu729 2.670 1_554 S
O751 C736 1.270 . S
O751 Eu739 2.355 . S
O752 Eu729 2.394 . S
O752 C737 1.251 . S
O753 C737 1.251 1_554 S
O753 Eu739 2.374 . S
O754 C738 1.257 . S
O754 Eu739 2.473 . S
O755 C738 1.260 . S
O755 Eu739 2.480 . S
O756 Eu739 2.430 . S
O756 C746 1.259 1_554 S
O757 Eu729 2.355 . S
O757 Eu739 2.670 1_556 S
O757 C746 1.270 . S
O758 Eu739 2.394 . S
O758 C747 1.251 . S
O759 Eu729 2.372 . S
O759 C747 1.254 1_556 S
H760 C731 0.931 . S
H761 C732 0.931 . S
H762 C734 0.931 . S
H763 C735 0.931 . S
H764 C741 0.931 . S
H765 C742 0.931 . S
H766 C744 0.931 . S
H767 C745 0.931 . S
C768 Eu769 2.835 . S
C768 C770 1.500 . S
C768 O788 1.257 . S
C768 O789 1.260 . S
Eu769 C768 2.835 . S
Eu769 O788 2.473 . S
Eu769 O789 2.480 . S
Eu769 O790 2.430 . S
Eu769 O791 2.670 . S
Eu769 O792 2.394 . S
Eu769 O797 2.355 . S
Eu769 O799 2.374 . S
C770 C768 1.500 . S
C770 C771 1.377 . S
C770 C775 1.377 . S
C771 C770 1.377 . S
C771 C772 1.395 . S
C771 H800 0.931 . S
C772 C771 1.395 . S
C772 C773 1.383 . S
C772 H801 0.931 . S
C773 C772 1.383 . S
C773 C774 1.394 . S
C774 C773 1.394 . S
C774 C775 1.378 . S
C774 H802 0.931 . S
C775 C770 1.377 . S
C775 C774 1.378 . S
C775 H803 0.931 . S
C776 O790 1.259 . S
C776 O791 1.270 . S
C777 O792 1.251 . S
C777 O793 1.251 . S
C778 Eu779 2.835 . S
C778 C780 1.500 . S
C778 O794 1.257 . S
C778 O795 1.260 . S
Eu779 C778 2.835 . S
Eu779 O791 2.355 . S
Eu779 O793 2.374 . S
Eu779 O794 2.473 . S
Eu779 O795 2.480 . S
Eu779 O796 2.430 . S
Eu779 O797 2.670 . S
Eu779 O798 2.394 . S
C780 C778 1.500 . S
C780 C781 1.377 . S
C780 C785 1.377 . S
C781 C780 1.377 . S
C781 C782 1.395 . S
C781 H804 0.931 . S
C782 C781 1.395 . S
C782 C783 1.383 . S
C782 H805 0.931 . S
C783 C782 1.383 . S
C783 C784 1.394 . S
C784 C783 1.394 . S
C784 C785 1.378 . S
C784 H806 0.931 . S
C785 C780 1.377 . S
C785 C784 1.378 . S
C785 H807 0.931 . S
C786 O796 1.259 . S
C786 O797 1.270 . S
C787 O798 1.251 . S
C787 O799 1.251 . S
O788 C768 1.257 . S
O788 Eu769 2.473 . S
O789 C768 1.260 . S
O789 Eu769 2.480 . S
O790 Eu769 2.430 . S
O790 C776 1.259 . S
O791 Eu769 2.670 . S
O791 C776 1.270 . S
O791 Eu779 2.355 . S
O792 Eu769 2.394 . S
O792 C777 1.251 . S
O793 C777 1.251 . S
O793 Eu779 2.374 . S
O794 C778 1.257 . S
O794 Eu779 2.473 . S
O795 C778 1.260 . S
O795 Eu779 2.480 . S
O796 Eu779 2.430 . S
O796 C786 1.259 . S
O797 Eu769 2.355 . S
O797 Eu779 2.670 . S
O797 C786 1.270 . S
O798 Eu779 2.394 . S
O798 C787 1.251 . S
O799 Eu769 2.374 . S
O799 C787 1.251 . S
H800 C771 0.931 . S
H801 C772 0.931 . S
H802 C774 0.931 . S
H803 C775 0.931 . S
H804 C781 0.931 . S
H805 C782 0.931 . S
H806 C784 0.931 . S
H807 C785 0.931 . S
C808 Eu809 2.835 . S
C808 C810 1.500 . S
C808 O828 1.257 . S
C808 O829 1.260 . S
Eu809 C808 2.835 . S
Eu809 O828 2.473 . S
Eu809 O829 2.480 . S
Eu809 O830 2.430 . S
Eu809 O831 2.670 . S
Eu809 O832 2.394 . S
Eu809 O837 2.355 . S
Eu809 O839 2.374 . S
C810 C808 1.500 . S
C810 C811 1.377 . S
C810 C815 1.377 . S
C811 C810 1.377 . S
C811 C812 1.395 . S
C811 H840 0.931 . S
C812 C811 1.395 . S
C812 C813 1.383 . S
C812 H841 0.931 . S
C813 C812 1.383 . S
C813 C814 1.394 . S
C814 C813 1.394 . S
C814 C815 1.378 . S
C814 H842 0.931 . S
C815 C810 1.377 . S
C815 C814 1.378 . S
C815 H843 0.931 . S
C816 O830 1.259 . S
C816 O831 1.270 . S
C817 O832 1.251 . S
C817 O833 1.251 . S
C818 Eu819 2.835 . S
C818 C820 1.500 . S
C818 O834 1.257 . S
C818 O835 1.260 . S
Eu819 C818 2.835 . S
Eu819 O831 2.355 . S
Eu819 O833 2.374 . S
Eu819 O834 2.473 . S
Eu819 O835 2.480 . S
Eu819 O836 2.430 . S
Eu819 O837 2.670 . S
Eu819 O838 2.394 . S
C820 C818 1.500 . S
C820 C821 1.377 . S
C820 C825 1.377 . S
C821 C820 1.377 . S
C821 C822 1.395 . S
C821 H844 0.931 . S
C822 C821 1.395 . S
C822 C823 1.383 . S
C822 H845 0.931 . S
C823 C822 1.383 . S
C823 C824 1.394 . S
C824 C823 1.394 . S
C824 C825 1.378 . S
C824 H846 0.931 . S
C825 C820 1.377 . S
C825 C824 1.378 . S
C825 H847 0.931 . S
C826 O836 1.259 . S
C826 O837 1.270 . S
C827 O838 1.251 . S
C827 O839 1.251 . S
O828 C808 1.257 . S
O828 Eu809 2.473 . S
O829 C808 1.260 . S
O829 Eu809 2.480 . S
O830 Eu809 2.430 . S
O830 C816 1.259 . S
O831 Eu809 2.670 . S
O831 C816 1.270 . S
O831 Eu819 2.355 . S
O832 Eu809 2.394 . S
O832 C817 1.251 . S
O833 C817 1.251 . S
O833 Eu819 2.374 . S
O834 C818 1.257 . S
O834 Eu819 2.473 . S
O835 C818 1.260 . S
O835 Eu819 2.480 . S
O836 Eu819 2.430 . S
O836 C826 1.259 . S
O837 Eu809 2.355 . S
O837 Eu819 2.670 . S
O837 C826 1.270 . S
O838 Eu819 2.394 . S
O838 C827 1.251 . S
O839 Eu809 2.374 . S
O839 C827 1.251 . S
H840 C811 0.931 . S
H841 C812 0.931 . S
H842 C814 0.931 . S
H843 C815 0.931 . S
H844 C821 0.931 . S
H845 C822 0.931 . S
H846 C824 0.931 . S
H847 C825 0.931 . S
C848 Eu849 2.835 . S
C848 C850 1.500 . S
C848 O868 1.257 . S
C848 O869 1.260 . S
Eu849 C848 2.835 . S
Eu849 O868 2.473 . S
Eu849 O869 2.480 . S
Eu849 O870 2.430 . S
Eu849 O871 2.670 . S
Eu849 O872 2.394 . S
Eu849 O877 2.355 . S
Eu849 O879 2.374 . S
C850 C848 1.500 . S
C850 C851 1.377 . S
C850 C855 1.377 . S
C851 C850 1.377 . S
C851 C852 1.395 . S
C851 H880 0.931 . S
C852 C851 1.395 . S
C852 C853 1.383 . S
C852 H881 0.931 . S
C853 C852 1.383 . S
C853 C854 1.394 . S
C854 C853 1.394 . S
C854 C855 1.378 . S
C854 H882 0.931 . S
C855 C850 1.377 . S
C855 C854 1.378 . S
C855 H883 0.931 . S
C856 O870 1.259 . S
C856 O871 1.270 . S
C857 O872 1.251 . S
C857 O873 1.251 . S
C858 Eu859 2.835 . S
C858 C860 1.500 . S
C858 O874 1.257 . S
C858 O875 1.260 . S
Eu859 C858 2.835 . S
Eu859 O871 2.355 . S
Eu859 O873 2.374 . S
Eu859 O874 2.473 . S
Eu859 O875 2.480 . S
Eu859 O876 2.430 . S
Eu859 O877 2.670 . S
Eu859 O878 2.394 . S
C860 C858 1.500 . S
C860 C861 1.377 . S
C860 C865 1.377 . S
C861 C860 1.377 . S
C861 C862 1.395 . S
C861 H884 0.931 . S
C862 C861 1.395 . S
C862 C863 1.383 . S
C862 H885 0.931 . S
C863 C862 1.383 . S
C863 C864 1.394 . S
C864 C863 1.394 . S
C864 C865 1.378 . S
C864 H886 0.931 . S
C865 C860 1.377 . S
C865 C864 1.378 . S
C865 H887 0.931 . S
C866 O876 1.259 . S
C866 O877 1.270 . S
C867 O878 1.251 . S
C867 O879 1.251 . S
O868 C848 1.257 . S
O868 Eu849 2.473 . S
O869 C848 1.260 . S
O869 Eu849 2.480 . S
O870 Eu849 2.430 . S
O870 C856 1.259 . S
O871 Eu849 2.670 . S
O871 C856 1.270 . S
O871 Eu859 2.355 . S
O872 Eu849 2.394 . S
O872 C857 1.251 . S
O873 C857 1.251 . S
O873 Eu859 2.374 . S
O874 C858 1.257 . S
O874 Eu859 2.473 . S
O875 C858 1.260 . S
O875 Eu859 2.480 . S
O876 Eu859 2.430 . S
O876 C866 1.259 . S
O877 Eu849 2.355 . S
O877 Eu859 2.670 . S
O877 C866 1.270 . S
O878 Eu859 2.394 . S
O878 C867 1.251 . S
O879 Eu849 2.374 . S
O879 C867 1.251 . S
H880 C851 0.931 . S
H881 C852 0.931 . S
H882 C854 0.931 . S
H883 C855 0.931 . S
H884 C861 0.931 . S
H885 C862 0.931 . S
H886 C864 0.931 . S
H887 C865 0.931 . S
C888 Eu889 2.835 . S
C888 C890 1.500 . S
C888 O908 1.257 . S
C888 O909 1.260 . S
Eu889 C888 2.835 . S
Eu889 O908 2.473 . S
Eu889 O909 2.480 . S
Eu889 O910 2.430 . S
Eu889 O911 2.670 . S
Eu889 O912 2.394 . S
Eu889 O917 2.355 . S
Eu889 O919 2.374 . S
C890 C888 1.500 . S
C890 C891 1.377 . S
C890 C895 1.377 . S
C891 C890 1.377 . S
C891 C892 1.395 . S
C891 H920 0.931 . S
C892 C891 1.395 . S
C892 C893 1.383 . S
C892 H921 0.931 . S
C893 C892 1.383 . S
C893 C894 1.394 . S
C894 C893 1.394 . S
C894 C895 1.378 . S
C894 H922 0.931 . S
C895 C890 1.377 . S
C895 C894 1.378 . S
C895 H923 0.931 . S
C896 O910 1.259 . S
C896 O911 1.270 . S
C897 O912 1.251 . S
C897 O913 1.251 . S
C898 Eu899 2.835 . S
C898 C900 1.500 . S
C898 O914 1.257 . S
C898 O915 1.260 . S
Eu899 C898 2.835 . S
Eu899 O911 2.355 . S
Eu899 O913 2.374 . S
Eu899 O914 2.473 . S
Eu899 O915 2.480 . S
Eu899 O916 2.430 . S
Eu899 O917 2.670 . S
Eu899 O918 2.394 . S
C900 C898 1.500 . S
C900 C901 1.377 . S
C900 C905 1.377 . S
C901 C900 1.377 . S
C901 C902 1.395 . S
C901 H924 0.931 . S
C902 C901 1.395 . S
C902 C903 1.383 . S
C902 H925 0.931 . S
C903 C902 1.383 . S
C903 C904 1.394 . S
C904 C903 1.394 . S
C904 C905 1.378 . S
C904 H926 0.931 . S
C905 C900 1.377 . S
C905 C904 1.378 . S
C905 H927 0.931 . S
C906 O916 1.259 . S
C906 O917 1.270 . S
C907 O918 1.251 . S
C907 O919 1.251 . S
O908 C888 1.257 . S
O908 Eu889 2.473 . S
O909 C888 1.260 . S
O909 Eu889 2.480 . S
O910 Eu889 2.430 . S
O910 C896 1.259 . S
O911 Eu889 2.670 . S
O911 C896 1.270 . S
O911 Eu899 2.355 . S
O912 Eu889 2.394 . S
O912 C897 1.251 . S
O913 C897 1.251 . S
O913 Eu899 2.374 . S
O914 C898 1.257 . S
O914 Eu899 2.473 . S
O915 C898 1.260 . S
O915 Eu899 2.480 . S
O916 Eu899 2.430 . S
O916 C906 1.259 . S
O917 Eu889 2.355 . S
O917 Eu899 2.670 . S
O917 C906 1.270 . S
O918 Eu899 2.394 . S
O918 C907 1.251 . S
O919 Eu889 2.374 . S
O919 C907 1.251 . S
H920 C891 0.931 . S
H921 C892 0.931 . S
H922 C894 0.931 . S
H923 C895 0.931 . S
H924 C901 0.931 . S
H925 C902 0.931 . S
H926 C904 0.931 . S
H927 C905 0.931 . S
C928 Eu929 2.835 . S
C928 C930 1.500 . S
C928 O948 1.257 . S
C928 O949 1.260 . S
Eu929 C928 2.835 . S
Eu929 O948 2.473 . S
Eu929 O949 2.480 . S
Eu929 O950 2.430 . S
Eu929 O951 2.670 . S
Eu929 O952 2.394 . S
Eu929 O957 2.355 . S
Eu929 O959 2.374 . S
C930 C928 1.500 . S
C930 C931 1.377 . S
C930 C935 1.377 . S
C931 C930 1.377 . S
C931 C932 1.395 . S
C931 H960 0.931 . S
C932 C931 1.395 . S
C932 C933 1.383 . S
C932 H961 0.931 . S
C933 C932 1.383 . S
C933 C934 1.394 . S
C934 C933 1.394 . S
C934 C935 1.378 . S
C934 H962 0.931 . S
C935 C930 1.377 . S
C935 C934 1.378 . S
C935 H963 0.931 . S
C936 O950 1.259 . S
C936 O951 1.270 . S
C937 O952 1.251 . S
C937 O953 1.251 . S
C938 Eu939 2.835 . S
C938 C940 1.500 . S
C938 O954 1.257 . S
C938 O955 1.260 . S
Eu939 C938 2.835 . S
Eu939 O951 2.355 . S
Eu939 O953 2.374 . S
Eu939 O954 2.473 . S
Eu939 O955 2.480 . S
Eu939 O956 2.430 . S
Eu939 O957 2.670 . S
Eu939 O958 2.394 . S
C940 C938 1.500 . S
C940 C941 1.377 . S
C940 C945 1.377 . S
C941 C940 1.377 . S
C941 C942 1.395 . S
C941 H964 0.931 . S
C942 C941 1.395 . S
C942 C943 1.383 . S
C942 H965 0.931 . S
C943 C942 1.383 . S
C943 C944 1.394 . S
C944 C943 1.394 . S
C944 C945 1.378 . S
C944 H966 0.931 . S
C945 C940 1.377 . S
C945 C944 1.378 . S
C945 H967 0.931 . S
C946 O956 1.259 . S
C946 O957 1.270 . S
C947 O958 1.251 . S
C947 O959 1.251 . S
O948 C928 1.257 . S
O948 Eu929 2.473 . S
O949 C928 1.260 . S
O949 Eu929 2.480 . S
O950 Eu929 2.430 . S
O950 C936 1.259 . S
O951 Eu929 2.670 . S
O951 C936 1.270 . S
O951 Eu939 2.355 . S
O952 Eu929 2.394 . S
O952 C937 1.251 . S
O953 C937 1.251 . S
O953 Eu939 2.374 . S
O954 C938 1.257 . S
O954 Eu939 2.473 . S
O955 C938 1.260 . S
O955 Eu939 2.480 . S
O956 Eu939 2.430 . S
O956 C946 1.259 . S
O957 Eu929 2.355 . S
O957 Eu939 2.670 . S
O957 C946 1.270 . S
O958 Eu939 2.394 . S
O958 C947 1.251 . S
O959 Eu929 2.374 . S
O959 C947 1.251 . S
H960 C931 0.931 . S
H961 C932 0.931 . S
H962 C934 0.931 . S
H963 C935 0.931 . S
H964 C941 0.931 . S
H965 C942 0.931 . S
H966 C944 0.931 . S
H967 C945 0.931 . S
C968 Eu969 2.835 . S
C968 C970 1.500 . S
C968 O988 1.257 . S
C968 O989 1.260 . S
Eu969 C968 2.835 . S
Eu969 O988 2.473 . S
Eu969 O989 2.480 . S
Eu969 O990 2.430 . S
Eu969 O991 2.670 . S
Eu969 O992 2.394 . S
Eu969 O997 2.355 . S
Eu969 O999 2.374 . S
C970 C968 1.500 . S
C970 C971 1.377 . S
C970 C975 1.377 . S
C971 C970 1.377 . S
C971 C972 1.395 . S
C971 H1000 0.931 . S
C972 C971 1.395 . S
C972 C973 1.383 . S
C972 H1001 0.931 . S
C973 C972 1.383 . S
C973 C974 1.394 . S
C974 C973 1.394 . S
C974 C975 1.378 . S
C974 H1002 0.931 . S
C975 C970 1.377 . S
C975 C974 1.378 . S
C975 H1003 0.931 . S
C976 O990 1.259 . S
C976 O991 1.270 . S
C977 O992 1.251 . S
C977 O993 1.251 . S
C978 Eu979 2.835 . S
C978 C980 1.500 . S
C978 O994 1.257 . S
C978 O995 1.260 . S
Eu979 C978 2.835 . S
Eu979 O991 2.355 . S
Eu979 O993 2.374 . S
Eu979 O994 2.473 . S
Eu979 O995 2.480 . S
Eu979 O996 2.430 . S
Eu979 O997 2.670 . S
Eu979 O998 2.394 . S
C980 C978 1.500 . S
C980 C981 1.377 . S
C980 C985 1.377 . S
C981 C980 1.377 . S
C981 C982 1.395 . S
C981 H1004 0.931 . S
C982 C981 1.395 . S
C982 C983 1.383 . S
C982 H1005 0.931 . S
C983 C982 1.383 . S
C983 C984 1.394 . S
C984 C983 1.394 . S
C984 C985 1.378 . S
C984 H1006 0.931 . S
C985 C980 1.377 . S
C985 C984 1.378 . S
C985 H1007 0.931 . S
C986 O996 1.259 . S
C986 O997 1.270 . S
C987 O998 1.251 . S
C987 O999 1.251 . S
O988 C968 1.257 . S
O988 Eu969 2.473 . S
O989 C968 1.260 . S
O989 Eu969 2.480 . S
O990 Eu969 2.430 . S
O990 C976 1.259 . S
O991 Eu969 2.670 . S
O991 C976 1.270 . S
O991 Eu979 2.355 . S
O992 Eu969 2.394 . S
O992 C977 1.251 . S
O993 C977 1.251 . S
O993 Eu979 2.374 . S
O994 C978 1.257 . S
O994 Eu979 2.473 . S
O995 C978 1.260 . S
O995 Eu979 2.480 . S
O996 Eu979 2.430 . S
O996 C986 1.259 . S
O997 Eu969 2.355 . S
O997 Eu979 2.670 . S
O997 C986 1.270 . S
O998 Eu979 2.394 . S
O998 C987 1.251 . S
O999 Eu969 2.374 . S
O999 C987 1.251 . S
H1000 C971 0.931 . S
H1001 C972 0.931 . S
H1002 C974 0.931 . S
H1003 C975 0.931 . S
H1004 C981 0.931 . S
H1005 C982 0.931 . S
H1006 C984 0.931 . S
H1007 C985 0.931 . S
H1008 C1020 0.930 . S
H1009 C1022 0.930 . S
H1010 C1023 0.930 . S
H1011 C1027 0.959 . S
H1012 C1027 0.959 . S
H1013 C1027 0.961 . S
H1014 C1028 0.960 . S
H1015 C1028 0.961 . S
H1016 C1028 0.959 . S
H1017 C1031 0.929 1_556 S
H1018 C1032 0.931 1_556 S
H1019 C1034 0.930 . S
C1020 H1008 0.930 . S
C1020 C1021 1.399 . S
C1020 C1025 1.399 . S
C1021 C1020 1.399 . S
C1021 C1022 1.376 . S
C1022 H1009 0.930 . S
C1022 C1021 1.376 . S
C1022 C1023 1.388 . S
C1023 H1010 0.930 . S
C1023 C1022 1.388 . S
C1023 C1024 1.390 . S
C1024 C1023 1.390 . S
C1024 C1025 1.394 . S
C1024 C1030 1.465 . S
C1025 C1020 1.399 . S
C1025 C1024 1.394 . S
C1025 C1026 1.516 . S
C1026 C1025 1.516 . S
C1026 C1027 1.502 . S
C1026 C1028 1.561 . S
C1026 C1029 1.526 . S
C1027 H1011 0.959 . S
C1027 H1012 0.959 . S
C1027 H1013 0.961 . S
C1027 C1026 1.502 . S
C1028 H1014 0.960 . S
C1028 H1015 0.961 . S
C1028 H1016 0.959 . S
C1028 C1026 1.561 . S
C1029 C1026 1.526 . S
C1029 C1030 1.396 . S
C1029 C1034 1.390 . S
C1030 C1024 1.465 . S
C1030 C1029 1.396 . S
C1030 C1031 1.399 . S
C1031 H1017 0.929 1_554 S
C1031 C1030 1.399 . S
C1031 C1032 1.385 . S
C1032 H1018 0.931 1_554 S
C1032 C1031 1.385 . S
C1032 C1033 1.389 . S
C1033 C1032 1.389 . S
C1033 C1034 1.387 . S
C1034 H1019 0.930 . S
C1034 C1029 1.390 . S
C1034 C1033 1.387 . S
H1035 C1047 0.930 . S
H1036 C1049 0.930 . S
H1037 C1050 0.930 . S
H1038 C1054 0.959 . S
H1039 C1054 0.959 . S
H1040 C1054 0.961 . S
H1041 C1055 0.960 . S
H1042 C1055 0.961 . S
H1043 C1055 0.959 . S
H1044 C1058 0.929 . S
H1045 C1059 0.931 . S
H1046 C1061 0.930 . S
C1047 H1035 0.930 . S
C1047 C1048 1.399 . S
C1047 C1052 1.399 . S
C1048 C1047 1.399 . S
C1048 C1049 1.376 . S
C1049 H1036 0.930 . S
C1049 C1048 1.376 . S
C1049 C1050 1.388 . S
C1050 H1037 0.930 . S
C1050 C1049 1.388 . S
C1050 C1051 1.390 . S
C1051 C1050 1.390 . S
C1051 C1052 1.394 . S
C1051 C1057 1.465 . S
C1052 C1047 1.399 . S
C1052 C1051 1.394 . S
C1052 C1053 1.516 . S
C1053 C1052 1.516 . S
C1053 C1054 1.502 . S
C1053 C1055 1.561 . S
C1053 C1056 1.526 . S
C1054 H1038 0.959 . S
C1054 H1039 0.959 . S
C1054 H1040 0.961 . S
C1054 C1053 1.502 . S
C1055 H1041 0.960 . S
C1055 H1042 0.961 . S
C1055 H1043 0.959 . S
C1055 C1053 1.561 . S
C1056 C1053 1.526 . S
C1056 C1057 1.396 . S
C1056 C1061 1.390 . S
C1057 C1051 1.465 . S
C1057 C1056 1.396 . S
C1057 C1058 1.399 . S
C1058 H1044 0.929 . S
C1058 C1057 1.399 . S
C1058 C1059 1.385 . S
C1059 H1045 0.931 . S
C1059 C1058 1.385 . S
C1059 C1060 1.389 . S
C1060 C1059 1.389 . S
C1060 C1061 1.387 . S
C1061 H1046 0.930 . S
C1061 C1056 1.390 . S
C1061 C1060 1.387 . S
H1062 C1074 0.930 . S
H1063 C1076 0.930 . S
H1064 C1077 0.930 . S
H1065 C1081 0.959 . S
H1066 C1081 0.959 . S
H1067 C1081 0.961 . S
H1068 C1082 0.960 . S
H1069 C1082 0.961 . S
H1070 C1082 0.959 . S
H1071 C1085 0.929 . S
H1072 C1086 0.931 . S
H1073 C1088 0.930 . S
C1074 H1062 0.930 . S
C1074 C1075 1.399 . S
C1074 C1079 1.399 . S
C1075 C1074 1.399 . S
C1075 C1076 1.376 . S
C1076 H1063 0.930 . S
C1076 C1075 1.376 . S
C1076 C1077 1.388 . S
C1077 H1064 0.930 . S
C1077 C1076 1.388 . S
C1077 C1078 1.390 . S
C1078 C1077 1.390 . S
C1078 C1079 1.394 . S
C1078 C1084 1.465 . S
C1079 C1074 1.399 . S
C1079 C1078 1.394 . S
C1079 C1080 1.516 . S
C1080 C1079 1.516 . S
C1080 C1081 1.502 . S
C1080 C1082 1.561 . S
C1080 C1083 1.526 . S
C1081 H1065 0.959 . S
C1081 H1066 0.959 . S
C1081 H1067 0.961 . S
C1081 C1080 1.502 . S
C1082 H1068 0.960 . S
C1082 H1069 0.961 . S
C1082 H1070 0.959 . S
C1082 C1080 1.561 . S
C1083 C1080 1.526 . S
C1083 C1084 1.396 . S
C1083 C1088 1.390 . S
C1084 C1078 1.465 . S
C1084 C1083 1.396 . S
C1084 C1085 1.399 . S
C1085 H1071 0.929 . S
C1085 C1084 1.399 . S
C1085 C1086 1.385 . S
C1086 H1072 0.931 . S
C1086 C1085 1.385 . S
C1086 C1087 1.389 . S
C1087 C1086 1.389 . S
C1087 C1088 1.387 . S
C1088 H1073 0.930 . S
C1088 C1083 1.390 . S
C1088 C1087 1.387 . S
H1089 C1101 0.930 . S
H1090 C1103 0.930 . S
H1091 C1104 0.965 . S
H1092 C1108 0.959 . S
H1093 C1108 0.959 . S
H1094 C1108 0.961 . S
H1095 C1109 0.960 . S
H1096 C1109 0.961 . S
H1097 C1109 0.959 . S
H1098 C1112 0.919 1_554 S
H1099 C1113 0.990 . S
H1100 C1115 0.930 . S
C1101 H1089 0.930 . S
C1101 C1102 1.399 . S
C1101 C1106 1.399 . S
C1102 C1101 1.399 . S
C1102 C1103 1.376 . S
C1103 H1090 0.930 . S
C1103 C1102 1.376 . S
C1103 C1104 1.388 . S
C1104 H1091 0.965 . S
C1104 C1103 1.388 . S
C1104 C1105 1.390 . S
C1105 C1104 1.390 . S
C1105 C1106 1.394 . S
C1105 C1111 1.465 . S
C1106 C1101 1.399 . S
C1106 C1105 1.394 . S
C1106 C1107 1.516 . S
C1107 C1106 1.516 . S
C1107 C1108 1.502 . S
C1107 C1109 1.561 . S
C1107 C1110 1.526 . S
C1108 H1092 0.959 . S
C1108 H1093 0.959 . S
C1108 H1094 0.961 . S
C1108 C1107 1.502 . S
C1109 H1095 0.960 . S
C1109 H1096 0.961 . S
C1109 H1097 0.959 . S
C1109 C1107 1.561 . S
C1110 C1107 1.526 . S
C1110 C1111 1.396 . S
C1110 C1115 1.390 . S
C1111 C1105 1.465 . S
C1111 C1110 1.396 . S
C1111 C1112 1.409 . S
C1112 H1098 0.919 1_556 S
C1112 C1111 1.409 . S
C1112 C1113 1.391 1_556 S
C1113 H1099 0.990 . S
C1113 C1112 1.391 1_554 S
C1113 C1114 1.330 1_554 S
C1114 C1113 1.330 1_556 S
C1114 C1115 1.387 . S
C1115 H1100 0.930 . S
C1115 C1110 1.390 . S
C1115 C1114 1.387 . S
H1116 C1128 0.930 . S
H1117 C1130 0.930 . S
H1118 C1131 0.930 . S
H1119 C1135 0.959 . S
H1120 C1135 0.959 1_554 S
H1121 C1135 0.961 . S
H1122 C1136 0.960 . S
H1123 C1136 0.961 . S
H1124 C1136 0.959 . S
H1125 C1139 0.929 . S
H1126 C1140 0.931 . S
H1127 C1142 0.930 . S
C1128 H1116 0.930 . S
C1128 C1129 1.399 . S
C1128 C1133 1.399 . S
C1129 C1128 1.399 . S
C1129 C1130 1.376 . S
C1130 H1117 0.930 . S
C1130 C1129 1.376 . S
C1130 C1131 1.388 . S
C1131 H1118 0.930 . S
C1131 C1130 1.388 . S
C1131 C1132 1.390 . S
C1132 C1131 1.390 . S
C1132 C1133 1.394 . S
C1132 C1138 1.465 . S
C1133 C1128 1.399 . S
C1133 C1132 1.394 . S
C1133 C1134 1.516 . S
C1134 C1133 1.516 . S
C1134 C1135 1.502 . S
C1134 C1136 1.561 . S
C1134 C1137 1.526 . S
C1135 H1119 0.959 . S
C1135 H1120 0.959 1_556 S
C1135 H1121 0.961 . S
C1135 C1134 1.502 . S
C1136 H1122 0.960 . S
C1136 H1123 0.961 . S
C1136 H1124 0.959 . S
C1136 C1134 1.561 . S
C1137 C1134 1.526 . S
C1137 C1138 1.396 . S
C1137 C1142 1.390 . S
C1138 C1132 1.465 . S
C1138 C1137 1.396 . S
C1138 C1139 1.399 . S
C1139 H1125 0.929 . S
C1139 C1138 1.399 . S
C1139 C1140 1.385 . S
C1140 H1126 0.931 . S
C1140 C1139 1.385 . S
C1140 C1141 1.389 . S
C1141 C1140 1.389 . S
C1141 C1142 1.387 . S
C1142 H1127 0.930 . S
C1142 C1137 1.390 . S
C1142 C1141 1.387 . S
H1143 C1155 0.930 . S
H1144 C1157 0.930 . S
H1145 C1158 0.930 . S
H1146 C1162 0.959 . S
H1147 C1162 0.959 . S
H1148 C1162 0.961 . S
H1149 C1163 0.960 . S
H1150 C1163 0.961 . S
H1151 C1163 0.959 . S
H1152 C1166 0.929 1_554 S
H1153 C1167 0.927 . S
H1154 C1169 0.930 . S
C1155 H1143 0.930 . S
C1155 C1156 1.399 . S
C1155 C1160 1.399 . S
C1156 C1155 1.399 . S
C1156 C1157 1.376 . S
C1157 H1144 0.930 . S
C1157 C1156 1.376 . S
C1157 C1158 1.388 . S
C1158 H1145 0.930 . S
C1158 C1157 1.388 . S
C1158 C1159 1.390 . S
C1159 C1158 1.390 . S
C1159 C1160 1.394 . S
C1159 C1165 1.465 . S
C1160 C1155 1.399 . S
C1160 C1159 1.394 . S
C1160 C1161 1.516 . S
C1161 C1160 1.516 . S
C1161 C1162 1.502 . S
C1161 C1163 1.561 . S
C1161 C1164 1.526 . S
C1162 H1146 0.959 . S
C1162 H1147 0.959 . S
C1162 H1148 0.961 . S
C1162 C1161 1.502 . S
C1163 H1149 0.960 . S
C1163 H1150 0.961 . S
C1163 H1151 0.959 . S
C1163 C1161 1.561 . S
C1164 C1161 1.526 . S
C1164 C1165 1.396 . S
C1164 C1169 1.390 . S
C1165 C1159 1.465 . S
C1165 C1164 1.396 . S
C1165 C1166 1.399 . S
C1166 H1152 0.929 1_556 S
C1166 C1165 1.399 . S
C1166 C1167 1.386 1_556 S
C1167 H1153 0.927 . S
C1167 C1166 1.386 1_554 S
C1167 C1168 1.392 1_554 S
C1168 C1167 1.392 1_556 S
C1168 C1169 1.387 . S
C1169 H1154 0.930 . S
C1169 C1164 1.390 . S
C1169 C1168 1.387 . S
H1170 C1182 0.930 . S
H1171 C1184 0.930 . S
H1172 C1185 0.930 . S
H1173 C1189 0.959 . S
H1174 C1189 0.959 . S
H1175 C1189 0.961 . S
H1176 C1190 0.960 . S
H1177 C1190 0.961 . S
H1178 C1190 0.959 . S
H1179 C1193 0.929 . S
H1180 C1194 0.931 . S
H1181 C1196 0.930 . S
C1182 H1170 0.930 . S
C1182 C1183 1.399 . S
C1182 C1187 1.399 . S
C1183 C1182 1.399 . S
C1183 C1184 1.376 . S
C1184 H1171 0.930 . S
C1184 C1183 1.376 . S
C1184 C1185 1.388 . S
C1185 H1172 0.930 . S
C1185 C1184 1.388 . S
C1185 C1186 1.390 . S
C1186 C1185 1.390 . S
C1186 C1187 1.394 . S
C1186 C1192 1.465 . S
C1187 C1182 1.399 . S
C1187 C1186 1.394 . S
C1187 C1188 1.516 . S
C1188 C1187 1.516 . S
C1188 C1189 1.502 . S
C1188 C1190 1.561 . S
C1188 C1191 1.526 . S
C1189 H1173 0.959 . S
C1189 H1174 0.959 . S
C1189 H1175 0.961 . S
C1189 C1188 1.502 . S
C1190 H1176 0.960 . S
C1190 H1177 0.961 . S
C1190 H1178 0.959 . S
C1190 C1188 1.561 . S
C1191 C1188 1.526 . S
C1191 C1192 1.396 . S
C1191 C1196 1.390 . S
C1192 C1186 1.465 . S
C1192 C1191 1.396 . S
C1192 C1193 1.399 . S
C1193 H1179 0.929 . S
C1193 C1192 1.399 . S
C1193 C1194 1.385 . S
C1194 H1180 0.931 . S
C1194 C1193 1.385 . S
C1194 C1195 1.389 . S
C1195 C1194 1.389 . S
C1195 C1196 1.387 . S
C1196 H1181 0.930 . S
C1196 C1191 1.390 . S
C1196 C1195 1.387 . S
H1197 C1209 0.930 . S
H1198 C1211 0.930 . S
H1199 C1212 0.930 . S
H1200 C1216 0.959 . S
H1201 C1216 0.959 . S
H1202 C1216 0.961 . S
H1203 C1217 0.960 . S
H1204 C1217 0.961 1_554 S
H1205 C1217 0.959 . S
H1206 C1220 0.929 . S
H1207 C1221 0.931 . S
H1208 C1223 0.930 . S
C1209 H1197 0.930 . S
C1209 C1210 1.399 . S
C1209 C1214 1.399 . S
C1210 C1209 1.399 . S
C1210 C1211 1.376 . S
C1211 H1198 0.930 . S
C1211 C1210 1.376 . S
C1211 C1212 1.388 . S
C1212 H1199 0.930 . S
C1212 C1211 1.388 . S
C1212 C1213 1.390 . S
C1213 C1212 1.390 . S
C1213 C1214 1.394 . S
C1213 C1219 1.465 . S
C1214 C1209 1.399 . S
C1214 C1213 1.394 . S
C1214 C1215 1.516 . S
C1215 C1214 1.516 . S
C1215 C1216 1.502 . S
C1215 C1217 1.561 . S
C1215 C1218 1.526 . S
C1216 H1200 0.959 . S
C1216 H1201 0.959 . S
C1216 H1202 0.961 . S
C1216 C1215 1.502 . S
C1217 H1203 0.960 . S
C1217 H1204 0.961 1_556 S
C1217 H1205 0.959 . S
C1217 C1215 1.561 . S
C1218 C1215 1.526 . S
C1218 C1219 1.396 . S
C1218 C1223 1.390 . S
C1219 C1213 1.465 . S
C1219 C1218 1.396 . S
C1219 C1220 1.399 . S
C1220 H1206 0.929 . S
C1220 C1219 1.399 . S
C1220 C1221 1.385 . S
C1221 H1207 0.931 . S
C1221 C1220 1.385 . S
C1221 C1222 1.389 . S
C1222 C1221 1.389 . S
C1222 C1223 1.387 . S
C1223 H1208 0.930 . S
C1223 C1218 1.390 . S
C1223 C1222 1.387 . S
H1224 C1236 0.930 . S
H1225 C1238 0.930 . S
H1226 C1239 0.930 1_554 S
H1227 C1243 0.959 . S
H1228 C1243 0.959 . S
H1229 C1243 0.961 . S
H1230 C1244 0.960 . S
H1231 C1244 0.961 . S
H1232 C1244 0.959 . S
H1233 C1247 0.929 . S
H1234 C1248 0.931 . S
H1235 C1250 0.930 . S
C1236 H1224 0.930 . S
C1236 C1237 1.399 . S
C1236 C1241 1.399 . S
C1237 C1236 1.399 . S
C1237 C1238 1.376 . S
C1238 H1225 0.930 . S
C1238 C1237 1.376 . S
C1238 C1239 1.388 . S
C1239 H1226 0.930 1_556 S
C1239 C1238 1.388 . S
C1239 C1240 1.390 . S
C1240 C1239 1.390 . S
C1240 C1241 1.394 . S
C1240 C1246 1.465 . S
C1241 C1236 1.399 . S
C1241 C1240 1.394 . S
C1241 C1242 1.516 . S
C1242 C1241 1.516 . S
C1242 C1243 1.502 . S
C1242 C1244 1.561 . S
C1242 C1245 1.526 . S
C1243 H1227 0.959 . S
C1243 H1228 0.959 . S
C1243 H1229 0.961 . S
C1243 C1242 1.502 . S
C1244 H1230 0.960 . S
C1244 H1231 0.961 . S
C1244 H1232 0.959 . S
C1244 C1242 1.561 . S
C1245 C1242 1.526 . S
C1245 C1246 1.396 . S
C1245 C1250 1.390 . S
C1246 C1240 1.465 . S
C1246 C1245 1.396 . S
C1246 C1247 1.399 1_556 S
C1247 H1233 0.929 . S
C1247 C1246 1.399 1_554 S
C1247 C1248 1.385 . S
C1248 H1234 0.931 . S
C1248 C1247 1.385 . S
C1248 C1249 1.389 1_554 S
C1249 C1248 1.389 1_556 S
C1249 C1250 1.387 . S
C1250 H1235 0.930 . S
C1250 C1245 1.390 . S
C1250 C1249 1.387 . S
H1251 C1263 0.930 . S
H1252 C1265 0.930 . S
H1253 C1266 0.930 . S
H1254 C1270 0.959 . S
H1255 C1270 0.959 . S
H1256 C1270 0.961 . S
H1257 C1271 0.991 . S
H1258 C1271 0.961 1_556 S
H1259 C1271 0.959 . S
H1260 C1274 0.929 . S
H1261 C1275 0.931 . S
H1262 C1277 0.930 1_556 S
C1263 H1251 0.930 . S
C1263 C1264 1.399 . S
C1263 C1268 1.399 . S
C1264 C1263 1.399 . S
C1264 C1265 1.376 . S
C1265 H1252 0.930 . S
C1265 C1264 1.376 . S
C1265 C1266 1.388 . S
C1266 H1253 0.930 . S
C1266 C1265 1.388 . S
C1266 C1267 1.390 . S
C1267 C1266 1.390 . S
C1267 C1268 1.394 . S
C1267 C1273 1.465 . S
C1268 C1263 1.399 . S
C1268 C1267 1.394 . S
C1268 C1269 1.516 . S
C1269 C1268 1.516 . S
C1269 C1270 1.502 1_554 S
C1269 C1271 1.561 . S
C1269 C1272 1.526 . S
C1270 H1254 0.959 . S
C1270 H1255 0.959 . S
C1270 H1256 0.961 . S
C1270 C1269 1.502 1_556 S
C1271 H1257 0.991 . S
C1271 H1258 0.961 1_554 S
C1271 H1259 0.959 . S
C1271 C1269 1.561 . S
C1272 C1269 1.526 . S
C1272 C1273 1.396 . S
C1272 C1277 1.390 . S
C1273 C1267 1.465 . S
C1273 C1272 1.396 . S
C1273 C1274 1.399 . S
C1274 H1260 0.929 . S
C1274 C1273 1.399 . S
C1274 C1275 1.385 . S
C1275 H1261 0.931 . S
C1275 C1274 1.385 . S
C1275 C1276 1.389 . S
C1276 C1275 1.389 . S
C1276 C1277 1.387 . S
C1277 H1262 0.930 1_554 S
C1277 C1272 1.390 . S
C1277 C1276 1.387 . S
H1278 C1290 0.930 . S
H1279 C1292 0.930 . S
H1280 C1293 0.930 . S
H1281 C1297 0.959 . S
H1282 C1297 0.959 . S
H1283 C1297 0.961 . S
H1284 C1298 0.960 . S
H1285 C1298 0.961 . S
H1286 C1298 0.959 . S
H1287 C1301 0.929 . S
H1288 C1302 0.929 . S
H1289 C1304 0.930 . S
C1290 H1278 0.930 . S
C1290 C1291 1.399 . S
C1290 C1295 1.399 . S
C1291 C1290 1.399 . S
C1291 C1292 1.376 . S
C1292 H1279 0.930 . S
C1292 C1291 1.376 . S
C1292 C1293 1.388 . S
C1293 H1280 0.930 . S
C1293 C1292 1.388 . S
C1293 C1294 1.390 . S
C1294 C1293 1.390 . S
C1294 C1295 1.394 . S
C1294 C1300 1.465 . S
C1295 C1290 1.399 . S
C1295 C1294 1.394 . S
C1295 C1296 1.516 . S
C1296 C1295 1.516 . S
C1296 C1297 1.502 . S
C1296 C1298 1.561 . S
C1296 C1299 1.526 . S
C1297 H1281 0.959 . S
C1297 H1282 0.959 . S
C1297 H1283 0.961 . S
C1297 C1296 1.502 . S
C1298 H1284 0.960 . S
C1298 H1285 0.961 . S
C1298 H1286 0.959 . S
C1298 C1296 1.561 . S
C1299 C1296 1.526 . S
C1299 C1300 1.396 . S
C1299 C1304 1.390 . S
C1300 C1294 1.465 . S
C1300 C1299 1.396 . S
C1300 C1301 1.399 . S
C1301 H1287 0.929 . S
C1301 C1300 1.399 . S
C1301 C1302 1.385 . S
C1302 H1288 0.929 . S
C1302 C1301 1.385 . S
C1302 C1303 1.389 . S
C1303 C1302 1.389 . S
C1303 C1304 1.387 . S
C1304 H1289 0.930 . S
C1304 C1299 1.390 . S
C1304 C1303 1.387 . S
H1305 C1317 0.930 . S
H1306 C1319 0.930 . S
H1307 C1320 0.930 1_556 S
H1308 C1324 0.959 . S
H1309 C1324 0.959 . S
H1310 C1324 0.961 . S
H1311 C1325 0.960 . S
H1312 C1325 0.961 . S
H1313 C1325 0.959 . S
H1314 C1328 0.929 . S
H1315 C1329 0.931 . S
H1316 C1331 0.930 . S
C1317 H1305 0.930 . S
C1317 C1318 1.399 . S
C1317 C1322 1.399 . S
C1318 C1317 1.399 . S
C1318 C1319 1.376 . S
C1319 H1306 0.930 . S
C1319 C1318 1.376 . S
C1319 C1320 1.388 . S
C1320 H1307 0.930 1_554 S
C1320 C1319 1.388 . S
C1320 C1321 1.390 . S
C1321 C1320 1.390 . S
C1321 C1322 1.394 . S
C1321 C1327 1.465 . S
C1322 C1317 1.399 . S
C1322 C1321 1.394 . S
C1322 C1323 1.516 . S
C1323 C1322 1.516 . S
C1323 C1324 1.502 . S
C1323 C1325 1.561 . S
C1323 C1326 1.526 . S
C1324 H1308 0.959 . S
C1324 H1309 0.959 . S
C1324 H1310 0.961 . S
C1324 C1323 1.502 . S
C1325 H1311 0.960 . S
C1325 H1312 0.961 . S
C1325 H1313 0.959 . S
C1325 C1323 1.561 . S
C1326 C1323 1.526 . S
C1326 C1327 1.396 . S
C1326 C1331 1.390 . S
C1327 C1321 1.465 . S
C1327 C1326 1.396 . S
C1327 C1328 1.399 1_554 S
C1328 H1314 0.929 . S
C1328 C1327 1.399 1_556 S
C1328 C1329 1.385 . S
C1329 H1315 0.931 . S
C1329 C1328 1.385 . S
C1329 C1330 1.389 1_556 S
C1330 C1329 1.389 1_554 S
C1330 C1331 1.387 . S
C1331 H1316 0.930 . S
C1331 C1326 1.390 . S
C1331 C1330 1.387 . S
H1332 C1344 0.930 . S
H1333 C1346 0.930 . S
H1334 C1347 0.930 . S
H1335 C1351 0.959 . S
H1336 C1351 0.959 . S
H1337 C1351 0.961 . S
H1338 C1352 0.960 . S
H1339 C1352 0.961 . S
H1340 C1352 0.959 . S
H1341 C1355 0.929 . S
H1342 C1356 0.931 . S
H1343 C1358 0.930 . S
C1344 H1332 0.930 . S
C1344 C1345 1.399 . S
C1344 C1349 1.399 1_655 S
C1345 C1344 1.399 . S
C1345 C1346 1.376 . S
C1346 H1333 0.930 . S
C1346 C1345 1.376 . S
C1346 C1347 1.388 1_655 S
C1347 H1334 0.930 . S
C1347 C1346 1.388 1_455 S
C1347 C1348 1.390 . S
C1348 C1347 1.390 . S
C1348 C1349 1.394 . S
C1348 C1354 1.465 . S
C1349 C1344 1.399 1_455 S
C1349 C1348 1.394 . S
C1349 C1350 1.516 . S
C1350 C1349 1.516 . S
C1350 C1351 1.502 . S
C1350 C1352 1.561 . S
C1350 C1353 1.526 . S
C1351 H1335 0.959 . S
C1351 H1336 0.959 . S
C1351 H1337 0.961 . S
C1351 C1350 1.502 . S
C1352 H1338 0.960 . S
C1352 H1339 0.961 . S
C1352 H1340 0.959 . S
C1352 C1350 1.561 . S
C1353 C1350 1.526 . S
C1353 C1354 1.396 . S
C1353 C1358 1.390 . S
C1354 C1348 1.465 . S
C1354 C1353 1.396 . S
C1354 C1355 1.399 . S
C1355 H1341 0.929 . S
C1355 C1354 1.399 . S
C1355 C1356 1.385 . S
C1356 H1342 0.931 . S
C1356 C1355 1.385 . S
C1356 C1357 1.389 . S
C1357 C1356 1.389 . S
C1357 C1358 1.387 . S
C1358 H1343 0.930 . S
C1358 C1353 1.390 . S
C1358 C1357 1.387 . S
H1359 C1371 0.930 . S
H1360 C1373 0.930 . S
H1361 C1374 0.930 . S
H1362 C1378 0.959 . S
H1363 C1378 0.959 . S
H1364 C1378 0.961 . S
H1365 C1379 0.960 . S
H1366 C1379 0.961 . S
H1367 C1379 0.959 . S
H1368 C1382 0.929 . S
H1369 C1383 0.931 . S
H1370 C1385 0.930 . S
C1371 H1359 0.930 . S
C1371 C1372 1.399 . S
C1371 C1376 1.399 . S
C1372 C1371 1.399 . S
C1372 C1373 1.376 . S
C1373 H1360 0.930 . S
C1373 C1372 1.376 . S
C1373 C1374 1.388 . S
C1374 H1361 0.930 . S
C1374 C1373 1.388 . S
C1374 C1375 1.390 . S
C1375 C1374 1.390 . S
C1375 C1376 1.394 . S
C1375 C1381 1.465 . S
C1376 C1371 1.399 . S
C1376 C1375 1.394 . S
C1376 C1377 1.516 . S
C1377 C1376 1.516 . S
C1377 C1378 1.502 . S
C1377 C1379 1.561 . S
C1377 C1380 1.526 . S
C1378 H1362 0.959 . S
C1378 H1363 0.959 . S
C1378 H1364 0.961 . S
C1378 C1377 1.502 . S
C1379 H1365 0.960 . S
C1379 H1366 0.961 . S
C1379 H1367 0.959 . S
C1379 C1377 1.561 . S
C1380 C1377 1.526 . S
C1380 C1381 1.396 . S
C1380 C1385 1.390 . S
C1381 C1375 1.465 . S
C1381 C1380 1.396 . S
C1381 C1382 1.399 . S
C1382 H1368 0.929 . S
C1382 C1381 1.399 . S
C1382 C1383 1.385 . S
C1383 H1369 0.931 . S
C1383 C1382 1.385 . S
C1383 C1384 1.389 . S
C1384 C1383 1.389 . S
C1384 C1385 1.387 . S
C1385 H1370 0.930 . S
C1385 C1380 1.390 . S
C1385 C1384 1.387 . S
H1386 C1398 0.930 . S
H1387 C1400 0.930 . S
H1388 C1401 0.930 . S
H1389 C1405 0.959 . S
H1390 C1405 0.959 . S
H1391 C1405 0.961 . S
H1392 C1406 0.960 . S
H1393 C1406 0.961 . S
H1394 C1406 0.959 . S
H1395 C1409 0.929 . S
H1396 C1410 0.931 . S
H1397 C1412 0.930 . S
C1398 H1386 0.930 . S
C1398 C1399 1.399 . S
C1398 C1403 1.399 1_545 S
C1399 C1398 1.399 . S
C1399 C1400 1.376 . S
C1400 H1387 0.930 . S
C1400 C1399 1.376 . S
C1400 C1401 1.388 . S
C1401 H1388 0.930 . S
C1401 C1400 1.388 . S
C1401 C1402 1.390 1_545 S
C1402 C1401 1.390 1_565 S
C1402 C1403 1.394 . S
C1402 C1408 1.465 . S
C1403 C1398 1.399 1_565 S
C1403 C1402 1.394 . S
C1403 C1404 1.516 . S
C1404 C1403 1.516 . S
C1404 C1405 1.502 . S
C1404 C1406 1.561 . S
C1404 C1407 1.526 . S
C1405 H1389 0.959 . S
C1405 H1390 0.959 . S
C1405 H1391 0.961 . S
C1405 C1404 1.502 . S
C1406 H1392 0.960 . S
C1406 H1393 0.961 . S
C1406 H1394 0.959 . S
C1406 C1404 1.561 . S
C1407 C1404 1.526 . S
C1407 C1408 1.396 . S
C1407 C1412 1.390 . S
C1408 C1402 1.465 . S
C1408 C1407 1.396 . S
C1408 C1409 1.399 . S
C1409 H1395 0.929 . S
C1409 C1408 1.399 . S
C1409 C1410 1.385 . S
C1410 H1396 0.931 . S
C1410 C1409 1.385 . S
C1410 C1411 1.389 . S
C1411 C1410 1.389 . S
C1411 C1412 1.387 . S
C1412 H1397 0.930 . S
C1412 C1407 1.390 . S
C1412 C1411 1.387 . S
H1413 C1425 0.930 . S
H1414 C1427 0.930 . S
H1415 C1428 0.930 . S
H1416 C1432 0.959 . S
H1417 C1432 0.959 . S
H1418 C1432 0.961 . S
H1419 C1433 0.960 . S
H1420 C1433 0.961 . S
H1421 C1433 0.959 . S
H1422 C1436 0.929 . S
H1423 C1437 0.931 . S
H1424 C1439 0.930 . S
C1425 H1413 0.930 . S
C1425 C1426 1.399 . S
C1425 C1430 1.399 . S
C1426 C1425 1.399 . S
C1426 C1427 1.376 . S
C1427 H1414 0.930 . S
C1427 C1426 1.376 . S
C1427 C1428 1.388 . S
C1428 H1415 0.930 . S
C1428 C1427 1.388 . S
C1428 C1429 1.390 . S
C1429 C1428 1.390 . S
C1429 C1430 1.394 . S
C1429 C1435 1.465 . S
C1430 C1425 1.399 . S
C1430 C1429 1.394 . S
C1430 C1431 1.516 . S
C1431 C1430 1.516 . S
C1431 C1432 1.502 . S
C1431 C1433 1.561 . S
C1431 C1434 1.526 . S
C1432 H1416 0.959 . S
C1432 H1417 0.959 . S
C1432 H1418 0.961 . S
C1432 C1431 1.502 . S
C1433 H1419 0.960 . S
C1433 H1420 0.961 . S
C1433 H1421 0.959 . S
C1433 C1431 1.561 . S
C1434 C1431 1.526 . S
C1434 C1435 1.396 . S
C1434 C1439 1.390 . S
C1435 C1429 1.465 . S
C1435 C1434 1.396 . S
C1435 C1436 1.399 . S
C1436 H1422 0.929 . S
C1436 C1435 1.399 . S
C1436 C1437 1.385 . S
C1437 H1423 0.931 . S
C1437 C1436 1.385 . S
C1437 C1438 1.389 . S
C1438 C1437 1.389 . S
C1438 C1439 1.387 . S
C1439 H1424 0.930 . S
C1439 C1434 1.390 . S
C1439 C1438 1.387 . S
H1440 C1452 0.930 . S
H1441 C1454 0.930 . S
H1442 C1455 0.930 . S
H1443 C1459 0.959 . S
H1444 C1459 0.959 . S
H1445 C1459 0.961 . S
H1446 C1460 0.960 . S
H1447 C1460 0.961 . S
H1448 C1460 0.959 . S
H1449 C1463 0.929 . S
H1450 C1464 0.931 . S
H1451 C1466 0.930 . S
C1452 H1440 0.930 . S
C1452 C1453 1.399 . S
C1452 C1457 1.399 . S
C1453 C1452 1.399 . S
C1453 C1454 1.376 . S
C1454 H1441 0.930 . S
C1454 C1453 1.376 . S
C1454 C1455 1.388 . S
C1455 H1442 0.930 . S
C1455 C1454 1.388 . S
C1455 C1456 1.390 . S
C1456 C1455 1.390 . S
C1456 C1457 1.394 . S
C1456 C1462 1.465 . S
C1457 C1452 1.399 . S
C1457 C1456 1.394 . S
C1457 C1458 1.516 . S
C1458 C1457 1.516 . S
C1458 C1459 1.502 . S
C1458 C1460 1.561 . S
C1458 C1461 1.526 . S
C1459 H1443 0.959 . S
C1459 H1444 0.959 . S
C1459 H1445 0.961 . S
C1459 C1458 1.502 . S
C1460 H1446 0.960 . S
C1460 H1447 0.961 . S
C1460 H1448 0.959 . S
C1460 C1458 1.561 . S
C1461 C1458 1.526 . S
C1461 C1462 1.396 . S
C1461 C1466 1.390 . S
C1462 C1456 1.465 . S
C1462 C1461 1.396 . S
C1462 C1463 1.399 . S
C1463 H1449 0.929 . S
C1463 C1462 1.399 . S
C1463 C1464 1.385 . S
C1464 H1450 0.931 . S
C1464 C1463 1.385 . S
C1464 C1465 1.389 . S
C1465 C1464 1.389 . S
C1465 C1466 1.387 . S
C1466 H1451 0.930 . S
C1466 C1461 1.390 . S
C1466 C1465 1.387 . S
H1467 C1479 0.930 . S
H1468 C1481 0.930 . S
H1469 C1482 0.930 . S
H1470 C1486 0.959 . S
H1471 C1486 0.959 . S
H1472 C1486 0.961 . S
H1473 C1487 0.960 . S
H1474 C1487 0.961 . S
H1475 C1487 0.959 . S
H1476 C1490 0.929 . S
H1477 C1491 0.931 . S
H1478 C1493 0.930 . S
C1479 H1467 0.930 . S
C1479 C1480 1.399 . S
C1479 C1484 1.399 . S
C1480 C1479 1.399 . S
C1480 C1481 1.376 . S
C1481 H1468 0.930 . S
C1481 C1480 1.376 . S
C1481 C1482 1.388 . S
C1482 H1469 0.930 . S
C1482 C1481 1.388 . S
C1482 C1483 1.390 . S
C1483 C1482 1.390 . S
C1483 C1484 1.394 . S
C1483 C1489 1.465 . S
C1484 C1479 1.399 . S
C1484 C1483 1.394 . S
C1484 C1485 1.516 . S
C1485 C1484 1.516 . S
C1485 C1486 1.502 . S
C1485 C1487 1.561 . S
C1485 C1488 1.526 . S
C1486 H1470 0.959 . S
C1486 H1471 0.959 . S
C1486 H1472 0.961 . S
C1486 C1485 1.502 . S
C1487 H1473 0.960 . S
C1487 H1474 0.961 . S
C1487 H1475 0.959 . S
C1487 C1485 1.561 . S
C1488 C1485 1.526 . S
C1488 C1489 1.396 . S
C1488 C1493 1.390 . S
C1489 C1483 1.465 . S
C1489 C1488 1.396 . S
C1489 C1490 1.399 . S
C1490 H1476 0.929 . S
C1490 C1489 1.399 . S
C1490 C1491 1.385 . S
C1491 H1477 0.931 . S
C1491 C1490 1.385 . S
C1491 C1492 1.389 . S
C1492 C1491 1.389 . S
C1492 C1493 1.387 . S
C1493 H1478 0.930 . S
C1493 C1488 1.390 . S
C1493 C1492 1.387 . S
H1494 C1506 0.930 . S
H1495 C1508 0.930 . S
H1496 C1509 0.930 . S
H1497 C1513 0.959 . S
H1498 C1513 0.959 . S
H1499 C1513 0.961 . S
H1500 C1514 0.960 . S
H1501 C1514 0.961 . S
H1502 C1514 0.959 . S
H1503 C1517 0.929 . S
H1504 C1518 0.931 . S
H1505 C1520 0.930 . S
C1506 H1494 0.930 . S
C1506 C1507 1.399 . S
C1506 C1511 1.399 . S
C1507 C1506 1.399 . S
C1507 C1508 1.376 . S
C1508 H1495 0.930 . S
C1508 C1507 1.376 . S
C1508 C1509 1.388 . S
C1509 H1496 0.930 . S
C1509 C1508 1.388 . S
C1509 C1510 1.390 . S
C1510 C1509 1.390 . S
C1510 C1511 1.394 . S
C1510 C1516 1.465 . S
C1511 C1506 1.399 . S
C1511 C1510 1.394 . S
C1511 C1512 1.516 . S
C1512 C1511 1.516 . S
C1512 C1513 1.502 . S
C1512 C1514 1.561 . S
C1512 C1515 1.526 . S
C1513 H1497 0.959 . S
C1513 H1498 0.959 . S
C1513 H1499 0.961 . S
C1513 C1512 1.502 . S
C1514 H1500 0.960 . S
C1514 H1501 0.961 . S
C1514 H1502 0.959 . S
C1514 C1512 1.561 . S
C1515 C1512 1.526 . S
C1515 C1516 1.396 . S
C1515 C1520 1.390 . S
C1516 C1510 1.465 . S
C1516 C1515 1.396 . S
C1516 C1517 1.399 . S
C1517 H1503 0.929 . S
C1517 C1516 1.399 . S
C1517 C1518 1.385 . S
C1518 H1504 0.931 . S
C1518 C1517 1.385 . S
C1518 C1519 1.389 . S
C1519 C1518 1.389 . S
C1519 C1520 1.387 . S
C1520 H1505 0.930 . S
C1520 C1515 1.390 . S
C1520 C1519 1.387 . S
H1521 C1533 0.930 . S
H1522 C1535 0.930 . S
H1523 C1536 0.930 . S
H1524 C1540 0.959 . S
H1525 C1540 0.959 . S
H1526 C1540 0.961 . S
H1527 C1541 0.960 . S
H1528 C1541 0.961 . S
H1529 C1541 0.959 . S
H1530 C1544 0.929 . S
H1531 C1545 0.931 . S
H1532 C1547 0.930 . S
C1533 H1521 0.930 . S
C1533 C1534 1.399 . S
C1533 C1538 1.399 . S
C1534 C1533 1.399 . S
C1534 C1535 1.376 . S
C1535 H1522 0.930 . S
C1535 C1534 1.376 . S
C1535 C1536 1.388 . S
C1536 H1523 0.930 . S
C1536 C1535 1.388 . S
C1536 C1537 1.390 . S
C1537 C1536 1.390 . S
C1537 C1538 1.394 . S
C1537 C1543 1.465 . S
C1538 C1533 1.399 . S
C1538 C1537 1.394 . S
C1538 C1539 1.516 . S
C1539 C1538 1.516 . S
C1539 C1540 1.502 . S
C1539 C1541 1.561 . S
C1539 C1542 1.526 . S
C1540 H1524 0.959 . S
C1540 H1525 0.959 . S
C1540 H1526 0.961 . S
C1540 C1539 1.502 . S
C1541 H1527 0.960 . S
C1541 H1528 0.961 . S
C1541 H1529 0.959 . S
C1541 C1539 1.561 . S
C1542 C1539 1.526 . S
C1542 C1543 1.396 . S
C1542 C1547 1.390 . S
C1543 C1537 1.465 . S
C1543 C1542 1.396 . S
C1543 C1544 1.399 . S
C1544 H1530 0.929 . S
C1544 C1543 1.399 . S
C1544 C1545 1.385 . S
C1545 H1531 0.931 . S
C1545 C1544 1.385 . S
C1545 C1546 1.389 . S
C1546 C1545 1.389 . S
C1546 C1547 1.387 . S
C1547 H1532 0.930 . S
C1547 C1542 1.390 . S
C1547 C1546 1.387 . S
H1548 C1560 0.930 . S
H1549 C1562 0.930 . S
H1550 C1563 0.930 . S
H1551 C1567 0.959 . S
H1552 C1567 0.959 . S
H1553 C1567 0.961 . S
H1554 C1568 0.960 . S
H1555 C1568 0.961 . S
H1556 C1568 0.959 . S
H1557 C1571 0.929 . S
H1558 C1572 0.931 . S
H1559 C1574 0.930 . S
C1560 H1548 0.930 . S
C1560 C1561 1.399 . S
C1560 C1565 1.399 . S
C1561 C1560 1.399 . S
C1561 C1562 1.376 . S
C1562 H1549 0.930 . S
C1562 C1561 1.376 . S
C1562 C1563 1.388 . S
C1563 H1550 0.930 . S
C1563 C1562 1.388 . S
C1563 C1564 1.390 . S
C1564 C1563 1.390 . S
C1564 C1565 1.394 . S
C1564 C1570 1.465 . S
C1565 C1560 1.399 . S
C1565 C1564 1.394 . S
C1565 C1566 1.516 . S
C1566 C1565 1.516 . S
C1566 C1567 1.502 . S
C1566 C1568 1.561 . S
C1566 C1569 1.526 . S
C1567 H1551 0.959 . S
C1567 H1552 0.959 . S
C1567 H1553 0.961 . S
C1567 C1566 1.502 . S
C1568 H1554 0.960 . S
C1568 H1555 0.961 . S
C1568 H1556 0.959 . S
C1568 C1566 1.561 . S
C1569 C1566 1.526 . S
C1569 C1570 1.396 . S
C1569 C1574 1.390 . S
C1570 C1564 1.465 . S
C1570 C1569 1.396 . S
C1570 C1571 1.399 . S
C1571 H1557 0.929 . S
C1571 C1570 1.399 . S
C1571 C1572 1.385 . S
C1572 H1558 0.931 . S
C1572 C1571 1.385 . S
C1572 C1573 1.389 . S
C1573 C1572 1.389 . S
C1573 C1574 1.387 . S
C1574 H1559 0.930 . S
C1574 C1569 1.390 . S
C1574 C1573 1.387 . S
H1575 C1587 0.930 . S
H1576 C1589 0.930 . S
H1577 C1590 0.930 . S
H1578 C1594 0.959 . S
H1579 C1594 0.959 . S
H1580 C1594 0.961 . S
H1581 C1595 0.960 . S
H1582 C1595 0.961 . S
H1583 C1595 0.959 . S
H1584 C1598 0.929 . S
H1585 C1599 0.931 . S
H1586 C1601 0.930 . S
C1587 H1575 0.930 . S
C1587 C1588 1.399 . S
C1587 C1592 1.399 1_545 S
C1588 C1587 1.399 . S
C1588 C1589 1.376 . S
C1589 H1576 0.930 . S
C1589 C1588 1.376 . S
C1589 C1590 1.388 1_545 S
C1590 H1577 0.930 . S
C1590 C1589 1.388 1_565 S
C1590 C1591 1.390 . S
C1591 C1590 1.390 . S
C1591 C1592 1.394 . S
C1591 C1597 1.465 . S
C1592 C1587 1.399 1_565 S
C1592 C1591 1.394 . S
C1592 C1593 1.516 . S
C1593 C1592 1.516 . S
C1593 C1594 1.502 . S
C1593 C1595 1.561 . S
C1593 C1596 1.526 . S
C1594 H1578 0.959 . S
C1594 H1579 0.959 . S
C1594 H1580 0.961 . S
C1594 C1593 1.502 . S
C1595 H1581 0.960 . S
C1595 H1582 0.961 . S
C1595 H1583 0.959 . S
C1595 C1593 1.561 . S
C1596 C1593 1.526 . S
C1596 C1597 1.396 . S
C1596 C1601 1.390 . S
C1597 C1591 1.465 . S
C1597 C1596 1.396 . S
C1597 C1598 1.399 . S
C1598 H1584 0.929 . S
C1598 C1597 1.399 . S
C1598 C1599 1.385 . S
C1599 H1585 0.931 . S
C1599 C1598 1.385 . S
C1599 C1600 1.389 . S
C1600 C1599 1.389 . S
C1600 C1601 1.387 . S
C1601 H1586 0.930 . S
C1601 C1596 1.390 . S
C1601 C1600 1.387 . S
H1602 C1614 0.930 1_655 S
H1603 C1616 0.932 . S
H1604 C1617 0.930 . S
H1605 C1621 0.959 . S
H1606 C1621 0.959 . S
H1607 C1621 0.961 . S
H1608 C1622 0.960 . S
H1609 C1622 0.961 . S
H1610 C1622 0.959 . S
H1611 C1625 0.929 . S
H1612 C1626 0.931 . S
H1613 C1628 0.930 . S
C1614 H1602 0.930 1_455 S
C1614 C1615 1.399 1_455 S
C1614 C1619 1.399 . S
C1615 C1614 1.399 1_655 S
C1615 C1616 1.392 . S
C1616 H1603 0.932 . S
C1616 C1615 1.392 . S
C1616 C1617 1.371 1_655 S
C1617 H1604 0.930 . S
C1617 C1616 1.371 1_455 S
C1617 C1618 1.390 . S
C1618 C1617 1.390 . S
C1618 C1619 1.394 . S
C1618 C1624 1.465 . S
C1619 C1614 1.399 . S
C1619 C1618 1.394 . S
C1619 C1620 1.516 . S
C1620 C1619 1.516 . S
C1620 C1621 1.502 . S
C1620 C1622 1.561 . S
C1620 C1623 1.526 . S
C1621 H1605 0.959 . S
C1621 H1606 0.959 . S
C1621 H1607 0.961 . S
C1621 C1620 1.502 . S
C1622 H1608 0.960 . S
C1622 H1609 0.961 . S
C1622 H1610 0.959 . S
C1622 C1620 1.561 . S
C1623 C1620 1.526 . S
C1623 C1624 1.396 . S
C1623 C1628 1.390 . S
C1624 C1618 1.465 . S
C1624 C1623 1.396 . S
C1624 C1625 1.399 . S
C1625 H1611 0.929 . S
C1625 C1624 1.399 . S
C1625 C1626 1.385 . S
C1626 H1612 0.931 . S
C1626 C1625 1.385 . S
C1626 C1627 1.389 . S
C1627 C1626 1.389 . S
C1627 C1628 1.387 . S
C1628 H1613 0.930 . S
C1628 C1623 1.390 . S
C1628 C1627 1.387 . S
H1629 C1641 0.930 . S
H1630 C1643 0.930 . S
H1631 C1644 0.930 . S
H1632 C1648 0.959 . S
H1633 C1648 0.959 . S
H1634 C1648 0.961 . S
H1635 C1649 0.960 . S
H1636 C1649 0.961 . S
H1637 C1649 0.959 . S
H1638 C1652 0.929 . S
H1639 C1653 0.931 . S
H1640 C1655 0.930 . S
C1641 H1629 0.930 . S
C1641 C1642 1.399 . S
C1641 C1646 1.399 . S
C1642 C1641 1.399 . S
C1642 C1643 1.376 . S
C1643 H1630 0.930 . S
C1643 C1642 1.376 . S
C1643 C1644 1.388 . S
C1644 H1631 0.930 . S
C1644 C1643 1.388 . S
C1644 C1645 1.390 . S
C1645 C1644 1.390 . S
C1645 C1646 1.394 . S
C1645 C1651 1.465 . S
C1646 C1641 1.399 . S
C1646 C1645 1.394 . S
C1646 C1647 1.516 . S
C1647 C1646 1.516 . S
C1647 C1648 1.502 . S
C1647 C1649 1.561 . S
C1647 C1650 1.526 . S
C1648 H1632 0.959 . S
C1648 H1633 0.959 . S
C1648 H1634 0.961 . S
C1648 C1647 1.502 . S
C1649 H1635 0.960 . S
C1649 H1636 0.961 . S
C1649 H1637 0.959 . S
C1649 C1647 1.561 . S
C1650 C1647 1.526 . S
C1650 C1651 1.396 . S
C1650 C1655 1.390 . S
C1651 C1645 1.465 . S
C1651 C1650 1.396 . S
C1651 C1652 1.399 . S
C1652 H1638 0.929 . S
C1652 C1651 1.399 . S
C1652 C1653 1.385 . S
C1653 H1639 0.931 . S
C1653 C1652 1.385 . S
C1653 C1654 1.389 . S
C1654 C1653 1.389 . S
C1654 C1655 1.387 . S
C1655 H1640 0.930 . S
C1655 C1650 1.390 . S
C1655 C1654 1.387 . S
H1656 C1668 0.930 . S
H1657 C1670 0.930 . S
H1658 C1671 0.930 . S
H1659 C1675 0.959 . S
H1660 C1675 0.959 . S
H1661 C1675 0.961 . S
H1662 C1676 0.960 . S
H1663 C1676 0.961 . S
H1664 C1676 0.959 . S
H1665 C1679 0.929 . S
H1666 C1680 0.931 . S
H1667 C1682 0.930 . S
C1668 H1656 0.930 . S
C1668 C1669 1.399 . S
C1668 C1673 1.399 . S
C1669 C1668 1.399 . S
C1669 C1670 1.376 . S
C1670 H1657 0.930 . S
C1670 C1669 1.376 . S
C1670 C1671 1.388 . S
C1671 H1658 0.930 . S
C1671 C1670 1.388 . S
C1671 C1672 1.390 . S
C1672 C1671 1.390 . S
C1672 C1673 1.394 . S
C1672 C1678 1.465 . S
C1673 C1668 1.399 . S
C1673 C1672 1.394 . S
C1673 C1674 1.516 . S
C1674 C1673 1.516 . S
C1674 C1675 1.502 . S
C1674 C1676 1.561 . S
C1674 C1677 1.526 . S
C1675 H1659 0.959 . S
C1675 H1660 0.959 . S
C1675 H1661 0.961 . S
C1675 C1674 1.502 . S
C1676 H1662 0.960 . S
C1676 H1663 0.961 . S
C1676 H1664 0.959 . S
C1676 C1674 1.561 . S
C1677 C1674 1.526 . S
C1677 C1678 1.396 . S
C1677 C1682 1.390 . S
C1678 C1672 1.465 . S
C1678 C1677 1.396 . S
C1678 C1679 1.399 . S
C1679 H1665 0.929 . S
C1679 C1678 1.399 . S
C1679 C1680 1.385 . S
C1680 H1666 0.931 . S
C1680 C1679 1.385 . S
C1680 C1681 1.389 . S
C1681 C1680 1.389 . S
C1681 C1682 1.387 . S
C1682 H1667 0.930 . S
C1682 C1677 1.390 . S
C1682 C1681 1.387 . S
H1683 C1695 0.930 . S
H1684 C1697 0.930 . S
H1685 C1698 0.930 . S
H1686 C1702 0.959 . S
H1687 C1702 0.959 . S
H1688 C1702 0.961 . S
H1689 C1703 0.960 . S
H1690 C1703 0.961 . S
H1691 C1703 0.959 . S
H1692 C1706 0.929 . S
H1693 C1707 0.931 . S
H1694 C1709 0.930 . S
C1695 H1683 0.930 . S
C1695 C1696 1.399 . S
C1695 C1700 1.399 . S
C1696 C1695 1.399 . S
C1696 C1697 1.376 . S
C1697 H1684 0.930 . S
C1697 C1696 1.376 . S
C1697 C1698 1.388 . S
C1698 H1685 0.930 . S
C1698 C1697 1.388 . S
C1698 C1699 1.390 . S
C1699 C1698 1.390 . S
C1699 C1700 1.394 . S
C1699 C1705 1.465 . S
C1700 C1695 1.399 . S
C1700 C1699 1.394 . S
C1700 C1701 1.516 . S
C1701 C1700 1.516 . S
C1701 C1702 1.502 . S
C1701 C1703 1.561 . S
C1701 C1704 1.526 . S
C1702 H1686 0.959 . S
C1702 H1687 0.959 . S
C1702 H1688 0.961 . S
C1702 C1701 1.502 . S
C1703 H1689 0.960 . S
C1703 H1690 0.961 . S
C1703 H1691 0.959 . S
C1703 C1701 1.561 . S
C1704 C1701 1.526 . S
C1704 C1705 1.396 . S
C1704 C1709 1.390 . S
C1705 C1699 1.465 . S
C1705 C1704 1.396 . S
C1705 C1706 1.399 . S
C1706 H1692 0.929 . S
C1706 C1705 1.399 . S
C1706 C1707 1.385 . S
C1707 H1693 0.931 . S
C1707 C1706 1.385 . S
C1707 C1708 1.389 . S
C1708 C1707 1.389 . S
C1708 C1709 1.387 . S
C1709 H1694 0.930 . S
C1709 C1704 1.390 . S
C1709 C1708 1.387 . S
H1710 C1722 0.930 . S
H1711 C1724 0.930 . S
H1712 C1725 0.930 . S
H1713 C1729 0.959 . S
H1714 C1729 0.959 . S
H1715 C1729 0.961 . S
H1716 C1730 0.960 . S
H1717 C1730 0.961 . S
H1718 C1730 0.959 . S
H1719 C1733 0.929 . S
H1720 C1734 0.931 . S
H1721 C1736 0.930 . S
C1722 H1710 0.930 . S
C1722 C1723 1.399 . S
C1722 C1727 1.399 . S
C1723 C1722 1.399 . S
C1723 C1724 1.376 . S
C1724 H1711 0.930 . S
C1724 C1723 1.376 . S
C1724 C1725 1.388 . S
C1725 H1712 0.930 . S
C1725 C1724 1.388 . S
C1725 C1726 1.390 . S
C1726 C1725 1.390 . S
C1726 C1727 1.394 . S
C1726 C1732 1.465 . S
C1727 C1722 1.399 . S
C1727 C1726 1.394 . S
C1727 C1728 1.516 . S
C1728 C1727 1.516 . S
C1728 C1729 1.502 . S
C1728 C1730 1.561 . S
C1728 C1731 1.526 . S
C1729 H1713 0.959 . S
C1729 H1714 0.959 . S
C1729 H1715 0.961 . S
C1729 C1728 1.502 . S
C1730 H1716 0.960 . S
C1730 H1717 0.961 . S
C1730 H1718 0.959 . S
C1730 C1728 1.561 . S
C1731 C1728 1.526 . S
C1731 C1732 1.396 . S
C1731 C1736 1.390 . S
C1732 C1726 1.465 . S
C1732 C1731 1.396 . S
C1732 C1733 1.399 . S
C1733 H1719 0.929 . S
C1733 C1732 1.399 . S
C1733 C1734 1.385 . S
C1734 H1720 0.931 . S
C1734 C1733 1.385 . S
C1734 C1735 1.389 . S
C1735 C1734 1.389 . S
C1735 C1736 1.387 . S
C1736 H1721 0.930 . S
C1736 C1731 1.390 . S
C1736 C1735 1.387 . S
H1737 C1749 0.930 . S
H1738 C1751 0.930 . S
H1739 C1752 0.930 . S
H1740 C1756 0.959 . S
H1741 C1756 0.959 . S
H1742 C1756 0.961 . S
H1743 C1757 0.960 . S
H1744 C1757 0.961 . S
H1745 C1757 0.959 . S
H1746 C1760 0.929 . S
H1747 C1761 0.931 . S
H1748 C1763 0.930 . S
C1749 H1737 0.930 . S
C1749 C1750 1.399 . S
C1749 C1754 1.399 1_565 S
C1750 C1749 1.399 . S
C1750 C1751 1.376 . S
C1751 H1738 0.930 . S
C1751 C1750 1.376 . S
C1751 C1752 1.388 1_565 S
C1752 H1739 0.930 . S
C1752 C1751 1.388 1_545 S
C1752 C1753 1.390 . S
C1753 C1752 1.390 . S
C1753 C1754 1.394 . S
C1753 C1759 1.465 . S
C1754 C1749 1.399 1_545 S
C1754 C1753 1.394 . S
C1754 C1755 1.516 . S
C1755 C1754 1.516 . S
C1755 C1756 1.502 . S
C1755 C1757 1.561 . S
C1755 C1758 1.526 . S
C1756 H1740 0.959 . S
C1756 H1741 0.959 . S
C1756 H1742 0.961 . S
C1756 C1755 1.502 . S
C1757 H1743 0.960 . S
C1757 H1744 0.961 . S
C1757 H1745 0.959 . S
C1757 C1755 1.561 . S
C1758 C1755 1.526 . S
C1758 C1759 1.396 . S
C1758 C1763 1.390 . S
C1759 C1753 1.465 . S
C1759 C1758 1.396 . S
C1759 C1760 1.399 . S
C1760 H1746 0.929 . S
C1760 C1759 1.399 . S
C1760 C1761 1.385 . S
C1761 H1747 0.931 . S
C1761 C1760 1.385 . S
C1761 C1762 1.389 . S
C1762 C1761 1.389 . S
C1762 C1763 1.387 . S
C1763 H1748 0.930 . S
C1763 C1758 1.390 . S
C1763 C1762 1.387 . S
H1764 C1776 0.930 . S
H1765 C1778 0.930 . S
H1766 C1779 0.930 . S
H1767 C1783 0.959 . S
H1768 C1783 0.959 . S
H1769 C1783 0.961 . S
H1770 C1784 0.960 . S
H1771 C1784 0.961 . S
H1772 C1784 0.959 . S
H1773 C1787 0.929 . S
H1774 C1788 0.931 . S
H1775 C1790 0.930 . S
C1776 H1764 0.930 . S
C1776 C1777 1.399 1_655 S
C1776 C1781 1.399 . S
C1777 C1776 1.399 1_455 S
C1777 C1778 1.376 . S
C1778 H1765 0.930 . S
C1778 C1777 1.376 . S
C1778 C1779 1.388 1_455 S
C1779 H1766 0.930 . S
C1779 C1778 1.388 1_655 S
C1779 C1780 1.390 . S
C1780 C1779 1.390 . S
C1780 C1781 1.394 . S
C1780 C1786 1.465 . S
C1781 C1776 1.399 . S
C1781 C1780 1.394 . S
C1781 C1782 1.516 . S
C1782 C1781 1.516 . S
C1782 C1783 1.502 . S
C1782 C1784 1.561 . S
C1782 C1785 1.526 . S
C1783 H1767 0.959 . S
C1783 H1768 0.959 . S
C1783 H1769 0.961 . S
C1783 C1782 1.502 . S
C1784 H1770 0.960 . S
C1784 H1771 0.961 . S
C1784 H1772 0.959 . S
C1784 C1782 1.561 . S
C1785 C1782 1.526 . S
C1785 C1786 1.396 . S
C1785 C1790 1.390 . S
C1786 C1780 1.465 . S
C1786 C1785 1.396 . S
C1786 C1787 1.399 . S
C1787 H1773 0.929 . S
C1787 C1786 1.399 . S
C1787 C1788 1.385 . S
C1788 H1774 0.931 . S
C1788 C1787 1.385 . S
C1788 C1789 1.389 . S
C1789 C1788 1.389 . S
C1789 C1790 1.387 . S
C1790 H1775 0.930 . S
C1790 C1785 1.390 . S
C1790 C1789 1.387 . S
H1791 C1803 0.930 . S
H1792 C1805 0.930 . S
H1793 C1806 0.930 . S
H1794 C1810 0.959 . S
H1795 C1810 0.959 . S
H1796 C1810 0.961 . S
H1797 C1811 0.960 . S
H1798 C1811 0.961 . S
H1799 C1811 0.959 . S
H1800 C1814 0.929 . S
H1801 C1815 0.931 . S
H1802 C1817 0.930 . S
C1803 H1791 0.930 . S
C1803 C1804 1.399 . S
C1803 C1808 1.399 . S
C1804 C1803 1.399 . S
C1804 C1805 1.376 . S
C1805 H1792 0.930 . S
C1805 C1804 1.376 . S
C1805 C1806 1.388 . S
C1806 H1793 0.930 . S
C1806 C1805 1.388 . S
C1806 C1807 1.390 . S
C1807 C1806 1.390 . S
C1807 C1808 1.394 . S
C1807 C1813 1.465 . S
C1808 C1803 1.399 . S
C1808 C1807 1.394 . S
C1808 C1809 1.516 . S
C1809 C1808 1.516 . S
C1809 C1810 1.502 . S
C1809 C1811 1.561 . S
C1809 C1812 1.526 . S
C1810 H1794 0.959 . S
C1810 H1795 0.959 . S
C1810 H1796 0.961 . S
C1810 C1809 1.502 . S
C1811 H1797 0.960 . S
C1811 H1798 0.961 . S
C1811 H1799 0.959 . S
C1811 C1809 1.561 . S
C1812 C1809 1.526 . S
C1812 C1813 1.396 . S
C1812 C1817 1.390 . S
C1813 C1807 1.465 . S
C1813 C1812 1.396 . S
C1813 C1814 1.399 . S
C1814 H1800 0.929 . S
C1814 C1813 1.399 . S
C1814 C1815 1.385 . S
C1815 H1801 0.931 . S
C1815 C1814 1.385 . S
C1815 C1816 1.389 . S
C1816 C1815 1.389 . S
C1816 C1817 1.387 . S
C1817 H1802 0.930 . S
C1817 C1812 1.390 . S
C1817 C1816 1.387 . S
H1818 C1830 0.930 . S
H1819 C1832 0.930 . S
H1820 C1833 0.930 . S
H1821 C1837 0.959 . S
H1822 C1837 0.959 . S
H1823 C1837 0.961 . S
H1824 C1838 0.960 . S
H1825 C1838 0.961 . S
H1826 C1838 0.959 . S
H1827 C1841 0.929 . S
H1828 C1842 0.931 . S
H1829 C1844 0.930 . S
C1830 H1818 0.930 . S
C1830 C1831 1.399 . S
C1830 C1835 1.399 1_455 S
C1831 C1830 1.399 . S
C1831 C1832 1.376 . S
C1832 H1819 0.930 . S
C1832 C1831 1.376 . S
C1832 C1833 1.388 1_455 S
C1833 H1820 0.930 . S
C1833 C1832 1.388 1_655 S
C1833 C1834 1.390 . S
C1834 C1833 1.390 . S
C1834 C1835 1.394 . S
C1834 C1840 1.465 . S
C1835 C1830 1.399 1_655 S
C1835 C1834 1.394 . S
C1835 C1836 1.516 . S
C1836 C1835 1.516 . S
C1836 C1837 1.502 . S
C1836 C1838 1.561 . S
C1836 C1839 1.526 . S
C1837 H1821 0.959 . S
C1837 H1822 0.959 . S
C1837 H1823 0.961 . S
C1837 C1836 1.502 . S
C1838 H1824 0.960 . S
C1838 H1825 0.961 . S
C1838 H1826 0.959 . S
C1838 C1836 1.561 . S
C1839 C1836 1.526 . S
C1839 C1840 1.396 . S
C1839 C1844 1.390 . S
C1840 C1834 1.465 . S
C1840 C1839 1.396 . S
C1840 C1841 1.399 . S
C1841 H1827 0.929 . S
C1841 C1840 1.399 . S
C1841 C1842 1.385 . S
C1842 H1828 0.931 . S
C1842 C1841 1.385 . S
C1842 C1843 1.389 . S
C1843 C1842 1.389 . S
C1843 C1844 1.387 . S
C1844 H1829 0.930 . S
C1844 C1839 1.390 . S
C1844 C1843 1.387 . S
H1845 C1857 0.930 . S
H1846 C1859 0.930 . S
H1847 C1860 0.930 . S
H1848 C1864 0.959 . S
H1849 C1864 0.959 . S
H1850 C1864 0.961 . S
H1851 C1865 0.960 . S
H1852 C1865 0.961 . S
H1853 C1865 0.959 . S
H1854 C1868 0.929 . S
H1855 C1869 0.931 . S
H1856 C1871 0.930 . S
C1857 H1845 0.930 . S
C1857 C1858 1.399 . S
C1857 C1862 1.399 . S
C1858 C1857 1.399 . S
C1858 C1859 1.376 . S
C1859 H1846 0.930 . S
C1859 C1858 1.376 . S
C1859 C1860 1.388 . S
C1860 H1847 0.930 . S
C1860 C1859 1.388 . S
C1860 C1861 1.390 . S
C1861 C1860 1.390 . S
C1861 C1862 1.394 . S
C1861 C1867 1.465 . S
C1862 C1857 1.399 . S
C1862 C1861 1.394 . S
C1862 C1863 1.516 . S
C1863 C1862 1.516 . S
C1863 C1864 1.502 . S
C1863 C1865 1.561 . S
C1863 C1866 1.526 . S
C1864 H1848 0.959 . S
C1864 H1849 0.959 . S
C1864 H1850 0.961 . S
C1864 C1863 1.502 . S
C1865 H1851 0.960 . S
C1865 H1852 0.961 . S
C1865 H1853 0.959 . S
C1865 C1863 1.561 . S
C1866 C1863 1.526 . S
C1866 C1867 1.396 . S
C1866 C1871 1.390 . S
C1867 C1861 1.465 . S
C1867 C1866 1.396 . S
C1867 C1868 1.399 . S
C1868 H1854 0.929 . S
C1868 C1867 1.399 . S
C1868 C1869 1.385 . S
C1869 H1855 0.931 . S
C1869 C1868 1.385 . S
C1869 C1870 1.389 . S
C1870 C1869 1.389 . S
C1870 C1871 1.387 . S
C1871 H1856 0.930 . S
C1871 C1866 1.390 . S
C1871 C1870 1.387 . S
H1872 C1884 0.930 . S
H1873 C1886 0.930 . S
H1874 C1887 0.930 . S
H1875 C1891 0.959 . S
H1876 C1891 0.959 . S
H1877 C1891 0.961 . S
H1878 C1892 0.960 . S
H1879 C1892 0.961 . S
H1880 C1892 0.959 . S
H1881 C1895 0.929 . S
H1882 C1896 0.931 . S
H1883 C1898 0.930 . S
C1884 H1872 0.930 . S
C1884 C1885 1.399 . S
C1884 C1889 1.399 1_565 S
C1885 C1884 1.399 . S
C1885 C1886 1.376 . S
C1886 H1873 0.930 . S
C1886 C1885 1.376 . S
C1886 C1887 1.388 . S
C1887 H1874 0.930 . S
C1887 C1886 1.388 . S
C1887 C1888 1.390 1_565 S
C1888 C1887 1.390 1_545 S
C1888 C1889 1.394 . S
C1888 C1894 1.465 . S
C1889 C1884 1.399 1_545 S
C1889 C1888 1.394 . S
C1889 C1890 1.516 . S
C1890 C1889 1.516 . S
C1890 C1891 1.502 . S
C1890 C1892 1.561 . S
C1890 C1893 1.526 . S
C1891 H1875 0.959 . S
C1891 H1876 0.959 . S
C1891 H1877 0.961 . S
C1891 C1890 1.502 . S
C1892 H1878 0.960 . S
C1892 H1879 0.961 . S
C1892 H1880 0.959 . S
C1892 C1890 1.561 . S
C1893 C1890 1.526 . S
C1893 C1894 1.396 . S
C1893 C1898 1.390 . S
C1894 C1888 1.465 . S
C1894 C1893 1.396 . S
C1894 C1895 1.399 . S
C1895 H1881 0.929 . S
C1895 C1894 1.399 . S
C1895 C1896 1.385 . S
C1896 H1882 0.931 . S
C1896 C1895 1.385 . S
C1896 C1897 1.389 . S
C1897 C1896 1.389 . S
C1897 C1898 1.387 . S
C1898 H1883 0.930 . S
C1898 C1893 1.390 . S
C1898 C1897 1.387 . S
H1899 C1911 0.930 . S
H1900 C1913 0.930 . S
H1901 C1914 0.930 . S
H1902 C1918 0.959 . S
H1903 C1918 0.959 . S
H1904 C1918 0.961 . S
H1905 C1919 0.960 . S
H1906 C1919 0.961 . S
H1907 C1919 0.959 . S
H1908 C1922 0.929 . S
H1909 C1923 0.931 . S
H1910 C1925 0.930 . S
C1911 H1899 0.930 . S
C1911 C1912 1.399 . S
C1911 C1916 1.399 . S
C1912 C1911 1.399 . S
C1912 C1913 1.376 . S
C1913 H1900 0.930 . S
C1913 C1912 1.376 . S
C1913 C1914 1.388 . S
C1914 H1901 0.930 . S
C1914 C1913 1.388 . S
C1914 C1915 1.390 . S
C1915 C1914 1.390 . S
C1915 C1916 1.394 . S
C1915 C1921 1.465 . S
C1916 C1911 1.399 . S
C1916 C1915 1.394 . S
C1916 C1917 1.516 . S
C1917 C1916 1.516 . S
C1917 C1918 1.502 . S
C1917 C1919 1.561 . S
C1917 C1920 1.526 . S
C1918 H1902 0.959 . S
C1918 H1903 0.959 . S
C1918 H1904 0.961 . S
C1918 C1917 1.502 . S
C1919 H1905 0.960 . S
C1919 H1906 0.961 . S
C1919 H1907 0.959 . S
C1919 C1917 1.561 . S
C1920 C1917 1.526 . S
C1920 C1921 1.396 . S
C1920 C1925 1.390 . S
C1921 C1915 1.465 . S
C1921 C1920 1.396 . S
C1921 C1922 1.399 . S
C1922 H1908 0.929 . S
C1922 C1921 1.399 . S
C1922 C1923 1.385 . S
C1923 H1909 0.931 . S
C1923 C1922 1.385 . S
C1923 C1924 1.389 . S
C1924 C1923 1.389 . S
C1924 C1925 1.387 . S
C1925 H1910 0.930 . S
C1925 C1920 1.390 . S
C1925 C1924 1.387 . S
H1926 C1938 0.930 . S
H1927 C1940 0.930 . S
H1928 C1941 0.930 . S
H1929 C1945 0.959 . S
H1930 C1945 0.959 . S
H1931 C1945 0.961 . S
H1932 C1946 0.960 . S
H1933 C1946 0.961 . S
H1934 C1946 0.959 . S
H1935 C1949 0.929 . S
H1936 C1950 0.931 . S
H1937 C1952 0.930 . S
C1938 H1926 0.930 . S
C1938 C1939 1.399 . S
C1938 C1943 1.399 . S
C1939 C1938 1.399 . S
C1939 C1940 1.376 . S
C1940 H1927 0.930 . S
C1940 C1939 1.376 . S
C1940 C1941 1.388 . S
C1941 H1928 0.930 . S
C1941 C1940 1.388 . S
C1941 C1942 1.390 . S
C1942 C1941 1.390 . S
C1942 C1943 1.394 . S
C1942 C1948 1.465 . S
C1943 C1938 1.399 . S
C1943 C1942 1.394 . S
C1943 C1944 1.516 . S
C1944 C1943 1.516 . S
C1944 C1945 1.502 . S
C1944 C1946 1.561 . S
C1944 C1947 1.526 . S
C1945 H1929 0.959 . S
C1945 H1930 0.959 . S
C1945 H1931 0.961 . S
C1945 C1944 1.502 . S
C1946 H1932 0.960 . S
C1946 H1933 0.961 . S
C1946 H1934 0.959 . S
C1946 C1944 1.561 . S
C1947 C1944 1.526 . S
C1947 C1948 1.396 . S
C1947 C1952 1.390 . S
C1948 C1942 1.465 . S
C1948 C1947 1.396 . S
C1948 C1949 1.399 . S
C1949 H1935 0.929 . S
C1949 C1948 1.399 . S
C1949 C1950 1.385 . S
C1950 H1936 0.931 . S
C1950 C1949 1.385 . S
C1950 C1951 1.389 . S
C1951 C1950 1.389 . S
C1951 C1952 1.387 . S
C1952 H1937 0.930 . S
C1952 C1947 1.390 . S
C1952 C1951 1.387 . S
H1953 C1965 0.930 . S
H1954 C1967 0.930 . S
H1955 C1968 0.930 . S
H1956 C1972 0.959 . S
H1957 C1972 0.959 . S
H1958 C1972 0.961 . S
H1959 C1973 0.960 . S
H1960 C1973 0.961 . S
H1961 C1973 0.959 . S
H1962 C1976 0.929 . S
H1963 C1977 0.931 . S
H1964 C1979 0.930 . S
C1965 H1953 0.930 . S
C1965 C1966 1.399 . S
C1965 C1970 1.399 . S
C1966 C1965 1.399 . S
C1966 C1967 1.376 . S
C1967 H1954 0.930 . S
C1967 C1966 1.376 . S
C1967 C1968 1.388 . S
C1968 H1955 0.930 . S
C1968 C1967 1.388 . S
C1968 C1969 1.390 . S
C1969 C1968 1.390 . S
C1969 C1970 1.394 . S
C1969 C1975 1.465 . S
C1970 C1965 1.399 . S
C1970 C1969 1.394 . S
C1970 C1971 1.516 . S
C1971 C1970 1.516 . S
C1971 C1972 1.502 . S
C1971 C1973 1.561 . S
C1971 C1974 1.526 . S
C1972 H1956 0.959 . S
C1972 H1957 0.959 . S
C1972 H1958 0.961 . S
C1972 C1971 1.502 . S
C1973 H1959 0.960 . S
C1973 H1960 0.961 . S
C1973 H1961 0.959 . S
C1973 C1971 1.561 . S
C1974 C1971 1.526 . S
C1974 C1975 1.396 . S
C1974 C1979 1.390 . S
C1975 C1969 1.465 . S
C1975 C1974 1.396 . S
C1975 C1976 1.399 . S
C1976 H1962 0.929 . S
C1976 C1975 1.399 . S
C1976 C1977 1.385 . S
C1977 H1963 0.931 . S
C1977 C1976 1.385 . S
C1977 C1978 1.389 . S
C1978 C1977 1.389 . S
C1978 C1979 1.387 . S
C1979 H1964 0.930 . S
C1979 C1974 1.390 . S
C1979 C1978 1.387 . S
H1980 C1992 0.930 . S
H1981 C1994 0.930 . S
H1982 C1995 0.930 . S
H1983 C1999 0.942 1_565 S
H1984 C1999 0.959 . S
H1985 C1999 0.961 . S
H1986 C2000 0.960 . S
H1987 C2000 0.961 . S
H1988 C2000 0.959 . S
H1989 C2003 0.929 . S
H1990 C2004 0.931 . S
H1991 C2006 0.930 . S
C1992 H1980 0.930 . S
C1992 C1993 1.399 . S
C1992 C1997 1.399 . S
C1993 C1992 1.399 . S
C1993 C1994 1.376 . S
C1994 H1981 0.930 . S
C1994 C1993 1.376 . S
C1994 C1995 1.388 . S
C1995 H1982 0.930 . S
C1995 C1994 1.388 . S
C1995 C1996 1.390 . S
C1996 C1995 1.390 . S
C1996 C1997 1.394 . S
C1996 C2002 1.465 . S
C1997 C1992 1.399 . S
C1997 C1996 1.394 . S
C1997 C1998 1.516 1_565 S
C1998 C1997 1.516 1_545 S
C1998 C1999 1.502 . S
C1998 C2000 1.561 . S
C1998 C2001 1.526 1_545 S
C1999 H1983 0.942 1_545 S
C1999 H1984 0.959 . S
C1999 H1985 0.961 . S
C1999 C1998 1.502 . S
C2000 H1986 0.960 . S
C2000 H1987 0.961 . S
C2000 H1988 0.959 . S
C2000 C1998 1.561 . S
C2001 C1998 1.526 1_565 S
C2001 C2002 1.396 . S
C2001 C2006 1.390 1_565 S
C2002 C1996 1.465 . S
C2002 C2001 1.396 . S
C2002 C2003 1.399 . S
C2003 H1989 0.929 . S
C2003 C2002 1.399 . S
C2003 C2004 1.385 . S
C2004 H1990 0.931 . S
C2004 C2003 1.385 . S
C2004 C2005 1.389 . S
C2005 C2004 1.389 . S
C2005 C2006 1.387 1_565 S
C2006 H1991 0.930 . S
C2006 C2001 1.390 1_545 S
C2006 C2005 1.387 1_545 S
H2007 C2019 0.940 1_655 S
H2008 C2021 0.930 . S
H2009 C2022 0.930 . S
H2010 C2026 0.959 . S
H2011 C2026 0.959 . S
H2012 C2026 0.961 . S
H2013 C2027 0.960 . S
H2014 C2027 0.961 . S
H2015 C2027 0.959 . S
H2016 C2030 0.929 . S
H2017 C2031 0.931 . S
H2018 C2033 0.930 . S
C2019 H2007 0.940 1_455 S
C2019 C2020 1.399 . S
C2019 C2024 1.399 . S
C2020 C2019 1.399 . S
C2020 C2021 1.376 . S
C2021 H2008 0.930 . S
C2021 C2020 1.376 . S
C2021 C2022 1.388 . S
C2022 H2009 0.930 . S
C2022 C2021 1.388 . S
C2022 C2023 1.390 . S
C2023 C2022 1.390 . S
C2023 C2024 1.394 . S
C2023 C2029 1.465 . S
C2024 C2019 1.399 . S
C2024 C2023 1.394 . S
C2024 C2025 1.523 1_455 S
C2025 C2024 1.523 1_655 S
C2025 C2026 1.479 1_655 S
C2025 C2027 1.580 . S
C2025 C2028 1.527 1_655 S
C2026 H2010 0.959 . S
C2026 H2011 0.959 . S
C2026 H2012 0.961 . S
C2026 C2025 1.479 1_455 S
C2027 H2013 0.960 . S
C2027 H2014 0.961 . S
C2027 H2015 0.959 . S
C2027 C2025 1.580 . S
C2028 C2025 1.527 1_455 S
C2028 C2029 1.396 . S
C2028 C2033 1.390 . S
C2029 C2023 1.465 . S
C2029 C2028 1.396 . S
C2029 C2030 1.399 . S
C2030 H2016 0.929 . S
C2030 C2029 1.399 . S
C2030 C2031 1.385 . S
C2031 H2017 0.931 . S
C2031 C2030 1.385 . S
C2031 C2032 1.389 . S
C2032 C2031 1.389 . S
C2032 C2033 1.387 . S
C2033 H2018 0.930 . S
C2033 C2028 1.390 . S
C2033 C2032 1.387 . S
H2034 C2046 0.930 . S
H2035 C2048 0.930 . S
H2036 C2049 0.930 . S
H2037 C2053 0.959 . S
H2038 C2053 0.959 . S
H2039 C2053 0.961 . S
H2040 C2054 0.960 . S
H2041 C2054 0.961 . S
H2042 C2054 0.959 . S
H2043 C2057 0.929 . S
H2044 C2058 0.931 . S
H2045 C2060 0.930 . S
C2046 H2034 0.930 . S
C2046 C2047 1.399 . S
C2046 C2051 1.399 . S
C2047 C2046 1.399 . S
C2047 C2048 1.376 . S
C2048 H2035 0.930 . S
C2048 C2047 1.376 . S
C2048 C2049 1.388 . S
C2049 H2036 0.930 . S
C2049 C2048 1.388 . S
C2049 C2050 1.390 . S
C2050 C2049 1.390 . S
C2050 C2051 1.394 . S
C2050 C2056 1.465 . S
C2051 C2046 1.399 . S
C2051 C2050 1.394 . S
C2051 C2052 1.516 . S
C2052 C2051 1.516 . S
C2052 C2053 1.502 . S
C2052 C2054 1.561 . S
C2052 C2055 1.526 . S
C2053 H2037 0.959 . S
C2053 H2038 0.959 . S
C2053 H2039 0.961 . S
C2053 C2052 1.502 . S
C2054 H2040 0.960 . S
C2054 H2041 0.961 . S
C2054 H2042 0.959 . S
C2054 C2052 1.561 . S
C2055 C2052 1.526 . S
C2055 C2056 1.396 . S
C2055 C2060 1.390 . S
C2056 C2050 1.465 . S
C2056 C2055 1.396 . S
C2056 C2057 1.399 . S
C2057 H2043 0.929 . S
C2057 C2056 1.399 . S
C2057 C2058 1.385 . S
C2058 H2044 0.931 . S
C2058 C2057 1.385 . S
C2058 C2059 1.389 . S
C2059 C2058 1.389 . S
C2059 C2060 1.387 . S
C2060 H2045 0.930 . S
C2060 C2055 1.390 . S
C2060 C2059 1.387 . S
H2061 C2073 0.930 . S
H2062 C2075 0.930 . S
H2063 C2076 0.930 . S
H2064 C2080 0.959 . S
H2065 C2080 0.959 . S
H2066 C2080 0.961 . S
H2067 C2081 0.960 . S
H2068 C2081 0.961 . S
H2069 C2081 0.959 . S
H2070 C2084 0.929 . S
H2071 C2085 0.931 . S
H2072 C2087 0.930 . S
C2073 H2061 0.930 . S
C2073 C2074 1.399 1_455 S
C2073 C2078 1.399 . S
C2074 C2073 1.399 1_655 S
C2074 C2075 1.376 . S
C2075 H2062 0.930 . S
C2075 C2074 1.376 . S
C2075 C2076 1.388 . S
C2076 H2063 0.930 . S
C2076 C2075 1.388 . S
C2076 C2077 1.390 . S
C2077 C2076 1.390 . S
C2077 C2078 1.394 1_655 S
C2077 C2083 1.465 . S
C2078 C2073 1.399 . S
C2078 C2077 1.394 1_455 S
C2078 C2079 1.516 . S
C2079 C2078 1.516 . S
C2079 C2080 1.502 . S
C2079 C2081 1.561 . S
C2079 C2082 1.526 . S
C2080 H2064 0.959 . S
C2080 H2065 0.959 . S
C2080 H2066 0.961 . S
C2080 C2079 1.502 . S
C2081 H2067 0.960 . S
C2081 H2068 0.961 . S
C2081 H2069 0.959 . S
C2081 C2079 1.561 . S
C2082 C2079 1.526 . S
C2082 C2083 1.396 1_455 S
C2082 C2087 1.390 . S
C2083 C2077 1.465 . S
C2083 C2082 1.396 1_655 S
C2083 C2084 1.399 . S
C2084 H2070 0.929 . S
C2084 C2083 1.399 . S
C2084 C2085 1.385 . S
C2085 H2071 0.931 . S
C2085 C2084 1.385 . S
C2085 C2086 1.389 . S
C2086 C2085 1.389 . S
C2086 C2087 1.387 1_655 S
C2087 H2072 0.930 . S
C2087 C2082 1.390 . S
C2087 C2086 1.387 1_455 S
H2088 C2100 0.930 . S
H2089 C2102 0.930 . S
H2090 C2103 0.930 . S
H2091 C2107 0.959 . S
H2092 C2107 0.959 . S
H2093 C2107 0.961 . S
H2094 C2108 0.960 . S
H2095 C2108 0.961 . S
H2096 C2108 0.959 . S
H2097 C2111 0.929 . S
H2098 C2112 0.931 . S
H2099 C2114 0.930 . S
C2100 H2088 0.930 . S
C2100 C2101 1.399 . S
C2100 C2105 1.399 . S
C2101 C2100 1.399 . S
C2101 C2102 1.376 . S
C2102 H2089 0.930 . S
C2102 C2101 1.376 . S
C2102 C2103 1.388 . S
C2103 H2090 0.930 . S
C2103 C2102 1.388 . S
C2103 C2104 1.390 . S
C2104 C2103 1.390 . S
C2104 C2105 1.394 . S
C2104 C2110 1.465 . S
C2105 C2100 1.399 . S
C2105 C2104 1.394 . S
C2105 C2106 1.516 . S
C2106 C2105 1.516 . S
C2106 C2107 1.502 . S
C2106 C2108 1.561 . S
C2106 C2109 1.526 . S
C2107 H2091 0.959 . S
C2107 H2092 0.959 . S
C2107 H2093 0.961 . S
C2107 C2106 1.502 . S
C2108 H2094 0.960 . S
C2108 H2095 0.961 . S
C2108 H2096 0.959 . S
C2108 C2106 1.561 . S
C2109 C2106 1.526 . S
C2109 C2110 1.396 . S
C2109 C2114 1.390 . S
C2110 C2104 1.465 . S
C2110 C2109 1.396 . S
C2110 C2111 1.399 . S
C2111 H2097 0.929 . S
C2111 C2110 1.399 . S
C2111 C2112 1.385 . S
C2112 H2098 0.931 . S
C2112 C2111 1.385 . S
C2112 C2113 1.389 . S
C2113 C2112 1.389 . S
C2113 C2114 1.387 . S
C2114 H2099 0.930 . S
C2114 C2109 1.390 . S
C2114 C2113 1.387 . S
H2115 C2127 0.930 . S
H2116 C2129 0.930 1_565 S
H2117 C2130 0.930 . S
H2118 C2134 0.959 . S
H2119 C2134 0.959 . S
H2120 C2134 0.961 . S
H2121 C2135 0.960 . S
H2122 C2135 0.961 . S
H2123 C2135 0.959 . S
H2124 C2138 0.929 . S
H2125 C2139 0.931 . S
H2126 C2141 0.930 . S
C2127 H2115 0.930 . S
C2127 C2128 1.399 . S
C2127 C2132 1.399 . S
C2128 C2127 1.399 . S
C2128 C2129 1.376 . S
C2129 H2116 0.930 1_545 S
C2129 C2128 1.376 . S
C2129 C2130 1.388 1_545 S
C2130 H2117 0.930 . S
C2130 C2129 1.388 1_565 S
C2130 C2131 1.390 1_565 S
C2131 C2130 1.390 1_545 S
C2131 C2132 1.394 . S
C2131 C2137 1.465 . S
C2132 C2127 1.399 . S
C2132 C2131 1.394 . S
C2132 C2133 1.516 . S
C2133 C2132 1.516 . S
C2133 C2134 1.502 . S
C2133 C2135 1.561 . S
C2133 C2136 1.526 . S
C2134 H2118 0.959 . S
C2134 H2119 0.959 . S
C2134 H2120 0.961 . S
C2134 C2133 1.502 . S
C2135 H2121 0.960 . S
C2135 H2122 0.961 . S
C2135 H2123 0.959 . S
C2135 C2133 1.561 . S
C2136 C2133 1.526 . S
C2136 C2137 1.396 . S
C2136 C2141 1.390 . S
C2137 C2131 1.465 . S
C2137 C2136 1.396 . S
C2137 C2138 1.399 1_545 S
C2138 H2124 0.929 . S
C2138 C2137 1.399 1_565 S
C2138 C2139 1.385 . S
C2139 H2125 0.931 . S
C2139 C2138 1.385 . S
C2139 C2140 1.389 1_565 S
C2140 C2139 1.389 1_545 S
C2140 C2141 1.387 . S
C2141 H2126 0.930 . S
C2141 C2136 1.390 . S
C2141 C2140 1.387 . S
H2142 C2154 0.930 . S
H2143 C2156 0.930 . S
H2144 C2157 0.930 . S
H2145 C2161 0.959 . S
H2146 C2161 0.959 . S
H2147 C2161 0.961 . S
H2148 C2162 0.960 . S
H2149 C2162 0.961 . S
H2150 C2162 0.959 . S
H2151 C2165 0.929 . S
H2152 C2166 0.931 . S
H2153 C2168 0.930 . S
C2154 H2142 0.930 . S
C2154 C2155 1.399 . S
C2154 C2159 1.399 . S
C2155 C2154 1.399 . S
C2155 C2156 1.376 . S
C2156 H2143 0.930 . S
C2156 C2155 1.376 . S
C2156 C2157 1.388 . S
C2157 H2144 0.930 . S
C2157 C2156 1.388 . S
C2157 C2158 1.390 . S
C2158 C2157 1.390 . S
C2158 C2159 1.394 . S
C2158 C2164 1.465 . S
C2159 C2154 1.399 . S
C2159 C2158 1.394 . S
C2159 C2160 1.516 . S
C2160 C2159 1.516 . S
C2160 C2161 1.502 . S
C2160 C2162 1.561 . S
C2160 C2163 1.526 . S
C2161 H2145 0.959 . S
C2161 H2146 0.959 . S
C2161 H2147 0.961 . S
C2161 C2160 1.502 . S
C2162 H2148 0.960 . S
C2162 H2149 0.961 . S
C2162 H2150 0.959 . S
C2162 C2160 1.561 . S
C2163 C2160 1.526 . S
C2163 C2164 1.396 . S
C2163 C2168 1.390 . S
C2164 C2158 1.465 . S
C2164 C2163 1.396 . S
C2164 C2165 1.399 . S
C2165 H2151 0.929 . S
C2165 C2164 1.399 . S
C2165 C2166 1.385 . S
C2166 H2152 0.931 . S
C2166 C2165 1.385 . S
C2166 C2167 1.389 . S
C2167 C2166 1.389 . S
C2167 C2168 1.387 . S
C2168 H2153 0.930 . S
C2168 C2163 1.390 . S
C2168 C2167 1.387 . S
H2169 C2181 0.930 . S
H2170 C2183 0.930 . S
H2171 C2184 0.930 . S
H2172 C2188 0.959 . S
H2173 C2188 0.959 . S
H2174 C2188 0.961 . S
H2175 C2189 0.960 . S
H2176 C2189 0.961 . S
H2177 C2189 0.959 . S
H2178 C2192 0.929 . S
H2179 C2193 0.931 . S
H2180 C2195 0.930 . S
C2181 H2169 0.930 . S
C2181 C2182 1.399 . S
C2181 C2186 1.399 . S
C2182 C2181 1.399 . S
C2182 C2183 1.376 . S
C2183 H2170 0.930 . S
C2183 C2182 1.376 . S
C2183 C2184 1.388 . S
C2184 H2171 0.930 . S
C2184 C2183 1.388 . S
C2184 C2185 1.390 . S
C2185 C2184 1.390 . S
C2185 C2186 1.394 . S
C2185 C2191 1.465 . S
C2186 C2181 1.399 . S
C2186 C2185 1.394 . S
C2186 C2187 1.516 . S
C2187 C2186 1.516 . S
C2187 C2188 1.502 . S
C2187 C2189 1.561 . S
C2187 C2190 1.526 . S
C2188 H2172 0.959 . S
C2188 H2173 0.959 . S
C2188 H2174 0.961 . S
C2188 C2187 1.502 . S
C2189 H2175 0.960 . S
C2189 H2176 0.961 . S
C2189 H2177 0.959 . S
C2189 C2187 1.561 . S
C2190 C2187 1.526 . S
C2190 C2191 1.396 . S
C2190 C2195 1.390 . S
C2191 C2185 1.465 . S
C2191 C2190 1.396 . S
C2191 C2192 1.399 . S
C2192 H2178 0.929 . S
C2192 C2191 1.399 . S
C2192 C2193 1.385 . S
C2193 H2179 0.931 . S
C2193 C2192 1.385 . S
C2193 C2194 1.389 . S
C2194 C2193 1.389 . S
C2194 C2195 1.387 . S
C2195 H2180 0.930 . S
C2195 C2190 1.390 . S
C2195 C2194 1.387 . S
H2196 C2208 0.930 . S
H2197 C2210 0.930 . S
H2198 C2211 0.930 . S
H2199 C2215 0.959 . S
H2200 C2215 0.959 . S
H2201 C2215 0.961 . S
H2202 C2216 0.960 . S
H2203 C2216 0.961 . S
H2204 C2216 0.959 . S
H2205 C2219 0.929 . S
H2206 C2220 0.931 . S
H2207 C2222 0.930 . S
C2208 H2196 0.930 . S
C2208 C2209 1.399 . S
C2208 C2213 1.399 . S
C2209 C2208 1.399 . S
C2209 C2210 1.376 . S
C2210 H2197 0.930 . S
C2210 C2209 1.376 . S
C2210 C2211 1.388 . S
C2211 H2198 0.930 . S
C2211 C2210 1.388 . S
C2211 C2212 1.390 . S
C2212 C2211 1.390 . S
C2212 C2213 1.394 . S
C2212 C2218 1.465 . S
C2213 C2208 1.399 . S
C2213 C2212 1.394 . S
C2213 C2214 1.516 . S
C2214 C2213 1.516 . S
C2214 C2215 1.502 . S
C2214 C2216 1.561 . S
C2214 C2217 1.526 . S
C2215 H2199 0.959 . S
C2215 H2200 0.959 . S
C2215 H2201 0.961 . S
C2215 C2214 1.502 . S
C2216 H2202 0.960 . S
C2216 H2203 0.961 . S
C2216 H2204 0.959 . S
C2216 C2214 1.561 . S
C2217 C2214 1.526 . S
C2217 C2218 1.396 . S
C2217 C2222 1.390 . S
C2218 C2212 1.465 . S
C2218 C2217 1.396 . S
C2218 C2219 1.399 . S
C2219 H2205 0.929 . S
C2219 C2218 1.399 . S
C2219 C2220 1.385 . S
C2220 H2206 0.931 . S
C2220 C2219 1.385 . S
C2220 C2221 1.389 . S
C2221 C2220 1.389 . S
C2221 C2222 1.387 . S
C2222 H2207 0.930 . S
C2222 C2217 1.390 . S
C2222 C2221 1.387 . S
H2223 C2235 0.930 . S
H2224 C2237 0.930 . S
H2225 C2238 0.930 . S
H2226 C2242 0.959 . S
H2227 C2242 0.959 . S
H2228 C2242 0.961 . S
H2229 C2243 0.960 . S
H2230 C2243 0.961 . S
H2231 C2243 0.959 . S
H2232 C2246 0.929 . S
H2233 C2247 0.931 . S
H2234 C2249 0.930 . S
C2235 H2223 0.930 . S
C2235 C2236 1.399 . S
C2235 C2240 1.399 . S
C2236 C2235 1.399 . S
C2236 C2237 1.376 . S
C2237 H2224 0.930 . S
C2237 C2236 1.376 . S
C2237 C2238 1.388 . S
C2238 H2225 0.930 . S
C2238 C2237 1.388 . S
C2238 C2239 1.390 . S
C2239 C2238 1.390 . S
C2239 C2240 1.394 . S
C2239 C2245 1.465 . S
C2240 C2235 1.399 . S
C2240 C2239 1.394 . S
C2240 C2241 1.516 . S
C2241 C2240 1.516 . S
C2241 C2242 1.502 . S
C2241 C2243 1.561 . S
C2241 C2244 1.526 . S
C2242 H2226 0.959 . S
C2242 H2227 0.959 . S
C2242 H2228 0.961 . S
C2242 C2241 1.502 . S
C2243 H2229 0.960 . S
C2243 H2230 0.961 . S
C2243 H2231 0.959 . S
C2243 C2241 1.561 . S
C2244 C2241 1.526 . S
C2244 C2245 1.396 . S
C2244 C2249 1.390 . S
C2245 C2239 1.465 . S
C2245 C2244 1.396 . S
C2245 C2246 1.399 . S
C2246 H2232 0.929 . S
C2246 C2245 1.399 . S
C2246 C2247 1.385 . S
C2247 H2233 0.931 . S
C2247 C2246 1.385 . S
C2247 C2248 1.389 . S
C2248 C2247 1.389 . S
C2248 C2249 1.387 . S
C2249 H2234 0.930 . S
C2249 C2244 1.390 . S
C2249 C2248 1.387 . S
H2250 C2262 0.930 . S
H2251 C2264 0.930 . S
H2252 C2265 0.930 . S
H2253 C2269 0.959 . S
H2254 C2269 0.959 . S
H2255 C2269 0.961 . S
H2256 C2270 0.960 . S
H2257 C2270 0.961 . S
H2258 C2270 0.959 . S
H2259 C2273 0.929 . S
H2260 C2274 0.931 . S
H2261 C2276 0.930 . S
C2262 H2250 0.930 . S
C2262 C2263 1.399 . S
C2262 C2267 1.399 . S
C2263 C2262 1.399 . S
C2263 C2264 1.376 . S
C2264 H2251 0.930 . S
C2264 C2263 1.376 . S
C2264 C2265 1.388 . S
C2265 H2252 0.930 . S
C2265 C2264 1.388 . S
C2265 C2266 1.390 . S
C2266 C2265 1.390 . S
C2266 C2267 1.394 . S
C2266 C2272 1.465 . S
C2267 C2262 1.399 . S
C2267 C2266 1.394 . S
C2267 C2268 1.516 . S
C2268 C2267 1.516 . S
C2268 C2269 1.502 . S
C2268 C2270 1.561 . S
C2268 C2271 1.526 . S
C2269 H2253 0.959 . S
C2269 H2254 0.959 . S
C2269 H2255 0.961 . S
C2269 C2268 1.502 . S
C2270 H2256 0.960 . S
C2270 H2257 0.961 . S
C2270 H2258 0.959 . S
C2270 C2268 1.561 . S
C2271 C2268 1.526 . S
C2271 C2272 1.396 . S
C2271 C2276 1.390 . S
C2272 C2266 1.465 . S
C2272 C2271 1.396 . S
C2272 C2273 1.399 . S
C2273 H2259 0.929 . S
C2273 C2272 1.399 . S
C2273 C2274 1.385 . S
C2274 H2260 0.931 . S
C2274 C2273 1.385 . S
C2274 C2275 1.389 . S
C2275 C2274 1.389 . S
C2275 C2276 1.387 . S
C2276 H2261 0.930 . S
C2276 C2271 1.390 . S
C2276 C2275 1.387 . S
H2277 C2289 0.930 . S
H2278 C2291 0.930 . S
H2279 C2292 0.930 . S
H2280 C2296 0.959 . S
H2281 C2296 0.959 . S
H2282 C2296 0.961 . S
H2283 C2297 0.960 . S
H2284 C2297 0.961 . S
H2285 C2297 0.959 . S
H2286 C2300 0.929 . S
H2287 C2301 0.931 . S
H2288 C2303 0.930 . S
C2289 H2277 0.930 . S
C2289 C2290 1.399 . S
C2289 C2294 1.399 . S
C2290 C2289 1.399 . S
C2290 C2291 1.376 . S
C2291 H2278 0.930 . S
C2291 C2290 1.376 . S
C2291 C2292 1.388 . S
C2292 H2279 0.930 . S
C2292 C2291 1.388 . S
C2292 C2293 1.390 . S
C2293 C2292 1.390 . S
C2293 C2294 1.394 . S
C2293 C2299 1.465 . S
C2294 C2289 1.399 . S
C2294 C2293 1.394 . S
C2294 C2295 1.516 . S
C2295 C2294 1.516 . S
C2295 C2296 1.502 . S
C2295 C2297 1.561 . S
C2295 C2298 1.526 . S
C2296 H2280 0.959 . S
C2296 H2281 0.959 . S
C2296 H2282 0.961 . S
C2296 C2295 1.502 . S
C2297 H2283 0.960 . S
C2297 H2284 0.961 . S
C2297 H2285 0.959 . S
C2297 C2295 1.561 . S
C2298 C2295 1.526 . S
C2298 C2299 1.396 . S
C2298 C2303 1.390 . S
C2299 C2293 1.465 . S
C2299 C2298 1.396 . S
C2299 C2300 1.399 . S
C2300 H2286 0.929 . S
C2300 C2299 1.399 . S
C2300 C2301 1.385 . S
C2301 H2287 0.931 . S
C2301 C2300 1.385 . S
C2301 C2302 1.389 . S
C2302 C2301 1.389 . S
C2302 C2303 1.387 . S
C2303 H2288 0.930 . S
C2303 C2298 1.390 . S
C2303 C2302 1.387 . S
H2304 C2316 0.930 . S
H2305 C2318 0.930 . S
H2306 C2319 0.930 . S
H2307 C2323 0.959 . S
H2308 C2323 0.959 . S
H2309 C2323 0.961 . S
H2310 C2324 0.960 . S
H2311 C2324 0.961 . S
H2312 C2324 0.959 . S
H2313 C2327 0.929 . S
H2314 C2328 0.931 . S
H2315 C2330 0.930 . S
C2316 H2304 0.930 . S
C2316 C2317 1.399 . S
C2316 C2321 1.399 . S
C2317 C2316 1.399 . S
C2317 C2318 1.376 . S
C2318 H2305 0.930 . S
C2318 C2317 1.376 . S
C2318 C2319 1.388 . S
C2319 H2306 0.930 . S
C2319 C2318 1.388 . S
C2319 C2320 1.390 . S
C2320 C2319 1.390 . S
C2320 C2321 1.394 . S
C2320 C2326 1.465 . S
C2321 C2316 1.399 . S
C2321 C2320 1.394 . S
C2321 C2322 1.516 . S
C2322 C2321 1.516 . S
C2322 C2323 1.502 . S
C2322 C2324 1.561 . S
C2322 C2325 1.526 . S
C2323 H2307 0.959 . S
C2323 H2308 0.959 . S
C2323 H2309 0.961 . S
C2323 C2322 1.502 . S
C2324 H2310 0.960 . S
C2324 H2311 0.961 . S
C2324 H2312 0.959 . S
C2324 C2322 1.561 . S
C2325 C2322 1.526 . S
C2325 C2326 1.396 . S
C2325 C2330 1.390 . S
C2326 C2320 1.465 . S
C2326 C2325 1.396 . S
C2326 C2327 1.399 . S
C2327 H2313 0.929 . S
C2327 C2326 1.399 . S
C2327 C2328 1.385 . S
C2328 H2314 0.931 . S
C2328 C2327 1.385 . S
C2328 C2329 1.389 . S
C2329 C2328 1.389 . S
C2329 C2330 1.387 . S
C2330 H2315 0.930 . S
C2330 C2325 1.390 . S
C2330 C2329 1.387 . S
H2331 C2343 0.930 . S
H2332 C2345 0.930 . S
H2333 C2346 0.930 . S
H2334 C2350 0.959 . S
H2335 C2350 0.959 . S
H2336 C2350 0.961 . S
H2337 C2351 0.960 . S
H2338 C2351 0.961 . S
H2339 C2351 0.959 . S
H2340 C2354 0.929 . S
H2341 C2355 0.931 . S
H2342 C2357 0.930 . S
C2343 H2331 0.930 . S
C2343 C2344 1.399 . S
C2343 C2348 1.399 . S
C2344 C2343 1.399 . S
C2344 C2345 1.376 . S
C2345 H2332 0.930 . S
C2345 C2344 1.376 . S
C2345 C2346 1.388 . S
C2346 H2333 0.930 . S
C2346 C2345 1.388 . S
C2346 C2347 1.390 . S
C2347 C2346 1.390 . S
C2347 C2348 1.394 . S
C2347 C2353 1.465 . S
C2348 C2343 1.399 . S
C2348 C2347 1.394 . S
C2348 C2349 1.516 . S
C2349 C2348 1.516 . S
C2349 C2350 1.502 . S
C2349 C2351 1.561 . S
C2349 C2352 1.526 . S
C2350 H2334 0.959 . S
C2350 H2335 0.959 . S
C2350 H2336 0.961 . S
C2350 C2349 1.502 . S
C2351 H2337 0.960 . S
C2351 H2338 0.961 . S
C2351 H2339 0.959 . S
C2351 C2349 1.561 . S
C2352 C2349 1.526 . S
C2352 C2353 1.396 . S
C2352 C2357 1.390 . S
C2353 C2347 1.465 . S
C2353 C2352 1.396 . S
C2353 C2354 1.399 . S
C2354 H2340 0.929 . S
C2354 C2353 1.399 . S
C2354 C2355 1.385 . S
C2355 H2341 0.931 . S
C2355 C2354 1.385 . S
C2355 C2356 1.389 . S
C2356 C2355 1.389 . S
C2356 C2357 1.387 . S
C2357 H2342 0.930 . S
C2357 C2352 1.390 . S
C2357 C2356 1.387 . S
H2358 C2370 0.930 . S
H2359 C2372 0.930 . S
H2360 C2373 0.930 . S
H2361 C2377 0.959 . S
H2362 C2377 0.959 . S
H2363 C2377 0.961 . S
H2364 C2378 0.960 . S
H2365 C2378 0.961 . S
H2366 C2378 0.959 . S
H2367 C2381 0.929 . S
H2368 C2382 0.931 . S
H2369 C2384 0.930 . S
C2370 H2358 0.930 . S
C2370 C2371 1.399 . S
C2370 C2375 1.399 . S
C2371 C2370 1.399 . S
C2371 C2372 1.376 . S
C2372 H2359 0.930 . S
C2372 C2371 1.376 . S
C2372 C2373 1.388 . S
C2373 H2360 0.930 . S
C2373 C2372 1.388 . S
C2373 C2374 1.390 . S
C2374 C2373 1.390 . S
C2374 C2375 1.394 . S
C2374 C2380 1.465 . S
C2375 C2370 1.399 . S
C2375 C2374 1.394 . S
C2375 C2376 1.516 . S
C2376 C2375 1.516 . S
C2376 C2377 1.502 . S
C2376 C2378 1.561 . S
C2376 C2379 1.526 . S
C2377 H2361 0.959 . S
C2377 H2362 0.959 . S
C2377 H2363 0.961 . S
C2377 C2376 1.502 . S
C2378 H2364 0.960 . S
C2378 H2365 0.961 . S
C2378 H2366 0.959 . S
C2378 C2376 1.561 . S
C2379 C2376 1.526 . S
C2379 C2380 1.396 . S
C2379 C2384 1.390 . S
C2380 C2374 1.465 . S
C2380 C2379 1.396 . S
C2380 C2381 1.399 . S
C2381 H2367 0.929 . S
C2381 C2380 1.399 . S
C2381 C2382 1.385 . S
C2382 H2368 0.931 . S
C2382 C2381 1.385 . S
C2382 C2383 1.389 . S
C2383 C2382 1.389 . S
C2383 C2384 1.387 . S
C2384 H2369 0.930 . S
C2384 C2379 1.390 . S
C2384 C2383 1.387 . S
H2385 C2397 0.930 . S
H2386 C2399 0.930 . S
H2387 C2400 0.930 . S
H2388 C2404 0.959 . S
H2389 C2404 0.959 . S
H2390 C2404 0.961 . S
H2391 C2405 0.960 . S
H2392 C2405 0.961 . S
H2393 C2405 0.959 . S
H2394 C2408 0.929 . S
H2395 C2409 0.931 . S
H2396 C2411 0.930 . S
C2397 H2385 0.930 . S
C2397 C2398 1.399 . S
C2397 C2402 1.399 . S
C2398 C2397 1.399 . S
C2398 C2399 1.376 . S
C2399 H2386 0.930 . S
C2399 C2398 1.376 . S
C2399 C2400 1.388 . S
C2400 H2387 0.930 . S
C2400 C2399 1.388 . S
C2400 C2401 1.390 . S
C2401 C2400 1.390 . S
C2401 C2402 1.394 . S
C2401 C2407 1.465 . S
C2402 C2397 1.399 . S
C2402 C2401 1.394 . S
C2402 C2403 1.516 . S
C2403 C2402 1.516 . S
C2403 C2404 1.502 . S
C2403 C2405 1.561 . S
C2403 C2406 1.526 . S
C2404 H2388 0.959 . S
C2404 H2389 0.959 . S
C2404 H2390 0.961 . S
C2404 C2403 1.502 . S
C2405 H2391 0.960 . S
C2405 H2392 0.961 . S
C2405 H2393 0.959 . S
C2405 C2403 1.561 . S
C2406 C2403 1.526 . S
C2406 C2407 1.396 . S
C2406 C2411 1.390 . S
C2407 C2401 1.465 . S
C2407 C2406 1.396 . S
C2407 C2408 1.399 . S
C2408 H2394 0.929 . S
C2408 C2407 1.399 . S
C2408 C2409 1.385 . S
C2409 H2395 0.931 . S
C2409 C2408 1.385 . S
C2409 C2410 1.389 . S
C2410 C2409 1.389 . S
C2410 C2411 1.387 . S
C2411 H2396 0.930 . S
C2411 C2406 1.390 . S
C2411 C2410 1.387 . S
H2412 C2424 0.930 . S
H2413 C2426 0.930 . S
H2414 C2427 0.930 . S
H2415 C2431 0.959 . S
H2416 C2431 0.959 . S
H2417 C2431 0.961 . S
H2418 C2432 0.960 . S
H2419 C2432 0.961 . S
H2420 C2432 0.959 . S
H2421 C2435 0.929 . S
H2422 C2436 0.931 . S
H2423 C2438 0.930 . S
C2424 H2412 0.930 . S
C2424 C2425 1.399 . S
C2424 C2429 1.399 . S
C2425 C2424 1.399 . S
C2425 C2426 1.376 . S
C2426 H2413 0.930 . S
C2426 C2425 1.376 . S
C2426 C2427 1.388 . S
C2427 H2414 0.930 . S
C2427 C2426 1.388 . S
C2427 C2428 1.390 . S
C2428 C2427 1.390 . S
C2428 C2429 1.394 . S
C2428 C2434 1.465 . S
C2429 C2424 1.399 . S
C2429 C2428 1.394 . S
C2429 C2430 1.516 . S
C2430 C2429 1.516 . S
C2430 C2431 1.502 . S
C2430 C2432 1.561 . S
C2430 C2433 1.526 . S
C2431 H2415 0.959 . S
C2431 H2416 0.959 . S
C2431 H2417 0.961 . S
C2431 C2430 1.502 . S
C2432 H2418 0.960 . S
C2432 H2419 0.961 . S
C2432 H2420 0.959 . S
C2432 C2430 1.561 . S
C2433 C2430 1.526 . S
C2433 C2434 1.396 . S
C2433 C2438 1.390 . S
C2434 C2428 1.465 . S
C2434 C2433 1.396 . S
C2434 C2435 1.399 . S
C2435 H2421 0.929 . S
C2435 C2434 1.399 . S
C2435 C2436 1.385 . S
C2436 H2422 0.931 . S
C2436 C2435 1.385 . S
C2436 C2437 1.389 . S
C2437 C2436 1.389 . S
C2437 C2438 1.387 . S
C2438 H2423 0.930 . S
C2438 C2433 1.390 . S
C2438 C2437 1.387 . S
H2439 C2451 0.930 . S
H2440 C2453 0.930 . S
H2441 C2454 0.930 . S
H2442 C2458 0.959 . S
H2443 C2458 0.959 . S
H2444 C2458 0.961 . S
H2445 C2459 0.960 . S
H2446 C2459 0.961 . S
H2447 C2459 0.959 . S
H2448 C2462 0.929 . S
H2449 C2463 0.931 . S
H2450 C2465 0.930 . S
C2451 H2439 0.930 . S
C2451 C2452 1.399 . S
C2451 C2456 1.399 . S
C2452 C2451 1.399 . S
C2452 C2453 1.376 . S
C2453 H2440 0.930 . S
C2453 C2452 1.376 . S
C2453 C2454 1.388 . S
C2454 H2441 0.930 . S
C2454 C2453 1.388 . S
C2454 C2455 1.390 . S
C2455 C2454 1.390 . S
C2455 C2456 1.394 . S
C2455 C2461 1.465 . S
C2456 C2451 1.399 . S
C2456 C2455 1.394 . S
C2456 C2457 1.516 . S
C2457 C2456 1.516 . S
C2457 C2458 1.502 . S
C2457 C2459 1.561 . S
C2457 C2460 1.526 . S
C2458 H2442 0.959 . S
C2458 H2443 0.959 . S
C2458 H2444 0.961 . S
C2458 C2457 1.502 . S
C2459 H2445 0.960 . S
C2459 H2446 0.961 . S
C2459 H2447 0.959 . S
C2459 C2457 1.561 . S
C2460 C2457 1.526 . S
C2460 C2461 1.396 . S
C2460 C2465 1.390 . S
C2461 C2455 1.465 . S
C2461 C2460 1.396 . S
C2461 C2462 1.399 . S
C2462 H2448 0.929 . S
C2462 C2461 1.399 . S
C2462 C2463 1.385 . S
C2463 H2449 0.931 . S
C2463 C2462 1.385 . S
C2463 C2464 1.389 . S
C2464 C2463 1.389 . S
C2464 C2465 1.387 . S
C2465 H2450 0.930 . S
C2465 C2460 1.390 . S
C2465 C2464 1.387 . S
C1021 C469 1.665 . S
C1033 C657 1.635 . S
C1048 C505 1.789 . S
C1060 C697 1.721 . S
C1075 C433 1.777 . S
C1087 C736 1.729 . S
C1102 C397 1.578 . S
C1114 C696 1.527 . S
C1141 C737 1.461 . S
C1129 C325 1.474 . S
C1156 C361 1.412 . S
C1168 C656 1.452 . S
C1195 C667 1.607 . S
C1183 C421 1.696 . S
C1222 C707 1.771 . S
C1210 C349 1.773 . S
C1237 C385 1.770 . S
C1249 C746 1.719 . S
C1264 C493 1.555 . S
C1276 C706 1.590 . S
C1291 C529 1.485 . S
C1303 C747 1.418 . S
C1330 C666 1.421 . S
C1318 C457 1.472 . S
C1357 C777 1.667 . S
C1345 C37 1.651 . S
C1372 C73 1.774 . S
C1384 C817 1.750 . S
C1399 C1 1.747 . S
C1411 C856 1.709 . S
C1426 C613 1.581 . S
C1438 C816 1.527 . S
C1453 C541 1.475 . S
C1465 C857 1.461 . S
C1480 C577 1.415 . S
C1492 C776 1.427 . S
C1507 C637 1.688 . S
C1519 C787 1.644 . S
C1534 C565 1.786 . S
C1546 C827 1.719 . S
C1573 C866 1.715 . S
C1561 C601 1.772 . S
C1588 C61 1.559 . S
C1600 C826 1.574 . S
C1627 C867 1.422 . S
C1615 C97 1.481 . S
C1642 C25 1.468 . S
C1654 C786 1.419 . S
C1681 C897 1.623 . S
C1669 C253 1.693 . S
C1696 C289 1.785 . S
C1708 C937 1.751 . S
C1735 C976 1.708 . S
C1723 C217 1.749 . S
C1762 C936 1.590 . S
C1750 C181 1.585 . S
C1789 C977 1.420 . S
C1777 C109 1.467 . S
C1804 C145 1.417 . S
C1816 C896 1.425 . S
C1831 C205 1.698 . S
C1843 C907 1.607 . S
C1858 C133 1.766 . S
C1870 C947 1.767 . S
C1897 C986 1.716 . S
C1885 C169 1.772 . S
C1912 C277 1.601 . S
C1924 C946 1.539 . S
C1939 C313 1.486 . S
C1951 C987 1.414 . S
C1966 C241 1.471 . S
C1978 C906 1.420 . S
C1993 C571 1.337 . S
C2005 C653 1.310 . S
C2032 C693 1.846 . S
C2020 C607 1.857 . S
C2047 C643 1.579 . S
C2059 C743 1.574 . S
C2074 C247 1.839 . S
C2086 C703 1.861 . S
C2101 C283 1.575 . S
C2113 C733 1.578 . S
C2140 C663 1.330 . S
C2128 C319 1.323 . S
C2155 C139 1.337 . S
C2167 C773 1.311 . S
C2182 C175 1.845 . S
C2194 C813 1.860 . S
C2209 C211 1.561 . S
C2221 C863 1.577 . S
C2236 C463 1.862 . S
C2248 C823 1.850 . S
C2275 C853 1.578 . S
C2263 C499 1.575 . S
C2290 C535 1.323 . S
C2302 C783 1.332 . S
C2317 C355 1.337 . S
C2329 C893 1.310 . S
C2344 C391 1.858 . S
C2356 C933 1.844 . S
C2383 C983 1.578 . S
C2371 C427 1.562 . S
C2398 C31 1.838 . S
C2410 C943 1.856 . S
C2425 C67 1.574 . S
C2437 C973 1.576 . S
C2452 C103 1.323 . S
C2464 C903 1.328 . S
