# Generated by pormake.
# Topology tsx, (6,3)-cn, num edge types: 1
# Building blocks:
#     Node 0, Type 0, BuildingBlock: JUFBIX_clean_sbu_0, # of connection points: 6
#     Node 1, Type 0, BuildingBlock: JUFBIX_clean_sbu_0, # of connection points: 6
#     Node 2, Type 1, BuildingBlock: ESEHIV_clean_linker_0, # of connection points: 3
#     Node 3, Type 1, BuildingBlock: ESEHIV_clean_linker_0, # of connection points: 3
#     Node 4, Type 1, BuildingBlock: ESEHIV_clean_linker_0, # of connection points: 3
#     Node 5, Type 1, BuildingBlock: ESEHIV_clean_linker_0, # of connection points: 3
#     Edge 6, Type (0, 1), BuildingBlock: CIFDUS_clean_linker_0, # of connection points: 2
#     Edge 7, Type (0, 1), BuildingBlock: CIFDUS_clean_linker_0, # of connection points: 2
#     Edge 8, Type (0, 1), BuildingBlock: CIFDUS_clean_linker_0, # of connection points: 2
#     Edge 9, Type (0, 1), BuildingBlock: CIFDUS_clean_linker_0, # of connection points: 2
#     Edge 10, Type (0, 1), BuildingBlock: CIFDUS_clean_linker_0, # of connection points: 2
#     Edge 11, Type (0, 1), BuildingBlock: CIFDUS_clean_linker_0, # of connection points: 2
#     Edge 12, Type (0, 1), BuildingBlock: CIFDUS_clean_linker_0, # of connection points: 2
#     Edge 13, Type (0, 1), BuildingBlock: CIFDUS_clean_linker_0, # of connection points: 2
#     Edge 14, Type (0, 1), BuildingBlock: CIFDUS_clean_linker_0, # of connection points: 2
#     Edge 15, Type (0, 1), BuildingBlock: CIFDUS_clean_linker_0, # of connection points: 2
#     Edge 16, Type (0, 1), BuildingBlock: CIFDUS_clean_linker_0, # of connection points: 2
#     Edge 17, Type (0, 1), BuildingBlock: CIFDUS_clean_linker_0, # of connection points: 2
# Relax obj value: 0.161
# Max RMSD: 0.171
# Mean RMSD: 0.140
data_MOF--net-tsx--node1-JUFBIX_clean_sbu_0--node2-ESEHIV_clean_linker_0--edge1-CIFDUS_clean_linker_0
_symmetry_space_group_name_H-M    P1
_symmetry_Int_Tables_number       1
_symmetry_cell_setting            triclinic
loop_
_symmetry_equiv_pos_as_xyz
'x, y, z'
_cell_length_a     16.193491
_cell_length_b     19.093193
_cell_length_c     30.208145
_cell_angle_alpha  91.658402
_cell_angle_beta   89.146509
_cell_angle_gamma 102.00737
loop_
_atom_site_label
_atom_site_type_symbol
_atom_site_fract_x
_atom_site_fract_y
_atom_site_fract_z
_atom_type_partial_charge
Co0 Co 0.09126 1.004 -0.00467 0.0
C1 C 0.03378 0.05108 0.91767 0.0
Co2 Co 0.99239 0.0681 0.00509 0.0
C3 C 0.16661 0.8785 -0.01341 0.0
C4 C 0.25635 0.97547 0.97468 0.0
N5 N 0.17434 0.95036 -0.01478 0.0
N6 N 0.24024 0.85826 0.97758 0.0
C7 C 0.29691 0.91915 0.97019 0.0
H8 H 0.10823 0.84136 -0.00604 0.0
H9 H 0.2852 0.03104 0.96967 0.0
C10 C 0.05042 0.01848 0.08235 0.0
N11 N 0.91128 0.1231 0.01591 0.0
C12 C 0.84943 0.13552 -0.01055 0.0
C13 C 0.9077 0.16522 0.05224 0.0
N14 N 0.80826 0.18419 0.00777 0.0
C15 C 0.84462 0.20243 0.04742 0.0
C16 C 0.92685 0.92254 -0.00394 0.0
O17 O 0.09606 0.98922 0.05634 0.0
O18 O 1.00253 0.05657 0.06687 0.0
O19 O 0.90711 0.98307 0.0029 0.0
O20 O 1.00411 0.91983 -0.0099 0.0
O21 O 0.9846 0.07802 0.94307 0.0
H22 H 0.95017 0.17064 0.08 0.0
H23 H 0.83742 0.1119 0.95657 0.0
O24 O 0.08572 0.01774 0.93417 0.0
O25 O 0.1763 0.09059 0.00138 0.0
O26 O 0.07718 0.1527 0.00765 0.0
C27 C 0.15505 0.15091 0.00581 0.0
H28 H 0.36223 0.92246 0.96052 0.0
H29 H 0.82804 0.2411 0.07101 0.0
Co30 Co 0.57936 0.50917 0.49993 0.0
C31 C 0.52393 0.55216 0.42077 0.0
Co32 Co 0.47777 0.5703 0.5083 0.0
C33 C 0.65792 0.38966 0.47598 0.0
C34 C 0.74177 0.47502 0.50993 0.0
N35 N 0.66314 0.45644 0.49332 0.0
N36 N 0.7299 0.36569 0.48148 0.0
C37 C 0.78294 0.41981 0.50249 0.0
H38 H 0.60131 0.35828 0.46109 0.0
H39 H 0.76704 0.5247 0.52764 0.0
C40 C 0.53379 0.52423 0.58717 0.0
N41 N 0.39561 0.6249 0.51743 0.0
C42 C 0.33876 0.64136 0.48921 0.0
C43 C 0.38687 0.66319 0.55486 0.0
N44 N 0.29581 0.68873 0.50761 0.0
C45 C 0.32569 0.70192 0.54903 0.0
C46 C 0.41601 0.42534 0.49957 0.0
O47 O 0.58571 0.50104 0.56187 0.0
O48 O 0.48076 0.55621 0.57055 0.0
O49 O 0.39367 0.4853 0.50329 0.0
O50 O 0.49417 0.42388 0.49758 0.0
O51 O 0.47638 0.58192 0.44572 0.0
H52 H 0.42473 0.66532 0.58422 0.0
H53 H 0.33186 0.6218 0.4552 0.0
O54 O 0.5731 0.51677 0.438 0.0
O55 O 0.66249 0.59562 0.50243 0.0
O56 O 0.56227 0.65553 0.51355 0.0
C57 C 0.64025 0.65499 0.50918 0.0
H58 H 0.84697 0.41973 0.51216 0.0
H59 H 0.3062 0.73837 0.57318 0.0
H60 H 0.90592 0.07614 0.35103 0.0
H61 H 0.07453 0.9291 0.34823 0.0
H62 H 0.96227 0.98192 0.47098 0.0
C63 C 0.9372 0.03974 0.36786 0.0
C64 C 0.92847 0.03424 0.41389 0.0
C65 C 0.99019 1.00276 0.34372 0.0
C66 C 0.03092 0.95604 0.36598 0.0
C67 C 0.02088 0.94815 0.41189 0.0
C68 C 0.96924 0.98711 0.43558 0.0
H69 H 0.99007 0.91793 0.64619 0.0
H70 H 0.11833 0.13902 0.65288 0.0
H71 H 0.04242 0.03733 0.52721 0.0
C72 C 1.01776 0.96715 0.62971 0.0
C73 C 1.01155 0.97061 0.5837 0.0
C74 C 0.05534 0.02794 0.65479 0.0
C75 C 0.0881 0.09217 0.63355 0.0
C76 C 0.08497 0.0954 0.58733 0.0
C77 C 0.04623 0.03455 0.56258 0.0
H78 H 0.38157 0.54594 0.85325 0.0
H79 H 0.53109 0.38407 0.84815 0.0
H80 H 0.47595 0.47921 0.97295 0.0
C81 C 0.41367 0.51001 0.87007 0.0
C82 C 0.42274 0.51686 0.9161 0.0
C83 C 0.45229 0.46225 0.84518 0.0
C84 C 0.49911 0.4196 0.86719 0.0
C85 C 0.50853 0.42566 0.91346 0.0
C86 C 0.46901 0.4738 0.93753 0.0
H87 H 0.49186 0.42055 0.14822 0.0
H88 H 0.62088 0.64136 0.15528 0.0
H89 H 0.55175 0.53872 0.02884 0.0
C90 C 0.52043 0.4696 0.1318 0.0
C91 C 0.51712 0.47229 0.08557 0.0
C92 C 0.55673 0.53059 0.15715 0.0
C93 C 0.59131 0.59447 0.13581 0.0
C94 C 0.59132 0.59718 0.08937 0.0
C95 C 0.55335 0.53608 0.06442 0.0
H96 H 0.32431 0.16735 0.02118 0.0
H97 H 0.12946 0.2869 0.00165 0.0
H98 H 0.22908 0.39862 0.01819 0.0
H99 H 0.36639 0.46127 0.04706 0.0
H100 H 0.55921 0.34261 0.0712 0.0
H101 H 0.46685 0.23214 0.04321 0.0
C102 C 0.30402 0.21792 0.01996 0.0
C103 C 0.21913 0.2185 0.01083 0.0
C104 C 0.3614 0.28226 0.03047 0.0
C105 C 0.19402 0.28464 0.00921 0.0
C106 C 0.25099 0.34872 0.01863 0.0
C107 C 0.38847 0.41134 0.04517 0.0
C108 C 0.46911 0.40957 0.06075 0.0
C109 C 0.33402 0.348 0.03059 0.0
C110 C 0.49727 0.3448 0.05898 0.0
C111 C 0.44431 0.28176 0.04329 0.0
H112 H 0.37899 0.81168 -0.0002 0.0
H113 H 0.13273 0.74414 0.9419 0.0
H114 H 0.16389 0.62713 0.92217 0.0
H115 H 0.2676 0.54971 0.91378 0.0
H116 H 0.51435 0.61787 0.97131 0.0
H117 H 0.47637 0.72816 -0.00031 0.0
C118 C 0.33205 0.7709 -0.01672 0.0
C119 C 0.25423 0.78659 0.97174 0.0
C120 C 0.35059 0.70398 0.972 0.0
C121 C 0.19302 0.73312 0.95113 0.0
C122 C 0.21103 0.66645 0.93962 0.0
C123 C 0.31232 0.5883 0.9332 0.0
C124 C 0.39364 0.57602 0.94028 0.0
C125 C 0.29046 0.65207 0.94878 0.0
C126 C 0.45105 0.62587 0.96582 0.0
C127 C 0.42969 0.68931 0.98162 0.0
H128 H 0.77259 0.90709 0.03545 0.0
H129 H 0.93798 0.78707 0.96865 0.0
H130 H 0.84171 0.67483 -0.0131 0.0
H131 H 0.71891 0.61078 0.02924 0.0
H132 H 0.5612 0.73135 0.10139 0.0
H133 H 0.64513 0.8433 0.07331 0.0
C134 C 0.78678 0.85644 0.02409 0.0
C135 C 0.86249 0.8555 0.0008 0.0
C136 C 0.73271 0.79213 0.03607 0.0
C137 C 0.88027 0.78931 -0.01326 0.0
C138 C 0.82536 0.72507 -0.00271 0.0
C139 C 0.70227 0.66163 0.03803 0.0
C140 C 0.63446 0.66328 0.06736 0.0
C141 C 0.75267 0.7258 0.02303 0.0
C142 C 0.6136 0.7292 0.07902 0.0
C143 C 0.66159 0.79305 0.06304 0.0
H144 H 0.78565 0.31852 0.02189 0.0
H145 H 0.69031 0.12297 0.94759 0.0
H146 H 0.58619 0.17947 0.91239 0.0
H147 H 0.52384 0.28591 0.90219 0.0
H148 H 0.62652 0.48187 0.97482 0.0
H149 H 0.72421 0.4231 0.0123 0.0
C150 C 0.74139 0.28775 -0.00149 0.0
C151 C 0.74555 0.21645 -0.01242 0.0
C152 C 0.68252 0.32064 0.97832 0.0
C153 C 0.68886 0.17808 0.95633 0.0
C154 C 0.62915 0.2103 0.93636 0.0
C155 C 0.56775 0.3156 0.92617 0.0
C156 C 0.56668 0.3879 0.93625 0.0
C157 C 0.62576 0.2818 0.94689 0.0
C158 C 0.62403 0.42568 0.96743 0.0
C159 C 0.68078 0.39234 -0.0115 0.0
H160 H 0.81011 0.67019 0.51862 0.0
H161 H 0.61373 0.79137 0.51039 0.0
H162 H 0.71608 0.90219 0.52595 0.0
H163 H 0.85742 0.96279 0.55057 0.0
H164 H 0.05106 0.84124 0.56477 0.0
H165 H 0.95478 0.73262 0.53716 0.0
C166 C 0.78992 0.72093 0.51967 0.0
C167 C 0.70419 0.72238 0.51394 0.0
C168 C 0.84877 0.78435 0.52969 0.0
C169 C 0.67912 0.78863 0.51526 0.0
C170 C 0.7376 0.85208 0.52409 0.0
C171 C 0.87863 0.91264 0.54659 0.0
C172 C 0.96063 0.90933 0.5592 0.0
C173 C 0.82196 0.85031 0.5326 0.0
C174 C 0.988 0.84445 0.55478 0.0
C175 C 0.93286 0.78252 0.53936 0.0
H176 H 0.84582 0.30104 0.51677 0.0
H177 H 0.65049 0.27263 0.41817 0.0
H178 H 0.68549 0.15938 0.3937 0.0
H179 H 0.7813 0.07502 0.39509 0.0
H180 H 0.988 0.11408 0.487 0.0
H181 H 0.93749 0.21501 0.52016 0.0
C182 C 0.81104 0.27058 0.48974 0.0
C183 C 0.74647 0.29636 0.46893 0.0
C184 C 0.83303 0.2066 0.47498 0.0
C185 C 0.70044 0.25444 0.43491 0.0
C186 C 0.72067 0.18967 0.42072 0.0
C187 C 0.81456 0.10514 0.42277 0.0
C188 C 0.88772 0.08612 0.439 0.0
C189 C 0.78817 0.16614 0.43982 0.0
C190 C 0.92988 0.12548 0.475 0.0
C191 C 0.902 0.1844 0.49334 0.0
H192 H 0.25918 0.40715 0.53569 0.0
H193 H 0.43248 0.29167 0.47191 0.0
H194 H 0.33736 0.17787 0.48803 0.0
H195 H 0.21386 0.11147 0.5285 0.0
H196 H 0.0485 0.22735 0.59842 0.0
H197 H 0.13053 0.34078 0.57125 0.0
C198 C 0.27524 0.35711 0.52449 0.0
C199 C 0.35279 0.3577 0.50281 0.0
C200 C 0.22187 0.29198 0.53537 0.0
C201 C 0.37327 0.29248 0.48889 0.0
C202 C 0.31904 0.22744 0.49818 0.0
C203 C 0.19511 0.16162 0.53687 0.0
C204 C 0.12583 0.16176 0.56531 0.0
C205 C 0.24452 0.22654 0.52261 0.0
C206 C 0.10207 0.22661 0.57662 0.0
C207 C 0.14899 0.29123 0.56121 0.0
H208 H 0.27605 0.82291 0.52512 0.0
H209 H 0.18597 0.63628 0.44185 0.0
H210 H 0.08914 0.69916 0.40547 0.0
H211 H 0.03218 0.80894 0.39677 0.0
H212 H 0.13028 0.99604 0.47798 0.0
H213 H 0.22006 0.93071 0.51693 0.0
C214 C 0.23441 0.79544 0.4995 0.0
C215 C 0.23781 0.7248 0.48642 0.0
C216 C 0.17978 0.83196 0.47874 0.0
C217 C 0.18489 0.69079 0.45229 0.0
C218 C 0.12934 0.72662 0.43167 0.0
C219 C 0.07295 0.83488 0.42322 0.0
C220 C 0.07274 0.90639 0.4357 0.0
C221 C 0.12658 0.79742 0.44448 0.0
C222 C 0.12662 0.94012 0.46941 0.0
C223 C 0.17901 0.90313 0.49108 0.0
H224 H 0.03645 0.11272 0.14833 0.0
H225 H 0.06138 0.89499 0.12209 0.0
H226 H 0.04532 0.87012 0.20125 0.0
H227 H 1.01577 0.90921 0.27708 0.0
H228 H 1.00692 0.1314 0.30318 0.0
H229 H 0.02373 0.1552 0.22477 0.0
C230 C 0.03892 0.06005 0.16015 0.0
C231 C 0.04925 1.00555 0.12991 0.0
C232 C 0.03138 0.04671 0.20546 0.0
C233 C 0.05366 0.9377 0.14519 0.0
C234 C 0.04407 0.92343 0.19027 0.0
C235 C 0.01881 0.96309 0.2658 0.0
C236 C 1.0073 0.01769 0.29608 0.0
C237 C 0.03182 0.97739 0.22065 0.0
C238 C 1.01179 0.08732 0.28061 0.0
C239 C 0.02249 0.10143 0.23574 0.0
H240 H 0.09582 0.97046 0.85611 0.0
H241 H 0.96388 0.14439 0.87089 0.0
H242 H 0.96133 0.15416 0.79028 0.0
H243 H 0.99649 0.11242 0.71565 0.0
H244 H 0.12194 0.93465 0.70174 0.0
H245 H 0.12749 0.9271 0.78233 0.0
C246 C 0.06673 1.01071 0.84173 0.0
C247 C 0.03059 0.05697 0.86927 0.0
C248 C 0.06445 0.01522 0.79567 0.0
C249 C 0.99209 0.10819 0.85024 0.0
C250 C 0.99079 0.11387 0.80425 0.0
C251 C 0.02536 0.07243 0.7305 0.0
C252 C 0.05923 0.02437 0.70329 0.0
C253 C 0.02685 0.06767 0.77669 0.0
C254 C 0.09546 0.97196 0.7224 0.0
C255 C 0.09869 0.96775 0.76829 0.0
H256 H 0.3999 0.51237 0.64312 0.0
H257 H 0.66371 0.50301 0.63779 0.0
H258 H 0.66061 0.47803 0.71685 0.0
H259 H 0.58403 0.46368 0.78794 0.0
H260 H 0.3184 0.46723 0.7923 0.0
H261 H 0.32093 0.4891 0.71301 0.0
C262 C 0.45675 0.50521 0.65939 0.0
C263 C 0.53219 0.5105 0.63497 0.0
C264 C 0.45402 0.48933 0.70451 0.0
C265 C 0.60501 0.4996 0.65609 0.0
C266 C 0.60322 0.48516 0.7012 0.0
C267 C 0.52624 0.46756 0.77138 0.0
C268 C 0.45123 0.46417 0.79608 0.0
C269 C 0.52811 0.48012 0.72577 0.0
C270 C 0.3772 0.47045 0.77414 0.0
C271 C 0.37858 0.48305 0.72883 0.0
H272 H 0.58611 0.4703 0.35951 0.0
H273 H 0.45872 0.64722 0.37284 0.0
H274 H 0.4603 0.65798 0.29224 0.0
H275 H 0.49783 0.61642 0.21777 0.0
H276 H 0.61881 0.43582 0.20527 0.0
H277 H 0.62016 0.42721 0.28587 0.0
C278 C 0.55882 0.51137 0.34484 0.0
C279 C 0.52277 0.55815 0.37211 0.0
C280 C 0.55897 0.51658 0.29865 0.0
C281 C 0.48678 0.6105 0.35254 0.0
C282 C 0.48786 0.61679 0.30649 0.0
C283 C 0.52485 0.57558 0.23291 0.0
C284 C 0.55857 0.527 0.20593 0.0
C285 C 0.5239 0.57016 0.27922 0.0
C286 C 0.5924 0.47358 0.22558 0.0
C287 C 0.59323 0.46872 0.27155 0.0
loop_
_geom_bond_atom_site_label_1
_geom_bond_atom_site_label_2
_geom_bond_distance
_geom_bond_site_symmetry_2
_ccdc_geom_bond_type
Co0 N5 2.057 . S
Co0 O17 2.021 . S
Co0 O20 2.062 1_455 S
Co0 O24 2.117 1_554 S
Co0 O25 2.020 1_565 S
C1 O21 1.251 1_455 S
C1 O24 1.265 1_545 S
Co2 N11 2.057 . S
Co2 O18 2.117 . S
Co2 O19 2.020 1_545 S
Co2 O21 2.021 1_554 S
Co2 O26 2.062 1_655 S
C3 N5 1.316 . S
C3 N6 1.347 . S
C3 H8 0.931 . S
C4 N5 1.375 1_556 S
C4 C7 1.350 . S
C4 H9 0.930 . S
N5 Co0 2.057 . S
N5 C3 1.316 . S
N5 C4 1.375 1_554 S
N6 C3 1.347 . S
N6 C7 1.373 1_554 S
C7 C4 1.350 . S
C7 N6 1.373 1_556 S
C7 H28 0.931 . S
H8 C3 0.931 . S
H9 C4 0.930 . S
C10 O17 1.259 1_545 S
C10 O18 1.258 1_455 S
N11 Co2 2.057 . S
N11 C12 1.316 . S
N11 C13 1.375 . S
C12 N11 1.316 . S
C12 N14 1.347 . S
C12 H23 0.931 1_554 S
C13 N11 1.375 . S
C13 C15 1.350 . S
C13 H22 0.930 . S
N14 C12 1.347 . S
N14 C15 1.373 . S
C15 C13 1.350 . S
C15 N14 1.373 . S
C15 H29 0.931 . S
C16 O19 1.256 . S
C16 O20 1.255 . S
O17 Co0 2.021 . S
O17 C10 1.259 1_565 S
O18 Co2 2.117 . S
O18 C10 1.258 1_655 S
O19 Co2 2.020 1_565 S
O19 C16 1.256 . S
O20 Co0 2.062 1_655 S
O20 C16 1.255 . S
O21 C1 1.251 1_655 S
O21 Co2 2.021 1_556 S
H22 C13 0.930 . S
H23 C12 0.931 1_556 S
O24 Co0 2.117 1_556 S
O24 C1 1.265 1_565 S
O25 Co0 2.020 1_545 S
O25 C27 1.256 . S
O26 Co2 2.062 1_455 S
O26 C27 1.255 . S
C27 O25 1.256 . S
C27 O26 1.255 . S
H28 C7 0.931 . S
H29 C15 0.931 . S
Co30 N35 2.057 . S
Co30 O47 2.021 . S
Co30 O50 2.062 . S
Co30 O54 2.117 . S
Co30 O55 2.020 . S
C31 O51 1.259 . S
C31 O54 1.258 . S
Co32 N41 2.057 . S
Co32 O48 2.117 . S
Co32 O49 2.020 . S
Co32 O51 2.021 . S
Co32 O56 2.062 . S
C33 N35 1.316 . S
C33 N36 1.347 . S
C33 H38 0.931 . S
C34 N35 1.375 . S
C34 C37 1.350 . S
C34 H39 0.930 . S
N35 Co30 2.057 . S
N35 C33 1.316 . S
N35 C34 1.375 . S
N36 C33 1.347 . S
N36 C37 1.373 . S
C37 C34 1.350 . S
C37 N36 1.373 . S
C37 H58 0.931 . S
H38 C33 0.931 . S
H39 C34 0.930 . S
C40 O47 1.259 . S
C40 O48 1.258 . S
N41 Co32 2.057 . S
N41 C42 1.316 . S
N41 C43 1.375 . S
C42 N41 1.316 . S
C42 N44 1.347 . S
C42 H53 0.931 . S
C43 N41 1.375 . S
C43 C45 1.350 . S
C43 H52 0.930 . S
N44 C42 1.347 . S
N44 C45 1.373 . S
C45 C43 1.350 . S
C45 N44 1.373 . S
C45 H59 0.931 . S
C46 O49 1.256 . S
C46 O50 1.255 . S
O47 Co30 2.021 . S
O47 C40 1.259 . S
O48 Co32 2.117 . S
O48 C40 1.258 . S
O49 Co32 2.020 . S
O49 C46 1.256 . S
O50 Co30 2.062 . S
O50 C46 1.255 . S
O51 C31 1.259 . S
O51 Co32 2.021 . S
H52 C43 0.930 . S
H53 C42 0.931 . S
O54 Co30 2.117 . S
O54 C31 1.258 . S
O55 Co30 2.020 . S
O55 C57 1.256 . S
O56 Co32 2.062 . S
O56 C57 1.255 . S
C57 O55 1.256 . S
C57 O56 1.255 . S
H58 C37 0.931 . S
H59 C45 0.931 . S
H60 C63 0.931 . S
H61 C66 0.928 . S
H62 C68 0.931 . S
C63 H60 0.931 . S
C63 C64 1.413 . S
C63 C65 1.357 1_545 S
C64 C63 1.413 . S
C64 C68 1.420 1_655 S
C65 C63 1.357 1_565 S
C65 C66 1.375 1_655 S
C66 H61 0.928 . S
C66 C65 1.375 1_455 S
C66 C67 1.404 . S
C67 C66 1.404 . S
C67 C68 1.399 1_565 S
C68 H62 0.931 . S
C68 C64 1.420 1_455 S
C68 C67 1.399 1_545 S
H69 C72 0.931 . S
H70 C75 0.928 . S
H71 C77 0.930 . S
C72 H69 0.931 . S
C72 C73 1.413 . S
C72 C74 1.360 1_665 S
C73 C72 1.413 . S
C73 C77 1.429 1_665 S
C74 C72 1.360 1_445 S
C74 C75 1.372 . S
C75 H70 0.928 . S
C75 C74 1.372 . S
C75 C76 1.404 . S
C76 C75 1.404 . S
C76 C77 1.391 . S
C77 H71 0.930 . S
C77 C73 1.429 1_445 S
C77 C76 1.391 . S
H78 C81 0.931 . S
H79 C84 0.928 . S
H80 C86 0.930 1_554 S
C81 H78 0.931 . S
C81 C82 1.413 . S
C81 C83 1.360 . S
C82 C81 1.413 . S
C82 C86 1.429 . S
C83 C81 1.360 . S
C83 C84 1.372 . S
C84 H79 0.928 . S
C84 C83 1.372 . S
C84 C85 1.404 . S
C85 C84 1.404 . S
C85 C86 1.391 . S
C86 H80 0.930 1_556 S
C86 C82 1.429 . S
C86 C85 1.391 . S
H87 C90 0.931 . S
H88 C93 0.928 . S
H89 C95 0.930 . S
C90 H87 0.931 . S
C90 C91 1.413 . S
C90 C92 1.360 . S
C91 C90 1.413 . S
C91 C95 1.429 . S
C92 C90 1.360 . S
C92 C93 1.372 . S
C93 H88 0.928 . S
C93 C92 1.372 . S
C93 C94 1.404 . S
C94 C93 1.404 . S
C94 C95 1.391 . S
C95 H89 0.930 . S
C95 C91 1.429 . S
C95 C94 1.391 . S
H96 C102 0.930 . S
H97 C105 0.930 . S
H98 C106 0.930 . S
H99 C107 0.930 . S
H100 C110 0.930 . S
H101 C111 0.930 . S
C102 H96 0.930 . S
C102 C103 1.355 . S
C102 C104 1.415 . S
C103 C102 1.355 . S
C103 C105 1.419 . S
C104 C102 1.415 . S
C104 C109 1.425 . S
C104 C111 1.409 . S
C105 H97 0.930 . S
C105 C103 1.419 . S
C105 C106 1.362 . S
C106 H98 0.930 . S
C106 C105 1.362 . S
C106 C109 1.409 . S
C107 H99 0.930 . S
C107 C108 1.355 . S
C107 C109 1.415 . S
C108 C107 1.355 . S
C108 C110 1.419 . S
C109 C104 1.425 . S
C109 C106 1.409 . S
C109 C107 1.415 . S
C110 H100 0.930 . S
C110 C108 1.419 . S
C110 C111 1.362 . S
C111 H101 0.930 . S
C111 C104 1.409 . S
C111 C110 1.362 . S
H112 C118 0.930 . S
H113 C121 0.930 . S
H114 C122 0.930 . S
H115 C123 0.930 . S
H116 C126 0.935 . S
H117 C127 0.930 . S
C118 H112 0.930 . S
C118 C119 1.355 . S
C118 C120 1.415 . S
C119 C118 1.355 . S
C119 C121 1.419 1_554 S
C120 C118 1.415 . S
C120 C125 1.425 1_554 S
C120 C127 1.409 . S
C121 H113 0.930 . S
C121 C119 1.419 1_556 S
C121 C122 1.362 . S
C122 H114 0.930 . S
C122 C121 1.362 . S
C122 C125 1.409 . S
C123 H115 0.930 . S
C123 C124 1.355 . S
C123 C125 1.415 . S
C124 C123 1.355 . S
C124 C126 1.408 1_556 S
C125 C120 1.425 1_556 S
C125 C122 1.409 . S
C125 C123 1.415 . S
C126 H116 0.935 . S
C126 C124 1.408 1_554 S
C126 C127 1.369 . S
C127 H117 0.930 . S
C127 C120 1.409 . S
C127 C126 1.369 . S
H128 C134 0.930 . S
H129 C137 0.930 . S
H130 C138 0.930 . S
H131 C139 0.930 . S
H132 C142 0.930 . S
H133 C143 0.930 . S
C134 H128 0.930 . S
C134 C135 1.355 . S
C134 C136 1.415 . S
C135 C134 1.355 . S
C135 C137 1.419 1_554 S
C136 C134 1.415 . S
C136 C141 1.425 . S
C136 C143 1.409 . S
C137 H129 0.930 . S
C137 C135 1.419 1_556 S
C137 C138 1.362 . S
C138 H130 0.930 . S
C138 C137 1.362 . S
C138 C141 1.409 1_556 S
C139 H131 0.930 . S
C139 C140 1.355 . S
C139 C141 1.415 . S
C140 C139 1.355 . S
C140 C142 1.419 . S
C141 C136 1.425 . S
C141 C138 1.409 1_554 S
C141 C139 1.415 . S
C142 H132 0.930 . S
C142 C140 1.419 . S
C142 C143 1.362 . S
C143 H133 0.930 . S
C143 C136 1.409 . S
C143 C142 1.362 . S
H144 C150 0.930 . S
H145 C153 0.931 . S
H146 C154 0.930 . S
H147 C155 0.930 . S
H148 C158 0.930 . S
H149 C159 0.930 . S
C150 H144 0.930 . S
C150 C151 1.355 . S
C150 C152 1.415 1_554 S
C151 C150 1.355 . S
C151 C153 1.422 . S
C152 C150 1.415 1_556 S
C152 C157 1.425 . S
C152 C159 1.409 . S
C153 H145 0.931 . S
C153 C151 1.422 . S
C153 C154 1.359 1_554 S
C154 H146 0.930 . S
C154 C153 1.359 1_556 S
C154 C157 1.409 . S
C155 H147 0.930 . S
C155 C156 1.355 . S
C155 C157 1.415 . S
C156 C155 1.355 . S
C156 C158 1.419 . S
C157 C152 1.425 . S
C157 C154 1.409 . S
C157 C155 1.415 . S
C158 H148 0.930 . S
C158 C156 1.419 . S
C158 C159 1.362 . S
C159 H149 0.930 . S
C159 C152 1.409 . S
C159 C158 1.362 . S
H160 C166 0.930 . S
H161 C169 0.930 . S
H162 C170 0.930 . S
H163 C171 0.930 . S
H164 C174 0.930 . S
H165 C175 0.930 . S
C166 H160 0.930 . S
C166 C167 1.355 . S
C166 C168 1.415 . S
C167 C166 1.355 . S
C167 C169 1.419 . S
C168 C166 1.415 . S
C168 C173 1.425 . S
C168 C175 1.409 . S
C169 H161 0.930 . S
C169 C167 1.419 . S
C169 C170 1.362 . S
C170 H162 0.930 . S
C170 C169 1.362 . S
C170 C173 1.409 . S
C171 H163 0.930 . S
C171 C172 1.355 . S
C171 C173 1.415 . S
C172 C171 1.355 . S
C172 C174 1.419 . S
C173 C168 1.425 . S
C173 C170 1.409 . S
C173 C171 1.415 . S
C174 H164 0.930 . S
C174 C172 1.419 . S
C174 C175 1.362 . S
C175 H165 0.930 . S
C175 C168 1.409 . S
C175 C174 1.362 . S
H176 C182 0.930 . S
H177 C185 0.930 . S
H178 C186 0.930 . S
H179 C187 0.930 . S
H180 C190 0.930 . S
H181 C191 0.930 . S
C182 H176 0.930 . S
C182 C183 1.355 . S
C182 C184 1.415 . S
C183 C182 1.355 . S
C183 C185 1.419 . S
C184 C182 1.415 . S
C184 C189 1.425 . S
C184 C191 1.409 . S
C185 H177 0.930 . S
C185 C183 1.419 . S
C185 C186 1.362 . S
C186 H178 0.930 . S
C186 C185 1.362 . S
C186 C189 1.409 . S
C187 H179 0.930 . S
C187 C188 1.355 . S
C187 C189 1.415 . S
C188 C187 1.355 . S
C188 C190 1.419 . S
C189 C184 1.425 . S
C189 C186 1.409 . S
C189 C187 1.415 . S
C190 H180 0.930 . S
C190 C188 1.419 . S
C190 C191 1.362 . S
C191 H181 0.930 . S
C191 C184 1.409 . S
C191 C190 1.362 . S
H192 C198 0.930 . S
H193 C201 0.930 . S
H194 C202 0.930 . S
H195 C203 0.930 . S
H196 C206 0.930 . S
H197 C207 0.930 . S
C198 H192 0.930 . S
C198 C199 1.355 . S
C198 C200 1.415 . S
C199 C198 1.355 . S
C199 C201 1.419 . S
C200 C198 1.415 . S
C200 C205 1.425 . S
C200 C207 1.409 . S
C201 H193 0.930 . S
C201 C199 1.419 . S
C201 C202 1.362 . S
C202 H194 0.930 . S
C202 C201 1.362 . S
C202 C205 1.409 . S
C203 H195 0.930 . S
C203 C204 1.355 . S
C203 C205 1.415 . S
C204 C203 1.355 . S
C204 C206 1.419 . S
C205 C200 1.425 . S
C205 C202 1.409 . S
C205 C203 1.415 . S
C206 H196 0.930 . S
C206 C204 1.419 . S
C206 C207 1.362 . S
C207 H197 0.930 . S
C207 C200 1.409 . S
C207 C206 1.362 . S
H208 C214 0.930 . S
H209 C217 0.930 . S
H210 C218 0.930 . S
H211 C219 0.930 . S
H212 C222 0.930 . S
H213 C223 0.930 . S
C214 H208 0.930 . S
C214 C215 1.355 . S
C214 C216 1.415 . S
C215 C214 1.355 . S
C215 C217 1.419 . S
C216 C214 1.415 . S
C216 C221 1.425 . S
C216 C223 1.409 . S
C217 H209 0.930 . S
C217 C215 1.419 . S
C217 C218 1.362 . S
C218 H210 0.930 . S
C218 C217 1.362 . S
C218 C221 1.409 . S
C219 H211 0.930 . S
C219 C220 1.355 . S
C219 C221 1.415 . S
C220 C219 1.355 . S
C220 C222 1.419 . S
C221 C216 1.425 . S
C221 C218 1.409 . S
C221 C219 1.415 . S
C222 H212 0.930 . S
C222 C220 1.419 . S
C222 C223 1.362 . S
C223 H213 0.930 . S
C223 C216 1.409 . S
C223 C222 1.362 . S
H224 C230 0.930 1_655 S
H225 C233 0.930 . S
H226 C234 0.930 . S
H227 C235 0.930 . S
H228 C238 0.930 . S
H229 C239 0.930 . S
C230 H224 0.930 1_455 S
C230 C231 1.364 . S
C230 C232 1.415 1_455 S
C231 C230 1.364 . S
C231 C233 1.406 1_545 S
C232 C230 1.415 1_655 S
C232 C237 1.421 1_645 S
C232 C239 1.413 . S
C233 H225 0.930 . S
C233 C231 1.406 1_565 S
C233 C234 1.362 . S
C234 H226 0.930 . S
C234 C233 1.362 . S
C234 C237 1.409 . S
C235 H227 0.930 . S
C235 C236 1.355 1_465 S
C235 C237 1.415 . S
C236 C235 1.355 1_645 S
C236 C238 1.419 . S
C237 C232 1.421 1_465 S
C237 C234 1.409 . S
C237 C235 1.415 . S
C238 H228 0.930 . S
C238 C236 1.419 . S
C238 C239 1.362 . S
C239 H229 0.930 . S
C239 C232 1.413 . S
C239 C238 1.362 . S
H240 C246 0.930 . S
H241 C249 0.930 . S
H242 C250 0.930 . S
H243 C251 0.930 . S
H244 C254 0.930 . S
H245 C255 0.930 . S
C246 H240 0.930 . S
C246 C247 1.355 1_455 S
C246 C248 1.415 . S
C247 C246 1.355 1_655 S
C247 C249 1.419 1_545 S
C248 C246 1.415 . S
C248 C253 1.425 1_445 S
C248 C255 1.409 . S
C249 H241 0.930 . S
C249 C247 1.419 1_565 S
C249 C250 1.362 . S
C250 H242 0.930 . S
C250 C249 1.362 . S
C250 C253 1.409 . S
C251 H243 0.930 . S
C251 C252 1.355 1_665 S
C251 C253 1.415 . S
C252 C251 1.355 1_445 S
C252 C254 1.419 . S
C253 C248 1.425 1_665 S
C253 C250 1.409 . S
C253 C251 1.415 . S
C254 H244 0.930 . S
C254 C252 1.419 . S
C254 C255 1.362 . S
C255 H245 0.930 . S
C255 C248 1.409 . S
C255 C254 1.362 . S
H256 C262 0.930 . S
H257 C265 0.930 . S
H258 C266 0.930 . S
H259 C267 0.930 . S
H260 C270 0.930 . S
H261 C271 0.930 . S
C262 H256 0.930 . S
C262 C263 1.355 . S
C262 C264 1.415 . S
C263 C262 1.355 . S
C263 C265 1.419 . S
C264 C262 1.415 . S
C264 C269 1.425 . S
C264 C271 1.409 . S
C265 H257 0.930 . S
C265 C263 1.419 . S
C265 C266 1.362 . S
C266 H258 0.930 . S
C266 C265 1.362 . S
C266 C269 1.409 . S
C267 H259 0.930 . S
C267 C268 1.355 . S
C267 C269 1.415 . S
C268 C267 1.355 . S
C268 C270 1.419 . S
C269 C264 1.425 . S
C269 C266 1.409 . S
C269 C267 1.415 . S
C270 H260 0.930 . S
C270 C268 1.419 . S
C270 C271 1.362 . S
C271 H261 0.930 . S
C271 C264 1.409 . S
C271 C270 1.362 . S
H272 C278 0.930 . S
H273 C281 0.930 . S
H274 C282 0.930 . S
H275 C283 0.930 . S
H276 C286 0.930 . S
H277 C287 0.930 . S
C278 H272 0.930 . S
C278 C279 1.355 . S
C278 C280 1.415 . S
C279 C278 1.355 . S
C279 C281 1.419 . S
C280 C278 1.415 . S
C280 C285 1.425 . S
C280 C287 1.409 . S
C281 H273 0.930 . S
C281 C279 1.419 . S
C281 C282 1.362 . S
C282 H274 0.930 . S
C282 C281 1.362 . S
C282 C285 1.409 . S
C283 H275 0.930 . S
C283 C284 1.355 . S
C283 C285 1.415 . S
C284 C283 1.355 . S
C284 C286 1.419 . S
C285 C280 1.425 . S
C285 C282 1.409 . S
C285 C283 1.415 . S
C286 H276 0.930 . S
C286 C284 1.419 . S
C286 C287 1.362 . S
C287 H277 0.930 . S
C287 C280 1.409 . S
C287 C286 1.362 . S
C108 C91 1.421 . S
C103 C27 1.409 . S
C119 N6 1.293 . S
C124 C82 1.408 . S
C135 C16 1.426 . S
C140 C94 1.388 . S
C151 N14 1.371 . S
C156 C85 1.386 . S
C167 C57 1.426 . S
C172 C73 1.398 . S
C183 N36 1.283 . S
C188 C64 1.412 . S
C204 C76 1.418 . S
C199 C46 1.401 . S
C220 C67 1.398 . S
C215 N44 1.377 . S
C231 C10 1.382 . S
C236 C65 1.391 1_545 S
C247 C1 1.524 1_655 S
C252 C74 1.538 . S
C268 C83 1.392 . S
C263 C40 1.381 . S
C279 C31 1.523 . S
C284 C92 1.538 . S
