# Generated by pormake.
# Topology zzz, (3,6)-cn, num edge types: 1
# Building blocks:
#     Node 0, Type 0, BuildingBlock: BETDAH_clean_linker_0, # of connection points: 3
#     Node 1, Type 0, BuildingBlock: BETDAH_clean_linker_0, # of connection points: 3
#     Node 2, Type 0, BuildingBlock: BETDAH_clean_linker_0, # of connection points: 3
#     Node 3, Type 0, BuildingBlock: BETDAH_clean_linker_0, # of connection points: 3
#     Node 4, Type 0, BuildingBlock: BETDAH_clean_linker_0, # of connection points: 3
#     Node 5, Type 0, BuildingBlock: BETDAH_clean_linker_0, # of connection points: 3
#     Node 6, Type 0, BuildingBlock: BETDAH_clean_linker_0, # of connection points: 3
#     Node 7, Type 0, BuildingBlock: BETDAH_clean_linker_0, # of connection points: 3
#     Node 8, Type 1, BuildingBlock: INOVEN_clean_sbu_0, # of connection points: 6
#     Node 9, Type 1, BuildingBlock: INOVEN_clean_sbu_0, # of connection points: 6
#     Node 10, Type 1, BuildingBlock: INOVEN_clean_sbu_0, # of connection points: 6
#     Node 11, Type 1, BuildingBlock: INOVEN_clean_sbu_0, # of connection points: 6
#     Edge 12, Type (0, 1), BuildingBlock: XIVTED_clean_linker_0, # of connection points: 2
#     Edge 13, Type (0, 1), BuildingBlock: XIVTED_clean_linker_0, # of connection points: 2
#     Edge 14, Type (0, 1), BuildingBlock: XIVTED_clean_linker_0, # of connection points: 2
#     Edge 15, Type (0, 1), BuildingBlock: XIVTED_clean_linker_0, # of connection points: 2
#     Edge 16, Type (0, 1), BuildingBlock: XIVTED_clean_linker_0, # of connection points: 2
#     Edge 17, Type (0, 1), BuildingBlock: XIVTED_clean_linker_0, # of connection points: 2
#     Edge 18, Type (0, 1), BuildingBlock: XIVTED_clean_linker_0, # of connection points: 2
#     Edge 19, Type (0, 1), BuildingBlock: XIVTED_clean_linker_0, # of connection points: 2
#     Edge 20, Type (0, 1), BuildingBlock: XIVTED_clean_linker_0, # of connection points: 2
#     Edge 21, Type (0, 1), BuildingBlock: XIVTED_clean_linker_0, # of connection points: 2
#     Edge 22, Type (0, 1), BuildingBlock: XIVTED_clean_linker_0, # of connection points: 2
#     Edge 23, Type (0, 1), BuildingBlock: XIVTED_clean_linker_0, # of connection points: 2
#     Edge 24, Type (0, 1), BuildingBlock: XIVTED_clean_linker_0, # of connection points: 2
#     Edge 25, Type (0, 1), BuildingBlock: XIVTED_clean_linker_0, # of connection points: 2
#     Edge 26, Type (0, 1), BuildingBlock: XIVTED_clean_linker_0, # of connection points: 2
#     Edge 27, Type (0, 1), BuildingBlock: XIVTED_clean_linker_0, # of connection points: 2
#     Edge 28, Type (0, 1), BuildingBlock: XIVTED_clean_linker_0, # of connection points: 2
#     Edge 29, Type (0, 1), BuildingBlock: XIVTED_clean_linker_0, # of connection points: 2
#     Edge 30, Type (0, 1), BuildingBlock: XIVTED_clean_linker_0, # of connection points: 2
#     Edge 31, Type (0, 1), BuildingBlock: XIVTED_clean_linker_0, # of connection points: 2
#     Edge 32, Type (0, 1), BuildingBlock: XIVTED_clean_linker_0, # of connection points: 2
#     Edge 33, Type (0, 1), BuildingBlock: XIVTED_clean_linker_0, # of connection points: 2
#     Edge 34, Type (0, 1), BuildingBlock: XIVTED_clean_linker_0, # of connection points: 2
#     Edge 35, Type (0, 1), BuildingBlock: XIVTED_clean_linker_0, # of connection points: 2
# Relax obj value: 0.263
# Max RMSD: 0.186
# Mean RMSD: 0.161
data_MOF--net-zzz--node1-INOVEN_clean_sbu_0--node2-BETDAH_clean_linker_0--edge1-XIVTED_clean_linker_0
_symmetry_space_group_name_H-M    P1
_symmetry_Int_Tables_number       1
_symmetry_cell_setting            triclinic
loop_
_symmetry_equiv_pos_as_xyz
'x, y, z'
_cell_length_a     52.147905
_cell_length_b     52.379576
_cell_length_c     13.480879
_cell_angle_alpha  90.076426
_cell_angle_beta   89.861101
_cell_angle_gamma 90.158504
loop_
_atom_site_label
_atom_site_type_symbol
_atom_site_fract_x
_atom_site_fract_y
_atom_site_fract_z
_atom_type_partial_charge
H0 H 0.807 0.47453 0.38354 0.0
H1 H 0.73158 0.4842 0.26287 0.0
H2 H 0.75753 0.532 0.50451 0.0
C3 C 0.78828 0.48354 0.38641 0.0
C4 C 0.78438 0.50357 0.453 0.0
C5 C 0.76949 0.47661 0.31725 0.0
C6 C 0.74586 0.48937 0.3175 0.0
C7 C 0.74109 0.50902 0.38698 0.0
C8 C 0.76066 0.51628 0.45365 0.0
N9 N 0.71724 0.52226 0.38963 0.0
C10 C 0.69748 0.5185 0.32146 0.0
H11 H 0.04948 0.80517 0.39832 0.0
H12 H 0.04551 0.72953 0.2755 0.0
H13 H 0.99145 0.75341 0.5008 0.0
C14 C 0.04109 0.78617 0.39802 0.0
C15 C 0.01973 0.78144 0.45758 0.0
C16 C 0.05052 0.76765 0.33242 0.0
C17 C 0.03856 0.74362 0.32786 0.0
C18 C 1.01753 0.73809 0.39067 0.0
C19 C 1.00812 0.75722 0.45496 0.0
N20 N 1.00509 0.71385 0.38974 0.0
C21 C 1.00928 0.69478 0.31924 0.0
H22 H 0.72548 0.04935 0.4047 0.0
H23 H 0.79688 0.03359 0.25875 0.0
H24 H 0.76849 0.98301 0.48684 0.0
C25 C 0.74287 0.0381 0.39876 0.0
C26 C 0.74502 1.01596 0.45577 0.0
C27 C 0.7613 0.04441 0.32689 0.0
C28 C 0.78299 0.0289 0.31557 0.0
C29 C 0.78612 1.00701 0.3751 0.0
C30 C 0.76675 1.00037 0.44377 0.0
N31 N 0.80796 0.99089 0.36516 0.0
C32 C 0.82812 0.99522 0.29886 0.0
H33 H 0.48021 0.72109 0.41829 0.0
H34 H 0.49264 0.79467 0.28627 0.0
H35 H 0.54365 0.76696 0.51407 0.0
C36 C 0.49049 0.73914 0.4163 0.0
C37 C 0.51225 0.742 0.47522 0.0
C38 C 0.4834 0.75787 0.34755 0.0
C39 C 0.49783 0.78047 0.34095 0.0
C40 C 0.51925 0.78424 0.40333 0.0
C41 C 0.52658 0.76469 0.46924 0.0
N42 N 0.53429 0.80694 0.39928 0.0
C43 C 0.53065 0.82658 0.33108 0.0
H44 H 0.23146 0.55464 0.06372 0.0
H45 H 0.30506 0.54109 0.19504 0.0
H46 H 0.27781 0.49289 0.95689 0.0
C47 C 0.24955 0.54443 0.0642 0.0
C48 C 0.25256 0.52355 1.00077 0.0
C49 C 0.26819 0.55069 0.13499 0.0
C50 C 0.29089 0.53642 0.13925 0.0
C51 C 0.29486 0.51587 0.0731 0.0
C52 C 0.27535 0.50927 0.00515 0.0
N53 N 0.31778 0.50111 0.07517 0.0
C54 C 0.33728 0.50429 0.14494 0.0
H55 H 0.05241 0.22133 0.10631 0.0
H56 H 0.04457 0.29869 0.20491 0.0
H57 H 1.01024 0.2744 0.92859 0.0
C58 C 0.04626 0.24078 0.09219 0.0
C59 C 0.03125 0.24557 0.00888 0.0
C60 C 0.05106 0.25976 0.16305 0.0
C61 C 0.04157 0.28443 0.14802 0.0
C62 C 0.02749 0.29019 0.06153 0.0
C63 C 0.02215 0.27049 0.99251 0.0
N64 N 1.01751 0.31513 0.04457 0.0
C65 C 0.02034 0.33557 0.11043 0.0
H66 H 0.30065 0.04581 0.19684 0.0
H67 H 0.2215 0.02913 0.2456 0.0
H68 H 0.25409 0.02074 0.95187 0.0
C69 C 0.28209 0.04077 0.16613 0.0
C70 C 0.28015 0.03421 0.06557 0.0
C71 C 0.26105 0.03902 0.23034 0.0
C72 C 0.23739 0.03089 0.19419 0.0
C73 C 0.23451 0.02463 0.09304 0.0
C74 C 0.25609 0.02602 0.02918 0.0
N75 N 0.21033 0.01647 0.05509 0.0
C76 C 0.18842 1.0144 0.11441 0.0
H77 H 0.5509 0.29834 0.07951 0.0
H78 H 0.53724 0.22663 0.22464 0.0
H79 H 0.48409 0.25462 0.00508 0.0
C80 C 0.53994 0.28077 0.08617 0.0
C81 C 0.51718 0.27841 0.03264 0.0
C82 C 0.54717 0.26241 0.15629 0.0
C83 C 0.5319 0.24054 0.1691 0.0
C84 C 0.5094 0.23722 0.11235 0.0
C85 C 0.50193 0.2565 0.04547 0.0
N86 N 0.49343 0.2153 0.12343 0.0
C87 C 0.49712 0.19634 0.19447 0.0
Gd88 Gd 0.02732 1.00539 0.82088 0.0
Gd89 Gd 1.00056 0.02101 0.64079 0.0
C90 C 1.0055 0.96018 0.6876 0.0
C91 C 0.04758 0.99273 0.98752 0.0
C92 C 0.05723 0.96736 0.01648 0.0
C93 C 0.08222 0.96451 0.05339 0.0
C94 C 0.04265 0.94545 0.99526 0.0
C95 C 0.07817 0.91818 0.04321 0.0
C96 C 0.05295 0.92123 0.00872 0.0
C97 C 0.0926 0.94009 0.06707 0.0
C98 C 0.05689 1.00613 0.65537 0.0
C99 C 0.02003 0.06531 0.77811 0.0
C100 C 0.98946 0.03498 0.46441 0.0
C101 C 0.99979 0.05866 0.41942 0.0
C102 C 0.98517 0.08112 0.4226 0.0
C103 C 0.0261 0.06051 0.3971 0.0
C104 C 0.0239 0.10683 0.40465 0.0
C105 C 0.0381 0.08431 0.39127 0.0
C106 C 0.99709 0.10495 0.41509 0.0
C107 C 0.96952 0.01954 0.80238 0.0
O108 O 1.01371 0.96644 0.77681 0.0
O109 O 1.00051 0.97789 0.62031 0.0
O110 O 0.06062 1.00393 0.91697 0.0
O111 O 0.02275 0.99465 0.97513 0.0
O112 O 0.05694 0.98777 0.71938 0.0
O113 O 0.04117 0.02312 0.68115 0.0
O114 O 1.01803 0.05849 0.68453 0.0
O115 O 0.02017 0.04769 0.84829 0.0
O116 O 0.97375 0.03856 0.53904 0.0
O117 O 1.00621 0.01694 0.48212 0.0
O118 O 0.9681 0.03655 0.73304 0.0
O119 O 0.98639 1.00321 0.78074 0.0
H120 H 0.09394 0.98115 0.06908 0.0
H121 H 0.02338 0.94693 0.96608 0.0
H122 H 0.04097 0.90483 0.99242 0.0
H123 H 0.11205 0.9384 0.09419 0.0
H124 H 0.9648 0.08034 0.43833 0.0
H125 H 0.03787 0.04359 0.39182 0.0
H126 H 0.05871 0.08486 0.38206 0.0
H127 H 0.98535 0.12189 0.42118 0.0
Gd128 Gd 0.5209 0.02918 0.86628 0.0
Gd129 Gd 0.50734 1.00037 0.68897 0.0
C130 C 0.56655 1.00898 0.7152 0.0
C131 C 0.54283 0.04843 0.02064 0.0
C132 C 0.56686 0.06288 0.02799 0.0
C133 C 0.57963 0.0706 0.94121 0.0
C134 C 0.5779 0.06778 0.12049 0.0
C135 C 0.61553 0.08596 0.03909 0.0
C136 C 0.60205 0.07933 0.1261 0.0
C137 C 0.60383 0.08196 0.94665 0.0
C138 C 0.50845 0.05927 0.71037 0.0
C139 C 0.46257 0.01929 0.84075 0.0
C140 C 0.48195 0.98785 0.53438 0.0
C141 C 0.45587 0.99738 0.51567 0.0
C142 C 0.4357 0.98017 0.49947 0.0
C143 C 0.45019 0.02308 0.53634 0.0
C144 C 0.40459 1.01376 0.534 0.0
C145 C 0.42491 0.03111 0.54632 0.0
C146 C 0.41026 0.98832 0.50783 0.0
C147 C 0.52047 0.9699 0.84133 0.0
O148 O 0.56001 0.01889 0.80208 0.0
O149 O 0.54904 1.0014 0.65117 0.0
O150 O 0.52446 0.05992 0.97275 0.0
O151 O 0.54538 0.02449 0.99466 0.0
O152 O 0.50178 0.06381 0.80105 0.0
O153 O 0.52208 0.03946 0.70661 0.0
O154 O 0.46936 1.0155 0.74762 0.0
O155 O 0.48022 0.02123 0.91004 0.0
O156 O 0.4837 0.97273 0.61119 0.0
O157 O 0.50027 1.00501 0.53156 0.0
O158 O 0.52659 0.96563 0.74937 0.0
O159 O 0.5067 0.98971 0.84882 0.0
H160 H 0.57123 0.06711 0.86902 0.0
H161 H 0.56826 0.06193 0.18806 0.0
H162 H 0.61074 0.08178 0.19839 0.0
H163 H 0.6137 0.08693 0.87853 0.0
H164 H 0.43961 0.9602 0.48492 0.0
H165 H 0.4653 0.03678 0.55142 0.0
H166 H 0.42141 0.05073 0.56765 0.0
H167 H 0.39507 0.97457 0.49508 0.0
Gd168 Gd 0.50038 0.51737 0.84836 0.0
Gd169 Gd 0.52903 0.50166 0.63973 0.0
C170 C 0.51963 0.56126 0.69035 0.0
C171 C 0.48942 0.53687 0.01763 0.0
C172 C 0.4743 0.56 0.03559 0.0
C173 C 0.46407 0.57319 0.95423 0.0
C174 C 0.47169 0.57021 0.13103 0.0
C175 C 0.45077 0.60783 0.06218 0.0
C176 C 0.45989 0.59396 0.14436 0.0
C177 C 0.45244 0.5969 0.96731 0.0
C178 C 0.46724 0.51558 0.69075 0.0
C179 C 0.50997 0.45775 0.79825 0.0
C180 C 0.54006 0.48231 0.47035 0.0
C181 C 0.55576 0.45955 0.45267 0.0
C182 C 0.56668 0.44697 0.53413 0.0
C183 C 0.55835 0.44909 0.35764 0.0
C184 C 0.58075 0.41241 0.4273 0.0
C185 C 0.57085 0.42568 0.34492 0.0
C186 C 0.57909 0.42365 0.52162 0.0
C187 C 0.5623 0.50366 0.79671 0.0
O188 O 0.51268 0.55509 0.78213 0.0
O189 O 0.52426 0.54409 0.61987 0.0
O190 O 0.4766 0.51753 0.98024 0.0
O191 O 0.5114 0.54101 0.97269 0.0
O192 O 0.4603 0.52019 0.78139 0.0
O193 O 0.49106 0.51227 0.69196 0.0
O194 O 0.517 0.46391 0.70652 0.0
O195 O 0.50509 0.47493 0.86846 0.0
O196 O 0.55247 0.50202 0.507 0.0
O197 O 0.51825 0.4777 0.51592 0.0
O198 O 0.56914 0.49901 0.70602 0.0
O199 O 0.53846 0.50697 0.796 0.0
H200 H 0.46595 0.5656 0.87983 0.0
H201 H 0.47957 0.56031 0.19449 0.0
H202 H 0.4592 0.60206 0.21826 0.0
H203 H 0.44548 0.60704 0.90281 0.0
H204 H 0.56477 0.45472 0.60825 0.0
H205 H 0.54992 0.4585 0.29411 0.0
H206 H 0.5715 0.41732 0.27143 0.0
H207 H 0.58662 0.41401 0.58629 0.0
Gd208 Gd 1.01438 0.49757 0.79481 0.0
Gd209 Gd 0.02395 0.53281 0.63444 0.0
C210 C 0.96615 0.51821 0.66201 0.0
C211 C 0.9946 0.47269 0.94167 0.0
C212 C 0.96797 0.46465 0.96219 0.0
C213 C 0.96228 0.43879 0.97888 0.0
C214 C 0.9478 0.4823 0.95725 0.0
C215 C 0.91658 0.44831 0.98287 0.0
C216 C 0.92245 0.47424 0.96773 0.0
C217 C 0.93681 0.43067 0.98923 0.0
C218 C 0.02729 0.4739 0.62308 0.0
C219 C 0.07215 0.5122 0.76838 0.0
C220 C 0.04369 0.55767 0.48755 0.0
C221 C 0.07029 0.56602 0.46864 0.0
C222 C 0.0757 0.59188 0.45051 0.0
C223 C 0.09067 0.54873 0.47741 0.0
C224 C 0.12155 0.58308 0.4532 0.0
C225 C 0.11596 0.55715 0.46955 0.0
C226 C 0.10112 0.60036 0.44266 0.0
C227 C 1.01037 0.55658 0.8045 0.0
O228 O 0.97408 0.50891 0.74772 0.0
O229 O 0.98278 0.52635 0.59542 0.0
O230 O 1.00545 0.4615 0.86599 0.0
O231 O 0.99939 0.49722 0.94486 0.0
O232 O 0.03631 0.4679 0.70938 0.0
O233 O 1.01194 0.49244 0.631 0.0
O234 O 0.06427 0.52183 0.6831 0.0
O235 O 0.05553 0.50367 0.83413 0.0
O236 O 0.03239 0.56886 0.56227 0.0
O237 O 0.03928 0.53306 0.48488 0.0
O238 O 1.00154 0.56224 0.7176 0.0
O239 O 0.02603 0.53819 0.79834 0.0
H240 H 0.97753 0.42481 0.98226 0.0
H241 H 0.9515 0.50237 0.9439 0.0
H242 H 0.90745 0.48847 0.96504 0.0
H243 H 0.93296 0.41057 1.00099 0.0
H244 H 0.06026 0.60559 0.4442 0.0
H245 H 0.08719 0.52868 0.49193 0.0
H246 H 0.13115 0.54317 0.47534 0.0
H247 H 0.10478 0.62044 0.42969 0.0
H248 H 0.16719 0.97154 0.19121 0.0
H249 H 0.06945 0.04819 0.54424 0.0
H250 H 0.16185 0.05355 0.19542 0.0
H251 H 0.08467 0.96768 0.57172 0.0
H252 H 0.09974 0.05023 0.4046 0.0
H253 H 0.13333 0.96929 0.31796 0.0
C254 C 0.15865 0.98904 0.21845 0.0
C255 C 0.1671 1.01274 0.18327 0.0
C256 C 0.09641 0.03209 0.44095 0.0
C257 C 0.12868 1.01047 0.32861 0.0
C258 C 0.07906 0.03092 0.52035 0.0
C259 C 0.07453 1.00773 0.56929 0.0
C260 C 0.10929 1.00987 0.41017 0.0
C261 C 0.08765 0.98597 0.5361 0.0
C262 C 0.13943 0.9878 0.29097 0.0
C263 C 0.15566 0.03492 0.22084 0.0
N264 N 0.10439 0.98756 0.45872 0.0
N265 N 0.13706 0.03327 0.29172 0.0
H266 H 0.47884 0.1979 0.38143 0.0
H267 H 0.52766 0.05693 0.52026 0.0
H268 H 0.51982 0.14998 0.1757 0.0
H269 H 0.48392 0.10501 0.7174 0.0
H270 H 0.52509 0.0902 0.39221 0.0
H271 H 0.481 0.16388 0.50581 0.0
C272 C 0.48839 0.18016 0.36293 0.0
C273 C 0.49923 0.1766 0.26901 0.0
C274 C 0.51601 0.09343 0.46343 0.0
C275 C 0.50172 0.13751 0.41004 0.0
C276 C 0.51744 0.07443 0.53638 0.0
C277 C 0.5061 0.07829 0.62971 0.0
C278 C 0.50317 0.11644 0.48415 0.0
C279 C 0.49304 0.10128 0.64666 0.0
C280 C 0.48958 0.16071 0.43363 0.0
C281 C 0.51131 0.15335 0.24788 0.0
N282 N 0.49202 0.11946 0.57491 0.0
N283 N 0.51224 0.13463 0.31792 0.0
H284 H 0.38892 0.50102 0.11901 0.0
H285 H 0.41578 0.51864 0.70092 0.0
H286 H 0.33044 0.51277 0.34029 0.0
H287 H 0.47708 0.50863 0.4894 0.0
H288 H 0.38482 0.51646 0.56707 0.0
H289 H 0.42188 0.50386 0.24949 0.0
C290 C 0.38311 0.50428 0.19518 0.0
C291 C 0.35708 0.5067 0.21965 0.0
C292 C 0.40499 0.51466 0.54919 0.0
C293 C 0.39437 0.5098 0.36863 0.0
C294 C 0.42276 0.51587 0.62592 0.0
C295 C 0.4491 0.51362 0.60651 0.0
C296 C 0.4134 0.51118 0.45116 0.0
C297 C 0.45694 0.51018 0.50768 0.0
C298 C 0.40186 0.50586 0.26947 0.0
C299 C 0.35037 0.51084 0.31878 0.0
N300 N 0.43914 0.50905 0.43345 0.0
N301 N 0.36887 0.51222 0.38954 0.0
H302 H 0.05647 0.34189 0.2523 0.0
H303 H 0.99806 0.47423 0.45311 0.0
H304 H 0.99006 0.37749 0.1236 0.0
H305 H 0.05811 0.43245 0.5999 0.0
H306 H 0.9973 0.44154 0.32205 0.0
H307 H 0.05968 0.37715 0.37126 0.0
C308 C 0.04257 0.35719 0.24926 0.0
C309 C 0.02287 0.35679 0.179 0.0
C310 C 1.01074 0.43962 0.38268 0.0
C311 C 0.02642 0.39733 0.31424 0.0
C312 C 1.01125 0.45833 0.4572 0.0
C313 C 0.02808 0.45598 0.53779 0.0
C314 C 0.02727 0.41848 0.38858 0.0
C315 C 0.04473 0.43497 0.53943 0.0
C316 C 0.0444 0.37735 0.31703 0.0
C317 C 1.00547 0.37714 0.1773 0.0
N318 N 0.04384 0.41705 0.46638 0.0
N319 N 1.0076 0.3966 0.24411 0.0
H320 H 0.86548 0.96127 0.25528 0.0
H321 H 0.93151 0.05278 0.85098 0.0
H322 H 0.83911 0.03716 0.18848 0.0
H323 H 0.96267 0.97962 0.93259 0.0
H324 H 0.89771 0.04725 0.97489 0.0
H325 H 0.90121 0.96726 0.13813 0.0
C326 C 0.86729 0.9792 0.2158 0.0
C327 C 0.84941 0.99873 0.23082 0.0
C328 C 0.91194 0.03239 0.96617 0.0
C329 C 0.89002 1.00578 0.09704 0.0
C330 C 0.93127 0.03555 0.8953 0.0
C331 C 0.94985 0.01657 0.8811 0.0
C332 C 0.91102 1.01 0.02341 0.0
C333 C 0.94867 0.99469 0.941 0.0
C334 C 0.88766 0.98263 0.14914 0.0
C335 C 0.85247 0.0216 0.17845 0.0
N336 N 0.9295 0.99194 0.0092 0.0
N337 N 0.87235 0.02447 0.1137 0.0
H338 H 0.54842 0.82699 0.14328 0.0
H339 H 0.50126 0.97014 0.03194 0.0
H340 H 0.50862 0.87291 0.35909 0.0
H341 H 0.54474 0.92417 0.82639 0.0
H342 H 0.50344 0.93526 0.15353 0.0
H343 H 0.54652 0.86255 0.02548 0.0
C344 C 0.53918 0.84461 0.16537 0.0
C345 C 0.52859 0.84718 0.2602 0.0
C346 C 0.51256 0.93286 0.08189 0.0
C347 C 0.52642 0.88801 0.1268 0.0
C348 C 0.51136 0.95278 0.01266 0.0
C349 C 0.52275 0.95 0.91882 0.0
C350 C 0.5252 0.91002 0.05689 0.0
C351 C 0.5356 0.92712 0.89767 0.0
C352 C 0.53814 0.86494 0.09845 0.0
C353 C 0.51691 0.87032 0.28606 0.0
N354 N 0.53639 0.90804 0.96582 0.0
N355 N 0.51612 0.8899 0.21967 0.0
H356 H 0.70358 0.50768 0.12766 0.0
H357 H 0.55295 0.51154 0.9979 0.0
H358 H 0.64596 0.52261 0.34948 0.0
H359 H 0.6137 0.50047 0.78476 0.0
H360 H 0.58553 0.51477 0.13013 0.0
H361 H 0.66988 0.50371 1.00264 0.0
C362 C 0.68372 0.51002 0.14979 0.0
C363 C 0.6774 0.51542 0.24833 0.0
C364 C 0.59163 0.5117 0.05424 0.0
C365 C 0.63857 0.51108 0.10603 0.0
C366 C 0.57306 0.50997 0.97893 0.0
C367 C 0.58063 0.50597 0.88015 0.0
C368 C 0.61784 0.50931 0.0301 0.0
C369 C 0.60693 0.50366 0.85974 0.0
C370 C 0.66444 0.50781 0.07855 0.0
C371 C 0.65146 0.51838 0.27373 0.0
N372 N 0.62445 0.50537 0.93363 0.0
N373 N 0.63292 0.5162 0.20292 0.0
H374 H 0.03874 0.65196 0.32605 0.0
H375 H 0.97852 0.59714 0.82081 0.0
H376 H 0.98253 0.69112 0.14952 0.0
H377 H 0.03903 0.55837 0.97704 0.0
H378 H 0.97848 0.6303 0.94749 0.0
H379 H 0.03862 0.61662 0.20504 0.0
C380 C 0.02653 0.65313 0.26129 0.0
C381 C 1.01074 0.6744 0.2467 0.0
C382 C 0.99176 0.61456 0.95475 0.0
C383 C 1.01019 0.63419 0.10932 0.0
C384 C 0.99173 0.59552 0.88239 0.0
C385 C 1.0089 0.57501 0.888 0.0
C386 C 1.00913 0.61327 0.03405 0.0
C387 C 0.02547 0.57387 0.96989 0.0
C388 C 0.02639 0.63298 0.19257 0.0
C389 C 0.99508 0.67504 0.16272 0.0
N390 N 0.02528 0.59284 0.03955 0.0
N391 N 0.99518 0.65525 0.09733 0.0
H392 H 0.02623 0.26054 0.33993 0.0
H393 H 0.06679 0.1231 0.30288 0.0
H394 H 0.09721 0.23749 0.20385 0.0
H395 H 1.01139 0.14825 0.52058 0.0
H396 H 0.08505 0.16573 0.30048 0.0
H397 H 0.02843 0.22374 0.44954 0.0
C398 C 0.04314 0.24858 0.33725 0.0
C399 C 0.06093 0.2512 0.25985 0.0
C400 C 0.0692 0.16189 0.35037 0.0
C401 C 0.06297 0.20854 0.38091 0.0
C402 C 0.05866 0.13741 0.35156 0.0
C403 C 0.03692 0.13212 0.40966 0.0
C404 C 0.05757 0.18148 0.40567 0.0
C405 C 0.0274 0.15166 0.47112 0.0
C406 C 0.04419 0.22721 0.39882 0.0
C407 C 0.08264 0.23546 0.2607 0.0
N408 N 0.0374 0.1756 0.46579 0.0
N409 N 0.08249 0.214 0.31697 0.0
H410 H 0.27568 0.08215 0.32792 0.0
H411 H 0.3634 0.9873 0.61183 0.0
H412 H 0.25919 1.00241 0.37225 0.0
H413 H 0.38411 0.06027 0.48538 0.0
H414 H 0.31815 0.9992 0.59967 0.0
H415 H 0.30504 0.08107 0.46856 0.0
C416 C 0.27722 0.06476 0.37089 0.0
C417 C 0.26584 0.04212 0.33717 0.0
C418 C 0.33272 1.01282 0.57731 0.0
C419 C 0.30016 0.04037 0.49352 0.0
C420 C 0.35852 1.00591 0.58262 0.0
C421 C 0.37761 0.02235 0.54556 0.0
C422 C 0.32604 0.03631 0.53473 0.0
C423 C 0.3702 0.04672 0.51346 0.0
C424 C 0.29419 0.06403 0.45046 0.0
C425 C 0.2682 0.02011 0.39517 0.0
N426 N 0.34502 0.05273 0.50706 0.0
N427 N 0.28595 0.01947 0.46864 0.0
H428 H 0.54365 0.26399 0.35768 0.0
H429 H 0.61185 0.39204 0.28278 0.0
H430 H 0.59603 0.27896 0.11708 0.0
H431 H 0.56966 0.37178 0.54703 0.0
H432 H 0.61781 0.34671 0.24699 0.0
H433 H 0.56545 0.29624 0.45684 0.0
C434 C 0.5606 0.27314 0.32744 0.0
C435 C 0.56742 0.26966 0.22773 0.0
C436 C 0.60783 0.35213 0.31429 0.0
C437 C 0.59162 0.30744 0.33852 0.0
C438 C 0.60428 0.37804 0.33423 0.0
C439 C 0.58967 0.38568 0.41644 0.0
C440 C 0.59612 0.33376 0.37571 0.0
C441 C 0.58084 0.36678 0.48212 0.0
C442 C 0.57288 0.29192 0.38366 0.0
C443 C 0.5897 0.28181 0.19285 0.0
N444 N 0.58366 0.34171 0.45903 0.0
N445 N 0.60041 0.30097 0.24668 0.0
H446 H 0.26834 0.54297 0.33476 0.0
H447 H 0.1414 0.61715 0.31861 0.0
H448 H 0.25009 0.59934 0.11369 0.0
H449 H 0.16361 0.56791 0.55978 0.0
H450 H 0.1864 0.62214 0.27373 0.0
H451 H 0.23813 0.56322 0.44833 0.0
C452 C 0.25888 0.56037 0.31178 0.0
C453 C 0.26095 0.56901 0.21374 0.0
C454 C 0.18155 0.61069 0.33797 0.0
C455 C 0.22558 0.59159 0.34122 0.0
C456 C 0.15577 0.6079 0.36386 0.0
C457 C 0.14865 0.59131 0.44079 0.0
C458 C 0.20027 0.5964 0.38817 0.0
C459 C 0.16819 0.58003 0.49718 0.0
C460 C 0.24133 0.5718 0.37628 0.0
C461 C 0.24839 0.59171 0.18805 0.0
N462 N 0.19305 0.58224 0.46821 0.0
N463 N 0.23053 0.60172 0.25014 0.0
H464 H 0.04638 0.76901 0.13143 0.0
H465 H 0.1076 0.90044 0.19712 0.0
H466 H 0.09805 0.78721 0.37003 0.0
H467 H 0.0722 0.87612 0.9237 0.0
H468 H 0.11509 0.85589 0.23957 0.0
H469 H 0.06658 0.80207 0.03048 0.0
C470 C 0.06291 0.77906 0.16066 0.0
C471 C 0.0701 0.77602 0.25996 0.0
C472 C 0.10622 0.86023 0.16907 0.0
C473 C 0.09244 0.81465 0.14737 0.0
C474 C 0.10198 0.88578 0.14471 0.0
C475 C 0.08838 0.89201 0.05847 0.0
C476 C 0.09635 0.84081 0.1077 0.0
C477 C 0.08178 0.87213 0.99312 0.0
C478 C 0.07426 0.79826 0.10352 0.0
C479 C 0.09163 0.78949 0.29423 0.0
N480 N 0.0852 0.84742 0.02024 0.0
N481 N 0.10145 0.80893 0.2394 0.0
H482 H 0.76098 0.04002 0.12544 0.0
H483 H 0.63787 0.12027 0.16673 0.0
H484 H 0.74517 0.09336 0.36123 0.0
H485 H 0.65552 0.06882 0.92611 0.0
H486 H 0.68354 0.12327 0.20474 0.0
H487 H 0.73172 0.06337 0.01827 0.0
C488 C 0.75227 0.05738 0.15326 0.0
C489 C 0.75464 0.06425 0.25335 0.0
C490 C 0.67754 0.11186 0.14185 0.0
C491 C 0.72035 0.09036 0.13293 0.0
C492 C 0.65143 0.11007 0.12051 0.0
C493 C 0.64286 0.09365 0.04528 0.0
C494 C 0.69507 0.09662 0.08906 0.0
C495 C 0.66125 0.08142 0.98584 0.0
C496 C 0.73527 0.07059 0.09231 0.0
C497 C 0.74311 0.08701 0.28517 0.0
N498 N 0.68644 0.08261 0.01069 0.0
N499 N 0.72573 0.09878 0.22625 0.0
H500 H 0.48969 0.75618 0.14735 0.0
H501 H 0.41915 0.62831 0.20454 0.0
H502 H 0.43428 0.74113 0.37745 0.0
H503 H 0.46408 0.64874 0.94737 0.0
H504 H 0.41392 0.6736 0.24273 0.0
H505 H 0.4692 0.7239 0.04391 0.0
C506 C 0.47235 0.74702 0.1741 0.0
C507 C 0.46417 0.75057 0.27221 0.0
C508 C 0.42438 0.66826 0.17644 0.0
C509 C 0.44143 0.71279 0.15678 0.0
C510 C 0.4275 0.64237 0.15513 0.0
C511 C 0.44259 0.63476 0.07419 0.0
C512 C 0.437 0.68663 0.11777 0.0
C513 C 0.45248 0.65374 0.01118 0.0
C514 C 0.46083 0.72824 0.11554 0.0
C515 C 0.44154 0.73834 0.3029 0.0
N516 N 0.45004 0.67877 0.03565 0.0
N517 N 0.43151 0.71922 0.24693 0.0
H518 H 0.76876 0.48604 0.11878 0.0
H519 H 0.89751 0.41347 0.11617 0.0
H520 H 0.78939 0.4286 0.33227 0.0
H521 H 0.8737 0.46493 0.88439 0.0
H522 H 0.85285 0.40814 0.16511 0.0
H523 H 0.79942 0.46772 1.00181 0.0
C524 C 0.77885 0.46879 0.13923 0.0
C525 C 0.77721 0.45924 0.23609 0.0
C526 C 0.85727 0.42018 0.1021 0.0
C527 C 0.81304 0.43886 0.10487 0.0
C528 C 0.88286 0.42317 0.07384 0.0
C529 C 0.88948 0.44038 0.99826 0.0
C530 C 0.83821 0.43486 0.05566 0.0
C531 C 0.86956 0.45228 0.94586 0.0
C532 C 0.79665 0.45848 0.07287 0.0
C533 C 0.79064 0.43683 0.25877 0.0
N534 N 0.8449 0.44979 0.97707 0.0
N535 N 0.80865 0.42788 0.19487 0.0
H536 H 0.99489 0.21136 0.06058 0.0
H537 H 0.03313 0.10571 0.65813 0.0
H538 H 0.05086 0.22705 0.83328 0.0
H539 H 1.00803 0.08803 0.95549 0.0
H540 H 0.0326 0.15137 0.70077 0.0
H541 H 0.99073 0.16762 0.99818 0.0
C542 C 1.00554 0.20583 0.99488 0.0
C543 C 0.02287 0.22296 0.95078 0.0
C544 C 0.0272 0.13745 0.75639 0.0
C545 C 0.01886 0.17264 0.8808 0.0
C546 C 0.02753 0.11139 0.73239 0.0
C547 C 0.02081 0.09294 0.80374 0.0
C548 C 0.01943 0.14518 0.85154 0.0
C549 C 1.01362 0.1015 0.89849 0.0
C550 C 1.00351 0.18076 0.9604 0.0
C551 C 0.03688 0.21458 0.8679 0.0
N552 N 1.01294 0.12694 0.91932 0.0
N553 N 0.03468 0.18993 0.83572 0.0
H554 H 0.29824 0.9981 0.93214 0.0
H555 H 0.44131 0.04536 0.99644 0.0
H556 H 0.31753 0.07093 0.06219 0.0
H557 H 0.42087 0.99972 0.74207 0.0
H558 H 0.39567 0.05085 0.03397 0.0
H559 H 0.34229 0.99524 0.86604 0.0
C560 C 0.31146 1.01373 0.94496 0.0
C561 C 0.30421 0.03458 0.0045 0.0
C562 C 0.40116 0.03971 0.96962 0.0
C563 C 0.35474 0.03094 0.93247 0.0
C564 C 0.42722 0.03641 0.94868 0.0
C565 C 0.43493 0.02214 0.86585 0.0
C566 C 0.38254 0.0282 0.90873 0.0
C567 C 0.41574 1.01108 0.8062 0.0
C568 C 0.33666 1.01196 0.90805 0.0
C569 C 0.32235 0.05418 0.01892 0.0
N570 N 0.39043 1.01411 0.82926 0.0
N571 N 0.34678 0.05163 0.98518 0.0
H572 H 0.47842 0.31125 0.07669 0.0
H573 H 0.5284 0.41702 0.69202 0.0
H574 H 0.5388 0.29789 0.86466 0.0
H575 H 0.48662 0.43524 0.9597 0.0
H576 H 0.52553 0.37176 0.73413 0.0
H577 H 0.47355 0.35477 0.01143 0.0
C578 C 0.48994 0.31719 0.01377 0.0
C579 C 0.50875 0.30091 0.9748 0.0
C580 C 0.51687 0.38564 0.78339 0.0
C581 C 0.50388 0.35075 0.90184 0.0
C582 C 0.51847 0.41156 0.75945 0.0
C583 C 0.50785 0.43012 0.82271 0.0
C584 C 0.5043 0.37804 0.87077 0.0
C585 C 0.49528 0.4217 0.90908 0.0
C586 C 0.48746 0.34212 0.97765 0.0
C587 C 0.5238 0.30977 0.89552 0.0
N588 N 0.49385 0.39631 0.93053 0.0
N589 N 0.52115 0.33412 0.86202 0.0
H590 H 0.22214 0.48146 0.02235 0.0
H591 H 0.11111 0.53822 0.67593 0.0
H592 H 0.23074 0.54987 0.84859 0.0
H593 H 0.09707 0.48404 0.91056 0.0
H594 H 0.15692 0.53712 0.7145 0.0
H595 H 0.17865 0.47599 0.95543 0.0
C596 C 0.2152 0.49478 0.96723 0.0
C597 C 0.23012 0.51595 0.9398 0.0
C598 C 0.14384 0.52535 0.75716 0.0
C599 C 0.18023 0.51029 0.86514 0.0
C600 C 0.11766 0.5259 0.73494 0.0
C601 C 0.10011 0.51124 0.79009 0.0
C602 C 0.15274 0.50985 0.83473 0.0
C603 C 0.10981 0.49582 0.8665 0.0
C604 C 0.19026 0.49189 0.93025 0.0
C605 C 0.21994 0.53311 0.87048 0.0
N606 N 0.13542 0.49553 0.88654 0.0
N607 N 0.19561 0.53001 0.83601 0.0
H608 H 0.03317 0.79832 0.64178 0.0
H609 H 0.98432 0.93877 0.51999 0.0
H610 H 0.98462 0.81564 0.39326 0.0
H611 H 0.01989 0.91863 0.79777 0.0
H612 H 0.98204 0.8934 0.4769 0.0
H613 H 0.02557 0.84135 0.70776 0.0
C614 C 0.02009 0.81091 0.60333 0.0
C615 C 1.00902 0.80333 0.51332 0.0
C616 C 0.99011 0.89889 0.54774 0.0
C617 C 1.00124 0.85298 0.58512 0.0
C618 C 0.9915 0.92485 0.57226 0.0
C619 C 1.00243 0.93265 0.66248 0.0
C620 C 0.99998 0.88052 0.61333 0.0
C621 C 1.01133 0.91362 0.72731 0.0
C622 C 1.016 0.83558 0.64013 0.0
C623 C 0.99301 0.82064 0.4641 0.0
N624 N 1.01013 0.88854 0.70109 0.0
N625 N 0.98987 0.84476 0.49984 0.0
H626 H 0.71254 0.97557 0.43006 0.0
H627 H 0.60768 0.03088 0.80983 0.0
H628 H 0.72557 0.04121 0.61603 0.0
H629 H 0.58875 0.9823 0.56156 0.0
H630 H 0.65292 0.0286 0.76248 0.0
H631 H 0.66952 0.97089 0.50311 0.0
C632 C 0.70666 0.98841 0.48886 0.0
C633 C 0.72268 1.00861 0.51805 0.0
C634 C 0.63888 0.01832 0.71869 0.0
C635 C 0.67339 1.00384 0.60004 0.0
C636 C 0.61299 0.0196 0.74566 0.0
C637 C 0.59424 1.00694 0.68913 0.0
C638 C 0.64626 1.00401 0.63518 0.0
C639 C 0.60245 0.99257 0.60687 0.0
C640 C 0.682 0.98599 0.52945 0.0
C641 C 0.71387 0.02521 0.59247 0.0
N642 N 0.6278 0.99152 0.58239 0.0
N643 N 0.68981 0.02256 0.63049 0.0
H644 H 0.49235 0.72336 0.64761 0.0
H645 H 0.54212 0.58343 0.52669 0.0
H646 H 0.54912 0.70803 0.42317 0.0
H647 H 0.50278 0.60226 0.79924 0.0
H648 H 0.54527 0.62902 0.48852 0.0
H649 H 0.49723 0.67962 0.70946 0.0
C650 C 0.50656 0.71101 0.61395 0.0
C651 C 0.52078 0.71938 0.53175 0.0
C652 C 0.53613 0.62316 0.55705 0.0
C653 C 0.52553 0.66896 0.59824 0.0
C654 C 0.53416 0.59709 0.5786 0.0
C655 C 0.52207 0.58887 0.66615 0.0
C656 C 0.52564 0.64122 0.62278 0.0
C657 C 0.51229 0.60759 0.73083 0.0
C658 C 0.50914 0.68596 0.6483 0.0
C659 C 0.53827 0.70241 0.4882 0.0
N660 N 0.51409 0.6328 0.70745 0.0
N661 N 0.53988 0.67789 0.52095 0.0
H662 H 0.80518 0.48061 0.61509 0.0
H663 H 0.94142 0.54473 0.51483 0.0
H664 H 0.81586 0.5439 0.4158 0.0
H665 H 0.92695 0.49421 0.76119 0.0
H666 H 0.89533 0.54557 0.4805 0.0
H667 H 0.84892 0.48695 0.67725 0.0
C668 C 0.81648 0.49646 0.58723 0.0
C669 C 0.80679 0.51211 0.51187 0.0
C670 C 0.9022 0.53447 0.54266 0.0
C671 C 0.8573 0.5187 0.57849 0.0
C672 C 0.92857 0.53385 0.56194 0.0
C673 C 0.93816 0.51934 0.64104 0.0
C674 C 0.88522 0.52021 0.60207 0.0
C675 C 0.92049 0.50576 0.69981 0.0
C676 C 0.84155 0.49989 0.62168 0.0
C677 C 0.82247 0.53181 0.47556 0.0
N678 N 0.89497 0.50636 0.67869 0.0
N679 N 0.84707 0.53432 0.5081 0.0
loop_
_geom_bond_atom_site_label_1
_geom_bond_atom_site_label_2
_geom_bond_distance
_geom_bond_site_symmetry_2
_ccdc_geom_bond_type
H0 C3 0.929 . S
H1 C6 0.929 . S
H2 C8 0.930 . S
C3 H0 0.929 . S
C3 C4 1.398 . S
C3 C5 1.396 . S
C4 C3 1.398 . S
C4 C8 1.407 . S
C5 C3 1.396 . S
C5 C6 1.394 . S
C6 H1 0.929 . S
C6 C5 1.394 . S
C6 C7 1.382 . S
C7 C6 1.382 . S
C7 C8 1.392 . S
C7 N9 1.420 . S
C8 H2 0.930 . S
C8 C4 1.407 . S
C8 C7 1.392 . S
N9 C7 1.420 . S
N9 C10 1.244 . S
C10 N9 1.244 . S
H11 C14 0.929 . S
H12 C17 0.929 . S
H13 C19 0.930 . S
C14 H11 0.929 . S
C14 C15 1.400 . S
C14 C16 1.399 . S
C15 C14 1.400 . S
C15 C19 1.404 1_655 S
C16 C14 1.399 . S
C16 C17 1.389 1_655 S
C17 H12 0.929 . S
C17 C16 1.389 1_455 S
C17 C18 1.382 . S
C18 C17 1.382 . S
C18 C19 1.392 . S
C18 N20 1.420 . S
C19 H13 0.930 . S
C19 C15 1.404 1_455 S
C19 C18 1.392 . S
N20 C18 1.420 . S
N20 C21 1.244 1_455 S
C21 N20 1.244 1_655 S
H22 C25 0.929 . S
H23 C28 0.929 . S
H24 C30 0.930 . S
C25 H22 0.929 . S
C25 C26 1.401 . S
C25 C27 1.401 . S
C26 C25 1.401 . S
C26 C30 1.402 1_565 S
C27 C25 1.401 . S
C27 C28 1.387 1_565 S
C28 H23 0.929 . S
C28 C27 1.387 1_545 S
C28 C29 1.382 . S
C29 C28 1.382 . S
C29 C30 1.392 . S
C29 N31 1.420 . S
C30 H24 0.930 . S
C30 C26 1.402 1_545 S
C30 C29 1.392 . S
N31 C29 1.420 . S
N31 C32 1.244 1_545 S
C32 N31 1.244 1_565 S
H33 C36 0.929 . S
H34 C39 0.929 . S
H35 C41 0.930 . S
C36 H33 0.929 . S
C36 C37 1.398 . S
C36 C38 1.396 . S
C37 C36 1.398 . S
C37 C41 1.407 . S
C38 C36 1.396 . S
C38 C39 1.394 . S
C39 H34 0.929 . S
C39 C38 1.394 . S
C39 C40 1.382 . S
C40 C39 1.382 . S
C40 C41 1.392 . S
C40 N42 1.420 . S
C41 H35 0.930 . S
C41 C37 1.407 . S
C41 C40 1.392 . S
N42 C40 1.420 . S
N42 C43 1.244 . S
C43 N42 1.244 . S
H44 C47 0.929 . S
H45 C50 0.929 . S
H46 C52 0.930 . S
C47 H44 0.929 . S
C47 C48 1.398 . S
C47 C49 1.396 1_556 S
C48 C47 1.398 . S
C48 C52 1.407 . S
C49 C47 1.396 1_554 S
C49 C50 1.394 . S
C50 H45 0.929 . S
C50 C49 1.394 . S
C50 C51 1.382 . S
C51 C50 1.382 . S
C51 C52 1.392 1_554 S
C51 N53 1.420 . S
C52 H46 0.930 . S
C52 C48 1.407 . S
C52 C51 1.392 1_556 S
N53 C51 1.420 . S
N53 C54 1.244 . S
C54 N53 1.244 . S
H55 C58 0.930 1_655 S
H56 C61 0.929 . S
H57 C63 0.930 . S
C58 H55 0.930 1_455 S
C58 C59 1.398 . S
C58 C60 1.396 1_556 S
C59 C58 1.398 . S
C59 C63 1.407 . S
C60 C58 1.396 1_554 S
C60 C61 1.394 . S
C61 H56 0.929 . S
C61 C60 1.394 . S
C61 C62 1.382 . S
C62 C61 1.382 . S
C62 C63 1.392 1_554 S
C62 N64 1.420 . S
C63 H57 0.930 . S
C63 C59 1.407 . S
C63 C62 1.392 1_556 S
N64 C62 1.420 . S
N64 C65 1.244 . S
C65 N64 1.244 . S
H66 C69 0.932 . S
H67 C72 0.929 . S
H68 C74 0.930 . S
C69 H66 0.932 . S
C69 C70 1.406 1_565 S
C69 C71 1.386 1_566 S
C70 C69 1.406 1_545 S
C70 C74 1.407 . S
C71 C69 1.386 1_544 S
C71 C72 1.394 . S
C72 H67 0.929 . S
C72 C71 1.394 . S
C72 C73 1.382 . S
C73 C72 1.382 . S
C73 C74 1.392 1_554 S
C73 N75 1.420 . S
C74 H68 0.930 . S
C74 C70 1.407 . S
C74 C73 1.392 1_556 S
N75 C73 1.420 . S
N75 C76 1.244 . S
C76 N75 1.244 . S
H77 C80 0.929 . S
H78 C83 0.929 . S
H79 C85 0.930 . S
C80 H77 0.929 . S
C80 C81 1.398 . S
C80 C82 1.396 1_556 S
C81 C80 1.398 . S
C81 C85 1.407 . S
C82 C80 1.396 1_554 S
C82 C83 1.394 . S
C83 H78 0.929 . S
C83 C82 1.394 . S
C83 C84 1.382 . S
C84 C83 1.382 . S
C84 C85 1.392 1_554 S
C84 N86 1.420 . S
C85 H79 0.930 . S
C85 C81 1.407 . S
C85 C84 1.392 1_556 S
N86 C84 1.420 . S
N86 C87 1.244 . S
C87 N86 1.244 . S
Gd88 C91 2.818 . S
Gd88 O108 2.377 . S
Gd88 O110 2.448 . S
Gd88 O111 2.506 . S
Gd88 O112 2.435 . S
Gd88 O113 2.717 1_565 S
Gd88 O115 2.395 1_565 S
Gd88 O119 2.327 1_455 S
Gd89 C100 2.818 . S
Gd89 O109 2.395 1_545 S
Gd89 O113 2.327 1_655 S
Gd89 O114 2.377 . S
Gd89 O116 2.448 . S
Gd89 O117 2.506 . S
Gd89 O118 2.435 . S
Gd89 O119 2.717 1_545 S
C90 O108 1.240 1_655 S
C90 O109 1.240 . S
C91 Gd88 2.818 . S
C91 C92 1.511 . S
C91 O110 1.249 . S
C91 O111 1.252 . S
C92 C91 1.511 . S
C92 C93 1.404 1_556 S
C92 C94 1.352 1_556 S
C93 C92 1.404 1_554 S
C93 C97 1.389 . S
C93 H120 0.930 1_554 S
C94 C92 1.352 1_554 S
C94 C96 1.374 . S
C94 H121 0.931 1_455 S
C95 C96 1.359 . S
C95 C97 1.364 . S
C96 C94 1.374 . S
C96 C95 1.359 . S
C96 H122 0.931 1_455 S
C97 C93 1.389 . S
C97 C95 1.364 . S
C97 H123 0.931 . S
C98 O112 1.277 . S
C98 O113 1.247 1_565 S
C99 O114 1.240 1_455 S
C99 O115 1.240 . S
C100 Gd89 2.818 . S
C100 C101 1.510 . S
C100 O116 1.249 . S
C100 O117 1.252 . S
C101 C100 1.510 . S
C101 C102 1.404 . S
C101 C103 1.352 . S
C102 C101 1.404 . S
C102 C106 1.389 . S
C102 H124 0.930 . S
C103 C101 1.352 . S
C103 C105 1.374 . S
C103 H125 0.931 1_655 S
C104 C105 1.359 . S
C104 C106 1.364 . S
C105 C103 1.374 . S
C105 C104 1.359 . S
C105 H126 0.931 1_655 S
C106 C102 1.389 . S
C106 C104 1.364 . S
C106 H127 0.931 . S
C107 O118 1.256 . S
C107 O119 1.257 1_545 S
O108 Gd88 2.377 . S
O108 C90 1.240 1_455 S
O109 Gd89 2.395 1_565 S
O109 C90 1.240 . S
O110 Gd88 2.448 . S
O110 C91 1.249 . S
O111 Gd88 2.506 . S
O111 C91 1.252 . S
O112 Gd88 2.435 . S
O112 C98 1.277 . S
O113 Gd88 2.717 1_545 S
O113 Gd89 2.327 1_455 S
O113 C98 1.247 1_545 S
O114 Gd89 2.377 . S
O114 C99 1.240 1_655 S
O115 Gd88 2.395 1_545 S
O115 C99 1.240 . S
O116 Gd89 2.448 . S
O116 C100 1.249 . S
O117 Gd89 2.506 . S
O117 C100 1.252 . S
O118 Gd89 2.435 . S
O118 C107 1.256 . S
O119 Gd88 2.327 1_655 S
O119 Gd89 2.717 1_565 S
O119 C107 1.257 1_565 S
H120 C93 0.930 1_556 S
H121 C94 0.931 1_655 S
H122 C96 0.931 1_655 S
H123 C97 0.931 . S
H124 C102 0.930 . S
H125 C103 0.931 1_455 S
H126 C105 0.931 1_455 S
H127 C106 0.931 . S
Gd128 C131 2.818 . S
Gd128 O148 2.377 . S
Gd128 O150 2.448 . S
Gd128 O151 2.506 . S
Gd128 O152 2.435 . S
Gd128 O153 2.717 . S
Gd128 O155 2.395 . S
Gd128 O159 2.327 1_545 S
Gd129 C140 2.818 . S
Gd129 O149 2.395 . S
Gd129 O153 2.327 1_565 S
Gd129 O154 2.377 . S
Gd129 O156 2.448 . S
Gd129 O157 2.506 . S
Gd129 O158 2.435 . S
Gd129 O159 2.717 . S
C130 O148 1.240 1_565 S
C130 O149 1.240 . S
C131 Gd128 2.818 . S
C131 C132 1.509 1_556 S
C131 O150 1.249 . S
C131 O151 1.252 . S
C132 C131 1.509 1_554 S
C132 C133 1.405 . S
C132 C134 1.353 . S
C133 C132 1.405 . S
C133 C137 1.389 . S
C133 H160 0.930 1_554 S
C134 C132 1.353 . S
C134 C136 1.374 . S
C134 H161 0.931 1_545 S
C135 C136 1.359 . S
C135 C137 1.364 . S
C136 C134 1.374 . S
C136 C135 1.359 . S
C136 H162 0.931 1_545 S
C137 C133 1.389 . S
C137 C135 1.364 . S
C137 H163 0.931 . S
C138 O152 1.256 . S
C138 O153 1.257 . S
C139 O154 1.240 1_545 S
C139 O155 1.240 . S
C140 Gd129 2.818 . S
C140 C141 1.510 . S
C140 O156 1.249 . S
C140 O157 1.252 . S
C141 C140 1.510 . S
C141 C142 1.404 . S
C141 C143 1.352 . S
C142 C141 1.404 . S
C142 C146 1.389 . S
C142 H164 0.930 . S
C143 C141 1.352 . S
C143 C145 1.374 . S
C143 H165 0.931 1_565 S
C144 C145 1.359 . S
C144 C146 1.364 . S
C145 C143 1.374 . S
C145 C144 1.359 . S
C145 H166 0.931 1_565 S
C146 C142 1.389 . S
C146 C144 1.364 . S
C146 H167 0.931 . S
C147 O158 1.256 . S
C147 O159 1.257 . S
O148 Gd128 2.377 . S
O148 C130 1.240 1_545 S
O149 Gd129 2.395 . S
O149 C130 1.240 . S
O150 Gd128 2.448 . S
O150 C131 1.249 . S
O151 Gd128 2.506 . S
O151 C131 1.252 . S
O152 Gd128 2.435 . S
O152 C138 1.256 . S
O153 Gd128 2.717 . S
O153 Gd129 2.327 1_545 S
O153 C138 1.257 . S
O154 Gd129 2.377 . S
O154 C139 1.240 1_565 S
O155 Gd128 2.395 . S
O155 C139 1.240 . S
O156 Gd129 2.448 . S
O156 C140 1.249 . S
O157 Gd129 2.506 . S
O157 C140 1.252 . S
O158 Gd129 2.435 . S
O158 C147 1.256 . S
O159 Gd128 2.327 1_565 S
O159 Gd129 2.717 . S
O159 C147 1.257 . S
H160 C133 0.930 1_556 S
H161 C134 0.931 1_565 S
H162 C136 0.931 1_565 S
H163 C137 0.931 . S
H164 C142 0.930 . S
H165 C143 0.931 1_545 S
H166 C145 0.931 1_545 S
H167 C146 0.931 . S
Gd168 C171 2.818 . S
Gd168 O188 2.377 . S
Gd168 O190 2.448 . S
Gd168 O191 2.506 . S
Gd168 O192 2.435 . S
Gd168 O193 2.717 . S
Gd168 O195 2.395 . S
Gd168 O199 2.327 . S
Gd169 C180 2.818 . S
Gd169 O189 2.395 . S
Gd169 O193 2.327 . S
Gd169 O194 2.377 . S
Gd169 O196 2.448 . S
Gd169 O197 2.506 . S
Gd169 O198 2.435 . S
Gd169 O199 2.717 . S
C170 O188 1.240 . S
C170 O189 1.240 . S
C171 Gd168 2.818 . S
C171 C172 1.510 . S
C171 O190 1.249 . S
C171 O191 1.252 . S
C172 C171 1.510 . S
C172 C173 1.405 1_556 S
C172 C174 1.352 1_556 S
C173 C172 1.405 1_554 S
C173 C177 1.389 . S
C173 H200 0.930 1_554 S
C174 C172 1.352 1_554 S
C174 C176 1.374 . S
C174 H201 0.931 . S
C175 C176 1.359 . S
C175 C177 1.364 . S
C176 C174 1.374 . S
C176 C175 1.359 . S
C176 H202 0.931 . S
C177 C173 1.389 . S
C177 C175 1.364 . S
C177 H203 0.931 . S
C178 O192 1.256 . S
C178 O193 1.257 . S
C179 O194 1.240 . S
C179 O195 1.240 . S
C180 Gd169 2.818 . S
C180 C181 1.510 . S
C180 O196 1.249 . S
C180 O197 1.252 . S
C181 C180 1.510 . S
C181 C182 1.404 . S
C181 C183 1.352 . S
C182 C181 1.404 . S
C182 C186 1.389 . S
C182 H204 0.930 . S
C183 C181 1.352 . S
C183 C185 1.374 . S
C183 H205 0.931 . S
C184 C185 1.359 . S
C184 C186 1.364 . S
C185 C183 1.374 . S
C185 C184 1.359 . S
C185 H206 0.931 . S
C186 C182 1.389 . S
C186 C184 1.364 . S
C186 H207 0.931 . S
C187 O198 1.256 . S
C187 O199 1.257 . S
O188 Gd168 2.377 . S
O188 C170 1.240 . S
O189 Gd169 2.395 . S
O189 C170 1.240 . S
O190 Gd168 2.448 . S
O190 C171 1.249 . S
O191 Gd168 2.506 . S
O191 C171 1.252 . S
O192 Gd168 2.435 . S
O192 C178 1.256 . S
O193 Gd168 2.717 . S
O193 Gd169 2.327 . S
O193 C178 1.257 . S
O194 Gd169 2.377 . S
O194 C179 1.240 . S
O195 Gd168 2.395 . S
O195 C179 1.240 . S
O196 Gd169 2.448 . S
O196 C180 1.249 . S
O197 Gd169 2.506 . S
O197 C180 1.252 . S
O198 Gd169 2.435 . S
O198 C187 1.256 . S
O199 Gd168 2.327 . S
O199 Gd169 2.717 . S
O199 C187 1.257 . S
H200 C173 0.930 1_556 S
H201 C174 0.931 . S
H202 C176 0.931 . S
H203 C177 0.931 . S
H204 C182 0.930 . S
H205 C183 0.931 . S
H206 C185 0.931 . S
H207 C186 0.931 . S
Gd208 C211 2.818 . S
Gd208 O228 2.377 . S
Gd208 O230 2.448 . S
Gd208 O231 2.506 . S
Gd208 O232 2.435 . S
Gd208 O233 2.717 1_655 S
Gd208 O235 2.395 1_655 S
Gd208 O239 2.327 . S
Gd209 C220 2.818 . S
Gd209 O229 2.395 1_455 S
Gd209 O233 2.327 . S
Gd209 O234 2.377 . S
Gd209 O236 2.448 . S
Gd209 O237 2.506 . S
Gd209 O238 2.435 . S
Gd209 O239 2.717 1_455 S
C210 O228 1.240 . S
C210 O229 1.240 . S
C211 Gd208 2.818 . S
C211 C212 1.512 . S
C211 O230 1.249 . S
C211 O231 1.252 . S
C212 C211 1.512 . S
C212 C213 1.404 1_556 S
C212 C214 1.351 1_556 S
C213 C212 1.404 1_554 S
C213 C217 1.389 . S
C213 H240 0.930 1_554 S
C214 C212 1.351 1_554 S
C214 C216 1.374 . S
C214 H241 0.931 . S
C215 C216 1.359 . S
C215 C217 1.364 . S
C216 C214 1.374 . S
C216 C215 1.359 . S
C216 H242 0.931 . S
C217 C213 1.389 . S
C217 C215 1.364 . S
C217 H243 0.931 . S
C218 O232 1.269 . S
C218 O233 1.250 1_655 S
C219 O234 1.240 . S
C219 O235 1.240 . S
C220 Gd209 2.818 . S
C220 C221 1.510 . S
C220 O236 1.249 . S
C220 O237 1.252 . S
C221 C220 1.510 . S
C221 C222 1.404 . S
C221 C223 1.352 . S
C222 C221 1.404 . S
C222 C226 1.389 . S
C222 H244 0.930 . S
C223 C221 1.352 . S
C223 C225 1.374 . S
C223 H245 0.931 . S
C224 C225 1.359 . S
C224 C226 1.364 . S
C225 C223 1.374 . S
C225 C224 1.359 . S
C225 H246 0.931 . S
C226 C222 1.389 . S
C226 C224 1.364 . S
C226 H247 0.931 . S
C227 O238 1.256 . S
C227 O239 1.257 1_455 S
O228 Gd208 2.377 . S
O228 C210 1.240 . S
O229 Gd209 2.395 1_655 S
O229 C210 1.240 . S
O230 Gd208 2.448 . S
O230 C211 1.249 . S
O231 Gd208 2.506 . S
O231 C211 1.252 . S
O232 Gd208 2.435 . S
O232 C218 1.269 . S
O233 Gd208 2.717 1_455 S
O233 Gd209 2.327 . S
O233 C218 1.250 1_455 S
O234 Gd209 2.377 . S
O234 C219 1.240 . S
O235 Gd208 2.395 1_455 S
O235 C219 1.240 . S
O236 Gd209 2.448 . S
O236 C220 1.249 . S
O237 Gd209 2.506 . S
O237 C220 1.252 . S
O238 Gd209 2.435 . S
O238 C227 1.256 . S
O239 Gd208 2.327 . S
O239 Gd209 2.717 1_655 S
O239 C227 1.257 1_655 S
H240 C213 0.930 1_556 S
H241 C214 0.931 . S
H242 C216 0.931 . S
H243 C217 0.931 . S
H244 C222 0.930 . S
H245 C223 0.931 . S
H246 C225 0.931 . S
H247 C226 0.931 . S
H248 C254 0.930 . S
H249 C258 0.930 . S
H250 C263 0.929 . S
H251 C261 0.929 . S
H252 C256 0.929 . S
H253 C262 0.929 . S
C254 H248 0.930 . S
C254 C255 1.367 1_565 S
C254 C262 1.378 . S
C255 C254 1.367 1_545 S
C255 C263 1.433 . S
C256 H252 0.929 . S
C256 C258 1.378 . S
C256 C260 1.350 . S
C257 C260 1.463 . S
C257 C262 1.350 1_545 S
C257 N265 1.427 . S
C258 H249 0.930 . S
C258 C256 1.378 . S
C258 C259 1.367 . S
C259 C258 1.367 . S
C259 C261 1.433 1_545 S
C260 C256 1.350 . S
C260 C257 1.463 . S
C260 N264 1.427 1_545 S
C261 H251 0.929 . S
C261 C259 1.433 1_565 S
C261 N264 1.384 . S
C262 H253 0.929 . S
C262 C254 1.378 . S
C262 C257 1.350 1_565 S
C263 H250 0.929 . S
C263 C255 1.433 . S
C263 N265 1.384 . S
N264 C260 1.427 1_565 S
N264 C261 1.384 . S
N265 C257 1.427 . S
N265 C263 1.384 . S
H266 C272 0.930 . S
H267 C276 0.930 . S
H268 C281 0.929 . S
H269 C279 0.929 . S
H270 C274 0.929 . S
H271 C280 0.929 . S
C272 H266 0.930 . S
C272 C273 1.367 . S
C272 C280 1.378 . S
C273 C272 1.367 . S
C273 C281 1.433 . S
C274 H270 0.929 . S
C274 C276 1.378 . S
C274 C278 1.350 . S
C275 C278 1.463 . S
C275 C280 1.350 . S
C275 N283 1.427 . S
C276 H267 0.930 . S
C276 C274 1.378 . S
C276 C277 1.367 . S
C277 C276 1.367 . S
C277 C279 1.433 . S
C278 C274 1.350 . S
C278 C275 1.463 . S
C278 N282 1.427 . S
C279 H269 0.929 . S
C279 C277 1.433 . S
C279 N282 1.384 . S
C280 H271 0.929 . S
C280 C272 1.378 . S
C280 C275 1.350 . S
C281 H268 0.929 . S
C281 C273 1.433 . S
C281 N283 1.384 . S
N282 C278 1.427 . S
N282 C279 1.384 . S
N283 C275 1.427 . S
N283 C281 1.384 . S
H284 C290 0.930 . S
H285 C294 0.930 . S
H286 C299 0.929 . S
H287 C297 0.929 . S
H288 C292 0.929 . S
H289 C298 0.929 . S
C290 H284 0.930 . S
C290 C291 1.367 . S
C290 C298 1.378 . S
C291 C290 1.367 . S
C291 C299 1.433 . S
C292 H288 0.929 . S
C292 C294 1.378 . S
C292 C296 1.350 . S
C293 C296 1.463 . S
C293 C298 1.350 . S
C293 N301 1.427 . S
C294 H285 0.930 . S
C294 C292 1.378 . S
C294 C295 1.367 . S
C295 C294 1.367 . S
C295 C297 1.433 . S
C296 C292 1.350 . S
C296 C293 1.463 . S
C296 N300 1.427 . S
C297 H287 0.929 . S
C297 C295 1.433 . S
C297 N300 1.384 . S
C298 H289 0.929 . S
C298 C290 1.378 . S
C298 C293 1.350 . S
C299 H286 0.929 . S
C299 C291 1.433 . S
C299 N301 1.384 . S
N300 C296 1.427 . S
N300 C297 1.384 . S
N301 C293 1.427 . S
N301 C299 1.384 . S
H302 C308 0.930 . S
H303 C312 0.930 . S
H304 C317 0.929 . S
H305 C315 0.929 . S
H306 C310 0.929 . S
H307 C316 0.929 . S
C308 H302 0.930 . S
C308 C309 1.367 . S
C308 C316 1.378 . S
C309 C308 1.367 . S
C309 C317 1.433 1_455 S
C310 H306 0.929 . S
C310 C312 1.378 . S
C310 C314 1.350 1_655 S
C311 C314 1.463 . S
C311 C316 1.350 . S
C311 N319 1.427 1_455 S
C312 H303 0.930 . S
C312 C310 1.378 . S
C312 C313 1.367 1_655 S
C313 C312 1.367 1_455 S
C313 C315 1.433 . S
C314 C310 1.350 1_455 S
C314 C311 1.463 . S
C314 N318 1.427 . S
C315 H305 0.929 . S
C315 C313 1.433 . S
C315 N318 1.384 . S
C316 H307 0.929 . S
C316 C308 1.378 . S
C316 C311 1.350 . S
C317 H304 0.929 . S
C317 C309 1.433 1_655 S
C317 N319 1.384 . S
N318 C314 1.427 . S
N318 C315 1.384 . S
N319 C311 1.427 1_655 S
N319 C317 1.384 . S
H320 C326 0.930 . S
H321 C330 0.930 . S
H322 C335 0.929 . S
H323 C333 0.929 . S
H324 C328 0.929 . S
H325 C334 0.929 . S
C326 H320 0.930 . S
C326 C327 1.367 . S
C326 C334 1.378 . S
C327 C326 1.367 . S
C327 C335 1.433 1_565 S
C328 H324 0.929 . S
C328 C330 1.378 1_554 S
C328 C332 1.350 1_545 S
C329 C332 1.463 . S
C329 C334 1.350 . S
C329 N337 1.427 1_565 S
C330 H321 0.930 . S
C330 C328 1.378 1_556 S
C330 C331 1.367 1_545 S
C331 C330 1.367 1_565 S
C331 C333 1.433 . S
C332 C328 1.350 1_565 S
C332 C329 1.463 . S
C332 N336 1.427 . S
C333 H323 0.929 . S
C333 C331 1.433 . S
C333 N336 1.384 1_556 S
C334 H325 0.929 . S
C334 C326 1.378 . S
C334 C329 1.350 . S
C335 H322 0.929 . S
C335 C327 1.433 1_545 S
C335 N337 1.384 . S
N336 C332 1.427 . S
N336 C333 1.384 1_554 S
N337 C329 1.427 1_545 S
N337 C335 1.384 . S
H338 C344 0.930 . S
H339 C348 0.930 1_556 S
H340 C353 0.929 . S
H341 C351 0.929 . S
H342 C346 0.929 . S
H343 C352 0.929 . S
C344 H338 0.930 . S
C344 C345 1.367 . S
C344 C352 1.378 . S
C345 C344 1.367 . S
C345 C353 1.433 . S
C346 H342 0.929 . S
C346 C348 1.381 . S
C346 C350 1.350 . S
C347 C350 1.463 . S
C347 C352 1.350 . S
C347 N355 1.427 . S
C348 H339 0.930 1_554 S
C348 C346 1.381 . S
C348 C349 1.364 1_554 S
C349 C348 1.364 1_556 S
C349 C351 1.433 . S
C350 C346 1.350 . S
C350 C347 1.463 . S
C350 N354 1.427 . S
C351 H341 0.929 . S
C351 C349 1.433 . S
C351 N354 1.384 1_556 S
C352 H343 0.929 . S
C352 C344 1.378 . S
C352 C347 1.350 . S
C353 H340 0.929 . S
C353 C345 1.433 . S
C353 N355 1.384 . S
N354 C350 1.427 . S
N354 C351 1.384 1_554 S
N355 C347 1.427 . S
N355 C353 1.384 . S
H356 C362 0.930 . S
H357 C366 0.930 . S
H358 C371 0.929 . S
H359 C369 0.929 . S
H360 C364 0.929 . S
H361 C370 0.929 . S
C362 H356 0.930 . S
C362 C363 1.367 . S
C362 C370 1.378 . S
C363 C362 1.367 . S
C363 C371 1.433 . S
C364 H360 0.929 . S
C364 C366 1.378 1_554 S
C364 C368 1.350 . S
C365 C368 1.463 . S
C365 C370 1.350 . S
C365 N373 1.427 . S
C366 H357 0.930 . S
C366 C364 1.378 1_556 S
C366 C367 1.367 . S
C367 C366 1.367 . S
C367 C369 1.433 . S
C368 C364 1.350 . S
C368 C365 1.463 . S
C368 N372 1.427 . S
C369 H359 0.929 . S
C369 C367 1.433 . S
C369 N372 1.384 1_556 S
C370 H361 0.929 . S
C370 C362 1.378 . S
C370 C365 1.350 . S
C371 H358 0.929 . S
C371 C363 1.433 . S
C371 N373 1.384 . S
N372 C368 1.427 . S
N372 C369 1.384 1_554 S
N373 C365 1.427 . S
N373 C371 1.384 . S
H374 C380 0.930 . S
H375 C384 0.930 . S
H376 C389 0.929 . S
H377 C387 0.929 . S
H378 C382 0.929 . S
H379 C388 0.929 . S
C380 H374 0.930 . S
C380 C381 1.367 . S
C380 C388 1.378 . S
C381 C380 1.367 . S
C381 C389 1.433 1_655 S
C382 H378 0.929 . S
C382 C384 1.378 . S
C382 C386 1.350 1_456 S
C383 C386 1.463 . S
C383 C388 1.350 . S
C383 N391 1.427 1_655 S
C384 H375 0.930 . S
C384 C382 1.378 . S
C384 C385 1.367 1_455 S
C385 C384 1.367 1_655 S
C385 C387 1.433 1_556 S
C386 C382 1.350 1_654 S
C386 C383 1.463 . S
C386 N390 1.427 . S
C387 H377 0.929 . S
C387 C385 1.433 1_554 S
C387 N390 1.384 . S
C388 H379 0.929 . S
C388 C380 1.378 . S
C388 C383 1.350 . S
C389 H376 0.929 . S
C389 C381 1.433 1_455 S
C389 N391 1.384 . S
N390 C386 1.427 . S
N390 C387 1.384 . S
N391 C383 1.427 1_455 S
N391 C389 1.384 . S
H392 C398 0.930 . S
H393 C402 0.930 . S
H394 C407 0.929 . S
H395 C405 0.929 . S
H396 C400 0.929 . S
H397 C406 0.929 . S
C398 H392 0.930 . S
C398 C399 1.367 1_655 S
C398 C406 1.378 . S
C399 C398 1.367 1_455 S
C399 C407 1.433 . S
C400 H396 0.929 . S
C400 C402 1.378 . S
C400 C404 1.350 . S
C401 C404 1.463 . S
C401 C406 1.350 . S
C401 N409 1.427 1_655 S
C402 H393 0.930 . S
C402 C400 1.378 . S
C402 C403 1.367 . S
C403 C402 1.367 . S
C403 C405 1.433 . S
C404 C400 1.350 . S
C404 C401 1.463 . S
C404 N408 1.427 . S
C405 H395 0.929 . S
C405 C403 1.433 . S
C405 N408 1.384 . S
C406 H397 0.929 . S
C406 C398 1.378 . S
C406 C401 1.350 . S
C407 H394 0.929 . S
C407 C399 1.433 . S
C407 N409 1.384 . S
N408 C404 1.427 . S
N408 C405 1.384 . S
N409 C401 1.427 1_455 S
N409 C407 1.384 . S
H410 C416 0.930 . S
H411 C420 0.930 . S
H412 C425 0.929 . S
H413 C423 0.929 . S
H414 C418 0.929 . S
H415 C424 0.929 . S
C416 H410 0.930 . S
C416 C417 1.367 . S
C416 C424 1.378 1_545 S
C417 C416 1.367 . S
C417 C425 1.433 1_545 S
C418 H414 0.929 . S
C418 C420 1.378 . S
C418 C422 1.350 . S
C419 C422 1.463 . S
C419 C424 1.350 . S
C419 N427 1.427 . S
C420 H411 0.930 . S
C420 C418 1.378 . S
C420 C421 1.367 . S
C421 C420 1.367 . S
C421 C423 1.433 . S
C422 C418 1.350 . S
C422 C419 1.463 . S
C422 N426 1.427 . S
C423 H413 0.929 . S
C423 C421 1.433 . S
C423 N426 1.384 . S
C424 H415 0.929 . S
C424 C416 1.378 1_565 S
C424 C419 1.350 . S
C425 H412 0.929 . S
C425 C417 1.433 1_565 S
C425 N427 1.384 . S
N426 C422 1.427 . S
N426 C423 1.384 . S
N427 C419 1.427 . S
N427 C425 1.384 . S
H428 C434 0.930 . S
H429 C438 0.930 . S
H430 C443 0.929 . S
H431 C441 0.929 . S
H432 C436 0.929 . S
H433 C442 0.929 . S
C434 H428 0.930 . S
C434 C435 1.367 . S
C434 C442 1.378 . S
C435 C434 1.367 . S
C435 C443 1.433 . S
C436 H432 0.929 . S
C436 C438 1.378 . S
C436 C440 1.350 . S
C437 C440 1.463 . S
C437 C442 1.350 . S
C437 N445 1.427 . S
C438 H429 0.930 . S
C438 C436 1.378 . S
C438 C439 1.367 . S
C439 C438 1.367 . S
C439 C441 1.433 . S
C440 C436 1.350 . S
C440 C437 1.463 . S
C440 N444 1.427 . S
C441 H431 0.929 . S
C441 C439 1.433 . S
C441 N444 1.384 . S
C442 H433 0.929 . S
C442 C434 1.378 . S
C442 C437 1.350 . S
C443 H430 0.929 . S
C443 C435 1.433 . S
C443 N445 1.384 . S
N444 C440 1.427 . S
N444 C441 1.384 . S
N445 C437 1.427 . S
N445 C443 1.384 . S
H446 C452 0.930 . S
H447 C456 0.930 . S
H448 C461 0.929 . S
H449 C459 0.929 . S
H450 C454 0.929 . S
H451 C460 0.929 . S
C452 H446 0.930 . S
C452 C453 1.367 . S
C452 C460 1.378 . S
C453 C452 1.367 . S
C453 C461 1.433 . S
C454 H450 0.929 . S
C454 C456 1.378 . S
C454 C458 1.350 . S
C455 C458 1.463 . S
C455 C460 1.350 . S
C455 N463 1.427 . S
C456 H447 0.930 . S
C456 C454 1.378 . S
C456 C457 1.367 . S
C457 C456 1.367 . S
C457 C459 1.433 . S
C458 C454 1.350 . S
C458 C455 1.463 . S
C458 N462 1.427 . S
C459 H449 0.929 . S
C459 C457 1.433 . S
C459 N462 1.384 . S
C460 H451 0.929 . S
C460 C452 1.378 . S
C460 C455 1.350 . S
C461 H448 0.929 . S
C461 C453 1.433 . S
C461 N463 1.384 . S
N462 C458 1.427 . S
N462 C459 1.384 . S
N463 C455 1.427 . S
N463 C461 1.384 . S
H464 C470 0.930 . S
H465 C474 0.930 . S
H466 C479 0.929 . S
H467 C477 0.929 . S
H468 C472 0.929 . S
H469 C478 0.929 . S
C470 H464 0.930 . S
C470 C471 1.367 . S
C470 C478 1.378 . S
C471 C470 1.367 . S
C471 C479 1.433 1_655 S
C472 H468 0.929 . S
C472 C474 1.378 . S
C472 C476 1.350 . S
C473 C476 1.463 . S
C473 C478 1.350 1_455 S
C473 N481 1.427 . S
C474 H465 0.930 . S
C474 C472 1.378 . S
C474 C475 1.367 . S
C475 C474 1.367 . S
C475 C477 1.433 . S
C476 C472 1.350 . S
C476 C473 1.463 . S
C476 N480 1.427 . S
C477 H467 0.929 . S
C477 C475 1.433 . S
C477 N480 1.384 . S
C478 H469 0.929 . S
C478 C470 1.378 . S
C478 C473 1.350 1_655 S
C479 H466 0.929 . S
C479 C471 1.433 1_455 S
C479 N481 1.384 . S
N480 C476 1.427 . S
N480 C477 1.384 . S
N481 C473 1.427 . S
N481 C479 1.384 . S
H482 C488 0.930 . S
H483 C492 0.930 . S
H484 C497 0.929 . S
H485 C495 0.924 1_565 S
H486 C490 0.929 . S
H487 C496 0.929 . S
C488 H482 0.930 . S
C488 C489 1.367 . S
C488 C496 1.378 . S
C489 C488 1.367 . S
C489 C497 1.433 1_565 S
C490 H486 0.929 . S
C490 C492 1.378 . S
C490 C494 1.350 . S
C491 C494 1.463 . S
C491 C496 1.350 1_545 S
C491 N499 1.427 . S
C492 H483 0.930 . S
C492 C490 1.378 . S
C492 C493 1.367 . S
C493 C492 1.367 . S
C493 C495 1.433 . S
C494 C490 1.350 . S
C494 C491 1.463 . S
C494 N498 1.427 . S
C495 H485 0.924 1_545 S
C495 C493 1.433 . S
C495 N498 1.384 . S
C496 H487 0.929 . S
C496 C488 1.378 . S
C496 C491 1.350 1_565 S
C497 H484 0.929 . S
C497 C489 1.433 1_545 S
C497 N499 1.384 . S
N498 C494 1.427 . S
N498 C495 1.384 . S
N499 C491 1.427 . S
N499 C497 1.384 . S
H500 C506 0.930 . S
H501 C510 0.930 . S
H502 C515 0.929 . S
H503 C513 0.929 1_556 S
H504 C508 0.929 . S
H505 C514 0.929 . S
C506 H500 0.930 . S
C506 C507 1.367 . S
C506 C514 1.378 . S
C507 C506 1.367 . S
C507 C515 1.433 . S
C508 H504 0.929 . S
C508 C510 1.378 . S
C508 C512 1.350 . S
C509 C512 1.463 . S
C509 C514 1.350 . S
C509 N517 1.427 . S
C510 H501 0.930 . S
C510 C508 1.378 . S
C510 C511 1.367 . S
C511 C510 1.367 . S
C511 C513 1.433 . S
C512 C508 1.350 . S
C512 C509 1.463 . S
C512 N516 1.427 . S
C513 H503 0.929 1_554 S
C513 C511 1.433 . S
C513 N516 1.384 . S
C514 H505 0.929 . S
C514 C506 1.378 . S
C514 C509 1.350 . S
C515 H502 0.929 . S
C515 C507 1.433 . S
C515 N517 1.384 . S
N516 C512 1.427 . S
N516 C513 1.384 . S
N517 C509 1.427 . S
N517 C515 1.384 . S
H518 C524 0.930 . S
H519 C528 0.930 . S
H520 C533 0.929 . S
H521 C531 0.929 . S
H522 C526 0.929 . S
H523 C532 0.929 . S
C524 H518 0.930 . S
C524 C525 1.367 . S
C524 C532 1.378 . S
C525 C524 1.367 . S
C525 C533 1.433 . S
C526 H522 0.929 . S
C526 C528 1.378 . S
C526 C530 1.350 . S
C527 C530 1.463 . S
C527 C532 1.350 . S
C527 N535 1.427 . S
C528 H519 0.930 . S
C528 C526 1.378 . S
C528 C529 1.367 . S
C529 C528 1.367 . S
C529 C531 1.433 . S
C530 C526 1.350 . S
C530 C527 1.463 . S
C530 N534 1.427 . S
C531 H521 0.929 . S
C531 C529 1.433 . S
C531 N534 1.384 . S
C532 H523 0.929 . S
C532 C524 1.378 . S
C532 C527 1.350 . S
C533 H520 0.929 . S
C533 C525 1.433 . S
C533 N535 1.384 . S
N534 C530 1.427 . S
N534 C531 1.384 . S
N535 C527 1.427 . S
N535 C533 1.384 . S
H536 C542 0.930 . S
H537 C546 0.930 . S
H538 C551 0.929 . S
H539 C549 0.925 1_655 S
H540 C544 0.929 . S
H541 C550 0.929 . S
C542 H536 0.930 . S
C542 C543 1.367 1_655 S
C542 C550 1.378 . S
C543 C542 1.367 1_455 S
C543 C551 1.433 . S
C544 H540 0.929 . S
C544 C546 1.378 . S
C544 C548 1.350 . S
C545 C548 1.463 . S
C545 C550 1.350 1_455 S
C545 N553 1.427 . S
C546 H537 0.930 . S
C546 C544 1.378 . S
C546 C547 1.367 . S
C547 C546 1.367 . S
C547 C549 1.438 . S
C548 C544 1.350 . S
C548 C545 1.463 . S
C548 N552 1.427 1_455 S
C549 H539 0.925 1_455 S
C549 C547 1.438 . S
C549 N552 1.383 1_455 S
C550 H541 0.929 . S
C550 C542 1.378 . S
C550 C545 1.350 1_655 S
C551 H538 0.929 . S
C551 C543 1.433 . S
C551 N553 1.384 . S
N552 C548 1.427 1_655 S
N552 C549 1.383 1_655 S
N553 C545 1.427 . S
N553 C551 1.384 . S
H554 C560 0.930 . S
H555 C564 0.930 . S
H556 C569 0.929 . S
H557 C567 0.929 . S
H558 C562 0.929 . S
H559 C568 0.929 . S
C560 H554 0.930 . S
C560 C561 1.367 1_565 S
C560 C568 1.378 . S
C561 C560 1.367 1_545 S
C561 C569 1.433 . S
C562 H558 0.929 . S
C562 C564 1.378 . S
C562 C566 1.350 . S
C563 C566 1.463 . S
C563 C568 1.350 1_545 S
C563 N571 1.427 . S
C564 H555 0.930 . S
C564 C562 1.378 . S
C564 C565 1.367 . S
C565 C564 1.367 . S
C565 C567 1.433 1_545 S
C566 C562 1.350 . S
C566 C563 1.463 . S
C566 N570 1.427 1_545 S
C567 H557 0.929 . S
C567 C565 1.433 1_565 S
C567 N570 1.384 . S
C568 H559 0.929 . S
C568 C560 1.378 . S
C568 C563 1.350 1_565 S
C569 H556 0.929 . S
C569 C561 1.433 . S
C569 N571 1.384 . S
N570 C566 1.427 1_565 S
N570 C567 1.384 . S
N571 C563 1.427 . S
N571 C569 1.384 . S
H572 C578 0.930 . S
H573 C582 0.930 . S
H574 C587 0.929 . S
H575 C585 0.929 . S
H576 C580 0.929 . S
H577 C586 0.929 . S
C578 H572 0.930 . S
C578 C579 1.367 . S
C578 C586 1.378 . S
C579 C578 1.367 . S
C579 C587 1.433 . S
C580 H576 0.929 . S
C580 C582 1.378 . S
C580 C584 1.350 . S
C581 C584 1.463 . S
C581 C586 1.350 . S
C581 N589 1.427 . S
C582 H573 0.930 . S
C582 C580 1.378 . S
C582 C583 1.367 . S
C583 C582 1.367 . S
C583 C585 1.433 . S
C584 C580 1.350 . S
C584 C581 1.463 . S
C584 N588 1.427 . S
C585 H575 0.929 . S
C585 C583 1.433 . S
C585 N588 1.384 . S
C586 H577 0.929 . S
C586 C578 1.378 . S
C586 C581 1.350 . S
C587 H574 0.929 . S
C587 C579 1.433 . S
C587 N589 1.384 . S
N588 C584 1.427 . S
N588 C585 1.384 . S
N589 C581 1.427 . S
N589 C587 1.384 . S
H590 C596 0.930 . S
H591 C600 0.930 . S
H592 C605 0.929 . S
H593 C603 0.929 . S
H594 C598 0.929 . S
H595 C604 0.929 . S
C596 H590 0.930 . S
C596 C597 1.367 . S
C596 C604 1.378 . S
C597 C596 1.367 . S
C597 C605 1.433 . S
C598 H594 0.929 . S
C598 C600 1.378 . S
C598 C602 1.350 . S
C599 C602 1.463 . S
C599 C604 1.350 . S
C599 N607 1.427 . S
C600 H591 0.930 . S
C600 C598 1.378 . S
C600 C601 1.367 . S
C601 C600 1.367 . S
C601 C603 1.433 . S
C602 C598 1.350 . S
C602 C599 1.463 . S
C602 N606 1.427 . S
C603 H593 0.929 . S
C603 C601 1.433 . S
C603 N606 1.384 . S
C604 H595 0.929 . S
C604 C596 1.378 . S
C604 C599 1.350 . S
C605 H592 0.929 . S
C605 C597 1.433 . S
C605 N607 1.384 . S
N606 C602 1.427 . S
N606 C603 1.384 . S
N607 C599 1.427 . S
N607 C605 1.384 . S
H608 C614 0.930 . S
H609 C618 0.930 . S
H610 C623 0.929 . S
H611 C621 0.929 1_455 S
H612 C616 0.929 . S
H613 C622 0.929 . S
C614 H608 0.930 . S
C614 C615 1.367 1_455 S
C614 C622 1.378 . S
C615 C614 1.367 1_655 S
C615 C623 1.433 . S
C616 H612 0.929 . S
C616 C618 1.378 . S
C616 C620 1.350 . S
C617 C620 1.463 . S
C617 C622 1.350 1_655 S
C617 N625 1.427 . S
C618 H609 0.930 . S
C618 C616 1.378 . S
C618 C619 1.367 . S
C619 C618 1.367 . S
C619 C621 1.433 . S
C620 C616 1.350 . S
C620 C617 1.463 . S
C620 N624 1.427 . S
C621 H611 0.929 1_655 S
C621 C619 1.433 . S
C621 N624 1.384 . S
C622 H613 0.929 . S
C622 C614 1.378 . S
C622 C617 1.350 1_455 S
C623 H610 0.929 . S
C623 C615 1.433 . S
C623 N625 1.384 . S
N624 C620 1.427 . S
N624 C621 1.384 . S
N625 C617 1.427 . S
N625 C623 1.384 . S
H626 C632 0.930 . S
H627 C636 0.930 . S
H628 C641 0.929 . S
H629 C639 0.929 . S
H630 C634 0.929 . S
H631 C640 0.929 . S
C632 H626 0.930 . S
C632 C633 1.367 . S
C632 C640 1.378 . S
C633 C632 1.367 . S
C633 C641 1.433 1_565 S
C634 H630 0.929 . S
C634 C636 1.378 . S
C634 C638 1.350 1_545 S
C635 C638 1.463 . S
C635 C640 1.350 . S
C635 N643 1.427 1_565 S
C636 H627 0.930 . S
C636 C634 1.378 . S
C636 C637 1.367 1_545 S
C637 C636 1.367 1_565 S
C637 C639 1.433 . S
C638 C634 1.350 1_565 S
C638 C635 1.463 . S
C638 N642 1.427 . S
C639 H629 0.929 . S
C639 C637 1.433 . S
C639 N642 1.384 . S
C640 H631 0.929 . S
C640 C632 1.378 . S
C640 C635 1.350 . S
C641 H628 0.929 . S
C641 C633 1.433 1_545 S
C641 N643 1.384 . S
N642 C638 1.427 . S
N642 C639 1.384 . S
N643 C635 1.427 1_545 S
N643 C641 1.384 . S
H644 C650 0.930 . S
H645 C654 0.930 . S
H646 C659 0.929 . S
H647 C657 0.929 . S
H648 C652 0.929 . S
H649 C658 0.929 . S
C650 H644 0.930 . S
C650 C651 1.367 . S
C650 C658 1.378 . S
C651 C650 1.367 . S
C651 C659 1.433 . S
C652 H648 0.929 . S
C652 C654 1.378 . S
C652 C656 1.350 . S
C653 C656 1.463 . S
C653 C658 1.350 . S
C653 N661 1.427 . S
C654 H645 0.930 . S
C654 C652 1.378 . S
C654 C655 1.367 . S
C655 C654 1.367 . S
C655 C657 1.433 . S
C656 C652 1.350 . S
C656 C653 1.463 . S
C656 N660 1.427 . S
C657 H647 0.929 . S
C657 C655 1.433 . S
C657 N660 1.384 . S
C658 H649 0.929 . S
C658 C650 1.378 . S
C658 C653 1.350 . S
C659 H646 0.929 . S
C659 C651 1.433 . S
C659 N661 1.384 . S
N660 C656 1.427 . S
N660 C657 1.384 . S
N661 C653 1.427 . S
N661 C659 1.384 . S
H662 C668 0.930 . S
H663 C672 0.930 . S
H664 C677 0.929 . S
H665 C675 0.929 . S
H666 C670 0.929 . S
H667 C676 0.929 . S
C668 H662 0.930 . S
C668 C669 1.367 . S
C668 C676 1.378 . S
C669 C668 1.367 . S
C669 C677 1.433 . S
C670 H666 0.929 . S
C670 C672 1.378 . S
C670 C674 1.350 . S
C671 C674 1.463 . S
C671 C676 1.350 . S
C671 N679 1.427 . S
C672 H663 0.930 . S
C672 C670 1.378 . S
C672 C673 1.367 . S
C673 C672 1.367 . S
C673 C675 1.433 . S
C674 C670 1.350 . S
C674 C671 1.463 . S
C674 N678 1.427 . S
C675 H665 0.929 . S
C675 C673 1.433 . S
C675 N678 1.384 . S
C676 H667 0.929 . S
C676 C668 1.378 . S
C676 C671 1.350 . S
C677 H664 0.929 . S
C677 C669 1.433 . S
C677 N679 1.384 . S
N678 C674 1.427 . S
N678 C675 1.384 . S
N679 C671 1.427 . S
N679 C677 1.384 . S
C255 C76 1.832 . S
C259 C98 1.965 1_545 S
C277 C138 1.969 . S
C273 C87 1.827 . S
C295 C178 1.965 . S
C291 C54 1.837 . S
C313 C218 1.964 1_455 S
C309 C65 1.827 . S
C331 C107 1.965 1_565 S
C327 C32 1.837 . S
C345 C43 1.830 . S
C349 C147 1.969 . S
C363 C10 1.834 . S
C367 C187 1.969 . S
C381 C21 1.841 . S
C385 C227 1.965 1_655 S
C403 C104 0.524 . S
C399 C60 0.546 . S
C421 C144 0.539 . S
C417 C71 0.523 . S
C439 C184 0.553 . S
C435 C82 0.548 . S
C453 C49 0.555 . S
C457 C224 0.548 . S
C471 C16 0.571 . S
C475 C95 0.551 . S
C493 C135 0.552 . S
C489 C27 0.573 . S
C511 C175 0.537 . S
C507 C38 0.562 . S
C525 C5 0.563 . S
C529 C215 0.548 . S
C543 C59 2.002 . S
C547 C99 2.265 . S
C561 C70 2.004 . S
C565 C139 2.267 . S
C583 C179 2.264 . S
C579 C81 2.002 . S
C601 C219 2.263 . S
C597 C48 2.010 . S
C615 C15 2.024 . S
C619 C90 2.269 . S
C637 C130 2.263 . S
C633 C26 2.016 . S
C655 C170 2.268 . S
C651 C37 2.020 . S
C669 C4 2.022 . S
C673 C210 2.267 . S
