# Generated by pormake.
# Topology tsx, (6,3)-cn, num edge types: 1
# Building blocks:
#     Node 0, Type 0, BuildingBlock: VOLQOD_clean_sbu_1, # of connection points: 6
#     Node 1, Type 0, BuildingBlock: VOLQOD_clean_sbu_1, # of connection points: 6
#     Node 2, Type 1, BuildingBlock: CUQRIR_clean_linker_1, # of connection points: 3
#     Node 3, Type 1, BuildingBlock: CUQRIR_clean_linker_1, # of connection points: 3
#     Node 4, Type 1, BuildingBlock: CUQRIR_clean_linker_1, # of connection points: 3
#     Node 5, Type 1, BuildingBlock: CUQRIR_clean_linker_1, # of connection points: 3
#     Edge 6, Type (0, 1), BuildingBlock: FUNLAD_clean_linker_0, # of connection points: 2
#     Edge 7, Type (0, 1), BuildingBlock: FUNLAD_clean_linker_0, # of connection points: 2
#     Edge 8, Type (0, 1), BuildingBlock: FUNLAD_clean_linker_0, # of connection points: 2
#     Edge 9, Type (0, 1), BuildingBlock: FUNLAD_clean_linker_0, # of connection points: 2
#     Edge 10, Type (0, 1), BuildingBlock: FUNLAD_clean_linker_0, # of connection points: 2
#     Edge 11, Type (0, 1), BuildingBlock: FUNLAD_clean_linker_0, # of connection points: 2
#     Edge 12, Type (0, 1), BuildingBlock: FUNLAD_clean_linker_0, # of connection points: 2
#     Edge 13, Type (0, 1), BuildingBlock: FUNLAD_clean_linker_0, # of connection points: 2
#     Edge 14, Type (0, 1), BuildingBlock: FUNLAD_clean_linker_0, # of connection points: 2
#     Edge 15, Type (0, 1), BuildingBlock: FUNLAD_clean_linker_0, # of connection points: 2
#     Edge 16, Type (0, 1), BuildingBlock: FUNLAD_clean_linker_0, # of connection points: 2
#     Edge 17, Type (0, 1), BuildingBlock: FUNLAD_clean_linker_0, # of connection points: 2
# Relax obj value: 0.077
# Max RMSD: 0.143
# Mean RMSD: 0.125
data_MOF--net-tsx--node1-VOLQOD_clean_sbu_1--node2-CUQRIR_clean_linker_1--edge1-FUNLAD_clean_linker_0
_symmetry_space_group_name_H-M    P1
_symmetry_Int_Tables_number       1
_symmetry_cell_setting            triclinic
loop_
_symmetry_equiv_pos_as_xyz
'x, y, z'
_cell_length_a     22.754271
_cell_length_b     23.521166
_cell_length_c     41.696002
_cell_angle_alpha  80.097884
_cell_angle_beta   89.852269
_cell_angle_gamma 90.17814
loop_
_atom_site_label
_atom_site_type_symbol
_atom_site_fract_x
_atom_site_fract_y
_atom_site_fract_z
_atom_type_partial_charge
O0 O 0.08502 0.98279 0.08631 0.0
Zn1 Zn 0.10321 0.98715 0.03834 0.0
O2 O 0.03278 0.00458 0.01153 0.0
Zn3 Zn 0.01447 0.94143 0.98844 0.0
Zn4 Zn 0.96712 0.01581 0.0397 0.0
Zn5 Zn 0.04514 0.07473 0.97959 0.0
O6 O 0.00964 0.96947 0.93997 0.0
O7 O 0.04652 0.05822 0.9338 0.0
O8 O 0.14031 0.91221 0.031 0.0
O9 O 0.0792 0.88252 0.99566 0.0
O10 O 0.9379 0.90183 0.0042 0.0
O11 O 0.90839 0.9512 0.04213 0.0
O12 O 0.9249 0.09001 0.0235 0.0
O13 O 0.16207 0.05237 0.02771 0.0
O14 O 0.9781 0.12997 0.98076 0.0
O15 O 0.11993 0.11506 0.98867 0.0
C16 C 0.04062 -2e-05 0.10065 0.0
C17 C 0.02711 0.01562 0.92177 0.0
C18 C 0.90155 0.91004 0.02625 0.0
C19 C 0.12555 0.87587 0.01299 0.0
C20 C 0.93406 0.13061 -0.00041 0.0
C21 C 0.16227 0.10061 0.00829 0.0
O22 O 0.99407 0.01695 0.08511 0.0
O23 O 0.60509 0.49117 0.58733 0.0
Zn24 Zn 0.62388 0.49806 0.5392 0.0
O25 O 0.55285 0.50972 0.51251 0.0
Zn26 Zn 0.54056 0.44542 0.48919 0.0
Zn27 Zn 0.4864 0.51543 0.54104 0.0
Zn28 Zn 0.55906 0.58106 0.48104 0.0
O29 O 0.53942 0.47262 0.44024 0.0
O30 O 0.5637 0.56523 0.43525 0.0
O31 O 0.66699 0.42651 0.5319 0.0
O32 O 0.60741 0.38939 0.49864 0.0
O33 O 0.46572 0.40158 0.50398 0.0
O34 O 0.43399 0.44645 0.54339 0.0
O35 O 0.43693 0.58441 0.52458 0.0
O36 O 0.67746 0.56739 0.52849 0.0
O37 O 0.48749 0.6306 0.48245 0.0
O38 O 0.62979 0.62683 0.49015 0.0
C39 C 0.55942 0.50516 0.60188 0.0
C40 C 0.55209 0.52097 0.42256 0.0
C41 C 0.42944 0.40608 0.52676 0.0
C42 C 0.65428 0.38721 0.51547 0.0
C43 C 0.44263 0.62628 0.50102 0.0
C44 C 0.67337 0.61562 0.50927 0.0
O45 O 0.51198 0.5194 0.58653 0.0
C46 C 0.00342 0.97567 0.44598 0.0
N47 N 0.0328 0.95843 0.4211 0.0
N48 N 0.96366 0.01667 0.43447 0.0
C49 C 0.01775 0.95675 0.48133 0.0
C50 C 0.97006 0.02406 0.40177 0.0
N51 N 0.01239 0.98884 0.39361 0.0
C52 C 0.93326 0.06415 0.37796 0.0
H53 H 0.99694 0.98508 0.49661 0.0
H54 H 0.06605 0.95677 0.48494 0.0
H55 H 0.0016 0.91205 0.48928 0.0
H56 H 0.95618 0.10633 0.37181 0.0
H57 H 0.88984 0.0715 0.3887 0.0
H58 H 0.92668 0.04647 0.35521 0.0
C59 C 0.98044 0.05713 0.5748 0.0
N60 N 0.00531 0.0804 0.59898 0.0
N61 N 0.93651 0.02058 0.5866 0.0
C62 C 0.99747 0.07173 0.53951 0.0
C63 C 0.93551 0.02233 0.61887 0.0
N64 N 0.97705 0.05927 0.6264 0.0
C65 C 0.8985 0.98321 0.64339 0.0
H66 H 0.96049 0.06328 0.52373 0.0
H67 H 0.03537 0.04468 0.53491 0.0
H68 H 0.01087 0.11771 0.53316 0.0
H69 H 0.88594 0.94327 0.63429 0.0
H70 H 0.85774 0.00629 0.64804 0.0
H71 H 0.92224 0.97118 0.66677 0.0
C72 C 0.48798 0.47395 0.94453 0.0
N73 N 0.5163 0.4488 0.92202 0.0
N74 N 0.4469 0.51139 0.93019 0.0
C75 C 0.50234 0.46431 0.98019 0.0
C76 C 0.451 0.50765 0.89822 0.0
N77 N 0.49278 0.46944 0.89328 0.0
C78 C 0.41607 0.54328 0.87153 0.0
H79 H 0.46154 0.46342 0.99476 0.0
H80 H 0.53021 0.50046 0.98532 0.0
H81 H 0.52609 0.4231 0.98777 0.0
H82 H 0.44176 0.58241 0.8613 0.0
H83 H 0.37367 0.55684 0.88099 0.0
H84 H 0.40765 0.51857 0.85159 0.0
C85 C 0.48044 0.53789 0.07698 0.0
N86 N 0.50866 0.5547 0.10248 0.0
N87 N 0.45043 0.4882 0.08692 0.0
C88 C 0.48565 0.56734 0.04208 0.0
C89 C 0.46115 0.47524 0.11918 0.0
N90 N 0.4967 0.51539 0.12867 0.0
C91 C 0.43575 0.4238 0.1414 0.0
H92 H 0.46665 0.5408 0.0252 0.0
H93 H 0.53242 0.57702 0.0357 0.0
H94 H 0.46131 0.60869 0.03877 0.0
H95 H 0.46781 0.38789 0.14386 0.0
H96 H 0.39438 0.40918 0.13129 0.0
H97 H 0.42699 0.43413 0.16595 0.0
C98 C 0.20914 0.1981 0.99136 0.0
C99 C 0.21002 0.1428 0.01067 0.0
C100 C 0.25018 0.24014 0.99633 0.0
C101 C 0.29284 0.22784 0.02093 0.0
C102 C 0.29561 0.17166 0.03893 0.0
C103 C 0.25467 0.12969 0.03397 0.0
C104 C 0.33407 0.27218 0.02947 0.0
C105 C 0.32427 0.32959 0.02263 0.0
C106 C 0.36064 0.37263 0.03615 0.0
C107 C 0.33557 0.42613 0.03907 0.0
C108 C 0.36608 0.46545 0.05456 0.0
C109 C 0.422 0.45173 0.06741 0.0
H110 H 0.44057 0.32144 0.04448 0.0
C111 C 0.44842 0.39981 0.06324 0.0
C112 C 0.41842 0.36083 0.04741 0.0
H113 H 0.49199 0.38921 0.07279 0.0
H114 H 0.17582 0.20951 0.97289 0.0
H115 H 0.24776 0.28214 0.98105 0.0
H116 H 0.3284 0.16062 0.05776 0.0
H117 H 0.25704 0.08749 0.04914 0.0
H118 H 0.37083 0.25612 0.04488 0.0
H119 H 0.28494 0.34557 0.00947 0.0
H120 H 0.29153 0.43682 0.03027 0.0
H121 H 0.3454 0.50561 0.05757 0.0
C122 C 0.16076 0.79834 0.98367 0.0
C123 C 0.16405 0.82601 0.01092 0.0
C124 C 0.19871 0.75317 0.98054 0.0
C125 C 0.24034 0.73408 0.0048 0.0
C126 C 0.24231 0.76002 0.03267 0.0
C127 C 0.20502 0.80622 0.03552 0.0
C128 C 0.28215 0.68761 0.00081 0.0
C129 C 0.30953 0.68774 0.97218 0.0
C130 C 0.34943 0.64159 0.96544 0.0
C131 C 0.39411 0.65624 0.94224 0.0
C132 C 0.4278 0.61341 0.93187 0.0
C133 C 0.41658 0.55503 0.94395 0.0
H134 H 0.30498 0.57038 0.99622 0.0
C135 C 0.37309 0.54008 0.96781 0.0
C136 C 0.33993 0.5831 0.97876 0.0
H137 H 0.36328 0.49515 0.97686 0.0
H138 H 0.12966 0.8124 0.96432 0.0
H139 H 0.19549 0.7331 0.95909 0.0
H140 H 0.2738 0.74563 0.05177 0.0
H141 H 0.20823 0.8264 0.05693 0.0
H142 H 0.29222 0.65476 0.02172 0.0
H143 H 0.30321 0.72428 0.95264 0.0
H144 H 0.40212 0.70094 0.93155 0.0
H145 H 0.46156 0.62564 0.91362 0.0
C146 C 0.82258 0.86526 0.06441 0.0
C147 C 0.85044 0.87094 0.03387 0.0
C148 C 0.77449 0.82818 0.07183 0.0
C149 C 0.75274 0.79665 0.04866 0.0
C150 C 0.77976 0.80316 0.01794 0.0
C151 C 0.82867 0.83933 0.01074 0.0
C152 C 0.70126 0.75767 0.05573 0.0
C153 C 0.69221 0.72484 0.0851 0.0
C154 C 0.64319 0.68279 0.09117 0.0
C155 C 0.6536 0.62775 0.10922 0.0
C156 C 0.60906 0.58608 0.11345 0.0
C157 C 0.5528 0.5993 0.10058 0.0
H158 H 0.57696 0.73932 0.06571 0.0
C159 C 0.54153 0.65537 0.08404 0.0
C160 C 0.5865 0.69663 0.07901 0.0
H161 H 0.49811 0.66701 0.07468 0.0
H162 H 0.83828 0.88911 0.08273 0.0
H163 H 0.75382 0.82494 0.0955 0.0
H164 H 0.76347 0.77959 -0.00038 0.0
H165 H 0.84892 0.84316 0.98692 0.0
H166 H 0.6725 0.75267 0.03561 0.0
H167 H 0.72441 0.72494 0.1043 0.0
H168 H 0.6969 0.61627 0.11895 0.0
H169 H 0.61912 0.54295 0.12587 0.0
C170 C 0.88505 0.20892 0.96081 0.0
C171 C 0.89097 0.17788 0.99258 0.0
C172 C 0.84106 0.25039 0.95357 0.0
C173 C 0.80281 0.26213 0.97811 0.0
C174 C 0.81041 0.23307 0.01011 0.0
C175 C 0.85359 0.19071 0.01723 0.0
C176 C 0.75421 0.30393 0.97083 0.0
C177 C 0.72173 0.30737 0.94367 0.0
C178 C 0.66962 0.3451 0.93766 0.0
C179 C 0.62022 0.32566 0.92256 0.0
C180 C 0.5697 0.35959 0.91761 0.0
C181 C 0.5684 0.41402 0.92692 0.0
H182 H 0.70651 0.4167 0.95764 0.0
C183 C 0.61837 0.43431 0.94112 0.0
C184 C 0.66851 0.4 0.94667 0.0
H185 H 0.61841 0.47672 0.9479 0.0
H186 H 0.91329 0.20002 0.94132 0.0
H187 H 0.83694 0.27315 0.92879 0.0
H188 H 0.7817 0.24185 0.02943 0.0
H189 H 0.85748 0.16778 0.04199 0.0
H190 H 0.74152 0.32845 0.98958 0.0
H191 H 0.7305 0.27812 0.92668 0.0
H192 H 0.62018 0.28354 0.91535 0.0
H193 H 0.53127 0.34291 0.9071 0.0
C194 C 0.70894 0.71767 0.49401 0.0
C195 C 0.7174 0.6614 0.51122 0.0
C196 C 0.74636 0.76256 0.4989 0.0
C197 C 0.79303 0.75208 0.52115 0.0
C198 C 0.80364 0.69533 0.53679 0.0
C199 C 0.76604 0.65047 0.53207 0.0
C200 C 0.83026 0.79935 0.52943 0.0
C201 C 0.80982 0.85319 0.52909 0.0
C202 C 0.84383 0.89826 0.54194 0.0
C203 C 0.81326 0.94107 0.55482 0.0
C204 C 0.84373 0.98209 0.56896 0.0
C205 C 0.90522 0.98139 0.56997 0.0
H206 H 0.93081 0.86744 0.53186 0.0
C207 C 0.936 0.93995 0.55627 0.0
C208 C 0.90568 0.89878 0.54225 0.0
H209 H 0.98355 0.93879 0.55712 0.0
H210 H 0.67234 0.72754 0.47745 0.0
H211 H 0.73816 0.80543 0.48551 0.0
H212 H 0.8398 0.686 0.55373 0.0
H213 H 0.77421 0.60756 0.54548 0.0
H214 H 0.87344 0.78765 0.53941 0.0
H215 H 0.76452 0.86313 0.52219 0.0
H216 H 0.76566 0.94193 0.55467 0.0
H217 H 0.81952 0.01399 0.57945 0.0
C218 C 0.67929 0.29218 0.49973 0.0
C219 C 0.69543 0.33871 0.51499 0.0
C220 C 0.71921 0.24829 0.49713 0.0
C221 C 0.77632 0.2498 0.50984 0.0
C222 C 0.79205 0.2956 0.52571 0.0
C223 C 0.75194 0.33943 0.52849 0.0
C224 C 0.82208 0.20812 0.50366 0.0
C225 C 0.80962 0.1554 0.49693 0.0
C226 C 0.85374 0.1191 0.48377 0.0
C227 C 0.84371 0.05943 0.48678 0.0
C228 C 0.88115 0.02514 0.47156 0.0
C229 C 0.92827 0.05041 0.45254 0.0
H230 H 0.91046 0.18979 0.46144 0.0
C231 C 0.93898 0.10965 0.4498 0.0
C232 C 0.90219 0.1438 0.46529 0.0
H233 H 0.9752 0.12952 0.43504 0.0
H234 H 0.63613 0.29022 0.48906 0.0
H235 H 0.70578 0.21478 0.48386 0.0
H236 H 0.83594 0.29813 0.53541 0.0
H237 H 0.76584 0.37466 0.54037 0.0
H238 H 0.86753 0.22237 0.50367 0.0
H239 H 0.76508 0.13863 0.50016 0.0
H240 H 0.80614 0.03958 0.50033 0.0
H241 H 0.87238 0.97937 0.47366 0.0
C242 C 0.34748 0.36222 0.56295 0.0
C243 C 0.38119 0.36352 0.53452 0.0
C244 C 0.30202 0.32218 0.57065 0.0
C245 C 0.28852 0.28286 0.5498 0.0
C246 C 0.32262 0.28389 0.52153 0.0
C247 C 0.36847 0.32369 0.51396 0.0
C248 C 0.24054 0.23927 0.55687 0.0
C249 C 0.19738 0.24122 0.57893 0.0
C250 C 0.14924 0.19776 0.58522 0.0
C251 C 0.09664 0.21273 0.59945 0.0
C252 C 0.04967 0.17372 0.6047 0.0
C253 C 0.05465 0.11918 0.59583 0.0
H254 H 0.19519 0.12741 0.56815 0.0
C255 C 0.10769 0.10318 0.58283 0.0
C256 C 0.15475 0.14185 0.57773 0.0
H257 H 0.11252 0.06059 0.57662 0.0
H258 H 0.35658 0.39178 0.57959 0.0
H259 H 0.27856 0.32202 0.59322 0.0
H260 H 0.31367 0.25387 0.50513 0.0
H261 H 0.39366 0.32342 0.49191 0.0
H262 H 0.23979 0.20552 0.54211 0.0
H263 H 0.19484 0.27741 0.59182 0.0
H264 H 0.09144 0.25512 0.60591 0.0
H265 H 0.00897 0.18646 0.61492 0.0
C266 C 0.39829 0.71425 0.4674 0.0
C267 C 0.39453 0.66871 0.494 0.0
C268 C 0.35102 0.75176 0.45944 0.0
C269 C 0.29874 0.74422 0.47788 0.0
C270 C 0.29592 0.6999 0.50508 0.0
C271 C 0.34312 0.66251 0.51304 0.0
C272 C 0.24607 0.78105 0.46992 0.0
C273 C 0.23724 0.81605 0.44121 0.0
C274 C 0.18314 0.85084 0.43456 0.0
C275 C 0.18659 0.90568 0.41508 0.0
C276 C 0.13682 0.94066 0.41003 0.0
C277 C 0.08277 0.9208 0.42393 0.0
H278 H 0.12368 0.78721 0.46142 0.0
C279 C 0.07857 0.86499 0.44204 0.0
C280 C 0.12831 0.83019 0.44735 0.0
H281 H 0.03682 0.84865 0.45229 0.0
H282 H 0.4375 0.72059 0.45241 0.0
H283 H 0.35612 0.78633 0.43891 0.0
H284 H 0.25652 0.69338 0.51994 0.0
H285 H 0.33876 0.62808 0.53381 0.0
H286 H 0.21232 0.77826 0.48862 0.0
H287 H 0.27053 0.82114 0.42229 0.0
H288 H 0.2282 0.9222 0.40466 0.0
H289 H 0.14078 0.98381 0.3961 0.0
C290 C 0.08726 0.97298 0.15577 0.0
C291 C 0.04312 0.00205 0.13587 0.0
C292 C 0.08897 0.97566 0.18905 0.0
C293 C 0.04682 0.00796 0.20285 0.0
C294 C 0.00346 0.03758 0.18285 0.0
C295 C 0.00124 0.03428 0.14983 0.0
C296 C 0.04704 0.01309 0.23776 0.0
C297 C 0.06615 0.9713 0.26158 0.0
C298 C 0.05848 0.97567 0.2964 0.0
C299 C 0.04491 0.92586 0.31897 0.0
C300 C 0.03105 0.92995 0.35118 0.0
C301 C 0.03128 0.98382 0.36129 0.0
H302 H 0.07434 0.06803 0.29062 0.0
C303 C 0.04837 0.03306 0.33932 0.0
C304 C 0.06189 0.02913 0.30713 0.0
H305 H 0.05044 0.07468 0.34703 0.0
H306 H 0.12032 0.94803 0.14568 0.0
H307 H 0.1238 0.95335 0.2037 0.0
H308 H 0.97072 0.06304 0.19286 0.0
H309 H 0.96694 0.05764 0.13519 0.0
H310 H 0.02567 0.05083 0.24424 0.0
H311 H 0.0819 0.93079 0.25566 0.0
H312 H 0.04261 0.88413 0.31136 0.0
H313 H 0.01825 0.89148 0.36795 0.0
C314 C 0.04998 0.06653 0.86511 0.0
C315 C 0.02205 0.021 0.88597 0.0
C316 C 0.04245 0.07332 0.83138 0.0
C317 C 0.00645 0.0349 0.81788 0.0
C318 C 0.97883 0.98936 0.83869 0.0
C319 C 0.98696 0.98209 0.87233 0.0
C320 C 0.99417 0.04267 0.78249 0.0
C321 C 0.03248 0.06662 0.75936 0.0
C322 C 0.01908 0.07075 0.72427 0.0
C323 C 0.06343 0.05974 0.70272 0.0
C324 C 0.05017 0.05781 0.67018 0.0
C325 C 0.99267 0.06822 0.6586 0.0
H326 H 0.92744 0.09417 0.72807 0.0
C327 C 0.94921 0.08281 0.67963 0.0
C328 C 0.96214 0.08383 0.71223 0.0
H329 H 0.90484 0.09181 0.67095 0.0
H330 H 0.07717 0.09736 0.87485 0.0
H331 H 0.06339 0.10964 0.8161 0.0
H332 H 0.95061 0.95937 0.82889 0.0
H333 H 0.96451 0.94678 0.88768 0.0
H334 H 0.95309 0.02496 0.77519 0.0
H335 H 0.07617 0.07895 0.76613 0.0
H336 H 0.1077 0.04998 0.71142 0.0
H337 H 0.08419 0.04583 0.65445 0.0
C338 C 0.59938 0.46927 0.65774 0.0
C339 C 0.56109 0.5056 0.63725 0.0
C340 C 0.59873 0.46858 0.6914 0.0
C341 C 0.56058 0.50509 0.70494 0.0
C342 C 0.52379 0.54256 0.68431 0.0
C343 C 0.5234 0.54227 0.65089 0.0
C344 C 0.55808 0.5056 0.74038 0.0
C345 C 0.56209 0.45736 0.76288 0.0
C346 C 0.55005 0.45801 0.79777 0.0
C347 C 0.51704 0.41298 0.81585 0.0
C348 C 0.49948 0.41586 0.8477 0.0
C349 C 0.51631 0.46285 0.86218 0.0
H350 H 0.5947 0.53909 0.79961 0.0
C351 C 0.55155 0.50655 0.84477 0.0
C352 C 0.56831 0.50427 0.81276 0.0
H353 H 0.56444 0.54321 0.85572 0.0
H354 H 0.62897 0.44066 0.64785 0.0
H355 H 0.62839 0.44 0.70672 0.0
H356 H 0.49431 0.57134 0.69418 0.0
H357 H 0.49381 0.57113 0.63566 0.0
H358 H 0.54618 0.54601 0.74799 0.0
H359 H 0.56744 0.41581 0.75518 0.0
H360 H 0.50245 0.37695 0.8048 0.0
H361 H 0.47121 0.3825 0.86068 0.0
C362 C 0.53796 0.47925 0.37146 0.0
C363 C 0.55202 0.52658 0.38654 0.0
C364 C 0.536 0.48534 0.33749 0.0
C365 C 0.5485 0.53895 0.31777 0.0
C366 C 0.56255 0.58611 0.33288 0.0
C367 C 0.56457 0.58003 0.36679 0.0
C368 C 0.54408 0.54821 0.28159 0.0
C369 C 0.54897 0.50536 0.26404 0.0
C370 C 0.54056 0.51271 0.2281 0.0
C371 C 0.55714 0.46717 0.21219 0.0
C372 C 0.54496 0.46918 0.17921 0.0
C373 C 0.51579 0.51671 0.16142 0.0
H374 H 0.49846 0.59716 0.22089 0.0
C375 C 0.50121 0.56341 0.17666 0.0
C376 C 0.5131 0.56143 0.20976 0.0
H377 H 0.47829 0.60022 0.16323 0.0
H378 H 0.52758 0.43758 0.38588 0.0
H379 H 0.52309 0.44828 0.32697 0.0
H380 H 0.57185 0.62801 0.31838 0.0
H381 H 0.5754 0.61755 0.37749 0.0
H382 H 0.53794 0.59226 0.26926 0.0
H383 H 0.56009 0.46233 0.27646 0.0
H384 H 0.57837 0.42916 0.22551 0.0
H385 H 0.55704 0.43301 0.16768 0.0
loop_
_geom_bond_atom_site_label_1
_geom_bond_atom_site_label_2
_geom_bond_distance
_geom_bond_site_symmetry_2
_ccdc_geom_bond_type
O0 Zn1 1.953 . S
O0 C16 1.225 . S
Zn1 O0 1.953 . S
Zn1 O2 1.949 1_565 S
Zn1 O8 1.919 . S
Zn1 O13 1.924 1_565 S
O2 Zn1 1.949 1_545 S
O2 Zn3 1.923 1_544 S
O2 Zn4 1.950 1_455 S
O2 Zn5 1.945 1_554 S
Zn3 O2 1.923 1_566 S
Zn3 O6 1.933 . S
Zn3 O9 1.941 . S
Zn3 O10 1.965 1_456 S
Zn4 O2 1.950 1_655 S
Zn4 O11 1.938 1_545 S
Zn4 O12 1.906 . S
Zn4 O22 1.953 . S
Zn5 O2 1.945 1_556 S
Zn5 O7 1.932 . S
Zn5 O14 1.977 1_455 S
Zn5 O15 1.910 . S
O6 Zn3 1.933 . S
O6 C17 1.226 1_565 S
O7 Zn5 1.932 . S
O7 C17 1.307 . S
O8 Zn1 1.919 . S
O8 C19 1.253 . S
O9 Zn3 1.941 . S
O9 C19 1.283 1_556 S
O10 Zn3 1.965 1_654 S
O10 C18 1.303 . S
O11 Zn4 1.938 1_565 S
O11 C18 1.247 . S
O12 Zn4 1.906 . S
O12 C20 1.304 1_554 S
O13 Zn1 1.924 1_545 S
O13 C21 1.311 . S
O14 Zn5 1.977 1_655 S
O14 C20 1.272 . S
O15 Zn5 1.910 . S
O15 C21 1.231 1_556 S
C16 O0 1.225 . S
C16 O22 1.298 1_465 S
C17 O6 1.226 1_545 S
C17 O7 1.307 . S
C18 O10 1.303 . S
C18 O11 1.247 . S
C19 O8 1.253 . S
C19 O9 1.283 1_554 S
C20 O12 1.304 1_556 S
C20 O14 1.272 . S
C21 O13 1.311 . S
C21 O15 1.231 1_554 S
O22 Zn4 1.953 . S
O22 C16 1.298 1_645 S
O23 Zn24 1.953 . S
O23 C39 1.225 . S
Zn24 O23 1.953 . S
Zn24 O25 1.949 . S
Zn24 O31 1.919 . S
Zn24 O36 1.924 . S
O25 Zn24 1.949 . S
O25 Zn26 1.923 . S
O25 Zn27 1.950 . S
O25 Zn28 1.945 . S
Zn26 O25 1.923 . S
Zn26 O29 1.933 . S
Zn26 O32 1.941 . S
Zn26 O33 1.965 . S
Zn27 O25 1.950 . S
Zn27 O34 1.938 . S
Zn27 O35 1.906 . S
Zn27 O45 1.953 . S
Zn28 O25 1.945 . S
Zn28 O30 1.932 . S
Zn28 O37 1.977 . S
Zn28 O38 1.910 . S
O29 Zn26 1.933 . S
O29 C40 1.226 . S
O30 Zn28 1.932 . S
O30 C40 1.307 . S
O31 Zn24 1.919 . S
O31 C42 1.253 . S
O32 Zn26 1.941 . S
O32 C42 1.283 . S
O33 Zn26 1.965 . S
O33 C41 1.303 . S
O34 Zn27 1.938 . S
O34 C41 1.247 . S
O35 Zn27 1.906 . S
O35 C43 1.304 . S
O36 Zn24 1.924 . S
O36 C44 1.311 . S
O37 Zn28 1.977 . S
O37 C43 1.272 . S
O38 Zn28 1.910 . S
O38 C44 1.231 . S
C39 O23 1.225 . S
C39 O45 1.298 . S
C40 O29 1.226 . S
C40 O30 1.307 . S
C41 O33 1.303 . S
C41 O34 1.247 . S
C42 O31 1.253 . S
C42 O32 1.283 . S
C43 O35 1.304 . S
C43 O37 1.272 . S
C44 O36 1.311 . S
C44 O38 1.231 . S
O45 Zn27 1.953 . S
O45 C39 1.298 . S
C46 N47 1.317 1_545 S
C46 N48 1.348 1_455 S
C46 C49 1.485 1_545 S
N47 C46 1.317 1_565 S
N47 N51 1.370 1_565 S
N48 C46 1.348 1_655 S
N48 C50 1.346 . S
C49 C46 1.485 1_565 S
C49 H53 0.960 1_455 S
C49 H54 0.961 1_565 S
C49 H55 0.960 . S
C50 N48 1.346 . S
C50 N51 1.307 1_655 S
C50 C52 1.486 . S
N51 N47 1.370 1_545 S
N51 C50 1.307 1_455 S
C52 C50 1.486 . S
C52 H56 0.960 . S
C52 H57 0.960 . S
C52 H58 0.959 . S
H53 C49 0.960 1_655 S
H54 C49 0.961 1_545 S
H55 C49 0.960 . S
H56 C52 0.960 . S
H57 C52 0.960 . S
H58 C52 0.959 . S
C59 N60 1.317 . S
C59 N61 1.348 1_445 S
C59 C62 1.485 . S
N60 C59 1.317 . S
N60 N64 1.370 . S
N61 C59 1.348 1_665 S
N61 C63 1.346 . S
C62 C59 1.485 . S
C62 H66 0.960 . S
C62 H67 0.961 1_545 S
C62 H68 0.960 . S
C63 N61 1.346 . S
C63 N64 1.307 1_665 S
C63 C65 1.486 . S
N64 N60 1.370 . S
N64 C63 1.307 1_445 S
C65 C63 1.486 . S
C65 H69 0.960 . S
C65 H70 0.960 . S
C65 H71 0.959 . S
H66 C62 0.960 . S
H67 C62 0.961 1_565 S
H68 C62 0.960 . S
H69 C65 0.960 . S
H70 C65 0.960 . S
H71 C65 0.959 . S
C72 N73 1.317 . S
C72 N74 1.348 . S
C72 C75 1.485 . S
N73 C72 1.317 . S
N73 N77 1.370 . S
N74 C72 1.348 . S
N74 C76 1.346 . S
C75 C72 1.485 . S
C75 H79 0.960 . S
C75 H80 0.961 . S
C75 H81 0.960 . S
C76 N74 1.346 . S
C76 N77 1.307 . S
C76 C78 1.486 . S
N77 N73 1.370 . S
N77 C76 1.307 . S
C78 C76 1.486 . S
C78 H82 0.960 . S
C78 H83 0.960 . S
C78 H84 0.959 . S
H79 C75 0.960 . S
H80 C75 0.961 . S
H81 C75 0.960 . S
H82 C78 0.960 . S
H83 C78 0.960 . S
H84 C78 0.959 . S
C85 N86 1.317 . S
C85 N87 1.348 . S
C85 C88 1.485 . S
N86 C85 1.317 . S
N86 N90 1.370 . S
N87 C85 1.348 . S
N87 C89 1.346 . S
C88 C85 1.485 . S
C88 H92 0.960 . S
C88 H93 0.961 . S
C88 H94 0.960 . S
C89 N87 1.346 . S
C89 N90 1.307 . S
C89 C91 1.486 . S
N90 N86 1.370 . S
N90 C89 1.307 . S
C91 C89 1.486 . S
C91 H95 0.960 . S
C91 H96 0.960 . S
C91 H97 0.959 . S
H92 C88 0.960 . S
H93 C88 0.961 . S
H94 C88 0.960 . S
H95 C91 0.960 . S
H96 C91 0.960 . S
H97 C91 0.959 . S
C98 C99 1.386 . S
C98 C100 1.383 . S
C98 H114 0.951 1_554 S
C99 C98 1.386 . S
C99 C103 1.383 . S
C100 C98 1.383 . S
C100 C101 1.402 . S
C100 H115 0.951 . S
C101 C100 1.402 . S
C101 C102 1.375 . S
C101 C104 1.481 . S
C102 C101 1.375 . S
C102 C103 1.367 . S
C102 H116 0.951 . S
C103 C99 1.383 . S
C103 C102 1.367 . S
C103 H117 0.950 . S
C104 C101 1.481 . S
C104 C105 1.297 . S
C104 H118 0.950 . S
C105 C104 1.297 . S
C105 C106 1.479 . S
C105 H119 0.950 . S
C106 C105 1.479 . S
C106 C107 1.375 . S
C106 C112 1.404 . S
C107 C106 1.375 . S
C107 C108 1.369 . S
C107 H120 0.950 . S
C108 C107 1.369 . S
C108 C109 1.392 . S
C108 H121 0.951 . S
C109 C108 1.392 . S
C109 C111 1.384 . S
H110 C112 0.949 . S
C111 C109 1.384 . S
C111 C112 1.385 . S
C111 H113 0.950 . S
C112 C106 1.404 . S
C112 H110 0.949 . S
C112 C111 1.385 . S
H113 C111 0.950 . S
H114 C98 0.951 1_556 S
H115 C100 0.951 . S
H116 C102 0.951 . S
H117 C103 0.950 . S
H118 C104 0.950 . S
H119 C105 0.950 . S
H120 C107 0.950 . S
H121 C108 0.951 . S
C122 C123 1.381 1_556 S
C122 C124 1.383 . S
C122 H138 0.951 . S
C123 C122 1.381 1_554 S
C123 C127 1.386 . S
C124 C122 1.383 . S
C124 C125 1.402 . S
C124 H139 0.951 . S
C125 C124 1.402 . S
C125 C126 1.375 1_556 S
C125 C128 1.481 . S
C126 C125 1.375 1_554 S
C126 C127 1.367 . S
C126 H140 0.951 . S
C127 C123 1.386 . S
C127 C126 1.367 . S
C127 H141 0.950 . S
C128 C125 1.481 . S
C128 C129 1.297 . S
C128 H142 0.950 1_556 S
C129 C128 1.297 . S
C129 C130 1.479 . S
C129 H143 0.950 . S
C130 C129 1.479 . S
C130 C131 1.375 . S
C130 C136 1.404 . S
C131 C130 1.375 . S
C131 C132 1.369 . S
C131 H144 0.950 . S
C132 C131 1.369 . S
C132 C133 1.392 . S
C132 H145 0.951 . S
C133 C132 1.392 . S
C133 C135 1.384 . S
H134 C136 0.949 1_554 S
C135 C133 1.384 . S
C135 C136 1.385 . S
C135 H137 0.950 . S
C136 C130 1.404 . S
C136 H134 0.949 1_556 S
C136 C135 1.385 . S
H137 C135 0.950 . S
H138 C122 0.951 . S
H139 C124 0.951 . S
H140 C126 0.951 . S
H141 C127 0.950 . S
H142 C128 0.950 1_554 S
H143 C129 0.950 . S
H144 C131 0.950 . S
H145 C132 0.951 . S
C146 C147 1.386 . S
C146 C148 1.383 . S
C146 H162 0.951 . S
C147 C146 1.386 . S
C147 C151 1.383 . S
C148 C146 1.383 . S
C148 C149 1.402 . S
C148 H163 0.951 . S
C149 C148 1.402 . S
C149 C150 1.375 . S
C149 C152 1.481 . S
C150 C149 1.375 . S
C150 C151 1.367 . S
C150 H164 0.951 1_554 S
C151 C147 1.383 . S
C151 C150 1.367 . S
C151 H165 0.950 1_554 S
C152 C149 1.481 . S
C152 C153 1.297 . S
C152 H166 0.950 . S
C153 C152 1.297 . S
C153 C154 1.479 . S
C153 H167 0.950 . S
C154 C153 1.479 . S
C154 C155 1.375 . S
C154 C160 1.404 . S
C155 C154 1.375 . S
C155 C156 1.369 . S
C155 H168 0.950 . S
C156 C155 1.369 . S
C156 C157 1.392 . S
C156 H169 0.951 . S
C157 C156 1.392 . S
C157 C159 1.384 . S
H158 C160 0.949 . S
C159 C157 1.384 . S
C159 C160 1.385 . S
C159 H161 0.950 . S
C160 C154 1.404 . S
C160 H158 0.949 . S
C160 C159 1.385 . S
H161 C159 0.950 . S
H162 C146 0.951 . S
H163 C148 0.951 . S
H164 C150 0.951 1_556 S
H165 C151 0.950 1_556 S
H166 C152 0.950 . S
H167 C153 0.950 . S
H168 C155 0.950 . S
H169 C156 0.951 . S
C170 C171 1.386 . S
C170 C172 1.383 . S
C170 H186 0.951 . S
C171 C170 1.386 . S
C171 C175 1.383 1_556 S
C172 C170 1.383 . S
C172 C173 1.402 . S
C172 H187 0.951 . S
C173 C172 1.402 . S
C173 C174 1.375 1_556 S
C173 C176 1.481 . S
C174 C173 1.375 1_554 S
C174 C175 1.367 . S
C174 H188 0.951 . S
C175 C171 1.383 1_554 S
C175 C174 1.367 . S
C175 H189 0.950 . S
C176 C173 1.481 . S
C176 C177 1.297 . S
C176 H190 0.950 . S
C177 C176 1.297 . S
C177 C178 1.479 . S
C177 H191 0.950 . S
C178 C177 1.479 . S
C178 C179 1.375 . S
C178 C184 1.404 . S
C179 C178 1.375 . S
C179 C180 1.369 . S
C179 H192 0.950 . S
C180 C179 1.369 . S
C180 C181 1.392 . S
C180 H193 0.951 . S
C181 C180 1.392 . S
C181 C183 1.384 . S
H182 C184 0.949 . S
C183 C181 1.384 . S
C183 C184 1.385 . S
C183 H185 0.950 . S
C184 C178 1.404 . S
C184 H182 0.949 . S
C184 C183 1.385 . S
H185 C183 0.950 . S
H186 C170 0.951 . S
H187 C172 0.951 . S
H188 C174 0.951 . S
H189 C175 0.950 . S
H190 C176 0.950 . S
H191 C177 0.950 . S
H192 C179 0.950 . S
H193 C180 0.951 . S
C194 C195 1.386 . S
C194 C196 1.383 . S
C194 H210 0.951 . S
C195 C194 1.386 . S
C195 C199 1.383 . S
C196 C194 1.383 . S
C196 C197 1.402 . S
C196 H211 0.951 . S
C197 C196 1.402 . S
C197 C198 1.375 . S
C197 C200 1.481 . S
C198 C197 1.375 . S
C198 C199 1.367 . S
C198 H212 0.951 . S
C199 C195 1.383 . S
C199 C198 1.367 . S
C199 H213 0.950 . S
C200 C197 1.481 . S
C200 C201 1.297 . S
C200 H214 0.950 . S
C201 C200 1.297 . S
C201 C202 1.479 . S
C201 H215 0.950 . S
C202 C201 1.479 . S
C202 C203 1.375 . S
C202 C208 1.404 . S
C203 C202 1.375 . S
C203 C204 1.369 . S
C203 H216 0.950 . S
C204 C203 1.369 . S
C204 C205 1.392 . S
C204 H217 0.951 . S
C205 C204 1.392 . S
C205 C207 1.384 . S
H206 C208 0.949 . S
C207 C205 1.384 . S
C207 C208 1.385 . S
C207 H209 0.950 . S
C208 C202 1.404 . S
C208 H206 0.949 . S
C208 C207 1.385 . S
H209 C207 0.950 . S
H210 C194 0.951 . S
H211 C196 0.951 . S
H212 C198 0.951 . S
H213 C199 0.950 . S
H214 C200 0.950 . S
H215 C201 0.950 . S
H216 C203 0.950 . S
H217 C204 0.951 . S
C218 C219 1.386 . S
C218 C220 1.383 . S
C218 H234 0.951 . S
C219 C218 1.386 . S
C219 C223 1.383 . S
C220 C218 1.383 . S
C220 C221 1.402 . S
C220 H235 0.951 . S
C221 C220 1.402 . S
C221 C222 1.375 . S
C221 C224 1.481 . S
C222 C221 1.375 . S
C222 C223 1.367 . S
C222 H236 0.951 . S
C223 C219 1.383 . S
C223 C222 1.367 . S
C223 H237 0.950 . S
C224 C221 1.481 . S
C224 C225 1.297 . S
C224 H238 0.950 . S
C225 C224 1.297 . S
C225 C226 1.479 . S
C225 H239 0.950 . S
C226 C225 1.479 . S
C226 C227 1.375 . S
C226 C232 1.404 . S
C227 C226 1.375 . S
C227 C228 1.369 . S
C227 H240 0.950 . S
C228 C227 1.369 . S
C228 C229 1.392 . S
C228 H241 0.951 . S
C229 C228 1.392 . S
C229 C231 1.384 . S
H230 C232 0.949 . S
C231 C229 1.384 . S
C231 C232 1.385 . S
C231 H233 0.950 . S
C232 C226 1.404 . S
C232 H230 0.949 . S
C232 C231 1.385 . S
H233 C231 0.950 . S
H234 C218 0.951 . S
H235 C220 0.951 . S
H236 C222 0.951 . S
H237 C223 0.950 . S
H238 C224 0.950 . S
H239 C225 0.950 . S
H240 C227 0.950 . S
H241 C228 0.951 . S
C242 C243 1.386 . S
C242 C244 1.383 . S
C242 H258 0.951 . S
C243 C242 1.386 . S
C243 C247 1.383 . S
C244 C242 1.383 . S
C244 C245 1.402 . S
C244 H259 0.951 . S
C245 C244 1.402 . S
C245 C246 1.375 . S
C245 C248 1.481 . S
C246 C245 1.375 . S
C246 C247 1.367 . S
C246 H260 0.951 . S
C247 C243 1.383 . S
C247 C246 1.367 . S
C247 H261 0.950 . S
C248 C245 1.481 . S
C248 C249 1.297 . S
C248 H262 0.950 . S
C249 C248 1.297 . S
C249 C250 1.479 . S
C249 H263 0.950 . S
C250 C249 1.479 . S
C250 C251 1.375 . S
C250 C256 1.404 . S
C251 C250 1.375 . S
C251 C252 1.369 . S
C251 H264 0.950 . S
C252 C251 1.369 . S
C252 C253 1.392 . S
C252 H265 0.951 . S
C253 C252 1.392 . S
C253 C255 1.384 . S
H254 C256 0.949 . S
C255 C253 1.384 . S
C255 C256 1.385 . S
C255 H257 0.950 . S
C256 C250 1.404 . S
C256 H254 0.949 . S
C256 C255 1.385 . S
H257 C255 0.950 . S
H258 C242 0.951 . S
H259 C244 0.951 . S
H260 C246 0.951 . S
H261 C247 0.950 . S
H262 C248 0.950 . S
H263 C249 0.950 . S
H264 C251 0.950 . S
H265 C252 0.951 . S
C266 C267 1.386 . S
C266 C268 1.383 . S
C266 H282 0.951 . S
C267 C266 1.386 . S
C267 C271 1.383 . S
C268 C266 1.383 . S
C268 C269 1.402 . S
C268 H283 0.951 . S
C269 C268 1.402 . S
C269 C270 1.375 . S
C269 C272 1.481 . S
C270 C269 1.375 . S
C270 C271 1.367 . S
C270 H284 0.951 . S
C271 C267 1.383 . S
C271 C270 1.367 . S
C271 H285 0.950 . S
C272 C269 1.481 . S
C272 C273 1.297 . S
C272 H286 0.950 . S
C273 C272 1.297 . S
C273 C274 1.479 . S
C273 H287 0.950 . S
C274 C273 1.479 . S
C274 C275 1.375 . S
C274 C280 1.404 . S
C275 C274 1.375 . S
C275 C276 1.369 . S
C275 H288 0.950 . S
C276 C275 1.369 . S
C276 C277 1.392 . S
C276 H289 0.951 . S
C277 C276 1.392 . S
C277 C279 1.384 . S
H278 C280 0.949 . S
C279 C277 1.384 . S
C279 C280 1.385 . S
C279 H281 0.950 . S
C280 C274 1.404 . S
C280 H278 0.949 . S
C280 C279 1.385 . S
H281 C279 0.950 . S
H282 C266 0.951 . S
H283 C268 0.951 . S
H284 C270 0.951 . S
H285 C271 0.950 . S
H286 C272 0.950 . S
H287 C273 0.950 . S
H288 C275 0.950 . S
H289 C276 0.951 . S
C290 C291 1.384 1_565 S
C290 C292 1.383 . S
C290 H306 0.951 . S
C291 C290 1.384 1_545 S
C291 C295 1.386 . S
C292 C290 1.383 . S
C292 C293 1.402 1_565 S
C292 H307 0.951 . S
C293 C292 1.402 1_545 S
C293 C294 1.375 . S
C293 C296 1.481 . S
C294 C293 1.375 . S
C294 C295 1.367 . S
C294 H308 0.951 . S
C295 C291 1.386 . S
C295 C294 1.367 . S
C295 H309 0.950 . S
C296 C293 1.481 . S
C296 C297 1.297 1_545 S
C296 H310 0.950 . S
C297 C296 1.297 1_565 S
C297 C298 1.479 . S
C297 H311 0.950 . S
C298 C297 1.479 . S
C298 C299 1.375 . S
C298 C304 1.404 1_565 S
C299 C298 1.375 . S
C299 C300 1.369 . S
C299 H312 0.950 . S
C300 C299 1.369 . S
C300 C301 1.392 . S
C300 H313 0.951 . S
C301 C300 1.392 . S
C301 C303 1.384 1_565 S
H302 C304 0.949 . S
C303 C301 1.384 1_545 S
C303 C304 1.385 . S
C303 H305 0.950 . S
C304 C298 1.404 1_545 S
C304 H302 0.949 . S
C304 C303 1.385 . S
H305 C303 0.950 . S
H306 C290 0.951 . S
H307 C292 0.951 . S
H308 C294 0.951 . S
H309 C295 0.950 . S
H310 C296 0.950 . S
H311 C297 0.950 . S
H312 C299 0.950 . S
H313 C300 0.951 . S
C314 C315 1.386 . S
C314 C316 1.383 . S
C314 H330 0.951 . S
C315 C314 1.386 . S
C315 C319 1.387 1_455 S
C316 C314 1.383 . S
C316 C317 1.402 . S
C316 H331 0.951 . S
C317 C316 1.402 . S
C317 C318 1.375 1_445 S
C317 C320 1.481 1_545 S
C318 C317 1.375 1_665 S
C318 C319 1.364 1_565 S
C318 H332 0.951 . S
C319 C315 1.387 1_655 S
C319 C318 1.364 1_545 S
C319 H333 0.949 1_545 S
C320 C317 1.481 1_565 S
C320 C321 1.297 1_565 S
C320 H334 0.950 1_455 S
C321 C320 1.297 1_545 S
C321 C322 1.481 . S
C321 H335 0.950 . S
C322 C321 1.481 . S
C322 C323 1.378 . S
C322 C328 1.400 1_445 S
C323 C322 1.378 . S
C323 C324 1.369 . S
C323 H336 0.950 . S
C324 C323 1.369 . S
C324 C325 1.392 . S
C324 H337 0.951 . S
C325 C324 1.392 . S
C325 C327 1.384 1_445 S
H326 C328 0.949 . S
C327 C325 1.384 1_665 S
C327 C328 1.385 . S
C327 H329 0.950 . S
C328 C322 1.400 1_665 S
C328 H326 0.949 . S
C328 C327 1.385 . S
H329 C327 0.950 . S
H330 C314 0.951 . S
H331 C316 0.951 . S
H332 C318 0.951 . S
H333 C319 0.949 1_565 S
H334 C320 0.950 1_655 S
H335 C321 0.950 . S
H336 C323 0.950 . S
H337 C324 0.951 . S
C338 C339 1.386 . S
C338 C340 1.383 . S
C338 H354 0.951 . S
C339 C338 1.386 . S
C339 C343 1.383 . S
C340 C338 1.383 . S
C340 C341 1.402 . S
C340 H355 0.951 . S
C341 C340 1.402 . S
C341 C342 1.375 . S
C341 C344 1.481 . S
C342 C341 1.375 . S
C342 C343 1.367 . S
C342 H356 0.951 . S
C343 C339 1.383 . S
C343 C342 1.367 . S
C343 H357 0.950 . S
C344 C341 1.481 . S
C344 C345 1.297 . S
C344 H358 0.950 . S
C345 C344 1.297 . S
C345 C346 1.479 . S
C345 H359 0.950 . S
C346 C345 1.479 . S
C346 C347 1.375 . S
C346 C352 1.404 . S
C347 C346 1.375 . S
C347 C348 1.369 . S
C347 H360 0.950 . S
C348 C347 1.369 . S
C348 C349 1.392 . S
C348 H361 0.951 . S
C349 C348 1.392 . S
C349 C351 1.384 . S
H350 C352 0.949 . S
C351 C349 1.384 . S
C351 C352 1.385 . S
C351 H353 0.950 . S
C352 C346 1.404 . S
C352 H350 0.949 . S
C352 C351 1.385 . S
H353 C351 0.950 . S
H354 C338 0.951 . S
H355 C340 0.951 . S
H356 C342 0.951 . S
H357 C343 0.950 . S
H358 C344 0.950 . S
H359 C345 0.950 . S
H360 C347 0.950 . S
H361 C348 0.951 . S
C362 C363 1.386 . S
C362 C364 1.383 . S
C362 H378 0.951 . S
C363 C362 1.386 . S
C363 C367 1.383 . S
C364 C362 1.383 . S
C364 C365 1.402 . S
C364 H379 0.951 . S
C365 C364 1.402 . S
C365 C366 1.375 . S
C365 C368 1.481 . S
C366 C365 1.375 . S
C366 C367 1.367 . S
C366 H380 0.951 . S
C367 C363 1.383 . S
C367 C366 1.367 . S
C367 H381 0.950 . S
C368 C365 1.481 . S
C368 C369 1.297 . S
C368 H382 0.950 . S
C369 C368 1.297 . S
C369 C370 1.479 . S
C369 H383 0.950 . S
C370 C369 1.479 . S
C370 C371 1.375 . S
C370 C376 1.404 . S
C371 C370 1.375 . S
C371 C372 1.369 . S
C371 H384 0.950 . S
C372 C371 1.369 . S
C372 C373 1.392 . S
C372 H385 0.951 . S
C373 C372 1.392 . S
C373 C375 1.384 . S
H374 C376 0.949 . S
C375 C373 1.384 . S
C375 C376 1.385 . S
C375 H377 0.950 . S
C376 C370 1.404 . S
C376 H374 0.949 . S
C376 C375 1.385 . S
H377 C375 0.950 . S
H378 C362 0.951 . S
H379 C364 0.951 . S
H380 C366 0.951 . S
H381 C367 0.950 . S
H382 C368 0.950 . S
H383 C369 0.950 . S
H384 C371 0.950 . S
H385 C372 0.951 . S
C109 N87 1.362 . S
C99 C21 1.382 . S
C123 C19 1.362 . S
C133 N74 1.370 . S
C147 C18 1.459 . S
C157 N86 1.508 . S
C171 C20 1.499 . S
C181 N73 1.514 . S
C195 C44 1.367 . S
C205 N61 1.346 . S
C219 C42 1.384 . S
C229 N48 1.345 . S
C253 N60 1.501 . S
C243 C41 1.469 . S
C277 N47 1.517 . S
C267 C43 1.520 . S
C291 C16 1.522 1_545 S
C301 N51 1.513 1_565 S
C315 C17 1.483 . S
C325 N64 1.457 . S
C349 N77 1.497 . S
C339 C39 1.523 . S
C363 C40 1.497 . S
C373 N90 1.464 . S
