# Generated by pormake.
# Topology wbl, (4,4)-cn, num edge types: 1
# Building blocks:
#     Node 0, Type 0, BuildingBlock: MUDLON_clean_linker_0, # of connection points: 4
#     Node 1, Type 0, BuildingBlock: MUDLON_clean_linker_0, # of connection points: 4
#     Node 2, Type 0, BuildingBlock: MUDLON_clean_linker_0, # of connection points: 4
#     Node 3, Type 0, BuildingBlock: MUDLON_clean_linker_0, # of connection points: 4
#     Node 4, Type 0, BuildingBlock: MUDLON_clean_linker_0, # of connection points: 4
#     Node 5, Type 0, BuildingBlock: MUDLON_clean_linker_0, # of connection points: 4
#     Node 6, Type 0, BuildingBlock: MUDLON_clean_linker_0, # of connection points: 4
#     Node 7, Type 0, BuildingBlock: MUDLON_clean_linker_0, # of connection points: 4
#     Node 8, Type 1, BuildingBlock: TATPOV_clean_sbu_0, # of connection points: 4
#     Node 9, Type 1, BuildingBlock: TATPOV_clean_sbu_0, # of connection points: 4
#     Node 10, Type 1, BuildingBlock: TATPOV_clean_sbu_0, # of connection points: 4
#     Node 11, Type 1, BuildingBlock: TATPOV_clean_sbu_0, # of connection points: 4
#     Node 12, Type 1, BuildingBlock: TATPOV_clean_sbu_0, # of connection points: 4
#     Node 13, Type 1, BuildingBlock: TATPOV_clean_sbu_0, # of connection points: 4
#     Node 14, Type 1, BuildingBlock: TATPOV_clean_sbu_0, # of connection points: 4
#     Node 15, Type 1, BuildingBlock: TATPOV_clean_sbu_0, # of connection points: 4
#     Edge 16, Type (0, 1), BuildingBlock: AJUNOK_clean_linker_0, # of connection points: 2
#     Edge 17, Type (0, 1), BuildingBlock: AJUNOK_clean_linker_0, # of connection points: 2
#     Edge 18, Type (0, 1), BuildingBlock: AJUNOK_clean_linker_0, # of connection points: 2
#     Edge 19, Type (0, 1), BuildingBlock: AJUNOK_clean_linker_0, # of connection points: 2
#     Edge 20, Type (0, 1), BuildingBlock: AJUNOK_clean_linker_0, # of connection points: 2
#     Edge 21, Type (0, 1), BuildingBlock: AJUNOK_clean_linker_0, # of connection points: 2
#     Edge 22, Type (0, 1), BuildingBlock: AJUNOK_clean_linker_0, # of connection points: 2
#     Edge 23, Type (0, 1), BuildingBlock: AJUNOK_clean_linker_0, # of connection points: 2
#     Edge 24, Type (0, 1), BuildingBlock: AJUNOK_clean_linker_0, # of connection points: 2
#     Edge 25, Type (0, 1), BuildingBlock: AJUNOK_clean_linker_0, # of connection points: 2
#     Edge 26, Type (0, 1), BuildingBlock: AJUNOK_clean_linker_0, # of connection points: 2
#     Edge 27, Type (0, 1), BuildingBlock: AJUNOK_clean_linker_0, # of connection points: 2
#     Edge 28, Type (0, 1), BuildingBlock: AJUNOK_clean_linker_0, # of connection points: 2
#     Edge 29, Type (0, 1), BuildingBlock: AJUNOK_clean_linker_0, # of connection points: 2
#     Edge 30, Type (0, 1), BuildingBlock: AJUNOK_clean_linker_0, # of connection points: 2
#     Edge 31, Type (0, 1), BuildingBlock: AJUNOK_clean_linker_0, # of connection points: 2
#     Edge 32, Type (0, 1), BuildingBlock: AJUNOK_clean_linker_0, # of connection points: 2
#     Edge 33, Type (0, 1), BuildingBlock: AJUNOK_clean_linker_0, # of connection points: 2
#     Edge 34, Type (0, 1), BuildingBlock: AJUNOK_clean_linker_0, # of connection points: 2
#     Edge 35, Type (0, 1), BuildingBlock: AJUNOK_clean_linker_0, # of connection points: 2
#     Edge 36, Type (0, 1), BuildingBlock: AJUNOK_clean_linker_0, # of connection points: 2
#     Edge 37, Type (0, 1), BuildingBlock: AJUNOK_clean_linker_0, # of connection points: 2
#     Edge 38, Type (0, 1), BuildingBlock: AJUNOK_clean_linker_0, # of connection points: 2
#     Edge 39, Type (0, 1), BuildingBlock: AJUNOK_clean_linker_0, # of connection points: 2
#     Edge 40, Type (0, 1), BuildingBlock: AJUNOK_clean_linker_0, # of connection points: 2
#     Edge 41, Type (0, 1), BuildingBlock: AJUNOK_clean_linker_0, # of connection points: 2
#     Edge 42, Type (0, 1), BuildingBlock: AJUNOK_clean_linker_0, # of connection points: 2
#     Edge 43, Type (0, 1), BuildingBlock: AJUNOK_clean_linker_0, # of connection points: 2
#     Edge 44, Type (0, 1), BuildingBlock: AJUNOK_clean_linker_0, # of connection points: 2
#     Edge 45, Type (0, 1), BuildingBlock: AJUNOK_clean_linker_0, # of connection points: 2
#     Edge 46, Type (0, 1), BuildingBlock: AJUNOK_clean_linker_0, # of connection points: 2
#     Edge 47, Type (0, 1), BuildingBlock: AJUNOK_clean_linker_0, # of connection points: 2
# Relax obj value: 0.124
# Max RMSD: 0.128
# Mean RMSD: 0.121
data_MOF--net-wbl--node1-TATPOV_clean_sbu_0--node2-MUDLON_clean_linker_0--edge1-AJUNOK_clean_linker_0
_symmetry_space_group_name_H-M    P1
_symmetry_Int_Tables_number       1
_symmetry_cell_setting            triclinic
loop_
_symmetry_equiv_pos_as_xyz
'x, y, z'
_cell_length_a     43.308675
_cell_length_b     43.345069
_cell_length_c     60.468918
_cell_angle_alpha  91.453825
_cell_angle_beta   91.528737
_cell_angle_gamma 90.006547
loop_
_atom_site_label
_atom_site_type_symbol
_atom_site_fract_x
_atom_site_fract_y
_atom_site_fract_z
_atom_type_partial_charge
H0 H 0.18958 0.9976 0.35681 0.0
N1 N 0.13976 0.00041 0.33064 0.0
H2 H 0.19994 0.96033 0.38588 0.0
H3 H 0.09678 0.96269 0.34823 0.0
H4 H 0.10697 0.92535 0.37758 0.0
H5 H 0.10877 0.95346 0.30827 0.0
H6 H 0.13293 0.91475 0.28481 0.0
H7 H 0.19275 0.00688 0.31049 0.0
H8 H 0.21828 0.96637 0.28913 0.0
H9 H 0.14357 0.05622 0.34886 0.0
H10 H 0.08137 0.99634 0.31112 0.0
H11 H 0.10349 0.09553 0.35091 0.0
H12 H 0.04178 0.036 0.31191 0.0
H13 H 0.96901 0.21871 0.36096 0.0
H14 H 0.94502 0.23173 0.39627 0.0
H15 H 0.94288 0.13516 0.41178 0.0
H16 H 0.96636 0.12219 0.3767 0.0
H17 H 0.92116 0.13265 0.34796 0.0
H18 H 0.87369 0.14171 0.327 0.0
H19 H 0.9231 0.19996 0.28296 0.0
H20 H 0.97041 0.19274 0.30539 0.0
H21 H 0.036 0.17131 0.33708 0.0
H22 H 0.07579 0.13224 0.33129 0.0
H23 H 0.00662 0.06068 0.33523 0.0
N24 N 0.97632 0.16271 0.34307 0.0
H25 H 0.96694 0.10004 0.33957 0.0
C26 C 0.14252 0.98291 0.35048 0.0
C27 C 0.1712 0.98247 0.3617 0.0
C28 C 0.17711 0.96113 0.37813 0.0
C29 C 0.15426 0.94003 0.38379 0.0
C30 C 0.12483 0.94159 0.37352 0.0
C31 C 0.11901 0.96286 0.35684 0.0
C32 C 0.14887 0.98351 0.31105 0.0
C33 C 0.1319 0.95779 0.30287 0.0
C34 C 0.14613 0.93504 0.28991 0.0
C35 C 0.17796 0.9367 0.286 0.0
C36 C 0.19379 0.96414 0.29193 0.0
C37 C 0.17921 0.98743 0.30415 0.0
C38 C 0.11584 0.02345 0.3297 0.0
C39 C 0.12142 0.05182 0.34064 0.0
C40 C 0.09847 0.07435 0.34164 0.0
C41 C 0.06928 0.06918 0.33143 0.0
C42 C 0.06379 0.04074 0.32022 0.0
C43 C 0.08672 0.01798 0.31953 0.0
C44 C 0.9694 0.16958 0.36593 0.0
C45 C 0.96422 0.20046 0.37229 0.0
C46 C 0.95048 0.20784 0.39239 0.0
C47 C 0.9416 0.18434 0.40644 0.0
C48 C 0.94903 0.15362 0.40098 0.0
C49 C 0.96277 0.14624 0.3809 0.0
C50 C 0.94942 0.16251 0.32844 0.0
C51 C 0.92202 0.14715 0.33371 0.0
C52 C 0.89478 0.15206 0.32146 0.0
C53 C 0.8945 0.17152 0.3032 0.0
C54 C 0.9224 0.18519 0.29712 0.0
C55 C 0.94951 0.18084 0.30972 0.0
C56 C 0.99868 0.13871 0.33903 0.0
C57 C 0.02952 0.14716 0.3365 0.0
C58 C 0.05223 0.12472 0.33338 0.0
C59 C 0.04463 0.09312 0.33308 0.0
C60 C 0.01343 0.0847 0.33513 0.0
C61 C 0.99065 0.10726 0.33786 0.0
H62 H 0.97724 0.38594 0.61808 0.0
N63 N 0.95754 0.42559 0.58806 0.0
H64 H 0.95535 0.37758 0.65444 0.0
H65 H 0.91636 0.46335 0.60871 0.0
H66 H 0.89456 0.45537 0.64506 0.0
H67 H 0.96002 0.37017 0.56884 0.0
H68 H 0.92073 0.34568 0.5445 0.0
H69 H 0.90698 0.45417 0.57042 0.0
H70 H 0.86677 0.42945 0.54645 0.0
H71 H 0.0103 0.40943 0.56996 0.0
H72 H 0.95683 0.48842 0.59021 0.0
H73 H 0.05112 0.4433 0.55766 0.0
H74 H 0.9983 0.52271 0.57934 0.0
H75 H 0.18543 0.56777 0.57752 0.0
H76 H 0.20002 0.58866 0.61444 0.0
H77 H 0.10534 0.61579 0.6244 0.0
H78 H 0.09086 0.59434 0.58788 0.0
H79 H 0.09706 0.62246 0.55459 0.0
H80 H 0.11035 0.66607 0.53222 0.0
H81 H 0.18473 0.61324 0.50386 0.0
H82 H 0.17016 0.5689 0.52556 0.0
H83 H 0.13285 0.50965 0.5677 0.0
H84 H 0.09014 0.47453 0.57326 0.0
H85 H 0.02597 0.54373 0.55001 0.0
N86 N 0.12991 0.56842 0.55777 0.0
H87 H 0.06865 0.57907 0.54541 0.0
C88 C 0.94839 0.42509 0.61071 0.0
C89 C 0.95974 0.4016 0.62416 0.0
C90 C 0.94723 0.39689 0.64486 0.0
C91 C 0.92296 0.41557 0.65239 0.0
C92 C 0.91291 0.44034 0.63947 0.0
C93 C 0.9255 0.44505 0.61876 0.0
C94 C 0.93609 0.41363 0.57155 0.0
C95 C 0.94011 0.38344 0.5635 0.0
C96 C 0.91779 0.36965 0.54951 0.0
C97 C 0.89089 0.38584 0.54346 0.0
C98 C 0.88743 0.41663 0.55081 0.0
C99 C 0.91016 0.43063 0.56458 0.0
C100 C 0.98099 0.44643 0.58133 0.0
C101 C 0.00763 0.43418 0.57193 0.0
C102 C 0.03095 0.4536 0.56503 0.0
C103 C 0.02827 0.48582 0.56771 0.0
C104 C 0.00108 0.49807 0.57677 0.0
C105 C 0.97748 0.47851 0.58333 0.0
C106 C 0.13722 0.57945 0.57997 0.0
C107 C 0.16786 0.57791 0.58783 0.0
C108 C 0.1761 0.58987 0.60881 0.0
C109 C 0.15373 0.60358 0.62228 0.0
C110 C 0.12291 0.60479 0.61452 0.0
C111 C 0.11468 0.59278 0.59356 0.0
C112 C 0.13234 0.59198 0.54149 0.0
C113 C 0.1153 0.61959 0.54286 0.0
C114 C 0.1232 0.64478 0.53024 0.0
C115 C 0.14863 0.64317 0.51629 0.0
C116 C 0.16461 0.61508 0.51407 0.0
C117 C 0.15638 0.58972 0.52648 0.0
C118 C 0.10432 0.54705 0.55624 0.0
C119 C 0.1096 0.51697 0.56336 0.0
C120 C 0.08506 0.49691 0.56649 0.0
C121 C 0.05443 0.50632 0.56226 0.0
C122 C 0.04919 0.53593 0.55391 0.0
C123 C 0.07383 0.55619 0.55104 0.0
H124 H 0.66658 0.46543 0.86821 0.0
N125 N 0.6193 0.45568 0.83998 0.0
H126 H 0.67584 0.44154 0.90415 0.0
H127 H 0.57939 0.41763 0.86105 0.0
H128 H 0.58849 0.39394 0.89691 0.0
H129 H 0.62033 0.39267 0.83377 0.0
H130 H 0.65787 0.3643 0.81253 0.0
H131 H 0.65276 0.47809 0.80775 0.0
H132 H 0.68833 0.44936 0.78416 0.0
H133 H 0.60144 0.5125 0.84986 0.0
H134 H 0.56997 0.42755 0.81839 0.0
H135 H 0.54976 0.53416 0.84602 0.0
H136 H 0.51812 0.4494 0.81355 0.0
H137 H 0.41551 0.6052 0.84391 0.0
H138 H 0.40818 0.64055 0.87489 0.0
H139 H 0.40462 0.56357 0.9189 0.0
H140 H 0.40918 0.5279 0.88704 0.0
H141 H 0.3487 0.53892 0.84916 0.0
H142 H 0.30922 0.56806 0.82933 0.0
H143 H 0.37734 0.59723 0.78332 0.0
H144 H 0.41699 0.56943 0.80385 0.0
H145 H 0.45911 0.57438 0.83012 0.0
H146 H 0.51001 0.5531 0.82297 0.0
H147 H 0.47613 0.46185 0.83662 0.0
N148 N 0.40906 0.54239 0.84446 0.0
H149 H 0.42478 0.48334 0.84257 0.0
C150 C 0.62235 0.44357 0.86198 0.0
C151 C 0.6493 0.45015 0.87453 0.0
C152 C 0.65462 0.43636 0.8949 0.0
C153 C 0.63298 0.4157 0.90309 0.0
C154 C 0.60546 0.40986 0.89093 0.0
C155 C 0.60023 0.4235 0.87046 0.0
C156 C 0.6345 0.43778 0.82298 0.0
C157 C 0.63476 0.40531 0.82284 0.0
C158 C 0.65606 0.3889 0.8102 0.0
C159 C 0.67654 0.40442 0.79659 0.0
C160 C 0.6735 0.43664 0.79482 0.0
C161 C 0.65296 0.45313 0.8081 0.0
C162 C 0.58955 0.46861 0.83441 0.0
C163 C 0.58342 0.49887 0.84157 0.0
C164 C 0.55385 0.51124 0.8392 0.0
C165 C 0.52961 0.49359 0.82942 0.0
C166 C 0.53611 0.46354 0.82139 0.0
C167 C 0.5658 0.45108 0.82394 0.0
C168 C 0.41214 0.56375 0.86311 0.0
C169 C 0.41368 0.59582 0.86023 0.0
C170 C 0.40994 0.61617 0.87816 0.0
C171 C 0.40586 0.60501 0.89953 0.0
C172 C 0.40725 0.57294 0.90263 0.0
C173 C 0.4101 0.55253 0.88452 0.0
C174 C 0.38595 0.5519 0.8283 0.0
C175 C 0.35492 0.55073 0.83434 0.0
C176 C 0.33234 0.56746 0.82295 0.0
C177 C 0.34012 0.58511 0.80475 0.0
C178 C 0.37072 0.58425 0.79751 0.0
C179 C 0.39347 0.56794 0.80919 0.0
C180 C 0.438 0.53031 0.83677 0.0
C181 C 0.46235 0.5497 0.83092 0.0
C182 C 0.49163 0.53747 0.82708 0.0
C183 C 0.49742 0.50575 0.82951 0.0
C184 C 0.47259 0.48629 0.83431 0.0
C185 C 0.44321 0.49851 0.83783 0.0
H186 H 0.50262 0.8704 0.14406 0.0
N187 N 0.48642 0.89894 0.10731 0.0
H188 H 0.4712 0.86462 0.17672 0.0
H189 H 0.436 0.93426 0.1174 0.0
H190 H 0.40484 0.92914 0.15016 0.0
H191 H 0.4456 0.92595 0.07856 0.0
H192 H 0.40865 0.89877 0.05347 0.0
H193 H 0.4837 0.83888 0.09857 0.0
H194 H 0.4477 0.81156 0.07305 0.0
H195 H 0.5386 0.8876 0.08707 0.0
H196 H 0.48131 0.96236 0.11023 0.0
H197 H 0.57545 0.92455 0.07333 0.0
H198 H 0.51886 -0.00044 0.09778 0.0
H199 H 0.7033 0.06045 0.0812 0.0
H200 H 0.72264 0.08812 0.11469 0.0
H201 H 0.62882 0.10464 0.13428 0.0
H202 H 0.60969 0.07684 0.10105 0.0
H203 H 0.60873 0.10602 0.06631 0.0
H204 H 0.62207 0.1524 0.04702 0.0
H205 H 0.69277 0.1023 0.01232 0.0
H206 H 0.67936 0.05553 0.03189 0.0
H207 H 0.65259 0.99606 0.07856 0.0
H208 H 0.61326 0.9585 0.08716 0.0
H209 H 0.54214 0.02293 0.06729 0.0
N210 N 0.64477 0.0539 0.06741 0.0
H211 H 0.58166 0.06079 0.05963 0.0
C212 C 0.4719 0.9028 0.12836 0.0
C213 C 0.48191 0.88419 0.14572 0.0
C214 C 0.46392 0.88094 0.16436 0.0
C215 C 0.43554 0.89646 0.16599 0.0
C216 C 0.42656 0.91683 0.14929 0.0
C217 C 0.44454 0.91998 0.13062 0.0
C218 C 0.46721 0.88422 0.09042 0.0
C219 C 0.44628 0.90101 0.07725 0.0
C220 C 0.42536 0.8855 0.06287 0.0
C221 C 0.4253 0.85307 0.06139 0.0
C222 C 0.44702 0.83655 0.07406 0.0
C223 C 0.46771 0.85202 0.08845 0.0
C224 C 0.50753 0.92203 0.10003 0.0
C225 C 0.53421 0.91206 0.08941 0.0
C226 C 0.55529 0.93326 0.08166 0.0
C227 C 0.55044 0.96516 0.08465 0.0
C228 C 0.52328 0.97521 0.09496 0.0
C229 C 0.50187 0.95386 0.10241 0.0
C230 C 0.65519 0.06648 0.08863 0.0
C231 C 0.68701 0.06958 0.09296 0.0
C232 C 0.69795 0.08557 0.11191 0.0
C233 C 0.67716 0.09881 0.12684 0.0
C234 C 0.6453 0.09457 0.12302 0.0
C235 C 0.63436 0.07867 0.10404 0.0
C236 C 0.64323 0.07706 0.05066 0.0
C237 C 0.62592 0.10431 0.05369 0.0
C238 C 0.63368 0.13104 0.04267 0.0
C239 C 0.6589 0.13106 0.02857 0.0
C240 C 0.67348 0.10295 0.02337 0.0
C241 C 0.66566 0.07617 0.03437 0.0
C242 C 0.62042 0.03126 0.06845 0.0
C243 C 0.62851 0.00184 0.07569 0.0
C244 C 0.60589 0.98037 0.08055 0.0
C245 C 0.57436 0.98761 0.078 0.0
C246 C 0.56616 0.01673 0.06986 0.0
C247 C 0.58893 0.03843 0.06522 0.0
H248 H 0.10663 0.61352 0.91094 0.0
N249 N 0.05461 0.63373 0.9321 0.0
H250 H 0.12064 0.62451 0.8734 0.0
H251 H 0.01961 0.66033 0.90105 0.0
H252 H 0.03373 0.67133 0.8629 0.0
H253 H 0.05916 0.6924 0.94556 0.0
H254 H 0.10433 0.71782 0.96324 0.0
H255 H 0.1044 0.60422 0.95126 0.0
H256 H 0.14971 0.62946 0.96806 0.0
H257 H 0.0735 0.57456 0.92111 0.0
H258 H 0.00641 0.62694 0.95781 0.0
H259 H 0.04923 0.52702 0.93132 0.0
H260 H 0.98237 0.57873 0.96897 0.0
H261 H 0.96778 0.37278 0.94709 0.0
H262 H 0.95609 0.34711 0.91116 0.0
H263 H 0.92593 0.43415 0.88502 0.0
H264 H 0.93762 0.45948 0.92037 0.0
H265 H 0.89511 0.43915 0.94651 0.0
H266 H 0.85103 0.41903 0.96544 0.0
H267 H 0.91096 0.3939 0.02038 0.0
H268 H 0.95567 0.41162 0.00021 0.0
H269 H 0.01576 0.44371 0.96407 0.0
H270 H 0.04106 0.4938 0.96119 0.0
H271 H 0.95171 0.53717 0.95307 0.0
N272 N 0.95616 0.43113 0.95883 0.0
H273 H 0.92673 0.48728 0.95691 0.0
C274 C 0.06186 0.63617 0.90899 0.0
C275 C 0.09013 0.6256 0.90062 0.0
C276 C 0.09819 0.63181 0.87902 0.0
C277 C 0.07839 0.64895 0.86531 0.0
C278 C 0.04957 0.65835 0.87325 0.0
C279 C 0.04141 0.65196 0.89492 0.0
C280 C 0.07837 0.64654 0.94682 0.0
C281 C 0.07851 0.67848 0.95108 0.0
C282 C 0.10441 0.69296 0.96094 0.0
C283 C 0.13082 0.67569 0.96648 0.0
C284 C 0.12971 0.64339 0.96392 0.0
C285 C 0.10372 0.6289 0.95423 0.0
C286 C 0.04152 0.60469 0.93844 0.0
C287 C 0.05363 0.57604 0.93147 0.0
C288 C 0.03986 0.54857 0.93761 0.0
C289 C 0.01386 0.54894 0.95107 0.0
C290 C 0.00214 0.57758 0.95839 0.0
C291 C 0.01588 0.60512 0.95211 0.0
C292 C 0.95389 0.41804 0.9366 0.0
C293 C 0.95948 0.38639 0.9334 0.0
C294 C 0.95269 0.3718 0.91296 0.0
C295 C 0.94036 0.38873 0.8953 0.0
C296 C 0.9361 0.42066 0.89817 0.0
C297 C 0.94276 0.43519 0.91857 0.0
C298 C 0.92903 0.42595 0.97165 0.0
C299 C 0.89895 0.42936 0.96261 0.0
C300 C 0.87355 0.41801 0.9736 0.0
C301 C 0.8775 0.40381 0.99414 0.0
C302 C 0.90723 0.40334 0.00413 0.0
C303 C 0.93276 0.41394 0.99283 0.0
C304 C 0.96951 0.46162 0.96056 0.0
C305 C 0.0017 0.46419 0.9622 0.0
C306 C 0.01607 0.49278 0.9603 0.0
C307 C 0.99845 0.51948 0.95646 0.0
C308 C 0.96602 0.51717 0.95613 0.0
C309 C 0.95165 0.48854 0.95828 0.0
H310 H 0.53346 0.34453 0.1546 0.0
N311 N 0.53228 0.39454 0.18092 0.0
H312 H 0.56569 0.33631 0.12216 0.0
H313 H 0.56235 0.43977 0.15881 0.0
H314 H 0.59449 0.43155 0.12677 0.0
H315 H 0.5933 0.41001 0.18853 0.0
H316 H 0.62924 0.38047 0.21067 0.0
H317 H 0.51701 0.36047 0.21515 0.0
H318 H 0.55282 0.33379 0.24009 0.0
H319 H 0.47201 0.38512 0.18016 0.0
H320 H 0.54077 0.45589 0.19108 0.0
H321 H 0.43121 0.42357 0.18266 0.0
H322 H 0.50052 0.49531 0.19099 0.0
H323 H 0.3105 0.56078 0.15703 0.0
H324 H 0.29891 0.58239 0.12057 0.0
H325 H 0.39654 0.58885 0.10884 0.0
H326 H 0.408 0.56754 0.14523 0.0
H327 H 0.39806 0.60873 0.17404 0.0
H328 H 0.3894 0.65556 0.19568 0.0
H329 H 0.32649 0.60637 0.23656 0.0
H330 H 0.33297 0.56002 0.21309 0.0
H331 H 0.36726 0.49772 0.15893 0.0
H332 H 0.40791 0.45955 0.16175 0.0
H333 H 0.45999 0.5211 0.20619 0.0
N334 N 0.36585 0.55436 0.17663 0.0
H335 H 0.42062 0.5602 0.2016 0.0
C336 C 0.54545 0.39261 0.15925 0.0
C337 C 0.54586 0.36386 0.14811 0.0
C338 C 0.56422 0.35922 0.12966 0.0
C339 C 0.58263 0.38329 0.12224 0.0
C340 C 0.58048 0.41268 0.13231 0.0
C341 C 0.5619 0.41739 0.1506 0.0
C342 C 0.5524 0.3862 0.19923 0.0
C343 C 0.58407 0.39348 0.19969 0.0
C344 C 0.6048 0.37668 0.21274 0.0
C345 C 0.59418 0.35327 0.22638 0.0
C346 C 0.56206 0.35001 0.22867 0.0
C347 C 0.54143 0.36578 0.2148 0.0
C348 C 0.50924 0.41778 0.18468 0.0
C349 C 0.47819 0.40916 0.18288 0.0
C350 C 0.45494 0.43135 0.18399 0.0
C351 C 0.4623 0.46297 0.18622 0.0
C352 C 0.49366 0.47136 0.18918 0.0
C353 C 0.51689 0.44888 0.18883 0.0
C354 C 0.35997 0.56268 0.1539 0.0
C355 C 0.32932 0.56631 0.14637 0.0
C356 C 0.32277 0.57859 0.12562 0.0
C357 C 0.34688 0.58762 0.11214 0.0
C358 C 0.37759 0.58246 0.11913 0.0
C359 C 0.38412 0.57011 0.13983 0.0
C360 C 0.36545 0.5809 0.1916 0.0
C361 C 0.38232 0.60789 0.18758 0.0
C362 C 0.37778 0.6347 0.20034 0.0
C363 C 0.35733 0.63485 0.21802 0.0
C364 C 0.34205 0.60724 0.22286 0.0
C365 C 0.34591 0.58065 0.20965 0.0
C366 C 0.39054 0.53212 0.17973 0.0
C367 C 0.38756 0.50307 0.16916 0.0
C368 C 0.41081 0.48101 0.17111 0.0
C369 C 0.43745 0.48682 0.18443 0.0
C370 C 0.44022 0.51576 0.19546 0.0
C371 C 0.41728 0.53827 0.19297 0.0
H372 H 0.41214 0.92255 0.43647 0.0
N373 N 0.47152 0.90951 0.44965 0.0
H374 H 0.3846 0.90093 0.40402 0.0
H375 H 0.49541 0.87604 0.41667 0.0
H376 H 0.46753 0.85392 0.38399 0.0
H377 H 0.46421 0.8517 0.46122 0.0
H378 H 0.41992 0.83186 0.47959 0.0
H379 H 0.43933 0.9444 0.48136 0.0
H380 H 0.39592 0.92446 0.50107 0.0
H381 H 0.44133 0.96539 0.44718 0.0
H382 H 0.53109 0.92255 0.44894 0.0
H383 H 0.46469 0.01485 0.44068 0.0
H384 H 0.55473 0.97146 0.44001 0.0
H385 H 0.55173 0.16071 0.38646 0.0
H386 H 0.5693 0.16962 0.34902 0.0
H387 H 0.60709 0.0775 0.34601 0.0
H388 H 0.58969 0.0688 0.38354 0.0
H389 H 0.62687 0.10676 0.40582 0.0
H390 H 0.66729 0.13086 0.42837 0.0
H391 H 0.59914 0.1687 0.47237 0.0
H392 H 0.55795 0.14657 0.44819 0.0
H393 H 0.50757 0.09075 0.40238 0.0
H394 H 0.48521 0.04217 0.41333 0.0
H395 H 0.57048 0.02023 0.4485 0.0
N396 N 0.56409 0.11232 0.41127 0.0
H397 H 0.59344 0.06705 0.43559 0.0
C398 C 0.45599 0.90086 0.429 0.0
C399 C 0.42474 0.9083 0.42489 0.0
C400 C 0.40888 0.89563 0.40649 0.0
C401 C 0.4239 0.87539 0.39185 0.0
C402 C 0.45551 0.86939 0.39517 0.0
C403 C 0.4714 0.88199 0.4137 0.0
C404 C 0.45443 0.89962 0.46855 0.0
C405 C 0.45016 0.86771 0.47062 0.0
C406 C 0.42465 0.85631 0.48138 0.0
C407 C 0.4036 0.87658 0.49147 0.0
C408 C 0.41097 0.90824 0.49273 0.0
C409 C 0.436 0.91975 0.48126 0.0
C410 C 0.48459 0.94015 0.44937 0.0
C411 C 0.46621 0.96663 0.44666 0.0
C412 C 0.47969 0.99503 0.4423 0.0
C413 C 0.51176 0.99751 0.43941 0.0
C414 C 0.53009 0.97101 0.4425 0.0
C415 C 0.51663 0.94285 0.44761 0.0
C416 C 0.56931 0.11424 0.38782 0.0
C417 C 0.56295 0.14215 0.37744 0.0
C418 C 0.57291 0.14713 0.35605 0.0
C419 C 0.58946 0.12418 0.34461 0.0
C420 C 0.59436 0.09554 0.35449 0.0
C421 C 0.58423 0.0905 0.37587 0.0
C422 C 0.58897 0.12535 0.425 0.0
C423 C 0.62025 0.12054 0.42004 0.0
C424 C 0.64362 0.13388 0.43333 0.0
C425 C 0.63656 0.15118 0.45249 0.0
C426 C 0.60536 0.15558 0.45767 0.0
C427 C 0.58183 0.14288 0.44397 0.0
C428 C 0.55201 0.08303 0.4182 0.0
C429 C 0.52144 0.07526 0.41231 0.0
C430 C 0.50857 0.04755 0.41893 0.0
C431 C 0.52572 0.02709 0.43222 0.0
C432 C 0.55648 0.03493 0.43809 0.0
C433 C 0.56965 0.0622 0.43086 0.0
H434 H 0.06343 0.8655 0.63606 0.0
N435 N 0.07363 0.91275 0.66422 0.0
H436 H 0.08634 0.85656 0.59975 0.0
H437 H 0.11253 0.95184 0.64338 0.0
H438 H 0.13547 0.94302 0.60732 0.0
H439 H 0.13692 0.90373 0.667 0.0
H440 H 0.16352 0.87087 0.69281 0.0
H441 H 0.05264 0.89398 0.70276 0.0
H442 H 0.08046 0.86369 0.73043 0.0
H443 H 0.01505 0.92473 0.65437 0.0
H444 H 0.09802 0.96591 0.68275 0.0
H445 H 0.98921 0.97493 0.6558 0.0
H446 H 0.07243 0.01646 0.68408 0.0
H447 H 0.92201 0.09248 0.6511 0.0
H448 H 0.88244 0.10737 0.62378 0.0
H449 H 0.94435 0.17565 0.59901 0.0
H450 H 0.98387 0.16087 0.62657 0.0
H451 H 0.99501 0.17762 0.67284 0.0
H452 H 0.96909 0.21111 0.69976 0.0
H453 H 0.90732 0.13639 0.71419 0.0
H454 H 0.93448 0.10268 0.68828 0.0
H455 H 0.97739 0.07283 0.62892 0.0
H456 H -0.00127 0.02203 0.63385 0.0
H457 H 0.0285 0.04742 0.70047 0.0
N458 N 0.97775 0.12141 0.65912 0.0
H459 H 0.00679 0.0988 0.69584 0.0
C460 C 0.08595 0.90934 0.64233 0.0
C461 C 0.07881 0.88266 0.62969 0.0
C462 C 0.09194 0.87759 0.60907 0.0
C463 C 0.11244 0.89925 0.60068 0.0
C464 C 0.11923 0.92628 0.61317 0.0
C465 C 0.10613 0.93131 0.63382 0.0
C466 C 0.09208 0.90039 0.68226 0.0
C467 C 0.1241 0.89527 0.68068 0.0
C468 C 0.13963 0.87661 0.6958 0.0
C469 C 0.12389 0.86342 0.71329 0.0
C470 C 0.09295 0.872 0.7165 0.0
C471 C 0.0771 0.88976 0.70089 0.0
C472 C 0.05829 0.94169 0.66837 0.0
C473 C 0.02744 0.9446 0.66127 0.0
C474 C 0.01285 0.97325 0.66198 0.0
C475 C 0.02892 -0.00038 0.66985 0.0
C476 C 0.05944 0.99647 0.67806 0.0
C477 C 0.07409 0.96769 0.67726 0.0
C478 C 0.95592 0.12584 0.64096 0.0
C479 C 0.92719 0.11051 0.63972 0.0
C480 C 0.90458 0.11902 0.62416 0.0
C481 C 0.91029 0.14292 0.60958 0.0
C482 C 0.93946 0.15712 0.61009 0.0
C483 C 0.96201 0.1487 0.62572 0.0
C484 C 0.96663 0.13784 0.67842 0.0
C485 C 0.97658 0.16825 0.68241 0.0
C486 C 0.96151 0.18738 0.69755 0.0
C487 C 0.93597 0.17647 0.70891 0.0
C488 C 0.92713 0.14541 0.7059 0.0
C489 C 0.94249 0.12616 0.69093 0.0
C490 C 0.98808 0.08982 0.66255 0.0
C491 C 0.98724 0.06763 0.64503 0.0
C492 C -0.00022 0.03832 0.64774 0.0
C493 C 0.01462 0.03051 0.66772 0.0
C494 C 0.01676 0.0527 0.68498 0.0
C495 C 0.0039 0.08204 0.68237 0.0
Zn496 Zn 0.31459 0.74727 0.96895 0.0
Zn497 Zn 0.31853 0.70828 0.00363 0.0
O498 O 0.27213 0.70834 0.99746 0.0
O499 O 0.26807 0.73879 0.96898 0.0
O500 O 0.32499 0.68272 0.0305 0.0
O501 O 0.33409 0.78218 0.98735 0.0
O502 O 0.33817 0.74903 0.01416 0.0
C503 C 0.25555 0.72138 0.98272 0.0
C504 C 0.35078 0.69193 0.96082 0.0
O505 O 0.34204 0.68476 0.97993 0.0
O506 O 0.3431 0.71754 0.95263 0.0
C507 C 0.31713 0.65467 0.03215 0.0
O508 O 0.30242 0.6407 0.01545 0.0
C509 C 0.34298 0.77581 0.00681 0.0
Zn510 Zn 0.2995 0.78674 0.29806 0.0
Zn511 Zn 0.33333 0.82026 0.27059 0.0
O512 O 0.2906 0.84139 0.26849 0.0
O513 O 0.26307 0.81382 0.29074 0.0
O514 O 0.35999 0.84358 0.24994 0.0
O515 O 0.30746 0.74784 0.28014 0.0
O516 O 0.3372 0.77529 0.25909 0.0
C517 C 0.26511 0.83622 0.27782 0.0
C518 C 0.35059 0.81911 0.31987 0.0
O519 O 0.35492 0.82856 0.30045 0.0
O520 O 0.32881 0.80043 0.32324 0.0
C521 C 0.35084 0.85024 0.23052 0.0
O522 O 0.32282 0.84211 0.22383 0.0
C523 C 0.32574 0.74945 0.26423 0.0
Zn524 Zn 0.23784 0.79531 0.45721 0.0
Zn525 Zn 0.2105 0.82592 0.49099 0.0
O526 O 0.25617 0.83692 0.49645 0.0
O527 O 0.27933 0.80744 0.47167 0.0
O528 O 0.18929 0.84366 0.51761 0.0
O529 O 0.21741 0.75491 0.46459 0.0
O530 O 0.19844 0.78033 0.49301 0.0
C531 C 0.28073 0.82666 0.48781 0.0
C532 C 0.19706 0.8459 0.44392 0.0
O533 O 0.19186 0.84832 0.4645 0.0
O534 O 0.21582 0.82566 0.43687 0.0
C535 C 0.17656 0.87 0.5193 0.0
O536 O 0.17752 0.88877 0.50262 0.0
C537 C 0.20163 0.75522 0.4819 0.0
Zn538 Zn 0.23135 0.70974 0.73117 0.0
Zn539 Zn 0.18352 0.68475 0.75237 0.0
O540 O 0.1756 0.7312 0.74952 0.0
O541 O 0.21608 0.75364 0.73594 0.0
O542 O 0.15054 0.67081 0.77311 0.0
O543 O 0.26284 0.68951 0.75147 0.0
O544 O 0.22316 0.66731 0.76652 0.0
C545 C 0.18906 0.75549 0.74335 0.0
C546 C 0.19019 0.66633 0.70504 0.0
O547 O 0.17525 0.66343 0.72271 0.0
O548 O 0.2135 0.68414 0.70484 0.0
C549 C 0.14158 0.6896 0.78813 0.0
O550 O 0.15358 0.71743 0.78934 0.0
C551 C 0.25223 0.67042 0.76483 0.0
Zn552 Zn 0.77022 0.24174 0.53826 0.0
Zn553 Zn 0.8074 0.22295 0.50448 0.0
O554 O 0.81467 0.26923 0.5073 0.0
O555 O 0.78543 0.28565 0.53428 0.0
O556 O 0.83429 0.20998 0.4794 0.0
O557 O 0.733 0.22492 0.52049 0.0
O558 O 0.76455 0.2075 0.49499 0.0
C559 C 0.80521 0.2911 0.51979 0.0
C560 C 0.81967 0.19884 0.5506 0.0
O561 O 0.8263 0.20058 0.53033 0.0
O562 O 0.79656 0.21344 0.558 0.0
C563 C 0.86259 0.21776 0.47957 0.0
O564 O 0.87379 0.2347 0.49624 0.0
C565 C 0.7375 0.21011 0.50254 0.0
Zn566 Zn 0.83243 0.29355 0.79532 0.0
Zn567 Zn 0.85813 0.33621 0.76923 0.0
O568 O 0.81262 0.34912 0.77074 0.0
O569 O 0.79 0.31169 0.78824 0.0
O570 O 0.87634 0.36452 0.74699 0.0
O571 O 0.85008 0.25842 0.77704 0.0
O572 O 0.86899 0.29384 0.75581 0.0
C573 C 0.78835 0.33693 0.77815 0.0
C574 C 0.87882 0.33422 0.81732 0.0
O575 O 0.8814 0.34561 0.79826 0.0
O576 O 0.85946 0.31279 0.8202 0.0
C577 C 0.86185 0.36728 0.72858 0.0
O578 O 0.83534 0.35287 0.7255 0.0
C579 C 0.86547 0.26558 0.76044 0.0
Zn580 Zn 0.73286 0.30529 0.05458 0.0
Zn581 Zn 0.70142 0.3235 0.01798 0.0
O582 O 0.69674 0.2762 0.01541 0.0
O583 O 0.72308 0.26128 0.04492 0.0
O584 O 0.68363 0.33903 0.98919 0.0
O585 O 0.77252 0.32491 0.04544 0.0
O586 O 0.74545 0.34163 0.01685 0.0
C587 C 0.70697 0.25475 0.02764 0.0
C588 C 0.6784 0.34271 0.06333 0.0
O589 O 0.67465 0.34181 0.04237 0.0
O590 O 0.70164 0.32986 0.07236 0.0
C591 C 0.65986 0.35586 0.98656 0.0
O592 O 0.64303 0.36295 0.00371 0.0
C593 C 0.7708 0.3403 0.02797 0.0
Zn594 Zn 0.74193 0.23296 0.22485 0.0
Zn595 Zn 0.70908 0.19473 0.25031 0.0
O596 O 0.68556 0.23585 0.25044 0.0
O597 O 0.71308 0.26861 0.23192 0.0
O598 O 0.68485 0.16989 0.27154 0.0
O599 O 0.78037 0.22537 0.24373 0.0
O600 O 0.75351 0.19273 0.26291 0.0
C601 C 0.6894 0.26271 0.2429 0.0
C602 C 0.7144 0.1783 0.20182 0.0
O603 O 0.70439 0.17199 0.22078 0.0
O604 O 0.73044 0.20245 0.19942 0.0
C605 C 0.65573 0.1671 0.26905 0.0
O606 O 0.642 0.17921 0.25169 0.0
C607 C 0.77903 0.20575 0.25883 0.0
C608 C 0.2211 0.91012 0.26589 0.0
C609 C 0.1959 0.90845 0.28007 0.0
C610 C 0.24233 0.88575 0.264 0.0
C611 C 0.23918 0.8587 0.27619 0.0
H612 H 0.22526 0.93101 0.25697 0.0
H613 H 0.26219 0.88885 0.25376 0.0
S614 S 0.17552 0.8415 0.31408 0.0
N615 N 0.16813 0.87662 0.30555 0.0
N616 N 0.20697 0.83058 0.30127 0.0
C617 C 0.21276 0.85583 0.28912 0.0
C618 C 0.19141 0.88073 0.29125 0.0
C619 C 0.16389 0.69868 0.51968 0.0
C620 C 0.16063 0.67168 0.5064 0.0
C621 C 0.17681 0.72551 0.51148 0.0
C622 C 0.18728 0.72649 0.48968 0.0
H623 H 0.15709 0.69891 0.5368 0.0
H624 H 0.17912 0.74548 0.52255 0.0
S625 S 0.18206 0.66261 0.44762 0.0
N626 N 0.16733 0.64801 0.46998 0.0
N627 N 0.1922 0.69836 0.45458 0.0
C628 C 0.18374 0.69979 0.47606 0.0
C629 C 0.17033 0.67244 0.48442 0.0
C630 C 0.32571 0.63685 0.78993 0.0
C631 C 0.31712 0.60637 0.79455 0.0
C632 C 0.30443 0.65768 0.78083 0.0
C633 C 0.27358 0.64904 0.77633 0.0
H634 H 0.34906 0.64482 0.79354 0.0
H635 H 0.31223 0.68074 0.77729 0.0
S636 S 0.23959 0.57155 0.78428 0.0
N637 N 0.27589 0.56823 0.79292 0.0
N638 N 0.23564 0.60762 0.77657 0.0
C639 C 0.26457 0.61871 0.781 0.0
C640 C 0.28638 0.59735 0.78992 0.0
C641 C 0.38598 0.81133 0.05644 0.0
C642 C 0.40207 0.83601 0.04744 0.0
C643 C 0.36596 0.79286 0.04332 0.0
C644 C 0.36111 0.79836 0.02066 0.0
H645 H 0.3893 0.80589 0.07373 0.0
H646 H 0.35473 0.77367 0.05097 0.0
S647 S 0.39685 0.86108 0.9893 0.0
N648 N 0.41126 0.86572 0.01472 0.0
N649 N 0.37322 0.83123 0.98997 0.0
C650 C 0.37611 0.82381 0.01162 0.0
C651 C 0.39667 0.84258 0.02504 0.0
C652 C 0.17908 0.68042 0.99016 0.0
C653 C 0.1606 0.69112 0.9725 0.0
C654 C 0.20919 0.69154 0.99405 0.0
C655 C 0.22213 0.71367 0.98032 0.0
H656 H 0.1705 0.66265 0.00069 0.0
H657 H 0.22278 0.68177 0.00744 0.0
S658 S 0.18246 0.75035 0.93248 0.0
N659 N 0.15684 0.72593 0.94164 0.0
N660 N 0.2131 0.74725 0.94909 0.0
C661 C 0.20328 0.72563 0.96322 0.0
C662 C 0.17263 0.71426 0.95927 0.0
C663 C 0.31945 0.67092 0.23572 0.0
C664 C 0.35023 0.66411 0.23034 0.0
C665 C 0.31175 0.69861 0.24666 0.0
C666 C 0.33436 0.72092 0.25214 0.0
H667 H 0.30099 0.65495 0.23118 0.0
H668 H 0.28781 0.7028 0.25056 0.0
S669 S 0.41845 0.71394 0.24346 0.0
N670 N 0.40377 0.6814 0.233 0.0
N671 N 0.38881 0.7342 0.25243 0.0
C672 C 0.36515 0.71461 0.24698 0.0
C673 C 0.3732 0.68604 0.23634 0.0
C674 C 0.34618 0.88362 0.4895 0.0
C675 C 0.37178 0.86567 0.49628 0.0
C676 C 0.31622 0.87141 0.48855 0.0
C677 C 0.31076 0.84067 0.49397 0.0
H678 H 0.3494 0.90658 0.4833 0.0
H679 H 0.29756 0.88542 0.48199 0.0
S680 S 0.36793 0.78566 0.51669 0.0
N681 N 0.38825 0.81704 0.51218 0.0
N682 N 0.33203 0.79359 0.50884 0.0
C683 C 0.33541 0.82309 0.50223 0.0
C684 C 0.36588 0.83575 0.50381 0.0
C685 C 0.17067 0.83897 0.73123 0.0
C686 C 0.13877 0.83797 0.72595 0.0
C687 C 0.18662 0.81269 0.73835 0.0
C688 C 0.1712 0.78451 0.74095 0.0
H689 H 0.18378 0.85984 0.72878 0.0
H690 H 0.21144 0.81412 0.74089 0.0
S691 S 0.08722 0.77016 0.73175 0.0
N692 N 0.09208 0.80652 0.72525 0.0
N693 N 0.12167 0.75792 0.7398 0.0
C694 C 0.13889 0.78386 0.73762 0.0
C695 C 0.12276 0.81038 0.72987 0.0
C696 C 0.73305 0.40247 0.78866 0.0
C697 C 0.70384 0.38801 0.78729 0.0
C698 C 0.76012 0.38618 0.78402 0.0
C699 C 0.75922 0.35459 0.77831 0.0
H700 H 0.73542 0.42611 0.79468 0.0
H701 H 0.78208 0.39794 0.78641 0.0
S702 S 0.68892 0.30702 0.76836 0.0
N703 N 0.67568 0.34124 0.77614 0.0
N704 N 0.72695 0.31017 0.76889 0.0
C705 C 0.7303 0.3402 0.77552 0.0
C706 C 0.70255 0.35701 0.77964 0.0
C707 C 0.65598 0.1852 0.01476 0.0
C708 C 0.67361 0.1609 0.02352 0.0
C709 C 0.66788 0.21535 0.01443 0.0
C710 C 0.69754 0.22227 0.02332 0.0
H711 H 0.63236 0.18113 0.00908 0.0
H712 H 0.65298 0.23366 0.00858 0.0
S713 S 0.75378 0.16641 0.04657 0.0
N714 N 0.72295 0.14545 0.03989 0.0
N715 N 0.74515 0.20192 0.03935 0.0
C716 C 0.71598 0.19783 0.03092 0.0
C717 C 0.70405 0.16719 0.03101 0.0
C718 C 0.85885 0.2102 0.28592 0.0
C719 C 0.86491 0.17938 0.29155 0.0
C720 C 0.83093 0.21858 0.27549 0.0
C721 C 0.80769 0.19662 0.27072 0.0
H722 H 0.87566 0.22815 0.28983 0.0
H723 H 0.82737 0.24251 0.27135 0.0
S724 S 0.8125 0.11261 0.28049 0.0
N725 N 0.84586 0.12651 0.29012 0.0
N726 N 0.79282 0.14261 0.27146 0.0
C727 C 0.8133 0.16577 0.2762 0.0
C728 C 0.84201 0.15707 0.28639 0.0
C729 C 0.83697 0.36624 0.54345 0.0
C730 C 0.86502 0.36865 0.53249 0.0
C731 C 0.81576 0.34283 0.5376 0.0
C732 C 0.82197 0.32102 0.52061 0.0
H733 H 0.83263 0.38068 0.55793 0.0
H734 H 0.7957 0.34034 0.54773 0.0
S735 S 0.88873 0.3228 0.48329 0.0
N736 N 0.89535 0.35137 0.50138 0.0
N737 N 0.85546 0.30751 0.49005 0.0
C738 C 0.84814 0.32581 0.50773 0.0
C739 C 0.86975 0.34955 0.51381 0.0
C740 C 0.65926 0.19585 0.4747 0.0
C741 C 0.66178 0.16519 0.4666 0.0
C742 C 0.68363 0.21017 0.48678 0.0
C743 C 0.71154 0.19452 0.49073 0.0
H744 H 0.63862 0.20917 0.47121 0.0
H745 H 0.68097 0.23389 0.49248 0.0
S746 S 0.72876 0.11306 0.47576 0.0
N747 N 0.69341 0.11871 0.46577 0.0
N748 N 0.73971 0.14633 0.48732 0.0
C749 C 0.71417 0.16376 0.4833 0.0
C750 C 0.68917 0.14891 0.47152 0.0
C751 C 0.9089 0.22699 0.71375 0.0
C752 C 0.91724 0.19821 0.72237 0.0
C753 C 0.89151 0.24824 0.72597 0.0
C754 C 0.88148 0.24149 0.74724 0.0
H755 H 0.91581 0.23316 0.69735 0.0
H756 H 0.88603 0.27023 0.71869 0.0
S757 S 0.89758 0.16949 0.77751 0.0
N758 N 0.91459 0.16421 0.7536 0.0
N759 N 0.88129 0.20388 0.77648 0.0
C760 C 0.8892 0.21256 0.75595 0.0
C761 C 0.90721 0.191 0.74354 0.0
C762 C 0.82125 0.40137 0.00332 0.0
C763 C 0.85092 0.388 0.00422 0.0
C764 C 0.79542 0.38578 0.01099 0.0
C765 C 0.79836 0.35653 0.02031 0.0
H766 H 0.81787 0.42402 0.9965 0.0
H767 H 0.77301 0.39681 0.00978 0.0
S768 S 0.87016 0.31051 0.02567 0.0
N769 N 0.8811 0.34274 0.01419 0.0
N770 N 0.83279 0.31438 0.02968 0.0
C771 C 0.82778 0.34301 0.02164 0.0
C772 C 0.85399 0.35852 0.01337 0.0
C773 C 0.64678 0.33899 0.24189 0.0
C774 C 0.61649 0.33001 0.23534 0.0
C775 C 0.67013 0.31708 0.24551 0.0
C776 C 0.66388 0.28533 0.24351 0.0
H777 H 0.65293 0.36319 0.24325 0.0
H778 H 0.69346 0.32505 0.2492 0.0
S779 S 0.58849 0.24901 0.22841 0.0
N780 N 0.58177 0.28643 0.22772 0.0
N781 N 0.62514 0.24571 0.23607 0.0
C782 C 0.63338 0.27589 0.23866 0.0
C783 C 0.60979 0.29809 0.23427 0.0
C784 C 0.18638 0.89442 0.39301 0.0
C785 C 0.1625 0.91475 0.39879 0.0
C786 C 0.19649 0.87153 0.40739 0.0
C787 C 0.18338 0.86831 0.42828 0.0
H788 H 0.19763 0.89652 0.37732 0.0
H789 H 0.21542 0.85689 0.4023 0.0
S790 S 0.11891 0.91514 0.45064 0.0
N791 N 0.12495 0.92966 0.42612 0.0
N792 N 0.14407 0.88678 0.45349 0.0
C793 C 0.15881 0.88807 0.43398 0.0
C794 C 0.14831 0.91122 0.41914 0.0
C795 C 0.18775 0.63914 0.64491 0.0
C796 C 0.16293 0.61827 0.64381 0.0
C797 C 0.19637 0.65434 0.66478 0.0
C798 C 0.18053 0.64928 0.68442 0.0
H799 H 0.20031 0.64422 0.63017 0.0
H800 H 0.2155 0.67042 0.66461 0.0
S801 S 0.11476 0.59532 0.69044 0.0
N802 N 0.12331 0.59217 0.66403 0.0
N803 N 0.13925 0.62089 0.70153 0.0
C804 C 0.15584 0.62805 0.68359 0.0
C805 C 0.14708 0.61256 0.66326 0.0
C806 C 0.3714 0.61754 0.93109 0.0
C807 C 0.39587 0.62631 0.91766 0.0
C808 C 0.35795 0.63862 0.94587 0.0
C809 C 0.368 0.66938 0.9474 0.0
H810 H 0.3614 0.59468 0.92942 0.0
H811 H 0.33847 0.63119 0.95529 0.0
S812 S 0.43421 0.70301 0.91888 0.0
N813 N 0.43237 0.66695 0.90943 0.0
N814 N 0.40566 0.70702 0.9363 0.0
C815 C 0.3933 0.67819 0.93502 0.0
C816 C 0.4076 0.65654 0.92038 0.0
C817 C 0.38314 0.87985 0.17727 0.0
C818 C 0.41363 0.88822 0.18339 0.0
C819 C 0.36283 0.86845 0.19276 0.0
C820 C 0.37216 0.8649 0.21503 0.0
H821 H 0.37522 0.88096 0.16017 0.0
H822 H 0.33989 0.86158 0.187 0.0
S823 S 0.44874 0.88667 0.23995 0.0
N824 N 0.45151 0.89456 0.2135 0.0
N825 N 0.41351 0.87298 0.24271 0.0
C826 C 0.40227 0.87439 0.22156 0.0
C827 C 0.42296 0.88603 0.20573 0.0
C828 C 0.10314 0.6379 0.82897 0.0
C829 C 0.08954 0.65922 0.8437 0.0
C830 C 0.11844 0.64776 0.81025 0.0
C831 C 0.12106 0.67934 0.80576 0.0
H832 H 0.10285 0.61348 0.83237 0.0
H833 H 0.12958 0.63058 0.79987 0.0
S834 S 0.08714 0.74422 0.83822 0.0
N835 N 0.07797 0.71311 0.85181 0.0
N836 N 0.10648 0.7317 0.81662 0.0
C837 C 0.10614 0.70075 0.81974 0.0
C838 C 0.09042 0.69068 0.83871 0.0
C839 C 0.31952 0.59226 0.07531 0.0
C840 C 0.34003 0.60458 0.09164 0.0
C841 C 0.31238 0.6085 0.05605 0.0
C842 C 0.32516 0.63784 0.05259 0.0
H843 H 0.30908 0.56985 0.0774 0.0
H844 H 0.29653 0.59805 0.04389 0.0
S845 S 0.37936 0.68052 0.09105 0.0
N846 N 0.37243 0.64793 0.10354 0.0
N847 N 0.35919 0.67855 0.06751 0.0
C848 C 0.34557 0.65043 0.06899 0.0
C849 C 0.35297 0.63377 0.08846 0.0
C850 C 0.41484 0.86187 0.35178 0.0
C851 C 0.40605 0.85942 0.37383 0.0
C852 C 0.39706 0.84823 0.33446 0.0
C853 C 0.37009 0.83135 0.33863 0.0
H854 H 0.43514 0.87506 0.34786 0.0
H855 H 0.40439 0.85128 0.31766 0.0
S856 S 0.33882 0.81642 0.394 0.0
N857 N 0.36991 0.83768 0.39922 0.0
N858 N 0.33644 0.81191 0.36682 0.0
C859 C 0.36172 0.82794 0.36079 0.0
C860 C 0.3797 0.84204 0.37835 0.0
C861 C 0.14314 0.86415 0.57645 0.0
C862 C 0.12821 0.89262 0.57962 0.0
C863 C 0.1588 0.8573 0.557 0.0
C864 C 0.16009 0.87858 0.5398 0.0
H865 H 0.14308 0.84713 0.58926 0.0
H866 H 0.16996 0.83501 0.5555 0.0
S867 S 0.12364 0.95617 0.53975 0.0
N868 N 0.11491 0.94206 0.56391 0.0
N869 N 0.14441 0.92933 0.52723 0.0
C870 C 0.14505 0.90717 0.54273 0.0
C871 C 0.12915 0.91416 0.56266 0.0
C872 C 0.61865 0.4007 0.94123 0.0
C873 C 0.63966 0.3994 0.92392 0.0
C874 C 0.62515 0.38617 0.9613 0.0
C875 C 0.65273 0.36948 0.96469 0.0
H876 H 0.59733 0.41356 0.9394 0.0
H877 H 0.6085 0.38828 0.9743 0.0
S878 S 0.71425 0.35748 0.92359 0.0
N879 N 0.68827 0.37903 0.91084 0.0
N880 N 0.70063 0.3516 0.94837 0.0
C881 C 0.67353 0.36738 0.94716 0.0
C882 C 0.66698 0.38239 0.92684 0.0
C883 C 0.67789 0.11296 0.16716 0.0
C884 C 0.6884 0.1183 0.14583 0.0
C885 C 0.68688 0.13216 0.18516 0.0
C886 C 0.70654 0.15765 0.1825 0.0
H887 H 0.6625 0.09382 0.16994 0.0
H888 H 0.67794 0.12712 0.20124 0.0
S889 S 0.73998 0.18169 0.12962 0.0
N890 N 0.71915 0.15084 0.1228 0.0
N891 N 0.73631 0.18696 0.15656 0.0
C892 C 0.71741 0.16305 0.16117 0.0
C893 C 0.7083 0.14337 0.14287 0.0
C894 C 0.9309 0.21434 0.44138 0.0
C895 C 0.9219 0.19161 0.42553 0.0
C896 C 0.91174 0.22235 0.45897 0.0
C897 C 0.88269 0.20824 0.46113 0.0
H898 H 0.95291 0.22598 0.44017 0.0
H899 H 0.91962 0.24007 0.47075 0.0
S900 S 0.84822 0.14787 0.42337 0.0
N901 N 0.882 0.1555 0.41273 0.0
N902 N 0.84597 0.1704 0.44568 0.0
C903 C 0.87347 0.18548 0.44528 0.0
C904 C 0.89308 0.1772 0.42752 0.0
C905 C 0.92302 0.40108 0.6923 0.0
C906 C 0.90643 0.40714 0.67258 0.0
C907 C 0.90818 0.38957 0.71072 0.0
C908 C 0.87625 0.38324 0.71 0.0
H909 H 0.94778 0.40465 0.69332 0.0
H910 H 0.92211 0.38449 0.72532 0.0
S911 S 0.82218 0.39654 0.66248 0.0
N912 N 0.85624 0.40705 0.65363 0.0
N913 N 0.82829 0.38559 0.68817 0.0
C914 C 0.85925 0.39026 0.6906 0.0
C915 C 0.87434 0.40217 0.67192 0.0
C916 C 0.63679 0.12703 0.32211 0.0
C917 C 0.60478 0.13159 0.32374 0.0
C918 C 0.65283 0.13766 0.30399 0.0
C919 C 0.63749 0.15312 0.28669 0.0
H920 H 0.64981 0.11637 0.33541 0.0
H921 H 0.67763 0.13441 0.30387 0.0
S922 S 0.55308 0.16806 0.28214 0.0
N923 N 0.55784 0.15047 0.3059 0.0
N924 N 0.58783 0.17048 0.27172 0.0
C925 C 0.60517 0.15649 0.28763 0.0
C926 C 0.58888 0.1458 0.3062 0.0
C927 C 0.89108 0.15726 0.57196 0.0
C928 C 0.88553 0.15429 0.59456 0.0
C929 C 0.86906 0.17054 0.55778 0.0
C930 C 0.84074 0.18176 0.5657 0.0
H931 H 0.91283 0.14966 0.56526 0.0
H932 H 0.87482 0.17284 0.54058 0.0
S933 S 0.81489 0.17847 0.62367 0.0
N934 N 0.84961 0.16275 0.62429 0.0
N935 N 0.80806 0.18779 0.59769 0.0
C936 C 0.8346 0.17811 0.58824 0.0
C937 C 0.85702 0.16436 0.60265 0.0
C938 C 0.90771 0.34806 0.87654 0.0
C939 C 0.92835 0.37283 0.87487 0.0
C940 C 0.89254 0.33524 0.85777 0.0
C941 C 0.8974 0.34668 0.83653 0.0
H942 H 0.90219 0.33933 0.8926 0.0
H943 H 0.8762 0.31676 0.86009 0.0
S944 S 0.95212 0.40914 0.82314 0.0
N945 N 0.95503 0.40671 0.85032 0.0
N946 N 0.92649 0.3828 0.81488 0.0
C947 C 0.91915 0.37059 0.83455 0.0
C948 C 0.93459 0.38363 0.85374 0.0
C949 C 0.59979 0.36449 0.08503 0.0
C950 C 0.60715 0.37653 0.1063 0.0
C951 C 0.62315 0.35509 0.07067 0.0
C952 C 0.65451 0.35668 0.07741 0.0
H953 H 0.57586 0.36182 0.07964 0.0
H954 H 0.61652 0.34522 0.0546 0.0
S955 S 0.68558 0.38749 0.13132 0.0
N956 N 0.64774 0.39065 0.13316 0.0
N957 N 0.69159 0.37246 0.10643 0.0
C958 C 0.66206 0.3694 0.09848 0.0
C959 C 0.63837 0.37944 0.11287 0.0
loop_
_geom_bond_atom_site_label_1
_geom_bond_atom_site_label_2
_geom_bond_distance
_geom_bond_site_symmetry_2
_ccdc_geom_bond_type
H0 C27 0.929 . S
N1 C26 1.433 . S
N1 C32 1.435 . S
N1 C38 1.423 . S
H2 C28 0.930 . S
H3 C31 0.931 . S
H4 C30 0.929 . S
H5 C33 0.930 . S
H6 C34 0.932 . S
H7 C37 0.929 . S
H8 C36 0.931 . S
H9 C39 0.926 1_545 S
H10 C43 0.932 . S
H11 C40 0.931 . S
H12 C42 0.929 . S
H13 C45 0.929 . S
H14 C46 0.930 . S
H15 C48 0.929 . S
H16 C49 0.931 . S
H17 C51 0.930 . S
H18 C52 0.932 . S
H19 C54 0.931 . S
H20 C55 0.929 . S
H21 C57 0.929 . S
H22 C58 0.931 . S
H23 C60 0.929 . S
N24 C44 1.433 . S
N24 C50 1.435 . S
N24 C56 1.423 . S
H25 C61 0.932 . S
C26 N1 1.433 . S
C26 C27 1.363 . S
C26 C31 1.370 . S
C27 H0 0.929 . S
C27 C26 1.363 . S
C27 C28 1.385 . S
C28 H2 0.930 . S
C28 C27 1.385 . S
C28 C29 1.357 . S
C29 C28 1.357 . S
C29 C30 1.406 . S
C30 H4 0.929 . S
C30 C29 1.406 . S
C30 C31 1.391 . S
C31 H3 0.931 . S
C31 C26 1.370 . S
C31 C30 1.391 . S
C32 N1 1.435 . S
C32 C33 1.358 . S
C32 C37 1.371 . S
C33 H5 0.930 . S
C33 C32 1.358 . S
C33 C34 1.405 . S
C34 H6 0.932 . S
C34 C33 1.405 . S
C34 C35 1.383 . S
C35 C34 1.383 . S
C35 C36 1.393 . S
C36 H8 0.931 . S
C36 C35 1.393 . S
C36 C37 1.382 . S
C37 H7 0.929 . S
C37 C32 1.371 . S
C37 C36 1.382 . S
C38 N1 1.423 . S
C38 C39 1.386 . S
C38 C43 1.388 . S
C39 H9 0.926 1_565 S
C39 C38 1.386 . S
C39 C40 1.357 1_565 S
C40 H11 0.931 . S
C40 C39 1.357 1_545 S
C40 C41 1.396 . S
C41 C40 1.396 . S
C41 C42 1.348 1_545 S
C41 C59 1.472 . S
C42 H12 0.929 . S
C42 C41 1.348 1_565 S
C42 C43 1.443 . S
C43 H10 0.932 . S
C43 C38 1.388 . S
C43 C42 1.443 . S
C44 N24 1.433 . S
C44 C45 1.363 . S
C44 C49 1.370 . S
C45 H13 0.929 . S
C45 C44 1.363 . S
C45 C46 1.385 . S
C46 H14 0.930 . S
C46 C45 1.385 . S
C46 C47 1.357 . S
C47 C46 1.357 . S
C47 C48 1.406 . S
C48 H15 0.929 . S
C48 C47 1.406 . S
C48 C49 1.391 . S
C49 H16 0.931 . S
C49 C44 1.370 . S
C49 C48 1.391 . S
C50 N24 1.435 . S
C50 C51 1.358 . S
C50 C55 1.371 . S
C51 H17 0.930 . S
C51 C50 1.358 . S
C51 C52 1.405 . S
C52 H18 0.932 . S
C52 C51 1.405 . S
C52 C53 1.383 . S
C53 C52 1.383 . S
C53 C54 1.393 . S
C54 H19 0.931 . S
C54 C53 1.393 . S
C54 C55 1.382 . S
C55 H20 0.929 . S
C55 C50 1.371 . S
C55 C54 1.382 . S
C56 N24 1.423 . S
C56 C57 1.362 1_655 S
C56 C61 1.388 . S
C57 H21 0.929 . S
C57 C56 1.362 1_455 S
C57 C58 1.376 . S
C58 H22 0.931 . S
C58 C57 1.376 . S
C58 C59 1.396 . S
C59 C41 1.472 . S
C59 C58 1.396 . S
C59 C60 1.348 . S
C60 H23 0.929 . S
C60 C59 1.348 . S
C60 C61 1.443 1_455 S
C61 H25 0.932 . S
C61 C56 1.388 . S
C61 C60 1.443 1_655 S
H62 C89 0.929 . S
N63 C88 1.433 . S
N63 C94 1.435 . S
N63 C100 1.423 . S
H64 C90 0.930 . S
H65 C93 0.931 . S
H66 C92 0.929 . S
H67 C95 0.930 . S
H68 C96 0.932 . S
H69 C99 0.929 . S
H70 C98 0.931 . S
H71 C101 0.932 . S
H72 C105 0.932 . S
H73 C102 0.931 . S
H74 C104 0.929 . S
H75 C107 0.929 . S
H76 C108 0.930 . S
H77 C110 0.929 . S
H78 C111 0.931 . S
H79 C113 0.930 . S
H80 C114 0.932 . S
H81 C116 0.931 . S
H82 C117 0.929 . S
H83 C119 0.929 . S
H84 C120 0.931 . S
H85 C122 0.929 . S
N86 C106 1.433 . S
N86 C112 1.435 . S
N86 C118 1.423 . S
H87 C123 0.932 . S
C88 N63 1.433 . S
C88 C89 1.363 . S
C88 C93 1.370 . S
C89 H62 0.929 . S
C89 C88 1.363 . S
C89 C90 1.385 . S
C90 H64 0.930 . S
C90 C89 1.385 . S
C90 C91 1.357 . S
C91 C90 1.357 . S
C91 C92 1.406 . S
C92 H66 0.929 . S
C92 C91 1.406 . S
C92 C93 1.391 . S
C93 H65 0.931 . S
C93 C88 1.370 . S
C93 C92 1.391 . S
C94 N63 1.435 . S
C94 C95 1.358 . S
C94 C99 1.371 . S
C95 H67 0.930 . S
C95 C94 1.358 . S
C95 C96 1.405 . S
C96 H68 0.932 . S
C96 C95 1.405 . S
C96 C97 1.383 . S
C97 C96 1.383 . S
C97 C98 1.393 . S
C98 H70 0.931 . S
C98 C97 1.393 . S
C98 C99 1.382 . S
C99 H69 0.929 . S
C99 C94 1.371 . S
C99 C98 1.382 . S
C100 N63 1.423 . S
C100 C101 1.362 . S
C100 C105 1.388 . S
C101 H71 0.932 . S
C101 C100 1.362 . S
C101 C102 1.376 1_655 S
C102 H73 0.931 . S
C102 C101 1.376 1_455 S
C102 C103 1.396 . S
C103 C102 1.396 . S
C103 C104 1.348 1_455 S
C103 C121 1.472 . S
C104 H74 0.929 . S
C104 C103 1.348 1_655 S
C104 C105 1.443 . S
C105 H72 0.932 . S
C105 C100 1.388 . S
C105 C104 1.443 . S
C106 N86 1.433 . S
C106 C107 1.363 . S
C106 C111 1.370 . S
C107 H75 0.929 . S
C107 C106 1.363 . S
C107 C108 1.385 . S
C108 H76 0.930 . S
C108 C107 1.385 . S
C108 C109 1.357 . S
C109 C108 1.357 . S
C109 C110 1.406 . S
C110 H77 0.929 . S
C110 C109 1.406 . S
C110 C111 1.391 . S
C111 H78 0.931 . S
C111 C106 1.370 . S
C111 C110 1.391 . S
C112 N86 1.435 . S
C112 C113 1.358 . S
C112 C117 1.371 . S
C113 H79 0.930 . S
C113 C112 1.358 . S
C113 C114 1.405 . S
C114 H80 0.932 . S
C114 C113 1.405 . S
C114 C115 1.383 . S
C115 C114 1.383 . S
C115 C116 1.393 . S
C116 H81 0.931 . S
C116 C115 1.393 . S
C116 C117 1.382 . S
C117 H82 0.929 . S
C117 C112 1.371 . S
C117 C116 1.382 . S
C118 N86 1.423 . S
C118 C119 1.362 . S
C118 C123 1.388 . S
C119 H83 0.929 . S
C119 C118 1.362 . S
C119 C120 1.376 . S
C120 H84 0.931 . S
C120 C119 1.376 . S
C120 C121 1.396 . S
C121 C103 1.472 . S
C121 C120 1.396 . S
C121 C122 1.348 . S
C122 H85 0.929 . S
C122 C121 1.348 . S
C122 C123 1.443 . S
C123 H87 0.932 . S
C123 C118 1.388 . S
C123 C122 1.443 . S
H124 C151 0.929 . S
N125 C150 1.433 . S
N125 C156 1.435 . S
N125 C162 1.423 . S
H126 C152 0.930 . S
H127 C155 0.931 . S
H128 C154 0.929 . S
H129 C157 0.930 . S
H130 C158 0.932 . S
H131 C161 0.929 . S
H132 C160 0.931 . S
H133 C163 0.929 . S
H134 C167 0.932 . S
H135 C164 0.931 . S
H136 C166 0.929 . S
H137 C169 0.929 . S
H138 C170 0.930 . S
H139 C172 0.929 . S
H140 C173 0.931 . S
H141 C175 0.930 . S
H142 C176 0.932 . S
H143 C178 0.931 . S
H144 C179 0.929 . S
H145 C181 0.929 . S
H146 C182 0.931 . S
H147 C184 0.929 . S
N148 C168 1.433 . S
N148 C174 1.435 . S
N148 C180 1.423 . S
H149 C185 0.932 . S
C150 N125 1.433 . S
C150 C151 1.363 . S
C150 C155 1.370 . S
C151 H124 0.929 . S
C151 C150 1.363 . S
C151 C152 1.385 . S
C152 H126 0.930 . S
C152 C151 1.385 . S
C152 C153 1.357 . S
C153 C152 1.357 . S
C153 C154 1.406 . S
C154 H128 0.929 . S
C154 C153 1.406 . S
C154 C155 1.391 . S
C155 H127 0.931 . S
C155 C150 1.370 . S
C155 C154 1.391 . S
C156 N125 1.435 . S
C156 C157 1.358 . S
C156 C161 1.371 . S
C157 H129 0.930 . S
C157 C156 1.358 . S
C157 C158 1.405 . S
C158 H130 0.932 . S
C158 C157 1.405 . S
C158 C159 1.383 . S
C159 C158 1.383 . S
C159 C160 1.393 . S
C160 H132 0.931 . S
C160 C159 1.393 . S
C160 C161 1.382 . S
C161 H131 0.929 . S
C161 C156 1.371 . S
C161 C160 1.382 . S
C162 N125 1.423 . S
C162 C163 1.362 . S
C162 C167 1.388 . S
C163 H133 0.929 . S
C163 C162 1.362 . S
C163 C164 1.376 . S
C164 H135 0.931 . S
C164 C163 1.376 . S
C164 C165 1.396 . S
C165 C164 1.396 . S
C165 C166 1.348 . S
C165 C183 1.472 . S
C166 H136 0.929 . S
C166 C165 1.348 . S
C166 C167 1.443 . S
C167 H134 0.932 . S
C167 C162 1.388 . S
C167 C166 1.443 . S
C168 N148 1.433 . S
C168 C169 1.363 . S
C168 C173 1.370 . S
C169 H137 0.929 . S
C169 C168 1.363 . S
C169 C170 1.385 . S
C170 H138 0.930 . S
C170 C169 1.385 . S
C170 C171 1.357 . S
C171 C170 1.357 . S
C171 C172 1.406 . S
C172 H139 0.929 . S
C172 C171 1.406 . S
C172 C173 1.391 . S
C173 H140 0.931 . S
C173 C168 1.370 . S
C173 C172 1.391 . S
C174 N148 1.435 . S
C174 C175 1.358 . S
C174 C179 1.371 . S
C175 H141 0.930 . S
C175 C174 1.358 . S
C175 C176 1.405 . S
C176 H142 0.932 . S
C176 C175 1.405 . S
C176 C177 1.383 . S
C177 C176 1.383 . S
C177 C178 1.393 . S
C178 H143 0.931 . S
C178 C177 1.393 . S
C178 C179 1.382 . S
C179 H144 0.929 . S
C179 C174 1.371 . S
C179 C178 1.382 . S
C180 N148 1.423 . S
C180 C181 1.362 . S
C180 C185 1.388 . S
C181 H145 0.929 . S
C181 C180 1.362 . S
C181 C182 1.376 . S
C182 H146 0.931 . S
C182 C181 1.376 . S
C182 C183 1.396 . S
C183 C165 1.472 . S
C183 C182 1.396 . S
C183 C184 1.348 . S
C184 H147 0.929 . S
C184 C183 1.348 . S
C184 C185 1.443 . S
C185 H149 0.932 . S
C185 C180 1.388 . S
C185 C184 1.443 . S
H186 C213 0.929 . S
N187 C212 1.433 . S
N187 C218 1.435 . S
N187 C224 1.423 . S
H188 C214 0.930 . S
H189 C217 0.931 . S
H190 C216 0.929 . S
H191 C219 0.930 . S
H192 C220 0.932 . S
H193 C223 0.929 . S
H194 C222 0.928 1_556 S
H195 C225 0.929 . S
H196 C229 0.932 . S
H197 C226 0.931 . S
H198 C228 0.929 . S
H199 C231 0.929 . S
H200 C232 0.930 . S
H201 C234 0.929 . S
H202 C235 0.931 . S
H203 C237 0.930 . S
H204 C238 0.932 . S
H205 C240 0.930 1_556 S
H206 C241 0.929 . S
H207 C243 0.929 . S
H208 C244 0.931 1_565 S
H209 C246 0.929 . S
N210 C230 1.433 . S
N210 C236 1.435 . S
N210 C242 1.423 . S
H211 C247 0.932 . S
C212 N187 1.433 . S
C212 C213 1.363 . S
C212 C217 1.370 . S
C213 H186 0.929 . S
C213 C212 1.363 . S
C213 C214 1.385 . S
C214 H188 0.930 . S
C214 C213 1.385 . S
C214 C215 1.357 . S
C215 C214 1.357 . S
C215 C216 1.406 . S
C216 H190 0.929 . S
C216 C215 1.406 . S
C216 C217 1.391 . S
C217 H189 0.931 . S
C217 C212 1.370 . S
C217 C216 1.391 . S
C218 N187 1.435 . S
C218 C219 1.358 . S
C218 C223 1.371 . S
C219 H191 0.930 . S
C219 C218 1.358 . S
C219 C220 1.405 . S
C220 H192 0.932 . S
C220 C219 1.405 . S
C220 C221 1.383 . S
C221 C220 1.383 . S
C221 C222 1.393 . S
C222 H194 0.928 1_554 S
C222 C221 1.393 . S
C222 C223 1.382 . S
C223 H193 0.929 . S
C223 C218 1.371 . S
C223 C222 1.382 . S
C224 N187 1.423 . S
C224 C225 1.362 . S
C224 C229 1.388 . S
C225 H195 0.929 . S
C225 C224 1.362 . S
C225 C226 1.376 . S
C226 H197 0.931 . S
C226 C225 1.376 . S
C226 C227 1.396 . S
C227 C226 1.396 . S
C227 C228 1.348 . S
C227 C245 1.472 1_565 S
C228 H198 0.929 . S
C228 C227 1.348 . S
C228 C229 1.443 . S
C229 H196 0.932 . S
C229 C224 1.388 . S
C229 C228 1.443 . S
C230 N210 1.433 . S
C230 C231 1.363 . S
C230 C235 1.370 . S
C231 H199 0.929 . S
C231 C230 1.363 . S
C231 C232 1.385 . S
C232 H200 0.930 . S
C232 C231 1.385 . S
C232 C233 1.357 . S
C233 C232 1.357 . S
C233 C234 1.406 . S
C234 H201 0.929 . S
C234 C233 1.406 . S
C234 C235 1.391 . S
C235 H202 0.931 . S
C235 C230 1.370 . S
C235 C234 1.391 . S
C236 N210 1.435 . S
C236 C237 1.358 . S
C236 C241 1.371 . S
C237 H203 0.930 . S
C237 C236 1.358 . S
C237 C238 1.405 . S
C238 H204 0.932 . S
C238 C237 1.405 . S
C238 C239 1.383 . S
C239 C238 1.383 . S
C239 C240 1.393 . S
C240 H205 0.930 1_554 S
C240 C239 1.393 . S
C240 C241 1.382 . S
C241 H206 0.929 . S
C241 C236 1.371 . S
C241 C240 1.382 . S
C242 N210 1.423 . S
C242 C243 1.362 . S
C242 C247 1.388 . S
C243 H207 0.929 . S
C243 C242 1.362 . S
C243 C244 1.376 . S
C244 H208 0.931 1_545 S
C244 C243 1.376 . S
C244 C245 1.396 . S
C245 C227 1.472 1_545 S
C245 C244 1.396 . S
C245 C246 1.348 . S
C246 H209 0.929 . S
C246 C245 1.348 . S
C246 C247 1.443 . S
C247 H211 0.932 . S
C247 C242 1.388 . S
C247 C246 1.443 . S
H248 C275 0.929 . S
N249 C274 1.433 . S
N249 C280 1.435 . S
N249 C286 1.423 . S
H250 C276 0.930 . S
H251 C279 0.931 . S
H252 C278 0.929 . S
H253 C281 0.930 . S
H254 C282 0.932 . S
H255 C285 0.929 . S
H256 C284 0.931 . S
H257 C287 0.929 . S
H258 C291 0.932 . S
H259 C288 0.931 . S
H260 C290 0.929 . S
H261 C293 0.929 . S
H262 C294 0.930 . S
H263 C296 0.929 . S
H264 C297 0.931 . S
H265 C299 0.930 . S
H266 C300 0.932 . S
H267 C302 0.931 1_554 S
H268 C303 0.929 . S
H269 C305 0.929 . S
H270 C306 0.931 1_455 S
H271 C308 0.929 . S
N272 C292 1.433 . S
N272 C298 1.435 . S
N272 C304 1.423 . S
H273 C309 0.932 . S
C274 N249 1.433 . S
C274 C275 1.363 . S
C274 C279 1.370 . S
C275 H248 0.929 . S
C275 C274 1.363 . S
C275 C276 1.385 . S
C276 H250 0.930 . S
C276 C275 1.385 . S
C276 C277 1.357 . S
C277 C276 1.357 . S
C277 C278 1.406 . S
C278 H252 0.929 . S
C278 C277 1.406 . S
C278 C279 1.391 . S
C279 H251 0.931 . S
C279 C274 1.370 . S
C279 C278 1.391 . S
C280 N249 1.435 . S
C280 C281 1.358 . S
C280 C285 1.371 . S
C281 H253 0.930 . S
C281 C280 1.358 . S
C281 C282 1.405 . S
C282 H254 0.932 . S
C282 C281 1.405 . S
C282 C283 1.383 1_556 S
C283 C282 1.383 1_554 S
C283 C284 1.393 . S
C284 H256 0.931 . S
C284 C283 1.393 . S
C284 C285 1.382 1_554 S
C285 H255 0.929 . S
C285 C280 1.371 . S
C285 C284 1.382 1_556 S
C286 N249 1.423 . S
C286 C287 1.362 . S
C286 C291 1.388 . S
C287 H257 0.929 . S
C287 C286 1.362 . S
C287 C288 1.376 . S
C288 H259 0.931 . S
C288 C287 1.376 . S
C288 C289 1.396 . S
C289 C288 1.396 . S
C289 C290 1.348 . S
C289 C307 1.500 . S
C290 H260 0.929 . S
C290 C289 1.348 . S
C290 C291 1.443 . S
C291 H258 0.932 . S
C291 C286 1.388 . S
C291 C290 1.443 . S
C292 N272 1.433 . S
C292 C293 1.363 . S
C292 C297 1.370 . S
C293 H261 0.929 . S
C293 C292 1.363 . S
C293 C294 1.385 . S
C294 H262 0.930 . S
C294 C293 1.385 . S
C294 C295 1.357 . S
C295 C294 1.357 . S
C295 C296 1.406 . S
C296 H263 0.929 . S
C296 C295 1.406 . S
C296 C297 1.391 . S
C297 H264 0.931 . S
C297 C292 1.370 . S
C297 C296 1.391 . S
C298 N272 1.435 . S
C298 C299 1.358 . S
C298 C303 1.371 . S
C299 H265 0.930 . S
C299 C298 1.358 . S
C299 C300 1.405 . S
C300 H266 0.932 . S
C300 C299 1.405 . S
C300 C301 1.383 . S
C301 C300 1.383 . S
C301 C302 1.393 . S
C302 H267 0.931 1_556 S
C302 C301 1.393 . S
C302 C303 1.382 . S
C303 H268 0.929 . S
C303 C298 1.371 . S
C303 C302 1.382 . S
C304 N272 1.423 . S
C304 C305 1.362 . S
C304 C309 1.388 . S
C305 H269 0.929 . S
C305 C304 1.362 . S
C305 C306 1.376 . S
C306 H270 0.931 1_655 S
C306 C305 1.376 . S
C306 C307 1.392 1_655 S
C307 C289 1.500 . S
C307 C306 1.392 1_455 S
C307 C308 1.322 1_455 S
C308 H271 0.929 . S
C308 C307 1.322 1_655 S
C308 C309 1.443 . S
C309 H273 0.932 . S
C309 C304 1.388 . S
C309 C308 1.443 . S
H310 C337 0.929 . S
N311 C336 1.433 . S
N311 C342 1.435 . S
N311 C348 1.423 . S
H312 C338 0.930 . S
H313 C341 0.931 . S
H314 C340 0.929 . S
H315 C343 0.930 . S
H316 C344 0.932 . S
H317 C347 0.929 . S
H318 C346 0.931 . S
H319 C349 0.929 . S
H320 C353 0.932 . S
H321 C350 0.931 . S
H322 C352 0.929 . S
H323 C355 0.929 . S
H324 C356 0.930 . S
H325 C358 0.929 . S
H326 C359 0.931 . S
H327 C361 0.930 . S
H328 C362 0.932 . S
H329 C364 0.931 . S
H330 C365 0.929 . S
H331 C367 0.929 . S
H332 C368 0.931 . S
H333 C370 0.929 . S
N334 C354 1.433 . S
N334 C360 1.435 . S
N334 C366 1.423 . S
H335 C371 0.932 . S
C336 N311 1.433 . S
C336 C337 1.363 . S
C336 C341 1.370 . S
C337 H310 0.929 . S
C337 C336 1.363 . S
C337 C338 1.385 . S
C338 H312 0.930 . S
C338 C337 1.385 . S
C338 C339 1.357 . S
C339 C338 1.357 . S
C339 C340 1.406 . S
C340 H314 0.929 . S
C340 C339 1.406 . S
C340 C341 1.391 . S
C341 H313 0.931 . S
C341 C336 1.370 . S
C341 C340 1.391 . S
C342 N311 1.435 . S
C342 C343 1.358 . S
C342 C347 1.371 . S
C343 H315 0.930 . S
C343 C342 1.358 . S
C343 C344 1.405 . S
C344 H316 0.932 . S
C344 C343 1.405 . S
C344 C345 1.383 . S
C345 C344 1.383 . S
C345 C346 1.393 . S
C346 H318 0.931 . S
C346 C345 1.393 . S
C346 C347 1.382 . S
C347 H317 0.929 . S
C347 C342 1.371 . S
C347 C346 1.382 . S
C348 N311 1.423 . S
C348 C349 1.362 . S
C348 C353 1.388 . S
C349 H319 0.929 . S
C349 C348 1.362 . S
C349 C350 1.376 . S
C350 H321 0.931 . S
C350 C349 1.376 . S
C350 C351 1.396 . S
C351 C350 1.396 . S
C351 C352 1.348 . S
C351 C369 1.472 . S
C352 H322 0.929 . S
C352 C351 1.348 . S
C352 C353 1.443 . S
C353 H320 0.932 . S
C353 C348 1.388 . S
C353 C352 1.443 . S
C354 N334 1.433 . S
C354 C355 1.363 . S
C354 C359 1.370 . S
C355 H323 0.929 . S
C355 C354 1.363 . S
C355 C356 1.385 . S
C356 H324 0.930 . S
C356 C355 1.385 . S
C356 C357 1.357 . S
C357 C356 1.357 . S
C357 C358 1.406 . S
C358 H325 0.929 . S
C358 C357 1.406 . S
C358 C359 1.391 . S
C359 H326 0.931 . S
C359 C354 1.370 . S
C359 C358 1.391 . S
C360 N334 1.435 . S
C360 C361 1.358 . S
C360 C365 1.371 . S
C361 H327 0.930 . S
C361 C360 1.358 . S
C361 C362 1.405 . S
C362 H328 0.932 . S
C362 C361 1.405 . S
C362 C363 1.383 . S
C363 C362 1.383 . S
C363 C364 1.393 . S
C364 H329 0.931 . S
C364 C363 1.393 . S
C364 C365 1.382 . S
C365 H330 0.929 . S
C365 C360 1.371 . S
C365 C364 1.382 . S
C366 N334 1.423 . S
C366 C367 1.362 . S
C366 C371 1.388 . S
C367 H331 0.929 . S
C367 C366 1.362 . S
C367 C368 1.376 . S
C368 H332 0.931 . S
C368 C367 1.376 . S
C368 C369 1.396 . S
C369 C351 1.472 . S
C369 C368 1.396 . S
C369 C370 1.348 . S
C370 H333 0.929 . S
C370 C369 1.348 . S
C370 C371 1.443 . S
C371 H335 0.932 . S
C371 C366 1.388 . S
C371 C370 1.443 . S
H372 C399 0.929 . S
N373 C398 1.433 . S
N373 C404 1.435 . S
N373 C410 1.423 . S
H374 C400 0.930 . S
H375 C403 0.931 . S
H376 C402 0.929 . S
H377 C405 0.930 . S
H378 C406 0.932 . S
H379 C409 0.929 . S
H380 C408 0.931 . S
H381 C411 0.927 1_545 S
H382 C415 0.932 . S
H383 C412 0.931 . S
H384 C414 0.929 . S
H385 C417 0.929 . S
H386 C418 0.930 . S
H387 C420 0.929 . S
H388 C421 0.931 . S
H389 C423 0.930 . S
H390 C424 0.932 . S
H391 C426 0.931 . S
H392 C427 0.929 . S
H393 C429 0.929 . S
H394 C430 0.931 . S
H395 C432 0.929 . S
N396 C416 1.433 . S
N396 C422 1.435 . S
N396 C428 1.423 . S
H397 C433 0.932 . S
C398 N373 1.433 . S
C398 C399 1.363 . S
C398 C403 1.370 . S
C399 H372 0.929 . S
C399 C398 1.363 . S
C399 C400 1.385 . S
C400 H374 0.930 . S
C400 C399 1.385 . S
C400 C401 1.357 . S
C401 C400 1.357 . S
C401 C402 1.406 . S
C402 H376 0.929 . S
C402 C401 1.406 . S
C402 C403 1.391 . S
C403 H375 0.931 . S
C403 C398 1.370 . S
C403 C402 1.391 . S
C404 N373 1.435 . S
C404 C405 1.358 . S
C404 C409 1.371 . S
C405 H377 0.930 . S
C405 C404 1.358 . S
C405 C406 1.405 . S
C406 H378 0.932 . S
C406 C405 1.405 . S
C406 C407 1.383 . S
C407 C406 1.383 . S
C407 C408 1.393 . S
C408 H380 0.931 . S
C408 C407 1.393 . S
C408 C409 1.382 . S
C409 H379 0.929 . S
C409 C404 1.371 . S
C409 C408 1.382 . S
C410 N373 1.423 . S
C410 C411 1.362 . S
C410 C415 1.388 . S
C411 H381 0.927 1_565 S
C411 C410 1.362 . S
C411 C412 1.376 1_565 S
C412 H383 0.931 . S
C412 C411 1.376 1_545 S
C412 C413 1.396 . S
C413 C412 1.396 . S
C413 C414 1.348 1_545 S
C413 C431 1.472 . S
C414 H384 0.929 . S
C414 C413 1.348 1_565 S
C414 C415 1.443 . S
C415 H382 0.932 . S
C415 C410 1.388 . S
C415 C414 1.443 . S
C416 N396 1.433 . S
C416 C417 1.363 . S
C416 C421 1.370 . S
C417 H385 0.929 . S
C417 C416 1.363 . S
C417 C418 1.385 . S
C418 H386 0.930 . S
C418 C417 1.385 . S
C418 C419 1.357 . S
C419 C418 1.357 . S
C419 C420 1.406 . S
C420 H387 0.929 . S
C420 C419 1.406 . S
C420 C421 1.391 . S
C421 H388 0.931 . S
C421 C416 1.370 . S
C421 C420 1.391 . S
C422 N396 1.435 . S
C422 C423 1.358 . S
C422 C427 1.371 . S
C423 H389 0.930 . S
C423 C422 1.358 . S
C423 C424 1.405 . S
C424 H390 0.932 . S
C424 C423 1.405 . S
C424 C425 1.383 . S
C425 C424 1.383 . S
C425 C426 1.393 . S
C426 H391 0.931 . S
C426 C425 1.393 . S
C426 C427 1.382 . S
C427 H392 0.929 . S
C427 C422 1.371 . S
C427 C426 1.382 . S
C428 N396 1.423 . S
C428 C429 1.362 . S
C428 C433 1.388 . S
C429 H393 0.929 . S
C429 C428 1.362 . S
C429 C430 1.376 . S
C430 H394 0.931 . S
C430 C429 1.376 . S
C430 C431 1.396 . S
C431 C413 1.472 . S
C431 C430 1.396 . S
C431 C432 1.348 . S
C432 H395 0.929 . S
C432 C431 1.348 . S
C432 C433 1.443 . S
C433 H397 0.932 . S
C433 C428 1.388 . S
C433 C432 1.443 . S
H434 C461 0.929 . S
N435 C460 1.433 . S
N435 C466 1.435 . S
N435 C472 1.423 . S
H436 C462 0.930 . S
H437 C465 0.931 . S
H438 C464 0.929 . S
H439 C467 0.930 . S
H440 C468 0.932 . S
H441 C471 0.929 . S
H442 C470 0.931 . S
H443 C473 0.929 . S
H444 C477 0.932 . S
H445 C474 0.931 1_655 S
H446 C476 0.929 . S
H447 C479 0.929 . S
H448 C480 0.930 . S
H449 C482 0.929 . S
H450 C483 0.931 . S
H451 C485 0.930 . S
H452 C486 0.932 . S
H453 C488 0.931 . S
H454 C489 0.929 . S
H455 C491 0.929 . S
H456 C492 0.931 . S
H457 C494 0.929 1_455 S
N458 C478 1.433 . S
N458 C484 1.435 . S
N458 C490 1.423 . S
H459 C495 0.932 . S
C460 N435 1.433 . S
C460 C461 1.363 . S
C460 C465 1.370 . S
C461 H434 0.929 . S
C461 C460 1.363 . S
C461 C462 1.385 . S
C462 H436 0.930 . S
C462 C461 1.385 . S
C462 C463 1.357 . S
C463 C462 1.357 . S
C463 C464 1.406 . S
C464 H438 0.929 . S
C464 C463 1.406 . S
C464 C465 1.391 . S
C465 H437 0.931 . S
C465 C460 1.370 . S
C465 C464 1.391 . S
C466 N435 1.435 . S
C466 C467 1.358 . S
C466 C471 1.371 . S
C467 H439 0.930 . S
C467 C466 1.358 . S
C467 C468 1.405 . S
C468 H440 0.932 . S
C468 C467 1.405 . S
C468 C469 1.383 . S
C469 C468 1.383 . S
C469 C470 1.393 . S
C470 H442 0.931 . S
C470 C469 1.393 . S
C470 C471 1.382 . S
C471 H441 0.929 . S
C471 C466 1.371 . S
C471 C470 1.382 . S
C472 N435 1.423 . S
C472 C473 1.362 . S
C472 C477 1.388 . S
C473 H443 0.929 . S
C473 C472 1.362 . S
C473 C474 1.376 . S
C474 H445 0.931 1_455 S
C474 C473 1.376 . S
C474 C475 1.396 1_565 S
C475 C474 1.396 1_545 S
C475 C476 1.348 . S
C475 C493 1.472 1_455 S
C476 H446 0.929 . S
C476 C475 1.348 . S
C476 C477 1.443 1_545 S
C477 H444 0.932 . S
C477 C472 1.388 . S
C477 C476 1.443 1_565 S
C478 N458 1.433 . S
C478 C479 1.363 . S
C478 C483 1.370 . S
C479 H447 0.929 . S
C479 C478 1.363 . S
C479 C480 1.385 . S
C480 H448 0.930 . S
C480 C479 1.385 . S
C480 C481 1.357 . S
C481 C480 1.357 . S
C481 C482 1.406 . S
C482 H449 0.929 . S
C482 C481 1.406 . S
C482 C483 1.391 . S
C483 H450 0.931 . S
C483 C478 1.370 . S
C483 C482 1.391 . S
C484 N458 1.435 . S
C484 C485 1.358 . S
C484 C489 1.371 . S
C485 H451 0.930 . S
C485 C484 1.358 . S
C485 C486 1.405 . S
C486 H452 0.932 . S
C486 C485 1.405 . S
C486 C487 1.383 . S
C487 C486 1.383 . S
C487 C488 1.393 . S
C488 H453 0.931 . S
C488 C487 1.393 . S
C488 C489 1.382 . S
C489 H454 0.929 . S
C489 C484 1.371 . S
C489 C488 1.382 . S
C490 N458 1.423 . S
C490 C491 1.362 . S
C490 C495 1.388 . S
C491 H455 0.929 . S
C491 C490 1.362 . S
C491 C492 1.376 . S
C492 H456 0.931 . S
C492 C491 1.376 . S
C492 C493 1.396 . S
C493 C475 1.472 1_655 S
C493 C492 1.396 . S
C493 C494 1.348 . S
C494 H457 0.929 1_655 S
C494 C493 1.348 . S
C494 C495 1.443 . S
C495 H459 0.932 . S
C495 C490 1.388 . S
C495 C494 1.443 . S
Zn496 O499 2.031 . S
Zn496 O501 2.049 . S
Zn496 O506 2.067 . S
Zn497 O498 1.962 . S
Zn497 O500 1.986 . S
Zn497 O502 1.996 . S
Zn497 O505 1.943 1_554 S
O498 Zn497 1.962 . S
O498 C503 1.254 . S
O499 Zn496 2.031 . S
O499 C503 1.269 1_556 S
O500 Zn497 1.986 . S
O500 C507 1.262 . S
O501 Zn496 2.049 . S
O501 C509 1.260 1_556 S
O502 Zn497 1.996 . S
O502 C509 1.257 . S
C503 O498 1.254 . S
C503 O499 1.269 1_554 S
C504 O505 1.249 . S
C504 O506 1.270 . S
O505 Zn497 1.943 1_556 S
O505 C504 1.249 . S
O506 Zn496 2.067 . S
O506 C504 1.270 . S
C507 O500 1.262 . S
C507 O508 1.232 . S
O508 C507 1.232 . S
C509 O501 1.260 1_554 S
C509 O502 1.257 . S
Zn510 O513 2.031 . S
Zn510 O515 2.049 . S
Zn510 O520 2.067 . S
Zn511 O512 1.962 . S
Zn511 O514 1.986 . S
Zn511 O516 1.996 . S
Zn511 O519 1.943 . S
O512 Zn511 1.962 . S
O512 C517 1.254 . S
O513 Zn510 2.031 . S
O513 C517 1.269 . S
O514 Zn511 1.986 . S
O514 C521 1.262 . S
O515 Zn510 2.049 . S
O515 C523 1.260 . S
O516 Zn511 1.996 . S
O516 C523 1.257 . S
C517 O512 1.254 . S
C517 O513 1.269 . S
C518 O519 1.249 . S
C518 O520 1.270 . S
O519 Zn511 1.943 . S
O519 C518 1.249 . S
O520 Zn510 2.067 . S
O520 C518 1.270 . S
C521 O514 1.262 . S
C521 O522 1.232 . S
O522 C521 1.232 . S
C523 O515 1.260 . S
C523 O516 1.257 . S
Zn524 O527 2.031 . S
Zn524 O529 2.049 . S
Zn524 O534 2.067 . S
Zn525 O526 1.962 . S
Zn525 O528 1.986 . S
Zn525 O530 1.996 . S
Zn525 O533 1.943 . S
O526 Zn525 1.962 . S
O526 C531 1.254 . S
O527 Zn524 2.031 . S
O527 C531 1.269 . S
O528 Zn525 1.986 . S
O528 C535 1.262 . S
O529 Zn524 2.049 . S
O529 C537 1.260 . S
O530 Zn525 1.996 . S
O530 C537 1.257 . S
C531 O526 1.254 . S
C531 O527 1.269 . S
C532 O533 1.249 . S
C532 O534 1.270 . S
O533 Zn525 1.943 . S
O533 C532 1.249 . S
O534 Zn524 2.067 . S
O534 C532 1.270 . S
C535 O528 1.262 . S
C535 O536 1.232 . S
O536 C535 1.232 . S
C537 O529 1.260 . S
C537 O530 1.257 . S
Zn538 O541 2.031 . S
Zn538 O543 2.049 . S
Zn538 O548 2.067 . S
Zn539 O540 1.962 . S
Zn539 O542 1.986 . S
Zn539 O544 1.996 . S
Zn539 O547 1.943 . S
O540 Zn539 1.962 . S
O540 C545 1.254 . S
O541 Zn538 2.031 . S
O541 C545 1.269 . S
O542 Zn539 1.986 . S
O542 C549 1.262 . S
O543 Zn538 2.049 . S
O543 C551 1.260 . S
O544 Zn539 1.996 . S
O544 C551 1.257 . S
C545 O540 1.254 . S
C545 O541 1.269 . S
C546 O547 1.249 . S
C546 O548 1.270 . S
O547 Zn539 1.943 . S
O547 C546 1.249 . S
O548 Zn538 2.067 . S
O548 C546 1.270 . S
C549 O542 1.262 . S
C549 O550 1.232 . S
O550 C549 1.232 . S
C551 O543 1.260 . S
C551 O544 1.257 . S
Zn552 O555 2.031 . S
Zn552 O557 2.049 . S
Zn552 O562 2.067 . S
Zn553 O554 1.962 . S
Zn553 O556 1.986 . S
Zn553 O558 1.996 . S
Zn553 O561 1.943 . S
O554 Zn553 1.962 . S
O554 C559 1.254 . S
O555 Zn552 2.031 . S
O555 C559 1.269 . S
O556 Zn553 1.986 . S
O556 C563 1.262 . S
O557 Zn552 2.049 . S
O557 C565 1.260 . S
O558 Zn553 1.996 . S
O558 C565 1.257 . S
C559 O554 1.254 . S
C559 O555 1.269 . S
C560 O561 1.249 . S
C560 O562 1.270 . S
O561 Zn553 1.943 . S
O561 C560 1.249 . S
O562 Zn552 2.067 . S
O562 C560 1.270 . S
C563 O556 1.262 . S
C563 O564 1.232 . S
O564 C563 1.232 . S
C565 O557 1.260 . S
C565 O558 1.257 . S
Zn566 O569 2.031 . S
Zn566 O571 2.049 . S
Zn566 O576 2.067 . S
Zn567 O568 1.962 . S
Zn567 O570 1.986 . S
Zn567 O572 1.996 . S
Zn567 O575 1.943 . S
O568 Zn567 1.962 . S
O568 C573 1.254 . S
O569 Zn566 2.031 . S
O569 C573 1.269 . S
O570 Zn567 1.986 . S
O570 C577 1.262 . S
O571 Zn566 2.049 . S
O571 C579 1.260 . S
O572 Zn567 1.996 . S
O572 C579 1.257 . S
C573 O568 1.254 . S
C573 O569 1.269 . S
C574 O575 1.249 . S
C574 O576 1.270 . S
O575 Zn567 1.943 . S
O575 C574 1.249 . S
O576 Zn566 2.067 . S
O576 C574 1.270 . S
C577 O570 1.262 . S
C577 O578 1.232 . S
O578 C577 1.232 . S
C579 O571 1.260 . S
C579 O572 1.257 . S
Zn580 O583 2.031 . S
Zn580 O585 2.049 . S
Zn580 O590 2.067 . S
Zn581 O582 1.962 . S
Zn581 O584 1.986 . S
Zn581 O586 1.996 . S
Zn581 O589 1.943 1_556 S
O582 Zn581 1.962 . S
O582 C587 1.254 1_556 S
O583 Zn580 2.031 . S
O583 C587 1.269 . S
O584 Zn581 1.986 . S
O584 C591 1.262 . S
O585 Zn580 2.049 . S
O585 C593 1.260 . S
O586 Zn581 1.996 . S
O586 C593 1.257 1_556 S
C587 O582 1.254 1_554 S
C587 O583 1.269 . S
C588 O589 1.249 . S
C588 O590 1.270 . S
O589 Zn581 1.943 1_554 S
O589 C588 1.249 . S
O590 Zn580 2.067 . S
O590 C588 1.270 . S
C591 O584 1.262 . S
C591 O592 1.232 . S
O592 C591 1.232 . S
C593 O585 1.260 . S
C593 O586 1.257 1_554 S
Zn594 O597 2.031 . S
Zn594 O599 2.049 . S
Zn594 O604 2.067 . S
Zn595 O596 1.962 . S
Zn595 O598 1.986 . S
Zn595 O600 1.996 . S
Zn595 O603 1.943 . S
O596 Zn595 1.962 . S
O596 C601 1.254 . S
O597 Zn594 2.031 . S
O597 C601 1.269 . S
O598 Zn595 1.986 . S
O598 C605 1.262 . S
O599 Zn594 2.049 . S
O599 C607 1.260 . S
O600 Zn595 1.996 . S
O600 C607 1.257 . S
C601 O596 1.254 . S
C601 O597 1.269 . S
C602 O603 1.249 . S
C602 O604 1.270 . S
O603 Zn595 1.943 . S
O603 C602 1.249 . S
O604 Zn594 2.067 . S
O604 C602 1.270 . S
C605 O598 1.262 . S
C605 O606 1.232 . S
O606 C605 1.232 . S
C607 O599 1.260 . S
C607 O600 1.257 . S
C608 C609 1.369 . S
C608 C610 1.419 . S
C608 H612 0.930 . S
C609 C608 1.369 . S
C609 C618 1.429 . S
C610 C608 1.419 . S
C610 C611 1.363 . S
C610 H613 0.929 . S
C611 C610 1.363 . S
C611 C617 1.428 . S
H612 C608 0.930 . S
H613 C610 0.929 . S
S614 N615 1.613 . S
S614 N616 1.610 . S
N615 S614 1.613 . S
N615 C618 1.350 . S
N616 S614 1.610 . S
N616 C617 1.351 . S
C617 C611 1.428 . S
C617 N616 1.351 . S
C617 C618 1.434 . S
C618 C609 1.429 . S
C618 N615 1.350 . S
C618 C617 1.434 . S
C619 C620 1.369 . S
C619 C621 1.419 . S
C619 H623 0.930 . S
C620 C619 1.369 . S
C620 C629 1.429 . S
C621 C619 1.419 . S
C621 C622 1.363 . S
C621 H624 0.929 . S
C622 C621 1.363 . S
C622 C628 1.428 . S
H623 C619 0.930 . S
H624 C621 0.929 . S
S625 N626 1.613 . S
S625 N627 1.610 . S
N626 S625 1.613 . S
N626 C629 1.350 . S
N627 S625 1.610 . S
N627 C628 1.351 . S
C628 C622 1.428 . S
C628 N627 1.351 . S
C628 C629 1.434 . S
C629 C620 1.429 . S
C629 N626 1.350 . S
C629 C628 1.434 . S
C630 C631 1.369 . S
C630 C632 1.419 . S
C630 H634 0.930 . S
C631 C630 1.369 . S
C631 C640 1.429 . S
C632 C630 1.419 . S
C632 C633 1.363 . S
C632 H635 0.929 . S
C633 C632 1.363 . S
C633 C639 1.428 . S
H634 C630 0.930 . S
H635 C632 0.929 . S
S636 N637 1.613 . S
S636 N638 1.610 . S
N637 S636 1.613 . S
N637 C640 1.350 . S
N638 S636 1.610 . S
N638 C639 1.351 . S
C639 C633 1.428 . S
C639 N638 1.351 . S
C639 C640 1.434 . S
C640 C631 1.429 . S
C640 N637 1.350 . S
C640 C639 1.434 . S
C641 C642 1.369 . S
C641 C643 1.419 . S
C641 H645 0.930 . S
C642 C641 1.369 . S
C642 C651 1.429 . S
C643 C641 1.419 . S
C643 C644 1.363 . S
C643 H646 0.929 . S
C644 C643 1.363 . S
C644 C650 1.428 . S
H645 C641 0.930 . S
H646 C643 0.929 . S
S647 N648 1.613 . S
S647 N649 1.610 . S
N648 S647 1.613 . S
N648 C651 1.350 . S
N649 S647 1.610 . S
N649 C650 1.351 . S
C650 C644 1.428 . S
C650 N649 1.351 . S
C650 C651 1.434 . S
C651 C642 1.429 . S
C651 N648 1.350 . S
C651 C650 1.434 . S
C652 C653 1.369 . S
C652 C654 1.419 . S
C652 H656 0.930 . S
C653 C652 1.369 . S
C653 C662 1.429 1_554 S
C654 C652 1.419 . S
C654 C655 1.363 . S
C654 H657 0.929 . S
C655 C654 1.363 . S
C655 C661 1.428 1_554 S
H656 C652 0.930 . S
H657 C654 0.929 . S
S658 N659 1.613 . S
S658 N660 1.610 . S
N659 S658 1.613 . S
N659 C662 1.350 . S
N660 S658 1.610 . S
N660 C661 1.351 . S
C661 C655 1.428 1_556 S
C661 N660 1.351 . S
C661 C662 1.434 . S
C662 C653 1.429 1_556 S
C662 N659 1.350 . S
C662 C661 1.434 . S
C663 C664 1.369 . S
C663 C665 1.419 . S
C663 H667 0.930 . S
C664 C663 1.369 . S
C664 C673 1.429 . S
C665 C663 1.419 . S
C665 C666 1.363 . S
C665 H668 0.929 . S
C666 C665 1.363 . S
C666 C672 1.428 . S
H667 C663 0.930 . S
H668 C665 0.929 . S
S669 N670 1.613 . S
S669 N671 1.610 . S
N670 S669 1.613 . S
N670 C673 1.350 . S
N671 S669 1.610 . S
N671 C672 1.351 . S
C672 C666 1.428 . S
C672 N671 1.351 . S
C672 C673 1.434 . S
C673 C664 1.429 . S
C673 N670 1.350 . S
C673 C672 1.434 . S
C674 C675 1.369 . S
C674 C676 1.419 . S
C674 H678 0.930 . S
C675 C674 1.369 . S
C675 C684 1.429 . S
C676 C674 1.419 . S
C676 C677 1.363 . S
C676 H679 0.929 . S
C677 C676 1.363 . S
C677 C683 1.428 . S
H678 C674 0.930 . S
H679 C676 0.929 . S
S680 N681 1.613 . S
S680 N682 1.610 . S
N681 S680 1.613 . S
N681 C684 1.350 . S
N682 S680 1.610 . S
N682 C683 1.351 . S
C683 C677 1.428 . S
C683 N682 1.351 . S
C683 C684 1.434 . S
C684 C675 1.429 . S
C684 N681 1.350 . S
C684 C683 1.434 . S
C685 C686 1.369 . S
C685 C687 1.419 . S
C685 H689 0.930 . S
C686 C685 1.369 . S
C686 C695 1.429 . S
C687 C685 1.419 . S
C687 C688 1.363 . S
C687 H690 0.929 . S
C688 C687 1.363 . S
C688 C694 1.428 . S
H689 C685 0.930 . S
H690 C687 0.929 . S
S691 N692 1.613 . S
S691 N693 1.610 . S
N692 S691 1.613 . S
N692 C695 1.350 . S
N693 S691 1.610 . S
N693 C694 1.351 . S
C694 C688 1.428 . S
C694 N693 1.351 . S
C694 C695 1.434 . S
C695 C686 1.429 . S
C695 N692 1.350 . S
C695 C694 1.434 . S
C696 C697 1.369 . S
C696 C698 1.419 . S
C696 H700 0.930 . S
C697 C696 1.369 . S
C697 C706 1.429 . S
C698 C696 1.419 . S
C698 C699 1.363 . S
C698 H701 0.929 . S
C699 C698 1.363 . S
C699 C705 1.428 . S
H700 C696 0.930 . S
H701 C698 0.929 . S
S702 N703 1.613 . S
S702 N704 1.610 . S
N703 S702 1.613 . S
N703 C706 1.350 . S
N704 S702 1.610 . S
N704 C705 1.351 . S
C705 C699 1.428 . S
C705 N704 1.351 . S
C705 C706 1.434 . S
C706 C697 1.429 . S
C706 N703 1.350 . S
C706 C705 1.434 . S
C707 C708 1.369 . S
C707 C709 1.419 . S
C707 H711 0.930 . S
C708 C707 1.369 . S
C708 C717 1.416 1_554 S
C709 C707 1.419 . S
C709 C710 1.363 . S
C709 H712 0.929 . S
C710 C709 1.363 . S
C710 C716 1.428 . S
H711 C707 0.930 . S
H712 C709 0.929 . S
S713 N714 1.613 . S
S713 N715 1.610 . S
N714 S713 1.613 . S
N714 C717 1.366 . S
N715 S713 1.610 . S
N715 C716 1.351 1_556 S
C716 C710 1.428 . S
C716 N715 1.351 1_554 S
C716 C717 1.432 1_554 S
C717 C708 1.416 1_556 S
C717 N714 1.366 . S
C717 C716 1.432 1_556 S
C718 C719 1.369 . S
C718 C720 1.419 . S
C718 H722 0.930 . S
C719 C718 1.369 . S
C719 C728 1.429 . S
C720 C718 1.419 . S
C720 C721 1.363 . S
C720 H723 0.929 . S
C721 C720 1.363 . S
C721 C727 1.428 . S
H722 C718 0.930 . S
H723 C720 0.929 . S
S724 N725 1.613 . S
S724 N726 1.610 . S
N725 S724 1.613 . S
N725 C728 1.350 . S
N726 S724 1.610 . S
N726 C727 1.351 . S
C727 C721 1.428 . S
C727 N726 1.351 . S
C727 C728 1.434 . S
C728 C719 1.429 . S
C728 N725 1.350 . S
C728 C727 1.434 . S
C729 C730 1.369 . S
C729 C731 1.419 . S
C729 H733 0.930 . S
C730 C729 1.369 . S
C730 C739 1.429 . S
C731 C729 1.419 . S
C731 C732 1.363 . S
C731 H734 0.929 . S
C732 C731 1.363 . S
C732 C738 1.428 . S
H733 C729 0.930 . S
H734 C731 0.929 . S
S735 N736 1.613 . S
S735 N737 1.610 . S
N736 S735 1.613 . S
N736 C739 1.350 . S
N737 S735 1.610 . S
N737 C738 1.351 . S
C738 C732 1.428 . S
C738 N737 1.351 . S
C738 C739 1.434 . S
C739 C730 1.429 . S
C739 N736 1.350 . S
C739 C738 1.434 . S
C740 C741 1.369 . S
C740 C742 1.419 . S
C740 H744 0.930 . S
C741 C740 1.369 . S
C741 C750 1.429 . S
C742 C740 1.419 . S
C742 C743 1.363 . S
C742 H745 0.929 . S
C743 C742 1.363 . S
C743 C749 1.428 . S
H744 C740 0.930 . S
H745 C742 0.929 . S
S746 N747 1.613 . S
S746 N748 1.610 . S
N747 S746 1.613 . S
N747 C750 1.350 . S
N748 S746 1.610 . S
N748 C749 1.351 . S
C749 C743 1.428 . S
C749 N748 1.351 . S
C749 C750 1.434 . S
C750 C741 1.429 . S
C750 N747 1.350 . S
C750 C749 1.434 . S
C751 C752 1.369 . S
C751 C753 1.419 . S
C751 H755 0.930 . S
C752 C751 1.369 . S
C752 C761 1.429 . S
C753 C751 1.419 . S
C753 C754 1.363 . S
C753 H756 0.929 . S
C754 C753 1.363 . S
C754 C760 1.428 . S
H755 C751 0.930 . S
H756 C753 0.929 . S
S757 N758 1.613 . S
S757 N759 1.610 . S
N758 S757 1.613 . S
N758 C761 1.350 . S
N759 S757 1.610 . S
N759 C760 1.351 . S
C760 C754 1.428 . S
C760 N759 1.351 . S
C760 C761 1.434 . S
C761 C752 1.429 . S
C761 N758 1.350 . S
C761 C760 1.434 . S
C762 C763 1.369 1_556 S
C762 C764 1.419 . S
C762 H766 0.930 . S
C763 C762 1.369 1_554 S
C763 C772 1.429 . S
C764 C762 1.419 . S
C764 C765 1.363 . S
C764 H767 0.929 . S
C765 C764 1.363 . S
C765 C771 1.428 1_556 S
H766 C762 0.930 . S
H767 C764 0.929 . S
S768 N769 1.613 . S
S768 N770 1.610 . S
N769 S768 1.613 . S
N769 C772 1.350 . S
N770 S768 1.610 . S
N770 C771 1.351 . S
C771 C765 1.428 1_554 S
C771 N770 1.351 . S
C771 C772 1.434 . S
C772 C763 1.429 . S
C772 N769 1.350 . S
C772 C771 1.434 . S
C773 C774 1.369 . S
C773 C775 1.419 . S
C773 H777 0.930 . S
C774 C773 1.369 . S
C774 C783 1.429 . S
C775 C773 1.419 . S
C775 C776 1.363 . S
C775 H778 0.929 . S
C776 C775 1.363 . S
C776 C782 1.428 . S
H777 C773 0.930 . S
H778 C775 0.929 . S
S779 N780 1.613 . S
S779 N781 1.610 . S
N780 S779 1.613 . S
N780 C783 1.350 . S
N781 S779 1.610 . S
N781 C782 1.351 . S
C782 C776 1.428 . S
C782 N781 1.351 . S
C782 C783 1.434 . S
C783 C774 1.429 . S
C783 N780 1.350 . S
C783 C782 1.434 . S
C784 C785 1.369 . S
C784 C786 1.419 . S
C784 H788 0.930 . S
C785 C784 1.369 . S
C785 C794 1.429 . S
C786 C784 1.419 . S
C786 C787 1.363 . S
C786 H789 0.929 . S
C787 C786 1.363 . S
C787 C793 1.428 . S
H788 C784 0.930 . S
H789 C786 0.929 . S
S790 N791 1.613 . S
S790 N792 1.610 . S
N791 S790 1.613 . S
N791 C794 1.350 . S
N792 S790 1.610 . S
N792 C793 1.351 . S
C793 C787 1.428 . S
C793 N792 1.351 . S
C793 C794 1.434 . S
C794 C785 1.429 . S
C794 N791 1.350 . S
C794 C793 1.434 . S
C795 C796 1.369 . S
C795 C797 1.419 . S
C795 H799 0.930 . S
C796 C795 1.369 . S
C796 C805 1.429 . S
C797 C795 1.419 . S
C797 C798 1.363 . S
C797 H800 0.929 . S
C798 C797 1.363 . S
C798 C804 1.428 . S
H799 C795 0.930 . S
H800 C797 0.929 . S
S801 N802 1.613 . S
S801 N803 1.610 . S
N802 S801 1.613 . S
N802 C805 1.350 . S
N803 S801 1.610 . S
N803 C804 1.351 . S
C804 C798 1.428 . S
C804 N803 1.351 . S
C804 C805 1.434 . S
C805 C796 1.429 . S
C805 N802 1.350 . S
C805 C804 1.434 . S
C806 C807 1.369 . S
C806 C808 1.419 . S
C806 H810 0.930 . S
C807 C806 1.369 . S
C807 C816 1.429 . S
C808 C806 1.419 . S
C808 C809 1.363 . S
C808 H811 0.929 . S
C809 C808 1.363 . S
C809 C815 1.428 . S
H810 C806 0.930 . S
H811 C808 0.929 . S
S812 N813 1.613 . S
S812 N814 1.610 . S
N813 S812 1.613 . S
N813 C816 1.350 . S
N814 S812 1.610 . S
N814 C815 1.351 . S
C815 C809 1.428 . S
C815 N814 1.351 . S
C815 C816 1.434 . S
C816 C807 1.429 . S
C816 N813 1.350 . S
C816 C815 1.434 . S
C817 C818 1.369 . S
C817 C819 1.419 . S
C817 H821 0.930 . S
C818 C817 1.369 . S
C818 C827 1.429 . S
C819 C817 1.419 . S
C819 C820 1.363 . S
C819 H822 0.929 . S
C820 C819 1.363 . S
C820 C826 1.428 . S
H821 C817 0.930 . S
H822 C819 0.929 . S
S823 N824 1.613 . S
S823 N825 1.610 . S
N824 S823 1.613 . S
N824 C827 1.350 . S
N825 S823 1.610 . S
N825 C826 1.351 . S
C826 C820 1.428 . S
C826 N825 1.351 . S
C826 C827 1.434 . S
C827 C818 1.429 . S
C827 N824 1.350 . S
C827 C826 1.434 . S
C828 C829 1.369 . S
C828 C830 1.419 . S
C828 H832 0.930 . S
C829 C828 1.369 . S
C829 C838 1.429 . S
C830 C828 1.419 . S
C830 C831 1.363 . S
C830 H833 0.929 . S
C831 C830 1.363 . S
C831 C837 1.428 . S
H832 C828 0.930 . S
H833 C830 0.929 . S
S834 N835 1.613 . S
S834 N836 1.610 . S
N835 S834 1.613 . S
N835 C838 1.350 . S
N836 S834 1.610 . S
N836 C837 1.351 . S
C837 C831 1.428 . S
C837 N836 1.351 . S
C837 C838 1.434 . S
C838 C829 1.429 . S
C838 N835 1.350 . S
C838 C837 1.434 . S
C839 C840 1.369 . S
C839 C841 1.419 . S
C839 H843 0.930 . S
C840 C839 1.369 . S
C840 C849 1.429 . S
C841 C839 1.419 . S
C841 C842 1.363 . S
C841 H844 0.929 . S
C842 C841 1.363 . S
C842 C848 1.428 . S
H843 C839 0.930 . S
H844 C841 0.929 . S
S845 N846 1.613 . S
S845 N847 1.610 . S
N846 S845 1.613 . S
N846 C849 1.350 . S
N847 S845 1.610 . S
N847 C848 1.351 . S
C848 C842 1.428 . S
C848 N847 1.351 . S
C848 C849 1.434 . S
C849 C840 1.429 . S
C849 N846 1.350 . S
C849 C848 1.434 . S
C850 C851 1.369 . S
C850 C852 1.419 . S
C850 H854 0.930 . S
C851 C850 1.369 . S
C851 C860 1.429 . S
C852 C850 1.419 . S
C852 C853 1.363 . S
C852 H855 0.929 . S
C853 C852 1.363 . S
C853 C859 1.428 . S
H854 C850 0.930 . S
H855 C852 0.929 . S
S856 N857 1.613 . S
S856 N858 1.610 . S
N857 S856 1.613 . S
N857 C860 1.350 . S
N858 S856 1.610 . S
N858 C859 1.351 . S
C859 C853 1.428 . S
C859 N858 1.351 . S
C859 C860 1.434 . S
C860 C851 1.429 . S
C860 N857 1.350 . S
C860 C859 1.434 . S
C861 C862 1.369 . S
C861 C863 1.419 . S
C861 H865 0.930 . S
C862 C861 1.369 . S
C862 C871 1.429 . S
C863 C861 1.419 . S
C863 C864 1.363 . S
C863 H866 0.929 . S
C864 C863 1.363 . S
C864 C870 1.428 . S
H865 C861 0.930 . S
H866 C863 0.929 . S
S867 N868 1.613 . S
S867 N869 1.610 . S
N868 S867 1.613 . S
N868 C871 1.350 . S
N869 S867 1.610 . S
N869 C870 1.351 . S
C870 C864 1.428 . S
C870 N869 1.351 . S
C870 C871 1.434 . S
C871 C862 1.429 . S
C871 N868 1.350 . S
C871 C870 1.434 . S
C872 C873 1.369 . S
C872 C874 1.419 . S
C872 H876 0.930 . S
C873 C872 1.369 . S
C873 C882 1.429 . S
C874 C872 1.419 . S
C874 C875 1.363 . S
C874 H877 0.929 . S
C875 C874 1.363 . S
C875 C881 1.428 . S
H876 C872 0.930 . S
H877 C874 0.929 . S
S878 N879 1.613 . S
S878 N880 1.610 . S
N879 S878 1.613 . S
N879 C882 1.350 . S
N880 S878 1.610 . S
N880 C881 1.351 . S
C881 C875 1.428 . S
C881 N880 1.351 . S
C881 C882 1.434 . S
C882 C873 1.429 . S
C882 N879 1.350 . S
C882 C881 1.434 . S
C883 C884 1.369 . S
C883 C885 1.419 . S
C883 H887 0.930 . S
C884 C883 1.369 . S
C884 C893 1.429 . S
C885 C883 1.419 . S
C885 C886 1.363 . S
C885 H888 0.929 . S
C886 C885 1.363 . S
C886 C892 1.428 . S
H887 C883 0.930 . S
H888 C885 0.929 . S
S889 N890 1.613 . S
S889 N891 1.610 . S
N890 S889 1.613 . S
N890 C893 1.350 . S
N891 S889 1.610 . S
N891 C892 1.351 . S
C892 C886 1.428 . S
C892 N891 1.351 . S
C892 C893 1.434 . S
C893 C884 1.429 . S
C893 N890 1.350 . S
C893 C892 1.434 . S
C894 C895 1.369 . S
C894 C896 1.419 . S
C894 H898 0.930 . S
C895 C894 1.369 . S
C895 C904 1.429 . S
C896 C894 1.419 . S
C896 C897 1.363 . S
C896 H899 0.929 . S
C897 C896 1.363 . S
C897 C903 1.428 . S
H898 C894 0.930 . S
H899 C896 0.929 . S
S900 N901 1.613 . S
S900 N902 1.610 . S
N901 S900 1.613 . S
N901 C904 1.350 . S
N902 S900 1.610 . S
N902 C903 1.351 . S
C903 C897 1.428 . S
C903 N902 1.351 . S
C903 C904 1.434 . S
C904 C895 1.429 . S
C904 N901 1.350 . S
C904 C903 1.434 . S
C905 C906 1.369 . S
C905 C907 1.419 . S
C905 H909 0.930 . S
C906 C905 1.369 . S
C906 C915 1.429 . S
C907 C905 1.419 . S
C907 C908 1.363 . S
C907 H910 0.929 . S
C908 C907 1.363 . S
C908 C914 1.428 . S
H909 C905 0.930 . S
H910 C907 0.929 . S
S911 N912 1.613 . S
S911 N913 1.610 . S
N912 S911 1.613 . S
N912 C915 1.350 . S
N913 S911 1.610 . S
N913 C914 1.351 . S
C914 C908 1.428 . S
C914 N913 1.351 . S
C914 C915 1.434 . S
C915 C906 1.429 . S
C915 N912 1.350 . S
C915 C914 1.434 . S
C916 C917 1.369 . S
C916 C918 1.419 . S
C916 H920 0.930 . S
C917 C916 1.369 . S
C917 C926 1.429 . S
C918 C916 1.419 . S
C918 C919 1.363 . S
C918 H921 0.929 . S
C919 C918 1.363 . S
C919 C925 1.428 . S
H920 C916 0.930 . S
H921 C918 0.929 . S
S922 N923 1.613 . S
S922 N924 1.610 . S
N923 S922 1.613 . S
N923 C926 1.350 . S
N924 S922 1.610 . S
N924 C925 1.351 . S
C925 C919 1.428 . S
C925 N924 1.351 . S
C925 C926 1.434 . S
C926 C917 1.429 . S
C926 N923 1.350 . S
C926 C925 1.434 . S
C927 C928 1.369 . S
C927 C929 1.419 . S
C927 H931 0.930 . S
C928 C927 1.369 . S
C928 C937 1.429 . S
C929 C927 1.419 . S
C929 C930 1.363 . S
C929 H932 0.929 . S
C930 C929 1.363 . S
C930 C936 1.428 . S
H931 C927 0.930 . S
H932 C929 0.929 . S
S933 N934 1.613 . S
S933 N935 1.610 . S
N934 S933 1.613 . S
N934 C937 1.350 . S
N935 S933 1.610 . S
N935 C936 1.351 . S
C936 C930 1.428 . S
C936 N935 1.351 . S
C936 C937 1.434 . S
C937 C928 1.429 . S
C937 N934 1.350 . S
C937 C936 1.434 . S
C938 C939 1.369 . S
C938 C940 1.419 . S
C938 H942 0.930 . S
C939 C938 1.369 . S
C939 C948 1.429 . S
C940 C938 1.419 . S
C940 C941 1.363 . S
C940 H943 0.929 . S
C941 C940 1.363 . S
C941 C947 1.428 . S
H942 C938 0.930 . S
H943 C940 0.929 . S
S944 N945 1.613 . S
S944 N946 1.610 . S
N945 S944 1.613 . S
N945 C948 1.350 . S
N946 S944 1.610 . S
N946 C947 1.351 . S
C947 C941 1.428 . S
C947 N946 1.351 . S
C947 C948 1.434 . S
C948 C939 1.429 . S
C948 N945 1.350 . S
C948 C947 1.434 . S
C949 C950 1.369 . S
C949 C951 1.419 . S
C949 H953 0.930 . S
C950 C949 1.369 . S
C950 C959 1.429 . S
C951 C949 1.419 . S
C951 C952 1.363 . S
C951 H954 0.929 . S
C952 C951 1.363 . S
C952 C958 1.428 . S
H953 C949 0.930 . S
H954 C951 0.929 . S
S955 N956 1.613 . S
S955 N957 1.610 . S
N956 S955 1.613 . S
N956 C959 1.350 . S
N957 S955 1.610 . S
N957 C958 1.351 . S
C958 C952 1.428 . S
C958 N957 1.351 . S
C958 C959 1.434 . S
C959 C950 1.429 . S
C959 N956 1.350 . S
C959 C958 1.434 . S
C611 C517 1.567 . S
C609 C35 1.346 . S
C622 C537 1.456 . S
C620 C115 1.363 . S
C633 C551 1.481 . S
C631 C177 1.393 . S
C642 C221 1.440 . S
C644 C509 1.566 . S
C653 C283 1.496 . S
C655 C503 1.794 . S
C664 C363 1.477 . S
C666 C523 1.587 . S
C677 C531 1.590 . S
C675 C407 1.371 . S
C688 C545 1.731 . S
C686 C469 1.460 . S
C697 C159 1.466 . S
C699 C573 1.731 . S
C710 C587 1.590 . S
C708 C239 1.388 . S
C719 C53 1.468 . S
C721 C607 1.592 . S
C732 C559 1.798 . S
C730 C97 1.499 . S
C741 C425 1.459 . S
C743 C565 1.561 . S
C752 C487 1.393 . S
C754 C579 1.481 . S
C765 C593 1.459 1_556 S
C763 C301 1.361 1_554 S
C774 C345 1.361 . S
C776 C601 1.564 . S
C787 C532 1.927 . S
C785 C29 1.933 . S
C798 C546 1.941 . S
C796 C109 1.868 . S
C807 C171 1.793 . S
C809 C504 1.868 . S
C818 C215 1.664 . S
C820 C521 1.684 . S
C829 C277 1.610 . S
C831 C549 1.619 . S
C842 C507 1.612 . S
C840 C357 1.550 . S
C853 C518 1.846 . S
C851 C401 1.856 . S
C864 C535 1.682 . S
C862 C463 1.675 . S
C875 C591 1.682 . S
C873 C153 1.671 . S
C886 C602 1.846 . S
C884 C233 1.809 . S
C895 C47 1.553 . S
C897 C563 1.612 . S
C908 C577 1.620 . S
C906 C91 1.609 . S
C919 C605 1.686 . S
C917 C419 1.606 . S
C928 C481 1.794 . S
C930 C560 1.868 . S
C941 C574 1.940 . S
C939 C295 1.864 . S
C952 C588 1.926 . S
C950 C339 1.932 . S
