# Generated by pormake.
# Topology hwx, (6,3)-cn, num edge types: 1
# Building blocks:
#     Node 0, Type 0, BuildingBlock: IZENUY_clean_sbu_0, # of connection points: 6
#     Node 1, Type 0, BuildingBlock: IZENUY_clean_sbu_0, # of connection points: 6
#     Node 2, Type 0, BuildingBlock: IZENUY_clean_sbu_0, # of connection points: 6
#     Node 3, Type 0, BuildingBlock: IZENUY_clean_sbu_0, # of connection points: 6
#     Node 4, Type 1, BuildingBlock: BELTOD_clean_linker_0, # of connection points: 3
#     Node 5, Type 1, BuildingBlock: BELTOD_clean_linker_0, # of connection points: 3
#     Node 6, Type 1, BuildingBlock: BELTOD_clean_linker_0, # of connection points: 3
#     Node 7, Type 1, BuildingBlock: BELTOD_clean_linker_0, # of connection points: 3
#     Node 8, Type 1, BuildingBlock: BELTOD_clean_linker_0, # of connection points: 3
#     Node 9, Type 1, BuildingBlock: BELTOD_clean_linker_0, # of connection points: 3
#     Node 10, Type 1, BuildingBlock: BELTOD_clean_linker_0, # of connection points: 3
#     Node 11, Type 1, BuildingBlock: BELTOD_clean_linker_0, # of connection points: 3
#     Edge 12, Type (0, 1), BuildingBlock: KIFKEQ_clean_linker_1, # of connection points: 2
#     Edge 13, Type (0, 1), BuildingBlock: KIFKEQ_clean_linker_1, # of connection points: 2
#     Edge 14, Type (0, 1), BuildingBlock: KIFKEQ_clean_linker_1, # of connection points: 2
#     Edge 15, Type (0, 1), BuildingBlock: KIFKEQ_clean_linker_1, # of connection points: 2
#     Edge 16, Type (0, 1), BuildingBlock: KIFKEQ_clean_linker_1, # of connection points: 2
#     Edge 17, Type (0, 1), BuildingBlock: KIFKEQ_clean_linker_1, # of connection points: 2
#     Edge 18, Type (0, 1), BuildingBlock: KIFKEQ_clean_linker_1, # of connection points: 2
#     Edge 19, Type (0, 1), BuildingBlock: KIFKEQ_clean_linker_1, # of connection points: 2
#     Edge 20, Type (0, 1), BuildingBlock: KIFKEQ_clean_linker_1, # of connection points: 2
#     Edge 21, Type (0, 1), BuildingBlock: KIFKEQ_clean_linker_1, # of connection points: 2
#     Edge 22, Type (0, 1), BuildingBlock: KIFKEQ_clean_linker_1, # of connection points: 2
#     Edge 23, Type (0, 1), BuildingBlock: KIFKEQ_clean_linker_1, # of connection points: 2
#     Edge 24, Type (0, 1), BuildingBlock: KIFKEQ_clean_linker_1, # of connection points: 2
#     Edge 25, Type (0, 1), BuildingBlock: KIFKEQ_clean_linker_1, # of connection points: 2
#     Edge 26, Type (0, 1), BuildingBlock: KIFKEQ_clean_linker_1, # of connection points: 2
#     Edge 27, Type (0, 1), BuildingBlock: KIFKEQ_clean_linker_1, # of connection points: 2
#     Edge 28, Type (0, 1), BuildingBlock: KIFKEQ_clean_linker_1, # of connection points: 2
#     Edge 29, Type (0, 1), BuildingBlock: KIFKEQ_clean_linker_1, # of connection points: 2
#     Edge 30, Type (0, 1), BuildingBlock: KIFKEQ_clean_linker_1, # of connection points: 2
#     Edge 31, Type (0, 1), BuildingBlock: KIFKEQ_clean_linker_1, # of connection points: 2
#     Edge 32, Type (0, 1), BuildingBlock: KIFKEQ_clean_linker_1, # of connection points: 2
#     Edge 33, Type (0, 1), BuildingBlock: KIFKEQ_clean_linker_1, # of connection points: 2
#     Edge 34, Type (0, 1), BuildingBlock: KIFKEQ_clean_linker_1, # of connection points: 2
#     Edge 35, Type (0, 1), BuildingBlock: KIFKEQ_clean_linker_1, # of connection points: 2
# Relax obj value: 0.046
# Max RMSD: 0.072
# Mean RMSD: 0.062
data_MOF--net-hwx--node1-IZENUY_clean_sbu_0--node2-BELTOD_clean_linker_0--edge1-KIFKEQ_clean_linker_1
_symmetry_space_group_name_H-M    P1
_symmetry_Int_Tables_number       1
_symmetry_cell_setting            triclinic
loop_
_symmetry_equiv_pos_as_xyz
'x, y, z'
_cell_length_a     54.905094
_cell_length_b     54.935611
_cell_length_c     26.171623
_cell_angle_alpha  89.425229
_cell_angle_beta   90.5839
_cell_angle_gamma 90.004793
loop_
_atom_site_label
_atom_site_type_symbol
_atom_site_fract_x
_atom_site_fract_y
_atom_site_fract_z
_atom_type_partial_charge
Fe0 Fe 0.23585 0.20203 0.06406 0.0
Fe1 Fe 0.23684 0.19951 0.94754 0.0
O2 O 0.22827 0.18664 0.00696 0.0
Fe3 Fe 0.21222 0.15859 0.00892 0.0
O4 O 0.19391 0.16647 0.06519 0.0
O5 O 0.20424 0.20433 0.08164 0.0
O6 O 0.23278 0.23257 0.03595 0.0
C7 C 0.22104 0.23997 0.99689 0.0
C8 C 0.24358 0.15245 0.09037 0.0
O9 O 0.21854 0.2265 0.95838 0.0
C10 C 0.24761 0.15177 0.93129 0.0
O11 O 0.26827 0.20087 0.05061 0.0
O12 O 0.26442 0.21431 0.97186 0.0
O13 O 0.23578 0.1443 0.04836 0.0
O14 O 0.23996 0.17435 0.10252 0.0
C15 C 0.19033 0.17989 0.92555 0.0
O16 O 0.25549 0.17334 0.93326 0.0
O17 O 0.22785 0.14585 0.95305 0.0
C18 C 0.27756 0.20984 0.01077 0.0
O19 O 0.21109 0.18713 0.91168 0.0
O20 O 0.18738 0.17074 0.96947 0.0
C21 C 0.18972 0.18671 0.08637 0.0
Fe22 Fe 0.24775 0.71465 0.56313 0.0
Fe23 Fe 0.27612 0.67354 0.51185 0.0
O24 O 0.25695 0.69944 0.5073 0.0
Fe25 Fe 0.24705 0.71027 0.4467 0.0
O26 O 0.26206 0.73934 0.45661 0.0
O27 O 0.24721 0.745 0.53321 0.0
O28 O 0.27892 0.72085 0.58122 0.0
C29 C 0.29512 0.70493 0.58836 0.0
C30 C 0.20547 0.71677 0.5083 0.0
O31 O 0.29296 0.68396 0.56897 0.0
C32 C 0.24208 0.66134 0.43368 0.0
O33 O 0.24679 0.68706 0.60313 0.0
O34 O 0.25407 0.65721 0.55018 0.0
O35 O 0.21779 0.72196 0.46906 0.0
O36 O 0.21582 0.7096 0.54889 0.0
C37 C 0.29579 0.69627 0.42884 0.0
O38 O 0.26255 0.65846 0.4559 0.0
O39 O 0.23164 0.68182 0.43333 0.0
C40 C 0.24535 0.6648 0.59145 0.0
O41 O 0.29951 0.68812 0.47348 0.0
O42 O 0.27436 0.70058 0.41299 0.0
C43 C 0.2582 0.753 0.49418 0.0
Fe44 Fe 0.75977 0.78739 0.94441 0.0
Fe45 Fe 0.76201 0.7894 0.06169 0.0
O46 O 0.76747 0.80302 0.00126 0.0
Fe47 Fe 0.78058 0.8324 0.99784 0.0
O48 O 0.76483 0.84138 0.93875 0.0
O49 O 0.73931 0.81159 0.92303 0.0
O50 O 0.73303 0.77201 0.97135 0.0
C51 C 0.72035 0.77696 0.01005 0.0
C52 C 0.80502 0.80984 0.92146 0.0
O53 O 0.72968 0.78738 0.04823 0.0
C54 C 0.80617 0.81022 0.08065 0.0
O55 O 0.77963 0.76212 0.96132 0.0
O56 O 0.76728 0.75809 0.0405 0.0
O57 O 0.80657 0.82113 0.96311 0.0
O58 O 0.78518 0.79998 0.90759 0.0
C59 C 0.74907 0.83882 0.07634 0.0
O60 O 0.7941 0.79068 0.07929 0.0
O61 O 0.79881 0.82892 0.05644 0.0
C62 C 0.7783 0.74981 0.00212 0.0
O63 O 0.7556 0.81822 0.09391 0.0
O64 O 0.75536 0.8456 0.03222 0.0
C65 C 0.74559 0.83356 0.91765 0.0
Fe66 Fe 0.7051 0.3403 0.50873 0.0
Fe67 Fe 0.72543 0.29677 0.5702 0.0
O68 O 0.71957 0.31139 0.51066 0.0
Fe69 Fe 0.72835 0.29714 0.45313 0.0
O70 O 0.74783 0.32251 0.43574 0.0
O71 O 0.72131 0.35131 0.45188 0.0
O72 O 0.72913 0.35404 0.5472 0.0
C73 C 0.7359 0.34623 0.5906 0.0
C74 C 0.68249 0.31814 0.42799 0.0
O75 O 0.73043 0.32496 0.60539 0.0
C76 C 0.71091 0.25789 0.50629 0.0
O77 O 0.68617 0.33453 0.5651 0.0
O78 O 0.69336 0.29631 0.58595 0.0
O79 O 0.70282 0.30934 0.41521 0.0
O80 O 0.68006 0.32873 0.4702 0.0
C81 C 0.76786 0.28704 0.52033 0.0
O82 O 0.72144 0.26582 0.54601 0.0
O83 O 0.70956 0.27068 0.46609 0.0
C84 C 0.68001 0.31497 0.58759 0.0
O85 O 0.75796 0.29635 0.55874 0.0
O86 O 0.75549 0.2823 0.4806 0.0
C87 C 0.74077 0.34427 0.43097 0.0
P88 P 0.23132 0.50011 0.01836 0.0
H89 H 0.25126 0.49763 0.12139 0.0
H90 H 0.24171 0.51955 0.19917 0.0
H91 H 0.17833 0.55088 0.12454 0.0
H92 H 0.18808 0.52872 0.04651 0.0
H93 H 0.25629 0.45868 0.97546 0.0
H94 H 0.24491 0.41635 0.96349 0.0
H95 H 0.17442 0.4307 0.02898 0.0
H96 H 0.18631 0.47334 0.04179 0.0
H97 H 0.22846 0.55256 0.00271 0.0
H98 H 0.21476 0.48797 0.91438 0.0
O99 O 0.2617 0.50125 0.01971 0.0
H100 H 0.22097 0.57778 0.92685 0.0
H101 H 0.20754 0.51316 0.83827 0.0
C102 C 0.22084 0.51221 0.07784 0.0
C103 C 0.23507 0.50888 0.12203 0.0
C104 C 0.22946 0.5213 0.16664 0.0
C105 C 0.20943 0.53723 0.1678 0.0
C106 C 0.19411 0.53906 0.12449 0.0
C107 C 0.19967 0.52643 0.07992 0.0
C108 C 0.22236 0.46892 0.01066 0.0
C109 C 0.23843 0.45273 0.98756 0.0
C110 C 0.23174 0.42857 0.98004 0.0
C111 C 0.20869 0.42014 0.99506 0.0
C112 C 0.19238 0.43659 0.01742 0.0
C113 C 0.19914 0.4609 0.02486 0.0
C114 C 0.22163 0.51842 0.96458 0.0
C115 C 0.22317 0.54383 0.96737 0.0
C116 C 0.21888 0.55823 0.92399 0.0
C117 C 0.21355 0.5474 0.87677 0.0
C118 C 0.2116 0.52195 0.87424 0.0
C119 C 0.21562 0.50756 0.91784 0.0
P120 P 0.97671 0.85216 0.50456 0.0
H121 H 0.97597 0.8709 0.60852 0.0
H122 H 0.94945 0.86281 0.6815 0.0
H123 H 0.90947 0.81029 0.59185 0.0
H124 H 0.93555 0.81874 0.51935 0.0
H125 H 0.02731 0.86086 0.47747 0.0
H126 H 0.06341 0.83503 0.47925 0.0
H127 H 0.02023 0.77524 0.53765 0.0
H128 H 0.98447 0.80163 0.53791 0.0
H129 H 0.94963 0.88444 0.43542 0.0
H130 H 0.96713 0.80801 0.44522 0.0
O131 O 0.98523 0.88131 0.50652 0.0
H132 H 0.92459 0.87702 0.35971 0.0
H133 H 0.94115 0.80016 0.37135 0.0
C134 C 0.95734 0.84592 0.5581 0.0
C135 C 0.96137 0.85777 0.6046 0.0
C136 C 0.94636 0.85297 0.64637 0.0
C137 C 0.92719 0.8361 0.64223 0.0
C138 C 0.92372 0.82378 0.59591 0.0
C139 C 0.9387 0.8286 0.55431 0.0
C140 C 0.00335 0.83325 0.50822 0.0
C141 C 0.0257 0.84228 0.49124 0.0
C142 C 0.04628 0.82737 0.49175 0.0
C143 C 0.04474 0.80297 0.50838 0.0
C144 C 0.02219 0.79401 0.52535 0.0
C145 C 0.00168 0.80906 0.52534 0.0
C146 C 0.96047 0.84685 0.44564 0.0
C147 C 0.94824 0.86607 0.42104 0.0
C148 C 0.93367 0.86172 0.37804 0.0
C149 C 0.9306 0.83792 0.3595 0.0
C150 C 0.94331 0.81876 0.38389 0.0
C151 C 0.95817 0.82322 0.42642 0.0
P152 P 0.84179 0.48938 0.00872 0.0
H153 H 0.85948 0.47907 0.90609 0.0
H154 H 0.84131 0.45805 0.83314 0.0
H155 H 0.77475 0.44835 0.91786 0.0
H156 H 0.79335 0.46869 0.991 0.0
H157 H 0.86844 0.53146 0.04709 0.0
H158 H 0.85983 0.57514 0.04587 0.0
H159 H 0.7907 0.56127 0.97121 0.0
H160 H 0.79966 0.51776 0.97172 0.0
H161 H 0.85536 0.44343 0.05689 0.0
H162 H 0.80493 0.50177 0.0854 0.0
O163 O 0.87194 0.48599 0.00537 0.0
H164 H 0.84017 0.42123 0.1314 0.0
H165 H 0.78995 0.47995 0.16065 0.0
C166 C 0.82795 0.4749 0.95429 0.0
C167 C 0.841 0.47233 0.90893 0.0
C168 C 0.83049 0.46052 0.86706 0.0
C169 C 0.80661 0.45129 0.86972 0.0
C170 C 0.79334 0.45473 0.91483 0.0
C171 C 0.80393 0.46642 0.95669 0.0
C172 C 0.83494 0.52143 0.00853 0.0
C173 C 0.85149 0.53787 0.03024 0.0
C174 C 0.84646 0.56282 0.02984 0.0
C175 C 0.82465 0.57175 0.00804 0.0
C176 C 0.80788 0.55507 0.98731 0.0
C177 C 0.81295 0.53014 0.98774 0.0
C178 C 0.83159 0.47441 0.06617 0.0
C179 C 0.84128 0.45163 0.07975 0.0
C180 C 0.83262 0.439 0.12247 0.0
C181 C 0.81392 0.44885 0.15225 0.0
C182 C 0.80425 0.47175 0.13839 0.0
C183 C 0.81295 0.48437 0.09558 0.0
P184 P 0.03139 0.24221 0.5034 0.0
H185 H 0.0319 0.25826 0.3969 0.0
H186 H 0.05224 0.24217 0.32153 0.0
H187 H 0.07306 0.17797 0.40791 0.0
H188 H 0.05238 0.19392 0.48279 0.0
H189 H 0.0009 0.26596 0.57728 0.0
H190 H 0.95694 0.2708 0.58492 0.0
H191 H 0.94628 0.2277 0.44913 0.0
H192 H 0.99036 0.22218 0.44305 0.0
H193 H 0.0821 0.23678 0.53132 0.0
H194 H 0.01288 0.21641 0.59564 0.0
O195 O 0.04138 0.27088 0.50075 0.0
H196 H 0.10313 0.21857 0.60495 0.0
H197 H 0.03395 0.1987 0.67033 0.0
C198 C 0.04117 0.2276 0.44573 0.0
C199 C 0.04035 0.24047 0.39923 0.0
C200 C 0.05189 0.23121 0.35615 0.0
C201 C 0.06453 0.20898 0.35913 0.0
C202 C 0.06375 0.19532 0.4048 0.0
C203 C 0.05195 0.20445 0.44764 0.0
C204 C 0.99884 0.24373 0.50969 0.0
C205 C 0.98905 0.25735 0.54948 0.0
C206 C 0.96391 0.26026 0.55352 0.0
C207 C 0.94802 0.24985 0.51735 0.0
C208 C 0.95794 0.23578 0.47795 0.0
C209 C 0.98318 0.23271 0.47421 0.0
C210 C 0.04598 0.22814 0.55812 0.0
C211 C 0.07144 0.2284 0.56133 0.0
C212 C 0.08342 0.21789 0.60325 0.0
C213 C 0.07013 0.20717 0.64317 0.0
C214 C 0.04457 0.20694 0.64008 0.0
C215 C 0.03256 0.21712 0.59747 0.0
P216 P 0.73108 0.99645 0.49805 0.0
H217 H 0.75796 0.99453 0.40287 0.0
H218 H 0.75058 0.97333 0.32325 0.0
H219 H 0.67905 0.95237 0.37589 0.0
H220 H 0.68721 0.97289 0.45692 0.0
H221 H 0.7516 0.03765 0.55177 0.0
H222 H 0.74002 0.08017 0.55702 0.0
H223 H 0.67444 0.06525 0.46976 0.0
H224 H 0.68686 0.02255 0.46305 0.0
H225 H 0.74506 0.94708 0.52181 0.0
H226 H 0.69425 0.99958 0.57977 0.0
O227 O 0.76142 0.99703 0.50289 0.0
H228 H 0.73478 0.91897 0.59055 0.0
H229 H 0.68311 0.9711 0.64837 0.0
C230 C 0.72335 0.98478 0.43609 0.0
C231 C 0.74058 0.98559 0.39711 0.0
C232 C 0.73618 0.97363 0.35118 0.0
C233 C 0.71425 0.96088 0.34307 0.0
C234 C 0.69632 0.96156 0.38116 0.0
C235 C 0.70088 0.97339 0.42738 0.0
C236 C 0.72036 0.02709 0.50613 0.0
C237 C 0.73469 0.04347 0.53387 0.0
C238 C 0.72785 0.06783 0.5373 0.0
C239 C 0.70626 0.07629 0.51371 0.0
C240 C 0.69138 0.05949 0.48765 0.0
C241 C 0.69838 0.03504 0.48397 0.0
C242 C 0.72069 0.97547 0.54622 0.0
C243 C 0.73136 0.95238 0.54907 0.0
C244 C 0.72522 0.93618 0.5882 0.0
C245 C 0.70805 0.94269 0.62523 0.0
C246 C 0.69662 0.96561 0.62095 0.0
C247 C 0.70291 0.9819 0.58167 0.0
P248 P 0.50725 0.34598 0.00358 0.0
H249 H 0.50864 0.36897 0.9024 0.0
H250 H 0.53351 0.36164 0.82707 0.0
H251 H 0.56756 0.30047 0.90436 0.0
H252 H 0.54261 0.30792 0.97961 0.0
H253 H 0.45621 0.35765 0.02192 0.0
H254 H 0.41947 0.33279 0.02656 0.0
H255 H 0.46221 0.26833 0.99865 0.0
H256 H 0.49908 0.2934 0.99447 0.0
H257 H 0.55443 0.36619 0.02921 0.0
H258 H 0.50303 0.31702 0.09909 0.0
O259 O 0.49915 0.37527 0.00145 0.0
H260 H 0.58186 0.36113 0.10256 0.0
H261 H 0.53066 0.31132 0.17196 0.0
C262 C 0.52407 0.33921 0.94679 0.0
C263 C 0.52139 0.35393 0.90307 0.0
C264 C 0.53564 0.34975 0.86009 0.0
C265 C 0.55263 0.33059 0.85994 0.0
C266 C 0.55454 0.31527 0.90318 0.0
C267 C 0.54037 0.31958 0.94628 0.0
C268 C 0.4803 0.32742 0.00695 0.0
C269 C 0.45772 0.3382 0.01657 0.0
C270 C 0.4367 0.32396 0.01917 0.0
C271 C 0.43792 0.29862 0.01259 0.0
C272 C 0.46071 0.28779 0.00411 0.0
C273 C 0.48175 0.30211 0.00124 0.0
C274 C 0.52686 0.34181 0.05843 0.0
C275 C 0.54912 0.3542 0.06028 0.0
C276 C 0.56483 0.35117 0.10211 0.0
C277 C 0.55854 0.33566 0.14298 0.0
C278 C 0.53597 0.32354 0.14131 0.0
C279 C 0.52023 0.32663 0.09937 0.0
P280 P 0.34526 0.00613 0.51292 0.0
H281 H 0.36391 0.01078 0.61727 0.0
H282 H 0.34864 0.0316 0.6927 0.0
H283 H 0.28615 0.05652 0.60503 0.0
H284 H 0.30118 0.03522 0.53057 0.0
H285 H 0.35388 0.96736 0.44094 0.0
H286 H 0.33962 0.92524 0.43573 0.0
H287 H 0.2989 0.93489 0.57454 0.0
H288 H 0.31343 0.9768 0.57979 0.0
H289 H 0.36903 0.0419 0.44648 0.0
H290 H 0.30019 0.00432 0.45271 0.0
O291 O 0.37564 0.00577 0.51564 0.0
H292 H 0.35564 0.06345 0.36913 0.0
H293 H 0.28615 0.02654 0.3768 0.0
C294 C 0.33399 0.02188 0.56797 0.0
C295 C 0.34698 0.02083 0.61431 0.0
C296 C 0.33825 0.03279 0.65737 0.0
C297 C 0.31622 0.04587 0.65492 0.0
C298 C 0.30305 0.04645 0.60851 0.0
C299 C 0.31179 0.03445 0.56557 0.0
C300 C 0.3348 0.97514 0.51077 0.0
C301 C 0.34194 0.96033 0.4703 0.0
C302 C 0.33365 0.93635 0.46718 0.0
C303 C 0.31813 0.92674 0.50472 0.0
C304 C 0.31108 0.94167 0.54537 0.0
C305 C 0.31932 0.9657 0.54831 0.0
C306 C 0.33568 0.02138 0.45497 0.0
C307 C 0.35104 0.03825 0.43108 0.0
C308 C 0.34325 0.0507 0.38703 0.0
C309 C 0.31976 0.04679 0.36656 0.0
C310 C 0.3045 0.02971 0.39073 0.0
C311 C 0.31243 0.0171 0.43443 0.0
P312 P 0.45723 0.76219 0.0195 0.0
H313 H 0.44692 0.78072 0.12115 0.0
H314 H 0.42652 0.76303 0.1949 0.0
H315 H 0.42071 0.69435 0.11637 0.0
H316 H 0.44053 0.71255 0.04191 0.0
H317 H 0.4935 0.78182 0.95133 0.0
H318 H 0.5375 0.77671 0.94638 0.0
H319 H 0.53458 0.72142 0.06497 0.0
H320 H 0.49061 0.72725 0.07073 0.0
H321 H 0.41491 0.7839 0.96979 0.0
H322 H 0.4605 0.72096 0.94901 0.0
O323 O 0.45512 0.79234 0.02536 0.0
H324 H 0.3901 0.7723 0.89643 0.0
H325 H 0.43511 0.70859 0.8761 0.0
C326 C 0.44464 0.74811 0.07565 0.0
C327 C 0.44135 0.76183 0.11985 0.0
C328 C 0.42992 0.75157 0.16233 0.0
C329 C 0.42179 0.72728 0.16152 0.0
C330 C 0.42633 0.71323 0.11793 0.0
C331 C 0.43766 0.72358 0.07534 0.0
C332 C 0.48889 0.75518 0.01176 0.0
C333 C 0.50233 0.76841 0.97584 0.0
C334 C 0.52748 0.76531 0.97281 0.0
C335 C 0.53964 0.74874 0.00553 0.0
C336 C 0.52584 0.73462 0.03985 0.0
C337 C 0.50065 0.73785 0.04299 0.0
C338 C 0.43973 0.7535 0.96424 0.0
C339 C 0.4196 0.76757 0.94927 0.0
C340 C 0.40525 0.76073 0.90756 0.0
C341 C 0.41049 0.7394 0.88043 0.0
C342 C 0.43073 0.72526 0.89572 0.0
C343 C 0.4452 0.73225 0.93744 0.0
H344 H 0.14835 0.15866 0.0936 0.0
H345 H 0.18535 0.2198 0.16237 0.0
H346 H 0.1161 0.16177 0.15783 0.0
H347 H 0.15365 0.22235 0.22646 0.0
H348 H 0.11178 0.19492 0.36761 0.0
H349 H 0.14064 0.18795 0.29892 0.0
H350 H 0.08359 0.20001 0.18702 0.0
H351 H 0.05451 0.2074 0.25608 0.0
C352 C 0.14957 0.17274 0.1222 0.0
C353 C 0.16942 0.18895 0.12292 0.0
C354 C 0.13114 0.17453 0.15871 0.0
C355 C 0.1326 0.19218 0.19706 0.0
C356 C 0.15225 0.20849 0.1974 0.0
C357 C 0.17032 0.20706 0.16052 0.0
C358 C 0.10523 0.19559 0.32844 0.0
C359 C 0.08089 0.20167 0.31717 0.0
C360 C 0.12177 0.19175 0.28921 0.0
C361 C 0.11426 0.19351 0.23791 0.0
C362 C 0.08971 0.19845 0.22639 0.0
C363 C 0.07318 0.20276 0.26576 0.0
H364 H 0.23513 0.61645 0.57789 0.0
H365 H 0.23436 0.6732 0.6911 0.0
H366 H 0.22225 0.58697 0.64251 0.0
H367 H 0.22242 0.64374 0.75574 0.0
H368 H 0.18868 0.58996 0.86095 0.0
H369 H 0.19165 0.61756 0.78755 0.0
H370 H 0.24026 0.56699 0.71457 0.0
H371 H 0.23663 0.53927 0.7871 0.0
C372 C 0.23217 0.62264 0.61651 0.0
C373 C 0.23599 0.64712 0.62945 0.0
C374 C 0.22487 0.60573 0.65358 0.0
C375 C 0.2214 0.61292 0.70445 0.0
C376 C 0.22451 0.63758 0.71686 0.0
C377 C 0.23159 0.65448 0.67979 0.0
C378 C 0.19967 0.58467 0.82876 0.0
C379 C 0.21251 0.56257 0.82974 0.0
C380 C 0.20148 0.60049 0.78685 0.0
C381 C 0.21643 0.59466 0.74535 0.0
C382 C 0.22833 0.57198 0.74544 0.0
C383 C 0.2263 0.55608 0.78709 0.0
H384 H 0.83 0.85195 0.10566 0.0
H385 H 0.82892 0.77464 0.13864 0.0
H386 H 0.86108 0.85757 0.17115 0.0
H387 H 0.86049 0.78048 0.20441 0.0
H388 H 0.93511 0.80448 0.28232 0.0
H389 H 0.90613 0.79621 0.213 0.0
H390 H 0.85858 0.8522 0.26925 0.0
H391 H 0.88674 0.85986 0.3395 0.0
C392 C 0.83654 0.83607 0.12648 0.0
C393 C 0.82675 0.81284 0.11719 0.0
C394 C 0.8543 0.83937 0.16414 0.0
C395 C 0.86296 0.81951 0.19304 0.0
C396 C 0.85408 0.79608 0.18249 0.0
C397 C 0.83599 0.79278 0.14504 0.0
C398 C 0.91835 0.81485 0.28033 0.0
C399 C 0.91341 0.833 0.31644 0.0
C400 C 0.90183 0.81012 0.24055 0.0
C401 C 0.88027 0.82369 0.23572 0.0
C402 C 0.87528 0.84173 0.27173 0.0
C403 C 0.89155 0.84622 0.31177 0.0
H404 H 0.73977 0.39625 0.58699 0.0
H405 H 0.75989 0.33311 0.67776 0.0
H406 H 0.75697 0.42269 0.65299 0.0
H407 H 0.7774 0.35928 0.74252 0.0
H408 H 0.77862 0.41029 0.87545 0.0
H409 H 0.76196 0.38641 0.80588 0.0
H410 H 0.79479 0.43542 0.69637 0.0
H411 H 0.81062 0.46016 0.76642 0.0
C412 C 0.74809 0.38802 0.62064 0.0
C413 C 0.74814 0.36259 0.62746 0.0
C414 C 0.758 0.40315 0.65838 0.0
C415 C 0.7682 0.39311 0.70344 0.0
C416 C 0.7691 0.36766 0.70899 0.0
C417 C 0.75915 0.35263 0.67164 0.0
C418 C 0.78199 0.41628 0.83661 0.0
C419 C 0.79597 0.43719 0.82664 0.0
C420 C 0.77272 0.40235 0.79663 0.0
C421 C 0.77728 0.40883 0.74549 0.0
C422 C 0.79088 0.42998 0.73531 0.0
C423 C 0.80016 0.444 0.77547 0.0
H424 H 0.67945 0.29245 0.33976 0.0
H425 H 0.63997 0.34451 0.4299 0.0
H426 H 0.64836 0.29519 0.27326 0.0
H427 H 0.60902 0.3477 0.36242 0.0
H428 H 0.54806 0.33256 0.24523 0.0
H429 H 0.57659 0.32637 0.31649 0.0
H430 H 0.63636 0.32515 0.21039 0.0
H431 H 0.60789 0.33023 0.13943 0.0
C432 C 0.6641 0.30448 0.34544 0.0
C433 C 0.66235 0.31847 0.38993 0.0
C434 C 0.64633 0.30614 0.30714 0.0
C435 C 0.62638 0.32194 0.31215 0.0
C436 C 0.6241 0.33526 0.35748 0.0
C437 C 0.64188 0.33351 0.39607 0.0
C438 C 0.56727 0.33067 0.23717 0.0
C439 C 0.5757 0.33192 0.18663 0.0
C440 C 0.58363 0.32739 0.27803 0.0
C441 C 0.60875 0.3252 0.26916 0.0
C442 C 0.61711 0.32641 0.21859 0.0
C443 C 0.6008 0.32966 0.17789 0.0
H444 H 0.28753 0.15961 0.87153 0.0
H445 H 0.23495 0.10438 0.9125 0.0
H446 H 0.3048 0.1325 0.80866 0.0
H447 H 0.2527 0.07698 0.85031 0.0
H448 H 0.26921 0.0496 0.68824 0.0
H449 H 0.25402 0.07376 0.75857 0.0
H450 H 0.32759 0.09572 0.79598 0.0
H451 H 0.34267 0.07245 0.72409 0.0
C452 C 0.27984 0.14156 0.86768 0.0
C453 C 0.25967 0.1343 0.89683 0.0
C454 C 0.28987 0.12592 0.83174 0.0
C455 C 0.28007 0.10257 0.82414 0.0
C456 C 0.26044 0.09499 0.85456 0.0
C457 C 0.25036 0.11066 0.89047 0.0
C458 C 0.28215 0.05968 0.71129 0.0
C459 C 0.30715 0.05922 0.70018 0.0
C460 C 0.27347 0.07328 0.75212 0.0
C461 C 0.28957 0.08675 0.78298 0.0
C462 C 0.31464 0.08581 0.77264 0.0
C463 C 0.32332 0.07223 0.73174 0.0
H464 H 0.34483 0.68812 0.44555 0.0
H465 H 0.29263 0.70976 0.32883 0.0
H466 H 0.37763 0.69171 0.38296 0.0
H467 H 0.32507 0.71351 0.26744 0.0
H468 H 0.38144 0.69844 0.15405 0.0
H469 H 0.35317 0.68747 0.22123 0.0
H470 H 0.39846 0.72434 0.33192 0.0
H471 H 0.42751 0.73446 0.26485 0.0
C472 C 0.34034 0.6936 0.40673 0.0
C473 C 0.31608 0.69854 0.39222 0.0
C474 C 0.3591 0.69569 0.37098 0.0
C475 C 0.35387 0.70257 0.32013 0.0
C476 C 0.32966 0.70762 0.30596 0.0
C477 C 0.31105 0.70565 0.34145 0.0
C478 C 0.38583 0.70362 0.19288 0.0
C479 C 0.40665 0.71758 0.20389 0.0
C480 C 0.36944 0.69757 0.23132 0.0
C481 C 0.37337 0.70544 0.28167 0.0
C482 C 0.39493 0.71804 0.29348 0.0
C483 C 0.41142 0.72405 0.25494 0.0
H484 H 0.71003 0.82175 0.84689 0.0
H485 H 0.75205 0.88221 0.90478 0.0
H486 H 0.69313 0.84825 0.7796 0.0
H487 H 0.73599 0.90816 0.83746 0.0
H488 H 0.70148 0.95566 0.72505 0.0
H489 H 0.7027 0.92924 0.80005 0.0
H490 H 0.7087 0.86643 0.70288 0.0
H491 H 0.70577 0.89272 0.62782 0.0
C492 C 0.71543 0.84071 0.84569 0.0
C493 C 0.73266 0.84976 0.88077 0.0
C494 C 0.70585 0.85587 0.80699 0.0
C495 C 0.71327 0.88035 0.8028 0.0
C496 C 0.72951 0.88957 0.83968 0.0
C497 C 0.739 0.87453 0.87813 0.0
C498 C 0.70219 0.93617 0.7195 0.0
C499 C 0.70405 0.9264 0.67025 0.0
C500 C 0.70322 0.921 0.76266 0.0
C501 C 0.70644 0.89572 0.75766 0.0
C502 C 0.70625 0.88578 0.70837 0.0
C503 C 0.70493 0.90093 0.6652 0.0
H504 H 0.80915 0.78539 0.83192 0.0
H505 H 0.84675 0.83726 0.92768 0.0
H506 H 0.84007 0.79055 0.76688 0.0
H507 H 0.87753 0.84273 0.86184 0.0
H508 H 0.93864 0.83083 0.74411 0.0
H509 H 0.91069 0.82281 0.81455 0.0
H510 H 0.85008 0.82357 0.70795 0.0
H511 H 0.87783 0.83156 0.63801 0.0
C512 C 0.82408 0.79782 0.83923 0.0
C513 C 0.8253 0.81115 0.88474 0.0
C514 C 0.84173 0.80086 0.80181 0.0
C515 C 0.86102 0.81733 0.80889 0.0
C516 C 0.86292 0.82984 0.85535 0.0
C517 C 0.84523 0.82676 0.89298 0.0
C518 C 0.91932 0.82943 0.7359 0.0
C519 C 0.91045 0.83163 0.68546 0.0
C520 C 0.90335 0.82481 0.77617 0.0
C521 C 0.87823 0.82229 0.76671 0.0
C522 C 0.8694 0.82483 0.71636 0.0
C523 C 0.8853 0.82943 0.67626 0.0
H524 H 0.78072 0.33462 0.37233 0.0
H525 H 0.72947 0.39162 0.40762 0.0
H526 H 0.79909 0.36086 0.30767 0.0
H527 H 0.74814 0.41794 0.34366 0.0
H528 H 0.7663 0.44392 0.1806 0.0
H529 H 0.75 0.41984 0.25099 0.0
H530 H 0.8229 0.39785 0.29454 0.0
H531 H 0.83925 0.42203 0.22405 0.0
C532 C 0.77354 0.35283 0.36677 0.0
C533 C 0.75346 0.3609 0.39495 0.0
C534 C 0.78416 0.36793 0.32982 0.0
C535 C 0.77497 0.39145 0.32018 0.0
C536 C 0.75539 0.39977 0.34948 0.0
C537 C 0.74478 0.38471 0.38641 0.0
C538 C 0.7789 0.43425 0.20561 0.0
C539 C 0.8041 0.43492 0.19659 0.0
C540 C 0.76955 0.42042 0.24601 0.0
C541 C 0.78514 0.4069 0.27846 0.0
C542 C 0.81036 0.40778 0.26984 0.0
C543 C 0.81973 0.42163 0.22942 0.0
H544 H 0.14111 0.17171 0.93956 0.0
H545 H 0.19434 0.18895 0.82404 0.0
H546 H 0.10875 0.17358 0.87387 0.0
H547 H 0.16254 0.19096 0.75988 0.0
H548 H 0.10777 0.17514 0.64331 0.0
H549 H 0.13426 0.164 0.71512 0.0
H550 H 0.08923 0.20582 0.81633 0.0
H551 H 0.06234 0.21654 0.74418 0.0
C552 C 0.14592 0.17573 0.90034 0.0
C553 C 0.17031 0.18017 0.88713 0.0
C554 C 0.12743 0.17687 0.86287 0.0
C555 C 0.13315 0.18211 0.81161 0.0
C556 C 0.15754 0.18634 0.79873 0.0
C557 C 0.1758 0.18541 0.83583 0.0
C558 C 0.1033 0.18156 0.68109 0.0
C559 C 0.08329 0.19699 0.68817 0.0
C560 C 0.11845 0.17523 0.72217 0.0
C561 C 0.11409 0.18444 0.77118 0.0
C562 C 0.09301 0.19839 0.77906 0.0
C563 C 0.07767 0.20458 0.73781 0.0
H564 H 0.26065 0.61566 0.42208 0.0
H565 H 0.20106 0.66197 0.37276 0.0
H566 H 0.24725 0.5846 0.3628 0.0
H567 H 0.18729 0.63047 0.31399 0.0
H568 H 0.19945 0.58584 0.16469 0.0
H569 H 0.20256 0.61455 0.23452 0.0
H570 H 0.21643 0.55515 0.34032 0.0
H571 H 0.21353 0.52635 0.27003 0.0
C572 C 0.24446 0.61909 0.39915 0.0
C573 C 0.23215 0.64148 0.4017 0.0
C574 C 0.23662 0.60113 0.36541 0.0
C575 C 0.21623 0.60505 0.33344 0.0
C576 C 0.20326 0.62701 0.3376 0.0
C577 C 0.21111 0.64502 0.37142 0.0
C578 C 0.20244 0.57881 0.20306 0.0
C579 C 0.20649 0.55384 0.21175 0.0
C580 C 0.20424 0.5953 0.24319 0.0
C581 C 0.21007 0.5872 0.29296 0.0
C582 C 0.21243 0.56204 0.30224 0.0
C583 C 0.2107 0.54554 0.26204 0.0
H584 H 0.30227 0.74646 0.6427 0.0
H585 H 0.33234 0.67462 0.62022 0.0
H586 H 0.33131 0.75329 0.71169 0.0
H587 H 0.36165 0.68173 0.68977 0.0
H588 H 0.42404 0.71963 0.78871 0.0
H589 H 0.39773 0.71031 0.71528 0.0
H590 H 0.33502 0.73369 0.79992 0.0
H591 H 0.36093 0.74235 0.8734 0.0
C592 C 0.3152 0.73216 0.6521 0.0
C593 C 0.31474 0.70984 0.62623 0.0
C594 C 0.33177 0.73608 0.69185 0.0
C595 C 0.34846 0.71791 0.70651 0.0
C596 C 0.34893 0.69603 0.67919 0.0
C597 C 0.33212 0.69198 0.6395 0.0
C598 C 0.40459 0.72241 0.79191 0.0
C599 C 0.39465 0.73209 0.83674 0.0
C600 C 0.38958 0.71714 0.74983 0.0
C601 C 0.36443 0.72165 0.75173 0.0
C602 C 0.35443 0.73055 0.79704 0.0
C603 C 0.36932 0.73558 0.83907 0.0
H604 H 0.73146 0.88445 0.05311 0.0
H605 H 0.74057 0.83316 0.17817 0.0
H606 H 0.71628 0.91472 0.11258 0.0
H607 H 0.72642 0.86344 0.23741 0.0
H608 H 0.69258 0.916 0.33814 0.0
H609 H 0.69429 0.88713 0.26871 0.0
H610 H 0.73323 0.93985 0.17698 0.0
H611 H 0.72985 0.96938 0.24498 0.0
C612 C 0.73009 0.87957 0.09318 0.0
C613 C 0.73749 0.85646 0.11094 0.0
C614 C 0.72148 0.89696 0.12732 0.0
C615 C 0.72023 0.89164 0.17995 0.0
C616 C 0.7267 0.86816 0.19716 0.0
C617 C 0.73508 0.85077 0.1631 0.0
C618 C 0.70074 0.92181 0.30258 0.0
C619 C 0.71146 0.94496 0.29764 0.0
C620 C 0.70207 0.90505 0.26293 0.0
C621 C 0.71444 0.91088 0.21762 0.0
C622 C 0.72355 0.93464 0.21123 0.0
C623 C 0.72193 0.95151 0.25064 0.0
H624 H 0.64351 0.34862 0.5907 0.0
H625 H 0.66849 0.28192 0.66269 0.0
H626 H 0.61066 0.35119 0.65214 0.0
H627 H 0.63619 0.28495 0.72538 0.0
H628 H 0.56516 0.2882 0.81246 0.0
H629 H 0.59367 0.28307 0.74227 0.0
H630 H 0.60652 0.36072 0.73961 0.0
H631 H 0.57772 0.36576 0.80861 0.0
C632 C 0.64196 0.33447 0.61961 0.0
C633 C 0.65876 0.31519 0.62204 0.0
C634 C 0.6232 0.33602 0.6551 0.0
C635 C 0.6209 0.31847 0.69427 0.0
C636 C 0.6372 0.29869 0.69553 0.0
C637 C 0.65584 0.29701 0.65967 0.0
C638 C 0.57407 0.30413 0.79664 0.0
C639 C 0.56915 0.32738 0.81593 0.0
C640 C 0.59045 0.30121 0.75652 0.0
C641 C 0.60243 0.32148 0.73509 0.0
C642 C 0.59729 0.34474 0.75428 0.0
C643 C 0.5808 0.34765 0.79401 0.0
H644 H 0.25984 0.10553 0.07714 0.0
H645 H 0.25441 0.16229 0.18966 0.0
H646 H 0.28017 0.0793 0.14059 0.0
H647 H 0.27382 0.1361 0.25276 0.0
H648 H 0.32862 0.09478 0.34445 0.0
H649 H 0.3123 0.11911 0.27427 0.0
H650 H 0.27273 0.0566 0.21856 0.0
H651 H 0.29038 0.03173 0.28716 0.0
C652 C 0.26286 0.11236 0.11536 0.0
C653 C 0.25557 0.13604 0.1282 0.0
C654 C 0.27443 0.09732 0.15176 0.0
C655 C 0.27884 0.10565 0.20171 0.0
C656 C 0.27129 0.12924 0.21442 0.0
C657 C 0.25995 0.14425 0.17817 0.0
C658 C 0.3169 0.086 0.31669 0.0
C659 C 0.31077 0.06126 0.32178 0.0
C660 C 0.30722 0.10009 0.27675 0.0
C661 C 0.29089 0.08993 0.24111 0.0
C662 C 0.28531 0.06501 0.24517 0.0
C663 C 0.29519 0.05083 0.28497 0.0
H664 H 0.20181 0.26559 0.91503 0.0
H665 H 0.22184 0.27255 0.0744 0.0
H666 H 0.19189 0.309 0.91141 0.0
H667 H 0.21259 0.3156 0.07044 0.0
H668 H 0.18551 0.39058 0.06391 0.0
H669 H 0.1818 0.3464 0.06138 0.0
H670 H 0.21567 0.34616 0.91306 0.0
H671 H 0.21826 0.39036 0.91452 0.0
C672 C 0.20391 0.27629 0.94932 0.0
C673 C 0.21294 0.26566 0.9948 0.0
C674 C 0.1983 0.30115 0.94722 0.0
C675 C 0.20149 0.3158 0.9906 0.0
C676 C 0.20954 0.30486 0.03649 0.0
C677 C 0.21514 0.28014 0.03858 0.0
C678 C 0.19148 0.38117 0.0301 0.0
C679 C 0.20259 0.39394 0.98982 0.0
C680 C 0.18959 0.35582 0.02887 0.0
C681 C 0.19886 0.3427 0.98745 0.0
C682 C 0.20829 0.35564 0.94552 0.0
C683 C 0.21008 0.38098 0.94665 0.0
H684 H 0.17455 0.72141 0.42697 0.0
H685 H 0.17793 0.72803 0.59119 0.0
H686 H 0.13357 0.73836 0.42633 0.0
H687 H 0.13743 0.74605 0.59052 0.0
H688 H 0.05859 0.76791 0.57839 0.0
H689 H 0.09487 0.7424 0.57726 0.0
H690 H 0.1172 0.77751 0.43674 0.0
H691 H 0.08026 0.80162 0.43599 0.0
C692 C 0.16643 0.72636 0.46297 0.0
C693 C 0.1795 0.72365 0.50904 0.0
C694 C 0.14302 0.73624 0.46262 0.0
C695 C 0.13233 0.74403 0.50825 0.0
C696 C 0.14496 0.7401 0.55466 0.0
C697 C 0.16825 0.72984 0.55508 0.0
C698 C 0.07102 0.76983 0.54673 0.0
C699 C 0.06655 0.78696 0.50744 0.0
C700 C 0.09198 0.75539 0.54641 0.0
C701 C 0.10905 0.75788 0.50699 0.0
C702 C 0.10434 0.77475 0.46734 0.0
C703 C 0.08331 0.78897 0.46739 0.0
H704 H 0.77646 0.71735 0.08184 0.0
H705 H 0.80043 0.72449 0.92556 0.0
H706 H 0.78884 0.67484 0.08284 0.0
H707 H 0.81329 0.68197 0.92703 0.0
H708 H 0.80432 0.59861 0.92995 0.0
H709 H 0.79452 0.64187 0.92891 0.0
H710 H 0.82421 0.64852 0.08164 0.0
H711 H 0.83312 0.60504 0.08346 0.0
C712 C 0.78457 0.70993 0.04779 0.0
C713 C 0.78729 0.72434 0.00349 0.0
C714 C 0.79182 0.68556 0.04851 0.0
C715 C 0.80199 0.67496 0.00498 0.0
C716 C 0.80518 0.68948 0.96098 0.0
C717 C 0.79793 0.7139 0.96024 0.0
C718 C 0.80858 0.60926 0.96347 0.0
C719 C 0.81938 0.59831 0.0069 0.0
C720 C 0.80326 0.63414 0.96262 0.0
C721 C 0.80859 0.64869 0.00518 0.0
C722 C 0.81964 0.6378 0.0484 0.0
C723 C 0.82498 0.61291 0.04925 0.0
H724 H 0.80162 0.29828 0.59426 0.0
H725 H 0.79332 0.26066 0.45081 0.0
H726 H 0.84495 0.28821 0.59573 0.0
H727 H 0.83658 0.25083 0.45224 0.0
H728 H 0.9106 0.2179 0.49807 0.0
H729 H 0.86688 0.22593 0.50084 0.0
H730 H 0.88137 0.3 0.54566 0.0
H731 H 0.92494 0.29221 0.54207 0.0
C732 C 0.80899 0.28779 0.56319 0.0
C733 C 0.79399 0.28031 0.5224 0.0
C734 C 0.83382 0.28213 0.56391 0.0
C735 C 0.84416 0.26874 0.52407 0.0
C736 C 0.8291 0.26094 0.48376 0.0
C737 C 0.80433 0.26672 0.48283 0.0
C738 C 0.90447 0.23595 0.50816 0.0
C739 C 0.92133 0.25438 0.51995 0.0
C740 C 0.87943 0.24051 0.50987 0.0
C741 C 0.8707 0.26357 0.52365 0.0
C742 C 0.88752 0.28193 0.53577 0.0
C743 C 0.91252 0.27743 0.53377 0.0
H744 H 0.694 0.2307 0.5855 0.0
H745 H 0.7112 0.22692 0.42528 0.0
H746 H 0.68641 0.18704 0.5875 0.0
H747 H 0.70516 0.18301 0.42761 0.0
H748 H 0.68601 0.10435 0.43676 0.0
H749 H 0.68081 0.14836 0.43482 0.0
H750 H 0.70984 0.15221 0.5888 0.0
H751 H 0.71307 0.10833 0.59207 0.0
C752 C 0.69607 0.22046 0.55064 0.0
C753 C 0.7034 0.2321 0.50538 0.0
C754 C 0.69191 0.19538 0.55179 0.0
C755 C 0.69562 0.18123 0.508 0.0
C756 C 0.70184 0.19319 0.46204 0.0
C757 C 0.70545 0.2184 0.46066 0.0
C758 C 0.6906 0.11454 0.47072 0.0
C759 C 0.70028 0.10274 0.51436 0.0
C760 C 0.68798 0.13989 0.46934 0.0
C761 C 0.6952 0.15408 0.51135 0.0
C762 C 0.7038 0.14208 0.55575 0.0
C763 C 0.70608 0.1168 0.55738 0.0
H764 H 0.30338 0.22693 0.92992 0.0
H765 H 0.30936 0.21331 0.09256 0.0
H766 H 0.34311 0.24633 0.93089 0.0
H767 H 0.34937 0.23308 0.09338 0.0
H768 H 0.43011 0.25464 0.06045 0.0
H769 H 0.39255 0.23046 0.06032 0.0
H770 H 0.35732 0.28538 0.96632 0.0
H771 H 0.39471 0.30914 0.96559 0.0
C772 C 0.31322 0.22793 0.96592 0.0
C773 C 0.30299 0.21888 0.01134 0.0
C774 C 0.33598 0.23915 0.96643 0.0
C775 C 0.34916 0.24159 0.01233 0.0
C776 C 0.33961 0.23143 0.05742 0.0
C777 C 0.31669 0.22018 0.05695 0.0
C778 C 0.41434 0.2614 0.03952 0.0
C779 C 0.41533 0.28379 0.01306 0.0
C780 C 0.39284 0.24767 0.03981 0.0
C781 C 0.37205 0.25597 0.0131 0.0
C782 C 0.37312 0.27834 0.98672 0.0
C783 C 0.39447 0.29209 0.98674 0.0
H784 H 0.2856 0.77641 0.42153 0.0
H785 H 0.24821 0.78814 0.56377 0.0
H786 H 0.30021 0.81841 0.42289 0.0
H787 H 0.26233 0.83002 0.56447 0.0
H788 H 0.31493 0.89325 0.58218 0.0
H789 H 0.30018 0.85152 0.57759 0.0
H790 H 0.28671 0.86071 0.41559 0.0
H791 H 0.30165 0.90251 0.42019 0.0
C792 C 0.28027 0.78799 0.45273 0.0
C793 C 0.26579 0.77886 0.49259 0.0
C794 C 0.28859 0.81208 0.45345 0.0
C795 C 0.2826 0.82751 0.49402 0.0
C796 C 0.26768 0.81849 0.53318 0.0
C797 C 0.25943 0.79449 0.53254 0.0
C798 C 0.30866 0.88643 0.54566 0.0
C799 C 0.30936 0.90122 0.50161 0.0
C800 C 0.30018 0.86251 0.543 0.0
C801 C 0.29212 0.85281 0.49626 0.0
C802 C 0.29304 0.86753 0.45207 0.0
C803 C 0.30158 0.89147 0.45471 0.0
H804 H 0.69614 0.74729 0.94331 0.0
H805 H 0.68601 0.7898 0.07955 0.0
H806 H 0.65315 0.73631 0.94363 0.0
H807 H 0.64295 0.77948 0.07894 0.0
H808 H 0.56988 0.74455 0.0889 0.0
H809 H 0.61407 0.74749 0.09126 0.0
H810 H 0.61476 0.75541 0.92679 0.0
H811 H 0.57068 0.751 0.92419 0.0
C812 C 0.68475 0.75429 0.97333 0.0
C813 C 0.69449 0.76947 0.01134 0.0
C814 C 0.66008 0.74807 0.97339 0.0
C815 C 0.64456 0.75704 0.01123 0.0
C816 C 0.65443 0.77189 0.0497 0.0
C817 C 0.67912 0.77797 0.04986 0.0
C818 C 0.57948 0.74625 0.0531 0.0
C819 C 0.56668 0.74771 0.00635 0.0
C820 C 0.60482 0.74831 0.05453 0.0
C821 C 0.61797 0.75204 0.00931 0.0
C822 C 0.60527 0.75241 0.96237 0.0
C823 C 0.57993 0.75019 0.96091 0.0
loop_
_geom_bond_atom_site_label_1
_geom_bond_atom_site_label_2
_geom_bond_distance
_geom_bond_site_symmetry_2
_ccdc_geom_bond_type
Fe0 O2 1.918 . S
Fe0 O5 1.997 . S
Fe0 O6 2.002 . S
Fe0 O11 1.976 . S
Fe0 O14 1.996 . S
Fe1 O2 1.918 1_556 S
Fe1 O9 1.997 . S
Fe1 O12 1.996 . S
Fe1 O16 1.976 . S
Fe1 O19 2.002 . S
O2 Fe0 1.918 . S
O2 Fe1 1.918 1_554 S
O2 Fe3 1.918 . S
Fe3 O2 1.918 . S
Fe3 O4 2.002 . S
Fe3 O13 1.976 . S
Fe3 O17 1.996 1_554 S
Fe3 O20 1.997 1_554 S
O4 Fe3 2.002 . S
O4 C21 1.295 . S
O5 Fe0 1.997 . S
O5 C21 1.235 . S
O6 Fe0 2.002 . S
O6 C7 1.295 . S
C7 O6 1.295 . S
C7 O9 1.235 1_554 S
C8 O13 1.287 . S
C8 O14 1.255 . S
O9 Fe1 1.997 . S
O9 C7 1.235 1_556 S
C10 O16 1.287 . S
C10 O17 1.255 . S
O11 Fe0 1.976 . S
O11 C18 1.287 . S
O12 Fe1 1.996 . S
O12 C18 1.255 1_556 S
O13 Fe3 1.976 . S
O13 C8 1.287 . S
O14 Fe0 1.996 . S
O14 C8 1.255 . S
C15 O19 1.295 . S
C15 O20 1.235 . S
O16 Fe1 1.976 . S
O16 C10 1.287 . S
O17 Fe3 1.996 1_556 S
O17 C10 1.255 . S
C18 O11 1.287 . S
C18 O12 1.255 1_554 S
O19 Fe1 2.002 . S
O19 C15 1.295 . S
O20 Fe3 1.997 1_556 S
O20 C15 1.235 . S
C21 O4 1.295 . S
C21 O5 1.235 . S
Fe22 O24 1.918 . S
Fe22 O27 1.997 . S
Fe22 O28 2.002 . S
Fe22 O33 1.976 . S
Fe22 O36 1.996 . S
Fe23 O24 1.918 . S
Fe23 O31 1.997 . S
Fe23 O34 1.996 . S
Fe23 O38 1.976 . S
Fe23 O41 2.002 . S
O24 Fe22 1.918 . S
O24 Fe23 1.918 . S
O24 Fe25 1.918 . S
Fe25 O24 1.918 . S
Fe25 O26 2.002 . S
Fe25 O35 1.976 . S
Fe25 O39 1.996 . S
Fe25 O42 1.997 . S
O26 Fe25 2.002 . S
O26 C43 1.295 . S
O27 Fe22 1.997 . S
O27 C43 1.235 . S
O28 Fe22 2.002 . S
O28 C29 1.295 . S
C29 O28 1.295 . S
C29 O31 1.235 . S
C30 O35 1.287 . S
C30 O36 1.255 . S
O31 Fe23 1.997 . S
O31 C29 1.235 . S
C32 O38 1.287 . S
C32 O39 1.255 . S
O33 Fe22 1.976 . S
O33 C40 1.287 . S
O34 Fe23 1.996 . S
O34 C40 1.255 . S
O35 Fe25 1.976 . S
O35 C30 1.287 . S
O36 Fe22 1.996 . S
O36 C30 1.255 . S
C37 O41 1.295 . S
C37 O42 1.235 . S
O38 Fe23 1.976 . S
O38 C32 1.287 . S
O39 Fe25 1.996 . S
O39 C32 1.255 . S
C40 O33 1.287 . S
C40 O34 1.255 . S
O41 Fe23 2.002 . S
O41 C37 1.295 . S
O42 Fe25 1.997 . S
O42 C37 1.235 . S
C43 O26 1.295 . S
C43 O27 1.235 . S
Fe44 O46 1.918 1_556 S
Fe44 O49 1.997 . S
Fe44 O50 2.002 . S
Fe44 O55 1.976 . S
Fe44 O58 1.996 . S
Fe45 O46 1.918 . S
Fe45 O53 1.997 . S
Fe45 O56 1.996 . S
Fe45 O60 1.976 . S
Fe45 O63 2.002 . S
O46 Fe44 1.918 1_554 S
O46 Fe45 1.918 . S
O46 Fe47 1.918 . S
Fe47 O46 1.918 . S
Fe47 O48 2.002 1_554 S
Fe47 O57 1.976 1_554 S
Fe47 O61 1.996 . S
Fe47 O64 1.997 . S
O48 Fe47 2.002 1_556 S
O48 C65 1.295 . S
O49 Fe44 1.997 . S
O49 C65 1.235 . S
O50 Fe44 2.002 . S
O50 C51 1.295 1_556 S
C51 O50 1.295 1_554 S
C51 O53 1.235 . S
C52 O57 1.287 . S
C52 O58 1.255 . S
O53 Fe45 1.997 . S
O53 C51 1.235 . S
C54 O60 1.287 . S
C54 O61 1.255 . S
O55 Fe44 1.976 . S
O55 C62 1.287 1_556 S
O56 Fe45 1.996 . S
O56 C62 1.255 . S
O57 Fe47 1.976 1_556 S
O57 C52 1.287 . S
O58 Fe44 1.996 . S
O58 C52 1.255 . S
C59 O63 1.295 . S
C59 O64 1.235 . S
O60 Fe45 1.976 . S
O60 C54 1.287 . S
O61 Fe47 1.996 . S
O61 C54 1.255 . S
C62 O55 1.287 1_554 S
C62 O56 1.255 . S
O63 Fe45 2.002 . S
O63 C59 1.295 . S
O64 Fe47 1.997 . S
O64 C59 1.235 . S
C65 O48 1.295 . S
C65 O49 1.235 . S
Fe66 O68 1.918 . S
Fe66 O71 1.997 . S
Fe66 O72 2.002 . S
Fe66 O77 1.976 . S
Fe66 O80 1.996 . S
Fe67 O68 1.918 . S
Fe67 O75 1.997 . S
Fe67 O78 1.996 . S
Fe67 O82 1.976 . S
Fe67 O85 2.002 . S
O68 Fe66 1.918 . S
O68 Fe67 1.918 . S
O68 Fe69 1.918 . S
Fe69 O68 1.918 . S
Fe69 O70 2.002 . S
Fe69 O79 1.976 . S
Fe69 O83 1.996 . S
Fe69 O86 1.997 . S
O70 Fe69 2.002 . S
O70 C87 1.295 . S
O71 Fe66 1.997 . S
O71 C87 1.235 . S
O72 Fe66 2.002 . S
O72 C73 1.295 . S
C73 O72 1.295 . S
C73 O75 1.235 . S
C74 O79 1.287 . S
C74 O80 1.255 . S
O75 Fe67 1.997 . S
O75 C73 1.235 . S
C76 O82 1.287 . S
C76 O83 1.255 . S
O77 Fe66 1.976 . S
O77 C84 1.287 . S
O78 Fe67 1.996 . S
O78 C84 1.255 . S
O79 Fe69 1.976 . S
O79 C74 1.287 . S
O80 Fe66 1.996 . S
O80 C74 1.255 . S
C81 O85 1.295 . S
C81 O86 1.235 . S
O82 Fe67 1.976 . S
O82 C76 1.287 . S
O83 Fe69 1.996 . S
O83 C76 1.255 . S
C84 O77 1.287 . S
C84 O78 1.255 . S
O85 Fe67 2.002 . S
O85 C81 1.295 . S
O86 Fe69 1.997 . S
O86 C81 1.235 . S
C87 O70 1.295 . S
C87 O71 1.235 . S
P88 O99 1.490 . S
P88 C102 1.812 . S
P88 C108 1.803 . S
P88 C114 1.819 1_554 S
H89 C103 0.941 . S
H90 C104 0.939 . S
H91 C106 0.940 . S
H92 C107 0.940 . S
H93 C109 0.939 . S
H94 C110 0.942 . S
H95 C112 0.940 . S
H96 C113 0.939 . S
H97 C115 0.941 . S
H98 C119 0.939 . S
O99 P88 1.490 . S
H100 C116 0.939 . S
H101 C118 0.940 . S
C102 P88 1.812 . S
C102 C103 1.389 . S
C102 C107 1.391 . S
C103 H89 0.941 . S
C103 C102 1.389 . S
C103 C104 1.397 . S
C104 H90 0.939 . S
C104 C103 1.397 . S
C104 C105 1.378 . S
C105 C104 1.378 . S
C105 C106 1.378 . S
C106 H91 0.940 . S
C106 C105 1.378 . S
C106 C107 1.396 . S
C107 H92 0.940 . S
C107 C102 1.391 . S
C107 C106 1.396 . S
C108 P88 1.803 . S
C108 C109 1.378 1_554 S
C108 C113 1.400 . S
C109 H93 0.939 . S
C109 C108 1.378 1_556 S
C109 C110 1.361 . S
C110 H94 0.942 . S
C110 C109 1.361 . S
C110 C111 1.369 1_556 S
C111 C110 1.369 1_554 S
C111 C112 1.404 . S
C112 H95 0.940 . S
C112 C111 1.404 . S
C112 C113 1.389 . S
C113 H96 0.939 . S
C113 C108 1.400 . S
C113 C112 1.389 . S
C114 P88 1.819 1_556 S
C114 C115 1.391 . S
C114 C119 1.391 . S
C115 H97 0.941 . S
C115 C114 1.391 . S
C115 C116 1.396 . S
C116 H100 0.939 . S
C116 C115 1.396 . S
C116 C117 1.397 . S
C117 C116 1.397 . S
C117 C118 1.385 . S
C118 H101 0.940 . S
C118 C117 1.385 . S
C118 C119 1.388 . S
C119 H98 0.939 . S
C119 C114 1.391 . S
C119 C118 1.388 . S
P120 O131 1.490 . S
P120 C134 1.812 . S
P120 C140 1.803 1_655 S
P120 C146 1.819 . S
H121 C135 0.941 . S
H122 C136 0.939 . S
H123 C138 0.940 . S
H124 C139 0.940 . S
H125 C141 0.939 . S
H126 C142 0.942 . S
H127 C144 0.940 . S
H128 C145 0.948 . S
H129 C147 0.941 . S
H130 C151 0.939 . S
O131 P120 1.490 . S
H132 C148 0.939 . S
H133 C150 0.940 . S
C134 P120 1.812 . S
C134 C135 1.389 . S
C134 C139 1.391 . S
C135 H121 0.941 . S
C135 C134 1.389 . S
C135 C136 1.397 . S
C136 H122 0.939 . S
C136 C135 1.397 . S
C136 C137 1.378 . S
C137 C136 1.378 . S
C137 C138 1.378 . S
C138 H123 0.940 . S
C138 C137 1.378 . S
C138 C139 1.396 . S
C139 H124 0.940 . S
C139 C134 1.391 . S
C139 C138 1.396 . S
C140 P120 1.803 1_455 S
C140 C141 1.378 . S
C140 C145 1.400 . S
C141 H125 0.939 . S
C141 C140 1.378 . S
C141 C142 1.361 . S
C142 H126 0.942 . S
C142 C141 1.361 . S
C142 C143 1.369 . S
C143 C142 1.369 . S
C143 C144 1.404 . S
C144 H127 0.940 . S
C144 C143 1.404 . S
C144 C145 1.389 . S
C145 H128 0.948 . S
C145 C140 1.400 . S
C145 C144 1.389 . S
C146 P120 1.819 . S
C146 C147 1.391 . S
C146 C151 1.391 . S
C147 H129 0.941 . S
C147 C146 1.391 . S
C147 C148 1.396 . S
C148 H132 0.939 . S
C148 C147 1.396 . S
C148 C149 1.397 . S
C149 C148 1.397 . S
C149 C150 1.385 . S
C150 H133 0.940 . S
C150 C149 1.385 . S
C150 C151 1.388 . S
C151 H130 0.939 . S
C151 C146 1.391 . S
C151 C150 1.388 . S
P152 O163 1.490 . S
P152 C166 1.812 1_554 S
P152 C172 1.803 . S
P152 C178 1.819 . S
H153 C167 0.941 . S
H154 C168 0.939 . S
H155 C170 0.940 . S
H156 C171 0.940 . S
H157 C173 0.939 . S
H158 C174 0.942 . S
H159 C176 0.940 . S
H160 C177 0.939 . S
H161 C179 0.941 . S
H162 C183 0.939 . S
O163 P152 1.490 . S
H164 C180 0.939 . S
H165 C182 0.940 . S
C166 P152 1.812 1_556 S
C166 C167 1.389 . S
C166 C171 1.391 . S
C167 H153 0.941 . S
C167 C166 1.389 . S
C167 C168 1.397 . S
C168 H154 0.939 . S
C168 C167 1.397 . S
C168 C169 1.378 . S
C169 C168 1.378 . S
C169 C170 1.378 . S
C170 H155 0.940 . S
C170 C169 1.378 . S
C170 C171 1.396 . S
C171 H156 0.940 . S
C171 C166 1.391 . S
C171 C170 1.396 . S
C172 P152 1.803 . S
C172 C173 1.378 . S
C172 C177 1.400 1_554 S
C173 H157 0.939 . S
C173 C172 1.378 . S
C173 C174 1.361 . S
C174 H158 0.942 . S
C174 C173 1.361 . S
C174 C175 1.369 . S
C175 C174 1.369 . S
C175 C176 1.404 1_554 S
C176 H159 0.940 . S
C176 C175 1.404 1_556 S
C176 C177 1.389 . S
C177 H160 0.939 . S
C177 C172 1.400 1_556 S
C177 C176 1.389 . S
C178 P152 1.819 . S
C178 C179 1.391 . S
C178 C183 1.391 . S
C179 H161 0.941 . S
C179 C178 1.391 . S
C179 C180 1.396 . S
C180 H164 0.939 . S
C180 C179 1.396 . S
C180 C181 1.397 . S
C181 C180 1.397 . S
C181 C182 1.385 . S
C182 H165 0.940 . S
C182 C181 1.385 . S
C182 C183 1.388 . S
C183 H162 0.939 . S
C183 C178 1.391 . S
C183 C182 1.388 . S
P184 O195 1.490 . S
P184 C198 1.812 . S
P184 C204 1.803 1_455 S
P184 C210 1.819 . S
H185 C199 0.941 . S
H186 C200 0.939 . S
H187 C202 0.940 . S
H188 C203 0.940 . S
H189 C205 0.939 . S
H190 C206 0.942 . S
H191 C208 0.940 . S
H192 C209 0.939 . S
H193 C211 0.941 . S
H194 C215 0.939 . S
O195 P184 1.490 . S
H196 C212 0.939 . S
H197 C214 0.940 . S
C198 P184 1.812 . S
C198 C199 1.389 . S
C198 C203 1.391 . S
C199 H185 0.941 . S
C199 C198 1.389 . S
C199 C200 1.397 . S
C200 H186 0.939 . S
C200 C199 1.397 . S
C200 C201 1.378 . S
C201 C200 1.378 . S
C201 C202 1.378 . S
C202 H187 0.940 . S
C202 C201 1.378 . S
C202 C203 1.396 . S
C203 H188 0.940 . S
C203 C198 1.391 . S
C203 C202 1.396 . S
C204 P184 1.803 1_655 S
C204 C205 1.378 . S
C204 C209 1.400 . S
C205 H189 0.939 . S
C205 C204 1.378 . S
C205 C206 1.361 . S
C206 H190 0.942 . S
C206 C205 1.361 . S
C206 C207 1.369 . S
C207 C206 1.369 . S
C207 C208 1.404 . S
C208 H191 0.940 . S
C208 C207 1.404 . S
C208 C209 1.389 . S
C209 H192 0.939 . S
C209 C204 1.400 . S
C209 C208 1.389 . S
C210 P184 1.819 . S
C210 C211 1.391 . S
C210 C215 1.391 . S
C211 H193 0.941 . S
C211 C210 1.391 . S
C211 C212 1.396 . S
C212 H196 0.939 . S
C212 C211 1.396 . S
C212 C213 1.397 . S
C213 C212 1.397 . S
C213 C214 1.385 . S
C214 H197 0.940 . S
C214 C213 1.385 . S
C214 C215 1.388 . S
C215 H194 0.939 . S
C215 C210 1.391 . S
C215 C214 1.388 . S
P216 O227 1.490 1_565 S
P216 C230 1.812 . S
P216 C236 1.803 1_565 S
P216 C242 1.819 . S
H217 C231 0.941 . S
H218 C232 0.939 . S
H219 C234 0.940 . S
H220 C235 0.940 . S
H221 C237 0.939 . S
H222 C238 0.942 . S
H223 C240 0.940 . S
H224 C241 0.939 . S
H225 C243 0.941 . S
H226 C247 0.939 1_545 S
O227 P216 1.490 1_545 S
H228 C244 0.939 . S
H229 C246 0.940 . S
C230 P216 1.812 . S
C230 C231 1.389 . S
C230 C235 1.391 . S
C231 H217 0.941 . S
C231 C230 1.389 . S
C231 C232 1.397 . S
C232 H218 0.939 . S
C232 C231 1.397 . S
C232 C233 1.378 . S
C233 C232 1.378 . S
C233 C234 1.378 . S
C234 H219 0.940 . S
C234 C233 1.378 . S
C234 C235 1.396 . S
C235 H220 0.940 . S
C235 C230 1.391 . S
C235 C234 1.396 . S
C236 P216 1.803 1_545 S
C236 C237 1.378 . S
C236 C241 1.400 . S
C237 H221 0.939 . S
C237 C236 1.378 . S
C237 C238 1.361 . S
C238 H222 0.942 . S
C238 C237 1.361 . S
C238 C239 1.369 . S
C239 C238 1.369 . S
C239 C240 1.404 . S
C240 H223 0.940 . S
C240 C239 1.404 . S
C240 C241 1.389 . S
C241 H224 0.939 . S
C241 C236 1.400 . S
C241 C240 1.389 . S
C242 P216 1.819 . S
C242 C243 1.391 . S
C242 C247 1.391 . S
C243 H225 0.941 . S
C243 C242 1.391 . S
C243 C244 1.396 . S
C244 H228 0.939 . S
C244 C243 1.396 . S
C244 C245 1.397 . S
C245 C244 1.397 . S
C245 C246 1.385 . S
C246 H229 0.940 . S
C246 C245 1.385 . S
C246 C247 1.388 . S
C247 H226 0.939 1_565 S
C247 C242 1.391 . S
C247 C246 1.388 . S
P248 O259 1.490 . S
P248 C262 1.812 . S
P248 C268 1.803 . S
P248 C274 1.819 1_556 S
H249 C263 0.941 . S
H250 C264 0.939 . S
H251 C266 0.940 . S
H252 C267 0.940 . S
H253 C269 0.939 . S
H254 C270 0.942 . S
H255 C272 0.940 . S
H256 C273 0.939 . S
H257 C275 0.941 . S
H258 C279 0.939 . S
O259 P248 1.490 . S
H260 C276 0.939 . S
H261 C278 0.940 . S
C262 P248 1.812 . S
C262 C263 1.389 . S
C262 C267 1.391 . S
C263 H249 0.941 . S
C263 C262 1.389 . S
C263 C264 1.397 . S
C264 H250 0.939 . S
C264 C263 1.397 . S
C264 C265 1.378 . S
C265 C264 1.378 . S
C265 C266 1.378 . S
C266 H251 0.940 . S
C266 C265 1.378 . S
C266 C267 1.396 . S
C267 H252 0.940 . S
C267 C262 1.391 . S
C267 C266 1.396 . S
C268 P248 1.803 . S
C268 C269 1.378 1_556 S
C268 C273 1.400 . S
C269 H253 0.939 . S
C269 C268 1.378 1_554 S
C269 C270 1.361 . S
C270 H254 0.942 . S
C270 C269 1.361 . S
C270 C271 1.369 . S
C271 C270 1.369 . S
C271 C272 1.404 1_554 S
C272 H255 0.940 . S
C272 C271 1.404 1_556 S
C272 C273 1.389 . S
C273 H256 0.939 . S
C273 C268 1.400 . S
C273 C272 1.389 . S
C274 P248 1.819 1_554 S
C274 C275 1.391 . S
C274 C279 1.391 . S
C275 H257 0.941 . S
C275 C274 1.391 . S
C275 C276 1.396 . S
C276 H260 0.939 . S
C276 C275 1.396 . S
C276 C277 1.397 . S
C277 C276 1.397 . S
C277 C278 1.385 . S
C278 H261 0.940 . S
C278 C277 1.385 . S
C278 C279 1.388 . S
C279 H258 0.939 . S
C279 C274 1.391 . S
C279 C278 1.388 . S
P280 O291 1.490 . S
P280 C294 1.812 . S
P280 C300 1.803 1_545 S
P280 C306 1.819 . S
H281 C295 0.941 . S
H282 C296 0.939 . S
H283 C298 0.940 . S
H284 C299 0.940 . S
H285 C301 0.939 . S
H286 C302 0.942 . S
H287 C304 0.940 . S
H288 C305 0.939 . S
H289 C307 0.941 . S
H290 C311 0.971 . S
O291 P280 1.490 . S
H292 C308 0.939 . S
H293 C310 0.940 . S
C294 P280 1.812 . S
C294 C295 1.389 . S
C294 C299 1.391 . S
C295 H281 0.941 . S
C295 C294 1.389 . S
C295 C296 1.397 . S
C296 H282 0.939 . S
C296 C295 1.397 . S
C296 C297 1.378 . S
C297 C296 1.378 . S
C297 C298 1.378 . S
C298 H283 0.940 . S
C298 C297 1.378 . S
C298 C299 1.396 . S
C299 H284 0.940 . S
C299 C294 1.391 . S
C299 C298 1.396 . S
C300 P280 1.803 1_565 S
C300 C301 1.378 . S
C300 C305 1.400 . S
C301 H285 0.939 . S
C301 C300 1.378 . S
C301 C302 1.361 . S
C302 H286 0.942 . S
C302 C301 1.361 . S
C302 C303 1.369 . S
C303 C302 1.369 . S
C303 C304 1.404 . S
C304 H287 0.940 . S
C304 C303 1.404 . S
C304 C305 1.389 . S
C305 H288 0.939 . S
C305 C300 1.400 . S
C305 C304 1.389 . S
C306 P280 1.819 . S
C306 C307 1.391 . S
C306 C311 1.391 . S
C307 H289 0.941 . S
C307 C306 1.391 . S
C307 C308 1.396 . S
C308 H292 0.939 . S
C308 C307 1.396 . S
C308 C309 1.397 . S
C309 C308 1.397 . S
C309 C310 1.385 . S
C310 H293 0.940 . S
C310 C309 1.385 . S
C310 C311 1.388 . S
C311 H290 0.971 . S
C311 C306 1.391 . S
C311 C310 1.388 . S
P312 O323 1.490 . S
P312 C326 1.812 . S
P312 C332 1.803 . S
P312 C338 1.819 1_554 S
H313 C327 0.941 . S
H314 C328 0.939 . S
H315 C330 0.940 . S
H316 C331 0.940 . S
H317 C333 0.939 . S
H318 C334 0.942 . S
H319 C336 0.940 . S
H320 C337 0.939 . S
H321 C339 0.941 . S
H322 C343 0.939 . S
O323 P312 1.490 . S
H324 C340 0.939 . S
H325 C342 0.940 . S
C326 P312 1.812 . S
C326 C327 1.389 . S
C326 C331 1.391 . S
C327 H313 0.941 . S
C327 C326 1.389 . S
C327 C328 1.397 . S
C328 H314 0.939 . S
C328 C327 1.397 . S
C328 C329 1.378 . S
C329 C328 1.378 . S
C329 C330 1.378 . S
C330 H315 0.940 . S
C330 C329 1.378 . S
C330 C331 1.396 . S
C331 H316 0.940 . S
C331 C326 1.391 . S
C331 C330 1.396 . S
C332 P312 1.803 . S
C332 C333 1.378 1_554 S
C332 C337 1.400 . S
C333 H317 0.939 . S
C333 C332 1.378 1_556 S
C333 C334 1.361 . S
C334 H318 0.942 . S
C334 C333 1.361 . S
C334 C335 1.369 1_556 S
C335 C334 1.369 1_554 S
C335 C336 1.404 . S
C336 H319 0.940 . S
C336 C335 1.404 . S
C336 C337 1.389 . S
C337 H320 0.939 . S
C337 C332 1.400 . S
C337 C336 1.389 . S
C338 P312 1.819 1_556 S
C338 C339 1.391 . S
C338 C343 1.391 . S
C339 H321 0.941 . S
C339 C338 1.391 . S
C339 C340 1.396 . S
C340 H324 0.939 . S
C340 C339 1.396 . S
C340 C341 1.397 . S
C341 C340 1.397 . S
C341 C342 1.385 . S
C342 H325 0.940 . S
C342 C341 1.385 . S
C342 C343 1.388 . S
C343 H322 0.939 . S
C343 C338 1.391 . S
C343 C342 1.388 . S
H344 C352 0.950 . S
H345 C357 0.950 . S
H346 C354 0.950 . S
H347 C356 0.950 . S
H348 C358 0.950 . S
H349 C360 0.950 . S
H350 C362 0.950 . S
H351 C363 0.950 . S
C352 H344 0.950 . S
C352 C353 1.386 . S
C352 C354 1.391 . S
C353 C352 1.386 . S
C353 C357 1.393 . S
C354 H346 0.950 . S
C354 C352 1.391 . S
C354 C355 1.400 . S
C355 C354 1.400 . S
C355 C356 1.398 . S
C355 C361 1.491 . S
C356 H347 0.950 . S
C356 C355 1.398 . S
C356 C357 1.391 . S
C357 H345 0.950 . S
C357 C353 1.393 . S
C357 C356 1.391 . S
C358 H348 0.950 . S
C358 C359 1.386 . S
C358 C360 1.391 . S
C359 C358 1.386 . S
C359 C363 1.393 . S
C360 H349 0.950 . S
C360 C358 1.391 . S
C360 C361 1.400 . S
C361 C355 1.491 . S
C361 C360 1.400 . S
C361 C362 1.398 . S
C362 H350 0.950 . S
C362 C361 1.398 . S
C362 C363 1.391 . S
C363 H351 0.950 . S
C363 C359 1.393 . S
C363 C362 1.391 . S
H364 C372 0.950 . S
H365 C377 0.950 . S
H366 C374 0.950 . S
H367 C376 0.950 . S
H368 C378 0.950 . S
H369 C380 0.950 . S
H370 C382 0.950 . S
H371 C383 0.950 . S
C372 H364 0.950 . S
C372 C373 1.386 . S
C372 C374 1.391 . S
C373 C372 1.386 . S
C373 C377 1.393 . S
C374 H366 0.950 . S
C374 C372 1.391 . S
C374 C375 1.400 . S
C375 C374 1.400 . S
C375 C376 1.398 . S
C375 C381 1.491 . S
C376 H367 0.950 . S
C376 C375 1.398 . S
C376 C377 1.391 . S
C377 H365 0.950 . S
C377 C373 1.393 . S
C377 C376 1.391 . S
C378 H368 0.950 . S
C378 C379 1.386 . S
C378 C380 1.391 . S
C379 C378 1.386 . S
C379 C383 1.393 . S
C380 H369 0.950 . S
C380 C378 1.391 . S
C380 C381 1.400 . S
C381 C375 1.491 . S
C381 C380 1.400 . S
C381 C382 1.398 . S
C382 H370 0.950 . S
C382 C381 1.398 . S
C382 C383 1.391 . S
C383 H371 0.950 . S
C383 C379 1.393 . S
C383 C382 1.391 . S
H384 C392 0.950 . S
H385 C397 0.950 . S
H386 C394 0.950 . S
H387 C396 0.950 . S
H388 C398 0.950 . S
H389 C400 0.950 . S
H390 C402 0.950 . S
H391 C403 0.950 . S
C392 H384 0.950 . S
C392 C393 1.386 . S
C392 C394 1.391 . S
C393 C392 1.386 . S
C393 C397 1.393 . S
C394 H386 0.950 . S
C394 C392 1.391 . S
C394 C395 1.400 . S
C395 C394 1.400 . S
C395 C396 1.398 . S
C395 C401 1.491 . S
C396 H387 0.950 . S
C396 C395 1.398 . S
C396 C397 1.391 . S
C397 H385 0.950 . S
C397 C393 1.393 . S
C397 C396 1.391 . S
C398 H388 0.950 . S
C398 C399 1.386 . S
C398 C400 1.391 . S
C399 C398 1.386 . S
C399 C403 1.393 . S
C400 H389 0.950 . S
C400 C398 1.391 . S
C400 C401 1.400 . S
C401 C395 1.491 . S
C401 C400 1.400 . S
C401 C402 1.398 . S
C402 H390 0.950 . S
C402 C401 1.398 . S
C402 C403 1.391 . S
C403 H391 0.950 . S
C403 C399 1.393 . S
C403 C402 1.391 . S
H404 C412 0.950 . S
H405 C417 0.950 . S
H406 C414 0.950 . S
H407 C416 0.950 . S
H408 C418 0.950 . S
H409 C420 0.950 . S
H410 C422 0.950 . S
H411 C423 0.950 . S
C412 H404 0.950 . S
C412 C413 1.386 . S
C412 C414 1.391 . S
C413 C412 1.386 . S
C413 C417 1.393 . S
C414 H406 0.950 . S
C414 C412 1.391 . S
C414 C415 1.400 . S
C415 C414 1.400 . S
C415 C416 1.398 . S
C415 C421 1.491 . S
C416 H407 0.950 . S
C416 C415 1.398 . S
C416 C417 1.391 . S
C417 H405 0.950 . S
C417 C413 1.393 . S
C417 C416 1.391 . S
C418 H408 0.950 . S
C418 C419 1.386 . S
C418 C420 1.391 . S
C419 C418 1.386 . S
C419 C423 1.393 . S
C420 H409 0.950 . S
C420 C418 1.391 . S
C420 C421 1.400 . S
C421 C415 1.491 . S
C421 C420 1.400 . S
C421 C422 1.398 . S
C422 H410 0.950 . S
C422 C421 1.398 . S
C422 C423 1.391 . S
C423 H411 0.950 . S
C423 C419 1.393 . S
C423 C422 1.391 . S
H424 C432 0.950 . S
H425 C437 0.950 . S
H426 C434 0.950 . S
H427 C436 0.950 . S
H428 C438 0.950 . S
H429 C440 0.950 . S
H430 C442 0.950 . S
H431 C443 0.950 . S
C432 H424 0.950 . S
C432 C433 1.386 . S
C432 C434 1.391 . S
C433 C432 1.386 . S
C433 C437 1.393 . S
C434 H426 0.950 . S
C434 C432 1.391 . S
C434 C435 1.400 . S
C435 C434 1.400 . S
C435 C436 1.398 . S
C435 C441 1.491 . S
C436 H427 0.950 . S
C436 C435 1.398 . S
C436 C437 1.391 . S
C437 H425 0.950 . S
C437 C433 1.393 . S
C437 C436 1.391 . S
C438 H428 0.950 . S
C438 C439 1.386 . S
C438 C440 1.391 . S
C439 C438 1.386 . S
C439 C443 1.393 . S
C440 H429 0.950 . S
C440 C438 1.391 . S
C440 C441 1.400 . S
C441 C435 1.491 . S
C441 C440 1.400 . S
C441 C442 1.398 . S
C442 H430 0.950 . S
C442 C441 1.398 . S
C442 C443 1.391 . S
C443 H431 0.950 . S
C443 C439 1.393 . S
C443 C442 1.391 . S
H444 C452 0.950 . S
H445 C457 0.950 . S
H446 C454 0.950 . S
H447 C456 0.950 . S
H448 C458 0.950 . S
H449 C460 0.950 . S
H450 C462 0.950 . S
H451 C463 0.950 . S
C452 H444 0.950 . S
C452 C453 1.386 . S
C452 C454 1.391 . S
C453 C452 1.386 . S
C453 C457 1.393 . S
C454 H446 0.950 . S
C454 C452 1.391 . S
C454 C455 1.400 . S
C455 C454 1.400 . S
C455 C456 1.398 . S
C455 C461 1.491 . S
C456 H447 0.950 . S
C456 C455 1.398 . S
C456 C457 1.391 . S
C457 H445 0.950 . S
C457 C453 1.393 . S
C457 C456 1.391 . S
C458 H448 0.950 . S
C458 C459 1.386 . S
C458 C460 1.391 . S
C459 C458 1.386 . S
C459 C463 1.393 . S
C460 H449 0.950 . S
C460 C458 1.391 . S
C460 C461 1.400 . S
C461 C455 1.491 . S
C461 C460 1.400 . S
C461 C462 1.398 . S
C462 H450 0.950 . S
C462 C461 1.398 . S
C462 C463 1.391 . S
C463 H451 0.950 . S
C463 C459 1.393 . S
C463 C462 1.391 . S
H464 C472 0.950 . S
H465 C477 0.950 . S
H466 C474 0.950 . S
H467 C476 0.950 . S
H468 C478 0.950 . S
H469 C480 0.950 . S
H470 C482 0.950 . S
H471 C483 0.950 . S
C472 H464 0.950 . S
C472 C473 1.386 . S
C472 C474 1.391 . S
C473 C472 1.386 . S
C473 C477 1.393 . S
C474 H466 0.950 . S
C474 C472 1.391 . S
C474 C475 1.400 . S
C475 C474 1.400 . S
C475 C476 1.398 . S
C475 C481 1.491 . S
C476 H467 0.950 . S
C476 C475 1.398 . S
C476 C477 1.391 . S
C477 H465 0.950 . S
C477 C473 1.393 . S
C477 C476 1.391 . S
C478 H468 0.950 . S
C478 C479 1.386 . S
C478 C480 1.391 . S
C479 C478 1.386 . S
C479 C483 1.393 . S
C480 H469 0.950 . S
C480 C478 1.391 . S
C480 C481 1.400 . S
C481 C475 1.491 . S
C481 C480 1.400 . S
C481 C482 1.398 . S
C482 H470 0.950 . S
C482 C481 1.398 . S
C482 C483 1.391 . S
C483 H471 0.950 . S
C483 C479 1.393 . S
C483 C482 1.391 . S
H484 C492 0.950 . S
H485 C497 0.950 . S
H486 C494 0.950 . S
H487 C496 0.950 . S
H488 C498 0.950 . S
H489 C500 0.950 . S
H490 C502 0.950 . S
H491 C503 0.950 . S
C492 H484 0.950 . S
C492 C493 1.386 . S
C492 C494 1.391 . S
C493 C492 1.386 . S
C493 C497 1.393 . S
C494 H486 0.950 . S
C494 C492 1.391 . S
C494 C495 1.400 . S
C495 C494 1.400 . S
C495 C496 1.398 . S
C495 C501 1.491 . S
C496 H487 0.950 . S
C496 C495 1.398 . S
C496 C497 1.391 . S
C497 H485 0.950 . S
C497 C493 1.393 . S
C497 C496 1.391 . S
C498 H488 0.950 . S
C498 C499 1.386 . S
C498 C500 1.391 . S
C499 C498 1.386 . S
C499 C503 1.393 . S
C500 H489 0.950 . S
C500 C498 1.391 . S
C500 C501 1.400 . S
C501 C495 1.491 . S
C501 C500 1.400 . S
C501 C502 1.398 . S
C502 H490 0.950 . S
C502 C501 1.398 . S
C502 C503 1.391 . S
C503 H491 0.950 . S
C503 C499 1.393 . S
C503 C502 1.391 . S
H504 C512 0.950 . S
H505 C517 0.950 . S
H506 C514 0.950 . S
H507 C516 0.950 . S
H508 C518 0.950 . S
H509 C520 0.950 . S
H510 C522 0.950 . S
H511 C523 0.950 . S
C512 H504 0.950 . S
C512 C513 1.386 . S
C512 C514 1.391 . S
C513 C512 1.386 . S
C513 C517 1.393 . S
C514 H506 0.950 . S
C514 C512 1.391 . S
C514 C515 1.400 . S
C515 C514 1.400 . S
C515 C516 1.398 . S
C515 C521 1.491 . S
C516 H507 0.950 . S
C516 C515 1.398 . S
C516 C517 1.391 . S
C517 H505 0.950 . S
C517 C513 1.393 . S
C517 C516 1.391 . S
C518 H508 0.950 . S
C518 C519 1.386 . S
C518 C520 1.391 . S
C519 C518 1.386 . S
C519 C523 1.393 . S
C520 H509 0.950 . S
C520 C518 1.391 . S
C520 C521 1.400 . S
C521 C515 1.491 . S
C521 C520 1.400 . S
C521 C522 1.398 . S
C522 H510 0.950 . S
C522 C521 1.398 . S
C522 C523 1.391 . S
C523 H511 0.950 . S
C523 C519 1.393 . S
C523 C522 1.391 . S
H524 C532 0.950 . S
H525 C537 0.950 . S
H526 C534 0.950 . S
H527 C536 0.950 . S
H528 C538 0.950 . S
H529 C540 0.950 . S
H530 C542 0.950 . S
H531 C543 0.950 . S
C532 H524 0.950 . S
C532 C533 1.386 . S
C532 C534 1.391 . S
C533 C532 1.386 . S
C533 C537 1.393 . S
C534 H526 0.950 . S
C534 C532 1.391 . S
C534 C535 1.400 . S
C535 C534 1.400 . S
C535 C536 1.398 . S
C535 C541 1.491 . S
C536 H527 0.950 . S
C536 C535 1.398 . S
C536 C537 1.391 . S
C537 H525 0.950 . S
C537 C533 1.393 . S
C537 C536 1.391 . S
C538 H528 0.950 . S
C538 C539 1.386 . S
C538 C540 1.391 . S
C539 C538 1.386 . S
C539 C543 1.393 . S
C540 H529 0.950 . S
C540 C538 1.391 . S
C540 C541 1.400 . S
C541 C535 1.491 . S
C541 C540 1.400 . S
C541 C542 1.398 . S
C542 H530 0.950 . S
C542 C541 1.398 . S
C542 C543 1.391 . S
C543 H531 0.950 . S
C543 C539 1.393 . S
C543 C542 1.391 . S
H544 C552 0.950 . S
H545 C557 0.950 . S
H546 C554 0.950 . S
H547 C556 0.950 . S
H548 C558 0.950 . S
H549 C560 0.950 . S
H550 C562 0.950 . S
H551 C563 0.950 . S
C552 H544 0.950 . S
C552 C553 1.386 . S
C552 C554 1.391 . S
C553 C552 1.386 . S
C553 C557 1.393 . S
C554 H546 0.950 . S
C554 C552 1.391 . S
C554 C555 1.400 . S
C555 C554 1.400 . S
C555 C556 1.398 . S
C555 C561 1.491 . S
C556 H547 0.950 . S
C556 C555 1.398 . S
C556 C557 1.391 . S
C557 H545 0.950 . S
C557 C553 1.393 . S
C557 C556 1.391 . S
C558 H548 0.950 . S
C558 C559 1.386 . S
C558 C560 1.391 . S
C559 C558 1.386 . S
C559 C563 1.393 . S
C560 H549 0.950 . S
C560 C558 1.391 . S
C560 C561 1.400 . S
C561 C555 1.491 . S
C561 C560 1.400 . S
C561 C562 1.398 . S
C562 H550 0.950 . S
C562 C561 1.398 . S
C562 C563 1.391 . S
C563 H551 0.950 . S
C563 C559 1.393 . S
C563 C562 1.391 . S
H564 C572 0.950 . S
H565 C577 0.950 . S
H566 C574 0.950 . S
H567 C576 0.950 . S
H568 C578 0.950 . S
H569 C580 0.950 . S
H570 C582 0.950 . S
H571 C583 0.950 . S
C572 H564 0.950 . S
C572 C573 1.386 . S
C572 C574 1.391 . S
C573 C572 1.386 . S
C573 C577 1.393 . S
C574 H566 0.950 . S
C574 C572 1.391 . S
C574 C575 1.400 . S
C575 C574 1.400 . S
C575 C576 1.398 . S
C575 C581 1.491 . S
C576 H567 0.950 . S
C576 C575 1.398 . S
C576 C577 1.391 . S
C577 H565 0.950 . S
C577 C573 1.393 . S
C577 C576 1.391 . S
C578 H568 0.950 . S
C578 C579 1.386 . S
C578 C580 1.391 . S
C579 C578 1.386 . S
C579 C583 1.393 . S
C580 H569 0.950 . S
C580 C578 1.391 . S
C580 C581 1.400 . S
C581 C575 1.491 . S
C581 C580 1.400 . S
C581 C582 1.398 . S
C582 H570 0.950 . S
C582 C581 1.398 . S
C582 C583 1.391 . S
C583 H571 0.950 . S
C583 C579 1.393 . S
C583 C582 1.391 . S
H584 C592 0.950 . S
H585 C597 0.950 . S
H586 C594 0.950 . S
H587 C596 0.950 . S
H588 C598 0.950 . S
H589 C600 0.950 . S
H590 C602 0.950 . S
H591 C603 0.950 . S
C592 H584 0.950 . S
C592 C593 1.386 . S
C592 C594 1.391 . S
C593 C592 1.386 . S
C593 C597 1.393 . S
C594 H586 0.950 . S
C594 C592 1.391 . S
C594 C595 1.400 . S
C595 C594 1.400 . S
C595 C596 1.398 . S
C595 C601 1.491 . S
C596 H587 0.950 . S
C596 C595 1.398 . S
C596 C597 1.391 . S
C597 H585 0.950 . S
C597 C593 1.393 . S
C597 C596 1.391 . S
C598 H588 0.950 . S
C598 C599 1.386 . S
C598 C600 1.391 . S
C599 C598 1.386 . S
C599 C603 1.393 . S
C600 H589 0.950 . S
C600 C598 1.391 . S
C600 C601 1.400 . S
C601 C595 1.491 . S
C601 C600 1.400 . S
C601 C602 1.398 . S
C602 H590 0.950 . S
C602 C601 1.398 . S
C602 C603 1.391 . S
C603 H591 0.950 . S
C603 C599 1.393 . S
C603 C602 1.391 . S
H604 C612 0.950 . S
H605 C617 0.950 . S
H606 C614 0.950 . S
H607 C616 0.950 . S
H608 C618 0.950 . S
H609 C620 0.950 . S
H610 C622 0.950 . S
H611 C623 0.950 . S
C612 H604 0.950 . S
C612 C613 1.386 . S
C612 C614 1.391 . S
C613 C612 1.386 . S
C613 C617 1.393 . S
C614 H606 0.950 . S
C614 C612 1.391 . S
C614 C615 1.400 . S
C615 C614 1.400 . S
C615 C616 1.398 . S
C615 C621 1.491 . S
C616 H607 0.950 . S
C616 C615 1.398 . S
C616 C617 1.391 . S
C617 H605 0.950 . S
C617 C613 1.393 . S
C617 C616 1.391 . S
C618 H608 0.950 . S
C618 C619 1.386 . S
C618 C620 1.391 . S
C619 C618 1.386 . S
C619 C623 1.393 . S
C620 H609 0.950 . S
C620 C618 1.391 . S
C620 C621 1.400 . S
C621 C615 1.491 . S
C621 C620 1.400 . S
C621 C622 1.398 . S
C622 H610 0.950 . S
C622 C621 1.398 . S
C622 C623 1.391 . S
C623 H611 0.950 . S
C623 C619 1.393 . S
C623 C622 1.391 . S
H624 C632 0.950 . S
H625 C637 0.950 . S
H626 C634 0.950 . S
H627 C636 0.950 . S
H628 C638 0.950 . S
H629 C640 0.950 . S
H630 C642 0.950 . S
H631 C643 0.950 . S
C632 H624 0.950 . S
C632 C633 1.386 . S
C632 C634 1.391 . S
C633 C632 1.386 . S
C633 C637 1.393 . S
C634 H626 0.950 . S
C634 C632 1.391 . S
C634 C635 1.400 . S
C635 C634 1.400 . S
C635 C636 1.398 . S
C635 C641 1.491 . S
C636 H627 0.950 . S
C636 C635 1.398 . S
C636 C637 1.391 . S
C637 H625 0.950 . S
C637 C633 1.393 . S
C637 C636 1.391 . S
C638 H628 0.950 . S
C638 C639 1.386 . S
C638 C640 1.391 . S
C639 C638 1.386 . S
C639 C643 1.393 . S
C640 H629 0.950 . S
C640 C638 1.391 . S
C640 C641 1.400 . S
C641 C635 1.491 . S
C641 C640 1.400 . S
C641 C642 1.398 . S
C642 H630 0.950 . S
C642 C641 1.398 . S
C642 C643 1.391 . S
C643 H631 0.950 . S
C643 C639 1.393 . S
C643 C642 1.391 . S
H644 C652 0.950 . S
H645 C657 0.950 . S
H646 C654 0.950 . S
H647 C656 0.950 . S
H648 C658 0.950 . S
H649 C660 0.950 . S
H650 C662 0.950 . S
H651 C663 0.950 . S
C652 H644 0.950 . S
C652 C653 1.386 . S
C652 C654 1.391 . S
C653 C652 1.386 . S
C653 C657 1.393 . S
C654 H646 0.950 . S
C654 C652 1.391 . S
C654 C655 1.400 . S
C655 C654 1.400 . S
C655 C656 1.398 . S
C655 C661 1.491 . S
C656 H647 0.950 . S
C656 C655 1.398 . S
C656 C657 1.391 . S
C657 H645 0.950 . S
C657 C653 1.393 . S
C657 C656 1.391 . S
C658 H648 0.950 . S
C658 C659 1.386 . S
C658 C660 1.391 . S
C659 C658 1.386 . S
C659 C663 1.393 . S
C660 H649 0.950 . S
C660 C658 1.391 . S
C660 C661 1.400 . S
C661 C655 1.491 . S
C661 C660 1.400 . S
C661 C662 1.398 . S
C662 H650 0.950 . S
C662 C661 1.398 . S
C662 C663 1.391 . S
C663 H651 0.950 . S
C663 C659 1.393 . S
C663 C662 1.391 . S
H664 C672 0.950 1_556 S
H665 C677 0.950 . S
H666 C674 0.948 1_556 S
H667 C676 0.950 . S
H668 C678 0.950 . S
H669 C680 0.950 . S
H670 C682 0.950 . S
H671 C683 0.950 . S
C672 H664 0.950 1_554 S
C672 C673 1.386 . S
C672 C674 1.391 . S
C673 C672 1.386 . S
C673 C677 1.393 . S
C674 H666 0.948 1_554 S
C674 C672 1.391 . S
C674 C675 1.402 . S
C675 C674 1.402 . S
C675 C676 1.398 . S
C675 C681 1.491 . S
C676 H667 0.950 . S
C676 C675 1.398 . S
C676 C677 1.391 . S
C677 H665 0.950 . S
C677 C673 1.393 . S
C677 C676 1.391 . S
C678 H668 0.950 . S
C678 C679 1.386 . S
C678 C680 1.391 . S
C679 C678 1.386 . S
C679 C683 1.393 1_554 S
C680 H669 0.950 . S
C680 C678 1.391 . S
C680 C681 1.400 . S
C681 C675 1.491 . S
C681 C680 1.400 . S
C681 C682 1.398 1_554 S
C682 H670 0.950 . S
C682 C681 1.398 1_556 S
C682 C683 1.391 . S
C683 H671 0.950 . S
C683 C679 1.393 1_556 S
C683 C682 1.391 . S
H684 C692 0.950 . S
H685 C697 0.950 . S
H686 C694 0.950 . S
H687 C696 0.950 . S
H688 C698 0.950 . S
H689 C700 0.950 . S
H690 C702 0.950 . S
H691 C703 0.950 . S
C692 H684 0.950 . S
C692 C693 1.386 . S
C692 C694 1.391 . S
C693 C692 1.386 . S
C693 C697 1.393 . S
C694 H686 0.950 . S
C694 C692 1.391 . S
C694 C695 1.400 . S
C695 C694 1.400 . S
C695 C696 1.398 . S
C695 C701 1.491 . S
C696 H687 0.950 . S
C696 C695 1.398 . S
C696 C697 1.391 . S
C697 H685 0.950 . S
C697 C693 1.393 . S
C697 C696 1.391 . S
C698 H688 0.950 . S
C698 C699 1.386 . S
C698 C700 1.391 . S
C699 C698 1.386 . S
C699 C703 1.393 . S
C700 H689 0.950 . S
C700 C698 1.391 . S
C700 C701 1.400 . S
C701 C695 1.491 . S
C701 C700 1.400 . S
C701 C702 1.398 . S
C702 H690 0.950 . S
C702 C701 1.398 . S
C702 C703 1.391 . S
C703 H691 0.950 . S
C703 C699 1.393 . S
C703 C702 1.391 . S
H704 C712 0.950 . S
H705 C717 0.950 . S
H706 C714 0.950 . S
H707 C716 0.950 . S
H708 C718 0.950 . S
H709 C720 0.950 . S
H710 C722 0.950 . S
H711 C723 0.950 . S
C712 H704 0.950 . S
C712 C713 1.386 . S
C712 C714 1.391 . S
C713 C712 1.386 . S
C713 C717 1.393 1_554 S
C714 H706 0.950 . S
C714 C712 1.391 . S
C714 C715 1.400 . S
C715 C714 1.400 . S
C715 C716 1.398 1_554 S
C715 C721 1.491 . S
C716 H707 0.950 . S
C716 C715 1.398 1_556 S
C716 C717 1.391 . S
C717 H705 0.950 . S
C717 C713 1.393 1_556 S
C717 C716 1.391 . S
C718 H708 0.950 . S
C718 C719 1.386 1_556 S
C718 C720 1.391 . S
C719 C718 1.386 1_554 S
C719 C723 1.393 . S
C720 H709 0.950 . S
C720 C718 1.391 . S
C720 C721 1.400 1_556 S
C721 C715 1.491 . S
C721 C720 1.400 1_554 S
C721 C722 1.398 . S
C722 H710 0.950 . S
C722 C721 1.398 . S
C722 C723 1.391 . S
C723 H711 0.950 . S
C723 C719 1.393 . S
C723 C722 1.391 . S
H724 C732 0.950 . S
H725 C737 0.950 . S
H726 C734 0.950 . S
H727 C736 0.950 . S
H728 C738 0.950 . S
H729 C740 0.950 . S
H730 C742 0.950 . S
H731 C743 0.950 . S
C732 H724 0.950 . S
C732 C733 1.386 . S
C732 C734 1.391 . S
C733 C732 1.386 . S
C733 C737 1.393 . S
C734 H726 0.950 . S
C734 C732 1.391 . S
C734 C735 1.400 . S
C735 C734 1.400 . S
C735 C736 1.398 . S
C735 C741 1.491 . S
C736 H727 0.950 . S
C736 C735 1.398 . S
C736 C737 1.391 . S
C737 H725 0.950 . S
C737 C733 1.393 . S
C737 C736 1.391 . S
C738 H728 0.950 . S
C738 C739 1.386 . S
C738 C740 1.391 . S
C739 C738 1.386 . S
C739 C743 1.393 . S
C740 H729 0.950 . S
C740 C738 1.391 . S
C740 C741 1.400 . S
C741 C735 1.491 . S
C741 C740 1.400 . S
C741 C742 1.398 . S
C742 H730 0.950 . S
C742 C741 1.398 . S
C742 C743 1.391 . S
C743 H731 0.950 . S
C743 C739 1.393 . S
C743 C742 1.391 . S
H744 C752 0.950 . S
H745 C757 0.950 . S
H746 C754 0.950 . S
H747 C756 0.950 . S
H748 C758 0.950 . S
H749 C760 0.950 . S
H750 C762 0.950 . S
H751 C763 0.950 . S
C752 H744 0.950 . S
C752 C753 1.386 . S
C752 C754 1.391 . S
C753 C752 1.386 . S
C753 C757 1.393 . S
C754 H746 0.950 . S
C754 C752 1.391 . S
C754 C755 1.400 . S
C755 C754 1.400 . S
C755 C756 1.398 . S
C755 C761 1.491 . S
C756 H747 0.950 . S
C756 C755 1.398 . S
C756 C757 1.391 . S
C757 H745 0.950 . S
C757 C753 1.393 . S
C757 C756 1.391 . S
C758 H748 0.950 . S
C758 C759 1.386 . S
C758 C760 1.391 . S
C759 C758 1.386 . S
C759 C763 1.393 . S
C760 H749 0.950 . S
C760 C758 1.391 . S
C760 C761 1.400 . S
C761 C755 1.491 . S
C761 C760 1.400 . S
C761 C762 1.398 . S
C762 H750 0.950 . S
C762 C761 1.398 . S
C762 C763 1.391 . S
C763 H751 0.950 . S
C763 C759 1.393 . S
C763 C762 1.391 . S
H764 C772 0.950 . S
H765 C777 0.950 . S
H766 C774 0.950 . S
H767 C776 0.950 . S
H768 C778 0.950 . S
H769 C780 0.950 . S
H770 C782 0.950 . S
H771 C783 0.950 . S
C772 H764 0.950 . S
C772 C773 1.386 1_556 S
C772 C774 1.391 . S
C773 C772 1.386 1_554 S
C773 C777 1.393 . S
C774 H766 0.950 . S
C774 C772 1.391 . S
C774 C775 1.400 1_556 S
C775 C774 1.400 1_554 S
C775 C776 1.398 . S
C775 C781 1.491 . S
C776 H767 0.950 . S
C776 C775 1.398 . S
C776 C777 1.391 . S
C777 H765 0.950 . S
C777 C773 1.393 . S
C777 C776 1.391 . S
C778 H768 0.950 . S
C778 C779 1.386 . S
C778 C780 1.391 . S
C779 C778 1.386 . S
C779 C783 1.393 1_554 S
C780 H769 0.950 . S
C780 C778 1.391 . S
C780 C781 1.400 . S
C781 C775 1.491 . S
C781 C780 1.400 . S
C781 C782 1.398 1_554 S
C782 H770 0.950 . S
C782 C781 1.398 1_556 S
C782 C783 1.391 . S
C783 H771 0.950 . S
C783 C779 1.393 1_556 S
C783 C782 1.391 . S
H784 C792 0.950 . S
H785 C797 0.950 . S
H786 C794 0.950 . S
H787 C796 0.950 . S
H788 C798 0.950 . S
H789 C800 0.950 . S
H790 C802 0.950 . S
H791 C803 0.950 . S
C792 H784 0.950 . S
C792 C793 1.386 . S
C792 C794 1.391 . S
C793 C792 1.386 . S
C793 C797 1.393 . S
C794 H786 0.950 . S
C794 C792 1.391 . S
C794 C795 1.400 . S
C795 C794 1.400 . S
C795 C796 1.398 . S
C795 C801 1.491 . S
C796 H787 0.950 . S
C796 C795 1.398 . S
C796 C797 1.391 . S
C797 H785 0.950 . S
C797 C793 1.393 . S
C797 C796 1.391 . S
C798 H788 0.950 . S
C798 C799 1.386 . S
C798 C800 1.391 . S
C799 C798 1.386 . S
C799 C803 1.393 . S
C800 H789 0.950 . S
C800 C798 1.391 . S
C800 C801 1.400 . S
C801 C795 1.491 . S
C801 C800 1.400 . S
C801 C802 1.398 . S
C802 H790 0.950 . S
C802 C801 1.398 . S
C802 C803 1.391 . S
C803 H791 0.950 . S
C803 C799 1.393 . S
C803 C802 1.391 . S
H804 C812 0.950 . S
H805 C817 0.950 . S
H806 C814 0.950 . S
H807 C816 0.950 . S
H808 C818 0.950 . S
H809 C820 0.950 . S
H810 C822 0.950 1_556 S
H811 C823 0.951 . S
C812 H804 0.950 . S
C812 C813 1.386 . S
C812 C814 1.391 . S
C813 C812 1.386 . S
C813 C817 1.393 . S
C814 H806 0.950 . S
C814 C812 1.391 . S
C814 C815 1.400 . S
C815 C814 1.400 . S
C815 C816 1.398 . S
C815 C821 1.491 . S
C816 H807 0.950 . S
C816 C815 1.398 . S
C816 C817 1.391 . S
C817 H805 0.950 . S
C817 C813 1.393 . S
C817 C816 1.391 . S
C818 H808 0.950 . S
C818 C819 1.386 . S
C818 C820 1.391 . S
C819 C818 1.386 . S
C819 C823 1.393 . S
C820 H809 0.950 . S
C820 C818 1.391 . S
C820 C821 1.400 . S
C821 C815 1.491 . S
C821 C820 1.400 . S
C821 C822 1.398 . S
C822 H810 0.950 1_554 S
C822 C821 1.398 . S
C822 C823 1.391 . S
C823 H811 0.951 . S
C823 C819 1.393 . S
C823 C822 1.391 . S
C353 C21 1.554 . S
C359 C201 1.491 . S
C373 C40 1.655 . S
C379 C117 1.522 . S
C399 C149 1.542 . S
C393 C54 1.538 . S
C413 C73 1.676 . S
C419 C169 1.685 . S
C439 C277 1.542 . S
C433 C74 1.544 . S
C459 C297 1.643 . S
C453 C10 1.648 . S
C479 C329 1.490 . S
C473 C37 1.550 . S
C499 C245 1.538 . S
C493 C65 1.689 . S
C513 C52 1.528 . S
C519 C137 1.539 . S
C533 C87 1.682 . S
C539 C181 1.697 . S
C553 C15 1.568 . S
C559 C213 1.500 . S
C579 C105 1.497 . S
C573 C32 1.637 . S
C593 C29 1.572 . S
C599 C341 1.472 . S
C619 C233 1.547 . S
C613 C59 1.678 . S
C639 C265 1.534 . S
C633 C84 1.534 . S
C653 C8 1.642 . S
C659 C309 1.646 . S
C679 C111 1.619 . S
C673 C7 1.757 . S
C699 C143 1.636 . S
C693 C30 1.632 . S
C713 C62 1.775 . S
C719 C175 1.774 . S
C733 C81 1.614 . S
C739 C207 1.537 . S
C759 C239 1.614 . S
C753 C76 1.772 . S
C773 C18 1.624 . S
C779 C271 1.637 . S
C793 C43 1.756 . S
C799 C303 1.760 . S
C813 C51 1.617 . S
C819 C335 1.544 . S
