# Generated by pormake.
# Topology zzz, (3,6)-cn, num edge types: 1
# Building blocks:
#     Node 0, Type 0, BuildingBlock: PAMTOO_clean_linker_0, # of connection points: 3
#     Node 1, Type 0, BuildingBlock: PAMTOO_clean_linker_0, # of connection points: 3
#     Node 2, Type 0, BuildingBlock: PAMTOO_clean_linker_0, # of connection points: 3
#     Node 3, Type 0, BuildingBlock: PAMTOO_clean_linker_0, # of connection points: 3
#     Node 4, Type 0, BuildingBlock: PAMTOO_clean_linker_0, # of connection points: 3
#     Node 5, Type 0, BuildingBlock: PAMTOO_clean_linker_0, # of connection points: 3
#     Node 6, Type 0, BuildingBlock: PAMTOO_clean_linker_0, # of connection points: 3
#     Node 7, Type 0, BuildingBlock: PAMTOO_clean_linker_0, # of connection points: 3
#     Node 8, Type 1, BuildingBlock: HISSIN_clean_sbu_0, # of connection points: 6
#     Node 9, Type 1, BuildingBlock: HISSIN_clean_sbu_0, # of connection points: 6
#     Node 10, Type 1, BuildingBlock: HISSIN_clean_sbu_0, # of connection points: 6
#     Node 11, Type 1, BuildingBlock: HISSIN_clean_sbu_0, # of connection points: 6
#     Edge 12, Type (0, 1), BuildingBlock: KIFKEQ_clean_linker_1, # of connection points: 2
#     Edge 13, Type (0, 1), BuildingBlock: KIFKEQ_clean_linker_1, # of connection points: 2
#     Edge 14, Type (0, 1), BuildingBlock: KIFKEQ_clean_linker_1, # of connection points: 2
#     Edge 15, Type (0, 1), BuildingBlock: KIFKEQ_clean_linker_1, # of connection points: 2
#     Edge 16, Type (0, 1), BuildingBlock: KIFKEQ_clean_linker_1, # of connection points: 2
#     Edge 17, Type (0, 1), BuildingBlock: KIFKEQ_clean_linker_1, # of connection points: 2
#     Edge 18, Type (0, 1), BuildingBlock: KIFKEQ_clean_linker_1, # of connection points: 2
#     Edge 19, Type (0, 1), BuildingBlock: KIFKEQ_clean_linker_1, # of connection points: 2
#     Edge 20, Type (0, 1), BuildingBlock: KIFKEQ_clean_linker_1, # of connection points: 2
#     Edge 21, Type (0, 1), BuildingBlock: KIFKEQ_clean_linker_1, # of connection points: 2
#     Edge 22, Type (0, 1), BuildingBlock: KIFKEQ_clean_linker_1, # of connection points: 2
#     Edge 23, Type (0, 1), BuildingBlock: KIFKEQ_clean_linker_1, # of connection points: 2
#     Edge 24, Type (0, 1), BuildingBlock: KIFKEQ_clean_linker_1, # of connection points: 2
#     Edge 25, Type (0, 1), BuildingBlock: KIFKEQ_clean_linker_1, # of connection points: 2
#     Edge 26, Type (0, 1), BuildingBlock: KIFKEQ_clean_linker_1, # of connection points: 2
#     Edge 27, Type (0, 1), BuildingBlock: KIFKEQ_clean_linker_1, # of connection points: 2
#     Edge 28, Type (0, 1), BuildingBlock: KIFKEQ_clean_linker_1, # of connection points: 2
#     Edge 29, Type (0, 1), BuildingBlock: KIFKEQ_clean_linker_1, # of connection points: 2
#     Edge 30, Type (0, 1), BuildingBlock: KIFKEQ_clean_linker_1, # of connection points: 2
#     Edge 31, Type (0, 1), BuildingBlock: KIFKEQ_clean_linker_1, # of connection points: 2
#     Edge 32, Type (0, 1), BuildingBlock: KIFKEQ_clean_linker_1, # of connection points: 2
#     Edge 33, Type (0, 1), BuildingBlock: KIFKEQ_clean_linker_1, # of connection points: 2
#     Edge 34, Type (0, 1), BuildingBlock: KIFKEQ_clean_linker_1, # of connection points: 2
#     Edge 35, Type (0, 1), BuildingBlock: KIFKEQ_clean_linker_1, # of connection points: 2
# Relax obj value: 0.261
# Max RMSD: 0.184
# Mean RMSD: 0.094
data_MOF--net-zzz--node1-HISSIN_clean_sbu_0--node2-PAMTOO_clean_linker_0--edge1-KIFKEQ_clean_linker_1
_symmetry_space_group_name_H-M    P1
_symmetry_Int_Tables_number       1
_symmetry_cell_setting            triclinic
loop_
_symmetry_equiv_pos_as_xyz
'x, y, z'
_cell_length_a     50.22605
_cell_length_b     50.309435
_cell_length_c     16.402467
_cell_angle_alpha  90.167131
_cell_angle_beta   91.617205
_cell_angle_gamma 90.772042
loop_
_atom_site_label
_atom_site_type_symbol
_atom_site_fract_x
_atom_site_fract_y
_atom_site_fract_z
_atom_type_partial_charge
H0 H 0.82721 0.5718 0.29564 0.0
H1 H 0.74794 0.56449 0.19237 0.0
H2 H 0.76443 0.53887 0.43907 0.0
H3 H 0.70457 0.51098 0.33384 0.0
C4 C 0.71511 0.52212 0.2858 0.0
O5 O 0.72657 0.54488 0.32085 0.0
H6 H 0.73075 0.50855 0.26372 0.0
C7 C 0.80629 0.56697 0.3029 0.0
C8 C 0.79824 0.55594 0.37676 0.0
C9 C 0.78849 0.56975 0.23609 0.0
C10 C 0.76176 0.56254 0.24392 0.0
C11 C 0.75287 0.55142 0.31641 0.0
C12 C 0.77123 0.54764 0.38303 0.0
H13 H 0.97313 0.8218 0.30999 0.0
H14 H 0.9787 0.74627 0.18919 0.0
H15 H 1.02289 0.76112 0.41415 0.0
H16 H 0.05015 0.71507 0.28224 0.0
C17 C 0.03215 0.71894 0.24339 0.0
O18 O 1.01137 0.72533 0.29412 0.0
H19 H 0.03741 0.73612 0.20396 0.0
C20 C 0.98013 0.8015 0.30947 0.0
C21 C 0.99762 0.79344 0.3724 0.0
C22 C 0.97373 0.78502 0.24227 0.0
C23 C 0.98361 0.75916 0.24059 0.0
C24 C 1.0015 0.75037 0.30124 0.0
C25 C 1.00889 0.7677 0.3673 0.0
H26 H 0.72841 0.96441 0.27913 0.0
H27 H 0.80565 0.97265 0.1737 0.0
H28 H 0.78522 0.02116 0.37755 0.0
H29 H 0.84614 0.98067 0.28499 0.0
C30 C 0.84686 1.00254 0.27491 0.0
O31 O 0.82129 1.01229 0.26021 0.0
H32 H 0.85481 1.0117 0.33248 0.0
C33 C 0.74842 0.97261 0.27992 0.0
C34 C 0.75493 0.99188 0.33975 0.0
C35 C 0.76603 0.96569 0.21794 0.0
C36 C 0.79131 0.9779 0.21859 0.0
C37 C 0.7983 0.99819 0.27364 0.0
C38 C 0.78008 1.00526 0.33514 0.0
H39 H 0.48182 0.7294 0.27833 0.0
H40 H 0.49912 0.79629 0.12544 0.0
H41 H 0.55361 0.77577 0.3216 0.0
H42 H 0.55615 0.84203 0.26201 0.0
C43 C 0.54024 0.83579 0.21726 0.0
O44 O 0.54388 0.80924 0.19754 0.0
H45 H 0.52099 0.83854 0.24824 0.0
C46 C 0.49419 0.7466 0.26508 0.0
C47 C 0.51804 0.75077 0.31047 0.0
C48 C 0.48726 0.76268 0.19814 0.0
C49 C 0.50403 0.78396 0.17768 0.0
C50 C 0.52763 0.78914 0.22251 0.0
C51 C 0.5349 0.77231 0.28858 0.0
H52 H 0.23685 0.51401 0.14796 0.0
H53 H 0.3171 0.50562 0.23944 0.0
H54 H 0.29971 0.49796 0.98164 0.0
H55 H 0.34763 0.53793 0.10455 0.0
C56 C 0.3573 0.51812 0.1032 0.0
O57 O 0.3383 0.49771 0.10002 0.0
H58 H 0.36855 0.51766 0.04588 0.0
C59 C 0.2576 0.50998 0.13675 0.0
C60 C 0.26552 0.50524 0.05681 0.0
C61 C 0.2762 0.51059 0.20204 0.0
C62 C 0.30294 0.50566 0.18849 0.0
C63 C 0.31178 0.50159 0.10967 0.0
C64 C 0.29301 0.50126 0.04296 0.0
H65 H 0.08897 0.22595 0.13223 0.0
H66 H 0.07679 0.29897 0.26072 0.0
H67 H 0.04035 0.28663 0.02247 0.0
H68 H 0.05297 0.35311 0.08314 0.0
C69 C 0.05887 0.34476 0.14353 0.0
O70 O 0.046 0.32023 0.15128 0.0
H71 H 0.08088 0.34233 0.14398 0.0
C72 C 0.08137 0.24603 0.13295 0.0
C73 C 0.06527 0.25438 0.06694 0.0
C74 C 0.08535 0.26169 0.20331 0.0
C75 C 0.07413 0.28695 0.20619 0.0
C76 C 0.05825 0.29639 0.14144 0.0
C77 C 0.05344 0.2799 0.07151 0.0
H78 H 0.32707 0.08691 0.08699 0.0
H79 H 0.25901 0.08042 0.23974 0.0
H80 H 0.27881 1.01585 0.0805 0.0
H81 H 0.21196 0.02317 0.12638 0.0
C82 C 0.21808 0.03706 0.17651 0.0
O83 O 0.24498 0.03299 0.19509 0.0
H84 H 0.21502 0.05757 0.15308 0.0
C85 C 0.30916 0.07645 0.10493 0.0
C86 C 0.30456 0.05089 0.07343 0.0
C87 C 0.29342 0.08715 0.16622 0.0
C88 C 0.27113 0.07263 0.19179 0.0
C89 C 0.26527 0.04718 0.16081 0.0
C90 C 0.28234 0.036 0.10186 0.0
H91 H 0.57997 0.33585 0.17331 0.0
H92 H 0.56716 0.26036 0.28948 0.0
H93 H 0.51453 0.28521 0.09393 0.0
H94 H 0.48607 0.24325 0.23803 0.0
C95 C 0.50634 0.24447 0.26683 0.0
O96 O 0.52473 0.2476 0.20573 0.0
H97 H 0.50642 0.26218 0.30785 0.0
C98 C 0.56922 0.3171 0.1769 0.0
C99 C 0.54741 0.31248 0.1228 0.0
C100 C 0.57661 0.29867 0.23754 0.0
C101 C 0.56168 0.27508 0.2442 0.0
C102 C 0.53899 0.27043 0.19457 0.0
C103 C 0.53175 0.28915 0.13354 0.0
Eu104 Eu 1.01094 0.03254 0.65568 0.0
Eu105 Eu 0.05371 1.01308 0.79256 0.0
C106 C 0.04199 0.07663 0.77695 0.0
C107 C 0.99514 0.07359 0.48297 0.0
C108 C 1.01741 0.06835 0.43543 0.0
C109 C 1.00675 0.12055 0.48096 0.0
C110 C 0.03514 0.08876 0.41603 0.0
C111 C 0.98901 0.10013 0.50044 0.0
C112 C 0.0307 0.11481 0.4427 0.0
C113 C 0.98401 0.05228 0.53413 0.0
O114 O 1.01327 1.00837 0.85288 0.0
O115 O 0.98327 0.02604 0.76063 0.0
C116 C 0.98887 1.01588 0.83274 0.0
O117 O 1.00432 0.98782 0.65566 0.0
O118 O 0.06946 1.01364 0.91804 0.0
O119 O 0.08451 0.98536 0.83236 0.0
O120 O 0.04486 0.97694 0.71112 0.0
C121 C 1.02289 0.97015 0.67021 0.0
O122 O 0.05086 0.0305 0.59168 0.0
O123 O 0.08191 0.02756 0.69616 0.0
O124 O 0.05596 0.05769 0.81213 0.0
O125 O 0.99563 0.02928 0.52995 0.0
O126 O 0.98012 0.0592 0.60953 0.0
O127 O 0.02463 0.07136 0.71716 0.0
C128 C 0.07006 0.96858 0.95733 0.0
C129 C 0.04978 0.97352 1.0127 0.0
C130 C 0.0563 0.92212 0.95254 0.0
C131 C 0.03185 0.9534 0.03305 0.0
C132 C 0.0742 0.94229 0.93194 0.0
C133 C 0.0341 0.92784 0.99953 0.0
C134 C 0.08099 0.99077 0.90911 0.0
C135 C 0.07593 0.03043 0.61812 0.0
H136 H 1.0226 0.04818 0.41985 0.0
H137 H 1.00236 0.14068 0.49945 0.0
H138 H 0.05324 0.08379 0.38535 0.0
H139 H 0.97188 0.10483 0.53622 0.0
H140 H 0.04614 0.99347 0.03442 0.0
H141 H 0.05916 0.90232 0.92853 0.0
H142 H 1.01518 0.9584 0.07037 0.0
H143 H 0.08985 0.93775 0.89015 0.0
Eu144 Eu 0.54462 0.04759 0.7825 0.0
Eu145 Eu 0.51723 1.01622 0.63405 0.0
C146 C 0.53807 0.98293 0.79024 0.0
C147 C 0.6002 0.05755 0.9193 0.0
C148 C 0.60208 0.03919 0.98356 0.0
C149 C 0.64127 0.04036 0.86577 0.0
C150 C 0.62245 0.02062 0.98606 0.0
C151 C 0.62087 0.05886 0.86304 0.0
C152 C 0.64155 1.02036 0.92516 0.0
C153 C 0.57396 0.06878 0.89728 0.0
O154 O 0.48284 0.03405 0.7043 0.0
O155 O 0.50292 0.0405 0.82897 0.0
C156 C 0.48111 0.03761 0.78354 0.0
O157 O 0.52477 0.08003 0.70729 0.0
O158 O 0.48274 0.99584 0.57658 0.0
O159 O 0.51505 1.00897 0.50242 0.0
O160 O 0.53084 0.0569 0.59162 0.0
C161 C 0.52629 0.07955 0.62766 0.0
O162 O 0.57752 0.04041 0.69108 0.0
O163 O 0.56055 1.0041 0.62272 0.0
O164 O 0.52107 0.98325 0.7276 0.0
O165 O 0.57176 0.07936 0.82483 0.0
O166 O 0.5537 0.05321 0.91233 0.0
O167 O 0.55251 1.00415 0.81011 0.0
C168 C 0.47248 0.02315 0.46553 0.0
C169 C 0.47163 0.04811 0.50356 0.0
C170 C 0.44121 0.03892 0.36175 0.0
C171 C 0.45625 0.06837 0.47118 0.0
C172 C 0.45739 1.01863 0.39367 0.0
C173 C 0.44032 0.06396 0.40098 0.0
C174 C 0.48973 1.00306 0.50384 0.0
C175 C 0.58086 1.0201 0.6415 0.0
H176 H 0.58656 0.03772 0.02796 0.0
H177 H 0.656 0.04083 0.81876 0.0
H178 H 0.62279 1.00595 0.03428 0.0
H179 H 0.62019 0.07276 0.81273 0.0
H180 H 0.48269 0.05197 0.55953 0.0
H181 H 0.42886 0.03473 0.30796 0.0
H182 H 0.45656 0.0874 0.50228 0.0
H183 H 0.45776 0.9995 0.36332 0.0
Eu184 Eu 0.5109 0.53899 0.76422 0.0
Eu185 Eu 0.55672 0.51954 0.64168 0.0
C186 C 0.57228 0.53495 0.82934 0.0
C187 C 0.45479 0.57719 0.86104 0.0
C188 C 0.46088 0.60101 0.82115 0.0
C189 C 0.41793 0.59863 0.92582 0.0
C190 C 0.4465 0.62389 0.83705 0.0
C191 C 0.43256 0.57579 0.91052 0.0
C192 C 0.42566 0.62327 0.89279 0.0
C193 C 0.47307 0.55476 0.85825 0.0
O194 O 0.55164 0.48463 0.72739 0.0
O195 O 0.51052 0.49399 0.77665 0.0
C196 C 0.53051 0.47762 0.76827 0.0
O197 O 0.49133 0.53961 0.63802 0.0
O198 O 0.59742 0.52307 0.5985 0.0
O199 O 0.56986 0.49476 0.54202 0.0
O200 O 0.51736 0.50924 0.57568 0.0
C201 C 0.49538 0.52316 0.57744 0.0
O202 O 0.5273 0.57754 0.71089 0.0
O203 O 0.54637 0.56071 0.59656 0.0
O204 O 0.57939 0.53604 0.75288 0.0
O205 O 0.46916 0.53773 0.79888 0.0
O206 O 0.49824 0.56075 0.87055 0.0
O207 O 0.54708 0.53208 0.84747 0.0
C208 C 0.61406 0.48183 0.55637 0.0
C209 C 0.61604 0.46711 0.62876 0.0
C210 C 0.6404 0.44899 0.48835 0.0
C211 C 0.62899 0.44271 0.62968 0.0
C212 C 0.62742 0.47336 0.48752 0.0
C213 C 0.6399 0.43268 0.55797 0.0
C214 C 0.59451 0.50306 0.54832 0.0
C215 C 0.53743 0.58096 0.6382 0.0
H216 H 0.47786 0.60234 0.78196 0.0
H217 H 0.40167 0.59732 0.96766 0.0
H218 H 0.45328 0.64243 0.81086 0.0
H219 H 0.4274 0.55741 0.9409 0.0
H220 H 0.60583 0.47347 0.68263 0.0
H221 H 0.64836 0.4418 0.43183 0.0
H222 H 0.62848 0.4307 0.68434 0.0
H223 H 0.62603 0.48452 0.43118 0.0
Eu224 Eu 0.04188 0.54801 0.65151 0.0
Eu225 Eu 1.02224 0.50314 0.77676 0.0
C226 C 0.08501 0.51546 0.76587 0.0
C227 C 0.09279 0.58237 0.53961 0.0
C228 C 0.10479 0.55744 0.53413 0.0
C229 C 0.13649 0.60355 0.53627 0.0
C230 C 0.13223 0.55551 0.53064 0.0
C231 C 0.10874 0.60548 0.54025 0.0
C232 C 0.14844 0.57845 0.53311 0.0
C233 C 0.06472 0.5833 0.56119 0.0
O234 O 0.02772 0.54108 0.8523 0.0
O235 O 1.02205 0.57139 0.75088 0.0
C236 C 1.02335 0.56565 0.8289 0.0
O237 O 0.99842 0.54344 0.61378 0.0
O238 O 0.02407 0.48471 0.89724 0.0
O239 O 0.99514 0.4706 0.80667 0.0
O240 O 0.98384 0.52193 0.72756 0.0
C241 C 0.97891 0.53413 0.6578 0.0
O242 O 0.04996 0.50921 0.58439 0.0
O243 O 0.02653 0.47929 0.66074 0.0
O244 O 0.06695 0.49684 0.77819 0.0
O245 O 0.04939 0.56433 0.53085 0.0
O246 O 0.06133 0.58672 0.63888 0.0
O247 O 0.0784 0.53785 0.72995 0.0
C248 C 0.97921 0.48046 0.93522 0.0
C249 C 0.98183 0.50395 0.98169 0.0
C250 C 0.93113 0.48355 0.94173 0.0
C251 C 0.95938 0.51789 1.00353 0.0
C252 C 0.95368 0.46962 0.91946 0.0
C253 C 0.93382 0.50846 0.98041 0.0
C254 C 1.00136 0.47226 0.88425 0.0
C255 C 0.0397 0.48523 0.59493 0.0
H256 H 0.09302 0.53925 0.53542 0.0
H257 H 0.14859 0.62153 0.53744 0.0
H258 H 0.14075 0.53591 0.52571 0.0
H259 H 0.09985 0.62484 0.54659 0.0
H260 H 1.00118 0.51294 0.99503 0.0
H261 H 0.91163 0.47542 0.92532 0.0
H262 H 0.9622 0.53697 0.03347 0.0
H263 H 0.95112 0.45159 0.88366 0.0
H264 H 0.17126 1.0083 0.18321 0.0
H265 H 0.22227 0.05897 0.33318 0.0
H266 H 0.13844 1.00699 0.28982 0.0
H267 H 0.18915 0.05793 0.44083 0.0
H268 H 0.13081 0.03137 0.64498 0.0
H269 H 0.16592 0.03204 0.54413 0.0
H270 H 0.10607 0.03452 0.35049 0.0
H271 H 0.07122 0.03355 0.45063 0.0
C272 C 0.17574 1.01883 0.23974 0.0
C273 C 0.19986 0.03327 0.24969 0.0
C274 C 0.15662 1.01839 0.30092 0.0
C275 C 0.16069 0.03254 0.37473 0.0
C276 C 0.18515 0.04654 0.38564 0.0
C277 C 0.2043 0.04709 0.32386 0.0
C278 C 0.12508 0.03216 0.58091 0.0
C279 C 0.09786 0.03231 0.55682 0.0
C280 C 0.14535 0.03265 0.5227 0.0
C281 C 0.13917 0.03306 0.43815 0.0
C282 C 0.11194 0.03365 0.41443 0.0
C283 C 0.09175 0.03332 0.47242 0.0
H284 H 0.48756 0.19348 0.23957 0.0
H285 H 0.5365 0.23945 0.40918 0.0
H286 H 0.49203 0.15452 0.32733 0.0
H287 H 0.54157 0.20035 0.49693 0.0
H288 H 0.52157 0.13214 0.67631 0.0
H289 H 0.51774 0.17157 0.58923 0.0
H290 H 0.52194 0.1217 0.37539 0.0
H291 H 0.52522 0.08271 0.46148 0.0
C292 C 0.49959 0.19513 0.29526 0.0
C293 C 0.51153 0.21961 0.31754 0.0
C294 C 0.50224 0.17274 0.3458 0.0
C295 C 0.51707 0.17407 0.42013 0.0
C296 C 0.52959 0.19851 0.44123 0.0
C297 C 0.52694 0.2209 0.3905 0.0
C298 C 0.52162 0.12963 0.61072 0.0
C299 C 0.52376 0.1041 0.57642 0.0
C300 C 0.51961 0.1523 0.56055 0.0
C301 C 0.5195 0.15006 0.47464 0.0
C302 C 0.52156 0.12445 0.44084 0.0
C303 C 0.52366 0.10194 0.49069 0.0
H304 H 0.40673 0.49469 0.11176 0.0
H305 H 0.35193 0.53709 0.25992 0.0
H306 H 0.43963 0.49528 0.22421 0.0
H307 H 0.38369 0.53604 0.37469 0.0
H308 H 0.45448 0.55704 0.54099 0.0
H309 H 0.42168 0.55455 0.4297 0.0
H310 H 0.45589 0.48098 0.34856 0.0
H311 H 0.4897 0.48446 0.45806 0.0
C312 C 0.40148 0.5036 0.16919 0.0
C313 C 0.37656 0.5157 0.17669 0.0
C314 C 0.42036 0.50386 0.23437 0.0
C315 C 0.41482 0.51588 0.3099 0.0
C316 C 0.38936 0.52711 0.31778 0.0
C317 C 0.37073 0.52726 0.25214 0.0
C318 C 0.45504 0.54028 0.49951 0.0
C319 C 0.4749 0.52096 0.50912 0.0
C320 C 0.43591 0.53867 0.43542 0.0
C321 C 0.43554 0.51741 0.37899 0.0
C322 C 0.45541 0.49796 0.3891 0.0
C323 C 0.47486 0.49982 0.45265 0.0
H324 H 0.05507 0.3365 0.31127 0.0
H325 H 0.05021 0.39833 0.13055 0.0
H326 H 0.05099 0.36967 0.41933 0.0
H327 H 0.04538 0.43147 0.23775 0.0
H328 H 0.06551 0.48868 0.44856 0.0
H329 H 0.06903 0.45482 0.34265 0.0
H330 H 1.02314 0.40012 0.48667 0.0
H331 H 1.02016 0.43375 0.59314 0.0
C332 C 0.0526 0.35709 0.29432 0.0
C333 C 0.05247 0.3645 0.21157 0.0
C334 C 0.05022 0.37627 0.35657 0.0
C335 C 0.04792 0.4036 0.33829 0.0
C336 C 0.04751 0.41086 0.25528 0.0
C337 C 0.0499 0.39171 0.1933 0.0
C338 C 0.05622 0.46942 0.45797 0.0
C339 C 0.04255 0.4642 0.53015 0.0
C340 C 0.05806 0.44991 0.39655 0.0
C341 C 0.04627 0.42443 0.40491 0.0
C342 C 0.03281 0.4192 0.47757 0.0
C343 C 0.03097 0.43869 0.53891 0.0
H344 H 0.83883 0.99779 0.10541 0.0
H345 H 0.89955 1.01762 0.28693 0.0
H346 H 0.87205 1.00039 0.99896 0.0
H347 H 0.93258 0.02088 0.18129 0.0
H348 H 0.99257 0.99769 0.99127 0.0
H349 H 0.95822 0.99531 0.09304 0.0
H350 H 0.90116 0.02715 0.91884 0.0
H351 H 0.93554 0.02892 0.81634 0.0
C352 C 0.85913 1.00323 0.12265 0.0
C353 C 0.86619 1.00798 0.20529 0.0
C354 C 0.87835 1.00475 0.06127 0.0
C355 C 0.90543 1.0107 0.08042 0.0
C356 C 0.91226 1.01578 0.16312 0.0
C357 C 0.8931 1.0143 0.22411 0.0
C358 C 0.9727 1.00403 0.97413 0.0
C359 C 0.96716 1.01346 0.89466 0.0
C360 C 0.95285 1.00293 0.03325 0.0
C361 C 0.92655 1.01125 1.01557 0.0
C362 C 0.9209 1.02031 0.93557 0.0
C363 C 0.94081 0.02144 0.8764 0.0
H364 H 0.49848 0.85275 0.11865 0.0
H365 H 0.58381 0.85942 0.14717 0.0
H366 H 0.49903 0.88608 1.01039 0.0
H367 H 0.58471 0.89229 0.03752 0.0
H368 H 0.57265 0.9746 0.92018 0.0
H369 H 0.57386 0.9374 1.01438 0.0
H370 H 0.51019 0.89847 0.87537 0.0
H371 H 0.50859 0.93618 0.78177 0.0
C372 C 0.51743 0.86105 0.1007 0.0
C373 C 0.54106 0.85367 0.1423 0.0
C374 C 0.51782 0.88016 0.03823 0.0
C375 C 0.5419 0.89239 1.01506 0.0
C376 C 0.56567 0.88394 0.05436 0.0
C377 C 0.56524 0.86485 0.11685 0.0
C378 C 0.55901 0.95805 0.90895 0.0
C379 C 0.54045 0.95864 0.84287 0.0
C380 C 0.55981 0.93647 0.96313 0.0
C381 C 0.54208 0.91465 0.95341 0.0
C382 C 0.52394 0.91495 0.88609 0.0
C383 C 0.52317 0.93656 0.83168 0.0
H384 H 0.66549 0.54468 0.29486 0.0
H385 H 0.7195 0.5133 0.12064 0.0
H386 H 0.63159 0.55026 0.18616 0.0
H387 H 0.6856 0.51785 1.01229 0.0
H388 H 0.62613 0.54476 0.81713 0.0
H389 H 0.66053 0.54495 0.92491 0.0
H390 H 0.60097 0.52656 0.10187 0.0
H391 H 0.56651 0.52728 0.99429 0.0
C392 C 0.67018 0.53919 0.23304 0.0
C393 C 0.69521 0.52853 0.21661 0.0
C394 C 0.65061 0.54206 0.17055 0.0
C395 C 0.65543 0.53428 0.0895 0.0
C396 C 0.68091 0.5244 0.07306 0.0
C397 C 0.70046 0.52165 0.13548 0.0
C398 C 0.62028 0.54092 0.8791 0.0
C399 C 0.59333 0.53603 0.89638 0.0
C400 C 0.64017 0.54083 0.94131 0.0
C401 C 0.6339 0.53566 0.02316 0.0
C402 C 0.60684 0.53106 0.04039 0.0
C403 C 0.58693 0.53131 0.97821 0.0
H404 H 0.04795 0.66687 0.26284 0.0
H405 H 1.00291 0.71661 0.098 0.0
H406 H 0.04396 0.63009 0.16566 0.0
H407 H 0.99785 0.67963 1.00148 0.0
H408 H 1.02153 0.61977 0.80441 0.0
H409 H 1.02098 0.65526 0.90559 0.0
H410 H 1.01906 0.59683 0.09784 0.0
H411 H 1.02055 0.56137 0.99632 0.0
C412 C 0.03662 0.66977 0.20647 0.0
C413 C 0.02576 0.69481 0.18853 0.0
C414 C 0.03424 0.64855 0.15032 0.0
C415 C 1.02075 0.65154 0.07419 0.0
C416 C 1.0089 0.67638 0.05808 0.0
C417 C 1.01142 0.69762 0.11417 0.0
C418 C 1.02084 0.61441 0.86822 0.0
C419 C 1.02118 0.58747 0.8915 0.0
C420 C 1.02034 0.63492 0.92681 0.0
C421 C 1.02 0.62934 1.01113 0.0
C422 C 1.0198 0.6023 0.03417 0.0
C423 C 1.02045 0.58177 0.97552 0.0
H424 H 0.06453 0.26405 0.35442 0.0
H425 H 0.12877 0.22931 0.22279 0.0
H426 H 0.06497 0.22718 0.44739 0.0
H427 H 0.1291 0.19181 0.3167 0.0
H428 H 0.06097 0.12459 0.3104 0.0
H429 H 0.09034 0.16233 0.28901 0.0
H430 H 0.07716 0.18991 0.53433 0.0
H431 H 0.04759 0.15176 0.55575 0.0
C432 C 0.07991 0.24937 0.34813 0.0
C433 C 0.09563 0.24876 0.27869 0.0
C434 C 0.08018 0.22802 0.40194 0.0
C435 C 0.09608 0.20589 0.38642 0.0
C436 C 0.11592 0.20821 0.32802 0.0
C437 C 0.11572 0.22967 0.27426 0.0
C438 C 0.06491 0.13827 0.36054 0.0
C439 C 0.05135 0.13574 0.43368 0.0
C440 C 0.08207 0.1598 0.34881 0.0
C441 C 0.08599 0.17929 0.40997 0.0
C442 C 0.07433 0.17538 0.4859 0.0
C443 C 0.05712 0.15379 0.49761 0.0
H444 H 0.31998 0.13273 0.11727 0.0
H445 H 0.29388 0.09186 0.33254 0.0
H446 H 0.36097 0.14604 0.19001 0.0
H447 H 0.33369 0.10589 0.40504 0.0
H448 H 0.41157 0.09729 0.49613 0.0
H449 H 0.37536 0.12589 0.45317 0.0
H450 H 0.38889 0.10544 0.20178 0.0
H451 H 0.42606 0.07792 0.24437 0.0
C452 C 0.32215 0.12797 0.18147 0.0
C453 C 0.30496 0.10923 0.21699 0.0
C454 C 0.34567 0.13566 0.22315 0.0
C455 C 0.35134 0.12531 0.30108 0.0
C456 C 0.33046 0.11335 0.34374 0.0
C457 C 0.30727 0.10525 0.30165 0.0
C458 C 0.40763 0.09971 0.43137 0.0
C459 C 0.42135 0.08473 0.37359 0.0
C460 C 0.38681 0.11622 0.40691 0.0
C461 C 0.37895 0.11774 0.32436 0.0
C462 C 0.39445 0.10495 0.26603 0.0
C463 C 0.41542 0.08859 0.29045 0.0
H464 H 0.57975 0.28643 0.4012 0.0
H465 H 0.62326 0.32618 0.21224 0.0
H466 H 0.60846 0.30753 0.50398 0.0
H467 H 0.64973 0.34968 0.31453 0.0
H468 H 0.68029 0.4072 0.47996 0.0
H469 H 0.67678 0.36258 0.42162 0.0
H470 H 0.60399 0.34936 0.55178 0.0
H471 H 0.60837 0.39266 0.61174 0.0
C472 C 0.59574 0.29926 0.38112 0.0
C473 C 0.59828 0.30561 0.2982 0.0
C474 C 0.61206 0.31174 0.44052 0.0
C475 C 0.63052 0.3316 0.41853 0.0
C476 C 0.63553 0.33499 0.33509 0.0
C477 C 0.61982 0.32186 0.27576 0.0
C478 C 0.66422 0.39417 0.49842 0.0
C479 C 0.64418 0.40373 0.5484 0.0
C480 C 0.66202 0.36866 0.46446 0.0
C481 C 0.63936 0.35263 0.47829 0.0
C482 C 0.62168 0.36084 0.5383 0.0
C483 C 0.62416 0.38604 0.57318 0.0
H484 H 0.29444 0.55343 0.28789 0.0
H485 H 0.23884 0.48742 0.29567 0.0
H486 H 0.27314 0.57385 0.40485 0.0
H487 H 0.21802 0.50733 0.41334 0.0
H488 H 0.18131 0.60621 0.43408 0.0
H489 H 0.22362 0.5905 0.38537 0.0
H490 H 0.2229 0.5272 0.56243 0.0
H491 H 0.18087 0.54346 0.6133 0.0
C492 C 0.27835 0.54285 0.3169 0.0
C493 C 0.2679 0.51913 0.283 0.0
C494 C 0.2663 0.55446 0.38361 0.0
C495 C 0.24406 0.54213 0.41786 0.0
C496 C 0.23539 0.51706 0.38871 0.0
C497 C 0.24707 0.50577 0.3211 0.0
C498 C 0.19087 0.58988 0.46566 0.0
C499 C 0.17748 0.57548 0.52544 0.0
C500 C 0.21516 0.58088 0.43789 0.0
C501 C 0.22609 0.55733 0.46924 0.0
C502 C 0.21463 0.54525 0.53693 0.0
C503 C 0.19054 0.55444 0.56543 0.0
H504 H 0.99152 0.77987 0.08812 0.0
H505 H 0.93152 0.81912 0.22636 0.0
H506 H 0.9926 0.81673 0.99486 0.0
H507 H 0.93272 0.8565 0.13224 0.0
H508 H 1.00646 0.91771 0.13728 0.0
H509 H 0.97507 0.88182 0.16003 0.0
H510 H 0.98194 0.85591 0.91011 0.0
H511 H 1.01324 0.89253 0.88663 0.0
C512 C 0.97724 0.79557 0.09575 0.0
C513 C 0.96258 0.79743 0.16721 0.0
C514 C 0.97787 0.8169 0.04183 0.0
C515 C 0.96387 0.84013 0.0593 0.0
C516 C 0.94448 0.83915 0.11939 0.0
C517 C 0.94378 0.81774 0.17325 0.0
C518 C 1.00073 0.90491 0.08639 0.0
C519 C 1.01288 0.90755 1.01085 0.0
C520 C 0.98241 0.88443 0.09907 0.0
C521 C 0.97595 0.86598 0.03666 0.0
C522 C 0.98661 0.86977 0.95929 0.0
C523 C 1.00486 0.89043 0.94643 0.0
H524 H 0.72443 0.92833 0.20429 0.0
H525 H 0.7852 0.96523 0.05883 0.0
H526 H 0.6946 0.92774 0.08703 0.0
H527 H 0.7569 0.96034 0.93984 0.0
H528 H 0.69454 0.02701 0.90317 0.0
H529 H 0.72896 0.99555 0.93183 0.0
H530 H 0.66932 0.9342 0.97164 0.0
H531 H 0.63458 0.96672 0.94475 0.0
C532 C 0.73185 0.9357 0.14721 0.0
C533 C 0.75591 0.95034 0.14448 0.0
C534 C 0.71482 0.93462 0.07853 0.0
C535 C 0.72243 0.94703 1.00578 0.0
C536 C 0.74958 0.95309 0.99727 0.0
C537 C 0.76607 0.9557 0.06672 0.0
C538 C 0.68877 1.00664 0.91583 0.0
C539 C 0.66201 0.99955 0.92508 0.0
C540 C 0.70863 0.9882 0.9316 0.0
C541 C 0.70217 0.96217 0.95726 0.0
C542 C 0.67517 0.95423 0.95535 0.0
C543 C 0.65525 0.97287 0.94038 0.0
H544 H 0.43676 0.74738 0.23877 0.0
H545 H 0.48742 0.75832 0.03295 0.0
H546 H 0.40596 0.72047 0.15408 0.0
H547 H 0.4573 0.73126 0.94925 0.0
H548 H 0.41589 0.67102 0.81564 0.0
H549 H 0.41739 0.71453 0.88214 0.0
H550 H 0.41644 0.67608 0.11735 0.0
H551 H 0.41513 0.6333 0.05202 0.0
C552 C 0.44084 0.74473 0.17477 0.0
C553 C 0.46481 0.75429 0.14294 0.0
C554 C 0.42323 0.72935 0.12625 0.0
C555 C 0.42952 0.723 0.04551 0.0
C556 C 0.45167 0.73566 1.01103 0.0
C557 C 0.46914 0.75118 0.05931 0.0
C558 C 0.41515 0.67197 0.88151 0.0
C559 C 0.41635 0.64862 0.92844 0.0
C560 C 0.41593 0.6969 0.91958 0.0
C561 C 0.4179 0.69883 1.00512 0.0
C562 C 0.41498 0.67554 0.05138 0.0
C563 C 0.41425 0.65072 1.01349 0.0
H564 H 0.78141 0.53965 0.10001 0.0
H565 H 0.82169 0.61038 0.19171 0.0
H566 H 0.81615 0.53345 1.00252 0.0
H567 H 0.85651 0.60439 0.09288 0.0
H568 H 0.9237 0.53927 0.11258 0.0
H569 H 0.88485 0.56587 0.13555 0.0
H570 H 0.85146 0.54245 0.90006 0.0
H571 H 0.89111 0.51612 0.8757 0.0
C572 C 0.79677 0.55488 0.09565 0.0
C573 C 0.7996 0.57486 0.15528 0.0
C574 C 0.81677 0.55131 0.0396 0.0
C575 C 0.83958 0.56779 0.04299 0.0
C576 C 0.83944 0.59098 0.09092 0.0
C577 C 0.81949 0.59447 0.14724 0.0
C578 C 0.90845 0.54026 0.06469 0.0
C579 C 0.91032 0.52528 0.99292 0.0
C580 C 0.88625 0.55578 0.07741 0.0
C581 C 0.86524 0.55654 0.01897 0.0
C582 C 0.86744 0.54231 0.94582 0.0
C583 C 0.88989 0.52692 0.93266 0.0
H584 H 1.01733 0.23211 1.01165 0.0
H585 H 0.10186 0.22923 0.97573 0.0
H586 H 1.01127 0.19053 0.93348 0.0
H587 H 0.09599 0.18795 0.89853 0.0
H588 H 0.08087 0.09727 0.88164 0.0
H589 H 0.08526 0.14214 0.93741 0.0
H590 H 1.01478 0.1654 0.80074 0.0
H591 H 1.01045 0.1203 0.74414 0.0
C592 C 0.03449 0.22321 0.98447 0.0
C593 C 0.06007 0.2343 0.99965 0.0
C594 C 0.03108 0.19914 0.94022 0.0
C595 C 0.0532 0.18534 0.91066 0.0
C596 C 0.07849 0.19748 0.92148 0.0
C597 C 0.08184 0.22148 0.96488 0.0
C598 C 0.06635 0.11189 0.86273 0.0
C599 C 0.04532 0.10483 0.80786 0.0
C600 C 0.06894 0.13784 0.89463 0.0
C601 C 0.05044 0.15775 0.87378 0.0
C602 C 0.02937 0.15075 0.81885 0.0
C603 C 0.02699 0.1248 0.7859 0.0
H604 H 0.34556 1.01744 0.11337 0.0
H605 H 0.31398 0.06433 0.91524 0.0
H606 H 0.38748 1.01275 0.04197 0.0
H607 H 0.35575 0.05999 0.84364 0.0
H608 H 0.43095 0.03542 0.70893 0.0
H609 H 0.38741 0.03422 0.77204 0.0
H610 H 0.42594 0.03905 1.01019 0.0
H611 H 0.46939 0.03996 0.94709 0.0
C612 C 0.34712 0.0258 0.05288 0.0
C613 C 0.32584 0.04046 0.01909 0.0
C614 C 0.37151 0.02367 1.01242 0.0
C615 C 0.37557 0.03621 0.9366 0.0
C616 C 0.3537 0.04973 0.90108 0.0
C617 C 0.32944 0.05201 0.94187 0.0
C618 C 0.43023 0.0363 0.77481 0.0
C619 C 0.45407 0.0379 0.82235 0.0
C620 C 0.40505 0.03566 0.81132 0.0
C621 C 0.40266 0.03638 0.89696 0.0
C622 C 0.42657 0.03798 0.94435 0.0
C623 C 0.45171 0.03879 0.90784 0.0
H624 H 0.49945 0.33497 0.07187 0.0
H625 H 0.5835 0.33659 0.02521 0.0
H626 H 0.49305 0.37253 0.97837 0.0
H627 H 0.57763 0.37448 0.93653 0.0
H628 H 0.56233 0.43456 0.74224 0.0
H629 H 0.56354 0.39256 0.81521 0.0
H630 H 0.49958 0.4187 0.96561 0.0
H631 H 0.49759 0.46025 0.88946 0.0
C632 C 0.5165 0.34307 0.04098 0.0
C633 C 0.54203 0.33274 0.05697 0.0
C634 C 0.51295 0.36496 0.98808 0.0
C635 C 0.53482 0.37711 0.94946 0.0
C636 C 0.56008 0.36587 0.96333 0.0
C637 C 0.56355 0.34409 1.01541 0.0
C638 C 0.54832 0.4313 0.79034 0.0
C639 C 0.52994 0.45105 0.80979 0.0
C640 C 0.54914 0.40712 0.83308 0.0
C641 C 0.53192 0.40192 0.898 0.0
C642 C 0.51303 0.42148 0.91587 0.0
C643 C 0.51197 0.44555 0.87224 0.0
H644 H 0.24158 0.54848 0.98969 0.0
H645 H 0.23927 0.46297 0.98339 0.0
H646 H 0.19942 0.54979 0.91219 0.0
H647 H 0.19712 0.46396 0.90415 0.0
H648 H 0.10588 0.47638 0.86622 0.0
H649 H 0.15121 0.47302 0.92301 0.0
H650 H 0.17421 0.54318 0.78975 0.0
H651 H 0.12884 0.54685 0.7348 0.0
C652 C 0.23253 0.52992 0.96878 0.0
C653 C 0.24422 0.50565 0.99097 0.0
C654 C 0.20814 0.5306 0.92449 0.0
C655 C 0.19437 0.50697 0.90159 0.0
C656 C 0.2067 0.48264 0.9212 0.0
C657 C 0.23121 0.482 0.9654 0.0
C658 C 0.12062 0.49101 0.84852 0.0
C659 C 0.11334 0.51204 0.79626 0.0
C660 C 0.14684 0.489 0.88088 0.0
C661 C 0.16676 0.50791 0.86192 0.0
C662 C 0.15958 0.52847 0.8076 0.0
C663 C 0.13339 0.53052 0.77554 0.0
H664 H 0.96333 0.81638 0.47618 0.0
H665 H 0.04578 0.81835 0.41116 0.0
H666 H 0.96983 0.85736 0.55448 0.0
H667 H 0.05246 0.85982 0.48907 0.0
H668 H 0.05869 0.92887 0.67735 0.0
H669 H 0.05415 0.88431 0.6179 0.0
H670 H 0.97551 0.90354 0.52521 0.0
H671 H 0.97996 0.94785 0.58506 0.0
C672 C 0.98313 0.82518 0.48069 0.0
C673 C 1.0041 0.81368 0.43817 0.0
C674 C 0.98679 0.84907 0.52457 0.0
C675 C 1.01158 0.86255 0.52747 0.0
C676 C 0.03305 0.85019 0.48898 0.0
C677 C 0.02934 0.82617 0.44473 0.0
C678 C 0.04033 0.9236 0.64467 0.0
C679 C 1.01969 0.94228 0.63651 0.0
C680 C 0.03779 0.89794 0.60997 0.0
C681 C 1.01442 0.88989 0.56643 0.0
C682 C 0.9937 0.90853 0.55914 0.0
C683 C 0.9963 0.93421 0.59332 0.0
H684 H 0.73325 0.04055 0.38368 0.0
H685 H 0.72696 0.95661 0.43188 0.0
H686 H 0.69237 0.04781 0.45969 0.0
H687 H 0.68647 0.96366 0.50676 0.0
H688 H 0.59738 0.97928 0.54188 0.0
H689 H 0.6404 0.97386 0.47825 0.0
H690 H 0.66897 0.0469 0.59019 0.0
H691 H 0.62588 0.05233 0.65384 0.0
C692 C 0.72364 0.02372 0.41221 0.0
C693 C 0.73369 0.99796 0.40111 0.0
C694 C 0.69995 0.02782 0.45551 0.0
C695 C 0.68541 1.00627 0.48863 0.0
C696 C 0.69637 0.98079 0.48088 0.0
C697 C 0.71996 0.97676 0.43842 0.0
C698 C 0.61279 0.99419 0.55341 0.0
C699 C 0.60775 1.01625 0.60359 0.0
C700 C 0.63772 0.99103 0.51697 0.0
C701 C 0.65865 1.00988 0.52857 0.0
C702 C 0.65357 0.032 0.57864 0.0
C703 C 0.6287 0.03503 0.61578 0.0
H704 H 0.56463 0.72283 0.33219 0.0
H705 H 0.48692 0.73215 0.43256 0.0
H706 H 0.57197 0.68381 0.41887 0.0
H707 H 0.49378 0.69306 0.51732 0.0
H708 H 0.55855 0.59567 0.49205 0.0
H709 H 0.55678 0.63857 0.42422 0.0
H710 H 0.51568 0.6713 0.62843 0.0
H711 H 0.517 0.62802 0.69582 0.0
C712 C 0.54938 0.71697 0.37418 0.0
C713 C 0.5252 0.73074 0.37519 0.0
C714 C 0.55337 0.69428 0.42314 0.0
C715 C 0.53336 0.68477 0.47497 0.0
C716 C 0.50983 0.69959 0.47916 0.0
C717 C 0.50583 0.7221 0.43013 0.0
C718 C 0.54926 0.61199 0.52308 0.0
C719 C 0.53783 0.60808 0.59975 0.0
C720 C 0.54843 0.63684 0.48414 0.0
C721 C 0.53608 0.65876 0.52023 0.0
C722 C 0.5251 0.65499 0.59777 0.0
C723 C 0.52599 0.63009 0.63691 0.0
H724 H 0.83026 0.59466 0.44355 0.0
H725 H 0.81577 0.51016 0.45368 0.0
H726 H 0.87233 0.58941 0.51922 0.0
H727 H 0.85821 0.50475 0.53046 0.0
H728 H 0.93272 0.51025 0.71285 0.0
H729 H 0.88693 0.51509 0.65869 0.0
H730 H 0.91512 0.57054 0.47945 0.0
H731 H 0.96053 0.56565 0.53263 0.0
C732 C 0.83571 0.57497 0.46412 0.0
C733 C 0.81944 0.55287 0.44262 0.0
C734 C 0.86009 0.5719 0.50674 0.0
C735 C 0.86914 0.54658 0.52989 0.0
C736 C 0.85199 0.52458 0.51381 0.0
C737 C 0.82749 0.52767 0.47034 0.0
C738 C 0.92915 0.52357 0.66205 0.0
C739 C 0.95059 0.53757 0.62742 0.0
C740 C 0.90283 0.52622 0.63067 0.0
C741 C 0.89708 0.54333 0.56471 0.0
C742 C 0.91852 0.55746 0.5309 0.0
C743 C 0.94475 0.55452 0.56132 0.0
loop_
_geom_bond_atom_site_label_1
_geom_bond_atom_site_label_2
_geom_bond_distance
_geom_bond_site_symmetry_2
_ccdc_geom_bond_type
H0 C7 0.929 . S
H1 C10 0.930 . S
H2 C12 0.929 . S
H3 C4 0.969 . S
C4 H3 0.969 . S
C4 O5 1.550 . S
C4 H6 0.973 . S
O5 C4 1.550 . S
O5 C11 1.412 . S
H6 C4 0.973 . S
C7 H0 0.929 . S
C7 C8 1.400 . S
C7 C9 1.364 . S
C8 C7 1.400 . S
C8 C12 1.377 . S
C9 C7 1.364 . S
C9 C10 1.374 . S
C10 H1 0.930 . S
C10 C9 1.374 . S
C10 C11 1.383 . S
C11 O5 1.412 . S
C11 C10 1.383 . S
C11 C12 1.394 . S
C12 H2 0.929 . S
C12 C8 1.377 . S
C12 C11 1.394 . S
H13 C20 0.929 . S
H14 C23 0.930 . S
H15 C25 0.929 . S
H16 C17 0.969 . S
C17 H16 0.969 . S
C17 O18 1.550 . S
C17 H19 0.973 . S
O18 C17 1.550 . S
O18 C24 1.412 . S
H19 C17 0.973 . S
C20 H13 0.929 . S
C20 C21 1.400 . S
C20 C22 1.364 . S
C21 C20 1.400 . S
C21 C25 1.377 . S
C22 C20 1.364 . S
C22 C23 1.374 . S
C23 H14 0.930 . S
C23 C22 1.374 . S
C23 C24 1.383 . S
C24 O18 1.412 . S
C24 C23 1.383 . S
C24 C25 1.394 . S
C25 H15 0.929 . S
C25 C21 1.377 . S
C25 C24 1.394 . S
H26 C33 0.929 . S
H27 C36 0.930 . S
H28 C38 0.929 . S
H29 C30 1.011 . S
C30 H29 1.011 . S
C30 O31 1.550 . S
C30 H32 0.973 . S
O31 C30 1.550 . S
O31 C37 1.412 . S
H32 C30 0.973 . S
C33 H26 0.929 . S
C33 C34 1.400 . S
C33 C35 1.364 . S
C34 C33 1.400 . S
C34 C38 1.377 . S
C35 C33 1.364 . S
C35 C36 1.374 . S
C36 H27 0.930 . S
C36 C35 1.374 . S
C36 C37 1.383 . S
C37 O31 1.412 . S
C37 C36 1.383 . S
C37 C38 1.394 . S
C38 H28 0.929 . S
C38 C34 1.377 . S
C38 C37 1.394 . S
H39 C46 0.929 . S
H40 C49 0.930 . S
H41 C51 0.929 . S
H42 C43 0.969 . S
C43 H42 0.969 . S
C43 O44 1.550 . S
C43 H45 0.973 . S
O44 C43 1.550 . S
O44 C50 1.412 . S
H45 C43 0.973 . S
C46 H39 0.929 . S
C46 C47 1.400 . S
C46 C48 1.364 . S
C47 C46 1.400 . S
C47 C51 1.377 . S
C48 C46 1.364 . S
C48 C49 1.374 . S
C49 H40 0.930 . S
C49 C48 1.374 . S
C49 C50 1.383 . S
C50 O44 1.412 . S
C50 C49 1.383 . S
C50 C51 1.394 . S
C51 H41 0.929 . S
C51 C47 1.377 . S
C51 C50 1.394 . S
H52 C59 0.929 . S
H53 C62 0.930 . S
H54 C64 0.929 1_556 S
H55 C56 0.969 . S
C56 H55 0.969 . S
C56 O57 1.550 . S
C56 H58 0.973 . S
O57 C56 1.550 . S
O57 C63 1.412 . S
H58 C56 0.973 . S
C59 H52 0.929 . S
C59 C60 1.394 1_554 S
C59 C61 1.364 . S
C60 C59 1.394 1_556 S
C60 C64 1.377 1_556 S
C61 C59 1.364 . S
C61 C62 1.374 . S
C62 H53 0.930 . S
C62 C61 1.374 . S
C62 C63 1.383 . S
C63 O57 1.412 . S
C63 C62 1.383 . S
C63 C64 1.394 . S
C64 H54 0.929 1_554 S
C64 C60 1.377 1_554 S
C64 C63 1.394 . S
H65 C72 0.929 . S
H66 C75 0.930 . S
H67 C77 0.929 . S
H68 C69 0.969 . S
C69 H68 0.969 . S
C69 O70 1.550 . S
C69 H71 0.973 . S
O70 C69 1.550 . S
O70 C76 1.412 . S
H71 C69 0.973 . S
C72 H65 0.929 . S
C72 C73 1.400 1_554 S
C72 C74 1.364 . S
C73 C72 1.400 1_556 S
C73 C77 1.377 . S
C74 C72 1.364 . S
C74 C75 1.374 . S
C75 H66 0.930 . S
C75 C74 1.374 . S
C75 C76 1.383 . S
C76 O70 1.412 . S
C76 C75 1.383 . S
C76 C77 1.394 1_554 S
C77 H67 0.929 . S
C77 C73 1.377 . S
C77 C76 1.394 1_556 S
H78 C85 0.929 1_556 S
H79 C88 0.930 . S
H80 C90 0.929 . S
H81 C82 0.969 . S
C82 H81 0.969 . S
C82 O83 1.550 . S
C82 H84 0.973 . S
O83 C82 1.550 . S
O83 C89 1.412 . S
H84 C82 0.973 . S
C85 H78 0.929 1_554 S
C85 C86 1.400 1_554 S
C85 C87 1.364 . S
C86 C85 1.400 1_556 S
C86 C90 1.377 . S
C87 C85 1.364 . S
C87 C88 1.374 . S
C88 H79 0.930 . S
C88 C87 1.374 . S
C88 C89 1.383 . S
C89 O83 1.412 . S
C89 C88 1.383 . S
C89 C90 1.394 1_554 S
C90 H80 0.929 . S
C90 C86 1.377 . S
C90 C89 1.394 1_556 S
H91 C98 0.929 . S
H92 C101 0.930 . S
H93 C103 0.929 . S
H94 C95 0.969 . S
C95 H94 0.969 . S
C95 O96 1.550 . S
C95 H97 0.973 . S
O96 C95 1.550 . S
O96 C102 1.412 . S
H97 C95 0.973 . S
C98 H91 0.929 . S
C98 C99 1.400 1_554 S
C98 C100 1.364 . S
C99 C98 1.400 1_556 S
C99 C103 1.377 . S
C100 C98 1.364 . S
C100 C101 1.374 . S
C101 H92 0.930 . S
C101 C100 1.374 . S
C101 C102 1.383 . S
C102 O96 1.412 . S
C102 C101 1.383 . S
C102 C103 1.394 1_554 S
C103 H93 0.929 . S
C103 C99 1.377 . S
C103 C102 1.394 1_556 S
Eu104 C113 2.828 . S
Eu104 O115 2.392 . S
Eu104 O117 2.418 1_545 S
Eu104 O122 2.373 1_655 S
Eu104 O125 2.488 . S
Eu104 O126 2.479 . S
Eu104 O127 2.349 1_655 S
Eu105 O114 2.373 1_455 S
Eu105 O118 2.488 . S
Eu105 O119 2.471 . S
Eu105 O120 2.349 . S
Eu105 O123 2.392 1_565 S
Eu105 O124 2.418 1_565 S
Eu105 C134 2.828 . S
C106 O124 1.244 . S
C106 O127 1.265 . S
C107 C108 1.379 1_655 S
C107 C111 1.373 . S
C107 C113 1.505 . S
C108 C107 1.379 1_455 S
C108 C110 1.369 . S
C108 H136 0.930 . S
C109 C111 1.383 . S
C109 C112 1.382 1_655 S
C109 H137 0.930 . S
C110 C108 1.369 . S
C110 C112 1.392 . S
C110 H138 0.930 . S
C111 C107 1.373 . S
C111 C109 1.383 . S
C111 H139 0.931 . S
C112 C109 1.382 1_455 S
C112 C110 1.392 . S
C113 Eu104 2.828 . S
C113 C107 1.505 . S
C113 O125 1.249 . S
C113 O126 1.250 . S
O114 Eu105 2.373 1_655 S
O114 C116 1.258 1_565 S
O115 Eu104 2.392 . S
O115 C116 1.242 . S
C116 O114 1.258 1_545 S
C116 O115 1.242 . S
O117 Eu104 2.418 1_565 S
O117 C121 1.244 . S
O118 Eu105 2.488 . S
O118 C134 1.249 . S
O119 Eu105 2.471 . S
O119 C134 1.244 . S
O120 Eu105 2.349 . S
O120 C121 1.265 1_455 S
C121 O117 1.244 . S
C121 O120 1.265 1_655 S
O122 Eu104 2.373 1_455 S
O122 C135 1.258 . S
O123 Eu105 2.392 1_545 S
O123 C135 1.242 . S
O124 Eu105 2.418 1_545 S
O124 C106 1.244 . S
O125 Eu104 2.488 . S
O125 C113 1.249 . S
O126 Eu104 2.479 . S
O126 C113 1.250 . S
O127 Eu104 2.349 1_455 S
O127 C106 1.265 . S
C128 C129 1.379 . S
C128 C132 1.373 1_556 S
C128 C134 1.505 . S
C129 C128 1.379 . S
C129 C131 1.376 1_556 S
C129 H140 0.930 1_455 S
C130 C132 1.383 . S
C130 C133 1.382 . S
C130 H141 0.930 . S
C131 C129 1.376 1_554 S
C131 C133 1.404 . S
C131 H142 0.914 1_455 S
C132 C128 1.373 1_554 S
C132 C130 1.383 . S
C132 H143 0.931 . S
C133 C130 1.382 . S
C133 C131 1.404 . S
C134 Eu105 2.828 . S
C134 O118 1.249 . S
C134 O119 1.244 . S
C134 C128 1.505 . S
C135 O122 1.258 . S
C135 O123 1.242 . S
H136 C108 0.930 . S
H137 C109 0.930 . S
H138 C110 0.930 . S
H139 C111 0.931 . S
H140 C129 0.930 1_655 S
H141 C130 0.930 . S
H142 C131 0.914 1_655 S
H143 C132 0.931 . S
Eu144 C153 2.828 . S
Eu144 O155 2.392 . S
Eu144 O157 2.418 . S
Eu144 O162 2.373 . S
Eu144 O165 2.488 . S
Eu144 O166 2.471 . S
Eu144 O167 2.349 1_545 S
Eu145 O154 2.373 1_565 S
Eu145 O158 2.488 . S
Eu145 O159 2.471 1_565 S
Eu145 O160 2.349 1_565 S
Eu145 O163 2.392 . S
Eu145 O164 2.418 . S
Eu145 C174 2.828 . S
C146 O164 1.244 . S
C146 O167 1.265 . S
C147 C148 1.379 . S
C147 C151 1.373 . S
C147 C153 1.505 . S
C148 C147 1.379 . S
C148 C150 1.369 . S
C148 H176 0.930 1_545 S
C149 C151 1.383 . S
C149 C152 1.382 . S
C149 H177 0.930 . S
C150 C148 1.369 . S
C150 C152 1.392 . S
C150 H178 0.930 1_545 S
C151 C147 1.373 . S
C151 C149 1.383 . S
C151 H179 0.931 . S
C152 C149 1.382 . S
C152 C150 1.392 . S
C153 Eu144 2.828 . S
C153 C147 1.505 . S
C153 O165 1.249 . S
C153 O166 1.244 . S
O154 Eu145 2.373 1_545 S
O154 C156 1.258 . S
O155 Eu144 2.392 . S
O155 C156 1.242 . S
C156 O154 1.258 . S
C156 O155 1.242 . S
O157 Eu144 2.418 . S
O157 C161 1.244 . S
O158 Eu145 2.488 . S
O158 C174 1.249 . S
O159 Eu145 2.471 1_545 S
O159 C174 1.244 1_545 S
O160 Eu145 2.349 1_545 S
O160 C161 1.265 . S
C161 O157 1.244 . S
C161 O160 1.265 . S
O162 Eu144 2.373 . S
O162 C175 1.258 1_545 S
O163 Eu145 2.392 . S
O163 C175 1.242 . S
O164 Eu145 2.418 . S
O164 C146 1.244 . S
O165 Eu144 2.488 . S
O165 C153 1.249 . S
O166 Eu144 2.471 . S
O166 C153 1.244 . S
O167 Eu144 2.349 1_565 S
O167 C146 1.265 . S
C168 C169 1.379 1_565 S
C168 C172 1.373 . S
C168 C174 1.505 . S
C169 C168 1.379 1_545 S
C169 C171 1.369 . S
C169 H180 0.930 . S
C170 C172 1.383 . S
C170 C173 1.382 . S
C170 H181 0.930 . S
C171 C169 1.369 . S
C171 C173 1.392 1_545 S
C171 H182 0.930 . S
C172 C168 1.373 . S
C172 C170 1.383 . S
C172 H183 0.931 . S
C173 C170 1.382 . S
C173 C171 1.392 1_565 S
C174 Eu145 2.828 . S
C174 O158 1.249 . S
C174 O159 1.244 1_565 S
C174 C168 1.505 . S
C175 O162 1.258 1_565 S
C175 O163 1.242 . S
H176 C148 0.930 1_565 S
H177 C149 0.930 . S
H178 C150 0.930 1_565 S
H179 C151 0.931 . S
H180 C169 0.930 . S
H181 C170 0.930 . S
H182 C171 0.930 . S
H183 C172 0.931 . S
Eu184 C193 2.828 . S
Eu184 O195 2.392 . S
Eu184 O197 2.418 . S
Eu184 O202 2.373 . S
Eu184 O205 2.488 . S
Eu184 O206 2.471 . S
Eu184 O207 2.349 . S
Eu185 O194 2.373 . S
Eu185 O198 2.488 . S
Eu185 O199 2.471 . S
Eu185 O200 2.349 . S
Eu185 O203 2.392 . S
Eu185 O204 2.418 . S
Eu185 C214 2.828 . S
C186 O204 1.244 . S
C186 O207 1.265 . S
C187 C188 1.379 . S
C187 C191 1.373 . S
C187 C193 1.505 . S
C188 C187 1.379 . S
C188 C190 1.369 . S
C188 H216 0.930 . S
C189 C191 1.383 . S
C189 C192 1.382 . S
C189 H217 0.930 . S
C190 C188 1.369 . S
C190 C192 1.392 . S
C190 H218 0.930 . S
C191 C187 1.373 . S
C191 C189 1.383 . S
C191 H219 0.931 . S
C192 C189 1.382 . S
C192 C190 1.392 . S
C193 Eu184 2.828 . S
C193 C187 1.505 . S
C193 O205 1.249 . S
C193 O206 1.244 . S
O194 Eu185 2.373 . S
O194 C196 1.258 . S
O195 Eu184 2.392 . S
O195 C196 1.242 . S
C196 O194 1.258 . S
C196 O195 1.242 . S
O197 Eu184 2.418 . S
O197 C201 1.244 . S
O198 Eu185 2.488 . S
O198 C214 1.249 . S
O199 Eu185 2.471 . S
O199 C214 1.244 . S
O200 Eu185 2.349 . S
O200 C201 1.265 . S
C201 O197 1.244 . S
C201 O200 1.265 . S
O202 Eu184 2.373 . S
O202 C215 1.258 . S
O203 Eu185 2.392 . S
O203 C215 1.242 . S
O204 Eu185 2.418 . S
O204 C186 1.244 . S
O205 Eu184 2.488 . S
O205 C193 1.249 . S
O206 Eu184 2.471 . S
O206 C193 1.244 . S
O207 Eu184 2.349 . S
O207 C186 1.265 . S
C208 C209 1.379 . S
C208 C212 1.373 . S
C208 C214 1.505 . S
C209 C208 1.379 . S
C209 C211 1.369 . S
C209 H220 0.930 . S
C210 C212 1.383 . S
C210 C213 1.382 . S
C210 H221 0.930 . S
C211 C209 1.369 . S
C211 C213 1.392 . S
C211 H222 0.930 . S
C212 C208 1.373 . S
C212 C210 1.383 . S
C212 H223 0.931 . S
C213 C210 1.382 . S
C213 C211 1.392 . S
C214 Eu185 2.828 . S
C214 O198 1.249 . S
C214 O199 1.244 . S
C214 C208 1.505 . S
C215 O202 1.258 . S
C215 O203 1.242 . S
H216 C188 0.930 . S
H217 C189 0.930 . S
H218 C190 0.930 . S
H219 C191 0.931 . S
H220 C209 0.930 . S
H221 C210 0.930 . S
H222 C211 0.930 . S
H223 C212 0.931 . S
Eu224 C233 2.828 . S
Eu224 O235 2.392 . S
Eu224 O237 2.418 1_455 S
Eu224 O242 2.373 . S
Eu224 O245 2.488 . S
Eu224 O246 2.471 . S
Eu224 O247 2.349 . S
Eu225 O234 2.373 . S
Eu225 O238 2.488 . S
Eu225 O239 2.471 . S
Eu225 O240 2.349 . S
Eu225 O243 2.392 1_655 S
Eu225 O244 2.418 1_655 S
Eu225 C254 2.828 . S
C226 O244 1.244 . S
C226 O247 1.265 . S
C227 C228 1.379 . S
C227 C231 1.373 . S
C227 C233 1.505 . S
C228 C227 1.379 . S
C228 C230 1.369 . S
C228 H256 0.930 . S
C229 C231 1.383 . S
C229 C232 1.382 . S
C229 H257 0.930 . S
C230 C228 1.369 . S
C230 C232 1.392 . S
C230 H258 0.930 . S
C231 C227 1.373 . S
C231 C229 1.383 . S
C231 H259 0.931 . S
C232 C229 1.382 . S
C232 C230 1.392 . S
C233 Eu224 2.828 . S
C233 C227 1.505 . S
C233 O245 1.249 . S
C233 O246 1.244 . S
O234 Eu225 2.373 . S
O234 C236 1.251 1_655 S
O235 Eu224 2.392 . S
O235 C236 1.261 . S
C236 O234 1.251 1_455 S
C236 O235 1.261 . S
O237 Eu224 2.418 1_655 S
O237 C241 1.244 . S
O238 Eu225 2.488 . S
O238 C254 1.249 . S
O239 Eu225 2.471 . S
O239 C254 1.244 . S
O240 Eu225 2.349 . S
O240 C241 1.265 . S
C241 O237 1.244 . S
C241 O240 1.265 . S
O242 Eu224 2.373 . S
O242 C255 1.258 . S
O243 Eu225 2.392 1_455 S
O243 C255 1.242 . S
O244 Eu225 2.418 1_455 S
O244 C226 1.244 . S
O245 Eu224 2.488 . S
O245 C233 1.249 . S
O246 Eu224 2.471 . S
O246 C233 1.244 . S
O247 Eu224 2.349 . S
O247 C226 1.265 . S
C248 C249 1.379 . S
C248 C252 1.373 1_556 S
C248 C254 1.505 . S
C249 C248 1.379 . S
C249 C251 1.369 . S
C249 H260 0.930 . S
C250 C252 1.383 . S
C250 C253 1.382 . S
C250 H261 0.930 . S
C251 C249 1.369 . S
C251 C253 1.392 1_556 S
C251 H262 0.930 . S
C252 C248 1.373 1_554 S
C252 C250 1.383 . S
C252 H263 0.931 . S
C253 C250 1.382 . S
C253 C251 1.392 1_554 S
C254 Eu225 2.828 . S
C254 O238 1.249 . S
C254 O239 1.244 . S
C254 C248 1.505 . S
C255 O242 1.258 . S
C255 O243 1.242 . S
H256 C228 0.930 . S
H257 C229 0.930 . S
H258 C230 0.930 . S
H259 C231 0.931 . S
H260 C249 0.930 . S
H261 C250 0.930 . S
H262 C251 0.930 . S
H263 C252 0.931 . S
H264 C272 0.950 . S
H265 C277 0.950 . S
H266 C274 0.950 . S
H267 C276 0.950 . S
H268 C278 0.950 . S
H269 C280 0.950 . S
H270 C282 0.950 . S
H271 C283 0.950 . S
C272 H264 0.950 . S
C272 C273 1.386 . S
C272 C274 1.391 . S
C273 C272 1.386 . S
C273 C277 1.393 . S
C274 H266 0.950 . S
C274 C272 1.391 . S
C274 C275 1.400 . S
C275 C274 1.400 . S
C275 C276 1.398 . S
C275 C281 1.491 . S
C276 H267 0.950 . S
C276 C275 1.398 . S
C276 C277 1.391 . S
C277 H265 0.950 . S
C277 C273 1.393 . S
C277 C276 1.391 . S
C278 H268 0.950 . S
C278 C279 1.386 . S
C278 C280 1.391 . S
C279 C278 1.386 . S
C279 C283 1.393 . S
C280 H269 0.950 . S
C280 C278 1.391 . S
C280 C281 1.400 . S
C281 C275 1.491 . S
C281 C280 1.400 . S
C281 C282 1.398 . S
C282 H270 0.950 . S
C282 C281 1.398 . S
C282 C283 1.391 . S
C283 H271 0.950 . S
C283 C279 1.393 . S
C283 C282 1.391 . S
H284 C292 0.950 . S
H285 C297 0.950 . S
H286 C294 0.950 . S
H287 C296 0.950 . S
H288 C298 0.950 . S
H289 C300 0.950 . S
H290 C302 0.950 . S
H291 C303 0.950 . S
C292 H284 0.950 . S
C292 C293 1.386 . S
C292 C294 1.391 . S
C293 C292 1.386 . S
C293 C297 1.393 . S
C294 H286 0.950 . S
C294 C292 1.391 . S
C294 C295 1.400 . S
C295 C294 1.400 . S
C295 C296 1.398 . S
C295 C301 1.491 . S
C296 H287 0.950 . S
C296 C295 1.398 . S
C296 C297 1.391 . S
C297 H285 0.950 . S
C297 C293 1.393 . S
C297 C296 1.391 . S
C298 H288 0.950 . S
C298 C299 1.386 . S
C298 C300 1.391 . S
C299 C298 1.386 . S
C299 C303 1.393 . S
C300 H289 0.950 . S
C300 C298 1.391 . S
C300 C301 1.400 . S
C301 C295 1.491 . S
C301 C300 1.400 . S
C301 C302 1.398 . S
C302 H290 0.950 . S
C302 C301 1.398 . S
C302 C303 1.391 . S
C303 H291 0.950 . S
C303 C299 1.393 . S
C303 C302 1.391 . S
H304 C312 0.950 . S
H305 C317 0.950 . S
H306 C314 0.950 . S
H307 C316 0.950 . S
H308 C318 0.950 . S
H309 C320 0.950 . S
H310 C322 0.950 . S
H311 C323 0.950 . S
C312 H304 0.950 . S
C312 C313 1.386 . S
C312 C314 1.391 . S
C313 C312 1.386 . S
C313 C317 1.393 . S
C314 H306 0.950 . S
C314 C312 1.391 . S
C314 C315 1.400 . S
C315 C314 1.400 . S
C315 C316 1.398 . S
C315 C321 1.491 . S
C316 H307 0.950 . S
C316 C315 1.398 . S
C316 C317 1.391 . S
C317 H305 0.950 . S
C317 C313 1.393 . S
C317 C316 1.391 . S
C318 H308 0.950 . S
C318 C319 1.386 . S
C318 C320 1.391 . S
C319 C318 1.386 . S
C319 C323 1.393 . S
C320 H309 0.950 . S
C320 C318 1.391 . S
C320 C321 1.400 . S
C321 C315 1.491 . S
C321 C320 1.400 . S
C321 C322 1.398 . S
C322 H310 0.950 . S
C322 C321 1.398 . S
C322 C323 1.391 . S
C323 H311 0.950 . S
C323 C319 1.393 . S
C323 C322 1.391 . S
H324 C332 0.950 . S
H325 C337 0.950 . S
H326 C334 0.950 . S
H327 C336 0.950 . S
H328 C338 0.950 . S
H329 C340 0.950 . S
H330 C342 0.950 . S
H331 C343 0.950 . S
C332 H324 0.950 . S
C332 C333 1.386 . S
C332 C334 1.391 . S
C333 C332 1.386 . S
C333 C337 1.393 . S
C334 H326 0.950 . S
C334 C332 1.391 . S
C334 C335 1.400 . S
C335 C334 1.400 . S
C335 C336 1.398 . S
C335 C341 1.491 . S
C336 H327 0.950 . S
C336 C335 1.398 . S
C336 C337 1.391 . S
C337 H325 0.950 . S
C337 C333 1.393 . S
C337 C336 1.391 . S
C338 H328 0.950 . S
C338 C339 1.386 . S
C338 C340 1.391 . S
C339 C338 1.386 . S
C339 C343 1.393 . S
C340 H329 0.950 . S
C340 C338 1.391 . S
C340 C341 1.400 . S
C341 C335 1.491 . S
C341 C340 1.400 . S
C341 C342 1.398 . S
C342 H330 0.950 . S
C342 C341 1.398 . S
C342 C343 1.391 . S
C343 H331 0.950 . S
C343 C339 1.393 . S
C343 C342 1.391 . S
H344 C352 0.950 . S
H345 C357 0.950 . S
H346 C354 0.950 . S
H347 C356 0.950 . S
H348 C358 0.950 . S
H349 C360 0.950 . S
H350 C362 0.950 . S
H351 C363 0.950 1_545 S
C352 H344 0.950 . S
C352 C353 1.386 . S
C352 C354 1.391 . S
C353 C352 1.386 . S
C353 C357 1.393 . S
C354 H346 0.950 . S
C354 C352 1.391 . S
C354 C355 1.400 . S
C355 C354 1.400 . S
C355 C356 1.398 . S
C355 C361 1.491 . S
C356 H347 0.950 . S
C356 C355 1.398 . S
C356 C357 1.391 . S
C357 H345 0.950 . S
C357 C353 1.393 . S
C357 C356 1.391 . S
C358 H348 0.950 . S
C358 C359 1.386 . S
C358 C360 1.391 1_556 S
C359 C358 1.386 . S
C359 C363 1.393 . S
C360 H349 0.950 . S
C360 C358 1.391 1_554 S
C360 C361 1.400 . S
C361 C355 1.491 . S
C361 C360 1.400 . S
C361 C362 1.398 1_554 S
C362 H350 0.950 . S
C362 C361 1.398 1_556 S
C362 C363 1.391 . S
C363 H351 0.950 1_565 S
C363 C359 1.393 . S
C363 C362 1.391 . S
H364 C372 0.950 . S
H365 C377 0.950 . S
H366 C374 0.950 . S
H367 C376 0.950 . S
H368 C378 0.950 . S
H369 C380 0.950 1_554 S
H370 C382 0.950 . S
H371 C383 0.950 . S
C372 H364 0.950 . S
C372 C373 1.386 . S
C372 C374 1.391 . S
C373 C372 1.386 . S
C373 C377 1.393 . S
C374 H366 0.950 . S
C374 C372 1.391 . S
C374 C375 1.400 . S
C375 C374 1.400 . S
C375 C376 1.398 . S
C375 C381 1.491 1_554 S
C376 H367 0.950 . S
C376 C375 1.398 . S
C376 C377 1.391 . S
C377 H365 0.950 . S
C377 C373 1.393 . S
C377 C376 1.391 . S
C378 H368 0.950 . S
C378 C379 1.386 . S
C378 C380 1.391 . S
C379 C378 1.386 . S
C379 C383 1.393 . S
C380 H369 0.950 1_556 S
C380 C378 1.391 . S
C380 C381 1.400 . S
C381 C375 1.491 1_556 S
C381 C380 1.400 . S
C381 C382 1.398 . S
C382 H370 0.950 . S
C382 C381 1.398 . S
C382 C383 1.391 . S
C383 H371 0.950 . S
C383 C379 1.393 . S
C383 C382 1.391 . S
H384 C392 0.950 . S
H385 C397 0.950 . S
H386 C394 0.950 . S
H387 C396 0.950 1_556 S
H388 C398 0.950 . S
H389 C400 0.950 . S
H390 C402 0.950 1_554 S
H391 C403 0.950 . S
C392 H384 0.950 . S
C392 C393 1.386 . S
C392 C394 1.391 . S
C393 C392 1.386 . S
C393 C397 1.393 . S
C394 H386 0.950 . S
C394 C392 1.391 . S
C394 C395 1.400 . S
C395 C394 1.400 . S
C395 C396 1.398 . S
C395 C401 1.491 1_554 S
C396 H387 0.950 1_554 S
C396 C395 1.398 . S
C396 C397 1.391 . S
C397 H385 0.950 . S
C397 C393 1.393 . S
C397 C396 1.391 . S
C398 H388 0.950 . S
C398 C399 1.386 . S
C398 C400 1.391 . S
C399 C398 1.386 . S
C399 C403 1.393 . S
C400 H389 0.950 . S
C400 C398 1.391 . S
C400 C401 1.400 . S
C401 C395 1.491 1_556 S
C401 C400 1.400 . S
C401 C402 1.398 . S
C402 H390 0.950 1_556 S
C402 C401 1.398 . S
C402 C403 1.391 . S
C403 H391 0.950 . S
C403 C399 1.393 . S
C403 C402 1.391 . S
H404 C412 0.950 . S
H405 C417 0.950 . S
H406 C414 0.950 . S
H407 C416 0.950 . S
H408 C418 0.950 . S
H409 C420 0.950 . S
H410 C422 0.950 1_455 S
H411 C423 0.950 . S
C412 H404 0.950 . S
C412 C413 1.386 . S
C412 C414 1.391 . S
C413 C412 1.386 . S
C413 C417 1.393 . S
C414 H406 0.950 . S
C414 C412 1.391 . S
C414 C415 1.400 . S
C415 C414 1.400 . S
C415 C416 1.398 . S
C415 C421 1.491 . S
C416 H407 0.950 . S
C416 C415 1.398 . S
C416 C417 1.391 . S
C417 H405 0.950 . S
C417 C413 1.393 . S
C417 C416 1.391 . S
C418 H408 0.950 . S
C418 C419 1.386 . S
C418 C420 1.391 . S
C419 C418 1.386 . S
C419 C423 1.393 1_655 S
C420 H409 0.950 . S
C420 C418 1.391 . S
C420 C421 1.400 1_556 S
C421 C415 1.491 . S
C421 C420 1.400 1_554 S
C421 C422 1.398 . S
C422 H410 0.950 1_655 S
C422 C421 1.398 . S
C422 C423 1.391 1_654 S
C423 H411 0.950 . S
C423 C419 1.393 1_455 S
C423 C422 1.391 1_456 S
H424 C432 0.950 . S
H425 C437 0.950 . S
H426 C434 0.950 . S
H427 C436 0.950 . S
H428 C438 0.950 . S
H429 C440 0.950 . S
H430 C442 0.940 1_655 S
H431 C443 0.950 . S
C432 H424 0.950 . S
C432 C433 1.386 . S
C432 C434 1.391 . S
C433 C432 1.386 . S
C433 C437 1.393 . S
C434 H426 0.950 . S
C434 C432 1.391 . S
C434 C435 1.400 . S
C435 C434 1.400 . S
C435 C436 1.398 . S
C435 C441 1.491 . S
C436 H427 0.950 . S
C436 C435 1.398 . S
C436 C437 1.391 . S
C437 H425 0.950 . S
C437 C433 1.393 . S
C437 C436 1.391 . S
C438 H428 0.950 . S
C438 C439 1.386 . S
C438 C440 1.391 . S
C439 C438 1.386 . S
C439 C443 1.393 1_455 S
C440 H429 0.950 . S
C440 C438 1.391 . S
C440 C441 1.400 . S
C441 C435 1.491 . S
C441 C440 1.400 . S
C441 C442 1.398 . S
C442 H430 0.940 1_455 S
C442 C441 1.398 . S
C442 C443 1.391 1_455 S
C443 H431 0.950 . S
C443 C439 1.393 1_655 S
C443 C442 1.391 1_655 S
H444 C452 0.950 . S
H445 C457 0.950 . S
H446 C454 0.950 . S
H447 C456 0.950 . S
H448 C458 0.950 . S
H449 C460 0.950 . S
H450 C462 0.950 . S
H451 C463 0.950 . S
C452 H444 0.950 . S
C452 C453 1.386 . S
C452 C454 1.391 . S
C453 C452 1.386 . S
C453 C457 1.393 . S
C454 H446 0.950 . S
C454 C452 1.391 . S
C454 C455 1.400 . S
C455 C454 1.400 . S
C455 C456 1.398 . S
C455 C461 1.491 . S
C456 H447 0.950 . S
C456 C455 1.398 . S
C456 C457 1.391 . S
C457 H445 0.950 . S
C457 C453 1.393 . S
C457 C456 1.391 . S
C458 H448 0.950 . S
C458 C459 1.386 . S
C458 C460 1.391 . S
C459 C458 1.386 . S
C459 C463 1.393 1_565 S
C460 H449 0.950 . S
C460 C458 1.391 . S
C460 C461 1.400 1_565 S
C461 C455 1.491 . S
C461 C460 1.400 1_545 S
C461 C462 1.398 . S
C462 H450 0.950 . S
C462 C461 1.398 . S
C462 C463 1.391 . S
C463 H451 0.950 . S
C463 C459 1.393 1_545 S
C463 C462 1.391 . S
H464 C472 0.950 . S
H465 C477 0.950 . S
H466 C474 0.950 . S
H467 C476 0.950 . S
H468 C478 0.950 . S
H469 C480 0.950 . S
H470 C482 0.950 . S
H471 C483 0.950 . S
C472 H464 0.950 . S
C472 C473 1.386 . S
C472 C474 1.391 . S
C473 C472 1.386 . S
C473 C477 1.393 . S
C474 H466 0.950 . S
C474 C472 1.391 . S
C474 C475 1.400 . S
C475 C474 1.400 . S
C475 C476 1.398 . S
C475 C481 1.491 . S
C476 H467 0.950 . S
C476 C475 1.398 . S
C476 C477 1.391 . S
C477 H465 0.950 . S
C477 C473 1.393 . S
C477 C476 1.391 . S
C478 H468 0.950 . S
C478 C479 1.386 . S
C478 C480 1.391 . S
C479 C478 1.386 . S
C479 C483 1.393 . S
C480 H469 0.950 . S
C480 C478 1.391 . S
C480 C481 1.400 . S
C481 C475 1.491 . S
C481 C480 1.400 . S
C481 C482 1.398 . S
C482 H470 0.950 . S
C482 C481 1.398 . S
C482 C483 1.391 . S
C483 H471 0.950 . S
C483 C479 1.393 . S
C483 C482 1.391 . S
H484 C492 0.950 . S
H485 C497 0.950 . S
H486 C494 0.950 . S
H487 C496 0.950 . S
H488 C498 0.950 . S
H489 C500 0.950 . S
H490 C502 0.950 . S
H491 C503 0.950 . S
C492 H484 0.950 . S
C492 C493 1.386 . S
C492 C494 1.391 . S
C493 C492 1.386 . S
C493 C497 1.393 . S
C494 H486 0.950 . S
C494 C492 1.391 . S
C494 C495 1.400 . S
C495 C494 1.400 . S
C495 C496 1.398 . S
C495 C501 1.491 . S
C496 H487 0.950 . S
C496 C495 1.398 . S
C496 C497 1.391 . S
C497 H485 0.950 . S
C497 C493 1.393 . S
C497 C496 1.391 . S
C498 H488 0.950 . S
C498 C499 1.386 . S
C498 C500 1.391 . S
C499 C498 1.386 . S
C499 C503 1.393 . S
C500 H489 0.950 . S
C500 C498 1.391 . S
C500 C501 1.400 . S
C501 C495 1.491 . S
C501 C500 1.400 . S
C501 C502 1.398 . S
C502 H490 0.950 . S
C502 C501 1.398 . S
C502 C503 1.391 . S
C503 H491 0.950 . S
C503 C499 1.393 . S
C503 C502 1.391 . S
H504 C512 0.950 . S
H505 C517 0.950 . S
H506 C514 0.950 1_455 S
H507 C516 0.950 . S
H508 C518 0.950 . S
H509 C520 0.950 . S
H510 C522 0.950 . S
H511 C523 0.950 . S
C512 H504 0.950 . S
C512 C513 1.386 . S
C512 C514 1.391 . S
C513 C512 1.386 . S
C513 C517 1.393 . S
C514 H506 0.950 1_655 S
C514 C512 1.391 . S
C514 C515 1.400 . S
C515 C514 1.400 . S
C515 C516 1.398 . S
C515 C521 1.491 . S
C516 H507 0.950 . S
C516 C515 1.398 . S
C516 C517 1.391 . S
C517 H505 0.950 . S
C517 C513 1.393 . S
C517 C516 1.391 . S
C518 H508 0.950 . S
C518 C519 1.386 1_655 S
C518 C520 1.391 . S
C519 C518 1.386 1_455 S
C519 C523 1.393 . S
C520 H509 0.950 . S
C520 C518 1.391 . S
C520 C521 1.400 . S
C521 C515 1.491 . S
C521 C520 1.400 . S
C521 C522 1.398 1_655 S
C522 H510 0.950 . S
C522 C521 1.398 1_455 S
C522 C523 1.391 . S
C523 H511 0.950 . S
C523 C519 1.393 . S
C523 C522 1.391 . S
H524 C532 0.950 . S
H525 C537 0.950 . S
H526 C534 0.950 . S
H527 C536 0.950 . S
H528 C538 0.950 . S
H529 C540 0.950 . S
H530 C542 0.950 . S
H531 C543 0.950 1_556 S
C532 H524 0.950 . S
C532 C533 1.386 . S
C532 C534 1.391 . S
C533 C532 1.386 . S
C533 C537 1.393 1_565 S
C534 H526 0.950 . S
C534 C532 1.391 . S
C534 C535 1.400 . S
C535 C534 1.400 . S
C535 C536 1.398 1_565 S
C535 C541 1.491 1_565 S
C536 H527 0.950 . S
C536 C535 1.398 1_545 S
C536 C537 1.391 . S
C537 H525 0.950 . S
C537 C533 1.393 1_545 S
C537 C536 1.391 . S
C538 H528 0.950 . S
C538 C539 1.386 . S
C538 C540 1.391 . S
C539 C538 1.386 . S
C539 C543 1.393 1_545 S
C540 H529 0.950 . S
C540 C538 1.391 . S
C540 C541 1.400 . S
C541 C535 1.491 1_545 S
C541 C540 1.400 . S
C541 C542 1.398 1_545 S
C542 H530 0.950 . S
C542 C541 1.398 1_565 S
C542 C543 1.391 . S
C543 H531 0.950 1_554 S
C543 C539 1.393 1_565 S
C543 C542 1.391 . S
H544 C552 0.950 . S
H545 C557 0.950 . S
H546 C554 0.950 . S
H547 C556 0.950 . S
H548 C558 0.950 . S
H549 C560 0.950 . S
H550 C562 0.950 . S
H551 C563 0.950 . S
C552 H544 0.950 . S
C552 C553 1.386 . S
C552 C554 1.391 . S
C553 C552 1.386 . S
C553 C557 1.393 . S
C554 H546 0.950 . S
C554 C552 1.391 . S
C554 C555 1.400 . S
C555 C554 1.400 . S
C555 C556 1.398 . S
C555 C561 1.491 . S
C556 H547 0.950 . S
C556 C555 1.398 . S
C556 C557 1.391 . S
C557 H545 0.950 . S
C557 C553 1.393 . S
C557 C556 1.391 . S
C558 H548 0.950 . S
C558 C559 1.386 . S
C558 C560 1.391 1_556 S
C559 C558 1.386 . S
C559 C563 1.393 1_556 S
C560 H549 0.950 . S
C560 C558 1.391 1_554 S
C560 C561 1.400 . S
C561 C555 1.491 . S
C561 C560 1.400 . S
C561 C562 1.398 . S
C562 H550 0.950 . S
C562 C561 1.398 . S
C562 C563 1.391 . S
C563 H551 0.950 . S
C563 C559 1.393 1_554 S
C563 C562 1.391 . S
H564 C572 0.950 . S
H565 C577 0.950 . S
H566 C574 0.950 . S
H567 C576 0.950 . S
H568 C578 0.950 . S
H569 C580 0.950 . S
H570 C582 0.950 . S
H571 C583 0.950 . S
C572 H564 0.950 . S
C572 C573 1.386 . S
C572 C574 1.391 . S
C573 C572 1.386 . S
C573 C577 1.393 . S
C574 H566 0.950 . S
C574 C572 1.391 . S
C574 C575 1.400 . S
C575 C574 1.400 . S
C575 C576 1.398 . S
C575 C581 1.491 . S
C576 H567 0.950 . S
C576 C575 1.398 . S
C576 C577 1.391 . S
C577 H565 0.950 . S
C577 C573 1.393 . S
C577 C576 1.391 . S
C578 H568 0.950 . S
C578 C579 1.386 . S
C578 C580 1.391 . S
C579 C578 1.386 . S
C579 C583 1.393 . S
C580 H569 0.950 . S
C580 C578 1.391 . S
C580 C581 1.400 . S
C581 C575 1.491 . S
C581 C580 1.400 . S
C581 C582 1.398 . S
C582 H570 0.950 . S
C582 C581 1.398 . S
C582 C583 1.391 . S
C583 H571 0.950 . S
C583 C579 1.393 . S
C583 C582 1.391 . S
H584 C592 0.950 . S
H585 C597 0.950 . S
H586 C594 0.950 . S
H587 C596 0.950 . S
H588 C598 0.950 . S
H589 C600 0.950 . S
H590 C602 0.950 . S
H591 C603 0.950 . S
C592 H584 0.950 . S
C592 C593 1.386 . S
C592 C594 1.391 . S
C593 C592 1.386 . S
C593 C597 1.393 . S
C594 H586 0.950 . S
C594 C592 1.391 . S
C594 C595 1.400 . S
C595 C594 1.400 . S
C595 C596 1.398 . S
C595 C601 1.491 . S
C596 H587 0.950 . S
C596 C595 1.398 . S
C596 C597 1.391 . S
C597 H585 0.950 . S
C597 C593 1.393 . S
C597 C596 1.391 . S
C598 H588 0.950 . S
C598 C599 1.386 . S
C598 C600 1.391 . S
C599 C598 1.386 . S
C599 C603 1.393 . S
C600 H589 0.950 . S
C600 C598 1.391 . S
C600 C601 1.400 . S
C601 C595 1.491 . S
C601 C600 1.400 . S
C601 C602 1.398 . S
C602 H590 0.950 . S
C602 C601 1.398 . S
C602 C603 1.391 . S
C603 H591 0.950 . S
C603 C599 1.393 . S
C603 C602 1.391 . S
H604 C612 0.950 . S
H605 C617 0.950 . S
H606 C614 0.950 . S
H607 C616 0.950 . S
H608 C618 0.950 . S
H609 C620 0.950 . S
H610 C622 0.950 . S
H611 C623 0.950 . S
C612 H604 0.950 . S
C612 C613 1.386 . S
C612 C614 1.391 . S
C613 C612 1.386 . S
C613 C617 1.393 . S
C614 H606 0.950 . S
C614 C612 1.391 . S
C614 C615 1.400 . S
C615 C614 1.400 . S
C615 C616 1.398 . S
C615 C621 1.491 . S
C616 H607 0.950 . S
C616 C615 1.398 . S
C616 C617 1.391 . S
C617 H605 0.950 . S
C617 C613 1.393 . S
C617 C616 1.391 . S
C618 H608 0.950 . S
C618 C619 1.386 . S
C618 C620 1.391 . S
C619 C618 1.386 . S
C619 C623 1.393 . S
C620 H609 0.950 . S
C620 C618 1.391 . S
C620 C621 1.400 . S
C621 C615 1.491 . S
C621 C620 1.400 . S
C621 C622 1.398 . S
C622 H610 0.950 . S
C622 C621 1.398 . S
C622 C623 1.391 . S
C623 H611 0.950 . S
C623 C619 1.393 . S
C623 C622 1.391 . S
H624 C632 0.950 . S
H625 C637 0.950 . S
H626 C634 0.950 . S
H627 C636 0.950 . S
H628 C638 0.950 . S
H629 C640 0.950 . S
H630 C642 0.950 . S
H631 C643 0.950 . S
C632 H624 0.950 . S
C632 C633 1.386 . S
C632 C634 1.391 . S
C633 C632 1.386 . S
C633 C637 1.393 . S
C634 H626 0.950 . S
C634 C632 1.391 . S
C634 C635 1.400 . S
C635 C634 1.400 . S
C635 C636 1.398 . S
C635 C641 1.491 . S
C636 H627 0.950 . S
C636 C635 1.398 . S
C636 C637 1.391 . S
C637 H625 0.950 . S
C637 C633 1.393 . S
C637 C636 1.391 . S
C638 H628 0.950 . S
C638 C639 1.386 . S
C638 C640 1.391 . S
C639 C638 1.386 . S
C639 C643 1.393 . S
C640 H629 0.950 . S
C640 C638 1.391 . S
C640 C641 1.400 . S
C641 C635 1.491 . S
C641 C640 1.400 . S
C641 C642 1.398 . S
C642 H630 0.950 . S
C642 C641 1.398 . S
C642 C643 1.391 . S
C643 H631 0.950 . S
C643 C639 1.393 . S
C643 C642 1.391 . S
H644 C652 0.950 . S
H645 C657 0.950 . S
H646 C654 0.950 . S
H647 C656 0.950 . S
H648 C658 0.950 . S
H649 C660 0.950 . S
H650 C662 0.950 . S
H651 C663 0.950 . S
C652 H644 0.950 . S
C652 C653 1.386 . S
C652 C654 1.391 . S
C653 C652 1.386 . S
C653 C657 1.393 . S
C654 H646 0.950 . S
C654 C652 1.391 . S
C654 C655 1.400 . S
C655 C654 1.400 . S
C655 C656 1.398 . S
C655 C661 1.491 . S
C656 H647 0.950 . S
C656 C655 1.398 . S
C656 C657 1.391 . S
C657 H645 0.950 . S
C657 C653 1.393 . S
C657 C656 1.391 . S
C658 H648 0.950 . S
C658 C659 1.386 . S
C658 C660 1.391 . S
C659 C658 1.386 . S
C659 C663 1.393 . S
C660 H649 0.950 . S
C660 C658 1.391 . S
C660 C661 1.400 . S
C661 C655 1.491 . S
C661 C660 1.400 . S
C661 C662 1.398 . S
C662 H650 0.950 . S
C662 C661 1.398 . S
C662 C663 1.391 . S
C663 H651 0.950 . S
C663 C659 1.393 . S
C663 C662 1.391 . S
H664 C672 0.950 . S
H665 C677 0.950 1_455 S
H666 C674 0.950 . S
H667 C676 0.939 1_455 S
H668 C678 0.950 . S
H669 C680 0.950 . S
H670 C682 0.950 . S
H671 C683 0.950 . S
C672 H664 0.950 . S
C672 C673 1.386 . S
C672 C674 1.391 . S
C673 C672 1.386 . S
C673 C677 1.393 . S
C674 H666 0.950 . S
C674 C672 1.391 . S
C674 C675 1.400 . S
C675 C674 1.400 . S
C675 C676 1.408 . S
C675 C681 1.491 . S
C676 H667 0.939 1_655 S
C676 C675 1.408 . S
C676 C677 1.392 . S
C677 H665 0.950 1_655 S
C677 C673 1.393 . S
C677 C676 1.392 . S
C678 H668 0.950 . S
C678 C679 1.386 1_455 S
C678 C680 1.391 . S
C679 C678 1.386 1_655 S
C679 C683 1.393 . S
C680 H669 0.950 . S
C680 C678 1.391 . S
C680 C681 1.400 1_455 S
C681 C675 1.491 . S
C681 C680 1.400 1_655 S
C681 C682 1.398 . S
C682 H670 0.950 . S
C682 C681 1.398 . S
C682 C683 1.391 . S
C683 H671 0.950 . S
C683 C679 1.393 . S
C683 C682 1.391 . S
H684 C692 0.950 . S
H685 C697 0.950 . S
H686 C694 0.950 . S
H687 C696 0.950 . S
H688 C698 0.950 . S
H689 C700 0.950 . S
H690 C702 0.950 . S
H691 C703 0.950 . S
C692 H684 0.950 . S
C692 C693 1.386 1_545 S
C692 C694 1.391 . S
C693 C692 1.386 1_565 S
C693 C697 1.393 . S
C694 H686 0.950 . S
C694 C692 1.391 . S
C694 C695 1.400 1_545 S
C695 C694 1.400 1_565 S
C695 C696 1.398 . S
C695 C701 1.491 . S
C696 H687 0.950 . S
C696 C695 1.398 . S
C696 C697 1.391 . S
C697 H685 0.950 . S
C697 C693 1.393 . S
C697 C696 1.391 . S
C698 H688 0.950 . S
C698 C699 1.386 . S
C698 C700 1.391 . S
C699 C698 1.386 . S
C699 C703 1.393 1_565 S
C700 H689 0.950 . S
C700 C698 1.391 . S
C700 C701 1.400 . S
C701 C695 1.491 . S
C701 C700 1.400 . S
C701 C702 1.398 1_565 S
C702 H690 0.950 . S
C702 C701 1.398 1_545 S
C702 C703 1.391 . S
C703 H691 0.950 . S
C703 C699 1.393 1_545 S
C703 C702 1.391 . S
H704 C712 0.950 . S
H705 C717 0.950 . S
H706 C714 0.950 . S
H707 C716 0.950 . S
H708 C718 0.950 . S
H709 C720 0.950 . S
H710 C722 0.950 . S
H711 C723 0.950 . S
C712 H704 0.950 . S
C712 C713 1.386 . S
C712 C714 1.391 . S
C713 C712 1.386 . S
C713 C717 1.393 . S
C714 H706 0.950 . S
C714 C712 1.391 . S
C714 C715 1.400 . S
C715 C714 1.400 . S
C715 C716 1.398 . S
C715 C721 1.491 . S
C716 H707 0.950 . S
C716 C715 1.398 . S
C716 C717 1.391 . S
C717 H705 0.950 . S
C717 C713 1.393 . S
C717 C716 1.391 . S
C718 H708 0.950 . S
C718 C719 1.386 . S
C718 C720 1.391 . S
C719 C718 1.386 . S
C719 C723 1.393 . S
C720 H709 0.950 . S
C720 C718 1.391 . S
C720 C721 1.400 . S
C721 C715 1.491 . S
C721 C720 1.400 . S
C721 C722 1.398 . S
C722 H710 0.950 . S
C722 C721 1.398 . S
C722 C723 1.391 . S
C723 H711 0.950 . S
C723 C719 1.393 . S
C723 C722 1.391 . S
H724 C732 0.950 . S
H725 C737 0.950 . S
H726 C734 0.950 . S
H727 C736 0.950 . S
H728 C738 0.950 . S
H729 C740 0.950 . S
H730 C742 0.950 . S
H731 C743 0.950 . S
C732 H724 0.950 . S
C732 C733 1.386 . S
C732 C734 1.391 . S
C733 C732 1.386 . S
C733 C737 1.393 . S
C734 H726 0.950 . S
C734 C732 1.391 . S
C734 C735 1.400 . S
C735 C734 1.400 . S
C735 C736 1.398 . S
C735 C741 1.491 . S
C736 H727 0.950 . S
C736 C735 1.398 . S
C736 C737 1.391 . S
C737 H725 0.950 . S
C737 C733 1.393 . S
C737 C736 1.391 . S
C738 H728 0.950 . S
C738 C739 1.386 . S
C738 C740 1.391 . S
C739 C738 1.386 . S
C739 C743 1.393 . S
C740 H729 0.950 . S
C740 C738 1.391 . S
C740 C741 1.400 . S
C741 C735 1.491 . S
C741 C740 1.400 . S
C741 C742 1.398 . S
C742 H730 0.950 . S
C742 C741 1.398 . S
C742 C743 1.391 . S
C743 H731 0.950 . S
C743 C739 1.393 . S
C743 C742 1.391 . S
C273 C82 2.009 . S
C279 C135 2.320 . S
C299 C161 1.866 . S
C293 C95 1.568 . S
C319 C201 1.941 . S
C313 C56 1.680 . S
C339 C255 2.362 . S
C333 C69 2.078 . S
C359 C116 2.320 1_565 S
C353 C30 1.963 . S
C373 C43 1.588 . S
C379 C146 1.869 . S
C393 C4 1.657 . S
C399 C186 1.935 . S
C413 C17 2.043 . S
C419 C236 2.355 1_655 S
C439 C112 0.501 . S
C433 C74 0.538 . S
C459 C173 0.671 . S
C453 C87 0.688 . S
C479 C213 0.542 . S
C473 C100 0.565 . S
C493 C61 0.435 . S
C499 C232 0.396 . S
C513 C22 0.578 . S
C519 C133 0.534 . S
C539 C152 0.683 1_554 S
C533 C35 0.656 . S
C559 C192 0.537 . S
C553 C48 0.564 . S
C573 C9 0.499 . S
C579 C253 0.446 . S
C593 C73 1.896 . S
C599 C106 2.103 . S
C613 C86 2.382 . S
C619 C156 2.591 . S
C639 C196 2.374 . S
C633 C99 2.171 . S
C659 C226 1.866 . S
C653 C60 1.706 . S
C673 C21 1.899 . S
C679 C121 2.102 . S
C699 C175 2.589 . S
C693 C34 2.364 . S
C719 C215 2.376 . S
C713 C47 2.194 . S
C733 C8 1.697 . S
C739 C241 1.864 . S
