# Generated by pormake.
# Topology zzz, (3,6)-cn, num edge types: 1
# Building blocks:
#     Node 0, Type 0, BuildingBlock: BETDIP_clean_linker_0, # of connection points: 3
#     Node 1, Type 0, BuildingBlock: BETDIP_clean_linker_0, # of connection points: 3
#     Node 2, Type 0, BuildingBlock: BETDIP_clean_linker_0, # of connection points: 3
#     Node 3, Type 0, BuildingBlock: BETDIP_clean_linker_0, # of connection points: 3
#     Node 4, Type 0, BuildingBlock: BETDIP_clean_linker_0, # of connection points: 3
#     Node 5, Type 0, BuildingBlock: BETDIP_clean_linker_0, # of connection points: 3
#     Node 6, Type 0, BuildingBlock: BETDIP_clean_linker_0, # of connection points: 3
#     Node 7, Type 0, BuildingBlock: BETDIP_clean_linker_0, # of connection points: 3
#     Node 8, Type 1, BuildingBlock: LEVNOQ01_clean_sbu_1, # of connection points: 6
#     Node 9, Type 1, BuildingBlock: LEVNOQ01_clean_sbu_1, # of connection points: 6
#     Node 10, Type 1, BuildingBlock: LEVNOQ01_clean_sbu_1, # of connection points: 6
#     Node 11, Type 1, BuildingBlock: LEVNOQ01_clean_sbu_1, # of connection points: 6
#     Edge 12, Type (0, 1), BuildingBlock: CIFDUS_clean_linker_0, # of connection points: 2
#     Edge 13, Type (0, 1), BuildingBlock: CIFDUS_clean_linker_0, # of connection points: 2
#     Edge 14, Type (0, 1), BuildingBlock: CIFDUS_clean_linker_0, # of connection points: 2
#     Edge 15, Type (0, 1), BuildingBlock: CIFDUS_clean_linker_0, # of connection points: 2
#     Edge 16, Type (0, 1), BuildingBlock: CIFDUS_clean_linker_0, # of connection points: 2
#     Edge 17, Type (0, 1), BuildingBlock: CIFDUS_clean_linker_0, # of connection points: 2
#     Edge 18, Type (0, 1), BuildingBlock: CIFDUS_clean_linker_0, # of connection points: 2
#     Edge 19, Type (0, 1), BuildingBlock: CIFDUS_clean_linker_0, # of connection points: 2
#     Edge 20, Type (0, 1), BuildingBlock: CIFDUS_clean_linker_0, # of connection points: 2
#     Edge 21, Type (0, 1), BuildingBlock: CIFDUS_clean_linker_0, # of connection points: 2
#     Edge 22, Type (0, 1), BuildingBlock: CIFDUS_clean_linker_0, # of connection points: 2
#     Edge 23, Type (0, 1), BuildingBlock: CIFDUS_clean_linker_0, # of connection points: 2
#     Edge 24, Type (0, 1), BuildingBlock: CIFDUS_clean_linker_0, # of connection points: 2
#     Edge 25, Type (0, 1), BuildingBlock: CIFDUS_clean_linker_0, # of connection points: 2
#     Edge 26, Type (0, 1), BuildingBlock: CIFDUS_clean_linker_0, # of connection points: 2
#     Edge 27, Type (0, 1), BuildingBlock: CIFDUS_clean_linker_0, # of connection points: 2
#     Edge 28, Type (0, 1), BuildingBlock: CIFDUS_clean_linker_0, # of connection points: 2
#     Edge 29, Type (0, 1), BuildingBlock: CIFDUS_clean_linker_0, # of connection points: 2
#     Edge 30, Type (0, 1), BuildingBlock: CIFDUS_clean_linker_0, # of connection points: 2
#     Edge 31, Type (0, 1), BuildingBlock: CIFDUS_clean_linker_0, # of connection points: 2
#     Edge 32, Type (0, 1), BuildingBlock: CIFDUS_clean_linker_0, # of connection points: 2
#     Edge 33, Type (0, 1), BuildingBlock: CIFDUS_clean_linker_0, # of connection points: 2
#     Edge 34, Type (0, 1), BuildingBlock: CIFDUS_clean_linker_0, # of connection points: 2
#     Edge 35, Type (0, 1), BuildingBlock: CIFDUS_clean_linker_0, # of connection points: 2
# Relax obj value: 0.133
# Max RMSD: 0.180
# Mean RMSD: 0.106
data_MOF--net-zzz--node1-LEVNOQ01_clean_sbu_1--node2-BETDIP_clean_linker_0--edge1-CIFDUS_clean_linker_0
_symmetry_space_group_name_H-M    P1
_symmetry_Int_Tables_number       1
_symmetry_cell_setting            triclinic
loop_
_symmetry_equiv_pos_as_xyz
'x, y, z'
_cell_length_a     44.149646
_cell_length_b     44.314911
_cell_length_c     13.886314
_cell_angle_alpha  89.750849
_cell_angle_beta   90.074411
_cell_angle_gamma 89.92575
loop_
_atom_site_label
_atom_site_type_symbol
_atom_site_fract_x
_atom_site_fract_y
_atom_site_fract_z
_atom_type_partial_charge
H0 H 0.76989 0.56855 0.30594 0.0
H1 H 0.77555 0.56675 -0.00469 0.0
H2 H 0.85632 0.56376 0.16337 0.0
H3 H 0.73453 0.6059 0.03277 0.0
C4 C 0.72231 0.58714 0.06522 0.0
C5 C 0.78332 0.56858 0.24073 0.0
C6 C 0.81529 0.56732 0.24639 0.0
C7 C 0.76879 0.57007 0.14988 0.0
C8 C 0.78631 0.5681 0.06529 0.0
C9 C 0.81775 0.56622 0.0714 0.0
C10 C 0.83191 0.56671 0.16088 0.0
N11 N 0.73661 0.57175 0.14323 0.0
H12 H 0.95209 0.77264 0.30252 0.0
H13 H 0.94679 0.77548 -0.00723 0.0
H14 H 0.94641 0.85751 0.15182 0.0
H15 H 0.91743 0.72539 0.03577 0.0
C16 C 0.93916 0.7201 0.0686 0.0
C17 C 0.9489 0.78547 0.23669 0.0
C18 C 0.94818 0.81732 0.23943 0.0
C19 C 0.94656 0.77007 0.14815 0.0
C20 C 0.9452 0.78674 0.06167 0.0
C21 C 0.94472 0.8182 0.06427 0.0
C22 C 0.94475 0.83308 0.1526 0.0
N23 N 0.94987 0.73816 0.14603 0.0
H24 H 0.75116 0.96076 0.28893 0.0
H25 H 0.75116 0.95044 0.9821 0.0
H26 H 0.67036 0.93255 0.1396 0.0
H27 H 0.79709 0.9209 0.02399 0.0
C28 C 0.80631 0.93986 0.06385 0.0
C29 C 0.7395 0.95365 0.22429 0.0
C30 C 0.70775 0.94898 0.22477 0.0
C31 C 0.756 0.95031 0.13756 0.0
C32 C 0.7399 0.94706 0.05059 0.0
C33 C 0.70871 0.94212 0.0522 0.0
C34 C 0.69428 0.93808 0.14034 0.0
N35 N 0.78808 0.95374 0.13611 0.0
H36 H 0.5618 0.74535 0.31438 0.0
H37 H 0.56288 0.75204 0.00708 0.0
H38 H 0.59064 0.66996 0.14243 0.0
H39 H 0.59824 0.80106 0.07852 0.0
C40 C 0.5751 0.80535 0.10139 0.0
C41 C 0.56745 0.73517 0.24608 0.0
C42 C 0.57416 0.70393 0.23954 0.0
C43 C 0.56713 0.75333 0.16208 0.0
C44 C 0.56858 0.73937 0.07156 0.0
C45 C 0.57416 0.70842 0.06523 0.0
C46 C 0.58255 0.69285 0.14892 0.0
N47 N 0.56135 0.78483 0.16739 0.0
H48 H 0.25597 0.44769 0.09954 0.0
H49 H 0.25043 0.44366 0.40866 0.0
H50 H 0.16949 0.4414 0.24031 0.0
H51 H 0.30569 0.40889 0.34624 0.0
C52 C 0.30736 0.43299 0.33278 0.0
C53 C 0.24256 0.4444 0.16398 0.0
C54 C 0.21065 0.4433 0.15767 0.0
C55 C 0.2572 0.44249 0.25425 0.0
C56 C 0.23968 0.4415 0.33884 0.0
C57 C 0.20806 0.44096 0.33268 0.0
C58 C 0.19402 0.43998 0.2427 0.0
N59 N 0.28909 0.44648 0.25983 0.0
H60 H 0.07127 0.24989 0.10685 0.0
H61 H 0.09062 0.24092 0.40831 0.0
H62 H 0.09652 0.16387 0.22608 0.0
H63 H 0.10861 0.29281 0.38355 0.0
C64 C 0.08766 0.29884 0.34699 0.0
C65 C 0.08011 0.23648 0.16597 0.0
C66 C 0.08446 0.20518 0.15433 0.0
C67 C 0.08494 0.25012 0.25609 0.0
C68 C 0.09178 0.23174 0.33623 0.0
C69 C 0.09543 0.20055 0.3249 0.0
C70 C 0.0952 0.18825 0.23252 0.0
N71 N 0.07745 0.28111 0.26814 0.0
H72 H 0.27224 0.06672 0.10719 0.0
H73 H 0.28423 0.088 0.40693 0.0
H74 H 0.35926 0.09393 0.21574 0.0
H75 H 0.25531 0.04383 0.40319 0.0
C76 C 0.23663 0.05349 0.36216 0.0
C77 C 0.28607 0.07599 0.16432 0.0
C78 C 0.31724 0.0814 0.14852 0.0
C79 C 0.27359 0.07943 0.25707 0.0
C80 C 0.29265 0.08796 0.33368 0.0
C81 C 0.3236 0.09232 0.31854 0.0
C82 C 0.33491 0.09213 0.22488 0.0
N83 N 0.24336 0.06982 0.27621 0.0
H84 H 0.4391 0.27624 0.09248 0.0
H85 H 0.46325 0.26826 0.39295 0.0
H86 H 0.44581 0.35509 0.2713 0.0
H87 H 0.49617 0.23346 0.30321 0.0
C88 C 0.47657 0.22053 0.28012 0.0
C89 C 0.44196 0.28644 0.16263 0.0
C90 C 0.44046 0.31823 0.17231 0.0
C91 C 0.44931 0.26805 0.24302 0.0
C92 C 0.45578 0.28171 0.33203 0.0
C93 C 0.45419 0.31294 0.34126 0.0
C94 C 0.4451 0.33073 0.26336 0.0
N95 N 0.45245 0.23617 0.23331 0.0
O96 O 0.05202 0.96449 0.86316 0.0
Mg97 Mg 0.05313 0.97075 0.71352 0.0
O98 O 0.00692 0.97404 0.80914 0.0
Mg99 Mg 0.01213 0.01276 0.69638 0.0
O100 O 0.06547 0.01136 0.656 0.0
O101 O 0.09614 0.97081 0.67134 0.0
O102 O 0.01446 0.05162 0.58608 0.0
O103 O 0.02522 0.0485 0.81281 0.0
Mg104 Mg 0.96038 0.06135 0.70118 0.0
O105 O 0.96131 0.01671 0.73456 0.0
O106 O 0.96976 0.07134 0.55604 0.0
O107 O 0.98909 0.08348 0.8013 0.0
O108 O 0.91925 0.0444 0.74405 0.0
C109 C 0.00593 0.95011 0.57511 0.0
C110 C 0.02392 0.95999 0.86796 0.0
C111 C 0.09201 -0.00141 0.64663 0.0
C112 C 0.99786 0.0699 0.53874 0.0
C113 C 0.01406 0.07417 0.83636 0.0
C114 C 0.93279 0.01884 0.75609 0.0
O115 O 0.02726 0.94071 0.62841 0.0
O116 O 0.99798 0.97784 0.57845 0.0
O117 O 0.44128 0.9925 0.78532 0.0
Mg118 Mg 0.46891 0.96671 0.69291 0.0
O119 O 0.47709 0.02624 0.81235 0.0
Mg120 Mg 0.51238 0.01223 0.69415 0.0
O121 O 0.51214 0.96016 0.74324 0.0
O122 O 0.47565 0.92462 0.74144 0.0
O123 O 0.54761 -0.00024 0.5744 0.0
O124 O 0.55222 0.01123 0.80305 0.0
Mg125 Mg 0.55597 0.05988 0.69756 0.0
O126 O 0.51235 0.06357 0.64737 0.0
O127 O 0.58391 0.03275 0.6081 0.0
O128 O 0.56503 0.05675 0.84565 0.0
O129 O 0.54568 0.10185 0.64889 0.0
C130 C 0.45659 0.99718 0.5328 0.0
C131 C 0.45039 0.01606 0.82774 0.0
C132 C 0.50293 0.9327 0.76246 0.0
C133 C 0.57453 0.00985 0.56245 0.0
C134 C 0.56793 0.02859 0.85591 0.0
C135 C 0.51906 0.09164 0.62888 0.0
O136 O 0.45741 0.96903 0.54633 0.0
O137 O 0.47327 0.01394 0.58427 0.0
O138 O 0.53686 0.43293 0.77315 0.0
Mg139 Mg 0.56574 0.46229 0.6949 0.0
O140 O 0.50124 0.46537 0.81832 0.0
Mg141 Mg 0.51508 0.50454 0.70942 0.0
O142 O 0.56622 0.50302 0.76049 0.0
O143 O 0.60701 0.47277 0.75007 0.0
O144 O 0.52955 0.54135 0.59508 0.0
O145 O 0.5154 0.54219 0.82236 0.0
Mg146 Mg 0.46816 0.55216 0.70893 0.0
O147 O 0.46357 0.50794 0.66296 0.0
O148 O 0.49601 0.5781 0.61672 0.0
O149 O 0.47258 0.56462 0.85415 0.0
O150 O 0.42605 0.54212 0.6617 0.0
C151 C 0.53405 0.4541 0.53794 0.0
C152 C 0.5126 0.43861 0.81902 0.0
C153 C 0.59459 0.49736 0.78015 0.0
C154 C 0.51992 0.56812 0.57768 0.0
C155 C 0.50054 0.56151 0.8705 0.0
C156 C 0.43551 0.51518 0.64314 0.0
O157 O 0.56198 0.4598 0.54439 0.0
O158 O 0.51586 0.46701 0.59551 0.0
O159 O 0.96707 0.46492 0.85107 0.0
Mg160 Mg 0.97353 0.46592 0.70177 0.0
O161 O 0.97613 0.51154 0.81051 0.0
Mg162 Mg 0.01548 0.51231 0.69929 0.0
O163 O 0.01601 0.46111 0.64687 0.0
O164 O 0.97991 0.4252 0.64238 0.0
O165 O 0.05489 0.51285 0.58864 0.0
O166 O 0.05126 0.49692 0.81474 0.0
Mg167 Mg 0.05947 0.55878 0.70327 0.0
O168 O 0.01572 0.56359 0.75034 0.0
O169 O 0.07032 0.55847 0.55636 0.0
O170 O 0.08711 0.53087 0.79036 0.0
O171 O 0.05125 0.59992 0.75743 0.0
C172 C 0.95179 0.51758 0.57757 0.0
C173 C 0.9621 0.49266 0.86328 0.0
C174 C 0.00726 0.43385 0.62477 0.0
C175 C 0.07174 0.53052 0.54017 0.0
C176 C 0.07816 0.50662 0.82969 0.0
C177 C 0.02381 0.59106 0.7726 0.0
O178 O 0.94377 0.494 0.62267 0.0
O179 O 0.97907 0.52724 0.58431 0.0
H180 H 0.22376 0.0347 0.53879 0.0
H181 H 0.18071 0.06479 0.27693 0.0
H182 H 0.13061 0.05453 0.34761 0.0
H183 H 0.09959 0.03175 0.48031 0.0
H184 H 0.14498 0.00128 0.7383 0.0
H185 H 0.19354 0.0175 0.67386 0.0
C186 C 0.20338 0.03925 0.49735 0.0
C187 C 0.20582 0.05006 0.40269 0.0
C188 C 0.17506 0.03331 0.53821 0.0
C189 C 0.17933 0.05623 0.34994 0.0
C190 C 0.15073 0.05036 0.39039 0.0
C191 C 0.12007 0.02956 0.52297 0.0
C192 C 0.11887 0.01539 0.61387 0.0
C193 C 0.14832 0.03827 0.48403 0.0
C194 C 0.1455 0.01218 0.66826 0.0
C195 C 0.17328 0.02123 0.63124 0.0
H196 H 0.46701 0.21114 0.46829 0.0
H197 H 0.4794 0.16446 0.20026 0.0
H198 H 0.48773 0.11684 0.28769 0.0
H199 H 0.50129 0.09134 0.44161 0.0
H200 H 0.49157 0.13972 0.70806 0.0
H201 H 0.47141 0.18346 0.62129 0.0
C202 C 0.47041 0.19025 0.42924 0.0
C203 C 0.47241 0.19105 0.32838 0.0
C204 C 0.47587 0.1633 0.48019 0.0
C205 C 0.47736 0.16414 0.27799 0.0
C206 C 0.4824 0.13702 0.32811 0.0
C207 C 0.4935 0.11104 0.48057 0.0
C208 C 0.49762 0.11238 0.58101 0.0
C209 C 0.48306 0.13662 0.42941 0.0
C210 C 0.48823 0.13819 0.6309 0.0
C211 C 0.47704 0.1633 0.58114 0.0
H212 H 0.36345 0.41767 0.39894 0.0
H213 H 0.29727 0.48931 0.4002 0.0
H214 H 0.33014 0.51964 0.503 0.0
H215 H 0.37778 0.52652 0.58802 0.0
H216 H 0.4466 0.45754 0.57846 0.0
H217 H 0.41282 0.42536 0.48297 0.0
C218 C 0.35644 0.44 0.42162 0.0
C219 C 0.32818 0.45147 0.39154 0.0
C220 C 0.37591 0.45769 0.47889 0.0
C221 C 0.31916 0.48032 0.42113 0.0
C222 C 0.33786 0.49756 0.48033 0.0
C223 C 0.38551 0.50438 0.56577 0.0
C224 C 0.41477 0.49436 0.59113 0.0
C225 C 0.36631 0.48658 0.509 0.0
C226 C 0.42418 0.46564 0.56081 0.0
C227 C 0.40487 0.44735 0.50582 0.0
H228 H 0.10519 0.3412 0.4753 0.0
H229 H 0.02899 0.3133 0.30248 0.0
H230 H 0.99801 0.3533 0.37183 0.0
H231 H 0.9919 0.3949 0.48563 0.0
H232 H 0.06796 0.42478 0.65493 0.0
H233 H 0.09962 0.38494 0.58435 0.0
C234 C 0.08187 0.34412 0.45242 0.0
C235 C 0.06943 0.32439 0.3838 0.0
C236 C 0.06419 0.36739 0.49219 0.0
C237 C 0.0392 0.3283 0.35459 0.0
C238 C 0.02142 0.35112 0.39447 0.0
C239 C 0.01555 0.39292 0.50612 0.0
C240 C 0.02766 0.41255 0.57543 0.0
C241 C 0.03362 0.37061 0.46369 0.0
C242 C 0.05829 0.40998 0.60114 0.0
C243 C 0.07631 0.38723 0.56092 0.0
H244 H 0.83678 0.92573 0.90164 0.0
H245 H 0.83977 0.9848 0.14759 0.0
H246 H 0.88339 0.01109 0.07886 0.0
H247 H 0.91597 0.02157 0.93971 0.0
H248 H 0.91191 0.96463 0.68973 0.0
H249 H 0.87366 0.93281 0.76909 0.0
C250 C 0.84732 0.9441 0.94066 0.0
C251 C 0.83484 0.95364 0.02886 0.0
C252 C 0.87205 0.95947 0.89968 0.0
C253 C 0.84867 0.97734 0.07905 0.0
C254 C 0.87363 0.99234 0.0398 0.0
C255 C 0.90728 0.00163 0.90401 0.0
C256 C 0.91666 0.99516 0.80974 0.0
C257 C 0.88485 0.9842 0.94899 0.0
C258 C 0.90521 0.96963 0.76298 0.0
C259 C 0.88314 0.95174 0.80798 0.0
H260 H 0.59674 0.84806 0.98018 0.0
H261 H 0.51367 0.81445 0.10367 0.0
H262 H 0.48457 0.85061 0.00781 0.0
H263 H 0.48257 0.89109 0.8879 0.0
H264 H 0.56509 0.92653 0.76637 0.0
H265 H 0.59463 0.88984 0.8617 0.0
C266 C 0.57226 0.8489 0.98654 0.0
C267 C 0.55739 0.82872 0.04925 0.0
C268 C 0.55565 0.86992 0.93139 0.0
C269 C 0.5257 0.82988 0.05673 0.0
C270 C 0.50904 0.85047 0.00156 0.0
C271 C 0.50707 0.8909 0.8821 0.0
C272 C 0.52166 0.91141 0.81979 0.0
C273 C 0.52377 0.87046 0.93845 0.0
C274 C 0.5534 0.91112 0.81426 0.0
C275 C 0.57023 0.89025 0.86876 0.0
H276 H 0.6661 0.56506 0.10887 0.0
H277 H 0.73055 0.57466 0.87808 0.0
H278 H 0.69615 0.54893 0.76765 0.0
H279 H 0.64814 0.52274 0.73717 0.0
H280 H 0.58257 0.51397 0.96443 0.0
H281 H 0.61625 0.54109 0.07512 0.0
C282 C 0.67245 0.56139 0.03441 0.0
C283 C 0.70084 0.57128 0.00146 0.0
C284 C 0.6521 0.54729 0.97043 0.0
C285 C 0.7088 0.567 0.9047 0.0
C286 C 0.68914 0.55239 0.84157 0.0
C287 C 0.64112 0.5273 0.81054 0.0
C288 C 0.6127 0.51729 0.84226 0.0
C289 C 0.66076 0.54244 0.87356 0.0
C290 C 0.60402 0.52245 0.93795 0.0
C291 C 0.62342 0.53758 0.00141 0.0
H292 H 0.9218 0.67499 0.94921 0.0
H293 H 0.00039 0.71371 0.08606 0.0
H294 H 0.03301 0.67744 0.00488 0.0
H295 H 0.03945 0.63522 0.89486 0.0
H296 H 0.96155 0.59398 0.76208 0.0
H297 H 0.92837 0.63104 0.84085 0.0
C298 C 0.94606 0.67522 0.96164 0.0
C299 C 0.95865 0.69681 0.02412 0.0
C300 C 0.96474 0.65393 0.9155 0.0
C301 C 0.99008 0.69707 0.03953 0.0
C302 C 0.00878 0.67642 -0.00728 0.0
C303 C 0.01516 0.63418 0.88331 0.0
C304 C 0.00295 0.612 0.82237 0.0
C305 C 0.99636 0.65482 0.93066 0.0
C306 C 0.97144 0.61075 0.80908 0.0
C307 C 0.95252 0.63186 0.85423 0.0
H308 H 0.039 0.19597 0.38225 0.0
H309 H 0.12737 0.15666 0.42201 0.0
H310 H 0.10422 0.11073 0.48905 0.0
H311 H 0.05841 0.08031 0.51848 0.0
H312 H 0.97034 0.11849 0.45523 0.0
H313 H 0.99394 0.16594 0.40922 0.0
C314 C 0.05319 0.1778 0.40963 0.0
C315 C 0.08475 0.17983 0.40031 0.0
C316 C 0.03972 0.15077 0.43837 0.0
C317 C 0.10305 0.15581 0.43178 0.0
C318 C 0.08976 0.12936 0.46743 0.0
C319 C 0.04436 0.09884 0.49331 0.0
C320 C 0.01256 0.09575 0.49034 0.0
C321 C 0.05806 0.12621 0.4672 0.0
C322 C 0.99481 0.12008 0.45767 0.0
C323 C 0.00824 0.14741 0.43278 0.0
H324 H 0.32866 0.03664 0.38307 0.0
H325 H 0.36876 0.12484 0.4061 0.0
H326 H 0.41525 0.1023 0.47252 0.0
H327 H 0.44587 0.05694 0.50492 0.0
H328 H 0.40673 0.96865 0.46121 0.0
H329 H 0.35871 0.99184 0.41604 0.0
C330 C 0.34717 0.05098 0.40651 0.0
C331 C 0.34525 0.08231 0.39245 0.0
C332 C 0.3744 0.03773 0.43542 0.0
C333 C 0.36962 0.10074 0.41923 0.0
C334 C 0.39634 0.08777 0.45465 0.0
C335 C 0.42696 0.04274 0.48429 0.0
C336 C 0.42999 0.01105 0.48583 0.0
C337 C 0.39934 0.0562 0.459 0.0
C338 C 0.40521 0.99305 0.45932 0.0
C339 C 0.37758 0.00626 0.43509 0.0
H340 H 0.51194 0.32841 0.34295 0.0
H341 H 0.42931 0.33525 0.50567 0.0
H342 H 0.44853 0.38044 0.58647 0.0
H343 H 0.48463 0.42188 0.58782 0.0
H344 H 0.56401 0.41911 0.40664 0.0
H345 H 0.55001 0.3684 0.35333 0.0
C346 C 0.49886 0.33915 0.39944 0.0
C347 C 0.46952 0.32874 0.41962 0.0
C348 C 0.50877 0.36651 0.4377 0.0
C349 C 0.45218 0.3428 0.4909 0.0
C350 C 0.46287 0.36895 0.53494 0.0
C351 C 0.49854 0.41067 0.53468 0.0
C352 C 0.52463 0.42486 0.49776 0.0
C353 C 0.49024 0.38189 0.50419 0.0
C354 C 0.54332 0.40906 0.43361 0.0
C355 C 0.53554 0.37999 0.40423 0.0
H356 H 0.20192 0.49753 0.39014 0.0
H357 H 0.16839 0.4076 0.43876 0.0
H358 H 0.12127 0.42824 0.50394 0.0
H359 H 0.08736 0.47138 0.52608 0.0
H360 H 0.11954 0.56135 0.46255 0.0
H361 H 0.16903 0.54098 0.41971 0.0
C362 C 0.1848 0.48255 0.41966 0.0
C363 C 0.18867 0.4512 0.41189 0.0
C364 C 0.15695 0.49449 0.44907 0.0
C365 C 0.16613 0.43181 0.44692 0.0
C366 C 0.13891 0.4436 0.4816 0.0
C367 C 0.10504 0.48659 0.5018 0.0
C368 C 0.0995 0.51788 0.4964 0.0
C369 C 0.13357 0.47481 0.47856 0.0
C370 C 0.1229 0.53715 0.46576 0.0
C371 C 0.15139 0.52558 0.44279 0.0
H372 H 0.00092 0.82744 0.00819 0.0
H373 H 0.9087 0.85257 0.94723 0.0
H374 H 0.9258 0.90089 0.88005 0.0
H375 H 0.96616 0.93884 0.8666 0.0
H376 H 0.05746 0.91541 0.9521 0.0
H377 H 0.04132 0.86412 0.98788 0.0
C378 C 0.9848 0.84299 0.97571 0.0
C379 C 0.95376 0.83663 0.98135 0.0
C380 C 0.99447 0.87173 0.94803 0.0
C381 C 0.93277 0.85696 0.94159 0.0
C382 C 0.9425 0.88487 0.90612 0.0
C383 C 0.98248 0.92263 0.89415 0.0
C384 C 0.01293 0.93113 0.90778 0.0
C385 C 0.97309 0.89311 0.9146 0.0
C386 C 0.03379 0.90971 0.94263 0.0
C387 C 0.02472 0.8802 0.96147 0.0
H388 H 0.6972 -0.00021 0.02251 0.0
H389 H 0.67411 0.91091 0.92257 0.0
H390 H 0.62717 0.93084 0.85153 0.0
H391 H 0.58947 0.97138 0.84309 0.0
H392 H 0.6107 0.05916 0.95927 0.0
H393 H 0.66091 0.04112 0.00585 0.0
C394 C 0.68235 0.98507 0.98172 0.0
C395 C 0.68914 0.95415 0.97564 0.0
C396 C 0.65425 0.99595 0.95064 0.0
C397 C 0.66953 0.93491 0.92577 0.0
C398 C 0.64235 0.94611 0.88813 0.0
C399 C 0.60488 0.98655 0.87959 0.0
C400 C 0.59609 0.01651 0.89894 0.0
C401 C 0.6338 0.97617 0.90498 0.0
C402 C 0.61663 0.03588 0.94501 0.0
C403 C 0.6455 0.02572 0.97033 0.0
H404 H 0.59768 0.65887 0.97785 0.0
H405 H 0.5183 0.7156 0.98448 0.0
H406 H 0.48714 0.67381 0.92921 0.0
H407 H 0.48113 0.61911 0.90481 0.0
H408 H 0.55996 0.56185 0.91475 0.0
H409 H 0.59227 0.6052 0.94458 0.0
C410 C 0.57369 0.66227 0.96442 0.0
C411 C 0.56034 0.69006 0.98774 0.0
C412 C 0.55544 0.63749 0.94183 0.0
C413 C 0.52936 0.69445 0.96743 0.0
C414 C 0.51127 0.67027 0.93854 0.0
C415 C 0.50526 0.61601 0.91581 0.0
C416 C 0.51806 0.58696 0.91047 0.0
C417 C 0.52379 0.64129 0.93134 0.0
C418 C 0.54952 0.5837 0.92178 0.0
C419 C 0.56807 0.6086 0.93667 0.0
H420 H 0.8292 0.51048 0.01372 0.0
H421 H 0.85142 0.60347 0.95892 0.0
H422 H 0.90019 0.58832 0.8906 0.0
H423 H 0.93923 0.54949 0.87187 0.0
H424 H 0.91837 0.4567 0.94208 0.0
H425 H 0.86677 0.47111 0.98378 0.0
C426 C 0.84422 0.5272 0.98227 0.0
C427 C 0.83687 0.55789 0.98971 0.0
C428 C 0.87309 0.51855 0.9516 0.0
C429 C 0.85653 0.57967 0.95152 0.0
C430 C 0.8847 0.57106 0.91522 0.0
C431 C 0.92354 0.53241 0.89724 0.0
C432 C 0.9329 0.5021 0.9053 0.0
C433 C 0.89381 0.54075 0.92004 0.0
C434 C 0.91205 0.48028 0.93716 0.0
C435 C 0.88237 0.4884 0.95945 0.0
H436 H 0.10757 0.1574 0.05511 0.0
H437 H 0.02772 0.21294 0.08192 0.0
H438 H 0.99854 0.17641 0.98963 0.0
H439 H 0.99464 0.12704 0.91277 0.0
H440 H 0.07372 0.07003 0.89097 0.0
H441 H 0.10398 0.1083 0.97328 0.0
C442 C 0.08396 0.16182 0.03856 0.0
C443 C 0.07001 0.18811 0.07454 0.0
C444 C 0.06692 0.13999 0.98934 0.0
C445 C 0.03932 0.19341 0.05314 0.0
C446 C 0.02242 0.17217 0.00208 0.0
C447 C 0.01849 0.12283 0.92616 0.0
C448 C 0.0318 0.09553 0.89607 0.0
C449 C 0.0358 0.14506 0.97214 0.0
C450 C 0.06274 0.0906 0.91439 0.0
C451 C 0.08014 0.11264 0.96045 0.0
H452 H 0.36364 0.10631 0.04601 0.0
H453 H 0.31049 0.02511 0.07356 0.0
H454 H 0.34782 0.99745 0.97925 0.0
H455 H 0.3976 0.99516 0.9018 0.0
H456 H 0.45274 0.07533 0.88327 0.0
H457 H 0.41317 0.10427 0.96498 0.0
C458 C 0.35987 0.08273 0.02916 0.0
C459 C 0.33405 0.06796 0.06617 0.0
C460 C 0.38234 0.06651 0.97971 0.0
C461 C 0.32961 0.03734 0.04416 0.0
C462 C 0.35135 0.0213 -0.00798 0.0
C463 C 0.40107 0.01897 0.91579 0.0
C464 C 0.42824 0.03301 0.88688 0.0
C465 C 0.37817 0.03546 0.96199 0.0
C466 C 0.4323 0.06384 0.90598 0.0
C467 C 0.40951 0.08048 0.95159 0.0
H468 H 0.47653 0.31517 0.01519 0.0
H469 H 0.4084 0.37085 0.14743 0.0
H470 H 0.42397 0.41386 0.04827 0.0
H471 H 0.4619 0.43745 0.93837 0.0
H472 H 0.52935 0.3799 0.8078 0.0
H473 H 0.50896 0.33646 0.89039 0.0
C474 C 0.46418 0.3363 0.01943 0.0
C475 C 0.44144 0.33967 0.08907 0.0
C476 C 0.47376 0.36118 0.96397 0.0
C477 C 0.42603 0.36756 0.0943 0.0
C478 C 0.43521 0.39235 0.03847 0.0
C479 C 0.47201 0.41541 0.92773 0.0
C480 C 0.49778 0.41251 0.86862 0.0
C481 C 0.45997 0.38981 0.97576 0.0
C482 C 0.51007 0.38342 0.85456 0.0
C483 C 0.49828 0.35822 0.90138 0.0
H484 H 0.15726 0.41999 0.09148 0.0
H485 H 0.22461 0.48769 0.02728 0.0
H486 H 0.18953 0.51235 0.91622 0.0
H487 H 0.13787 0.51882 0.85563 0.0
H488 H 0.06877 0.45398 0.93089 0.0
H489 H 0.10608 0.4249 0.02331 0.0
C490 C 0.16444 0.43994 0.05216 0.0
C491 C 0.19353 0.45212 0.06908 0.0
C492 C 0.14346 0.45519 -0.00661 0.0
C493 C 0.20261 0.47755 0.01562 0.0
C494 C 0.18229 0.49206 0.95342 0.0
C495 C 0.13081 0.49833 0.89217 0.0
C496 C 0.10032 0.48887 0.88734 0.0
C497 C 0.15231 0.48181 0.94513 0.0
C498 C 0.09191 0.46201 0.93421 0.0
C499 C 0.1133 0.44527 0.98651 0.0
H500 H 0.92513 0.87165 0.29636 0.0
H501 H 0.99102 0.80397 0.37685 0.0
H502 H 0.0137 0.83901 0.4913 0.0
H503 H 0.01876 0.8905 0.55332 0.0
H504 H 0.95632 0.9598 0.45961 0.0
H505 H 0.92938 0.92282 0.36128 0.0
C506 C 0.94438 0.86442 0.3393 0.0
C507 C 0.9565 0.83517 0.32664 0.0
C508 C 0.95859 0.88532 0.40005 0.0
C509 C 0.98091 0.82608 0.38516 0.0
C510 C 0.99429 0.84635 0.44945 0.0
C511 C 0.99923 0.89763 0.51154 0.0
C512 C 0.98975 0.92807 0.51339 0.0
C513 C 0.98401 0.87632 0.45474 0.0
C514 C 0.9643 0.93668 0.45901 0.0
C515 C 0.94876 0.91548 0.40329 0.0
H516 H 0.65136 0.97338 0.20479 0.0
H517 H 0.71772 0.95107 0.42306 0.0
H518 H 0.68218 0.96818 0.54754 0.0
H519 H 0.6314 0.98853 0.59321 0.0
H520 H 0.56399 0.00247 0.37244 0.0
H521 H 0.6005 0.98746 0.2491 0.0
C522 C 0.65804 0.97074 0.27948 0.0
C523 C 0.68716 0.95961 0.30377 0.0
C524 C 0.63704 0.97873 0.35012 0.0
C525 C 0.69556 0.95913 0.40149 0.0
C526 C 0.67511 0.96869 0.4728 0.0
C527 C 0.62471 0.98768 0.51807 0.0
C528 C 0.59509 0.99632 0.4913 0.0
C529 C 0.64566 0.97824 0.44786 0.0
C530 C 0.5865 0.99544 0.3943 0.0
C531 C 0.60745 0.98717 0.32402 0.0
H532 H 0.56048 0.64335 0.22346 0.0
H533 H 0.57182 0.71303 0.43847 0.0
H534 H 0.55698 0.67673 0.56276 0.0
H535 H 0.53849 0.62551 0.60836 0.0
H536 H 0.53535 0.55572 0.39323 0.0
H537 H 0.55189 0.59188 0.27042 0.0
C538 C 0.56168 0.65098 0.29717 0.0
C539 C 0.56818 0.68153 0.31963 0.0
C540 C 0.55483 0.62974 0.36863 0.0
C541 C 0.56686 0.69012 0.41711 0.0
C542 C 0.55859 0.66921 0.48878 0.0
C543 C 0.54212 0.61821 0.53481 0.0
C544 C 0.53566 0.58811 0.50915 0.0
C545 C 0.55219 0.63904 0.46505 0.0
C546 C 0.54042 0.57868 0.41431 0.0
C547 C 0.54958 0.59942 0.34423 0.0
H548 H 0.86785 0.59428 0.30052 0.0
H549 H 0.80269 0.52785 0.39341 0.0
H550 H 0.83926 0.50801 0.5103 0.0
H551 H 0.89175 0.50462 0.56703 0.0
H552 H 0.95867 0.56756 0.46127 0.0
H553 H 0.91963 0.59297 0.36507 0.0
C554 C 0.86144 0.5758 0.34776 0.0
C555 C 0.83262 0.56234 0.33733 0.0
C556 C 0.88327 0.56319 0.40955 0.0
C557 C 0.8245 0.5388 0.40012 0.0
C558 C 0.84567 0.52707 0.46562 0.0
C559 C 0.89795 0.52395 0.52322 0.0
C560 C 0.92836 0.53387 0.52042 0.0
C561 C 0.87549 0.53821 0.46758 0.0
C562 C 0.93564 0.55924 0.46414 0.0
C563 C 0.91326 0.57385 0.40953 0.0
loop_
_geom_bond_atom_site_label_1
_geom_bond_atom_site_label_2
_geom_bond_distance
_geom_bond_site_symmetry_2
_ccdc_geom_bond_type
H0 C5 0.930 . S
H1 C8 0.930 1_556 S
H2 C10 0.930 . S
H3 C4 1.016 1_556 S
C4 H3 1.016 1_554 S
C4 N11 1.286 . S
C5 H0 0.930 . S
C5 C6 1.397 . S
C5 C7 1.361 . S
C6 C5 1.397 . S
C6 C10 1.390 . S
C7 C5 1.361 . S
C7 C8 1.393 . S
C7 N11 1.413 . S
C8 H1 0.930 1_554 S
C8 C7 1.393 . S
C8 C9 1.399 . S
C9 C8 1.399 . S
C9 C10 1.381 . S
C10 H2 0.930 . S
C10 C6 1.390 . S
C10 C9 1.381 . S
N11 C4 1.286 . S
N11 C7 1.413 . S
H12 C17 0.930 . S
H13 C20 0.930 1_556 S
H14 C22 0.930 . S
H15 C16 1.016 1_556 S
C16 H15 1.016 1_554 S
C16 N23 1.286 . S
C17 H12 0.930 . S
C17 C18 1.397 . S
C17 C19 1.361 . S
C18 C17 1.397 . S
C18 C22 1.390 . S
C19 C17 1.361 . S
C19 C20 1.393 . S
C19 N23 1.413 . S
C20 H13 0.930 1_554 S
C20 C19 1.393 . S
C20 C21 1.399 . S
C21 C20 1.399 . S
C21 C22 1.381 . S
C22 H14 0.930 . S
C22 C18 1.390 . S
C22 C21 1.381 . S
N23 C16 1.286 . S
N23 C19 1.413 . S
H24 C29 0.930 . S
H25 C32 0.930 1_556 S
H26 C34 0.930 . S
H27 C28 1.016 1_556 S
C28 H27 1.016 1_554 S
C28 N35 1.286 . S
C29 H24 0.930 . S
C29 C30 1.397 . S
C29 C31 1.361 . S
C30 C29 1.397 . S
C30 C34 1.390 . S
C31 C29 1.361 . S
C31 C32 1.393 . S
C31 N35 1.413 . S
C32 H25 0.930 1_554 S
C32 C31 1.393 . S
C32 C33 1.399 . S
C33 C32 1.399 . S
C33 C34 1.381 . S
C34 H26 0.930 . S
C34 C30 1.390 . S
C34 C33 1.381 . S
N35 C28 1.286 . S
N35 C31 1.413 . S
H36 C41 0.930 . S
H37 C44 0.930 1_556 S
H38 C46 0.930 . S
H39 C40 1.016 1_556 S
C40 H39 1.016 1_554 S
C40 N47 1.286 . S
C41 H36 0.930 . S
C41 C42 1.397 . S
C41 C43 1.361 . S
C42 C41 1.397 . S
C42 C46 1.390 . S
C43 C41 1.361 . S
C43 C44 1.393 . S
C43 N47 1.413 . S
C44 H37 0.930 1_554 S
C44 C43 1.393 . S
C44 C45 1.399 . S
C45 C44 1.399 . S
C45 C46 1.381 . S
C46 H38 0.930 . S
C46 C42 1.390 . S
C46 C45 1.381 . S
N47 C40 1.286 . S
N47 C43 1.413 . S
H48 C53 0.930 . S
H49 C56 0.930 . S
H50 C58 0.930 . S
H51 C52 1.016 . S
C52 H51 1.016 . S
C52 N59 1.286 . S
C53 H48 0.930 . S
C53 C54 1.397 . S
C53 C55 1.361 . S
C54 C53 1.397 . S
C54 C58 1.390 . S
C55 C53 1.361 . S
C55 C56 1.393 . S
C55 N59 1.413 . S
C56 H49 0.930 . S
C56 C55 1.393 . S
C56 C57 1.399 . S
C57 C56 1.399 . S
C57 C58 1.381 . S
C58 H50 0.930 . S
C58 C54 1.390 . S
C58 C57 1.381 . S
N59 C52 1.286 . S
N59 C55 1.413 . S
H60 C65 0.930 . S
H61 C68 0.930 . S
H62 C70 0.930 . S
H63 C64 1.016 . S
C64 H63 1.016 . S
C64 N71 1.286 . S
C65 H60 0.930 . S
C65 C66 1.397 . S
C65 C67 1.361 . S
C66 C65 1.397 . S
C66 C70 1.390 . S
C67 C65 1.361 . S
C67 C68 1.393 . S
C67 N71 1.413 . S
C68 H61 0.930 . S
C68 C67 1.393 . S
C68 C69 1.399 . S
C69 C68 1.399 . S
C69 C70 1.381 . S
C70 H62 0.930 . S
C70 C66 1.390 . S
C70 C69 1.381 . S
N71 C64 1.286 . S
N71 C67 1.413 . S
H72 C77 0.930 . S
H73 C80 0.930 . S
H74 C82 0.930 . S
H75 C76 1.016 . S
C76 H75 1.016 . S
C76 N83 1.286 . S
C77 H72 0.930 . S
C77 C78 1.397 . S
C77 C79 1.361 . S
C78 C77 1.397 . S
C78 C82 1.390 . S
C79 C77 1.361 . S
C79 C80 1.393 . S
C79 N83 1.413 . S
C80 H73 0.930 . S
C80 C79 1.393 . S
C80 C81 1.399 . S
C81 C80 1.399 . S
C81 C82 1.381 . S
C82 H74 0.930 . S
C82 C78 1.390 . S
C82 C81 1.381 . S
N83 C76 1.286 . S
N83 C79 1.413 . S
H84 C89 0.930 . S
H85 C92 0.930 . S
H86 C94 0.930 . S
H87 C88 1.016 . S
C88 H87 1.016 . S
C88 N95 1.286 . S
C89 H84 0.930 . S
C89 C90 1.397 . S
C89 C91 1.361 . S
C90 C89 1.397 . S
C90 C94 1.390 . S
C91 C89 1.361 . S
C91 C92 1.393 . S
C91 N95 1.413 . S
C92 H85 0.930 . S
C92 C91 1.393 . S
C92 C93 1.399 . S
C93 C92 1.399 . S
C93 C94 1.381 . S
C94 H86 0.930 . S
C94 C90 1.390 . S
C94 C93 1.381 . S
N95 C88 1.286 . S
N95 C91 1.413 . S
O96 Mg97 1.990 . S
O96 C110 1.253 . S
Mg97 O96 1.990 . S
Mg97 O100 2.147 1_565 S
Mg97 O101 2.117 . S
Mg97 O115 2.030 . S
O98 Mg99 2.072 1_565 S
O98 C110 1.260 . S
Mg99 O98 2.072 1_545 S
Mg99 O100 2.108 . S
Mg99 O102 2.079 . S
Mg99 O103 2.072 . S
Mg99 O105 2.099 1_455 S
Mg99 O116 2.072 1_445 S
O100 Mg97 2.147 1_545 S
O100 Mg99 2.108 . S
O100 C111 1.282 . S
O101 Mg97 2.117 . S
O101 C111 1.250 1_565 S
O102 Mg99 2.079 . S
O102 C112 1.264 . S
O103 Mg99 2.072 . S
O103 C113 1.260 . S
Mg104 O105 2.180 . S
Mg104 O106 2.030 . S
Mg104 O107 1.990 . S
Mg104 O108 2.117 . S
O105 Mg99 2.099 1_655 S
O105 Mg104 2.180 . S
O105 C114 1.279 . S
O106 Mg104 2.030 . S
O106 C112 1.248 1_655 S
O107 Mg104 1.990 . S
O107 C113 1.253 1_655 S
O108 Mg104 2.117 . S
O108 C114 1.250 . S
C109 O115 1.248 . S
C109 O116 1.261 1_455 S
C110 O96 1.253 . S
C110 O98 1.260 . S
C111 O100 1.282 . S
C111 O101 1.250 1_545 S
C112 O102 1.264 . S
C112 O106 1.248 1_455 S
C113 O103 1.260 . S
C113 O107 1.253 1_455 S
C114 O105 1.279 . S
C114 O108 1.250 . S
O115 Mg97 2.030 . S
O115 C109 1.248 . S
O116 Mg99 2.072 1_665 S
O116 C109 1.261 1_655 S
O117 Mg118 1.990 . S
O117 C131 1.253 1_565 S
Mg118 O117 1.990 . S
Mg118 O121 2.180 . S
Mg118 O122 2.117 . S
Mg118 O136 2.030 . S
O119 Mg120 2.072 . S
O119 C131 1.260 . S
Mg120 O119 2.072 . S
Mg120 O121 2.099 1_545 S
Mg120 O123 2.079 1_545 S
Mg120 O124 2.072 . S
Mg120 O126 2.099 . S
Mg120 O137 2.079 . S
O121 Mg118 2.180 . S
O121 Mg120 2.099 1_565 S
O121 C132 1.279 . S
O122 Mg118 2.117 . S
O122 C132 1.250 . S
O123 Mg120 2.079 1_565 S
O123 C133 1.264 1_565 S
O124 Mg120 2.072 . S
O124 C134 1.260 . S
Mg125 O126 2.180 . S
Mg125 O127 2.030 . S
Mg125 O128 1.990 . S
Mg125 O129 2.117 . S
O126 Mg120 2.099 . S
O126 Mg125 2.180 . S
O126 C135 1.279 . S
O127 Mg125 2.030 . S
O127 C133 1.248 . S
O128 Mg125 1.990 . S
O128 C134 1.253 . S
O129 Mg125 2.117 . S
O129 C135 1.250 . S
C130 O136 1.248 1_545 S
C130 O137 1.264 . S
C131 O117 1.253 1_545 S
C131 O119 1.260 . S
C132 O121 1.279 . S
C132 O122 1.250 . S
C133 O123 1.264 1_545 S
C133 O127 1.248 . S
C134 O124 1.260 . S
C134 O128 1.253 . S
C135 O126 1.279 . S
C135 O129 1.250 . S
O136 Mg118 2.030 . S
O136 C130 1.248 1_565 S
O137 Mg120 2.079 . S
O137 C130 1.264 . S
O138 Mg139 1.990 . S
O138 C152 1.253 . S
Mg139 O138 1.990 . S
Mg139 O142 2.180 . S
Mg139 O143 2.117 . S
Mg139 O157 2.030 . S
O140 Mg141 2.072 . S
O140 C152 1.260 . S
Mg141 O140 2.072 . S
Mg141 O142 2.099 . S
Mg141 O144 2.079 . S
Mg141 O145 2.072 . S
Mg141 O147 2.099 . S
Mg141 O158 2.079 . S
O142 Mg139 2.180 . S
O142 Mg141 2.099 . S
O142 C153 1.279 . S
O143 Mg139 2.117 . S
O143 C153 1.250 . S
O144 Mg141 2.079 . S
O144 C154 1.264 . S
O145 Mg141 2.072 . S
O145 C155 1.260 . S
Mg146 O147 2.180 . S
Mg146 O148 2.030 . S
Mg146 O149 1.990 . S
Mg146 O150 2.117 . S
O147 Mg141 2.099 . S
O147 Mg146 2.180 . S
O147 C156 1.279 . S
O148 Mg146 2.030 . S
O148 C154 1.248 . S
O149 Mg146 1.990 . S
O149 C155 1.253 . S
O150 Mg146 2.117 . S
O150 C156 1.250 . S
C151 O157 1.248 . S
C151 O158 1.264 . S
C152 O138 1.253 . S
C152 O140 1.260 . S
C153 O142 1.279 . S
C153 O143 1.250 . S
C154 O144 1.264 . S
C154 O148 1.248 . S
C155 O145 1.260 . S
C155 O149 1.253 . S
C156 O147 1.279 . S
C156 O150 1.250 . S
O157 Mg139 2.030 . S
O157 C151 1.248 . S
O158 Mg141 2.079 . S
O158 C151 1.264 . S
O159 Mg160 1.990 . S
O159 C173 1.253 . S
Mg160 O159 1.990 . S
Mg160 O163 2.180 1_655 S
Mg160 O164 2.117 . S
Mg160 O178 2.030 . S
O161 Mg162 2.072 1_655 S
O161 C173 1.260 . S
Mg162 O161 2.072 1_455 S
Mg162 O163 2.099 . S
Mg162 O165 2.079 . S
Mg162 O166 2.072 . S
Mg162 O168 2.099 . S
Mg162 O179 2.079 1_455 S
O163 Mg160 2.180 1_455 S
O163 Mg162 2.099 . S
O163 C174 1.279 . S
O164 Mg160 2.117 . S
O164 C174 1.250 1_655 S
O165 Mg162 2.079 . S
O165 C175 1.264 . S
O166 Mg162 2.072 . S
O166 C176 1.260 . S
Mg167 O168 2.180 . S
Mg167 O169 2.030 . S
Mg167 O170 1.990 . S
Mg167 O171 2.117 . S
O168 Mg162 2.099 . S
O168 Mg167 2.180 . S
O168 C177 1.279 . S
O169 Mg167 2.030 . S
O169 C175 1.248 . S
O170 Mg167 1.990 . S
O170 C176 1.253 . S
O171 Mg167 2.117 . S
O171 C177 1.250 . S
C172 O178 1.248 . S
C172 O179 1.264 . S
C173 O159 1.253 . S
C173 O161 1.260 . S
C174 O163 1.279 . S
C174 O164 1.250 1_455 S
C175 O165 1.264 . S
C175 O169 1.248 . S
C176 O166 1.260 . S
C176 O170 1.253 . S
C177 O168 1.279 . S
C177 O171 1.250 . S
O178 Mg160 2.030 . S
O178 C172 1.248 . S
O179 Mg162 2.079 1_655 S
O179 C172 1.264 . S
H180 C186 0.930 . S
H181 C189 0.930 . S
H182 C190 0.930 . S
H183 C191 0.930 . S
H184 C194 0.930 1_565 S
H185 C195 0.930 1_565 S
C186 H180 0.930 . S
C186 C187 1.355 . S
C186 C188 1.415 . S
C187 C186 1.355 . S
C187 C189 1.419 . S
C188 C186 1.415 . S
C188 C193 1.425 . S
C188 C195 1.409 . S
C189 H181 0.930 . S
C189 C187 1.419 . S
C189 C190 1.362 . S
C190 H182 0.930 . S
C190 C189 1.362 . S
C190 C193 1.409 . S
C191 H183 0.930 . S
C191 C192 1.355 . S
C191 C193 1.415 . S
C192 C191 1.355 . S
C192 C194 1.419 . S
C193 C188 1.425 . S
C193 C190 1.409 . S
C193 C191 1.415 . S
C194 H184 0.930 1_545 S
C194 C192 1.419 . S
C194 C195 1.362 . S
C195 H185 0.930 1_545 S
C195 C188 1.409 . S
C195 C194 1.362 . S
H196 C202 0.930 . S
H197 C205 0.930 . S
H198 C206 0.930 . S
H199 C207 0.930 . S
H200 C210 0.930 . S
H201 C211 0.930 . S
C202 H196 0.930 . S
C202 C203 1.355 . S
C202 C204 1.415 . S
C203 C202 1.355 . S
C203 C205 1.419 . S
C204 C202 1.415 . S
C204 C209 1.425 . S
C204 C211 1.409 . S
C205 H197 0.930 . S
C205 C203 1.419 . S
C205 C206 1.362 . S
C206 H198 0.930 . S
C206 C205 1.362 . S
C206 C209 1.409 . S
C207 H199 0.930 . S
C207 C208 1.355 . S
C207 C209 1.415 . S
C208 C207 1.355 . S
C208 C210 1.419 . S
C209 C204 1.425 . S
C209 C206 1.409 . S
C209 C207 1.415 . S
C210 H200 0.930 . S
C210 C208 1.419 . S
C210 C211 1.362 . S
C211 H201 0.930 . S
C211 C204 1.409 . S
C211 C210 1.362 . S
H212 C218 0.930 . S
H213 C221 0.930 . S
H214 C222 0.930 . S
H215 C223 0.930 . S
H216 C226 0.930 . S
H217 C227 0.930 . S
C218 H212 0.930 . S
C218 C219 1.355 . S
C218 C220 1.415 . S
C219 C218 1.355 . S
C219 C221 1.419 . S
C220 C218 1.415 . S
C220 C225 1.425 . S
C220 C227 1.409 . S
C221 H213 0.930 . S
C221 C219 1.419 . S
C221 C222 1.362 . S
C222 H214 0.930 . S
C222 C221 1.362 . S
C222 C225 1.409 . S
C223 H215 0.930 . S
C223 C224 1.355 . S
C223 C225 1.415 . S
C224 C223 1.355 . S
C224 C226 1.419 . S
C225 C220 1.425 . S
C225 C222 1.409 . S
C225 C223 1.415 . S
C226 H216 0.930 . S
C226 C224 1.419 . S
C226 C227 1.362 . S
C227 H217 0.930 . S
C227 C220 1.409 . S
C227 C226 1.362 . S
H228 C234 0.930 . S
H229 C237 0.930 . S
H230 C238 0.930 1_655 S
H231 C239 0.930 1_655 S
H232 C242 0.930 . S
H233 C243 0.930 . S
C234 H228 0.930 . S
C234 C235 1.355 . S
C234 C236 1.415 . S
C235 C234 1.355 . S
C235 C237 1.419 . S
C236 C234 1.415 . S
C236 C241 1.425 . S
C236 C243 1.409 . S
C237 H229 0.930 . S
C237 C235 1.419 . S
C237 C238 1.362 . S
C238 H230 0.930 1_455 S
C238 C237 1.362 . S
C238 C241 1.409 . S
C239 H231 0.930 1_455 S
C239 C240 1.355 . S
C239 C241 1.415 . S
C240 C239 1.355 . S
C240 C242 1.419 . S
C241 C236 1.425 . S
C241 C238 1.409 . S
C241 C239 1.415 . S
C242 H232 0.930 . S
C242 C240 1.419 . S
C242 C243 1.362 . S
C243 H233 0.930 . S
C243 C236 1.409 . S
C243 C242 1.362 . S
H244 C250 0.930 . S
H245 C253 0.930 . S
H246 C254 0.930 . S
H247 C255 0.930 1_545 S
H248 C258 0.926 1_545 S
H249 C259 0.930 . S
C250 H244 0.930 . S
C250 C251 1.355 . S
C250 C252 1.415 . S
C251 C250 1.355 . S
C251 C253 1.419 1_556 S
C252 C250 1.415 . S
C252 C257 1.425 . S
C252 C259 1.409 . S
C253 H245 0.930 . S
C253 C251 1.419 1_554 S
C253 C254 1.362 . S
C254 H246 0.930 . S
C254 C253 1.362 . S
C254 C257 1.409 1_554 S
C255 H247 0.930 1_565 S
C255 C256 1.355 1_565 S
C255 C257 1.415 . S
C256 C255 1.355 1_545 S
C256 C258 1.416 1_545 S
C257 C252 1.425 . S
C257 C254 1.409 1_556 S
C257 C255 1.415 . S
C258 H248 0.926 1_565 S
C258 C256 1.416 1_565 S
C258 C259 1.371 . S
C259 H249 0.930 . S
C259 C252 1.409 . S
C259 C258 1.371 . S
H260 C266 0.930 1_554 S
H261 C269 0.930 . S
H262 C270 0.930 . S
H263 C271 0.930 . S
H264 C274 0.930 . S
H265 C275 0.930 . S
C266 H260 0.930 1_556 S
C266 C267 1.355 . S
C266 C268 1.415 . S
C267 C266 1.355 . S
C267 C269 1.419 . S
C268 C266 1.415 . S
C268 C273 1.425 . S
C268 C275 1.409 . S
C269 H261 0.930 . S
C269 C267 1.419 . S
C269 C270 1.362 . S
C270 H262 0.930 . S
C270 C269 1.362 . S
C270 C273 1.409 . S
C271 H263 0.930 . S
C271 C272 1.355 . S
C271 C273 1.415 . S
C272 C271 1.355 . S
C272 C274 1.419 . S
C273 C268 1.425 . S
C273 C270 1.409 . S
C273 C271 1.415 . S
C274 H264 0.930 . S
C274 C272 1.419 . S
C274 C275 1.362 . S
C275 H265 0.930 . S
C275 C268 1.409 . S
C275 C274 1.362 . S
H276 C282 0.930 . S
H277 C285 0.930 . S
H278 C286 0.930 . S
H279 C287 0.930 . S
H280 C290 0.930 . S
H281 C291 0.930 1_554 S
C282 H276 0.930 . S
C282 C283 1.355 1_554 S
C282 C284 1.415 1_554 S
C283 C282 1.355 1_556 S
C283 C285 1.419 . S
C284 C282 1.415 1_556 S
C284 C289 1.425 . S
C284 C291 1.409 . S
C285 H277 0.930 . S
C285 C283 1.419 . S
C285 C286 1.362 . S
C286 H278 0.930 . S
C286 C285 1.362 . S
C286 C289 1.409 . S
C287 H279 0.930 . S
C287 C288 1.355 . S
C287 C289 1.415 . S
C288 C287 1.355 . S
C288 C290 1.419 . S
C289 C284 1.425 . S
C289 C286 1.409 . S
C289 C287 1.415 . S
C290 H280 0.930 . S
C290 C288 1.419 . S
C290 C291 1.362 . S
C291 H281 0.930 1_556 S
C291 C284 1.409 . S
C291 C290 1.362 . S
H292 C298 0.932 . S
H293 C301 0.930 . S
H294 C302 0.930 . S
H295 C303 0.930 . S
H296 C306 0.930 . S
H297 C307 0.930 . S
C298 H292 0.932 . S
C298 C299 1.355 . S
C298 C300 1.415 . S
C299 C298 1.355 . S
C299 C301 1.419 1_655 S
C300 C298 1.415 . S
C300 C305 1.425 1_655 S
C300 C307 1.409 . S
C301 H293 0.930 . S
C301 C299 1.419 1_455 S
C301 C302 1.362 . S
C302 H294 0.930 . S
C302 C301 1.362 . S
C302 C305 1.409 . S
C303 H295 0.930 . S
C303 C304 1.368 . S
C303 C305 1.415 . S
C304 C303 1.368 . S
C304 C306 1.397 1_455 S
C305 C300 1.425 1_455 S
C305 C302 1.409 . S
C305 C303 1.415 . S
C306 H296 0.930 . S
C306 C304 1.397 1_655 S
C306 C307 1.362 . S
C307 H297 0.930 . S
C307 C300 1.409 . S
C307 C306 1.362 . S
H308 C314 0.930 . S
H309 C317 0.930 . S
H310 C318 0.930 . S
H311 C319 0.930 . S
H312 C322 0.930 . S
H313 C323 0.930 . S
C314 H308 0.930 . S
C314 C315 1.355 . S
C314 C316 1.415 . S
C315 C314 1.355 . S
C315 C317 1.419 . S
C316 C314 1.415 . S
C316 C321 1.425 . S
C316 C323 1.409 1_455 S
C317 H309 0.930 . S
C317 C315 1.419 . S
C317 C318 1.362 . S
C318 H310 0.930 . S
C318 C317 1.362 . S
C318 C321 1.409 . S
C319 H311 0.930 . S
C319 C320 1.355 . S
C319 C321 1.415 . S
C320 C319 1.355 . S
C320 C322 1.419 1_455 S
C321 C316 1.425 . S
C321 C318 1.409 . S
C321 C319 1.415 . S
C322 H312 0.930 . S
C322 C320 1.419 1_655 S
C322 C323 1.362 . S
C323 H313 0.930 . S
C323 C316 1.409 1_655 S
C323 C322 1.362 . S
H324 C330 0.930 . S
H325 C333 0.930 . S
H326 C334 0.930 . S
H327 C335 0.930 . S
H328 C338 0.930 . S
H329 C339 0.930 . S
C330 H324 0.930 . S
C330 C331 1.355 . S
C330 C332 1.415 . S
C331 C330 1.355 . S
C331 C333 1.419 . S
C332 C330 1.415 . S
C332 C337 1.425 . S
C332 C339 1.409 1_545 S
C333 H325 0.930 . S
C333 C331 1.419 . S
C333 C334 1.362 . S
C334 H326 0.930 . S
C334 C333 1.362 . S
C334 C337 1.409 . S
C335 H327 0.930 . S
C335 C336 1.355 . S
C335 C337 1.415 . S
C336 C335 1.355 . S
C336 C338 1.419 1_545 S
C337 C332 1.425 . S
C337 C334 1.409 . S
C337 C335 1.415 . S
C338 H328 0.930 . S
C338 C336 1.419 1_565 S
C338 C339 1.362 . S
C339 H329 0.930 . S
C339 C332 1.409 1_565 S
C339 C338 1.362 . S
H340 C346 0.930 . S
H341 C349 0.930 . S
H342 C350 0.930 . S
H343 C351 0.930 . S
H344 C354 0.930 . S
H345 C355 0.930 . S
C346 H340 0.930 . S
C346 C347 1.355 . S
C346 C348 1.415 . S
C347 C346 1.355 . S
C347 C349 1.419 . S
C348 C346 1.415 . S
C348 C353 1.425 . S
C348 C355 1.409 . S
C349 H341 0.930 . S
C349 C347 1.419 . S
C349 C350 1.362 . S
C350 H342 0.930 . S
C350 C349 1.362 . S
C350 C353 1.409 . S
C351 H343 0.930 . S
C351 C352 1.355 . S
C351 C353 1.415 . S
C352 C351 1.355 . S
C352 C354 1.419 . S
C353 C348 1.425 . S
C353 C350 1.409 . S
C353 C351 1.415 . S
C354 H344 0.930 . S
C354 C352 1.419 . S
C354 C355 1.362 . S
C355 H345 0.930 . S
C355 C348 1.409 . S
C355 C354 1.362 . S
H356 C362 0.930 . S
H357 C365 0.930 . S
H358 C366 0.930 . S
H359 C367 0.930 . S
H360 C370 0.930 . S
H361 C371 0.930 . S
C362 H356 0.930 . S
C362 C363 1.355 . S
C362 C364 1.415 . S
C363 C362 1.355 . S
C363 C365 1.419 . S
C364 C362 1.415 . S
C364 C369 1.425 . S
C364 C371 1.409 . S
C365 H357 0.930 . S
C365 C363 1.419 . S
C365 C366 1.362 . S
C366 H358 0.930 . S
C366 C365 1.362 . S
C366 C369 1.409 . S
C367 H359 0.930 . S
C367 C368 1.355 . S
C367 C369 1.415 . S
C368 C367 1.355 . S
C368 C370 1.419 . S
C369 C364 1.425 . S
C369 C366 1.409 . S
C369 C367 1.415 . S
C370 H360 0.930 . S
C370 C368 1.419 . S
C370 C371 1.362 . S
C371 H361 0.930 . S
C371 C364 1.409 . S
C371 C370 1.362 . S
H372 C378 0.930 1_455 S
H373 C381 0.930 . S
H374 C382 0.930 . S
H375 C383 0.930 . S
H376 C386 0.930 . S
H377 C387 0.930 . S
C378 H372 0.930 1_655 S
C378 C379 1.355 . S
C378 C380 1.415 1_655 S
C379 C378 1.355 . S
C379 C381 1.419 1_556 S
C380 C378 1.415 1_455 S
C380 C385 1.425 1_455 S
C380 C387 1.409 . S
C381 H373 0.930 . S
C381 C379 1.419 1_554 S
C381 C382 1.362 . S
C382 H374 0.930 . S
C382 C381 1.362 . S
C382 C385 1.409 1_554 S
C383 H375 0.930 . S
C383 C384 1.355 1_655 S
C383 C385 1.415 . S
C384 C383 1.355 1_455 S
C384 C386 1.419 . S
C385 C380 1.425 1_655 S
C385 C382 1.409 1_556 S
C385 C383 1.415 . S
C386 H376 0.930 . S
C386 C384 1.419 . S
C386 C387 1.362 . S
C387 H377 0.930 . S
C387 C380 1.409 . S
C387 C386 1.362 . S
H388 C394 0.929 1_545 S
H389 C397 0.930 1_554 S
H390 C398 0.930 . S
H391 C399 0.930 . S
H392 C402 0.930 . S
H393 C403 0.930 . S
C394 H388 0.929 1_565 S
C394 C395 1.355 . S
C394 C396 1.415 1_565 S
C395 C394 1.355 . S
C395 C397 1.419 . S
C396 C394 1.415 1_545 S
C396 C401 1.425 1_545 S
C396 C403 1.409 . S
C397 H389 0.930 1_556 S
C397 C395 1.419 . S
C397 C398 1.362 . S
C398 H390 0.930 . S
C398 C397 1.362 . S
C398 C401 1.409 . S
C399 H391 0.930 . S
C399 C400 1.355 1_565 S
C399 C401 1.415 . S
C400 C399 1.355 1_545 S
C400 C402 1.419 . S
C401 C396 1.425 1_565 S
C401 C398 1.409 . S
C401 C399 1.415 . S
C402 H392 0.930 . S
C402 C400 1.419 . S
C402 C403 1.362 . S
C403 H393 0.930 . S
C403 C396 1.409 . S
C403 C402 1.362 . S
H404 C410 0.930 . S
H405 C413 0.930 . S
H406 C414 0.930 . S
H407 C415 0.930 . S
H408 C418 0.930 . S
H409 C419 0.930 . S
C410 H404 0.930 . S
C410 C411 1.355 . S
C410 C412 1.415 . S
C411 C410 1.355 . S
C411 C413 1.419 1_556 S
C412 C410 1.415 . S
C412 C417 1.425 . S
C412 C419 1.409 . S
C413 H405 0.930 . S
C413 C411 1.419 1_554 S
C413 C414 1.362 . S
C414 H406 0.930 . S
C414 C413 1.362 . S
C414 C417 1.409 1_554 S
C415 H407 0.930 . S
C415 C416 1.355 . S
C415 C417 1.415 . S
C416 C415 1.355 . S
C416 C418 1.419 . S
C417 C412 1.425 . S
C417 C414 1.409 1_556 S
C417 C415 1.415 . S
C418 H408 0.930 . S
C418 C416 1.419 . S
C418 C419 1.362 . S
C419 H409 0.930 . S
C419 C412 1.409 . S
C419 C418 1.362 . S
H420 C426 0.930 . S
H421 C429 0.930 . S
H422 C430 0.930 . S
H423 C431 0.930 . S
H424 C434 0.930 . S
H425 C435 0.930 . S
C426 H420 0.930 . S
C426 C427 1.355 . S
C426 C428 1.415 . S
C427 C426 1.355 . S
C427 C429 1.419 1_556 S
C428 C426 1.415 . S
C428 C433 1.425 . S
C428 C435 1.409 . S
C429 H421 0.930 . S
C429 C427 1.419 1_554 S
C429 C430 1.362 . S
C430 H422 0.930 . S
C430 C429 1.362 . S
C430 C433 1.409 1_554 S
C431 H423 0.930 . S
C431 C432 1.355 . S
C431 C433 1.415 . S
C432 C431 1.355 . S
C432 C434 1.419 . S
C433 C428 1.425 . S
C433 C430 1.409 1_556 S
C433 C431 1.415 . S
C434 H424 0.930 . S
C434 C432 1.419 . S
C434 C435 1.362 . S
C435 H425 0.930 . S
C435 C428 1.409 . S
C435 C434 1.362 . S
H436 C442 0.930 . S
H437 C445 0.930 . S
H438 C446 0.930 . S
H439 C447 0.930 . S
H440 C450 0.930 . S
H441 C451 0.930 . S
C442 H436 0.930 . S
C442 C443 1.355 . S
C442 C444 1.413 1_554 S
C443 C442 1.355 . S
C443 C445 1.419 . S
C444 C442 1.413 1_556 S
C444 C449 1.423 1_556 S
C444 C451 1.413 . S
C445 H437 0.930 . S
C445 C443 1.419 . S
C445 C446 1.362 . S
C446 H438 0.930 . S
C446 C445 1.362 . S
C446 C449 1.409 . S
C447 H439 0.930 . S
C447 C448 1.355 1_554 S
C447 C449 1.415 . S
C448 C447 1.355 1_556 S
C448 C450 1.419 . S
C449 C444 1.423 1_554 S
C449 C446 1.409 . S
C449 C447 1.415 . S
C450 H440 0.930 . S
C450 C448 1.419 . S
C450 C451 1.362 . S
C451 H441 0.930 . S
C451 C444 1.413 . S
C451 C450 1.362 . S
H452 C458 0.931 . S
H453 C461 0.930 . S
H454 C462 0.930 . S
H455 C463 0.930 . S
H456 C466 0.930 . S
H457 C467 0.930 . S
C458 H452 0.931 . S
C458 C459 1.355 . S
C458 C460 1.415 1_554 S
C459 C458 1.355 . S
C459 C461 1.419 . S
C460 C458 1.415 1_556 S
C460 C465 1.425 1_556 S
C460 C467 1.409 . S
C461 H453 0.930 . S
C461 C459 1.419 . S
C461 C462 1.362 . S
C462 H454 0.930 . S
C462 C461 1.362 . S
C462 C465 1.409 . S
C463 H455 0.930 . S
C463 C464 1.355 1_554 S
C463 C465 1.415 . S
C464 C463 1.355 1_556 S
C464 C466 1.419 . S
C465 C460 1.425 1_554 S
C465 C462 1.409 . S
C465 C463 1.415 . S
C466 H456 0.930 . S
C466 C464 1.419 . S
C466 C467 1.362 . S
C467 H457 0.930 . S
C467 C460 1.409 . S
C467 C466 1.362 . S
H468 C474 0.930 1_556 S
H469 C477 0.930 . S
H470 C478 0.930 . S
H471 C479 0.930 . S
H472 C482 0.930 . S
H473 C483 0.930 . S
C474 H468 0.930 1_554 S
C474 C475 1.355 . S
C474 C476 1.415 1_554 S
C475 C474 1.355 . S
C475 C477 1.419 . S
C476 C474 1.415 1_556 S
C476 C481 1.425 1_556 S
C476 C483 1.409 . S
C477 H469 0.930 . S
C477 C475 1.419 . S
C477 C478 1.362 . S
C478 H470 0.930 . S
C478 C477 1.362 . S
C478 C481 1.409 . S
C479 H471 0.930 . S
C479 C480 1.355 1_554 S
C479 C481 1.415 . S
C480 C479 1.355 1_556 S
C480 C482 1.419 . S
C481 C476 1.425 1_554 S
C481 C478 1.409 . S
C481 C479 1.415 . S
C482 H472 0.930 . S
C482 C480 1.419 . S
C482 C483 1.362 . S
C483 H473 0.930 . S
C483 C476 1.409 . S
C483 C482 1.362 . S
H484 C490 0.930 . S
H485 C493 0.930 . S
H486 C494 0.930 . S
H487 C495 0.930 . S
H488 C498 0.930 . S
H489 C499 0.930 . S
C490 H484 0.930 . S
C490 C491 1.355 . S
C490 C492 1.415 . S
C491 C490 1.355 . S
C491 C493 1.419 . S
C492 C490 1.415 . S
C492 C497 1.425 1_554 S
C492 C499 1.409 . S
C493 H485 0.930 . S
C493 C491 1.419 . S
C493 C494 1.362 1_554 S
C494 H486 0.930 . S
C494 C493 1.362 1_556 S
C494 C497 1.409 . S
C495 H487 0.930 . S
C495 C496 1.355 . S
C495 C497 1.415 . S
C496 C495 1.355 . S
C496 C498 1.419 1_556 S
C497 C492 1.425 1_556 S
C497 C494 1.409 . S
C497 C495 1.415 . S
C498 H488 0.930 . S
C498 C496 1.419 1_554 S
C498 C499 1.362 . S
C499 H489 0.930 . S
C499 C492 1.409 . S
C499 C498 1.362 . S
H500 C506 0.930 . S
H501 C509 0.937 . S
H502 C510 0.930 1_455 S
H503 C511 0.930 1_455 S
H504 C514 0.930 . S
H505 C515 0.930 . S
C506 H500 0.930 . S
C506 C507 1.355 . S
C506 C508 1.415 . S
C507 C506 1.355 . S
C507 C509 1.419 . S
C508 C506 1.415 . S
C508 C513 1.425 . S
C508 C515 1.409 . S
C509 H501 0.937 . S
C509 C507 1.419 . S
C509 C510 1.362 . S
C510 H502 0.930 1_655 S
C510 C509 1.362 . S
C510 C513 1.409 . S
C511 H503 0.930 1_655 S
C511 C512 1.355 . S
C511 C513 1.415 . S
C512 C511 1.355 . S
C512 C514 1.419 . S
C513 C508 1.425 . S
C513 C510 1.409 . S
C513 C511 1.415 . S
C514 H504 0.930 . S
C514 C512 1.419 . S
C514 C515 1.362 . S
C515 H505 0.930 . S
C515 C508 1.409 . S
C515 C514 1.362 . S
H516 C522 0.930 . S
H517 C525 0.930 . S
H518 C526 0.930 . S
H519 C527 0.930 . S
H520 C530 0.930 . S
H521 C531 0.930 . S
C522 H516 0.930 . S
C522 C523 1.355 . S
C522 C524 1.415 . S
C523 C522 1.355 . S
C523 C525 1.419 . S
C524 C522 1.415 . S
C524 C529 1.425 . S
C524 C531 1.409 . S
C525 H517 0.930 . S
C525 C523 1.419 . S
C525 C526 1.362 . S
C526 H518 0.930 . S
C526 C525 1.362 . S
C526 C529 1.409 . S
C527 H519 0.930 . S
C527 C528 1.355 . S
C527 C529 1.415 . S
C528 C527 1.355 . S
C528 C530 1.419 . S
C529 C524 1.425 . S
C529 C526 1.409 . S
C529 C527 1.415 . S
C530 H520 0.930 . S
C530 C528 1.419 . S
C530 C531 1.362 . S
C531 H521 0.930 . S
C531 C524 1.409 . S
C531 C530 1.362 . S
H532 C538 0.930 . S
H533 C541 0.930 . S
H534 C542 0.930 . S
H535 C543 0.930 . S
H536 C546 0.930 . S
H537 C547 0.930 . S
C538 H532 0.930 . S
C538 C539 1.355 . S
C538 C540 1.415 . S
C539 C538 1.355 . S
C539 C541 1.419 . S
C540 C538 1.415 . S
C540 C545 1.425 . S
C540 C547 1.409 . S
C541 H533 0.930 . S
C541 C539 1.419 . S
C541 C542 1.362 . S
C542 H534 0.930 . S
C542 C541 1.362 . S
C542 C545 1.409 . S
C543 H535 0.930 . S
C543 C544 1.355 . S
C543 C545 1.415 . S
C544 C543 1.355 . S
C544 C546 1.419 . S
C545 C540 1.425 . S
C545 C542 1.409 . S
C545 C543 1.415 . S
C546 H536 0.930 . S
C546 C544 1.419 . S
C546 C547 1.362 . S
C547 H537 0.930 . S
C547 C540 1.409 . S
C547 C546 1.362 . S
H548 C554 0.930 . S
H549 C557 0.930 . S
H550 C558 0.930 . S
H551 C559 0.930 . S
H552 C562 0.930 . S
H553 C563 0.930 . S
C554 H548 0.930 . S
C554 C555 1.355 . S
C554 C556 1.415 . S
C555 C554 1.355 . S
C555 C557 1.419 . S
C556 C554 1.415 . S
C556 C561 1.425 . S
C556 C563 1.409 . S
C557 H549 0.930 . S
C557 C555 1.419 . S
C557 C558 1.362 . S
C558 H550 0.930 . S
C558 C557 1.362 . S
C558 C561 1.409 . S
C559 H551 0.930 . S
C559 C560 1.355 . S
C559 C561 1.415 . S
C560 C559 1.355 . S
C560 C562 1.419 . S
C561 C556 1.425 . S
C561 C558 1.409 . S
C561 C559 1.415 . S
C562 H552 0.930 . S
C562 C560 1.419 . S
C562 C563 1.362 . S
C563 H553 0.930 . S
C563 C556 1.409 . S
C563 C562 1.362 . S
C187 C76 1.598 . S
C192 C111 1.436 . S
C208 C135 1.494 . S
C203 C88 1.576 . S
C224 C156 1.438 . S
C219 C52 1.523 . S
C240 C174 1.490 . S
C235 C64 1.536 . S
C256 C114 1.360 . S
C251 C28 1.523 1_556 S
C267 C40 1.480 1_556 S
C272 C132 1.418 . S
C283 C4 1.460 1_556 S
C288 C153 1.378 . S
C299 C16 1.482 1_556 S
C304 C177 1.435 . S
C320 C112 0.808 . S
C315 C69 0.834 . S
C336 C130 0.771 . S
C331 C81 0.804 . S
C352 C151 0.795 . S
C347 C93 0.825 . S
C363 C57 0.738 . S
C368 C175 0.714 . S
C379 C21 0.809 1_556 S
C384 C110 0.810 . S
C400 C134 0.815 . S
C395 C33 0.838 1_556 S
C416 C155 0.861 . S
C411 C45 0.790 1_556 S
C427 C9 0.789 1_556 S
C432 C173 0.811 . S
C443 C66 1.572 . S
C448 C113 1.577 . S
C459 C78 1.566 . S
C464 C131 1.568 . S
C480 C152 1.551 . S
C475 C90 1.559 . S
C496 C176 1.564 . S
C491 C54 1.626 . S
C507 C18 1.475 . S
C512 C109 1.470 1_655 S
C528 C133 1.459 1_565 S
C523 C30 1.490 . S
C544 C154 1.468 . S
C539 C42 1.480 . S
C555 C6 1.485 . S
C560 C172 1.464 . S
