# Generated by pormake.
# Topology ctn, (3,4)-cn, num edge types: 1
# Building blocks:
#     Node 0, Type 0, BuildingBlock: BETDIP_clean_linker_0, # of connection points: 3
#     Node 1, Type 0, BuildingBlock: BETDIP_clean_linker_0, # of connection points: 3
#     Node 2, Type 0, BuildingBlock: BETDIP_clean_linker_0, # of connection points: 3
#     Node 3, Type 0, BuildingBlock: BETDIP_clean_linker_0, # of connection points: 3
#     Node 4, Type 0, BuildingBlock: BETDIP_clean_linker_0, # of connection points: 3
#     Node 5, Type 0, BuildingBlock: BETDIP_clean_linker_0, # of connection points: 3
#     Node 6, Type 0, BuildingBlock: BETDIP_clean_linker_0, # of connection points: 3
#     Node 7, Type 0, BuildingBlock: BETDIP_clean_linker_0, # of connection points: 3
#     Node 8, Type 0, BuildingBlock: BETDIP_clean_linker_0, # of connection points: 3
#     Node 9, Type 0, BuildingBlock: BETDIP_clean_linker_0, # of connection points: 3
#     Node 10, Type 0, BuildingBlock: BETDIP_clean_linker_0, # of connection points: 3
#     Node 11, Type 0, BuildingBlock: BETDIP_clean_linker_0, # of connection points: 3
#     Node 12, Type 0, BuildingBlock: BETDIP_clean_linker_0, # of connection points: 3
#     Node 13, Type 0, BuildingBlock: BETDIP_clean_linker_0, # of connection points: 3
#     Node 14, Type 0, BuildingBlock: BETDIP_clean_linker_0, # of connection points: 3
#     Node 15, Type 0, BuildingBlock: BETDIP_clean_linker_0, # of connection points: 3
#     Node 16, Type 1, BuildingBlock: AZAVOO_clean_sbu_0, # of connection points: 4
#     Node 17, Type 1, BuildingBlock: AZAVOO_clean_sbu_0, # of connection points: 4
#     Node 18, Type 1, BuildingBlock: AZAVOO_clean_sbu_0, # of connection points: 4
#     Node 19, Type 1, BuildingBlock: AZAVOO_clean_sbu_0, # of connection points: 4
#     Node 20, Type 1, BuildingBlock: AZAVOO_clean_sbu_0, # of connection points: 4
#     Node 21, Type 1, BuildingBlock: AZAVOO_clean_sbu_0, # of connection points: 4
#     Node 22, Type 1, BuildingBlock: AZAVOO_clean_sbu_0, # of connection points: 4
#     Node 23, Type 1, BuildingBlock: AZAVOO_clean_sbu_0, # of connection points: 4
#     Node 24, Type 1, BuildingBlock: AZAVOO_clean_sbu_0, # of connection points: 4
#     Node 25, Type 1, BuildingBlock: AZAVOO_clean_sbu_0, # of connection points: 4
#     Node 26, Type 1, BuildingBlock: AZAVOO_clean_sbu_0, # of connection points: 4
#     Node 27, Type 1, BuildingBlock: AZAVOO_clean_sbu_0, # of connection points: 4
#     Edge 28, Type (0, 1), BuildingBlock: TEMPAE_clean_linker_10, # of connection points: 2
#     Edge 29, Type (0, 1), BuildingBlock: TEMPAE_clean_linker_10, # of connection points: 2
#     Edge 30, Type (0, 1), BuildingBlock: TEMPAE_clean_linker_10, # of connection points: 2
#     Edge 31, Type (0, 1), BuildingBlock: TEMPAE_clean_linker_10, # of connection points: 2
#     Edge 32, Type (0, 1), BuildingBlock: TEMPAE_clean_linker_10, # of connection points: 2
#     Edge 33, Type (0, 1), BuildingBlock: TEMPAE_clean_linker_10, # of connection points: 2
#     Edge 34, Type (0, 1), BuildingBlock: TEMPAE_clean_linker_10, # of connection points: 2
#     Edge 35, Type (0, 1), BuildingBlock: TEMPAE_clean_linker_10, # of connection points: 2
#     Edge 36, Type (0, 1), BuildingBlock: TEMPAE_clean_linker_10, # of connection points: 2
#     Edge 37, Type (0, 1), BuildingBlock: TEMPAE_clean_linker_10, # of connection points: 2
#     Edge 38, Type (0, 1), BuildingBlock: TEMPAE_clean_linker_10, # of connection points: 2
#     Edge 39, Type (0, 1), BuildingBlock: TEMPAE_clean_linker_10, # of connection points: 2
#     Edge 40, Type (0, 1), BuildingBlock: TEMPAE_clean_linker_10, # of connection points: 2
#     Edge 41, Type (0, 1), BuildingBlock: TEMPAE_clean_linker_10, # of connection points: 2
#     Edge 42, Type (0, 1), BuildingBlock: TEMPAE_clean_linker_10, # of connection points: 2
#     Edge 43, Type (0, 1), BuildingBlock: TEMPAE_clean_linker_10, # of connection points: 2
#     Edge 44, Type (0, 1), BuildingBlock: TEMPAE_clean_linker_10, # of connection points: 2
#     Edge 45, Type (0, 1), BuildingBlock: TEMPAE_clean_linker_10, # of connection points: 2
#     Edge 46, Type (0, 1), BuildingBlock: TEMPAE_clean_linker_10, # of connection points: 2
#     Edge 47, Type (0, 1), BuildingBlock: TEMPAE_clean_linker_10, # of connection points: 2
#     Edge 48, Type (0, 1), BuildingBlock: TEMPAE_clean_linker_10, # of connection points: 2
#     Edge 49, Type (0, 1), BuildingBlock: TEMPAE_clean_linker_10, # of connection points: 2
#     Edge 50, Type (0, 1), BuildingBlock: TEMPAE_clean_linker_10, # of connection points: 2
#     Edge 51, Type (0, 1), BuildingBlock: TEMPAE_clean_linker_10, # of connection points: 2
#     Edge 52, Type (0, 1), BuildingBlock: TEMPAE_clean_linker_10, # of connection points: 2
#     Edge 53, Type (0, 1), BuildingBlock: TEMPAE_clean_linker_10, # of connection points: 2
#     Edge 54, Type (0, 1), BuildingBlock: TEMPAE_clean_linker_10, # of connection points: 2
#     Edge 55, Type (0, 1), BuildingBlock: TEMPAE_clean_linker_10, # of connection points: 2
#     Edge 56, Type (0, 1), BuildingBlock: TEMPAE_clean_linker_10, # of connection points: 2
#     Edge 57, Type (0, 1), BuildingBlock: TEMPAE_clean_linker_10, # of connection points: 2
#     Edge 58, Type (0, 1), BuildingBlock: TEMPAE_clean_linker_10, # of connection points: 2
#     Edge 59, Type (0, 1), BuildingBlock: TEMPAE_clean_linker_10, # of connection points: 2
#     Edge 60, Type (0, 1), BuildingBlock: TEMPAE_clean_linker_10, # of connection points: 2
#     Edge 61, Type (0, 1), BuildingBlock: TEMPAE_clean_linker_10, # of connection points: 2
#     Edge 62, Type (0, 1), BuildingBlock: TEMPAE_clean_linker_10, # of connection points: 2
#     Edge 63, Type (0, 1), BuildingBlock: TEMPAE_clean_linker_10, # of connection points: 2
#     Edge 64, Type (0, 1), BuildingBlock: TEMPAE_clean_linker_10, # of connection points: 2
#     Edge 65, Type (0, 1), BuildingBlock: TEMPAE_clean_linker_10, # of connection points: 2
#     Edge 66, Type (0, 1), BuildingBlock: TEMPAE_clean_linker_10, # of connection points: 2
#     Edge 67, Type (0, 1), BuildingBlock: TEMPAE_clean_linker_10, # of connection points: 2
#     Edge 68, Type (0, 1), BuildingBlock: TEMPAE_clean_linker_10, # of connection points: 2
#     Edge 69, Type (0, 1), BuildingBlock: TEMPAE_clean_linker_10, # of connection points: 2
#     Edge 70, Type (0, 1), BuildingBlock: TEMPAE_clean_linker_10, # of connection points: 2
#     Edge 71, Type (0, 1), BuildingBlock: TEMPAE_clean_linker_10, # of connection points: 2
#     Edge 72, Type (0, 1), BuildingBlock: TEMPAE_clean_linker_10, # of connection points: 2
#     Edge 73, Type (0, 1), BuildingBlock: TEMPAE_clean_linker_10, # of connection points: 2
#     Edge 74, Type (0, 1), BuildingBlock: TEMPAE_clean_linker_10, # of connection points: 2
#     Edge 75, Type (0, 1), BuildingBlock: TEMPAE_clean_linker_10, # of connection points: 2
# Relax obj value: 0.067
# Max RMSD: 0.204
# Mean RMSD: 0.114
data_MOF--net-ctn--node1-AZAVOO_clean_sbu_0--node2-BETDIP_clean_linker_0--edge1-TEMPAE_clean_linker_10
_symmetry_space_group_name_H-M    P1
_symmetry_Int_Tables_number       1
_symmetry_cell_setting            triclinic
loop_
_symmetry_equiv_pos_as_xyz
'x, y, z'
_cell_length_a     52.136338
_cell_length_b     53.354726
_cell_length_c     58.447463
_cell_angle_alpha  93.595185
_cell_angle_beta   96.783626
_cell_angle_gamma 96.209116
loop_
_atom_site_label
_atom_site_type_symbol
_atom_site_fract_x
_atom_site_fract_y
_atom_site_fract_z
_atom_type_partial_charge
H0 H 0.00641 0.03889 0.03652 0.0
H1 H 0.05974 0.01209 0.99278 0.0
H2 H 0.06009 0.98838 0.06202 0.0
H3 H 0.02892 0.02501 0.96365 0.0
C4 C 0.02794 0.04309 0.97296 0.0
C5 C 0.02162 0.02712 0.03371 0.0
C6 C 0.03146 0.01296 0.05142 0.0
C7 C 0.03182 0.02705 0.01267 0.0
C8 C 0.05187 0.01221 0.0091 0.0
C9 C 0.06234 0.99806 0.02674 0.0
C10 C 0.05202 0.99868 0.04801 0.0
N11 N 0.02332 0.04405 0.99644 0.0
H12 H 0.26657 0.71312 0.21768 0.0
H13 H 0.34173 0.75448 0.23978 0.0
H14 H 0.31385 0.69338 0.27791 0.0
H15 H 0.33604 0.77245 0.20704 0.0
C16 C 0.31604 0.76851 0.19904 0.0
C17 C 0.28409 0.7163 0.22995 0.0
C18 C 0.2876 0.70065 0.24824 0.0
C19 C 0.30329 0.73571 0.22668 0.0
C20 C 0.32657 0.73965 0.24195 0.0
C21 C 0.33058 0.72397 0.26015 0.0
C22 C 0.31095 0.70482 0.26335 0.0
N23 N 0.29823 0.75044 0.20759 0.0
H24 H 0.95837 0.50281 0.01112 0.0
H25 H 0.01826 0.475 0.05564 0.0
H26 H 0.97741 0.53449 0.08152 0.0
H27 H 0.03551 0.47083 0.02123 0.0
C28 C 0.01814 0.46206 0.01031 0.0
C29 C 0.96973 0.50347 0.02796 0.0
C30 C 0.96496 0.52023 0.04612 0.0
C31 C 0.98955 0.48791 0.03107 0.0
C32 C 0.00423 0.48837 0.05285 0.0
C33 C 1.00045 0.50536 0.07122 0.0
C34 C 0.98068 0.5213 0.06761 0.0
N35 N 0.9939 0.4714 0.01221 0.0
H36 H 0.71604 0.7964 0.20121 0.0
H37 H 0.73771 0.87033 0.23631 0.0
H38 H 0.77719 0.84695 0.17974 0.0
H39 H 0.69947 0.86419 0.24923 0.0
C40 C 0.69453 0.84396 0.2497 0.0
C41 C 0.7278 0.8146 0.20279 0.0
C42 C 0.74713 0.81935 0.18827 0.0
C43 C 0.72378 0.83295 0.21983 0.0
C44 C 0.73979 0.85626 0.22274 0.0
C45 C 0.75904 0.86141 0.20822 0.0
C46 C 0.76231 0.843 0.19092 0.0
N47 N 0.70432 0.82669 0.23433 0.0
H48 H 0.02709 0.98346 0.45132 0.0
H49 H 0.0915 0.01116 0.50267 0.0
H50 H 0.08007 0.04732 0.43926 0.0
H51 H 0.07489 0.98385 0.52454 0.0
C52 C 0.0608 0.96992 0.51427 0.0
C53 C 0.0439 0.99712 0.45709 0.0
C54 C 0.05152 0.01603 0.44278 0.0
C55 C 0.05813 0.99504 0.47864 0.0
C56 C 0.08041 0.01234 0.48606 0.0
C57 C 0.08857 0.03138 0.47197 0.0
C58 C 0.07393 0.03294 0.45037 0.0
N59 N 0.04988 0.97465 0.49168 0.0
H60 H 0.2012 0.73658 0.78806 0.0
H61 H 0.24085 0.69215 0.74298 0.0
H62 H 0.2759 0.71462 0.81282 0.0
H63 H 0.22076 0.72237 0.71739 0.0
C64 C 0.20133 0.71821 0.72221 0.0
C65 C 0.21789 0.72683 0.78525 0.0
C66 C 0.2385 0.72715 0.80305 0.0
C67 C 0.21908 0.71501 0.76344 0.0
C68 C 0.24059 0.70224 0.7596 0.0
C69 C 0.26109 0.70153 0.77748 0.0
C70 C 0.26004 0.71451 0.79903 0.0
N71 N 0.1981 0.71586 0.74579 0.0
H72 H 0.98949 0.54336 0.46347 0.0
H73 H 0.94474 0.47027 0.44951 0.0
H74 H 0.92441 0.52375 0.50033 0.0
H75 H 0.96994 0.46282 0.42374 0.0
C76 C 0.9842 0.47885 0.42246 0.0
C77 C 0.9736 0.52984 0.46692 0.0
C78 C 0.95761 0.53631 0.48354 0.0
C79 C 0.96903 0.50629 0.45426 0.0
C80 C 0.94831 0.48877 0.45863 0.0
C81 C 0.93214 0.49488 0.47531 0.0
C82 C 0.93686 0.51877 0.48756 0.0
N83 N 0.98566 0.5013 0.43729 0.0
H84 H 0.80297 0.81969 0.76526 0.0
H85 H 0.83503 0.76409 0.80685 0.0
H86 H 0.7636 0.79189 0.82078 0.0
H87 H 0.86085 0.7597 0.77993 0.0
C88 C 0.8603 0.77498 0.76857 0.0
C89 C 0.80175 0.80735 0.77925 0.0
C90 C 0.78089 0.80747 0.79233 0.0
C91 C 0.82105 0.79142 0.78382 0.0
C92 C 0.81988 0.7759 0.8024 0.0
C93 C 0.79907 0.77585 0.81573 0.0
C94 C 0.77936 0.79134 0.81027 0.0
N95 N 0.84124 0.79206 0.7694 0.0
H96 H 0.28603 0.31456 0.25498 0.0
H97 H 0.32185 0.26321 0.29922 0.0
H98 H 0.25882 0.30107 0.32022 0.0
H99 H 0.34772 0.25841 0.2726 0.0
C100 C 0.34475 0.27137 0.25924 0.0
C101 C 0.28698 0.30483 0.27074 0.0
C102 C 0.26994 0.30951 0.28694 0.0
C103 C 0.30601 0.28852 0.27496 0.0
C104 C 0.30741 0.27595 0.2955 0.0
C105 C 0.29038 0.28042 0.3119 0.0
C106 C 0.27193 0.29748 0.30762 0.0
N107 N 0.32368 0.28625 0.25837 0.0
H108 H 0.4619 0.0022 0.5202 0.0
H109 H 0.51745 0.97392 0.56922 0.0
H110 H 0.4829 0.0402 0.58835 0.0
H111 H 0.50337 0.93754 0.54998 0.0
C112 C 0.50023 0.94186 0.53203 0.0
C113 C 0.473 0.00375 0.53722 0.0
C114 C 0.47054 0.02378 0.55342 0.0
C115 C 0.48917 0.98521 0.54296 0.0
C116 C 0.50362 0.98714 0.56497 0.0
C117 C 0.50109 0.00653 0.58161 0.0
C118 C 0.48463 0.02495 0.57569 0.0
N119 N 0.49083 0.96502 0.52626 0.0
H120 H 0.21505 0.30243 0.69042 0.0
H121 H 0.24547 0.37129 0.73149 0.0
H122 H 0.28402 0.34667 0.67482 0.0
H123 H 0.20624 0.36809 0.74356 0.0
C124 C 0.20009 0.34798 0.74338 0.0
C125 C 0.22951 0.31882 0.69391 0.0
C126 C 0.24952 0.3225 0.67987 0.0
C127 C 0.22774 0.33624 0.71247 0.0
C128 C 0.24625 0.3578 0.71707 0.0
C129 C 0.26619 0.36193 0.70306 0.0
C130 C 0.26783 0.34406 0.68481 0.0
N131 N 0.2078 0.33074 0.72667 0.0
H132 H 0.77187 0.21222 0.71779 0.0
H133 H 0.84713 0.25443 0.73691 0.0
H134 H 0.82667 0.18654 0.76959 0.0
H135 H 0.83886 0.27258 0.7044 0.0
C136 C 0.81825 0.26942 0.69821 0.0
C137 C 0.79082 0.21432 0.72803 0.0
C138 C 0.79701 0.19663 0.74398 0.0
C139 C 0.80882 0.23485 0.72495 0.0
C140 C 0.83318 0.23836 0.73863 0.0
C141 C 0.83967 0.22098 0.75485 0.0
C142 C 0.8216 0.20007 0.75723 0.0
N143 N 0.80144 0.25128 0.70778 0.0
H144 H 0.49426 0.52977 0.52343 0.0
H145 H 0.54566 0.4972 0.48086 0.0
H146 H 0.55148 0.48489 0.55313 0.0
H147 H 0.52785 0.51605 0.45302 0.0
C148 C 0.51738 0.53073 0.4598 0.0
C149 C 0.50979 0.51813 0.52145 0.0
C150 C 0.5214 0.50713 0.54066 0.0
C151 C 0.51881 0.51534 0.49994 0.0
C152 C 0.53909 0.50037 0.49749 0.0
C153 C 0.55109 0.48916 0.51647 0.0
C154 C 0.54223 0.49292 0.53816 0.0
N155 N 0.50841 0.52941 0.48181 0.0
H156 H 0.51713 0.49378 0.95159 0.0
H157 H 0.58232 0.51935 0.00276 0.0
H158 H 0.57619 0.55103 0.93691 0.0
H159 H 0.5632 0.49435 0.02538 0.0
C160 C 0.54964 0.48007 0.01494 0.0
C161 C 0.53516 0.50596 0.95675 0.0
C162 C 0.54447 0.52341 0.94175 0.0
C163 C 0.54887 0.5039 0.97855 0.0
C164 C 0.57192 0.52023 0.9858 0.0
C165 C 0.58167 0.5379 0.9711 0.0
C166 C 0.56807 0.53872 0.94892 0.0
N167 N 0.53933 0.48444 0.99206 0.0
H168 H 0.70267 0.24423 0.28593 0.0
H169 H 0.73718 0.19567 0.24003 0.0
H170 H 0.77122 0.21116 0.31102 0.0
H171 H 0.69453 0.18859 0.22223 0.0
C172 C 0.6882 0.2073 0.22363 0.0
C173 C 0.71763 0.23219 0.28303 0.0
C174 C 0.73701 0.2292 0.3011 0.0
C175 C 0.7172 0.2198 0.26119 0.0
C176 C 0.73681 0.20448 0.25716 0.0
C177 C 0.75665 0.20138 0.275 0.0
C178 C 0.75651 0.21385 0.29695 0.0
N179 N 0.69725 0.22396 0.24355 0.0
H180 H 0.48662 0.0512 0.95802 0.0
H181 H 0.44178 0.97814 0.94485 0.0
H182 H 0.42163 0.03237 0.99519 0.0
H183 H 0.46607 0.97099 0.91799 0.0
C184 C 0.48125 0.98646 0.91758 0.0
C185 C 0.47065 0.03784 0.96157 0.0
C186 C 0.45479 0.04456 0.9782 0.0
C187 C 0.46599 0.01419 0.94915 0.0
C188 C 0.44527 0.99679 0.95371 0.0
C189 C 0.42915 0.00316 0.97038 0.0
C190 C 0.43396 0.0272 0.98239 0.0
N191 N 0.48283 0.00886 0.93247 0.0
Mg192 Mg 0.23215 0.84294 0.00784 0.0
O193 O 0.27009 0.86808 0.00441 0.0
O194 O 0.30224 0.84354 0.0084 0.0
Mg195 Mg 0.2857 0.80361 0.01515 0.0
C196 C 0.2941 0.86489 0.0049 0.0
C197 C 0.2105 0.89388 0.00926 0.0
O198 O 0.23017 0.89698 0.02582 0.0
O199 O 0.23269 0.82465 0.97122 0.0
O200 O 0.26373 0.79928 0.97847 0.0
O201 O 0.23785 0.85114 0.04618 0.0
O202 O 0.25289 0.81931 0.02829 0.0
C203 C 0.24619 0.80748 0.96468 0.0
C204 C 0.25134 0.83222 0.04732 0.0
O205 O 0.20709 0.87359 0.99605 0.0
Mg206 Mg 0.14458 0.50375 0.27284 0.0
O207 O 0.12041 0.50293 0.23697 0.0
O208 O 0.14907 0.51106 0.21187 0.0
Mg209 Mg 0.19052 0.51561 0.23072 0.0
C210 C 0.1258 0.50649 0.21655 0.0
C211 C 0.11394 0.47805 0.30832 0.0
O212 O 0.13817 0.47607 0.31647 0.0
O213 O 0.1569 0.46477 0.26433 0.0
O214 O 0.18706 0.47455 0.24116 0.0
O215 O 0.1443 0.54567 0.27849 0.0
O216 O 0.17413 0.52749 0.26178 0.0
C217 C 0.17474 0.45861 0.25259 0.0
C218 C 0.16479 0.54784 0.26793 0.0
O219 O 0.10942 0.48749 0.28902 0.0
Mg220 Mg 0.80266 0.68687 0.01964 0.0
O221 O 0.76272 0.66269 0.01355 0.0
O222 O 0.73247 0.68948 0.01373 0.0
Mg223 Mg 0.75241 0.73016 0.0175 0.0
C224 C 0.73901 0.66711 0.01235 0.0
C225 C 0.82378 0.63579 0.02733 0.0
O226 O 0.8092 0.63796 0.04405 0.0
O227 O 0.79797 0.69635 0.98167 0.0
O228 O 0.76893 0.72422 0.983 0.0
O229 O 0.80184 0.68875 0.05812 0.0
O230 O 0.7867 0.71667 0.03548 0.0
C231 C 0.78421 0.71218 0.97206 0.0
C232 C 0.79012 0.70876 0.0558 0.0
O233 O 0.82394 0.65234 0.01257 0.0
Mg234 Mg 0.93887 0.05679 0.23789 0.0
O235 O 0.90966 0.02071 0.2309 0.0
O236 O 0.93233 0.9881 0.22531 0.0
Mg237 Mg 0.97547 0.00267 0.2285 0.0
C238 C 0.91078 0.99706 0.22672 0.0
C239 C 0.9002 0.09725 0.2385 0.0
O240 O 0.91215 0.10269 0.22055 0.0
O241 O 0.95139 0.04557 0.27447 0.0
O242 O 0.9743 0.01357 0.26696 0.0
O243 O 0.93725 0.06194 0.19994 0.0
O244 O 0.96485 0.03966 0.21877 0.0
C245 C 0.96529 0.02844 0.28119 0.0
C246 C 0.95554 0.04743 0.19944 0.0
O247 O 0.90688 0.07904 0.25005 0.0
Mg248 Mg 0.30615 0.18739 0.51449 0.0
O249 O 0.26779 0.1603 0.50988 0.0
O250 O 0.23522 0.18458 0.50963 0.0
Mg251 Mg 0.25181 0.22603 0.51118 0.0
C252 C 0.24361 0.16298 0.509 0.0
C253 C 0.35356 0.15927 0.51818 0.0
O254 O 0.36147 0.18196 0.52825 0.0
O255 O 0.29989 0.19518 0.47626 0.0
O256 O 0.26723 0.21921 0.47619 0.0
O257 O 0.30706 0.19033 0.55289 0.0
O258 O 0.28746 0.21552 0.52975 0.0
C259 C 0.28373 0.20832 0.46577 0.0
C260 C 0.29273 0.20852 0.55028 0.0
O261 O 0.33016 0.15469 0.50859 0.0
Mg262 Mg 0.44167 0.55989 0.73185 0.0
O263 O 0.41508 0.52232 0.72637 0.0
O264 O 0.44006 0.49133 0.72179 0.0
Mg265 Mg 0.4823 0.50899 0.72277 0.0
C266 C 0.41783 0.4989 0.72325 0.0
C267 C 0.41206 0.60315 0.75116 0.0
O268 O 0.43561 0.61522 0.75262 0.0
O269 O 0.45591 0.55005 0.76853 0.0
O270 O 0.48301 0.5216 0.76121 0.0
O271 O 0.43794 0.56425 0.69374 0.0
O272 O 0.46797 0.54422 0.71217 0.0
C273 C 0.47269 0.53545 0.77535 0.0
C274 C 0.45708 0.55082 0.69288 0.0
O275 O 0.40838 0.57987 0.74402 0.0
Mg276 Mg 0.72881 0.34077 0.5073 0.0
O277 O 0.76805 0.36406 0.50502 0.0
O278 O 0.79871 0.33794 0.50969 0.0
Mg279 Mg 0.77963 0.29861 0.51556 0.0
C280 C 0.79181 0.35977 0.50614 0.0
C281 C 0.68243 0.36868 0.48844 0.0
O282 O 0.67192 0.34509 0.4841 0.0
O283 O 0.7297 0.32267 0.47068 0.0
O284 O 0.75906 0.29567 0.47836 0.0
O285 O 0.73379 0.34912 0.54544 0.0
O286 O 0.74737 0.31603 0.52805 0.0
C287 C 0.74257 0.30492 0.4643 0.0
C288 C 0.74619 0.32945 0.5469 0.0
O289 O 0.70658 0.37314 0.49558 0.0
Mg290 Mg 0.65381 1.00003 0.77615 0.0
O291 O 0.62966 0.99909 0.74039 0.0
O292 O 0.65753 0.0003 0.71415 0.0
Mg293 Mg 0.6989 0.00217 0.7327 0.0
C294 C 0.6344 0.99952 0.71945 0.0
C295 C 0.61974 0.97939 0.81198 0.0
O296 O 0.64298 0.97478 0.82078 0.0
O297 O 0.66176 0.95896 0.77045 0.0
O298 O 0.69069 0.96229 0.7451 0.0
O299 O 0.65793 0.04218 0.77822 0.0
O300 O 0.68582 0.019 0.76399 0.0
C301 C 0.67736 0.94923 0.75812 0.0
C302 C 0.67875 0.041 0.76829 0.0
O303 O 0.6172 0.98901 0.7926 0.0
Mg304 Mg 0.05851 0.25555 0.89486 0.0
O305 O 0.01849 0.24735 0.87291 0.0
O306 O 0.99013 0.23355 0.89652 0.0
Mg307 Mg 0.01156 0.2316 0.93267 0.0
C308 C 0.99539 0.23952 0.87661 0.0
C309 C 0.1 0.28085 0.8684 0.0
O310 O 0.1135 0.27286 0.88637 0.0
O311 O 0.04566 0.2912 0.91162 0.0
O312 O 0.01954 0.27495 0.93601 0.0
O313 O 0.06704 0.2158 0.8874 0.0
O314 O 0.04697 0.22837 0.91658 0.0
C315 C 0.03122 0.29389 0.9276 0.0
C316 C 0.05477 0.21018 0.90472 0.0
O317 O 0.07533 0.27718 0.86658 0.0
Mg318 Mg 0.54989 0.7516 0.39878 0.0
O319 O 0.50924 0.74491 0.37791 0.0
O320 O 0.48145 0.72911 0.40114 0.0
Mg321 Mg 0.50377 0.72689 0.43682 0.0
C322 C 0.48631 0.73644 0.38155 0.0
C323 C 0.59074 0.77674 0.37229 0.0
O324 O 0.6039 0.76853 0.39034 0.0
O325 O 0.53871 0.78732 0.41693 0.0
O326 O 0.51087 0.77025 0.43958 0.0
O327 O 0.55571 0.71155 0.38945 0.0
O328 O 0.53946 0.72429 0.42092 0.0
C329 C 0.52303 0.78947 0.43199 0.0
C330 C 0.54542 0.70604 0.40787 0.0
O331 O 0.56604 0.77334 0.37028 0.0
Mg332 Mg 0.98795 0.75146 0.59176 0.0
O333 O 0.02784 0.74432 0.61 0.0
O334 O 0.0517 0.73244 0.58269 0.0
Mg335 Mg 0.02848 0.73483 0.54733 0.0
C336 C 0.04871 0.73696 0.60386 0.0
C337 C 0.95229 0.76019 0.62723 0.0
O338 O 0.93827 0.74697 0.60946 0.0
O339 O 0.00553 0.78995 0.58218 0.0
O340 O 0.02894 0.77795 0.55461 0.0
O341 O 0.9738 0.71045 0.59111 0.0
O342 O 0.9925 0.72772 0.56301 0.0
C343 C 0.02059 0.79522 0.56696 0.0
C344 C 0.98266 0.70768 0.57146 0.0
O345 O 0.97611 0.76719 0.62575 0.0
Mg346 Mg 0.48407 0.2578 0.0891 0.0
O347 O 0.52348 0.25091 0.10855 0.0
O348 O 0.54975 0.24343 0.08194 0.0
Mg349 Mg 0.52742 0.24495 0.04603 0.0
C350 C 0.54546 0.24589 0.10299 0.0
C351 C 0.44625 0.26256 0.12311 0.0
O352 O 0.43406 0.24879 0.10481 0.0
O353 O 0.50076 0.29739 0.08103 0.0
O354 O 0.5253 0.28755 0.05364 0.0
O355 O 0.47113 0.21661 0.08717 0.0
O356 O 0.49076 0.23529 0.06024 0.0
C357 C 0.51586 0.3039 0.06615 0.0
C358 C 0.48102 0.21471 0.06795 0.0
O359 O 0.46977 0.27164 0.12264 0.0
C360 C 0.25906 0.75719 0.83643 0.0
C361 C 0.23757 0.74074 0.82584 0.0
C362 C 0.25876 0.76963 0.85826 0.0
C363 C 0.23654 0.76527 0.8699 0.0
C364 C 0.21456 0.74911 0.85906 0.0
C365 C 0.21529 0.73713 0.83709 0.0
C366 C 0.2825 0.78692 0.86913 0.0
C367 C 0.19065 0.7437 0.87103 0.0
C368 C 0.24985 0.77263 0.93525 0.0
C369 C 0.24191 0.79643 0.94043 0.0
C370 C 0.24754 0.76209 0.91244 0.0
C371 C 0.23732 0.77578 0.89421 0.0
C372 C 0.22879 0.79962 0.89928 0.0
C373 C 0.231 0.80961 0.9224 0.0
C374 C 0.2565 0.73645 0.90785 0.0
C375 C 0.21801 0.81484 0.88024 0.0
H376 H 0.27616 0.76031 0.8276 0.0
H377 H 0.19869 0.72431 0.82898 0.0
H378 H 0.27689 0.80554 0.87492 0.0
H379 H 0.29155 0.77869 0.88463 0.0
H380 H 0.29727 0.78996 0.85705 0.0
H381 H 0.17451 0.73223 0.85959 0.0
H382 H 0.19555 0.73329 0.88651 0.0
H383 H 0.18377 0.76162 0.87707 0.0
H384 H 0.25802 0.76216 0.94909 0.0
H385 H 0.22491 0.82803 0.92628 0.0
H386 H 0.27305 0.73823 0.89752 0.0
H387 H 0.24061 0.72347 0.89761 0.0
H388 H 0.26277 0.72772 0.92404 0.0
H389 H 0.23322 0.81988 0.86901 0.0
H390 H 0.21119 0.83252 0.88708 0.0
H391 H 0.20155 0.80342 0.86921 0.0
C392 C 1.00106 0.4545 0.39078 0.0
C393 C 0.0023 0.47694 0.40489 0.0
C394 C 0.01805 0.45215 0.37401 0.0
C395 C 0.03664 0.47279 0.37132 0.0
C396 C 0.03788 0.49554 0.38547 0.0
C397 C 0.02071 0.49733 0.4021 0.0
C398 C 0.01619 0.42761 0.35927 0.0
C399 C 0.05742 0.51799 0.38311 0.0
C400 C 0.09847 0.4642 0.34493 0.0
C401 C 0.09293 0.47318 0.32304 0.0
C402 C 0.07988 0.46287 0.36045 0.0
C403 C 0.05515 0.47071 0.35395 0.0
C404 C 0.04895 0.47851 0.33144 0.0
C405 C 0.06791 0.47962 0.31624 0.0
C406 C 0.08717 0.45426 0.38424 0.0
C407 C 0.02274 0.48692 0.32383 0.0
H408 H 0.98681 0.43873 0.39292 0.0
H409 H 0.02177 0.51477 0.4129 0.0
H410 H 0.0125 0.4311 0.34072 0.0
H411 H 0.03492 0.41945 0.36184 0.0
H412 H 1.00047 0.41346 0.36336 0.0
H413 H 0.05566 0.5344 0.39527 0.0
H414 H 0.07744 0.51268 0.38641 0.0
H415 H 0.05477 0.52395 0.36522 0.0
H416 H 0.11768 0.45901 0.35029 0.0
H417 H 0.0634 0.48649 0.29933 0.0
H418 H 0.07209 0.43951 0.38836 0.0
H419 H 0.08825 0.47044 0.39734 0.0
H420 H 0.10623 0.44659 0.38586 0.0
H421 H 0.0069 0.47261 0.32735 0.0
H422 H 0.02011 0.49012 0.30514 0.0
H423 H 0.02067 0.50479 0.33385 0.0
C424 C 0.8203 0.76421 0.85357 0.0
C425 C 0.79873 0.76121 0.83648 0.0
C426 C 0.81908 0.75338 0.87477 0.0
C427 C 0.79584 0.7389 0.87879 0.0
C428 C 0.77458 0.7345 0.86098 0.0
C429 C 0.77618 0.74595 0.84012 0.0
C430 C 0.84203 0.75891 0.89339 0.0
C431 C 0.74965 0.7188 0.8644 0.0
C432 C 0.79725 0.70186 0.93265 0.0
C433 C 0.78684 0.71819 0.94791 0.0
C434 C 0.79995 0.70805 0.9099 0.0
C435 C 0.79256 0.73132 0.90248 0.0
C436 C 0.78218 0.74787 0.91789 0.0
C437 C 0.77924 0.74101 0.94025 0.0
C438 C 0.81063 0.68974 0.8938 0.0
C439 C 0.77445 0.77307 0.91087 0.0
H440 H 0.83768 0.77618 0.85085 0.0
H441 H 0.75957 0.74345 0.82681 0.0
H442 H 0.83692 0.77162 0.90751 0.0
H443 H 0.84697 0.74126 0.90101 0.0
H444 H 0.85951 0.76816 0.88677 0.0
H445 H 0.73648 0.71422 0.84794 0.0
H446 H 0.75386 0.70091 0.87196 0.0
H447 H 0.73928 0.72933 0.8767 0.0
H448 H 0.80308 0.68416 0.9384 0.0
H449 H 0.77141 0.7539 0.95195 0.0
H450 H 0.82886 0.69873 0.88828 0.0
H451 H 0.79657 0.68471 0.87797 0.0
H452 H 0.81475 0.67211 0.90196 0.0
H453 H 0.79139 0.78464 0.9055 0.0
H454 H 0.7671 0.78394 0.92506 0.0
H455 H 0.75907 0.77014 0.89582 0.0
C456 C 0.00914 0.01414 0.4167 0.0
C457 C 0.03646 0.01796 0.41974 0.0
C458 C 0.99485 0.01593 0.39502 0.0
C459 C 0.00815 0.02199 0.37598 0.0
C460 C 0.03567 0.02612 0.37897 0.0
C461 C 0.04945 0.02382 0.40069 0.0
C462 C 0.96555 0.01109 0.39243 0.0
C463 C 0.05063 0.03271 0.35912 0.0
C464 C 0.97945 0.00315 0.31388 0.0
C465 C 0.97263 0.02621 0.30619 0.0
C466 C 0.98966 0.00122 0.33691 0.0
C467 C 0.9936 0.02299 0.35259 0.0
C468 C 0.98569 0.04609 0.34522 0.0
C469 C 0.97506 0.04738 0.32211 0.0
C470 C 0.99734 0.97611 0.34416 0.0
C471 C 0.98981 0.06977 0.36137 0.0
H472 H 0.99889 0.00993 0.43134 0.0
H473 H 0.07051 0.02629 0.40265 0.0
H474 H 0.95692 0.02778 0.38587 0.0
H475 H 0.9587 0.99487 0.37955 0.0
H476 H 0.95811 0.0069 0.409 0.0
H477 H 0.0719 0.03668 0.3646 0.0
H478 H 0.04715 0.01685 0.3455 0.0
H479 H 0.04373 0.04955 0.35125 0.0
H480 H 0.97733 0.98664 0.30171 0.0
H481 H 0.96992 0.06526 0.31624 0.0
H482 H 0.98929 0.97136 0.3603 0.0
H483 H 0.01883 0.97731 0.34778 0.0
H484 H 0.9905 0.96048 0.33063 0.0
H485 H 0.98202 0.06604 0.37784 0.0
H486 H 0.98042 0.08554 0.35368 0.0
H487 H 0.01097 0.07588 0.36562 0.0
C488 C 0.26106 0.31211 0.64015 0.0
C489 C 0.25191 0.30381 0.66036 0.0
C490 C 0.26599 0.2949 0.62255 0.0
C491 C 0.26075 0.26864 0.62474 0.0
C492 C 0.25017 0.26005 0.64445 0.0
C493 C 0.24621 0.27772 0.66219 0.0
C494 C 0.2776 0.30486 0.60194 0.0
C495 C 0.24364 0.2322 0.64707 0.0
C496 C 0.25828 0.22888 0.56822 0.0
C497 C 0.28325 0.22121 0.57019 0.0
C498 C 0.25005 0.24306 0.58646 0.0
C499 C 0.26756 0.25038 0.60678 0.0
C500 C 0.29254 0.24197 0.60908 0.0
C501 C 0.29992 0.22712 0.59085 0.0
C502 C 0.22294 0.25087 0.5837 0.0
C503 C 0.312 0.24985 0.63023 0.0
H504 H 0.26479 0.33218 0.63817 0.0
H505 H 0.23933 0.27099 0.67774 0.0
H506 H 0.29659 0.29759 0.60071 0.0
H507 H 0.26471 0.29808 0.58578 0.0
H508 H 0.28068 0.32585 0.60295 0.0
H509 H 0.23285 0.22873 0.66208 0.0
H510 H 0.23173 0.2229 0.6312 0.0
H511 H 0.26178 0.22305 0.64945 0.0
H512 H 0.2452 0.22384 0.5524 0.0
H513 H 0.31927 0.22122 0.59229 0.0
H514 H 0.22397 0.27153 0.58203 0.0
H515 H 0.21326 0.24683 0.59921 0.0
H516 H 0.21072 0.241 0.56821 0.0
H517 H 0.31713 0.27067 0.63151 0.0
H518 H 0.33014 0.24074 0.62978 0.0
H519 H 0.30345 0.24499 0.6461 0.0
C520 C 0.52931 0.52305 0.58235 0.0
C521 C 0.51219 0.51141 0.56347 0.0
C522 C 0.52038 0.52897 0.60358 0.0
C523 C 0.49381 0.52254 0.6061 0.0
C524 C 0.47663 0.51007 0.58723 0.0
C525 C 0.48597 0.50497 0.56604 0.0
C526 C 0.53921 0.54272 0.62311 0.0
C527 C 0.44834 0.50234 0.58935 0.0
C528 C 0.47617 0.52016 0.66738 0.0
C529 C 0.46576 0.54309 0.67055 0.0
C530 C 0.48495 0.513 0.64636 0.0
C531 C 0.48386 0.52947 0.62827 0.0
C532 C 0.47335 0.55267 0.6314 0.0
C533 C 0.46411 0.55903 0.65239 0.0
C534 C 0.49532 0.4878 0.6435 0.0
C535 C 0.4723 0.57099 0.61273 0.0
H536 H 0.54954 0.52824 0.58025 0.0
H537 H 0.47278 0.49587 0.55142 0.0
H538 H 0.53258 0.56115 0.62807 0.0
H539 H 0.53976 0.53162 0.63854 0.0
H540 H 0.55925 0.54623 0.61841 0.0
H541 H 0.43794 0.49143 0.57352 0.0
H542 H 0.44662 0.49066 0.60427 0.0
H543 H 0.43848 0.51938 0.59264 0.0
H544 H 0.47705 0.50756 0.68116 0.0
H545 H 0.45618 0.57684 0.65483 0.0
H546 H 0.51595 0.49069 0.64033 0.0
H547 H 0.48429 0.47642 0.62822 0.0
H548 H 0.49402 0.4768 0.65892 0.0
H549 H 0.49216 0.5764 0.60829 0.0
H550 H 0.46396 0.58843 0.61803 0.0
H551 H 0.46037 0.56186 0.59682 0.0
C552 C 0.82572 0.29604 0.66552 0.0
C553 C 0.80841 0.28138 0.67728 0.0
C554 C 0.81707 0.30594 0.64464 0.0
C555 C 0.7905 0.30099 0.63545 0.0
C556 C 0.77281 0.28686 0.64767 0.0
C557 C 0.78197 0.27725 0.66846 0.0
C558 C 0.83645 0.32103 0.63211 0.0
C559 C 0.7443 0.28125 0.63845 0.0
C560 C 0.76015 0.33942 0.58921 0.0
C561 C 0.75917 0.32305 0.56931 0.0
C562 C 0.77113 0.3329 0.61081 0.0
C563 C 0.78124 0.30942 0.61249 0.0
C564 C 0.78091 0.29313 0.59237 0.0
C565 C 0.76986 0.30014 0.57101 0.0
C566 C 0.77122 0.35077 0.6319 0.0
C567 C 0.79145 0.26789 0.59349 0.0
H568 H 0.84615 0.29927 0.67238 0.0
H569 H 0.7684 0.2661 0.67755 0.0
H570 H 0.83816 0.31071 0.61538 0.0
H571 H 0.82964 0.33946 0.62817 0.0
H572 H 0.85604 0.32458 0.6423 0.0
H573 H 0.73291 0.27095 0.65057 0.0
H574 H 0.73588 0.29909 0.63508 0.0
H575 H 0.74203 0.26963 0.62176 0.0
H576 H 0.752 0.35721 0.588 0.0
H577 H 0.76903 0.28732 0.55575 0.0
H578 H 0.79109 0.35454 0.64149 0.0
H579 H 0.75839 0.34196 0.64375 0.0
H580 H 0.7644 0.36908 0.62743 0.0
H581 H 0.81172 0.27043 0.60227 0.0
H582 H 0.79118 0.25814 0.57609 0.0
H583 H 0.77966 0.25547 0.60382 0.0
C584 C 0.51787 0.98473 0.61598 0.0
C585 C 0.51627 0.00721 0.6049 0.0
C586 C 0.53513 0.98388 0.63614 0.0
C587 C 0.55109 0.00611 0.64562 0.0
C588 C 0.54838 0.02923 0.63537 0.0
C589 C 0.53099 0.02951 0.61508 0.0
C590 C 0.53731 0.95885 0.6465 0.0
C591 C 0.56488 0.05339 0.6451 0.0
C592 C 0.58797 0.00537 0.70584 0.0
C593 C 0.61268 0.00042 0.70072 0.0
C594 C 0.56776 0.00758 0.68814 0.0
C595 C 0.57229 0.00454 0.66476 0.0
C596 C 0.59708 0.99928 0.6595 0.0
C597 C 0.61694 0.99738 0.67749 0.0
C598 C 0.54163 0.01331 0.69442 0.0
C599 C 0.60264 0.9956 0.63479 0.0
H600 H 0.50616 0.96752 0.6084 0.0
H601 H 0.52988 0.04691 0.60657 0.0
H602 H 0.55652 0.95259 0.6442 0.0
H603 H 0.53611 0.96083 0.66534 0.0
H604 H 0.52189 0.94388 0.63836 0.0
H605 H 0.55833 0.0702 0.63685 0.0
H606 H 0.56443 0.0562 0.66401 0.0
H607 H 0.5854 0.05214 0.64229 0.0
H608 H 0.5845 0.00793 0.72371 0.0
H609 H 0.63589 0.99348 0.6733 0.0
H610 H 0.52632 0.99798 0.68687 0.0
H611 H 0.53653 0.03104 0.68702 0.0
H612 H 0.5413 0.01537 0.71341 0.0
H613 H 0.58924 0.97961 0.62557 0.0
H614 H 0.62296 0.99169 0.63361 0.0
H615 H 0.59917 0.01275 0.62563 0.0
C616 C 0.87953 0.20457 0.77364 0.0
C617 C 0.86498 0.22488 0.7699 0.0
C618 C 0.90222 0.20737 0.7895 0.0
C619 C 0.91047 0.23103 0.80198 0.0
C620 C 0.89643 0.25187 0.79761 0.0
C621 C 0.87384 0.24855 0.78158 0.0
C622 C 0.91678 0.18475 0.79357 0.0
C623 C 0.90458 0.27738 0.81062 0.0
C624 C 0.94818 0.23013 0.86142 0.0
C625 C 0.97383 0.23739 0.85733 0.0
C626 C 0.92746 0.22811 0.84356 0.0
C627 C 0.93243 0.23339 0.82097 0.0
C628 C 0.95822 0.2407 0.81663 0.0
C629 C 0.97863 0.24266 0.83488 0.0
C630 C 0.9002 0.22029 0.84889 0.0
C631 C 0.96422 0.24639 0.79272 0.0
H632 H 0.87292 0.18634 0.76437 0.0
H633 H 0.86253 0.26424 0.77887 0.0
H634 H 0.93773 0.18966 0.79219 0.0
H635 H 0.91523 0.17901 0.81132 0.0
H636 H 0.9091 0.16832 0.7811 0.0
H637 H 0.89293 0.29214 0.80379 0.0
H638 H 0.90219 0.27601 0.82913 0.0
H639 H 0.92543 0.28348 0.8097 0.0
H640 H 0.94418 0.22606 0.87867 0.0
H641 H 0.99836 0.24826 0.83151 0.0
H642 H 0.89182 0.20265 0.83835 0.0
H643 H 0.88754 0.23511 0.84425 0.0
H644 H 0.8996 0.21706 0.86742 0.0
H645 H 0.95771 0.22957 0.78045 0.0
H646 H 0.98531 0.2519 0.79222 0.0
H647 H 0.95338 0.26195 0.78652 0.0
C648 C 0.51716 0.90176 0.52149 0.0
C649 C 0.50493 0.92251 0.51429 0.0
C650 C 0.52102 0.88223 0.50559 0.0
C651 C 0.51213 0.88333 0.48187 0.0
C652 C 0.50037 0.90462 0.47436 0.0
C653 C 0.49698 0.9241 0.49071 0.0
C654 C 0.53382 0.85997 0.51432 0.0
C655 C 0.49052 0.90635 0.44924 0.0
C656 C 0.53822 0.83546 0.4425 0.0
C657 C 0.51896 0.81482 0.44167 0.0
C658 C 0.53568 0.85858 0.45448 0.0
C659 C 0.51324 0.86106 0.46556 0.0
C660 C 0.493 0.84081 0.46338 0.0
C661 C 0.49619 0.81791 0.45159 0.0
C662 C 0.55769 0.87974 0.45649 0.0
C663 C 0.46859 0.84277 0.47464 0.0
H664 H 0.52346 0.90065 0.53972 0.0
H665 H 0.48753 0.94017 0.48509 0.0
H666 H 0.51958 0.8427 0.51163 0.0
H667 H 0.55018 0.85642 0.50449 0.0
H668 H 0.54136 0.86293 0.533 0.0
H669 H 0.48421 0.92515 0.44589 0.0
H670 H 0.50582 0.90262 0.43821 0.0
H671 H 0.47375 0.89168 0.4439 0.0
H672 H 0.55583 0.83318 0.4348 0.0
H673 H 0.48101 0.80215 0.45066 0.0
H674 H 0.56793 0.88176 0.47438 0.0
H675 H 0.55014 0.89797 0.45307 0.0
H676 H 0.57202 0.87618 0.44437 0.0
H677 H 0.47339 0.84343 0.4937 0.0
H678 H 0.45352 0.82649 0.46907 0.0
H679 H 0.46027 0.86047 0.47051 0.0
C680 C 0.17504 0.31302 0.76116 0.0
C681 C 0.1834 0.33884 0.76067 0.0
C682 C 0.16025 0.30428 0.77823 0.0
C683 C 0.15368 0.32177 0.79521 0.0
C684 C 0.1616 0.34791 0.79448 0.0
C685 C 0.17639 0.35613 0.7772 0.0
C686 C 0.15216 0.27625 0.77842 0.0
C687 C 0.15497 0.36713 0.81226 0.0
C688 C 0.09938 0.29949 0.82996 0.0
C689 C 0.1135 0.29258 0.85008 0.0
C690 C 0.11218 0.30942 0.81207 0.0
C691 C 0.13971 0.3125 0.81439 0.0
C692 C 0.15403 0.30602 0.83484 0.0
C693 C 0.14077 0.29615 0.85241 0.0
C694 C 0.09625 0.31617 0.79053 0.0
C695 C 0.18341 0.30905 0.83799 0.0
H696 H 0.18033 0.29953 0.74841 0.0
H697 H 0.18282 0.3761 0.77681 0.0
H698 H 0.16135 0.2692 0.7945 0.0
H699 H 0.13079 0.27253 0.77829 0.0
H700 H 0.15778 0.26526 0.76339 0.0
H701 H 0.16141 0.38684 0.80858 0.0
H702 H 0.13367 0.36516 0.81291 0.0
H703 H 0.16438 0.36371 0.82964 0.0
H704 H 0.07831 0.29681 0.82802 0.0
H705 H 0.15186 0.29094 0.86791 0.0
H706 H 0.10009 0.30419 0.77538 0.0
H707 H 0.102 0.33612 0.78722 0.0
H708 H 0.07505 0.31358 0.79178 0.0
H709 H 0.19051 0.29697 0.8245 0.0
H710 H 0.19165 0.30385 0.85522 0.0
H711 H 0.191 0.32891 0.83592 0.0
C712 C 0.54065 0.56252 0.43813 0.0
C713 C 0.51879 0.55489 0.44885 0.0
C714 C 0.54415 0.58666 0.42997 0.0
C715 C 0.52476 0.60309 0.43177 0.0
C716 C 0.50188 0.59481 0.44137 0.0
C717 C 0.49941 0.57094 0.45027 0.0
C718 C 0.56924 0.59507 0.42064 0.0
C719 C 0.48034 0.61139 0.44278 0.0
C720 C 0.54501 0.67383 0.43658 0.0
C721 C 0.53987 0.67974 0.41363 0.0
C722 C 0.54048 0.64888 0.44262 0.0
C723 C 0.52946 0.6296 0.42541 0.0
C724 C 0.52354 0.63564 0.40226 0.0
C725 C 0.52937 0.66065 0.39653 0.0
C726 C 0.54795 0.64311 0.46734 0.0
C727 C 0.51082 0.61579 0.38365 0.0
H728 H 0.55567 0.55006 0.43722 0.0
H729 H 0.48239 0.56485 0.45841 0.0
H730 H 0.56515 0.60174 0.40314 0.0
H731 H 0.58005 0.61123 0.43193 0.0
H732 H 0.58195 0.57971 0.4197 0.0
H733 H 0.46254 0.60096 0.44787 0.0
H734 H 0.48694 0.62763 0.45568 0.0
H735 H 0.47531 0.6192 0.42588 0.0
H736 H 0.55326 0.68869 0.44974 0.0
H737 H 0.52514 0.6654 0.37882 0.0
H738 H 0.56153 0.62845 0.46792 0.0
H739 H 0.53046 0.63542 0.47486 0.0
H740 H 0.55737 0.66011 0.47837 0.0
H741 H 0.52381 0.60095 0.38129 0.0
H742 H 0.50616 0.62387 0.36679 0.0
H743 H 0.49259 0.60643 0.38889 0.0
C744 C 0.89237 0.75594 0.74641 0.0
C745 C 0.87727 0.77568 0.74992 0.0
C746 C 0.90679 0.75493 0.72759 0.0
C747 C 0.90619 0.77424 0.71202 0.0
C748 C 0.89194 0.79484 0.71614 0.0
C749 C 0.87759 0.79529 0.73501 0.0
C750 C 0.92168 0.7326 0.72378 0.0
C751 C 0.89093 0.81588 0.70005 0.0
C752 C 0.95532 0.77796 0.66855 0.0
C753 C 0.94062 0.76505 0.64881 0.0
C754 C 0.94437 0.78136 0.68926 0.0
C755 C 0.91819 0.77154 0.69023 0.0
C756 C 0.90324 0.75879 0.67027 0.0
C757 C 0.91459 0.75577 0.64986 0.0
C758 C 0.96085 0.79521 0.71016 0.0
C759 C 0.87526 0.748 0.67054 0.0
H760 H 0.89223 0.74083 0.75798 0.0
H761 H 0.86619 0.81079 0.73775 0.0
H762 H 0.91255 0.721 0.7079 0.0
H763 H 0.94198 0.73913 0.72116 0.0
H764 H 0.92207 0.72039 0.7385 0.0
H765 H 0.88121 0.83176 0.70692 0.0
H766 H 0.91084 0.8233 0.697 0.0
H767 H 0.88012 0.80842 0.68307 0.0
H768 H 0.97545 0.78518 0.66789 0.0
H769 H 0.90302 0.74578 0.63474 0.0
H770 H 0.96276 0.78244 0.72438 0.0
H771 H 0.9513 0.81144 0.71647 0.0
H772 H 0.98063 0.80233 0.70641 0.0
H773 H 0.87411 0.73388 0.68365 0.0
H774 H 0.86625 0.73873 0.6535 0.0
H775 H 0.86361 0.76322 0.67548 0.0
C776 C 0.06685 0.94004 0.54509 0.0
C777 C 0.05374 0.94545 0.52396 0.0
C778 C 0.06159 0.91648 0.55411 0.0
C779 C 0.04265 0.89797 0.54172 0.0
C780 C 0.02883 0.90363 0.52068 0.0
C781 C 0.03459 0.92727 0.51201 0.0
C782 C 0.07682 0.91115 0.57653 0.0
C783 C 0.00838 0.88446 0.50701 0.0
C784 C 0.04715 0.82821 0.54836 0.0
C785 C 0.02765 0.82202 0.56238 0.0
C786 C 0.05271 0.85298 0.54211 0.0
C787 C 0.03833 0.87214 0.54993 0.0
C788 C 0.01915 0.86625 0.56464 0.0
C789 C 0.0141 0.84128 0.57077 0.0
C790 C 0.07351 0.8585 0.52659 0.0
C791 C 0.00338 0.88616 0.57328 0.0
H792 H 0.08164 0.95409 0.55436 0.0
H793 H 0.02424 0.93135 0.49573 0.0
H794 H 0.06338 0.90463 0.58888 0.0
H795 H 0.0889 0.89571 0.57332 0.0
H796 H 0.08977 0.92803 0.58472 0.0
H797 H 0.99833 0.89231 0.4917 0.0
H798 H 0.01752 0.86781 0.501 0.0
H799 H 0.99365 0.87765 0.51811 0.0
H800 H 0.05792 0.81356 0.54193 0.0
H801 H 0.99897 0.83672 0.58157 0.0
H802 H 0.08793 0.87437 0.53458 0.0
H803 H 0.06462 0.86439 0.50988 0.0
H804 H 0.0839 0.84184 0.52306 0.0
H805 H 0.01644 0.90276 0.58181 0.0
H806 H 0.99033 0.87893 0.58571 0.0
H807 H 0.99135 0.89287 0.55846 0.0
C808 C 0.18161 0.73431 0.68595 0.0
C809 C 0.17858 0.72021 0.70505 0.0
C810 C 0.16016 0.73729 0.66983 0.0
C811 C 0.13527 0.72515 0.67252 0.0
C812 C 0.13225 0.71042 0.69157 0.0
C813 C 0.15391 0.70843 0.70782 0.0
C814 C 0.16408 0.75367 0.65009 0.0
C815 C 0.10621 0.69656 0.69465 0.0
C816 C 0.07515 0.74938 0.64224 0.0
C817 C 0.07026 0.73352 0.62179 0.0
C818 C 0.09634 0.74697 0.65887 0.0
C819 C 0.11247 0.72772 0.65526 0.0
C820 C 0.10713 0.71121 0.63492 0.0
C821 C 0.08633 0.71457 0.61826 0.0
C822 C 0.10182 0.76538 0.68004 0.0
C823 C 0.12337 0.68998 0.63074 0.0
H824 H 0.20071 0.74349 0.68391 0.0
H825 H 0.15161 0.69731 0.7225 0.0
H826 H 0.15884 0.74222 0.63337 0.0
H827 H 0.15108 0.76882 0.65023 0.0
H828 H 0.18449 0.76257 0.65098 0.0
H829 H 0.1073 0.68529 0.71002 0.0
H830 H 0.09188 0.71023 0.69656 0.0
H831 H 0.09873 0.68368 0.67909 0.0
H832 H 0.06284 0.76416 0.64491 0.0
H833 H 0.08242 0.70212 0.60255 0.0
H834 H 0.12161 0.77567 0.68082 0.0
H835 H 0.10137 0.75504 0.69589 0.0
H836 H 0.08755 0.77941 0.68016 0.0
H837 H 0.14367 0.69785 0.6294 0.0
H838 H 0.11573 0.67792 0.61468 0.0
H839 H 0.12398 0.67792 0.64554 0.0
C840 C 0.98754 0.57077 0.50715 0.0
C841 C 0.96247 0.56144 0.49661 0.0
C842 C 0.99231 0.59442 0.51979 0.0
C843 C 0.97155 0.60918 0.52166 0.0
C844 C 0.94624 0.59992 0.51088 0.0
C845 C 0.94198 0.57609 0.4986 0.0
C846 C 0.01947 0.60352 0.5313 0.0
C847 C 0.92367 0.61524 0.51223 0.0
C848 C 0.97523 0.6605 0.57039 0.0
C849 C 0.98166 0.6824 0.55922 0.0
C850 C 0.97263 0.63647 0.55854 0.0
C851 C 0.97619 0.63434 0.53489 0.0
C852 C 0.98315 0.65635 0.52364 0.0
C853 C 0.98595 0.68011 0.53599 0.0
C854 C 0.96555 0.6134 0.57122 0.0
C855 C 0.98688 0.65486 0.49838 0.0
H856 H 0.00335 0.55934 0.5058 0.0
H857 H 0.92264 0.56901 0.49025 0.0
H858 H 0.02655 0.62172 0.52471 0.0
H859 H 0.01934 0.60702 0.55019 0.0
H860 H 0.03343 0.58969 0.52829 0.0
H861 H 0.90529 0.60547 0.5026 0.0
H862 H 0.92065 0.61908 0.53053 0.0
H863 H 0.92803 0.63379 0.50508 0.0
H864 H 0.97202 0.66213 0.58839 0.0
H865 H 0.99079 0.69697 0.52722 0.0
H866 H 0.97976 0.59959 0.56933 0.0
H867 H 0.94617 0.60393 0.56356 0.0
H868 H 0.96501 0.61816 0.58992 0.0
H869 H 0.0016 0.64198 0.49513 0.0
H870 H 0.99317 0.67365 0.49241 0.0
H871 H 0.96837 0.6469 0.48779 0.0
C872 C 0.78976 0.89366 0.23379 0.0
C873 C 0.777 0.88529 0.21173 0.0
C874 C 0.80965 0.91398 0.23683 0.0
C875 C 0.81688 0.92622 0.21735 0.0
C876 C 0.80298 0.91882 0.19524 0.0
C877 C 0.78323 0.89843 0.1927 0.0
C878 C 0.82399 0.92132 0.2607 0.0
C879 C 0.80994 0.93148 0.17405 0.0
C880 C 0.86232 0.98786 0.22622 0.0
C881 C 0.88648 0.97923 0.22393 0.0
C882 C 0.83942 0.97088 0.22413 0.0
C883 C 0.84073 0.94469 0.21965 0.0
C884 C 0.865 0.93591 0.21721 0.0
C885 C 0.8875 0.95323 0.21936 0.0
C886 C 0.81387 0.98092 0.22678 0.0
C887 C 0.86723 0.90811 0.21239 0.0
H888 H 0.78514 0.88346 0.24853 0.0
H889 H 0.77313 0.89223 0.17566 0.0
H890 H 0.84396 0.91578 0.26151 0.0
H891 H 0.82581 0.94211 0.26454 0.0
H892 H 0.81413 0.91203 0.27432 0.0
H893 H 0.79547 0.92545 0.15864 0.0
H894 H 0.81141 0.95234 0.17718 0.0
H895 H 0.82924 0.92671 0.17015 0.0
H896 H 0.86127 0.00788 0.22977 0.0
H897 H 0.90599 0.94629 0.21754 0.0
H898 H 0.80515 0.97232 0.24129 0.0
H899 H 0.79995 0.97554 0.21092 0.0
H900 H 0.81611 0.00182 0.2301 0.0
H901 H 0.85997 0.89727 0.22637 0.0
H902 H 0.88756 0.90437 0.21101 0.0
H903 H 0.85498 0.90081 0.19601 0.0
C904 C 0.80352 0.19308 0.28002 0.0
C905 C 0.77759 0.18532 0.27069 0.0
C906 C 0.8235 0.17836 0.27581 0.0
C907 C 0.81752 0.15534 0.26181 0.0
C908 C 0.79138 0.14725 0.25254 0.0
C909 C 0.77176 0.16228 0.25712 0.0
C910 C 0.85111 0.1877 0.286 0.0
C911 C 0.78417 0.12285 0.23752 0.0
C912 C 0.87127 0.13112 0.23094 0.0
C913 C 0.8791 0.11203 0.24475 0.0
C914 C 0.85128 0.14526 0.23629 0.0
C915 C 0.83875 0.14032 0.25601 0.0
C916 C 0.84656 0.12112 0.2701 0.0
C917 C 0.86661 0.10717 0.26428 0.0
C918 C 0.84351 0.16549 0.22077 0.0
C919 C 0.83375 0.11536 0.29132 0.0
H920 H 0.80832 0.21097 0.29027 0.0
H921 H 0.75176 0.15591 0.25013 0.0
H922 H 0.85959 0.17301 0.29612 0.0
H923 H 0.86323 0.19136 0.27192 0.0
H924 H 0.85237 0.20534 0.29743 0.0
H925 H 0.76288 0.11885 0.23218 0.0
H926 H 0.7941 0.12375 0.22176 0.0
H927 H 0.79086 0.10682 0.24688 0.0
H928 H 0.88073 0.13503 0.21579 0.0
H929 H 0.87251 0.09249 0.27507 0.0
H930 H 0.84606 0.18411 0.23083 0.0
H931 H 0.82264 0.1614 0.2138 0.0
H932 H 0.85512 0.16695 0.20604 0.0
H933 H 0.83602 0.13252 0.30345 0.0
H934 H 0.84208 0.0999 0.30049 0.0
H935 H 0.81259 0.10983 0.28642 0.0
C936 C 0.40353 0.98121 0.99859 0.0
C937 C 0.40773 0.98446 0.97563 0.0
C938 C 0.38411 0.96292 0.00387 0.0
C939 C 0.36859 0.9474 0.98577 0.0
C940 C 0.37236 0.95091 0.96253 0.0
C941 C 0.39184 0.96942 0.95774 0.0
C942 C 0.38068 0.95975 0.02887 0.0
C943 C 0.35619 0.93473 0.94275 0.0
C944 C 0.33918 0.88259 0.99918 0.0
C945 C 0.31316 0.88635 0.00064 0.0
C946 C 0.35736 0.90232 0.99445 0.0
C947 C 0.34944 0.92652 0.99117 0.0
C948 C 0.32332 0.9306 0.99285 0.0
C949 C 0.30546 0.91045 0.99753 0.0
C950 C 0.38504 0.89719 0.99275 0.0
C951 C 0.31421 0.9562 0.98958 0.0
H952 H 0.41591 0.99253 0.01253 0.0
H953 H 0.39469 0.9721 0.93995 0.0
H954 H 0.36009 0.96071 0.03154 0.0
H955 H 0.38563 0.94086 0.03353 0.0
H956 H 0.39315 0.9744 0.0408 0.0
H957 H 0.36079 0.94058 0.92564 0.0
H958 H 0.35963 0.91467 0.944 0.0
H959 H 0.3352 0.93574 0.94371 0.0
H960 H 0.3454 0.86408 0.00151 0.0
H961 H 0.28544 0.91361 0.99865 0.0
H962 H 0.39864 0.91005 0.00544 0.0
H963 H 0.39018 0.901 0.97531 0.0
H964 H 0.38813 0.87736 0.99595 0.0
H965 H 0.326 0.97066 0.00212 0.0
H966 H 0.29337 0.95639 0.99185 0.0
H967 H 0.31704 0.96184 0.97202 0.0
C968 C 0.23423 0.3258 0.26171 0.0
C969 C 0.25102 0.32799 0.2825 0.0
C970 C 0.21816 0.34462 0.25621 0.0
C971 C 0.21946 0.36641 0.27162 0.0
C972 C 0.23571 0.36822 0.29303 0.0
C973 C 0.25112 0.34884 0.29831 0.0
C974 C 0.20064 0.34167 0.23349 0.0
C975 C 0.238 0.39132 0.30978 0.0
C976 C 0.2079 0.42897 0.24724 0.0
C977 C 0.184 0.43336 0.25464 0.0
C978 C 0.21924 0.40696 0.25215 0.0
C979 C 0.20617 0.38851 0.26438 0.0
C980 C 0.18134 0.39205 0.27073 0.0
C981 C 0.17064 0.41456 0.26599 0.0
C982 C 0.24587 0.40409 0.24525 0.0
C983 C 0.16652 0.37248 0.28325 0.0
H984 H 0.23402 0.30952 0.24958 0.0
H985 H 0.26424 0.35059 0.31431 0.0
H986 H 0.18082 0.34608 0.23611 0.0
H987 H 0.20832 0.35521 0.22162 0.0
H988 H 0.1992 0.32225 0.22501 0.0
H989 H 0.25013 0.38905 0.32631 0.0
H990 H 0.24689 0.40799 0.30187 0.0
H991 H 0.21848 0.39542 0.3136 0.0
H992 H 0.21846 0.44331 0.23849 0.0
H993 H 0.15212 0.41768 0.27168 0.0
H994 H 0.24546 0.386 0.23471 0.0
H995 H 0.25997 0.40355 0.26095 0.0
H996 H 0.25307 0.4198 0.2352 0.0
H997 H 0.16589 0.35342 0.27429 0.0
H998 H 0.14628 0.37662 0.28452 0.0
H999 H 0.17659 0.37185 0.30097 0.0
C1000 C 0.13444 0.04172 0.49225 0.0
C1001 C 0.11251 0.04949 0.47945 0.0
C1002 C 0.15718 0.05854 0.49884 0.0
C1003 C 0.1584 0.0835 0.49182 0.0
C1004 C 0.13647 0.09146 0.47885 0.0
C1005 C 0.11371 0.07459 0.47327 0.0
C1006 C 0.17988 0.04961 0.5133 0.0
C1007 C 0.13707 0.11781 0.47067 0.0
C1008 C 0.20503 0.1386 0.52142 0.0
C1009 C 0.22421 0.14049 0.50656 0.0
C1010 C 0.18441 0.11902 0.51772 0.0
C1011 C 0.1824 0.10159 0.49811 0.0
C1012 C 0.2022 0.10305 0.48341 0.0
C1013 C 0.22317 0.12231 0.48805 0.0
C1014 C 0.16425 0.11761 0.53428 0.0
C1015 C 0.20039 0.08533 0.46196 0.0
H1016 H 0.13406 0.02236 0.49689 0.0
H1017 H 0.0968 0.08119 0.464 0.0
H1018 H 0.1969 0.05009 0.50354 0.0
H1019 H 0.18566 0.06249 0.52916 0.0
H1020 H 0.17533 0.03008 0.51842 0.0
H1021 H 0.11893 0.12053 0.45956 0.0
H1022 H 0.13981 0.13197 0.48573 0.0
H1023 H 0.15376 0.12173 0.46076 0.0
H1024 H 0.20599 0.15271 0.53578 0.0
H1025 H 0.23792 0.12404 0.47645 0.0
H1026 H 0.16018 0.09796 0.5392 0.0
H1027 H 0.14576 0.12314 0.52577 0.0
H1028 H 0.17049 0.13029 0.55022 0.0
H1029 H 0.19707 0.06539 0.46626 0.0
H1030 H 0.21821 0.08782 0.45323 0.0
H1031 H 0.18352 0.08883 0.44961 0.0
C1032 C 0.76247 0.16162 0.7273 0.0
C1033 C 0.77789 0.17453 0.74669 0.0
C1034 C 0.74475 0.14046 0.72958 0.0
C1035 C 0.74271 0.13173 0.75173 0.0
C1036 C 0.758 0.14478 0.77139 0.0
C1037 C 0.77524 0.16613 0.76865 0.0
C1038 C 0.72856 0.12717 0.70826 0.0
C1039 C 0.75652 0.1359 0.79529 0.0
C1040 C 0.68436 0.08746 0.76333 0.0
C1041 C 0.69417 0.06402 0.76233 0.0
C1042 C 0.69967 0.10963 0.75919 0.0
C1043 C 0.72547 0.1083 0.75432 0.0
C1044 C 0.73527 0.08461 0.75286 0.0
C1045 C 0.71944 0.06274 0.75672 0.0
C1046 C 0.68843 0.13452 0.76048 0.0
C1047 C 0.76279 0.08246 0.74795 0.0
H1048 H 0.7646 0.16774 0.71022 0.0
H1049 H 0.78666 0.17626 0.78378 0.0
H1050 H 0.73401 0.10779 0.70539 0.0
H1051 H 0.70765 0.12526 0.71064 0.0
H1052 H 0.73114 0.13736 0.69253 0.0
H1053 H 0.76948 0.14836 0.80882 0.0
H1054 H 0.73627 0.13523 0.7995 0.0
H1055 H 0.76207 0.11643 0.79586 0.0
H1056 H 0.66479 0.08852 0.76755 0.0
H1057 H 0.72719 0.0447 0.75604 0.0
H1058 H 0.6906 0.14422 0.74446 0.0
H1059 H 0.69926 0.1471 0.77509 0.0
H1060 H 0.66751 0.13211 0.76293 0.0
H1061 H 0.76618 0.09089 0.73154 0.0
H1062 H 0.76716 0.06253 0.74669 0.0
H1063 H 0.77672 0.09319 0.7619 0.0
C1064 C 0.43666 0.0517 0.56249 0.0
C1065 C 0.45307 0.04323 0.54703 0.0
C1066 C 0.42004 0.06997 0.55663 0.0
C1067 C 0.41981 0.08009 0.53478 0.0
C1068 C 0.43618 0.0715 0.51902 0.0
C1069 C 0.45261 0.05321 0.52534 0.0
C1070 C 0.40284 0.0786 0.57391 0.0
C1071 C 0.43663 0.08191 0.49562 0.0
C1072 C 0.3615 0.11365 0.51379 0.0
C1073 C 0.37094 0.13903 0.52035 0.0
C1074 C 0.37734 0.09425 0.51794 0.0
C1075 C 0.40321 0.1004 0.52884 0.0
C1076 C 0.41305 0.12604 0.53483 0.0
C1077 C 0.39683 0.14499 0.53053 0.0
C1078 C 0.36617 0.06713 0.51125 0.0
C1079 C 0.44056 0.13344 0.54635 0.0
H1080 H 0.4366 0.04381 0.57914 0.0
H1081 H 0.46544 0.04699 0.51339 0.0
H1082 H 0.40783 0.09916 0.57869 0.0
H1083 H 0.38219 0.07563 0.5661 0.0
H1084 H 0.40481 0.0684 0.58991 0.0
H1085 H 0.44973 0.07256 0.48502 0.0
H1086 H 0.41674 0.07945 0.48602 0.0
H1087 H 0.4432 0.1025 0.49778 0.0
H1088 H 0.34153 0.10885 0.50595 0.0
H1089 H 0.40436 0.16454 0.53558 0.0
H1090 H 0.36563 0.05657 0.52698 0.0
H1091 H 0.37875 0.05782 0.50013 0.0
H1092 H 0.34616 0.06557 0.5019 0.0
H1093 H 0.44308 0.12539 0.56342 0.0
H1094 H 0.44561 0.15427 0.54898 0.0
H1095 H 0.45455 0.12554 0.53579 0.0
C1096 C 0.59055 0.47998 0.4978 0.0
C1097 C 0.57266 0.47346 0.51328 0.0
C1098 C 0.60936 0.4642 0.49284 0.0
C1099 C 0.61101 0.4417 0.5042 0.0
C1100 C 0.59388 0.43553 0.52064 0.0
C1101 C 0.57474 0.45131 0.52479 0.0
C1102 C 0.62703 0.4713 0.47499 0.0
C1103 C 0.59544 0.41198 0.53355 0.0
C1104 C 0.64044 0.38624 0.47779 0.0
C1105 C 0.66546 0.38908 0.49008 0.0
C1106 C 0.62286 0.40379 0.48158 0.0
C1107 C 0.63025 0.42427 0.49854 0.0
C1108 C 0.65572 0.42758 0.5106 0.0
C1109 C 0.67314 0.41012 0.506 0.0
C1110 C 0.59613 0.40004 0.46787 0.0
C1111 C 0.66419 0.44883 0.52915 0.0
H1112 H 0.58972 0.49738 0.48927 0.0
H1113 H 0.56098 0.44588 0.53661 0.0
H1114 H 0.64767 0.47287 0.4827 0.0
H1115 H 0.62427 0.45625 0.46063 0.0
H1116 H 0.62328 0.48949 0.46771 0.0
H1117 H 0.582 0.41083 0.54695 0.0
H1118 H 0.59051 0.39498 0.52125 0.0
H1119 H 0.61557 0.41147 0.54199 0.0
H1120 H 0.63445 0.37003 0.46546 0.0
H1121 H 0.69235 0.41227 0.51578 0.0
H1122 H 0.59189 0.41767 0.45981 0.0
H1123 H 0.58123 0.39571 0.47956 0.0
H1124 H 0.59414 0.3844 0.45408 0.0
H1125 H 0.66102 0.46729 0.52226 0.0
H1126 H 0.68501 0.44943 0.53622 0.0
H1127 H 0.65223 0.44646 0.54353 0.0
C1128 C 0.75907 0.25566 0.33632 0.0
C1129 C 0.73655 0.24185 0.32438 0.0
C1130 C 0.75888 0.26746 0.35846 0.0
C1131 C 0.73573 0.26502 0.36903 0.0
C1132 C 0.71286 0.25132 0.35692 0.0
C1133 C 0.71351 0.24003 0.33467 0.0
C1134 C 0.78359 0.28215 0.37071 0.0
C1135 C 0.68793 0.24788 0.36774 0.0
C1136 C 0.7449 0.26999 0.43454 0.0
C1137 C 0.73894 0.29455 0.43987 0.0
C1138 C 0.74333 0.26004 0.4116 0.0
C1139 C 0.73601 0.27512 0.39341 0.0
C1140 C 0.72957 0.29981 0.39861 0.0
C1141 C 0.73087 0.30917 0.42184 0.0
C1142 C 0.74987 0.23345 0.40684 0.0
C1143 C 0.72198 0.31654 0.37966 0.0
H1144 H 0.77681 0.25733 0.32827 0.0
H1145 H 0.69612 0.22919 0.32553 0.0
H1146 H 0.77983 0.30141 0.37668 0.0
H1147 H 0.79049 0.27265 0.38624 0.0
H1148 H 0.79935 0.28385 0.35947 0.0
H1149 H 0.67152 0.23785 0.35557 0.0
H1150 H 0.69081 0.23687 0.38314 0.0
H1151 H 0.6825 0.2665 0.37372 0.0
H1152 H 0.7509 0.25847 0.44839 0.0
H1153 H 0.72639 0.3282 0.42586 0.0
H1154 H 0.76716 0.23388 0.39743 0.0
H1155 H 0.73353 0.22204 0.39564 0.0
H1156 H 0.75401 0.22379 0.42294 0.0
H1157 H 0.73833 0.32017 0.3693 0.0
H1158 H 0.71683 0.33497 0.38654 0.0
H1159 H 0.70516 0.30691 0.36776 0.0
C1160 C 0.49959 0.9614 0.88725 0.0
C1161 C 0.50055 0.98393 0.90116 0.0
C1162 C 0.51785 0.95846 0.87171 0.0
C1163 C 0.53744 0.97859 0.87006 0.0
C1164 C 0.53836 0.00145 0.88398 0.0
C1165 C 0.51993 0.00384 0.89938 0.0
C1166 C 0.5163 0.93381 0.85717 0.0
C1167 C 0.55892 0.02338 0.88269 0.0
C1168 C 0.60109 0.96752 0.84785 0.0
C1169 C 0.59759 0.97631 0.8257 0.0
C1170 C 0.58126 0.96719 0.86214 0.0
C1171 C 0.55733 0.97583 0.85409 0.0
C1172 C 0.55324 0.98363 0.83136 0.0
C1173 C 0.57342 0.98378 0.81743 0.0
C1174 C 0.58634 0.95862 0.88624 0.0
C1175 C 0.52794 0.99288 0.82212 0.0
H1176 H 0.4846 0.94601 0.88862 0.0
H1177 H 0.52078 0.02135 0.91002 0.0
H1178 H 0.51432 0.93731 0.83857 0.0
H1179 H 0.53453 0.92506 0.86102 0.0
H1180 H 0.49965 0.92014 0.86027 0.0
H1181 H 0.55673 0.03997 0.89447 0.0
H1182 H 0.57853 0.0175 0.88728 0.0
H1183 H 0.55794 0.02928 0.86477 0.0
H1184 H 0.61964 0.96158 0.85435 0.0
H1185 H 0.57048 0.99049 0.8003 0.0
H1186 H 0.57044 0.94421 0.88945 0.0
H1187 H 0.58676 0.97491 0.8991 0.0
H1188 H 0.6051 0.95053 0.8892 0.0
H1189 H 0.51125 0.979 0.82457 0.0
H1190 H 0.52701 0.9962 0.80348 0.0
H1191 H 0.52567 0.01086 0.83188 0.0
C1192 C 0.29434 0.28173 0.35496 0.0
C1193 C 0.29191 0.26753 0.33368 0.0
C1194 C 0.2945 0.26986 0.37573 0.0
C1195 C 0.29161 0.2431 0.37516 0.0
C1196 C 0.28955 0.22867 0.3537 0.0
C1197 C 0.28999 0.24109 0.3332 0.0
C1198 C 0.29724 0.28599 0.39825 0.0
C1199 C 0.28595 0.20014 0.35232 0.0
C1200 C 0.30929 0.21533 0.43256 0.0
C1201 C 0.28528 0.21318 0.44128 0.0
C1202 C 0.31157 0.22419 0.41063 0.0
C1203 C 0.28921 0.23047 0.39697 0.0
C1204 C 0.26466 0.22671 0.40512 0.0
C1205 C 0.26305 0.2184 0.42726 0.0
C1206 C 0.33814 0.22828 0.40273 0.0
C1207 C 0.24023 0.23258 0.39089 0.0
H1208 H 0.29606 0.30219 0.35533 0.0
H1209 H 0.28794 0.23012 0.31669 0.0
H1210 H 0.27908 0.28291 0.40637 0.0
H1211 H 0.31323 0.28047 0.41048 0.0
H1212 H 0.30126 0.30647 0.39585 0.0
H1213 H 0.28618 0.1917 0.33449 0.0
H1214 H 0.30147 0.19303 0.36396 0.0
H1215 H 0.26711 0.19345 0.35823 0.0
H1216 H 0.32656 0.2115 0.44341 0.0
H1217 H 0.24441 0.21655 0.43386 0.0
H1218 H 0.34408 0.24886 0.40246 0.0
H1219 H 0.33767 0.21971 0.38488 0.0
H1220 H 0.35311 0.22017 0.41424 0.0
H1221 H 0.24098 0.2533 0.3896 0.0
H1222 H 0.22241 0.22599 0.39855 0.0
H1223 H 0.23872 0.2236 0.37307 0.0
C1224 C 0.52988 0.54927 0.90915 0.0
C1225 C 0.53004 0.5256 0.91842 0.0
C1226 C 0.51863 0.5515 0.88645 0.0
C1227 C 0.50653 0.52964 0.87279 0.0
C1228 C 0.50526 0.50589 0.88242 0.0
C1229 C 0.51727 0.5041 0.905 0.0
C1230 C 0.52076 0.57713 0.87676 0.0
C1231 C 0.49209 0.4822 0.86856 0.0
C1232 C 0.46417 0.53886 0.81682 0.0
C1233 C 0.48105 0.53453 0.80037 0.0
C1234 C 0.47198 0.53695 0.84048 0.0
C1235 C 0.49746 0.53127 0.84783 0.0
C1236 C 0.51468 0.52738 0.83128 0.0
C1237 C 0.50615 0.52874 0.80779 0.0
C1238 C 0.4529 0.54063 0.85756 0.0
C1239 C 0.54221 0.52193 0.8384 0.0
H1240 H 0.539 0.56614 0.91951 0.0
H1241 H 0.51736 0.48568 0.9118 0.0
H1242 H 0.533 0.57693 0.86246 0.0
H1243 H 0.50132 0.58158 0.86945 0.0
H1244 H 0.5295 0.59248 0.89001 0.0
H1245 H 0.48991 0.46589 0.87938 0.0
H1246 H 0.47256 0.48539 0.86027 0.0
H1247 H 0.50368 0.47718 0.85456 0.0
H1248 H 0.44468 0.54314 0.81113 0.0
H1249 H 0.51936 0.5256 0.79517 0.0
H1250 H 0.46075 0.55654 0.87049 0.0
H1251 H 0.45001 0.52344 0.86713 0.0
H1252 H 0.43372 0.54459 0.84904 0.0
H1253 H 0.55259 0.53731 0.85084 0.0
H1254 H 0.55336 0.52009 0.82343 0.0
H1255 H 0.54204 0.50414 0.84726 0.0
C1256 C 0.77746 0.79665 0.1665 0.0
C1257 C 0.75192 0.79971 0.17052 0.0
C1258 C 0.78243 0.77987 0.14857 0.0
C1259 C 0.76137 0.76534 0.13454 0.0
C1260 C 0.7356 0.76732 0.1392 0.0
C1261 C 0.73115 0.78462 0.15705 0.0
C1262 C 0.81021 0.77844 0.14409 0.0
C1263 C 0.71268 0.75185 0.12482 0.0
C1264 C 0.77406 0.74677 0.07361 0.0
C1265 C 0.78082 0.72219 0.07557 0.0
C1266 C 0.76704 0.76072 0.09253 0.0
C1267 C 0.7664 0.74973 0.1139 0.0
C1268 C 0.77224 0.72456 0.11579 0.0
C1269 C 0.77964 0.71114 0.09662 0.0
C1270 C 0.76129 0.78762 0.08987 0.0
C1271 C 0.7713 0.71207 0.13818 0.0
H1272 H 0.79367 0.80769 0.17721 0.0
H1273 H 0.71136 0.78689 0.15994 0.0
H1274 H 0.81472 0.7586 0.144 0.0
H1275 H 0.81287 0.78503 0.12679 0.0
H1276 H 0.82442 0.79018 0.1572 0.0
H1277 H 0.69422 0.75345 0.13226 0.0
H1278 H 0.71051 0.75833 0.1071 0.0
H1279 H 0.71592 0.73163 0.12327 0.0
H1280 H 0.77508 0.75549 0.05743 0.0
H1281 H 0.78469 0.69209 0.09818 0.0
H1282 H 0.7759 0.80079 0.1014 0.0
H1283 H 0.74193 0.79021 0.09511 0.0
H1284 H 0.76164 0.79301 0.07184 0.0
H1285 H 0.78678 0.7217 0.15146 0.0
H1286 H 0.77402 0.69171 0.13622 0.0
H1287 H 0.75241 0.71385 0.14474 0.0
C1288 C 0.03653 0.02494 0.09385 0.0
C1289 C 0.02079 0.01434 0.07378 0.0
C1290 C 0.02587 0.02928 0.11454 0.0
C1291 C 0.99895 0.02231 0.11521 0.0
C1292 C 0.98324 0.0106 0.09514 0.0
C1293 C 0.9943 0.00708 0.07457 0.0
C1294 C 0.04318 0.04222 0.13541 0.0
C1295 C 0.95464 0.00233 0.09526 0.0
C1296 C 0.97612 0.01745 0.17444 0.0
C1297 C 0.96549 0.04028 0.17752 0.0
C1298 C 0.98661 0.01109 0.15407 0.0
C1299 C 0.98702 0.02827 0.13657 0.0
C1300 C 0.97618 0.05131 0.13955 0.0
C1301 C 0.96524 0.05688 0.15986 0.0
C1302 C 0.9973 0.98604 0.1513 0.0
C1303 C 0.97663 0.07034 0.12149 0.0
H1304 H 0.05697 0.0308 0.09309 0.0
H1305 H 0.98218 0.99889 0.05897 0.0
H1306 H 0.03629 0.06056 0.14026 0.0
H1307 H 0.04217 0.03054 0.15039 0.0
H1308 H 0.06381 0.04581 0.13225 0.0
H1309 H 0.94565 0.99164 0.07882 0.0
H1310 H 0.95172 0.99027 0.10974 0.0
H1311 H 0.94423 0.01912 0.09799 0.0
H1312 H 0.97599 0.00435 0.18782 0.0
H1313 H 0.95719 0.07462 0.16222 0.0
H1314 H 0.01837 0.98921 0.1497 0.0
H1315 H 0.9876 0.97522 0.13519 0.0
H1316 H 0.99457 0.97436 0.1661 0.0
H1317 H 0.99699 0.07615 0.11856 0.0
H1318 H 0.96768 0.0875 0.12656 0.0
H1319 H 0.96604 0.06168 0.10481 0.0
C1320 C 0.3261 0.79606 0.16753 0.0
C1321 C 0.30793 0.78041 0.17758 0.0
C1322 C 0.319 0.80655 0.14656 0.0
C1323 C 0.29314 0.80119 0.13552 0.0
C1324 C 0.2746 0.78581 0.14587 0.0
C1325 C 0.28221 0.77563 0.16678 0.0
C1326 C 0.33924 0.82293 0.13603 0.0
C1327 C 0.2468 0.77969 0.13465 0.0
C1328 C 0.26404 0.84104 0.08991 0.0
C1329 C 0.26449 0.82569 0.06961 0.0
C1330 C 0.27441 0.83389 0.11147 0.0
C1331 C 0.2854 0.81081 0.11271 0.0
C1332 C 0.28684 0.79575 0.09219 0.0
C1333 C 0.27634 0.80337 0.07088 0.0
C1334 C 0.27261 0.85048 0.13298 0.0
C1335 C 0.2984 0.771 0.09281 0.0
H1336 H 0.34597 0.7998 0.1759 0.0
H1337 H 0.26797 0.76367 0.17449 0.0
H1338 H 0.34238 0.81382 0.11915 0.0
H1339 H 0.33236 0.84147 0.13264 0.0
H1340 H 0.35816 0.82625 0.14732 0.0
H1341 H 0.23462 0.76803 0.14529 0.0
H1342 H 0.23796 0.79739 0.13167 0.0
H1343 H 0.24634 0.76928 0.11754 0.0
H1344 H 0.25502 0.85839 0.08905 0.0
H1345 H 0.27668 0.79134 0.05532 0.0
H1346 H 0.2918 0.85404 0.14379 0.0
H1347 H 0.2588 0.84068 0.14347 0.0
H1348 H 0.26587 0.86893 0.12891 0.0
H1349 H 0.31797 0.77372 0.103 0.0
H1350 H 0.30009 0.76263 0.07524 0.0
H1351 H 0.28599 0.75728 0.10147 0.0
C1352 C 0.04348 0.50165 0.09454 0.0
C1353 C 0.01737 0.50629 0.09391 0.0
C1354 C 0.05946 0.50121 0.11552 0.0
C1355 C 0.04959 0.50661 0.13659 0.0
C1356 C 0.02355 0.51201 0.13622 0.0
C1357 C 0.00764 0.5114 0.11494 0.0
C1358 C 0.08699 0.49495 0.11509 0.0
C1359 C 0.01257 0.51861 0.1583 0.0
C1360 C 0.08689 0.48546 0.19065 0.0
C1361 C 0.10451 0.50699 0.19772 0.0
C1362 C 0.06834 0.4852 0.17105 0.0
C1363 C 0.06699 0.50728 0.15883 0.0
C1364 C 0.08394 0.52946 0.16681 0.0
C1365 C 0.10283 0.52888 0.1859 0.0
C1366 C 0.05118 0.46097 0.16272 0.0
C1367 C 0.08265 0.5536 0.15476 0.0
H1368 H 0.05164 0.49844 0.07856 0.0
H1369 H 0.9875 0.5147 0.11487 0.0
H1370 H 0.10096 0.51156 0.12215 0.0
H1371 H 0.09064 0.47926 0.1262 0.0
H1372 H 0.09107 0.48936 0.09737 0.0
H1373 H 0.99219 0.52308 0.15506 0.0
H1374 H 0.01311 0.50264 0.16955 0.0
H1375 H 0.02468 0.53516 0.16799 0.0
H1376 H 0.08841 0.46852 0.1998 0.0
H1377 H 0.11646 0.54555 0.19157 0.0
H1378 H 0.05604 0.45397 0.14566 0.0
H1379 H 0.03046 0.46436 0.16032 0.0
H1380 H 0.05354 0.44596 0.1749 0.0
H1381 H 0.08929 0.55115 0.13751 0.0
H1382 H 0.09499 0.56989 0.16472 0.0
H1383 H 0.0623 0.55817 0.15202 0.0
C1384 C 0.36533 0.75081 0.28693 0.0
C1385 C 0.35537 0.72714 0.27583 0.0
C1386 C 0.38772 0.75346 0.30321 0.0
C1387 C 0.4005 0.73196 0.30821 0.0
C1388 C 0.39107 0.70822 0.29632 0.0
C1389 C 0.36852 0.70608 0.28036 0.0
C1390 C 0.39708 0.77903 0.3157 0.0
C1391 C 0.40434 0.68492 0.30094 0.0
C1392 C 0.46915 0.74035 0.34009 0.0
C1393 C 0.46448 0.73552 0.36267 0.0
C1394 C 0.44851 0.73947 0.32217 0.0
C1395 C 0.42263 0.73381 0.32699 0.0
C1396 C 0.41779 0.72917 0.34975 0.0
C1397 C 0.43874 0.72998 0.36727 0.0
C1398 C 0.4544 0.74431 0.29804 0.0
C1399 C 0.39043 0.7232 0.35559 0.0
H1400 H 0.35507 0.76707 0.28348 0.0
H1401 H 0.36097 0.68782 0.27153 0.0
H1402 H 0.39501 0.77828 0.33433 0.0
H1403 H 0.41802 0.78419 0.31438 0.0
H1404 H 0.38602 0.79414 0.30874 0.0
H1405 H 0.39569 0.66835 0.289 0.0
H1406 H 0.42534 0.68861 0.2992 0.0
H1407 H 0.40278 0.68003 0.31894 0.0
H1408 H 0.48895 0.74462 0.33635 0.0
H1409 H 0.43487 0.72637 0.38465 0.0
H1410 H 0.44416 0.76016 0.29164 0.0
H1411 H 0.44712 0.72737 0.28612 0.0
H1412 H 0.47555 0.74893 0.29724 0.0
H1413 H 0.37863 0.73855 0.35058 0.0
H1414 H 0.38994 0.72084 0.37429 0.0
H1415 H 0.38102 0.70553 0.34565 0.0
C1416 C 0.04312 0.42803 0.99721 0.0
C1417 C 0.02005 0.43937 0.99504 0.0
C1418 C 0.04507 0.40534 0.98443 0.0
C1419 C 0.0235 0.39391 0.96888 0.0
C1420 C 1.0005 0.40589 0.96586 0.0
C1421 C 0.99897 0.42844 0.97912 0.0
C1422 C 0.06982 0.39303 0.98836 0.0
C1423 C 0.97724 0.39445 0.94919 0.0
C1424 C 0.03629 0.34117 0.92628 0.0
C1425 C 0.02835 0.31961 0.93739 0.0
C1426 C 0.03419 0.36554 0.93597 0.0
C1427 C 0.02428 0.36837 0.95741 0.0
C1428 C 0.01601 0.34669 0.96856 0.0
C1429 C 0.01798 0.32263 0.95836 0.0
C1430 C 0.04283 0.38825 0.92345 0.0
C1431 C 0.00562 0.3489 0.99159 0.0
H1432 H 0.05943 0.43654 0.0095 0.0
H1433 H 0.98116 0.43728 0.97724 0.0
H1434 H 0.06578 0.37479 0.99615 0.0
H1435 H 0.0772 0.38877 0.97168 0.0
H1436 H 0.08533 0.40511 1.0 0.0
H1437 H 0.96191 0.40735 0.94711 0.0
H1438 H 0.98322 0.38967 0.932 0.0
H1439 H 0.96874 0.3766 0.95551 0.0
H1440 H 0.04416 0.33901 0.91 0.0
H1441 H 0.01187 0.30614 0.96715 0.0
H1442 H 0.05959 0.39978 0.934 0.0
H1443 H 0.02693 0.40044 0.92095 0.0
H1444 H 0.04865 0.38281 0.90631 0.0
H1445 H 0.02074 0.35936 0.00474 0.0
H1446 H 0.99961 0.33016 0.99779 0.0
H1447 H 0.98864 0.35981 0.99026 0.0
C1448 C 0.66962 0.85193 0.28273 0.0
C1449 C 0.67732 0.8347 0.26655 0.0
C1450 C 0.65426 0.84364 0.29959 0.0
C1451 C 0.64635 0.81747 0.30017 0.0
C1452 C 0.65355 0.80003 0.28348 0.0
C1453 C 0.66902 0.80885 0.26689 0.0
C1454 C 0.64707 0.86279 0.31714 0.0
C1455 C 0.64542 0.77199 0.28347 0.0
C1456 C 0.63195 0.79188 0.35699 0.0
C1457 C 0.60467 0.78838 0.35419 0.0
C1458 C 0.64569 0.80167 0.33968 0.0
C1459 C 0.63184 0.80814 0.319 0.0
C1460 C 0.60429 0.80508 0.31617 0.0
C1461 C 0.59101 0.79524 0.33382 0.0
C1462 C 0.67507 0.8047 0.3434 0.0
C1463 C 0.58887 0.81178 0.29434 0.0
H1464 H 0.67601 0.87193 0.28244 0.0
H1465 H 0.67478 0.79541 0.25436 0.0
H1466 H 0.62569 0.86076 0.3173 0.0
H1467 H 0.65601 0.85935 0.33467 0.0
H1468 H 0.65362 0.88253 0.3136 0.0
H1469 H 0.65142 0.76108 0.26858 0.0
H1470 H 0.65423 0.76488 0.29967 0.0
H1471 H 0.624 0.76825 0.28292 0.0
H1472 H 0.6427 0.7867 0.37268 0.0
H1473 H 0.56993 0.79259 0.33151 0.0
H1474 H 0.68276 0.82456 0.34145 0.0
H1475 H 0.6825 0.79263 0.3301 0.0
H1476 H 0.6829 0.79947 0.36074 0.0
H1477 H 0.59465 0.83176 0.29115 0.0
H1478 H 0.56758 0.80907 0.29513 0.0
H1479 H 0.59319 0.79987 0.27934 0.0
C1480 C 0.0264 0.06586 0.93691 0.0
C1481 C 0.03084 0.06663 0.96105 0.0
C1482 C 0.02927 0.08815 0.92539 0.0
C1483 C 0.03756 0.11153 0.93838 0.0
C1484 C 0.0425 0.11226 0.96277 0.0
C1485 C 0.03876 0.08984 0.97383 0.0
C1486 C 0.02319 0.08674 0.89941 0.0
C1487 C 0.05193 0.13672 0.97722 0.0
C1488 C 0.06901 0.16791 0.91118 0.0
C1489 C 0.04937 0.18386 0.91053 0.0
C1490 C 0.06519 0.14385 0.91954 0.0
C1491 C 0.0409 0.13543 0.92671 0.0
C1492 C 0.02049 0.15094 0.92465 0.0
C1493 C 0.02511 0.17516 0.91687 0.0
C1494 C 0.08761 0.12811 0.92195 0.0
C1495 C 0.99408 0.14235 0.93145 0.0
H1496 H 0.0203 0.04785 0.92708 0.0
H1497 H 0.0426 0.09044 0.9925 0.0
H1498 H 0.0078 0.09892 0.89445 0.0
H1499 H 0.04065 0.09401 0.89163 0.0
H1500 H 0.01654 0.06714 0.8919 0.0
H1501 H 0.05593 0.13386 0.99592 0.0
H1502 H 0.07 0.14573 0.9714 0.0
H1503 H 0.03715 0.15013 0.97496 0.0
H1504 H 0.08779 0.17477 0.9063 0.0
H1505 H 0.00975 0.18734 0.91586 0.0
H1506 H 0.0815 0.10873 0.91377 0.0
H1507 H 0.09386 0.12634 0.94054 0.0
H1508 H 0.10457 0.13654 0.91405 0.0
H1509 H 0.98691 0.12307 0.92347 0.0
H1510 H 0.97951 0.15532 0.92621 0.0
H1511 H 0.99558 0.14146 0.95046 0.0
C1512 C 0.36049 0.29041 0.2245 0.0
C1513 C 0.36209 0.27232 0.24088 0.0
C1514 C 0.376 0.29061 0.20644 0.0
C1515 C 0.39339 0.27217 0.20459 0.0
C1516 C 0.39566 0.25436 0.22149 0.0
C1517 C 0.38004 0.25473 0.23951 0.0
C1518 C 0.37312 0.31003 0.18887 0.0
C1519 C 0.41385 0.2343 0.22005 0.0
C1520 C 0.40795 0.25317 0.14429 0.0
C1521 C 0.43295 0.26581 0.144 0.0
C1522 C 0.39505 0.25503 0.16393 0.0
C1523 C 0.40729 0.27006 0.18383 0.0
C1524 C 0.43245 0.28306 0.18368 0.0
C1525 C 0.44506 0.28072 0.16376 0.0
C1526 C 0.36828 0.24077 0.16337 0.0
C1527 C 0.44602 0.29942 0.20454 0.0
H1528 H 0.34688 0.30429 0.22558 0.0
H1529 H 0.38139 0.24082 0.25222 0.0
H1530 H 0.39245 0.31981 0.18662 0.0
H1531 H 0.36451 0.30049 0.17186 0.0
H1532 H 0.36051 0.32443 0.19388 0.0
H1533 H 0.4148 0.2231 0.23547 0.0
H1534 H 0.40721 0.22121 0.20446 0.0
H1535 H 0.43373 0.24306 0.21829 0.0
H1536 H 0.39842 0.24153 0.12917 0.0
H1537 H 0.46437 0.29052 0.16368 0.0
H1538 H 0.354 0.25419 0.16646 0.0
H1539 H 0.36828 0.22766 0.17738 0.0
H1540 H 0.36159 0.22965 0.14662 0.0
H1541 H 0.43399 0.31449 0.20905 0.0
H1542 H 0.46548 0.3084 0.20162 0.0
H1543 H 0.44838 0.28791 0.21964 0.0
C1544 C 0.55556 0.4506 0.04613 0.0
C1545 C 0.54296 0.4555 0.02462 0.0
C1546 C 0.55096 0.4269 0.05508 0.0
C1547 C 0.53322 0.40769 0.04221 0.0
C1548 C 0.5198 0.41283 0.02081 0.0
C1549 C 0.52488 0.43665 0.01224 0.0
C1550 C 0.56572 0.42217 0.07791 0.0
C1551 C 0.50064 0.39292 0.0066 0.0
C1552 C 0.54151 0.33858 0.0488 0.0
C1553 C 0.52169 0.33104 0.0621 0.0
C1554 C 0.54591 0.36361 0.04284 0.0
C1555 C 0.53004 0.38165 0.05021 0.0
C1556 C 0.51052 0.37444 0.06425 0.0
C1557 C 0.50664 0.34923 0.07011 0.0
C1558 C 0.56712 0.37054 0.02806 0.0
C1559 C 0.49319 0.39314 0.07242 0.0
H1560 H 0.56953 0.46516 0.05575 0.0
H1561 H 0.51493 0.44031 0.99565 0.0
H1562 H 0.55208 0.41463 0.08969 0.0
H1563 H 0.57902 0.40769 0.07512 0.0
H1564 H 0.5774 0.43957 0.08654 0.0
H1565 H 0.49053 0.40042 0.99113 0.0
H1566 H 0.51094 0.37699 0.0008 0.0
H1567 H 0.48584 0.38516 0.01725 0.0
H1568 H 0.55343 0.32478 0.04268 0.0
H1569 H 0.49125 0.34362 0.08034 0.0
H1570 H 0.58048 0.38698 0.0365 0.0
H1571 H 0.55841 0.37617 0.01118 0.0
H1572 H 0.57868 0.35466 0.02482 0.0
H1573 H 0.5051 0.41027 0.08126 0.0
H1574 H 0.48009 0.38503 0.08444 0.0
H1575 H 0.48109 0.39927 0.05734 0.0
C1576 C 0.661 0.23866 0.20562 0.0
C1577 C 0.66742 0.21383 0.20623 0.0
C1578 C 0.64123 0.24482 0.18917 0.0
C1579 C 0.62735 0.22563 0.17317 0.0
C1580 C 0.63371 0.20051 0.17382 0.0
C1581 C 0.65384 0.19497 0.19023 0.0
C1582 C 0.63532 0.27189 0.18879 0.0
C1583 C 0.6192 0.17946 0.15723 0.0
C1584 C 0.56082 0.23623 0.14347 0.0
C1585 C 0.56651 0.24195 0.12137 0.0
C1586 C 0.58044 0.23097 0.16054 0.0
C1587 C 0.60643 0.23186 0.15552 0.0
C1588 C 0.61239 0.23825 0.13345 0.0
C1589 C 0.59236 0.24301 0.11661 0.0
C1590 C 0.57326 0.22395 0.18378 0.0
C1591 C 0.63992 0.23982 0.12754 0.0
H1592 H 0.67157 0.25337 0.21785 0.0
H1593 H 0.65878 0.17577 0.19073 0.0
H1594 H 0.63794 0.27894 0.17166 0.0
H1595 H 0.61474 0.27302 0.19142 0.0
H1596 H 0.64799 0.2846 0.20232 0.0
H1597 H 0.62608 0.16084 0.16039 0.0
H1598 H 0.59809 0.1781 0.15879 0.0
H1599 H 0.62157 0.18364 0.1392 0.0
H1600 H 0.5409 0.23522 0.14726 0.0
H1601 H 0.59698 0.2476 0.09965 0.0
H1602 H 0.58463 0.23707 0.19772 0.0
H1603 H 0.57823 0.20465 0.18693 0.0
H1604 H 0.55223 0.22443 0.18506 0.0
H1605 H 0.65294 0.25322 0.14023 0.0
H1606 H 0.64148 0.24607 0.10993 0.0
H1607 H 0.64712 0.22105 0.12859 0.0
C1608 C 0.43992 0.08469 0.9934 0.0
C1609 C 0.46009 0.06971 0.99124 0.0
C1610 C 0.44467 0.10853 0.00567 0.0
C1611 C 0.47016 0.11742 0.01627 0.0
C1612 C 0.49061 0.10234 0.01416 0.0
C1613 C 0.48535 0.0787 0.00154 0.0
C1614 C 0.4224 0.12418 0.00733 0.0
C1615 C 0.51794 0.11103 0.02549 0.0
C1616 C 0.48516 0.18812 0.03206 0.0
C1617 C 0.48072 0.18979 0.05527 0.0
C1618 C 0.48231 0.16461 0.01923 0.0
C1619 C 0.47518 0.14228 0.02999 0.0
C1620 C 0.4717 0.1438 0.05367 0.0
C1621 C 0.47434 0.16756 0.06598 0.0
C1622 C 0.48599 0.16374 0.99397 0.0
C1623 C 0.4645 0.12039 0.06585 0.0
H1624 H 0.42044 0.07787 0.98523 0.0
H1625 H 0.50093 0.06701 1.00006 0.0
H1626 H 0.41939 0.12764 0.02568 0.0
H1627 H 0.4271 0.14289 0.00059 0.0
H1628 H 0.40392 0.11485 0.99754 0.0
H1629 H 0.53172 0.09719 0.02193 0.0
H1630 H 0.52505 0.12943 0.01929 0.0
H1631 H 0.51809 0.11399 0.04446 0.0
H1632 H 0.48999 0.20525 0.02367 0.0
H1633 H 0.47105 0.16871 0.08397 0.0
H1634 H 0.46734 0.15644 0.98329 0.0
H1635 H 0.50034 0.15059 0.99031 0.0
H1636 H 0.49273 0.18265 0.98848 0.0
H1637 H 0.44495 0.11131 0.05821 0.0
H1638 H 0.46423 0.12467 0.08466 0.0
H1639 H 0.47846 0.10645 0.06345 0.0
C1640 C 0.29315 0.39796 0.6889 0.0
C1641 C 0.28588 0.38455 0.70746 0.0
C1642 C 0.31353 0.41774 0.69218 0.0
C1643 C 0.32695 0.42436 0.71459 0.0
C1644 C 0.31902 0.41161 0.73357 0.0
C1645 C 0.29853 0.39182 0.72978 0.0
C1646 C 0.32128 0.43096 0.6715 0.0
C1647 C 0.33284 0.41819 0.75773 0.0
C1648 C 0.39687 0.45404 0.71734 0.0
C1649 C 0.39456 0.47985 0.72147 0.0
C1650 C 0.37508 0.4358 0.71546 0.0
C1651 C 0.35031 0.4435 0.71779 0.0
C1652 C 0.34781 0.46944 0.72223 0.0
C1653 C 0.36995 0.48732 0.72399 0.0
C1654 C 0.37852 0.4083 0.71065 0.0
C1655 C 0.32171 0.47834 0.72484 0.0
H1656 H 0.28313 0.39264 0.67167 0.0
H1657 H 0.29308 0.38141 0.74415 0.0
H1658 H 0.32163 0.45171 0.67472 0.0
H1659 H 0.34121 0.42722 0.66859 0.0
H1660 H 0.30786 0.42458 0.65549 0.0
H1661 H 0.32297 0.40796 0.77084 0.0
H1662 H 0.35306 0.41329 0.75859 0.0
H1663 H 0.33401 0.43881 0.76228 0.0
H1664 H 0.41574 0.44801 0.71541 0.0
H1665 H 0.36791 0.50717 0.72728 0.0
H1666 H 0.36714 0.40087 0.6939 0.0
H1667 H 0.37098 0.39697 0.72422 0.0
H1668 H 0.3992 0.40536 0.70998 0.0
H1669 H 0.30837 0.47351 0.70855 0.0
H1670 H 0.3232 0.49907 0.72913 0.0
H1671 H 0.31276 0.46851 0.73862 0.0
C1672 C 0.2937 0.67264 0.7914 0.0
C1673 C 0.28329 0.68687 0.77388 0.0
C1674 C 0.3146 0.65874 0.78836 0.0
C1675 C 0.32529 0.65881 0.76719 0.0
C1676 C 0.3148 0.67296 0.74937 0.0
C1677 C 0.29402 0.68687 0.75295 0.0
C1678 C 0.32526 0.64397 0.80781 0.0
C1679 C 0.3256 0.67346 0.72652 0.0
C1680 C 0.39425 0.64216 0.76556 0.0
C1681 C 0.38987 0.61695 0.75625 0.0
C1682 C 0.37344 0.65589 0.76945 0.0
C1683 C 0.34757 0.64422 0.76375 0.0
C1684 C 0.34299 0.6187 0.75458 0.0
C1685 C 0.36418 0.60535 0.75103 0.0
C1686 C 0.37916 0.68298 0.77947 0.0
C1687 C 0.31569 0.6056 0.74819 0.0
H1688 H 0.28528 0.6721 0.80747 0.0
H1689 H 0.28637 0.69801 0.73941 0.0
H1690 H 0.32353 0.62361 0.80198 0.0
H1691 H 0.34624 0.65039 0.81288 0.0
H1692 H 0.31496 0.64609 0.82329 0.0
H1693 H 0.31495 0.68498 0.71427 0.0
H1694 H 0.34641 0.68132 0.72933 0.0
H1695 H 0.32453 0.65394 0.71844 0.0
H1696 H 0.41401 0.65129 0.76971 0.0
H1697 H 0.36056 0.58591 0.74377 0.0
H1698 H 0.37 0.68536 0.79555 0.0
H1699 H 0.37063 0.6957 0.76711 0.0
H1700 H 0.40035 0.68911 0.78349 0.0
H1701 H 0.30493 0.60606 0.76346 0.0
H1702 H 0.31542 0.5856 0.74153 0.0
H1703 H 0.30506 0.61574 0.73476 0.0
C1704 C 0.89466 0.46158 0.46196 0.0
C1705 C 0.91053 0.47617 0.48014 0.0
C1706 C 0.87474 0.4433 0.46632 0.0
C1707 C 0.87048 0.43961 0.48941 0.0
C1708 C 0.88609 0.45457 0.50782 0.0
C1709 C 0.90598 0.47262 0.50297 0.0
C1710 C 0.8585 0.42769 0.44622 0.0
C1711 C 0.88212 0.4512 0.53267 0.0
C1712 C 0.80559 0.4051 0.49965 0.0
C1713 C 0.812 0.38051 0.50258 0.0
C1714 C 0.82447 0.42461 0.49558 0.0
C1715 C 0.85034 0.41939 0.49431 0.0
C1716 C 0.85699 0.39471 0.49744 0.0
C1717 C 0.8378 0.37561 0.50158 0.0
C1718 C 0.81671 0.45076 0.49246 0.0
C1719 C 0.88437 0.38839 0.49614 0.0
H1720 H 0.8978 0.46449 0.44427 0.0
H1721 H 0.91834 0.4836 0.51713 0.0
H1722 H 0.86092 0.4074 0.44751 0.0
H1723 H 0.83759 0.42962 0.44673 0.0
H1724 H 0.86388 0.43333 0.42928 0.0
H1725 H 0.89507 0.46517 0.54492 0.0
H1726 H 0.86163 0.4531 0.53518 0.0
H1727 H 0.88596 0.43191 0.53707 0.0
H1728 H 0.78577 0.40913 0.50043 0.0
H1729 H 0.84302 0.35672 0.50378 0.0
H1730 H 0.82018 0.45644 0.47505 0.0
H1731 H 0.82886 0.46468 0.50528 0.0
H1732 H 0.79591 0.45184 0.49444 0.0
H1733 H 0.89009 0.39208 0.47887 0.0
H1734 H 0.88643 0.36834 0.49924 0.0
H1735 H 0.89821 0.40069 0.5091 0.0
C1736 C 0.77031 0.85152 0.78881 0.0
C1737 C 0.76169 0.82568 0.788 0.0
C1738 C 0.75278 0.86922 0.78412 0.0
C1739 C 0.72598 0.86082 0.77798 0.0
C1740 C 0.7171 0.8347 0.77734 0.0
C1741 C 0.73509 0.8174 0.78262 0.0
C1742 C 0.76305 0.89693 0.78546 0.0
C1743 C 0.68879 0.82499 0.77045 0.0
C1744 C 0.68367 0.91384 0.78347 0.0
C1745 C 0.6836 0.92321 0.76157 0.0
C1746 C 0.69588 0.89231 0.78872 0.0
C1747 C 0.70776 0.87962 0.77151 0.0
C1748 C 0.7054 0.88756 0.74876 0.0
C1749 C 0.69363 0.90945 0.74413 0.0
C1750 C 0.69817 0.88466 0.81324 0.0
C1751 C 0.71713 0.87415 0.72973 0.0
H1752 H 0.79088 0.85787 0.79321 0.0
H1753 H 0.72851 0.79735 0.78193 0.0
H1754 H 0.75983 0.90422 0.76812 0.0
H1755 H 0.7524 0.90796 0.79715 0.0
H1756 H 0.78416 0.90042 0.79181 0.0
H1757 H 0.68481 0.80433 0.772 0.0
H1758 H 0.67645 0.83496 0.78134 0.0
H1759 H 0.68288 0.82895 0.75229 0.0
H1760 H 0.67607 0.92447 0.79705 0.0
H1761 H 0.69339 0.9165 0.72712 0.0
H1762 H 0.71833 0.8904 0.8217 0.0
H1763 H 0.69424 0.86385 0.81358 0.0
H1764 H 0.68461 0.89373 0.82355 0.0
H1765 H 0.7386 0.87866 0.73259 0.0
H1766 H 0.70996 0.87995 0.71241 0.0
H1767 H 0.71265 0.85336 0.72984 0.0
C1768 C 0.62663 0.54846 0.99346 0.0
C1769 C 0.60589 0.55568 0.97864 0.0
C1770 C 0.64931 0.56524 0.00054 0.0
C1771 C 0.65177 0.58951 0.99197 0.0
C1772 C 0.63114 0.59682 0.97684 0.0
C1773 C 0.60833 0.58011 0.97081 0.0
C1774 C 0.67057 0.55706 0.01729 0.0
C1775 C 0.63313 0.62234 0.96691 0.0
C1776 C 0.69719 0.64553 0.02166 0.0
C1777 C 0.71816 0.64574 0.00873 0.0
C1778 C 0.67617 0.62636 0.01732 0.0
C1779 C 0.67566 0.6076 0.99897 0.0
C1780 C 0.69709 0.60751 0.98613 0.0
C1781 C 0.71836 0.62637 0.99147 0.0
C1782 C 0.65418 0.62663 0.03196 0.0
C1783 C 0.69694 0.58838 0.96595 0.0
H1784 H 0.62534 0.52961 0.99943 0.0
H1785 H 0.59232 0.58638 0.95996 0.0
H1786 H 0.68866 0.5567 0.00908 0.0
H1787 H 0.67501 0.57088 0.03262 0.0
H1788 H 0.66518 0.53803 0.02319 0.0
H1789 H 0.61612 0.62441 0.95409 0.0
H1790 H 0.63456 0.63756 0.98097 0.0
H1791 H 0.65104 0.62523 0.95838 0.0
H1792 H 0.69721 0.66045 0.03515 0.0
H1793 H 0.73455 0.62671 0.98139 0.0
H1794 H 0.64928 0.60758 0.03798 0.0
H1795 H 0.63654 0.63158 0.02149 0.0
H1796 H 0.65904 0.6405 0.04726 0.0
H1797 H 0.69295 0.5689 0.97128 0.0
H1798 H 0.71566 0.59003 0.95853 0.0
H1799 H 0.68112 0.59112 0.9522 0.0
C1800 C 0.24071 0.68222 0.24608 0.0
C1801 C 0.26727 0.6796 0.25119 0.0
C1802 C 0.2215 0.66216 0.24803 0.0
C1803 C 0.22899 0.63916 0.25588 0.0
C1804 C 0.25567 0.63654 0.26154 0.0
C1805 C 0.27445 0.65661 0.2588 0.0
C1806 C 0.19325 0.66543 0.2414 0.0
C1807 C 0.26443 0.6124 0.27028 0.0
C1808 C 0.18224 0.59221 0.28114 0.0
C1809 C 0.1776 0.57267 0.26352 0.0
C1810 C 0.19824 0.61451 0.27861 0.0
C1811 C 0.20914 0.61745 0.25772 0.0
C1812 C 0.2029 0.59843 0.23929 0.0
C1813 C 0.18748 0.57607 0.24255 0.0
C1814 C 0.20487 0.63412 0.29882 0.0
C1815 C 0.21347 0.6012 0.21649 0.0
H1816 H 0.23485 0.69999 0.24057 0.0
H1817 H 0.29484 0.65406 0.26231 0.0
H1818 H 0.1845 0.65096 0.22738 0.0
H1819 H 0.18228 0.66252 0.25633 0.0
H1820 H 0.19067 0.68446 0.23541 0.0
H1821 H 0.28581 0.614 0.27531 0.0
H1822 H 0.25464 0.60732 0.28549 0.0
H1823 H 0.25886 0.59665 0.25671 0.0
H1824 H 0.17466 0.58942 0.2974 0.0
H1825 H 0.18343 0.56108 0.22879 0.0
H1826 H 0.2019 0.6532 0.29327 0.0
H1827 H 0.22572 0.63463 0.30566 0.0
H1828 H 0.19302 0.63006 0.31304 0.0
H1829 H 0.21039 0.61994 0.21012 0.0
H1830 H 0.20421 0.58623 0.20308 0.0
H1831 H 0.23473 0.60009 0.21887 0.0
C1832 C 0.94716 0.56192 0.05138 0.0
C1833 C 0.9436 0.53658 0.04245 0.0
C1834 C 0.92716 0.57747 0.04795 0.0
C1835 C 0.90304 0.56752 0.03514 0.0
C1836 C 0.89936 0.54204 0.02594 0.0
C1837 C 0.91961 0.52687 0.02979 0.0
C1838 C 0.93181 0.60453 0.05813 0.0
C1839 C 0.87395 0.53073 0.01218 0.0
C1840 C 0.84432 0.60079 0.04614 0.0
C1841 C 0.84237 0.61656 0.02782 0.0
C1842 C 0.86366 0.58443 0.04847 0.0
C1843 C 0.88143 0.58363 0.03198 0.0
C1844 C 0.87901 0.59879 0.01297 0.0
C1845 C 0.85955 0.61514 0.01114 0.0
C1846 C 0.86558 0.56859 0.06901 0.0
C1847 C 0.8974 0.59824 0.99489 0.0
H1848 H 0.96572 0.56972 0.06087 0.0
H1849 H 0.91652 0.50723 0.0231 0.0
H1850 H 0.92895 0.61758 0.04425 0.0
H1851 H 0.91749 0.60782 0.07029 0.0
H1852 H 0.9517 0.60942 0.06753 0.0
H1853 H 0.87454 0.51088 0.00547 0.0
H1854 H 0.858 0.53115 0.02314 0.0
H1855 H 0.86909 0.54213 0.99736 0.0
H1856 H 0.83116 0.60169 0.05912 0.0
H1857 H 0.85818 0.6272 0.99691 0.0
H1858 H 0.88445 0.57421 0.07996 0.0
H1859 H 0.865 0.54834 0.06314 0.0
H1860 H 0.84964 0.57066 0.07979 0.0
H1861 H 0.91747 0.6052 0.00292 0.0
H1862 H 0.89203 0.61007 0.9805 0.0
H1863 H 0.89764 0.57854 0.98766 0.0
C1864 C 0.10429 0.99293 0.01059 0.0
C1865 C 0.08441 0.98327 0.02302 0.0
C1866 C 0.12496 0.97909 0.00656 0.0
C1867 C 0.12616 0.95519 0.01556 0.0
C1868 C 0.10631 0.94535 0.02823 0.0
C1869 C 0.08562 0.95942 0.03168 0.0
C1870 C 0.14565 0.99019 0.99286 0.0
C1871 C 0.10705 0.92005 0.03835 0.0
C1872 C 0.16832 0.90797 0.99222 0.0
C1873 C 0.19023 0.91142 0.00902 0.0
C1874 C 0.14761 0.92262 0.99372 0.0
C1875 C 0.14873 0.9409 0.01258 0.0
C1876 C 0.17114 0.945 0.02915 0.0
C1877 C 0.19166 0.93037 0.02706 0.0
C1878 C 0.12424 0.91806 0.97547 0.0
C1879 C 0.17306 0.96417 0.04961 0.0
H1880 H 0.10393 0.01153 0.00421 0.0
H1881 H 0.07024 0.9516 0.04102 0.0
H1882 H 0.16466 0.99357 0.00396 0.0
H1883 H 0.14788 0.97665 0.97822 0.0
H1884 H 0.1411 0.00833 0.98592 0.0
H1885 H 0.09007 0.91501 0.04767 0.0
H1886 H 0.10744 0.90501 0.02444 0.0
H1887 H 0.12509 0.92031 0.05056 0.0
H1888 H 0.16706 0.89344 0.97819 0.0
H1889 H 0.20846 0.93322 0.04016 0.0
H1890 H 0.11993 0.93613 0.96829 0.0
H1891 H 0.10692 0.9105 0.98332 0.0
H1892 H 0.12713 0.90447 0.96107 0.0
H1893 H 0.16999 0.98308 0.04366 0.0
H1894 H 0.19219 0.96569 0.06052 0.0
H1895 H 0.15756 0.95879 0.06046 0.0
loop_
_geom_bond_atom_site_label_1
_geom_bond_atom_site_label_2
_geom_bond_distance
_geom_bond_site_symmetry_2
_ccdc_geom_bond_type
H0 C5 0.930 . S
H1 C8 0.915 1_556 S
H2 C10 0.930 . S
H3 C4 1.016 . S
C4 H3 1.016 . S
C4 N11 1.286 1_556 S
C5 H0 0.930 . S
C5 C6 1.397 . S
C5 C7 1.361 . S
C6 C5 1.397 . S
C6 C10 1.390 . S
C7 C5 1.361 . S
C7 C8 1.393 . S
C7 N11 1.413 . S
C8 H1 0.915 1_554 S
C8 C7 1.393 . S
C8 C9 1.399 . S
C9 C8 1.399 . S
C9 C10 1.381 . S
C10 H2 0.930 . S
C10 C6 1.390 . S
C10 C9 1.381 . S
N11 C4 1.286 1_554 S
N11 C7 1.413 . S
H12 C17 0.930 . S
H13 C20 0.930 . S
H14 C22 0.930 . S
H15 C16 1.016 . S
C16 H15 1.016 . S
C16 N23 1.286 . S
C17 H12 0.930 . S
C17 C18 1.397 . S
C17 C19 1.361 . S
C18 C17 1.397 . S
C18 C22 1.390 . S
C19 C17 1.361 . S
C19 C20 1.393 . S
C19 N23 1.413 . S
C20 H13 0.930 . S
C20 C19 1.393 . S
C20 C21 1.399 . S
C21 C20 1.399 . S
C21 C22 1.381 . S
C22 H14 0.930 . S
C22 C18 1.390 . S
C22 C21 1.381 . S
N23 C16 1.286 . S
N23 C19 1.413 . S
H24 C29 0.930 . S
H25 C32 0.930 1_455 S
H26 C34 0.930 . S
H27 C28 1.016 1_455 S
C28 H27 1.016 1_655 S
C28 N35 1.286 . S
C29 H24 0.930 . S
C29 C30 1.397 . S
C29 C31 1.361 . S
C30 C29 1.397 . S
C30 C34 1.390 . S
C31 C29 1.361 . S
C31 C32 1.393 . S
C31 N35 1.413 . S
C32 H25 0.930 1_655 S
C32 C31 1.393 . S
C32 C33 1.399 . S
C33 C32 1.399 . S
C33 C34 1.381 . S
C34 H26 0.930 . S
C34 C30 1.390 . S
C34 C33 1.381 . S
N35 C28 1.286 . S
N35 C31 1.413 . S
H36 C41 0.930 . S
H37 C44 0.930 . S
H38 C46 0.930 . S
H39 C40 1.016 . S
C40 H39 1.016 . S
C40 N47 1.286 . S
C41 H36 0.930 . S
C41 C42 1.397 . S
C41 C43 1.361 . S
C42 C41 1.397 . S
C42 C46 1.390 . S
C43 C41 1.361 . S
C43 C44 1.393 . S
C43 N47 1.413 . S
C44 H37 0.930 . S
C44 C43 1.393 . S
C44 C45 1.399 . S
C45 C44 1.399 . S
C45 C46 1.381 . S
C46 H38 0.930 . S
C46 C42 1.390 . S
C46 C45 1.381 . S
N47 C40 1.286 . S
N47 C43 1.413 . S
H48 C53 0.930 . S
H49 C56 0.930 . S
H50 C58 0.930 . S
H51 C52 1.016 . S
C52 H51 1.016 . S
C52 N59 1.286 . S
C53 H48 0.930 . S
C53 C54 1.397 . S
C53 C55 1.361 . S
C54 C53 1.397 . S
C54 C58 1.390 1_565 S
C55 C53 1.361 . S
C55 C56 1.393 . S
C55 N59 1.413 . S
C56 H49 0.930 . S
C56 C55 1.393 . S
C56 C57 1.399 1_565 S
C57 C56 1.399 1_545 S
C57 C58 1.381 . S
C58 H50 0.930 . S
C58 C54 1.390 1_545 S
C58 C57 1.381 . S
N59 C52 1.286 . S
N59 C55 1.413 . S
H60 C65 0.930 . S
H61 C68 0.930 . S
H62 C70 0.930 . S
H63 C64 1.016 . S
C64 H63 1.016 . S
C64 N71 1.286 . S
C65 H60 0.930 . S
C65 C66 1.397 . S
C65 C67 1.361 . S
C66 C65 1.397 . S
C66 C70 1.390 . S
C67 C65 1.361 . S
C67 C68 1.393 . S
C67 N71 1.413 . S
C68 H61 0.930 . S
C68 C67 1.393 . S
C68 C69 1.399 . S
C69 C68 1.399 . S
C69 C70 1.381 . S
C70 H62 0.930 . S
C70 C66 1.390 . S
C70 C69 1.381 . S
N71 C64 1.286 . S
N71 C67 1.413 . S
H72 C77 0.928 . S
H73 C80 0.930 . S
H74 C82 0.930 . S
H75 C76 1.010 1_655 S
C76 H75 1.010 1_455 S
C76 N83 1.281 1_455 S
C77 H72 0.928 . S
C77 C78 1.397 . S
C77 C79 1.361 . S
C78 C77 1.397 . S
C78 C82 1.390 . S
C79 C77 1.361 . S
C79 C80 1.393 . S
C79 N83 1.420 . S
C80 H73 0.930 . S
C80 C79 1.393 . S
C80 C81 1.399 . S
C81 C80 1.399 . S
C81 C82 1.381 . S
C82 H74 0.930 . S
C82 C78 1.390 . S
C82 C81 1.381 . S
N83 C76 1.281 1_655 S
N83 C79 1.420 . S
H84 C89 0.930 . S
H85 C92 0.930 . S
H86 C94 0.930 . S
H87 C88 1.016 . S
C88 H87 1.016 . S
C88 N95 1.286 . S
C89 H84 0.930 . S
C89 C90 1.397 . S
C89 C91 1.361 . S
C90 C89 1.397 . S
C90 C94 1.390 . S
C91 C89 1.361 . S
C91 C92 1.393 . S
C91 N95 1.413 . S
C92 H85 0.930 . S
C92 C91 1.393 . S
C92 C93 1.399 . S
C93 C92 1.399 . S
C93 C94 1.381 . S
C94 H86 0.930 . S
C94 C90 1.390 . S
C94 C93 1.381 . S
N95 C88 1.286 . S
N95 C91 1.413 . S
H96 C101 0.930 . S
H97 C104 0.930 . S
H98 C106 0.930 . S
H99 C100 1.016 . S
C100 H99 1.016 . S
C100 N107 1.286 . S
C101 H96 0.930 . S
C101 C102 1.397 . S
C101 C103 1.361 . S
C102 C101 1.397 . S
C102 C106 1.390 . S
C103 C101 1.361 . S
C103 C104 1.393 . S
C103 N107 1.413 . S
C104 H97 0.930 . S
C104 C103 1.393 . S
C104 C105 1.399 . S
C105 C104 1.399 . S
C105 C106 1.381 . S
C106 H98 0.930 . S
C106 C102 1.390 . S
C106 C105 1.381 . S
N107 C100 1.286 . S
N107 C103 1.413 . S
H108 C113 0.930 . S
H109 C116 0.930 . S
H110 C118 0.930 . S
H111 C112 1.016 . S
C112 H111 1.016 . S
C112 N119 1.286 . S
C113 H108 0.930 . S
C113 C114 1.397 1_565 S
C113 C115 1.361 . S
C114 C113 1.397 1_545 S
C114 C118 1.390 . S
C115 C113 1.361 . S
C115 C116 1.393 . S
C115 N119 1.413 . S
C116 H109 0.930 . S
C116 C115 1.393 . S
C116 C117 1.399 . S
C117 C116 1.399 . S
C117 C118 1.381 1_565 S
C118 H110 0.930 . S
C118 C114 1.390 . S
C118 C117 1.381 1_545 S
N119 C112 1.286 . S
N119 C115 1.413 . S
H120 C125 0.930 . S
H121 C128 0.930 . S
H122 C130 0.930 . S
H123 C124 1.016 . S
C124 H123 1.016 . S
C124 N131 1.286 . S
C125 H120 0.930 . S
C125 C126 1.397 . S
C125 C127 1.361 . S
C126 C125 1.397 . S
C126 C130 1.390 . S
C127 C125 1.361 . S
C127 C128 1.393 . S
C127 N131 1.413 . S
C128 H121 0.930 . S
C128 C127 1.393 . S
C128 C129 1.399 . S
C129 C128 1.399 . S
C129 C130 1.381 . S
C130 H122 0.930 . S
C130 C126 1.390 . S
C130 C129 1.381 . S
N131 C124 1.286 . S
N131 C127 1.413 . S
H132 C137 0.930 . S
H133 C140 0.930 . S
H134 C142 0.930 . S
H135 C136 1.016 . S
C136 H135 1.016 . S
C136 N143 1.286 . S
C137 H132 0.930 . S
C137 C138 1.397 . S
C137 C139 1.361 . S
C138 C137 1.397 . S
C138 C142 1.390 . S
C139 C137 1.361 . S
C139 C140 1.393 . S
C139 N143 1.413 . S
C140 H133 0.930 . S
C140 C139 1.393 . S
C140 C141 1.399 . S
C141 C140 1.399 . S
C141 C142 1.381 . S
C142 H134 0.930 . S
C142 C138 1.390 . S
C142 C141 1.381 . S
N143 C136 1.286 . S
N143 C139 1.413 . S
H144 C149 0.930 . S
H145 C152 0.930 . S
H146 C154 0.930 . S
H147 C148 1.016 . S
C148 H147 1.016 . S
C148 N155 1.286 . S
C149 H144 0.930 . S
C149 C150 1.397 . S
C149 C151 1.361 . S
C150 C149 1.397 . S
C150 C154 1.390 . S
C151 C149 1.361 . S
C151 C152 1.393 . S
C151 N155 1.413 . S
C152 H145 0.930 . S
C152 C151 1.393 . S
C152 C153 1.399 . S
C153 C152 1.399 . S
C153 C154 1.381 . S
C154 H146 0.930 . S
C154 C150 1.390 . S
C154 C153 1.381 . S
N155 C148 1.286 . S
N155 C151 1.413 . S
H156 C161 0.930 . S
H157 C164 0.930 . S
H158 C166 0.930 . S
H159 C160 1.010 1_554 S
C160 H159 1.010 1_556 S
C160 N167 1.298 . S
C161 H156 0.930 . S
C161 C162 1.397 . S
C161 C163 1.361 . S
C162 C161 1.397 . S
C162 C166 1.390 . S
C163 C161 1.361 . S
C163 C164 1.393 . S
C163 N167 1.413 . S
C164 H157 0.930 . S
C164 C163 1.393 . S
C164 C165 1.399 . S
C165 C164 1.399 . S
C165 C166 1.381 . S
C166 H158 0.930 . S
C166 C162 1.390 . S
C166 C165 1.381 . S
N167 C160 1.298 . S
N167 C163 1.413 . S
H168 C173 0.930 . S
H169 C176 0.930 . S
H170 C178 0.930 . S
H171 C172 1.016 . S
C172 H171 1.016 . S
C172 N179 1.286 . S
C173 H168 0.930 . S
C173 C174 1.397 . S
C173 C175 1.361 . S
C174 C173 1.397 . S
C174 C178 1.390 . S
C175 C173 1.361 . S
C175 C176 1.393 . S
C175 N179 1.413 . S
C176 H169 0.930 . S
C176 C175 1.393 . S
C176 C177 1.399 . S
C177 C176 1.399 . S
C177 C178 1.381 . S
C178 H170 0.930 . S
C178 C174 1.390 . S
C178 C177 1.381 . S
N179 C172 1.286 . S
N179 C175 1.413 . S
H180 C185 0.930 . S
H181 C188 0.930 1_565 S
H182 C190 0.930 1_554 S
H183 C184 1.016 1_565 S
C184 H183 1.016 1_545 S
C184 N191 1.286 . S
C185 H180 0.930 . S
C185 C186 1.397 . S
C185 C187 1.361 . S
C186 C185 1.397 . S
C186 C190 1.390 . S
C187 C185 1.361 . S
C187 C188 1.393 . S
C187 N191 1.413 . S
C188 H181 0.930 1_545 S
C188 C187 1.393 . S
C188 C189 1.399 . S
C189 C188 1.399 . S
C189 C190 1.381 . S
C190 H182 0.930 1_556 S
C190 C186 1.390 . S
C190 C189 1.381 . S
N191 C184 1.286 . S
N191 C187 1.413 . S
Mg192 O193 2.028 . S
Mg192 O199 1.986 1_554 S
Mg192 O201 2.114 . S
Mg192 O202 2.251 . S
Mg192 O205 2.010 . S
O193 Mg192 2.028 . S
O193 C196 1.250 . S
O194 Mg195 2.028 . S
O194 C196 1.248 . S
Mg195 O194 2.028 . S
Mg195 O200 2.032 1_554 S
Mg195 O202 2.079 . S
C196 O193 1.250 . S
C196 O194 1.248 . S
C197 O198 1.264 . S
C197 O205 1.249 . S
O198 C197 1.264 . S
O199 Mg192 1.986 1_556 S
O199 C203 1.246 . S
O200 Mg195 2.032 1_556 S
O200 C203 1.259 . S
O201 Mg192 2.114 . S
O201 C204 1.252 . S
O202 Mg192 2.251 . S
O202 Mg195 2.079 . S
O202 C204 1.273 . S
C203 O199 1.246 . S
C203 O200 1.259 . S
C204 O201 1.252 . S
C204 O202 1.273 . S
O205 Mg192 2.010 . S
O205 C197 1.249 . S
Mg206 O207 2.028 . S
Mg206 O213 1.986 . S
Mg206 O215 2.114 . S
Mg206 O216 2.251 . S
Mg206 O219 2.010 . S
O207 Mg206 2.028 . S
O207 C210 1.250 . S
O208 Mg209 2.028 . S
O208 C210 1.248 . S
Mg209 O208 2.028 . S
Mg209 O214 2.032 . S
Mg209 O216 2.079 . S
C210 O207 1.250 . S
C210 O208 1.248 . S
C211 O212 1.264 . S
C211 O219 1.249 . S
O212 C211 1.264 . S
O213 Mg206 1.986 . S
O213 C217 1.246 . S
O214 Mg209 2.032 . S
O214 C217 1.259 . S
O215 Mg206 2.114 . S
O215 C218 1.252 . S
O216 Mg206 2.251 . S
O216 Mg209 2.079 . S
O216 C218 1.273 . S
C217 O213 1.246 . S
C217 O214 1.259 . S
C218 O215 1.252 . S
C218 O216 1.273 . S
O219 Mg206 2.010 . S
O219 C211 1.249 . S
Mg220 O221 2.028 . S
Mg220 O227 1.986 1_554 S
Mg220 O229 2.114 . S
Mg220 O230 2.251 . S
Mg220 O233 2.010 . S
O221 Mg220 2.028 . S
O221 C224 1.247 1_554 S
O222 Mg223 2.028 . S
O222 C224 1.252 . S
Mg223 O222 2.028 . S
Mg223 O228 2.032 . S
Mg223 O230 2.079 1_556 S
C224 O221 1.247 1_556 S
C224 O222 1.252 . S
C225 O226 1.264 . S
C225 O233 1.249 . S
O226 C225 1.264 . S
O227 Mg220 1.986 1_556 S
O227 C231 1.246 . S
O228 Mg223 2.032 . S
O228 C231 1.259 . S
O229 Mg220 2.114 . S
O229 C232 1.252 . S
O230 Mg220 2.251 . S
O230 Mg223 2.079 1_554 S
O230 C232 1.273 . S
C231 O227 1.246 . S
C231 O228 1.259 . S
C232 O229 1.252 . S
C232 O230 1.273 . S
O233 Mg220 2.010 . S
O233 C225 1.249 . S
Mg234 O235 2.028 . S
Mg234 O241 1.986 . S
Mg234 O243 2.114 . S
Mg234 O244 2.251 . S
Mg234 O247 2.010 . S
O235 Mg234 2.028 . S
O235 C238 1.250 1_545 S
O236 Mg237 2.028 . S
O236 C238 1.248 . S
Mg237 O236 2.028 . S
Mg237 O242 2.032 1_565 S
Mg237 O244 2.079 1_565 S
C238 O235 1.250 1_565 S
C238 O236 1.248 . S
C239 O240 1.264 . S
C239 O247 1.249 . S
O240 C239 1.264 . S
O241 Mg234 1.986 . S
O241 C245 1.246 . S
O242 Mg237 2.032 1_545 S
O242 C245 1.259 . S
O243 Mg234 2.114 . S
O243 C246 1.252 . S
O244 Mg234 2.251 . S
O244 Mg237 2.079 1_545 S
O244 C246 1.273 . S
C245 O241 1.246 . S
C245 O242 1.259 . S
C246 O243 1.252 . S
C246 O244 1.273 . S
O247 Mg234 2.010 . S
O247 C239 1.249 . S
Mg248 O249 2.028 . S
Mg248 O255 1.986 . S
Mg248 O257 2.114 . S
Mg248 O258 2.251 . S
Mg248 O261 2.010 . S
O249 Mg248 2.028 . S
O249 C252 1.250 . S
O250 Mg251 2.028 . S
O250 C252 1.248 . S
Mg251 O250 2.028 . S
Mg251 O256 2.032 . S
Mg251 O258 2.079 . S
C252 O249 1.250 . S
C252 O250 1.248 . S
C253 O254 1.264 . S
C253 O261 1.249 . S
O254 C253 1.264 . S
O255 Mg248 1.986 . S
O255 C259 1.246 . S
O256 Mg251 2.032 . S
O256 C259 1.259 . S
O257 Mg248 2.114 . S
O257 C260 1.252 . S
O258 Mg248 2.251 . S
O258 Mg251 2.079 . S
O258 C260 1.273 . S
C259 O255 1.246 . S
C259 O256 1.259 . S
C260 O257 1.252 . S
C260 O258 1.273 . S
O261 Mg248 2.010 . S
O261 C253 1.249 . S
Mg262 O263 2.028 . S
Mg262 O269 1.986 . S
Mg262 O271 2.114 . S
Mg262 O272 2.251 . S
Mg262 O275 2.010 . S
O263 Mg262 2.028 . S
O263 C266 1.250 . S
O264 Mg265 2.028 . S
O264 C266 1.248 . S
Mg265 O264 2.028 . S
Mg265 O270 2.032 . S
Mg265 O272 2.079 . S
C266 O263 1.250 . S
C266 O264 1.248 . S
C267 O268 1.264 . S
C267 O275 1.249 . S
O268 C267 1.264 . S
O269 Mg262 1.986 . S
O269 C273 1.246 . S
O270 Mg265 2.032 . S
O270 C273 1.259 . S
O271 Mg262 2.114 . S
O271 C274 1.252 . S
O272 Mg262 2.251 . S
O272 Mg265 2.079 . S
O272 C274 1.273 . S
C273 O269 1.246 . S
C273 O270 1.259 . S
C274 O271 1.252 . S
C274 O272 1.273 . S
O275 Mg262 2.010 . S
O275 C267 1.249 . S
Mg276 O277 2.028 . S
Mg276 O283 1.986 . S
Mg276 O285 2.114 . S
Mg276 O286 2.251 . S
Mg276 O289 2.010 . S
O277 Mg276 2.028 . S
O277 C280 1.250 . S
O278 Mg279 2.028 . S
O278 C280 1.248 . S
Mg279 O278 2.028 . S
Mg279 O284 2.032 . S
Mg279 O286 2.079 . S
C280 O277 1.250 . S
C280 O278 1.248 . S
C281 O282 1.264 . S
C281 O289 1.249 . S
O282 C281 1.264 . S
O283 Mg276 1.986 . S
O283 C287 1.246 . S
O284 Mg279 2.032 . S
O284 C287 1.259 . S
O285 Mg276 2.114 . S
O285 C288 1.252 . S
O286 Mg276 2.251 . S
O286 Mg279 2.079 . S
O286 C288 1.273 . S
C287 O283 1.246 . S
C287 O284 1.259 . S
C288 O285 1.252 . S
C288 O286 1.273 . S
O289 Mg276 2.010 . S
O289 C281 1.249 . S
Mg290 O291 2.028 1_545 S
Mg290 O297 1.986 1_545 S
Mg290 O299 2.114 . S
Mg290 O300 2.251 . S
Mg290 O303 2.010 . S
O291 Mg290 2.028 1_565 S
O291 C294 1.250 . S
O292 Mg293 2.028 . S
O292 C294 1.248 . S
Mg293 O292 2.028 . S
Mg293 O298 2.032 . S
Mg293 O300 2.079 1_565 S
C294 O291 1.250 . S
C294 O292 1.248 . S
C295 O296 1.264 . S
C295 O303 1.249 . S
O296 C295 1.264 . S
O297 Mg290 1.986 1_565 S
O297 C301 1.246 . S
O298 Mg293 2.032 . S
O298 C301 1.259 . S
O299 Mg290 2.114 . S
O299 C302 1.252 . S
O300 Mg290 2.251 . S
O300 Mg293 2.079 1_545 S
O300 C302 1.273 . S
C301 O297 1.246 . S
C301 O298 1.259 . S
C302 O299 1.252 . S
C302 O300 1.273 . S
O303 Mg290 2.010 . S
O303 C295 1.249 . S
Mg304 O305 1.999 1_455 S
Mg304 O311 1.986 . S
Mg304 O313 2.114 . S
Mg304 O314 2.251 . S
Mg304 O317 2.010 . S
O305 Mg304 1.999 1_655 S
O305 C308 1.295 . S
O306 Mg307 2.028 . S
O306 C308 1.248 . S
Mg307 O306 2.028 . S
Mg307 O312 2.032 . S
Mg307 O314 2.079 1_655 S
C308 O305 1.295 . S
C308 O306 1.248 . S
C309 O310 1.264 . S
C309 O317 1.249 . S
O310 C309 1.264 . S
O311 Mg304 1.986 . S
O311 C315 1.246 . S
O312 Mg307 2.032 . S
O312 C315 1.259 1_655 S
O313 Mg304 2.114 . S
O313 C316 1.252 . S
O314 Mg304 2.251 . S
O314 Mg307 2.079 1_455 S
O314 C316 1.273 . S
C315 O311 1.246 . S
C315 O312 1.259 1_455 S
C316 O313 1.252 . S
C316 O314 1.273 . S
O317 Mg304 2.010 . S
O317 C309 1.249 . S
Mg318 O319 2.028 . S
Mg318 O325 1.986 . S
Mg318 O327 2.114 . S
Mg318 O328 2.251 . S
Mg318 O331 2.010 . S
O319 Mg318 2.028 . S
O319 C322 1.250 . S
O320 Mg321 2.028 . S
O320 C322 1.248 . S
Mg321 O320 2.028 . S
Mg321 O326 2.032 . S
Mg321 O328 2.079 . S
C322 O319 1.250 . S
C322 O320 1.248 . S
C323 O324 1.264 . S
C323 O331 1.249 . S
O324 C323 1.264 . S
O325 Mg318 1.986 . S
O325 C329 1.246 . S
O326 Mg321 2.032 . S
O326 C329 1.259 . S
O327 Mg318 2.114 . S
O327 C330 1.252 . S
O328 Mg318 2.251 . S
O328 Mg321 2.079 . S
O328 C330 1.273 . S
C329 O325 1.246 . S
C329 O326 1.259 . S
C330 O327 1.252 . S
C330 O328 1.273 . S
O331 Mg318 2.010 . S
O331 C323 1.249 . S
Mg332 O333 2.028 1_655 S
Mg332 O339 1.989 . S
Mg332 O341 2.114 . S
Mg332 O342 2.251 1_655 S
Mg332 O345 2.010 . S
O333 Mg332 2.028 1_455 S
O333 C336 1.250 . S
O334 Mg335 2.028 . S
O334 C336 1.248 . S
Mg335 O334 2.028 . S
Mg335 O340 2.032 . S
Mg335 O342 2.079 . S
C336 O333 1.250 . S
C336 O334 1.248 . S
C337 O338 1.264 . S
C337 O345 1.249 . S
O338 C337 1.264 . S
O339 Mg332 1.989 . S
O339 C343 1.237 1_655 S
O340 Mg335 2.032 . S
O340 C343 1.259 . S
O341 Mg332 2.114 . S
O341 C344 1.252 . S
O342 Mg332 2.251 1_455 S
O342 Mg335 2.079 . S
O342 C344 1.273 1_455 S
C343 O339 1.237 1_455 S
C343 O340 1.259 . S
C344 O341 1.252 . S
C344 O342 1.273 1_655 S
O345 Mg332 2.010 . S
O345 C337 1.249 . S
Mg346 O347 2.028 . S
Mg346 O353 1.986 . S
Mg346 O355 2.114 . S
Mg346 O356 2.251 . S
Mg346 O359 2.010 . S
O347 Mg346 2.028 . S
O347 C350 1.250 . S
O348 Mg349 2.028 . S
O348 C350 1.248 . S
Mg349 O348 2.028 . S
Mg349 O354 2.032 . S
Mg349 O356 2.079 . S
C350 O347 1.250 . S
C350 O348 1.248 . S
C351 O352 1.264 . S
C351 O359 1.249 . S
O352 C351 1.264 . S
O353 Mg346 1.986 . S
O353 C357 1.246 . S
O354 Mg349 2.032 . S
O354 C357 1.259 . S
O355 Mg346 2.114 . S
O355 C358 1.252 . S
O356 Mg346 2.251 . S
O356 Mg349 2.079 . S
O356 C358 1.273 . S
C357 O353 1.246 . S
C357 O354 1.259 . S
C358 O355 1.252 . S
C358 O356 1.273 . S
O359 Mg346 2.010 . S
O359 C351 1.249 . S
C360 C361 1.391 . S
C360 C362 1.394 . S
C360 H376 0.931 . S
C361 C360 1.391 . S
C361 C365 1.376 . S
C362 C360 1.394 . S
C362 C363 1.369 . S
C362 C366 1.531 . S
C363 C362 1.369 . S
C363 C364 1.410 . S
C363 C371 1.503 . S
C364 C363 1.410 . S
C364 C365 1.392 . S
C364 C367 1.511 . S
C365 C361 1.376 . S
C365 C364 1.392 . S
C365 H377 0.929 . S
C366 C362 1.531 . S
C366 H378 0.960 . S
C366 H379 0.962 . S
C366 H380 0.960 . S
C367 C364 1.511 . S
C367 H381 0.961 . S
C367 H382 0.961 . S
C367 H383 0.961 . S
C368 C369 1.370 . S
C368 C370 1.363 . S
C368 H384 0.931 . S
C369 C368 1.370 . S
C369 C373 1.408 . S
C370 C368 1.363 . S
C370 C371 1.370 . S
C370 C374 1.524 . S
C371 C363 1.503 . S
C371 C370 1.370 . S
C371 C372 1.403 . S
C372 C371 1.403 . S
C372 C373 1.404 . S
C372 C375 1.539 . S
C373 C369 1.408 . S
C373 C372 1.404 . S
C373 H385 0.930 . S
C374 C370 1.524 . S
C374 H386 0.956 . S
C374 H387 0.961 . S
C374 H388 0.961 . S
C375 C372 1.539 . S
C375 H389 0.958 . S
C375 H390 0.961 . S
C375 H391 0.960 . S
H376 C360 0.931 . S
H377 C365 0.929 . S
H378 C366 0.960 . S
H379 C366 0.962 . S
H380 C366 0.960 . S
H381 C367 0.961 . S
H382 C367 0.961 . S
H383 C367 0.961 . S
H384 C368 0.931 . S
H385 C373 0.930 . S
H386 C374 0.956 . S
H387 C374 0.961 . S
H388 C374 0.961 . S
H389 C375 0.958 . S
H390 C375 0.961 . S
H391 C375 0.960 . S
C392 C393 1.391 . S
C392 C394 1.394 . S
C392 H408 0.931 . S
C393 C392 1.391 . S
C393 C397 1.376 . S
C394 C392 1.394 . S
C394 C395 1.369 . S
C394 C398 1.531 . S
C395 C394 1.369 . S
C395 C396 1.410 . S
C395 C403 1.503 . S
C396 C395 1.410 . S
C396 C397 1.392 . S
C396 C399 1.511 . S
C397 C393 1.376 . S
C397 C396 1.392 . S
C397 H409 0.929 . S
C398 C394 1.531 . S
C398 H410 0.960 . S
C398 H411 0.962 . S
C398 H412 0.960 . S
C399 C396 1.511 . S
C399 H413 0.961 . S
C399 H414 0.961 . S
C399 H415 0.961 . S
C400 C401 1.370 . S
C400 C402 1.363 . S
C400 H416 0.931 . S
C401 C400 1.370 . S
C401 C405 1.408 . S
C402 C400 1.363 . S
C402 C403 1.370 . S
C402 C406 1.524 . S
C403 C395 1.503 . S
C403 C402 1.370 . S
C403 C404 1.403 . S
C404 C403 1.403 . S
C404 C405 1.404 . S
C404 C407 1.539 . S
C405 C401 1.408 . S
C405 C404 1.404 . S
C405 H417 0.930 . S
C406 C402 1.524 . S
C406 H418 0.956 . S
C406 H419 0.961 . S
C406 H420 0.961 . S
C407 C404 1.539 . S
C407 H421 0.958 . S
C407 H422 0.961 . S
C407 H423 0.960 . S
H408 C392 0.931 . S
H409 C397 0.929 . S
H410 C398 0.960 . S
H411 C398 0.962 . S
H412 C398 0.960 . S
H413 C399 0.961 . S
H414 C399 0.961 . S
H415 C399 0.961 . S
H416 C400 0.931 . S
H417 C405 0.930 . S
H418 C406 0.956 . S
H419 C406 0.961 . S
H420 C406 0.961 . S
H421 C407 0.958 . S
H422 C407 0.961 . S
H423 C407 0.960 . S
C424 C425 1.391 . S
C424 C426 1.394 . S
C424 H440 0.931 . S
C425 C424 1.391 . S
C425 C429 1.376 . S
C426 C424 1.394 . S
C426 C427 1.369 . S
C426 C430 1.531 . S
C427 C426 1.369 . S
C427 C428 1.410 . S
C427 C435 1.503 . S
C428 C427 1.410 . S
C428 C429 1.392 . S
C428 C431 1.511 . S
C429 C425 1.376 . S
C429 C428 1.392 . S
C429 H441 0.929 . S
C430 C426 1.531 . S
C430 H442 0.960 . S
C430 H443 0.962 . S
C430 H444 0.960 . S
C431 C428 1.511 . S
C431 H445 0.961 . S
C431 H446 0.961 . S
C431 H447 0.961 . S
C432 C433 1.370 . S
C432 C434 1.363 . S
C432 H448 0.931 . S
C433 C432 1.370 . S
C433 C437 1.408 . S
C434 C432 1.363 . S
C434 C435 1.370 . S
C434 C438 1.524 . S
C435 C427 1.503 . S
C435 C434 1.370 . S
C435 C436 1.403 . S
C436 C435 1.403 . S
C436 C437 1.404 . S
C436 C439 1.539 . S
C437 C433 1.408 . S
C437 C436 1.404 . S
C437 H449 0.930 . S
C438 C434 1.524 . S
C438 H450 0.956 . S
C438 H451 0.961 . S
C438 H452 0.961 . S
C439 C436 1.539 . S
C439 H453 0.958 . S
C439 H454 0.961 . S
C439 H455 0.960 . S
H440 C424 0.931 . S
H441 C429 0.929 . S
H442 C430 0.960 . S
H443 C430 0.962 . S
H444 C430 0.960 . S
H445 C431 0.961 . S
H446 C431 0.961 . S
H447 C431 0.961 . S
H448 C432 0.931 . S
H449 C437 0.930 . S
H450 C438 0.956 . S
H451 C438 0.961 . S
H452 C438 0.961 . S
H453 C439 0.958 . S
H454 C439 0.961 . S
H455 C439 0.960 . S
C456 C457 1.391 . S
C456 C458 1.394 . S
C456 H472 0.931 . S
C457 C456 1.391 . S
C457 C461 1.376 1_545 S
C458 C456 1.394 . S
C458 C459 1.369 . S
C458 C462 1.531 1_455 S
C459 C458 1.369 . S
C459 C460 1.438 . S
C459 C467 1.503 . S
C460 C459 1.438 . S
C460 C461 1.377 1_545 S
C460 C463 1.499 1_545 S
C461 C457 1.376 1_565 S
C461 C460 1.377 1_565 S
C461 H473 0.929 . S
C462 C458 1.531 1_655 S
C462 H474 0.960 . S
C462 H475 0.962 . S
C462 H476 0.960 . S
C463 C460 1.499 1_565 S
C463 H477 0.961 . S
C463 H478 0.961 . S
C463 H479 0.961 1_565 S
C464 C465 1.370 . S
C464 C466 1.363 . S
C464 H480 0.931 1_545 S
C465 C464 1.370 . S
C465 C469 1.434 . S
C466 C464 1.363 . S
C466 C467 1.370 1_655 S
C466 C470 1.524 1_545 S
C467 C459 1.503 . S
C467 C466 1.370 1_455 S
C467 C468 1.403 . S
C468 C467 1.403 . S
C468 C469 1.388 1_455 S
C468 C471 1.539 . S
C469 C465 1.434 . S
C469 C468 1.388 1_655 S
C469 H481 0.922 1_655 S
C470 C466 1.524 1_565 S
C470 H482 0.956 . S
C470 H483 0.961 . S
C470 H484 0.961 . S
C471 C468 1.539 . S
C471 H485 0.958 . S
C471 H486 0.961 . S
C471 H487 0.960 . S
H472 C456 0.931 . S
H473 C461 0.929 . S
H474 C462 0.960 . S
H475 C462 0.962 . S
H476 C462 0.960 . S
H477 C463 0.961 . S
H478 C463 0.961 . S
H479 C463 0.961 1_545 S
H480 C464 0.931 1_565 S
H481 C469 0.922 1_455 S
H482 C470 0.956 . S
H483 C470 0.961 . S
H484 C470 0.961 . S
H485 C471 0.958 . S
H486 C471 0.961 . S
H487 C471 0.960 . S
C488 C489 1.391 . S
C488 C490 1.394 . S
C488 H504 0.931 . S
C489 C488 1.391 . S
C489 C493 1.376 . S
C490 C488 1.394 . S
C490 C491 1.369 . S
C490 C494 1.531 . S
C491 C490 1.369 . S
C491 C492 1.410 . S
C491 C499 1.503 . S
C492 C491 1.410 . S
C492 C493 1.392 . S
C492 C495 1.511 . S
C493 C489 1.376 . S
C493 C492 1.392 . S
C493 H505 0.929 . S
C494 C490 1.531 . S
C494 H506 0.960 . S
C494 H507 0.962 . S
C494 H508 0.960 . S
C495 C492 1.511 . S
C495 H509 0.961 . S
C495 H510 0.961 . S
C495 H511 0.961 . S
C496 C497 1.370 . S
C496 C498 1.363 . S
C496 H512 0.931 . S
C497 C496 1.370 . S
C497 C501 1.408 . S
C498 C496 1.363 . S
C498 C499 1.370 . S
C498 C502 1.524 . S
C499 C491 1.503 . S
C499 C498 1.370 . S
C499 C500 1.403 . S
C500 C499 1.403 . S
C500 C501 1.404 . S
C500 C503 1.539 . S
C501 C497 1.408 . S
C501 C500 1.404 . S
C501 H513 0.930 . S
C502 C498 1.524 . S
C502 H514 0.956 . S
C502 H515 0.961 . S
C502 H516 0.961 . S
C503 C500 1.539 . S
C503 H517 0.958 . S
C503 H518 0.961 . S
C503 H519 0.960 . S
H504 C488 0.931 . S
H505 C493 0.929 . S
H506 C494 0.960 . S
H507 C494 0.962 . S
H508 C494 0.960 . S
H509 C495 0.961 . S
H510 C495 0.961 . S
H511 C495 0.961 . S
H512 C496 0.931 . S
H513 C501 0.930 . S
H514 C502 0.956 . S
H515 C502 0.961 . S
H516 C502 0.961 . S
H517 C503 0.958 . S
H518 C503 0.961 . S
H519 C503 0.960 . S
C520 C521 1.391 . S
C520 C522 1.394 . S
C520 H536 0.931 . S
C521 C520 1.391 . S
C521 C525 1.376 . S
C522 C520 1.394 . S
C522 C523 1.369 . S
C522 C526 1.531 . S
C523 C522 1.369 . S
C523 C524 1.410 . S
C523 C531 1.503 . S
C524 C523 1.410 . S
C524 C525 1.392 . S
C524 C527 1.511 . S
C525 C521 1.376 . S
C525 C524 1.392 . S
C525 H537 0.929 . S
C526 C522 1.531 . S
C526 H538 0.960 . S
C526 H539 0.962 . S
C526 H540 0.960 . S
C527 C524 1.511 . S
C527 H541 0.961 . S
C527 H542 0.961 . S
C527 H543 0.961 . S
C528 C529 1.370 . S
C528 C530 1.363 . S
C528 H544 0.931 . S
C529 C528 1.370 . S
C529 C533 1.408 . S
C530 C528 1.363 . S
C530 C531 1.370 . S
C530 C534 1.524 . S
C531 C523 1.503 . S
C531 C530 1.370 . S
C531 C532 1.403 . S
C532 C531 1.403 . S
C532 C533 1.404 . S
C532 C535 1.539 . S
C533 C529 1.408 . S
C533 C532 1.404 . S
C533 H545 0.930 . S
C534 C530 1.524 . S
C534 H546 0.956 . S
C534 H547 0.961 . S
C534 H548 0.961 . S
C535 C532 1.539 . S
C535 H549 0.958 . S
C535 H550 0.961 . S
C535 H551 0.960 . S
H536 C520 0.931 . S
H537 C525 0.929 . S
H538 C526 0.960 . S
H539 C526 0.962 . S
H540 C526 0.960 . S
H541 C527 0.961 . S
H542 C527 0.961 . S
H543 C527 0.961 . S
H544 C528 0.931 . S
H545 C533 0.930 . S
H546 C534 0.956 . S
H547 C534 0.961 . S
H548 C534 0.961 . S
H549 C535 0.958 . S
H550 C535 0.961 . S
H551 C535 0.960 . S
C552 C553 1.391 . S
C552 C554 1.394 . S
C552 H568 0.931 . S
C553 C552 1.391 . S
C553 C557 1.376 . S
C554 C552 1.394 . S
C554 C555 1.369 . S
C554 C558 1.531 . S
C555 C554 1.369 . S
C555 C556 1.410 . S
C555 C563 1.503 . S
C556 C555 1.410 . S
C556 C557 1.392 . S
C556 C559 1.511 . S
C557 C553 1.376 . S
C557 C556 1.392 . S
C557 H569 0.929 . S
C558 C554 1.531 . S
C558 H570 0.960 . S
C558 H571 0.962 . S
C558 H572 0.960 . S
C559 C556 1.511 . S
C559 H573 0.961 . S
C559 H574 0.961 . S
C559 H575 0.961 . S
C560 C561 1.370 . S
C560 C562 1.363 . S
C560 H576 0.931 . S
C561 C560 1.370 . S
C561 C565 1.408 . S
C562 C560 1.363 . S
C562 C563 1.370 . S
C562 C566 1.524 . S
C563 C555 1.503 . S
C563 C562 1.370 . S
C563 C564 1.403 . S
C564 C563 1.403 . S
C564 C565 1.404 . S
C564 C567 1.539 . S
C565 C561 1.408 . S
C565 C564 1.404 . S
C565 H577 0.930 . S
C566 C562 1.524 . S
C566 H578 0.956 . S
C566 H579 0.961 . S
C566 H580 0.961 . S
C567 C564 1.539 . S
C567 H581 0.958 . S
C567 H582 0.961 . S
C567 H583 0.960 . S
H568 C552 0.931 . S
H569 C557 0.929 . S
H570 C558 0.960 . S
H571 C558 0.962 . S
H572 C558 0.960 . S
H573 C559 0.961 . S
H574 C559 0.961 . S
H575 C559 0.961 . S
H576 C560 0.931 . S
H577 C565 0.930 . S
H578 C566 0.956 . S
H579 C566 0.961 . S
H580 C566 0.961 . S
H581 C567 0.958 . S
H582 C567 0.961 . S
H583 C567 0.960 . S
C584 C585 1.391 . S
C584 C586 1.394 . S
C584 H600 0.931 . S
C585 C584 1.391 . S
C585 C589 1.376 1_565 S
C586 C584 1.394 . S
C586 C587 1.369 . S
C586 C590 1.531 . S
C587 C586 1.369 . S
C587 C588 1.410 1_565 S
C587 C595 1.503 . S
C588 C587 1.410 1_545 S
C588 C589 1.392 . S
C588 C591 1.511 . S
C589 C585 1.376 1_545 S
C589 C588 1.392 . S
C589 H601 0.929 . S
C590 C586 1.531 . S
C590 H602 0.960 . S
C590 H603 0.962 . S
C590 H604 0.960 . S
C591 C588 1.511 . S
C591 H605 0.961 . S
C591 H606 0.961 . S
C591 H607 0.961 . S
C592 C593 1.370 1_545 S
C592 C594 1.363 . S
C592 H608 0.931 . S
C593 C592 1.370 1_565 S
C593 C597 1.408 . S
C594 C592 1.363 . S
C594 C595 1.366 1_545 S
C594 C598 1.529 . S
C595 C587 1.503 . S
C595 C594 1.366 1_565 S
C595 C596 1.403 . S
C596 C595 1.403 . S
C596 C597 1.404 . S
C596 C599 1.539 . S
C597 C593 1.408 . S
C597 C596 1.404 . S
C597 H609 0.930 . S
C598 C594 1.529 . S
C598 H610 0.956 . S
C598 H611 0.961 . S
C598 H612 0.961 . S
C599 C596 1.539 . S
C599 H613 0.958 . S
C599 H614 0.961 . S
C599 H615 0.960 . S
H600 C584 0.931 . S
H601 C589 0.929 . S
H602 C590 0.960 . S
H603 C590 0.962 . S
H604 C590 0.960 . S
H605 C591 0.961 . S
H606 C591 0.961 . S
H607 C591 0.961 . S
H608 C592 0.931 . S
H609 C597 0.930 . S
H610 C598 0.956 . S
H611 C598 0.961 . S
H612 C598 0.961 . S
H613 C599 0.958 . S
H614 C599 0.961 . S
H615 C599 0.960 . S
C616 C617 1.391 . S
C616 C618 1.394 . S
C616 H632 0.931 . S
C617 C616 1.391 . S
C617 C621 1.376 . S
C618 C616 1.394 . S
C618 C619 1.369 . S
C618 C622 1.531 . S
C619 C618 1.369 . S
C619 C620 1.410 . S
C619 C627 1.503 . S
C620 C619 1.410 . S
C620 C621 1.392 . S
C620 C623 1.511 . S
C621 C617 1.376 . S
C621 C620 1.392 . S
C621 H633 0.929 . S
C622 C618 1.531 . S
C622 H634 0.960 . S
C622 H635 0.962 . S
C622 H636 0.960 . S
C623 C620 1.511 . S
C623 H637 0.961 . S
C623 H638 0.961 . S
C623 H639 0.961 . S
C624 C625 1.370 . S
C624 C626 1.363 . S
C624 H640 0.931 . S
C625 C624 1.370 . S
C625 C629 1.408 . S
C626 C624 1.363 . S
C626 C627 1.370 . S
C626 C630 1.524 . S
C627 C619 1.503 . S
C627 C626 1.370 . S
C627 C628 1.403 . S
C628 C627 1.403 . S
C628 C629 1.404 . S
C628 C631 1.539 . S
C629 C625 1.408 . S
C629 C628 1.404 . S
C629 H641 0.930 . S
C630 C626 1.524 . S
C630 H642 0.956 . S
C630 H643 0.961 . S
C630 H644 0.961 . S
C631 C628 1.539 . S
C631 H645 0.958 . S
C631 H646 0.961 . S
C631 H647 0.960 . S
H632 C616 0.931 . S
H633 C621 0.929 . S
H634 C622 0.960 . S
H635 C622 0.962 . S
H636 C622 0.960 . S
H637 C623 0.961 . S
H638 C623 0.961 . S
H639 C623 0.961 . S
H640 C624 0.931 . S
H641 C629 0.930 . S
H642 C630 0.956 . S
H643 C630 0.961 . S
H644 C630 0.961 . S
H645 C631 0.958 . S
H646 C631 0.961 . S
H647 C631 0.960 . S
C648 C649 1.391 . S
C648 C650 1.394 . S
C648 H664 0.931 . S
C649 C648 1.391 . S
C649 C653 1.376 . S
C650 C648 1.394 . S
C650 C651 1.369 . S
C650 C654 1.531 . S
C651 C650 1.369 . S
C651 C652 1.410 . S
C651 C659 1.503 . S
C652 C651 1.410 . S
C652 C653 1.392 . S
C652 C655 1.511 . S
C653 C649 1.376 . S
C653 C652 1.392 . S
C653 H665 0.929 . S
C654 C650 1.531 . S
C654 H666 0.960 . S
C654 H667 0.962 . S
C654 H668 0.960 . S
C655 C652 1.511 . S
C655 H669 0.961 . S
C655 H670 0.961 . S
C655 H671 0.961 . S
C656 C657 1.370 . S
C656 C658 1.363 . S
C656 H672 0.931 . S
C657 C656 1.370 . S
C657 C661 1.408 . S
C658 C656 1.363 . S
C658 C659 1.370 . S
C658 C662 1.524 . S
C659 C651 1.503 . S
C659 C658 1.370 . S
C659 C660 1.403 . S
C660 C659 1.403 . S
C660 C661 1.404 . S
C660 C663 1.539 . S
C661 C657 1.408 . S
C661 C660 1.404 . S
C661 H673 0.930 . S
C662 C658 1.524 . S
C662 H674 0.956 . S
C662 H675 0.961 . S
C662 H676 0.961 . S
C663 C660 1.539 . S
C663 H677 0.958 . S
C663 H678 0.961 . S
C663 H679 0.960 . S
H664 C648 0.931 . S
H665 C653 0.929 . S
H666 C654 0.960 . S
H667 C654 0.962 . S
H668 C654 0.960 . S
H669 C655 0.961 . S
H670 C655 0.961 . S
H671 C655 0.961 . S
H672 C656 0.931 . S
H673 C661 0.930 . S
H674 C662 0.956 . S
H675 C662 0.961 . S
H676 C662 0.961 . S
H677 C663 0.958 . S
H678 C663 0.961 . S
H679 C663 0.960 . S
C680 C681 1.391 . S
C680 C682 1.394 . S
C680 H696 0.931 . S
C681 C680 1.391 . S
C681 C685 1.376 . S
C682 C680 1.394 . S
C682 C683 1.369 . S
C682 C686 1.531 . S
C683 C682 1.369 . S
C683 C684 1.410 . S
C683 C691 1.503 . S
C684 C683 1.410 . S
C684 C685 1.392 . S
C684 C687 1.511 . S
C685 C681 1.376 . S
C685 C684 1.392 . S
C685 H697 0.929 . S
C686 C682 1.531 . S
C686 H698 0.960 . S
C686 H699 0.962 . S
C686 H700 0.960 . S
C687 C684 1.511 . S
C687 H701 0.961 . S
C687 H702 0.961 . S
C687 H703 0.961 . S
C688 C689 1.370 . S
C688 C690 1.363 . S
C688 H704 0.931 . S
C689 C688 1.370 . S
C689 C693 1.408 . S
C690 C688 1.363 . S
C690 C691 1.370 . S
C690 C694 1.524 . S
C691 C683 1.503 . S
C691 C690 1.370 . S
C691 C692 1.403 . S
C692 C691 1.403 . S
C692 C693 1.404 . S
C692 C695 1.539 . S
C693 C689 1.408 . S
C693 C692 1.404 . S
C693 H705 0.930 . S
C694 C690 1.524 . S
C694 H706 0.956 . S
C694 H707 0.961 . S
C694 H708 0.961 . S
C695 C692 1.539 . S
C695 H709 0.958 . S
C695 H710 0.961 . S
C695 H711 0.960 . S
H696 C680 0.931 . S
H697 C685 0.929 . S
H698 C686 0.960 . S
H699 C686 0.962 . S
H700 C686 0.960 . S
H701 C687 0.961 . S
H702 C687 0.961 . S
H703 C687 0.961 . S
H704 C688 0.931 . S
H705 C693 0.930 . S
H706 C694 0.956 . S
H707 C694 0.961 . S
H708 C694 0.961 . S
H709 C695 0.958 . S
H710 C695 0.961 . S
H711 C695 0.960 . S
C712 C713 1.391 . S
C712 C714 1.394 . S
C712 H728 0.931 . S
C713 C712 1.391 . S
C713 C717 1.376 . S
C714 C712 1.394 . S
C714 C715 1.369 . S
C714 C718 1.531 . S
C715 C714 1.369 . S
C715 C716 1.410 . S
C715 C723 1.503 . S
C716 C715 1.410 . S
C716 C717 1.392 . S
C716 C719 1.511 . S
C717 C713 1.376 . S
C717 C716 1.392 . S
C717 H729 0.929 . S
C718 C714 1.531 . S
C718 H730 0.960 . S
C718 H731 0.962 . S
C718 H732 0.960 . S
C719 C716 1.511 . S
C719 H733 0.961 . S
C719 H734 0.961 . S
C719 H735 0.961 . S
C720 C721 1.370 . S
C720 C722 1.363 . S
C720 H736 0.931 . S
C721 C720 1.370 . S
C721 C725 1.408 . S
C722 C720 1.363 . S
C722 C723 1.370 . S
C722 C726 1.524 . S
C723 C715 1.503 . S
C723 C722 1.370 . S
C723 C724 1.403 . S
C724 C723 1.403 . S
C724 C725 1.404 . S
C724 C727 1.539 . S
C725 C721 1.408 . S
C725 C724 1.404 . S
C725 H737 0.930 . S
C726 C722 1.524 . S
C726 H738 0.956 . S
C726 H739 0.961 . S
C726 H740 0.961 . S
C727 C724 1.539 . S
C727 H741 0.958 . S
C727 H742 0.961 . S
C727 H743 0.960 . S
H728 C712 0.931 . S
H729 C717 0.929 . S
H730 C718 0.960 . S
H731 C718 0.962 . S
H732 C718 0.960 . S
H733 C719 0.961 . S
H734 C719 0.961 . S
H735 C719 0.961 . S
H736 C720 0.931 . S
H737 C725 0.930 . S
H738 C726 0.956 . S
H739 C726 0.961 . S
H740 C726 0.961 . S
H741 C727 0.958 . S
H742 C727 0.961 . S
H743 C727 0.960 . S
C744 C745 1.391 . S
C744 C746 1.394 . S
C744 H760 0.931 . S
C745 C744 1.391 . S
C745 C749 1.376 . S
C746 C744 1.394 . S
C746 C747 1.369 . S
C746 C750 1.531 . S
C747 C746 1.369 . S
C747 C748 1.410 . S
C747 C755 1.503 . S
C748 C747 1.410 . S
C748 C749 1.392 . S
C748 C751 1.511 . S
C749 C745 1.376 . S
C749 C748 1.392 . S
C749 H761 0.929 . S
C750 C746 1.531 . S
C750 H762 0.960 . S
C750 H763 0.962 . S
C750 H764 0.960 . S
C751 C748 1.511 . S
C751 H765 0.961 . S
C751 H766 0.961 . S
C751 H767 0.961 . S
C752 C753 1.370 . S
C752 C754 1.363 . S
C752 H768 0.931 . S
C753 C752 1.370 . S
C753 C757 1.408 . S
C754 C752 1.363 . S
C754 C755 1.370 . S
C754 C758 1.524 . S
C755 C747 1.503 . S
C755 C754 1.370 . S
C755 C756 1.403 . S
C756 C755 1.403 . S
C756 C757 1.404 . S
C756 C759 1.539 . S
C757 C753 1.408 . S
C757 C756 1.404 . S
C757 H769 0.930 . S
C758 C754 1.524 . S
C758 H770 0.956 . S
C758 H771 0.961 . S
C758 H772 0.961 . S
C759 C756 1.539 . S
C759 H773 0.958 . S
C759 H774 0.961 . S
C759 H775 0.960 . S
H760 C744 0.931 . S
H761 C749 0.929 . S
H762 C750 0.960 . S
H763 C750 0.962 . S
H764 C750 0.960 . S
H765 C751 0.961 . S
H766 C751 0.961 . S
H767 C751 0.961 . S
H768 C752 0.931 . S
H769 C757 0.930 . S
H770 C758 0.956 . S
H771 C758 0.961 . S
H772 C758 0.961 . S
H773 C759 0.958 . S
H774 C759 0.961 . S
H775 C759 0.960 . S
C776 C777 1.391 . S
C776 C778 1.394 . S
C776 H792 0.931 . S
C777 C776 1.391 . S
C777 C781 1.376 . S
C778 C776 1.394 . S
C778 C779 1.369 . S
C778 C782 1.531 . S
C779 C778 1.369 . S
C779 C780 1.410 . S
C779 C787 1.503 . S
C780 C779 1.410 . S
C780 C781 1.392 . S
C780 C783 1.511 . S
C781 C777 1.376 . S
C781 C780 1.392 . S
C781 H793 0.929 . S
C782 C778 1.531 . S
C782 H794 0.960 . S
C782 H795 0.962 . S
C782 H796 0.960 . S
C783 C780 1.511 . S
C783 H797 0.961 . S
C783 H798 0.961 . S
C783 H799 0.961 . S
C784 C785 1.370 . S
C784 C786 1.363 . S
C784 H800 0.931 1_455 S
C785 C784 1.370 . S
C785 C789 1.408 . S
C786 C784 1.363 . S
C786 C787 1.370 . S
C786 C790 1.524 1_455 S
C787 C779 1.503 . S
C787 C786 1.370 . S
C787 C788 1.403 . S
C788 C787 1.403 . S
C788 C789 1.404 . S
C788 C791 1.539 . S
C789 C785 1.408 . S
C789 C788 1.404 . S
C789 H801 0.930 . S
C790 C786 1.524 1_655 S
C790 H802 0.956 1_655 S
C790 H803 0.961 . S
C790 H804 0.961 . S
C791 C788 1.539 . S
C791 H805 0.958 . S
C791 H806 0.961 . S
C791 H807 0.960 . S
H792 C776 0.931 . S
H793 C781 0.929 . S
H794 C782 0.960 . S
H795 C782 0.962 . S
H796 C782 0.960 . S
H797 C783 0.961 . S
H798 C783 0.961 . S
H799 C783 0.961 . S
H800 C784 0.931 1_655 S
H801 C789 0.930 . S
H802 C790 0.956 1_455 S
H803 C790 0.961 . S
H804 C790 0.961 . S
H805 C791 0.958 . S
H806 C791 0.961 . S
H807 C791 0.960 . S
C808 C809 1.391 . S
C808 C810 1.394 . S
C808 H824 0.931 . S
C809 C808 1.391 . S
C809 C813 1.376 . S
C810 C808 1.394 . S
C810 C811 1.369 . S
C810 C814 1.531 . S
C811 C810 1.369 . S
C811 C812 1.410 . S
C811 C819 1.503 . S
C812 C811 1.410 . S
C812 C813 1.392 . S
C812 C815 1.511 . S
C813 C809 1.376 . S
C813 C812 1.392 . S
C813 H825 0.929 . S
C814 C810 1.531 . S
C814 H826 0.960 . S
C814 H827 0.962 . S
C814 H828 0.960 . S
C815 C812 1.511 . S
C815 H829 0.961 . S
C815 H830 0.961 . S
C815 H831 0.961 . S
C816 C817 1.370 . S
C816 C818 1.363 . S
C816 H832 0.931 . S
C817 C816 1.370 . S
C817 C821 1.408 . S
C818 C816 1.363 . S
C818 C819 1.370 . S
C818 C822 1.524 . S
C819 C811 1.503 . S
C819 C818 1.370 . S
C819 C820 1.403 . S
C820 C819 1.403 . S
C820 C821 1.404 . S
C820 C823 1.539 . S
C821 C817 1.408 . S
C821 C820 1.404 . S
C821 H833 0.930 . S
C822 C818 1.524 . S
C822 H834 0.956 . S
C822 H835 0.961 . S
C822 H836 0.961 . S
C823 C820 1.539 . S
C823 H837 0.958 . S
C823 H838 0.961 . S
C823 H839 0.960 . S
H824 C808 0.931 . S
H825 C813 0.929 . S
H826 C814 0.960 . S
H827 C814 0.962 . S
H828 C814 0.960 . S
H829 C815 0.961 . S
H830 C815 0.961 . S
H831 C815 0.961 . S
H832 C816 0.931 . S
H833 C821 0.930 . S
H834 C822 0.956 . S
H835 C822 0.961 . S
H836 C822 0.961 . S
H837 C823 0.958 . S
H838 C823 0.961 . S
H839 C823 0.960 . S
C840 C841 1.391 1_455 S
C840 C842 1.394 . S
C840 H856 0.931 . S
C841 C840 1.391 1_655 S
C841 C845 1.376 . S
C842 C840 1.394 . S
C842 C843 1.369 1_455 S
C842 C846 1.531 . S
C843 C842 1.369 1_655 S
C843 C844 1.410 . S
C843 C851 1.503 . S
C844 C843 1.410 . S
C844 C845 1.392 . S
C844 C847 1.511 . S
C845 C841 1.376 . S
C845 C844 1.392 . S
C845 H857 0.929 . S
C846 C842 1.531 . S
C846 H858 0.960 . S
C846 H859 0.962 . S
C846 H860 0.960 . S
C847 C844 1.511 . S
C847 H861 0.961 . S
C847 H862 0.961 . S
C847 H863 0.961 . S
C848 C849 1.370 . S
C848 C850 1.363 . S
C848 H864 0.931 . S
C849 C848 1.370 . S
C849 C853 1.408 . S
C850 C848 1.363 . S
C850 C851 1.370 . S
C850 C854 1.524 . S
C851 C843 1.503 . S
C851 C850 1.370 . S
C851 C852 1.403 . S
C852 C851 1.403 . S
C852 C853 1.404 . S
C852 C855 1.539 . S
C853 C849 1.408 . S
C853 C852 1.404 . S
C853 H865 0.930 . S
C854 C850 1.524 . S
C854 H866 0.956 1_655 S
C854 H867 0.961 . S
C854 H868 0.961 . S
C855 C852 1.539 . S
C855 H869 0.958 . S
C855 H870 0.961 . S
C855 H871 0.960 . S
H856 C840 0.931 . S
H857 C845 0.929 . S
H858 C846 0.960 . S
H859 C846 0.962 . S
H860 C846 0.960 . S
H861 C847 0.961 . S
H862 C847 0.961 . S
H863 C847 0.961 . S
H864 C848 0.931 . S
H865 C853 0.930 . S
H866 C854 0.956 1_455 S
H867 C854 0.961 . S
H868 C854 0.961 . S
H869 C855 0.958 . S
H870 C855 0.961 . S
H871 C855 0.960 . S
C872 C873 1.391 . S
C872 C874 1.394 . S
C872 H888 0.931 . S
C873 C872 1.391 . S
C873 C877 1.376 . S
C874 C872 1.394 . S
C874 C875 1.369 . S
C874 C878 1.531 . S
C875 C874 1.369 . S
C875 C876 1.410 . S
C875 C883 1.503 . S
C876 C875 1.410 . S
C876 C877 1.392 . S
C876 C879 1.511 . S
C877 C873 1.376 . S
C877 C876 1.392 . S
C877 H889 0.929 . S
C878 C874 1.531 . S
C878 H890 0.960 . S
C878 H891 0.962 . S
C878 H892 0.960 . S
C879 C876 1.511 . S
C879 H893 0.961 . S
C879 H894 0.961 . S
C879 H895 0.961 . S
C880 C881 1.370 . S
C880 C882 1.363 . S
C880 H896 0.931 . S
C881 C880 1.370 . S
C881 C885 1.408 . S
C882 C880 1.363 . S
C882 C883 1.370 . S
C882 C886 1.524 . S
C883 C875 1.503 . S
C883 C882 1.370 . S
C883 C884 1.403 . S
C884 C883 1.403 . S
C884 C885 1.404 . S
C884 C887 1.539 . S
C885 C881 1.408 . S
C885 C884 1.404 . S
C885 H897 0.930 . S
C886 C882 1.524 . S
C886 H898 0.956 . S
C886 H899 0.961 . S
C886 H900 0.961 . S
C887 C884 1.539 . S
C887 H901 0.958 . S
C887 H902 0.961 . S
C887 H903 0.960 . S
H888 C872 0.931 . S
H889 C877 0.929 . S
H890 C878 0.960 . S
H891 C878 0.962 . S
H892 C878 0.960 . S
H893 C879 0.961 . S
H894 C879 0.961 . S
H895 C879 0.961 . S
H896 C880 0.931 . S
H897 C885 0.930 . S
H898 C886 0.956 . S
H899 C886 0.961 . S
H900 C886 0.961 . S
H901 C887 0.958 . S
H902 C887 0.961 . S
H903 C887 0.960 . S
C904 C905 1.391 . S
C904 C906 1.394 . S
C904 H920 0.931 . S
C905 C904 1.391 . S
C905 C909 1.376 . S
C906 C904 1.394 . S
C906 C907 1.369 . S
C906 C910 1.531 . S
C907 C906 1.369 . S
C907 C908 1.410 . S
C907 C915 1.503 . S
C908 C907 1.410 . S
C908 C909 1.392 . S
C908 C911 1.511 . S
C909 C905 1.376 . S
C909 C908 1.392 . S
C909 H921 0.929 . S
C910 C906 1.531 . S
C910 H922 0.960 . S
C910 H923 0.962 . S
C910 H924 0.960 . S
C911 C908 1.511 . S
C911 H925 0.961 . S
C911 H926 0.961 . S
C911 H927 0.961 . S
C912 C913 1.370 . S
C912 C914 1.363 . S
C912 H928 0.931 . S
C913 C912 1.370 . S
C913 C917 1.408 . S
C914 C912 1.363 . S
C914 C915 1.370 . S
C914 C918 1.524 . S
C915 C907 1.503 . S
C915 C914 1.370 . S
C915 C916 1.403 . S
C916 C915 1.403 . S
C916 C917 1.404 . S
C916 C919 1.539 . S
C917 C913 1.408 . S
C917 C916 1.404 . S
C917 H929 0.930 . S
C918 C914 1.524 . S
C918 H930 0.956 . S
C918 H931 0.961 . S
C918 H932 0.961 . S
C919 C916 1.539 . S
C919 H933 0.958 . S
C919 H934 0.961 . S
C919 H935 0.960 . S
H920 C904 0.931 . S
H921 C909 0.929 . S
H922 C910 0.960 . S
H923 C910 0.962 . S
H924 C910 0.960 . S
H925 C911 0.961 . S
H926 C911 0.961 . S
H927 C911 0.961 . S
H928 C912 0.931 . S
H929 C917 0.930 . S
H930 C918 0.956 . S
H931 C918 0.961 . S
H932 C918 0.961 . S
H933 C919 0.958 . S
H934 C919 0.961 . S
H935 C919 0.960 . S
C936 C937 1.391 1_554 S
C936 C938 1.394 . S
C936 H952 0.931 . S
C937 C936 1.391 1_556 S
C937 C941 1.376 . S
C938 C936 1.394 . S
C938 C939 1.369 1_554 S
C938 C942 1.531 . S
C939 C938 1.369 1_556 S
C939 C940 1.410 . S
C939 C947 1.503 . S
C940 C939 1.410 . S
C940 C941 1.392 . S
C940 C943 1.511 . S
C941 C937 1.376 . S
C941 C940 1.392 . S
C941 H953 0.935 . S
C942 C938 1.531 . S
C942 H954 0.960 . S
C942 H955 0.962 . S
C942 H956 0.960 . S
C943 C940 1.511 . S
C943 H957 0.961 . S
C943 H958 0.961 . S
C943 H959 0.961 . S
C944 C945 1.370 1_556 S
C944 C946 1.363 . S
C944 H960 0.931 . S
C945 C944 1.370 1_554 S
C945 C949 1.408 . S
C946 C944 1.363 . S
C946 C947 1.370 . S
C946 C950 1.524 . S
C947 C939 1.503 . S
C947 C946 1.370 . S
C947 C948 1.403 1_556 S
C948 C947 1.403 1_554 S
C948 C949 1.404 . S
C948 C951 1.539 . S
C949 C945 1.408 . S
C949 C948 1.404 . S
C949 H961 0.930 . S
C950 C946 1.524 . S
C950 H962 0.956 . S
C950 H963 0.961 . S
C950 H964 0.961 . S
C951 C948 1.539 . S
C951 H965 0.958 . S
C951 H966 0.961 . S
C951 H967 0.960 1_565 S
H952 C936 0.931 . S
H953 C941 0.935 . S
H954 C942 0.960 . S
H955 C942 0.962 . S
H956 C942 0.960 . S
H957 C943 0.961 . S
H958 C943 0.961 . S
H959 C943 0.961 . S
H960 C944 0.931 . S
H961 C949 0.930 . S
H962 C950 0.956 . S
H963 C950 0.961 . S
H964 C950 0.961 . S
H965 C951 0.958 . S
H966 C951 0.961 . S
H967 C951 0.960 1_545 S
C968 C969 1.391 . S
C968 C970 1.394 . S
C968 H984 0.931 . S
C969 C968 1.391 . S
C969 C973 1.376 . S
C970 C968 1.394 . S
C970 C971 1.369 . S
C970 C974 1.531 . S
C971 C970 1.369 . S
C971 C972 1.410 . S
C971 C979 1.503 . S
C972 C971 1.410 . S
C972 C973 1.392 . S
C972 C975 1.511 . S
C973 C969 1.376 . S
C973 C972 1.392 . S
C973 H985 0.929 . S
C974 C970 1.531 . S
C974 H986 0.960 . S
C974 H987 0.962 . S
C974 H988 0.960 . S
C975 C972 1.511 . S
C975 H989 0.961 . S
C975 H990 0.961 . S
C975 H991 0.961 . S
C976 C977 1.370 . S
C976 C978 1.363 . S
C976 H992 0.931 . S
C977 C976 1.370 . S
C977 C981 1.408 . S
C978 C976 1.363 . S
C978 C979 1.370 . S
C978 C982 1.524 . S
C979 C971 1.503 . S
C979 C978 1.370 . S
C979 C980 1.403 . S
C980 C979 1.403 . S
C980 C981 1.404 . S
C980 C983 1.539 . S
C981 C977 1.408 . S
C981 C980 1.404 . S
C981 H993 0.930 . S
C982 C978 1.524 . S
C982 H994 0.956 . S
C982 H995 0.961 . S
C982 H996 0.961 . S
C983 C980 1.539 . S
C983 H997 0.958 . S
C983 H998 0.961 . S
C983 H999 0.960 . S
H984 C968 0.931 . S
H985 C973 0.929 . S
H986 C974 0.960 . S
H987 C974 0.962 . S
H988 C974 0.960 . S
H989 C975 0.961 . S
H990 C975 0.961 . S
H991 C975 0.961 . S
H992 C976 0.931 . S
H993 C981 0.930 . S
H994 C982 0.956 . S
H995 C982 0.961 . S
H996 C982 0.961 . S
H997 C983 0.958 . S
H998 C983 0.961 . S
H999 C983 0.960 . S
C1000 C1001 1.391 . S
C1000 C1002 1.394 . S
C1000 H1016 0.931 . S
C1001 C1000 1.391 . S
C1001 C1005 1.376 . S
C1002 C1000 1.394 . S
C1002 C1003 1.369 . S
C1002 C1006 1.531 . S
C1003 C1002 1.369 . S
C1003 C1004 1.410 . S
C1003 C1011 1.503 . S
C1004 C1003 1.410 . S
C1004 C1005 1.392 . S
C1004 C1007 1.511 . S
C1005 C1001 1.376 . S
C1005 C1004 1.392 . S
C1005 H1017 0.929 . S
C1006 C1002 1.531 . S
C1006 H1018 0.960 . S
C1006 H1019 0.962 . S
C1006 H1020 0.960 . S
C1007 C1004 1.511 . S
C1007 H1021 0.961 . S
C1007 H1022 0.961 . S
C1007 H1023 0.961 . S
C1008 C1009 1.370 . S
C1008 C1010 1.363 . S
C1008 H1024 0.931 . S
C1009 C1008 1.370 . S
C1009 C1013 1.408 . S
C1010 C1008 1.363 . S
C1010 C1011 1.370 . S
C1010 C1014 1.524 . S
C1011 C1003 1.503 . S
C1011 C1010 1.370 . S
C1011 C1012 1.403 . S
C1012 C1011 1.403 . S
C1012 C1013 1.404 . S
C1012 C1015 1.539 . S
C1013 C1009 1.408 . S
C1013 C1012 1.404 . S
C1013 H1025 0.930 . S
C1014 C1010 1.524 . S
C1014 H1026 0.956 . S
C1014 H1027 0.961 . S
C1014 H1028 0.961 . S
C1015 C1012 1.539 . S
C1015 H1029 0.958 . S
C1015 H1030 0.961 . S
C1015 H1031 0.960 . S
H1016 C1000 0.931 . S
H1017 C1005 0.929 . S
H1018 C1006 0.960 . S
H1019 C1006 0.962 . S
H1020 C1006 0.960 . S
H1021 C1007 0.961 . S
H1022 C1007 0.961 . S
H1023 C1007 0.961 . S
H1024 C1008 0.931 . S
H1025 C1013 0.930 . S
H1026 C1014 0.956 . S
H1027 C1014 0.961 . S
H1028 C1014 0.961 . S
H1029 C1015 0.958 . S
H1030 C1015 0.961 . S
H1031 C1015 0.960 . S
C1032 C1033 1.391 . S
C1032 C1034 1.394 . S
C1032 H1048 0.931 . S
C1033 C1032 1.391 . S
C1033 C1037 1.376 . S
C1034 C1032 1.394 . S
C1034 C1035 1.369 . S
C1034 C1038 1.531 . S
C1035 C1034 1.369 . S
C1035 C1036 1.410 . S
C1035 C1043 1.503 . S
C1036 C1035 1.410 . S
C1036 C1037 1.392 . S
C1036 C1039 1.511 . S
C1037 C1033 1.376 . S
C1037 C1036 1.392 . S
C1037 H1049 0.929 . S
C1038 C1034 1.531 . S
C1038 H1050 0.960 . S
C1038 H1051 0.962 . S
C1038 H1052 0.960 . S
C1039 C1036 1.511 . S
C1039 H1053 0.961 . S
C1039 H1054 0.961 . S
C1039 H1055 0.961 . S
C1040 C1041 1.370 . S
C1040 C1042 1.363 . S
C1040 H1056 0.931 . S
C1041 C1040 1.370 . S
C1041 C1045 1.408 . S
C1042 C1040 1.363 . S
C1042 C1043 1.370 . S
C1042 C1046 1.524 . S
C1043 C1035 1.503 . S
C1043 C1042 1.370 . S
C1043 C1044 1.403 . S
C1044 C1043 1.403 . S
C1044 C1045 1.404 . S
C1044 C1047 1.539 . S
C1045 C1041 1.408 . S
C1045 C1044 1.404 . S
C1045 H1057 0.930 . S
C1046 C1042 1.524 . S
C1046 H1058 0.956 . S
C1046 H1059 0.961 . S
C1046 H1060 0.961 . S
C1047 C1044 1.539 . S
C1047 H1061 0.958 . S
C1047 H1062 0.961 . S
C1047 H1063 0.960 . S
H1048 C1032 0.931 . S
H1049 C1037 0.929 . S
H1050 C1038 0.960 . S
H1051 C1038 0.962 . S
H1052 C1038 0.960 . S
H1053 C1039 0.961 . S
H1054 C1039 0.961 . S
H1055 C1039 0.961 . S
H1056 C1040 0.931 . S
H1057 C1045 0.930 . S
H1058 C1046 0.956 . S
H1059 C1046 0.961 . S
H1060 C1046 0.961 . S
H1061 C1047 0.958 . S
H1062 C1047 0.961 . S
H1063 C1047 0.960 . S
C1064 C1065 1.391 . S
C1064 C1066 1.394 . S
C1064 H1080 0.931 . S
C1065 C1064 1.391 . S
C1065 C1069 1.376 . S
C1066 C1064 1.394 . S
C1066 C1067 1.369 . S
C1066 C1070 1.531 . S
C1067 C1066 1.369 . S
C1067 C1068 1.410 . S
C1067 C1075 1.503 . S
C1068 C1067 1.410 . S
C1068 C1069 1.392 . S
C1068 C1071 1.511 . S
C1069 C1065 1.376 . S
C1069 C1068 1.392 . S
C1069 H1081 0.929 . S
C1070 C1066 1.531 . S
C1070 H1082 0.960 . S
C1070 H1083 0.962 . S
C1070 H1084 0.960 . S
C1071 C1068 1.511 . S
C1071 H1085 0.961 . S
C1071 H1086 0.961 . S
C1071 H1087 0.961 . S
C1072 C1073 1.370 . S
C1072 C1074 1.363 . S
C1072 H1088 0.931 . S
C1073 C1072 1.370 . S
C1073 C1077 1.408 . S
C1074 C1072 1.363 . S
C1074 C1075 1.370 . S
C1074 C1078 1.524 . S
C1075 C1067 1.503 . S
C1075 C1074 1.370 . S
C1075 C1076 1.403 . S
C1076 C1075 1.403 . S
C1076 C1077 1.404 . S
C1076 C1079 1.539 . S
C1077 C1073 1.408 . S
C1077 C1076 1.404 . S
C1077 H1089 0.930 . S
C1078 C1074 1.524 . S
C1078 H1090 0.956 . S
C1078 H1091 0.961 . S
C1078 H1092 0.961 . S
C1079 C1076 1.539 . S
C1079 H1093 0.958 . S
C1079 H1094 0.961 . S
C1079 H1095 0.960 . S
H1080 C1064 0.931 . S
H1081 C1069 0.929 . S
H1082 C1070 0.960 . S
H1083 C1070 0.962 . S
H1084 C1070 0.960 . S
H1085 C1071 0.961 . S
H1086 C1071 0.961 . S
H1087 C1071 0.961 . S
H1088 C1072 0.931 . S
H1089 C1077 0.930 . S
H1090 C1078 0.956 . S
H1091 C1078 0.961 . S
H1092 C1078 0.961 . S
H1093 C1079 0.958 . S
H1094 C1079 0.961 . S
H1095 C1079 0.960 . S
C1096 C1097 1.391 . S
C1096 C1098 1.394 . S
C1096 H1112 0.931 . S
C1097 C1096 1.391 . S
C1097 C1101 1.376 . S
C1098 C1096 1.394 . S
C1098 C1099 1.369 . S
C1098 C1102 1.531 . S
C1099 C1098 1.369 . S
C1099 C1100 1.410 . S
C1099 C1107 1.503 . S
C1100 C1099 1.410 . S
C1100 C1101 1.392 . S
C1100 C1103 1.511 . S
C1101 C1097 1.376 . S
C1101 C1100 1.392 . S
C1101 H1113 0.929 . S
C1102 C1098 1.531 . S
C1102 H1114 0.960 . S
C1102 H1115 0.962 . S
C1102 H1116 0.960 . S
C1103 C1100 1.511 . S
C1103 H1117 0.961 . S
C1103 H1118 0.961 . S
C1103 H1119 0.961 . S
C1104 C1105 1.370 . S
C1104 C1106 1.363 . S
C1104 H1120 0.931 . S
C1105 C1104 1.370 . S
C1105 C1109 1.408 . S
C1106 C1104 1.363 . S
C1106 C1107 1.370 . S
C1106 C1110 1.524 . S
C1107 C1099 1.503 . S
C1107 C1106 1.370 . S
C1107 C1108 1.403 . S
C1108 C1107 1.403 . S
C1108 C1109 1.404 . S
C1108 C1111 1.539 . S
C1109 C1105 1.408 . S
C1109 C1108 1.404 . S
C1109 H1121 0.930 . S
C1110 C1106 1.524 . S
C1110 H1122 0.956 . S
C1110 H1123 0.961 . S
C1110 H1124 0.961 . S
C1111 C1108 1.539 . S
C1111 H1125 0.958 . S
C1111 H1126 0.961 . S
C1111 H1127 0.960 . S
H1112 C1096 0.931 . S
H1113 C1101 0.929 . S
H1114 C1102 0.960 . S
H1115 C1102 0.962 . S
H1116 C1102 0.960 . S
H1117 C1103 0.961 . S
H1118 C1103 0.961 . S
H1119 C1103 0.961 . S
H1120 C1104 0.931 . S
H1121 C1109 0.930 . S
H1122 C1110 0.956 . S
H1123 C1110 0.961 . S
H1124 C1110 0.961 . S
H1125 C1111 0.958 . S
H1126 C1111 0.961 . S
H1127 C1111 0.960 . S
C1128 C1129 1.391 . S
C1128 C1130 1.394 . S
C1128 H1144 0.931 . S
C1129 C1128 1.391 . S
C1129 C1133 1.376 . S
C1130 C1128 1.394 . S
C1130 C1131 1.369 . S
C1130 C1134 1.531 . S
C1131 C1130 1.369 . S
C1131 C1132 1.410 . S
C1131 C1139 1.503 . S
C1132 C1131 1.410 . S
C1132 C1133 1.392 . S
C1132 C1135 1.511 . S
C1133 C1129 1.376 . S
C1133 C1132 1.392 . S
C1133 H1145 0.929 . S
C1134 C1130 1.531 . S
C1134 H1146 0.960 . S
C1134 H1147 0.962 . S
C1134 H1148 0.960 . S
C1135 C1132 1.511 . S
C1135 H1149 0.961 . S
C1135 H1150 0.961 . S
C1135 H1151 0.961 . S
C1136 C1137 1.370 . S
C1136 C1138 1.363 . S
C1136 H1152 0.931 . S
C1137 C1136 1.370 . S
C1137 C1141 1.408 . S
C1138 C1136 1.363 . S
C1138 C1139 1.370 . S
C1138 C1142 1.524 . S
C1139 C1131 1.503 . S
C1139 C1138 1.370 . S
C1139 C1140 1.403 . S
C1140 C1139 1.403 . S
C1140 C1141 1.404 . S
C1140 C1143 1.539 . S
C1141 C1137 1.408 . S
C1141 C1140 1.404 . S
C1141 H1153 0.930 . S
C1142 C1138 1.524 . S
C1142 H1154 0.956 . S
C1142 H1155 0.961 . S
C1142 H1156 0.961 . S
C1143 C1140 1.539 . S
C1143 H1157 0.958 . S
C1143 H1158 0.961 . S
C1143 H1159 0.960 . S
H1144 C1128 0.931 . S
H1145 C1133 0.929 . S
H1146 C1134 0.960 . S
H1147 C1134 0.962 . S
H1148 C1134 0.960 . S
H1149 C1135 0.961 . S
H1150 C1135 0.961 . S
H1151 C1135 0.961 . S
H1152 C1136 0.931 . S
H1153 C1141 0.930 . S
H1154 C1142 0.956 . S
H1155 C1142 0.961 . S
H1156 C1142 0.961 . S
H1157 C1143 0.958 . S
H1158 C1143 0.961 . S
H1159 C1143 0.960 . S
C1160 C1161 1.391 . S
C1160 C1162 1.391 1_545 S
C1160 H1176 0.931 1_545 S
C1161 C1160 1.391 . S
C1161 C1165 1.376 . S
C1162 C1160 1.391 1_565 S
C1162 C1163 1.358 1_565 S
C1162 C1166 1.545 . S
C1163 C1162 1.358 1_545 S
C1163 C1164 1.410 . S
C1163 C1171 1.503 . S
C1164 C1163 1.410 . S
C1164 C1165 1.392 . S
C1164 C1167 1.511 . S
C1165 C1161 1.376 . S
C1165 C1164 1.392 . S
C1165 H1177 0.929 . S
C1166 C1162 1.545 . S
C1166 H1178 0.960 . S
C1166 H1179 0.962 1_565 S
C1166 H1180 0.960 . S
C1167 C1164 1.511 . S
C1167 H1181 0.961 . S
C1167 H1182 0.961 . S
C1167 H1183 0.961 . S
C1168 C1169 1.370 . S
C1168 C1170 1.363 . S
C1168 H1184 0.931 . S
C1169 C1168 1.370 . S
C1169 C1173 1.408 1_545 S
C1170 C1168 1.363 . S
C1170 C1171 1.370 . S
C1170 C1174 1.524 . S
C1171 C1163 1.503 . S
C1171 C1170 1.370 . S
C1171 C1172 1.403 1_545 S
C1172 C1171 1.403 1_565 S
C1172 C1173 1.404 . S
C1172 C1175 1.539 . S
C1173 C1169 1.408 1_565 S
C1173 C1172 1.404 . S
C1173 H1185 0.930 . S
C1174 C1170 1.524 . S
C1174 H1186 0.956 . S
C1174 H1187 0.961 . S
C1174 H1188 0.961 . S
C1175 C1172 1.539 . S
C1175 H1189 0.958 . S
C1175 H1190 0.961 . S
C1175 H1191 0.960 . S
H1176 C1160 0.931 1_565 S
H1177 C1165 0.929 . S
H1178 C1166 0.960 . S
H1179 C1166 0.962 1_545 S
H1180 C1166 0.960 . S
H1181 C1167 0.961 . S
H1182 C1167 0.961 . S
H1183 C1167 0.961 . S
H1184 C1168 0.931 . S
H1185 C1173 0.930 . S
H1186 C1174 0.956 . S
H1187 C1174 0.961 . S
H1188 C1174 0.961 . S
H1189 C1175 0.958 . S
H1190 C1175 0.961 . S
H1191 C1175 0.960 . S
C1192 C1193 1.391 . S
C1192 C1194 1.394 . S
C1192 H1208 0.931 . S
C1193 C1192 1.391 . S
C1193 C1197 1.376 . S
C1194 C1192 1.394 . S
C1194 C1195 1.369 . S
C1194 C1198 1.531 . S
C1195 C1194 1.369 . S
C1195 C1196 1.410 . S
C1195 C1203 1.503 . S
C1196 C1195 1.410 . S
C1196 C1197 1.392 . S
C1196 C1199 1.511 . S
C1197 C1193 1.376 . S
C1197 C1196 1.392 . S
C1197 H1209 0.929 . S
C1198 C1194 1.531 . S
C1198 H1210 0.960 . S
C1198 H1211 0.962 . S
C1198 H1212 0.960 . S
C1199 C1196 1.511 . S
C1199 H1213 0.961 . S
C1199 H1214 0.961 . S
C1199 H1215 0.961 . S
C1200 C1201 1.370 . S
C1200 C1202 1.363 . S
C1200 H1216 0.931 . S
C1201 C1200 1.370 . S
C1201 C1205 1.408 . S
C1202 C1200 1.363 . S
C1202 C1203 1.370 . S
C1202 C1206 1.524 . S
C1203 C1195 1.503 . S
C1203 C1202 1.370 . S
C1203 C1204 1.403 . S
C1204 C1203 1.403 . S
C1204 C1205 1.404 . S
C1204 C1207 1.539 . S
C1205 C1201 1.408 . S
C1205 C1204 1.404 . S
C1205 H1217 0.930 . S
C1206 C1202 1.524 . S
C1206 H1218 0.956 . S
C1206 H1219 0.961 . S
C1206 H1220 0.961 . S
C1207 C1204 1.539 . S
C1207 H1221 0.958 . S
C1207 H1222 0.961 . S
C1207 H1223 0.960 . S
H1208 C1192 0.931 . S
H1209 C1197 0.929 . S
H1210 C1198 0.960 . S
H1211 C1198 0.962 . S
H1212 C1198 0.960 . S
H1213 C1199 0.961 . S
H1214 C1199 0.961 . S
H1215 C1199 0.961 . S
H1216 C1200 0.931 . S
H1217 C1205 0.930 . S
H1218 C1206 0.956 . S
H1219 C1206 0.961 . S
H1220 C1206 0.961 . S
H1221 C1207 0.958 . S
H1222 C1207 0.961 . S
H1223 C1207 0.960 . S
C1224 C1225 1.391 . S
C1224 C1226 1.394 . S
C1224 H1240 0.931 . S
C1225 C1224 1.391 . S
C1225 C1229 1.376 . S
C1226 C1224 1.394 . S
C1226 C1227 1.369 . S
C1226 C1230 1.531 . S
C1227 C1226 1.369 . S
C1227 C1228 1.410 . S
C1227 C1235 1.503 . S
C1228 C1227 1.410 . S
C1228 C1229 1.392 . S
C1228 C1231 1.511 . S
C1229 C1225 1.376 . S
C1229 C1228 1.392 . S
C1229 H1241 0.929 . S
C1230 C1226 1.531 . S
C1230 H1242 0.960 . S
C1230 H1243 0.962 . S
C1230 H1244 0.960 . S
C1231 C1228 1.511 . S
C1231 H1245 0.961 . S
C1231 H1246 0.961 . S
C1231 H1247 0.961 . S
C1232 C1233 1.370 . S
C1232 C1234 1.363 . S
C1232 H1248 0.931 . S
C1233 C1232 1.370 . S
C1233 C1237 1.408 . S
C1234 C1232 1.363 . S
C1234 C1235 1.370 . S
C1234 C1238 1.524 . S
C1235 C1227 1.503 . S
C1235 C1234 1.370 . S
C1235 C1236 1.403 . S
C1236 C1235 1.403 . S
C1236 C1237 1.404 . S
C1236 C1239 1.539 . S
C1237 C1233 1.408 . S
C1237 C1236 1.404 . S
C1237 H1249 0.930 . S
C1238 C1234 1.524 . S
C1238 H1250 0.956 . S
C1238 H1251 0.961 . S
C1238 H1252 0.961 . S
C1239 C1236 1.539 . S
C1239 H1253 0.958 . S
C1239 H1254 0.961 . S
C1239 H1255 0.960 . S
H1240 C1224 0.931 . S
H1241 C1229 0.929 . S
H1242 C1230 0.960 . S
H1243 C1230 0.962 . S
H1244 C1230 0.960 . S
H1245 C1231 0.961 . S
H1246 C1231 0.961 . S
H1247 C1231 0.961 . S
H1248 C1232 0.931 . S
H1249 C1237 0.930 . S
H1250 C1238 0.956 . S
H1251 C1238 0.961 . S
H1252 C1238 0.961 . S
H1253 C1239 0.958 . S
H1254 C1239 0.961 . S
H1255 C1239 0.960 . S
C1256 C1257 1.391 . S
C1256 C1258 1.394 . S
C1256 H1272 0.931 . S
C1257 C1256 1.391 . S
C1257 C1261 1.376 . S
C1258 C1256 1.394 . S
C1258 C1259 1.369 . S
C1258 C1262 1.531 . S
C1259 C1258 1.369 . S
C1259 C1260 1.410 . S
C1259 C1267 1.503 . S
C1260 C1259 1.410 . S
C1260 C1261 1.392 . S
C1260 C1263 1.511 . S
C1261 C1257 1.376 . S
C1261 C1260 1.392 . S
C1261 H1273 0.929 . S
C1262 C1258 1.531 . S
C1262 H1274 0.960 . S
C1262 H1275 0.962 . S
C1262 H1276 0.960 . S
C1263 C1260 1.511 . S
C1263 H1277 0.961 . S
C1263 H1278 0.961 . S
C1263 H1279 0.961 . S
C1264 C1265 1.370 . S
C1264 C1266 1.363 . S
C1264 H1280 0.931 . S
C1265 C1264 1.370 . S
C1265 C1269 1.408 . S
C1266 C1264 1.363 . S
C1266 C1267 1.370 . S
C1266 C1270 1.524 . S
C1267 C1259 1.503 . S
C1267 C1266 1.370 . S
C1267 C1268 1.403 . S
C1268 C1267 1.403 . S
C1268 C1269 1.404 . S
C1268 C1271 1.539 . S
C1269 C1265 1.408 . S
C1269 C1268 1.404 . S
C1269 H1281 0.930 . S
C1270 C1266 1.524 . S
C1270 H1282 0.956 . S
C1270 H1283 0.961 . S
C1270 H1284 0.961 . S
C1271 C1268 1.539 . S
C1271 H1285 0.958 . S
C1271 H1286 0.961 . S
C1271 H1287 0.960 . S
H1272 C1256 0.931 . S
H1273 C1261 0.929 . S
H1274 C1262 0.960 . S
H1275 C1262 0.962 . S
H1276 C1262 0.960 . S
H1277 C1263 0.961 . S
H1278 C1263 0.961 . S
H1279 C1263 0.961 . S
H1280 C1264 0.931 . S
H1281 C1269 0.930 . S
H1282 C1270 0.956 . S
H1283 C1270 0.961 . S
H1284 C1270 0.961 . S
H1285 C1271 0.958 . S
H1286 C1271 0.961 . S
H1287 C1271 0.960 . S
C1288 C1289 1.391 . S
C1288 C1290 1.394 . S
C1288 H1304 0.931 . S
C1289 C1288 1.391 . S
C1289 C1293 1.376 1_455 S
C1290 C1288 1.394 . S
C1290 C1291 1.369 1_455 S
C1290 C1294 1.531 . S
C1291 C1290 1.369 1_655 S
C1291 C1292 1.410 . S
C1291 C1299 1.503 . S
C1292 C1291 1.410 . S
C1292 C1293 1.392 . S
C1292 C1295 1.511 . S
C1293 C1289 1.376 1_655 S
C1293 C1292 1.392 . S
C1293 H1305 0.929 . S
C1294 C1290 1.531 . S
C1294 H1306 0.960 . S
C1294 H1307 0.962 . S
C1294 H1308 0.960 . S
C1295 C1292 1.511 . S
C1295 H1309 0.961 1_545 S
C1295 H1310 0.961 . S
C1295 H1311 0.961 . S
C1296 C1297 1.370 . S
C1296 C1298 1.363 . S
C1296 H1312 0.931 . S
C1297 C1296 1.370 . S
C1297 C1301 1.408 . S
C1298 C1296 1.363 . S
C1298 C1299 1.370 . S
C1298 C1302 1.524 1_655 S
C1299 C1291 1.503 . S
C1299 C1298 1.370 . S
C1299 C1300 1.403 . S
C1300 C1299 1.403 . S
C1300 C1301 1.404 . S
C1300 C1303 1.539 . S
C1301 C1297 1.408 . S
C1301 C1300 1.404 . S
C1301 H1313 0.930 . S
C1302 C1298 1.524 1_455 S
C1302 H1314 0.956 . S
C1302 H1315 0.961 1_545 S
C1302 H1316 0.961 1_545 S
C1303 C1300 1.539 . S
C1303 H1317 0.958 . S
C1303 H1318 0.961 . S
C1303 H1319 0.960 . S
H1304 C1288 0.931 . S
H1305 C1293 0.929 . S
H1306 C1294 0.960 . S
H1307 C1294 0.962 . S
H1308 C1294 0.960 . S
H1309 C1295 0.961 1_565 S
H1310 C1295 0.961 . S
H1311 C1295 0.961 . S
H1312 C1296 0.931 . S
H1313 C1301 0.930 . S
H1314 C1302 0.956 . S
H1315 C1302 0.961 1_565 S
H1316 C1302 0.961 1_565 S
H1317 C1303 0.958 . S
H1318 C1303 0.961 . S
H1319 C1303 0.960 . S
C1320 C1321 1.391 . S
C1320 C1322 1.394 . S
C1320 H1336 0.931 . S
C1321 C1320 1.391 . S
C1321 C1325 1.376 . S
C1322 C1320 1.394 . S
C1322 C1323 1.369 . S
C1322 C1326 1.531 . S
C1323 C1322 1.369 . S
C1323 C1324 1.410 . S
C1323 C1331 1.503 . S
C1324 C1323 1.410 . S
C1324 C1325 1.392 . S
C1324 C1327 1.511 . S
C1325 C1321 1.376 . S
C1325 C1324 1.392 . S
C1325 H1337 0.929 . S
C1326 C1322 1.531 . S
C1326 H1338 0.960 . S
C1326 H1339 0.962 . S
C1326 H1340 0.960 . S
C1327 C1324 1.511 . S
C1327 H1341 0.961 . S
C1327 H1342 0.961 . S
C1327 H1343 0.961 . S
C1328 C1329 1.370 . S
C1328 C1330 1.363 . S
C1328 H1344 0.931 . S
C1329 C1328 1.370 . S
C1329 C1333 1.408 . S
C1330 C1328 1.363 . S
C1330 C1331 1.370 . S
C1330 C1334 1.524 . S
C1331 C1323 1.503 . S
C1331 C1330 1.370 . S
C1331 C1332 1.403 . S
C1332 C1331 1.403 . S
C1332 C1333 1.404 . S
C1332 C1335 1.539 . S
C1333 C1329 1.408 . S
C1333 C1332 1.404 . S
C1333 H1345 0.930 . S
C1334 C1330 1.524 . S
C1334 H1346 0.956 . S
C1334 H1347 0.961 . S
C1334 H1348 0.961 . S
C1335 C1332 1.539 . S
C1335 H1349 0.958 . S
C1335 H1350 0.961 . S
C1335 H1351 0.960 . S
H1336 C1320 0.931 . S
H1337 C1325 0.929 . S
H1338 C1326 0.960 . S
H1339 C1326 0.962 . S
H1340 C1326 0.960 . S
H1341 C1327 0.961 . S
H1342 C1327 0.961 . S
H1343 C1327 0.961 . S
H1344 C1328 0.931 . S
H1345 C1333 0.930 . S
H1346 C1334 0.956 . S
H1347 C1334 0.961 . S
H1348 C1334 0.961 . S
H1349 C1335 0.958 . S
H1350 C1335 0.961 . S
H1351 C1335 0.960 . S
C1352 C1353 1.391 . S
C1352 C1354 1.394 . S
C1352 H1368 0.931 . S
C1353 C1352 1.391 . S
C1353 C1357 1.376 . S
C1354 C1352 1.394 . S
C1354 C1355 1.369 . S
C1354 C1358 1.531 . S
C1355 C1354 1.369 . S
C1355 C1356 1.410 . S
C1355 C1363 1.503 . S
C1356 C1355 1.410 . S
C1356 C1357 1.392 . S
C1356 C1359 1.511 . S
C1357 C1353 1.376 . S
C1357 C1356 1.392 . S
C1357 H1369 0.929 1_455 S
C1358 C1354 1.531 . S
C1358 H1370 0.960 . S
C1358 H1371 0.962 . S
C1358 H1372 0.960 . S
C1359 C1356 1.511 . S
C1359 H1373 0.961 1_455 S
C1359 H1374 0.961 . S
C1359 H1375 0.961 . S
C1360 C1361 1.370 . S
C1360 C1362 1.363 . S
C1360 H1376 0.931 . S
C1361 C1360 1.370 . S
C1361 C1365 1.408 . S
C1362 C1360 1.363 . S
C1362 C1363 1.370 . S
C1362 C1366 1.524 . S
C1363 C1355 1.503 . S
C1363 C1362 1.370 . S
C1363 C1364 1.403 . S
C1364 C1363 1.403 . S
C1364 C1365 1.404 . S
C1364 C1367 1.539 . S
C1365 C1361 1.408 . S
C1365 C1364 1.404 . S
C1365 H1377 0.930 . S
C1366 C1362 1.524 . S
C1366 H1378 0.956 . S
C1366 H1379 0.961 . S
C1366 H1380 0.961 . S
C1367 C1364 1.539 . S
C1367 H1381 0.958 . S
C1367 H1382 0.961 . S
C1367 H1383 0.960 . S
H1368 C1352 0.931 . S
H1369 C1357 0.929 1_655 S
H1370 C1358 0.960 . S
H1371 C1358 0.962 . S
H1372 C1358 0.960 . S
H1373 C1359 0.961 1_655 S
H1374 C1359 0.961 . S
H1375 C1359 0.961 . S
H1376 C1360 0.931 . S
H1377 C1365 0.930 . S
H1378 C1366 0.956 . S
H1379 C1366 0.961 . S
H1380 C1366 0.961 . S
H1381 C1367 0.958 . S
H1382 C1367 0.961 . S
H1383 C1367 0.960 . S
C1384 C1385 1.391 . S
C1384 C1386 1.394 . S
C1384 H1400 0.931 . S
C1385 C1384 1.391 . S
C1385 C1389 1.376 . S
C1386 C1384 1.394 . S
C1386 C1387 1.369 . S
C1386 C1390 1.531 . S
C1387 C1386 1.369 . S
C1387 C1388 1.410 . S
C1387 C1395 1.503 . S
C1388 C1387 1.410 . S
C1388 C1389 1.392 . S
C1388 C1391 1.511 . S
C1389 C1385 1.376 . S
C1389 C1388 1.392 . S
C1389 H1401 0.929 . S
C1390 C1386 1.531 . S
C1390 H1402 0.960 . S
C1390 H1403 0.962 . S
C1390 H1404 0.960 . S
C1391 C1388 1.511 . S
C1391 H1405 0.961 . S
C1391 H1406 0.961 . S
C1391 H1407 0.961 . S
C1392 C1393 1.370 . S
C1392 C1394 1.363 . S
C1392 H1408 0.931 . S
C1393 C1392 1.370 . S
C1393 C1397 1.408 . S
C1394 C1392 1.363 . S
C1394 C1395 1.370 . S
C1394 C1398 1.524 . S
C1395 C1387 1.503 . S
C1395 C1394 1.370 . S
C1395 C1396 1.403 . S
C1396 C1395 1.403 . S
C1396 C1397 1.404 . S
C1396 C1399 1.539 . S
C1397 C1393 1.408 . S
C1397 C1396 1.404 . S
C1397 H1409 0.930 . S
C1398 C1394 1.524 . S
C1398 H1410 0.956 . S
C1398 H1411 0.961 . S
C1398 H1412 0.961 . S
C1399 C1396 1.539 . S
C1399 H1413 0.958 . S
C1399 H1414 0.961 . S
C1399 H1415 0.960 . S
H1400 C1384 0.931 . S
H1401 C1389 0.929 . S
H1402 C1390 0.960 . S
H1403 C1390 0.962 . S
H1404 C1390 0.960 . S
H1405 C1391 0.961 . S
H1406 C1391 0.961 . S
H1407 C1391 0.961 . S
H1408 C1392 0.931 . S
H1409 C1397 0.930 . S
H1410 C1398 0.956 . S
H1411 C1398 0.961 . S
H1412 C1398 0.961 . S
H1413 C1399 0.958 . S
H1414 C1399 0.961 . S
H1415 C1399 0.960 . S
C1416 C1417 1.391 1_455 S
C1416 C1418 1.394 . S
C1416 H1432 0.931 . S
C1417 C1416 1.391 1_655 S
C1417 C1421 1.376 . S
C1418 C1416 1.394 . S
C1418 C1419 1.369 . S
C1418 C1422 1.531 . S
C1419 C1418 1.369 . S
C1419 C1420 1.410 1_455 S
C1419 C1427 1.503 . S
C1420 C1419 1.410 1_655 S
C1420 C1421 1.392 . S
C1420 C1423 1.511 . S
C1421 C1417 1.376 . S
C1421 C1420 1.392 . S
C1421 H1433 0.929 1_556 S
C1422 C1418 1.531 . S
C1422 H1434 0.960 . S
C1422 H1435 0.962 . S
C1422 H1436 0.960 . S
C1423 C1420 1.511 . S
C1423 H1437 0.961 . S
C1423 H1438 0.961 . S
C1423 H1439 0.961 . S
C1424 C1425 1.370 1_655 S
C1424 C1426 1.363 . S
C1424 H1440 0.931 . S
C1425 C1424 1.370 1_455 S
C1425 C1429 1.408 . S
C1426 C1424 1.363 . S
C1426 C1427 1.370 1_655 S
C1426 C1430 1.524 . S
C1427 C1419 1.503 . S
C1427 C1426 1.370 1_455 S
C1427 C1428 1.403 . S
C1428 C1427 1.403 . S
C1428 C1429 1.404 . S
C1428 C1431 1.539 . S
C1429 C1425 1.408 . S
C1429 C1428 1.404 . S
C1429 H1441 0.930 . S
C1430 C1426 1.524 . S
C1430 H1442 0.956 . S
C1430 H1443 0.961 . S
C1430 H1444 0.961 . S
C1431 C1428 1.539 . S
C1431 H1445 0.958 . S
C1431 H1446 0.961 . S
C1431 H1447 0.960 . S
H1432 C1416 0.931 . S
H1433 C1421 0.929 1_554 S
H1434 C1422 0.960 . S
H1435 C1422 0.962 . S
H1436 C1422 0.960 . S
H1437 C1423 0.961 . S
H1438 C1423 0.961 . S
H1439 C1423 0.961 . S
H1440 C1424 0.931 . S
H1441 C1429 0.930 . S
H1442 C1430 0.956 . S
H1443 C1430 0.961 . S
H1444 C1430 0.961 . S
H1445 C1431 0.958 . S
H1446 C1431 0.961 . S
H1447 C1431 0.960 . S
C1448 C1449 1.391 . S
C1448 C1450 1.394 . S
C1448 H1464 0.931 . S
C1449 C1448 1.391 . S
C1449 C1453 1.376 . S
C1450 C1448 1.394 . S
C1450 C1451 1.369 . S
C1450 C1454 1.531 . S
C1451 C1450 1.369 . S
C1451 C1452 1.410 . S
C1451 C1459 1.503 . S
C1452 C1451 1.410 . S
C1452 C1453 1.392 . S
C1452 C1455 1.511 . S
C1453 C1449 1.376 . S
C1453 C1452 1.392 . S
C1453 H1465 0.929 . S
C1454 C1450 1.531 . S
C1454 H1466 0.960 . S
C1454 H1467 0.962 . S
C1454 H1468 0.960 . S
C1455 C1452 1.511 . S
C1455 H1469 0.961 . S
C1455 H1470 0.961 . S
C1455 H1471 0.961 . S
C1456 C1457 1.370 . S
C1456 C1458 1.363 . S
C1456 H1472 0.931 . S
C1457 C1456 1.370 . S
C1457 C1461 1.408 . S
C1458 C1456 1.363 . S
C1458 C1459 1.370 . S
C1458 C1462 1.524 . S
C1459 C1451 1.503 . S
C1459 C1458 1.370 . S
C1459 C1460 1.403 . S
C1460 C1459 1.403 . S
C1460 C1461 1.404 . S
C1460 C1463 1.539 . S
C1461 C1457 1.408 . S
C1461 C1460 1.404 . S
C1461 H1473 0.930 . S
C1462 C1458 1.524 . S
C1462 H1474 0.956 . S
C1462 H1475 0.961 . S
C1462 H1476 0.961 . S
C1463 C1460 1.539 . S
C1463 H1477 0.958 . S
C1463 H1478 0.961 . S
C1463 H1479 0.960 . S
H1464 C1448 0.931 . S
H1465 C1453 0.929 . S
H1466 C1454 0.960 . S
H1467 C1454 0.962 . S
H1468 C1454 0.960 . S
H1469 C1455 0.961 . S
H1470 C1455 0.961 . S
H1471 C1455 0.961 . S
H1472 C1456 0.931 . S
H1473 C1461 0.930 . S
H1474 C1462 0.956 . S
H1475 C1462 0.961 . S
H1476 C1462 0.961 . S
H1477 C1463 0.958 . S
H1478 C1463 0.961 . S
H1479 C1463 0.960 . S
C1480 C1481 1.391 . S
C1480 C1482 1.394 . S
C1480 H1496 0.931 . S
C1481 C1480 1.391 . S
C1481 C1485 1.376 . S
C1482 C1480 1.394 . S
C1482 C1483 1.369 . S
C1482 C1486 1.531 . S
C1483 C1482 1.369 . S
C1483 C1484 1.410 . S
C1483 C1491 1.503 . S
C1484 C1483 1.410 . S
C1484 C1485 1.392 . S
C1484 C1487 1.511 . S
C1485 C1481 1.376 . S
C1485 C1484 1.392 . S
C1485 H1497 0.929 . S
C1486 C1482 1.531 . S
C1486 H1498 0.960 . S
C1486 H1499 0.962 . S
C1486 H1500 0.960 . S
C1487 C1484 1.511 . S
C1487 H1501 0.961 . S
C1487 H1502 0.961 . S
C1487 H1503 0.961 1_455 S
C1488 C1489 1.370 . S
C1488 C1490 1.363 . S
C1488 H1504 0.931 . S
C1489 C1488 1.370 . S
C1489 C1493 1.408 1_455 S
C1490 C1488 1.363 . S
C1490 C1491 1.370 . S
C1490 C1494 1.524 . S
C1491 C1483 1.503 . S
C1491 C1490 1.370 . S
C1491 C1492 1.371 1_455 S
C1492 C1491 1.371 1_655 S
C1492 C1493 1.407 . S
C1492 C1495 1.571 . S
C1493 C1489 1.408 1_655 S
C1493 C1492 1.407 . S
C1493 H1505 0.930 . S
C1494 C1490 1.524 . S
C1494 H1506 0.956 . S
C1494 H1507 0.961 . S
C1494 H1508 0.961 . S
C1495 C1492 1.571 . S
C1495 H1509 0.958 . S
C1495 H1510 0.961 . S
C1495 H1511 0.960 . S
H1496 C1480 0.931 . S
H1497 C1485 0.929 . S
H1498 C1486 0.960 . S
H1499 C1486 0.962 . S
H1500 C1486 0.960 . S
H1501 C1487 0.961 . S
H1502 C1487 0.961 . S
H1503 C1487 0.961 1_655 S
H1504 C1488 0.931 . S
H1505 C1493 0.930 . S
H1506 C1494 0.956 . S
H1507 C1494 0.961 . S
H1508 C1494 0.961 . S
H1509 C1495 0.958 . S
H1510 C1495 0.961 . S
H1511 C1495 0.960 . S
C1512 C1513 1.391 . S
C1512 C1514 1.394 . S
C1512 H1528 0.931 . S
C1513 C1512 1.391 . S
C1513 C1517 1.376 . S
C1514 C1512 1.394 . S
C1514 C1515 1.369 . S
C1514 C1518 1.531 . S
C1515 C1514 1.369 . S
C1515 C1516 1.410 . S
C1515 C1523 1.503 . S
C1516 C1515 1.410 . S
C1516 C1517 1.392 . S
C1516 C1519 1.511 . S
C1517 C1513 1.376 . S
C1517 C1516 1.392 . S
C1517 H1529 0.929 . S
C1518 C1514 1.531 . S
C1518 H1530 0.960 . S
C1518 H1531 0.962 . S
C1518 H1532 0.960 . S
C1519 C1516 1.511 . S
C1519 H1533 0.961 . S
C1519 H1534 0.961 . S
C1519 H1535 0.961 . S
C1520 C1521 1.370 . S
C1520 C1522 1.363 . S
C1520 H1536 0.931 . S
C1521 C1520 1.370 . S
C1521 C1525 1.408 . S
C1522 C1520 1.363 . S
C1522 C1523 1.370 . S
C1522 C1526 1.524 . S
C1523 C1515 1.503 . S
C1523 C1522 1.370 . S
C1523 C1524 1.403 . S
C1524 C1523 1.403 . S
C1524 C1525 1.404 . S
C1524 C1527 1.539 . S
C1525 C1521 1.408 . S
C1525 C1524 1.404 . S
C1525 H1537 0.930 . S
C1526 C1522 1.524 . S
C1526 H1538 0.956 . S
C1526 H1539 0.961 . S
C1526 H1540 0.961 . S
C1527 C1524 1.539 . S
C1527 H1541 0.958 . S
C1527 H1542 0.961 . S
C1527 H1543 0.960 . S
H1528 C1512 0.931 . S
H1529 C1517 0.929 . S
H1530 C1518 0.960 . S
H1531 C1518 0.962 . S
H1532 C1518 0.960 . S
H1533 C1519 0.961 . S
H1534 C1519 0.961 . S
H1535 C1519 0.961 . S
H1536 C1520 0.931 . S
H1537 C1525 0.930 . S
H1538 C1526 0.956 . S
H1539 C1526 0.961 . S
H1540 C1526 0.961 . S
H1541 C1527 0.958 . S
H1542 C1527 0.961 . S
H1543 C1527 0.960 . S
C1544 C1545 1.391 . S
C1544 C1546 1.394 . S
C1544 H1560 0.931 . S
C1545 C1544 1.391 . S
C1545 C1549 1.376 . S
C1546 C1544 1.394 . S
C1546 C1547 1.369 . S
C1546 C1550 1.531 . S
C1547 C1546 1.369 . S
C1547 C1548 1.410 . S
C1547 C1555 1.503 . S
C1548 C1547 1.410 . S
C1548 C1549 1.392 . S
C1548 C1551 1.511 . S
C1549 C1545 1.376 . S
C1549 C1548 1.392 . S
C1549 H1561 0.929 1_554 S
C1550 C1546 1.531 . S
C1550 H1562 0.960 . S
C1550 H1563 0.962 . S
C1550 H1564 0.960 . S
C1551 C1548 1.511 . S
C1551 H1565 0.961 1_554 S
C1551 H1566 0.961 . S
C1551 H1567 0.961 . S
C1552 C1553 1.370 . S
C1552 C1554 1.363 . S
C1552 H1568 0.931 . S
C1553 C1552 1.370 . S
C1553 C1557 1.408 . S
C1554 C1552 1.363 . S
C1554 C1555 1.370 . S
C1554 C1558 1.524 . S
C1555 C1547 1.503 . S
C1555 C1554 1.370 . S
C1555 C1556 1.403 . S
C1556 C1555 1.403 . S
C1556 C1557 1.404 . S
C1556 C1559 1.539 . S
C1557 C1553 1.408 . S
C1557 C1556 1.404 . S
C1557 H1569 0.930 . S
C1558 C1554 1.524 . S
C1558 H1570 0.956 . S
C1558 H1571 0.961 . S
C1558 H1572 0.961 . S
C1559 C1556 1.539 . S
C1559 H1573 0.958 . S
C1559 H1574 0.961 . S
C1559 H1575 0.960 . S
H1560 C1544 0.931 . S
H1561 C1549 0.929 1_556 S
H1562 C1550 0.960 . S
H1563 C1550 0.962 . S
H1564 C1550 0.960 . S
H1565 C1551 0.961 1_556 S
H1566 C1551 0.961 . S
H1567 C1551 0.961 . S
H1568 C1552 0.931 . S
H1569 C1557 0.930 . S
H1570 C1558 0.956 . S
H1571 C1558 0.961 . S
H1572 C1558 0.961 . S
H1573 C1559 0.958 . S
H1574 C1559 0.961 . S
H1575 C1559 0.960 . S
C1576 C1577 1.391 . S
C1576 C1578 1.394 . S
C1576 H1592 0.931 . S
C1577 C1576 1.391 . S
C1577 C1581 1.376 . S
C1578 C1576 1.394 . S
C1578 C1579 1.369 . S
C1578 C1582 1.531 . S
C1579 C1578 1.369 . S
C1579 C1580 1.410 . S
C1579 C1587 1.503 . S
C1580 C1579 1.410 . S
C1580 C1581 1.392 . S
C1580 C1583 1.511 . S
C1581 C1577 1.376 . S
C1581 C1580 1.392 . S
C1581 H1593 0.929 . S
C1582 C1578 1.531 . S
C1582 H1594 0.960 . S
C1582 H1595 0.962 . S
C1582 H1596 0.960 . S
C1583 C1580 1.511 . S
C1583 H1597 0.961 . S
C1583 H1598 0.961 . S
C1583 H1599 0.961 . S
C1584 C1585 1.370 . S
C1584 C1586 1.363 . S
C1584 H1600 0.931 . S
C1585 C1584 1.370 . S
C1585 C1589 1.408 . S
C1586 C1584 1.363 . S
C1586 C1587 1.370 . S
C1586 C1590 1.524 . S
C1587 C1579 1.503 . S
C1587 C1586 1.370 . S
C1587 C1588 1.403 . S
C1588 C1587 1.403 . S
C1588 C1589 1.404 . S
C1588 C1591 1.539 . S
C1589 C1585 1.408 . S
C1589 C1588 1.404 . S
C1589 H1601 0.930 . S
C1590 C1586 1.524 . S
C1590 H1602 0.956 . S
C1590 H1603 0.961 . S
C1590 H1604 0.961 . S
C1591 C1588 1.539 . S
C1591 H1605 0.958 . S
C1591 H1606 0.961 . S
C1591 H1607 0.960 . S
H1592 C1576 0.931 . S
H1593 C1581 0.929 . S
H1594 C1582 0.960 . S
H1595 C1582 0.962 . S
H1596 C1582 0.960 . S
H1597 C1583 0.961 . S
H1598 C1583 0.961 . S
H1599 C1583 0.961 . S
H1600 C1584 0.931 . S
H1601 C1589 0.930 . S
H1602 C1590 0.956 . S
H1603 C1590 0.961 . S
H1604 C1590 0.961 . S
H1605 C1591 0.958 . S
H1606 C1591 0.961 . S
H1607 C1591 0.960 . S
C1608 C1609 1.391 . S
C1608 C1610 1.394 . S
C1608 H1624 0.931 . S
C1609 C1608 1.391 . S
C1609 C1613 1.376 . S
C1610 C1608 1.394 . S
C1610 C1611 1.369 . S
C1610 C1614 1.531 . S
C1611 C1610 1.369 . S
C1611 C1612 1.410 . S
C1611 C1619 1.503 . S
C1612 C1611 1.410 . S
C1612 C1613 1.392 . S
C1612 C1615 1.511 . S
C1613 C1609 1.376 . S
C1613 C1612 1.392 . S
C1613 H1625 0.929 1_554 S
C1614 C1610 1.531 . S
C1614 H1626 0.960 . S
C1614 H1627 0.962 . S
C1614 H1628 0.960 . S
C1615 C1612 1.511 . S
C1615 H1629 0.961 1_554 S
C1615 H1630 0.961 . S
C1615 H1631 0.961 . S
C1616 C1617 1.370 . S
C1616 C1618 1.363 . S
C1616 H1632 0.931 . S
C1617 C1616 1.370 . S
C1617 C1621 1.408 . S
C1618 C1616 1.363 . S
C1618 C1619 1.370 . S
C1618 C1622 1.524 . S
C1619 C1611 1.503 . S
C1619 C1618 1.370 . S
C1619 C1620 1.403 . S
C1620 C1619 1.403 . S
C1620 C1621 1.404 . S
C1620 C1623 1.539 . S
C1621 C1617 1.408 . S
C1621 C1620 1.404 . S
C1621 H1633 0.930 . S
C1622 C1618 1.524 . S
C1622 H1634 0.956 . S
C1622 H1635 0.961 . S
C1622 H1636 0.961 . S
C1623 C1620 1.539 . S
C1623 H1637 0.958 . S
C1623 H1638 0.961 . S
C1623 H1639 0.960 . S
H1624 C1608 0.931 . S
H1625 C1613 0.929 1_556 S
H1626 C1614 0.960 . S
H1627 C1614 0.962 . S
H1628 C1614 0.960 . S
H1629 C1615 0.961 1_556 S
H1630 C1615 0.961 . S
H1631 C1615 0.961 . S
H1632 C1616 0.931 . S
H1633 C1621 0.930 . S
H1634 C1622 0.956 . S
H1635 C1622 0.961 . S
H1636 C1622 0.961 . S
H1637 C1623 0.958 . S
H1638 C1623 0.961 . S
H1639 C1623 0.960 . S
C1640 C1641 1.391 . S
C1640 C1642 1.394 . S
C1640 H1656 0.931 . S
C1641 C1640 1.391 . S
C1641 C1645 1.376 . S
C1642 C1640 1.394 . S
C1642 C1643 1.369 . S
C1642 C1646 1.531 . S
C1643 C1642 1.369 . S
C1643 C1644 1.410 . S
C1643 C1651 1.503 . S
C1644 C1643 1.410 . S
C1644 C1645 1.392 . S
C1644 C1647 1.511 . S
C1645 C1641 1.376 . S
C1645 C1644 1.392 . S
C1645 H1657 0.929 . S
C1646 C1642 1.531 . S
C1646 H1658 0.960 . S
C1646 H1659 0.962 . S
C1646 H1660 0.960 . S
C1647 C1644 1.511 . S
C1647 H1661 0.961 . S
C1647 H1662 0.961 . S
C1647 H1663 0.961 . S
C1648 C1649 1.370 . S
C1648 C1650 1.363 . S
C1648 H1664 0.931 . S
C1649 C1648 1.370 . S
C1649 C1653 1.408 . S
C1650 C1648 1.363 . S
C1650 C1651 1.370 . S
C1650 C1654 1.524 . S
C1651 C1643 1.503 . S
C1651 C1650 1.370 . S
C1651 C1652 1.403 . S
C1652 C1651 1.403 . S
C1652 C1653 1.404 . S
C1652 C1655 1.539 . S
C1653 C1649 1.408 . S
C1653 C1652 1.404 . S
C1653 H1665 0.930 . S
C1654 C1650 1.524 . S
C1654 H1666 0.956 . S
C1654 H1667 0.961 . S
C1654 H1668 0.961 . S
C1655 C1652 1.539 . S
C1655 H1669 0.958 . S
C1655 H1670 0.961 . S
C1655 H1671 0.960 . S
H1656 C1640 0.931 . S
H1657 C1645 0.929 . S
H1658 C1646 0.960 . S
H1659 C1646 0.962 . S
H1660 C1646 0.960 . S
H1661 C1647 0.961 . S
H1662 C1647 0.961 . S
H1663 C1647 0.961 . S
H1664 C1648 0.931 . S
H1665 C1653 0.930 . S
H1666 C1654 0.956 . S
H1667 C1654 0.961 . S
H1668 C1654 0.961 . S
H1669 C1655 0.958 . S
H1670 C1655 0.961 . S
H1671 C1655 0.960 . S
C1672 C1673 1.391 . S
C1672 C1674 1.394 . S
C1672 H1688 0.931 . S
C1673 C1672 1.391 . S
C1673 C1677 1.376 . S
C1674 C1672 1.394 . S
C1674 C1675 1.369 . S
C1674 C1678 1.531 . S
C1675 C1674 1.369 . S
C1675 C1676 1.410 . S
C1675 C1683 1.503 . S
C1676 C1675 1.410 . S
C1676 C1677 1.392 . S
C1676 C1679 1.511 . S
C1677 C1673 1.376 . S
C1677 C1676 1.392 . S
C1677 H1689 0.929 . S
C1678 C1674 1.531 . S
C1678 H1690 0.960 . S
C1678 H1691 0.962 . S
C1678 H1692 0.960 . S
C1679 C1676 1.511 . S
C1679 H1693 0.961 . S
C1679 H1694 0.961 . S
C1679 H1695 0.961 . S
C1680 C1681 1.370 . S
C1680 C1682 1.363 . S
C1680 H1696 0.931 . S
C1681 C1680 1.370 . S
C1681 C1685 1.408 . S
C1682 C1680 1.363 . S
C1682 C1683 1.370 . S
C1682 C1686 1.524 . S
C1683 C1675 1.503 . S
C1683 C1682 1.370 . S
C1683 C1684 1.403 . S
C1684 C1683 1.403 . S
C1684 C1685 1.404 . S
C1684 C1687 1.539 . S
C1685 C1681 1.408 . S
C1685 C1684 1.404 . S
C1685 H1697 0.930 . S
C1686 C1682 1.524 . S
C1686 H1698 0.956 . S
C1686 H1699 0.961 . S
C1686 H1700 0.961 . S
C1687 C1684 1.539 . S
C1687 H1701 0.958 . S
C1687 H1702 0.961 . S
C1687 H1703 0.960 . S
H1688 C1672 0.931 . S
H1689 C1677 0.929 . S
H1690 C1678 0.960 . S
H1691 C1678 0.962 . S
H1692 C1678 0.960 . S
H1693 C1679 0.961 . S
H1694 C1679 0.961 . S
H1695 C1679 0.961 . S
H1696 C1680 0.931 . S
H1697 C1685 0.930 . S
H1698 C1686 0.956 . S
H1699 C1686 0.961 . S
H1700 C1686 0.961 . S
H1701 C1687 0.958 . S
H1702 C1687 0.961 . S
H1703 C1687 0.960 . S
C1704 C1705 1.391 . S
C1704 C1706 1.394 . S
C1704 H1720 0.931 . S
C1705 C1704 1.391 . S
C1705 C1709 1.376 . S
C1706 C1704 1.394 . S
C1706 C1707 1.369 . S
C1706 C1710 1.531 . S
C1707 C1706 1.369 . S
C1707 C1708 1.410 . S
C1707 C1715 1.503 . S
C1708 C1707 1.410 . S
C1708 C1709 1.392 . S
C1708 C1711 1.511 . S
C1709 C1705 1.376 . S
C1709 C1708 1.392 . S
C1709 H1721 0.929 . S
C1710 C1706 1.531 . S
C1710 H1722 0.960 . S
C1710 H1723 0.962 . S
C1710 H1724 0.960 . S
C1711 C1708 1.511 . S
C1711 H1725 0.961 . S
C1711 H1726 0.961 . S
C1711 H1727 0.961 . S
C1712 C1713 1.370 . S
C1712 C1714 1.363 . S
C1712 H1728 0.931 . S
C1713 C1712 1.370 . S
C1713 C1717 1.408 . S
C1714 C1712 1.363 . S
C1714 C1715 1.370 . S
C1714 C1718 1.524 . S
C1715 C1707 1.503 . S
C1715 C1714 1.370 . S
C1715 C1716 1.403 . S
C1716 C1715 1.403 . S
C1716 C1717 1.404 . S
C1716 C1719 1.539 . S
C1717 C1713 1.408 . S
C1717 C1716 1.404 . S
C1717 H1729 0.930 . S
C1718 C1714 1.524 . S
C1718 H1730 0.956 . S
C1718 H1731 0.961 . S
C1718 H1732 0.961 . S
C1719 C1716 1.539 . S
C1719 H1733 0.958 . S
C1719 H1734 0.961 . S
C1719 H1735 0.960 . S
H1720 C1704 0.931 . S
H1721 C1709 0.929 . S
H1722 C1710 0.960 . S
H1723 C1710 0.962 . S
H1724 C1710 0.960 . S
H1725 C1711 0.961 . S
H1726 C1711 0.961 . S
H1727 C1711 0.961 . S
H1728 C1712 0.931 . S
H1729 C1717 0.930 . S
H1730 C1718 0.956 . S
H1731 C1718 0.961 . S
H1732 C1718 0.961 . S
H1733 C1719 0.958 . S
H1734 C1719 0.961 . S
H1735 C1719 0.960 . S
C1736 C1737 1.391 . S
C1736 C1738 1.394 . S
C1736 H1752 0.931 . S
C1737 C1736 1.391 . S
C1737 C1741 1.376 . S
C1738 C1736 1.394 . S
C1738 C1739 1.369 . S
C1738 C1742 1.531 . S
C1739 C1738 1.369 . S
C1739 C1740 1.410 . S
C1739 C1747 1.503 . S
C1740 C1739 1.410 . S
C1740 C1741 1.392 . S
C1740 C1743 1.511 . S
C1741 C1737 1.376 . S
C1741 C1740 1.392 . S
C1741 H1753 0.929 . S
C1742 C1738 1.531 . S
C1742 H1754 0.960 . S
C1742 H1755 0.962 . S
C1742 H1756 0.960 . S
C1743 C1740 1.511 . S
C1743 H1757 0.961 . S
C1743 H1758 0.961 . S
C1743 H1759 0.961 . S
C1744 C1745 1.370 . S
C1744 C1746 1.363 . S
C1744 H1760 0.931 . S
C1745 C1744 1.370 . S
C1745 C1749 1.408 . S
C1746 C1744 1.363 . S
C1746 C1747 1.370 . S
C1746 C1750 1.524 . S
C1747 C1739 1.503 . S
C1747 C1746 1.370 . S
C1747 C1748 1.403 . S
C1748 C1747 1.403 . S
C1748 C1749 1.404 . S
C1748 C1751 1.539 . S
C1749 C1745 1.408 . S
C1749 C1748 1.404 . S
C1749 H1761 0.930 . S
C1750 C1746 1.524 . S
C1750 H1762 0.956 . S
C1750 H1763 0.961 . S
C1750 H1764 0.961 . S
C1751 C1748 1.539 . S
C1751 H1765 0.958 . S
C1751 H1766 0.961 . S
C1751 H1767 0.960 . S
H1752 C1736 0.931 . S
H1753 C1741 0.929 . S
H1754 C1742 0.960 . S
H1755 C1742 0.962 . S
H1756 C1742 0.960 . S
H1757 C1743 0.961 . S
H1758 C1743 0.961 . S
H1759 C1743 0.961 . S
H1760 C1744 0.931 . S
H1761 C1749 0.930 . S
H1762 C1750 0.956 . S
H1763 C1750 0.961 . S
H1764 C1750 0.961 . S
H1765 C1751 0.958 . S
H1766 C1751 0.961 . S
H1767 C1751 0.960 . S
C1768 C1769 1.391 . S
C1768 C1770 1.394 . S
C1768 H1784 0.931 . S
C1769 C1768 1.391 . S
C1769 C1773 1.376 . S
C1770 C1768 1.394 . S
C1770 C1771 1.369 . S
C1770 C1774 1.531 . S
C1771 C1770 1.369 . S
C1771 C1772 1.410 . S
C1771 C1779 1.503 . S
C1772 C1771 1.410 . S
C1772 C1773 1.392 . S
C1772 C1775 1.511 . S
C1773 C1769 1.376 . S
C1773 C1772 1.392 . S
C1773 H1785 0.929 . S
C1774 C1770 1.531 . S
C1774 H1786 0.960 . S
C1774 H1787 0.962 . S
C1774 H1788 0.960 . S
C1775 C1772 1.511 . S
C1775 H1789 0.961 . S
C1775 H1790 0.961 . S
C1775 H1791 0.961 . S
C1776 C1777 1.370 1_554 S
C1776 C1778 1.363 . S
C1776 H1792 0.931 . S
C1777 C1776 1.370 1_556 S
C1777 C1781 1.408 . S
C1778 C1776 1.363 . S
C1778 C1779 1.370 1_554 S
C1778 C1782 1.524 . S
C1779 C1771 1.503 . S
C1779 C1778 1.370 1_556 S
C1779 C1780 1.403 . S
C1780 C1779 1.403 . S
C1780 C1781 1.404 . S
C1780 C1783 1.539 . S
C1781 C1777 1.408 . S
C1781 C1780 1.404 . S
C1781 H1793 0.930 . S
C1782 C1778 1.524 . S
C1782 H1794 0.956 . S
C1782 H1795 0.961 . S
C1782 H1796 0.961 . S
C1783 C1780 1.539 . S
C1783 H1797 0.958 . S
C1783 H1798 0.961 . S
C1783 H1799 0.960 . S
H1784 C1768 0.931 . S
H1785 C1773 0.929 . S
H1786 C1774 0.960 . S
H1787 C1774 0.962 . S
H1788 C1774 0.960 . S
H1789 C1775 0.961 . S
H1790 C1775 0.961 . S
H1791 C1775 0.961 . S
H1792 C1776 0.931 . S
H1793 C1781 0.930 . S
H1794 C1782 0.956 . S
H1795 C1782 0.961 . S
H1796 C1782 0.961 . S
H1797 C1783 0.958 . S
H1798 C1783 0.961 . S
H1799 C1783 0.960 . S
C1800 C1801 1.391 . S
C1800 C1802 1.394 . S
C1800 H1816 0.931 . S
C1801 C1800 1.391 . S
C1801 C1805 1.376 . S
C1802 C1800 1.394 . S
C1802 C1803 1.369 . S
C1802 C1806 1.531 . S
C1803 C1802 1.369 . S
C1803 C1804 1.410 . S
C1803 C1811 1.503 . S
C1804 C1803 1.410 . S
C1804 C1805 1.392 . S
C1804 C1807 1.511 . S
C1805 C1801 1.376 . S
C1805 C1804 1.392 . S
C1805 H1817 0.929 . S
C1806 C1802 1.531 . S
C1806 H1818 0.960 . S
C1806 H1819 0.962 . S
C1806 H1820 0.960 . S
C1807 C1804 1.511 . S
C1807 H1821 0.961 . S
C1807 H1822 0.961 . S
C1807 H1823 0.961 . S
C1808 C1809 1.370 . S
C1808 C1810 1.363 . S
C1808 H1824 0.931 . S
C1809 C1808 1.370 . S
C1809 C1813 1.408 . S
C1810 C1808 1.363 . S
C1810 C1811 1.370 . S
C1810 C1814 1.524 . S
C1811 C1803 1.503 . S
C1811 C1810 1.370 . S
C1811 C1812 1.403 . S
C1812 C1811 1.403 . S
C1812 C1813 1.404 . S
C1812 C1815 1.539 . S
C1813 C1809 1.408 . S
C1813 C1812 1.404 . S
C1813 H1825 0.930 . S
C1814 C1810 1.524 . S
C1814 H1826 0.956 . S
C1814 H1827 0.961 . S
C1814 H1828 0.961 . S
C1815 C1812 1.539 . S
C1815 H1829 0.958 . S
C1815 H1830 0.961 . S
C1815 H1831 0.960 . S
H1816 C1800 0.931 . S
H1817 C1805 0.929 . S
H1818 C1806 0.960 . S
H1819 C1806 0.962 . S
H1820 C1806 0.960 . S
H1821 C1807 0.961 . S
H1822 C1807 0.961 . S
H1823 C1807 0.961 . S
H1824 C1808 0.931 . S
H1825 C1813 0.930 . S
H1826 C1814 0.956 . S
H1827 C1814 0.961 . S
H1828 C1814 0.961 . S
H1829 C1815 0.958 . S
H1830 C1815 0.961 . S
H1831 C1815 0.960 . S
C1832 C1833 1.391 . S
C1832 C1834 1.394 . S
C1832 H1848 0.931 . S
C1833 C1832 1.391 . S
C1833 C1837 1.376 . S
C1834 C1832 1.394 . S
C1834 C1835 1.369 . S
C1834 C1838 1.531 . S
C1835 C1834 1.369 . S
C1835 C1836 1.410 . S
C1835 C1843 1.503 . S
C1836 C1835 1.410 . S
C1836 C1837 1.392 . S
C1836 C1839 1.511 . S
C1837 C1833 1.376 . S
C1837 C1836 1.392 . S
C1837 H1849 0.929 . S
C1838 C1834 1.531 . S
C1838 H1850 0.960 . S
C1838 H1851 0.962 . S
C1838 H1852 0.960 . S
C1839 C1836 1.511 . S
C1839 H1853 0.961 . S
C1839 H1854 0.961 . S
C1839 H1855 0.961 1_554 S
C1840 C1841 1.370 . S
C1840 C1842 1.363 . S
C1840 H1856 0.931 . S
C1841 C1840 1.370 . S
C1841 C1845 1.408 . S
C1842 C1840 1.363 . S
C1842 C1843 1.370 . S
C1842 C1846 1.524 . S
C1843 C1835 1.503 . S
C1843 C1842 1.370 . S
C1843 C1844 1.403 . S
C1844 C1843 1.403 . S
C1844 C1845 1.404 . S
C1844 C1847 1.539 1_554 S
C1845 C1841 1.408 . S
C1845 C1844 1.404 . S
C1845 H1857 0.930 1_554 S
C1846 C1842 1.524 . S
C1846 H1858 0.956 . S
C1846 H1859 0.961 . S
C1846 H1860 0.961 . S
C1847 C1844 1.539 1_556 S
C1847 H1861 0.958 . S
C1847 H1862 0.961 . S
C1847 H1863 0.960 . S
H1848 C1832 0.931 . S
H1849 C1837 0.929 . S
H1850 C1838 0.960 . S
H1851 C1838 0.962 . S
H1852 C1838 0.960 . S
H1853 C1839 0.961 . S
H1854 C1839 0.961 . S
H1855 C1839 0.961 1_556 S
H1856 C1840 0.931 . S
H1857 C1845 0.930 1_556 S
H1858 C1846 0.956 . S
H1859 C1846 0.961 . S
H1860 C1846 0.961 . S
H1861 C1847 0.958 . S
H1862 C1847 0.961 . S
H1863 C1847 0.960 . S
C1864 C1865 1.391 . S
C1864 C1866 1.394 1_545 S
C1864 H1880 0.931 1_554 S
C1865 C1864 1.391 . S
C1865 C1869 1.376 1_545 S
C1866 C1864 1.394 1_565 S
C1866 C1867 1.369 . S
C1866 C1870 1.531 1_554 S
C1867 C1866 1.369 . S
C1867 C1868 1.410 . S
C1867 C1875 1.503 . S
C1868 C1867 1.410 . S
C1868 C1869 1.392 . S
C1868 C1871 1.511 . S
C1869 C1865 1.376 1_565 S
C1869 C1868 1.392 . S
C1869 H1881 0.929 . S
C1870 C1866 1.531 1_556 S
C1870 H1882 0.960 . S
C1870 H1883 0.962 . S
C1870 H1884 0.960 1_565 S
C1871 C1868 1.511 . S
C1871 H1885 0.961 . S
C1871 H1886 0.961 . S
C1871 H1887 0.961 . S
C1872 C1873 1.370 . S
C1872 C1874 1.363 . S
C1872 H1888 0.931 . S
C1873 C1872 1.370 . S
C1873 C1877 1.408 . S
C1874 C1872 1.363 . S
C1874 C1875 1.370 . S
C1874 C1878 1.524 . S
C1875 C1867 1.503 . S
C1875 C1874 1.370 . S
C1875 C1876 1.403 . S
C1876 C1875 1.403 . S
C1876 C1877 1.404 . S
C1876 C1879 1.539 1_565 S
C1877 C1873 1.408 . S
C1877 C1876 1.404 . S
C1877 H1889 0.930 . S
C1878 C1874 1.524 . S
C1878 H1890 0.956 1_554 S
C1878 H1891 0.961 . S
C1878 H1892 0.961 . S
C1879 C1876 1.539 1_545 S
C1879 H1893 0.958 . S
C1879 H1894 0.961 . S
C1879 H1895 0.960 . S
H1880 C1864 0.931 1_556 S
H1881 C1869 0.929 . S
H1882 C1870 0.960 . S
H1883 C1870 0.962 . S
H1884 C1870 0.960 1_545 S
H1885 C1871 0.961 . S
H1886 C1871 0.961 . S
H1887 C1871 0.961 . S
H1888 C1872 0.931 . S
H1889 C1877 0.930 . S
H1890 C1878 0.956 1_556 S
H1891 C1878 0.961 . S
H1892 C1878 0.961 . S
H1893 C1879 0.958 . S
H1894 C1879 0.961 . S
H1895 C1879 0.960 . S
C369 C203 1.685 . S
C361 C66 1.709 . S
C401 C211 1.040 . S
C393 C76 1.193 . S
C425 C93 1.762 . S
C433 C231 1.744 . S
C465 C245 1.473 . S
C457 C54 1.485 1_545 S
C497 C260 1.501 . S
C489 C126 1.503 . S
C529 C274 1.838 . S
C521 C150 1.832 . S
C553 C136 1.251 . S
C561 C288 1.246 . S
C593 C294 1.686 . S
C585 C117 1.764 . S
C617 C141 1.324 . S
C625 C308 1.297 . S
C657 C329 1.350 . S
C649 C112 1.382 . S
C681 C124 1.471 . S
C689 C309 1.230 . S
C721 C330 1.303 . S
C713 C148 1.298 . S
C745 C88 1.283 . S
C753 C337 1.102 . S
C777 C52 1.581 . S
C785 C343 1.562 . S
C809 C64 1.268 . S
C817 C336 1.238 . S
C841 C78 1.165 . S
C849 C344 1.189 . S
C873 C45 1.696 . S
C881 C238 1.684 . S
C905 C177 1.861 . S
C913 C239 1.665 . S
C945 C196 1.397 . S
C937 C189 1.400 1_565 S
C977 C217 1.553 . S
C969 C102 1.566 . S
C1001 C57 1.714 . S
C1009 C252 1.708 . S
C1041 C302 1.470 . S
C1033 C138 1.461 . S
C1073 C253 1.521 . S
C1065 C114 1.729 . S
C1105 C281 1.458 . S
C1097 C153 1.745 . S
C1137 C287 1.686 . S
C1129 C174 1.708 . S
C1161 C184 1.195 . S
C1169 C295 1.028 . S
C1193 C105 1.765 . S
C1201 C259 1.741 . S
C1233 C273 1.471 . S
C1225 C162 1.485 . S
C1257 C42 1.500 . S
C1265 C232 1.499 . S
C1297 C246 1.838 . S
C1289 C6 1.832 . S
C1329 C204 1.249 . S
C1321 C16 1.239 . S
C1361 C210 1.690 . S
C1353 C33 1.763 1_455 S
C1385 C21 1.304 . S
C1393 C322 1.299 . S
C1417 C28 1.359 1_556 S
C1425 C315 1.353 . S
C1449 C40 1.471 . S
C1457 C323 1.257 . S
C1481 C4 1.304 . S
C1489 C316 1.303 . S
C1521 C351 1.138 . S
C1513 C100 1.266 . S
C1553 C357 1.575 . S
C1545 C160 1.577 1_554 S
C1585 C350 1.235 . S
C1577 C172 1.272 . S
C1609 C186 1.194 1_554 S
C1617 C358 1.186 . S
C1641 C129 1.702 . S
C1649 C266 1.688 . S
C1681 C267 1.673 . S
C1673 C69 1.867 . S
C1713 C280 1.370 . S
C1705 C81 1.432 . S
C1745 C301 1.539 . S
C1737 C90 1.557 . S
C1769 C165 1.707 . S
C1777 C224 1.705 . S
C1809 C218 1.468 . S
C1801 C18 1.459 . S
C1833 C30 1.727 . S
C1841 C225 1.529 . S
C1873 C197 1.460 . S
C1865 C9 1.746 . S
